drugbank_target|Q672W7 Peptide deformylase (DB08753; DB08754)
 OpenBabel12092120533D

  0  0  0     0  0            999 V3000
M  V30 BEGIN CTAB
M  V30 COUNTS 2868 2890 0 0 0
M  V30 BEGIN ATOM
M  V30 1 H -0.908 1.98254 -0.117106 0
M  V30 2 N 0 1.576 0 0
M  V30 3 C 0.933 2.03868 1.02534 0
M  V30 4 C 1.911 0.928543 1.3348 0
M  V30 5 O 3.095 1.19667 1.45644 0
M  V30 6 C 0.222 2.43627 2.35294 0
M  V30 7 C -0.732 3.65373 2.2001 0
M  V30 8 S 0.101 5.13292 1.52614 0
M  V30 9 C 1.257 5.56322 2.86805 0
M  V30 10 H 1.49 2.90518 0.631377 0
M  V30 11 H -0.977 1.52953 0.210867 0
M  V30 12 H 0.981 2.67203 3.11629 0
M  V30 13 H -0.358 1.57376 2.7183 0
M  V30 14 H -1.165 3.90944 3.18086 0
M  V30 15 H -1.563 3.418 1.51819 0
M  V30 16 H 0.729 5.58782 3.83104 0
M  V30 17 H 1.672 6.56266 2.65933 0
M  V30 18 H 2.08 4.83886 2.90714 0
M  V30 19 N 1.4781 -0.272755 1.55222 0
M  V30 20 C 2.4411 -1.32041 1.87344 0
M  V30 21 C 3.4411 -1.42342 0.74803 0
M  V30 22 O 4.6311 -1.41488 1.0162 0
M  V30 23 C 1.7631 -2.70173 2.07893 0
M  V30 24 H 2.9561 -1.04789 2.80997 0
M  V30 25 H 0.5091 -0.51083 1.47717 0
M  V30 26 H 1.2441 -3.02605 1.16622 0
M  V30 27 H 1.0291 -2.64082 2.89833 0
M  V30 28 H 2.5191 -3.45869 2.34017 0
M  V30 29 N 2.9562 -1.48159 -0.537278 0
M  V30 30 C 3.8862 -1.65029 -1.6519 0
M  V30 31 C 4.8672 -0.499281 -1.62607 0
M  V30 32 O 6.0522 -0.730972 -1.79918 0
M  V30 33 C 3.1822 -1.68303 -3.03795 0
M  V30 34 C 2.1362 -2.8283 -3.21234 0
M  V30 35 C 1.4622 -2.71189 -4.60826 0
M  V30 36 C 2.7622 -4.24211 -3.04701 0
M  V30 37 H 4.4562 -2.58341 -1.51328 0
M  V30 38 H 2.0022 -1.24325 -0.726585 0
M  V30 39 H 3.9552 -1.78693 -3.81637 0
M  V30 40 H 2.6792 -0.715635 -3.18663 0
M  V30 41 H 1.3382 -2.71983 -2.45807 0
M  V30 42 H 0.9862 -1.72435 -4.7252 0
M  V30 43 H 0.6862 -3.48035 -4.7344 0
M  V30 44 H 2.2102 -2.83537 -5.40777 0
M  V30 45 H 3.6242 -4.3593 -3.72341 0
M  V30 46 H 2.0212 -5.01998 -3.28813 0
M  V30 47 H 3.0912 -4.41184 -2.01209 0
M  V30 48 N 4.4343 0.785586 -1.36625 0
M  V30 49 C 5.3643 1.91259 -1.33949 0
M  V30 50 C 6.3453 1.68795 -0.210325 0
M  V30 51 O 7.5303 1.89854 -0.408561 0
M  V30 52 C 4.6603 3.28339 -1.13186 0
M  V30 53 C 3.6143 3.65335 -2.22967 0
M  V30 54 C 2.9403 5.00806 -1.87342 0
M  V30 55 C 4.2403 3.7352 -3.65075 0
M  V30 56 H 5.9343 1.93755 -2.28253 0
M  V30 57 H 3.4803 0.930788 -1.09874 0
M  V30 58 H 5.4333 4.06804 -1.09948 0
M  V30 59 H 4.1573 3.2624 -0.153332 0
M  V30 60 H 2.8163 2.89169 -2.25337 0
M  V30 61 H 2.4643 4.95233 -0.880545 0
M  V30 62 H 2.1643 5.26529 -2.60846 0
M  V30 63 H 3.6883 5.81687 -1.85667 0
M  V30 64 H 5.1023 4.42168 -3.64911 0
M  V30 65 H 3.4993 4.10731 -4.37516 0
M  V30 66 H 4.5693 2.74527 -3.99703 0
M  V30 67 N 5.9124 1.20967 1.01018 0
M  V30 68 C 6.8224 0.980157 2.13143 0
M  V30 69 C 7.8384 -0.0660665 1.73875 0
M  V30 70 O 9.0144 0.122821 2.01025 0
M  V30 71 C 6.0794 0.54216 3.42435 0
M  V30 72 C 5.1404 1.65999 3.95908 0
M  V30 73 C 4.3734 1.2428 5.19028 0
M  V30 74 O 4.5964 0.114196 5.70286 0
M  V30 75 O 3.5304 2.05271 5.65816 0
M  V30 76 H 7.3564 1.91913 2.35379 0
M  V30 77 H 4.9414 0.994099 1.11526 0
M  V30 78 H 6.8234 0.30744 4.20277 0
M  V30 79 H 5.4984 -0.36815 3.216 0
M  V30 80 H 4.4054 1.94906 3.19316 0
M  V30 81 H 5.7384 2.54753 4.21143 0
M  V30 82 N 7.3905 -1.2043 1.01659 0
M  V30 83 C 8.6395 -1.89118 0.701237 0
M  V30 84 C 8.9525 -1.79705 -0.772358 0
M  V30 85 O 10.1585 -2.43528 -1.20026 0
M  V30 86 C 8.6145 -3.39168 1.20388 0
M  V30 87 C 8.2225 -3.57166 2.70438 0
M  V30 88 C 9.9665 -4.1341 0.963953 0
M  V30 89 C 7.8735 -5.01042 3.14183 0
M  V30 90 H 6.8035 -0.708267 0.2586 0
M  V30 91 H 9.4545 -1.36239 1.22927 0
M  V30 92 H 7.8365 -3.91369 0.603824 0
M  V30 93 H 9.0105 -3.15351 3.35992 0
M  V30 94 H 7.3255 -2.96294 2.92572 0
M  V30 95 H 9.9225 -5.19491 1.26621 0
M  V30 96 H 10.2655 -4.16181 -0.099578 0
M  V30 97 H 10.7985 -3.67309 1.52738 0
M  V30 98 H 7.5375 -5.03426 4.19812 0
M  V30 99 H 7.0575 -5.43668 2.53348 0
M  V30 100 H 8.7365 -5.69623 3.0682 0
M  V30 101 N 8.8686 -0.792821 -1.36206 0
M  V30 102 C 10.1176 -0.363353 -1.984 0
M  V30 103 C 10.4306 1.07172 -1.63626 0
M  V30 104 O 11.6366 1.60362 -2.19081 0
M  V30 105 C 10.0926 -0.59872 -3.54885 0
M  V30 106 C 9.7006 -2.04543 -3.9858 0
M  V30 107 C 11.4446 -0.233926 -4.23855 0
M  V30 108 C 9.3516 -2.22727 -5.47856 0
M  V30 109 H 8.2816 -0.13212 -0.742334 0
M  V30 110 H 10.9326 -0.974935 -1.55458 0
M  V30 111 H 9.3146 0.0826222 -3.95914 0
M  V30 112 H 10.4886 -2.76345 -3.68741 0
M  V30 113 H 8.8036 -2.36879 -3.42458 0
M  V30 114 H 11.4006 -0.348027 -5.33566 0
M  V30 115 H 11.7436 0.818351 -4.08177 0
M  V30 116 H 12.2766 -0.868639 -3.882 0
M  V30 117 H 9.0156 -3.2635 -5.68486 0
M  V30 118 H 8.5356 -1.55434 -5.7931 0
M  V30 119 H 10.2146 -2.03607 -6.14128 0
M  V30 120 N 10.3467 1.47872 -0.545128 0
M  V30 121 C 11.2967 2.26842 0.229456 0
M  V30 122 C 12.2807 1.33626 0.896267 0
M  V30 123 O 13.4727 1.58063 0.79657 0
M  V30 124 C 10.6017 3.19089 1.26638 0
M  V30 125 C 9.6877 4.19783 0.603598 0
M  V30 126 N 10.0787 5.0479 -0.319405 0
M  V30 127 C 8.3767 4.3765 0.858989 0
M  V30 128 C 9.0777 5.77433 -0.703241 0
M  V30 129 N 8.0537 5.43566 -0.0608309 0
M  V30 130 H 11.8557 2.89947 -0.480391 0
M  V30 131 H 9.3697 1.58263 -0.364209 0
M  V30 132 H 11.3667 3.74337 1.83515 0
M  V30 133 H 10.0267 2.5754 1.97745 0
M  V30 134 H 11.0377 5.13244 -0.692889 0
M  V30 135 H 7.7147 3.87281 1.55948 0
M  V30 136 H 9.1047 6.55824 -1.46098 0
M  V30 137 N 11.8248 0.280983 1.55075 0
M  V30 138 C 13.0548 -0.336804 2.03836 0
M  V30 139 C 13.4628 -1.49577 1.15859 0
M  V30 140 O 12.8058 -1.82888 0.172503 0
M  V30 141 C 12.8678 -0.874616 3.48699 0
M  V30 142 C 12.5318 0.156478 4.56732 0
M  V30 143 C 13.5288 0.978032 5.10618 0
M  V30 144 C 11.2138 0.292409 5.01448 0
M  V30 145 C 13.2078 1.92165 6.07743 0
M  V30 146 C 10.8948 1.23949 5.98398 0
M  V30 147 C 11.8928 2.05261 6.51427 0
M  V30 148 O 11.5808 2.98367 7.4648 0
M  V30 149 H 11.3128 -0.0800885 0.671239 0
M  V30 150 H 13.8668 0.412589 2.01213 0
M  V30 151 H 12.0968 -1.67418 3.4858 0
M  V30 152 H 13.7858 -1.40612 3.80766 0
M  V30 153 H 14.5518 0.883782 4.7688 0
M  V30 154 H 10.4308 -0.330498 4.59814 0
M  V30 155 H 13.9748 2.55672 6.49059 0
M  V30 156 H 9.8718 1.33454 6.31554 0
M  V30 157 H 10.6398 2.93116 7.64215 0
M  V30 158 N 13.3029 -1.57598 0.00835791 0
M  V30 159 C 14.7139 -1.7892 -0.53333 0
M  V30 160 C 15.0649 -0.916609 -1.73473 0
M  V30 161 O 14.1899 -0.121336 -2.1606 0
M  V30 162 C 14.7849 -3.24488 -0.974313 0
M  V30 163 C 13.3439 -3.46878 -1.46125 0
M  V30 164 C 12.4909 -2.74157 -0.416302 0
M  V30 165 H 15.4419 -1.56958 0.234495 0
M  V30 166 H 15.4629 -3.3306 -1.83988 0
M  V30 167 H 14.9749 -3.87972 -0.099718 0
M  V30 168 H 13.0759 -2.8862 -2.35646 0
M  V30 169 H 13.1889 -4.55572 -1.48295 0
M  V30 170 H 11.5529 -2.39022 -0.87981 0
M  V30 171 H 12.3359 -3.40345 0.44947 0
M  V30 172 N 14.781 0.264519 -1.55364 0
M  V30 173 C 16.006 1.01726 -1.80739 0
M  V30 174 C 16.431 1.78836 -0.583044 0
M  V30 175 O 15.789 1.75167 0.467566 0
M  V30 176 C 15.837 1.94482 -3.03659 0
M  V30 177 O 14.941 3.03386 -2.7934 0
M  V30 178 H 14.282 0.290395 -0.597132 0
M  V30 179 H 16.812 0.290854 -2.02522 0
M  V30 180 H 16.822 2.36278 -3.32621 0
M  V30 181 H 15.497 1.37772 -3.92418 0
M  V30 182 H 14.074 2.65844 -2.61498 0
M  V30 183 N 16.2591 1.48442 0.529413 0
M  V30 184 C 17.2061 1.63007 1.63394 0
M  V30 185 C 18.1761 0.47212 1.59249 0
M  V30 186 O 19.3611 0.695673 1.77666 0
M  V30 187 C 16.5011 1.6763 3.01653 0
M  V30 188 C 15.6141 2.94535 3.16027 0
M  V30 189 C 14.7491 2.90316 4.44849 0
M  V30 190 C 13.7881 4.11923 4.52754 0
M  V30 191 N 12.9251 4.05777 5.72965 0
M  V30 192 H 17.7651 2.5733 1.50285 0
M  V30 193 H 15.3021 1.27613 0.731656 0
M  V30 194 H 17.2601 1.68292 3.81751 0
M  V30 195 H 15.8901 0.76797 3.13532 0
M  V30 196 H 14.9421 3.03615 2.29177 0
M  V30 197 H 16.2541 3.84512 3.17729 0
M  V30 198 H 15.4081 2.89382 5.33238 0
M  V30 199 H 14.1471 1.98068 4.45668 0
M  V30 200 H 13.1521 4.13131 3.62771 0
M  V30 201 H 14.3771 5.0533 4.53672 0
M  V30 202 H 12.3231 3.16351 5.74681 0
M  V30 203 H 12.2401 4.8946 5.76164 0
M  V30 204 H 13.5081 4.08904 6.6364 0
M  V30 205 N 17.7372 -0.778329 1.37039 0
M  V30 206 C 18.9862 -1.53189 1.3121 0
M  V30 207 C 19.2992 -1.95328 -0.103095 0
M  V30 208 O 20.5052 -2.70012 -0.283826 0
M  V30 209 C 18.9612 -2.76591 2.30272 0
M  V30 210 C 18.5692 -2.41577 3.77286 0
M  V30 211 C 20.3132 -3.5455 2.33441 0
M  V30 212 C 18.2202 -3.61441 4.68096 0
M  V30 213 H 17.1502 -0.5751 0.487622 0
M  V30 214 H 19.8012 -0.853101 1.62464 0
M  V30 215 H 18.1832 -3.46326 1.92027 0
M  V30 216 H 19.3572 -1.79668 4.2433 0
M  V30 217 H 17.6722 -1.76806 3.76999 0
M  V30 218 H 20.2692 -4.43628 2.98493 0
M  V30 219 H 20.6122 -3.93936 1.34611 0
M  V30 220 H 21.1452 -2.91805 2.7036 0
M  V30 221 H 17.8842 -3.27142 5.6803 0
M  V30 222 H 17.4042 -4.22478 4.25761 0
M  V30 223 H 19.0832 -4.28335 4.8491 0
M  V30 224 N 19.2153 -1.21501 -1.00376 0
M  V30 225 C 20.1453 -0.999478 -2.11028 0
M  V30 226 C 21.1263 0.0759671 -1.6993 0
M  V30 227 O 22.3113 -0.0841106 -1.94018 0
M  V30 228 C 19.4413 -0.564709 -3.42678 0
M  V30 229 C 18.3953 -1.58486 -3.97576 0
M  V30 230 C 17.7213 -1.00628 -5.25146 0
M  V30 231 C 19.0213 -2.97204 -4.29496 0
M  V30 232 H 20.7153 -1.92495 -2.29317 0
M  V30 233 H 18.2613 -0.92693 -1.102 0
M  V30 234 H 20.2143 -0.401091 -4.19487 0
M  V30 235 H 18.9383 0.396411 -3.24185 0
M  V30 236 H 17.5973 -1.73606 -3.22888 0
M  V30 237 H 17.2453 -0.0368439 -5.02987 0
M  V30 238 H 16.9453 -1.68771 -5.62841 0
M  V30 239 H 18.4693 -0.854015 -6.04598 0
M  V30 240 H 19.8833 -2.8552 -4.97143 0
M  V30 241 H 18.2803 -3.62372 -4.78338 0
M  V30 242 H 19.3503 -3.47956 -3.3772 0
M  V30 243 N 20.6934 1.19889 -1.02296 0
M  V30 244 C 22.1094 1.41462 -0.738954 0
M  V30 245 C 22.3094 1.89721 0.678846 0
M  V30 246 O 21.3654 2.07016 1.4457 0
M  V30 247 C 22.6784 2.43083 -1.77005 0
M  V30 248 C 24.2264 2.5684 -1.78892 0
M  V30 249 C 24.7014 3.61709 -2.80945 0
M  V30 250 N 26.1924 3.69199 -2.79725 0
M  V30 251 C 26.9274 4.50019 -3.55345 0
M  V30 252 N 26.4234 5.34592 -4.40662 0
M  V30 253 N 28.2164 4.44612 -3.43914 0
M  V30 254 H 20.3674 0.868827 -1.93817 0
M  V30 255 H 22.6304 0.44399 -0.837602 0
M  V30 256 H 22.3364 2.14636 -2.78612 0
M  V30 257 H 22.2104 3.4217 -1.58744 0
M  V30 258 H 24.5974 2.84614 -0.779674 0
M  V30 259 H 24.6784 1.57927 -2.01228 0
M  V30 260 H 24.3224 3.34678 -3.82038 0
M  V30 261 H 24.2524 4.60259 -2.5587 0
M  V30 262 H 26.7434 3.08794 -2.17842 0
M  V30 263 H 27.0564 5.93363 -4.95116 0
M  V30 264 H 25.4014 5.34073 -4.44737 0
M  V30 265 H 28.5924 3.7758 -2.76679 0
M  V30 266 H 28.7654 5.0736 -4.031 0
M  V30 267 N 22.1715 0.800033 1.35784 0
M  V30 268 C 23.3995 0.389606 2.03199 0
M  V30 269 C 23.8145 -0.997375 1.60306 0
M  V30 270 O 23.1715 -1.64154 0.797481 0
M  V30 271 C 23.2225 0.455855 3.58614 0
M  V30 272 O 22.9435 1.78815 3.99946 0
M  V30 273 C 24.4445 0.0374032 4.43284 0
M  V30 274 H 21.6645 0.159132 0.651857 0
M  V30 275 H 24.2085 1.08183 1.73541 0
M  V30 276 H 22.3635 -0.188057 3.86943 0
M  V30 277 H 22.7775 1.74636 4.94573 0
M  V30 278 H 24.2515 0.134882 5.51835 0
M  V30 279 H 24.7285 -1.01651 4.27275 0
M  V30 280 H 25.3345 0.654215 4.20238 0
M  V30 281 N 23.6496 -1.47581 0.552962 0
M  V30 282 C 24.8986 -2.01684 0.0251995 0
M  V30 283 C 25.2116 -1.43317 -1.33115 0
M  V30 284 O 26.4176 -1.89057 -1.94858 0
M  V30 285 C 24.8736 -3.599 -0.00542052 0
M  V30 286 C 24.4816 -4.27257 1.34742 0
M  V30 287 C 26.2256 -4.21768 -0.4808 0
M  V30 288 C 24.1326 -5.77467 1.27614 0
M  V30 289 H 23.0626 -0.753979 0.00565033 0
M  V30 290 H 25.7136 -1.69616 0.70018 0
M  V30 291 H 24.0956 -3.88911 -0.745961 0
M  V30 292 H 25.2696 -4.09893 2.10534 0
M  V30 293 H 23.5846 -3.77358 1.76039 0
M  V30 294 H 26.1816 -5.31838 -0.55246 0
M  V30 295 H 26.5246 -3.88651 -1.49184 0
M  V30 296 H 27.0576 -3.97273 0.204752 0
M  V30 297 H 23.7966 -6.15196 2.26304 0
M  V30 298 H 23.3166 -5.9718 0.55996 0
M  V30 299 H 24.9956 -6.3959 0.976421 0
M  V30 300 N 25.1277 -0.289203 -1.54924 0
M  V30 301 C 26.3527 0.329299 -2.04769 0
M  V30 302 C 26.7777 1.4763 -1.16564 0
M  V30 303 O 26.1357 1.80527 -0.167186 0
M  V30 304 C 26.1837 0.774438 -3.52186 0
M  V30 305 O 25.2877 1.88038 -3.67036 0
M  V30 306 H 24.6287 0.0659259 -0.660719 0
M  V30 307 H 27.1587 -0.42761 -2.00082 0
M  V30 308 H 27.1687 1.06642 -3.93816 0
M  V30 309 H 25.8437 -0.0646707 -4.1585 0
M  V30 310 H 24.4207 1.58985 -3.3731 0
M  V30 311 N 26.6058 1.57591 -0.0167156 0
M  V30 312 C 27.5528 2.09462 0.969251 0
M  V30 313 C 28.5228 0.99381 1.33089 0
M  V30 314 O 29.7078 1.26726 1.42636 0
M  V30 315 C 26.8478 2.61622 2.25051 0
M  V30 316 C 25.9608 3.85666 1.94642 0
M  V30 317 C 25.0958 4.26266 3.16972 0
M  V30 318 C 24.1348 5.43101 2.82326 0
M  V30 319 N 23.2718 5.78915 3.97243 0
M  V30 320 H 28.1118 2.93428 0.519997 0
M  V30 321 H 25.6488 1.45044 0.245087 0
M  V30 322 H 27.6068 2.89949 2.99976 0
M  V30 323 H 26.2368 1.80505 2.67615 0
M  V30 324 H 25.2888 3.64145 1.10013 0
M  V30 325 H 26.6008 4.70678 1.65117 0
M  V30 326 H 25.7548 4.55963 4.00228 0
M  V30 327 H 24.4938 3.39996 3.49648 0
M  V30 328 H 23.4988 5.1311 1.97479 0
M  V30 329 H 24.7238 6.3106 2.50879 0
M  V30 330 H 22.6698 4.95602 4.29785 0
M  V30 331 H 22.5868 6.58539 3.71299 0
M  V30 332 H 23.8548 6.13212 4.81239 0
M  V30 333 N 28.0839 -0.256276 1.55502 0
M  V30 334 C 28.9939 -1.33882 1.92647 0
M  V30 335 C 30.0099 -1.53159 0.825727 0
M  V30 336 O 31.1859 -1.66963 1.12629 0
M  V30 337 C 28.2509 -2.6751 2.20543 0
M  V30 338 C 27.3119 -2.56836 3.43997 0
M  V30 339 C 26.5449 -3.84092 3.70553 0
M  V30 340 O 26.7679 -4.85545 2.99336 0
M  V30 341 O 25.7019 -3.83288 4.64084 0
M  V30 342 H 29.5279 -1.05374 2.84833 0
M  V30 343 H 27.1129 -0.456237 1.42263 0
M  V30 344 H 28.9949 -3.46492 2.39835 0
M  V30 345 H 27.6699 -2.9577 1.31536 0
M  V30 346 H 26.5769 -1.76172 3.30021 0
M  V30 347 H 27.9099 -2.33523 4.33275 0
M  V30 348 N 29.562 -1.4872 -0.521534 0
M  V30 349 C 30.808 -1.574 -1.27879 0
M  V30 350 C 31.141 -0.250817 -1.92573 0
M  V30 351 O 30.416 0.743934 -1.79711 0
M  V30 352 C 30.699 -2.71843 -2.36164 0
M  V30 353 C 30.552 -4.13893 -1.76105 0
M  V30 354 C 31.871 -2.82008 -3.37875 0
M  V30 355 H 28.99 -0.572941 -0.463581 0
M  V30 356 H 31.632 -1.80927 -0.580119 0
M  V30 357 H 29.782 -2.51914 -2.95756 0
M  V30 358 H 31.454 -4.45284 -1.20499 0
M  V30 359 H 29.697 -4.20498 -1.06601 0
M  V30 360 H 30.368 -4.89804 -2.5455 0
M  V30 361 H 32.844 -3.00086 -2.88249 0
M  V30 362 H 31.72 -3.63796 -4.11028 0
M  V30 363 H 31.981 -1.90511 -3.98946 0
M  V30 364 N 31.0401 0.771051 -1.3745 0
M  V30 365 C 32.2861 1.5319 -1.32894 0
M  V30 366 C 32.6191 1.94008 0.0862511 0
M  V30 367 O 31.8941 1.64124 1.04373 0
M  V30 368 C 32.1771 2.79648 -2.26868 0
M  V30 369 C 32.0301 2.45079 -3.77169 0
M  V30 370 C 33.3491 3.81583 -2.19277 0
M  V30 371 H 30.4681 0.555744 -0.484064 0
M  V30 372 H 33.1101 0.884492 -1.68157 0
M  V30 373 H 31.2601 3.34891 -1.96926 0
M  V30 374 H 32.9321 1.95745 -4.1771 0
M  V30 375 H 31.1751 1.77767 -3.95704 0
M  V30 376 H 31.8461 3.35478 -4.38359 0
M  V30 377 H 34.3221 3.35835 -2.45671 0
M  V30 378 H 33.1981 4.67787 -2.87171 0
M  V30 379 H 33.4591 4.25897 -1.18592 0
M  V30 380 N 32.5182 1.22032 0.997298 0
M  V30 381 C 33.7432 1.06921 1.77715 0
M  V30 382 C 34.1682 -0.376226 1.84299 0
M  V30 383 O 33.5262 -1.27165 1.29223 0
M  V30 384 C 33.5742 1.67996 3.19076 0
M  V30 385 O 32.6782 0.930653 4.01762 0
M  V30 386 H 32.0192 0.375814 0.547412 0
M  V30 387 H 34.5492 1.61737 1.25309 0
M  V30 388 H 34.5592 1.72538 3.69723 0
M  V30 389 H 33.2342 2.73182 3.13599 0
M  V30 390 H 31.8112 0.960917 3.60307 0
M  V30 391 N 33.9963 -1.19345 1.0293 0
M  V30 392 C 35.2433 -1.89038 0.726008 0
M  V30 393 C 35.5713 -1.79649 -0.745427 0
M  V30 394 O 34.8263 -1.18354 -1.55855 0
M  V30 395 C 35.1253 -3.39292 1.12319 0
M  V30 396 C 34.7913 -3.68885 2.59297 0
M  V30 397 C 33.4533 -3.76671 2.99453 0
M  V30 398 C 35.8053 -3.82178 3.54386 0
M  V30 399 C 33.1333 -3.9522 4.33611 0
M  V30 400 C 35.4853 -4.0224 4.88248 0
M  V30 401 C 34.1493 -4.08259 5.28092 0
M  V30 402 H 33.4193 -0.691739 0.265665 0
M  V30 403 H 36.0663 -1.41328 1.29223 0
M  V30 404 H 34.3713 -3.88903 0.475584 0
M  V30 405 H 36.0683 -3.91536 0.866037 0
M  V30 406 H 32.6583 -3.63433 2.27189 0
M  V30 407 H 36.8423 -3.75505 3.24514 0
M  V30 408 H 32.0983 -3.98119 4.64016 0
M  V30 409 H 36.2723 -4.11468 5.61843 0
M  V30 410 H 33.8993 -4.22384 6.32057 0
M  V30 411 N 35.4744 -0.807222 -1.35358 0
M  V30 412 C 36.7514 -0.311126 -1.9311 0
M  V30 413 C 37.1314 1.19937 -1.73719 0
M  V30 414 O 36.4794 1.99918 -1.10657 0
M  V30 415 C 36.6894 -0.723226 -3.41424 0
M  V30 416 C 38.0374 -0.713078 -4.18569 0
M  V30 417 O 39.0614 -0.664811 -3.49941 0
M  V30 418 O 37.9204 -0.772022 -5.41019 0
M  V30 419 H 35.0144 -0.081526 -0.822972 0
M  V30 420 H 37.5604 -0.890962 -1.4443 0
M  V30 421 H 36.3324 -1.76426 -3.4927 0
M  V30 422 H 35.9554 -0.118232 -3.97424 0
M  V30 423 N 36.9525 1.47285 -0.560781 0
M  V30 424 C 37.9155 2.28535 0.174488 0
M  V30 425 C 38.9155 1.37153 0.839388 0
M  V30 426 O 40.1055 1.59748 0.694702 0
M  V30 427 C 37.2375 3.16934 1.25561 0
M  V30 428 H 38.4305 2.95012 -0.539262 0
M  V30 429 H 35.9835 1.53034 -0.317865 0
M  V30 430 H 36.7185 2.55157 2.00164 0
M  V30 431 H 36.5035 3.8419 0.783604 0
M  V30 432 H 37.9935 3.78143 1.77193 0
M  V30 433 N 38.4306 0.297415 1.54768 0
M  V30 434 C 39.3776 -0.580276 2.23386 0
M  V30 435 C 40.3476 -1.13238 1.21517 0
M  V30 436 O 41.5326 -1.17757 1.50126 0
M  V30 437 C 38.6726 -1.74801 2.97555 0
M  V30 438 C 37.7856 -1.22764 4.1419 0
M  V30 439 C 36.9206 -2.35895 4.75949 0
M  V30 440 C 35.9596 -1.80974 5.84735 0
M  V30 441 N 35.0966 -2.87664 6.40464 0
M  V30 442 H 39.9366 0.0114833 2.97998 0
M  V30 443 H 37.4736 0.0174361 1.4709 0
M  V30 444 H 39.4316 -2.43475 3.38786 0
M  V30 445 H 38.0616 -2.31145 2.25326 0
M  V30 446 H 37.1136 -0.433271 3.77924 0
M  V30 447 H 38.4256 -0.785551 4.92575 0
M  V30 448 H 37.5796 -3.12523 5.20014 0
M  V30 449 H 36.3186 -2.83429 3.96887 0
M  V30 450 H 35.3236 -1.02834 5.40097 0
M  V30 451 H 36.5486 -1.34348 6.65678 0
M  V30 452 H 34.4946 -3.34538 5.64287 0
M  V30 453 H 34.4116 -2.4794 7.14186 0
M  V30 454 H 35.6796 -3.642 6.89187 0
M  V30 455 N 39.9087 -1.5758 0.0250728 0
M  V30 456 C 40.8387 -2.13007 -0.956575 0
M  V30 457 C 41.8197 -1.0452 -1.342 0
M  V30 458 O 43.0047 -1.32332 -1.42133 0
M  V30 459 C 40.1347 -2.65386 -2.24026 0
M  V30 460 C 39.0887 -3.78623 -1.99571 0
M  V30 461 C 38.4147 -4.17414 -3.3417 0
M  V30 462 C 39.7147 -5.04867 -1.33814 0
M  V30 463 H 41.4087 -2.9528 -0.494991 0
M  V30 464 H 38.9547 -1.42042 -0.236651 0
M  V30 465 H 40.9077 -3.02794 -2.93076 0
M  V30 466 H 39.6317 -1.80268 -2.72343 0
M  V30 467 H 38.2907 -3.41646 -1.32941 0
M  V30 468 H 37.9387 -3.29284 -3.80238 0
M  V30 469 H 37.6387 -4.93719 -3.18615 0
M  V30 470 H 39.1627 -4.57402 -4.04495 0
M  V30 471 H 40.5767 -5.39888 -1.92857 0
M  V30 472 H 38.9737 -5.86144 -1.28669 0
M  V30 473 H 40.0437 -4.83904 -0.310561 0
M  V30 474 N 41.3868 0.248026 -1.55636 0
M  V30 475 C 42.3368 1.30994 -1.86614 0
M  V30 476 C 43.3208 1.43543 -0.726918 0
M  V30 477 O 44.5128 1.46804 -0.988818 0
M  V30 478 C 41.6418 2.6656 -2.16335 0
M  V30 479 C 40.7278 2.58019 -3.36581 0
M  V30 480 N 41.1188 2.1911 -4.55878 0
M  V30 481 C 39.4168 2.89035 -3.39669 0
M  V30 482 C 40.1178 2.21174 -5.38012 0
M  V30 483 N 39.0938 2.60632 -4.77045 0
M  V30 484 H 42.8958 0.999583 -2.76379 0
M  V30 485 H 40.4098 0.456652 -1.55848 0
M  V30 486 H 42.4068 3.43194 -2.36692 0
M  V30 487 H 41.0668 2.98463 -1.27867 0
M  V30 488 H 42.0778 1.90672 -4.81523 0
M  V30 489 H 38.7548 3.25485 -2.61469 0
M  V30 490 H 40.1448 1.9344 -6.43452 0
M  V30 491 N 42.8649 1.48995 0.513639 0
M  V30 492 C 43.7969 1.60836 1.63293 0
M  V30 493 C 44.8099 0.491701 1.55197 0
M  V30 494 O 45.9989 0.763238 1.6136 0
M  V30 495 C 43.0989 1.53731 3.02027 0
M  V30 496 C 42.2719 2.80715 3.35437 0
M  V30 497 C 41.3309 2.66837 4.53525 0
M  V30 498 O 40.3569 3.40753 4.55934 0
M  V30 499 N 41.5589 1.77539 5.52684 0
M  V30 500 H 44.3239 2.57366 1.53566 0
M  V30 501 H 41.8849 1.45925 0.701259 0
M  V30 502 H 43.8769 1.42118 3.78926 0
M  V30 503 H 42.4469 0.651092 3.05744 0
M  V30 504 H 41.6669 3.06772 2.47557 0
M  V30 505 H 42.9549 3.64927 3.54551 0
M  V30 506 H 42.3529 1.16719 5.53528 0
M  V30 507 H 40.9099 1.71856 6.28736 0
M  V30 508 N 44.343 -0.763751 1.37857 0
M  V30 509 C 45.275 -1.88664 1.30148 0
M  V30 510 C 46.288 -1.61365 0.215685 0
M  V30 511 O 47.477 -1.72134 0.472459 0
M  V30 512 C 44.577 -3.24075 0.991396 0
M  V30 513 C 43.75 -3.78958 2.18426 0
M  V30 514 C 42.809 -4.92862 1.8432 0
M  V30 515 O 41.835 -5.08027 2.56704 0
M  V30 516 N 43.037 -5.75071 0.792081 0
M  V30 517 H 45.802 -1.95791 2.26905 0
M  V30 518 H 43.363 -0.943226 1.31586 0
M  V30 519 H 45.355 -3.97804 0.743935 0
M  V30 520 H 43.925 -3.12399 0.112122 0
M  V30 521 H 43.145 -2.96913 2.59299 0
M  V30 522 H 44.433 -4.12357 2.98058 0
M  V30 523 H 43.831 -5.65375 0.191595 0
M  V30 524 H 42.388 -6.48991 0.60449 0
M  V30 525 N 45.8211 -1.22559 -0.990812 0
M  V30 526 C 46.7511 -1.0218 -2.09956 0
M  V30 527 C 47.7321 0.0579394 -1.70001 0
M  V30 528 O 48.9171 -0.104684 -1.93918 0
M  V30 529 C 46.0471 -0.601023 -3.4206 0
M  V30 530 C 45.0011 -1.62694 -3.95872 0
M  V30 531 C 44.3271 -1.06193 -5.24049 0
M  V30 532 C 45.6271 -3.01743 -4.2632 0
M  V30 533 H 47.3211 -1.94916 -2.27262 0
M  V30 534 H 44.8671 -0.938566 -1.09211 0
M  V30 535 H 46.8201 -0.445561 -4.19038 0
M  V30 536 H 45.5441 0.362005 -3.24588 0
M  V30 537 H 44.2031 -1.77021 -3.21028 0
M  V30 538 H 43.8511 -0.0901903 -5.02919 0
M  V30 539 H 43.5511 -1.74732 -5.61019 0
M  V30 540 H 45.0751 -0.918092 -6.03658 0
M  V30 541 H 46.4891 -2.90777 -4.94087 0
M  V30 542 H 44.8861 -3.67425 -4.74467 0
M  V30 543 H 45.9561 -3.51518 -3.34011 0
M  V30 544 N 47.2992 1.18797 -1.03562 0
M  V30 545 C 48.5762 1.84469 -0.650434 0
M  V30 546 C 48.9562 1.92319 0.870433 0
M  V30 547 O 48.3042 1.44528 1.76986 0
M  V30 548 C 48.5142 3.2306 -1.32036 0
M  V30 549 C 49.8622 3.9915 -1.44792 0
M  V30 550 O 50.8862 3.32481 -1.27806 0
M  V30 551 O 49.7452 5.18587 -1.72423 0
M  V30 552 H 46.8392 0.795251 -0.226946 0
M  V30 553 H 49.3852 1.26231 -1.13419 0
M  V30 554 H 48.1572 3.1222 -2.3587 0
M  V30 555 H 47.7802 3.88949 -0.8249 0
M  V30 556 N 48.7773 0.814389 1.34928 0
M  V30 557 C 50.0543 0.321363 1.92942 0
M  V30 558 C 50.4343 -1.19014 1.74353 0
M  V30 559 O 49.7823 -1.99328 1.11716 0
M  V30 560 C 49.9923 0.741323 3.41036 0
M  V30 561 C 51.3403 0.735266 4.18185 0
M  V30 562 O 52.3643 0.68336 3.49584 0
M  V30 563 O 51.2233 0.800703 5.40602 0
M  V30 564 H 48.3173 0.0858893 0.822528 0
M  V30 565 H 50.8633 0.898609 1.43955 0
M  V30 566 H 49.6353 1.78276 3.4833 0
M  V30 567 H 49.2583 0.139307 3.97356 0
M  V30 568 N 50.2554 -1.46986 0.568584 0
M  V30 569 C 51.1884 -2.27129 -0.220779 0
M  V30 570 C 52.1664 -1.34757 -0.909905 0
M  V30 571 O 53.3504 -1.64152 -0.926622 0
M  V30 572 C 50.4774 -3.12108 -1.31553 0
M  V30 573 C 49.5234 -4.20141 -0.733748 0
M  V30 574 S 50.3564 -5.33783 0.428479 0
M  V30 575 C 51.5124 -6.22327 -0.667811 0
M  V30 576 H 51.7454 -2.93731 0.459267 0
M  V30 577 H 49.2784 -1.5026 0.355154 0
M  V30 578 H 51.2364 -3.61636 -1.94241 0
M  V30 579 H 49.8974 -2.44847 -1.96746 0
M  V30 580 H 49.0904 -4.79373 -1.5562 0
M  V30 581 H 48.6924 -3.73553 -0.182812 0
M  V30 582 H 50.9844 -6.59364 -1.55708 0
M  V30 583 H 51.9274 -7.0801 -0.11258 0
M  V30 584 H 52.3354 -5.5618 -0.965601 0
M  V30 585 N 51.7335 -0.305618 -1.54608 0
M  V30 586 C 52.9635 0.304333 -2.04346 0
M  V30 587 C 53.3715 1.47715 -1.18224 0
M  V30 588 O 52.7145 1.82591 -0.201577 0
M  V30 589 C 52.7765 0.819031 -3.50046 0
M  V30 590 C 52.4405 -0.22912 -4.56425 0
M  V30 591 C 53.4375 -1.05914 -5.08997 0
M  V30 592 C 51.1225 -0.372148 -5.0092 0
M  V30 593 C 53.1165 -2.01809 -6.04609 0
M  V30 594 C 50.8035 -1.33454 -5.9635 0
M  V30 595 C 51.8015 -2.15599 -6.48079 0
M  V30 596 O 51.4895 -3.10205 -7.41639 0
M  V30 597 H 51.2215 0.0693996 -0.672428 0
M  V30 598 H 53.7755 -0.444548 -2.00532 0
M  V30 599 H 52.0055 1.61852 -3.51199 0
M  V30 600 H 53.6945 1.34537 -3.82955 0
M  V30 601 H 54.4605 -0.959538 -4.75413 0
M  V30 602 H 50.3395 0.257304 -4.60281 0
M  V30 603 H 53.8835 -2.65966 -6.44909 0
M  V30 604 H 49.7805 -1.43485 -6.29351 0
M  V30 605 H 50.5485 -3.05237 -7.59455 0
M  V30 606 N 53.2116 1.57565 -0.0334293 0
M  V30 607 C 54.1216 2.13943 0.962572 0
M  V30 608 C 55.1376 1.09276 1.35406 0
M  V30 609 O 56.3136 1.41355 1.4346 0
M  V30 610 C 53.3786 2.65887 2.22497 0
M  V30 611 C 52.4396 3.85286 1.8935 0
M  V30 612 C 51.6726 4.34743 3.09571 0
M  V30 613 O 51.8956 3.83352 4.22371 0
M  V30 614 O 50.8296 5.26538 2.91618 0
M  V30 615 H 54.6556 2.99333 0.513169 0
M  V30 616 H 52.2406 1.4822 0.18743 0
M  V30 617 H 54.1226 2.99346 2.96598 0
M  V30 618 H 52.7976 1.83578 2.6661 0
M  V30 619 H 51.7046 3.56746 1.1262 0
M  V30 620 H 53.0376 4.68771 1.5005 0
M  V30 621 N 54.6897 -0.239769 1.55765 0
M  V30 622 C 55.9177 -0.98417 1.81994 0
M  V30 623 C 56.3327 -1.7867 0.610124 0
M  V30 624 O 55.6897 -1.77571 -0.421271 0
M  V30 625 C 55.7407 -1.91635 3.06526 0
M  V30 626 O 55.4617 -1.14629 4.22838 0
M  V30 627 C 56.9627 -2.77616 3.45607 0
M  V30 628 H 54.1827 -0.28928 0.605441 0
M  V30 629 H 56.7267 -0.260499 2.02834 0
M  V30 630 H 54.8817 -2.5942 2.87715 0
M  V30 631 H 55.2957 -1.77745 4.93464 0
M  V30 632 H 56.7697 -3.38759 4.35828 0
M  V30 633 H 57.2467 -3.4909 2.6652 0
M  V30 634 H 57.8527 -2.15271 3.66795 0
M  V30 635 N 56.1678 -1.49265 -0.50573 0
M  V30 636 C 57.1008 -1.60183 -1.62532 0
M  V30 637 C 58.0788 -0.451107 -1.56217 0
M  V30 638 O 59.2628 -0.666016 -1.76342 0
M  V30 639 C 56.3898 -1.55238 -3.01029 0
M  V30 640 C 55.4358 -2.7545 -3.25621 0
M  V30 641 S 56.2688 -4.37174 -3.09256 0
M  V30 642 C 57.4248 -4.34866 -4.50158 0
M  V30 643 H 57.6578 -2.54894 -1.53025 0
M  V30 644 H 55.1908 -1.38098 -0.690535 0
M  V30 645 H 57.1488 -1.53071 -3.80893 0
M  V30 646 H 55.8098 -0.618238 -3.07956 0
M  V30 647 H 55.0028 -2.68197 -4.26716 0
M  V30 648 H 54.6048 -2.75005 -2.53472 0
M  V30 649 H 56.8968 -4.06295 -5.42154 0
M  V30 650 H 57.8398 -5.36223 -4.62462 0
M  V30 651 H 58.2478 -3.65007 -4.30616 0
M  V30 652 N 57.6459 0.756429 -1.3826 0
M  V30 653 C 58.8949 1.51082 -1.3363 0
M  V30 654 C 59.2079 1.95467 0.0720068 0
M  V30 655 O 60.4139 2.7043 0.240834 0
M  V30 656 C 58.8699 2.72893 -2.34644 0
M  V30 657 C 58.4779 2.35544 -3.81081 0
M  V30 658 C 60.2219 3.50791 -2.39052 0
M  V30 659 C 58.1289 3.53948 -4.73787 0
M  V30 660 H 57.0589 0.56727 -0.49671 0
M  V30 661 H 59.7099 0.827147 -1.638 0
M  V30 662 H 58.0919 3.43227 -1.97513 0
M  V30 663 H 59.2659 1.72894 -4.27135 0
M  V30 664 H 57.5809 1.70786 -3.79764 0
M  V30 665 H 60.1779 4.38823 -3.05513 0
M  V30 666 H 60.5209 3.91745 -1.40861 0
M  V30 667 H 61.0539 2.87467 -2.74968 0
M  V30 668 H 57.7929 3.18064 -5.73163 0
M  V30 669 H 57.3129 4.15651 -4.32428 0
M  V30 670 H 58.9919 4.20566 -4.91663 0
M  V30 671 N 59.124 1.23083 0.984299 0
M  V30 672 C 60.087 1.00979 2.05757 0
M  V30 673 C 61.087 -0.0269573 1.60777 0
M  V30 674 O 62.277 0.212403 1.729 0
M  V30 675 C 59.409 0.527072 3.36801 0
M  V30 676 H 60.602 1.9622 2.26799 0
M  V30 677 H 58.155 1.05072 1.15714 0
M  V30 678 H 58.89 -0.429294 3.21446 0
M  V30 679 H 58.675 1.27515 3.70786 0
M  V30 680 H 60.165 0.392942 4.15747 0
M  V30 681 N 60.6021 -1.18246 1.0419 0
M  V30 682 C 61.8271 -1.92736 0.765996 0
M  V30 683 C 62.2521 -1.75728 -0.67091 0
M  V30 684 O 61.6101 -1.06825 -1.46486 0
M  V30 685 C 61.6581 -3.42148 1.13875 0
M  V30 686 O 60.7621 -4.11548 0.264954 0
M  V30 687 H 60.1031 -0.601238 0.281797 0
M  V30 688 H 62.6331 -1.49942 1.39207 0
M  V30 689 H 62.6431 -3.92858 1.1012 0
M  V30 690 H 61.3181 -3.53848 2.18551 0
M  V30 691 H 59.8951 -3.71137 0.362226 0
M  V30 692 N 62.0802 -0.821533 -1.34494 0
M  V30 693 C 62.9902 -0.244355 -2.33324 0
M  V30 694 C 64.0062 0.620527 -1.62559 0
M  V30 695 O 65.1822 0.528754 -1.94335 0
M  V30 696 C 62.2472 0.585368 -3.41723 0
M  V30 697 C 61.3082 -0.301752 -4.28238 0
M  V30 698 C 60.5412 0.488466 -5.3146 0
M  V30 699 O 60.7642 1.72186 -5.4379 0
M  V30 700 O 59.6982 -0.12848 -6.01763 0
M  V30 701 H 63.5242 -1.06231 -2.84515 0
M  V30 702 H 61.1092 -0.583645 -1.37528 0
M  V30 703 H 62.9912 1.05747 -4.07916 0
M  V30 704 H 61.6662 1.38068 -2.92778 0
M  V30 705 H 60.5732 -0.821315 -3.64973 0
M  V30 706 H 61.9062 -1.06138 -4.8062 0
M  V30 707 N 63.5583 1.46682 -0.576371 0
M  V30 708 C 64.8063 2.02013 -0.0594163 0
M  V30 709 C 65.1273 1.45101 1.30271 0
M  V30 710 O 64.3973 0.633317 1.8538 0
M  V30 711 H 62.9773 0.746759 -0.0189745 0
M  V30 712 H 65.6393 1.79862 -0.750717 0
M  V30 713 H 64.7353 3.12097 0.014345 0
M  V30 714 N 65.0364 0.313813 1.54444 0
M  V30 715 C 66.2854 -0.292519 1.99568 0
M  V30 716 C 66.5984 -1.54011 1.20582 0
M  V30 717 O 67.8044 -2.22183 1.56035 0
M  V30 718 C 66.2604 -0.571752 3.55329 0
M  V30 719 C 65.8684 0.658229 4.43138 0
M  V30 720 C 67.6124 -1.13857 4.08946 0
M  V30 721 C 65.5194 0.351439 5.90355 0
M  V30 722 H 64.4494 -0.113079 0.745472 0
M  V30 723 H 67.1004 0.424518 1.78522 0
M  V30 724 H 65.4824 -1.34872 3.72325 0
M  V30 725 H 66.6564 1.43403 4.37918 0
M  V30 726 H 64.9714 1.14458 4.0036 0
M  V30 727 H 67.5684 -1.38257 5.16516 0
M  V30 728 H 67.9114 -2.08489 3.6033 0
M  V30 729 H 68.4444 -0.423015 3.95544 0
M  V30 730 H 65.1834 1.26667 6.43145 0
M  V30 731 H 64.7034 -0.386842 5.98551 0
M  V30 732 H 66.3824 -0.0423134 6.46986 0
M  V30 733 N 66.5145 -1.57545 0.0417849 0
M  V30 734 C 67.7625 -1.91937 -0.632829 0
M  V30 735 C 68.0835 -0.919978 -1.71934 0
M  V30 736 O 67.3535 0.0366064 -1.95866 0
M  V30 737 H 65.9335 -0.708493 -0.236742 0
M  V30 738 H 68.5955 -1.9468 0.0925745 0
M  V30 739 H 67.6915 -2.92912 -1.07746 0
M  V30 740 N 67.9926 0.231505 -1.5589 0
M  V30 741 C 68.9226 1.29022 -1.94617 0
M  V30 742 C 69.9036 1.4941 -0.813067 0
M  V30 743 O 71.0886 1.6176 -1.07459 0
M  V30 744 C 68.2186 2.64199 -2.25424 0
M  V30 745 C 67.1726 2.58484 -3.41131 0
M  V30 746 C 66.4986 3.97599 -3.57518 0
M  V30 747 C 67.7986 2.1413 -4.76388 0
M  V30 748 H 69.4926 0.968563 -2.83301 0
M  V30 749 H 67.0386 0.464479 -1.36303 0
M  V30 750 H 68.9916 3.38413 -2.51107 0
M  V30 751 H 67.7156 2.98032 -1.33583 0
M  V30 752 H 66.3746 1.86727 -3.15481 0
M  V30 753 H 66.0226 4.28723 -2.6307 0
M  V30 754 H 65.7226 3.94659 -4.35337 0
M  V30 755 H 67.2466 4.7349 -3.85538 0
M  V30 756 H 68.6606 2.78083 -5.01341 0
M  V30 757 H 67.0576 2.2227 -5.57419 0
M  V30 758 H 68.1276 1.09331 -4.72414 0
M  V30 759 N 69.4707 1.49531 0.497807 0
M  V30 760 C 70.4337 1.65916 1.58128 0
M  V30 761 C 71.4337 0.530825 1.51786 0
M  V30 762 O 72.6237 0.797342 1.54881 0
M  V30 763 C 69.7557 1.65951 2.9778 0
M  V30 764 H 70.9487 2.62556 1.44929 0
M  V30 765 H 68.5017 1.38611 0.722275 0
M  V30 766 H 69.2367 0.709065 3.16453 0
M  V30 767 H 69.0217 2.47897 3.03792 0
M  V30 768 H 70.5117 1.80673 3.76493 0
M  V30 769 N 70.9488 -0.749086 1.3866 0
M  V30 770 C 71.9118 -1.84457 1.36045 0
M  V30 771 C 72.9118 -1.58682 0.260122 0
M  V30 772 O 74.1018 -1.66343 0.517261 0
M  V30 773 C 71.2338 -3.22008 1.11911 0
M  V30 774 H 72.4268 -1.88182 2.33512 0
M  V30 775 H 69.9798 -0.951266 1.24019 0
M  V30 776 H 70.7148 -3.2395 0.150686 0
M  V30 777 H 70.4998 -3.42111 1.91579 0
M  V30 778 H 71.9898 -4.0208 1.12788 0
M  V30 779 N 72.4269 -1.23603 -0.977757 0
M  V30 780 C 73.6759 -1.06377 -1.71368 0
M  V30 781 C 73.9889 0.399062 -1.91486 0
M  V30 782 O 75.1949 0.691312 -2.62551 0
M  V30 783 C 73.6509 -1.85512 -3.08404 0
M  V30 784 C 73.2589 -3.36141 -2.96164 0
M  V30 785 C 75.0029 -1.76783 -3.85938 0
M  V30 786 C 72.9099 -4.07659 -4.28449 0
M  V30 787 H 71.8399 -0.394452 -0.642591 0
M  V30 788 H 74.4909 -1.47594 -1.09034 0
M  V30 789 H 72.8729 -1.37103 -3.71509 0
M  V30 790 H 74.0469 -3.92056 -2.42133 0
M  V30 791 H 72.3619 -3.45712 -2.32104 0
M  V30 792 H 74.9589 -2.27526 -4.83876 0
M  V30 793 H 75.3019 -0.731116 -4.0983 0
M  V30 794 H 75.8349 -2.22818 -3.2954 0
M  V30 795 H 72.5739 -5.11648 -4.09752 0
M  V30 796 H 72.0939 -3.5653 -4.82334 0
M  V30 797 H 73.7729 -4.141 -4.97122 0
M  V30 798 N 73.905 1.17692 -1.04816 0
M  V30 799 C 74.837 2.21103 -0.603822 0
M  V30 800 C 75.85 1.59411 0.33046 0
M  V30 801 O 77.039 1.7807 0.12379 0
M  V30 802 C 74.139 3.38623 0.136898 0
M  V30 803 C 73.312 4.29888 -0.807137 0
M  V30 804 C 72.371 5.26088 -0.10836 0
M  V30 805 O 71.397 5.64353 -0.741232 0
M  V30 806 N 72.599 5.68882 1.15558 0
M  V30 807 H 75.364 2.59848 -1.49329 0
M  V30 808 H 72.925 1.32553 -0.929587 0
M  V30 809 H 74.917 4.00009 0.614401 0
M  V30 810 H 73.487 2.98508 0.927993 0
M  V30 811 H 72.707 3.65993 -1.46434 0
M  V30 812 H 73.995 4.87759 -1.44807 0
M  V30 813 H 73.393 5.39861 1.69015 0
M  V30 814 H 71.95 6.32429 1.57722 0
M  V30 815 N 75.3831 0.828654 1.34056 0
M  V30 816 C 76.6291 0.42008 1.98402 0
M  V30 817 C 76.9621 -1.01564 1.65525 0
M  V30 818 O 76.2371 -1.70834 0.929831 0
M  V30 819 C 76.5201 0.62927 3.54559 0
M  V30 820 C 76.3731 2.11152 3.97159 0
M  V30 821 C 77.6921 0.0688756 4.40046 0
M  V30 822 H 74.8111 0.154104 0.720709 0
M  V30 823 H 77.4531 1.04228 1.5886 0
M  V30 824 H 75.6031 0.0996418 3.88372 0
M  V30 825 H 77.2751 2.70522 3.73651 0
M  V30 826 H 75.5181 2.59985 3.47261 0
M  V30 827 H 76.1891 2.20868 5.05887 0
M  V30 828 H 78.6651 0.521458 4.1282 0
M  V30 829 H 77.5411 0.245006 5.48353 0
M  V30 830 H 77.8021 -1.0266 4.30015 0
M  V30 831 N 76.8612 -1.46375 0.584142 0
M  V30 832 C 78.1092 -2.01978 0.0701287 0
M  V30 833 C 78.4302 -1.4579 -1.295 0
M  V30 834 O 77.7002 -0.64314 -1.85042 0
M  V30 835 H 76.2802 -0.746648 0.0229345 0
M  V30 836 H 78.9422 -1.79461 0.760245 0
M  V30 837 H 78.0382 -3.121 0.0022064 0
M  V30 838 N 78.3393 -0.321999 -1.54275 0
M  V30 839 C 79.2693 0.537411 -2.27231 0
M  V30 840 C 80.2503 1.12064 -1.27968 0
M  V30 841 O 81.4353 1.14606 -1.56777 0
M  V30 842 C 78.5653 1.69919 -3.02894 0
M  V30 843 C 77.5193 1.24534 -4.09482 0
M  V30 844 C 76.8453 2.49394 -4.72977 0
M  V30 845 C 78.1453 0.361335 -5.21049 0
M  V30 846 H 79.8393 -0.0711406 -2.99315 0
M  V30 847 H 77.3853 -0.0356555 -1.43956 0
M  V30 848 H 79.3383 2.30668 -3.52662 0
M  V30 849 H 78.0623 2.33431 -2.28424 0
M  V30 850 H 76.7213 0.660782 -3.60596 0
M  V30 851 H 76.3693 3.11265 -3.95124 0
M  V30 852 H 76.0693 2.19718 -5.44975 0
M  V30 853 H 77.5933 3.10908 -5.25517 0
M  V30 854 H 79.0073 0.875072 -5.66582 0
M  V30 855 H 77.4043 0.157428 -5.99893 0
M  V30 856 H 78.4743 -0.60822 -4.8107 0
M  V30 857 N 79.8174 1.5752 -0.0501392 0
M  V30 858 C 81.2284 1.80271 0.485705 0
M  V30 859 C 81.5794 0.96228 1.70981 0
M  V30 860 O 80.7044 0.178578 2.15662 0
M  V30 861 C 81.2994 3.26957 0.887938 0
M  V30 862 C 79.8584 3.5063 1.36877 0
M  V30 863 C 79.0054 2.75165 0.343468 0
M  V30 864 H 81.9564 1.56281 -0.276028 0
M  V30 865 H 81.9774 3.37821 1.75093 0
M  V30 866 H 81.4894 3.881 -0.0031809 0
M  V30 867 H 79.5904 2.94766 2.27911 0
M  V30 868 H 79.7034 4.59343 1.36164 0
M  V30 869 H 78.0674 2.4127 0.816128 0
M  V30 870 H 78.8504 3.39034 -0.539548 0
M  V30 871 N 81.2955 -0.223234 1.56011 0
M  V30 872 C 82.2255 -1.27988 1.95298 0
M  V30 873 C 83.2065 -1.48976 0.820979 0
M  V30 874 O 84.3915 -1.61188 1.08315 0
M  V30 875 C 81.5215 -2.63 2.26822 0
M  V30 876 C 80.4755 -2.56671 3.42497 0
M  V30 877 C 79.8015 -3.95697 3.59622 0
M  V30 878 C 81.1015 -2.11601 4.77517 0
M  V30 879 H 82.7955 -0.953525 2.8381 0
M  V30 880 H 80.3415 -0.457244 1.36548 0
M  V30 881 H 82.2945 -3.37077 2.52898 0
M  V30 882 H 81.0185 -2.9732 1.35161 0
M  V30 883 H 79.6775 -1.85051 3.16467 0
M  V30 884 H 79.3255 -4.27322 2.6534 0
M  V30 885 H 79.0255 -3.92345 4.37424 0
M  V30 886 H 80.5495 -4.71438 3.88044 0
M  V30 887 H 81.9635 -2.7542 5.02809 0
M  V30 888 H 80.3605 -2.19311 5.5859 0
M  V30 889 H 81.4305 -1.06824 4.72987 0
M  V30 890 N 82.7736 -1.49793 -0.48987 0
M  V30 891 C 84.1896 -1.36803 -0.822022 0
M  V30 892 C 84.3896 -0.409652 -1.97292 0
M  V30 893 O 83.4456 0.154614 -2.52026 0
M  V30 894 C 84.7586 -2.77768 -1.15175 0
M  V30 895 C 86.3066 -2.86549 -1.25931 0
M  V30 896 C 86.7816 -4.28306 -1.62228 0
M  V30 897 N 88.2726 -4.31169 -1.69256 0
M  V30 898 C 89.0076 -5.37832 -1.98807 0
M  V30 899 N 88.5036 -6.54726 -2.26507 0
M  V30 900 N 90.2966 -5.25258 -2.00152 0
M  V30 901 H 82.4476 -2.10691 0.268881 0
M  V30 902 H 84.7106 -0.946241 0.057728 0
M  V30 903 H 84.4166 -3.49648 -0.379335 0
M  V30 904 H 84.2906 -3.13836 -2.09253 0
M  V30 905 H 86.6776 -2.14899 -2.02243 0
M  V30 906 H 86.7586 -2.54049 -0.298776 0
M  V30 907 H 86.4026 -5.00486 -0.864622 0
M  V30 908 H 86.3326 -4.58279 -2.594 0
M  V30 909 H 88.8236 -3.4687 -1.49965 0
M  V30 910 H 89.1366 -7.31833 -2.48276 0
M  V30 911 H 87.4816 -6.57933 -2.23939 0
M  V30 912 H 90.6726 -4.32938 -1.77996 0
M  V30 913 H 90.8456 -6.08476 -2.22848 0
M  V30 914 N 84.2517 0.741722 -1.39055 0
M  V30 915 C 85.1847 1.86416 -1.31622 0
M  V30 916 C 86.1627 1.61473 -0.191076 0
M  V30 917 O 87.3467 1.84825 -0.370399 0
M  V30 918 C 84.4737 3.22266 -1.04221 0
M  V30 919 C 83.5197 3.66079 -2.18834 0
M  V30 920 S 84.3527 3.7623 -3.81066 0
M  V30 921 C 85.5087 5.14881 -3.55877 0
M  V30 922 H 85.7417 1.92437 -2.26617 0
M  V30 923 H 83.2747 0.905907 -1.25031 0
M  V30 924 H 85.2327 4.00714 -0.890964 0
M  V30 925 H 83.8937 3.1391 -0.109237 0
M  V30 926 H 83.0867 4.64648 -1.95238 0
M  V30 927 H 82.6887 2.94817 -2.30128 0
M  V30 928 H 84.9807 6.01006 -3.12726 0
M  V30 929 H 85.9237 5.43503 -4.53884 0
M  V30 930 H 86.3317 4.84239 -2.90126 0
M  V30 931 N 85.7298 1.2412 0.971189 0
M  V30 932 C 86.6598 1.05508 2.08304 0
M  V30 933 C 87.6408 -0.0308864 1.70072 0
M  V30 934 O 88.8258 0.135521 1.93727 0
M  V30 935 C 85.9558 0.655365 3.4106 0
M  V30 936 C 84.9098 1.68971 3.93234 0
M  V30 937 C 84.2358 1.14516 5.22293 0
M  V30 938 C 85.5358 3.08487 4.21465 0
M  V30 939 H 87.2298 1.98507 2.24132 0
M  V30 940 H 84.7758 0.955821 1.07704 0
M  V30 941 H 86.7288 0.51217 4.18276 0
M  V30 942 H 85.4528 -0.31032 3.25122 0
M  V30 943 H 84.1118 1.82106 3.18171 0
M  V30 944 H 83.7598 0.170189 5.02712 0
M  V30 945 H 83.4598 1.83635 5.58168 0
M  V30 946 H 84.9838 1.01401 6.02121 0
M  V30 947 H 86.3978 2.98601 4.89398 0
M  V30 948 H 84.7948 3.74926 4.68562 0
M  V30 949 H 85.8648 3.56787 3.28376 0
M  V30 950 N 87.2079 -1.17134 1.05439 0
M  V30 951 C 88.4569 -1.86791 0.761049 0
M  V30 952 C 88.7699 -1.82072 -0.714795 0
M  V30 953 O 89.9759 -2.47223 -1.12218 0
M  V30 954 C 88.4319 -3.35166 1.31117 0
M  V30 955 C 88.0399 -3.48381 2.81664 0
M  V30 956 C 89.7839 -4.10134 1.09499 0
M  V30 957 C 87.6909 -4.90793 3.29964 0
M  V30 958 H 86.6209 -0.699681 0.281002 0
M  V30 959 H 89.2719 -1.3226 1.27199 0
M  V30 960 H 87.6539 -3.8925 0.72803 0
M  V30 961 H 88.8279 -3.04502 3.45855 0
M  V30 962 H 87.1429 -2.86836 3.01851 0
M  V30 963 H 89.7399 -5.152 1.43084 0
M  V30 964 H 90.0829 -4.16287 0.0328772 0
M  V30 965 H 90.6159 -3.62264 1.64346 0
M  V30 966 H 87.3549 -4.89816 4.35616 0
M  V30 967 H 86.8749 -5.35333 2.70516 0
M  V30 968 H 88.5539 -5.59573 3.24787 0
M  V30 969 N 88.686 -0.835752 -1.33615 0
M  V30 970 C 89.935 -0.426289 -1.97144 0
M  V30 971 C 90.248 1.01912 -1.66953 0
M  V30 972 O 91.454 1.53311 -2.24072 0
M  V30 973 C 89.91 -0.711321 -3.52801 0
M  V30 974 C 89.518 -2.1712 -3.91871 0
M  V30 975 C 91.262 -0.368654 -4.22896 0
M  V30 976 C 89.169 -2.40044 -5.40493 0
M  V30 977 H 88.099 -0.15567 -0.737755 0
M  V30 978 H 90.75 -1.0239 -1.52278 0
M  V30 979 H 89.132 -0.0433766 -3.95976 0
M  V30 980 H 90.306 -2.87936 -3.59763 0
M  V30 981 H 88.621 -2.47654 -3.34749 0
M  V30 982 H 91.218 -0.517601 -5.32189 0
M  V30 983 H 91.561 0.688078 -4.10574 0
M  V30 984 H 92.094 -0.991702 -3.8524 0
M  V30 985 H 88.833 -3.44271 -5.57815 0
M  V30 986 H 88.353 -1.73785 -5.74072 0
M  V30 987 H 90.032 -2.23042 -6.0734 0
M  V30 988 N 90.1641 1.46063 -0.591896 0
M  V30 989 C 91.1121 2.32124 0.148739 0
M  V30 990 C 92.1061 1.45035 0.875286 0
M  V30 991 O 93.3121 1.61609 0.792632 0
M  V30 992 H 89.6871 0.749024 0.066832 0
M  V30 993 H 91.6581 2.92392 -0.595783 0
M  V30 994 C 90.4071 3.28373 1.1431 0
M  V30 995 H 89.7301 3.95371 0.59346 0
M  V30 996 H 91.1701 3.91352 1.63155 0
M  V30 997 C 89.6291 2.54393 2.20875 0
M  V30 998 O 90.1591 2.31373 3.28374 0
M  V30 999 N 88.3651 2.14797 1.95731 0
M  V30 1000 H 87.9121 2.33719 1.08319 0
M  V30 1001 H 87.8701 1.65619 2.67241 0
M  V30 1002 N 91.6422 0.330177 1.54103 0
M  V30 1003 C 92.5722 -0.525353 2.27513 0
M  V30 1004 C 93.5532 -1.11383 1.2856 0
M  V30 1005 O 94.7382 -1.13773 1.57383 0
M  V30 1006 C 91.8682 -1.6831 3.03791 0
M  V30 1007 C 90.8222 -1.2236 4.10137 0
M  V30 1008 C 90.1482 -2.46882 4.74293 0
M  V30 1009 C 91.4482 -0.333697 5.21233 0
M  V30 1010 H 93.1422 0.087013 2.99274 0
M  V30 1011 H 90.6882 0.0432893 1.43935 0
M  V30 1012 H 92.6412 -2.28795 3.5388 0
M  V30 1013 H 91.3652 -2.32216 2.29659 0
M  V30 1014 H 90.0242 -0.64165 3.60941 0
M  V30 1015 H 89.6722 -3.09165 3.96769 0
M  V30 1016 H 89.3722 -2.16825 5.46133 0
M  V30 1017 H 90.8962 -3.08117 5.27159 0
M  V30 1018 H 92.3102 -0.845013 5.67038 0
M  V30 1019 H 90.7072 -0.125612 5.99969 0
M  V30 1020 H 91.7772 0.633724 4.80741 0
M  V30 1021 N 93.1203 -1.57491 0.0584922 0
M  V30 1022 C 94.5313 -1.80526 -0.476138 0
M  V30 1023 C 94.8823 -0.971334 -1.70469 0
M  V30 1024 O 94.0073 -0.190012 -2.15564 0
M  V30 1025 C 94.6023 -3.27424 -0.870587 0
M  V30 1026 C 93.1613 -3.51351 -1.35015 0
M  V30 1027 C 92.3083 -2.75343 -0.32887 0
M  V30 1028 H 95.2593 -1.56133 0.284312 0
M  V30 1029 H 95.2803 -3.38745 -1.73299 0
M  V30 1030 H 94.7923 -3.88093 0.0237627 0
M  V30 1031 H 92.8933 -2.95971 -2.26345 0
M  V30 1032 H 93.0063 -4.60059 -1.33726 0
M  V30 1033 H 91.3703 -2.417 -0.803321 0
M  V30 1034 H 92.1533 -3.38743 0.557521 0
M  V30 1035 N 94.5984 0.214957 -1.56127 0
M  V30 1036 C 95.5304 1.29004 -1.89448 0
M  V30 1037 C 96.5434 1.42716 -0.783326 0
M  V30 1038 O 97.7324 1.43496 -1.06166 0
M  V30 1039 C 94.8324 2.66482 -2.09381 0
M  V30 1040 C 94.0054 2.74633 -3.40434 0
M  V30 1041 C 93.0644 3.9317 -3.49719 0
M  V30 1042 O 92.0904 3.812 -4.227 0
M  V30 1043 N 93.2924 5.07765 -2.81346 0
M  V30 1044 H 96.0574 1.00743 -2.82261 0
M  V30 1045 H 93.6184 0.40497 -1.56753 0
M  V30 1046 H 95.6104 3.44173 -2.12901 0
M  V30 1047 H 94.1804 2.87314 -1.23163 0
M  V30 1048 H 93.4004 1.83368 -3.48955 0
M  V30 1049 H 94.6884 2.77054 -4.26754 0
M  V30 1050 H 94.0864 5.20386 -2.21843 0
M  V30 1051 H 92.6434 5.83474 -2.90519 0
M  V30 1052 N 96.0765 1.50051 0.48192 0
M  V30 1053 C 96.9865 1.7089 1.60728 0
M  V30 1054 C 98.0025 0.591788 1.63627 0
M  V30 1055 O 99.1785 0.868817 1.81696 0
M  V30 1056 C 96.2435 1.78855 2.97005 0
M  V30 1057 C 95.3045 3.02537 3.04581 0
M  V30 1058 C 94.5375 3.10112 4.34357 0
M  V30 1059 O 94.7605 2.24765 5.24249 0
M  V30 1060 O 93.6945 4.02747 4.47301 0
M  V30 1061 H 97.5205 2.66264 1.46072 0
M  V30 1062 H 95.1055 1.34018 0.660264 0
M  V30 1063 H 96.9875 1.86336 3.77964 0
M  V30 1064 H 95.6625 0.866628 3.11883 0
M  V30 1065 H 94.5695 3.00563 2.22739 0
M  V30 1066 H 95.9025 3.94272 2.94636 0
M  V30 1067 N 97.5546 -0.734337 1.39446 0
M  V30 1068 C 98.8316 -1.48579 1.27215 0
M  V30 1069 C 99.2116 -2.1077 -0.117968 0
M  V30 1070 O 98.5596 -1.98646 -1.12924 0
M  V30 1071 C 98.7696 -2.53667 2.39696 0
M  V30 1072 C 100.118 -3.20031 2.79044 0
M  V30 1073 O 101.142 -2.6398 2.39151 0
M  V30 1074 O 100.001 -4.21455 3.47905 0
M  V30 1075 H 97.0946 -0.659816 0.49857 0
M  V30 1076 H 99.6406 -0.768106 1.51322 0
M  V30 1077 H 98.4126 -2.06096 3.32626 0
M  V30 1078 H 98.0356 -3.32994 2.17258 0
M  V30 1079 N 99.0327 -1.24633 -0.964593 0
M  V30 1080 C 100.281 -1.08573 -1.70459 0
M  V30 1081 C 100.602 0.375655 -1.91347 0
M  V30 1082 O 99.8717 1.26779 -1.49345 0
M  V30 1083 H 98.4517 -0.398784 -0.631649 0
M  V30 1084 H 101.114 -1.56601 -1.16026 0
M  V30 1085 H 100.21 -1.58623 -2.68785 0
M  V30 1086 N 100.511 1.16574 -1.06058 0
M  V30 1087 C 101.757 1.87324 -0.777022 0
M  V30 1088 C 102.09 1.81351 0.694645 0
M  V30 1089 O 101.365 1.22753 1.50871 0
M  V30 1090 C 101.648 3.36991 -1.26922 0
M  V30 1091 C 101.501 3.51667 -2.80447 0
M  V30 1092 C 102.82 4.3131 -0.87521 0
M  V30 1093 H 99.9388 0.680191 -0.28374 0
M  V30 1094 H 102.581 1.37036 -1.3161 0
M  V30 1095 H 100.731 3.79949 -0.81063 0
M  V30 1096 H 102.403 3.17664 -3.34495 0
M  V30 1097 H 100.646 2.93656 -3.19294 0
M  V30 1098 H 101.317 4.56766 -3.0995 0
M  V30 1099 H 103.793 3.9624 -1.27014 0
M  V30 1100 H 102.669 5.34545 -1.2471 0
M  V30 1101 H 102.93 4.41552 0.220071 0
M  V30 1102 N 101.989 0.842826 1.3317 0
M  V30 1103 C 102.921 0.236245 2.27979 0
M  V30 1104 C 103.934 -0.585282 1.51915 0
M  V30 1105 O 105.123 -0.411705 1.73687 0
M  V30 1106 C 102.223 -0.685717 3.3189 0
M  V30 1107 C 101.396 0.0973448 4.37292 0
M  V30 1108 C 100.455 -0.748565 5.20848 0
M  V30 1109 O 99.4809 -0.186339 5.68895 0
M  V30 1110 N 100.683 -2.06527 5.42519 0
M  V30 1111 H 103.448 1.05088 2.80672 0
M  V30 1112 H 101.009 0.701667 1.45905 0
M  V30 1113 H 103.001 -1.25669 3.84694 0
M  V30 1114 H 101.571 -1.40105 2.79445 0
M  V30 1115 H 100.791 0.849706 3.84933 0
M  V30 1116 H 102.079 0.635643 5.04814 0
M  V30 1117 H 101.477 -2.54554 5.05192 0
M  V30 1118 H 100.034 -2.58464 5.98364 0
M  V30 1119 N 103.467 -1.45747 0.599634 0
M  V30 1120 C 104.417 -2.27538 -0.145107 0
M  V30 1121 C 105.401 -1.3686 -0.846055 0
M  V30 1122 O 106.593 -1.6091 -0.737357 0
M  V30 1123 C 103.722 -3.23569 -1.14708 0
M  V30 1124 C 102.808 -4.21734 -0.447383 0
M  V30 1125 N 103.199 -5.03257 0.506535 0
M  V30 1126 C 101.497 -4.40536 -0.695966 0
M  V30 1127 C 102.198 -5.74426 0.917068 0
M  V30 1128 N 101.174 -5.42966 0.26253 0
M  V30 1129 H 104.976 -2.87965 0.587672 0
M  V30 1130 H 102.49 -1.56803 0.422697 0
M  V30 1131 H 104.487 -3.8089 -1.69495 0
M  V30 1132 H 103.147 -2.64702 -1.8805 0
M  V30 1133 H 104.158 -5.10319 0.882899 0
M  V30 1134 H 100.835 -3.92802 -1.41467 0
M  V30 1135 H 102.225 -6.4995 1.70338 0
M  V30 1136 N 104.945 -0.338344 -1.53925 0
M  V30 1137 C 105.892 0.520845 -2.24846 0
M  V30 1138 C 106.862 1.09976 -1.24477 0
M  V30 1139 O 108.047 1.13735 -1.53196 0
M  V30 1140 C 105.187 1.6685 -3.02084 0
M  V30 1141 C 104.3 1.11739 -4.17299 0
M  V30 1142 C 103.435 2.23193 -4.82036 0
M  V30 1143 C 102.474 1.65407 -5.89328 0
M  V30 1144 N 101.611 2.70582 -6.47866 0
M  V30 1145 H 106.451 -0.0904881 -2.97863 0
M  V30 1146 H 103.988 -0.0564282 -1.46992 0
M  V30 1147 H 105.946 2.34407 -3.45122 0
M  V30 1148 H 104.576 2.2509 -2.31375 0
M  V30 1149 H 103.628 0.332919 -3.7894 0
M  V30 1150 H 104.94 0.654677 -4.94485 0
M  V30 1151 H 104.094 2.98626 -5.28117 0
M  V30 1152 H 102.833 2.72807 -4.04262 0
M  V30 1153 H 101.838 0.884779 -5.42634 0
M  V30 1154 H 103.063 1.16652 -6.69006 0
M  V30 1155 H 101.009 3.1946 -5.72959 0
M  V30 1156 H 100.926 2.28917 -7.20509 0
M  V30 1157 H 102.194 3.45799 -6.98601 0
M  V30 1158 N 106.423 1.57458 -0.0668435 0
M  V30 1159 C 107.333 2.15937 0.916975 0
M  V30 1160 C 108.349 1.12123 1.33058 0
M  V30 1161 O 109.525 1.44366 1.40429 0
M  V30 1162 C 106.59 2.70547 2.16807 0
M  V30 1163 C 105.651 3.89215 1.81135 0
M  V30 1164 C 104.884 4.41211 3.0028 0
M  V30 1165 O 105.107 3.92225 4.14144 0
M  V30 1166 O 104.041 5.32605 2.80384 0
M  V30 1167 H 107.867 3.00354 0.449561 0
M  V30 1168 H 105.452 1.48584 0.155949 0
M  V30 1169 H 107.334 3.0557 2.90181 0
M  V30 1170 H 106.009 1.89192 2.62656 0
M  V30 1171 H 104.916 3.59054 1.05028 0
M  V30 1172 H 106.249 4.71848 1.40073 0
M  V30 1173 N 107.901 -0.206675 1.56239 0
M  V30 1174 C 109.178 -0.954051 1.70755 0
M  V30 1175 C 109.558 -2.01841 0.618353 0
M  V30 1176 O 108.906 -2.25444 -0.372434 0
M  V30 1177 C 109.116 -1.551 3.12642 0
M  V30 1178 C 110.464 -2.03757 3.72516 0
M  V30 1179 O 111.488 -1.64965 3.15698 0
M  V30 1180 O 110.347 -2.75103 4.72208 0
M  V30 1181 H 107.441 -0.446636 0.696021 0
M  V30 1182 H 109.987 -0.197283 1.68549 0
M  V30 1183 H 108.759 -0.783212 3.83382 0
M  V30 1184 H 108.382 -2.37291 3.19028 0
M  V30 1185 N 109.379 -1.50304 -0.473955 0
M  V30 1186 C 110.619 -1.62786 -1.23612 0
M  V30 1187 C 110.983 -0.319786 -1.89318 0
M  V30 1188 O 112.184 -0.320012 -2.66888 0
M  V30 1189 C 110.455 -2.77351 -2.25414 0
M  V30 1190 S 112.014 -3.09948 -3.10608 0
M  V30 1191 H 108.832 -0.573895 -0.419721 0
M  V30 1192 H 111.434 -1.88076 -0.533623 0
M  V30 1193 H 110.138 -3.70879 -1.75719 0
M  V30 1194 H 109.669 -2.54137 -3.00296 0
M  V30 1195 H 111.684 -2.53553 -4.26527 0
M  V30 1196 N 110.857 0.726932 -1.39834 0
M  V30 1197 C 111.787 1.85405 -1.41941 0
M  V30 1198 C 112.768 1.67751 -0.281728 0
M  V30 1199 O 113.953 1.8795 -0.488717 0
M  V30 1200 C 111.083 3.23243 -1.2701 0
M  V30 1201 C 110.037 3.55549 -2.38262 0
M  V30 1202 C 109.363 4.9241 -2.08415 0
M  V30 1203 C 110.663 3.577 -3.80589 0
M  V30 1204 H 112.357 1.83899 -2.36266 0
M  V30 1205 H 109.903 0.883349 -1.13723 0
M  V30 1206 H 111.856 4.01775 -1.27103 0
M  V30 1207 H 110.58 3.25296 -0.291564 0
M  V30 1208 H 109.239 2.79351 -2.37399 0
M  V30 1209 H 108.887 4.91052 -1.0898 0
M  V30 1210 H 108.587 5.14992 -2.82943 0
M  V30 1211 H 110.111 5.73289 -2.10171 0
M  V30 1212 H 111.525 4.26293 -3.83337 0
M  V30 1213 H 109.922 3.91804 -4.54543 0
M  V30 1214 H 110.992 2.57328 -4.10987 0
M  V30 1215 N 112.336 1.25143 0.95797 0
M  V30 1216 C 113.246 1.06968 2.08794 0
M  V30 1217 C 114.262 0.00773911 1.73998 0
M  V30 1218 O 115.438 0.207972 2.00323 0
M  V30 1219 C 112.503 0.68691 3.39827 0
M  V30 1220 C 111.564 1.82641 3.88511 0
M  V30 1221 C 110.797 1.46181 5.1329 0
M  V30 1222 O 111.02 0.355971 5.69288 0
M  V30 1223 O 109.954 2.29085 5.566 0
M  V30 1224 H 113.78 2.01723 2.27027 0
M  V30 1225 H 111.365 1.04051 1.07209 0
M  V30 1226 H 113.247 0.485417 4.18595 0
M  V30 1227 H 111.922 -0.231417 3.22872 0
M  V30 1228 H 110.829 2.08274 3.10762 0
M  V30 1229 H 112.162 2.72386 4.09959 0
M  V30 1230 N 113.814 -1.1601 1.06675 0
M  V30 1231 C 115.063 -1.85973 0.780818 0
M  V30 1232 C 115.376 -1.82819 -0.695444 0
M  V30 1233 O 116.582 -2.484 -1.09589 0
M  V30 1234 C 115.038 -3.33757 1.34665 0
M  V30 1235 C 114.646 -3.45374 2.85343 0
M  V30 1236 C 116.39 -4.0895 1.13843 0
M  V30 1237 C 114.297 -4.87266 3.35151 0
M  V30 1238 H 113.227 -0.696661 0.288407 0
M  V30 1239 H 115.878 -1.30903 1.28595 0
M  V30 1240 H 114.26 -3.88456 0.769274 0
M  V30 1241 H 115.434 -3.00816 3.49065 0
M  V30 1242 H 113.749 -2.83619 3.04876 0
M  V30 1243 H 116.346 -5.13654 1.4854 0
M  V30 1244 H 116.689 -4.16229 0.0770282 0
M  V30 1245 H 117.222 -3.605 1.68179 0
M  V30 1246 H 113.961 -4.85168 4.40786 0
M  V30 1247 H 113.481 -5.32433 2.76179 0
M  V30 1248 H 115.16 -5.56097 3.30704 0
M  V30 1249 N 115.292 -0.849877 -1.32721 0
M  V30 1250 C 116.541 -0.447175 -1.96681 0
M  V30 1251 C 116.854 1.00135 -1.68025 0
M  V30 1252 O 118.06 1.50926 -2.25685 0
M  V30 1253 C 116.516 -0.7487 -3.52026 0
M  V30 1254 C 116.124 -2.21264 -3.89546 0
M  V30 1255 C 117.868 -0.413487 -4.22481 0
M  V30 1256 C 115.775 -2.45763 -5.37917 0
M  V30 1257 H 114.705 -0.163486 -0.736063 0
M  V30 1258 H 117.356 -1.03999 -1.51183 0
M  V30 1259 H 115.738 -0.0853727 -3.95908 0
M  V30 1260 H 116.912 -2.91736 -3.56689 0
M  V30 1261 H 115.227 -2.5119 -3.32103 0
M  V30 1262 H 117.824 -0.574017 -5.3161 0
M  V30 1263 H 118.167 0.644492 -4.11281 0
M  V30 1264 H 118.7 -1.03251 -3.84167 0
M  V30 1265 H 115.439 -3.50168 -5.54132 0
M  V30 1266 H 114.959 -1.79864 -5.72197 0
M  V30 1267 H 116.638 -2.29471 -6.0494 0
M  V30 1268 N 116.77 1.45427 -0.607355 0
M  V30 1269 C 117.718 2.32269 0.12411 0
M  V30 1270 C 118.712 1.45955 0.859854 0
M  V30 1271 O 119.918 1.6244 0.775447 0
M  V30 1272 H 116.293 0.749691 0.0588839 0
M  V30 1273 H 118.264 2.91743 -0.626762 0
M  V30 1274 C 117.013 3.29567 1.1082 0
M  V30 1275 H 116.336 3.95978 0.551492 0
M  V30 1276 H 117.776 3.93061 1.58995 0
M  V30 1277 C 116.235 2.56722 2.18164 0
M  V30 1278 O 116.765 2.34842 3.25902 0
M  V30 1279 N 114.971 2.16861 1.93442 0
M  V30 1280 H 114.518 2.34855 1.05834 0
M  V30 1281 H 114.476 1.68444 2.65469 0
M  V30 1282 N 118.248 0.346503 1.53744 0
M  V30 1283 C 119.659 -0.136779 1.86198 0
M  V30 1284 C 120.01 -1.49749 1.26766 0
M  V30 1285 O 119.135 -2.08417 0.582355 0
M  V30 1286 C 119.73 -0.254966 3.37839 0
M  V30 1287 C 118.289 -0.682482 3.70161 0
M  V30 1288 C 117.436 0.181981 2.76702 0
M  V30 1289 H 120.387 0.565994 1.48264 0
M  V30 1290 H 120.408 -1.08195 3.64793 0
M  V30 1291 H 119.92 0.735526 3.81066 0
M  V30 1292 H 118.021 -1.68189 3.3248 0
M  V30 1293 H 118.134 -0.470326 4.76786 0
M  V30 1294 H 116.498 -0.34615 2.52337 0
M  V30 1295 H 117.281 1.16966 3.2276 0
M  V30 1296 N 119.726 -1.57421 0.075193 0
M  V30 1297 C 120.673 -2.12915 -0.890843 0
M  V30 1298 C 121.643 -1.04252 -1.29309 0
M  V30 1299 O 122.828 -1.31933 -1.37834 0
M  V30 1300 C 119.968 -2.69795 -2.15186 0
M  V30 1301 C 119.081 -3.92624 -1.80194 0
M  V30 1302 C 118.216 -4.37736 -3.00933 0
M  V30 1303 C 117.255 -5.53205 -2.61974 0
M  V30 1304 N 116.392 -5.9326 -3.75483 0
M  V30 1305 H 121.232 -2.95156 -0.410735 0
M  V30 1306 H 118.769 -1.45854 -0.191086 0
M  V30 1307 H 120.727 -3.00883 -2.89008 0
M  V30 1308 H 119.357 -1.90313 -2.60731 0
M  V30 1309 H 118.409 -3.67977 -0.964218 0
M  V30 1310 H 119.721 -4.76482 -1.47534 0
M  V30 1311 H 118.875 -4.70503 -3.8303 0
M  V30 1312 H 117.614 -3.52739 -3.36789 0
M  V30 1313 H 116.619 -5.20086 -1.783 0
M  V30 1314 H 117.844 -6.39936 -2.27284 0
M  V30 1315 H 115.79 -5.11212 -4.11094 0
M  V30 1316 H 115.707 -6.71865 -3.46602 0
M  V30 1317 H 116.975 -6.30651 -4.58148 0
M  V30 1318 N 121.204 0.198386 -1.56346 0
M  V30 1319 C 122.451 0.919286 -1.80431 0
M  V30 1320 C 122.779 1.83393 -0.647866 0
M  V30 1321 O 122.034 1.92236 0.366556 0
M  V30 1322 C 122.333 1.77031 -3.10475 0
M  V30 1323 C 121.999 1.00693 -4.39513 0
M  V30 1324 C 120.661 0.796145 -4.74568 0
M  V30 1325 C 123.013 0.469559 -5.19081 0
M  V30 1326 C 120.341 0.0364588 -5.86689 0
M  V30 1327 C 122.693 -0.2769 -6.31994 0
M  V30 1328 C 121.357 -0.49873 -6.65634 0
M  V30 1329 H 120.627 0.336391 -0.660244 0
M  V30 1330 H 123.274 0.185872 -1.90596 0
M  V30 1331 H 121.579 2.5723 -2.95533 0
M  V30 1332 H 123.276 2.33065 -3.26315 0
M  V30 1333 H 119.866 1.18122 -4.12001 0
M  V30 1334 H 124.05 0.619816 -4.92414 0
M  V30 1335 H 119.306 -0.145412 -6.11227 0
M  V30 1336 H 123.48 -0.700684 -6.92866 0
M  V30 1337 H 121.107 -1.0893 -7.52355 0
M  V30 1338 N 122.682 1.50554 0.465978 0
M  V30 1339 C 123.931 1.61038 1.21448 0
M  V30 1340 C 124.244 0.31865 1.92987 0
M  V30 1341 O 125.45 0.302469 2.6981 0
M  V30 1342 C 123.906 2.84283 2.20706 0
M  V30 1343 C 123.514 4.20352 1.54946 0
M  V30 1344 C 125.258 3.04115 2.96166 0
M  V30 1345 C 123.165 5.34778 2.5252 0
M  V30 1346 H 122.095 0.599718 0.457005 0
M  V30 1347 H 124.746 1.7699 0.484424 0
M  V30 1348 H 123.128 2.61901 2.97025 0
M  V30 1349 H 124.302 4.53008 0.843811 0
M  V30 1350 H 122.617 4.06167 0.917475 0
M  V30 1351 H 125.214 3.86774 3.69202 0
M  V30 1352 H 125.557 2.16045 3.55852 0
M  V30 1353 H 126.09 3.26702 2.26959 0
M  V30 1354 H 122.829 6.25018 1.97566 0
M  V30 1355 H 122.349 5.06534 3.21222 0
M  V30 1356 H 124.028 5.65561 3.14245 0
M  V30 1357 N 124.16 -0.719506 1.40217 0
M  V30 1358 C 125.07 -1.86378 1.42479 0
M  V30 1359 C 126.086 -1.71073 0.317834 0
M  V30 1360 O 127.262 -1.93406 0.561794 0
M  V30 1361 C 124.327 -3.22136 1.28178 0
M  V30 1362 C 123.388 -3.49723 2.48982 0
M  V30 1363 C 122.621 -4.79004 2.35353 0
M  V30 1364 O 122.844 -5.53821 1.36524 0
M  V30 1365 O 121.778 -5.06839 3.2465 0
M  V30 1366 H 125.604 -1.87425 2.38968 0
M  V30 1367 H 123.189 -0.869405 1.21498 0
M  V30 1368 H 125.071 -4.03234 1.22395 0
M  V30 1369 H 123.746 -3.21825 0.347934 0
M  V30 1370 H 122.653 -2.6865 2.60342 0
M  V30 1371 H 123.986 -3.54828 3.41113 0
M  V30 1372 N 125.638 -1.25649 -0.95132 0
M  V30 1373 C 126.866 -1.13343 -1.73092 0
M  V30 1374 C 127.281 0.312434 -1.86197 0
M  V30 1375 O 126.638 1.21465 -1.36207 0
M  V30 1376 C 126.689 -1.78602 -3.14299 0
M  V30 1377 O 126.41 -3.17537 -3.01831 0
M  V30 1378 C 127.911 -1.72119 -4.08522 0
M  V30 1379 H 125.131 -0.395181 -0.542285 0
M  V30 1380 H 127.675 -1.66076 -1.19328 0
M  V30 1381 H 125.83 -1.29832 -3.64996 0
M  V30 1382 H 126.244 -3.49676 -3.90931 0
M  V30 1383 H 127.718 -2.22435 -5.052 0
M  V30 1384 H 128.195 -0.685635 -4.33815 0
M  V30 1385 H 128.801 -2.20393 -3.63741 0
M  V30 1386 N 127.117 1.15442 -1.07289 0
M  V30 1387 C 128.365 1.85845 -0.794096 0
M  V30 1388 C 128.686 1.82692 0.681809 0
M  V30 1389 O 127.956 1.26741 1.49377 0
M  V30 1390 H 126.536 0.688089 -0.290763 0
M  V30 1391 H 129.198 1.39947 -1.3565 0
M  V30 1392 H 128.294 2.91001 -1.12804 0
M  V30 1393 N 128.595 0.856903 1.32268 0
M  V30 1394 C 129.843 0.460474 1.96784 0
M  V30 1395 C 130.164 -0.987701 1.68135 0
M  V30 1396 O 129.434 -1.69058 0.989765 0
M  V30 1397 H 128.014 0.167289 0.728027 0
M  V30 1398 H 130.676 1.09383 1.61312 0
M  V30 1399 H 129.772 0.60739 3.06133 0
M  V30 1400 N 130.073 -1.45103 0.615059 0
M  V30 1401 C 131.298 -2.07064 0.117988 0
M  V30 1402 C 131.723 -1.4554 -1.19163 0
M  V30 1403 O 131.081 -0.550855 -1.72729 0
M  V30 1404 C 131.129 -3.606 -0.000288387 0
M  V30 1405 O 130.233 -3.98847 -1.04856 0
M  V30 1406 H 129.574 -0.659467 0.0774581 0
M  V30 1407 H 132.104 -1.86236 0.847186 0
M  V30 1408 H 132.114 -4.07529 -0.196091 0
M  V30 1409 H 130.789 -4.04765 0.955932 0
M  V30 1410 H 129.366 -3.63577 -0.828619 0
M  V30 1411 N 131.551 -0.354651 -1.53558 0
M  V30 1412 C 132.484 0.540273 -2.21712 0
M  V30 1413 C 133.462 1.09161 -1.2051 0
M  V30 1414 O 134.646 1.14979 -1.49372 0
M  V30 1415 C 131.773 1.74435 -2.90328 0
M  V30 1416 C 130.819 1.32146 -4.05512 0
M  V30 1417 S 131.652 0.331924 -5.3447 0
M  V30 1418 C 132.808 1.54258 -6.06593 0
M  V30 1419 H 133.041 -0.0385776 -2.97275 0
M  V30 1420 H 130.574 -0.138736 -1.53775 0
M  V30 1421 H 132.532 2.43507 -3.30476 0
M  V30 1422 H 131.193 2.29444 -2.1451 0
M  V30 1423 H 130.386 2.21952 -4.52497 0
M  V30 1424 H 129.988 0.710091 -3.67197 0
M  V30 1425 H 132.28 2.47534 -6.30661 0
M  V30 1426 H 133.223 1.11431 -6.99277 0
M  V30 1427 H 133.631 1.74367 -5.36895 0
M  V30 1428 N 133.029 1.57378 -0.0835403 0
M  V30 1429 C 133.962 2.09016 0.915833 0
M  V30 1430 C 134.94 0.997993 1.2837 0
M  V30 1431 O 136.124 1.27219 1.39096 0
M  V30 1432 C 133.251 2.55757 2.22049 0
M  V30 1433 C 132.297 3.76522 2.00333 0
M  V30 1434 S 133.13 5.20661 1.25191 0
M  V30 1435 C 134.286 5.70743 2.56912 0
M  V30 1436 H 134.519 2.93457 0.476492 0
M  V30 1437 H 132.052 1.53856 0.129493 0
M  V30 1438 H 134.01 2.83346 2.97027 0
M  V30 1439 H 132.671 1.71564 2.63106 0
M  V30 1440 H 131.864 4.07256 2.96916 0
M  V30 1441 H 131.466 3.49367 1.33488 0
M  V30 1442 H 133.758 5.78304 3.52946 0
M  V30 1443 H 134.701 6.6944 2.30772 0
M  V30 1444 H 135.109 4.98616 2.64655 0
M  V30 1445 N 134.507 -0.190092 1.56449 0
M  V30 1446 C 135.737 -0.92443 1.84764 0
M  V30 1447 C 136.145 -1.77146 0.664529 0
M  V30 1448 O 135.488 -1.79812 -0.375957 0
M  V30 1449 C 135.55 -1.86651 3.07248 0
M  V30 1450 C 135.214 -1.20094 4.40938 0
M  V30 1451 C 136.211 -0.575445 5.16706 0
M  V30 1452 C 133.896 -1.2033 4.87674 0
M  V30 1453 C 135.89 0.0388111 6.37388 0
M  V30 1454 C 133.577 -0.585214 6.08291 0
M  V30 1455 C 134.575 0.0347578 6.82991 0
M  V30 1456 O 134.263 0.643147 8.01323 0
M  V30 1457 H 133.995 -0.274974 0.617548 0
M  V30 1458 H 136.549 -0.200788 2.04416 0
M  V30 1459 H 134.779 -2.62998 2.83494 0
M  V30 1460 H 136.468 -2.46907 3.22167 0
M  V30 1461 H 137.234 -0.565728 4.81689 0
M  V30 1462 H 133.113 -1.67526 4.29484 0
M  V30 1463 H 136.657 0.523329 6.95634 0
M  V30 1464 H 132.554 -0.592451 6.42775 0
M  V30 1465 H 133.322 0.540545 8.16713 0
M  V30 1466 N 135.985 -1.50799 -0.457987 0
M  V30 1467 C 136.932 -1.70617 -1.5543 0
M  V30 1468 C 137.902 -0.547562 -1.56815 0
M  V30 1469 O 139.087 -0.779647 -1.74144 0
M  V30 1470 C 136.227 -1.81831 -2.93311 0
M  V30 1471 C 135.34 -3.09278 -3.01615 0
M  V30 1472 C 134.475 -3.11209 -4.30491 0
M  V30 1473 C 133.514 -4.33055 -4.32585 0
M  V30 1474 N 132.651 -4.32652 -5.52952 0
M  V30 1475 H 137.491 -2.64207 -1.37836 0
M  V30 1476 H 135.028 -1.30959 -0.669937 0
M  V30 1477 H 136.986 -1.86314 -3.73287 0
M  V30 1478 H 135.616 -0.916685 -3.0951 0
M  V30 1479 H 134.668 -3.14203 -2.1443 0
M  V30 1480 H 135.98 -3.99233 -2.99022 0
M  V30 1481 H 135.134 -3.14494 -5.18824 0
M  V30 1482 H 133.873 -2.19106 -4.35711 0
M  V30 1483 H 132.878 -4.29969 -3.42647 0
M  V30 1484 H 134.103 -5.264 -4.29046 0
M  V30 1485 H 132.049 -3.43409 -5.58933 0
M  V30 1486 H 131.966 -5.16392 -5.52155 0
M  V30 1487 H 133.234 -4.40101 -6.43375 0
M  V30 1488 N 137.463 0.71206 -1.40597 0
M  V30 1489 C 138.373 1.8562 -1.43466 0
M  V30 1490 C 139.389 1.70902 -0.326902 0
M  V30 1491 O 140.565 1.93105 -0.572043 0
M  V30 1492 C 137.63 3.21451 -1.29884 0
M  V30 1493 C 136.691 3.48398 -2.50833 0
M  V30 1494 C 135.924 4.77749 -2.3789 0
M  V30 1495 O 136.147 5.53089 -1.39459 0
M  V30 1496 O 135.081 5.05111 -3.27333 0
M  V30 1497 H 138.907 1.86155 -2.39958 0
M  V30 1498 H 136.492 0.86295 -1.21957 0
M  V30 1499 H 138.374 4.02579 -1.24531 0
M  V30 1500 H 137.049 3.21636 -0.364997 0
M  V30 1501 H 135.956 2.67265 -2.61763 0
M  V30 1502 H 137.289 3.53014 -3.4299 0
M  V30 1503 N 138.941 1.26152 0.944643 0
M  V30 1504 C 140.189 1.11271 1.6871 0
M  V30 1505 C 140.51 -0.345166 1.91921 0
M  V30 1506 O 139.78 -1.24387 1.51343 0
M  V30 1507 H 138.36 0.408783 0.625224 0
M  V30 1508 H 141.022 1.58427 1.1352 0
M  V30 1509 H 140.118 1.62879 2.66227 0
M  V30 1510 N 140.419 -1.14872 1.07899 0
M  V30 1511 C 141.659 -1.8745 0.814965 0
M  V30 1512 C 142.023 -1.80758 -0.64733 0
M  V30 1513 O 143.224 -2.48422 -1.02664 0
M  V30 1514 C 141.495 -3.32286 1.31607 0
M  V30 1515 S 143.054 -4.22537 1.18357 0
M  V30 1516 H 139.872 -0.646833 0.295174 0
M  V30 1517 H 142.474 -1.38555 1.37923 0
M  V30 1518 H 141.178 -3.34703 2.37491 0
M  V30 1519 H 140.709 -3.86238 0.747261 0
M  V30 1520 H 142.724 -4.96044 0.124586 0
M  V30 1521 N 141.898 -0.863906 -1.31812 0
M  V30 1522 C 142.828 -0.330843 -2.31144 0
M  V30 1523 C 143.809 0.575005 -1.60087 0
M  V30 1524 O 144.994 0.493304 -1.8783 0
M  V30 1525 C 142.124 0.47374 -3.44054 0
M  V30 1526 C 141.078 -0.338481 -4.26659 0
M  V30 1527 C 140.404 0.591412 -5.31419 0
M  V30 1528 C 141.704 -1.56926 -4.98168 0
M  V30 1529 H 143.398 -1.16086 -2.75979 0
M  V30 1530 H 140.944 -0.559657 -1.32679 0
M  V30 1531 H 142.897 0.857143 -4.12591 0
M  V30 1532 H 141.621 1.33721 -2.9797 0
M  V30 1533 H 140.28 -0.703754 -3.59782 0
M  V30 1534 H 139.928 1.45199 -4.81587 0
M  V30 1535 H 139.628 0.0519022 -5.87577 0
M  V30 1536 H 141.152 0.97179 -6.02817 0
M  V30 1537 H 142.566 -1.25764 -5.59336 0
M  V30 1538 H 140.963 -2.04739 -5.64094 0
M  V30 1539 H 142.033 -2.32544 -4.25501 0
M  V30 1540 N 143.376 1.44774 -0.622745 0
M  V30 1541 C 144.601 2.06999 -0.128968 0
M  V30 1542 C 145.026 1.4617 1.1839 0
M  V30 1543 O 144.384 0.560007 1.72434 0
M  V30 1544 C 144.432 3.60595 -0.0188351 0
M  V30 1545 O 143.536 3.99398 1.02739 0
M  V30 1546 H 142.877 0.659047 -0.0809544 0
M  V30 1547 H 145.407 1.85784 -0.85705 0
M  V30 1548 H 145.417 4.07627 0.174476 0
M  V30 1549 H 144.092 4.04252 -0.977384 0
M  V30 1550 H 142.669 3.64011 0.809326 0
M  V30 1551 N 144.854 0.36279 1.53368 0
M  V30 1552 C 146.1 -0.228113 2.01513 0
M  V30 1553 C 146.433 -1.48648 1.2497 0
M  V30 1554 O 145.708 -1.91459 0.342616 0
M  V30 1555 C 145.991 -0.522884 3.56284 0
M  V30 1556 C 145.844 0.74892 4.43521 0
M  V30 1557 C 147.163 -1.32461 4.19693 0
M  V30 1558 H 144.282 -0.0814343 0.732487 0
M  V30 1559 H 146.924 0.48713 1.83649 0
M  V30 1560 H 145.074 -1.1322 3.71636 0
M  V30 1561 H 146.746 1.38648 4.39971 0
M  V30 1562 H 144.989 1.36986 4.11603 0
M  V30 1563 H 145.66 0.497667 5.49752 0
M  V30 1564 H 148.136 -0.809203 4.08156 0
M  V30 1565 H 147.012 -1.49961 5.28018 0
M  V30 1566 H 147.273 -2.33232 3.75573 0
M  V30 1567 N 146.332 -1.57332 0.0918853 0
M  V30 1568 C 147.743 -1.81496 -0.437739 0
M  V30 1569 C 148.094 -1.00727 -1.6837 0
M  V30 1570 O 147.219 -0.235694 -2.15113 0
M  V30 1571 C 147.814 -3.29197 -0.800939 0
M  V30 1572 C 146.373 -3.54136 -1.27532 0
M  V30 1573 C 145.52 -2.75979 -0.270392 0
M  V30 1574 H 148.471 -1.55494 0.317366 0
M  V30 1575 H 148.492 -3.42344 -1.66074 0
M  V30 1576 H 148.004 -3.87955 0.106078 0
M  V30 1577 H 146.105 -3.00705 -2.20016 0
M  V30 1578 H 146.218 -4.62792 -1.23938 0
M  V30 1579 H 144.582 -2.43349 -0.751872 0
M  V30 1580 H 145.365 -3.37484 0.629248 0
M  V30 1581 N 147.81 0.181792 -1.56548 0
M  V30 1582 C 149.058 0.89832 -1.81038 0
M  V30 1583 C 149.379 1.83232 -0.667164 0
M  V30 1584 O 148.649 1.93372 0.313673 0
M  V30 1585 H 147.229 0.33471 -0.667816 0
M  V30 1586 H 149.891 0.184116 -1.94028 0
M  V30 1587 H 148.987 1.4815 -2.74696 0
M  V30 1588 N 149.288 1.51039 0.449983 0
M  V30 1589 C 150.535 1.63081 1.20045 0
M  V30 1590 C 150.863 0.341024 1.91487 0
M  V30 1591 O 150.118 -0.674276 1.83717 0
M  V30 1592 C 150.417 2.77556 2.25161 0
M  V30 1593 C 150.083 4.17289 1.70823 0
M  V30 1594 C 148.745 4.55305 1.55725 0
M  V30 1595 C 151.097 5.04536 1.3074 0
M  V30 1596 C 148.425 5.78287 0.989999 0
M  V30 1597 C 150.777 6.28085 0.754482 0
M  V30 1598 C 149.441 6.64885 0.590308 0
M  V30 1599 H 148.711 0.596755 0.439277 0
M  V30 1600 H 151.358 1.85037 0.49333 0
M  V30 1601 H 149.663 2.49771 3.01863 0
M  V30 1602 H 151.36 2.84073 2.83026 0
M  V30 1603 H 147.95 3.8731 1.83546 0
M  V30 1604 H 152.134 4.75782 1.41229 0
M  V30 1605 H 147.39 6.05456 0.850451 0
M  V30 1606 H 151.564 6.95038 0.435324 0
M  V30 1607 H 149.191 7.60055 0.14862 0
M  V30 1608 N 150.766 -0.704594 1.40972 0
M  V30 1609 C 151.996 -1.49138 1.42974 0
M  V30 1610 C 152.404 -1.89175 0.0308406 0
M  V30 1611 O 151.747 -1.56734 -0.958138 0
M  V30 1612 C 151.809 -2.79016 2.26694 0
M  V30 1613 C 151.473 -2.61236 3.74973 0
M  V30 1614 C 152.47 -2.27773 4.67349 0
M  V30 1615 C 150.155 -2.77158 4.18914 0
M  V30 1616 C 152.149 -2.10457 6.01653 0
M  V30 1617 C 149.836 -2.59459 5.53285 0
M  V30 1618 C 150.834 -2.26158 6.4447 0
M  V30 1619 O 150.522 -2.08605 7.76363 0
M  V30 1620 H 150.254 -0.466443 0.489292 0
M  V30 1621 H 152.808 -0.8758 1.85793 0
M  V30 1622 H 151.038 -3.42947 1.78673 0
M  V30 1623 H 152.727 -3.40782 2.20504 0
M  V30 1624 H 153.493 -2.15095 4.34694 0
M  V30 1625 H 149.372 -3.02064 3.48251 0
M  V30 1626 H 152.916 -1.84387 6.72791 0
M  V30 1627 H 148.813 -2.71725 5.85522 0
M  V30 1628 H 149.581 -2.23439 7.87412 0
M  V30 1629 N 152.244 -1.26651 -0.937939 0
M  V30 1630 C 153.154 -1.10276 -2.07066 0
M  V30 1631 C 154.17 -0.0354197 -1.73964 0
M  V30 1632 O 155.346 -0.239816 -1.99967 0
M  V30 1633 C 152.411 -0.740887 -3.38691 0
M  V30 1634 C 151.472 -1.88799 -3.85556 0
M  V30 1635 C 150.705 -1.54329 -5.10899 0
M  V30 1636 O 150.928 -0.446494 -5.6865 0
M  V30 1637 O 149.862 -2.37911 -5.52885 0
M  V30 1638 H 153.688 -2.05309 -2.23789 0
M  V30 1639 H 151.273 -1.05743 -1.0554 0
M  V30 1640 H 153.155 -0.55195 -4.1777 0
M  V30 1641 H 151.83 0.180022 -3.23199 0
M  V30 1642 H 150.737 -2.13191 -3.07409 0
M  V30 1643 H 152.07 -2.78874 -4.05574 0
M  V30 1644 N 153.722 1.14298 -1.08507 0
M  V30 1645 C 154.632 2.23027 -0.727753 0
M  V30 1646 C 155.648 1.71952 0.26619 0
M  V30 1647 O 156.824 2.011 0.109882 0
M  V30 1648 C 153.889 3.46403 -0.143541 0
M  V30 1649 C 152.95 4.12413 -1.19223 0
M  V30 1650 C 152.183 5.29899 -0.635798 0
M  V30 1651 O 152.406 5.67796 0.544393 0
M  V30 1652 O 151.34 5.85717 -1.38634 0
M  V30 1653 H 155.166 2.55945 -1.63481 0
M  V30 1654 H 152.751 1.22248 -0.858817 0
M  V30 1655 H 154.633 4.21018 0.179404 0
M  V30 1656 H 153.308 3.15206 0.736659 0
M  V30 1657 H 152.215 3.39667 -1.56772 0
M  V30 1658 H 153.548 4.47718 -2.04474 0
M  V30 1659 N 155.201 0.870884 1.31352 0
M  V30 1660 C 156.447 0.482987 1.96965 0
M  V30 1661 C 156.78 -0.962462 1.68672 0
M  V30 1662 O 156.055 -1.6779 0.98371 0
M  V30 1663 C 156.338 0.741752 3.52378 0
M  V30 1664 C 156.191 2.2368 3.9024 0
M  V30 1665 C 157.51 0.208838 4.39604 0
M  V30 1666 H 154.629 0.176955 0.715441 0
M  V30 1667 H 157.271 1.09229 1.55464 0
M  V30 1668 H 155.421 0.223149 3.87859 0
M  V30 1669 H 157.093 2.82273 3.64856 0
M  V30 1670 H 155.336 2.70901 3.38814 0
M  V30 1671 H 156.007 2.3685 4.98604 0
M  V30 1672 H 158.483 0.652529 4.10952 0
M  V30 1673 H 157.359 0.419336 5.47296 0
M  V30 1674 H 157.62 -0.889275 4.33064 0
M  V30 1675 N 156.679 -1.44442 0.630414 0
M  V30 1676 C 157.589 -2.34476 -0.0761693 0
M  V30 1677 C 158.605 -1.52576 -0.836449 0
M  V30 1678 O 159.781 -1.85307 -0.788874 0
M  V30 1679 C 156.846 -3.30545 -1.04599 0
M  V30 1680 C 155.907 -4.28352 -0.28516 0
M  V30 1681 C 155.14 -5.19831 -1.20878 0
M  V30 1682 O 155.363 -5.15223 -2.44747 0
M  V30 1683 O 154.297 -5.97892 -0.693491 0
M  V30 1684 H 158.123 -2.96345 0.664324 0
M  V30 1685 H 155.708 -1.44203 0.39061 0
M  V30 1686 H 157.59 -3.89681 -1.60396 0
M  V30 1687 H 156.265 -2.7121 -1.76711 0
M  V30 1688 H 155.172 -3.72764 0.315837 0
M  V30 1689 H 156.505 -4.90605 0.395924 0
M  V30 1690 N 158.157 -0.370918 -1.53173 0
M  V30 1691 C 159.573 -0.0200818 -1.59587 0
M  V30 1692 C 159.773 1.46279 -1.38581 0
M  V30 1693 O 158.829 2.22506 -1.19363 0
M  V30 1694 C 160.142 -0.4808 -2.96831 0
M  V30 1695 C 161.69 -0.435477 -3.09956 0
M  V30 1696 C 162.165 -0.872092 -4.4962 0
M  V30 1697 N 163.656 -0.827364 -4.55751 0
M  V30 1698 C 164.391 -1.13683 -5.62018 0
M  V30 1699 N 163.887 -1.51584 -6.76014 0
M  V30 1700 N 165.68 -1.05927 -5.52029 0
M  V30 1701 H 157.831 -1.33652 -1.65079 0
M  V30 1702 H 160.094 -0.546634 -0.774529 0
M  V30 1703 H 159.8 -1.51577 -3.1736 0
M  V30 1704 H 159.674 0.129796 -3.76977 0
M  V30 1705 H 162.061 0.590371 -2.89134 0
M  V30 1706 H 162.142 -1.08164 -2.31806 0
M  V30 1707 H 161.786 -1.89608 -4.71181 0
M  V30 1708 H 161.716 -0.203127 -5.26208 0
M  V30 1709 H 164.207 -0.548216 -3.73902 0
M  V30 1710 H 164.52 -1.73609 -7.53047 0
M  V30 1711 H 162.865 -1.55454 -6.77391 0
M  V30 1712 H 166.056 -0.762321 -4.61851 0
M  V30 1713 H 166.229 -1.30378 -6.34749 0
M  V30 1714 N 159.635 1.57281 -0.100228 0
M  V30 1715 C 160.882 1.94537 0.562268 0
M  V30 1716 C 161.21 0.982315 1.67871 0
M  V30 1717 O 160.465 0.00280936 1.957 0
M  V30 1718 C 160.764 3.38305 1.15259 0
M  V30 1719 C 160.43 4.50618 0.159409 0
M  V30 1720 C 159.092 4.81066 -0.113741 0
M  V30 1721 C 161.444 5.18615 -0.518461 0
M  V30 1722 C 158.772 5.76835 -1.07137 0
M  V30 1723 C 161.124 6.15412 -1.46459 0
M  V30 1724 C 159.788 6.44262 -1.74592 0
M  V30 1725 H 159.058 0.711863 0.205748 0
M  V30 1726 H 161.705 1.90679 -0.17715 0
M  V30 1727 H 160.01 3.38766 1.96836 0
M  V30 1728 H 161.707 3.64435 1.67297 0
M  V30 1729 H 158.297 4.2689 0.382491 0
M  V30 1730 H 162.481 4.95264 -0.320581 0
M  V30 1731 H 157.737 5.975 -1.29628 0
M  V30 1732 H 161.911 6.67194 -1.99564 0
M  V30 1733 H 159.538 7.1828 -2.48953 0
M  V30 1734 N 161.113 -0.173488 1.56642 0
M  V30 1735 C 162.023 -1.23482 1.99473 0
M  V30 1736 C 163.039 -1.48567 0.905752 0
M  V30 1737 O 164.215 -1.60758 1.21321 0
M  V30 1738 C 161.28 -2.55444 2.34413 0
M  V30 1739 C 160.341 -2.38241 3.57127 0
M  V30 1740 C 159.574 -3.63909 3.90392 0
M  V30 1741 O 159.797 -4.68996 3.24653 0
M  V30 1742 O 158.731 -3.58149 4.83749 0
M  V30 1743 H 162.557 -0.901279 2.90018 0
M  V30 1744 H 160.142 -0.380185 1.44482 0
M  V30 1745 H 162.024 -3.33292 2.57865 0
M  V30 1746 H 160.699 -2.88382 1.4703 0
M  V30 1747 H 159.606 -1.58431 3.38896 0
M  V30 1748 H 160.939 -2.10228 4.45045 0
M  V30 1749 N 162.591 -1.51276 -0.441967 0
M  V30 1750 C 163.538 -1.72256 -1.53612 0
M  V30 1751 C 164.508 -0.564164 -1.56225 0
M  V30 1752 O 165.693 -0.798074 -1.73307 0
M  V30 1753 C 162.833 -1.84932 -2.91366 0
M  V30 1754 C 161.946 -3.12459 -2.98317 0
M  V30 1755 C 161.081 -3.15758 -4.27166 0
M  V30 1756 C 160.12 -4.37619 -4.27967 0
M  V30 1757 N 159.257 -4.38493 -5.48333 0
M  V30 1758 H 164.097 -2.65654 -1.35026 0
M  V30 1759 H 161.634 -1.31662 -0.656009 0
M  V30 1760 H 163.592 -1.90263 -3.7129 0
M  V30 1761 H 162.222 -0.949461 -3.08521 0
M  V30 1762 H 161.274 -3.1646 -2.11086 0
M  V30 1763 H 162.586 -4.02382 -2.94771 0
M  V30 1764 H 161.74 -3.19979 -5.15459 0
M  V30 1765 H 160.479 -2.23715 -4.33362 0
M  V30 1766 H 159.484 -4.33579 -3.38067 0
M  V30 1767 H 160.709 -5.30921 -4.23438 0
M  V30 1768 H 158.655 -3.49318 -5.55259 0
M  V30 1769 H 158.572 -5.22219 -5.46647 0
M  V30 1770 H 159.84 -4.469 -6.38671 0
M  V30 1771 N 164.069 0.697108 -1.41344 0
M  V30 1772 C 165.315 1.4593 -1.40827 0
M  V30 1773 C 165.648 1.94193 -0.0167098 0
M  V30 1774 O 164.923 1.69425 0.955263 0
M  V30 1775 C 165.206 2.67229 -2.41373 0
M  V30 1776 C 165.059 2.24741 -3.8963 0
M  V30 1777 C 166.378 3.69423 -2.39196 0
M  V30 1778 H 163.497 0.529303 -0.512842 0
M  V30 1779 H 166.139 0.794112 -1.72609 0
M  V30 1780 H 164.289 3.23982 -2.14401 0
M  V30 1781 H 165.961 1.73327 -4.27499 0
M  V30 1782 H 164.204 1.56542 -4.0457 0
M  V30 1783 H 164.875 3.1177 -4.55525 0
M  V30 1784 H 167.351 3.2234 -2.63128 0
M  V30 1785 H 166.227 4.51907 -3.11563 0
M  V30 1786 H 166.488 4.19012 -1.41001 0
M  V30 1787 N 165.547 1.27147 0.931209 0
M  V30 1788 C 166.494 1.09568 2.03134 0
M  V30 1789 C 167.464 -0.00222433 1.661 0
M  V30 1790 O 168.649 0.159439 1.90133 0
M  V30 1791 C 165.789 0.745231 3.36957 0
M  V30 1792 C 164.902 1.92041 3.86968 0
M  V30 1793 C 164.037 1.51216 5.09222 0
M  V30 1794 C 163.076 2.65504 5.5152 0
M  V30 1795 N 162.213 2.25291 6.64972 0
M  V30 1796 H 167.053 2.03708 2.17502 0
M  V30 1797 H 164.59 1.01411 1.06556 0
M  V30 1798 H 166.548 0.522878 4.1391 0
M  V30 1799 H 165.178 -0.159202 3.22407 0
M  V30 1800 H 164.23 2.25541 3.06326 0
M  V30 1801 H 165.542 2.77787 4.1429 0
M  V30 1802 H 164.696 1.25084 5.93666 0
M  V30 1803 H 163.435 0.625749 4.83669 0
M  V30 1804 H 162.44 2.92354 4.65628 0
M  V30 1805 H 163.665 3.54761 5.7907 0
M  V30 1806 H 161.611 1.39098 6.41083 0
M  V30 1807 H 161.528 3.04577 6.91931 0
M  V30 1808 H 162.796 2.02398 7.52765 0
M  V30 1809 N 167.025 -1.13721 1.09112 0
M  V30 1810 C 168.274 -1.84275 0.82009 0
M  V30 1811 C 168.587 -1.84253 -0.656509 0
M  V30 1812 O 169.793 -2.50668 -1.04296 0
M  V30 1813 C 168.249 -3.30825 1.41714 0
M  V30 1814 C 167.857 -3.39244 2.92605 0
M  V30 1815 C 169.601 -4.06443 1.22492 0
M  V30 1816 C 167.508 -4.80047 3.45411 0
M  V30 1817 H 166.438 -0.690387 0.30312 0
M  V30 1818 H 169.089 -1.28146 1.31343 0
M  V30 1819 H 167.471 -3.86737 0.851498 0
M  V30 1820 H 168.645 -2.93344 3.55367 0
M  V30 1821 H 166.96 -2.77088 3.10823 0
M  V30 1822 H 169.557 -5.10387 1.59402 0
M  V30 1823 H 169.9 -4.15972 0.165299 0
M  V30 1824 H 170.433 -3.56852 1.75788 0
M  V30 1825 H 167.172 -4.75709 4.50978 0
M  V30 1826 H 166.692 -5.26455 2.87411 0
M  V30 1827 H 168.371 -5.48957 3.42425 0
M  V30 1828 N 168.503 -0.877838 -1.30888 0
M  V30 1829 C 169.413 -0.343096 -2.32078 0
M  V30 1830 C 170.429 0.551022 -1.65045 0
M  V30 1831 O 171.605 0.445854 -1.96403 0
M  V30 1832 C 168.67 0.439905 -3.43898 0
M  V30 1833 C 167.731 -0.483111 -4.26573 0
M  V30 1834 C 166.964 0.262616 -5.33053 0
M  V30 1835 O 167.187 1.48967 -5.50604 0
M  V30 1836 O 166.121 -0.383593 -6.00676 0
M  V30 1837 H 169.947 -1.18203 -2.79753 0
M  V30 1838 H 167.532 -0.64145 -1.34929 0
M  V30 1839 H 169.414 0.883504 -4.12034 0
M  V30 1840 H 168.089 1.25526 -2.98371 0
M  V30 1841 H 166.996 -0.975374 -3.61161 0
M  V30 1842 H 168.329 -1.26427 -4.75686 0
M  V30 1843 N 169.982 1.44106 -0.638065 0
M  V30 1844 C 171.212 2.06037 -0.152394 0
M  V30 1845 C 171.62 1.47808 1.18108 0
M  V30 1846 O 170.963 0.598092 1.73691 0
M  V30 1847 C 171.025 3.59488 0.0293714 0
M  V30 1848 C 170.689 4.4022 -1.22702 0
M  V30 1849 C 171.686 4.73256 -2.15232 0
M  V30 1850 C 169.371 4.8048 -1.46437 0
M  V30 1851 C 171.365 5.45444 -3.29802 0
M  V30 1852 C 169.052 5.52417 -2.61303 0
M  V30 1853 C 170.05 5.84819 -3.52811 0
M  V30 1854 O 169.738 6.55289 -4.65673 0
M  V30 1855 H 169.47 0.671233 -0.0801401 0
M  V30 1856 H 172.024 1.85851 -0.874563 0
M  V30 1857 H 170.254 3.78191 0.806758 0
M  V30 1858 H 171.943 4.03164 0.470475 0
M  V30 1859 H 172.709 4.42684 -1.98131 0
M  V30 1860 H 168.588 4.54676 -0.760977 0
M  V30 1861 H 172.132 5.70653 -4.01249 0
M  V30 1862 H 168.029 5.82404 -2.78344 0
M  V30 1863 H 168.797 6.73762 -4.64744 0
M  V30 1864 N 171.46 0.379036 1.52974 0
M  V30 1865 C 172.392 -0.495963 2.2377 0
M  V30 1866 C 173.405 -1.03517 1.25651 0
M  V30 1867 O 174.594 -0.939249 1.51791 0
M  V30 1868 C 171.694 -1.69894 2.93239 0
M  V30 1869 C 170.867 -1.2889 4.17979 0
M  V30 1870 C 169.926 -2.35543 4.70538 0
M  V30 1871 O 168.952 -1.97375 5.33883 0
M  V30 1872 N 170.154 -3.67318 4.49508 0
M  V30 1873 H 172.919 0.110523 2.99496 0
M  V30 1874 H 170.48 0.204878 1.60598 0
M  V30 1875 H 172.472 -2.40747 3.25304 0
M  V30 1876 H 171.042 -2.212 2.20883 0
M  V30 1877 H 170.262 -0.409676 3.92065 0
M  V30 1878 H 171.55 -0.991443 4.99047 0
M  V30 1879 H 170.948 -4.01095 3.98923 0
M  V30 1880 H 169.505 -4.34235 4.8609 0
M  V30 1881 N 172.938 -1.57226 0.108567 0
M  V30 1882 C 173.886 -2.16002 -0.862885 0
M  V30 1883 C 174.88 -1.10644 -1.28274 0
M  V30 1884 O 176.086 -1.28966 -1.2557 0
M  V30 1885 H 172.461 -0.691148 -0.296342 0
M  V30 1886 H 174.432 -2.96427 -0.342575 0
M  V30 1887 C 173.181 -2.76576 -2.10716 0
M  V30 1888 H 172.504 -3.5734 -1.793 0
M  V30 1889 H 173.944 -3.21253 -2.76717 0
M  V30 1890 C 172.403 -1.73137 -2.89007 0
M  V30 1891 O 172.933 -1.17842 -3.84026 0
M  V30 1892 N 171.139 -1.43317 -2.52801 0
M  V30 1893 H 170.686 -1.88473 -1.75601 0
M  V30 1894 H 170.644 -0.743485 -3.05483 0
M  V30 1895 N 174.416 0.165178 -1.56732 0
M  V30 1896 C 175.832 0.517174 -1.50988 0
M  V30 1897 C 176.032 1.84331 -0.813894 0
M  V30 1898 O 175.088 2.49672 -0.37682 0
M  V30 1899 C 176.401 0.544261 -2.95733 0
M  V30 1900 C 177.949 0.631039 -3.06573 0
M  V30 1901 C 178.424 0.68896 -4.52788 0
M  V30 1902 N 179.915 0.751683 -4.5706 0
M  V30 1903 C 180.65 0.817177 -5.67547 0
M  V30 1904 N 180.146 0.843129 -6.8765 0
M  V30 1905 N 181.939 0.856668 -5.55534 0
M  V30 1906 H 174.09 -0.704318 -2.00382 0
M  V30 1907 H 176.353 -0.254687 -0.913148 0
M  V30 1908 H 176.059 -0.361607 -3.49836 0
M  V30 1909 H 175.933 1.3886 -3.5071 0
M  V30 1910 H 178.32 1.52733 -2.52501 0
M  V30 1911 H 178.401 -0.240095 -2.54671 0
M  V30 1912 H 178.045 -0.2031 -5.07494 0
M  V30 1913 H 177.975 1.57633 -5.02454 0
M  V30 1914 H 180.466 0.739661 -3.70591 0
M  V30 1915 H 180.779 0.894448 -7.67606 0
M  V30 1916 H 179.124 0.811304 -6.90248 0
M  V30 1917 H 182.315 0.833437 -4.60621 0
M  V30 1918 H 182.488 0.904247 -6.4166 0
M  V30 1919 N 175.894 1.51508 0.433938 0
M  V30 1920 C 177.141 1.64345 1.18309 0
M  V30 1921 C 177.469 0.361315 1.91115 0
M  V30 1922 O 176.724 -0.654753 1.84422 0
M  V30 1923 C 177.023 2.79928 2.22205 0
M  V30 1924 C 176.689 4.19078 1.66387 0
M  V30 1925 C 175.351 4.56932 1.50887 0
M  V30 1926 C 177.703 5.05894 1.25381 0
M  V30 1927 C 175.031 5.79305 0.928608 0
M  V30 1928 C 177.383 6.2885 0.687823 0
M  V30 1929 C 176.047 6.65473 0.519755 0
M  V30 1930 H 175.317 0.601381 0.432923 0
M  V30 1931 H 177.964 1.85549 0.473676 0
M  V30 1932 H 176.269 2.52959 2.99197 0
M  V30 1933 H 177.966 2.87059 2.79997 0
M  V30 1934 H 174.556 3.89234 1.79428 0
M  V30 1935 H 178.74 4.77253 1.36175 0
M  V30 1936 H 173.996 6.06324 0.786186 0
M  V30 1937 H 178.17 6.95461 0.361581 0
M  V30 1938 H 175.797 7.6017 0.0679979 0
M  V30 1939 N 177.372 -0.689602 1.41712 0
M  V30 1940 C 178.335 -1.78521 1.43746 0
M  V30 1941 C 179.335 -1.57436 0.327191 0
M  V30 1942 O 180.525 -1.64 0.587348 0
M  V30 1943 C 177.657 -3.16971 1.25467 0
M  V30 1944 H 178.85 -1.78108 2.41283 0
M  V30 1945 H 176.403 -0.89781 1.27942 0
M  V30 1946 H 177.138 -3.23019 0.287948 0
M  V30 1947 H 176.923 -3.33678 2.05917 0
M  V30 1948 H 178.413 -3.96935 1.2974 0
M  V30 1949 N 178.85 -1.27639 -0.924453 0
M  V30 1950 C 179.76 -1.12466 -2.05885 0
M  V30 1951 C 180.776 -0.053869 -1.73917 0
M  V30 1952 O 181.952 -0.261012 -1.99702 0
M  V30 1953 C 179.017 -0.776768 -3.37886 0
M  V30 1954 C 178.078 -1.92878 -3.83532 0
M  V30 1955 C 177.311 -1.59739 -5.09234 0
M  V30 1956 O 177.534 -0.506782 -5.68144 0
M  V30 1957 O 176.468 -2.43761 -5.50331 0
M  V30 1958 H 180.294 -2.07671 -2.21599 0
M  V30 1959 H 177.879 -1.06857 -1.04413 0
M  V30 1960 H 179.761 -0.596229 -4.17161 0
M  V30 1961 H 178.436 0.145732 -3.23372 0
M  V30 1962 H 177.343 -2.1644 -3.0513 0
M  V30 1963 H 178.676 -2.8316 -4.02593 0
M  V30 1964 N 180.328 1.1314 -1.09713 0
M  V30 1965 C 181.574 1.84757 -0.836224 0
M  V30 1966 C 181.907 1.8347 0.636598 0
M  V30 1967 O 181.182 1.27491 1.46889 0
M  V30 1968 C 181.465 3.32782 -1.37578 0
M  V30 1969 C 181.318 3.42567 -2.91493 0
M  V30 1970 C 182.637 4.28307 -1.01198 0
M  V30 1971 H 179.756 0.67082 -0.305236 0
M  V30 1972 H 182.398 1.3278 -1.35903 0
M  V30 1973 H 180.548 3.77177 -0.931097 0
M  V30 1974 H 182.22 3.06862 -3.44432 0
M  V30 1975 H 180.463 2.83349 -3.28475 0
M  V30 1976 H 181.134 4.46674 -3.24324 0
M  V30 1977 H 183.61 3.91999 -1.39556 0
M  V30 1978 H 182.486 5.30307 -1.41653 0
M  V30 1979 H 182.747 4.42029 0.0794833 0
M  V30 1980 N 181.806 0.884767 1.30421 0
M  V30 1981 C 182.753 0.349642 2.28136 0
M  V30 1982 C 183.723 -0.560061 1.56373 0
M  V30 1983 O 184.908 -0.488524 1.8444 0
M  V30 1984 C 182.048 -0.42999 3.42411 0
M  V30 1985 C 181.161 0.508907 4.28992 0
M  V30 1986 C 180.296 -0.286301 5.30428 0
M  V30 1987 C 179.335 0.648079 6.08659 0
M  V30 1988 N 178.472 -0.111792 7.02011 0
M  V30 1989 H 183.312 1.18807 2.73293 0
M  V30 1990 H 180.849 0.597231 1.3443 0
M  V30 1991 H 182.807 -0.897923 4.07423 0
M  V30 1992 H 181.437 -1.23299 2.98324 0
M  V30 1993 H 180.489 1.09533 3.64289 0
M  V30 1994 H 181.801 1.22475 4.8353 0
M  V30 1995 H 180.955 -0.816098 6.01186 0
M  V30 1996 H 179.694 -1.03536 4.76583 0
M  V30 1997 H 178.699 1.18951 5.36778 0
M  V30 1998 H 179.924 1.39623 6.64592 0
M  V30 1999 H 177.87 -0.843395 6.50556 0
M  V30 2000 H 177.787 0.544429 7.54037 0
M  V30 2001 H 179.055 -0.622339 7.77012 0
M  V30 2002 N 183.284 -1.43765 0.645699 0
M  V30 2003 C 184.53 -2.02197 0.156271 0
M  V30 2004 C 184.863 -1.50776 -1.22393 0
M  V30 2005 O 184.138 -0.697771 -1.81553 0
M  V30 2006 C 184.421 -3.59749 0.158872 0
M  V30 2007 C 184.274 -4.21419 1.57245 0
M  V30 2008 C 185.593 -4.37149 -0.50879 0
M  V30 2009 H 182.712 -0.734694 0.0582602 0
M  V30 2010 H 185.354 -1.71157 0.824951 0
M  V30 2011 H 183.504 -3.86325 -0.410525 0
M  V30 2012 H 185.176 -4.059 2.19186 0
M  V30 2013 H 183.419 -3.78356 2.122 0
M  V30 2014 H 184.09 -5.30482 1.52619 0
M  V30 2015 H 186.566 -4.16093 -0.024412 0
M  V30 2016 H 185.442 -5.4683 -0.476213 0
M  V30 2017 H 185.703 -4.12839 -1.58165 0
M  V30 2018 N 184.763 -0.387143 -1.52771 0
M  V30 2019 C 185.693 0.440551 -2.29306 0
M  V30 2020 C 186.674 1.06535 -1.32606 0
M  V30 2021 O 187.859 1.07853 -1.61497 0
M  V30 2022 C 184.989 1.56919 -3.09829 0
M  V30 2023 C 183.943 1.07054 -4.14395 0
M  V30 2024 C 183.269 2.29109 -4.83129 0
M  V30 2025 C 184.569 0.140015 -5.22112 0
M  V30 2026 H 186.263 -0.198026 -2.98744 0
M  V30 2027 H 183.809 -0.09668 -1.43675 0
M  V30 2028 H 185.762 2.15503 -3.62128 0
M  V30 2029 H 184.486 2.23532 -2.3812 0
M  V30 2030 H 183.145 0.507247 -3.63074 0
M  V30 2031 H 182.793 2.94227 -4.0797 0
M  V30 2032 H 182.493 1.96406 -5.53804 0
M  V30 2033 H 184.017 2.88339 -5.38231 0
M  V30 2034 H 185.431 0.633978 -5.69784 0
M  V30 2035 H 183.828 -0.0971485 -6.00021 0
M  V30 2036 H 184.898 -0.811711 -4.78058 0
M  V30 2037 N 186.241 1.57166 -0.116904 0
M  V30 2038 C 187.151 2.18745 0.847812 0
M  V30 2039 C 188.167 1.163 1.29423 0
M  V30 2040 O 189.343 1.48761 1.35765 0
M  V30 2041 C 186.408 2.77307 2.0809 0
M  V30 2042 C 185.469 3.94781 1.68661 0
M  V30 2043 C 184.702 4.50541 2.86091 0
M  V30 2044 O 184.925 4.05202 4.01456 0
M  V30 2045 O 183.859 5.41256 2.63298 0
M  V30 2046 H 187.685 3.01632 0.353778 0
M  V30 2047 H 185.27 1.49005 0.108599 0
M  V30 2048 H 187.152 3.14647 2.80313 0
M  V30 2049 H 185.827 1.97452 2.56504 0
M  V30 2050 H 184.734 3.62214 0.935518 0
M  V30 2051 H 186.067 4.76065 1.24991 0
M  V30 2052 N 187.719 -0.156864 1.56817 0
M  V30 2053 C 188.682 -1.17781 1.96622 0
M  V30 2054 C 189.682 -1.36401 0.851555 0
M  V30 2055 O 190.872 -1.33561 1.11836 0
M  V30 2056 C 188.004 -2.54008 2.27361 0
M  V30 2057 H 189.197 -0.836564 2.87996 0
M  V30 2058 H 186.75 -0.39985 1.51099 0
M  V30 2059 H 187.485 -2.9312 1.38748 0
M  V30 2060 H 187.27 -2.41856 3.08623 0
M  V30 2061 H 188.76 -3.27558 2.59029 0
M  V30 2062 N 189.197 -1.51736 -0.425897 0
M  V30 2063 C 190.422 -1.69082 -1.20108 0
M  V30 2064 C 190.847 -0.392398 -1.83962 0
M  V30 2065 O 190.205 0.64858 -1.69302 0
M  V30 2066 C 190.253 -2.81604 -2.25237 0
M  V30 2067 O 189.357 -2.46004 -3.30992 0
M  V30 2068 H 188.698 -0.563408 -0.35138 0
M  V30 2069 H 191.228 -1.98358 -0.501512 0
M  V30 2070 H 191.238 -3.06025 -2.69838 0
M  V30 2071 H 189.913 -3.75817 -1.78142 0
M  V30 2072 H 188.49 -2.32195 -2.91787 0
M  V30 2073 N 190.675 0.682077 -1.42076 0
M  V30 2074 C 191.585 1.82535 -1.47371 0
M  V30 2075 C 192.601 1.7017 -0.363079 0
M  V30 2076 O 193.777 1.91848 -0.612875 0
M  V30 2077 C 190.842 3.18624 -1.36674 0
M  V30 2078 C 189.903 3.42999 -2.58167 0
M  V30 2079 C 189.136 4.72595 -2.4797 0
M  V30 2080 O 189.359 5.50006 -1.5116 0
M  V30 2081 O 188.293 4.98054 -3.37974 0
M  V30 2082 H 192.119 1.81023 -2.43853 0
M  V30 2083 H 189.704 0.836887 -1.2376 0
M  V30 2084 H 191.586 3.99847 -1.33043 0
M  V30 2085 H 190.261 3.20789 -0.433138 0
M  V30 2086 H 189.168 2.61653 -2.67373 0
M  V30 2087 H 190.501 3.45659 -3.50401 0
M  V30 2088 N 192.153 1.28127 0.917671 0
M  V30 2089 C 193.083 1.14248 2.03641 0
M  V30 2090 C 194.064 0.0412748 1.7005 0
M  V30 2091 O 195.249 0.217566 1.92977 0
M  V30 2092 C 192.379 0.799431 3.37974 0
M  V30 2093 C 191.333 1.85497 3.85713 0
M  V30 2094 C 190.659 1.36565 5.16966 0
M  V30 2095 C 191.959 3.26085 4.08002 0
M  V30 2096 H 193.653 2.07835 2.15511 0
M  V30 2097 H 191.199 1.00064 1.03553 0
M  V30 2098 H 193.152 0.689114 4.15727 0
M  V30 2099 H 191.876 -0.172145 3.26146 0
M  V30 2100 H 190.535 1.95437 3.10161 0
M  V30 2101 H 190.183 0.383253 5.01538 0
M  V30 2102 H 189.883 2.07143 5.49878 0
M  V30 2103 H 191.407 1.26848 5.97279 0
M  V30 2104 H 192.821 3.19089 4.76293 0
M  V30 2105 H 191.218 3.94462 4.52238 0
M  V30 2106 H 192.288 3.70394 3.12948 0
M  V30 2107 N 193.631 -1.12557 1.10312 0
M  V30 2108 C 194.561 -2.20341 0.772798 0
M  V30 2109 C 195.542 -1.68198 -0.25365 0
M  V30 2110 O 196.727 -1.93831 -0.119699 0
M  V30 2111 C 193.857 -3.46709 0.202443 0
M  V30 2112 C 192.811 -4.11996 1.15943 0
M  V30 2113 C 192.137 -5.328 0.450345 0
M  V30 2114 C 193.437 -4.5828 2.50552 0
M  V30 2115 H 195.131 -2.48229 1.674 0
M  V30 2116 H 192.677 -1.19308 0.806326 0
M  V30 2117 H 194.63 -4.2138 -0.0407752 0
M  V30 2118 H 193.354 -3.18245 -0.734001 0
M  V30 2119 H 192.013 -3.39305 1.38808 0
M  V30 2120 H 191.661 -5.00602 -0.490531 0
M  V30 2121 H 191.361 -5.7743 1.08851 0
M  V30 2122 H 192.885 -6.10219 0.215642 0
M  V30 2123 H 194.299 -5.2433 2.31843 0
M  V30 2124 H 192.696 -5.13683 3.10242 0
M  V30 2125 H 193.766 -3.72329 3.10643 0
M  V30 2126 N 195.109 -0.891671 -1.2995 0
M  V30 2127 C 196.072 -0.36828 -2.26222 0
M  V30 2128 C 197.072 0.493014 -1.53056 0
M  V30 2129 O 198.262 0.299213 -1.71611 0
M  V30 2130 C 195.394 0.47442 -3.37583 0
M  V30 2131 H 196.587 -1.21844 -2.74033 0
M  V30 2132 H 194.14 -0.669107 -1.41254 0
M  V30 2133 H 194.875 1.34489 -2.95099 0
M  V30 2134 H 194.66 -0.142615 -3.91841 0
M  V30 2135 H 196.15 0.83218 -4.09224 0
M  V30 2136 N 196.587 1.43421 -0.653314 0
M  V30 2137 C 197.833 2.02111 -0.166992 0
M  V30 2138 C 198.166 1.51423 1.21592 0
M  V30 2139 O 197.441 0.707389 1.8118 0
M  V30 2140 C 197.724 3.5966 -0.177948 0
M  V30 2141 C 197.577 4.20579 -1.59478 0
M  V30 2142 C 198.896 4.37413 0.4856 0
M  V30 2143 H 196.015 0.734374 -0.0621557 0
M  V30 2144 H 198.657 1.70717 -0.834016 0
M  V30 2145 H 196.807 3.86537 0.390032 0
M  V30 2146 H 198.479 4.04732 -2.21336 0
M  V30 2147 H 196.722 3.77226 -2.14204 0
M  V30 2148 H 197.393 5.29665 -1.5543 0
M  V30 2149 H 199.869 4.161 0.00234528 0
M  V30 2150 H 198.745 5.47075 0.447207 0
M  V30 2151 H 199.006 4.13672 1.55974 0
M  V30 2152 N 198.065 0.39524 1.52563 0
M  V30 2153 C 199.028 -0.425001 2.25225 0
M  V30 2154 C 200.028 -0.985266 1.27079 0
M  V30 2155 O 201.218 -0.866332 1.5113 0
M  V30 2156 C 198.35 -1.59686 3.01186 0
M  V30 2157 H 199.543 0.211233 2.99155 0
M  V30 2158 H 197.096 0.147472 1.55603 0
M  V30 2159 H 197.831 -2.27035 2.31572 0
M  V30 2160 H 197.616 -1.20176 3.73229 0
M  V30 2161 H 199.106 -2.17743 3.5634 0
M  V30 2162 N 199.544 -1.57102 0.125237 0
M  V30 2163 C 200.793 -1.94582 -0.531095 0
M  V30 2164 C 201.106 -1.01126 -1.6743 0
M  V30 2165 O 202.312 -1.28097 -2.39381 0
M  V30 2166 C 200.768 -3.45839 -0.996164 0
M  V30 2167 C 200.376 -4.47842 0.118926 0
M  V30 2168 C 202.12 -3.92227 -1.62352 0
M  V30 2169 C 200.027 -5.90284 -0.363192 0
M  V30 2170 H 198.957 -0.726391 -0.20217 0
M  V30 2171 H 201.608 -1.82339 0.206092 0
M  V30 2172 H 199.99 -3.53338 -1.78796 0
M  V30 2173 H 201.164 -4.52018 0.895358 0
M  V30 2174 H 199.479 -4.11243 0.653324 0
M  V30 2175 H 202.076 -4.96069 -1.99548 0
M  V30 2176 H 202.419 -3.32552 -2.50429 0
M  V30 2177 H 202.952 -3.87554 -0.897019 0
M  V30 2178 H 199.691 -6.53728 0.481679 0
M  V30 2179 H 199.211 -5.89515 -1.10597 0
M  V30 2180 H 200.89 -6.41752 -0.822377 0
M  V30 2181 N 201.022 0.148545 -1.56898 0
M  V30 2182 C 201.954 1.20852 -1.9475 0
M  V30 2183 C 202.967 1.39265 -0.843152 0
M  V30 2184 O 204.156 1.38864 -1.12156 0
M  V30 2185 C 201.256 2.57362 -2.20495 0
M  V30 2186 C 200.429 2.59947 -3.51776 0
M  V30 2187 C 199.488 3.77984 -3.6608 0
M  V30 2188 O 198.514 3.62929 -4.38487 0
M  V30 2189 N 199.716 4.95375 -3.02629 0
M  V30 2190 H 202.481 0.886804 -2.86279 0
M  V30 2191 H 200.042 0.338121 -1.5833 0
M  V30 2192 H 202.034 3.34833 -2.27307 0
M  V30 2193 H 200.604 2.81832 -1.35238 0
M  V30 2194 H 199.824 1.68403 -3.56419 0
M  V30 2195 H 201.112 2.58704 -4.38121 0
M  V30 2196 H 200.51 5.10509 -2.43715 0
M  V30 2197 H 199.067 5.70627 -3.15004 0
M  V30 2198 N 202.5 1.5196 0.417844 0
M  V30 2199 C 203.45 1.7106 1.5074 0
M  V30 2200 C 204.434 0.564487 1.50673 0
M  V30 2201 O 205.626 0.821206 1.56797 0
M  V30 2202 C 202.755 1.85677 2.88754 0
M  V30 2203 C 201.841 3.06133 2.93502 0
M  V30 2204 N 202.232 4.28987 2.67962 0
M  V30 2205 C 200.53 3.05787 3.24669 0
M  V30 2206 C 201.231 5.10395 2.79055 0
M  V30 2207 N 200.207 4.45455 3.11561 0
M  V30 2208 H 204.009 2.63696 1.29775 0
M  V30 2209 H 201.523 1.49873 0.625436 0
M  V30 2210 H 203.52 1.97475 3.67164 0
M  V30 2211 H 202.18 0.942348 3.10725 0
M  V30 2212 H 203.191 4.57607 2.4252 0
M  V30 2213 H 199.868 2.2405 3.52289 0
M  V30 2214 H 201.258 6.18247 2.63097 0
M  V30 2215 N 203.978 -0.674533 1.42435 0
M  V30 2216 C 204.888 -1.81751 1.48337 0
M  V30 2217 C 205.904 -1.69975 0.372099 0
M  V30 2218 O 207.08 -1.91521 0.62304 0
M  V30 2219 C 204.145 -3.17895 1.38361 0
M  V30 2220 C 203.206 -3.41625 2.59982 0
M  V30 2221 C 202.439 -4.71274 2.50473 0
M  V30 2222 O 202.662 -5.49197 1.54075 0
M  V30 2223 O 201.596 -4.96254 3.4061 0
M  V30 2224 H 205.422 -1.79728 2.44809 0
M  V30 2225 H 203.007 -0.830312 1.24202 0
M  V30 2226 H 204.889 -3.99136 1.35161 0
M  V30 2227 H 203.564 -3.20555 0.450144 0
M  V30 2228 H 202.471 -2.60231 2.68757 0
M  V30 2229 H 203.804 -3.43796 3.52229 0
M  V30 2230 N 205.456 -1.28612 -0.910864 0
M  V30 2231 C 206.705 -1.15311 -1.65488 0
M  V30 2232 C 207.018 0.296999 -1.93332 0
M  V30 2233 O 208.224 0.551168 -2.65847 0
M  V30 2234 C 206.68 -2.01599 -2.98137 0
M  V30 2235 C 206.288 -3.51367 -2.7793 0
M  V30 2236 C 208.032 -1.96993 -3.76024 0
M  V30 2237 C 205.939 -4.29797 -4.06237 0
M  V30 2238 H 204.869 -0.42796 -0.620779 0
M  V30 2239 H 207.52 -1.53166 -1.01057 0
M  V30 2240 H 205.902 -1.56603 -3.63719 0
M  V30 2241 H 207.076 -4.0434 -2.21011 0
M  V30 2242 H 205.391 -3.57529 -2.13452 0
M  V30 2243 H 207.988 -2.52856 -4.71135 0
M  V30 2244 H 208.331 -0.94733 -4.05378 0
M  V30 2245 H 208.864 -2.39973 -3.17266 0
M  V30 2246 H 205.603 -5.32648 -3.82055 0
M  V30 2247 H 205.123 -3.81596 -4.62757 0
M  V30 2248 H 206.802 -4.39869 -4.74473 0
M  V30 2249 N 206.934 1.1197 -1.10907 0
M  V30 2250 C 208.211 1.79959 -0.766432 0
M  V30 2251 C 208.591 1.97466 0.746363 0
M  V30 2252 O 207.939 1.55491 1.67436 0
M  V30 2253 C 208.149 3.14009 -1.52314 0
M  V30 2254 C 209.497 3.89134 -1.69883 0
M  V30 2255 O 210.521 3.2368 -1.48692 0
M  V30 2256 O 209.38 5.06572 -2.05054 0
M  V30 2257 H 206.474 0.779208 -0.277062 0
M  V30 2258 H 209.02 1.18762 -1.21217 0
M  V30 2259 H 207.792 2.96587 -2.55249 0
M  V30 2260 H 207.415 3.82915 -1.07059 0
M  V30 2261 N 208.412 0.89855 1.29475 0
M  V30 2262 C 209.362 0.346767 2.25348 0
M  V30 2263 C 210.346 -0.532509 1.51833 0
M  V30 2264 O 211.538 -0.374714 1.72988 0
M  V30 2265 C 208.667 -0.425681 3.40651 0
M  V30 2266 C 207.753 0.46845 4.21505 0
M  V30 2267 N 208.144 1.57514 4.80648 0
M  V30 2268 C 206.442 0.26603 4.45206 0
M  V30 2269 C 207.143 2.12889 5.41344 0
M  V30 2270 N 206.119 1.42208 5.24669 0
M  V30 2271 H 209.921 1.19219 2.68634 0
M  V30 2272 H 207.435 0.749473 1.44072 0
M  V30 2273 H 209.432 -0.837716 4.08397 0
M  V30 2274 H 208.092 -1.26838 2.98902 0
M  V30 2275 H 209.103 1.95789 4.79465 0
M  V30 2276 H 205.78 -0.538394 4.14014 0
M  V30 2277 H 207.17 3.05901 5.98226 0
M  V30 2278 N 209.89 -1.43072 0.660911 0
M  V30 2279 C 210.82 -2.33497 -0.0122829 0
M  V30 2280 C 211.801 -1.49903 -0.803925 0
M  V30 2281 O 212.986 -1.78546 -0.763864 0
M  V30 2282 C 210.116 -3.33363 -0.973994 0
M  V30 2283 C 209.07 -4.27003 -0.291928 0
M  V30 2284 C 208.396 -5.16967 -1.36562 0
M  V30 2285 C 209.696 -5.15816 0.820462 0
M  V30 2286 H 211.39 -2.90038 0.742873 0
M  V30 2287 H 208.936 -1.39461 0.358688 0
M  V30 2288 H 210.889 -3.95524 -1.45392 0
M  V30 2289 H 209.613 -2.75095 -1.7604 0
M  V30 2290 H 208.272 -3.66217 0.167623 0
M  V30 2291 H 207.92 -4.55034 -2.14366 0
M  V30 2292 H 207.62 -5.80441 -0.914454 0
M  V30 2293 H 209.144 -5.82003 -1.84675 0
M  V30 2294 H 210.558 -5.71742 0.422366 0
M  V30 2295 H 208.955 -5.8805 1.19656 0
M  V30 2296 H 210.025 -4.55045 1.67518 0
M  V30 2297 N 211.368 -0.403325 -1.52352 0
M  V30 2298 C 212.316 0.439752 -2.28405 0
M  V30 2299 C 213.31 1.05089 -1.32863 0
M  V30 2300 O 214.516 0.989759 -1.50345 0
M  V30 2301 H 210.891 0.160587 -0.734653 0
M  V30 2302 H 212.862 -0.222983 -2.97566 0
M  V30 2303 C 211.611 1.54736 -3.11371 0
M  V30 2304 H 210.934 1.08643 -3.84755 0
M  V30 2305 H 212.374 2.1112 -3.67701 0
M  V30 2306 C 210.833 2.51141 -2.24566 0
M  V30 2307 O 211.363 3.54887 -1.88196 0
M  V30 2308 N 209.569 2.21213 -1.8845 0
M  V30 2309 H 209.116 1.36878 -2.18225 0
M  V30 2310 H 209.074 2.85963 -1.30662 0
M  V30 2311 N 212.846 1.57033 -0.133567 0
M  V30 2312 C 214.094 1.953 0.519848 0
M  V30 2313 C 214.415 1.01866 1.66278 0
M  V30 2314 O 213.685 0.0776513 1.95746 0
M  V30 2315 H 212.265 0.721091 0.195032 0
M  V30 2316 H 214.927 1.93809 -0.205921 0
M  V30 2317 H 214.023 2.98695 0.904854 0
M  V30 2318 N 214.325 -0.140222 1.56975 0
M  V30 2319 C 215.571 -0.852949 1.83991 0
M  V30 2320 C 215.904 -1.80512 0.716187 0
M  V30 2321 O 215.179 -1.92479 -0.279681 0
M  V30 2322 C 215.462 -1.6215 3.21527 0
M  V30 2323 C 215.315 -0.690363 4.4447 0
M  V30 2324 C 216.634 -2.58247 3.56366 0
M  V30 2325 H 213.753 -0.308634 0.669264 0
M  V30 2326 H 216.395 -0.117898 1.89634 0
M  V30 2327 H 214.545 -2.24812 3.16847 0
M  V30 2328 H 216.217 -0.0742264 4.6124 0
M  V30 2329 H 214.46 -0.000396433 4.338 0
M  V30 2330 H 215.131 -1.2643 5.37326 0
M  V30 2331 H 217.607 -2.05701 3.61699 0
M  V30 2332 H 216.483 -3.09067 4.53617 0
M  V30 2333 H 216.744 -3.39923 2.82674 0
M  V30 2334 N 215.803 -1.52179 -0.40978 0
M  V30 2335 C 216.733 -1.78435 -1.5061 0
M  V30 2336 C 217.714 -0.635295 -1.57791 0
M  V30 2337 O 218.899 -0.880823 -1.73076 0
M  V30 2338 C 216.029 -1.93444 -2.88439 0
M  V30 2339 C 214.983 -3.09038 -2.96108 0
M  V30 2340 C 214.309 -3.09268 -4.36185 0
M  V30 2341 C 215.609 -4.48508 -2.67652 0
M  V30 2342 H 217.303 -2.70237 -1.28889 0
M  V30 2343 H 214.849 -1.30036 -0.618605 0
M  V30 2344 H 216.802 -2.10394 -3.65119 0
M  V30 2345 H 215.526 -0.983129 -3.11452 0
M  V30 2346 H 214.185 -2.91837 -2.21872 0
M  V30 2347 H 213.833 -2.11861 -4.56206 0
M  V30 2348 H 213.533 -3.86907 -4.42241 0
M  V30 2349 H 215.057 -3.28348 -5.14801 0
M  V30 2350 H 216.471 -4.65918 -3.34056 0
M  V30 2351 H 214.868 -5.28059 -2.85085 0
M  V30 2352 H 215.938 -4.56649 -1.63095 0
M  V30 2353 N 217.281 0.66697 -1.42791 0
M  V30 2354 C 218.528 1.42699 -1.43678 0
M  V30 2355 C 218.856 1.94419 -0.0560425 0
M  V30 2356 O 218.111 1.7182 0.936831 0
M  V30 2357 C 218.41 2.6349 -2.4147 0
M  V30 2358 C 218.076 2.30267 -3.8767 0
M  V30 2359 C 216.738 2.20918 -4.27491 0
M  V30 2360 C 219.09 2.03435 -4.79858 0
M  V30 2361 C 216.418 1.82873 -5.57471 0
M  V30 2362 C 218.77 1.66892 -6.10188 0
M  V30 2363 C 217.434 1.56058 -6.49001 0
M  V30 2364 H 216.704 0.522171 -0.525755 0
M  V30 2365 H 219.351 0.759785 -1.75783 0
M  V30 2366 H 217.656 3.35279 -2.0272 0
M  V30 2367 H 219.353 3.21684 -2.39417 0
M  V30 2368 H 215.943 2.38449 -3.56146 0
M  V30 2369 H 220.127 2.09586 -4.49875 0
M  V30 2370 H 215.383 1.7306 -5.86396 0
M  V30 2371 H 219.557 1.45157 -6.81104 0
M  V30 2372 H 217.184 1.26348 -7.49627 0
M  V30 2373 N 218.759 1.29093 0.90403 0
M  V30 2374 C 220.005 1.16986 1.65656 0
M  V30 2375 C 220.338 -0.278925 1.92186 0
M  V30 2376 O 219.613 -1.2019 1.5292 0
M  V30 2377 C 219.896 1.97908 3.0084 0
M  V30 2378 C 219.749 3.50903 2.81403 0
M  V30 2379 C 221.068 1.80208 4.01513 0
M  V30 2380 H 218.187 0.426346 0.601164 0
M  V30 2381 H 220.829 1.58518 1.04747 0
M  V30 2382 H 218.979 1.62616 3.52829 0
M  V30 2383 H 220.651 3.96153 2.36348 0
M  V30 2384 H 218.894 3.76045 2.1627 0
M  V30 2385 H 219.565 4.02791 3.77443 0
M  V30 2386 H 222.041 2.11025 3.58619 0
M  V30 2387 H 220.917 2.39184 4.94047 0
M  V30 2388 H 221.178 0.756119 4.35586 0
M  V30 2389 N 220.237 -1.11381 1.11499 0
M  V30 2390 C 221.514 -1.7955 0.775965 0
M  V30 2391 C 221.894 -1.97859 -0.73588 0
M  V30 2392 O 221.242 -1.56376 -1.66609 0
M  V30 2393 C 221.452 -3.13196 1.53977 0
M  V30 2394 C 222.8 -3.88227 1.71944 0
M  V30 2395 O 223.824 -3.22887 1.50407 0
M  V30 2396 O 222.683 -5.05477 2.07738 0
M  V30 2397 H 219.777 -0.777728 0.28119 0
M  V30 2398 H 222.323 -1.18118 1.21845 0
M  V30 2399 H 221.095 -2.95229 2.56818 0
M  V30 2400 H 220.718 -3.82342 1.09088 0
M  V30 2401 N 221.715 -0.905404 -1.28997 0
M  V30 2402 C 222.662 -0.385892 -2.27551 0
M  V30 2403 C 223.632 0.535113 -1.57244 0
M  V30 2404 O 224.817 0.459119 -1.85194 0
M  V30 2405 C 221.957 0.375461 -3.43051 0
M  V30 2406 C 221.07 -0.577092 -4.28128 0
M  V30 2407 C 220.205 0.201879 -5.30816 0
M  V30 2408 C 219.244 -0.744829 -6.07551 0
M  V30 2409 N 218.381 9.42587e-05 -7.021 0
M  V30 2410 H 223.221 -1.23139 -2.71368 0
M  V30 2411 H 220.758 -0.618542 -1.33463 0
M  V30 2412 H 222.716 0.832992 -4.088 0
M  V30 2413 H 221.346 1.18537 -3.00248 0
M  V30 2414 H 220.398 -1.15315 -3.62501 0
M  V30 2415 H 221.71 -1.30152 -4.8152 0
M  V30 2416 H 220.864 0.720351 -6.02408 0
M  V30 2417 H 219.603 0.959413 -4.7817 0
M  V30 2418 H 218.608 -1.27475 -5.34818 0
M  V30 2419 H 219.833 -1.50178 -6.62286 0
M  V30 2420 H 217.779 0.739791 -6.51815 0
M  V30 2421 H 217.696 -0.664321 -7.53076 0
M  V30 2422 H 218.964 0.498644 -7.77903 0
M  V30 2423 N 223.193 1.4272 -0.668489 0
M  V30 2424 C 224.123 2.335 -0.000100175 0
M  V30 2425 C 225.104 1.50328 0.795964 0
M  V30 2426 O 226.289 1.78949 0.754385 0
M  V30 2427 C 223.419 3.33874 0.956302 0
M  V30 2428 C 222.373 4.27152 0.269278 0
M  V30 2429 C 221.699 5.17684 1.33818 0
M  V30 2430 C 222.999 5.15373 -0.847805 0
M  V30 2431 H 224.693 2.89639 -0.758244 0
M  V30 2432 H 222.239 1.39269 -0.366079 0
M  V30 2433 H 224.192 3.9629 1.43292 0
M  V30 2434 H 222.916 2.76025 1.74579 0
M  V30 2435 H 221.575 3.66123 -0.187042 0
M  V30 2436 H 221.223 4.56165 2.1195 0
M  V30 2437 H 220.923 5.80918 0.883659 0
M  V30 2438 H 222.447 5.82974 1.81586 0
M  V30 2439 H 223.861 5.7151 -0.452681 0
M  V30 2440 H 222.258 5.87407 -1.22773 0
M  V30 2441 H 223.328 4.5415 -1.69929 0
M  V30 2442 N 224.671 0.411399 1.52136 0
M  V30 2443 C 225.896 -0.165538 2.06738 0
M  V30 2444 C 226.321 -1.379 1.27926 0
M  V30 2445 O 225.679 -1.78628 0.310114 0
M  V30 2446 C 225.727 -0.492124 3.57226 0
M  V30 2447 O 224.831 -1.58276 3.80818 0
M  V30 2448 H 224.172 -0.0132132 0.663869 0
M  V30 2449 H 226.702 0.585253 1.96051 0
M  V30 2450 H 226.712 -0.750104 4.01045 0
M  V30 2451 H 225.387 0.394922 4.14021 0
M  V30 2452 H 223.964 -1.31677 3.48877 0
M  V30 2453 N 226.149 -1.5696 0.141893 0
M  V30 2454 C 227.398 -1.95135 -0.510427 0
M  V30 2455 C 227.711 -1.02896 -1.66348 0
M  V30 2456 O 228.917 -1.30629 -2.38009 0
M  V30 2457 C 227.373 -3.46876 -0.959427 0
M  V30 2458 C 226.981 -4.47691 0.166419 0
M  V30 2459 C 228.725 -3.93927 -1.58183 0
M  V30 2460 C 226.632 -5.90636 -0.300565 0
M  V30 2461 H 225.562 -0.728494 -0.194454 0
M  V30 2462 H 228.213 -1.8211 0.22542 0
M  V30 2463 H 226.595 -3.55215 -1.75038 0
M  V30 2464 H 227.769 -4.51043 0.94325 0
M  V30 2465 H 226.084 -4.10527 0.696905 0
M  V30 2466 H 228.681 -4.98158 -1.94275 0
M  V30 2467 H 229.024 -3.3519 -2.46888 0
M  V30 2468 H 229.557 -3.88484 -0.855863 0
M  V30 2469 H 226.296 -6.5318 0.550989 0
M  V30 2470 H 225.816 -5.90655 -1.04338 0
M  V30 2471 H 227.495 -6.42588 -0.754265 0
M  V30 2472 N 227.627 0.131896 -1.57047 0
M  V30 2473 C 228.557 1.16384 -2.02428 0
M  V30 2474 C 229.538 1.43936 -0.90644 0
M  V30 2475 O 230.723 1.54599 -1.17528 0
M  V30 2476 C 227.853 2.49328 -2.4177 0
M  V30 2477 C 226.807 2.36266 -3.56879 0
M  V30 2478 C 226.133 3.74057 -3.8208 0
M  V30 2479 C 227.433 1.834 -4.89042 0
M  V30 2480 H 229.127 0.786433 -2.88887 0
M  V30 2481 H 226.673 0.376855 -1.38981 0
M  V30 2482 H 228.626 3.21759 -2.7212 0
M  V30 2483 H 227.35 2.88934 -1.52266 0
M  V30 2484 H 226.009 1.66286 -3.26718 0
M  V30 2485 H 225.657 4.11125 -2.89803 0
M  V30 2486 H 225.357 3.66174 -4.59554 0
M  V30 2487 H 226.881 4.48012 -4.1487 0
M  V30 2488 H 228.295 2.45636 -5.18011 0
M  V30 2489 H 226.692 1.8637 -5.70426 0
M  V30 2490 H 227.762 0.790662 -4.7841 0
M  V30 2491 N 229.106 1.52395 0.401703 0
M  V30 2492 C 230.053 1.76268 1.48991 0
M  V30 2493 C 231.023 0.605386 1.54675 0
M  V30 2494 O 232.208 0.843742 1.7113 0
M  V30 2495 C 229.348 1.92592 2.86361 0
M  V30 2496 C 228.461 3.20259 2.89928 0
M  V30 2497 C 227.596 3.26972 4.18644 0
M  V30 2498 C 226.635 4.48812 4.16214 0
M  V30 2499 N 225.772 4.52877 5.36514 0
M  V30 2500 H 230.612 2.6914 1.27935 0
M  V30 2501 H 228.149 1.33355 0.620871 0
M  V30 2502 H 230.107 2.0004 3.66115 0
M  V30 2503 H 228.737 1.03093 3.05895 0
M  V30 2504 H 227.789 3.21945 2.02621 0
M  V30 2505 H 229.101 4.10056 2.83999 0
M  V30 2506 H 228.255 3.33533 5.06794 0
M  V30 2507 H 226.994 2.35126 4.27278 0
M  V30 2508 H 225.999 4.4239 3.26453 0
M  V30 2509 H 227.224 5.41961 4.09213 0
M  V30 2510 H 225.17 3.63917 5.45802 0
M  V30 2511 H 225.087 5.36529 5.32609 0
M  V30 2512 H 226.355 4.63676 6.26597 0
M  V30 2513 N 230.584 -0.659388 1.43143 0
M  V30 2514 C 232 -0.974337 1.26407 0
M  V30 2515 C 232.2 -2.007 0.179341 0
M  V30 2516 O 231.256 -2.4856 -0.444295 0
M  V30 2517 C 232.569 -1.46447 2.62628 0
M  V30 2518 C 234.117 -1.58144 2.7011 0
M  V30 2519 C 234.592 -2.1055 4.06734 0
M  V30 2520 N 236.083 -2.17861 4.08767 0
M  V30 2521 C 236.818 -2.59519 5.1131 0
M  V30 2522 N 236.314 -3.00518 6.24228 0
M  V30 2523 N 238.107 -2.59404 4.98664 0
M  V30 2524 H 230.258 0.0240528 2.12386 0
M  V30 2525 H 232.521 -0.0518065 0.946583 0
M  V30 2526 H 232.227 -0.780123 3.42939 0
M  V30 2527 H 232.101 -2.44058 2.87603 0
M  V30 2528 H 234.488 -2.25682 1.90136 0
M  V30 2529 H 234.569 -0.589828 2.48907 0
M  V30 2530 H 234.213 -1.43616 4.87172 0
M  V30 2531 H 234.143 -3.10531 4.25298 0
M  V30 2532 H 236.634 -1.88975 3.27257 0
M  V30 2533 H 236.947 -3.31036 6.98309 0
M  V30 2534 H 235.292 -2.98337 6.2771 0
M  V30 2535 H 238.483 -2.26747 4.09516 0
M  V30 2536 H 238.656 -2.91548 5.78709 0
M  V30 2537 N 232.062 -1.29571 -0.897171 0
M  V30 2538 C 233.009 -1.14916 -2.00158 0
M  V30 2539 C 233.979 -0.0418149 -1.66047 0
M  V30 2540 O 235.164 -0.209793 -1.89643 0
M  V30 2541 C 232.304 -0.834307 -3.34863 0
M  V30 2542 C 231.417 -2.02234 -3.8174 0
M  V30 2543 C 230.552 -1.64664 -5.05034 0
M  V30 2544 C 229.591 -2.80033 -5.44286 0
M  V30 2545 N 228.728 -2.42843 -6.58765 0
M  V30 2546 H 233.568 -2.09403 -2.12025 0
M  V30 2547 H 231.105 -1.042 -1.0383 0
M  V30 2548 H 233.063 -0.632436 -4.12379 0
M  V30 2549 H 231.693 0.0736656 -3.22716 0
M  V30 2550 H 230.745 -2.33583 -3.00238 0
M  V30 2551 H 232.057 -2.88673 -4.06779 0
M  V30 2552 H 231.211 -1.4078 -5.9014 0
M  V30 2553 H 229.95 -0.753766 -4.8184 0
M  V30 2554 H 228.955 -3.04596 -4.57713 0
M  V30 2555 H 230.18 -3.69989 -5.6946 0
M  V30 2556 H 228.126 -1.56046 -6.3717 0
M  V30 2557 H 228.043 -3.22815 -6.83613 0
M  V30 2558 H 229.311 -2.22285 -7.47134 0
M  V30 2559 N 233.54 1.10788 -1.12088 0
M  V30 2560 C 234.487 2.17025 -0.785407 0
M  V30 2561 C 235.457 1.64265 0.246191 0
M  V30 2562 O 236.642 1.90412 0.121584 0
M  V30 2563 C 233.782 3.44249 -0.242177 0
M  V30 2564 C 232.895 4.1098 -1.33115 0
M  V30 2565 C 232.03 5.25911 -0.747741 0
M  V30 2566 C 231.069 5.84538 -1.81609 0
M  V30 2567 N 230.206 6.90853 -1.25167 0
M  V30 2568 H 235.046 2.45066 -1.69548 0
M  V30 2569 H 232.583 1.20297 -0.846582 0
M  V30 2570 H 234.541 4.17101 0.0908026 0
M  V30 2571 H 233.171 3.16571 0.631072 0
M  V30 2572 H 232.223 3.36133 -1.78097 0
M  V30 2573 H 233.535 4.50601 -2.13917 0
M  V30 2574 H 232.689 6.056 -0.365216 0
M  V30 2575 H 231.428 4.87614 0.0915188 0
M  V30 2576 H 230.433 5.03522 -2.20785 0
M  V30 2577 H 231.658 6.249 -2.6585 0
M  V30 2578 H 229.604 6.54562 -0.434174 0
M  V30 2579 H 229.521 7.29166 -1.99633 0
M  V30 2580 H 230.789 7.7433 -0.896259 0
M  V30 2581 N 235.018 0.912232 1.28515 0
M  V30 2582 C 236.265 0.544599 1.95039 0
M  V30 2583 C 236.593 -0.911435 1.71823 0
M  V30 2584 O 235.848 -1.66317 1.03137 0
M  V30 2585 C 236.147 0.798392 3.48368 0
M  V30 2586 C 235.813 2.23374 3.91682 0
M  V30 2587 C 234.475 2.62617 4.03219 0
M  V30 2588 C 236.827 3.16786 4.13879 0
M  V30 2589 C 234.155 3.94429 4.3433 0
M  V30 2590 C 236.507 4.48161 4.46469 0
M  V30 2591 C 235.171 4.8726 4.56217 0
M  V30 2592 H 234.441 0.199283 0.7137 0
M  V30 2593 H 237.088 1.15327 1.52879 0
M  V30 2594 H 235.393 0.106908 3.91654 0
M  V30 2595 H 237.09 0.493141 3.97956 0
M  V30 2596 H 233.68 1.91922 3.83228 0
M  V30 2597 H 237.864 2.87677 4.0442 0
M  V30 2598 H 233.12 4.24426 4.40082 0
M  V30 2599 H 237.294 5.20559 4.62592 0
M  V30 2600 H 234.921 5.89431 4.80078 0
M  V30 2601 N 236.496 -1.42363 0.676048 0
M  V30 2602 C 237.406 -2.346 -0.00153389 0
M  V30 2603 C 238.422 -1.5516 -0.787485 0
M  V30 2604 O 239.598 -1.87723 -0.729521 0
M  V30 2605 C 236.663 -3.33705 -0.940298 0
M  V30 2606 C 235.724 -4.29042 -0.148739 0
M  V30 2607 C 234.957 -5.23413 -1.04279 0
M  V30 2608 O 235.18 -5.22749 -2.28232 0
M  V30 2609 O 234.114 -5.99795 -0.502925 0
M  V30 2610 H 237.94 -2.94082 0.758268 0
M  V30 2611 H 235.525 -1.42888 0.436289 0
M  V30 2612 H 237.407 -3.94586 -1.47917 0
M  V30 2613 H 236.082 -2.76695 -1.67993 0
M  V30 2614 H 234.989 -3.71571 0.43427 0
M  V30 2615 H 236.322 -4.89097 0.551805 0
M  V30 2616 N 237.974 -0.419461 -1.51915 0
M  V30 2617 C 238.921 0.400927 -2.27291 0
M  V30 2618 C 239.891 1.03224 -1.30131 0
M  V30 2619 O 241.076 1.05455 -1.59009 0
M  V30 2620 C 238.216 1.50603 -3.10504 0
M  V30 2621 C 237.329 0.89462 -4.22635 0
M  V30 2622 C 236.464 1.97328 -4.93189 0
M  V30 2623 C 235.503 1.33935 -5.97267 0
M  V30 2624 N 234.64 2.3586 -6.61298 0
M  V30 2625 H 239.48 -0.248251 -2.96964 0
M  V30 2626 H 237.017 -0.134266 -1.46486 0
M  V30 2627 H 238.975 2.15783 -3.57062 0
M  V30 2628 H 237.605 2.12509 -2.42981 0
M  V30 2629 H 236.657 0.131583 -3.80172 0
M  V30 2630 H 237.969 0.391641 -4.9726 0
M  V30 2631 H 237.123 2.70211 -5.43204 0
M  V30 2632 H 235.862 2.50994 -4.18155 0
M  V30 2633 H 234.867 0.595896 -5.46561 0
M  V30 2634 H 236.092 0.810252 -6.74249 0
M  V30 2635 H 234.038 2.88639 -5.89087 0
M  V30 2636 H 233.955 1.90403 -7.3163 0
M  V30 2637 H 235.223 3.08282 -7.15949 0
M  V30 2638 N 239.452 1.56882 -0.150215 0
M  V30 2639 C 240.362 2.20494 0.801222 0
M  V30 2640 C 241.378 1.19019 1.26927 0
M  V30 2641 O 242.554 1.51607 1.32579 0
M  V30 2642 C 239.619 2.81659 2.02161 0
M  V30 2643 C 238.68 3.9827 1.60249 0
M  V30 2644 C 237.913 4.56508 2.7647 0
M  V30 2645 O 238.136 4.13627 3.92771 0
M  V30 2646 O 237.07 5.46719 2.51757 0
M  V30 2647 H 240.896 3.02315 0.289717 0
M  V30 2648 H 238.481 1.49202 0.0769684 0
M  V30 2649 H 240.363 3.20522 2.73576 0
M  V30 2650 H 239.038 2.02849 2.52258 0
M  V30 2651 H 237.945 3.64117 0.858477 0
M  V30 2652 H 239.278 4.78609 1.14864 0
M  V30 2653 N 240.93 -0.123565 1.57115 0
M  V30 2654 C 241.86 -1.15309 2.03042 0
M  V30 2655 C 242.841 -1.43454 0.914061 0
M  V30 2656 O 244.026 -1.53973 1.18347 0
M  V30 2657 C 241.156 -2.48043 2.43089 0
M  V30 2658 C 240.11 -2.3437 3.58127 0
M  V30 2659 C 239.436 -3.72026 3.84059 0
M  V30 2660 C 240.736 -1.80804 4.90007 0
M  V30 2661 H 242.43 -0.771102 2.893 0
M  V30 2662 H 239.976 -0.369479 1.39179 0
M  V30 2663 H 241.929 -3.20311 2.73823 0
M  V30 2664 H 240.653 -2.88122 1.53796 0
M  V30 2665 H 239.312 -1.64551 3.27595 0
M  V30 2666 H 238.96 -4.09582 2.91979 0
M  V30 2667 H 238.66 -3.63732 4.6149 0
M  V30 2668 H 240.184 -4.45806 4.1724 0
M  V30 2669 H 241.598 -2.42886 5.19307 0
M  V30 2670 H 239.995 -1.83343 5.71407 0
M  V30 2671 H 241.065 -0.76528 4.78823 0
M  V30 2672 N 242.408 -1.52605 -0.393616 0
M  V30 2673 C 243.355 -1.77055 -1.48054 0
M  V30 2674 C 244.325 -0.61358 -1.54352 0
M  V30 2675 O 245.51 -0.852806 -1.70681 0
M  V30 2676 C 242.65 -1.94108 -2.85335 0
M  V30 2677 C 241.763 -3.21792 -2.88226 0
M  V30 2678 C 240.898 -3.29188 -4.16904 0
M  V30 2679 C 239.937 -4.51013 -4.13828 0
M  V30 2680 N 239.074 -4.55716 -5.34105 0
M  V30 2681 H 243.914 -2.69815 -1.26506 0
M  V30 2682 H 241.451 -1.33683 -0.61379 0
M  V30 2683 H 243.409 -2.01979 -3.65049 0
M  V30 2684 H 242.039 -1.04713 -3.05344 0
M  V30 2685 H 241.091 -3.23015 -2.00911 0
M  V30 2686 H 242.403 -4.11557 -2.8182 0
M  V30 2687 H 241.557 -3.36216 -5.05018 0
M  V30 2688 H 240.296 -2.37389 -4.26026 0
M  V30 2689 H 239.301 -4.44115 -3.24102 0
M  V30 2690 H 240.526 -5.44123 -4.06333 0
M  V30 2691 H 238.472 -3.66807 -5.43865 0
M  V30 2692 H 238.389 -5.39346 -5.29756 0
M  V30 2693 H 239.657 -4.66993 -6.2413 0
M  V30 2694 N 243.887 0.651787 -1.4349 0
M  V30 2695 C 244.797 1.79368 -1.5121 0
M  V30 2696 C 245.813 1.69361 -0.399093 0
M  V30 2697 O 246.989 1.90505 -0.653431 0
M  V30 2698 C 244.054 3.15653 -1.43401 0
M  V30 2699 C 243.115 3.37446 -2.65384 0
M  V30 2700 C 242.348 4.67229 -2.57939 0
M  V30 2701 O 242.571 5.46676 -1.62792 0
M  V30 2702 O 241.505 4.90773 -3.48462 0
M  V30 2703 H 245.331 1.7581 -2.47638 0
M  V30 2704 H 242.916 0.810447 -1.25507 0
M  V30 2705 H 244.798 3.96935 -1.41494 0
M  V30 2706 H 243.473 3.19798 -0.501085 0
M  V30 2707 H 242.38 2.55923 -2.72863 0
M  V30 2708 H 243.713 3.38148 -3.57654 0
M  V30 2709 N 245.365 1.30045 0.890287 0
M  V30 2710 C 246.295 1.18541 2.01172 0
M  V30 2711 C 247.276 0.0773356 1.69924 0
M  V30 2712 O 248.461 0.25845 1.92473 0
M  V30 2713 C 245.591 0.870941 3.36202 0
M  V30 2714 C 244.545 1.93637 3.81692 0
M  V30 2715 C 243.871 1.475 5.13953 0
M  V30 2716 C 245.171 3.34666 4.00994 0
M  V30 2717 H 246.865 2.12359 2.11054 0
M  V30 2718 H 244.411 1.02238 1.01407 0
M  V30 2719 H 246.364 0.777141 4.14172 0
M  V30 2720 H 245.088 -0.102926 3.26438 0
M  V30 2721 H 243.747 2.01972 3.05946 0
M  V30 2722 H 243.395 0.489551 5.00612 0
M  V30 2723 H 243.095 2.1876 5.4536 0
M  V30 2724 H 244.619 1.39489 5.94454 0
M  V30 2725 H 246.033 3.2912 4.69417 0
M  V30 2726 H 244.43 4.03966 4.43769 0
M  V30 2727 H 245.5 3.76949 3.05021 0
M  V30 2728 N 246.843 -1.10192 1.12674 0
M  V30 2729 C 247.775 -2.16418 0.754701 0
M  V30 2730 C 248.788 -1.61309 -0.21986 0
M  V30 2731 O 249.977 -1.785 -0.000826841 0
M  V30 2732 C 247.077 -3.38762 0.096698 0
M  V30 2733 C 246.25 -4.23307 1.10136 0
M  V30 2734 C 245.309 -5.24092 0.470513 0
M  V30 2735 O 244.335 -5.57906 1.12824 0
M  V30 2736 N 245.537 -5.75491 -0.760948 0
M  V30 2737 H 248.302 -2.48943 1.66875 0
M  V30 2738 H 245.863 -1.25834 1.01869 0
M  V30 2739 H 247.855 -4.03291 -0.337384 0
M  V30 2740 H 246.425 -3.04192 -0.720153 0
M  V30 2741 H 245.645 -3.55036 1.71299 0
M  V30 2742 H 246.933 -4.76624 1.78064 0
M  V30 2743 H 246.331 -5.50222 -1.31424 0
M  V30 2744 H 244.888 -6.41792 -1.13781 0
M  V30 2745 N 248.321 -0.919034 -1.28029 0
M  V30 2746 C 249.268 -0.410005 -2.27129 0
M  V30 2747 C 250.238 0.518405 -1.57803 0
M  V30 2748 O 251.423 0.439451 -1.8567 0
M  V30 2749 C 248.563 0.339054 -3.4343 0
M  V30 2750 C 247.676 -0.622468 -4.27492 0
M  V30 2751 C 246.811 0.145567 -5.31001 0
M  V30 2752 C 245.85 -0.809226 -6.06727 0
M  V30 2753 N 244.987 -0.0743728 -7.02061 0
M  V30 2754 H 249.827 -1.26011 -2.70047 0
M  V30 2755 H 247.364 -0.632663 -1.328 0
M  V30 2756 H 249.322 0.789586 -4.0966 0
M  V30 2757 H 247.952 1.15346 -3.01488 0
M  V30 2758 H 247.004 -1.19153 -3.61257 0
M  V30 2759 H 248.316 -1.35252 -4.80113 0
M  V30 2760 H 247.47 0.656417 -6.03139 0
M  V30 2761 H 246.209 0.908643 -4.79161 0
M  V30 2762 H 245.214 -1.3314 -5.33436 0
M  V30 2763 H 246.439 -1.57194 -6.60656 0
M  V30 2764 H 244.385 0.670616 -6.52563 0
M  V30 2765 H 244.302 -0.744157 -7.52329 0
M  V30 2766 H 245.57 0.416109 -7.78389 0
M  V30 2767 N 249.799 1.42003 -0.683588 0
M  V30 2768 C 250.746 2.30798 -0.0107309 0
M  V30 2769 C 251.716 1.4645 0.783688 0
M  V30 2770 O 252.901 1.75263 0.754156 0
M  V30 2771 C 250.041 3.3238 0.928306 0
M  V30 2772 C 249.154 4.31814 0.126776 0
M  V30 2773 C 248.289 5.20468 1.06236 0
M  V30 2774 C 247.328 6.11577 0.253035 0
M  V30 2775 N 246.465 6.92754 1.14179 0
M  V30 2776 H 251.305 2.8778 -0.773727 0
M  V30 2777 H 248.842 1.41745 -0.393283 0
M  V30 2778 H 250.8 3.89813 1.48666 0
M  V30 2779 H 249.43 2.76976 1.65783 0
M  V30 2780 H 248.482 3.76427 -0.54833 0
M  V30 2781 H 249.794 4.96276 -0.501192 0
M  V30 2782 H 248.948 5.82677 1.69035 0
M  V30 2783 H 247.687 4.56204 1.7242 0
M  V30 2784 H 246.692 5.48428 -0.388108 0
M  V30 2785 H 247.917 6.77892 -0.404839 0
M  V30 2786 H 245.863 6.3111 1.78987 0
M  V30 2787 H 245.78 7.53855 0.569111 0
M  V30 2788 H 247.048 7.59441 1.75697 0
M  V30 2789 N 251.277 0.427512 1.51691 0
M  V30 2790 C 252.209 -0.424521 2.25234 0
M  V30 2791 C 253.222 -0.994671 1.2888 0
M  V30 2792 O 254.411 -0.890483 1.54702 0
M  V30 2793 C 251.511 -1.60479 2.98496 0
M  V30 2794 C 250.684 -1.15527 4.21868 0
M  V30 2795 C 249.743 -2.20454 4.77793 0
M  V30 2796 O 248.769 -1.8029 5.39893 0
M  V30 2797 N 249.971 -3.52831 4.60967 0
M  V30 2798 H 252.736 0.205749 2.98993 0
M  V30 2799 H 250.297 0.255867 1.59865 0
M  V30 2800 H 252.289 -2.30276 3.32799 0
M  V30 2801 H 250.859 -2.14061 2.27809 0
M  V30 2802 H 250.079 -0.284736 3.9317 0
M  V30 2803 H 251.367 -0.832173 5.01949 0
M  V30 2804 H 250.765 -3.88201 4.11481 0
M  V30 2805 H 249.322 -4.18551 4.99658 0
M  V30 2806 N 252.755 -1.56801 0.158532 0
M  V30 2807 C 253.702 -2.17337 -0.776729 0
M  V30 2808 C 254.672 -1.1096 -1.23601 0
M  V30 2809 O 255.857 -1.39054 -1.30647 0
M  V30 2810 C 252.997 -2.80822 -2.00582 0
M  V30 2811 C 252.11 -4.01624 -1.59129 0
M  V30 2812 C 251.245 -4.53072 -2.77306 0
M  V30 2813 C 250.284 -5.66314 -2.32282 0
M  V30 2814 N 249.421 -6.12329 -3.43508 0
M  V30 2815 H 254.261 -2.96918 -0.253701 0
M  V30 2816 H 251.798 -1.46661 -0.113504 0
M  V30 2817 H 253.756 -3.15779 -2.72652 0
M  V30 2818 H 252.386 -2.03866 -2.50277 0
M  V30 2819 H 251.438 -3.72571 -0.767806 0
M  V30 2820 H 252.75 -4.83633 -1.2207 0
M  V30 2821 H 251.904 -4.90145 -3.57551 0
M  V30 2822 H 250.643 -3.70095 -3.17617 0
M  V30 2823 H 249.648 -5.28806 -1.5048 0
M  V30 2824 H 250.873 -6.51085 -1.93043 0
M  V30 2825 H 248.819 -5.32284 -3.83418 0
M  V30 2826 H 248.736 -6.89293 -3.105 0
M  V30 2827 H 250.004 -6.5405 -4.24075 0
M  V30 2828 N 254.233 0.115231 -1.57178 0
M  V30 2829 C 255.183 1.14707 -1.97044 0
M  V30 2830 C 256.167 1.36866 -0.845957 0
M  V30 2831 O 257.359 1.37895 -1.10968 0
M  V30 2832 C 254.488 2.47266 -2.38148 0
M  V30 2833 C 253.574 2.28566 -3.57237 0
M  V30 2834 N 253.965 1.79685 -4.72807 0
M  V30 2835 C 252.263 2.59208 -3.62943 0
M  V30 2836 C 252.964 1.74781 -5.54821 0
M  V30 2837 N 251.94 2.19264 -4.97417 0
M  V30 2838 H 255.742 0.761754 -2.83857 0
M  V30 2839 H 253.256 0.322928 -1.59157 0
M  V30 2840 H 255.253 3.219 -2.64927 0
M  V30 2841 H 253.913 2.86552 -1.52702 0
M  V30 2842 H 254.924 1.49177 -4.9595 0
M  V30 2843 H 251.601 3.02154 -2.88113 0
M  V30 2844 H 252.991 1.38212 -6.57531 0
M  V30 2845 N 255.711 1.52812 0.385517 0
M  V30 2846 C 256.658 1.77838 1.47113 0
M  V30 2847 C 257.628 0.621757 1.54024 0
M  V30 2848 O 258.813 0.861846 1.70226 0
M  V30 2849 C 255.953 1.95618 2.84302 0
M  V30 2850 C 255.066 3.23316 2.86515 0
M  V30 2851 C 254.201 3.31394 4.15152 0
M  V30 2852 C 253.24 4.53201 4.1143 0
M  V30 2853 N 252.377 4.58542 5.3168 0
M  V30 2854 H 257.217 2.70482 1.25073 0
M  V30 2855 H 254.754 1.34006 0.606692 0
M  V30 2856 H 256.712 2.03912 3.63972 0
M  V30 2857 H 255.342 1.06331 3.04784 0
M  V30 2858 H 254.394 3.24076 1.99195 0
M  V30 2859 H 255.706 4.13045 2.79634 0
M  V30 2860 H 254.86 3.3889 5.03228 0
M  V30 2861 H 253.599 2.39645 4.24761 0
M  V30 2862 H 252.604 4.45827 3.21742 0
M  V30 2863 H 253.829 5.46271 4.03442 0
M  V30 2864 H 251.775 3.69686 5.41912 0
M  V30 2865 H 251.692 5.42148 5.26889 0
M  V30 2866 H 252.96 4.70296 6.21644 0
M  V30 2867 O 257.228 -0.531464 1.52505 0
M  V30 2868 H 257.919 -1.18658 1.53101 0
M  V30 END ATOM
M  V30 BEGIN BOND
M  V30 END BOND
M  V30 END CTAB
M  END
$$$$
