drugbank_target|P08648 Integrin alpha-5 (DB02709)
 OpenBabel12092121063D

  0  0  0     0  0            999 V3000
M  V30 BEGIN CTAB
M  V30 COUNTS 15990 16199 0 0 0
M  V30 BEGIN ATOM
M  V30 1 H -0.908 1.98254 -0.117106 0
M  V30 2 N 0 1.576 0 0
M  V30 3 C 0.933 2.03868 1.02534 0
M  V30 4 C 1.911 0.928543 1.3348 0
M  V30 5 O 3.095 1.19667 1.45644 0
M  V30 6 C 0.222 2.43627 2.35294 0
M  V30 7 C -0.732 3.65373 2.2001 0
M  V30 8 S 0.101 5.13292 1.52614 0
M  V30 9 C 1.257 5.56322 2.86805 0
M  V30 10 H 1.49 2.90518 0.631377 0
M  V30 11 H -0.977 1.52953 0.210867 0
M  V30 12 H 0.981 2.67203 3.11629 0
M  V30 13 H -0.358 1.57376 2.7183 0
M  V30 14 H -1.165 3.90944 3.18086 0
M  V30 15 H -1.563 3.418 1.51819 0
M  V30 16 H 0.729 5.58782 3.83104 0
M  V30 17 H 1.672 6.56266 2.65933 0
M  V30 18 H 2.08 4.83886 2.90714 0
M  V30 19 N 1.4781 -0.272755 1.55222 0
M  V30 20 C 2.7261 -1.00234 1.75492 0
M  V30 21 C 3.0471 -1.8681 0.5592 0
M  V30 22 O 2.3171 -1.91215 -0.425882 0
M  V30 23 H 0.8971 -0.373076 0.647166 0
M  V30 24 H 3.5591 -0.296926 1.92625 0
M  V30 25 H 2.6551 -1.63913 2.65592 0
M  V30 26 N 2.9562 -1.48159 -0.537278 0
M  V30 27 C 4.1812 -1.59707 -1.32319 0
M  V30 28 C 4.6062 -0.254859 -1.86365 0
M  V30 29 O 3.9642 0.772378 -1.64024 0
M  V30 30 C 4.0122 -2.6412 -2.45505 0
M  V30 31 O 3.1162 -2.20774 -3.48328 0
M  V30 32 H 2.4572 -0.535791 -0.392204 0
M  V30 33 H 4.9872 -1.94092 -0.647268 0
M  V30 34 H 4.9972 -2.85166 -2.91795 0
M  V30 35 H 3.6722 -3.61567 -2.05528 0
M  V30 36 H 2.2492 -2.09911 -3.08207 0
M  V30 37 N 4.4343 0.785586 -1.36625 0
M  V30 38 C 5.8503 1.08419 -1.17122 0
M  V30 39 C 6.0503 2.015 0.00208491 0
M  V30 40 O 5.1063 2.43551 0.666278 0
M  V30 41 C 6.4193 1.69498 -2.48377 0
M  V30 42 C 7.9673 1.81821 -2.54775 0
M  V30 43 C 8.4423 2.46315 -3.86126 0
M  V30 44 N 9.9333 2.53779 -3.87492 0
M  V30 45 C 10.6683 3.045 -4.85868 0
M  V30 46 N 10.1643 3.55499 -5.94637 0
M  V30 47 N 11.9573 3.03247 -4.73284 0
M  V30 48 H 4.1083 0.167264 -2.1174 0
M  V30 49 H 6.3713 0.13682 -0.938075 0
M  V30 50 H 6.0773 1.08571 -3.34522 0
M  V30 51 H 5.9513 2.6896 -2.64462 0
M  V30 52 H 8.3383 2.41884 -1.69045 0
M  V30 53 H 8.4193 0.811532 -2.42586 0
M  V30 54 H 8.0633 1.86895 -4.72263 0
M  V30 55 H 7.9933 3.47561 -3.95612 0
M  V30 56 H 10.4843 2.17672 -3.08913 0
M  V30 57 H 10.7973 3.92562 -6.65669 0
M  V30 58 H 9.1423 3.5364 -5.98301 0
M  V30 59 H 12.3333 2.62696 -3.87438 0
M  V30 60 H 12.5063 3.42467 -5.50109 0
M  V30 61 N 5.9124 1.20967 1.01018 0
M  V30 62 C 7.1404 1.04956 1.78303 0
M  V30 63 C 7.5554 -0.400915 1.84494 0
M  V30 64 O 6.9124 -1.27826 1.30257 0
M  V30 65 C 6.9634 1.63403 3.22462 0
M  V30 66 O 6.6844 3.02775 3.16637 0
M  V30 67 C 8.1854 1.52432 4.16268 0
M  V30 68 H 5.4054 0.368858 0.560522 0
M  V30 69 H 7.9494 1.60193 1.27116 0
M  V30 70 H 6.1044 1.1227 3.70775 0
M  V30 71 H 6.5184 3.30626 4.07169 0
M  V30 72 H 7.9924 1.98078 5.15237 0
M  V30 73 H 8.4694 0.477875 4.36592 0
M  V30 74 H 9.0754 2.02787 3.73841 0
M  V30 75 N 7.3905 -1.2043 1.01659 0
M  V30 76 C 8.8015 -1.71517 0.737482 0
M  V30 77 C 9.1525 -1.81547 -0.743973 0
M  V30 78 O 8.2775 -1.47803 -1.58061 0
M  V30 79 C 8.8725 -3.11515 1.33206 0
M  V30 80 C 7.4315 -3.59912 1.10183 0
M  V30 81 C 6.5785 -2.37116 1.43776 0
M  V30 82 H 9.5295 -1.05444 1.18606 0
M  V30 83 H 9.5505 -3.73575 0.722636 0
M  V30 84 H 9.0625 -3.04182 2.41028 0
M  V30 85 H 7.1635 -3.72577 0.0412756 0
M  V30 86 H 7.2765 -4.44731 1.78188 0
M  V30 87 H 5.6405 -2.39857 0.856778 0
M  V30 88 H 6.4235 -2.32424 2.52654 0
M  V30 89 N 8.8686 -0.792821 -1.36206 0
M  V30 90 C 9.7786 -0.194808 -2.3379 0
M  V30 91 C 10.7946 0.654869 -1.61206 0
M  V30 92 O 11.9706 0.569856 -1.9317 0
M  V30 93 C 9.0356 0.657721 -3.40404 0
M  V30 94 C 8.0966 -0.210849 -4.28782 0
M  V30 95 C 7.3296 0.601086 -5.30304 0
M  V30 96 O 7.5526 1.83682 -5.40016 0
M  V30 97 O 6.4866 -0.000808277 -6.019 0
M  V30 98 H 10.3126 -1.00172 -2.86704 0
M  V30 99 H 7.8976 -0.554341 -1.38735 0
M  V30 100 H 9.7796 1.14375 -4.05581 0
M  V30 101 H 8.4546 1.44247 -2.89784 0
M  V30 102 H 7.3616 -0.743714 -3.66633 0
M  V30 103 H 8.6946 -0.959195 -4.82763 0
M  V30 104 N 10.3467 1.47872 -0.545128 0
M  V30 105 C 11.5717 2.07391 -0.0190611 0
M  V30 106 C 11.9967 1.39688 1.25971 0
M  V30 107 O 11.3547 0.467816 1.7516 0
M  V30 108 C 11.4027 3.60188 0.172335 0
M  V30 109 O 10.5067 3.9339 1.23766 0
M  V30 110 H 9.8477 0.662411 -0.0459059 0
M  V30 111 H 12.3777 1.90066 -0.757365 0
M  V30 112 H 12.3877 4.06129 0.390305 0
M  V30 113 H 11.0627 4.08865 -0.761725 0
M  V30 114 H 9.6397 3.5921 1.00114 0
M  V30 115 N 11.8248 0.280983 1.55075 0
M  V30 116 C 13.2358 -0.215629 1.85451 0
M  V30 117 C 13.5868 -1.54991 1.203 0
M  V30 118 O 12.7118 -2.10699 0.493435 0
M  V30 119 C 13.3068 -0.398026 3.36454 0
M  V30 120 C 11.8658 -0.838866 3.66933 0
M  V30 121 C 11.0128 0.064458 2.77225 0
M  V30 122 H 13.9638 0.502601 1.50531 0
M  V30 123 H 13.9848 -1.23569 3.59876 0
M  V30 124 H 13.4968 0.573241 3.83843 0
M  V30 125 H 11.5978 -1.8214 3.25048 0
M  V30 126 H 11.7108 -0.672123 4.74362 0
M  V30 127 H 10.0748 -0.452863 2.50642 0
M  V30 128 H 10.8578 1.03172 3.2743 0
M  V30 129 N 13.3029 -1.57598 0.00835791 0
M  V30 130 C 14.2329 -2.1198 -0.979113 0
M  V30 131 C 15.2139 -1.03091 -1.35301 0
M  V30 132 O 16.3989 -1.30818 -1.43528 0
M  V30 133 C 13.5289 -2.62995 -2.26828 0
M  V30 134 C 12.4829 -3.76485 -2.03576 0
M  V30 135 C 11.8089 -4.13846 -3.38579 0
M  V30 136 C 13.1089 -5.0342 -1.39161 0
M  V30 137 H 14.8029 -2.94738 -0.526281 0
M  V30 138 H 12.3489 -1.41783 -0.251704 0
M  V30 139 H 14.3019 -2.99669 -2.96271 0
M  V30 140 H 13.0259 -1.7737 -2.7424 0
M  V30 141 H 11.6849 -3.40217 -1.36557 0
M  V30 142 H 11.3329 -3.25232 -3.83709 0
M  V30 143 H 11.0329 -4.90312 -3.23834 0
M  V30 144 H 12.5569 -4.53086 -4.09323 0
M  V30 145 H 13.9709 -5.37812 -1.98573 0
M  V30 146 H 12.3679 -5.84746 -1.34878 0
M  V30 147 H 13.4379 -4.83548 -0.361868 0
M  V30 148 N 14.781 0.264519 -1.55364 0
M  V30 149 C 15.731 1.32966 -1.85214 0
M  V30 150 C 16.715 1.44306 -0.711653 0
M  V30 151 O 17.907 1.47844 -0.973192 0
M  V30 152 C 15.036 2.68839 -2.13495 0
M  V30 153 C 14.122 2.61575 -3.33825 0
M  V30 154 N 14.513 2.23933 -4.53528 0
M  V30 155 C 12.811 2.92621 -3.36584 0
M  V30 156 C 13.512 2.26868 -5.35636 0
M  V30 157 N 12.488 2.65677 -4.74254 0
M  V30 158 H 16.29 1.02884 -2.75304 0
M  V30 159 H 13.804 0.473157 -1.55354 0
M  V30 160 H 15.801 3.45685 -2.33039 0
M  V30 161 H 14.461 2.99802 -1.24694 0
M  V30 162 H 15.472 1.95769 -4.79474 0
M  V30 163 H 12.149 3.2824 -2.58002 0
M  V30 164 H 13.539 2.00254 -6.41364 0
M  V30 165 N 16.2591 1.48442 0.529413 0
M  V30 166 C 17.2221 1.62524 1.61612 0
M  V30 167 C 18.2221 0.498509 1.52877 0
M  V30 168 O 19.4121 0.76431 1.56537 0
M  V30 169 C 16.5441 1.59597 3.01233 0
M  V30 170 H 17.7371 2.59423 1.50465 0
M  V30 171 H 15.2901 1.37047 0.751514 0
M  V30 172 H 16.0251 0.641781 3.17886 0
M  V30 173 H 15.8101 2.41397 3.08982 0
M  V30 174 H 17.3001 1.72646 3.80241 0
M  V30 175 N 17.7372 -0.778329 1.37039 0
M  V30 176 C 18.9832 -1.53892 1.32079 0
M  V30 177 C 19.3162 -1.9396 -0.0965386 0
M  V30 178 O 18.5912 -1.63568 -1.05242 0
M  V30 179 C 18.8742 -2.80847 2.25382 0
M  V30 180 C 18.7272 -2.47076 3.75864 0
M  V30 181 C 20.0462 -3.82741 2.1725 0
M  V30 182 H 17.1652 -0.558303 0.48111 0
M  V30 183 H 19.8072 -0.893397 1.67685 0
M  V30 184 H 17.9572 -3.35931 1.95148 0
M  V30 185 H 19.6292 -1.97957 4.16666 0
M  V30 186 H 17.8722 -1.79863 3.94755 0
M  V30 187 H 18.5432 -3.37798 4.36574 0
M  V30 188 H 21.0192 -3.37133 2.43887 0
M  V30 189 H 19.8952 -4.69303 2.84686 0
M  V30 190 H 20.1562 -4.2652 1.16331 0
M  V30 191 N 19.2153 -1.21501 -1.00376 0
M  V30 192 C 20.1473 -0.933174 -2.09343 0
M  V30 193 C 21.1603 0.0840896 -1.62583 0
M  V30 194 O 22.3493 -0.148563 -1.77881 0
M  V30 195 C 19.4493 -0.379869 -3.36764 0
M  V30 196 C 18.6223 -1.45176 -4.12605 0
M  V30 197 C 17.6813 -0.907476 -5.18316 0
M  V30 198 O 16.7073 -1.5912 -5.46507 0
M  V30 199 N 17.9093 0.276649 -5.7984 0
M  V30 200 H 20.6743 -1.87124 -2.34104 0
M  V30 201 H 18.2353 -1.12043 -1.16867 0
M  V30 202 H 20.2273 -0.00131488 -4.047 0
M  V30 203 H 18.7973 0.463048 -3.09151 0
M  V30 204 H 18.0173 -2.00411 -3.39454 0
M  V30 205 H 19.3053 -2.17328 -4.6005 0
M  V30 206 H 18.7033 0.849147 -5.59291 0
M  V30 207 H 17.2603 0.596702 -6.49063 0
M  V30 208 N 20.6934 1.19889 -1.02296 0
M  V30 209 C 21.6234 2.25141 -0.619174 0
M  V30 210 C 22.6044 1.66051 0.368915 0
M  V30 211 O 23.7894 1.92546 0.252941 0
M  V30 212 C 20.9194 3.4728 0.0368783 0
M  V30 213 C 19.8734 4.19005 -0.872865 0
M  V30 214 C 19.1994 5.34637 -0.0822402 0
M  V30 215 C 20.4994 4.74452 -2.18387 0
M  V30 216 H 22.1934 2.59171 -1.49903 0
M  V30 217 H 19.7394 1.24579 -0.722222 0
M  V30 218 H 21.6924 4.20098 0.330958 0
M  V30 219 H 20.4164 3.12433 0.95149 0
M  V30 220 H 19.0754 3.48061 -1.15105 0
M  V30 221 H 18.7234 4.96034 0.83422 0
M  V30 222 H 18.4234 5.83557 -0.688149 0
M  V30 223 H 19.9474 6.10255 0.205238 0
M  V30 224 H 21.3614 5.39055 -1.95172 0
M  V30 225 H 19.7584 5.33834 -2.74119 0
M  V30 226 H 20.8284 3.92844 -2.84257 0
M  V30 227 N 22.1715 0.800033 1.35784 0
M  V30 228 C 23.5875 0.482977 1.52117 0
M  V30 229 C 23.7875 -0.996948 1.75109 0
M  V30 230 O 22.8435 -1.78216 1.78872 0
M  V30 231 C 24.1565 1.32264 2.70049 0
M  V30 232 C 25.7045 1.31742 2.83924 0
M  V30 233 C 26.1795 2.14106 4.04874 0
M  V30 234 N 27.6705 2.11607 4.12039 0
M  V30 235 C 28.4055 2.72099 5.04727 0
M  V30 236 N 27.9015 3.41492 6.02789 0
M  V30 237 N 29.6945 2.61776 4.97423 0
M  V30 238 H 21.8455 1.75856 1.19115 0
M  V30 239 H 24.1085 0.748122 0.582252 0
M  V30 240 H 23.8145 2.37261 2.59616 0
M  V30 241 H 23.6885 0.971303 3.6448 0
M  V30 242 H 26.0755 0.275333 2.93813 0
M  V30 243 H 26.1565 1.70859 1.9037 0
M  V30 244 H 25.8005 3.18351 3.95746 0
M  V30 245 H 25.7305 1.72353 4.97596 0
M  V30 246 H 28.2215 1.61112 3.41835 0
M  V30 247 H 28.5345 3.84953 6.70098 0
M  V30 248 H 26.8795 3.45596 6.02983 0
M  V30 249 H 30.0705 2.07157 4.19766 0
M  V30 250 H 30.2435 3.0921 5.69468 0
M  V30 251 N 23.6496 -1.47581 0.552962 0
M  V30 252 C 24.8956 -2.03369 0.0355807 0
M  V30 253 C 25.2506 -1.42016 -1.29805 0
M  V30 254 O 24.5436 -0.564917 -1.83083 0
M  V30 255 C 24.7376 -3.57199 -0.119728 0
M  V30 256 C 24.5666 -4.33468 1.1973 0
M  V30 257 C 23.3366 -4.7353 1.76345 0
M  V30 258 C 25.5346 -4.68866 2.11351 0
M  V30 259 N 23.5166 -5.34426 3.02097 0
M  V30 260 C 24.8876 -5.3002 3.21681 0
M  V30 261 C 26.9426 -4.50795 2.11397 0
M  V30 262 C 25.6456 -5.75011 4.32151 0
M  V30 263 C 27.6716 -4.96782 3.20876 0
M  V30 264 C 27.0336 -5.57981 4.29926 0
M  V30 265 H 23.1326 -0.780058 0.0550806 0
M  V30 266 H 25.7166 -1.80117 0.739315 0
M  V30 267 H 23.8876 -3.80227 -0.792579 0
M  V30 268 H 25.6196 -3.99627 -0.638792 0
M  V30 269 H 22.3746 -4.55352 1.30196 0
M  V30 270 H 22.7986 -5.69421 3.66182 0
M  V30 271 H 27.4406 -4.0284 1.28372 0
M  V30 272 H 25.1586 -6.21959 5.15938 0
M  V30 273 H 28.7446 -4.84573 3.21994 0
M  V30 274 H 27.6246 -5.92918 5.13243 0
M  V30 275 N 25.1277 -0.289203 -1.54924 0
M  V30 276 C 26.3757 0.322879 -1.99504 0
M  V30 277 C 26.6967 1.55313 -1.1791 0
M  V30 278 O 25.9667 1.94001 -0.272097 0
M  V30 279 H 24.5467 0.122291 -0.736922 0
M  V30 280 H 27.2087 -0.397802 -1.90797 0
M  V30 281 H 26.3047 0.603061 -3.06218 0
M  V30 282 N 26.6058 1.57591 -0.0167156 0
M  V30 283 C 28.0168 1.79201 0.523834 0
M  V30 284 C 28.3678 0.925796 1.72984 0
M  V30 285 O 27.4928 0.132792 2.15992 0
M  V30 286 C 28.0878 3.25 0.957091 0
M  V30 287 C 26.6468 3.47648 1.44283 0
M  V30 288 C 25.7938 2.74374 0.401757 0
M  V30 289 H 28.7448 1.56831 -0.242816 0
M  V30 290 H 28.7658 3.34031 1.82219 0
M  V30 291 H 28.2778 3.88019 0.0791415 0
M  V30 292 H 26.3788 2.89866 2.34113 0
M  V30 293 H 26.4918 4.56352 1.45877 0
M  V30 294 H 24.8558 2.39485 0.867121 0
M  V30 295 H 25.6388 3.40102 -0.467513 0
M  V30 296 N 28.0839 -0.256276 1.55502 0
M  V30 297 C 29.4999 -0.604325 1.47716 0
M  V30 298 C 29.6999 -1.88763 0.705039 0
M  V30 299 O 28.7559 -2.51445 0.230613 0
M  V30 300 C 30.0689 -0.715756 2.92057 0
M  V30 301 C 31.6169 -0.808706 3.02372 0
M  V30 302 C 32.0919 -0.951777 4.48001 0
M  V30 303 N 33.5829 -1.01688 4.519 0
M  V30 304 C 34.3179 -1.14668 5.61817 0
M  V30 305 N 33.8139 -1.24261 6.81565 0
M  V30 306 N 35.6069 -1.1791 5.49594 0
M  V30 307 H 27.7579 0.586291 2.04148 0
M  V30 308 H 30.0209 0.201015 0.926443 0
M  V30 309 H 29.7269 0.157027 3.51349 0
M  V30 310 H 29.6009 -1.59071 3.42018 0
M  V30 311 H 31.9879 -1.67195 2.43166 0
M  V30 312 H 32.0689 0.0912063 2.55637 0
M  V30 313 H 31.7129 -0.0931291 5.07815 0
M  V30 314 H 31.6429 -1.86659 4.92408 0
M  V30 315 H 34.1339 -0.954468 3.65648 0
M  V30 316 H 34.4469 -1.34046 7.61086 0
M  V30 317 H 32.7919 -1.21236 6.84344 0
M  V30 318 H 35.9829 -1.10057 4.54978 0
M  V30 319 H 36.1559 -1.27681 6.35296 0
M  V30 320 N 29.562 -1.4872 -0.521534 0
M  V30 321 C 30.978 -1.35028 -0.850855 0
M  V30 322 C 31.178 -0.367712 -1.98116 0
M  V30 323 O 30.234 0.208037 -2.51642 0
M  V30 324 C 31.547 -2.75263 -1.21041 0
M  V30 325 C 33.095 -2.83813 -1.31981 0
M  V30 326 C 33.57 -4.24769 -1.71276 0
M  V30 327 N 35.061 -4.27482 -1.78363 0
M  V30 328 C 35.796 -5.33494 -2.1017 0
M  V30 329 N 35.292 -6.49775 -2.40343 0
M  V30 330 N 37.085 -5.20894 -2.11248 0
M  V30 331 H 29.236 -2.11214 0.22413 0
M  V30 332 H 31.499 -0.947252 0.0376439 0
M  V30 333 H 31.205 -3.48765 -0.453415 0
M  V30 334 H 31.079 -3.09327 -2.15863 0
M  V30 335 H 33.466 -2.10561 -2.06756 0
M  V30 336 H 33.547 -2.53358 -0.352596 0
M  V30 337 H 33.191 -4.9854 -0.970588 0
M  V30 338 H 33.121 -4.52673 -2.69062 0
M  V30 339 H 35.612 -3.43611 -1.57288 0
M  V30 340 H 35.925 -7.26402 -2.63743 0
M  V30 341 H 34.27 -6.53035 -2.37844 0
M  V30 342 H 37.461 -4.29065 -1.87139 0
M  V30 343 H 37.634 -6.03612 -2.35704 0
M  V30 344 N 31.0401 0.771051 -1.3745 0
M  V30 345 C 32.4561 1.07171 -1.18265 0
M  V30 346 C 32.6561 2.01491 -0.019287 0
M  V30 347 O 31.7121 2.44244 0.640408 0
M  V30 348 C 33.0251 1.66854 -2.50161 0
M  V30 349 C 34.5731 1.79109 -2.56689 0
M  V30 350 C 35.0481 2.42205 -3.88717 0
M  V30 351 N 36.5391 2.49655 -3.90162 0
M  V30 352 C 37.2741 2.9933 -4.8907 0
M  V30 353 N 36.7701 3.49172 -5.98374 0
M  V30 354 N 38.5631 2.9821 -4.76474 0
M  V30 355 H 30.7141 0.144796 -2.11906 0
M  V30 356 H 32.9771 0.126863 -0.939473 0
M  V30 357 H 32.6831 1.05017 -3.35655 0
M  V30 358 H 32.5571 2.6614 -2.673 0
M  V30 359 H 34.9441 2.40077 -1.71601 0
M  V30 360 H 35.0251 0.785757 -2.43433 0
M  V30 361 H 34.6691 1.81875 -4.74219 0
M  V30 362 H 34.5991 3.43345 -3.99276 0
M  V30 363 H 37.0901 2.14383 -3.11205 0
M  V30 364 H 37.4031 3.8548 -6.69795 0
M  V30 365 H 35.7481 3.47275 -6.02018 0
M  V30 366 H 38.9391 2.58572 -3.90203 0
M  V30 367 H 39.1121 3.36613 -5.53711 0
M  V30 368 N 32.5182 1.22032 0.997298 0
M  V30 369 C 33.9292 1.0397 1.55071 0
M  V30 370 C 34.2802 -0.398192 1.92117 0
M  V30 371 O 33.4052 -1.28254 1.74298 0
M  V30 372 C 34.0002 1.88109 2.81781 0
M  V30 373 C 32.5592 1.74357 3.33581 0
M  V30 374 C 31.7062 1.84846 2.06706 0
M  V30 375 H 34.6572 1.35941 0.818883 0
M  V30 376 H 34.6782 1.39589 3.53971 0
M  V30 377 H 34.1902 2.92754 2.54787 0
M  V30 378 H 32.2912 0.72427 3.65493 0
M  V30 379 H 32.4042 2.56772 4.04481 0
M  V30 380 H 30.7682 1.28238 2.20062 0
M  V30 381 H 31.5512 2.91014 1.82114 0
M  V30 382 N 33.9963 -1.19345 1.0293 0
M  V30 383 C 35.4073 -1.70725 0.755633 0
M  V30 384 C 35.7583 -1.82326 -0.724676 0
M  V30 385 O 34.8833 -1.49471 -1.56484 0
M  V30 386 C 35.4783 -3.10084 1.36503 0
M  V30 387 C 34.0373 -3.58723 1.13994 0
M  V30 388 C 33.1843 -2.35577 1.46283 0
M  V30 389 H 36.1353 -1.0418 1.19718 0
M  V30 390 H 36.1563 -3.72787 0.762217 0
M  V30 391 H 35.6683 -3.01609 2.44241 0
M  V30 392 H 33.7693 -3.72512 0.0807901 0
M  V30 393 H 33.8823 -4.42816 1.82894 0
M  V30 394 H 32.2463 -2.38935 0.88217 0
M  V30 395 H 33.0293 -2.29731 2.55105 0
M  V30 396 N 35.4744 -0.807222 -1.35358 0
M  V30 397 C 36.4044 -0.232509 -2.3234 0
M  V30 398 C 37.3854 0.642386 -1.57504 0
M  V30 399 O 38.5704 0.572526 -1.85569 0
M  V30 400 C 35.7004 0.619238 -3.41735 0
M  V30 401 C 34.6544 -0.157215 -4.27711 0
M  V30 402 C 33.9804 0.816273 -5.28433 0
M  V30 403 C 35.2804 -1.35656 -5.04376 0
M  V30 404 H 36.9744 -1.04276 -2.80654 0
M  V30 405 H 34.5204 -0.50288 -1.34934 0
M  V30 406 H 36.4734 1.03137 -4.08584 0
M  V30 407 H 35.1974 1.46239 -2.92031 0
M  V30 408 H 33.8564 -0.550525 -3.62443 0
M  V30 409 H 33.5044 1.65494 -4.74996 0
M  V30 410 H 33.2044 0.301067 -5.86828 0
M  V30 411 H 34.7284 1.22659 -5.98153 0
M  V30 412 H 36.1424 -1.01927 -5.64166 0
M  V30 413 H 34.5394 -1.8063 -5.7227 0
M  V30 414 H 35.6094 -2.14288 -4.34981 0
M  V30 415 N 36.9525 1.47285 -0.560781 0
M  V30 416 C 37.8825 2.32857 0.173105 0
M  V30 417 C 38.8635 1.44009 0.905281 0
M  V30 418 O 40.0485 1.7286 0.885046 0
M  V30 419 C 37.1785 3.25861 1.20133 0
M  V30 420 C 36.1325 4.23978 0.585388 0
M  V30 421 C 35.4585 5.06332 1.7185 0
M  V30 422 C 36.7585 5.20242 -0.463178 0
M  V30 423 H 38.4525 2.94466 -0.541307 0
M  V30 424 H 35.9985 1.41601 -0.261764 0
M  V30 425 H 37.9515 3.84569 1.72293 0
M  V30 426 H 36.6755 2.62315 1.94573 0
M  V30 427 H 35.3345 3.66501 0.085054 0
M  V30 428 H 34.9825 4.39186 2.45203 0
M  V30 429 H 34.6825 5.72762 1.31213 0
M  V30 430 H 36.2065 5.67899 2.24329 0
M  V30 431 H 37.6205 5.73293 -0.027502 0
M  V30 432 H 36.0175 5.94896 -0.788627 0
M  V30 433 H 37.0875 4.65504 -1.35773 0
M  V30 434 N 38.4306 0.297415 1.54768 0
M  V30 435 C 39.8416 -0.195947 1.85669 0
M  V30 436 C 40.1926 -1.53707 1.21937 0
M  V30 437 O 39.3176 -2.10164 0.515754 0
M  V30 438 C 39.9126 -0.362318 3.36857 0
M  V30 439 C 38.4716 -0.799901 3.67802 0
M  V30 440 C 37.6186 0.0938578 2.77141 0
M  V30 441 H 40.5696 0.518538 1.4999 0
M  V30 442 H 40.5906 -1.19745 3.61167 0
M  V30 443 H 40.1026 0.613921 3.83214 0
M  V30 444 H 38.2036 -1.78682 3.26961 0
M  V30 445 H 38.3166 -0.621773 4.75048 0
M  V30 446 H 36.6806 -0.426254 2.51108 0
M  V30 447 H 37.4636 1.06639 3.26318 0
M  V30 448 N 39.9087 -1.5758 0.0250728 0
M  V30 449 C 40.8387 -2.13007 -0.956575 0
M  V30 450 C 41.8197 -1.0452 -1.342 0
M  V30 451 O 43.0047 -1.32332 -1.42133 0
M  V30 452 C 40.1347 -2.65386 -2.24026 0
M  V30 453 C 39.0887 -3.78623 -1.99571 0
M  V30 454 C 38.4147 -4.17414 -3.3417 0
M  V30 455 C 39.7147 -5.04867 -1.33814 0
M  V30 456 H 41.4087 -2.9528 -0.494991 0
M  V30 457 H 38.9547 -1.42042 -0.236651 0
M  V30 458 H 40.9077 -3.02794 -2.93076 0
M  V30 459 H 39.6317 -1.80268 -2.72343 0
M  V30 460 H 38.2907 -3.41646 -1.32941 0
M  V30 461 H 37.9387 -3.29284 -3.80238 0
M  V30 462 H 37.6387 -4.93719 -3.18615 0
M  V30 463 H 39.1627 -4.57402 -4.04495 0
M  V30 464 H 40.5767 -5.39888 -1.92857 0
M  V30 465 H 38.9737 -5.86144 -1.28669 0
M  V30 466 H 40.0437 -4.83904 -0.310561 0
M  V30 467 N 41.3868 0.248026 -1.55636 0
M  V30 468 C 42.3168 1.31079 -1.93237 0
M  V30 469 C 43.2978 1.50264 -0.797174 0
M  V30 470 O 44.4828 1.62891 -1.05737 0
M  V30 471 C 41.6128 2.66575 -2.22609 0
M  V30 472 C 40.5668 2.62087 -3.3837 0
M  V30 473 C 39.8928 4.01369 -3.53281 0
M  V30 474 C 41.1928 2.19171 -4.7409 0
M  V30 475 H 42.8868 0.998556 -2.82257 0
M  V30 476 H 40.4328 0.47891 -1.35803 0
M  V30 477 H 42.3858 3.41057 -2.47503 0
M  V30 478 H 41.1098 2.99432 -1.30414 0
M  V30 479 H 39.7688 1.90063 -3.13483 0
M  V30 480 H 39.4168 4.31489 -2.58508 0
M  V30 481 H 39.1168 3.99254 -4.31127 0
M  V30 482 H 40.6408 4.77552 -3.80495 0
M  V30 483 H 42.0548 2.83384 -4.98363 0
M  V30 484 H 40.4518 2.2817 -5.5503 0
M  V30 485 H 41.5218 1.14336 -4.71227 0
M  V30 486 N 42.8649 1.48995 0.513639 0
M  V30 487 C 43.7949 1.67636 1.62544 0
M  V30 488 C 44.7759 0.525087 1.61793 0
M  V30 489 O 45.9609 0.759502 1.78732 0
M  V30 490 C 43.0909 1.73114 3.01079 0
M  V30 491 C 42.0449 2.87905 3.16693 0
M  V30 492 C 41.3709 2.78486 4.56453 0
M  V30 493 C 42.6709 4.29005 2.97913 0
M  V30 494 H 44.3649 2.60716 1.47198 0
M  V30 495 H 41.9109 1.25465 0.706714 0
M  V30 496 H 43.8639 1.84742 3.78746 0
M  V30 497 H 42.5879 0.766241 3.17484 0
M  V30 498 H 41.2469 2.75859 2.41448 0
M  V30 499 H 40.8949 1.7993 4.69717 0
M  V30 500 H 40.5949 3.55523 4.67843 0
M  V30 501 H 42.1189 2.92104 5.36197 0
M  V30 502 H 43.5329 4.41798 3.65359 0
M  V30 503 H 41.9299 5.07166 3.20785 0
M  V30 504 H 42.9999 4.44329 1.94165 0
M  V30 505 N 44.343 -0.763751 1.37857 0
M  V30 506 C 45.273 -1.89103 1.36975 0
M  V30 507 C 46.254 -1.68439 0.237152 0
M  V30 508 O 47.439 -1.8918 0.438713 0
M  V30 509 C 44.569 -3.26496 1.18395 0
M  V30 510 C 43.523 -3.61741 2.28751 0
M  V30 511 C 42.849 -4.97762 1.95286 0
M  V30 512 C 44.149 -3.67665 3.70972 0
M  V30 513 H 45.843 -1.90099 2.31307 0
M  V30 514 H 43.389 -0.91319 1.11341 0
M  V30 515 H 45.342 -4.05003 1.16406 0
M  V30 516 H 44.066 -3.25955 0.205215 0
M  V30 517 H 42.725 -2.85547 2.29909 0
M  V30 518 H 42.373 -4.93769 0.959221 0
M  V30 519 H 42.073 -5.22313 2.69189 0
M  V30 520 H 43.597 -5.7866 1.94898 0
M  V30 521 H 45.011 -4.36307 3.719 0
M  V30 522 H 43.408 -4.03718 4.43995 0
M  V30 523 H 44.478 -2.68134 4.0402 0
M  V30 524 N 45.8211 -1.22559 -0.990812 0
M  V30 525 C 46.7511 -1.0218 -2.09956 0
M  V30 526 C 47.7321 0.0579394 -1.70001 0
M  V30 527 O 48.9171 -0.104684 -1.93918 0
M  V30 528 C 46.0471 -0.601023 -3.4206 0
M  V30 529 C 45.0011 -1.62694 -3.95872 0
M  V30 530 C 44.3271 -1.06193 -5.24049 0
M  V30 531 C 45.6271 -3.01743 -4.2632 0
M  V30 532 H 47.3211 -1.94916 -2.27262 0
M  V30 533 H 44.8671 -0.938566 -1.09211 0
M  V30 534 H 46.8201 -0.445561 -4.19038 0
M  V30 535 H 45.5441 0.362005 -3.24588 0
M  V30 536 H 44.2031 -1.77021 -3.21028 0
M  V30 537 H 43.8511 -0.0901903 -5.02919 0
M  V30 538 H 43.5511 -1.74732 -5.61019 0
M  V30 539 H 45.0751 -0.918092 -6.03658 0
M  V30 540 H 46.4891 -2.90777 -4.94087 0
M  V30 541 H 44.8861 -3.67425 -4.74467 0
M  V30 542 H 45.9561 -3.51518 -3.34011 0
M  V30 543 N 47.2992 1.18797 -1.03562 0
M  V30 544 C 48.2292 2.24472 -0.643019 0
M  V30 545 C 49.2102 1.66433 0.351283 0
M  V30 546 O 50.3952 1.92803 0.232505 0
M  V30 547 C 47.5252 3.473 4.24935e-05 0
M  V30 548 C 46.4792 4.18055 -0.917257 0
M  V30 549 C 45.8052 5.34519 -0.138941 0
M  V30 550 C 47.1052 4.72109 -2.23407 0
M  V30 551 H 48.7992 2.57566 -1.52643 0
M  V30 552 H 46.3452 1.23806 -0.735394 0
M  V30 553 H 48.2982 4.20426 0.286383 0
M  V30 554 H 47.0222 3.13424 0.918299 0
M  V30 555 H 45.6812 3.46821 -1.1879 0
M  V30 556 H 45.3292 4.96891 0.781562 0
M  V30 557 H 45.0292 5.82794 -0.750005 0
M  V30 558 H 46.5532 6.10438 0.1405 0
M  V30 559 H 47.9672 5.36955 -2.00879 0
M  V30 560 H 46.3642 5.30897 -2.79765 0
M  V30 561 H 47.4342 3.89807 -2.88407 0
M  V30 562 N 48.7773 0.814389 1.34928 0
M  V30 563 C 50.1883 0.458364 1.80986 0
M  V30 564 C 50.5393 -1.02042 1.67577 0
M  V30 565 O 49.6643 -1.79352 1.21086 0
M  V30 566 C 50.2593 0.825212 3.28597 0
M  V30 567 C 48.8183 0.521677 3.72767 0
M  V30 568 C 47.9653 1.04668 2.56788 0
M  V30 569 H 50.9163 1.00533 1.22795 0
M  V30 570 H 50.9373 0.12571 3.80292 0
M  V30 571 H 50.4493 1.90154 3.38324 0
M  V30 572 H 48.5503 -0.545589 3.68584 0
M  V30 573 H 48.6633 1.05977 4.67232 0
M  V30 574 H 47.0273 0.468622 2.50352 0
M  V30 575 H 47.8103 2.12927 2.6929 0
M  V30 576 N 50.2554 -1.46986 0.568584 0
M  V30 577 C 51.6664 -1.86188 0.138219 0
M  V30 578 C 52.0174 -1.47388 -1.29504 0
M  V30 579 O 51.1424 -0.88219 -1.97602 0
M  V30 580 C 51.7374 -3.3792 0.244065 0
M  V30 581 C 50.2964 -3.76171 -0.131335 0
M  V30 582 C 49.4434 -2.71027 0.586465 0
M  V30 583 H 52.3944 -1.38342 0.777645 0
M  V30 584 H 52.4154 -3.76729 -0.534351 0
M  V30 585 H 51.9274 -3.66128 1.28731 0
M  V30 586 H 50.0284 -3.5358 -1.17526 0
M  V30 587 H 50.1414 -4.78523 0.235146 0
M  V30 588 H 48.5054 -2.54684 0.0282722 0
M  V30 589 H 49.2884 -3.02077 1.63109 0
M  V30 590 N 51.7335 -0.305618 -1.54608 0
M  V30 591 C 53.1445 0.186098 -1.8577 0
M  V30 592 C 53.4955 1.53058 -1.22751 0
M  V30 593 O 52.6205 2.09888 -0.526893 0
M  V30 594 C 53.2155 0.344449 -3.37044 0
M  V30 595 C 51.7745 0.780384 -3.68221 0
M  V30 596 C 50.9215 -0.108554 -2.77087 0
M  V30 597 H 53.8725 -0.526485 -1.49712 0
M  V30 598 H 53.8935 1.17828 -3.61796 0
M  V30 599 H 53.4055 -0.634235 -3.82883 0
M  V30 600 H 51.5065 1.76945 -3.27904 0
M  V30 601 H 51.6195 0.596572 -4.75371 0
M  V30 602 H 49.9835 0.412931 -2.5133 0
M  V30 603 H 50.7665 -1.08368 -3.25747 0
M  V30 604 N 53.2116 1.57565 -0.0334293 0
M  V30 605 C 54.6226 1.79746 0.504798 0
M  V30 606 C 54.9736 0.944091 1.71992 0
M  V30 607 O 54.0986 0.155694 2.15839 0
M  V30 608 C 54.6936 3.25997 0.922567 0
M  V30 609 C 53.2526 3.49159 1.40588 0
M  V30 610 C 52.3996 2.74785 0.372633 0
M  V30 611 H 55.3506 1.56565 -0.259436 0
M  V30 612 H 55.3716 3.35945 1.78666 0
M  V30 613 H 54.8836 3.88081 0.0379825 0
M  V30 614 H 52.9846 2.92332 2.31025 0
M  V30 615 H 53.0976 4.57873 1.41028 0
M  V30 616 H 51.4616 2.40391 0.841672 0
M  V30 617 H 52.2446 3.39587 -0.503559 0
M  V30 618 N 54.6897 -0.239769 1.55765 0
M  V30 619 C 56.1057 -0.588624 1.48349 0
M  V30 620 C 56.3057 -1.88005 0.72502 0
M  V30 621 O 55.3617 -2.51186 0.257269 0
M  V30 622 C 56.6747 -0.68474 2.928 0
M  V30 623 C 58.2227 -0.77659 3.03213 0
M  V30 624 C 58.6977 -0.904207 4.48986 0
M  V30 625 N 60.1887 -0.968896 4.52953 0
M  V30 626 C 60.9237 -1.08703 5.63002 0
M  V30 627 N 60.4197 -1.17026 6.82845 0
M  V30 628 N 62.2127 -1.12074 5.50814 0
M  V30 629 H 54.3637 0.607911 2.03515 0
M  V30 630 H 56.6267 0.21083 0.924259 0
M  V30 631 H 56.3327 0.194284 3.51163 0
M  V30 632 H 56.2067 -1.55435 3.43686 0
M  V30 633 H 58.5937 -1.64606 2.44926 0
M  V30 634 H 58.6747 0.118315 2.55526 0
M  V30 635 H 58.3187 -0.0392633 5.07885 0
M  V30 636 H 58.2487 -1.81426 4.9436 0
M  V30 637 H 60.7397 -0.915633 3.6664 0
M  V30 638 H 61.0527 -1.25966 7.62465 0
M  V30 639 H 59.3977 -1.13971 6.85591 0
M  V30 640 H 62.5887 -1.05226 4.5612 0
M  V30 641 H 62.7617 -1.20936 6.36615 0
M  V30 642 N 56.1678 -1.49265 -0.50573 0
M  V30 643 C 57.4138 -1.58748 -1.26202 0
M  V30 644 C 57.7468 -0.271227 -1.92297 0
M  V30 645 O 57.0218 0.724831 -1.80489 0
M  V30 646 C 57.3048 -2.74332 -2.33268 0
M  V30 647 C 57.1578 -4.15737 -1.71705 0
M  V30 648 C 58.4768 -2.85576 -3.34865 0
M  V30 649 H 55.5958 -0.577826 -0.457478 0
M  V30 650 H 58.2378 -1.81532 -0.560897 0
M  V30 651 H 56.3878 -2.55036 -2.93068 0
M  V30 652 H 58.0598 -4.46537 -1.15769 0
M  V30 653 H 56.3028 -4.21605 -1.02135 0
M  V30 654 H 56.9738 -4.92477 -2.49341 0
M  V30 655 H 59.4498 -3.03127 -2.8505 0
M  V30 656 H 58.3258 -3.68135 -4.07146 0
M  V30 657 H 58.5868 -1.94732 -3.96903 0
M  V30 658 N 57.6459 0.756429 -1.3826 0
M  V30 659 C 58.8939 1.51248 -1.34047 0
M  V30 660 C 59.2149 1.94875 0.0698372 0
M  V30 661 O 58.4849 1.67436 1.01696 0
M  V30 662 H 57.0649 0.561018 -0.493222 0
M  V30 663 H 59.7269 0.899347 -1.7291 0
M  V30 664 H 58.8229 2.40472 -1.98947 0
M  V30 665 N 59.124 1.23083 0.984299 0
M  V30 666 C 60.372 1.05848 1.72165 0
M  V30 667 C 60.693 -0.406049 1.90726 0
M  V30 668 O 59.963 -1.29139 1.47309 0
M  V30 669 H 58.543 0.388685 0.637913 0
M  V30 670 H 61.205 1.54736 1.18503 0
M  V30 671 H 60.301 1.54327 2.71274 0
M  V30 672 N 60.6021 -1.18246 1.0419 0
M  V30 673 C 61.8491 -1.88257 0.746017 0
M  V30 674 C 62.1771 -1.80429 -0.726331 0
M  V30 675 O 61.4321 -1.2 -1.54591 0
M  V30 676 C 61.7311 -3.38082 1.15911 0
M  V30 677 C 61.3971 -3.66114 2.63195 0
M  V30 678 C 60.0591 -3.73474 3.03432 0
M  V30 679 C 62.4111 -3.78398 3.5842 0
M  V30 680 C 59.7391 -3.90599 4.37778 0
M  V30 681 C 62.0911 -3.97039 4.92487 0
M  V30 682 C 60.7551 -4.02635 5.32392 0
M  V30 683 H 60.0251 -0.688883 0.272987 0
M  V30 684 H 62.6721 -1.3995 1.30715 0
M  V30 685 H 60.9771 -3.88377 0.516806 0
M  V30 686 H 62.6741 -3.90596 0.907516 0
M  V30 687 H 59.2641 -3.61003 2.3103 0
M  V30 688 H 63.4481 -3.72042 3.28479 0
M  V30 689 H 58.7041 -3.93175 4.68213 0
M  V30 690 H 62.8781 -4.05486 5.66175 0
M  V30 691 H 60.5051 -4.15657 6.36501 0
M  V30 692 N 62.0802 -0.821533 -1.34494 0
M  V30 693 C 63.0282 -0.230702 -2.31453 0
M  V30 694 C 64.0222 0.627793 -1.57338 0
M  V30 695 O 65.2282 0.519288 -1.72347 0
M  V30 696 H 61.6032 -0.0558577 -0.749923 0
M  V30 697 H 63.5742 -1.06332 -2.78812 0
M  V30 698 C 62.3232 0.59391 -3.4259 0
M  V30 699 H 61.6462 -0.0573588 -3.99759 0
M  V30 700 H 63.0862 0.973446 -4.12674 0
M  V30 701 C 61.5452 1.76568 -2.86924 0
M  V30 702 O 62.0752 2.8638 -2.81691 0
M  V30 703 N 60.2812 1.58198 -2.43766 0
M  V30 704 H 59.8282 0.68872 -2.48222 0
M  V30 705 H 59.7862 2.36752 -2.06871 0
M  V30 706 N 63.5583 1.46682 -0.576371 0
M  V30 707 C 64.4883 2.33028 0.148397 0
M  V30 708 C 65.4693 1.44961 0.889956 0
M  V30 709 O 66.6543 1.73789 0.866662 0
M  V30 710 C 63.7843 3.27117 1.1667 0
M  V30 711 C 62.7383 4.24575 0.540386 0
M  V30 712 C 62.0643 5.08126 1.6647 0
M  V30 713 C 63.3643 5.19722 -0.518331 0
M  V30 714 H 65.0583 2.93875 -0.572509 0
M  V30 715 H 62.6043 1.41315 -0.276768 0
M  V30 716 H 64.5573 3.86374 1.68204 0
M  V30 717 H 63.2813 2.64364 1.9178 0
M  V30 718 H 61.9403 3.66571 0.0461769 0
M  V30 719 H 61.5883 4.41762 2.40531 0
M  V30 720 H 61.2883 5.74122 1.25131 0
M  V30 721 H 62.8123 5.70246 2.18293 0
M  V30 722 H 64.2263 5.73232 -0.0883058 0
M  V30 723 H 62.6233 5.94026 -0.851679 0
M  V30 724 H 63.6933 4.64037 -1.40703 0
M  V30 725 N 65.0364 0.313813 1.54444 0
M  V30 726 C 66.3134 -0.345447 1.92525 0
M  V30 727 C 66.6934 -1.70667 1.24242 0
M  V30 728 O 66.0414 -2.25273 0.382654 0
M  V30 729 C 66.2514 -0.44737 3.46121 0
M  V30 730 C 67.5994 -0.712238 4.18584 0
M  V30 731 O 68.6234 -0.530678 3.52225 0
M  V30 732 O 67.4824 -1.06183 5.36085 0
M  V30 733 H 64.5764 -0.195407 0.803583 0
M  V30 734 H 67.1224 0.362813 1.65776 0
M  V30 735 H 65.8944 0.509043 3.87975 0
M  V30 736 H 65.5174 -1.20359 3.78945 0
M  V30 737 N 66.5145 -1.57545 0.0417849 0
M  V30 738 C 67.4775 -2.09885 -0.92093 0
M  V30 739 C 68.4775 -1.01648 -1.24596 0
M  V30 740 O 69.6675 -1.27759 -1.1842 0
M  V30 741 C 66.7995 -2.57527 -2.23367 0
M  V30 742 H 67.9925 -2.96236 -0.467382 0
M  V30 743 H 65.5455 -1.5493 -0.206467 0
M  V30 744 H 66.2805 -1.74542 -2.73323 0
M  V30 745 H 66.0655 -3.36613 -2.01083 0
M  V30 746 H 67.5555 -2.98201 -2.92346 0
M  V30 747 N 67.9926 0.231505 -1.5589 0
M  V30 748 C 68.9026 1.308 -1.94752 0
M  V30 749 C 69.9186 1.51826 -0.849989 0
M  V30 750 O 71.0946 1.6515 -1.15271 0
M  V30 751 C 68.1596 2.63968 -2.24771 0
M  V30 752 C 67.2206 2.51331 -3.48039 0
M  V30 753 C 66.4536 3.78148 -3.76616 0
M  V30 754 O 66.6766 4.80722 -3.07022 0
M  V30 755 O 65.6106 3.75857 -4.70123 0
M  V30 756 H 69.4366 1.0083 -2.86474 0
M  V30 757 H 67.0216 0.433547 -1.42971 0
M  V30 758 H 68.9036 3.42633 -2.45318 0
M  V30 759 H 67.5786 2.9364 -1.36225 0
M  V30 760 H 66.4856 1.709 -3.32782 0
M  V30 761 H 67.8186 2.26601 -4.36936 0
M  V30 762 N 69.4707 1.49531 0.497807 0
M  V30 763 C 70.4337 1.65916 1.58128 0
M  V30 764 C 71.4337 0.530825 1.51786 0
M  V30 765 O 72.6237 0.797342 1.54881 0
M  V30 766 C 69.7557 1.65951 2.9778 0
M  V30 767 H 70.9487 2.62556 1.44929 0
M  V30 768 H 68.5017 1.38611 0.722275 0
M  V30 769 H 69.2367 0.709065 3.16453 0
M  V30 770 H 69.0217 2.47897 3.03792 0
M  V30 771 H 70.5117 1.80673 3.76493 0
M  V30 772 N 70.9488 -0.749086 1.3866 0
M  V30 773 C 72.3598 -1.32664 1.31366 0
M  V30 774 C 72.7108 -1.96179 -0.028484 0
M  V30 775 O 71.8358 -1.9537 -0.93057 0
M  V30 776 C 72.4308 -2.41219 2.37905 0
M  V30 777 C 70.9898 -2.94684 2.34176 0
M  V30 778 C 70.1368 -1.68108 2.20533 0
M  V30 779 H 73.0878 -0.547628 1.48952 0
M  V30 780 H 73.1088 -3.21268 2.0388 0
M  V30 781 H 72.6208 -1.94962 3.35576 0
M  V30 782 H 70.7218 -3.45258 1.401 0
M  V30 783 H 70.8348 -3.48757 3.2849 0
M  V30 784 H 69.1988 -1.91907 1.67463 0
M  V30 785 H 69.9818 -1.23923 3.20153 0
M  V30 786 N 72.4269 -1.23603 -0.977757 0
M  V30 787 C 73.3899 -1.02069 -2.05218 0
M  V30 788 C 74.3899 0.0184305 -1.60789 0
M  V30 789 O 75.5799 -0.221569 -1.72785 0
M  V30 790 C 72.7119 -0.544926 -3.36517 0
M  V30 791 H 73.9049 -1.9742 -2.25755 0
M  V30 792 H 71.4579 -1.05684 -1.15155 0
M  V30 793 H 72.1929 0.412241 -3.21669 0
M  V30 794 H 71.9779 -1.2948 -3.70105 0
M  V30 795 H 73.4679 -0.414985 -4.15533 0
M  V30 796 N 73.905 1.17692 -1.04816 0
M  V30 797 C 75.151 1.88137 -0.75711 0
M  V30 798 C 75.484 1.80604 0.713841 0
M  V30 799 O 74.759 1.21146 1.52164 0
M  V30 800 C 75.042 3.38318 -1.2334 0
M  V30 801 C 74.895 3.54622 -2.76701 0
M  V30 802 C 76.214 4.32214 -0.829415 0
M  V30 803 H 73.333 0.683163 -0.27651 0
M  V30 804 H 75.975 1.38424 -1.30149 0
M  V30 805 H 74.125 3.80787 -0.770286 0
M  V30 806 H 75.797 3.21194 -3.31107 0
M  V30 807 H 74.04 2.97026 -3.16161 0
M  V30 808 H 74.711 4.60028 -3.05088 0
M  V30 809 H 77.187 3.97565 -1.22805 0
M  V30 810 H 76.063 5.35838 -1.19033 0
M  V30 811 H 76.324 4.41294 0.266891 0
M  V30 812 N 75.3831 0.828654 1.34056 0
M  V30 813 C 76.3131 0.269443 2.3194 0
M  V30 814 C 77.2941 -0.617247 1.58506 0
M  V30 815 O 78.4791 -0.542931 1.86456 0
M  V30 816 C 75.6091 -0.564793 3.42677 0
M  V30 817 C 74.5631 0.225241 4.27407 0
M  V30 818 C 73.8891 -0.7321 5.29664 0
M  V30 819 C 75.1891 1.43663 5.02154 0
M  V30 820 H 76.8831 1.08728 2.7896 0
M  V30 821 H 74.4291 0.524283 1.34117 0
M  V30 822 H 76.3821 -0.966233 4.10173 0
M  V30 823 H 75.1061 -1.41574 2.9432 0
M  V30 824 H 73.7651 0.608117 3.61521 0
M  V30 825 H 73.4131 -1.57916 4.77568 0
M  V30 826 H 73.1131 -0.20767 5.87233 0
M  V30 827 H 74.6371 -1.13128 6.00029 0
M  V30 828 H 76.0511 1.1089 5.62473 0
M  V30 829 H 74.4481 1.89711 5.69324 0
M  V30 830 H 75.5181 2.21181 4.31517 0
M  V30 831 N 76.8612 -1.46375 0.584142 0
M  V30 832 C 78.0862 -2.07268 0.0740405 0
M  V30 833 C 78.5112 -1.42979 -1.22223 0
M  V30 834 O 77.8692 -0.514092 -1.73859 0
M  V30 835 C 77.9172 -3.60518 -0.0767769 0
M  V30 836 O 77.0212 -3.96533 -1.13292 0
M  V30 837 H 76.3622 -0.660961 0.0634524 0
M  V30 838 H 78.8922 -1.87991 0.807492 0
M  V30 839 H 78.9022 -4.07021 -0.282489 0
M  V30 840 H 77.5772 -4.06702 0.86986 0
M  V30 841 H 76.1542 -3.61738 -0.905553 0
M  V30 842 N 78.3393 -0.321999 -1.54275 0
M  V30 843 C 79.5873 0.280489 -2.00144 0
M  V30 844 C 79.9083 1.52777 -1.21178 0
M  V30 845 O 79.1783 1.9338 -0.313187 0
M  V30 846 H 77.7583 0.106632 -0.73935 0
M  V30 847 H 80.4203 -0.438184 -1.8991 0
M  V30 848 H 79.5163 0.537972 -3.07428 0
M  V30 849 N 79.8174 1.5752 -0.0501392 0
M  V30 850 C 81.2284 1.80271 0.485705 0
M  V30 851 C 81.5794 0.96228 1.70981 0
M  V30 852 O 80.7044 0.178578 2.15662 0
M  V30 853 C 81.2994 3.26957 0.887938 0
M  V30 854 C 79.8584 3.5063 1.36877 0
M  V30 855 C 79.0054 2.75165 0.343468 0
M  V30 856 H 81.9564 1.56281 -0.276028 0
M  V30 857 H 81.9774 3.37821 1.75093 0
M  V30 858 H 81.4894 3.881 -0.0031809 0
M  V30 859 H 79.5904 2.94766 2.27911 0
M  V30 860 H 79.7034 4.59343 1.36164 0
M  V30 861 H 78.0674 2.4127 0.816128 0
M  V30 862 H 78.8504 3.39034 -0.539548 0
M  V30 863 N 81.2955 -0.223234 1.56011 0
M  V30 864 C 82.7065 -0.790368 1.69145 0
M  V30 865 C 83.0575 -1.85055 0.651845 0
M  V30 866 O 82.1825 -2.15498 -0.197359 0
M  V30 867 C 82.7775 -1.4404 3.06656 0
M  V30 868 C 81.3365 -1.95494 3.2165 0
M  V30 869 C 80.4835 -0.814506 2.65068 0
M  V30 870 H 83.4345 0.00139011 1.587 0
M  V30 871 H 83.4555 -2.30916 3.0242 0
M  V30 872 H 82.9675 -0.668543 3.82298 0
M  V30 873 H 81.0685 -2.75487 2.50874 0
M  V30 874 H 81.1815 -2.13607 4.28846 0
M  V30 875 H 79.5455 -1.22137 2.23505 0
M  V30 876 H 80.3285 -0.0553515 3.43255 0
M  V30 877 N 82.7736 -1.49793 -0.48987 0
M  V30 878 C 84.0216 -1.59525 -1.24081 0
M  V30 879 C 84.3426 -0.288953 -1.92847 0
M  V30 880 O 83.6126 0.692436 -1.83254 0
M  V30 881 H 82.1926 -0.587796 -0.460983 0
M  V30 882 H 84.8546 -1.86477 -0.566778 0
M  V30 883 H 83.9506 -2.39696 -1.99881 0
M  V30 884 N 84.2517 0.741722 -1.39055 0
M  V30 885 C 85.4767 1.53607 -1.39354 0
M  V30 886 C 85.9017 1.88096 0.0116905 0
M  V30 887 O 85.2597 1.5143 0.996924 0
M  V30 888 C 85.3077 2.80441 -2.26682 0
M  V30 889 O 84.4117 3.76088 -1.69208 0
M  V30 890 H 83.7527 0.464142 -0.474835 0
M  V30 891 H 86.2827 0.915665 -1.82967 0
M  V30 892 H 86.2927 3.29246 -2.40959 0
M  V30 893 H 84.9677 2.5467 -3.2881 0
M  V30 894 H 83.5447 3.34833 -1.64138 0
M  V30 895 N 85.7298 1.2412 0.971189 0
M  V30 896 C 86.9768 1.07881 1.71371 0
M  V30 897 C 87.3048 -0.382901 1.90694 0
M  V30 898 O 86.5598 -1.29945 1.46331 0
M  V30 899 C 86.8588 1.75983 3.11071 0
M  V30 900 C 86.5248 3.25909 3.11599 0
M  V30 901 C 85.1868 3.66813 3.11451 0
M  V30 902 C 87.5388 4.21771 3.062 0
M  V30 903 C 84.8668 5.02021 3.03631 0
M  V30 904 C 87.2188 5.56982 2.99923 0
M  V30 905 C 85.8828 5.97237 2.98102 0
M  V30 906 H 85.1528 0.394764 0.62709 0
M  V30 907 H 87.7998 1.54176 1.13587 0
M  V30 908 H 86.1048 1.22072 3.72298 0
M  V30 909 H 87.8018 1.60887 3.6731 0
M  V30 910 H 84.3918 2.93353 3.12477 0
M  V30 911 H 88.5758 3.91172 3.05447 0
M  V30 912 H 83.8318 5.32411 3.0058 0
M  V30 913 H 88.0058 6.30969 2.94704 0
M  V30 914 H 85.6328 7.01967 2.91798 0
M  V30 915 N 87.2079 -1.17134 1.05439 0
M  V30 916 C 88.4549 -1.87456 0.765942 0
M  V30 917 C 88.7829 -1.81189 -0.707153 0
M  V30 918 O 88.0379 -1.21633 -1.5331 0
M  V30 919 C 88.3369 -3.36833 1.19491 0
M  V30 920 C 88.0029 -3.63301 2.67063 0
M  V30 921 C 86.6649 -3.70234 3.07376 0
M  V30 922 C 89.0169 -3.74575 3.62413 0
M  V30 923 C 86.3449 -3.85933 4.41896 0
M  V30 924 C 88.6969 -3.91793 4.9667 0
M  V30 925 C 87.3609 -3.96966 5.36633 0
M  V30 926 H 86.6309 -0.685948 0.280278 0
M  V30 927 H 89.2779 -1.38556 1.32192 0
M  V30 928 H 87.5829 -3.87807 0.557969 0
M  V30 929 H 89.2799 -3.89611 0.948893 0
M  V30 930 H 85.8699 -3.58532 2.34846 0
M  V30 931 H 90.0539 -3.68537 3.32406 0
M  V30 932 H 85.3099 -3.88187 4.72357 0
M  V30 933 H 89.4839 -3.99458 5.70444 0
M  V30 934 H 87.1109 -4.08883 6.40874 0
M  V30 935 N 88.686 -0.835752 -1.33615 0
M  V30 936 C 89.934 -0.429109 -1.97492 0
M  V30 937 C 90.255 1.01433 -1.66543 0
M  V30 938 O 89.525 1.70611 -0.962744 0
M  V30 939 H 88.105 -0.155686 -0.730596 0
M  V30 940 H 90.767 -1.06802 -1.63031 0
M  V30 941 H 89.863 -0.55861 -3.0706 0
M  V30 942 N 90.1641 1.46063 -0.591896 0
M  V30 943 C 91.4111 2.02338 -0.0809991 0
M  V30 944 C 91.7391 1.46228 1.28249 0
M  V30 945 O 90.9941 0.620818 1.85592 0
M  V30 946 C 91.2931 3.57391 0.0249813 0
M  V30 947 C 90.9591 4.32583 -1.27211 0
M  V30 948 C 89.6211 4.52844 -1.62745 0
M  V30 949 C 91.9731 4.75687 -2.13005 0
M  V30 950 C 89.3011 5.13462 -2.83855 0
M  V30 951 C 91.6531 5.37644 -3.3335 0
M  V30 952 C 90.3171 5.5613 -3.69155 0
M  V30 953 H 89.5871 0.740407 -0.0296397 0
M  V30 954 H 92.2341 1.75321 -0.770374 0
M  V30 955 H 90.5391 3.83597 0.797537 0
M  V30 956 H 92.2361 3.98621 0.436184 0
M  V30 957 H 88.8261 4.17116 -0.985499 0
M  V30 958 H 93.0101 4.59782 -1.86855 0
M  V30 959 H 88.2661 5.25965 -3.11722 0
M  V30 960 H 92.4401 5.7 -4.00092 0
M  V30 961 H 90.0671 6.0287 -4.63089 0
M  V30 962 N 91.6422 0.330177 1.54103 0
M  V30 963 C 92.8672 -0.274893 2.0557 0
M  V30 964 C 93.2922 -1.44487 1.20437 0
M  V30 965 O 92.6502 -1.80021 0.214991 0
M  V30 966 C 92.6982 -0.68079 3.54115 0
M  V30 967 O 91.8022 -1.7824 3.71893 0
M  V30 968 H 91.1432 -0.0483849 0.662235 0
M  V30 969 H 93.6732 0.480508 1.98878 0
M  V30 970 H 93.6832 -0.961635 3.96505 0
M  V30 971 H 92.3582 0.174903 4.15532 0
M  V30 972 H 90.9352 -1.49985 3.41407 0
M  V30 973 N 93.1203 -1.57491 0.0584922 0
M  V30 974 C 94.3663 -1.93264 -0.614558 0
M  V30 975 C 94.6993 -0.937717 -1.7006 0
M  V30 976 O 93.9743 0.0351652 -1.94468 0
M  V30 977 C 94.2573 -3.3938 -1.20386 0
M  V30 978 C 94.1103 -4.49625 -0.125375 0
M  V30 979 C 95.4293 -3.86039 -2.11334 0
M  V30 980 H 92.5483 -0.702791 -0.221933 0
M  V30 981 H 95.1903 -1.8961 0.12175 0
M  V30 982 H 93.3403 -3.42626 -1.83139 0
M  V30 983 H 95.0123 -4.58506 0.506971 0
M  V30 984 H 93.2553 -4.30354 0.545672 0
M  V30 985 H 93.9263 -5.48967 -0.577861 0
M  V30 986 H 96.4023 -3.84716 -1.58534 0
M  V30 987 H 95.2783 -4.88914 -2.49507 0
M  V30 988 H 95.5393 -3.23215 -3.01636 0
M  V30 989 N 94.5984 0.214957 -1.56127 0
M  V30 990 C 95.5084 1.28727 -1.96129 0
M  V30 991 C 96.5244 1.50916 -0.866044 0
M  V30 992 O 97.7004 1.63918 -1.17016 0
M  V30 993 C 94.7654 2.61569 -2.27558 0
M  V30 994 C 93.8264 2.47625 -3.50685 0
M  V30 995 C 93.0594 3.74132 -3.80606 0
M  V30 996 O 93.2824 4.77438 -3.12104 0
M  V30 997 O 92.2164 3.70849 -4.74083 0
M  V30 998 H 96.0424 0.977855 -2.87527 0
M  V30 999 H 93.6274 0.418358 -1.43423 0
M  V30 1000 H 95.5094 3.40012 -2.48938 0
M  V30 1001 H 94.1844 2.92178 -1.39332 0
M  V30 1002 H 93.0914 1.67361 -3.34576 0
M  V30 1003 H 94.4244 2.21954 -4.39315 0
M  V30 1004 N 96.0765 1.50051 0.48192 0
M  V30 1005 C 97.3235 1.60498 1.23477 0
M  V30 1006 C 97.6515 0.300331 1.92167 0
M  V30 1007 O 96.9065 -0.713094 1.82246 0
M  V30 1008 C 97.2055 2.72717 2.30998 0
M  V30 1009 C 96.8715 4.13572 1.79636 0
M  V30 1010 C 95.5335 4.519 1.65348 0
M  V30 1011 C 97.8855 5.01649 1.41412 0
M  V30 1012 C 95.2135 5.76057 1.11244 0
M  V30 1013 C 97.5655 6.26343 0.887538 0
M  V30 1014 C 96.2295 6.63483 0.731207 0
M  V30 1015 H 95.4995 0.587303 0.451836 0
M  V30 1016 H 98.1465 1.83948 0.532468 0
M  V30 1017 H 96.4515 2.43312 3.07094 0
M  V30 1018 H 98.1485 2.78006 2.88988 0
M  V30 1019 H 94.7385 3.83329 1.91721 0
M  V30 1020 H 98.9225 4.72679 1.51289 0
M  V30 1021 H 94.1785 6.03516 0.978686 0
M  V30 1022 H 98.3525 6.93958 0.582654 0
M  V30 1023 H 95.9795 7.59568 0.309806 0
M  V30 1024 N 97.5546 -0.734337 1.39446 0
M  V30 1025 C 98.7846 -1.52137 1.39778 0
M  V30 1026 C 99.1926 -1.89198 -0.00929312 0
M  V30 1027 O 98.5356 -1.54666 -0.991168 0
M  V30 1028 C 98.5976 -2.83762 2.20724 0
M  V30 1029 C 98.2616 -2.69131 3.69347 0
M  V30 1030 C 99.2586 -2.37635 4.62413 0
M  V30 1031 C 96.9436 -2.85982 4.1294 0
M  V30 1032 C 98.9376 -2.23172 5.97054 0
M  V30 1033 C 96.6246 -2.71137 5.47657 0
M  V30 1034 C 97.6226 -2.39777 6.39528 0
M  V30 1035 O 97.3106 -2.25026 7.71763 0
M  V30 1036 H 97.0426 -0.476717 0.479288 0
M  V30 1037 H 99.5966 -0.915012 1.83893 0
M  V30 1038 H 97.8266 -3.4666 1.71359 0
M  V30 1039 H 99.5156 -3.45383 2.13226 0
M  V30 1040 H 100.282 -2.24267 4.30034 0
M  V30 1041 H 96.1606 -3.09383 3.41765 0
M  V30 1042 H 99.7046 -1.98617 6.68728 0
M  V30 1043 H 95.6016 -2.84083 5.79626 0
M  V30 1044 H 96.3696 -2.40091 7.82495 0
M  V30 1045 N 99.0327 -1.24633 -0.964593 0
M  V30 1046 C 100.449 -1.01239 -1.2338 0
M  V30 1047 C 100.649 0.2769 -1.99588 0
M  V30 1048 O 99.7047 0.992241 -2.32187 0
M  V30 1049 C 101.018 -2.22937 -2.01791 0
M  V30 1050 C 102.566 -2.27594 -2.14872 0
M  V30 1051 C 103.041 -3.48921 -2.96678 0
M  V30 1052 N 104.532 -3.49257 -3.04259 0
M  V30 1053 C 105.267 -4.39795 -3.67924 0
M  V30 1054 N 104.763 -5.40591 -4.33281 0
M  V30 1055 N 106.556 -4.275 -3.64966 0
M  V30 1056 H 98.7067 -2.0748 -0.454502 0
M  V30 1057 H 100.97 -0.910647 -0.26349 0
M  V30 1058 H 100.676 -3.16587 -1.53184 0
M  V30 1059 H 100.55 -2.25306 -3.02518 0
M  V30 1060 H 102.937 -1.34473 -2.6268 0
M  V30 1061 H 103.018 -2.2925 -1.13482 0
M  V30 1062 H 102.662 -4.42359 -2.49562 0
M  V30 1063 H 102.592 -3.4451 -3.98272 0
M  V30 1064 H 105.083 -2.76337 -2.57771 0
M  V30 1065 H 105.396 -6.05904 -4.79687 0
M  V30 1066 H 103.741 -5.44475 -4.3194 0
M  V30 1067 H 106.932 -3.47987 -3.13086 0
M  V30 1068 H 107.105 -4.98258 -4.14298 0
M  V30 1069 N 100.511 1.16574 -1.06058 0
M  V30 1070 C 101.922 1.68662 -0.800632 0
M  V30 1071 C 102.273 1.84184 0.67608 0
M  V30 1072 O 101.398 1.53568 1.52466 0
M  V30 1073 C 101.993 3.06356 -1.44676 0
M  V30 1074 C 100.552 3.55575 -1.23465 0
M  V30 1075 C 99.6988 2.31616 -1.52477 0
M  V30 1076 H 102.65 1.00969 -1.22438 0
M  V30 1077 H 102.671 3.70636 -0.860788 0
M  V30 1078 H 102.183 2.95027 -2.52152 0
M  V30 1079 H 100.284 3.72167 -0.179527 0
M  V30 1080 H 100.397 4.37812 -1.94571 0
M  V30 1081 H 98.7608 2.36512 -0.945209 0
M  V30 1082 H 99.5438 2.22887 -2.61106 0
M  V30 1083 N 101.989 0.842826 1.3317 0
M  V30 1084 C 103.237 0.439577 1.97262 0
M  V30 1085 C 103.558 -1.00548 1.67078 0
M  V30 1086 O 102.828 -1.70098 0.971779 0
M  V30 1087 H 101.408 0.159558 0.72976 0
M  V30 1088 H 104.07 1.07665 1.62463 0
M  V30 1089 H 103.166 0.574886 3.0676 0
M  V30 1090 N 103.467 -1.45747 0.599634 0
M  V30 1091 C 104.695 -2.06668 0.0978551 0
M  V30 1092 C 105.11 -1.44562 -1.21439 0
M  V30 1093 O 104.467 -0.556923 -1.73795 0
M  V30 1094 C 104.518 -3.61456 -0.0567044 0
M  V30 1095 O 104.239 -4.21242 1.20361 0
M  V30 1096 C 105.74 -4.39345 -0.590869 0
M  V30 1097 H 102.96 -0.667825 0.0651943 0
M  V30 1098 H 105.504 -1.87115 0.82511 0
M  V30 1099 H 103.659 -3.80378 -0.734251 0
M  V30 1100 H 104.073 -5.14323 1.02821 0
M  V30 1101 H 105.547 -5.48182 -0.648131 0
M  V30 1102 H 106.024 -4.08568 -1.61147 0
M  V30 1103 H 106.63 -4.25268 0.0523679 0
M  V30 1104 N 104.945 -0.338344 -1.53925 0
M  V30 1105 C 106.222 0.314774 -1.93051 0
M  V30 1106 C 106.602 1.68669 -1.26941 0
M  V30 1107 O 105.95 2.24636 -0.418445 0
M  V30 1108 C 106.16 0.392249 -3.46789 0
M  V30 1109 C 107.508 0.645554 -4.19664 0
M  V30 1110 O 108.532 0.474575 -3.53024 0
M  V30 1111 O 107.391 0.976408 -5.37707 0
M  V30 1112 H 104.485 0.182598 -0.80659 0
M  V30 1113 H 107.031 -0.389141 -1.65178 0
M  V30 1114 H 105.803 -0.570702 -3.87116 0
M  V30 1115 H 105.426 1.14316 -3.80812 0
M  V30 1116 N 106.423 1.57458 -0.0668435 0
M  V30 1117 C 107.671 1.92919 0.602214 0
M  V30 1118 C 107.992 0.947215 1.70449 0
M  V30 1119 O 107.262 -0.00544117 1.95899 0
M  V30 1120 H 105.842 0.71217 0.22544 0
M  V30 1121 H 108.504 1.94508 -0.123535 0
M  V30 1122 H 107.6 2.94589 1.03073 0
M  V30 1123 N 107.901 -0.206675 1.56239 0
M  V30 1124 C 109.147 -0.930218 1.80208 0
M  V30 1125 C 109.48 -1.83387 0.638981 0
M  V30 1126 O 108.755 -1.91119 -0.361066 0
M  V30 1127 C 109.038 -1.75641 3.1436 0
M  V30 1128 C 108.891 -0.878257 4.41142 0
M  V30 1129 C 110.21 -2.73129 3.45092 0
M  V30 1130 H 107.329 -0.336742 0.655571 0
M  V30 1131 H 109.971 -0.198222 1.88963 0
M  V30 1132 H 108.121 -2.38048 3.07027 0
M  V30 1133 H 109.793 -0.269787 4.6051 0
M  V30 1134 H 108.036 -0.184385 4.33408 0
M  V30 1135 H 108.707 -1.49106 5.3148 0
M  V30 1136 H 111.183 -2.20856 3.52649 0
M  V30 1137 H 110.059 -3.28028 4.40101 0
M  V30 1138 H 110.32 -3.51606 2.68003 0
M  V30 1139 N 109.379 -1.50304 -0.473955 0
M  V30 1140 C 110.604 -1.65175 -1.25427 0
M  V30 1141 C 111.029 -0.333673 -1.85117 0
M  V30 1142 O 110.387 0.702114 -1.67153 0
M  V30 1143 C 110.435 -2.74295 -2.34082 0
M  V30 1144 O 109.539 -2.35349 -3.38651 0
M  V30 1145 H 108.88 -0.551944 -0.369126 0
M  V30 1146 H 111.41 -1.96662 -0.564364 0
M  V30 1147 H 111.42 -2.97285 -2.79438 0
M  V30 1148 H 110.095 -3.69959 -1.90008 0
M  V30 1149 H 108.672 -2.22794 -2.99027 0
M  V30 1150 N 110.857 0.726932 -1.39834 0
M  V30 1151 C 112.103 1.48884 -1.377 0
M  V30 1152 C 112.436 1.94185 0.0244852 0
M  V30 1153 O 111.711 1.67361 0.990986 0
M  V30 1154 C 111.994 2.72288 -2.3565 0
M  V30 1155 C 111.847 2.32956 -3.84775 0
M  V30 1156 C 113.166 3.74414 -2.31306 0
M  V30 1157 H 110.285 0.540062 -0.5015 0
M  V30 1158 H 112.927 0.830547 -1.70886 0
M  V30 1159 H 111.077 3.28457 -2.07481 0
M  V30 1160 H 112.749 1.82356 -4.23726 0
M  V30 1161 H 110.992 1.65088 -4.01159 0
M  V30 1162 H 111.663 3.21362 -4.4881 0
M  V30 1163 H 114.139 3.27849 -2.56231 0
M  V30 1164 H 113.015 4.58414 -3.01907 0
M  V30 1165 H 113.276 4.21909 -1.32081 0
M  V30 1166 N 112.336 1.25143 0.95797 0
M  V30 1167 C 113.266 1.07711 2.07173 0
M  V30 1168 C 114.247 -0.0128462 1.70095 0
M  V30 1169 O 115.432 0.156061 1.93572 0
M  V30 1170 C 112.562 0.691503 3.40346 0
M  V30 1171 C 111.516 1.73132 3.9142 0
M  V30 1172 C 110.842 1.20049 5.21049 0
M  V30 1173 C 112.142 3.1294 4.1817 0
M  V30 1174 H 113.836 2.00873 2.22014 0
M  V30 1175 H 111.382 0.967191 1.06684 0
M  V30 1176 H 113.335 0.556505 4.17709 0
M  V30 1177 H 112.059 -0.275819 3.25433 0
M  V30 1178 H 110.718 1.8547 3.16222 0
M  V30 1179 H 110.366 0.223499 5.02503 0
M  V30 1180 H 110.066 1.89545 5.56189 0
M  V30 1181 H 111.59 1.07782 6.01012 0
M  V30 1182 H 113.004 3.03775 4.86203 0
M  V30 1183 H 111.401 3.79875 4.64559 0
M  V30 1184 H 112.471 3.6025 3.24573 0
M  V30 1185 N 113.814 -1.1601 1.06675 0
M  V30 1186 C 115.06 -1.86909 0.786945 0
M  V30 1187 C 115.393 -1.81717 -0.685018 0
M  V30 1188 O 114.668 -1.23551 -1.50218 0
M  V30 1189 C 114.951 -3.36313 1.28707 0
M  V30 1190 C 114.804 -3.50175 2.82308 0
M  V30 1191 C 116.123 -4.3084 0.898071 0
M  V30 1192 H 113.242 -0.678677 0.287343 0
M  V30 1193 H 115.884 -1.36336 1.32334 0
M  V30 1194 H 114.034 -3.79513 0.830768 0
M  V30 1195 H 115.706 -3.15886 3.36175 0
M  V30 1196 H 113.949 -2.91959 3.20847 0
M  V30 1197 H 114.62 -4.55116 3.12368 0
M  V30 1198 H 117.096 -3.95561 1.29114 0
M  V30 1199 H 115.972 -5.33876 1.27543 0
M  V30 1200 H 116.233 -4.41662 -0.196651 0
M  V30 1201 N 115.292 -0.849877 -1.32721 0
M  V30 1202 C 116.54 -0.450032 -1.97026 0
M  V30 1203 C 116.861 0.996604 -1.67609 0
M  V30 1204 O 116.131 1.6958 -0.980786 0
M  V30 1205 H 114.711 -0.163426 -0.728904 0
M  V30 1206 H 117.373 -1.08526 -1.6189 0
M  V30 1207 H 116.469 -0.591146 -3.0645 0
M  V30 1208 N 116.77 1.45427 -0.607355 0
M  V30 1209 C 117.733 2.28974 0.101693 0
M  V30 1210 C 118.733 1.39754 0.795329 0
M  V30 1211 O 119.923 1.61878 0.643527 0
M  V30 1212 C 117.055 3.20768 1.15414 0
M  V30 1213 H 118.248 2.93147 -0.632844 0
M  V30 1214 H 115.801 1.51945 -0.366391 0
M  V30 1215 H 116.536 2.61395 1.91945 0
M  V30 1216 H 116.321 3.86489 0.66098 0
M  V30 1217 H 117.811 3.83589 1.65073 0
M  V30 1218 N 118.248 0.346503 1.53744 0
M  V30 1219 C 119.659 -0.136779 1.86198 0
M  V30 1220 C 120.01 -1.49749 1.26766 0
M  V30 1221 O 119.135 -2.08417 0.582355 0
M  V30 1222 C 119.73 -0.254966 3.37839 0
M  V30 1223 C 118.289 -0.682482 3.70161 0
M  V30 1224 C 117.436 0.181981 2.76702 0
M  V30 1225 H 120.387 0.565994 1.48264 0
M  V30 1226 H 120.408 -1.08195 3.64793 0
M  V30 1227 H 119.92 0.735526 3.81066 0
M  V30 1228 H 118.021 -1.68189 3.3248 0
M  V30 1229 H 118.134 -0.470326 4.76786 0
M  V30 1230 H 116.498 -0.34615 2.52337 0
M  V30 1231 H 117.281 1.16966 3.2276 0
M  V30 1232 N 119.726 -1.57421 0.075193 0
M  V30 1233 C 120.673 -2.12915 -0.890843 0
M  V30 1234 C 121.643 -1.04252 -1.29309 0
M  V30 1235 O 122.828 -1.31933 -1.37834 0
M  V30 1236 C 119.968 -2.69795 -2.15186 0
M  V30 1237 C 119.081 -3.92624 -1.80194 0
M  V30 1238 C 118.216 -4.37736 -3.00933 0
M  V30 1239 C 117.255 -5.53205 -2.61974 0
M  V30 1240 N 116.392 -5.9326 -3.75483 0
M  V30 1241 H 121.232 -2.95156 -0.410735 0
M  V30 1242 H 118.769 -1.45854 -0.191086 0
M  V30 1243 H 120.727 -3.00883 -2.89008 0
M  V30 1244 H 119.357 -1.90313 -2.60731 0
M  V30 1245 H 118.409 -3.67977 -0.964218 0
M  V30 1246 H 119.721 -4.76482 -1.47534 0
M  V30 1247 H 118.875 -4.70503 -3.8303 0
M  V30 1248 H 117.614 -3.52739 -3.36789 0
M  V30 1249 H 116.619 -5.20086 -1.783 0
M  V30 1250 H 117.844 -6.39936 -2.27284 0
M  V30 1251 H 115.79 -5.11212 -4.11094 0
M  V30 1252 H 115.707 -6.71865 -3.46602 0
M  V30 1253 H 116.975 -6.30651 -4.58148 0
M  V30 1254 N 121.204 0.198386 -1.56346 0
M  V30 1255 C 122.167 1.22952 -1.93431 0
M  V30 1256 C 123.167 1.38611 -0.815092 0
M  V30 1257 O 124.357 1.36479 -1.08255 0
M  V30 1258 C 121.489 2.59946 -2.20546 0
M  V30 1259 H 122.682 0.912626 -2.85677 0
M  V30 1260 H 120.235 0.43977 -1.49986 0
M  V30 1261 H 120.97 2.96696 -1.30927 0
M  V30 1262 H 120.755 2.49953 -3.02102 0
M  V30 1263 H 122.245 3.3431 -2.50253 0
M  V30 1264 N 122.682 1.50554 0.465978 0
M  V30 1265 C 123.63 1.70324 1.58406 0
M  V30 1266 C 124.624 0.569139 1.59553 0
M  V30 1267 O 125.83 0.749776 1.63641 0
M  V30 1268 H 122.205 0.537688 0.525734 0
M  V30 1269 H 124.176 2.64104 1.38894 0
M  V30 1270 C 122.925 1.81928 2.96307 0
M  V30 1271 H 122.248 2.68586 2.96144 0
M  V30 1272 H 123.688 1.99784 3.73982 0
M  V30 1273 C 122.147 0.572095 3.32007 0
M  V30 1274 O 122.677 -0.286416 4.00678 0
M  V30 1275 N 120.883 0.424606 2.87481 0
M  V30 1276 H 120.43 1.12427 2.31771 0
M  V30 1277 H 120.388 -0.408697 3.11732 0
M  V30 1278 N 124.16 -0.719506 1.40217 0
M  V30 1279 C 125.388 -1.50864 1.41589 0
M  V30 1280 C 125.803 -1.88794 0.0145275 0
M  V30 1281 O 125.16 -1.55174 -0.960594 0
M  V30 1282 C 125.211 -2.78646 2.30302 0
M  V30 1283 O 124.932 -2.42321 3.64983 0
M  V30 1284 C 126.433 -3.72569 2.40224 0
M  V30 1285 H 123.653 -0.465709 0.48307 0
M  V30 1286 H 126.197 -0.88785 1.84221 0
M  V30 1287 H 124.352 -3.37019 1.91042 0
M  V30 1288 H 124.766 -3.24514 4.12057 0
M  V30 1289 H 126.24 -4.5908 3.06512 0
M  V30 1290 H 126.717 -4.15403 1.42608 0
M  V30 1291 H 127.323 -3.20109 2.80019 0
M  V30 1292 N 125.638 -1.25649 -0.95132 0
M  V30 1293 C 126.863 -1.13443 -1.73624 0
M  V30 1294 C 127.288 0.307565 -1.85568 0
M  V30 1295 O 126.646 1.22282 -1.33854 0
M  V30 1296 C 126.694 -1.79723 -3.12621 0
M  V30 1297 O 125.798 -1.07912 -3.98031 0
M  V30 1298 H 125.139 -0.395872 -0.533086 0
M  V30 1299 H 127.669 -1.66276 -1.1922 0
M  V30 1300 H 127.679 -1.86141 -3.63064 0
M  V30 1301 H 126.354 -2.84633 -3.03244 0
M  V30 1302 H 124.931 -1.09398 -3.56492 0
M  V30 1303 N 127.117 1.15442 -1.07289 0
M  V30 1304 C 128.049 2.19773 -0.650585 0
M  V30 1305 C 129.062 1.60076 0.296572 0
M  V30 1306 O 130.251 1.78293 0.0859905 0
M  V30 1307 C 127.351 3.38838 0.0650398 0
M  V30 1308 C 126.524 4.2808 -0.898141 0
M  V30 1309 C 125.583 5.2574 -0.219926 0
M  V30 1310 O 124.609 5.62654 -0.860773 0
M  V30 1311 N 125.811 5.71205 1.03466 0
M  V30 1312 H 128.576 2.56622 -1.54808 0
M  V30 1313 H 126.137 1.30551 -0.957494 0
M  V30 1314 H 128.129 4.01222 0.529415 0
M  V30 1315 H 126.699 3.00409 0.864466 0
M  V30 1316 H 125.919 3.62804 -1.54165 0
M  V30 1317 H 127.207 4.84577 -1.5512 0
M  V30 1318 H 126.605 5.43325 1.57526 0
M  V30 1319 H 125.162 6.35633 1.44272 0
M  V30 1320 N 128.595 0.856903 1.32268 0
M  V30 1321 C 130.006 0.515711 1.79436 0
M  V30 1322 C 130.357 -0.966586 1.70738 0
M  V30 1323 O 129.482 -1.75409 1.26731 0
M  V30 1324 C 130.077 0.929335 3.25805 0
M  V30 1325 C 128.636 0.640006 3.70919 0
M  V30 1326 C 127.783 1.12784 2.53328 0
M  V30 1327 H 130.734 1.04389 1.19535 0
M  V30 1328 H 130.755 0.246633 3.797 0
M  V30 1329 H 130.267 2.00821 3.32103 0
M  V30 1330 H 128.368 -0.428051 3.70133 0
M  V30 1331 H 128.481 1.20788 4.63624 0
M  V30 1332 H 126.845 0.548033 2.48734 0
M  V30 1333 H 127.628 2.21387 2.62379 0
M  V30 1334 N 130.073 -1.45103 0.615059 0
M  V30 1335 C 131.321 -2.01784 0.112955 0
M  V30 1336 C 131.642 -1.48504 -1.26378 0
M  V30 1337 O 130.912 -0.682245 -1.83636 0
M  V30 1338 H 129.492 -0.745993 0.0387668 0
M  V30 1339 H 132.154 -1.77808 0.798141 0
M  V30 1340 H 131.25 -3.12025 0.0684069 0
M  V30 1341 N 131.551 -0.354651 -1.53558 0
M  V30 1342 C 132.797 0.238797 -2.01389 0
M  V30 1343 C 133.13 1.49309 -1.2418 0
M  V30 1344 O 132.405 1.91638 -0.332457 0
M  V30 1345 C 132.688 0.541771 -3.56001 0
M  V30 1346 C 132.541 -0.725388 -4.43912 0
M  V30 1347 C 133.86 1.34685 -4.18984 0
M  V30 1348 H 130.979 0.0853177 -0.732045 0
M  V30 1349 H 133.621 -0.477384 -1.83905 0
M  V30 1350 H 131.771 1.15189 -3.71031 0
M  V30 1351 H 133.443 -1.36313 -4.407 0
M  V30 1352 H 131.686 -1.34801 -4.12324 0
M  V30 1353 H 132.357 -0.468505 -5.50008 0
M  V30 1354 H 134.833 0.830837 -4.07721 0
M  V30 1355 H 133.709 1.52759 -5.27215 0
M  V30 1356 H 133.97 2.35221 -3.74331 0
M  V30 1357 N 133.029 1.57378 -0.0835403 0
M  V30 1358 C 133.959 2.1641 0.87686 0
M  V30 1359 C 134.94 1.09429 1.30228 0
M  V30 1360 O 136.125 1.37516 1.37124 0
M  V30 1361 C 133.255 2.73517 2.14022 0
M  V30 1362 C 132.209 3.85769 1.85381 0
M  V30 1363 C 131.535 4.29529 3.18448 0
M  V30 1364 C 132.835 5.09486 1.14984 0
M  V30 1365 H 134.529 2.96914 0.385059 0
M  V30 1366 H 132.075 1.42823 0.18377 0
M  V30 1367 H 134.028 3.13463 2.81636 0
M  V30 1368 H 132.752 1.90252 2.65465 0
M  V30 1369 H 131.411 3.46345 1.20169 0
M  V30 1370 H 131.059 3.43169 3.67755 0
M  V30 1371 H 130.759 5.05204 3.00071 0
M  V30 1372 H 132.283 4.72099 3.8724 0
M  V30 1373 H 133.697 5.46674 1.72687 0
M  V30 1374 H 132.094 5.90515 1.06826 0
M  V30 1375 H 133.164 4.84724 0.130749 0
M  V30 1376 N 134.507 -0.190092 1.56449 0
M  V30 1377 C 135.439 -1.25973 1.91477 0
M  V30 1378 C 136.452 -1.41452 0.805931 0
M  V30 1379 O 137.641 -1.41789 1.08435 0
M  V30 1380 C 134.741 -2.63117 2.13594 0
M  V30 1381 C 133.914 -2.69182 3.4476 0
M  V30 1382 C 132.973 -3.87557 3.5593 0
M  V30 1383 O 131.999 -3.74427 4.28711 0
M  V30 1384 N 133.201 -5.03224 2.89388 0
M  V30 1385 H 135.966 -0.962394 2.83828 0
M  V30 1386 H 133.527 -0.379981 1.57378 0
M  V30 1387 H 135.519 -3.40742 2.1835 0
M  V30 1388 H 134.089 -2.85319 1.27719 0
M  V30 1389 H 133.309 -1.77793 3.51828 0
M  V30 1390 H 134.597 -2.70229 4.31107 0
M  V30 1391 H 133.995 -5.16791 2.30094 0
M  V30 1392 H 132.552 -5.78778 2.99764 0
M  V30 1393 N 135.985 -1.50799 -0.457987 0
M  V30 1394 C 137.233 -1.62121 -1.2067 0
M  V30 1395 C 137.554 -0.329793 -1.92191 0
M  V30 1396 O 136.824 0.653409 -1.84682 0
M  V30 1397 H 135.404 -0.597441 -0.448411 0
M  V30 1398 H 138.066 -1.87637 -0.527096 0
M  V30 1399 H 137.162 -2.43882 -1.94751 0
M  V30 1400 N 137.463 0.71206 -1.40597 0
M  V30 1401 C 138.711 1.46907 -1.38791 0
M  V30 1402 C 139.032 1.94998 0.00780391 0
M  V30 1403 O 138.302 1.70587 0.963174 0
M  V30 1404 H 136.882 0.545043 -0.51082 0
M  V30 1405 H 139.544 0.843882 -1.75683 0
M  V30 1406 H 138.64 2.34021 -2.06496 0
M  V30 1407 N 138.941 1.26152 0.944643 0
M  V30 1408 C 139.904 1.07474 2.0244 0
M  V30 1409 C 140.904 0.0242064 1.60782 0
M  V30 1410 O 142.094 0.267302 1.72137 0
M  V30 1411 C 139.226 0.633956 3.34953 0
M  V30 1412 H 140.419 2.03336 2.20442 0
M  V30 1413 H 137.972 1.087 1.12312 0
M  V30 1414 H 138.707 -0.326811 3.22649 0
M  V30 1415 H 138.492 1.39247 3.66542 0
M  V30 1416 H 139.982 0.52501 4.14287 0
M  V30 1417 N 140.419 -1.14872 1.07899 0
M  V30 1418 C 141.665 -1.86064 0.806725 0
M  V30 1419 C 141.998 -1.82434 -0.665706 0
M  V30 1420 O 141.273 -1.25138 -1.48899 0
M  V30 1421 C 141.556 -3.34929 1.32267 0
M  V30 1422 C 141.409 -3.47161 2.86006 0
M  V30 1423 C 142.728 -4.29863 0.943717 0
M  V30 1424 H 139.847 -0.675591 0.294526 0
M  V30 1425 H 142.489 -1.34925 1.33773 0
M  V30 1426 H 140.639 -3.78611 0.870974 0
M  V30 1427 H 142.311 -3.12302 3.39507 0
M  V30 1428 H 140.554 -2.88539 3.23925 0
M  V30 1429 H 141.225 -4.51777 3.17177 0
M  V30 1430 H 143.701 -3.9417 1.33302 0
M  V30 1431 H 142.577 -5.32494 1.33198 0
M  V30 1432 H 142.838 -4.41846 -0.149796 0
M  V30 1433 N 141.898 -0.863906 -1.31812 0
M  V30 1434 C 143.128 -0.485406 -2.00817 0
M  V30 1435 C 143.536 0.925007 -1.65046 0
M  V30 1436 O 142.879 1.61653 -0.872574 0
M  V30 1437 C 142.941 -0.555589 -3.55181 0
M  V30 1438 C 142.605 -1.92654 -4.14407 0
M  V30 1439 C 143.602 -2.89324 -4.31958 0
M  V30 1440 C 141.287 -2.2262 -4.50273 0
M  V30 1441 C 143.281 -4.14108 -4.84555 0
M  V30 1442 C 140.968 -3.47654 -5.02573 0
M  V30 1443 C 141.966 -4.43214 -5.19664 0
M  V30 1444 O 141.654 -5.66033 -5.70843 0
M  V30 1445 H 141.386 -0.188224 -0.649267 0
M  V30 1446 H 143.94 -1.16514 -1.69156 0
M  V30 1447 H 142.17 0.181037 -3.86276 0
M  V30 1448 H 143.859 -0.19138 -4.05449 0
M  V30 1449 H 144.625 -2.6748 -4.04573 0
M  V30 1450 H 140.504 -1.4902 -4.3625 0
M  V30 1451 H 144.048 -4.88703 -4.9781 0
M  V30 1452 H 139.945 -3.69345 -5.29391 0
M  V30 1453 H 140.713 -5.6812 -5.89222 0
M  V30 1454 N 143.376 1.44774 -0.622745 0
M  V30 1455 C 144.306 2.33382 0.0741861 0
M  V30 1456 C 145.287 1.47719 0.843387 0
M  V30 1457 O 146.472 1.76458 0.810934 0
M  V30 1458 C 143.602 3.30663 1.06204 0
M  V30 1459 C 142.556 4.26079 0.405037 0
M  V30 1460 C 141.882 5.13165 1.5022 0
M  V30 1461 C 143.182 5.1781 -0.683414 0
M  V30 1462 H 144.876 2.91905 -0.665713 0
M  V30 1463 H 142.422 1.40363 -0.321587 0
M  V30 1464 H 144.375 3.9153 1.55827 0
M  V30 1465 H 143.099 2.70331 1.83272 0
M  V30 1466 H 141.758 3.66532 -0.0704683 0
M  V30 1467 H 141.406 4.49191 2.26355 0
M  V30 1468 H 141.106 5.77812 1.06803 0
M  V30 1469 H 142.63 5.76902 2.00041 0
M  V30 1470 H 144.044 5.72661 -0.270631 0
M  V30 1471 H 142.441 5.91015 -1.04023 0
M  V30 1472 H 143.511 4.59326 -1.55395 0
M  V30 1473 N 144.854 0.36279 1.53368 0
M  V30 1474 C 146.094 -0.227882 2.03126 0
M  V30 1475 C 146.458 -1.4622 1.24434 0
M  V30 1476 O 147.659 -2.12831 1.64184 0
M  V30 1477 C 145.93 -0.515427 3.53664 0
M  V30 1478 S 147.489 -1.08017 4.25297 0
M  V30 1479 H 144.307 -0.0665377 0.70788 0
M  V30 1480 H 146.909 0.50501 1.88865 0
M  V30 1481 H 145.613 0.390436 4.08539 0
M  V30 1482 H 145.144 -1.27747 3.72081 0
M  V30 1483 H 147.159 -2.36462 4.36234 0
M  V30 1484 N 146.332 -1.57332 0.0918853 0
M  V30 1485 C 147.743 -1.81496 -0.437739 0
M  V30 1486 C 148.094 -1.00727 -1.6837 0
M  V30 1487 O 147.219 -0.235694 -2.15113 0
M  V30 1488 C 147.814 -3.29197 -0.800939 0
M  V30 1489 C 146.373 -3.54136 -1.27532 0
M  V30 1490 C 145.52 -2.75979 -0.270392 0
M  V30 1491 H 148.471 -1.55494 0.317366 0
M  V30 1492 H 148.492 -3.42344 -1.66074 0
M  V30 1493 H 148.004 -3.87955 0.106078 0
M  V30 1494 H 146.105 -3.00705 -2.20016 0
M  V30 1495 H 146.218 -4.62792 -1.23938 0
M  V30 1496 H 144.582 -2.43349 -0.751872 0
M  V30 1497 H 145.365 -3.37484 0.629248 0
M  V30 1498 N 147.81 0.181792 -1.56548 0
M  V30 1499 C 149.056 0.896803 -1.82562 0
M  V30 1500 C 149.411 1.80324 -0.670908 0
M  V30 1501 O 148.704 1.8868 0.333235 0
M  V30 1502 C 148.898 1.73728 -3.12335 0
M  V30 1503 C 148.727 0.913714 -4.4032 0
M  V30 1504 C 147.497 0.592903 -5.01809 0
M  V30 1505 C 149.695 0.260164 -5.13642 0
M  V30 1506 N 147.677 -0.247901 -6.13399 0
M  V30 1507 C 149.048 -0.442256 -6.18421 0
M  V30 1508 C 151.103 0.177253 -4.97584 0
M  V30 1509 C 149.806 -1.21971 -7.08883 0
M  V30 1510 C 151.832 -0.586839 -5.88481 0
M  V30 1511 C 151.194 -1.27766 -6.92716 0
M  V30 1512 H 147.293 0.307122 -0.719166 0
M  V30 1513 H 149.877 0.164535 -1.94004 0
M  V30 1514 H 148.048 2.44105 -3.02105 0
M  V30 1515 H 149.78 2.39279 -3.26386 0
M  V30 1516 H 146.535 0.920502 -4.64568 0
M  V30 1517 H 146.959 -0.658304 -6.73792 0
M  V30 1518 H 151.601 0.696993 -4.17015 0
M  V30 1519 H 149.319 -1.75083 -7.88905 0
M  V30 1520 H 152.905 -0.652522 -5.78129 0
M  V30 1521 H 151.785 -1.85943 -7.61836 0
M  V30 1522 N 149.288 1.51039 0.449983 0
M  V30 1523 C 150.536 1.62759 1.19808 0
M  V30 1524 C 150.857 0.339981 1.92013 0
M  V30 1525 O 150.127 -0.643606 1.85026 0
M  V30 1526 H 148.707 0.599811 0.445237 0
M  V30 1527 H 151.369 1.87914 0.517138 0
M  V30 1528 H 150.465 2.44911 1.93455 0
M  V30 1529 N 150.766 -0.704594 1.40972 0
M  V30 1530 C 151.729 -1.80035 1.41845 0
M  V30 1531 C 152.729 -1.57774 0.310474 0
M  V30 1532 O 153.919 -1.64613 0.56992 0
M  V30 1533 C 151.051 -3.18284 1.22098 0
M  V30 1534 H 152.244 -1.80658 2.3938 0
M  V30 1535 H 149.797 -0.911329 1.26982 0
M  V30 1536 H 150.532 -3.23306 0.253672 0
M  V30 1537 H 150.317 -3.35843 2.02366 0
M  V30 1538 H 151.807 -3.98289 1.25522 0
M  V30 1539 N 152.244 -1.26651 -0.937939 0
M  V30 1540 C 153.469 -1.15279 -1.72411 0
M  V30 1541 C 153.894 0.287866 -1.85884 0
M  V30 1542 O 153.252 1.20855 -1.35143 0
M  V30 1543 C 153.3 -1.83028 -3.10698 0
M  V30 1544 O 152.404 -1.12128 -3.96864 0
M  V30 1545 H 151.745 -0.401504 -0.528858 0
M  V30 1546 H 154.275 -1.67531 -1.1745 0
M  V30 1547 H 154.285 -1.89981 -3.6107 0
M  V30 1548 H 152.96 -2.87833 -3.00208 0
M  V30 1549 H 151.537 -1.13173 -3.55312 0
M  V30 1550 N 153.722 1.14298 -1.08507 0
M  V30 1551 C 155.133 1.66926 -0.836227 0
M  V30 1552 C 155.484 1.85576 0.63686 0
M  V30 1553 O 154.609 1.56767 1.49175 0
M  V30 1554 C 155.204 3.03219 -1.51142 0
M  V30 1555 C 153.763 3.52876 -1.30979 0
M  V30 1556 C 152.91 2.2833 -1.57356 0
M  V30 1557 H 155.861 0.983491 -1.24552 0
M  V30 1558 H 155.882 3.68726 -0.939211 0
M  V30 1559 H 155.394 2.89612 -2.58353 0
M  V30 1560 H 153.495 3.71703 -0.258429 0
M  V30 1561 H 153.608 4.33586 -2.03814 0
M  V30 1562 H 151.972 2.34454 -0.995164 0
M  V30 1563 H 152.755 2.17298 -2.65775 0
M  V30 1564 N 155.201 0.870884 1.31352 0
M  V30 1565 C 156.429 0.49677 2.00848 0
M  V30 1566 C 156.844 -0.910998 1.65367 0
M  V30 1567 O 156.201 -1.59696 0.883374 0
M  V30 1568 C 156.252 0.645308 3.55694 0
M  V30 1569 O 155.973 1.99764 3.89905 0
M  V30 1570 C 157.474 0.272326 4.42463 0
M  V30 1571 H 154.694 0.193462 0.642506 0
M  V30 1572 H 157.238 1.1723 1.67563 0
M  V30 1573 H 155.393 0.0173176 3.87396 0
M  V30 1574 H 155.807 2.00607 4.84621 0
M  V30 1575 H 157.281 0.427208 5.50344 0
M  V30 1576 H 157.758 -0.788587 4.32062 0
M  V30 1577 H 158.364 0.876054 4.1618 0
M  V30 1578 N 156.679 -1.44442 0.630414 0
M  V30 1579 C 157.611 -2.2892 -0.113347 0
M  V30 1580 C 158.624 -1.41243 -0.80959 0
M  V30 1581 O 159.813 -1.65402 -0.671156 0
M  V30 1582 C 156.913 -3.17594 -1.18266 0
M  V30 1583 C 156.086 -4.33682 -0.569073 0
M  V30 1584 C 155.145 -5.03397 -1.53226 0
M  V30 1585 O 154.171 -5.59438 -1.04967 0
M  V30 1586 N 155.373 -5.04783 -2.86661 0
M  V30 1587 H 158.138 -2.93392 0.611636 0
M  V30 1588 H 155.699 -1.54881 0.471523 0
M  V30 1589 H 157.691 -3.61097 -1.82732 0
M  V30 1590 H 156.261 -2.54876 -1.80988 0
M  V30 1591 H 155.481 -3.9338 0.254187 0
M  V30 1592 H 156.769 -5.08608 -0.139767 0
M  V30 1593 H 156.167 -4.60584 -3.28449 0
M  V30 1594 H 154.724 -5.52077 -3.46489 0
M  V30 1595 N 158.157 -0.370918 -1.53173 0
M  V30 1596 C 159.397 0.217106 -2.03244 0
M  V30 1597 C 159.761 1.45558 -1.25207 0
M  V30 1598 O 160.962 2.11957 -1.65311 0
M  V30 1599 C 159.233 0.496664 -3.53932 0
M  V30 1600 S 160.792 1.0576 -4.25864 0
M  V30 1601 H 157.61 0.0627827 -0.708223 0
M  V30 1602 H 160.212 -0.515019 -1.88594 0
M  V30 1603 H 158.916 -0.412096 -4.08326 0
M  V30 1604 H 158.447 1.25772 -3.72753 0
M  V30 1605 H 160.462 2.34145 -4.37482 0
M  V30 1606 N 159.635 1.57281 -0.100228 0
M  V30 1607 C 160.863 1.98879 0.570509 0
M  V30 1608 C 161.278 0.979476 1.61405 0
M  V30 1609 O 160.635 -0.0302288 1.82475 0
M  V30 1610 C 160.686 3.4052 1.2136 0
M  V30 1611 O 160.407 4.37588 0.211786 0
M  V30 1612 C 161.908 3.97149 1.96945 0
M  V30 1613 H 159.128 0.653428 0.152555 0
M  V30 1614 H 161.672 2.03697 -0.18103 0
M  V30 1615 H 159.827 3.367 1.91603 0
M  V30 1616 H 160.241 5.20118 0.676607 0
M  V30 1617 H 161.715 4.98393 2.37294 0
M  V30 1618 H 162.192 3.3525 2.83733 0
M  V30 1619 H 162.798 4.04458 1.31506 0
M  V30 1620 N 161.113 -0.173488 1.56642 0
M  V30 1621 C 162.524 -0.736155 1.71574 0
M  V30 1622 C 162.875 -1.82888 0.710389 0
M  V30 1623 O 162 -2.16017 -0.1287 0
M  V30 1624 C 162.595 -1.34211 3.11083 0
M  V30 1625 C 161.154 -1.85162 3.27707 0
M  V30 1626 C 160.301 -0.729765 2.67525 0
M  V30 1627 H 163.252 0.0518786 1.58615 0
M  V30 1628 H 163.273 -2.21178 3.09613 0
M  V30 1629 H 162.785 -0.546579 3.84232 0
M  V30 1630 H 160.886 -2.67366 2.59512 0
M  V30 1631 H 160.999 -1.99855 4.35425 0
M  V30 1632 H 159.363 -1.14965 2.27278 0
M  V30 1633 H 160.146 0.0538806 3.43258 0
M  V30 1634 N 162.591 -1.51276 -0.441967 0
M  V30 1635 C 163.84 -1.6295 -1.18871 0
M  V30 1636 C 164.153 -0.349312 -1.92456 0
M  V30 1637 O 165.359 -0.345355 -2.69295 0
M  V30 1638 C 163.815 -2.87759 -2.16155 0
M  V30 1639 C 163.423 -4.22764 -1.48239 0
M  V30 1640 C 165.167 -3.08788 -2.91291 0
M  V30 1641 C 163.074 -5.38728 -2.4398 0
M  V30 1642 H 162.004 -0.606913 -0.447406 0
M  V30 1643 H 164.655 -1.77739 -0.456205 0
M  V30 1644 H 163.037 -2.66593 -2.92821 0
M  V30 1645 H 164.211 -4.54293 -0.771635 0
M  V30 1646 H 162.526 -4.07575 -0.852741 0
M  V30 1647 H 165.123 -3.92599 -3.63002 0
M  V30 1648 H 165.466 -2.21679 -3.5237 0
M  V30 1649 H 165.999 -3.30272 -2.21733 0
M  V30 1650 H 162.738 -6.28082 -1.87598 0
M  V30 1651 H 162.258 -5.1158 -3.13123 0
M  V30 1652 H 163.937 -5.70489 -3.05207 0
M  V30 1653 N 164.069 0.697108 -1.41344 0
M  V30 1654 C 164.979 1.84088 -1.45427 0
M  V30 1655 C 165.995 1.70545 -0.34501 0
M  V30 1656 O 167.171 1.92488 -0.592492 0
M  V30 1657 C 164.236 3.20056 -1.33286 0
M  V30 1658 C 163.297 3.45718 -2.54514 0
M  V30 1659 C 162.53 4.75199 -2.42944 0
M  V30 1660 O 162.753 5.51579 -1.45318 0
M  V30 1661 O 161.687 5.0161 -3.32672 0
M  V30 1662 H 165.513 1.836 -2.41919 0
M  V30 1663 H 163.098 0.849966 -1.22866 0
M  V30 1664 H 164.98 4.01236 -1.28794 0
M  V30 1665 H 163.655 3.2123 -0.39909 0
M  V30 1666 H 162.562 2.64474 -2.64583 0
M  V30 1667 H 163.895 3.49356 -3.46715 0
M  V30 1668 N 165.547 1.27147 0.931209 0
M  V30 1669 C 166.794 1.13278 1.67852 0
M  V30 1670 C 167.122 -0.32204 1.91815 0
M  V30 1671 O 166.377 -1.25224 1.50391 0
M  V30 1672 C 166.676 1.8579 3.05314 0
M  V30 1673 C 166.342 3.35657 3.01073 0
M  V30 1674 C 165.004 3.76536 2.99623 0
M  V30 1675 C 167.356 4.31299 2.92627 0
M  V30 1676 C 164.684 5.11426 2.87506 0
M  V30 1677 C 167.036 5.66242 2.82051 0
M  V30 1678 C 165.7 6.06418 2.7895 0
M  V30 1679 H 164.97 0.414515 0.614214 0
M  V30 1680 H 167.617 1.57712 1.08624 0
M  V30 1681 H 165.922 1.33854 3.68226 0
M  V30 1682 H 167.619 1.72491 3.62005 0
M  V30 1683 H 164.209 3.03146 3.02986 0
M  V30 1684 H 168.393 4.00692 2.92848 0
M  V30 1685 H 163.649 5.41705 2.83489 0
M  V30 1686 H 167.823 6.40026 2.74481 0
M  V30 1687 H 165.45 7.10895 2.69318 0
M  V30 1688 N 167.025 -1.13721 1.09112 0
M  V30 1689 C 168.302 -1.81155 0.737706 0
M  V30 1690 C 168.682 -1.96253 -0.777683 0
M  V30 1691 O 168.03 -1.52807 -1.69889 0
M  V30 1692 C 168.24 -3.16392 1.47299 0
M  V30 1693 C 169.588 -3.91787 1.63671 0
M  V30 1694 O 170.612 -3.26005 1.43524 0
M  V30 1695 O 169.471 -5.0977 1.96969 0
M  V30 1696 H 166.565 -0.783518 0.26463 0
M  V30 1697 H 169.111 -1.20676 1.19312 0
M  V30 1698 H 167.883 -3.0061 2.50498 0
M  V30 1699 H 167.506 -3.8457 1.00953 0
M  V30 1700 N 168.503 -0.877838 -1.30888 0
M  V30 1701 C 169.728 -0.506629 -2.01117 0
M  V30 1702 C 170.153 0.895564 -1.65412 0
M  V30 1703 O 169.511 1.5923 -0.866922 0
M  V30 1704 C 169.559 -0.680223 -3.54126 0
M  V30 1705 O 168.663 0.277033 -4.11468 0
M  V30 1706 H 168.004 -0.200518 -0.633 0
M  V30 1707 H 170.534 -1.18342 -1.66902 0
M  V30 1708 H 170.544 -0.5765 -4.03907 0
M  V30 1709 H 169.219 -1.70261 -3.79452 0
M  V30 1710 H 167.796 0.127606 -3.72682 0
M  V30 1711 N 169.982 1.44106 -0.638065 0
M  V30 1712 C 170.929 2.30715 0.062701 0
M  V30 1713 C 171.899 1.43882 0.829883 0
M  V30 1714 O 173.084 1.72775 0.809532 0
M  V30 1715 C 170.224 3.29258 1.03358 0
M  V30 1716 C 169.337 4.31192 0.26409 0
M  V30 1717 C 168.472 5.16825 1.22741 0
M  V30 1718 C 167.511 6.10462 0.447475 0
M  V30 1719 N 166.648 6.8877 1.36161 0
M  V30 1720 H 171.488 2.90096 -0.681781 0
M  V30 1721 H 169.025 1.42925 -0.347988 0
M  V30 1722 H 170.983 3.84886 1.60992 0
M  V30 1723 H 169.613 2.71562 1.74511 0
M  V30 1724 H 168.665 3.77981 -0.428295 0
M  V30 1725 H 169.977 4.97619 -0.343052 0
M  V30 1726 H 169.131 5.77004 1.87487 0
M  V30 1727 H 167.87 4.50488 1.86847 0
M  V30 1728 H 166.875 5.49386 -0.213433 0
M  V30 1729 H 168.1 6.78837 -0.188968 0
M  V30 1730 H 166.046 6.25096 1.98975 0
M  V30 1731 H 165.963 7.51663 0.808656 0
M  V30 1732 H 167.231 7.53467 1.99769 0
M  V30 1733 N 171.46 0.379036 1.52974 0
M  V30 1734 C 172.708 -0.206014 2.01047 0
M  V30 1735 C 173.029 -1.48175 1.26765 0
M  V30 1736 O 172.299 -1.92085 0.384743 0
M  V30 1737 H 170.879 -0.0791184 0.742798 0
M  V30 1738 H 173.541 0.508366 1.88153 0
M  V30 1739 H 172.637 -0.423501 3.09213 0
M  V30 1740 N 172.938 -1.57226 0.108567 0
M  V30 1741 C 174.163 -1.99604 -0.563303 0
M  V30 1742 C 174.588 -0.987563 -1.6009 0
M  V30 1743 O 173.946 0.0421687 -1.81251 0
M  V30 1744 C 173.994 -3.40902 -1.17552 0
M  V30 1745 O 173.098 -3.42896 -2.2912 0
M  V30 1746 H 172.439 -0.648704 -0.1417 0
M  V30 1747 H 174.969 -2.03679 0.193961 0
M  V30 1748 H 174.979 -3.78886 -1.51357 0
M  V30 1749 H 173.654 -4.1382 -0.415445 0
M  V30 1750 H 172.231 -3.1672 -1.96832 0
M  V30 1751 N 174.416 0.165178 -1.56732 0
M  V30 1752 C 175.832 0.517174 -1.50988 0
M  V30 1753 C 176.032 1.84331 -0.813894 0
M  V30 1754 O 175.088 2.49672 -0.37682 0
M  V30 1755 C 176.401 0.544261 -2.95733 0
M  V30 1756 C 177.949 0.631039 -3.06573 0
M  V30 1757 C 178.424 0.68896 -4.52788 0
M  V30 1758 N 179.915 0.751683 -4.5706 0
M  V30 1759 C 180.65 0.817177 -5.67547 0
M  V30 1760 N 180.146 0.843129 -6.8765 0
M  V30 1761 N 181.939 0.856668 -5.55534 0
M  V30 1762 H 174.09 -0.704318 -2.00382 0
M  V30 1763 H 176.353 -0.254687 -0.913148 0
M  V30 1764 H 176.059 -0.361607 -3.49836 0
M  V30 1765 H 175.933 1.3886 -3.5071 0
M  V30 1766 H 178.32 1.52733 -2.52501 0
M  V30 1767 H 178.401 -0.240095 -2.54671 0
M  V30 1768 H 178.045 -0.2031 -5.07494 0
M  V30 1769 H 177.975 1.57633 -5.02454 0
M  V30 1770 H 180.466 0.739661 -3.70591 0
M  V30 1771 H 180.779 0.894448 -7.67606 0
M  V30 1772 H 179.124 0.811304 -6.90248 0
M  V30 1773 H 182.315 0.833437 -4.60621 0
M  V30 1774 H 182.488 0.904247 -6.4166 0
M  V30 1775 N 175.894 1.51508 0.433938 0
M  V30 1776 C 176.824 1.76016 1.53429 0
M  V30 1777 C 177.805 0.610112 1.58782 0
M  V30 1778 O 178.99 0.853177 1.74455 0
M  V30 1779 C 176.12 1.88831 2.9148 0
M  V30 1780 C 175.074 3.04288 3.00987 0
M  V30 1781 C 174.4 3.0229 4.4105 0
M  V30 1782 C 175.7 4.44193 2.74754 0
M  V30 1783 H 177.394 2.68152 1.33171 0
M  V30 1784 H 174.94 1.29035 0.639214 0
M  V30 1785 H 176.893 2.04559 3.6842 0
M  V30 1786 H 175.617 0.933455 3.12976 0
M  V30 1787 H 174.276 2.8827 2.26486 0
M  V30 1788 H 173.924 2.04576 4.59519 0
M  V30 1789 H 173.624 3.79822 4.4834 0
M  V30 1790 H 175.148 3.20116 5.1996 0
M  V30 1791 H 176.562 4.60544 3.41426 0
M  V30 1792 H 174.959 5.23457 2.9345 0
M  V30 1793 H 176.029 4.53996 1.70339 0
M  V30 1794 N 177.372 -0.689602 1.41712 0
M  V30 1795 C 178.302 -1.81577 1.46806 0
M  V30 1796 C 179.283 -1.66945 0.326105 0
M  V30 1797 O 180.468 -1.86588 0.538377 0
M  V30 1798 C 177.598 -3.19762 1.35535 0
M  V30 1799 C 176.552 -3.49107 2.47605 0
M  V30 1800 C 175.878 -4.86711 2.21397 0
M  V30 1801 C 177.178 -3.47483 3.89939 0
M  V30 1802 H 178.872 -1.7757 2.41058 0
M  V30 1803 H 176.418 -0.852887 1.16025 0
M  V30 1804 H 178.371 -3.98263 1.3771 0
M  V30 1805 H 177.095 -3.24409 0.377708 0
M  V30 1806 H 175.754 -2.72959 2.44722 0
M  V30 1807 H 175.402 -4.8799 1.21961 0
M  V30 1808 H 175.102 -5.0731 2.96497 0
M  V30 1809 H 176.626 -5.67515 2.25297 0
M  V30 1810 H 178.04 -4.1598 3.94505 0
M  V30 1811 H 176.437 -3.79615 4.64771 0
M  V30 1812 H 177.507 -2.46341 4.17665 0
M  V30 1813 N 178.85 -1.27639 -0.924453 0
M  V30 1814 C 179.76 -1.12466 -2.05885 0
M  V30 1815 C 180.776 -0.053869 -1.73917 0
M  V30 1816 O 181.952 -0.261012 -1.99702 0
M  V30 1817 C 179.017 -0.776768 -3.37886 0
M  V30 1818 C 178.078 -1.92878 -3.83532 0
M  V30 1819 C 177.311 -1.59739 -5.09234 0
M  V30 1820 O 177.534 -0.506782 -5.68144 0
M  V30 1821 O 176.468 -2.43761 -5.50331 0
M  V30 1822 H 180.294 -2.07671 -2.21599 0
M  V30 1823 H 177.879 -1.06857 -1.04413 0
M  V30 1824 H 179.761 -0.596229 -4.17161 0
M  V30 1825 H 178.436 0.145732 -3.23372 0
M  V30 1826 H 177.343 -2.1644 -3.0513 0
M  V30 1827 H 178.676 -2.8316 -4.02593 0
M  V30 1828 N 180.328 1.1314 -1.09713 0
M  V30 1829 C 181.553 1.88862 -0.857081 0
M  V30 1830 C 181.978 1.78729 0.586304 0
M  V30 1831 O 181.336 1.13692 1.41222 0
M  V30 1832 C 181.384 3.36325 -1.30069 0
M  V30 1833 O 180.488 4.09815 -0.461007 0
M  V30 1834 H 179.829 0.587108 -0.310162 0
M  V30 1835 H 182.359 1.43129 -1.46203 0
M  V30 1836 H 182.369 3.87157 -1.28738 0
M  V30 1837 H 181.044 3.43017 -2.35185 0
M  V30 1838 H 179.621 3.68986 -0.538888 0
M  V30 1839 N 181.806 0.884767 1.30421 0
M  V30 1840 C 183.031 0.517288 2.00845 0
M  V30 1841 C 183.456 -0.886779 1.65885 0
M  V30 1842 O 182.814 -1.58768 0.875354 0
M  V30 1843 C 182.862 0.698994 3.5376 0
M  V30 1844 O 181.966 -0.255208 4.1161 0
M  V30 1845 H 181.307 0.203872 0.631927 0
M  V30 1846 H 183.837 1.19225 1.66272 0
M  V30 1847 H 183.847 0.597912 4.03595 0
M  V30 1848 H 182.522 1.72271 3.78544 0
M  V30 1849 H 181.099 -0.10784 3.72744 0
M  V30 1850 N 183.284 -1.43765 0.645699 0
M  V30 1851 C 184.214 -2.33471 -0.0370477 0
M  V30 1852 C 185.195 -1.49042 -0.819779 0
M  V30 1853 O 186.38 -1.77726 -0.782758 0
M  V30 1854 C 183.51 -3.32311 -1.0093 0
M  V30 1855 C 182.464 -4.2667 -0.337201 0
M  V30 1856 C 181.79 -5.1549 -1.42037 0
M  V30 1857 C 183.09 -5.16657 0.765706 0
M  V30 1858 H 184.784 -2.90809 0.712069 0
M  V30 1859 H 182.33 -1.39834 0.343876 0
M  V30 1860 H 184.283 -3.9396 -1.49578 0
M  V30 1861 H 183.007 -2.73213 -1.78948 0
M  V30 1862 H 181.666 -3.66374 0.128771 0
M  V30 1863 H 181.314 -4.52735 -2.1918 0
M  V30 1864 H 181.014 -5.79438 -0.975966 0
M  V30 1865 H 182.538 -5.80012 -1.90838 0
M  V30 1866 H 183.952 -5.72158 0.361702 0
M  V30 1867 H 182.349 -5.89286 1.13413 0
M  V30 1868 H 183.419 -4.56796 1.62683 0
M  V30 1869 N 184.763 -0.387143 -1.52771 0
M  V30 1870 C 185.988 0.198407 -2.06449 0
M  V30 1871 C 186.413 1.39918 -1.25716 0
M  V30 1872 O 185.771 1.79099 -0.281657 0
M  V30 1873 C 185.819 0.548893 -3.56398 0
M  V30 1874 O 184.923 1.64315 -3.78252 0
M  V30 1875 H 184.264 0.0237731 -0.663574 0
M  V30 1876 H 186.794 -0.553989 -1.96957 0
M  V30 1877 H 186.804 0.813812 -3.99801 0
M  V30 1878 H 185.479 -0.329005 -4.14597 0
M  V30 1879 H 184.056 1.37211 -3.46738 0
M  V30 1880 N 186.241 1.57166 -0.116904 0
M  V30 1881 C 187.466 1.999 0.55271 0
M  V30 1882 C 187.891 0.996039 1.59564 0
M  V30 1883 O 187.249 -0.032556 1.81271 0
M  V30 1884 C 187.297 3.4152 1.15742 0
M  V30 1885 O 186.401 3.44106 2.27299 0
M  V30 1886 H 185.742 0.649447 0.138258 0
M  V30 1887 H 188.272 2.03573 -0.204759 0
M  V30 1888 H 188.282 3.79684 1.49346 0
M  V30 1889 H 186.957 4.14034 0.393493 0
M  V30 1890 H 185.534 3.17759 1.9515 0
M  V30 1891 N 187.719 -0.156864 1.56817 0
M  V30 1892 C 188.944 -0.890331 1.87318 0
M  V30 1893 C 189.369 -1.74394 0.704855 0
M  V30 1894 O 188.727 -1.77972 -0.345786 0
M  V30 1895 C 188.775 -1.73102 3.16336 0
M  V30 1896 O 187.879 -2.83422 2.99576 0
M  V30 1897 H 187.22 -0.24857 0.615718 0
M  V30 1898 H 189.75 -0.150649 2.04045 0
M  V30 1899 H 189.76 -2.12803 3.48107 0
M  V30 1900 H 188.435 -1.10412 4.00976 0
M  V30 1901 H 187.012 -2.47199 2.7919 0
M  V30 1902 N 189.197 -1.51736 -0.425897 0
M  V30 1903 C 190.107 -1.76738 -1.54275 0
M  V30 1904 C 191.123 -0.65211 -1.61318 0
M  V30 1905 O 192.299 -0.935654 -1.78346 0
M  V30 1906 C 189.364 -1.89755 -2.90162 0
M  V30 1907 C 188.425 -3.13633 -2.93143 0
M  V30 1908 C 187.658 -3.2602 -4.22548 0
M  V30 1909 O 187.881 -2.44067 -5.15546 0
M  V30 1910 O 186.815 -4.19071 -4.32046 0
M  V30 1911 H 190.641 -2.71502 -1.36089 0
M  V30 1912 H 188.226 -1.36376 -0.610069 0
M  V30 1913 H 190.108 -2.00236 -3.70788 0
M  V30 1914 H 188.783 -0.981785 -3.08452 0
M  V30 1915 H 187.69 -3.08622 -2.11431 0
M  V30 1916 H 189.023 -4.04936 -2.798 0
M  V30 1917 N 190.675 0.682077 -1.42076 0
M  V30 1918 C 191.923 1.4393 -1.41876 0
M  V30 1919 C 192.244 1.94971 -0.0335599 0
M  V30 1920 O 191.514 1.72591 0.926773 0
M  V30 1921 H 190.094 0.534085 -0.522267 0
M  V30 1922 H 192.756 0.806427 -1.77434 0
M  V30 1923 H 191.852 2.29588 -2.11414 0
M  V30 1924 N 192.153 1.28127 0.917671 0
M  V30 1925 C 193.063 1.13556 2.05286 0
M  V30 1926 C 194.079 0.0630914 1.73886 0
M  V30 1927 O 195.255 0.271598 1.9956 0
M  V30 1928 C 192.32 0.794676 3.3747 0
M  V30 1929 C 191.381 1.94909 3.82504 0
M  V30 1930 C 190.614 1.62437 5.0838 0
M  V30 1931 O 190.837 0.536905 5.67867 0
M  V30 1932 O 189.771 2.46677 5.4903 0
M  V30 1933 H 193.597 2.08844 2.20495 0
M  V30 1934 H 191.182 1.07409 1.03845 0
M  V30 1935 H 193.064 0.618344 4.16839 0
M  V30 1936 H 191.739 -0.128581 3.23445 0
M  V30 1937 H 190.646 2.18055 3.03978 0
M  V30 1938 H 191.979 2.85291 4.01086 0
M  V30 1939 N 193.631 -1.12557 1.10312 0
M  V30 1940 C 194.541 -2.21841 0.763142 0
M  V30 1941 C 195.557 -1.72354 -0.238801 0
M  V30 1942 O 196.733 -2.01249 -0.0778746 0
M  V30 1943 C 193.798 -3.46131 0.198632 0
M  V30 1944 C 192.859 -4.10464 1.25769 0
M  V30 1945 C 192.092 -5.28821 0.72002 0
M  V30 1946 O 192.315 -5.6859 -0.453993 0
M  V30 1947 O 191.249 -5.83437 1.47935 0
M  V30 1948 H 195.075 -2.53312 1.67532 0
M  V30 1949 H 192.66 -1.20867 0.878157 0
M  V30 1950 H 194.542 -4.2125 -0.112401 0
M  V30 1951 H 193.217 -3.16338 -0.686419 0
M  V30 1952 H 192.124 -3.3713 1.62156 0
M  V30 1953 H 193.457 -4.44408 2.11571 0
M  V30 1954 N 195.109 -0.891671 -1.2995 0
M  V30 1955 C 196.52 -0.563104 -1.78006 0
M  V30 1956 C 196.871 0.920978 -1.73241 0
M  V30 1957 O 195.996 1.71987 -1.31337 0
M  V30 1958 C 196.591 -1.01539 -3.23226 0
M  V30 1959 C 195.15 -0.738124 -3.69092 0
M  V30 1960 C 194.297 -1.19461 -2.50249 0
M  V30 1961 H 197.248 -1.07522 -1.16725 0
M  V30 1962 H 197.269 -0.347217 -3.78912 0
M  V30 1963 H 196.781 -2.09555 -3.26662 0
M  V30 1964 H 194.882 0.329766 -3.71138 0
M  V30 1965 H 194.995 -1.33037 -4.60259 0
M  V30 1966 H 193.359 -0.613787 -2.47194 0
M  V30 1967 H 194.142 -2.28265 -2.56417 0
M  V30 1968 N 196.587 1.43421 -0.653314 0
M  V30 1969 C 197.833 2.02111 -0.166992 0
M  V30 1970 C 198.166 1.51423 1.21592 0
M  V30 1971 O 197.441 0.707389 1.8118 0
M  V30 1972 C 197.724 3.5966 -0.177948 0
M  V30 1973 C 197.577 4.20579 -1.59478 0
M  V30 1974 C 198.896 4.37413 0.4856 0
M  V30 1975 H 196.015 0.734374 -0.0621557 0
M  V30 1976 H 198.657 1.70717 -0.834016 0
M  V30 1977 H 196.807 3.86537 0.390032 0
M  V30 1978 H 198.479 4.04732 -2.21336 0
M  V30 1979 H 196.722 3.77226 -2.14204 0
M  V30 1980 H 197.393 5.29665 -1.5543 0
M  V30 1981 H 199.869 4.161 0.00234528 0
M  V30 1982 H 198.745 5.47075 0.447207 0
M  V30 1983 H 199.006 4.13672 1.55974 0
M  V30 1984 N 198.065 0.39524 1.52563 0
M  V30 1985 C 198.975 -0.444232 2.30356 0
M  V30 1986 C 199.991 -1.06615 1.37511 0
M  V30 1987 O 201.167 -1.07067 1.70583 0
M  V30 1988 C 198.232 -1.55315 3.09964 0
M  V30 1989 C 197.293 -0.955734 4.18526 0
M  V30 1990 C 196.526 -2.01181 4.9433 0
M  V30 1991 O 196.749 -3.22781 4.70285 0
M  V30 1992 O 195.683 -1.62579 5.79527 0
M  V30 1993 H 199.509 0.189667 3.03107 0
M  V30 1994 H 197.094 0.1588 1.48554 0
M  V30 1995 H 198.976 -2.19724 3.59582 0
M  V30 1996 H 197.651 -2.17191 2.4002 0
M  V30 1997 H 196.558 -0.274743 3.7309 0
M  V30 1998 H 197.891 -0.381109 4.90722 0
M  V30 1999 N 199.544 -1.57102 0.125237 0
M  V30 2000 C 200.774 -1.99472 -0.538015 0
M  V30 2001 C 201.182 -1.00395 -1.60366 0
M  V30 2002 O 200.525 0.0103875 -1.83697 0
M  V30 2003 C 200.587 -3.38262 -1.21734 0
M  V30 2004 C 200.251 -4.56021 -0.298897 0
M  V30 2005 C 201.248 -5.17817 0.464943 0
M  V30 2006 C 198.933 -5.01869 -0.208149 0
M  V30 2007 C 200.927 -6.23852 1.3072 0
M  V30 2008 C 198.614 -6.07763 0.637736 0
M  V30 2009 C 199.612 -6.68622 1.39403 0
M  V30 2010 O 199.3 -7.7247 2.22586 0
M  V30 2011 H 199.032 -0.659934 -0.146501 0
M  V30 2012 H 201.586 -2.04321 0.210267 0
M  V30 2013 H 199.816 -3.30185 -2.01282 0
M  V30 2014 H 201.505 -3.6488 -1.77813 0
M  V30 2015 H 202.271 -4.83308 0.404741 0
M  V30 2016 H 198.15 -4.54241 -0.786522 0
M  V30 2017 H 201.694 -6.71284 1.898 0
M  V30 2018 H 197.591 -6.41701 0.699309 0
M  V30 2019 H 198.359 -7.89595 2.15596 0
M  V30 2020 N 201.022 0.148545 -1.56898 0
M  V30 2021 C 201.969 1.18345 -1.98149 0
M  V30 2022 C 202.939 1.42772 -0.848848 0
M  V30 2023 O 204.124 1.55132 -1.11079 0
M  V30 2024 C 201.264 2.51231 -2.36594 0
M  V30 2025 C 200.377 2.33991 -3.63142 0
M  V30 2026 C 199.512 3.59902 -3.90697 0
M  V30 2027 C 198.551 3.37692 -5.1052 0
M  V30 2028 N 197.688 4.5573 -5.34092 0
M  V30 2029 H 202.528 0.82467 -2.86362 0
M  V30 2030 H 200.065 0.395756 -1.41676 0
M  V30 2031 H 202.023 3.28713 -2.56912 0
M  V30 2032 H 200.653 2.85059 -1.51463 0
M  V30 2033 H 199.705 1.47572 -3.50609 0
M  V30 2034 H 201.017 2.13539 -4.5078 0
M  V30 2035 H 200.171 4.45813 -4.11505 0
M  V30 2036 H 198.91 3.83357 -3.01477 0
M  V30 2037 H 197.915 2.5017 -4.89587 0
M  V30 2038 H 199.14 3.15637 -6.0129 0
M  V30 2039 H 197.086 4.79361 -4.47827 0
M  V30 2040 H 197.003 4.38274 -6.15996 0
M  V30 2041 H 198.271 5.42858 -5.59397 0
M  V30 2042 N 202.5 1.5196 0.417844 0
M  V30 2043 C 203.725 1.69717 1.1921 0
M  V30 2044 C 204.15 0.402148 1.83751 0
M  V30 2045 O 203.508 -0.639593 1.69643 0
M  V30 2046 C 203.556 2.82794 2.2374 0
M  V30 2047 O 202.66 2.47756 3.29683 0
M  V30 2048 H 202.001 0.565263 0.348387 0
M  V30 2049 H 204.531 1.98621 0.490985 0
M  V30 2050 H 204.541 3.07452 2.68212 0
M  V30 2051 H 203.216 3.76756 1.76146 0
M  V30 2052 H 201.793 2.33739 2.90552 0
M  V30 2053 N 203.978 -0.674533 1.42435 0
M  V30 2054 C 204.908 -1.80009 1.48724 0
M  V30 2055 C 205.889 -1.6659 0.343793 0
M  V30 2056 O 207.074 -1.86007 0.558137 0
M  V30 2057 C 204.204 -3.18306 1.38919 0
M  V30 2058 C 203.158 -3.46461 2.51294 0
M  V30 2059 C 202.484 -4.84335 2.26547 0
M  V30 2060 C 203.784 -3.43328 3.93603 0
M  V30 2061 H 205.478 -1.75004 2.42928 0
M  V30 2062 H 203.024 -0.840533 1.16923 0
M  V30 2063 H 204.977 -3.9678 1.41927 0
M  V30 2064 H 203.701 -3.2399 0.412094 0
M  V30 2065 H 202.36 -2.70348 2.47604 0
M  V30 2066 H 202.008 -4.86669 1.2713 0
M  V30 2067 H 201.708 -5.04136 3.01861 0
M  V30 2068 H 203.232 -5.65094 2.31304 0
M  V30 2069 H 204.646 -4.11772 3.98894 0
M  V30 2070 H 203.043 -3.74664 4.68771 0
M  V30 2071 H 204.113 -2.41897 4.20255 0
M  V30 2072 N 205.456 -1.28612 -0.910864 0
M  V30 2073 C 206.388 -1.08589 -2.01844 0
M  V30 2074 C 207.401 -0.0367419 -1.62759 0
M  V30 2075 O 208.59 -0.280101 -1.76289 0
M  V30 2076 C 205.69 -0.628626 -3.33019 0
M  V30 2077 C 204.863 -1.75382 -4.00699 0
M  V30 2078 C 203.922 -1.28945 -5.10156 0
M  V30 2079 O 202.948 -1.9922 -5.33198 0
M  V30 2080 N 204.15 -0.154224 -5.80295 0
M  V30 2081 H 206.915 -2.03973 -2.19579 0
M  V30 2082 H 204.476 -1.20403 -1.08234 0
M  V30 2083 H 206.468 -0.301508 -4.03575 0
M  V30 2084 H 205.038 0.232451 -3.11735 0
M  V30 2085 H 204.258 -2.25039 -3.23653 0
M  V30 2086 H 205.546 -2.50854 -4.42662 0
M  V30 2087 H 204.944 0.43194 -5.64049 0
M  V30 2088 H 203.501 0.113599 -6.51701 0
M  V30 2089 N 206.934 1.1197 -1.10907 0
M  V30 2090 C 208.18 1.84059 -0.865674 0
M  V30 2091 C 208.535 1.82731 0.602254 0
M  V30 2092 O 207.828 1.26543 1.43866 0
M  V30 2093 C 208.022 3.30749 -1.35425 0
M  V30 2094 C 207.851 3.46363 -2.86815 0
M  V30 2095 C 206.621 3.59712 -3.54874 0
M  V30 2096 C 208.819 3.41116 -3.84895 0
M  V30 2097 N 206.801 3.63741 -4.94536 0
M  V30 2098 C 208.172 3.51698 -5.10596 0
M  V30 2099 C 210.227 3.24612 -3.77533 0
M  V30 2100 C 208.93 3.4748 -6.29802 0
M  V30 2101 C 210.956 3.21708 -4.96244 0
M  V30 2102 C 210.318 3.32856 -6.20795 0
M  V30 2103 H 206.417 0.689015 -0.369841 0
M  V30 2104 H 209.001 1.34016 -1.41237 0
M  V30 2105 H 207.172 3.79322 -0.834814 0
M  V30 2106 H 208.904 3.90718 -1.05458 0
M  V30 2107 H 205.659 3.62038 -3.05329 0
M  V30 2108 H 206.083 3.69408 -5.67333 0
M  V30 2109 H 210.725 3.14883 -2.8215 0
M  V30 2110 H 208.443 3.55978 -7.25469 0
M  V30 2111 H 212.029 3.10113 -4.92261 0
M  V30 2112 H 210.909 3.3059 -7.11112 0
M  V30 2113 N 208.412 0.89855 1.29475 0
M  V30 2114 C 209.659 0.523882 1.95606 0
M  V30 2115 C 209.987 -0.929608 1.70847 0
M  V30 2116 O 209.242 -1.67401 1.01367 0
M  V30 2117 C 209.541 0.761398 3.49195 0
M  V30 2118 C 209.207 2.19207 3.94029 0
M  V30 2119 C 207.869 2.58326 4.05982 0
M  V30 2120 C 210.221 3.12379 4.17216 0
M  V30 2121 C 207.549 3.898 4.38489 0
M  V30 2122 C 209.901 4.43401 4.51197 0
M  V30 2123 C 208.565 4.82394 4.61359 0
M  V30 2124 H 207.835 0.191702 0.715773 0
M  V30 2125 H 210.482 1.13699 1.54094 0
M  V30 2126 H 208.787 0.0653622 3.91745 0
M  V30 2127 H 210.484 0.450904 3.98457 0
M  V30 2128 H 207.074 1.87846 3.85242 0
M  V30 2129 H 211.258 2.83371 4.07449 0
M  V30 2130 H 206.514 4.19734 4.44559 0
M  V30 2131 H 210.688 5.15623 4.68087 0
M  V30 2132 H 208.315 5.84306 4.86303 0
M  V30 2133 N 209.89 -1.43072 0.660911 0
M  V30 2134 C 211.138 -2.01323 0.177094 0
M  V30 2135 C 211.459 -1.5245 -1.2159 0
M  V30 2136 O 210.729 -0.740322 -1.81373 0
M  V30 2137 H 209.309 -0.744382 0.0624804 0
M  V30 2138 H 211.971 -1.75179 0.854305 0
M  V30 2139 H 211.067 -3.11649 0.167641 0
M  V30 2140 N 211.368 -0.403325 -1.52352 0
M  V30 2141 C 212.331 0.413051 -2.25447 0
M  V30 2142 C 213.331 0.978513 -1.276 0
M  V30 2143 O 214.521 0.858305 -1.51587 0
M  V30 2144 C 211.653 1.58087 -3.02029 0
M  V30 2145 H 212.846 -0.227094 -2.99039 0
M  V30 2146 H 210.399 -0.155722 -1.55522 0
M  V30 2147 H 211.134 2.25804 -2.32772 0
M  V30 2148 H 210.919 1.18195 -3.73861 0
M  V30 2149 H 212.409 2.1585 -3.57489 0
M  V30 2150 N 212.846 1.57033 -0.133567 0
M  V30 2151 C 214.074 2.00044 0.528195 0
M  V30 2152 C 214.489 1.01349 1.59291 0
M  V30 2153 O 213.846 0.00848369 1.82498 0
M  V30 2154 C 213.897 3.43018 1.1411 0
M  V30 2155 O 213.618 4.37939 0.11892 0
M  V30 2156 C 215.119 4.01237 1.88477 0
M  V30 2157 H 212.339 0.656517 0.138661 0
M  V30 2158 H 214.883 2.03267 -0.224196 0
M  V30 2159 H 213.038 3.40688 1.84418 0
M  V30 2160 H 213.452 5.21436 0.56613 0
M  V30 2161 H 214.926 5.03314 2.26669 0
M  V30 2162 H 215.403 3.41193 2.76558 0
M  V30 2163 H 216.009 4.07156 1.22898 0
M  V30 2164 N 214.325 -0.140222 1.56975 0
M  V30 2165 C 215.571 -0.852949 1.83991 0
M  V30 2166 C 215.904 -1.80512 0.716187 0
M  V30 2167 O 215.179 -1.92479 -0.279681 0
M  V30 2168 C 215.462 -1.6215 3.21527 0
M  V30 2169 C 215.315 -0.690363 4.4447 0
M  V30 2170 C 216.634 -2.58247 3.56366 0
M  V30 2171 H 213.753 -0.308634 0.669264 0
M  V30 2172 H 216.395 -0.117898 1.89634 0
M  V30 2173 H 214.545 -2.24812 3.16847 0
M  V30 2174 H 216.217 -0.0742264 4.6124 0
M  V30 2175 H 214.46 -0.000396433 4.338 0
M  V30 2176 H 215.131 -1.2643 5.37326 0
M  V30 2177 H 217.607 -2.05701 3.61699 0
M  V30 2178 H 216.483 -3.09067 4.53617 0
M  V30 2179 H 216.744 -3.39923 2.82674 0
M  V30 2180 N 215.803 -1.52179 -0.40978 0
M  V30 2181 C 217.219 -1.40968 -0.74835 0
M  V30 2182 C 217.419 -0.513657 -1.94843 0
M  V30 2183 O 216.475 0.0208026 -2.52491 0
M  V30 2184 C 217.788 -2.83483 -1.0029 0
M  V30 2185 C 219.336 -2.92821 -1.10565 0
M  V30 2186 C 219.811 -4.36303 -1.39296 0
M  V30 2187 N 221.302 -4.39535 -1.46162 0
M  V30 2188 C 222.037 -5.47614 -1.70018 0
M  V30 2189 N 221.533 -6.65812 -1.91483 0
M  V30 2190 N 223.326 -5.35129 -1.72027 0
M  V30 2191 H 215.477 -2.0897 0.380186 0
M  V30 2192 H 217.74 -0.94185 0.107805 0
M  V30 2193 H 217.446 -3.51168 -0.193461 0
M  V30 2194 H 217.32 -3.24487 -1.92323 0
M  V30 2195 H 219.707 -2.25318 -1.90568 0
M  V30 2196 H 219.788 -2.55276 -0.16369 0
M  V30 2197 H 219.432 -5.04366 -0.598109 0
M  V30 2198 H 219.362 -4.71385 -2.34743 0
M  V30 2199 H 221.853 -3.54332 -1.31367 0
M  V30 2200 H 222.166 -7.43964 -2.09134 0
M  V30 2201 H 220.511 -6.68879 -1.88749 0
M  V30 2202 H 223.702 -4.41764 -1.54796 0
M  V30 2203 H 223.875 -6.19433 -1.9028 0
M  V30 2204 N 217.281 0.66697 -1.42791 0
M  V30 2205 C 218.244 1.76211 -1.46568 0
M  V30 2206 C 219.244 1.56896 -0.352196 0
M  V30 2207 O 220.434 1.63044 -0.613364 0
M  V30 2208 C 217.566 3.14935 -1.30494 0
M  V30 2209 H 218.759 1.74247 -2.44086 0
M  V30 2210 H 216.312 0.877342 -1.29354 0
M  V30 2211 H 217.047 3.2252 -0.339301 0
M  V30 2212 H 216.832 3.30359 -2.11199 0
M  V30 2213 H 218.322 3.94821 -1.36038 0
M  V30 2214 N 218.759 1.29093 0.90403 0
M  V30 2215 C 219.709 1.10482 1.99443 0
M  V30 2216 C 220.693 0.0255401 1.6088 0
M  V30 2217 O 221.885 0.24677 1.75271 0
M  V30 2218 C 219.014 0.778882 3.34348 0
M  V30 2219 C 218.1 1.89749 3.79284 0
M  V30 2220 N 218.491 3.14045 3.96497 0
M  V30 2221 C 216.789 1.78955 4.08523 0
M  V30 2222 C 217.49 3.86996 4.34292 0
M  V30 2223 N 216.466 3.14909 4.43095 0
M  V30 2224 H 220.268 2.04778 2.10815 0
M  V30 2225 H 217.782 1.20155 1.09255 0
M  V30 2226 H 219.779 0.62661 4.12164 0
M  V30 2227 H 218.439 -0.156205 3.24324 0
M  V30 2228 H 219.45 3.49548 3.82148 0
M  V30 2229 H 216.127 0.926886 4.07081 0
M  V30 2230 H 217.517 4.93941 4.55491 0
M  V30 2231 N 220.237 -1.11381 1.11499 0
M  V30 2232 C 221.485 -1.8277 0.862524 0
M  V30 2233 C 221.806 -1.85097 -0.613534 0
M  V30 2234 O 221.076 -1.32198 -1.4457 0
M  V30 2235 H 219.656 -0.676823 0.316101 0
M  V30 2236 H 222.318 -1.34816 1.4075 0
M  V30 2237 H 221.414 -2.86614 1.23527 0
M  V30 2238 N 221.715 -0.905404 -1.28997 0
M  V30 2239 C 222.94 -0.549175 -1.99997 0
M  V30 2240 C 223.365 0.860276 -1.67275 0
M  V30 2241 O 222.723 1.57355 -0.900502 0
M  V30 2242 C 222.771 -0.755185 -3.52604 0
M  V30 2243 O 221.875 0.189692 -4.11964 0
M  V30 2244 H 221.216 -0.213899 -0.628604 0
M  V30 2245 H 223.746 -1.21856 -1.64354 0
M  V30 2246 H 223.756 -0.662045 -4.02593 0
M  V30 2247 H 222.431 -1.78271 -3.75755 0
M  V30 2248 H 221.008 0.0485257 -3.72868 0
M  V30 2249 N 223.193 1.4272 -0.668489 0
M  V30 2250 C 224.418 2.06484 -0.194758 0
M  V30 2251 C 224.843 1.49862 1.13679 0
M  V30 2252 O 224.201 0.614582 1.70565 0
M  V30 2253 C 224.249 3.60353 -0.133546 0
M  V30 2254 O 223.353 4.02464 0.899806 0
M  V30 2255 H 222.694 0.656137 -0.10188 0
M  V30 2256 H 225.224 1.82964 -0.915722 0
M  V30 2257 H 225.234 4.07976 0.0447041 0
M  V30 2258 H 223.909 4.00938 -1.1055 0
M  V30 2259 H 222.486 3.66402 0.693109 0
M  V30 2260 N 224.671 0.411399 1.52136 0
M  V30 2261 C 225.92 -0.165009 2.01024 0
M  V30 2262 C 226.233 -1.4603 1.30133 0
M  V30 2263 O 227.439 -2.1181 1.69849 0
M  V30 2264 C 225.895 -0.344618 3.58246 0
M  V30 2265 C 225.503 0.938716 4.38055 0
M  V30 2266 C 227.247 -0.876195 4.15359 0
M  V30 2267 C 225.154 0.726172 5.86925 0
M  V30 2268 H 224.084 -0.0654407 0.751155 0
M  V30 2269 H 226.735 0.537192 1.75461 0
M  V30 2270 H 225.117 -1.10921 3.80148 0
M  V30 2271 H 226.291 1.70963 4.27912 0
M  V30 2272 H 224.606 1.39688 3.92271 0
M  V30 2273 H 227.203 -1.05128 5.24263 0
M  V30 2274 H 227.546 -1.85152 3.7286 0
M  V30 2275 H 228.079 -0.170607 3.97434 0
M  V30 2276 H 224.818 1.67312 6.33788 0
M  V30 2277 H 224.338 -0.00540283 5.998 0
M  V30 2278 H 226.017 0.369231 6.45946 0
M  V30 2279 N 226.149 -1.5696 0.141893 0
M  V30 2280 C 227.079 -2.19516 -0.795936 0
M  V30 2281 C 228.06 -1.14187 -1.26077 0
M  V30 2282 O 229.245 -1.42511 -1.31925 0
M  V30 2283 C 226.375 -2.81272 -2.03723 0
M  V30 2284 C 225.329 -3.92384 -1.70936 0
M  V30 2285 C 224.655 -4.41052 -3.02287 0
M  V30 2286 C 225.955 -5.13403 -0.959954 0
M  V30 2287 H 227.649 -2.98138 -0.274596 0
M  V30 2288 H 225.195 -1.43406 -0.130636 0
M  V30 2289 H 227.148 -3.237 -2.69808 0
M  V30 2290 H 225.872 -1.99973 -2.58221 0
M  V30 2291 H 224.531 -3.50566 -1.07232 0
M  V30 2292 H 224.179 -3.56582 -3.54765 0
M  V30 2293 H 223.879 -5.15993 -2.81114 0
M  V30 2294 H 225.403 -4.86146 -3.69451 0
M  V30 2295 H 226.817 -5.52706 -1.52279 0
M  V30 2296 H 225.214 -5.94073 -0.848357 0
M  V30 2297 H 226.284 -4.84875 0.0492434 0
M  V30 2298 N 227.627 0.131896 -1.57047 0
M  V30 2299 C 228.59 1.14638 -1.98471 0
M  V30 2300 C 229.59 1.35029 -0.873148 0
M  V30 2301 O 230.78 1.31764 -1.13946 0
M  V30 2302 C 227.912 2.50358 -2.31373 0
M  V30 2303 H 229.105 0.79064 -2.8929 0
M  V30 2304 H 226.658 0.375761 -1.51716 0
M  V30 2305 H 227.393 2.90876 -1.43393 0
M  V30 2306 H 227.178 2.36915 -3.12432 0
M  V30 2307 H 228.668 3.23395 -2.64207 0
M  V30 2308 N 229.106 1.52395 0.401703 0
M  V30 2309 C 230.346 1.68498 1.15705 0
M  V30 2310 C 230.71 0.409748 1.87577 0
M  V30 2311 O 231.911 0.446983 2.65058 0
M  V30 2312 C 230.182 2.87789 2.11924 0
M  V30 2313 S 231.741 3.24415 2.95466 0
M  V30 2314 H 228.559 0.593267 0.391862 0
M  V30 2315 H 231.161 1.90408 0.443282 0
M  V30 2316 H 229.865 3.7884 1.57824 0
M  V30 2317 H 229.396 2.68175 2.87829 0
M  V30 2318 H 231.411 2.73614 4.13944 0
M  V30 2319 N 230.584 -0.659388 1.43143 0
M  V30 2320 C 231.547 -1.75432 1.47501 0
M  V30 2321 C 232.547 -1.56707 0.360512 0
M  V30 2322 O 233.737 -1.62717 0.622002 0
M  V30 2323 C 230.869 -3.14239 1.32162 0
M  V30 2324 H 232.062 -1.7295 2.45006 0
M  V30 2325 H 229.615 -0.870469 1.29817 0
M  V30 2326 H 230.35 -3.22336 0.356401 0
M  V30 2327 H 230.135 -3.29235 2.12948 0
M  V30 2328 H 231.625 -3.94094 1.3813 0
M  V30 2329 N 232.062 -1.29571 -0.897171 0
M  V30 2330 C 233.473 -1.15964 -1.46319 0
M  V30 2331 C 233.824 0.244267 -1.94674 0
M  V30 2332 O 232.949 1.13998 -1.83939 0
M  V30 2333 C 233.544 -2.09906 -2.65942 0
M  V30 2334 C 232.103 -2.00314 -3.18671 0
M  V30 2335 C 231.25 -2.00687 -1.91363 0
M  V30 2336 H 234.201 -1.42019 -0.708268 0
M  V30 2337 H 234.222 -1.67276 -3.41759 0
M  V30 2338 H 233.734 -3.12075 -2.30718 0
M  V30 2339 H 231.835 -1.01242 -3.58582 0
M  V30 2340 H 231.948 -2.88102 -3.82798 0
M  V30 2341 H 230.312 -1.45319 -2.09175 0
M  V30 2342 H 231.095 -3.04566 -1.58413 0
M  V30 2343 N 233.54 1.10788 -1.12088 0
M  V30 2344 C 234.47 2.19083 -0.807755 0
M  V30 2345 C 235.451 1.6858 0.226859 0
M  V30 2346 O 236.636 1.93997 0.0888475 0
M  V30 2347 C 233.766 3.46344 -0.257576 0
M  V30 2348 C 232.72 4.101 -1.22483 0
M  V30 2349 C 232.046 5.32016 -0.535052 0
M  V30 2350 C 233.346 4.54236 -2.57811 0
M  V30 2351 H 235.04 2.45534 -1.71328 0
M  V30 2352 H 232.586 1.1801 -0.825205 0
M  V30 2353 H 234.539 4.21392 -0.0262679 0
M  V30 2354 H 233.263 3.19373 0.683278 0
M  V30 2355 H 231.922 3.37054 -1.44189 0
M  V30 2356 H 231.57 5.01319 0.410827 0
M  V30 2357 H 231.27 5.75625 -1.18024 0
M  V30 2358 H 232.794 6.09799 -0.312695 0
M  V30 2359 H 234.208 5.20575 -2.40155 0
M  V30 2360 H 232.605 5.08682 -3.18375 0
M  V30 2361 H 233.675 3.6734 -3.16528 0
M  V30 2362 N 235.018 0.912232 1.28515 0
M  V30 2363 C 236.248 0.559604 1.98877 0
M  V30 2364 C 236.656 -0.863113 1.68366 0
M  V30 2365 O 235.999 -1.58304 0.931969 0
M  V30 2366 C 236.061 0.68703 3.52874 0
M  V30 2367 C 235.725 2.07901 4.06972 0
M  V30 2368 C 236.722 3.05157 4.20922 0
M  V30 2369 C 234.407 2.39178 4.417 0
M  V30 2370 C 236.401 4.31806 4.68852 0
M  V30 2371 C 234.088 3.66068 4.89324 0
M  V30 2372 C 235.086 4.62195 5.02856 0
M  V30 2373 O 234.774 5.86829 5.49442 0
M  V30 2374 H 234.506 0.212191 0.641834 0
M  V30 2375 H 237.06 1.22712 1.64715 0
M  V30 2376 H 235.29 -0.0375486 3.86682 0
M  V30 2377 H 236.979 0.341727 4.04459 0
M  V30 2378 H 237.745 2.82311 3.94367 0
M  V30 2379 H 233.624 1.65109 4.30418 0
M  V30 2380 H 237.168 5.06842 4.79329 0
M  V30 2381 H 233.065 3.88739 5.15318 0
M  V30 2382 H 233.833 5.89597 5.6773 0
M  V30 2383 N 236.496 -1.42363 0.676048 0
M  V30 2384 C 237.721 -2.06377 0.205705 0
M  V30 2385 C 238.146 -1.50463 -1.12883 0
M  V30 2386 O 237.504 -0.623619 -1.70237 0
M  V30 2387 C 237.552 -3.60277 0.152655 0
M  V30 2388 O 236.656 -4.02935 -0.87845 0
M  V30 2389 H 235.997 -0.655588 0.105359 0
M  V30 2390 H 238.527 -1.82475 0.925412 0
M  V30 2391 H 238.537 -4.07993 -0.0230675 0
M  V30 2392 H 237.212 -4.00346 1.12675 0
M  V30 2393 H 235.789 -3.66764 -0.673668 0
M  V30 2394 N 237.974 -0.419461 -1.51915 0
M  V30 2395 C 239.22 0.145505 -2.02879 0
M  V30 2396 C 239.575 1.41926 -1.29903 0
M  V30 2397 O 238.868 1.87383 -0.399782 0
M  V30 2398 C 239.062 0.437067 -3.54717 0
M  V30 2399 C 238.891 -0.806877 -4.42402 0
M  V30 2400 C 237.661 -1.33514 -4.87342 0
M  V30 2401 C 239.859 -1.68796 -4.85811 0
M  V30 2402 N 237.841 -2.53349 -5.59185 0
M  V30 2403 C 239.212 -2.73247 -5.56539 0
M  V30 2404 C 241.267 -1.70449 -4.67816 0
M  V30 2405 C 239.97 -3.79276 -6.11181 0
M  V30 2406 C 241.996 -2.75403 -5.23361 0
M  V30 2407 C 241.358 -3.78575 -5.9402 0
M  V30 2408 H 237.457 0.0145424 -0.781865 0
M  V30 2409 H 240.041 -0.576126 -1.85981 0
M  V30 2410 H 238.212 1.12774 -3.71667 0
M  V30 2411 H 239.944 0.99182 -3.92358 0
M  V30 2412 H 236.699 -0.891657 -4.65131 0
M  V30 2413 H 237.123 -3.14066 -5.99743 0
M  V30 2414 H 241.765 -0.920209 -4.12664 0
M  V30 2415 H 239.483 -4.58554 -6.65397 0
M  V30 2416 H 243.069 -2.77603 -5.113 0
M  V30 2417 H 241.949 -4.58453 -6.36231 0
M  V30 2418 N 239.452 1.56882 -0.150215 0
M  V30 2419 C 240.868 1.58263 0.20617 0
M  V30 2420 C 241.068 1.16464 1.64434 0
M  V30 2421 O 240.124 0.866422 2.3717 0
M  V30 2422 C 241.437 3.00649 -0.0555025 0
M  V30 2423 C 242.985 3.12999 0.00795388 0
M  V30 2424 C 243.46 4.5744 -0.226429 0
M  V30 2425 N 244.951 4.62875 -0.173469 0
M  V30 2426 C 245.686 5.72454 -0.329288 0
M  V30 2427 N 245.182 6.90669 -0.543005 0
M  V30 2428 N 246.975 5.61467 -0.266666 0
M  V30 2429 H 239.126 1.82345 -1.08922 0
M  V30 2430 H 241.389 0.844149 -0.431413 0
M  V30 2431 H 241.095 3.3563 -1.05096 0
M  V30 2432 H 240.969 3.71337 0.66246 0
M  V30 2433 H 243.356 2.77857 0.993966 0
M  V30 2434 H 243.437 2.4479 -0.742388 0
M  V30 2435 H 243.081 4.93287 -1.20956 0
M  V30 2436 H 243.011 5.2378 0.544274 0
M  V30 2437 H 245.502 3.77898 -0.0130709 0
M  V30 2438 H 245.815 7.70045 -0.651922 0
M  V30 2439 H 244.16 6.92581 -0.579366 0
M  V30 2440 H 247.351 4.67992 -0.100441 0
M  V30 2441 H 247.524 6.46816 -0.391535 0
M  V30 2442 N 240.93 -0.123565 1.57115 0
M  V30 2443 C 242.158 -0.846461 1.88793 0
M  V30 2444 C 242.573 -1.73652 0.740976 0
M  V30 2445 O 241.93 -1.80207 -0.288393 0
M  V30 2446 C 241.981 -1.6837 3.19897 0
M  V30 2447 O 241.702 -0.829477 4.30176 0
M  V30 2448 C 243.203 -2.51214 3.65248 0
M  V30 2449 H 240.423 -0.243573 0.625231 0
M  V30 2450 H 242.967 -0.109324 2.04208 0
M  V30 2451 H 241.122 -2.37364 3.06165 0
M  V30 2452 H 241.536 -1.40651 5.0529 0
M  V30 2453 H 243.01 -3.05497 4.59756 0
M  V30 2454 H 243.487 -3.28359 2.9168 0
M  V30 2455 H 244.093 -1.8747 3.81752 0
M  V30 2456 N 242.408 -1.52605 -0.393616 0
M  V30 2457 C 243.318 -1.79971 -1.50492 0
M  V30 2458 C 244.334 -0.686181 -1.59899 0
M  V30 2459 O 245.51 -0.973274 -1.76322 0
M  V30 2460 C 242.575 -1.95867 -2.86072 0
M  V30 2461 C 241.636 -3.19781 -2.86424 0
M  V30 2462 C 240.869 -3.34909 -4.15538 0
M  V30 2463 O 241.092 -2.54948 -5.10253 0
M  V30 2464 O 240.026 -4.28141 -4.23059 0
M  V30 2465 H 243.852 -2.74328 -1.30299 0
M  V30 2466 H 241.437 -1.3764 -0.581005 0
M  V30 2467 H 243.319 -2.08056 -3.66457 0
M  V30 2468 H 241.994 -1.04699 -3.063 0
M  V30 2469 H 240.901 -3.13038 -2.04837 0
M  V30 2470 H 242.234 -4.1078 -2.71147 0
M  V30 2471 N 243.887 0.651787 -1.4349 0
M  V30 2472 C 244.834 1.76462 -1.4876 0
M  V30 2473 C 245.804 1.62641 -0.337189 0
M  V30 2474 O 246.989 1.82864 -0.544544 0
M  V30 2475 C 244.129 3.14623 -1.41796 0
M  V30 2476 C 243.242 3.39568 -2.67053 0
M  V30 2477 C 242.377 4.67585 -2.52068 0
M  V30 2478 C 241.416 4.85639 -3.72587 0
M  V30 2479 N 240.553 6.04915 -3.56402 0
M  V30 2480 H 245.393 1.71293 -2.43849 0
M  V30 2481 H 242.93 0.835889 -1.21043 0
M  V30 2482 H 244.888 3.94496 -1.35753 0
M  V30 2483 H 243.518 3.18859 -0.50288 0
M  V30 2484 H 242.57 2.53783 -2.8337 0
M  V30 2485 H 243.882 3.48795 -3.56572 0
M  V30 2486 H 243.036 5.55586 -2.4374 0
M  V30 2487 H 241.775 4.60681 -1.60075 0
M  V30 2488 H 240.78 3.96073 -3.81321 0
M  V30 2489 H 242.005 4.94372 -4.65589 0
M  V30 2490 H 239.951 5.9914 -2.67146 0
M  V30 2491 H 239.868 6.15106 -4.39524 0
M  V30 2492 H 241.136 6.95533 -3.51929 0
M  V30 2493 N 245.365 1.30045 0.890287 0
M  V30 2494 C 246.275 1.17885 2.02831 0
M  V30 2495 C 247.291 0.0999609 1.73713 0
M  V30 2496 O 248.467 0.313867 1.98939 0
M  V30 2497 C 245.532 0.866079 3.35708 0
M  V30 2498 C 244.593 2.02979 3.78283 0
M  V30 2499 C 243.826 1.73184 5.0482 0
M  V30 2500 O 244.049 0.657237 5.66601 0
M  V30 2501 O 242.983 2.58267 5.43674 0
M  V30 2502 H 246.809 2.13474 2.16015 0
M  V30 2503 H 244.394 1.09587 1.01543 0
M  V30 2504 H 246.276 0.706623 4.15433 0
M  V30 2505 H 244.951 -0.0599443 3.23644 0
M  V30 2506 H 243.858 2.24454 2.99285 0
M  V30 2507 H 245.191 2.93734 3.94944 0
M  V30 2508 N 246.843 -1.10192 1.12674 0
M  V30 2509 C 248.254 -1.63707 0.897604 0
M  V30 2510 C 248.605 -1.87812 -0.567546 0
M  V30 2511 O 247.73 -1.62196 -1.43253 0
M  V30 2512 C 248.325 -2.974 1.62292 0
M  V30 2513 C 246.884 -3.47772 1.43986 0
M  V30 2514 C 246.031 -2.22332 1.65722 0
M  V30 2515 H 248.982 -0.936587 1.28116 0
M  V30 2516 H 249.003 -3.64986 1.07541 0
M  V30 2517 H 248.515 -2.79824 2.68924 0
M  V30 2518 H 246.616 -3.70487 0.396206 0
M  V30 2519 H 246.729 -4.25723 2.19765 0
M  V30 2520 H 245.093 -2.30599 1.08149 0
M  V30 2521 H 245.876 -2.07285 2.73657 0
M  V30 2522 N 248.321 -0.919034 -1.28029 0
M  V30 2523 C 249.251 -0.428581 -2.29533 0
M  V30 2524 C 250.232 0.50659 -1.62381 0
M  V30 2525 O 251.417 0.413195 -1.89753 0
M  V30 2526 C 248.547 0.327388 -3.45753 0
M  V30 2527 C 247.501 -0.519137 -4.2484 0
M  V30 2528 C 246.827 0.365486 -5.33449 0
M  V30 2529 C 248.127 -1.77914 -4.91064 0
M  V30 2530 H 249.821 -1.27687 -2.70807 0
M  V30 2531 H 247.367 -0.615428 -1.30186 0
M  V30 2532 H 249.32 0.681378 -4.15855 0
M  V30 2533 H 248.044 1.20963 -3.03374 0
M  V30 2534 H 246.703 -0.855717 -3.56473 0
M  V30 2535 H 246.351 1.24642 -4.87312 0
M  V30 2536 H 246.051 -0.197356 -5.87268 0
M  V30 2537 H 247.575 0.715241 -6.06396 0
M  V30 2538 H 248.989 -1.49374 -5.53498 0
M  V30 2539 H 247.386 -2.2848 -5.54903 0
M  V30 2540 H 248.456 -2.50382 -4.15255 0
M  V30 2541 N 249.799 1.42003 -0.683588 0
M  V30 2542 C 251.024 2.06265 -0.216647 0
M  V30 2543 C 251.449 1.51059 1.12083 0
M  V30 2544 O 250.807 0.632638 1.69904 0
M  V30 2545 C 250.855 3.60191 -0.171759 0
M  V30 2546 O 249.959 4.03396 0.857069 0
M  V30 2547 H 249.3 0.65502 -0.108834 0
M  V30 2548 H 251.83 1.81982 -0.935077 0
M  V30 2549 H 251.84 4.08 0.0014303 0
M  V30 2550 H 250.515 3.99743 -1.14796 0
M  V30 2551 H 249.092 3.67117 0.654208 0
M  V30 2552 N 251.277 0.427512 1.51691 0
M  V30 2553 C 252.554 -0.201684 1.94557 0
M  V30 2554 C 252.934 -1.60981 1.36559 0
M  V30 2555 O 252.282 -2.21814 0.548702 0
M  V30 2556 C 252.492 -0.189394 3.48486 0
M  V30 2557 C 253.84 -0.39978 4.22714 0
M  V30 2558 O 254.864 -0.267945 3.55191 0
M  V30 2559 O 253.723 -0.661249 5.42485 0
M  V30 2560 H 250.817 -0.135261 0.815864 0
M  V30 2561 H 253.363 0.484782 1.62628 0
M  V30 2562 H 252.135 0.795431 3.8313 0
M  V30 2563 H 251.758 -0.919187 3.86829 0
M  V30 2564 N 252.755 -1.56801 0.158532 0
M  V30 2565 C 254.166 -1.83189 -0.360366 0
M  V30 2566 C 254.517 -1.07778 -1.63946 0
M  V30 2567 O 253.642 -0.326718 -2.13919 0
M  V30 2568 C 254.237 -3.32297 -0.660595 0
M  V30 2569 C 252.796 -3.59227 -1.12398 0
M  V30 2570 C 251.943 -2.76877 -0.153097 0
M  V30 2571 H 254.894 -1.54008 0.383031 0
M  V30 2572 H 254.915 -3.4908 -1.51405 0
M  V30 2573 H 254.427 -3.87156 0.270527 0
M  V30 2574 H 252.528 -3.09766 -2.07064 0
M  V30 2575 H 252.641 -4.67632 -1.04197 0
M  V30 2576 H 251.005 -2.46319 -0.647983 0
M  V30 2577 H 251.788 -3.34511 0.77182 0
M  V30 2578 N 254.233 0.115231 -1.57178 0
M  V30 2579 C 255.479 0.82357 -1.85325 0
M  V30 2580 C 255.812 1.79349 -0.744814 0
M  V30 2581 O 255.087 1.92899 0.249024 0
M  V30 2582 C 255.37 1.57014 -3.24066 0
M  V30 2583 C 255.223 0.619565 -4.45513 0
M  V30 2584 C 256.542 2.52545 -3.60429 0
M  V30 2585 H 253.661 0.297948 -0.674089 0
M  V30 2586 H 256.303 0.0877138 -1.89797 0
M  V30 2587 H 254.453 2.19742 -3.20383 0
M  V30 2588 H 256.125 0.000837639 -4.613 0
M  V30 2589 H 254.368 -0.0686174 -4.33746 0
M  V30 2590 H 255.039 1.17866 -5.3927 0
M  V30 2591 H 257.515 1.9992 -3.64926 0
M  V30 2592 H 256.391 3.01811 -4.58477 0
M  V30 2593 H 256.652 3.35383 -2.88047 0
M  V30 2594 N 255.711 1.52812 0.385517 0
M  V30 2595 C 256.959 1.67694 1.12797 0
M  V30 2596 C 257.28 0.421115 1.90399 0
M  V30 2597 O 256.55 -0.564551 1.87589 0
M  V30 2598 H 255.13 0.618155 0.419396 0
M  V30 2599 H 257.792 1.89938 0.436972 0
M  V30 2600 H 256.888 2.52896 1.82894 0
M  V30 2601 N 257.189 -0.644168 1.43834 0
M  V30 2602 C 258.417 -1.43147 1.49387 0
M  V30 2603 C 258.832 -1.88452 0.114583 0
M  V30 2604 O 258.189 -1.60047 -0.876989 0
M  V30 2605 C 258.24 -2.66046 2.44748 0
M  V30 2606 O 257.961 -2.22633 3.77314 0
M  V30 2607 C 259.462 -3.59311 2.59635 0
M  V30 2608 H 256.682 -0.439447 0.507077 0
M  V30 2609 H 259.226 -0.78895 1.88669 0
M  V30 2610 H 257.381 -3.26418 2.08638 0
M  V30 2611 H 257.795 -3.02216 4.28679 0
M  V30 2612 H 259.269 -4.42187 3.30416 0
M  V30 2613 H 259.746 -4.07259 1.64427 0
M  V30 2614 H 260.352 -3.04816 2.96593 0
M  V30 2615 N 258.668 -1.30515 -0.883378 0
M  V30 2616 C 259.908 -1.20716 -1.64946 0
M  V30 2617 C 260.272 0.234072 -1.90568 0
M  V30 2618 O 261.473 0.455335 -2.64915 0
M  V30 2619 C 259.744 -2.01444 -2.9522 0
M  V30 2620 S 261.303 -2.0836 -3.86175 0
M  V30 2621 H 258.121 -0.430165 -0.566109 0
M  V30 2622 H 260.723 -1.65011 -1.04841 0
M  V30 2623 H 259.427 -3.05268 -2.74298 0
M  V30 2624 H 258.958 -1.57817 -3.60357 0
M  V30 2625 H 260.973 -1.21215 -4.81167 0
M  V30 2626 N 260.146 1.09593 -1.13257 0
M  V30 2627 C 261.376 1.85231 -0.915049 0
M  V30 2628 C 261.784 1.81345 0.539498 0
M  V30 2629 O 261.127 1.20664 1.38513 0
M  V30 2630 C 261.189 3.34275 -1.3229 0
M  V30 2631 C 260.853 3.6191 -2.79052 0
M  V30 2632 C 261.85 3.57777 -3.77216 0
M  V30 2633 C 259.535 3.90309 -3.16171 0
M  V30 2634 C 261.529 3.81652 -5.1051 0
M  V30 2635 C 259.216 4.13839 -4.49644 0
M  V30 2636 C 260.214 4.09502 -5.46623 0
M  V30 2637 O 259.902 4.32426 -6.77689 0
M  V30 2638 H 259.634 0.591997 -0.326367 0
M  V30 2639 H 262.188 1.394 -1.50854 0
M  V30 2640 H 260.418 3.80805 -0.672667 0
M  V30 2641 H 262.107 3.9132 -1.07812 0
M  V30 2642 H 262.873 3.35865 -3.49885 0
M  V30 2643 H 258.752 3.92811 -2.41289 0
M  V30 2644 H 262.296 3.78182 -5.86195 0
M  V30 2645 H 258.193 4.35232 -4.767 0
M  V30 2646 H 258.961 4.49896 -6.83766 0
M  V30 2647 N 261.624 0.925811 1.2754 0
M  V30 2648 C 262.554 0.440748 2.29303 0
M  V30 2649 C 263.535 -0.497971 1.62648 0
M  V30 2650 O 264.72 -0.403126 1.8997 0
M  V30 2651 C 261.85 -0.309048 3.45922 0
M  V30 2652 C 260.804 0.54166 4.24559 0
M  V30 2653 C 260.13 -0.337191 5.33636 0
M  V30 2654 C 261.43 1.80516 4.90114 0
M  V30 2655 H 263.124 1.29121 2.70126 0
M  V30 2656 H 260.67 0.622323 1.29858 0
M  V30 2657 H 262.623 -0.659315 4.1621 0
M  V30 2658 H 261.347 -1.19352 3.04011 0
M  V30 2659 H 260.006 0.874609 3.56014 0
M  V30 2660 H 259.654 -1.22056 4.87966 0
M  V30 2661 H 259.354 0.228497 5.87156 0
M  V30 2662 H 260.878 -0.683072 6.06767 0
M  V30 2663 H 262.292 1.52307 5.52698 0
M  V30 2664 H 260.689 2.3142 5.53683 0
M  V30 2665 H 261.759 2.52581 4.13921 0
M  V30 2666 N 263.102 -1.41638 0.69111 0
M  V30 2667 C 264.327 -2.06148 0.227583 0
M  V30 2668 C 264.752 -1.51652 -1.11281 0
M  V30 2669 O 264.11 -0.64164 -1.69566 0
M  V30 2670 C 264.158 -3.60095 0.190858 0
M  V30 2671 O 263.262 -4.03845 -0.835664 0
M  V30 2672 H 262.603 -0.654434 0.112306 0
M  V30 2673 H 265.133 -1.81484 0.944714 0
M  V30 2674 H 265.143 -4.07995 0.020207 0
M  V30 2675 H 263.818 -3.99129 1.16915 0
M  V30 2676 H 262.395 -3.67458 -0.63473 0
M  V30 2677 N 264.58 -0.43555 -1.51462 0
M  V30 2678 C 265.808 0.130242 -2.0649 0
M  V30 2679 C 266.223 1.36614 -1.30315 0
M  V30 2680 O 265.58 1.78869 -0.362223 0
M  V30 2681 C 265.631 0.454253 -3.58635 0
M  V30 2682 O 265.352 -0.73259 -4.31931 0
M  V30 2683 C 266.853 1.07091 -4.3017 0
M  V30 2684 H 264.073 0.00871669 -0.670943 0
M  V30 2685 H 266.617 -0.614117 -1.95061 0
M  V30 2686 H 264.772 1.14851 -3.69984 0
M  V30 2687 H 265.186 -0.455787 -5.22516 0
M  V30 2688 H 266.66 1.24764 -5.37716 0
M  V30 2689 H 267.137 2.05144 -3.88346 0
M  V30 2690 H 267.743 0.416089 -4.2326 0
M  V30 2691 N 266.058 1.56714 -0.166846 0
M  V30 2692 C 267.335 1.88412 0.525373 0
M  V30 2693 C 267.715 1.07602 1.81618 0
M  V30 2694 O 267.063 0.168621 2.27877 0
M  V30 2695 C 267.273 3.40363 0.771613 0
M  V30 2696 C 268.621 4.10007 1.1036 0
M  V30 2697 O 269.645 3.45655 0.860304 0
M  V30 2698 O 268.504 5.2369 1.56239 0
M  V30 2699 H 265.598 0.781587 0.270278 0
M  V30 2700 H 268.144 1.68458 -0.204946 0
M  V30 2701 H 266.916 3.91046 -0.141093 0
M  V30 2702 H 266.539 3.65914 1.55541 0
M  V30 2703 N 267.536 -0.106894 1.57237 0
M  V30 2704 C 268.484 -1.14944 2.02215 0
M  V30 2705 C 269.478 -1.42167 0.92114 0
M  V30 2706 O 270.684 -1.41987 1.10634 0
M  V30 2707 H 267.059 -0.387841 0.64427 0
M  V30 2708 H 269.03 -0.743683 2.88984 0
M  V30 2709 C 267.779 -2.4647 2.4525 0
M  V30 2710 H 267.102 -2.26363 3.29545 0
M  V30 2711 H 268.542 -3.17948 2.80508 0
M  V30 2712 C 267.001 -3.09921 1.321 0
M  V30 2713 O 267.531 -3.9651 0.643622 0
M  V30 2714 N 265.737 -2.69986 1.07497 0
M  V30 2715 H 265.284 -1.99667 1.62761 0
M  V30 2716 H 265.242 -3.12769 0.319876 0
M  V30 2717 N 269.014 -1.53014 -0.377408 0
M  V30 2718 C 270.261 -1.68623 -1.12128 0
M  V30 2719 C 270.589 -0.431997 -1.89642 0
M  V30 2720 O 269.844 0.585855 -1.86725 0
M  V30 2721 C 270.143 -2.87982 -2.11663 0
M  V30 2722 C 269.809 -4.24964 -1.50719 0
M  V30 2723 C 268.471 -4.62217 -1.33825 0
M  V30 2724 C 270.823 -5.10199 -1.06519 0
M  V30 2725 C 268.151 -5.82352 -0.712963 0
M  V30 2726 C 270.503 -6.30969 -0.453955 0
M  V30 2727 C 269.167 -6.66944 -0.272411 0
M  V30 2728 H 268.437 -0.617034 -0.410305 0
M  V30 2729 H 271.084 -1.8718 -0.404484 0
M  V30 2730 H 269.389 -2.63889 -2.89603 0
M  V30 2731 H 271.086 -2.97253 -2.6915 0
M  V30 2732 H 267.676 -3.95626 -1.64858 0
M  V30 2733 H 271.86 -4.81978 -1.18368 0
M  V30 2734 H 267.116 -6.08824 -0.560611 0
M  V30 2735 H 271.29 -6.96324 -0.103217 0
M  V30 2736 H 268.917 -7.59898 0.214181 0
M  V30 2737 N 270.492 0.636531 -1.44174 0
M  V30 2738 C 271.72 1.42353 -1.50144 0
M  V30 2739 C 272.135 1.88389 -0.124575 0
M  V30 2740 O 271.492 1.6051 0.868489 0
M  V30 2741 C 271.543 2.64744 -2.46156 0
M  V30 2742 O 271.264 2.20629 -3.7849 0
M  V30 2743 C 272.765 3.57929 -2.61537 0
M  V30 2744 H 269.985 0.436752 -0.5094 0
M  V30 2745 H 272.529 0.778933 -1.89084 0
M  V30 2746 H 270.684 3.25307 -2.10366 0
M  V30 2747 H 271.098 2.99938 -4.30276 0
M  V30 2748 H 272.572 4.40428 -3.32757 0
M  V30 2749 H 273.049 4.06382 -1.66585 0
M  V30 2750 H 273.655 3.03238 -2.98206 0
M  V30 2751 N 271.97 1.30982 0.876444 0
M  V30 2752 C 273.386 1.09498 1.16113 0
M  V30 2753 C 273.586 -0.13875 2.01022 0
M  V30 2754 O 272.642 -0.829935 2.38471 0
M  V30 2755 C 273.955 2.36308 1.85954 0
M  V30 2756 C 275.503 2.41856 1.98683 0
M  V30 2757 C 275.978 3.6853 2.71937 0
M  V30 2758 N 277.469 3.69387 2.79477 0
M  V30 2759 C 278.204 4.64096 3.36753 0
M  V30 2760 N 277.7 5.69155 3.95012 0
M  V30 2761 N 279.493 4.51626 3.3465 0
M  V30 2762 H 271.644 2.10118 0.310494 0
M  V30 2763 H 273.907 0.926634 0.200131 0
M  V30 2764 H 273.613 3.26388 1.31011 0
M  V30 2765 H 273.487 2.4561 2.86278 0
M  V30 2766 H 275.874 1.52249 2.52793 0
M  V30 2767 H 275.955 2.36523 0.9742 0
M  V30 2768 H 275.599 4.58499 2.18496 0
M  V30 2769 H 275.529 3.71127 3.73593 0
M  V30 2770 H 278.02 2.93438 2.38123 0
M  V30 2771 H 278.333 6.3751 4.36808 0
M  V30 2772 H 276.678 5.72937 3.93406 0
M  V30 2773 H 279.869 3.68728 2.8837 0
M  V30 2774 H 280.042 5.25614 3.7899 0
M  V30 2775 N 273.449 -1.08991 1.13837 0
M  V30 2776 C 274.698 -1.80631 0.897509 0
M  V30 2777 C 275.011 -1.86872 -0.57777 0
M  V30 2778 O 276.217 -2.54866 -0.935701 0
M  V30 2779 C 274.673 -3.24517 1.55618 0
M  V30 2780 C 274.281 -3.26529 3.0673 0
M  V30 2781 C 276.025 -4.00882 1.3962 0
M  V30 2782 C 273.932 -4.64965 3.65461 0
M  V30 2783 H 272.862 -0.67691 0.332129 0
M  V30 2784 H 275.513 -1.2246 1.3666 0
M  V30 2785 H 273.895 -3.82778 1.01476 0
M  V30 2786 H 275.069 -2.78008 3.67489 0
M  V30 2787 H 273.384 -2.63656 3.22296 0
M  V30 2788 H 275.981 -5.03167 1.80906 0
M  V30 2789 H 276.324 -4.14896 0.341578 0
M  V30 2790 H 276.857 -3.49075 1.90766 0
M  V30 2791 H 273.596 -4.56153 4.70749 0
M  V30 2792 H 273.116 -5.13792 3.09481 0
M  V30 2793 H 274.795 -5.3394 3.654 0
M  V30 2794 N 274.927 -0.932562 -1.27047 0
M  V30 2795 C 275.857 -0.452902 -2.29066 0
M  V30 2796 C 276.838 0.489338 -1.62909 0
M  V30 2797 O 278.023 0.393046 -1.90181 0
M  V30 2798 C 275.153 0.290698 -3.46081 0
M  V30 2799 C 274.107 -0.564168 -4.24265 0
M  V30 2800 C 273.433 0.308886 -5.33807 0
M  V30 2801 C 274.733 -1.83112 -4.89149 0
M  V30 2802 H 276.427 -1.30552 -2.69437 0
M  V30 2803 H 273.973 -0.629201 -1.29526 0
M  V30 2804 H 275.926 0.637233 -4.16554 0
M  V30 2805 H 274.65 1.17738 -3.0464 0
M  V30 2806 H 273.309 -0.893477 -3.55545 0
M  V30 2807 H 272.957 1.19467 -4.88607 0
M  V30 2808 H 272.657 -0.259633 -5.87026 0
M  V30 2809 H 274.181 0.650884 -6.07121 0
M  V30 2810 H 275.595 -1.55236 -5.51883 0
M  V30 2811 H 273.992 -2.34353 -5.52448 0
M  V30 2812 H 275.062 -2.54772 -4.12576 0
M  V30 2813 N 276.405 1.4127 -0.698611 0
M  V30 2814 C 277.315 2.34573 -0.0357891 0
M  V30 2815 C 278.331 1.56393 0.762701 0
M  V30 2816 O 279.507 1.8886 0.699564 0
M  V30 2817 C 276.572 3.35159 0.887089 0
M  V30 2818 C 275.633 4.29225 0.0804634 0
M  V30 2819 C 274.866 5.25006 0.959387 0
M  V30 2820 O 275.089 5.26314 2.19886 0
M  V30 2821 O 274.023 6.00519 0.407439 0
M  V30 2822 H 277.849 2.92838 -0.804957 0
M  V30 2823 H 275.434 1.42175 -0.458966 0
M  V30 2824 H 277.316 3.9689 1.41621 0
M  V30 2825 H 275.991 2.79333 1.6357 0
M  V30 2826 H 274.898 3.70833 -0.493328 0
M  V30 2827 H 276.231 4.88157 -0.629547 0
M  V30 2828 N 277.883 0.443576 1.51229 0
M  V30 2829 C 279.113 -0.119117 2.06256 0
M  V30 2830 C 279.521 -1.36471 1.31043 0
M  V30 2831 O 278.864 -1.80034 0.365151 0
M  V30 2832 C 278.926 -0.500546 3.55998 0
M  V30 2833 C 278.59 0.639125 4.52509 0
M  V30 2834 C 279.587 1.51311 4.97394 0
M  V30 2835 C 277.272 0.821632 4.95535 0
M  V30 2836 C 279.266 2.55425 5.83984 0
M  V30 2837 C 276.953 1.86603 5.81913 0
M  V30 2838 C 277.951 2.73072 6.26036 0
M  V30 2839 O 277.639 3.75718 7.10698 0
M  V30 2840 H 277.371 -0.00857665 0.675946 0
M  V30 2841 H 279.925 0.623288 1.95715 0
M  V30 2842 H 278.155 -1.29575 3.64345 0
M  V30 2843 H 279.844 -0.995116 3.93513 0
M  V30 2844 H 280.61 1.38367 4.64844 0
M  V30 2845 H 276.489 0.158149 4.60729 0
M  V30 2846 H 280.033 3.22949 6.18344 0
M  V30 2847 H 275.93 1.99564 6.13876 0
M  V30 2848 H 276.698 3.72374 7.2889 0
M  V30 2849 N 279.361 -1.56624 0.175154 0
M  V30 2850 C 280.324 -2.16934 -0.739738 0
M  V30 2851 C 281.324 -1.11842 -1.15533 0
M  V30 2852 O 282.514 -1.37335 -1.07167 0
M  V30 2853 C 279.646 -2.75531 -2.00738 0
M  V30 2854 H 280.839 -2.99131 -0.214639 0
M  V30 2855 H 278.392 -1.56123 -0.0744197 0
M  V30 2856 H 279.127 -1.97078 -2.57548 0
M  V30 2857 H 278.912 -3.52444 -1.71831 0
M  V30 2858 H 280.402 -3.21904 -2.66021 0
M  V30 2859 N 280.839 0.0985539 -1.57292 0
M  V30 2860 C 282.25 0.653457 -1.74891 0
M  V30 2861 C 282.601 1.7929 -0.796838 0
M  V30 2862 O 281.726 2.16385 0.0254886 0
M  V30 2863 C 282.321 1.19216 -3.17133 0
M  V30 2864 C 280.88 1.69316 -3.36168 0
M  V30 2865 C 280.027 0.601294 -2.70702 0
M  V30 2866 H 282.978 -0.127497 -1.58187 0
M  V30 2867 H 282.999 2.06154 -3.19814 0
M  V30 2868 H 282.511 0.362635 -3.86402 0
M  V30 2869 H 280.612 2.5468 -2.71972 0
M  V30 2870 H 280.725 1.78853 -4.44464 0
M  V30 2871 H 279.089 1.0399 -2.32504 0
M  V30 2872 H 279.872 -0.217592 -3.4261 0
M  V30 2873 N 282.317 1.53212 0.369288 0
M  V30 2874 C 283.557 1.70915 1.12105 0
M  V30 2875 C 283.921 0.449444 1.86665 0
M  V30 2876 O 285.122 0.503105 2.6405 0
M  V30 2877 C 283.393 2.9222 2.05772 0
M  V30 2878 S 284.952 3.30609 2.88519 0
M  V30 2879 H 281.77 0.601445 0.379189 0
M  V30 2880 H 284.372 1.91306 0.402794 0
M  V30 2881 H 283.076 3.82103 1.49752 0
M  V30 2882 H 282.607 2.7422 2.82076 0
M  V30 2883 H 284.622 2.82333 4.08047 0
M  V30 2884 N 283.795 -0.628877 1.44509 0
M  V30 2885 C 285.211 -0.947305 1.28446 0
M  V30 2886 C 285.411 -2.00275 0.221872 0
M  V30 2887 O 284.467 -2.49447 -0.391471 0
M  V30 2888 C 285.78 -1.40843 2.65676 0
M  V30 2889 C 287.328 -1.52379 2.73404 0
M  V30 2890 C 287.803 -2.01875 4.11109 0
M  V30 2891 N 289.294 -2.09142 4.13296 0
M  V30 2892 C 290.029 -2.48615 5.16699 0
M  V30 2893 N 289.525 -2.87209 6.30462 0
M  V30 2894 N 291.318 -2.48768 5.04054 0
M  V30 2895 H 283.469 0.0690977 2.12288 0
M  V30 2896 H 285.732 -0.0317164 0.947469 0
M  V30 2897 H 285.438 -0.707206 3.44516 0
M  V30 2898 H 285.312 -2.37902 2.92716 0
M  V30 2899 H 287.699 -2.21598 1.9488 0
M  V30 2900 H 287.78 -0.536898 2.50102 0
M  V30 2901 H 287.424 -1.3325 4.90109 0
M  V30 2902 H 287.354 -3.0144 4.31789 0
M  V30 2903 H 289.845 -1.81991 3.31191 0
M  V30 2904 H 290.158 -3.16149 7.05174 0
M  V30 2905 H 288.503 -2.84955 6.33897 0
M  V30 2906 H 291.694 -2.18009 4.14234 0
M  V30 2907 H 291.867 -2.79207 5.84763 0
M  V30 2908 N 285.273 -1.31445 -0.869486 0
M  V30 2909 C 286.498 -1.24256 -1.66058 0
M  V30 2910 C 286.923 0.188928 -1.87149 0
M  V30 2911 O 286.281 1.13522 -1.4136 0
M  V30 2912 C 286.329 -1.9924 -3.00559 0
M  V30 2913 O 285.433 -1.33007 -3.90362 0
M  V30 2914 H 284.774 -0.428973 -0.506831 0
M  V30 2915 H 287.304 -1.73521 -1.08404 0
M  V30 2916 H 287.314 -2.08854 -3.50491 0
M  V30 2917 H 285.989 -3.03342 -2.84528 0
M  V30 2918 H 284.566 -1.31848 -3.48813 0
M  V30 2919 N 286.751 1.08385 -1.14413 0
M  V30 2920 C 288.028 1.77429 -0.823297 0
M  V30 2921 C 288.408 1.9974 0.683163 0
M  V30 2922 O 287.756 1.60739 1.62405 0
M  V30 2923 C 287.966 3.09004 -1.62227 0
M  V30 2924 C 289.314 3.83532 -1.82177 0
M  V30 2925 O 290.338 3.18786 -1.58915 0
M  V30 2926 O 289.197 4.99792 -2.21067 0
M  V30 2927 H 286.291 0.769999 -0.301712 0
M  V30 2928 H 288.837 1.14846 -1.24934 0
M  V30 2929 H 287.609 2.88316 -2.64555 0
M  V30 2930 H 287.232 3.79316 -1.19187 0
M  V30 2931 N 288.23 0.939286 1.26551 0
M  V30 2932 C 289.477 0.585847 1.9384 0
M  V30 2933 C 289.805 -0.874784 1.73718 0
M  V30 2934 O 289.06 -1.64092 1.06642 0
M  V30 2935 C 289.359 0.872106 3.46596 0
M  V30 2936 C 289.025 2.31632 3.86856 0
M  V30 2937 C 287.687 2.71111 3.97558 0
M  V30 2938 C 290.039 3.25494 4.07066 0
M  V30 2939 C 287.367 4.03553 4.25866 0
M  V30 2940 C 289.719 4.57531 4.36862 0
M  V30 2941 C 288.383 4.96828 4.45778 0
M  V30 2942 H 287.653 0.214377 0.709312 0
M  V30 2943 H 290.3 1.18544 1.50398 0
M  V30 2944 H 288.605 0.18996 3.91339 0
M  V30 2945 H 290.302 0.577442 3.96821 0
M  V30 2946 H 286.892 2.00008 3.79071 0
M  V30 2947 H 291.076 2.9619 3.98227 0
M  V30 2948 H 286.332 4.33665 4.30981 0
M  V30 2949 H 290.506 5.30254 4.51446 0
M  V30 2950 H 288.133 5.99482 4.67468 0
M  V30 2951 N 289.708 -1.40897 0.706093 0
M  V30 2952 C 290.933 -2.05895 0.249435 0
M  V30 2953 C 291.358 -1.52823 -1.09666 0
M  V30 2954 O 290.716 -0.659589 -1.68876 0
M  V30 2955 C 290.764 -3.59872 0.22904 0
M  V30 2956 O 289.868 -4.04708 -0.792784 0
M  V30 2957 H 289.209 -0.653206 0.119241 0
M  V30 2958 H 291.739 -1.80471 0.96391 0
M  V30 2959 H 291.749 -4.07951 0.0634791 0
M  V30 2960 H 290.424 -3.97866 1.21141 0
M  V30 2961 H 289.001 -3.68111 -0.59572 0
M  V30 2962 N 291.186 -0.45159 -1.50991 0
M  V30 2963 C 292.432 0.102439 -2.03142 0
M  V30 2964 C 292.787 1.39138 -1.32884 0
M  V30 2965 O 292.08 1.86493 -0.439438 0
M  V30 2966 C 292.274 0.361728 -3.55565 0
M  V30 2967 C 292.103 -0.900535 -4.40591 0
M  V30 2968 C 290.873 -1.43821 -4.844 0
M  V30 2969 C 293.071 -1.79063 -4.82121 0
M  V30 2970 N 291.053 -2.65153 -5.53685 0
M  V30 2971 C 292.424 -2.84991 -5.50618 0
M  V30 2972 C 294.479 -1.80334 -4.64095 0
M  V30 2973 C 293.182 -3.92155 -6.02998 0
M  V30 2974 C 295.208 -2.86442 -5.17402 0
M  V30 2975 C 294.57 -3.9109 -5.85857 0
M  V30 2976 H 290.669 -0.00204537 -0.781997 0
M  V30 2977 H 293.253 -0.615446 -1.84717 0
M  V30 2978 H 291.424 1.04865 -3.73976 0
M  V30 2979 H 293.156 0.908372 -3.94374 0
M  V30 2980 H 289.911 -0.990117 -4.63135 0
M  V30 2981 H 290.335 -3.26717 -5.92946 0
M  V30 2982 H 294.977 -1.00753 -4.1062 0
M  V30 2983 H 292.695 -4.72565 -6.55521 0
M  V30 2984 H 296.281 -2.88386 -5.05297 0
M  V30 2985 H 295.161 -4.71845 -6.26364 0
M  V30 2986 N 292.664 1.56529 -0.183458 0
M  V30 2987 C 293.627 2.17324 0.728223 0
M  V30 2988 C 294.627 1.12453 1.14939 0
M  V30 2989 O 295.817 1.37902 1.06437 0
M  V30 2990 C 292.949 2.76591 1.99274 0
M  V30 2991 H 294.142 2.99241 0.198772 0
M  V30 2992 H 291.695 1.5616 0.0661391 0
M  V30 2993 H 292.43 1.98441 2.56499 0
M  V30 2994 H 292.215 3.5335 1.69959 0
M  V30 2995 H 293.705 3.23311 2.6431 0
M  V30 2996 N 294.142 -0.090211 1.57342 0
M  V30 2997 C 295.105 -1.09335 2.01441 0
M  V30 2998 C 296.105 -1.32666 0.908641 0
M  V30 2999 O 297.295 -1.28697 1.174 0
M  V30 3000 C 294.427 -2.44136 2.3793 0
M  V30 3001 H 295.62 -0.713662 2.91285 0
M  V30 3002 H 293.173 -0.335404 1.52659 0
M  V30 3003 H 293.908 -2.86972 1.51055 0
M  V30 3004 H 293.693 -2.28548 3.18603 0
M  V30 3005 H 295.183 -3.16277 2.72688 0
M  V30 3006 N 295.62 -1.53406 -0.361157 0
M  V30 3007 C 296.868 -1.69467 -1.10115 0
M  V30 3008 C 297.189 -0.451352 -1.89705 0
M  V30 3009 O 296.459 0.534636 -1.88463 0
M  V30 3010 H 295.039 -0.624749 -0.409508 0
M  V30 3011 H 297.701 -1.90609 -0.406699 0
M  V30 3012 H 296.797 -2.55774 -1.78847 0
M  V30 3013 N 297.098 0.621204 -1.44841 0
M  V30 3014 C 298.03 1.74615 -1.48466 0
M  V30 3015 C 299.043 1.58377 -0.37691 0
M  V30 3016 O 300.232 1.66508 -0.643215 0
M  V30 3017 C 297.332 3.12459 -1.31236 0
M  V30 3018 C 296.505 3.55064 -2.55438 0
M  V30 3019 C 295.564 4.71821 -2.32963 0
M  V30 3020 O 294.59 4.79628 -3.06505 0
M  V30 3021 N 295.792 5.64186 -1.36654 0
M  V30 3022 H 298.557 1.71973 -2.45449 0
M  V30 3023 H 296.118 0.806077 -1.40407 0
M  V30 3024 H 298.11 3.88302 -1.14032 0
M  V30 3025 H 296.68 3.09686 -0.4258 0
M  V30 3026 H 295.9 2.69324 -2.87851 0
M  V30 3027 H 297.188 3.80284 -3.38026 0
M  V30 3028 H 296.586 5.6058 -0.759344 0
M  V30 3029 H 295.143 6.39618 -1.25425 0
M  V30 3030 N 298.576 1.31904 0.862503 0
M  V30 3031 C 299.824 1.21776 1.61292 0
M  V30 3032 C 300.145 -0.222413 1.93727 0
M  V30 3033 O 299.415 -1.1451 1.58947 0
M  V30 3034 H 297.995 0.447717 0.597962 0
M  V30 3035 H 300.657 1.65326 1.03215 0
M  V30 3036 H 299.753 1.7948 2.5533 0
M  V30 3037 N 300.054 -1.07777 1.14986 0
M  V30 3038 C 301.284 -1.83752 0.944402 0
M  V30 3039 C 301.692 -1.8218 -0.51058 0
M  V30 3040 O 301.035 -1.22852 -1.36576 0
M  V30 3041 C 301.097 -3.32128 1.37592 0
M  V30 3042 C 300.761 -3.57425 2.84775 0
M  V30 3043 C 301.758 -3.5173 3.8286 0
M  V30 3044 C 299.443 -3.8523 3.2234 0
M  V30 3045 C 301.437 -3.73482 5.16517 0
M  V30 3046 C 299.124 -4.06634 4.56171 0
M  V30 3047 C 300.122 -4.00754 5.53069 0
M  V30 3048 O 299.81 -4.2159 6.84483 0
M  V30 3049 H 299.542 -0.58673 0.335744 0
M  V30 3050 H 302.096 -1.36982 1.53052 0
M  V30 3051 H 300.326 -3.79686 0.733165 0
M  V30 3052 H 302.015 -3.89555 1.14024 0
M  V30 3053 H 302.781 -3.30256 3.55184 0
M  V30 3054 H 298.66 -3.88923 2.47508 0
M  V30 3055 H 302.204 -3.68808 5.92137 0
M  V30 3056 H 298.101 -4.27593 4.83564 0
M  V30 3057 H 298.869 -4.38961 6.90837 0
M  V30 3058 N 301.532 -0.945985 -1.26051 0
M  V30 3059 C 302.772 -0.603665 -1.95282 0
M  V30 3060 C 303.136 0.842377 -1.72534 0
M  V30 3061 O 304.337 1.29387 -2.35611 0
M  V30 3062 C 302.608 -0.942292 -3.44754 0
M  V30 3063 S 304.167 -0.711242 -4.32997 0
M  V30 3064 H 300.985 -0.222176 -0.675395 0
M  V30 3065 H 303.587 -1.21832 -1.52896 0
M  V30 3066 H 302.291 -1.99203 -3.58812 0
M  V30 3067 H 301.822 -0.317546 -3.92116 0
M  V30 3068 H 303.837 0.422221 -4.944 0
M  V30 3069 N 303.011 1.40521 -0.713556 0
M  V30 3070 C 303.943 2.29191 -0.0203126 0
M  V30 3071 C 304.956 1.45723 0.725864 0
M  V30 3072 O 306.145 1.69033 0.573581 0
M  V30 3073 C 303.245 3.2395 0.995486 0
M  V30 3074 C 302.418 4.36262 0.315256 0
M  V30 3075 C 301.477 5.11474 1.23616 0
M  V30 3076 O 300.503 5.64606 0.721719 0
M  V30 3077 N 301.705 5.20638 2.56743 0
M  V30 3078 H 304.47 2.89327 -0.781652 0
M  V30 3079 H 302.031 1.51869 -0.561022 0
M  V30 3080 H 304.023 3.71137 1.61368 0
M  V30 3081 H 302.593 2.64995 1.6582 0
M  V30 3082 H 301.813 3.91228 -0.483106 0
M  V30 3083 H 303.101 5.08558 -0.157004 0
M  V30 3084 H 302.499 4.7895 3.01037 0
M  V30 3085 H 301.056 5.71339 3.13712 0
M  V30 3086 N 304.489 0.459591 1.5075 0
M  V30 3087 C 305.737 -0.0991532 2.01857 0
M  V30 3088 C 306.058 -1.41247 1.34441 0
M  V30 3089 O 305.328 -1.89775 0.486022 0
M  V30 3090 H 303.908 -0.039633 0.745948 0
M  V30 3091 H 306.57 0.607387 1.85194 0
M  V30 3092 H 305.666 -0.258998 3.11023 0
M  V30 3093 N 305.967 -1.56429 0.191757 0
M  V30 3094 C 307.215 -1.97095 -0.447006 0
M  V30 3095 C 307.536 -1.07967 -1.62383 0
M  V30 3096 O 306.806 -0.150248 -1.95323 0
M  V30 3097 H 305.386 -0.727832 -0.168135 0
M  V30 3098 H 308.048 -1.92911 0.27771 0
M  V30 3099 H 307.144 -3.01848 -0.793371 0
M  V30 3100 N 307.445 0.0818655 -1.57387 0
M  V30 3101 C 308.692 0.782914 -1.86753 0
M  V30 3102 C 309.02 1.78082 -0.782118 0
M  V30 3103 O 308.275 1.94426 0.22295 0
M  V30 3104 C 308.574 1.53513 -3.22752 0
M  V30 3105 C 308.24 0.678134 -4.45771 0
M  V30 3106 C 306.902 0.441929 -4.79166 0
M  V30 3107 C 309.254 0.0832243 -5.21134 0
M  V30 3108 C 306.582 -0.398833 -5.85343 0
M  V30 3109 C 308.934 -0.744935 -6.28199 0
M  V30 3110 C 307.598 -0.991107 -6.60101 0
M  V30 3111 H 306.868 0.286489 -0.683378 0
M  V30 3112 H 309.515 0.0439808 -1.91449 0
M  V30 3113 H 307.82 2.34599 -3.138 0
M  V30 3114 H 309.517 2.08218 -3.42705 0
M  V30 3115 H 306.107 0.872357 -4.19628 0
M  V30 3116 H 310.291 0.252847 -4.95655 0
M  V30 3117 H 305.547 -0.598405 -6.08465 0
M  V30 3118 H 309.721 -1.21271 -6.8576 0
M  V30 3119 H 307.348 -1.64437 -7.42202 0
M  V30 3120 N 308.923 1.53595 0.353017 0
M  V30 3121 C 310.148 1.7462 1.11904 0
M  V30 3122 C 310.573 0.479721 1.8188 0
M  V30 3123 O 309.931 -0.567066 1.72204 0
M  V30 3124 C 309.979 2.92029 2.11545 0
M  V30 3125 O 309.083 2.61516 3.18878 0
M  V30 3126 H 308.424 0.579531 0.324099 0
M  V30 3127 H 310.954 2.00525 0.406301 0
M  V30 3128 H 310.964 3.18551 2.5493 0
M  V30 3129 H 309.639 3.83888 1.60008 0
M  V30 3130 H 308.216 2.45852 2.80377 0
M  V30 3131 N 310.401 -0.613514 1.45168 0
M  V30 3132 C 311.364 -1.7065 1.53007 0
M  V30 3133 C 312.364 -1.5548 0.410184 0
M  V30 3134 O 313.554 -1.60656 0.673455 0
M  V30 3135 C 310.686 -3.09875 1.42093 0
M  V30 3136 H 311.879 -1.65068 2.50385 0
M  V30 3137 H 309.432 -0.828728 1.32521 0
M  V30 3138 H 310.167 -3.21039 0.458769 0
M  V30 3139 H 309.952 -3.22293 2.23315 0
M  V30 3140 H 311.442 -3.895 1.50598 0
M  V30 3141 N 311.879 -1.3236 -0.855495 0
M  V30 3142 C 312.789 -1.23221 -1.99634 0
M  V30 3143 C 313.805 -0.145983 -1.73387 0
M  V30 3144 O 314.981 -0.366502 -1.98037 0
M  V30 3145 C 312.046 -0.954782 -3.33294 0
M  V30 3146 C 311.107 -2.12937 -3.72769 0
M  V30 3147 C 310.34 -1.86508 -5.00051 0
M  V30 3148 O 310.563 -0.807231 -5.64659 0
M  V30 3149 O 309.497 -2.72591 -5.36636 0
M  V30 3150 H 313.323 -2.19126 -2.1028 0
M  V30 3151 H 310.908 -1.12241 -0.986018 0
M  V30 3152 H 312.79 -0.816519 -4.13414 0
M  V30 3153 H 311.465 -0.0258854 -3.2369 0
M  V30 3154 H 310.372 -2.3231 -2.93228 0
M  V30 3155 H 311.705 -3.04102 -3.87018 0
M  V30 3156 N 313.357 1.07166 -1.15556 0
M  V30 3157 C 314.604 1.79798 -0.931604 0
M  V30 3158 C 314.932 1.8682 0.54115 0
M  V30 3159 O 314.187 1.34942 1.41736 0
M  V30 3160 C 314.486 3.24707 -1.49332 0
M  V30 3161 C 314.152 3.37781 -2.98688 0
M  V30 3162 C 312.814 3.41057 -3.39461 0
M  V30 3163 C 315.166 3.40424 -3.94665 0
M  V30 3164 C 312.494 3.4458 -4.74849 0
M  V30 3165 C 314.846 3.45485 -5.29927 0
M  V30 3166 C 313.51 3.47039 -5.70193 0
M  V30 3167 H 312.78 0.657928 -0.340898 0
M  V30 3168 H 315.427 1.26091 -1.44129 0
M  V30 3169 H 313.732 3.81208 -0.904859 0
M  V30 3170 H 315.429 3.79486 -1.29582 0
M  V30 3171 H 312.019 3.35932 -2.66172 0
M  V30 3172 H 316.203 3.37113 -3.64237 0
M  V30 3173 H 311.459 3.44083 -5.05388 0
M  V30 3174 H 315.633 3.46476 -6.04092 0
M  V30 3175 H 313.26 3.49522 -6.75084 0
M  V30 3176 N 314.835 0.952656 1.25548 0
M  V30 3177 C 316.063 0.623496 1.97282 0
M  V30 3178 C 316.478 -0.803987 1.70826 0
M  V30 3179 O 315.835 -1.53755 0.983147 0
M  V30 3180 C 315.886 0.870209 3.5087 0
M  V30 3181 O 315.607 2.24156 3.76412 0
M  V30 3182 C 317.108 0.553164 4.39835 0
M  V30 3183 H 314.328 0.233931 0.628902 0
M  V30 3184 H 316.872 1.27649 1.59768 0
M  V30 3185 H 315.027 0.263652 3.86502 0
M  V30 3186 H 315.441 2.31021 4.70882 0
M  V30 3187 H 316.915 0.776342 5.46513 0
M  V30 3188 H 317.392 -0.512215 4.36203 0
M  V30 3189 H 317.998 1.13896 4.09766 0
M  V30 3190 N 316.313 -1.40141 0.720998 0
M  V30 3191 C 317.26 -2.30688 0.071919 0
M  V30 3192 C 318.23 -1.48476 -0.744584 0
M  V30 3193 O 319.415 -1.77201 -0.707423 0
M  V30 3194 C 316.555 -3.34724 -0.839855 0
M  V30 3195 C 315.668 -4.31998 -0.0122438 0
M  V30 3196 C 314.803 -5.23102 -0.923995 0
M  V30 3197 C 313.842 -6.12033 -0.0907969 0
M  V30 3198 N 312.979 -6.95537 -0.957718 0
M  V30 3199 H 317.819 -2.85628 0.849755 0
M  V30 3200 H 315.356 -1.40653 0.430726 0
M  V30 3201 H 317.314 -3.93618 -1.38279 0
M  V30 3202 H 315.944 -2.81274 -1.58381 0
M  V30 3203 H 314.996 -3.74841 0.64794 0
M  V30 3204 H 316.308 -4.94772 0.632595 0
M  V30 3205 H 315.462 -5.86953 -1.53527 0
M  V30 3206 H 314.201 -4.60615 -1.60264 0
M  V30 3207 H 313.206 -5.47207 0.533377 0
M  V30 3208 H 314.431 -6.76581 0.584428 0
M  V30 3209 H 312.377 -6.35633 -1.62192 0
M  V30 3210 H 312.294 -7.55099 -0.36904 0
M  V30 3211 H 313.562 -7.63832 -1.555 0
M  V30 3212 N 317.792 -0.46758 -1.50504 0
M  V30 3213 C 319.02 0.0864133 -2.06719 0
M  V30 3214 C 319.435 1.33819 -1.33184 0
M  V30 3215 O 318.792 1.78061 -0.400083 0
M  V30 3216 C 318.843 0.378079 -3.59517 0
M  V30 3217 O 318.564 -0.824044 -4.3028 0
M  V30 3218 C 320.065 0.979426 -4.32345 0
M  V30 3219 H 317.285 -0.00551697 -0.670977 0
M  V30 3220 H 319.829 -0.655354 -1.93715 0
M  V30 3221 H 317.984 1.06977 -3.72337 0
M  V30 3222 H 318.398 -0.566518 -5.21432 0
M  V30 3223 H 319.872 1.1333 -5.40241 0
M  V30 3224 H 320.349 1.9686 -3.9261 0
M  V30 3225 H 320.955 0.326216 -4.24047 0
M  V30 3226 N 319.27 1.56325 -0.20005 0
M  V30 3227 C 320.518 1.97329 0.436547 0
M  V30 3228 C 320.839 1.08826 1.61808 0
M  V30 3229 O 320.109 0.160604 1.95241 0
M  V30 3230 H 318.689 0.728714 0.164272 0
M  V30 3231 H 321.351 1.92761 -0.287937 0
M  V30 3232 H 320.447 3.02264 0.777353 0
M  V30 3233 N 320.748 -0.0735177 1.57428 0
M  V30 3234 C 322.164 -0.428264 1.53747 0
M  V30 3235 C 322.364 -1.79272 0.91998 0
M  V30 3236 O 321.42 -2.47051 0.521745 0
M  V30 3237 C 322.733 -0.370914 2.98404 0
M  V30 3238 C 324.281 -0.451224 3.0973 0
M  V30 3239 C 324.756 -0.4238 4.56035 0
M  V30 3240 N 326.247 -0.483925 4.60665 0
M  V30 3241 C 326.982 -0.484891 5.71346 0
M  V30 3242 N 326.478 -0.440775 6.91396 0
M  V30 3243 N 328.271 -0.531319 5.59583 0
M  V30 3244 H 320.422 0.819949 1.95935 0
M  V30 3245 H 322.685 0.307493 0.896745 0
M  V30 3246 H 322.391 0.564956 3.47133 0
M  V30 3247 H 322.265 -1.18176 3.5821 0
M  V30 3248 H 324.652 -1.37752 2.60976 0
M  V30 3249 H 324.733 0.388167 2.52838 0
M  V30 3250 H 324.377 0.498638 5.05446 0
M  V30 3251 H 324.307 -1.2807 5.10789 0
M  V30 3252 H 326.798 -0.522338 3.74273 0
M  V30 3253 H 327.111 -0.44539 7.71515 0
M  V30 3254 H 325.456 -0.40749 6.93804 0
M  V30 3255 H 328.647 -0.563464 4.64696 0
M  V30 3256 H 328.82 -0.528603 6.4584 0
M  V30 3257 N 322.226 -1.5378 -0.344866 0
M  V30 3258 C 323.472 -1.71216 -1.08687 0
M  V30 3259 C 323.805 -0.473281 -1.88345 0
M  V30 3260 O 323.08 0.52968 -1.87149 0
M  V30 3261 C 323.363 -2.97486 -2.02914 0
M  V30 3262 C 323.216 -4.31579 -1.26727 0
M  V30 3263 C 324.535 -3.19422 -3.0275 0
M  V30 3264 H 321.654 -0.62301 -0.393735 0
M  V30 3265 H 324.296 -1.8645 -0.365563 0
M  V30 3266 H 322.446 -2.84629 -2.64421 0
M  V30 3267 H 324.118 -4.56284 -0.67845 0
M  V30 3268 H 322.361 -4.30049 -0.569273 0
M  V30 3269 H 323.032 -5.16106 -1.95803 0
M  V30 3270 H 325.508 -3.316 -2.51357 0
M  V30 3271 H 324.384 -4.09169 -3.65885 0
M  V30 3272 H 324.645 -2.35656 -3.74057 0
M  V30 3273 N 323.704 0.605807 -1.45491 0
M  V30 3274 C 324.95 1.36679 -1.49823 0
M  V30 3275 C 325.283 1.93693 -0.140175 0
M  V30 3276 O 324.558 1.75158 0.845581 0
M  V30 3277 C 324.841 2.51337 -2.57879 0
M  V30 3278 C 324.694 1.99508 -4.03134 0
M  V30 3279 C 326.013 3.53463 -2.62205 0
M  V30 3280 H 323.132 0.495617 -0.545466 0
M  V30 3281 H 325.774 0.682732 -1.7731 0
M  V30 3282 H 323.924 3.09691 -2.34571 0
M  V30 3283 H 325.596 1.45789 -4.37656 0
M  V30 3284 H 323.839 1.30496 -4.13707 0
M  V30 3285 H 324.51 2.82169 -4.74431 0
M  V30 3286 H 326.986 3.04953 -2.83095 0
M  V30 3287 H 325.862 4.31178 -3.39672 0
M  V30 3288 H 326.123 4.09197 -1.67363 0
M  V30 3289 N 325.182 1.32811 0.848464 0
M  V30 3290 C 326.112 1.24882 1.97299 0
M  V30 3291 C 327.093 0.131357 1.69592 0
M  V30 3292 O 328.278 0.319553 1.91553 0
M  V30 3293 C 325.408 0.97746 3.33261 0
M  V30 3294 C 324.362 2.05682 3.75338 0
M  V30 3295 C 323.688 1.63777 5.09 0
M  V30 3296 C 324.988 3.47254 3.90144 0
M  V30 3297 H 326.682 2.18966 2.04191 0
M  V30 3298 H 324.228 1.05413 0.981029 0
M  V30 3299 H 326.181 0.908513 4.1149 0
M  V30 3300 H 324.905 0.000980011 3.266 0
M  V30 3301 H 323.564 2.11603 2.99366 0
M  V30 3302 H 323.212 0.648569 4.98801 0
M  V30 3303 H 322.912 2.36 5.38124 0
M  V30 3304 H 324.436 1.5833 5.89715 0
M  V30 3305 H 325.85 3.43888 4.58709 0
M  V30 3306 H 324.247 4.1788 4.30693 0
M  V30 3307 H 325.317 3.86462 2.92874 0
M  V30 3308 N 326.66 -1.06551 1.16123 0
M  V30 3309 C 327.908 -1.78947 0.939267 0
M  V30 3310 C 328.229 -1.87532 -0.534476 0
M  V30 3311 O 327.499 -1.38211 -1.38833 0
M  V30 3312 H 326.079 -0.662807 0.344523 0
M  V30 3313 H 328.741 -1.28725 1.46342 0
M  V30 3314 H 327.837 -2.81117 1.35572 0
M  V30 3315 N 328.138 -0.959301 -1.25041 0
M  V30 3316 C 329.386 -0.615393 -1.92503 0
M  V30 3317 C 329.707 0.850969 -1.75452 0
M  V30 3318 O 328.977 1.60658 -1.12098 0
M  V30 3319 H 327.557 -0.224613 -0.712431 0
M  V30 3320 H 330.219 -1.21855 -1.5211 0
M  V30 3321 H 329.315 -0.848738 -3.00338 0
M  V30 3322 N 329.616 1.39756 -0.72842 0
M  V30 3323 C 331.027 1.83498 -0.344289 0
M  V30 3324 C 331.378 1.60868 1.12321 0
M  V30 3325 O 330.503 1.09634 1.86573 0
M  V30 3326 C 331.098 3.33114 -0.618112 0
M  V30 3327 C 329.657 3.753 -0.287549 0
M  V30 3328 C 328.804 2.62831 -0.884048 0
M  V30 3329 H 331.755 1.28842 -0.926578 0
M  V30 3330 H 331.776 3.80334 0.112349 0
M  V30 3331 H 331.288 3.49553 -1.68625 0
M  V30 3332 H 329.389 3.64451 0.775012 0
M  V30 3333 H 329.502 4.72945 -0.765512 0
M  V30 3334 H 327.866 2.52792 -0.311149 0
M  V30 3335 H 328.649 2.82078 -1.95671 0
M  V30 3336 N 331.094 0.475555 1.50254 0
M  V30 3337 C 332.342 -0.077738 2.0195 0
M  V30 3338 C 332.663 -1.39813 1.35931 0
M  V30 3339 O 331.933 -1.89249 0.506123 0
M  V30 3340 H 330.513 -0.031719 0.746326 0
M  V30 3341 H 333.175 0.626995 1.84539 0
M  V30 3342 H 332.271 -0.225995 3.11281 0
M  V30 3343 N 332.573 -1.56217 0.208337 0
M  V30 3344 C 333.798 -2.02782 -0.435222 0
M  V30 3345 C 334.223 -1.08738 -1.53485 0
M  V30 3346 O 333.581 -0.0731855 -1.81152 0
M  V30 3347 C 333.629 -3.47687 -0.956335 0
M  V30 3348 O 332.733 -3.56773 -2.06849 0
M  V30 3349 H 332.074 -0.656403 -0.100158 0
M  V30 3350 H 334.604 -2.02033 0.3231 0
M  V30 3351 H 334.614 -3.87745 -1.26955 0
M  V30 3352 H 333.289 -4.15624 -0.15143 0
M  V30 3353 H 331.866 -3.28597 -1.76292 0
M  V30 3354 N 334.051 0.0651679 -1.57465 0
M  V30 3355 C 335.281 0.774683 -1.91526 0
M  V30 3356 C 335.689 1.71305 -0.803196 0
M  V30 3357 O 335.032 1.82231 0.231881 0
M  V30 3358 C 335.094 1.61645 -3.21109 0
M  V30 3359 C 334.758 0.846753 -4.49087 0
M  V30 3360 C 335.755 0.163024 -5.19644 0
M  V30 3361 C 333.44 0.811966 -4.95694 0
M  V30 3362 C 335.434 -0.54519 -6.35064 0
M  V30 3363 C 333.121 0.0999836 -6.11018 0
M  V30 3364 C 334.119 -0.577388 -6.80555 0
M  V30 3365 O 333.807 -1.27789 -7.93678 0
M  V30 3366 H 333.539 0.225031 -0.637446 0
M  V30 3367 H 336.093 0.0377134 -2.05365 0
M  V30 3368 H 334.323 2.39638 -3.03497 0
M  V30 3369 H 336.012 2.20525 -3.40769 0
M  V30 3370 H 336.778 0.181163 -4.84662 0
M  V30 3371 H 332.657 1.32867 -4.41438 0
M  V30 3372 H 336.201 -1.07446 -6.89276 0
M  V30 3373 H 332.098 0.0797945 -6.45451 0
M  V30 3374 H 332.866 -1.18784 -8.09835 0
M  V30 3375 N 335.529 1.53961 0.336706 0
M  V30 3376 C 336.776 1.71536 1.07618 0
M  V30 3377 C 337.104 0.482125 1.8843 0
M  V30 3378 O 336.359 -0.536142 1.88213 0
M  V30 3379 C 336.658 2.93493 2.03953 0
M  V30 3380 C 336.324 4.28811 1.39399 0
M  V30 3381 C 334.986 4.65602 1.21523 0
M  V30 3382 C 337.338 5.12844 0.929541 0
M  V30 3383 C 334.666 5.84037 0.558312 0
M  V30 3384 C 337.018 6.31951 0.286505 0
M  V30 3385 C 335.682 6.67432 0.0954869 0
M  V30 3386 H 334.952 0.627696 0.393801 0
M  V30 3387 H 337.599 1.88186 0.354715 0
M  V30 3388 H 335.904 2.71475 2.82504 0
M  V30 3389 H 337.601 3.04285 2.61174 0
M  V30 3390 H 334.191 3.99858 1.54311 0
M  V30 3391 H 338.375 4.84947 1.05548 0
M  V30 3392 H 333.631 6.10097 0.398995 0
M  V30 3393 H 337.805 6.96352 -0.0814376 0
M  V30 3394 H 335.432 7.59063 -0.415579 0
M  V30 3395 N 337.007 -0.598083 1.45811 0
M  V30 3396 C 338.253 -1.35679 1.51535 0
M  V30 3397 C 338.608 -1.91745 0.15864 0
M  V30 3398 O 337.901 -1.72654 -0.830724 0
M  V30 3399 C 338.095 -2.51669 2.53766 0
M  V30 3400 C 337.924 -2.06963 3.99245 0
M  V30 3401 C 336.694 -1.92693 4.67116 0
M  V30 3402 C 338.892 -1.63855 4.875 0
M  V30 3403 N 336.874 -1.41897 5.97276 0
M  V30 3404 C 338.245 -1.24541 6.07363 0
M  V30 3405 C 340.3 -1.51533 4.74281 0
M  V30 3406 C 339.003 -0.741354 7.15469 0
M  V30 3407 C 341.029 -1.0253 5.82444 0
M  V30 3408 C 340.391 -0.641869 7.01469 0
M  V30 3409 H 336.49 -0.490042 0.609412 0
M  V30 3410 H 339.074 -0.682687 1.82339 0
M  V30 3411 H 337.245 -3.16663 2.24898 0
M  V30 3412 H 338.977 -3.18578 2.4958 0
M  V30 3413 H 335.732 -2.1417 4.22408 0
M  V30 3414 H 336.156 -1.18704 6.66512 0
M  V30 3415 H 340.798 -1.798 3.82664 0
M  V30 3416 H 338.516 -0.446243 8.06867 0
M  V30 3417 H 342.102 -0.934088 5.74253 0
M  V30 3418 H 340.982 -0.268531 7.8374 0
M  V30 3419 N 338.485 -1.33259 -0.841409 0
M  V30 3420 C 339.417 -1.19136 -1.95804 0
M  V30 3421 C 340.43 -0.122965 -1.62335 0
M  V30 3422 O 341.619 -0.373154 -1.74556 0
M  V30 3423 C 338.719 -0.804268 -3.29218 0
M  V30 3424 C 337.892 -1.96376 -3.90839 0
M  V30 3425 C 336.951 -1.55806 -5.02604 0
M  V30 3426 O 335.977 -2.27203 -5.21888 0
M  V30 3427 N 337.179 -0.461609 -5.78662 0
M  V30 3428 H 339.944 -2.15326 -2.08458 0
M  V30 3429 H 337.505 -1.25971 -1.017 0
M  V30 3430 H 339.497 -0.51501 -4.0141 0
M  V30 3431 H 338.067 0.0668809 -3.12528 0
M  V30 3432 H 337.287 -2.41879 -3.11269 0
M  V30 3433 H 338.575 -2.73966 -4.28742 0
M  V30 3434 H 337.973 0.132343 -5.65545 0
M  V30 3435 H 336.53 -0.232013 -6.51387 0
M  V30 3436 N 339.963 1.05934 -1.16686 0
M  V30 3437 C 341.211 1.78447 -0.948744 0
M  V30 3438 C 341.532 1.87813 0.524523 0
M  V30 3439 O 340.802 1.38945 1.38098 0
M  V30 3440 H 339.382 0.660971 -0.348033 0
M  V30 3441 H 342.044 1.27947 -1.47022 0
M  V30 3442 H 341.14 2.80394 -1.37061 0
M  V30 3443 N 341.441 0.965919 1.2453 0
M  V30 3444 C 342.373 0.452465 2.2469 0
M  V30 3445 C 343.386 -0.437821 1.56802 0
M  V30 3446 O 344.575 -0.244283 1.76821 0
M  V30 3447 C 341.675 -0.366258 3.36915 0
M  V30 3448 C 340.848 0.513701 4.34373 0
M  V30 3449 C 339.907 -0.248716 5.25612 0
M  V30 3450 O 338.933 0.356745 5.68081 0
M  V30 3451 N 340.135 -1.53877 5.59734 0
M  V30 3452 H 342.9 1.31361 2.69378 0
M  V30 3453 H 340.461 0.837541 1.38553 0
M  V30 3454 H 342.453 -0.884297 3.94921 0
M  V30 3455 H 341.023 -1.12832 2.91526 0
M  V30 3456 H 340.243 1.21273 3.75082 0
M  V30 3457 H 341.531 1.11391 4.96457 0
M  V30 3458 H 340.929 -2.05243 5.27154 0
M  V30 3459 H 339.486 -2.00254 6.20275 0
M  V30 3460 N 342.919 -1.39368 0.735821 0
M  V30 3461 C 344.168 -1.99733 0.281004 0
M  V30 3462 C 344.481 -1.59055 -1.13846 0
M  V30 3463 O 345.687 -2.12262 -1.69284 0
M  V30 3464 C 344.143 -3.57057 0.451462 0
M  V30 3465 C 343.751 -4.06697 1.87886 0
M  V30 3466 C 345.495 -4.2446 0.0584616 0
M  V30 3467 C 343.402 -5.56598 1.99883 0
M  V30 3468 H 342.332 -0.747163 0.101311 0
M  V30 3469 H 344.983 -1.59357 0.909819 0
M  V30 3470 H 343.365 -3.95234 -0.246263 0
M  V30 3471 H 344.539 -3.79853 2.60861 0
M  V30 3472 H 342.854 -3.5196 2.22515 0
M  V30 3473 H 345.451 -5.34549 0.127099 0
M  V30 3474 H 345.794 -4.04444 -0.986433 0
M  V30 3475 H 346.327 -3.9146 0.707374 0
M  V30 3476 H 343.066 -5.81494 3.02564 0
M  V30 3477 H 342.586 -5.85242 1.31346 0
M  V30 3478 H 344.265 -6.22022 1.78039 0
M  V30 3479 N 344.397 -0.483516 -1.5 0
M  V30 3480 C 345.327 0.293829 -2.31644 0
M  V30 3481 C 346.308 0.978864 -1.39112 0
M  V30 3482 O 347.493 0.973644 -1.68029 0
M  V30 3483 C 344.623 1.36897 -3.19181 0
M  V30 3484 C 343.577 0.804833 -4.20365 0
M  V30 3485 C 342.903 1.9792 -4.96721 0
M  V30 3486 C 344.203 -0.192313 -5.21946 0
M  V30 3487 H 345.897 -0.387616 -2.9688 0
M  V30 3488 H 343.443 -0.187856 -1.42769 0
M  V30 3489 H 345.396 1.92037 -3.751 0
M  V30 3490 H 344.12 2.07936 -2.51853 0
M  V30 3491 H 342.779 0.275319 -3.65565 0
M  V30 3492 H 342.427 2.67686 -4.25856 0
M  V30 3493 H 342.127 1.60789 -5.65173 0
M  V30 3494 H 343.651 2.53526 -5.55479 0
M  V30 3495 H 345.065 0.270333 -5.72662 0
M  V30 3496 H 343.462 -0.478543 -5.98189 0
M  V30 3497 H 344.532 -1.11409 -4.71928 0
M  V30 3498 N 345.875 1.56104 -0.216619 0
M  V30 3499 C 347.1 2.0301 0.424462 0
M  V30 3500 C 347.525 1.0955 1.52907 0
M  V30 3501 O 346.883 0.0827914 1.81111 0
M  V30 3502 C 346.931 3.4819 0.937883 0
M  V30 3503 O 346.035 3.57865 2.04955 0
M  V30 3504 H 345.376 0.656925 0.0966755 0
M  V30 3505 H 347.906 2.01859 -0.33381 0
M  V30 3506 H 347.916 3.88413 1.24897 0
M  V30 3507 H 346.591 4.15699 0.129387 0
M  V30 3508 H 345.168 3.29527 1.74546 0
M  V30 3509 N 347.353 -0.0568162 1.57498 0
M  V30 3510 C 348.316 -1.05038 2.03715 0
M  V30 3511 C 349.316 -1.30709 0.936577 0
M  V30 3512 O 350.506 -1.26178 1.20103 0
M  V30 3513 C 347.638 -2.39034 2.43055 0
M  V30 3514 H 348.831 -0.651715 2.92733 0
M  V30 3515 H 346.384 -0.302947 1.53336 0
M  V30 3516 H 347.119 -2.83703 1.57108 0
M  V30 3517 H 346.904 -2.21739 3.2338 0
M  V30 3518 H 348.394 -3.10421 2.79336 0
M  V30 3519 N 348.832 -1.54138 -0.328536 0
M  V30 3520 C 350.06 -1.76062 -1.08673 0
M  V30 3521 C 350.475 -0.506852 -1.81869 0
M  V30 3522 O 349.832 0.522223 -1.74869 0
M  V30 3523 C 349.883 -2.95054 -2.08866 0
M  V30 3524 O 349.604 -4.15583 -1.38644 0
M  V30 3525 C 351.105 -3.2915 -2.96943 0
M  V30 3526 H 348.325 -0.587889 -0.323461 0
M  V30 3527 H 350.869 -2.0101 -0.376175 0
M  V30 3528 H 349.024 -2.72394 -2.75464 0
M  V30 3529 H 349.438 -4.82481 -2.05699 0
M  V30 3530 H 350.912 -4.15723 -3.63151 0
M  V30 3531 H 351.389 -2.461 -3.63774 0
M  V30 3532 H 351.995 -3.53871 -2.35914 0
M  V30 3533 N 350.31 0.590341 -1.46126 0
M  V30 3534 C 351.242 1.71427 -1.52136 0
M  V30 3535 C 352.255 1.57542 -0.41042 0
M  V30 3536 O 353.444 1.65106 -0.678389 0
M  V30 3537 C 350.544 3.09605 -1.37834 0
M  V30 3538 C 349.717 3.49566 -2.62912 0
M  V30 3539 C 348.776 4.66773 -2.42918 0
M  V30 3540 O 347.802 4.73019 -3.1661 0
M  V30 3541 N 349.004 5.61161 -1.4859 0
M  V30 3542 H 351.769 1.66728 -2.49042 0
M  V30 3543 H 349.33 0.776113 -1.42085 0
M  V30 3544 H 351.322 3.85796 -1.22243 0
M  V30 3545 H 349.892 3.08714 -0.491393 0
M  V30 3546 H 349.112 2.63158 -2.93499 0
M  V30 3547 H 350.4 3.73028 -3.46017 0
M  V30 3548 H 349.798 5.58844 -0.87808 0
M  V30 3549 H 348.355 6.36814 -1.38965 0
M  V30 3550 N 351.788 1.33704 0.83433 0
M  V30 3551 C 352.698 1.26382 1.97648 0
M  V30 3552 C 353.714 0.173548 1.73132 0
M  V30 3553 O 354.89 0.397962 1.97429 0
M  V30 3554 C 351.955 1.00769 3.31733 0
M  V30 3555 C 351.016 2.1884 3.69334 0
M  V30 3556 C 350.249 1.9444 4.9702 0
M  V30 3557 O 350.472 0.896961 5.63303 0
M  V30 3558 O 349.406 2.81093 5.32231 0
M  V30 3559 H 353.232 2.22444 2.06767 0
M  V30 3560 H 350.817 1.13795 0.968037 0
M  V30 3561 H 352.699 0.882186 4.12062 0
M  V30 3562 H 351.374 0.0773783 3.23608 0
M  V30 3563 H 350.281 2.36946 2.89495 0
M  V30 3564 H 351.614 3.10221 3.82131 0
M  V30 3565 N 353.266 -1.05314 1.17247 0
M  V30 3566 C 354.198 -2.13023 0.845812 0
M  V30 3567 C 355.211 -1.62096 -0.151246 0
M  V30 3568 O 356.4 -1.78343 0.0748818 0
M  V30 3569 C 353.5 -3.38047 0.240292 0
M  V30 3570 C 352.673 -4.18255 1.27991 0
M  V30 3571 C 351.732 -5.21625 0.692375 0
M  V30 3572 O 350.758 -5.52619 1.36385 0
M  V30 3573 N 351.96 -5.78201 -0.516178 0
M  V30 3574 H 354.725 -2.41642 1.77283 0
M  V30 3575 H 352.286 -1.21401 1.07115 0
M  V30 3576 H 354.278 -4.04359 -0.16603 0
M  V30 3577 H 352.848 -3.06972 -0.590487 0
M  V30 3578 H 352.068 -3.47451 1.86203 0
M  V30 3579 H 353.356 -4.68643 1.98119 0
M  V30 3580 H 352.754 -5.55301 -1.07969 0
M  V30 3581 H 351.311 -6.4604 -0.86458 0
M  V30 3582 N 354.744 -0.972509 -1.24016 0
M  V30 3583 C 355.993 -0.632603 -1.91523 0
M  V30 3584 C 356.306 0.836641 -1.76804 0
M  V30 3585 O 357.512 1.28728 -2.39043 0
M  V30 3586 C 355.968 -1.08082 -3.43287 0
M  V30 3587 C 355.576 -2.57386 -3.66683 0
M  V30 3588 C 357.32 -0.814288 -4.16617 0
M  V30 3589 C 355.227 -2.95915 -5.12043 0
M  V30 3590 H 354.157 -0.232898 -0.717129 0
M  V30 3591 H 356.808 -1.17936 -1.40582 0
M  V30 3592 H 355.19 -0.462339 -3.93292 0
M  V30 3593 H 356.364 -3.24405 -3.27258 0
M  V30 3594 H 354.679 -2.81701 -3.06649 0
M  V30 3595 H 357.276 -1.0781 -5.23718 0
M  V30 3596 H 357.619 0.24955 -4.15551 0
M  V30 3597 H 358.152 -1.39397 -3.72577 0
M  V30 3598 H 354.891 -4.0139 -5.18234 0
M  V30 3599 H 354.411 -2.33584 -5.52448 0
M  V30 3600 H 356.09 -2.86086 -5.80314 0
M  V30 3601 N 356.222 1.38976 -0.743202 0
M  V30 3602 C 357.185 2.28901 -0.117014 0
M  V30 3603 C 358.185 1.46698 0.658503 0
M  V30 3604 O 359.375 1.67274 0.486305 0
M  V30 3605 C 356.507 3.30309 0.84315 0
M  V30 3606 H 357.7 2.8578 -0.909373 0
M  V30 3607 H 355.253 1.47761 -0.509547 0
M  V30 3608 H 355.988 2.785 1.66157 0
M  V30 3609 H 355.773 3.91029 0.289594 0
M  V30 3610 H 357.263 3.97577 1.2776 0
M  V30 3611 N 357.7 0.491464 1.49741 0
M  V30 3612 C 358.61 -0.296835 2.32715 0
M  V30 3613 C 359.626 -0.976536 1.44013 0
M  V30 3614 O 360.802 -0.960023 1.77047 0
M  V30 3615 C 357.867 -1.35288 3.19215 0
M  V30 3616 C 356.928 -0.687632 4.23757 0
M  V30 3617 C 356.161 -1.69336 5.06123 0
M  V30 3618 O 356.384 -2.92219 4.89861 0
M  V30 3619 O 355.318 -1.25394 5.88693 0
M  V30 3620 H 359.144 0.382048 3.01287 0
M  V30 3621 H 356.729 0.252953 1.47243 0
M  V30 3622 H 358.611 -1.96411 3.72828 0
M  V30 3623 H 357.286 -2.01487 2.53347 0
M  V30 3624 H 356.193 -0.0369159 3.74082 0
M  V30 3625 H 357.526 -0.0682566 4.92153 0
M  V30 3626 N 359.178 -1.55987 0.224894 0
M  V30 3627 C 360.403 -2.03232 -0.41369 0
M  V30 3628 C 360.828 -1.10359 -1.52323 0
M  V30 3629 O 360.186 -0.092395 -1.81064 0
M  V30 3630 C 360.234 -3.48682 -0.919405 0
M  V30 3631 O 359.338 -3.58947 -2.03054 0
M  V30 3632 H 358.679 -0.657428 -0.0931903 0
M  V30 3633 H 361.209 -2.01679 0.34451 0
M  V30 3634 H 361.219 -3.8907 -1.22835 0
M  V30 3635 H 359.894 -4.15761 -0.107339 0
M  V30 3636 H 358.471 -3.30448 -1.72796 0
M  V30 3637 N 360.656 0.0484629 -1.57525 0
M  V30 3638 C 361.886 0.754326 -1.92337 0
M  V30 3639 C 362.294 1.70443 -0.82132 0
M  V30 3640 O 361.637 1.82466 0.21254 0
M  V30 3641 C 361.699 1.58231 -3.22805 0
M  V30 3642 C 361.363 0.799074 -4.4996 0
M  V30 3643 C 362.36 0.1079 -5.19788 0
M  V30 3644 C 360.045 0.759345 -4.96527 0
M  V30 3645 C 362.039 -0.612516 -6.3445 0
M  V30 3646 C 359.726 0.0351713 -6.1109 0
M  V30 3647 C 360.724 -0.649537 -6.79904 0
M  V30 3648 O 360.412 -1.36199 -7.92278 0
M  V30 3649 H 360.144 0.218257 -0.639797 0
M  V30 3650 H 362.698 0.0159295 -2.05394 0
M  V30 3651 H 360.928 2.36406 -3.06021 0
M  V30 3652 H 362.617 2.16898 -3.43089 0
M  V30 3653 H 363.383 0.129748 -4.84826 0
M  V30 3654 H 359.262 1.28177 -4.42822 0
M  V30 3655 H 362.806 -1.14751 -6.88097 0
M  V30 3656 H 358.703 0.0113314 -6.45499 0
M  V30 3657 H 359.471 -1.27366 -8.0853 0
M  V30 3658 N 362.134 1.5431 0.320358 0
M  V30 3659 C 363.364 1.7638 1.07582 0
M  V30 3660 C 363.772 0.513944 1.82086 0
M  V30 3661 O 363.115 -0.525123 1.76035 0
M  V30 3662 C 363.177 2.9055 2.1171 0
M  V30 3663 C 362.841 4.2934 1.56575 0
M  V30 3664 C 363.838 5.10077 1.00586 0
M  V30 3665 C 361.523 4.75893 1.60722 0
M  V30 3666 C 363.517 6.35477 0.494756 0
M  V30 3667 C 361.204 6.0126 1.09224 0
M  V30 3668 C 362.202 6.80886 0.53696 0
M  V30 3669 O 361.89 8.03894 0.0297371 0
M  V30 3670 H 361.622 0.592369 0.325692 0
M  V30 3671 H 364.176 2.02019 0.37116 0
M  V30 3672 H 362.406 2.60489 2.85801 0
M  V30 3673 H 364.095 3.00373 2.73003 0
M  V30 3674 H 364.861 4.75265 0.966869 0
M  V30 3675 H 360.74 4.13957 2.02882 0
M  V30 3676 H 364.284 6.97574 0.0606842 0
M  V30 3677 H 360.181 6.35562 1.12831 0
M  V30 3678 H 360.949 8.18372 0.14486 0
M  V30 3679 N 363.613 -0.582584 1.46437 0
M  V30 3680 C 365.024 -1.1647 1.45916 0
M  V30 3681 C 365.375 -1.95177 0.200077 0
M  V30 3682 O 364.5 -2.04874 -0.696819 0
M  V30 3683 C 365.095 -2.11885 2.64367 0
M  V30 3684 C 363.654 -2.65421 2.66887 0
M  V30 3685 C 362.801 -1.41294 2.38603 0
M  V30 3686 H 365.752 -0.370514 1.54314 0
M  V30 3687 H 365.773 -2.9535 2.39892 0
M  V30 3688 H 365.285 -1.54573 3.5599 0
M  V30 3689 H 363.386 -3.26602 1.79338 0
M  V30 3690 H 363.499 -3.08147 3.66854 0
M  V30 3691 H 361.863 -1.71109 1.88663 0
M  V30 3692 H 362.646 -0.858125 3.32402 0
M  V30 3693 N 365.091 -1.34144 -0.827227 0
M  V30 3694 C 366.001 -1.27428 -1.96975 0
M  V30 3695 C 367.017 -0.182728 -1.73038 0
M  V30 3696 O 368.193 -0.408426 -1.97215 0
M  V30 3697 C 365.258 -1.02526 -3.31194 0
M  V30 3698 C 364.319 -2.20796 -3.68168 0
M  V30 3699 C 363.552 -1.97073 -4.95982 0
M  V30 3700 O 363.775 -0.926822 -5.6282 0
M  V30 3701 O 362.709 -2.83912 -5.30733 0
M  V30 3702 H 366.535 -2.23537 -2.05584 0
M  V30 3703 H 364.12 -1.14307 -0.961989 0
M  V30 3704 H 366.002 -0.904026 -4.11589 0
M  V30 3705 H 364.677 -0.0945389 -3.23562 0
M  V30 3706 H 363.584 -2.38477 -2.88235 0
M  V30 3707 H 364.917 -3.12243 -3.8048 0
M  V30 3708 N 366.569 1.04691 -1.17803 0
M  V30 3709 C 367.799 1.81183 -0.992788 0
M  V30 3710 C 368.207 1.8347 0.462098 0
M  V30 3711 O 367.55 1.2643 1.33271 0
M  V30 3712 C 367.612 3.28363 -1.46349 0
M  V30 3713 C 367.276 3.49749 -2.94151 0
M  V30 3714 C 368.273 3.41456 -3.92051 0
M  V30 3715 C 365.958 3.76548 -3.32441 0
M  V30 3716 C 367.952 3.59656 -5.26238 0
M  V30 3717 C 365.639 3.94396 -4.66792 0
M  V30 3718 C 366.637 3.8595 -5.635 0
M  V30 3719 O 366.325 4.03294 -6.9542 0
M  V30 3720 H 366.057 0.577622 -0.351182 0
M  V30 3721 H 368.611 1.32876 -1.5663 0
M  V30 3722 H 366.841 3.77609 -0.833574 0
M  V30 3723 H 368.53 3.86395 -1.24313 0
M  V30 3724 H 369.296 3.20723 -3.63815 0
M  V30 3725 H 365.175 3.82224 -2.57732 0
M  V30 3726 H 368.719 3.52979 -6.01707 0
M  V30 3727 H 364.616 4.14622 -4.94731 0
M  V30 3728 H 365.384 4.2049 -7.02232 0
M  V30 3729 N 368.047 0.979072 1.23499 0
M  V30 3730 C 368.977 0.537606 2.27227 0
M  V30 3731 C 369.958 -0.428539 1.64613 0
M  V30 3732 O 371.143 -0.322191 1.91509 0
M  V30 3733 C 368.273 -0.162052 3.46922 0
M  V30 3734 C 367.227 0.721242 4.21879 0
M  V30 3735 C 366.553 -0.110555 5.34586 0
M  V30 3736 C 367.853 2.01141 4.82016 0
M  V30 3737 H 369.547 1.40462 2.64406 0
M  V30 3738 H 367.093 0.67684 1.27102 0
M  V30 3739 H 369.046 -0.482192 4.18632 0
M  V30 3740 H 367.77 -1.06351 3.08799 0
M  V30 3741 H 366.429 1.02482 3.51984 0
M  V30 3742 H 366.077 -1.0125 4.92704 0
M  V30 3743 H 365.777 0.477325 5.85658 0
M  V30 3744 H 367.301 -0.425107 6.09118 0
M  V30 3745 H 368.715 1.75612 5.45741 0
M  V30 3746 H 367.112 2.54695 5.43369 0
M  V30 3747 H 368.182 2.69909 4.02836 0
M  V30 3748 N 369.525 -1.3858 0.750561 0
M  V30 3749 C 370.774 -1.99424 0.302172 0
M  V30 3750 C 371.087 -1.60254 -1.12152 0
M  V30 3751 O 372.293 -2.14046 -1.67023 0
M  V30 3752 C 370.749 -3.56558 0.489307 0
M  V30 3753 C 370.357 -4.04682 1.92189 0
M  V30 3754 C 372.101 -4.24374 0.103478 0
M  V30 3755 C 370.008 -5.54446 2.05775 0
M  V30 3756 H 368.938 -0.746046 0.10923 0
M  V30 3757 H 371.589 -1.58383 0.92667 0
M  V30 3758 H 369.971 -3.95472 -0.204329 0
M  V30 3759 H 371.145 -3.77065 2.64875 0
M  V30 3760 H 369.46 -3.4958 2.26236 0
M  V30 3761 H 372.057 -5.34384 0.183787 0
M  V30 3762 H 372.4 -4.05468 -0.943481 0
M  V30 3763 H 372.933 -3.90688 0.748854 0
M  V30 3764 H 369.672 -5.78252 3.08714 0
M  V30 3765 H 369.192 -5.83816 1.37546 0
M  V30 3766 H 370.871 -6.20099 1.84626 0
M  V30 3767 N 371.003 -0.499398 -1.49478 0
M  V30 3768 C 371.951 0.293604 -2.3074 0
M  V30 3769 C 372.945 0.96427 -1.39277 0
M  V30 3770 O 374.151 0.892141 -1.56336 0
M  V30 3771 H 370.526 0.113541 -0.743379 0
M  V30 3772 H 372.497 -0.411772 -2.95545 0
M  V30 3773 C 371.246 1.3462 -3.20582 0
M  V30 3774 H 370.569 0.83954 -3.90886 0
M  V30 3775 H 372.009 1.87308 -3.80384 0
M  V30 3776 C 370.468 2.36351 -2.40083 0
M  V30 3777 O 370.998 3.422 -2.10385 0
M  V30 3778 N 369.204 2.0878 -2.02137 0
M  V30 3779 H 368.751 1.22723 -2.26488 0
M  V30 3780 H 368.709 2.77075 -1.48583 0
M  V30 3781 N 372.481 1.55866 -0.233164 0
M  V30 3782 C 373.411 2.23783 0.666599 0
M  V30 3783 C 374.392 1.21343 1.19205 0
M  V30 3784 O 375.577 1.4996 1.23392 0
M  V30 3785 C 372.707 2.92671 1.86978 0
M  V30 3786 C 371.661 4.01682 1.47768 0
M  V30 3787 C 370.987 4.57926 2.76058 0
M  V30 3788 C 372.287 5.18126 0.658993 0
M  V30 3789 H 373.981 2.99232 0.100306 0
M  V30 3790 H 371.527 1.43924 0.046804 0
M  V30 3791 H 373.48 3.3888 2.50476 0
M  V30 3792 H 372.204 2.14688 2.46123 0
M  V30 3793 H 370.863 3.56222 0.866106 0
M  V30 3794 H 370.511 3.76659 3.33372 0
M  V30 3795 H 370.211 5.31505 2.50552 0
M  V30 3796 H 371.735 5.06859 3.40479 0
M  V30 3797 H 373.149 5.60644 1.19795 0
M  V30 3798 H 371.546 5.98009 0.500552 0
M  V30 3799 H 372.616 4.83763 -0.331856 0
M  V30 3800 N 373.959 -0.0401083 1.57549 0
M  V30 3801 C 375.205 -0.734211 1.89043 0
M  V30 3802 C 375.538 -1.75591 0.829535 0
M  V30 3803 O 374.813 -1.93868 -0.156706 0
M  V30 3804 C 375.096 -1.41374 3.31188 0
M  V30 3805 C 374.949 -0.406299 4.47961 0
M  V30 3806 C 376.268 -2.35061 3.72068 0
M  V30 3807 H 373.387 -0.265447 0.687537 0
M  V30 3808 H 376.029 0.00294087 1.9 0
M  V30 3809 H 374.179 -2.04206 3.30503 0
M  V30 3810 H 375.851 0.219255 4.60779 0
M  V30 3811 H 374.094 0.275485 4.32924 0
M  V30 3812 H 374.765 -0.920022 5.44279 0
M  V30 3813 H 377.241 -1.82282 3.74049 0
M  V30 3814 H 376.117 -2.79593 4.72355 0
M  V30 3815 H 376.378 -3.21258 3.0372 0
M  V30 3816 N 375.437 -1.54477 -0.31217 0
M  V30 3817 C 376.369 -1.81011 -1.40598 0
M  V30 3818 C 377.382 -0.692546 -1.47335 0
M  V30 3819 O 378.571 -0.969847 -1.49854 0
M  V30 3820 C 375.671 -1.92307 -2.79054 0
M  V30 3821 C 374.844 -3.22594 -2.95384 0
M  V30 3822 C 373.903 -3.24448 -4.1427 0
M  V30 3823 O 372.929 -3.98035 -4.06887 0
M  V30 3824 N 374.131 -2.49042 -5.24365 0
M  V30 3825 H 376.896 -2.75408 -1.18196 0
M  V30 3826 H 374.457 -1.53914 -0.502202 0
M  V30 3827 H 376.449 -1.90962 -3.56813 0
M  V30 3828 H 375.019 -1.04955 -2.94454 0
M  V30 3829 H 374.239 -3.36806 -2.04831 0
M  V30 3830 H 375.527 -4.08593 -3.03198 0
M  V30 3831 H 374.925 -1.88867 -5.33241 0
M  V30 3832 H 373.482 -2.53463 -6.005 0
M  V30 3833 N 376.915 0.57481 -1.46744 0
M  V30 3834 C 378.163 1.33009 -1.52161 0
M  V30 3835 C 378.484 1.94185 -0.178092 0
M  V30 3836 O 377.754 1.7899 0.796196 0
M  V30 3837 H 376.334 0.493873 -0.560445 0
M  V30 3838 H 378.996 0.672589 -1.82927 0
M  V30 3839 H 378.092 2.13273 -2.27862 0
M  V30 3840 N 378.394 1.34581 0.820102 0
M  V30 3841 C 379.326 1.22236 1.93884 0
M  V30 3842 C 380.339 0.148776 1.62119 0
M  V30 3843 O 381.528 0.400877 1.7394 0
M  V30 3844 C 378.628 0.856542 3.27897 0
M  V30 3845 C 377.801 2.02569 3.87666 0
M  V30 3846 C 376.86 1.63782 5.00062 0
M  V30 3847 O 375.886 2.35477 5.18208 0
M  V30 3848 N 377.088 0.553611 5.77854 0
M  V30 3849 H 379.853 2.18615 2.05006 0
M  V30 3850 H 377.414 1.27573 0.99683 0
M  V30 3851 H 379.406 0.578806 4.0054 0
M  V30 3852 H 377.976 -0.0171518 3.12595 0
M  V30 3853 H 377.196 2.468 3.07382 0
M  V30 3854 H 378.484 2.80752 4.24329 0
M  V30 3855 H 377.882 -0.0423528 5.65684 0
M  V30 3856 H 376.439 0.335614 6.50935 0
M  V30 3857 N 379.872 -1.04064 1.18357 0
M  V30 3858 C 380.802 -2.14001 0.934113 0
M  V30 3859 C 381.783 -1.69616 -0.128186 0
M  V30 3860 O 382.968 -1.94185 0.0244093 0
M  V30 3861 C 380.098 -3.44253 0.459066 0
M  V30 3862 C 379.052 -4.02261 1.46185 0
M  V30 3863 C 378.378 -5.27992 0.844322 0
M  V30 3864 C 379.678 -4.38432 2.83856 0
M  V30 3865 H 381.372 -2.35127 1.85352 0
M  V30 3866 H 378.918 -1.12998 0.892604 0
M  V30 3867 H 380.871 -4.20522 0.271907 0
M  V30 3868 H 379.595 -3.22813 -0.495912 0
M  V30 3869 H 378.254 -3.28074 1.63595 0
M  V30 3870 H 377.902 -5.02862 -0.117845 0
M  V30 3871 H 377.602 -5.67765 1.51384 0
M  V30 3872 H 379.126 -6.06938 0.667693 0
M  V30 3873 H 380.54 -5.05688 2.70098 0
M  V30 3874 H 378.937 -4.89254 3.47491 0
M  V30 3875 H 380.007 -3.4826 3.37406 0
M  V30 3876 N 381.35 -0.985608 -1.22978 0
M  V30 3877 C 382.282 -0.488154 -2.23941 0
M  V30 3878 C 383.295 0.41282 -1.57479 0
M  V30 3879 O 384.484 0.216121 -1.77187 0
M  V30 3880 C 381.584 0.312611 -3.37455 0
M  V30 3881 C 380.757 -0.582741 -4.33501 0
M  V30 3882 C 379.816 0.165064 -5.25941 0
M  V30 3883 O 378.842 -0.447077 -5.67442 0
M  V30 3884 N 380.044 1.44953 -5.62111 0
M  V30 3885 H 382.809 -1.3563 -2.67254 0
M  V30 3886 H 380.37 -0.859477 -1.37203 0
M  V30 3887 H 382.362 0.821357 -3.96277 0
M  V30 3888 H 380.932 1.0818 -2.93285 0
M  V30 3889 H 380.152 -1.27225 -3.73105 0
M  V30 3890 H 381.44 -1.19275 -4.94622 0
M  V30 3891 H 380.838 1.9683 -5.30353 0
M  V30 3892 H 379.395 1.90361 -6.23383 0
M  V30 3893 N 382.828 1.3818 -0.7579 0
M  V30 3894 C 384.056 2.04301 -0.326937 0
M  V30 3895 C 384.471 1.57163 1.0462 0
M  V30 3896 O 383.828 0.746626 1.66529 0
M  V30 3897 C 383.879 3.59846 -0.345363 0
M  V30 3898 O 383.6 4.05256 -1.66432 0
M  V30 3899 C 385.101 4.4319 0.098927 0
M  V30 3900 H 382.321 0.656443 -0.139012 0
M  V30 3901 H 384.865 1.76786 -1.02796 0
M  V30 3902 H 383.02 3.86182 0.306955 0
M  V30 3903 H 383.434 4.99709 -1.59345 0
M  V30 3904 H 384.908 5.51989 0.0348745 0
M  V30 3905 H 385.385 4.23947 1.14741 0
M  V30 3906 H 385.991 4.22051 -0.52468 0
M  V30 3907 N 384.306 0.507319 1.49211 0
M  V30 3908 C 385.722 0.163682 1.58758 0
M  V30 3909 C 385.922 -1.33208 1.51188 0
M  V30 3910 O 384.978 -2.10855 1.38911 0
M  V30 3911 C 386.291 0.746095 2.91297 0
M  V30 3912 C 387.839 0.712773 3.04776 0
M  V30 3913 C 388.314 1.27336 4.39943 0
M  V30 3914 N 389.805 1.23433 4.46451 0
M  V30 3915 C 390.54 1.63821 5.495 0
M  V30 3916 N 390.036 2.11832 6.5962 0
M  V30 3917 N 391.829 1.55198 5.4025 0
M  V30 3918 H 383.98 1.47972 1.52375 0
M  V30 3919 H 386.243 0.614147 0.722168 0
M  V30 3920 H 385.949 1.79534 3.02424 0
M  V30 3921 H 385.823 0.210137 3.76614 0
M  V30 3922 H 388.21 -0.327656 2.93275 0
M  V30 3923 H 388.291 1.28595 2.21127 0
M  V30 3924 H 387.935 2.3126 4.52196 0
M  V30 3925 H 387.865 0.676066 5.22242 0
M  V30 3926 H 390.356 0.882627 3.67448 0
M  V30 3927 H 390.669 2.40703 7.34358 0
M  V30 3928 H 389.014 2.1581 6.60644 0
M  V30 3929 H 392.205 1.17505 4.53112 0
M  V30 3930 H 392.378 1.86997 6.20432 0
M  V30 3931 N 385.784 -1.5574 0.241426 0
M  V30 3932 C 386.716 -2.18469 -0.693091 0
M  V30 3933 C 387.729 -1.15942 -1.14286 0
M  V30 3934 O 388.918 -1.42832 -1.07058 0
M  V30 3935 C 386.018 -2.7696 -1.95311 0
M  V30 3936 C 385.191 -4.04853 -1.65568 0
M  V30 3937 C 384.25 -4.47715 -2.76474 0
M  V30 3938 O 383.276 -5.14205 -2.44094 0
M  V30 3939 N 384.478 -4.15044 -4.05855 0
M  V30 3940 H 387.243 -2.99292 -0.156388 0
M  V30 3941 H 384.804 -1.61784 0.0611752 0
M  V30 3942 H 386.796 -3.02594 -2.68736 0
M  V30 3943 H 385.366 -2.00326 -2.39975 0
M  V30 3944 H 384.586 -3.86865 -0.756886 0
M  V30 3945 H 385.874 -4.88246 -1.43153 0
M  V30 3946 H 385.272 -3.61654 -4.34998 0
M  V30 3947 H 383.829 -4.45526 -4.75762 0
M  V30 3948 N 387.262 0.0317525 -1.57568 0
M  V30 3949 C 388.225 1.01783 -2.0536 0
M  V30 3950 C 389.225 1.29203 -0.957253 0
M  V30 3951 O 390.415 1.24251 -1.22095 0
M  V30 3952 C 387.547 2.35137 -2.46827 0
M  V30 3953 H 388.74 0.605062 -2.93733 0
M  V30 3954 H 386.293 0.278514 -1.53799 0
M  V30 3955 H 387.028 2.81168 -1.61602 0
M  V30 3956 H 386.813 2.16566 -3.26866 0
M  V30 3957 H 388.303 3.05938 -2.84239 0
M  V30 3958 N 388.74 1.54641 0.303973 0
M  V30 3959 C 389.965 1.78092 1.06292 0
M  V30 3960 C 390.39 0.537342 1.80262 0
M  V30 3961 O 389.748 -0.511993 1.7392 0
M  V30 3962 C 389.796 2.98612 2.02147 0
M  V30 3963 O 388.9 2.71528 3.10397 0
M  V30 3964 H 388.241 0.589548 0.305497 0
M  V30 3965 H 390.771 2.01716 0.3423 0
M  V30 3966 H 390.781 3.265 2.44667 0
M  V30 3967 H 389.456 3.88785 1.47714 0
M  V30 3968 H 388.033 2.54648 2.72413 0
M  V30 3969 N 390.218 -0.567019 1.47046 0
M  V30 3970 C 391.443 -1.3551 1.57009 0
M  V30 3971 C 391.868 -1.86841 0.217259 0
M  V30 3972 O 391.226 -1.62435 -0.805268 0
M  V30 3973 C 391.274 -2.50777 2.5912 0
M  V30 3974 O 390.378 -3.52706 2.13711 0
M  V30 3975 H 389.719 -0.402919 0.52778 0
M  V30 3976 H 392.249 -0.686241 1.92748 0
M  V30 3977 H 392.259 -2.97481 2.79229 0
M  V30 3978 H 390.934 -2.12771 3.57353 0
M  V30 3979 H 389.511 -3.12374 2.03659 0
M  V30 3980 N 391.696 -1.35014 -0.812953 0
M  V30 3981 C 392.945 -1.27269 -1.56479 0
M  V30 3982 C 393.258 0.152771 -1.95002 0
M  V30 3983 O 394.464 0.352451 -2.69203 0
M  V30 3984 C 392.92 -2.23159 -2.82362 0
M  V30 3985 C 392.528 -3.71016 -2.511 0
M  V30 3986 C 394.272 -2.24342 -3.60376 0
M  V30 3987 C 392.179 -4.58746 -3.73237 0
M  V30 3988 H 391.109 -0.472829 -0.587324 0
M  V30 3989 H 393.76 -1.6024 -0.894171 0
M  V30 3990 H 392.142 -1.83151 -3.51101 0
M  V30 3991 H 393.316 -4.1962 -1.90409 0
M  V30 3992 H 391.631 -3.72378 -1.86343 0
M  V30 3993 H 394.228 -2.87107 -4.51081 0
M  V30 3994 H 394.571 -1.24542 -3.97234 0
M  V30 3995 H 395.104 -2.62846 -2.98591 0
M  V30 3996 H 391.843 -5.59521 -3.41492 0
M  V30 3997 H 391.363 -4.14871 -4.33176 0
M  V30 3998 H 393.042 -4.73852 -4.40537 0
M  V30 3999 N 393.175 1.03435 -1.18907 0
M  V30 4000 C 394.405 1.8012 -1.01195 0
M  V30 4001 C 394.813 1.8395 0.442613 0
M  V30 4002 O 394.156 1.27836 1.31923 0
M  V30 4003 C 394.218 3.26792 -1.49823 0
M  V30 4004 C 393.882 3.46609 -2.97844 0
M  V30 4005 C 394.879 3.37278 -3.95651 0
M  V30 4006 C 392.564 3.73001 -3.36416 0
M  V30 4007 C 394.558 3.54054 -5.30023 0
M  V30 4008 C 392.245 3.89423 -4.70949 0
M  V30 4009 C 393.243 3.79951 -5.67562 0
M  V30 4010 O 392.931 3.95895 -6.99659 0
M  V30 4011 H 392.663 0.573865 -0.357289 0
M  V30 4012 H 395.217 1.31207 -1.58031 0
M  V30 4013 H 393.447 3.76703 -0.873578 0
M  V30 4014 H 395.136 3.85055 -1.28404 0
M  V30 4015 H 395.902 3.16846 -3.67197 0
M  V30 4016 H 391.781 3.79469 -2.61772 0
M  V30 4017 H 395.325 3.46577 -6.05417 0
M  V30 4018 H 391.222 4.09351 -4.99101 0
M  V30 4019 H 391.99 4.13019 -7.06653 0
M  V30 4020 N 394.653 0.992116 1.22453 0
M  V30 4021 C 395.93 0.583508 1.86694 0
M  V30 4022 C 396.31 -0.9392 1.89056 0
M  V30 4023 O 395.658 -1.82081 1.38053 0
M  V30 4024 C 395.868 1.20304 3.2761 0
M  V30 4025 C 397.216 1.30308 4.0411 0
M  V30 4026 O 398.24 1.15737 3.36873 0
M  V30 4027 O 397.099 1.53615 5.24466 0
M  V30 4028 H 394.193 0.198129 0.802916 0
M  V30 4029 H 396.739 1.08794 1.30238 0
M  V30 4030 H 395.511 2.24461 3.2052 0
M  V30 4031 H 395.134 0.684144 3.9167 0
M  V30 4032 N 396.131 -1.37776 0.765217 0
M  V30 4033 C 397.408 -1.93975 0.251596 0
M  V30 4034 C 397.788 -1.69949 -1.25222 0
M  V30 4035 O 397.136 -1.04457 -2.03226 0
M  V30 4036 C 397.346 -3.43487 0.617895 0
M  V30 4037 C 398.694 -4.20564 0.584029 0
M  V30 4038 O 399.718 -3.5182 0.556888 0
M  V30 4039 O 398.577 -5.43138 0.605291 0
M  V30 4040 H 395.671 -0.82509 0.0561806 0
M  V30 4041 H 398.217 -1.47101 0.846128 0
M  V30 4042 H 396.989 -3.5453 1.65602 0
M  V30 4043 H 396.612 -3.976 -0.00403411 0
M  V30 4044 N 397.609 -0.515225 -1.4894 0
M  V30 4045 C 398.834 0.022727 -2.07388 0
M  V30 4046 C 399.259 1.2876 -1.37122 0
M  V30 4047 O 398.617 1.76067 -0.432431 0
M  V30 4048 C 398.665 0.244869 -3.59768 0
M  V30 4049 O 397.769 1.31667 -3.90817 0
M  V30 4050 H 397.11 -0.0325506 -0.663202 0
M  V30 4051 H 399.64 -0.718918 -1.91553 0
M  V30 4052 H 399.65 0.47205 -4.0526 0
M  V30 4053 H 398.325 -0.679194 -4.10317 0
M  V30 4054 H 396.902 1.07331 -3.5712 0
M  V30 4055 N 399.087 1.5561 -0.249682 0
M  V30 4056 C 400.317 2.03116 0.377803 0
M  V30 4057 C 400.725 1.12822 1.51881 0
M  V30 4058 O 400.068 0.13562 1.83199 0
M  V30 4059 C 400.13 3.46866 0.944693 0
M  V30 4060 C 399.794 4.56955 -0.0644259 0
M  V30 4061 C 400.791 5.12485 -0.874957 0
M  V30 4062 C 398.476 5.01936 -0.19132 0
M  V30 4063 C 400.47 6.11491 -1.79881 0
M  V30 4064 C 398.157 6.00773 -1.11868 0
M  V30 4065 C 399.155 6.5543 -1.92095 0
M  V30 4066 O 398.843 7.5234 -2.83267 0
M  V30 4067 H 398.575 0.669489 0.0935961 0
M  V30 4068 H 401.129 2.02004 -0.371966 0
M  V30 4069 H 399.359 3.45136 1.74407 0
M  V30 4070 H 401.048 3.77856 1.48255 0
M  V30 4071 H 401.814 4.78564 -0.787523 0
M  V30 4072 H 397.693 4.59055 0.423072 0
M  V30 4073 H 401.237 6.54078 -2.42543 0
M  V30 4074 H 397.134 6.34114 -1.20703 0
M  V30 4075 H 397.902 7.69966 -2.7766 0
M  V30 4076 N 400.565 -0.0233959 1.57583 0
M  V30 4077 C 401.495 -1.02162 2.09965 0
M  V30 4078 C 402.476 -1.3735 1.00344 0
M  V30 4079 O 403.661 -1.46135 1.27899 0
M  V30 4080 C 400.791 -2.32081 2.58371 0
M  V30 4081 C 399.745 -2.1112 3.72307 0
M  V30 4082 C 399.071 -3.46848 4.06941 0
M  V30 4083 C 400.371 -1.49276 5.00514 0
M  V30 4084 H 402.065 -0.585557 2.93618 0
M  V30 4085 H 399.611 -0.280218 1.41247 0
M  V30 4086 H 401.564 -3.02249 2.93639 0
M  V30 4087 H 400.288 -2.77758 1.71808 0
M  V30 4088 H 398.947 -1.43384 3.37397 0
M  V30 4089 H 398.595 -3.90184 3.17436 0
M  V30 4090 H 398.295 -3.33646 4.83688 0
M  V30 4091 H 399.819 -4.18369 4.44747 0
M  V30 4092 H 401.233 -2.09368 5.33702 0
M  V30 4093 H 399.63 -1.46632 5.8191 0
M  V30 4094 H 400.7 -0.459217 4.82721 0
M  V30 4095 N 402.043 -1.548 -0.295768 0
M  V30 4096 C 403.291 -1.73985 -1.02828 0
M  V30 4097 C 403.612 -0.531406 -1.87619 0
M  V30 4098 O 402.882 0.454221 -1.90561 0
M  V30 4099 H 401.462 -0.641556 -0.382642 0
M  V30 4100 H 404.124 -1.92163 -0.325489 0
M  V30 4101 H 403.22 -2.63129 -1.67838 0
M  V30 4102 N 403.521 0.559213 -1.47345 0
M  V30 4103 C 404.751 1.33999 -1.57251 0
M  V30 4104 C 405.159 1.87905 -0.220978 0
M  V30 4105 O 404.502 1.65577 0.795617 0
M  V30 4106 C 404.564 2.54798 -2.53611 0
M  V30 4107 C 404.228 2.22192 -3.99349 0
M  V30 4108 C 405.225 1.79607 -4.87891 0
M  V30 4109 C 402.91 2.33613 -4.44669 0
M  V30 4110 C 404.904 1.48868 -6.19772 0
M  V30 4111 C 402.591 2.02487 -5.76578 0
M  V30 4112 C 403.589 1.60183 -6.63951 0
M  V30 4113 O 403.277 1.29451 -7.93409 0
M  V30 4114 H 403.009 0.414858 -0.533731 0
M  V30 4115 H 405.563 0.684465 -1.9366 0
M  V30 4116 H 403.793 3.23235 -2.12265 0
M  V30 4117 H 405.482 3.16873 -2.53666 0
M  V30 4118 H 406.248 1.70278 -4.54126 0
M  V30 4119 H 402.127 2.65501 -3.76869 0
M  V30 4120 H 405.671 1.15775 -6.87926 0
M  V30 4121 H 401.568 2.11448 -6.09885 0
M  V30 4122 H 402.336 1.43098 -8.05894 0
M  V30 4123 N 404.999 1.35443 0.805782 0
M  V30 4124 C 406.224 1.32037 1.59941 0
M  V30 4125 C 406.649 -0.0994215 1.87837 0
M  V30 4126 O 406.007 -1.06648 1.46615 0
M  V30 4127 C 406.055 2.13354 2.90711 0
M  V30 4128 O 405.159 1.5148 3.83572 0
M  V30 4129 H 404.5 0.452666 0.485787 0
M  V30 4130 H 407.03 1.78496 1.00002 0
M  V30 4131 H 407.04 2.25338 3.40128 0
M  V30 4132 H 405.715 3.16572 2.69732 0
M  V30 4133 H 404.292 1.4834 3.42125 0
M  V30 4134 N 406.477 -1.02803 1.19454 0
M  V30 4135 C 407.723 -1.76478 0.999171 0
M  V30 4136 C 408.056 -1.88456 -0.468828 0
M  V30 4137 O 407.331 -1.40198 -1.34814 0
M  V30 4138 C 407.614 -3.19044 1.66981 0
M  V30 4139 C 407.467 -3.14932 3.21151 0
M  V30 4140 C 408.786 -4.17456 1.39349 0
M  V30 4141 H 405.905 -0.640614 0.364393 0
M  V30 4142 H 408.547 -1.20005 1.47305 0
M  V30 4143 H 406.697 -3.67263 1.2669 0
M  V30 4144 H 408.369 -2.74605 3.70661 0
M  V30 4145 H 406.612 -2.52625 3.52652 0
M  V30 4146 H 407.283 -4.1566 3.63223 0
M  V30 4147 H 409.759 -3.77842 1.74283 0
M  V30 4148 H 408.635 -5.154 1.88823 0
M  V30 4149 H 408.896 -4.40949 0.318813 0
M  V30 4150 N 407.956 -0.998596 -1.21925 0
M  V30 4151 C 408.919 -0.558679 -2.22287 0
M  V30 4152 C 409.919 0.361525 -1.56683 0
M  V30 4153 O 411.109 0.152695 -1.73529 0
M  V30 4154 C 408.241 0.18661 -3.40389 0
M  V30 4155 H 409.434 -1.4463 -2.62721 0
M  V30 4156 H 406.987 -0.786413 -1.35075 0
M  V30 4157 H 407.722 1.08996 -3.05435 0
M  V30 4158 H 407.507 -0.474188 -3.89222 0
M  V30 4159 H 408.997 0.482367 -4.14805 0
M  V30 4160 N 409.434 1.37368 -0.772513 0
M  V30 4161 C 410.68 1.99969 -0.337681 0
M  V30 4162 C 411.013 1.61184 1.08321 0
M  V30 4163 O 410.288 0.858395 1.74533 0
M  V30 4164 C 410.571 3.56858 -0.482121 0
M  V30 4165 C 410.424 4.0555 -1.94549 0
M  V30 4166 C 411.743 4.39955 0.113143 0
M  V30 4167 H 408.862 0.726464 -0.124171 0
M  V30 4168 H 411.504 1.63034 -0.975699 0
M  V30 4169 H 409.654 3.88452 0.0610361 0
M  V30 4170 H 411.326 3.84518 -2.54841 0
M  V30 4171 H 409.569 3.57715 -2.45403 0
M  V30 4172 H 410.24 5.14587 -1.9976 0
M  V30 4173 H 412.716 4.14623 -0.35031 0
M  V30 4174 H 411.592 5.48897 -0.0180514 0
M  V30 4175 H 411.853 4.25403 1.20354 0
M  V30 4176 N 410.912 0.523116 1.48665 0
M  V30 4177 C 412.16 -0.0134497 2.02096 0
M  V30 4178 C 412.481 -1.35418 1.40311 0
M  V30 4179 O 411.751 -1.87543 0.566074 0
M  V30 4180 H 410.331 -0.00795915 0.746958 0
M  V30 4181 H 412.993 0.685388 1.82451 0
M  V30 4182 H 412.089 -0.126849 3.11842 0
M  V30 4183 N 412.39 -1.55475 0.257931 0
M  V30 4184 C 413.3 -2.2549 -0.647425 0
M  V30 4185 C 414.316 -1.2748 -1.18427 0
M  V30 4186 O 415.492 -1.6038 -1.2182 0
M  V30 4187 C 412.557 -2.94916 -1.82278 0
M  V30 4188 C 411.618 -4.08363 -1.32432 0
M  V30 4189 C 410.851 -4.74469 -2.44366 0
M  V30 4190 O 411.074 -4.39701 -3.63344 0
M  V30 4191 O 410.008 -5.62763 -2.13497 0
M  V30 4192 H 413.834 -3.03593 -0.0807707 0
M  V30 4193 H 411.419 -1.49377 0.0259962 0
M  V30 4194 H 413.301 -3.38606 -2.50846 0
M  V30 4195 H 411.976 -2.19744 -2.37685 0
M  V30 4196 H 410.883 -3.69166 -0.605605 0
M  V30 4197 H 412.216 -4.85385 -0.816211 0
M  V30 4198 N 413.868 0.0150385 -1.57593 0
M  V30 4199 C 415.115 0.703001 -1.89906 0
M  V30 4200 C 415.443 1.74604 -0.856944 0
M  V30 4201 O 414.698 1.95197 0.140287 0
M  V30 4202 C 414.997 1.39686 -3.28972 0
M  V30 4203 C 414.663 0.488457 -4.48246 0
M  V30 4204 C 413.325 0.2383 -4.8061 0
M  V30 4205 C 415.677 -0.137881 -5.21018 0
M  V30 4206 C 413.005 -0.646738 -5.83125 0
M  V30 4207 C 415.357 -1.0107 -6.24474 0
M  V30 4208 C 414.021 -1.27019 -6.55303 0
M  V30 4209 H 413.291 0.257246 -0.694914 0
M  V30 4210 H 415.938 -0.037259 -1.91464 0
M  V30 4211 H 414.243 2.21079 -3.23468 0
M  V30 4212 H 415.94 1.93495 -3.51227 0
M  V30 4213 H 412.53 0.693593 -4.22951 0
M  V30 4214 H 416.714 0.0423953 -4.96282 0
M  V30 4215 H 411.97 -0.855937 -6.05379 0
M  V30 4216 H 416.144 -1.50247 -6.79999 0
M  V30 4217 H 413.771 -1.95769 -7.3456 0
M  V30 4218 N 415.346 1.54954 0.287554 0
M  V30 4219 C 416.571 1.79209 1.04397 0
M  V30 4220 C 416.996 0.556431 1.79682 0
M  V30 4221 O 416.354 -0.493518 1.74454 0
M  V30 4222 C 416.402 3.00739 1.98969 0
M  V30 4223 O 415.506 2.74805 3.075 0
M  V30 4224 H 414.847 0.592755 0.299227 0
M  V30 4225 H 417.377 2.02068 0.320886 0
M  V30 4226 H 417.387 3.29077 2.4119 0
M  V30 4227 H 416.062 3.90329 1.43582 0
M  V30 4228 H 414.639 2.57523 2.69697 0
M  V30 4229 N 416.824 -0.551391 1.4764 0
M  V30 4230 C 418.072 -1.30572 1.54258 0
M  V30 4231 C 418.393 -1.93877 0.208963 0
M  V30 4232 O 417.663 -1.80234 -0.767619 0
M  V30 4233 H 416.243 -0.484894 0.568231 0
M  V30 4234 H 418.905 -0.643402 1.83974 0
M  V30 4235 H 418.001 -2.09621 2.31226 0
M  V30 4236 N 418.302 -1.35869 -0.798587 0
M  V30 4237 C 419.579 -1.20145 -1.54352 0
M  V30 4238 C 419.959 0.216161 -2.0999 0
M  V30 4239 O 419.307 1.22068 -1.93162 0
M  V30 4240 C 419.517 -2.27602 -2.64572 0
M  V30 4241 C 420.865 -2.63811 -3.32699 0
M  V30 4242 O 421.889 -2.26576 -2.74849 0
M  V30 4243 O 420.748 -3.27866 -4.37226 0
M  V30 4244 H 417.842 -0.467248 -0.682355 0
M  V30 4245 H 420.388 -1.47574 -0.837859 0
M  V30 4246 H 419.16 -3.2265 -2.21388 0
M  V30 4247 H 418.783 -2.01488 -3.42766 0
M  V30 4248 N 419.78 1.02168 -1.19998 0
M  V30 4249 C 421.057 1.72816 -0.916191 0
M  V30 4250 C 421.437 2.03081 0.576325 0
M  V30 4251 O 420.785 1.69122 1.53656 0
M  V30 4252 C 420.995 2.9997 -1.78378 0
M  V30 4253 C 422.343 3.73336 -2.02251 0
M  V30 4254 O 423.367 3.09914 -1.75589 0
M  V30 4255 O 422.226 4.87371 -2.47249 0
M  V30 4256 H 419.32 0.752924 -0.342103 0
M  V30 4257 H 421.866 1.08062 -1.30846 0
M  V30 4258 H 420.638 2.73888 -2.79466 0
M  V30 4259 H 420.261 3.72464 -1.39126 0
M  V30 4260 N 421.258 1.00505 1.21394 0
M  V30 4261 C 422.486 0.706609 1.9446 0
M  V30 4262 C 422.901 -0.73081 1.74082 0
M  V30 4263 O 422.258 -1.49446 1.04747 0
M  V30 4264 C 422.309 1.01824 3.46863 0
M  V30 4265 O 422.03 2.39919 3.66566 0
M  V30 4266 C 423.531 0.739216 4.37093 0
M  V30 4267 H 420.751 0.260394 0.618414 0
M  V30 4268 H 423.295 1.34311 1.54211 0
M  V30 4269 H 421.45 0.427343 3.85036 0
M  V30 4270 H 421.864 2.50784 4.6066 0
M  V30 4271 H 423.338 1.00744 5.42729 0
M  V30 4272 H 423.815 -0.326746 4.37983 0
M  V30 4273 H 424.421 1.31173 4.04566 0
M  V30 4274 N 422.737 -1.36956 0.779787 0
M  V30 4275 C 423.647 -2.33965 0.172491 0
M  V30 4276 C 424.663 -1.60574 -0.670222 0
M  V30 4277 O 425.839 -1.92617 -0.588263 0
M  V30 4278 C 422.904 -3.39761 -0.690173 0
M  V30 4279 C 421.965 -4.28964 0.169924 0
M  V30 4280 C 421.198 -5.29707 -0.651662 0
M  V30 4281 O 421.421 -5.38238 -1.88827 0
M  V30 4282 O 420.355 -6.01873 -0.0566264 0
M  V30 4283 H 424.181 -2.87647 0.974321 0
M  V30 4284 H 421.766 -1.39258 0.541078 0
M  V30 4285 H 423.648 -4.04471 -1.1824 0
M  V30 4286 H 422.323 -2.88394 -1.47006 0
M  V30 4287 H 421.23 -3.67326 0.708696 0
M  V30 4288 H 422.563 -4.83656 0.913085 0
M  V30 4289 N 424.215 -0.530993 -1.48385 0
M  V30 4290 C 425.492 0.0671788 -1.95485 0
M  V30 4291 C 425.872 1.51191 -1.47324 0
M  V30 4292 O 425.22 2.17507 -0.700202 0
M  V30 4293 C 425.43 -0.0511206 -3.48963 0
M  V30 4294 C 426.778 0.107632 -4.24464 0
M  V30 4295 O 427.802 0.0226248 -3.56193 0
M  V30 4296 O 426.661 0.285972 -5.45751 0
M  V30 4297 H 423.755 0.0787365 -0.823243 0
M  V30 4298 H 426.301 -0.595662 -1.58902 0
M  V30 4299 H 425.073 -1.05747 -3.7674 0
M  V30 4300 H 424.696 0.650525 -3.92242 0
M  V30 4301 N 425.693 1.55336 -0.266172 0
M  V30 4302 C 426.94 1.99397 0.353158 0
M  V30 4303 C 427.268 1.15451 1.56529 0
M  V30 4304 O 426.523 0.209974 1.9457 0
M  V30 4305 C 426.822 3.48606 0.787957 0
M  V30 4306 C 426.488 4.49773 -0.318541 0
M  V30 4307 C 425.15 4.77158 -0.62239 0
M  V30 4308 C 427.502 5.10212 -1.06459 0
M  V30 4309 C 424.83 5.62251 -1.67602 0
M  V30 4310 C 427.182 5.96449 -2.10788 0
M  V30 4311 C 425.846 6.22158 -2.41817 0
M  V30 4312 H 425.116 0.729644 0.12923 0
M  V30 4313 H 427.763 1.87732 -0.37802 0
M  V30 4314 H 426.068 3.57701 1.59866 0
M  V30 4315 H 427.765 3.80098 1.27775 0
M  V30 4316 H 424.355 4.2854 -0.0715925 0
M  V30 4317 H 428.539 4.89086 -0.843098 0
M  V30 4318 H 423.795 5.80419 -1.92155 0
M  V30 4319 H 427.969 6.42317 -2.69076 0
M  V30 4320 H 425.596 6.87888 -3.23596 0
M  V30 4321 N 427.171 -0.0066808 1.57599 0
M  V30 4322 C 428.417 -0.693947 1.90558 0
M  V30 4323 C 428.75 -1.73792 0.866594 0
M  V30 4324 O 428.025 -1.94156 -0.115548 0
M  V30 4325 C 428.308 -1.34317 3.34112 0
M  V30 4326 C 428.161 -0.311189 4.48722 0
M  V30 4327 C 429.48 -2.27116 3.7697 0
M  V30 4328 H 426.599 -0.250803 0.693013 0
M  V30 4329 H 429.241 0.043242 1.89951 0
M  V30 4330 H 427.391 -1.9715 3.3476 0
M  V30 4331 H 429.063 0.316944 4.6021 0
M  V30 4332 H 427.306 0.367253 4.32243 0
M  V30 4333 H 427.977 -0.804366 5.46108 0
M  V30 4334 H 430.453 -1.74306 3.77831 0
M  V30 4335 H 429.329 -2.69511 4.78179 0
M  V30 4336 H 429.59 -3.14743 3.10466 0
M  V30 4337 N 428.649 -1.55105 -0.279332 0
M  V30 4338 C 429.612 -1.86783 -1.32834 0
M  V30 4339 C 430.612 -0.74199 -1.42657 0
M  V30 4340 O 431.802 -1.0102 -1.41918 0
M  V30 4341 C 428.934 -2.06746 -2.71052 0
M  V30 4342 H 430.127 -2.8055 -1.05979 0
M  V30 4343 H 427.68 -1.47499 -0.517087 0
M  V30 4344 H 428.415 -1.15339 -3.03097 0
M  V30 4345 H 428.2 -2.88711 -2.65309 0
M  V30 4346 H 429.69 -2.32549 -3.46858 0
M  V30 4347 N 430.127 0.543554 -1.4793 0
M  V30 4348 C 431.375 1.29752 -1.54948 0
M  V30 4349 C 431.696 1.93764 -0.219242 0
M  V30 4350 O 430.966 1.80639 0.75805 0
M  V30 4351 H 429.546 0.481874 -0.570795 0
M  V30 4352 H 432.208 0.633636 -1.84312 0
M  V30 4353 H 431.304 2.08392 -2.32334 0
M  V30 4354 N 431.605 1.3629 0.791371 0
M  V30 4355 C 432.851 1.30605 1.55146 0
M  V30 4356 C 433.184 -0.115042 1.93859 0
M  V30 4357 O 432.459 -1.06798 1.62556 0
M  V30 4358 C 432.742 2.22692 2.82985 0
M  V30 4359 C 432.595 3.73489 2.50651 0
M  V30 4360 C 433.914 2.13588 3.84796 0
M  V30 4361 H 431.033 0.475761 0.562868 0
M  V30 4362 H 433.675 1.66825 0.909358 0
M  V30 4363 H 431.825 1.91933 3.37778 0
M  V30 4364 H 433.497 4.14758 2.01924 0
M  V30 4365 H 431.74 3.93021 1.83622 0
M  V30 4366 H 432.411 4.3333 3.41949 0
M  V30 4367 H 434.887 2.40659 3.39445 0
M  V30 4368 H 433.763 2.80195 4.71998 0
M  V30 4369 H 434.024 1.12256 4.27611 0
M  V30 4370 N 433.083 -1.0153 1.20538 0
M  V30 4371 C 434.494 -1.56598 1.01657 0
M  V30 4372 C 434.845 -1.91505 -0.426668 0
M  V30 4373 O 433.97 -1.72375 -1.30827 0
M  V30 4374 C 434.565 -2.84542 1.83905 0
M  V30 4375 C 433.124 -3.36133 1.69386 0
M  V30 4376 C 432.271 -2.09427 1.81757 0
M  V30 4377 H 435.222 -0.838974 1.34711 0
M  V30 4378 H 435.243 -3.56004 1.34319 0
M  V30 4379 H 434.755 -2.59105 2.8894 0
M  V30 4380 H 432.856 -3.66528 0.669933 0
M  V30 4381 H 432.969 -4.08248 2.50739 0
M  V30 4382 H 431.333 -2.21941 1.24957 0
M  V30 4383 H 432.116 -1.86414 2.88279 0
M  V30 4384 N 434.561 -1.01147 -1.20859 0
M  V30 4385 C 435.508 -0.577354 -2.23462 0
M  V30 4386 C 436.478 0.399922 -1.61214 0
M  V30 4387 O 437.663 0.300515 -1.88419 0
M  V30 4388 C 434.803 0.083372 -3.44999 0
M  V30 4389 C 433.916 -0.937856 -4.21697 0
M  V30 4390 C 433.051 -0.248717 -5.30617 0
M  V30 4391 C 432.09 -1.25705 -5.99053 0
M  V30 4392 N 431.227 -0.594939 -6.99575 0
M  V30 4393 H 436.067 -1.45695 -2.59956 0
M  V30 4394 H 433.604 -0.729428 -1.27741 0
M  V30 4395 H 435.562 0.483535 -4.14388 0
M  V30 4396 H 434.192 0.926645 -3.09214 0
M  V30 4397 H 433.244 -1.45622 -3.51423 0
M  V30 4398 H 434.556 -1.70493 -4.68757 0
M  V30 4399 H 433.71 0.207215 -6.06346 0
M  V30 4400 H 432.449 0.55071 -4.84581 0
M  V30 4401 H 431.454 -1.72343 -5.2209 0
M  V30 4402 H 432.679 -2.05767 -6.47176 0
M  V30 4403 H 430.625 0.184713 -6.5574 0
M  V30 4404 H 430.542 -1.30017 -7.44736 0
M  V30 4405 H 431.81 -0.162427 -7.79331 0
M  V30 4406 N 436.039 1.36541 -0.78704 0
M  V30 4407 C 437.287 1.98911 -0.357633 0
M  V30 4408 C 437.608 1.62778 1.07371 0
M  V30 4409 O 436.878 0.900612 1.73971 0
M  V30 4410 H 435.458 0.735734 -0.129246 0
M  V30 4411 H 438.12 1.66776 -1.00855 0
M  V30 4412 H 437.216 3.08874 -0.447549 0
M  V30 4413 N 437.518 0.538854 1.48102 0
M  V30 4414 C 438.466 -0.232325 2.31437 0
M  V30 4415 C 439.46 -0.927004 1.41785 0
M  V30 4416 O 440.666 -0.850378 1.58646 0
M  V30 4417 H 437.041 -0.0937916 0.746128 0
M  V30 4418 H 439.012 0.489986 2.9435 0
M  V30 4419 C 437.761 -1.26074 3.24038 0
M  V30 4420 H 437.084 -0.735609 3.92974 0
M  V30 4421 H 438.524 -1.77157 3.85216 0
M  V30 4422 C 436.983 -2.29902 2.46265 0
M  V30 4423 O 437.513 -3.36502 2.19384 0
M  V30 4424 N 435.719 -2.03348 2.07601 0
M  V30 4425 H 435.266 -1.16675 2.29662 0
M  V30 4426 H 435.224 -2.73038 1.55877 0
M  V30 4427 N 438.996 -1.55193 0.274407 0
M  V30 4428 C 439.926 -2.25471 -0.607032 0
M  V30 4429 C 440.907 -1.24461 -1.15946 0
M  V30 4430 O 442.092 -1.53179 -1.19373 0
M  V30 4431 C 439.222 -2.97526 -1.79153 0
M  V30 4432 C 438.176 -4.05459 -1.37067 0
M  V30 4433 C 437.502 -4.65084 -2.6382 0
M  V30 4434 C 438.802 -5.19691 -0.521389 0
M  V30 4435 H 440.496 -2.99393 -0.0209343 0
M  V30 4436 H 438.042 -1.43997 -0.00862866 0
M  V30 4437 H 439.995 -3.45402 -2.41404 0
M  V30 4438 H 438.719 -2.21138 -2.40344 0
M  V30 4439 H 437.378 -3.58393 -0.771355 0
M  V30 4440 H 437.026 -3.85365 -3.23268 0
M  V30 4441 H 436.726 -5.37961 -2.36372 0
M  V30 4442 H 438.25 -5.15708 -3.26921 0
M  V30 4443 H 439.664 -5.63623 -1.04889 0
M  V30 4444 H 438.061 -5.99126 -0.341825 0
M  V30 4445 H 439.131 -4.82713 0.46 0
M  V30 4446 N 440.474 -0.00167713 -1.576 0
M  V30 4447 C 441.702 0.693759 -1.94922 0
M  V30 4448 C 442.117 1.67215 -0.876626 0
M  V30 4449 O 441.474 1.81929 0.144279 0
M  V30 4450 C 441.525 1.42416 -3.32265 0
M  V30 4451 O 441.246 0.485014 -4.35407 0
M  V30 4452 C 442.747 2.21395 -3.84056 0
M  V30 4453 H 439.967 0.193118 -0.642609 0
M  V30 4454 H 442.511 -0.0532952 -2.04431 0
M  V30 4455 H 440.666 2.12284 -3.24059 0
M  V30 4456 H 441.08 1.00053 -5.14868 0
M  V30 4457 H 442.554 2.67996 -4.82578 0
M  V30 4458 H 443.031 3.04142 -3.16851 0
M  V30 4459 H 443.637 1.56542 -3.95443 0
M  V30 4460 N 441.952 1.55251 0.271103 0
M  V30 4461 C 443.182 1.79713 1.01916 0
M  V30 4462 C 443.59 0.571613 1.80359 0
M  V30 4463 O 442.933 -0.468853 1.77616 0
M  V30 4464 C 442.995 2.97138 2.02359 0
M  V30 4465 C 442.659 4.34104 1.42837 0
M  V30 4466 C 443.656 5.13019 0.843071 0
M  V30 4467 C 441.341 4.80765 1.455 0
M  V30 4468 C 443.335 6.36729 0.292333 0
M  V30 4469 C 441.022 6.0443 0.900402 0
M  V30 4470 C 442.02 6.8225 0.32007 0
M  V30 4471 O 441.708 8.03582 -0.226031 0
M  V30 4472 H 441.44 0.602431 0.306681 0
M  V30 4473 H 443.994 2.03097 0.306701 0
M  V30 4474 H 442.224 2.6945 2.77369 0
M  V30 4475 H 443.913 3.08907 2.63309 0
M  V30 4476 H 444.679 4.781 0.815178 0
M  V30 4477 H 440.558 4.20202 1.89609 0
M  V30 4478 H 444.102 6.97414 -0.161274 0
M  V30 4479 H 439.999 6.3883 0.925541 0
M  V30 4480 H 440.767 8.18418 -0.115572 0
M  V30 4481 N 443.43 -0.535701 1.48216 0
M  V30 4482 C 444.678 -1.28928 1.55634 0
M  V30 4483 C 444.999 -1.93645 0.229514 0
M  V30 4484 O 444.269 -1.81038 -0.74846 0
M  V30 4485 H 442.849 -0.47884 0.573342 0
M  V30 4486 H 445.511 -0.623853 1.84646 0
M  V30 4487 H 444.607 -2.07157 2.33436 0
M  V30 4488 N 444.908 -1.36708 -0.784132 0
M  V30 4489 C 446.138 -1.34203 -1.57077 0
M  V30 4490 C 446.546 0.0774945 -1.89041 0
M  V30 4491 O 445.889 1.04628 -1.50992 0
M  V30 4492 C 445.951 -2.10351 -2.91535 0
M  V30 4493 C 445.615 -3.59405 -2.82272 0
M  V30 4494 C 446.612 -4.53545 -2.54151 0
M  V30 4495 C 444.297 -4.02362 -3.00683 0
M  V30 4496 C 446.291 -5.8862 -2.44551 0
M  V30 4497 C 443.978 -5.37526 -2.90704 0
M  V30 4498 C 444.976 -6.30468 -2.62677 0
M  V30 4499 O 444.664 -7.63149 -2.52702 0
M  V30 4500 H 444.396 -0.461791 -0.493685 0
M  V30 4501 H 446.95 -1.80475 -0.980712 0
M  V30 4502 H 445.18 -1.5875 -3.52612 0
M  V30 4503 H 446.869 -2.00636 -3.52845 0
M  V30 4504 H 447.635 -4.21669 -2.39625 0
M  V30 4505 H 443.514 -3.30389 -3.21503 0
M  V30 4506 H 447.058 -6.61133 -2.22596 0
M  V30 4507 H 442.955 -5.69008 -3.04795 0
M  V30 4508 H 443.723 -7.73331 -2.68144 0
M  V30 4509 N 446.386 1.0089 -1.21074 0
M  V30 4510 C 447.632 1.74866 -1.02712 0
M  V30 4511 C 447.965 1.89178 0.438787 0
M  V30 4512 O 447.24 1.42325 1.32567 0
M  V30 4513 C 447.523 3.16347 -1.72036 0
M  V30 4514 C 447.376 3.09782 -3.26121 0
M  V30 4515 C 448.695 4.15187 -1.45973 0
M  V30 4516 H 445.814 0.634736 -0.374539 0
M  V30 4517 H 448.456 1.17646 -1.49196 0
M  V30 4518 H 446.606 3.65201 -1.32517 0
M  V30 4519 H 448.278 2.68673 -3.74983 0
M  V30 4520 H 446.521 2.46982 -3.56626 0
M  V30 4521 H 447.192 4.09829 -3.6979 0
M  V30 4522 H 449.668 3.75022 -1.80272 0
M  V30 4523 H 448.544 5.12331 -1.96999 0
M  V30 4524 H 448.805 4.40386 -0.388924 0
M  V30 4525 N 447.864 1.01787 1.20321 0
M  V30 4526 C 449.092 0.727194 1.937 0
M  V30 4527 C 449.507 -0.712305 1.74848 0
M  V30 4528 O 448.864 -1.48327 1.06327 0
M  V30 4529 C 448.915 1.05497 3.45764 0
M  V30 4530 O 448.636 2.43794 3.64 0
M  V30 4531 C 450.137 0.785534 4.36285 0
M  V30 4532 H 447.357 0.266939 0.615617 0
M  V30 4533 H 449.901 1.35939 1.52777 0
M  V30 4534 H 448.056 0.468158 3.84561 0
M  V30 4535 H 448.47 2.55656 4.57974 0
M  V30 4536 H 449.944 1.06495 5.4163 0
M  V30 4537 H 450.421 -0.280273 4.38305 0
M  V30 4538 H 451.027 1.35456 4.03152 0
M  V30 4539 N 449.342 -1.36122 0.79427 0
M  V30 4540 C 450.591 -1.98361 0.365464 0
M  V30 4541 C 450.904 -1.6374 -1.06997 0
M  V30 4542 O 452.11 -2.19251 -1.60129 0
M  V30 4543 C 450.566 -3.54821 0.602496 0
M  V30 4544 C 450.174 -3.98362 2.04967 0
M  V30 4545 C 451.918 -4.2383 0.238437 0
M  V30 4546 C 449.825 -5.47619 2.2331 0
M  V30 4547 H 448.755 -0.742193 0.13291 0
M  V30 4548 H 451.406 -1.55354 0.976589 0
M  V30 4549 H 449.788 -3.95922 -0.078409 0
M  V30 4550 H 450.962 -3.68447 2.76737 0
M  V30 4551 H 449.277 -3.42206 2.37243 0
M  V30 4552 H 451.874 -5.33529 0.353705 0
M  V30 4553 H 452.217 -4.08264 -0.814006 0
M  V30 4554 H 452.75 -3.88108 0.872769 0
M  V30 4555 H 449.489 -5.68138 3.26955 0
M  V30 4556 H 449.009 -5.79145 1.5605 0
M  V30 4557 H 450.688 -6.13911 2.0426 0
M  V30 4558 N 450.82 -0.546701 -1.47814 0
M  V30 4559 C 451.75 0.195317 -2.32682 0
M  V30 4560 C 452.731 0.918981 -1.43139 0
M  V30 4561 O 453.916 0.901501 -1.72008 0
M  V30 4562 C 451.046 1.23237 -3.247 0
M  V30 4563 C 450 0.625818 -4.234 0
M  V30 4564 C 449.326 1.76674 -5.04669 0
M  V30 4565 C 450.626 -0.413515 -5.2066 0
M  V30 4566 H 452.32 -0.513184 -2.94969 0
M  V30 4567 H 449.866 -0.248241 -1.41844 0
M  V30 4568 H 451.819 1.75955 -3.82907 0
M  V30 4569 H 450.543 1.97067 -2.60446 0
M  V30 4570 H 449.202 0.120023 -3.66403 0
M  V30 4571 H 448.85 2.49383 -4.36826 0
M  V30 4572 H 448.55 1.36673 -5.71484 0
M  V30 4573 H 450.074 2.29738 -5.65732 0
M  V30 4574 H 451.488 0.0272042 -5.73294 0
M  V30 4575 H 449.885 -0.731825 -5.95621 0
M  V30 4576 H 450.955 -1.31325 -4.66778 0
M  V30 4577 N 452.299 1.55045 -0.282633 0
M  V30 4578 C 453.247 2.24254 0.617478 0
M  V30 4579 C 454.241 1.24215 1.15183 0
M  V30 4580 O 455.447 1.42123 1.10459 0
M  V30 4581 H 451.822 0.719801 0.217693 0
M  V30 4582 H 453.793 2.98398 0.0110076 0
M  V30 4583 C 452.542 2.98281 1.78672 0
M  V30 4584 H 451.865 3.75053 1.38475 0
M  V30 4585 H 453.305 3.50017 2.393 0
M  V30 4586 C 451.764 2.04184 2.67975 0
M  V30 4587 O 452.294 1.59792 3.6855 0
M  V30 4588 N 450.5 1.70526 2.35307 0
M  V30 4589 H 450.047 2.06821 1.53567 0
M  V30 4590 H 450.005 1.07839 2.95327 0
M  V30 4591 N 453.777 0.010035 1.57597 0
M  V30 4592 C 455.025 -0.671371 1.90623 0
M  V30 4593 C 455.346 -1.73753 0.885151 0
M  V30 4594 O 454.616 -1.95752 -0.0760611 0
M  V30 4595 H 453.196 -0.250968 0.703579 0
M  V30 4596 H 455.858 0.0533325 1.94827 0
M  V30 4597 H 454.954 -1.13626 2.90681 0
M  V30 4598 N 455.255 -1.55392 -0.262866 0
M  V30 4599 C 456.48 -1.80847 -1.01533 0
M  V30 4600 C 456.905 -0.584946 -1.78774 0
M  V30 4601 O 456.263 0.465701 -1.75217 0
M  V30 4602 C 456.311 -3.03866 -1.94159 0
M  V30 4603 O 455.415 -2.79662 -3.03089 0
M  V30 4604 H 454.756 -0.597441 -0.289759 0
M  V30 4605 H 457.286 -2.02553 -0.288698 0
M  V30 4606 H 457.296 -3.32872 -2.35924 0
M  V30 4607 H 455.971 -3.92564 -1.37354 0
M  V30 4608 H 454.548 -2.61781 -2.65566 0
M  V30 4609 N 456.733 0.527833 -1.48498 0
M  V30 4610 C 458.01 1.28905 -1.47115 0
M  V30 4611 C 458.39 2.10297 -0.184007 0
M  V30 4612 O 457.738 2.12728 0.834218 0
M  V30 4613 C 457.948 2.16866 -2.73441 0
M  V30 4614 C 459.296 2.76936 -3.21857 0
M  V30 4615 O 460.32 2.27152 -2.74373 0
M  V30 4616 O 459.179 3.67496 -4.04486 0
M  V30 4617 H 456.273 0.581918 -0.587623 0
M  V30 4618 H 458.819 0.544311 -1.60734 0
M  V30 4619 H 457.591 1.56521 -3.58632 0
M  V30 4620 H 457.214 2.98583 -2.62553 0
M  V30 4621 N 458.211 1.37122 0.776871 0
M  V30 4622 C 459.46 1.31373 1.53049 0
M  V30 4623 C 459.773 -0.101016 1.95339 0
M  V30 4624 O 460.979 -0.280953 2.70042 0
M  V30 4625 C 459.435 2.30567 2.76346 0
M  V30 4626 C 459.043 3.77543 2.41175 0
M  V30 4627 C 460.787 2.33818 3.54301 0
M  V30 4628 C 458.694 4.68481 3.60943 0
M  V30 4629 H 457.624 0.488234 0.574581 0
M  V30 4630 H 460.275 1.62554 0.851372 0
M  V30 4631 H 458.657 1.92396 3.46121 0
M  V30 4632 H 459.831 4.24521 1.79216 0
M  V30 4633 H 458.146 3.77187 1.76405 0
M  V30 4634 H 460.743 2.98965 4.4331 0
M  V30 4635 H 461.086 1.3503 3.93793 0
M  V30 4636 H 461.619 2.7067 2.91518 0
M  V30 4637 H 458.358 5.68378 3.26537 0
M  V30 4638 H 457.878 4.2621 4.22025 0
M  V30 4639 H 459.557 4.85366 4.27819 0
M  V30 4640 N 459.689 -1.00246 1.21608 0
M  V30 4641 C 461.105 -1.26435 0.973975 0
M  V30 4642 C 461.305 -1.98642 -0.338143 0
M  V30 4643 O 460.361 -2.29026 -1.06317 0
M  V30 4644 C 461.674 -2.08551 2.16626 0
M  V30 4645 C 463.222 -2.21769 2.20879 0
M  V30 4646 C 463.697 -3.07267 3.39633 0
M  V30 4647 N 465.188 -3.14855 3.39736 0
M  V30 4648 C 465.923 -3.81274 4.28273 0
M  V30 4649 N 465.419 -4.497 5.27012 0
M  V30 4650 N 467.212 -3.7794 4.16074 0
M  V30 4651 H 459.363 -0.518089 2.05984 0
M  V30 4652 H 461.626 -0.291368 0.902113 0
M  V30 4653 H 461.332 -1.62847 3.11727 0
M  V30 4654 H 461.206 -3.09303 2.15897 0
M  V30 4655 H 463.593 -2.66691 1.26332 0
M  V30 4656 H 463.674 -1.20478 2.25652 0
M  V30 4657 H 463.318 -2.63047 4.34475 0
M  V30 4658 H 463.248 -4.08678 3.321 0
M  V30 4659 H 465.739 -2.66147 2.6828 0
M  V30 4660 H 466.052 -4.98092 5.90867 0
M  V30 4661 H 464.397 -4.48479 5.30935 0
M  V30 4662 H 467.588 -3.23638 3.38195 0
M  V30 4663 H 467.761 -4.29424 4.85282 0
M  V30 4664 N 461.167 -1.02423 -1.1978 0
M  V30 4665 C 462.392 -0.7373 -1.93852 0
M  V30 4666 C 462.817 0.696923 -1.74713 0
M  V30 4667 O 462.175 1.48056 -1.04638 0
M  V30 4668 C 462.223 -1.08783 -3.438 0
M  V30 4669 O 461.327 -0.20383 -4.11896 0
M  V30 4670 H 460.668 -0.27284 -0.605355 0
M  V30 4671 H 463.198 -1.36966 -1.51992 0
M  V30 4672 H 463.208 -1.04276 -3.9445 0
M  V30 4673 H 461.883 -2.13274 -3.57053 0
M  V30 4674 H 460.46 -0.307091 -3.71633 0
M  V30 4675 N 462.645 1.35699 -0.801477 0
M  V30 4676 C 463.575 2.32436 -0.222658 0
M  V30 4677 C 464.556 1.5723 0.649057 0
M  V30 4678 O 465.741 1.85324 0.580387 0
M  V30 4679 C 462.871 3.41469 0.633719 0
M  V30 4680 C 461.825 4.27774 -0.139083 0
M  V30 4681 C 461.151 5.28082 0.838666 0
M  V30 4682 C 462.451 5.04946 -1.33517 0
M  V30 4683 H 464.145 2.81094 -1.03086 0
M  V30 4684 H 461.691 1.35146 -0.497155 0
M  V30 4685 H 463.644 4.08143 1.04868 0
M  V30 4686 H 462.368 2.91408 1.47475 0
M  V30 4687 H 461.027 3.62673 -0.535156 0
M  V30 4688 H 460.675 4.7429 1.67506 0
M  V30 4689 H 460.375 5.86695 0.32594 0
M  V30 4690 H 461.899 5.97628 1.25194 0
M  V30 4691 H 463.313 5.64593 -0.995349 0
M  V30 4692 H 461.71 5.7303 -1.78202 0
M  V30 4693 H 462.78 4.35886 -2.12442 0
M  V30 4694 N 464.123 0.554532 1.47522 0
M  V30 4695 C 465.353 0.0342074 2.06572 0
M  V30 4696 C 465.761 -1.26375 1.40805 0
M  V30 4697 O 465.104 -1.7683 0.49769 0
M  V30 4698 C 465.166 -0.235096 3.5873 0
M  V30 4699 C 464.83 0.973024 4.46521 0
M  V30 4700 C 465.827 1.8779 4.848 0
M  V30 4701 C 463.512 1.18694 4.88075 0
M  V30 4702 C 465.506 2.98039 5.63428 0
M  V30 4703 C 463.193 2.29254 5.66468 0
M  V30 4704 C 464.191 3.18757 6.04055 0
M  V30 4705 O 463.879 4.27401 6.8087 0
M  V30 4706 H 463.611 0.041587 0.67472 0
M  V30 4707 H 466.165 0.766748 1.90552 0
M  V30 4708 H 464.395 -1.02191 3.72953 0
M  V30 4709 H 466.084 -0.700477 3.9981 0
M  V30 4710 H 466.85 1.72467 4.53299 0
M  V30 4711 H 462.729 0.49947 4.58286 0
M  V30 4712 H 466.273 3.67926 5.92685 0
M  V30 4713 H 462.17 2.4455 5.97382 0
M  V30 4714 H 462.938 4.25415 6.9926 0
M  V30 4715 N 465.601 -1.54893 0.290851 0
M  V30 4716 C 466.549 -2.24579 -0.605576 0
M  V30 4717 C 467.543 -1.24824 -1.14522 0
M  V30 4718 O 468.749 -1.42706 -1.09704 0
M  V30 4719 H 465.124 -0.720946 -0.213872 0
M  V30 4720 H 467.095 -2.984 0.0048173 0
M  V30 4721 C 465.844 -2.99224 -1.77088 0
M  V30 4722 H 465.167 -3.75782 -1.36484 0
M  V30 4723 H 466.607 -3.51281 -2.3744 0
M  V30 4724 C 465.066 -2.05602 -2.66888 0
M  V30 4725 O 465.596 -1.61745 -3.67698 0
M  V30 4726 N 463.802 -1.71771 -2.34399 0
M  V30 4727 H 463.349 -2.07633 -1.52468 0
M  V30 4728 H 463.307 -1.09403 -2.94751 0
M  V30 4729 N 467.08 -0.0183926 -1.57589 0
M  V30 4730 C 468.327 0.662562 -1.91354 0
M  V30 4731 C 468.655 1.72747 -0.893788 0
M  V30 4732 O 467.91 1.9545 0.0988509 0
M  V30 4733 C 468.209 1.32676 -3.31861 0
M  V30 4734 C 467.875 0.393267 -4.49182 0
M  V30 4735 C 466.537 0.136302 -4.81007 0
M  V30 4736 C 468.889 -0.248366 -5.20608 0
M  V30 4737 C 466.217 -0.770282 -5.81621 0
M  V30 4738 C 468.569 -1.14294 -6.22189 0
M  V30 4739 C 467.233 -1.4089 -6.52462 0
M  V30 4740 H 466.503 0.242448 -0.700214 0
M  V30 4741 H 469.15 -0.0778629 -1.91342 0
M  V30 4742 H 467.455 2.14168 -3.28084 0
M  V30 4743 H 469.152 1.86001 -3.55253 0
M  V30 4744 H 465.742 0.603723 -4.24327 0
M  V30 4745 H 469.926 -0.062883 -4.9626 0
M  V30 4746 H 465.182 -0.984154 -6.03427 0
M  V30 4747 H 469.356 -1.64637 -6.76659 0
M  V30 4748 H 466.983 -2.11306 -7.30242 0
M  V30 4749 N 468.558 1.5553 0.254621 0
M  V30 4750 C 469.783 1.81383 1.00573 0
M  V30 4751 C 470.208 0.594419 1.78461 0
M  V30 4752 O 469.566 -0.456403 1.75461 0
M  V30 4753 C 469.614 3.04892 1.92545 0
M  V30 4754 O 468.718 2.81266 3.01601 0
M  V30 4755 H 468.059 0.598969 0.286587 0
M  V30 4756 H 470.589 2.02703 0.277952 0
M  V30 4757 H 470.599 3.34119 2.34155 0
M  V30 4758 H 469.274 3.93287 1.3527 0
M  V30 4759 H 467.851 2.63185 2.64174 0
M  V30 4760 N 470.036 -0.519951 1.48776 0
M  V30 4761 C 471.284 -1.2727 1.56993 0
M  V30 4762 C 471.605 -1.9339 0.25004 0
M  V30 4763 O 470.875 -1.81822 -0.729216 0
M  V30 4764 H 469.455 -0.472732 0.578389 0
M  V30 4765 H 472.117 -0.604234 1.85297 0
M  V30 4766 H 471.213 -2.04669 2.3562 0
M  V30 4767 N 471.514 -1.37532 -0.769588 0
M  V30 4768 C 472.424 -1.35668 -1.91393 0
M  V30 4769 C 473.44 -0.255954 -1.72107 0
M  V30 4770 O 474.616 -0.491704 -1.95305 0
M  V30 4771 C 471.681 -1.16481 -3.26547 0
M  V30 4772 C 470.742 -2.36212 -3.58472 0
M  V30 4773 C 469.975 -2.17932 -4.87177 0
M  V30 4774 O 470.198 -1.1647 -5.58382 0
M  V30 4775 O 469.132 -3.06167 -5.18214 0
M  V30 4776 H 472.958 -2.32055 -1.95918 0
M  V30 4777 H 470.543 -1.18284 -0.912641 0
M  V30 4778 H 472.425 -1.07778 -4.07384 0
M  V30 4779 H 471.1 -0.231687 -3.2287 0
M  V30 4780 H 470.007 -2.50488 -2.77861 0
M  V30 4781 H 471.34 -3.281 -3.66894 0
M  V30 4782 N 472.992 0.995999 -1.22138 0
M  V30 4783 C 473.924 2.08745 -0.946485 0
M  V30 4784 C 474.937 1.62633 0.0737356 0
M  V30 4785 O 476.126 1.77782 -0.159886 0
M  V30 4786 C 473.226 3.36516 -0.401305 0
M  V30 4787 C 472.399 4.11672 -1.47801 0
M  V30 4788 C 471.458 5.17728 -0.940461 0
M  V30 4789 O 470.484 5.45482 -1.62596 0
M  V30 4790 N 471.686 5.80005 0.239723 0
M  V30 4791 H 474.451 2.32908 -1.88611 0
M  V30 4792 H 472.012 1.16152 -1.12785 0
M  V30 4793 H 474.004 4.04691 -0.0270837 0
M  V30 4794 H 472.574 3.0944 0.443354 0
M  V30 4795 H 471.794 3.38171 -2.02568 0
M  V30 4796 H 473.082 4.58657 -2.20253 0
M  V30 4797 H 472.48 5.5982 0.813518 0
M  V30 4798 H 471.037 6.4943 0.555361 0
M  V30 4799 N 474.47 1.03057 1.19235 0
M  V30 4800 C 475.403 0.557384 2.21288 0
M  V30 4801 C 476.381 -0.402675 1.57535 0
M  V30 4802 O 477.565 -0.319376 1.85775 0
M  V30 4803 C 474.692 -0.187041 3.38183 0
M  V30 4804 C 473.738 0.72471 4.20298 0
M  V30 4805 S 474.571 2.20187 4.88137 0
M  V30 4806 C 475.727 1.46801 6.08441 0
M  V30 4807 H 475.96 1.42207 2.61083 0
M  V30 4808 H 473.493 0.840651 1.29508 0
M  V30 4809 H 475.451 -0.610405 4.05936 0
M  V30 4810 H 474.112 -1.02748 2.96819 0
M  V30 4811 H 473.305 0.149911 5.03777 0
M  V30 4812 H 472.907 1.08647 3.57871 0
M  V30 4813 H 475.199 0.755522 6.73274 0
M  V30 4814 H 476.142 2.27946 6.70407 0
M  V30 4815 H 476.55 0.964762 5.56195 0
M  V30 4816 N 475.948 -1.35272 0.808662 0
M  V30 4817 C 476.911 -2.28082 0.226093 0
M  V30 4818 C 477.911 -1.49673 -0.587762 0
M  V30 4819 O 479.101 -1.69404 -0.405943 0
M  V30 4820 C 476.233 -3.33955 -0.684596 0
M  V30 4821 H 477.426 -2.81116 1.04469 0
M  V30 4822 H 474.979 -1.45162 0.579466 0
M  V30 4823 H 475.714 -2.86111 -1.5268 0
M  V30 4824 H 475.499 -3.91965 -0.102699 0
M  V30 4825 H 476.989 -4.03219 -1.08646 0
M  V30 4826 N 477.426 -0.562348 -1.47226 0
M  V30 4827 C 478.651 -0.0432632 -2.07355 0
M  V30 4828 C 479.076 1.24332 -1.41149 0
M  V30 4829 O 478.434 1.74603 -0.488226 0
M  V30 4830 C 478.482 0.130288 -3.60365 0
M  V30 4831 O 477.586 1.19166 -3.94808 0
M  V30 4832 H 476.927 -0.0536334 -0.66183 0
M  V30 4833 H 479.457 -0.779495 -1.89169 0
M  V30 4834 H 479.467 0.342881 -4.06557 0
M  V30 4835 H 478.142 -0.809389 -4.07948 0
M  V30 4836 H 476.719 0.959153 -3.60354 0
M  V30 4837 N 478.904 1.54736 -0.299062 0
M  V30 4838 C 480.134 2.04215 0.312992 0
M  V30 4839 C 480.542 1.17596 1.48215 0
M  V30 4840 O 479.885 0.193835 1.82674 0
M  V30 4841 C 479.947 3.49696 0.833862 0
M  V30 4842 C 479.611 4.56518 -0.20977 0
M  V30 4843 C 480.608 5.09442 -1.03756 0
M  V30 4844 C 478.293 5.01073 -0.35091 0
M  V30 4845 C 480.287 6.05459 -1.99244 0
M  V30 4846 C 477.974 5.9691 -1.30924 0
M  V30 4847 C 478.972 6.48987 -2.1285 0
M  V30 4848 O 478.66 7.42947 -3.07059 0
M  V30 4849 H 478.392 0.672128 0.0722494 0
M  V30 4850 H 480.946 2.00718 -0.436043 0
M  V30 4851 H 479.176 3.5051 1.63339 0
M  V30 4852 H 480.865 3.82381 1.36159 0
M  V30 4853 H 481.631 4.75816 -0.939376 0
M  V30 4854 H 477.51 4.60168 0.276813 0
M  V30 4855 H 481.054 6.46031 -2.63229 0
M  V30 4856 H 476.951 6.29953 -1.40815 0
M  V30 4857 H 477.719 7.60743 -3.02015 0
M  V30 4858 N 480.382 0.0267497 1.57577 0
M  V30 4859 C 481.629 -0.652404 1.91703 0
M  V30 4860 C 481.957 -1.72271 0.902936 0
M  V30 4861 O 481.212 -1.955 -0.0884843 0
M  V30 4862 C 481.511 -1.30914 3.3256 0
M  V30 4863 C 481.177 -0.369441 4.49384 0
M  V30 4864 C 479.839 -0.110791 4.81072 0
M  V30 4865 C 482.191 0.275971 5.20469 0
M  V30 4866 C 479.519 0.801116 5.81205 0
M  V30 4867 C 481.871 1.17592 6.21575 0
M  V30 4868 C 480.535 1.44348 6.51705 0
M  V30 4869 H 479.805 -0.238732 0.70149 0
M  V30 4870 H 482.452 0.0880091 1.91298 0
M  V30 4871 H 480.757 -2.12425 3.29216 0
M  V30 4872 H 482.454 -1.84115 3.56234 0
M  V30 4873 H 479.044 -0.581211 4.24641 0
M  V30 4874 H 483.228 0.0892 4.9622 0
M  V30 4875 H 478.484 1.01614 6.02897 0
M  V30 4876 H 482.658 1.68223 6.75777 0
M  V30 4877 H 480.285 2.15176 7.29111 0
M  V30 4878 N 481.861 -1.55662 -0.24637 0
M  V30 4879 C 483.109 -1.77168 -0.972411 0
M  V30 4880 C 483.43 -0.590827 -1.85834 0
M  V30 4881 O 482.7 0.393365 -1.9191 0
M  V30 4882 H 481.28 -0.653405 -0.362038 0
M  V30 4883 H 483.942 -1.93101 -0.264189 0
M  V30 4884 H 483.038 -2.68335 -1.59382 0
M  V30 4885 N 483.339 0.512053 -1.4905 0
M  V30 4886 C 484.569 1.28928 -1.61434 0
M  V30 4887 C 484.977 1.87107 -0.280647 0
M  V30 4888 O 484.32 1.68024 0.742537 0
M  V30 4889 C 484.382 2.466 -2.61588 0
M  V30 4890 C 484.046 2.09375 -4.06216 0
M  V30 4891 C 485.043 1.63994 -4.93358 0
M  V30 4892 C 482.728 2.19348 -4.51876 0
M  V30 4893 C 484.722 1.29076 -6.24194 0
M  V30 4894 C 482.409 1.84041 -5.82728 0
M  V30 4895 C 483.407 1.38978 -6.68711 0
M  V30 4896 O 483.095 1.04144 -7.97126 0
M  V30 4897 H 482.827 0.397668 -0.546659 0
M  V30 4898 H 485.381 0.622507 -1.9574 0
M  V30 4899 H 483.611 3.16318 -2.22441 0
M  V30 4900 H 485.3 3.08642 -2.63619 0
M  V30 4901 H 486.066 1.55744 -4.59313 0
M  V30 4902 H 481.945 2.53376 -3.85125 0
M  V30 4903 H 485.489 0.938303 -6.91261 0
M  V30 4904 H 481.386 1.91938 -6.16304 0
M  V30 4905 H 482.154 1.17387 -8.10039 0
M  V30 4906 N 484.817 1.37938 0.762283 0
M  V30 4907 C 485.78 1.34279 1.85747 0
M  V30 4908 C 486.78 0.244969 1.58923 0
M  V30 4909 O 487.97 0.501365 1.66829 0
M  V30 4910 C 485.102 1.08833 3.23061 0
M  V30 4911 H 486.295 2.31705 1.90401 0
M  V30 4912 H 483.848 1.23105 0.963057 0
M  V30 4913 H 484.583 0.119767 3.24079 0
M  V30 4914 H 484.368 1.88306 3.43923 0
M  V30 4915 H 485.858 1.08946 4.03138 0
M  V30 4916 N 486.295 -0.989507 1.22664 0
M  V30 4917 C 487.541 -1.7321 1.05481 0
M  V30 4918 C 487.874 -1.89852 -0.408635 0
M  V30 4919 O 487.149 -1.44416 -1.30285 0
M  V30 4920 C 487.432 -3.1357 1.77047 0
M  V30 4921 C 487.285 -3.04555 3.31008 0
M  V30 4922 C 488.604 -4.12812 1.5256 0
M  V30 4923 H 485.723 -0.628697 0.384589 0
M  V30 4924 H 488.365 -1.15258 1.51049 0
M  V30 4925 H 486.515 -3.63046 1.3831 0
M  V30 4926 H 488.187 -2.62674 3.7921 0
M  V30 4927 H 486.43 -2.41278 3.6051 0
M  V30 4928 H 487.101 -4.03894 3.76263 0
M  V30 4929 H 489.577 -3.72106 1.86215 0
M  V30 4930 H 488.453 -5.09132 2.05124 0
M  V30 4931 H 488.714 -4.39711 0.458936 0
M  V30 4932 N 487.773 -1.03688 -1.18687 0
M  V30 4933 C 488.736 -0.629115 -2.20397 0
M  V30 4934 C 489.736 0.311495 -1.57754 0
M  V30 4935 O 490.926 0.0974107 -1.73927 0
M  V30 4936 C 488.058 0.0782231 -3.4081 0
M  V30 4937 H 489.251 -1.52915 -2.57987 0
M  V30 4938 H 486.804 -0.828988 -1.32505 0
M  V30 4939 H 487.539 0.992233 -3.08748 0
M  V30 4940 H 487.324 -0.597776 -3.87517 0
M  V30 4941 H 488.814 0.350156 -4.16129 0
M  V30 4942 N 489.251 1.34841 -0.815825 0
M  V30 4943 C 490.214 2.27959 -0.238185 0
M  V30 4944 C 491.214 1.49983 0.579816 0
M  V30 4945 O 492.404 1.69617 0.396953 0
M  V30 4946 C 489.536 3.34314 0.666876 0
M  V30 4947 H 490.729 2.80558 -1.05958 0
M  V30 4948 H 488.282 1.44852 -0.587156 0
M  V30 4949 H 489.017 2.86916 1.5116 0
M  V30 4950 H 488.802 3.92014 0.0819106 0
M  V30 4951 H 490.292 4.0379 1.06506 0
M  V30 4952 N 490.729 0.570148 1.46925 0
M  V30 4953 C 491.957 0.0561966 2.06824 0
M  V30 4954 C 492.372 -1.24326 1.42086 0
M  V30 4955 O 491.729 -1.74882 0.521794 0
M  V30 4956 C 491.78 -0.129517 3.61268 0
M  V30 4957 O 491.501 1.1185 4.23581 0
M  V30 4958 C 493.002 -0.679266 4.38065 0
M  V30 4959 H 490.222 0.0517261 0.669003 0
M  V30 4960 H 492.766 0.787243 1.8874 0
M  V30 4961 H 490.921 -0.810739 3.78822 0
M  V30 4962 H 491.335 0.924375 5.1629 0
M  V30 4963 H 492.809 -0.758445 5.46765 0
M  V30 4964 H 493.286 -1.69346 4.05239 0
M  V30 4965 H 493.892 -0.0333237 4.25287 0
M  V30 4966 N 492.207 -1.54576 0.307264 0
M  V30 4967 C 493.484 -1.92377 -0.353605 0
M  V30 4968 C 493.864 -1.23517 -1.71192 0
M  V30 4969 O 493.212 -0.373101 -2.25433 0
M  V30 4970 C 493.422 -3.45928 -0.462039 0
M  V30 4971 C 494.77 -4.18278 -0.729975 0
M  V30 4972 O 495.794 -3.51997 -0.545605 0
M  V30 4973 O 494.653 -5.3563 -1.08454 0
M  V30 4974 H 491.747 -0.802747 -0.198812 0
M  V30 4975 H 494.293 -1.65929 0.355783 0
M  V30 4976 H 493.065 -3.88187 0.492592 0
M  V30 4977 H 492.688 -3.78431 -1.21965 0
M  V30 4978 N 493.685 -0.035106 -1.57561 0
M  V30 4979 C 494.931 0.64318 -1.92331 0
M  V30 4980 C 495.264 1.71434 -0.912368 0
M  V30 4981 O 494.539 1.94395 0.0640303 0
M  V30 4982 C 494.822 1.25411 -3.37556 0
M  V30 4983 C 494.675 0.192109 -4.4939 0
M  V30 4984 C 495.994 2.17041 -3.82859 0
M  V30 4985 H 493.113 0.232341 -0.699419 0
M  V30 4986 H 495.755 -0.0935889 -1.89769 0
M  V30 4987 H 493.905 1.88205 -3.39869 0
M  V30 4988 H 495.577 -0.438849 -4.59208 0
M  V30 4989 H 493.82 -0.481725 -4.31117 0
M  V30 4990 H 494.491 0.659292 -5.48049 0
M  V30 4991 H 496.967 1.64228 -3.8232 0
M  V30 4992 H 495.843 2.56738 -4.85157 0
M  V30 4993 H 496.104 3.06401 -3.18702 0
M  V30 4994 N 495.163 1.55791 0.238111 0
M  V30 4995 C 496.111 1.91885 1.31464 0
M  V30 4996 C 497.105 0.798929 1.49377 0
M  V30 4997 O 498.311 0.983626 1.50747 0
M  V30 4998 H 494.686 0.609551 0.440399 0
M  V30 4999 H 496.657 2.81747 0.982925 0
M  V30 5000 C 495.406 2.23763 2.6613 0
M  V30 5001 H 494.729 3.09444 2.53149 0
M  V30 5002 H 496.169 2.52915 3.40309 0
M  V30 5003 C 494.628 1.05699 3.1989 0
M  V30 5004 O 495.158 0.309524 4.00506 0
M  V30 5005 N 493.364 0.845251 2.78036 0
M  V30 5006 H 492.911 1.4548 2.12588 0
M  V30 5007 H 492.869 0.0569973 3.14348 0
M  V30 5008 N 496.642 -0.504142 1.49319 0
M  V30 5009 C 497.89 -1.25598 1.58334 0
M  V30 5010 C 498.211 -1.93114 0.270538 0
M  V30 5011 O 497.481 -1.82585 -0.709891 0
M  V30 5012 H 496.061 -0.466571 0.58337 0
M  V30 5013 H 498.723 -0.584547 1.85928 0
M  V30 5014 H 497.819 -2.02159 2.37778 0
M  V30 5015 N 498.12 -1.38341 -0.754957 0
M  V30 5016 C 499.397 -1.24995 -1.50451 0
M  V30 5017 C 499.777 0.149244 -2.10572 0
M  V30 5018 O 499.125 1.15861 -1.96948 0
M  V30 5019 C 499.335 -2.35904 -2.57197 0
M  V30 5020 C 500.683 -2.74262 -3.24138 0
M  V30 5021 O 501.707 -2.35205 -2.67501 0
M  V30 5022 O 500.566 -3.4161 -4.26574 0
M  V30 5023 H 497.66 -0.48872 -0.667144 0
M  V30 5024 H 500.206 -1.50165 -0.790486 0
M  V30 5025 H 498.978 -3.2953 -2.11011 0
M  V30 5026 H 498.601 -2.12291 -3.36182 0
M  V30 5027 N 499.598 0.982988 -1.23187 0
M  V30 5028 C 500.846 1.72052 -1.06031 0
M  V30 5029 C 501.167 1.90769 0.404019 0
M  V30 5030 O 500.437 1.47446 1.28982 0
M  V30 5031 H 499.017 0.637499 -0.389363 0
M  V30 5032 H 501.679 1.18338 -1.54862 0
M  V30 5033 H 500.775 2.7111 -1.54615 0
M  V30 5034 N 501.076 1.04316 1.18135 0
M  V30 5035 C 502.006 0.657299 2.24058 0
M  V30 5036 C 502.987 -0.340678 1.66654 0
M  V30 5037 O 504.172 -0.220223 1.92947 0
M  V30 5038 C 501.302 0.0220715 3.47293 0
M  V30 5039 C 500.256 0.943857 4.17463 0
M  V30 5040 C 499.582 0.172973 5.3442 0
M  V30 5041 C 500.882 2.26409 4.70677 0
M  V30 5042 H 502.576 1.5428 2.56589 0
M  V30 5043 H 500.122 0.743263 1.23335 0
M  V30 5044 H 502.075 -0.259607 4.206 0
M  V30 5045 H 500.799 -0.898323 3.14003 0
M  V30 5046 H 499.458 1.20996 3.46057 0
M  V30 5047 H 499.106 -0.749907 4.97379 0
M  V30 5048 H 498.806 0.787098 5.82304 0
M  V30 5049 H 500.33 -0.101628 6.10515 0
M  V30 5050 H 501.744 2.04294 5.35665 0
M  V30 5051 H 500.141 2.8314 5.29105 0
M  V30 5052 H 501.211 2.90883 3.87962 0
M  V30 5053 N 502.554 -1.34406 0.822964 0
M  V30 5054 C 503.831 -1.92733 0.333641 0
M  V30 5055 C 504.211 -1.75107 -1.17901 0
M  V30 5056 O 503.559 -1.12983 -1.98613 0
M  V30 5057 C 503.769 -3.40557 0.763023 0
M  V30 5058 C 505.117 -4.17709 0.761879 0
M  V30 5059 O 506.141 -3.49141 0.705606 0
M  V30 5060 O 505 -5.40082 0.835109 0
M  V30 5061 H 502.094 -0.821964 0.0911249 0
M  V30 5062 H 504.64 -1.4338 0.907757 0
M  V30 5063 H 503.412 -3.47187 1.8049 0
M  V30 5064 H 503.035 -3.97259 0.164605 0
M  V30 5065 N 504.032 -0.577932 -1.46621 0
M  V30 5066 C 505.309 0.00495287 -1.95599 0
M  V30 5067 C 505.689 1.46428 -1.5206 0
M  V30 5068 O 505.037 2.1517 -0.769046 0
M  V30 5069 C 505.247 -0.162114 -3.48623 0
M  V30 5070 C 506.595 -0.0274623 -4.24591 0
M  V30 5071 O 507.619 -0.0907067 -3.56084 0
M  V30 5072 O 506.478 0.1122 -5.46385 0
M  V30 5073 H 503.572 0.0525057 -0.825332 0
M  V30 5074 H 506.118 -0.645914 -1.56927 0
M  V30 5075 H 504.89 -1.17679 -3.73185 0
M  V30 5076 H 504.513 0.525407 -3.94113 0
M  V30 5077 N 505.51 1.54411 -0.315457 0
M  V30 5078 C 506.44 2.27002 0.547039 0
M  V30 5079 C 507.421 1.27492 1.12605 0
M  V30 5080 O 508.606 1.5629 1.15269 0
M  V30 5081 C 505.736 3.02171 1.71201 0
M  V30 5082 C 504.69 4.0895 1.26268 0
M  V30 5083 C 504.016 4.71915 2.51396 0
M  V30 5084 C 505.316 5.20891 0.383419 0
M  V30 5085 H 507.01 2.99343 -0.0584517 0
M  V30 5086 H 504.556 1.4397 -0.0295527 0
M  V30 5087 H 506.509 3.51681 2.32161 0
M  V30 5088 H 505.233 2.27433 2.34397 0
M  V30 5089 H 503.892 3.60312 0.676062 0
M  V30 5090 H 503.54 3.93801 3.12937 0
M  V30 5091 H 503.24 5.44039 2.22026 0
M  V30 5092 H 504.764 5.24195 3.13133 0
M  V30 5093 H 506.178 5.66206 0.899082 0
M  V30 5094 H 504.575 5.99821 0.182857 0
M  V30 5095 H 505.645 4.81324 -0.587821 0
M  V30 5096 N 506.988 0.0434614 1.5754 0
M  V30 5097 C 507.918 -0.931651 2.14109 0
M  V30 5098 C 508.899 -1.32971 1.06079 0
M  V30 5099 O 510.084 -1.40579 1.33982 0
M  V30 5100 C 507.214 -2.20914 2.67982 0
M  V30 5101 C 506.168 -1.95139 3.80926 0
M  V30 5102 C 505.494 -3.29276 4.21285 0
M  V30 5103 C 506.794 -1.27913 5.06395 0
M  V30 5104 H 508.488 -0.460497 2.95837 0
M  V30 5105 H 506.034 -0.220058 1.42309 0
M  V30 5106 H 507.987 -2.89522 3.06194 0
M  V30 5107 H 506.711 -2.70221 1.83434 0
M  V30 5108 H 505.37 -1.28945 3.43175 0
M  V30 5109 H 505.018 -3.76369 3.33699 0
M  V30 5110 H 504.718 -3.12831 4.97404 0
M  V30 5111 H 506.242 -3.99129 4.62091 0
M  V30 5112 H 507.656 -1.86544 5.42102 0
M  V30 5113 H 506.053 -1.2182 5.87605 0
M  V30 5114 H 507.123 -0.254066 4.84234 0
M  V30 5115 N 508.466 -1.55915 -0.229846 0
M  V30 5116 C 509.712 -1.78807 -0.956868 0
M  V30 5117 C 510.045 -0.611687 -1.84315 0
M  V30 5118 O 509.32 0.389398 -1.90562 0
M  V30 5119 C 509.603 -3.11718 -1.80288 0
M  V30 5120 C 509.456 -4.3979 -0.943649 0
M  V30 5121 C 510.775 -3.40999 -2.78222 0
M  V30 5122 H 507.894 -0.6505 -0.346437 0
M  V30 5123 H 510.536 -1.88648 -0.226252 0
M  V30 5124 H 508.686 -3.03459 -2.42579 0
M  V30 5125 H 510.358 -4.60059 -0.338121 0
M  V30 5126 H 508.601 -4.33086 -0.248705 0
M  V30 5127 H 509.272 -5.29208 -1.5698 0
M  V30 5128 H 511.748 -3.49332 -2.26067 0
M  V30 5129 H 510.624 -4.35183 -3.34526 0
M  V30 5130 H 510.885 -2.62754 -3.55546 0
M  V30 5131 N 509.944 0.496216 -1.49584 0
M  V30 5132 C 511.192 1.24756 -1.58998 0
M  V30 5133 C 511.513 1.92968 -0.280775 0
M  V30 5134 O 510.783 1.82959 0.700198 0
M  V30 5135 H 509.363 0.463471 -0.585836 0
M  V30 5136 H 512.025 0.574678 -1.86235 0
M  V30 5137 H 511.121 2.00895 -2.38847 0
M  V30 5138 N 511.423 1.38739 0.74761 0
M  V30 5139 C 512.386 1.36241 1.84312 0
M  V30 5140 C 513.386 0.261811 1.58654 0
M  V30 5141 O 514.576 0.519031 1.66288 0
M  V30 5142 C 511.708 1.12253 3.21888 0
M  V30 5143 H 512.901 2.33712 1.87933 0
M  V30 5144 H 510.454 1.2412 0.949946 0
M  V30 5145 H 511.189 0.154133 3.23934 0
M  V30 5146 H 510.974 1.91943 3.41907 0
M  V30 5147 H 512.464 1.13215 4.0196 0
M  V30 5148 N 512.901 -0.976442 1.23707 0
M  V30 5149 C 514.312 -1.53284 1.06587 0
M  V30 5150 C 514.663 -1.92765 -0.365526 0
M  V30 5151 O 513.788 -1.7645 -1.25277 0
M  V30 5152 C 514.383 -2.78548 1.92864 0
M  V30 5153 C 512.942 -3.30574 1.79994 0
M  V30 5154 C 512.089 -2.03538 1.88328 0
M  V30 5155 H 515.04 -0.795692 1.37311 0
M  V30 5156 H 515.061 -3.5155 1.45577 0
M  V30 5157 H 514.573 -2.49782 2.97037 0
M  V30 5158 H 512.674 -3.64211 0.786202 0
M  V30 5159 H 512.787 -4.00065 2.636 0
M  V30 5160 H 511.151 -2.17853 1.31954 0
M  V30 5161 H 511.934 -1.77149 2.94063 0
M  V30 5162 N 514.379 -1.04941 -1.1758 0
M  V30 5163 C 515.309 -0.669172 -2.23706 0
M  V30 5164 C 516.29 0.331835 -1.66832 0
M  V30 5165 O 517.475 0.209988 -1.93061 0
M  V30 5166 C 514.605 -0.0404889 -3.47276 0
M  V30 5167 C 513.559 -0.965983 -4.16957 0
M  V30 5168 C 512.885 -0.201312 -5.34321 0
M  V30 5169 C 514.185 -2.28902 -4.69469 0
M  V30 5170 H 515.879 -1.55639 -2.55767 0
M  V30 5171 H 513.425 -0.749793 -1.22939 0
M  V30 5172 H 515.378 0.237298 -4.20731 0
M  V30 5173 H 514.102 0.881658 -3.14475 0
M  V30 5174 H 512.761 -1.22829 -3.45411 0
M  V30 5175 H 512.409 0.723519 -4.97769 0
M  V30 5176 H 512.109 -0.817968 -5.81879 0
M  V30 5177 H 513.633 0.0692499 -6.10561 0
M  V30 5178 H 515.047 -2.07132 -5.34574 0
M  V30 5179 H 513.444 -2.85942 -5.27596 0
M  V30 5180 H 514.514 -2.92937 -3.86414 0
M  V30 5181 N 515.857 1.33968 -0.830081 0
M  V30 5182 C 516.787 2.31911 -0.271911 0
M  V30 5183 C 517.768 1.58571 0.61556 0
M  V30 5184 O 518.953 1.86514 0.540946 0
M  V30 5185 C 516.083 3.42737 0.561146 0
M  V30 5186 C 515.037 4.27383 -0.229789 0
M  V30 5187 C 514.363 5.29742 0.726463 0
M  V30 5188 C 515.663 5.02 -1.44197 0
M  V30 5189 H 517.357 2.78844 -1.09025 0
M  V30 5190 H 514.903 1.34061 -0.52571 0
M  V30 5191 H 516.856 4.10276 0.961867 0
M  V30 5192 H 515.58 2.94471 1.41261 0
M  V30 5193 H 514.239 3.61456 -0.611964 0
M  V30 5194 H 513.887 4.77736 1.57408 0
M  V30 5195 H 513.587 5.87255 0.20142 0
M  V30 5196 H 515.111 6.00149 1.12489 0
M  V30 5197 H 516.525 5.62355 -1.11488 0
M  V30 5198 H 514.922 5.69122 -1.90317 0
M  V30 5199 H 515.992 4.31281 -2.2164 0
M  V30 5200 N 517.335 0.585699 1.46312 0
M  V30 5201 C 518.268 -0.194257 2.27372 0
M  V30 5202 C 519.246 -0.894116 1.3581 0
M  V30 5203 O 520.43 -0.907402 1.65222 0
M  V30 5204 C 517.557 -1.27901 3.13622 0
M  V30 5205 C 516.603 -0.684666 4.20969 0
M  V30 5206 S 517.436 0.490745 5.33247 0
M  V30 5207 C 518.592 -0.595137 6.23064 0
M  V30 5208 H 518.825 0.493515 2.93175 0
M  V30 5209 H 516.358 0.372666 1.49835 0
M  V30 5210 H 518.316 -1.90008 3.63878 0
M  V30 5211 H 516.977 -1.93875 2.47126 0
M  V30 5212 H 516.17 -1.50015 4.81156 0
M  V30 5213 H 515.772 -0.139204 3.73741 0
M  V30 5214 H 518.064 -1.48002 6.61137 0
M  V30 5215 H 519.007 -0.0299446 7.08094 0
M  V30 5216 H 519.415 -0.900627 5.57269 0
M  V30 5217 N 518.813 -1.54241 0.323641 0
M  V30 5218 C 520.09 -1.92741 -0.333181 0
M  V30 5219 C 520.47 -1.25326 -1.69872 0
M  V30 5220 O 519.818 -0.396991 -2.25025 0
M  V30 5221 C 520.028 -3.46399 -0.425322 0
M  V30 5222 C 521.376 -4.19029 -0.68557 0
M  V30 5223 O 522.4 -3.52555 -0.50824 0
M  V30 5224 O 521.259 -5.36751 -1.02767 0
M  V30 5225 H 518.353 -0.804811 -0.190286 0
M  V30 5226 H 520.899 -1.65542 0.373361 0
M  V30 5227 H 519.671 -3.87643 0.533737 0
M  V30 5228 H 519.294 -3.79704 -1.17944 0
M  V30 5229 N 520.291 -0.0518155 -1.57515 0
M  V30 5230 C 521.707 0.304735 -1.56664 0
M  V30 5231 C 521.907 1.71395 -1.05953 0
M  V30 5232 O 520.963 2.42123 -0.716414 0
M  V30 5233 C 522.276 0.132614 -3.00407 0
M  V30 5234 C 523.824 0.20367 -3.12337 0
M  V30 5235 C 524.299 0.0600706 -4.57961 0
M  V30 5236 N 525.79 0.116326 -4.63054 0
M  V30 5237 C 526.525 0.0293363 -5.73392 0
M  V30 5238 N 526.021 -0.110038 -6.92713 0
M  V30 5239 N 527.814 0.0849651 -5.62036 0
M  V30 5240 H 519.965 -0.973056 -1.888 0
M  V30 5241 H 522.228 -0.377781 -0.869474 0
M  V30 5242 H 521.934 -0.839019 -3.41546 0
M  V30 5243 H 521.808 0.893376 -3.66468 0
M  V30 5244 H 524.195 1.16578 -2.71097 0
M  V30 5245 H 524.276 -0.587857 -2.48954 0
M  V30 5246 H 523.92 -0.898715 -4.99886 0
M  V30 5247 H 523.85 0.87075 -5.19351 0
M  V30 5248 H 526.341 0.22327 -3.7724 0
M  V30 5249 H 526.654 -0.169104 -7.72615 0
M  V30 5250 H 524.999 -0.145132 -6.94848 0
M  V30 5251 H 528.19 0.192411 -4.67704 0
M  V30 5252 H 528.363 0.0137131 -6.47999 0
M  V30 5253 N 521.769 1.56035 0.221574 0
M  V30 5254 C 522.997 1.8313 0.962864 0
M  V30 5255 C 523.412 0.630934 1.77946 0
M  V30 5256 O 522.769 -0.400519 1.78051 0
M  V30 5257 C 522.82 3.08742 1.88045 0
M  V30 5258 O 522.541 4.24147 1.09686 0
M  V30 5259 C 524.042 3.48824 2.73563 0
M  V30 5260 H 521.262 0.608775 0.282194 0
M  V30 5261 H 523.806 2.03124 0.23681 0
M  V30 5262 H 521.961 2.90723 2.56045 0
M  V30 5263 H 522.375 4.95505 1.71974 0
M  V30 5264 H 523.849 4.39752 3.3365 0
M  V30 5265 H 524.326 2.70575 3.45956 0
M  V30 5266 H 524.932 3.69282 2.10976 0
M  V30 5267 N 523.247 -0.488276 1.49845 0
M  V30 5268 C 524.658 -1.06955 1.53028 0
M  V30 5269 C 525.009 -1.9351 0.323797 0
M  V30 5270 O 524.134 -2.08891 -0.565116 0
M  V30 5271 C 524.729 -1.94643 2.77307 0
M  V30 5272 C 523.288 -2.4791 2.83227 0
M  V30 5273 C 522.435 -1.25833 2.47106 0
M  V30 5274 H 525.386 -0.271626 1.56358 0
M  V30 5275 H 525.407 -2.79496 2.5819 0
M  V30 5276 H 524.919 -1.31621 3.65099 0
M  V30 5277 H 523.02 -3.14535 1.99745 0
M  V30 5278 H 523.133 -2.84193 3.85709 0
M  V30 5279 H 521.497 -1.58764 1.99163 0
M  V30 5280 H 522.28 -0.644993 3.37186 0
M  V30 5281 N 524.725 -1.39134 -0.740242 0
M  V30 5282 C 526.002 -1.26584 -1.49117 0
M  V30 5283 C 526.382 0.126902 -2.10718 0
M  V30 5284 O 525.73 1.13765 -1.98166 0
M  V30 5285 C 525.94 -2.38619 -2.54681 0
M  V30 5286 C 527.288 -2.77685 -3.21211 0
M  V30 5287 O 528.312 -2.38029 -2.64991 0
M  V30 5288 O 527.171 -3.46115 -4.22926 0
M  V30 5289 H 524.265 -0.495769 -0.661923 0
M  V30 5290 H 526.811 -1.50995 -0.774514 0
M  V30 5291 H 525.583 -3.3175 -2.07504 0
M  V30 5292 H 525.206 -2.15845 -3.33911 0
M  V30 5293 N 526.204 0.969867 -1.24223 0
M  V30 5294 C 527.452 1.70918 -1.0785 0
M  V30 5295 C 527.773 1.91186 0.383763 0
M  V30 5296 O 527.043 1.48806 1.27411 0
M  V30 5297 H 525.623 0.633334 -0.396103 0
M  V30 5298 H 528.285 1.16689 -1.56108 0
M  V30 5299 H 527.381 2.69455 -1.57482 0
M  V30 5300 N 527.682 1.05563 1.17022 0
M  V30 5301 C 529.098 0.777684 1.39371 0
M  V30 5302 C 529.298 -0.626269 1.91521 0
M  V30 5303 O 528.354 -1.38806 2.10924 0
M  V30 5304 C 529.667 1.83642 2.3811 0
M  V30 5305 C 531.215 1.85907 2.51809 0
M  V30 5306 C 531.69 2.90813 3.53824 0
M  V30 5307 N 533.181 2.898 3.61345 0
M  V30 5308 C 533.916 3.6762 4.40049 0
M  V30 5309 N 533.412 4.55237 5.22237 0
M  V30 5310 N 535.205 3.56044 4.34959 0
M  V30 5311 H 527.356 1.9614 0.815047 0
M  V30 5312 H 529.619 0.849527 0.420722 0
M  V30 5313 H 529.325 2.84425 2.06871 0
M  V30 5314 H 529.199 1.6812 3.37662 0
M  V30 5315 H 531.586 0.857865 2.82356 0
M  V30 5316 H 531.667 2.05506 1.52318 0
M  V30 5317 H 531.311 3.91122 3.24015 0
M  V30 5318 H 531.241 2.68465 4.53028 0
M  V30 5319 H 533.732 2.26274 3.02669 0
M  V30 5320 H 534.045 5.11291 5.79484 0
M  V30 5321 H 532.39 4.59296 5.21605 0
M  V30 5322 H 535.581 2.86986 3.69806 0
M  V30 5323 H 535.754 4.16938 4.96051 0
M  V30 5324 N 529.16 -1.33526 0.837174 0
M  V30 5325 C 530.571 -1.80182 0.489017 0
M  V30 5326 C 530.922 -1.69285 -0.991826 0
M  V30 5327 O 530.047 -1.24113 -1.77271 0
M  V30 5328 C 530.642 -3.27149 0.880866 0
M  V30 5329 C 529.201 -3.71828 0.584872 0
M  V30 5330 C 528.348 -2.54974 1.09011 0
M  V30 5331 H 531.299 -1.21071 1.02603 0
M  V30 5332 H 531.32 -3.80024 0.190239 0
M  V30 5333 H 530.832 -3.35048 1.95869 0
M  V30 5334 H 528.933 -3.69457 -0.48295 0
M  V30 5335 H 529.046 -4.65366 1.13892 0
M  V30 5336 H 527.41 -2.4952 0.511047 0
M  V30 5337 H 528.193 -2.65637 2.17467 0
M  V30 5338 N 530.638 -0.59345 -1.46 0
M  V30 5339 C 531.57 0.171569 -2.28557 0
M  V30 5340 C 532.583 0.845273 -1.39137 0
M  V30 5341 O 533.772 0.713033 -1.6364 0
M  V30 5342 C 530.872 1.26311 -3.14482 0
M  V30 5343 C 530.045 0.679258 -4.32094 0
M  V30 5344 C 529.104 1.65987 -4.99334 0
M  V30 5345 O 528.13 1.19171 -5.56585 0
M  V30 5346 N 529.332 2.99414 -4.97324 0
M  V30 5347 H 532.097 -0.536771 -2.94854 0
M  V30 5348 H 529.658 -0.431954 -1.56031 0
M  V30 5349 H 531.65 1.91863 -3.5633 0
M  V30 5350 H 530.22 1.87416 -2.50188 0
M  V30 5351 H 529.44 -0.153992 -3.93899 0
M  V30 5352 H 530.728 0.26916 -5.08088 0
M  V30 5353 H 530.126 3.40064 -4.52076 0
M  V30 5354 H 528.683 3.60426 -5.4308 0
M  V30 5355 N 532.116 1.54067 -0.331816 0
M  V30 5356 C 533.026 2.28322 0.539104 0
M  V30 5357 C 534.042 1.32985 1.1221 0
M  V30 5358 O 535.218 1.6601 1.1403 0
M  V30 5359 C 532.283 3.03277 1.68 0
M  V30 5360 C 531.344 4.14216 1.12798 0
M  V30 5361 C 530.577 4.85588 2.2145 0
M  V30 5362 O 530.8 4.56536 3.41952 0
M  V30 5363 O 529.734 5.72309 1.86404 0
M  V30 5364 H 533.56 3.03632 -0.0641692 0
M  V30 5365 H 531.145 1.49083 -0.0972365 0
M  V30 5366 H 533.027 3.50189 2.34405 0
M  V30 5367 H 531.702 2.30834 2.2693 0
M  V30 5368 H 530.609 3.71635 0.428782 0
M  V30 5369 H 531.942 4.88727 0.583698 0
M  V30 5370 N 533.594 0.0601682 1.57485 0
M  V30 5371 C 534.84 -0.612501 1.93329 0
M  V30 5372 C 535.173 -1.6996 0.939526 0
M  V30 5373 O 534.448 -1.94472 -0.0330957 0
M  V30 5374 C 534.731 -1.20025 3.39508 0
M  V30 5375 C 534.584 -0.12059 4.49638 0
M  V30 5376 C 535.903 -2.10923 3.86264 0
M  V30 5377 H 533.022 -0.221185 0.703027 0
M  V30 5378 H 535.664 0.123768 1.89596 0
M  V30 5379 H 533.814 -1.82774 3.42821 0
M  V30 5380 H 535.486 0.51185 4.58452 0
M  V30 5381 H 533.729 0.550251 4.30296 0
M  V30 5382 H 534.4 -0.572019 5.49028 0
M  V30 5383 H 536.876 -1.58124 3.84884 0
M  V30 5384 H 535.752 -2.48987 4.8918 0
M  V30 5385 H 536.013 -3.01292 3.23536 0
M  V30 5386 N 535.072 -1.5615 -0.213296 0
M  V30 5387 C 536.32 -1.79191 -0.934612 0
M  V30 5388 C 536.641 -0.630112 -1.84539 0
M  V30 5389 O 535.911 0.35257 -1.92701 0
M  V30 5390 H 534.491 -0.660937 -0.348097 0
M  V30 5391 H 537.153 -1.93618 -0.22317 0
M  V30 5392 H 536.249 -2.71656 -1.53654 0
M  V30 5393 N 536.55 0.480323 -1.50102 0
M  V30 5394 C 537.966 0.813295 -1.37323 0
M  V30 5395 C 538.166 1.97027 -0.422206 0
M  V30 5396 O 537.222 2.5212 0.138563 0
M  V30 5397 C 538.535 1.13404 -2.78496 0
M  V30 5398 C 540.083 1.24104 -2.87345 0
M  V30 5399 C 540.558 1.59497 -4.29331 0
M  V30 5400 N 542.049 1.66507 -4.32238 0
M  V30 5401 C 542.784 1.95378 -5.39087 0
M  V30 5402 N 542.28 2.22333 -6.56155 0
M  V30 5403 N 544.073 1.96803 -5.26522 0
M  V30 5404 H 536.224 -0.282291 -2.10516 0
M  V30 5405 H 538.487 -0.063752 -0.945854 0
M  V30 5406 H 538.193 0.357064 -3.49883 0
M  V30 5407 H 538.067 2.07251 -3.15162 0
M  V30 5408 H 540.454 2.00871 -2.16183 0
M  V30 5409 H 540.535 0.282593 -2.54234 0
M  V30 5410 H 540.179 0.832736 -5.01027 0
M  V30 5411 H 540.109 2.56477 -4.59921 0
M  V30 5412 H 542.6 1.47753 -3.47818 0
M  V30 5413 H 542.913 2.43611 -7.33399 0
M  V30 5414 H 541.258 2.19745 -6.59346 0
M  V30 5415 H 544.449 1.75235 -4.34062 0
M  V30 5416 H 544.622 2.18969 -6.09883 0
M  V30 5417 N 538.028 1.39524 0.732853 0
M  V30 5418 C 539.274 1.37068 1.49467 0
M  V30 5419 C 539.607 -0.0327166 1.94172 0
M  V30 5420 O 538.882 -0.998071 1.66939 0
M  V30 5421 C 539.165 2.34494 2.73285 0
M  V30 5422 C 539.018 3.83784 2.34585 0
M  V30 5423 C 540.337 2.29717 3.75391 0
M  V30 5424 H 537.456 0.499206 0.542183 0
M  V30 5425 H 540.098 1.70532 0.837783 0
M  V30 5426 H 538.248 2.06087 3.29333 0
M  V30 5427 H 539.92 4.22949 1.84151 0
M  V30 5428 H 538.163 4.00455 1.66787 0
M  V30 5429 H 538.834 4.47444 3.23262 0
M  V30 5430 H 541.31 2.54839 3.28932 0
M  V30 5431 H 540.186 2.99962 4.59689 0
M  V30 5432 H 540.447 1.30291 4.22465 0
M  V30 5433 N 539.506 -0.963266 1.24736 0
M  V30 5434 C 540.736 -1.73913 1.11524 0
M  V30 5435 C 541.144 -1.86218 -0.334612 0
M  V30 5436 O 540.487 -1.3531 -1.24245 0
M  V30 5437 C 540.549 -3.17501 1.68622 0
M  V30 5438 C 540.213 -3.28655 3.17546 0
M  V30 5439 C 541.21 -3.13637 4.14642 0
M  V30 5440 C 538.895 -3.52753 3.5759 0
M  V30 5441 C 540.889 -3.2255 5.49764 0
M  V30 5442 C 538.576 -3.61303 4.92852 0
M  V30 5443 C 539.574 -3.46214 5.88748 0
M  V30 5444 O 539.262 -3.5443 7.2155 0
M  V30 5445 H 538.994 -0.552057 0.390139 0
M  V30 5446 H 541.548 -1.2177 1.65412 0
M  V30 5447 H 539.778 -3.70969 1.09172 0
M  V30 5448 H 541.467 -3.76914 1.50635 0
M  V30 5449 H 542.233 -2.94899 3.85045 0
M  V30 5450 H 538.112 -3.63561 2.83451 0
M  V30 5451 H 541.656 -3.1069 6.24594 0
M  V30 5452 H 537.553 -3.79556 5.22118 0
M  V30 5453 H 538.321 -3.71116 7.29531 0
M  V30 5454 N 540.985 -1.06182 -1.16461 0
M  V30 5455 C 542.231 -0.779015 -1.87241 0
M  V30 5456 C 542.564 0.692715 -1.81425 0
M  V30 5457 O 541.839 1.5074 -1.22913 0
M  V30 5458 C 542.122 -1.2728 -3.36856 0
M  V30 5459 C 541.975 -2.80821 -3.51368 0
M  V30 5460 C 543.294 -0.879799 -4.31216 0
M  V30 5461 H 540.413 -0.284464 -0.679889 0
M  V30 5462 H 543.055 -1.31755 -1.36896 0
M  V30 5463 H 541.205 -0.814673 -3.79862 0
M  V30 5464 H 542.877 -3.34833 -3.17308 0
M  V30 5465 H 541.12 -3.19606 -2.93316 0
M  V30 5466 H 541.791 -3.10435 -4.56436 0
M  V30 5467 H 544.267 -1.27436 -3.96105 0
M  V30 5468 H 543.143 -1.25278 -5.34412 0
M  V30 5469 H 543.404 0.215372 -4.41575 0
M  V30 5470 N 542.463 1.3308 -0.844243 0
M  V30 5471 C 543.693 2.01515 -0.455541 0
M  V30 5472 C 544.101 1.63655 0.949406 0
M  V30 5473 O 543.444 0.84848 1.62931 0
M  V30 5474 C 543.506 3.55967 -0.502801 0
M  V30 5475 C 543.17 4.17222 -1.86481 0
M  V30 5476 C 544.167 4.36205 -2.8288 0
M  V30 5477 C 541.852 4.53528 -2.15911 0
M  V30 5478 C 543.846 4.90649 -4.06869 0
M  V30 5479 C 541.533 5.07679 -3.40155 0
M  V30 5480 C 542.531 5.26186 -4.35451 0
M  V30 5481 O 542.219 5.79183 -5.57496 0
M  V30 5482 H 541.951 0.65199 -0.178565 0
M  V30 5483 H 544.505 1.70867 -1.1399 0
M  V30 5484 H 542.735 3.85965 0.23836 0
M  V30 5485 H 544.424 4.05688 -0.131169 0
M  V30 5486 H 545.19 4.085 -2.61444 0
M  V30 5487 H 541.069 4.38414 -1.42528 0
M  V30 5488 H 544.613 5.0501 -4.81259 0
M  V30 5489 H 540.51 5.34815 -3.61446 0
M  V30 5490 H 541.278 5.97591 -5.5931 0
M  V30 5491 N 543.941 0.601185 1.45683 0
M  V30 5492 C 544.871 -0.108824 2.33246 0
M  V30 5493 C 545.852 -0.865223 1.46451 0
M  V30 5494 O 547.037 -0.83704 1.75235 0
M  V30 5495 C 544.167 -1.11101 3.2905 0
M  V30 5496 C 543.121 -0.468244 4.25431 0
M  V30 5497 C 542.447 -1.57822 5.10878 0
M  V30 5498 C 543.747 0.606469 5.18767 0
M  V30 5499 H 545.441 0.622306 2.92861 0
M  V30 5500 H 542.987 0.300714 1.40825 0
M  V30 5501 H 544.94 -1.61622 3.89174 0
M  V30 5502 H 543.664 -1.87265 2.67581 0
M  V30 5503 H 542.323 0.0160484 3.66596 0
M  V30 5504 H 541.971 -2.32998 4.45781 0
M  V30 5505 H 541.671 -1.15369 5.76163 0
M  V30 5506 H 543.195 -2.08583 5.73869 0
M  V30 5507 H 544.609 0.185589 5.73 0
M  V30 5508 H 543.006 0.952381 5.92494 0
M  V30 5509 H 544.076 1.48559 4.61582 0
M  V30 5510 N 545.419 -1.53889 0.339982 0
M  V30 5511 C 546.351 -2.22435 -0.55275 0
M  V30 5512 C 547.364 -1.22975 -1.06681 0
M  V30 5513 O 548.553 -1.49351 -0.977575 0
M  V30 5514 C 545.653 -2.8882 -1.77302 0
M  V30 5515 C 544.826 -4.14563 -1.39486 0
M  V30 5516 C 543.885 -4.64391 -2.47442 0
M  V30 5517 O 542.911 -5.28687 -2.10899 0
M  V30 5518 N 544.113 -4.40015 -3.78639 0
M  V30 5519 H 546.878 -2.9968 0.0342669 0
M  V30 5520 H 544.439 -1.61068 0.16394 0
M  V30 5521 H 546.431 -3.19072 -2.48948 0
M  V30 5522 H 545.001 -2.15182 -2.26749 0
M  V30 5523 H 544.221 -3.90896 -0.509321 0
M  V30 5524 H 545.509 -4.96362 -1.11813 0
M  V30 5525 H 544.907 -3.88586 -4.11118 0
M  V30 5526 H 543.464 -4.74881 -4.46465 0
M  V30 5527 N 546.897 -0.0685191 -1.57451 0
M  V30 5528 C 547.847 0.909895 -2.09057 0
M  V30 5529 C 548.831 1.26088 -0.999528 0
M  V30 5530 O 550.023 1.24041 -1.26265 0
M  V30 5531 C 547.152 2.17863 -2.65312 0
M  V30 5532 C 546.238 1.85427 -3.81415 0
M  V30 5533 N 546.629 1.23426 -4.9051 0
M  V30 5534 C 544.927 2.15196 -3.90649 0
M  V30 5535 C 545.628 1.09008 -5.71395 0
M  V30 5536 N 544.604 1.59871 -5.1956 0
M  V30 5537 H 548.406 0.426145 -2.90794 0
M  V30 5538 H 545.92 0.135462 -1.61834 0
M  V30 5539 H 547.917 2.88872 -3.00597 0
M  V30 5540 H 546.577 2.66829 -1.85021 0
M  V30 5541 H 547.588 0.904305 -5.09944 0
M  V30 5542 H 544.265 2.66562 -3.21327 0
M  V30 5543 H 545.655 0.607305 -6.6915 0
M  V30 5544 N 548.375 1.56261 0.205012 0
M  V30 5545 C 549.786 1.70056 0.770574 0
M  V30 5546 C 550.137 0.673398 1.84282 0
M  V30 5547 O 549.262 -0.172196 2.15714 0
M  V30 5548 C 549.857 3.08316 1.40451 0
M  V30 5549 C 548.416 3.2391 1.91727 0
M  V30 5550 C 547.563 2.66001 0.783516 0
M  V30 5551 H 550.514 1.58688 -0.019911 0
M  V30 5552 H 550.535 3.05094 2.27371 0
M  V30 5553 H 550.047 3.83053 0.623882 0
M  V30 5554 H 548.148 2.54072 2.7254 0
M  V30 5555 H 548.261 4.3131 2.08588 0
M  V30 5556 H 546.625 2.24915 1.19521 0
M  V30 5557 H 547.408 3.43297 0.0152883 0
M  V30 5558 N 549.853 -0.472356 1.50355 0
M  V30 5559 C 550.816 -1.5529 1.68576 0
M  V30 5560 C 551.816 -1.50863 0.556511 0
M  V30 5561 O 553.006 -1.53505 0.823516 0
M  V30 5562 C 550.138 -2.94921 1.70981 0
M  V30 5563 H 551.331 -1.40451 2.64978 0
M  V30 5564 H 548.884 -0.698645 1.39816 0
M  V30 5565 H 549.619 -3.15204 0.762675 0
M  V30 5566 H 549.404 -2.99541 2.53017 0
M  V30 5567 H 550.894 -3.73372 1.87037 0
M  V30 5568 N 551.331 -1.39911 -0.725443 0
M  V30 5569 C 552.579 -1.37382 -1.48224 0
M  V30 5570 C 552.9 0.0264107 -1.94982 0
M  V30 5571 O 552.17 0.979408 -1.6966 0
M  V30 5572 H 550.75 -0.505596 -0.549892 0
M  V30 5573 H 553.412 -1.7487 -0.860608 0
M  V30 5574 H 552.508 -2.04254 -2.3598 0
M  V30 5575 N 552.809 0.956637 -1.25245 0
M  V30 5576 C 554.058 1.69537 -1.0927 0
M  V30 5577 C 554.371 1.92136 0.366503 0
M  V30 5578 O 555.577 2.63687 0.64665 0
M  V30 5579 C 554.033 3.05211 -1.9072 0
M  V30 5580 C 553.641 2.90416 -3.41119 0
M  V30 5581 C 555.385 3.82882 -1.83308 0
M  V30 5582 C 553.292 4.21468 -4.14872 0
M  V30 5583 H 552.222 0.635804 -0.405302 0
M  V30 5584 H 554.873 1.06513 -1.49423 0
M  V30 5585 H 553.255 3.69128 -1.43389 0
M  V30 5586 H 554.429 2.35444 -3.9611 0
M  V30 5587 H 552.744 2.26203 -3.49602 0
M  V30 5588 H 555.341 4.79944 -2.35706 0
M  V30 5589 H 555.684 4.0853 -0.800572 0
M  V30 5590 H 556.217 3.25711 -2.28379 0
M  V30 5591 H 552.956 4.01009 -5.18529 0
M  V30 5592 H 552.476 4.76213 -3.64665 0
M  V30 5593 H 554.155 4.90022 -4.22478 0
M  V30 5594 N 554.287 1.06798 1.15896 0
M  V30 5595 C 555.197 0.694564 2.24083 0
M  V30 5596 C 556.213 -0.291687 1.71538 0
M  V30 5597 O 557.389 -0.139723 2.00915 0
M  V30 5598 C 554.454 0.0921014 3.46578 0
M  V30 5599 C 553.515 1.13087 4.14137 0
M  V30 5600 C 552.748 0.557064 5.30785 0
M  V30 5601 O 552.971 -0.628623 5.66925 0
M  V30 5602 O 551.905 1.29924 5.8771 0
M  V30 5603 H 555.731 1.59663 2.58344 0
M  V30 5604 H 553.316 0.840575 1.2351 0
M  V30 5605 H 555.198 -0.241884 4.20705 0
M  V30 5606 H 553.873 -0.78337 3.14078 0
M  V30 5607 H 552.78 1.51712 3.41957 0
M  V30 5608 H 554.113 1.97805 4.50704 0
M  V30 5609 N 555.766 -1.3263 0.851289 0
M  V30 5610 C 557.177 -1.79653 0.5081 0
M  V30 5611 C 557.528 -1.70327 -0.973815 0
M  V30 5612 O 556.653 -1.25986 -1.75944 0
M  V30 5613 C 557.248 -3.26196 0.915515 0
M  V30 5614 C 555.807 -3.71187 0.624277 0
M  V30 5615 C 554.954 -2.53804 1.11709 0
M  V30 5616 H 557.905 -1.19976 1.03882 0
M  V30 5617 H 557.926 -3.79801 0.230535 0
M  V30 5618 H 557.438 -3.32952 1.99411 0
M  V30 5619 H 555.539 -3.69948 -0.443737 0
M  V30 5620 H 555.652 -4.64132 1.18821 0
M  V30 5621 H 554.016 -2.48964 0.537484 0
M  V30 5622 H 554.799 -2.63315 2.20272 0
M  V30 5623 N 557.244 -0.608902 -1.45362 0
M  V30 5624 C 558.472 -0.111013 -2.06602 0
M  V30 5625 C 558.887 1.20516 -1.45332 0
M  V30 5626 O 558.244 1.73437 -0.567978 0
M  V30 5627 C 558.295 0.033688 -3.61484 0
M  V30 5628 O 558.016 -1.23041 -4.20467 0
M  V30 5629 C 559.517 0.562882 -4.39712 0
M  V30 5630 H 556.737 -0.0694453 -0.667397 0
M  V30 5631 H 559.281 -0.837008 -1.86586 0
M  V30 5632 H 557.436 0.710016 -3.80838 0
M  V30 5633 H 557.85 -1.06094 -5.13658 0
M  V30 5634 H 559.324 0.613213 -5.48583 0
M  V30 5635 H 559.801 1.58543 -4.09586 0
M  V30 5636 H 560.407 -0.0794454 -4.25226 0
M  V30 5637 N 558.722 1.53707 -0.348139 0
M  V30 5638 C 560.133 1.86213 0.134797 0
M  V30 5639 C 560.484 1.26925 1.49614 0
M  V30 5640 O 559.609 0.584573 2.08355 0
M  V30 5641 C 560.204 3.37866 0.251371 0
M  V30 5642 C 558.763 3.70233 0.678543 0
M  V30 5643 C 557.91 2.76683 -0.184925 0
M  V30 5644 H 560.861 1.48204 -0.567571 0
M  V30 5645 H 560.882 3.64908 1.07806 0
M  V30 5646 H 560.394 3.80988 -0.739581 0
M  V30 5647 H 558.495 3.32659 1.67835 0
M  V30 5648 H 558.608 4.76836 0.465251 0
M  V30 5649 H 556.972 2.52374 0.343465 0
M  V30 5650 H 557.755 3.22635 -1.1731 0
M  V30 5651 N 560.2 0.0768682 1.57412 0
M  V30 5652 C 561.428 -0.59997 1.9801 0
M  V30 5653 C 561.843 -1.62842 0.955408 0
M  V30 5654 O 561.2 -1.8241 -0.057314 0
M  V30 5655 C 561.251 -1.26401 3.38681 0
M  V30 5656 O 560.972 -0.276723 4.37225 0
M  V30 5657 C 562.473 -2.0282 3.94182 0
M  V30 5658 H 559.693 -0.162239 0.651091 0
M  V30 5659 H 562.237 0.150771 2.03943 0
M  V30 5660 H 560.392 -1.96581 3.33819 0
M  V30 5661 H 560.806 -0.753744 5.19056 0
M  V30 5662 H 562.28 -2.44667 4.94815 0
M  V30 5663 H 562.757 -2.88678 3.31001 0
M  V30 5664 H 563.363 -1.37496 4.02461 0
M  V30 5665 N 561.678 -1.56367 -0.196722 0
M  V30 5666 C 562.608 -1.97442 -1.24655 0
M  V30 5667 C 563.589 -0.846147 -1.47561 0
M  V30 5668 O 564.774 -1.11035 -1.59326 0
M  V30 5669 C 561.904 -2.31253 -2.59112 0
M  V30 5670 C 560.858 -3.46804 -2.50821 0
M  V30 5671 C 560.184 -3.66286 -3.89536 0
M  V30 5672 C 561.484 -4.8104 -2.03465 0
M  V30 5673 H 563.178 -2.85388 -0.905216 0
M  V30 5674 H 560.724 -1.37304 -0.434002 0
M  V30 5675 H 562.677 -2.58583 -3.32736 0
M  V30 5676 H 561.401 -1.40188 -2.94983 0
M  V30 5677 H 560.06 -3.19563 -1.79653 0
M  V30 5678 H 559.708 -2.72555 -4.22756 0
M  V30 5679 H 559.408 -4.4402 -3.84864 0
M  V30 5680 H 560.932 -3.9599 -4.64784 0
M  V30 5681 H 562.346 -5.07411 -2.66846 0
M  V30 5682 H 560.743 -5.62232 -2.09798 0
M  V30 5683 H 561.813 -4.74732 -0.98781 0
M  V30 5684 N 563.156 0.464375 -1.50603 0
M  V30 5685 C 564.384 1.23907 -1.65695 0
M  V30 5686 C 564.799 1.85658 -0.343027 0
M  V30 5687 O 564.156 1.69529 0.675739 0
M  V30 5688 C 564.207 2.3429 -2.75301 0
M  V30 5689 O 563.928 1.7507 -4.01599 0
M  V30 5690 C 565.429 3.25051 -3.01424 0
M  V30 5691 H 562.649 0.374485 -0.556778 0
M  V30 5692 H 565.193 0.55353 -1.96866 0
M  V30 5693 H 563.348 2.98607 -2.46804 0
M  V30 5694 H 563.762 2.47812 -4.62266 0
M  V30 5695 H 565.236 3.98699 -3.81763 0
M  V30 5696 H 565.713 3.84227 -2.12758 0
M  V30 5697 H 566.319 2.66463 -3.31477 0
M  V30 5698 N 564.634 1.40294 0.718013 0
M  V30 5699 C 565.564 1.43118 1.84498 0
M  V30 5700 C 566.545 0.292403 1.67568 0
M  V30 5701 O 567.73 0.500675 1.87635 0
M  V30 5702 C 564.86 1.29065 3.22427 0
M  V30 5703 C 563.814 2.40521 3.54025 0
M  V30 5704 C 563.14 2.11546 4.91073 0
M  V30 5705 C 564.44 3.82859 3.55269 0
M  V30 5706 H 566.134 2.37432 1.82391 0
M  V30 5707 H 563.68 1.14283 0.87609 0
M  V30 5708 H 565.633 1.29658 4.00957 0
M  V30 5709 H 564.357 0.312271 3.25104 0
M  V30 5710 H 563.016 2.39173 2.77834 0
M  V30 5711 H 562.664 1.12104 4.90348 0
M  V30 5712 H 562.364 2.86216 5.1318 0
M  V30 5713 H 563.888 2.13817 5.71939 0
M  V30 5714 H 565.302 3.86044 4.23843 0
M  V30 5715 H 563.699 4.57029 3.88902 0
M  V30 5716 H 564.769 4.12617 2.54706 0
M  V30 5717 N 566.112 -0.949982 1.2575 0
M  V30 5718 C 567.34 -1.72972 1.13527 0
M  V30 5719 C 567.755 -1.8623 -0.310453 0
M  V30 5720 O 567.112 -1.36336 -1.2132 0
M  V30 5721 C 567.163 -3.14108 1.78936 0
M  V30 5722 O 566.884 -3.01493 3.17858 0
M  V30 5723 C 568.385 -4.08338 1.72554 0
M  V30 5724 H 565.605 -0.541864 0.395758 0
M  V30 5725 H 568.149 -1.19151 1.66202 0
M  V30 5726 H 566.304 -3.64858 1.30221 0
M  V30 5727 H 566.718 -3.90559 3.50092 0
M  V30 5728 H 568.192 -5.04963 2.22973 0
M  V30 5729 H 568.669 -4.33742 0.690251 0
M  V30 5730 H 569.275 -3.63506 2.2078 0
M  V30 5731 N 567.59 -1.07411 -1.15328 0
M  V30 5732 C 568.838 -0.796073 -1.85761 0
M  V30 5733 C 569.159 0.679864 -1.82764 0
M  V30 5734 O 568.429 1.49242 -1.269 0
M  V30 5735 H 567.009 -0.291495 -0.687779 0
M  V30 5736 H 569.671 -1.35799 -1.39802 0
M  V30 5737 H 568.767 -1.13114 -2.90881 0
M  V30 5738 N 569.068 1.32177 -0.85831 0
M  V30 5739 C 570.018 2.26307 -0.277307 0
M  V30 5740 C 571.002 1.50123 0.578946 0
M  V30 5741 O 572.194 1.71754 0.427731 0
M  V30 5742 C 569.323 3.39181 0.530232 0
M  V30 5743 C 568.409 4.22746 -0.338613 0
M  V30 5744 N 568.8 4.85265 -1.4266 0
M  V30 5745 C 567.098 4.45813 -0.129 0
M  V30 5746 C 567.799 5.47634 -1.96142 0
M  V30 5747 N 566.775 5.28794 -1.26007 0
M  V30 5748 H 570.577 2.72173 -1.10902 0
M  V30 5749 H 568.091 1.46308 -0.704816 0
M  V30 5750 H 570.088 4.05628 0.962904 0
M  V30 5751 H 568.748 2.9486 1.35969 0
M  V30 5752 H 569.759 4.85259 -1.80953 0
M  V30 5753 H 566.436 4.12163 0.665451 0
M  V30 5754 H 567.826 6.0735 -2.8736 0
M  V30 5755 N 570.547 0.616602 1.45037 0
M  V30 5756 C 571.824 0.0469086 1.95544 0
M  V30 5757 C 572.204 -1.42345 1.55888 0
M  V30 5758 O 571.552 -2.13055 0.825824 0
M  V30 5759 C 571.762 0.254489 3.48071 0
M  V30 5760 C 573.11 0.140025 4.24369 0
M  V30 5761 O 574.134 0.185084 3.55719 0
M  V30 5762 O 572.993 0.0327034 5.4649 0
M  V30 5763 H 570.087 -0.0306051 0.826433 0
M  V30 5764 H 572.633 0.687293 1.55159 0
M  V30 5765 H 571.405 1.27532 3.69934 0
M  V30 5766 H 571.028 -0.42073 3.95368 0
M  V30 5767 N 572.025 -1.5352 0.356285 0
M  V30 5768 C 572.935 -2.29151 -0.502712 0
M  V30 5769 C 573.951 -1.34753 -1.1008 0
M  V30 5770 O 575.127 -1.67803 -1.11374 0
M  V30 5771 C 572.192 -3.05911 -1.63154 0
M  V30 5772 C 571.253 -4.15958 -1.06194 0
M  V30 5773 C 570.486 -4.8905 -2.13696 0
M  V30 5774 O 570.709 -4.61919 -3.34645 0
M  V30 5775 O 569.643 -5.75202 -1.77275 0
M  V30 5776 H 573.469 -3.03492 0.112466 0
M  V30 5777 H 571.054 -1.4891 0.120942 0
M  V30 5778 H 572.936 -3.53874 -2.28804 0
M  V30 5779 H 571.611 -2.34415 -2.23229 0
M  V30 5780 H 570.518 -3.7227 -0.369603 0
M  V30 5781 H 571.851 -4.89593 -0.505872 0
M  V30 5782 N 573.503 -0.0852151 -1.57369 0
M  V30 5783 C 574.75 0.580806 -1.93992 0
M  V30 5784 C 575.078 1.68801 -0.966252 0
M  V30 5785 O 574.333 1.95694 0.0158649 0
M  V30 5786 C 574.632 1.18482 -3.3719 0
M  V30 5787 C 574.298 0.2024 -4.50446 0
M  V30 5788 C 572.96 -0.0678318 -4.81152 0
M  V30 5789 C 575.312 -0.46895 -5.19086 0
M  V30 5790 C 572.64 -1.01627 -5.77831 0
M  V30 5791 C 574.992 -1.4058 -6.16782 0
M  V30 5792 C 573.656 -1.68436 -6.45899 0
M  V30 5793 H 572.926 0.212532 -0.709867 0
M  V30 5794 H 575.573 -0.158947 -1.90839 0
M  V30 5795 H 573.878 2.0006 -3.36873 0
M  V30 5796 H 575.575 1.70767 -3.62822 0
M  V30 5797 H 572.165 0.423208 -4.26505 0
M  V30 5798 H 576.349 -0.273307 -4.95547 0
M  V30 5799 H 571.605 -1.2392 -5.9871 0
M  V30 5800 H 575.779 -1.93188 -6.69068 0
M  V30 5801 H 573.406 -2.42088 -7.20623 0
M  V30 5802 N 574.981 1.5647 0.188427 0
M  V30 5803 C 576.229 1.80655 0.905986 0
M  V30 5804 C 576.55 0.659391 1.83513 0
M  V30 5805 O 575.82 -0.321868 1.93238 0
M  V30 5806 H 574.4 0.666391 0.337538 0
M  V30 5807 H 577.062 1.93949 0.192339 0
M  V30 5808 H 576.158 2.74066 1.49313 0
M  V30 5809 N 576.459 -0.456382 1.50847 0
M  V30 5810 C 577.875 -0.791345 1.386 0
M  V30 5811 C 578.075 -1.9633 0.453498 0
M  V30 5812 O 577.131 -2.52308 -0.0984353 0
M  V30 5813 C 578.444 -1.08959 2.80265 0
M  V30 5814 C 579.992 -1.19517 2.89283 0
M  V30 5815 C 580.467 -1.52647 4.31814 0
M  V30 5816 N 581.958 -1.59609 4.34832 0
M  V30 5817 C 582.693 -1.86777 5.42127 0
M  V30 5818 N 582.189 -2.11866 6.59609 0
M  V30 5819 N 583.982 -1.88402 5.29586 0
M  V30 5820 H 576.133 0.315746 2.1004 0
M  V30 5821 H 578.396 0.0787916 0.94472 0
M  V30 5822 H 578.102 -0.301355 3.50407 0
M  V30 5823 H 577.976 -2.02211 3.18419 0
M  V30 5824 H 580.363 -1.97406 2.19351 0
M  V30 5825 H 580.444 -0.242111 2.54652 0
M  V30 5826 H 580.088 -0.752922 5.02288 0
M  V30 5827 H 580.018 -2.49127 4.63943 0
M  V30 5828 H 582.509 -1.42201 3.50125 0
M  V30 5829 H 582.822 -2.31912 7.37182 0
M  V30 5830 H 581.167 -2.09228 6.62758 0
M  V30 5831 H 584.358 -1.68307 4.36795 0
M  V30 5832 H 584.531 -2.09238 6.13289 0
M  V30 5833 N 577.937 -1.40673 -0.710563 0
M  V30 5834 C 579.184 -1.39222 -1.47049 0
M  V30 5835 C 579.512 0.0037691 -1.945 0
M  V30 5836 O 578.767 0.989224 -1.68857 0
M  V30 5837 C 579.066 -2.33253 -2.70791 0
M  V30 5838 C 578.732 -3.80406 -2.42079 0
M  V30 5839 C 577.394 -4.20496 -2.33959 0
M  V30 5840 C 579.746 -4.73375 -2.18094 0
M  V30 5841 C 577.074 -5.51584 -1.99929 0
M  V30 5842 C 579.426 -6.04768 -1.85576 0
M  V30 5843 C 578.09 -6.43895 -1.75941 0
M  V30 5844 H 577.36 -0.509449 -0.538092 0
M  V30 5845 H 580.007 -1.73363 -0.81348 0
M  V30 5846 H 578.312 -1.92314 -3.41354 0
M  V30 5847 H 580.009 -2.29412 -3.28894 0
M  V30 5848 H 576.599 -3.48645 -2.49288 0
M  V30 5849 H 580.783 -4.43217 -2.23321 0
M  V30 5850 H 576.039 -5.80797 -1.91011 0
M  V30 5851 H 580.213 -6.76318 -1.66033 0
M  V30 5852 H 577.84 -7.45387 -1.4934 0
M  V30 5853 N 579.415 0.9433 -1.26252 0
M  V30 5854 C 580.663 1.68592 -1.11451 0
M  V30 5855 C 580.984 1.91957 0.343123 0
M  V30 5856 O 580.254 1.51475 1.24226 0
M  V30 5857 H 578.834 0.624789 -0.409448 0
M  V30 5858 H 581.496 1.13351 -1.58548 0
M  V30 5859 H 580.592 2.66054 -1.63162 0
M  V30 5860 N 580.893 1.08022 1.14757 0
M  V30 5861 C 582.118 0.82895 1.90114 0
M  V30 5862 C 582.543 -0.612772 1.77839 0
M  V30 5863 O 581.901 -1.42895 1.11583 0
M  V30 5864 C 581.949 1.25062 3.38219 0
M  V30 5865 O 581.053 0.400119 4.10454 0
M  V30 5866 H 580.394 0.301412 0.591648 0
M  V30 5867 H 582.924 1.44062 1.45284 0
M  V30 5868 H 582.934 1.22977 3.89025 0
M  V30 5869 H 581.609 2.30067 3.46471 0
M  V30 5870 H 580.186 0.484052 3.69745 0
M  V30 5871 N 582.371 -1.3172 0.865308 0
M  V30 5872 C 583.596 -2.01591 0.487415 0
M  V30 5873 C 584.021 -1.6455 -0.911307 0
M  V30 5874 O 583.379 -0.851689 -1.6005 0
M  V30 5875 C 583.427 -3.54759 0.646401 0
M  V30 5876 O 582.531 -4.11185 -0.316284 0
M  V30 5877 H 581.872 -0.634884 0.194468 0
M  V30 5878 H 584.402 -1.68024 1.16744 0
M  V30 5879 H 584.412 -4.04438 0.537932 0
M  V30 5880 H 583.087 -3.8106 1.66632 0
M  V30 5881 H 581.664 -3.72543 -0.163162 0
M  V30 5882 N 583.85 -0.624285 -1.44708 0
M  V30 5883 C 584.779 0.0717025 -2.3339 0
M  V30 5884 C 585.76 0.841814 -1.47809 0
M  V30 5885 O 586.946 0.809056 -1.76544 0
M  V30 5886 C 584.076 1.05852 -3.30776 0
M  V30 5887 C 583.029 0.400503 -4.26122 0
M  V30 5888 C 582.356 1.49674 -5.13324 0
M  V30 5889 C 583.656 -0.688924 -5.17737 0
M  V30 5890 H 585.35 -0.668819 -2.91834 0
M  V30 5891 H 582.896 -0.32308 -1.40329 0
M  V30 5892 H 584.849 1.5541 -3.91696 0
M  V30 5893 H 583.572 1.82984 -2.70526 0
M  V30 5894 H 582.231 -0.0743687 -3.66525 0
M  V30 5895 H 581.88 2.25877 -4.49431 0
M  V30 5896 H 581.58 1.06188 -5.77926 0
M  V30 5897 H 583.104 1.99427 -5.77115 0
M  V30 5898 H 584.518 -0.276724 -5.72632 0
M  V30 5899 H 582.915 -1.04652 -5.90904 0
M  V30 5900 H 583.985 -1.55884 -4.5916 0
M  V30 5901 N 585.328 1.53329 -0.364422 0
M  V30 5902 C 586.556 2.05657 0.226424 0
M  V30 5903 C 586.971 1.23801 1.42544 0
M  V30 5904 O 586.328 0.27839 1.80364 0
M  V30 5905 C 586.379 3.56125 0.621056 0
M  V30 5906 O 586.1 4.34879 -0.530304 0
M  V30 5907 C 587.601 4.24706 1.27041 0
M  V30 5908 H 584.821 0.669806 0.0400056 0
M  V30 5909 H 587.365 1.97714 -0.522456 0
M  V30 5910 H 585.52 3.64223 1.31985 0
M  V30 5911 H 585.934 5.24073 -0.211546 0
M  V30 5912 H 587.408 5.3131 1.49711 0
M  V30 5913 H 587.885 3.78354 2.23036 0
M  V30 5914 H 588.491 4.20858 0.613079 0
M  V30 5915 N 586.806 0.0935595 1.57322 0
M  V30 5916 C 588.217 -0.435807 1.81542 0
M  V30 5917 C 588.568 -1.68263 1.00907 0
M  V30 5918 O 587.693 -2.15087 0.237983 0
M  V30 5919 C 588.288 -0.797436 3.29282 0
M  V30 5920 C 586.847 -1.27155 3.54272 0
M  V30 5921 C 585.994 -0.267455 2.76007 0
M  V30 5922 H 588.945 0.31902 1.5546 0
M  V30 5923 H 588.966 -1.6571 3.42521 0
M  V30 5924 H 588.478 0.110206 3.87943 0
M  V30 5925 H 586.579 -2.19696 3.00939 0
M  V30 5926 H 586.692 -1.23445 4.62923 0
M  V30 5927 H 585.056 -0.749282 2.43429 0
M  V30 5928 H 585.839 0.632839 3.37417 0
M  V30 5929 N 588.284 -1.56567 -0.180126 0
M  V30 5930 C 589.214 -1.98753 -1.22553 0
M  V30 5931 C 590.195 -0.86175 -1.46656 0
M  V30 5932 O 591.38 -1.12719 -1.58139 0
M  V30 5933 C 588.51 -2.33988 -2.56645 0
M  V30 5934 C 587.464 -3.49445 -2.47128 0
M  V30 5935 C 586.79 -3.70397 -3.8563 0
M  V30 5936 C 588.09 -4.83171 -1.98352 0
M  V30 5937 H 589.784 -2.86332 -0.874896 0
M  V30 5938 H 587.33 -1.37757 -0.419414 0
M  V30 5939 H 589.283 -2.62097 -3.29974 0
M  V30 5940 H 588.007 -1.43309 -2.93479 0
M  V30 5941 H 586.666 -3.2145 -1.76254 0
M  V30 5942 H 586.314 -2.77023 -4.19842 0
M  V30 5943 H 586.014 -4.48077 -3.80132 0
M  V30 5944 H 587.538 -4.00897 -4.60558 0
M  V30 5945 H 588.952 -5.10213 -2.61449 0
M  V30 5946 H 587.349 -5.64425 -2.03823 0
M  V30 5947 H 588.419 -4.75753 -0.937402 0
M  V30 5948 N 589.762 0.448376 -1.51087 0
M  V30 5949 C 591.01 1.19635 -1.62886 0
M  V30 5950 C 591.331 1.91977 -0.342024 0
M  V30 5951 O 590.601 1.85094 0.641636 0
M  V30 5952 H 589.181 0.444598 -0.600285 0
M  V30 5953 H 591.843 0.515138 -1.87969 0
M  V30 5954 H 590.939 1.93194 -2.45117 0
M  V30 5955 N 591.24 1.41047 0.703093 0
M  V30 5956 C 592.517 1.30493 1.45708 0
M  V30 5957 C 592.897 -0.0709892 2.10981 0
M  V30 5958 O 592.245 -1.08471 2.01113 0
M  V30 5959 C 592.455 2.45287 2.48265 0
M  V30 5960 C 593.803 2.86104 3.13735 0
M  V30 5961 O 594.827 2.44971 2.58587 0
M  V30 5962 O 593.686 3.57206 4.13601 0
M  V30 5963 H 590.78 0.513144 0.648546 0
M  V30 5964 H 593.326 1.52995 0.734208 0
M  V30 5965 H 592.098 3.37135 1.98635 0
M  V30 5966 H 591.721 2.24622 3.28071 0
M  V30 5967 N 592.718 -0.936591 1.26751 0
M  V30 5968 C 593.648 -2.05315 1.11212 0
M  V30 5969 C 594.629 -1.70092 0.0160262 0
M  V30 5970 O 595.814 -1.93279 0.188894 0
M  V30 5971 C 592.944 -3.39123 0.749171 0
M  V30 5972 C 591.898 -3.88425 1.79751 0
M  V30 5973 C 591.224 -5.18936 1.28876 0
M  V30 5974 C 592.524 -4.12798 3.19992 0
M  V30 5975 H 594.218 -2.18573 2.04613 0
M  V30 5976 H 591.764 -1.05027 0.985159 0
M  V30 5977 H 593.717 -4.16704 0.627323 0
M  V30 5978 H 592.441 -3.25855 -0.220543 0
M  V30 5979 H 591.1 -3.13028 1.90811 0
M  V30 5980 H 590.748 -5.02051 0.308757 0
M  V30 5981 H 590.448 -5.52892 1.98958 0
M  V30 5982 H 591.972 -5.99096 1.17967 0
M  V30 5983 H 593.386 -4.80977 3.11983 0
M  V30 5984 H 591.783 -4.58044 3.87705 0
M  V30 5985 H 592.853 -3.18412 3.65707 0
M  V30 5986 N 594.196 -1.08629 -1.14182 0
M  V30 5987 C 595.473 -0.73002 -1.81466 0
M  V30 5988 C 595.853 0.785996 -1.95922 0
M  V30 5989 O 595.201 1.70535 -1.52086 0
M  V30 5990 C 595.411 -1.45957 -3.17014 0
M  V30 5991 C 596.759 -1.62008 -3.92477 0
M  V30 5992 O 597.783 -1.42141 -3.26611 0
M  V30 5993 O 596.642 -1.94806 -5.106 0
M  V30 5994 H 593.736 -0.261307 -0.784632 0
M  V30 5995 H 596.282 -1.188 -1.2118 0
M  V30 5996 H 595.054 -2.49221 -3.01669 0
M  V30 5997 H 594.677 -0.993222 -3.84995 0
M  V30 5998 N 595.674 1.31259 -0.872281 0
M  V30 5999 C 596.606 2.27396 -0.28697 0
M  V30 6000 C 597.619 1.53181 0.551297 0
M  V30 6001 O 598.808 1.74561 0.372914 0
M  V30 6002 C 595.908 3.33335 0.611617 0
M  V30 6003 C 595.081 4.36966 -0.194729 0
M  V30 6004 C 594.14 5.22387 0.632358 0
M  V30 6005 O 593.166 5.69169 0.0595691 0
M  V30 6006 N 594.368 5.46985 1.94391 0
M  V30 6007 H 597.133 2.78261 -1.11314 0
M  V30 6008 H 594.694 1.44306 -0.733994 0
M  V30 6009 H 596.686 3.87398 1.17068 0
M  V30 6010 H 595.256 2.82496 1.33846 0
M  V30 6011 H 594.476 3.82945 -0.935241 0
M  V30 6012 H 595.764 5.03273 -0.747935 0
M  V30 6013 H 595.162 5.10737 2.43237 0
M  V30 6014 H 593.719 6.03973 2.45071 0
M  V30 6015 N 597.152 0.631951 1.44375 0
M  V30 6016 C 598.429 0.067646 1.95483 0
M  V30 6017 C 598.809 -1.40683 1.57389 0
M  V30 6018 O 598.157 -2.12167 0.848375 0
M  V30 6019 C 598.367 0.291392 3.47781 0
M  V30 6020 C 599.715 0.185028 4.24197 0
M  V30 6021 O 600.739 0.222803 3.55503 0
M  V30 6022 O 599.598 0.0906642 5.46425 0
M  V30 6023 H 596.692 -0.0218379 0.826712 0
M  V30 6024 H 599.238 0.703711 1.54421 0
M  V30 6025 H 598.01 1.31449 3.68561 0
M  V30 6026 H 597.633 -0.378772 3.95792 0
M  V30 6027 N 598.631 -1.53133 0.372548 0
M  V30 6028 C 599.879 -2.00958 -0.214534 0
M  V30 6029 C 600.2 -1.26135 -1.48711 0
M  V30 6030 O 599.47 -0.376597 -1.92246 0
M  V30 6031 H 598.05 -0.742456 -0.0822664 0
M  V30 6032 H 600.712 -1.88367 0.500385 0
M  V30 6033 H 599.808 -3.09031 -0.436605 0
M  V30 6034 N 600.109 -0.101901 -1.5727 0
M  V30 6035 C 601.339 0.567568 -1.98651 0
M  V30 6036 C 601.747 1.61839 -0.980037 0
M  V30 6037 O 601.09 1.83661 0.0376564 0
M  V30 6038 C 601.152 1.26742 -3.36417 0
M  V30 6039 C 600.816 0.366561 -4.55528 0
M  V30 6040 C 601.813 -0.388022 -5.1845 0
M  V30 6041 C 599.498 0.282629 -5.01504 0
M  V30 6042 C 601.492 -1.21445 -6.25724 0
M  V30 6043 C 599.179 -0.547443 -6.08643 0
M  V30 6044 C 600.177 -1.29462 -6.70618 0
M  V30 6045 O 599.865 -2.11095 -7.7569 0
M  V30 6046 H 599.597 0.156282 -0.657687 0
M  V30 6047 H 602.151 -0.179912 -2.04611 0
M  V30 6048 H 600.381 2.06162 -3.27161 0
M  V30 6049 H 602.07 1.8321 -3.622 0
M  V30 6050 H 602.836 -0.332949 -4.83856 0
M  V30 6051 H 598.715 0.853868 -4.53023 0
M  V30 6052 H 602.259 -1.79814 -6.74027 0
M  V30 6053 H 598.156 -0.603971 -6.42668 0
M  V30 6054 H 598.924 -2.03851 -7.92709 0
M  V30 6055 N 601.587 1.56661 0.17182 0
M  V30 6056 C 602.535 1.97289 1.23207 0
M  V30 6057 C 603.529 0.861566 1.45854 0
M  V30 6058 O 604.735 1.04668 1.4644 0
M  V30 6059 H 601.11 0.627681 0.41415 0
M  V30 6060 H 603.081 2.85662 0.862542 0
M  V30 6061 C 601.83 2.34849 2.564 0
M  V30 6062 H 601.153 3.19903 2.39797 0
M  V30 6063 H 602.593 2.67121 3.29276 0
M  V30 6064 C 601.052 1.19172 3.15119 0
M  V30 6065 O 601.582 0.479113 3.98833 0
M  V30 6066 N 599.788 0.962415 2.74201 0
M  V30 6067 H 599.335 1.54365 2.06226 0
M  V30 6068 H 599.293 0.190272 3.13824 0
M  V30 6069 N 603.065 -0.440357 1.51323 0
M  V30 6070 C 604.342 -1.20109 1.5438 0
M  V30 6071 C 604.722 -2.08866 0.306303 0
M  V30 6072 O 604.07 -2.1723 -0.708773 0
M  V30 6073 C 604.28 -2.00555 2.8562 0
M  V30 6074 C 605.628 -2.577 3.37455 0
M  V30 6075 O 606.652 -2.10769 2.8715 0
M  V30 6076 O 605.511 -3.43289 4.25224 0
M  V30 6077 H 602.605 -0.546668 0.620551 0
M  V30 6078 H 605.151 -0.449672 1.63634 0
M  V30 6079 H 603.923 -1.35346 3.67147 0
M  V30 6080 H 603.546 -2.82768 2.79514 0
M  V30 6081 N 604.543 -1.41418 -0.695603 0
M  V30 6082 C 605.789 -1.40982 -1.4578 0
M  V30 6083 C 606.122 -0.0187763 -1.94191 0
M  V30 6084 O 605.397 0.95346 -1.69527 0
M  V30 6085 C 605.68 -2.41657 -2.66972 0
M  V30 6086 C 605.533 -3.89869 -2.24327 0
M  V30 6087 C 606.852 -2.39589 -3.69168 0
M  V30 6088 H 603.971 -0.513405 -0.528757 0
M  V30 6089 H 606.613 -1.72693 -0.792275 0
M  V30 6090 H 604.763 -2.14746 -3.23754 0
M  V30 6091 H 606.435 -4.27683 -1.72872 0
M  V30 6092 H 604.678 -4.04737 -1.56111 0
M  V30 6093 H 605.349 -4.55857 -3.11285 0
M  V30 6094 H 607.825 -2.63471 -3.2206 0
M  V30 6095 H 606.701 -3.12044 -4.51575 0
M  V30 6096 H 606.962 -1.41447 -4.18862 0
M  V30 6097 N 606.021 0.929856 -1.27246 0
M  V30 6098 C 606.984 2.01172 -1.09829 0
M  V30 6099 C 607.984 1.60743 -0.0429687 0
M  V30 6100 O 609.174 1.71813 -0.287373 0
M  V30 6101 C 606.306 3.34191 -0.673003 0
M  V30 6102 H 607.499 2.18054 -2.05895 0
M  V30 6103 H 605.052 1.11036 -1.10003 0
M  V30 6104 H 605.787 3.23009 0.289134 0
M  V30 6105 H 605.572 3.64892 -1.43515 0
M  V30 6106 H 607.062 4.13646 -0.573323 0
M  V30 6107 N 607.499 1.09233 1.13605 0
M  V30 6108 C 608.748 0.82205 1.84188 0
M  V30 6109 C 609.061 -0.654548 1.84323 0
M  V30 6110 O 610.267 -1.04029 2.50779 0
M  V30 6111 C 608.723 1.42066 3.30674 0
M  V30 6112 C 608.331 2.92965 3.38933 0
M  V30 6113 C 610.075 1.22924 4.06313 0
M  V30 6114 C 607.982 3.45922 4.79679 0
M  V30 6115 H 606.912 0.303854 0.690064 0
M  V30 6116 H 609.563 1.31479 1.28006 0
M  V30 6117 H 607.945 0.855613 3.86646 0
M  V30 6118 H 609.119 3.55679 2.92966 0
M  V30 6119 H 607.434 3.11118 2.76757 0
M  V30 6120 H 610.031 1.59945 5.10217 0
M  V30 6121 H 610.374 0.169726 4.15954 0
M  V30 6122 H 610.907 1.76168 3.56665 0
M  V30 6123 H 607.646 4.51484 4.75229 0
M  V30 6124 H 607.166 2.87971 5.26149 0
M  V30 6125 H 608.845 3.43009 5.48592 0
M  V30 6126 N 608.977 -1.30795 0.87923 0
M  V30 6127 C 610.225 -1.95974 0.493809 0
M  V30 6128 C 610.546 -1.69787 -0.959021 0
M  V30 6129 O 609.816 -1.01832 -1.67353 0
M  V30 6130 H 608.396 -0.725083 0.179622 0
M  V30 6131 H 611.058 -1.59432 1.12105 0
M  V30 6132 H 610.154 -3.05058 0.659263 0
M  V30 6133 N 610.455 -0.639598 -1.44038 0
M  V30 6134 C 611.418 0.0506628 -2.29144 0
M  V30 6135 C 612.418 0.764001 -1.41491 0
M  V30 6136 O 613.608 0.607309 -1.63271 0
M  V30 6137 C 610.74 1.0824 -3.2326 0
M  V30 6138 H 611.933 -0.697987 -2.91664 0
M  V30 6139 H 609.486 -0.400146 -1.51091 0
M  V30 6140 H 610.221 1.86075 -2.65606 0
M  V30 6141 H 610.006 0.574725 -3.87865 0
M  V30 6142 H 611.496 1.56487 -3.87171 0
M  V30 6143 N 611.933 1.52934 -0.380664 0
M  V30 6144 C 613.344 1.86457 0.0952684 0
M  V30 6145 C 613.695 1.3007 1.46889 0
M  V30 6146 O 612.82 0.628636 2.07068 0
M  V30 6147 C 613.415 3.38323 0.179648 0
M  V30 6148 C 611.974 3.71589 0.599858 0
M  V30 6149 C 611.121 2.76228 -0.243572 0
M  V30 6150 H 614.072 1.46966 -0.59888 0
M  V30 6151 H 614.093 3.67113 1.00042 0
M  V30 6152 H 613.605 3.79333 -0.820228 0
M  V30 6153 H 611.706 3.36144 1.60742 0
M  V30 6154 H 611.819 4.77715 0.364003 0
M  V30 6155 H 610.183 2.53045 0.289855 0
M  V30 6156 H 610.966 3.20074 -1.24127 0
M  V30 6157 N 613.412 0.11024 1.57214 0
M  V30 6158 C 614.659 -0.54987 1.94891 0
M  V30 6159 C 614.987 -1.67243 0.992984 0
M  V30 6160 O 614.242 -1.95694 0.0152703 0
M  V30 6161 C 614.541 -1.13102 3.39032 0
M  V30 6162 C 614.207 -0.130713 4.5071 0
M  V30 6163 C 612.869 0.14437 4.80983 0
M  V30 6164 C 615.221 0.551472 5.18274 0
M  V30 6165 C 612.549 1.10807 5.76141 0
M  V30 6166 C 614.901 1.50375 6.14467 0
M  V30 6167 C 613.565 1.78691 6.43138 0
M  V30 6168 H 612.835 -0.201212 0.713158 0
M  V30 6169 H 615.482 0.189288 1.90562 0
M  V30 6170 H 613.787 -1.94675 3.40013 0
M  V30 6171 H 615.484 -1.64973 3.65493 0
M  V30 6172 H 612.074 -0.355301 4.27125 0
M  V30 6173 H 616.258 0.35211 4.95049 0
M  V30 6174 H 611.514 1.3343 5.96663 0
M  V30 6175 H 615.688 2.03808 6.65909 0
M  V30 6176 H 613.315 2.53522 7.1668 0
M  V30 6177 N 614.89 -1.56749 -0.16351 0
M  V30 6178 C 616.138 -1.82074 -0.87713 0
M  V30 6179 C 616.459 -0.688503 -1.82441 0
M  V30 6180 O 615.729 0.291085 -1.93725 0
M  V30 6181 H 614.309 -0.671677 -0.326893 0
M  V30 6182 H 616.971 -1.9423 -0.161459 0
M  V30 6183 H 616.067 -2.76407 -1.44934 0
M  V30 6184 N 616.368 0.432326 -1.51554 0
M  V30 6185 C 617.616 1.17901 -1.64146 0
M  V30 6186 C 617.937 1.91604 -0.362367 0
M  V30 6187 O 617.207 1.85764 0.621968 0
M  V30 6188 H 615.787 0.438206 -0.604966 0
M  V30 6189 H 618.449 0.495172 -1.88505 0
M  V30 6190 H 617.545 1.90584 -2.47152 0
M  V30 6191 N 617.846 1.41785 0.688094 0
M  V30 6192 C 618.756 1.46596 1.83158 0
M  V30 6193 C 619.772 0.355862 1.70322 0
M  V30 6194 O 620.948 0.604737 1.92106 0
M  V30 6195 C 618.013 1.35322 3.192 0
M  V30 6196 C 617.074 2.56711 3.4409 0
M  V30 6197 C 616.307 2.45965 4.73642 0
M  V30 6198 O 616.53 1.48827 5.50642 0
M  V30 6199 O 615.464 3.35859 4.99482 0
M  V30 6200 H 619.29 2.43083 1.82056 0
M  V30 6201 H 616.875 1.23404 0.842126 0
M  V30 6202 H 618.757 1.31347 4.00407 0
M  V30 6203 H 617.432 0.419536 3.2097 0
M  V30 6204 H 616.339 2.66262 2.62784 0
M  V30 6205 H 617.672 3.48933 3.47141 0
M  V30 6206 N 619.324 -0.923095 1.27737 0
M  V30 6207 C 620.552 -1.70525 1.17171 0
M  V30 6208 C 620.967 -1.86847 -0.270881 0
M  V30 6209 O 620.324 -1.38879 -1.18401 0
M  V30 6210 C 620.375 -3.10242 1.85559 0
M  V30 6211 O 620.096 -2.94683 3.24182 0
M  V30 6212 C 621.597 -4.04586 1.81176 0
M  V30 6213 H 618.817 -0.533347 0.407163 0
M  V30 6214 H 621.361 -1.15599 1.68692 0
M  V30 6215 H 619.516 -3.62014 1.3793 0
M  V30 6216 H 619.93 -3.83045 3.58297 0
M  V30 6217 H 621.404 -5.00119 2.33633 0
M  V30 6218 H 621.881 -4.3218 0.782099 0
M  V30 6219 H 622.487 -3.58741 2.2844 0
M  V30 6220 N 620.802 -1.09834 -1.13024 0
M  V30 6221 C 621.734 -0.699379 -2.18269 0
M  V30 6222 C 622.747 0.260841 -1.60697 0
M  V30 6223 O 623.936 0.0462538 -1.7844 0
M  V30 6224 C 621.036 -0.0104537 -3.38898 0
M  V30 6225 C 620.209 -0.993275 -4.25973 0
M  V30 6226 C 619.268 -0.336982 -5.2512 0
M  V30 6227 O 618.294 -0.985892 -5.60597 0
M  V30 6228 N 619.496 0.90716 -5.73368 0
M  V30 6229 H 622.261 -1.60486 -2.5311 0
M  V30 6230 H 619.822 -0.986337 -1.28386 0
M  V30 6231 H 621.814 0.43991 -4.02302 0
M  V30 6232 H 620.384 0.797335 -3.0226 0
M  V30 6233 H 619.604 -1.62208 -3.5928 0
M  V30 6234 H 620.892 -1.65876 -4.81002 0
M  V30 6235 H 620.29 1.45384 -5.46699 0
M  V30 6236 H 618.847 1.30077 -6.38689 0
M  V30 6237 N 622.28 1.30327 -0.886154 0
M  V30 6238 C 623.212 2.27079 -0.311072 0
M  V30 6239 C 624.225 1.53758 0.53502 0
M  V30 6240 O 625.414 1.74947 0.354378 0
M  V30 6241 C 622.514 3.33965 0.576228 0
M  V30 6242 C 621.687 4.36735 -0.241064 0
M  V30 6243 C 620.746 5.23028 0.576916 0
M  V30 6244 O 619.772 5.692 -0.000802231 0
M  V30 6245 N 620.974 5.49016 1.88579 0
M  V30 6246 H 623.739 2.77065 -1.14259 0
M  V30 6247 H 621.3 1.43519 -0.749258 0
M  V30 6248 H 623.292 3.88618 1.12953 0
M  V30 6249 H 621.862 2.839 1.30842 0
M  V30 6250 H 621.082 3.81932 -0.975805 0
M  V30 6251 H 622.37 5.02451 -0.801272 0
M  V30 6252 H 621.768 5.13288 2.37806 0
M  V30 6253 H 620.325 6.06539 2.38651 0
M  V30 6254 N 623.758 0.647228 1.43697 0
M  V30 6255 C 625.006 0.157876 2.01482 0
M  V30 6256 C 625.327 -1.23039 1.51282 0
M  V30 6257 O 624.597 -1.82071 0.722982 0
M  V30 6258 H 623.177 0.0553745 0.744945 0
M  V30 6259 H 625.839 0.83755 1.75986 0
M  V30 6260 H 624.935 0.137895 3.11795 0
M  V30 6261 N 625.236 -1.5273 0.388769 0
M  V30 6262 C 626.482 -2.01871 -0.193877 0
M  V30 6263 C 626.815 -1.27475 -1.46505 0
M  V30 6264 O 626.09 -0.375063 -1.90849 0
M  V30 6265 C 626.373 -3.5712 -0.462336 0
M  V30 6266 C 626.226 -4.42186 0.824091 0
M  V30 6267 C 627.545 -4.21881 -1.25319 0
M  V30 6268 H 624.664 -0.733764 -0.0689899 0
M  V30 6269 H 627.306 -1.82796 0.518231 0
M  V30 6270 H 625.456 -3.73504 -1.06896 0
M  V30 6271 H 627.128 -4.37554 1.46096 0
M  V30 6272 H 625.371 -4.09219 1.43952 0
M  V30 6273 H 626.042 -5.48828 0.590905 0
M  V30 6274 H 628.518 -4.0947 -0.73981 0
M  V30 6275 H 627.394 -5.30487 -1.40977 0
M  V30 6276 H 627.655 -3.79478 -2.26824 0
M  V30 6277 N 626.714 -0.118576 -1.57153 0
M  V30 6278 C 627.96 0.540326 -1.95469 0
M  V30 6279 C 628.293 1.66356 -1.00196 0
M  V30 6280 O 627.568 1.94461 -0.039104 0
M  V30 6281 C 627.851 1.07342 -3.43729 0
M  V30 6282 C 627.704 -0.0463732 -4.49776 0
M  V30 6283 C 629.023 1.96442 -3.93826 0
M  V30 6284 H 626.142 0.19494 -0.710751 0
M  V30 6285 H 628.784 -0.19405 -1.89006 0
M  V30 6286 H 626.934 1.69925 -3.49368 0
M  V30 6287 H 628.606 -0.681648 -4.56236 0
M  V30 6288 H 626.849 -0.709574 -4.27957 0
M  V30 6289 H 627.52 0.367856 -5.50773 0
M  V30 6290 H 629.996 1.43731 -3.90488 0
M  V30 6291 H 628.872 2.3066 -4.98084 0
M  V30 6292 H 629.133 2.89077 -3.34495 0
M  V30 6293 N 628.193 1.56834 0.155195 0
M  V30 6294 C 629.44 1.82898 0.869179 0
M  V30 6295 C 629.768 0.698194 1.81537 0
M  V30 6296 O 629.023 -0.313404 1.93174 0
M  V30 6297 C 629.322 3.15239 1.68402 0
M  V30 6298 C 628.988 4.42123 0.885341 0
M  V30 6299 C 627.65 4.76583 0.664971 0
M  V30 6300 C 630.002 5.20178 0.326234 0
M  V30 6301 C 627.33 5.86566 -0.125346 0
M  V30 6302 C 629.682 6.3099 -0.45108 0
M  V30 6303 C 628.346 6.64006 -0.682102 0
M  V30 6304 H 627.616 0.66927 0.318055 0
M  V30 6305 H 630.263 1.91036 0.133241 0
M  V30 6306 H 628.568 3.02515 2.48982 0
M  V30 6307 H 630.265 3.32618 2.23978 0
M  V30 6308 H 626.855 4.15102 1.06716 0
M  V30 6309 H 631.039 4.93936 0.483787 0
M  V30 6310 H 626.295 6.10594 -0.313915 0
M  V30 6311 H 630.469 6.9067 -0.89149 0
M  V30 6312 H 628.096 7.49065 -1.29636 0
M  V30 6313 N 629.671 -0.424282 1.51781 0
M  V30 6314 C 630.917 -1.17434 1.6534 0
M  V30 6315 C 631.25 -1.90549 0.374806 0
M  V30 6316 O 630.525 -1.84145 -0.626179 0
M  V30 6317 C 630.808 -2.18093 2.86544 0
M  V30 6318 C 630.661 -1.48975 4.24413 0
M  V30 6319 C 631.98 -3.18934 3.03264 0
M  V30 6320 H 629.099 -0.425566 0.601716 0
M  V30 6321 H 631.741 -0.461921 1.84299 0
M  V30 6322 H 629.891 -2.78849 2.7051 0
M  V30 6323 H 631.563 -0.914551 4.52143 0
M  V30 6324 H 629.806 -0.791893 4.26511 0
M  V30 6325 H 630.477 -2.22347 5.05238 0
M  V30 6326 H 632.953 -2.68243 3.18096 0
M  V30 6327 H 631.829 -3.86645 3.89611 0
M  V30 6328 H 632.09 -3.85793 2.15908 0
M  V30 6329 N 631.149 -1.42148 -0.680565 0
M  V30 6330 C 632.396 -1.4231 -1.44063 0
M  V30 6331 C 632.724 -0.037488 -1.94464 0
M  V30 6332 O 631.979 0.953184 -1.70918 0
M  V30 6333 C 632.278 -2.38945 -2.65782 0
M  V30 6334 C 631.944 -3.85455 -2.33956 0
M  V30 6335 C 630.606 -4.25364 -2.24987 0
M  V30 6336 C 632.958 -4.77895 -2.08004 0
M  V30 6337 C 630.286 -5.55701 -1.88184 0
M  V30 6338 C 632.638 -6.08568 -1.72706 0
M  V30 6339 C 631.302 -6.47482 -1.62244 0
M  V30 6340 H 630.572 -0.520748 -0.527164 0
M  V30 6341 H 633.219 -1.7505 -0.776524 0
M  V30 6342 H 631.524 -1.99511 -3.37198 0
M  V30 6343 H 633.221 -2.36336 -3.23954 0
M  V30 6344 H 629.811 -3.53855 -2.41836 0
M  V30 6345 H 633.995 -4.47854 -2.1387 0
M  V30 6346 H 629.251 -5.84718 -1.78648 0
M  V30 6347 H 633.425 -6.79688 -1.5165 0
M  V30 6348 H 631.052 -7.48387 -1.33496 0
M  V30 6349 N 632.627 0.916307 -1.28225 0
M  V30 6350 C 634.038 1.48024 -1.13779 0
M  V30 6351 C 634.389 1.94289 0.273139 0
M  V30 6352 O 633.514 1.82226 1.16716 0
M  V30 6353 C 634.109 2.69029 -2.05935 0
M  V30 6354 C 632.668 3.2161 -1.95561 0
M  V30 6355 C 631.815 1.94321 -1.97825 0
M  V30 6356 H 634.766 0.729272 -1.40951 0
M  V30 6357 H 634.787 3.44204 -1.62184 0
M  V30 6358 H 634.299 2.35325 -3.08616 0
M  V30 6359 H 632.4 3.60045 -0.959076 0
M  V30 6360 H 632.513 3.87032 -2.82388 0
M  V30 6361 H 630.877 2.1131 -1.42198 0
M  V30 6362 H 631.66 1.62917 -3.0218 0
M  V30 6363 N 634.105 1.10431 1.1244 0
M  V30 6364 C 635.353 0.845045 1.83585 0
M  V30 6365 C 635.674 -0.631168 1.84503 0
M  V30 6366 O 634.944 -1.45825 1.30813 0
M  V30 6367 H 633.524 0.309628 0.679809 0
M  V30 6368 H 636.186 1.39458 1.36153 0
M  V30 6369 H 635.282 1.20786 2.8778 0
M  V30 6370 N 635.583 -1.29855 0.893053 0
M  V30 6371 C 636.831 -1.9544 0.514566 0
M  V30 6372 C 637.152 -1.70795 -0.940959 0
M  V30 6373 O 636.422 -1.03601 -1.66264 0
M  V30 6374 H 635.002 -0.723137 0.187302 0
M  V30 6375 H 637.664 -1.58234 1.13789 0
M  V30 6376 H 636.76 -3.04341 0.691581 0
M  V30 6377 N 637.061 -0.65484 -1.43351 0
M  V30 6378 C 638.472 -0.248506 -1.85039 0
M  V30 6379 C 638.823 1.20526 -1.54816 0
M  V30 6380 O 637.948 1.92016 -0.99794 0
M  V30 6381 C 638.543 -0.444241 -3.35875 0
M  V30 6382 C 637.102 -0.0922108 -3.76287 0
M  V30 6383 C 636.249 -0.746327 -2.67068 0
M  V30 6384 H 639.2 -0.8584 -1.33481 0
M  V30 6385 H 639.221 0.309762 -3.79237 0
M  V30 6386 H 638.733 -1.50239 -3.5784 0
M  V30 6387 H 636.834 0.96328 -3.59933 0
M  V30 6388 H 636.947 -0.518807 -4.76283 0
M  V30 6389 H 635.311 -0.179416 -2.54067 0
M  V30 6390 H 636.094 -1.80754 -2.91861 0
M  V30 6391 N 638.539 1.52521 -0.396863 0
M  V30 6392 C 639.787 2.01274 0.182536 0
M  V30 6393 C 640.108 1.28485 1.46685 0
M  V30 6394 O 639.378 0.407134 1.91623 0
M  V30 6395 H 637.958 0.743671 0.0704442 0
M  V30 6396 H 640.62 1.87547 -0.530289 0
M  V30 6397 H 639.716 3.09687 0.387385 0
M  V30 6398 N 640.017 0.126909 1.57088 0
M  V30 6399 C 641.265 -0.528123 1.95078 0
M  V30 6400 C 641.586 -1.66708 1.0116 0
M  V30 6401 O 640.856 -1.95777 0.0693527 0
M  V30 6402 H 639.436 -0.198087 0.720257 0
M  V30 6403 H 642.098 0.197703 1.93895 0
M  V30 6404 H 641.194 -0.917507 2.98309 0
M  V30 6405 N 641.495 -1.56914 -0.146875 0
M  V30 6406 C 642.425 -2.01308 -1.1831 0
M  V30 6407 C 643.406 -0.892664 -1.44795 0
M  V30 6408 O 644.591 -1.16048 -1.55713 0
M  V30 6409 C 641.721 -2.3938 -2.51624 0
M  V30 6410 C 640.675 -3.54608 -2.3966 0
M  V30 6411 C 640.001 -3.78493 -3.77686 0
M  V30 6412 C 641.301 -4.87269 -1.88058 0
M  V30 6413 H 642.995 -2.88123 -0.813964 0
M  V30 6414 H 640.541 -1.38615 -0.3901 0
M  V30 6415 H 642.494 -2.69037 -3.24341 0
M  V30 6416 H 641.218 -1.49502 -2.90373 0
M  V30 6417 H 639.877 -3.25116 -1.69396 0
M  V30 6418 H 639.525 -2.85866 -4.13871 0
M  V30 6419 H 639.225 -4.56039 -3.70543 0
M  V30 6420 H 640.749 -4.10576 -4.51951 0
M  V30 6421 H 642.163 -5.15644 -2.50568 0
M  V30 6422 H 640.56 -5.68622 -1.91805 0
M  V30 6423 H 641.63 -4.77634 -0.836277 0
M  V30 6424 N 642.974 0.416227 -1.52004 0
M  V30 6425 C 644.222 1.16153 -1.65387 0
M  V30 6426 C 644.543 1.91208 -0.382669 0
M  V30 6427 O 643.813 1.86413 0.602231 0
M  V30 6428 H 642.393 0.431765 -0.60958 0
M  V30 6429 H 645.055 0.475151 -1.89019 0
M  V30 6430 H 644.151 1.87952 -2.4916 0
M  V30 6431 N 644.452 1.42507 0.673017 0
M  V30 6432 C 645.677 1.4668 1.46627 0
M  V30 6433 C 646.102 0.080066 1.8793 0
M  V30 6434 O 645.46 -0.921879 1.56112 0
M  V30 6435 C 645.508 2.40091 2.69051 0
M  V30 6436 O 644.612 1.8735 3.67387 0
M  V30 6437 H 643.953 0.496908 0.44043 0
M  V30 6438 H 646.483 1.87215 0.825334 0
M  V30 6439 H 646.493 2.56731 3.17101 0
M  V30 6440 H 645.168 3.4084 2.3833 0
M  V30 6441 H 643.745 1.80274 3.26429 0
M  V30 6442 N 645.93 -0.909495 1.28709 0
M  V30 6443 C 646.877 -2.01245 1.13 0
M  V30 6444 C 647.847 -1.6608 0.0259684 0
M  V30 6445 O 649.032 -1.89835 0.191687 0
M  V30 6446 C 646.172 -3.35644 0.802315 0
M  V30 6447 C 645.285 -3.83653 1.98582 0
M  V30 6448 C 644.42 -5.06582 1.59837 0
M  V30 6449 C 643.459 -5.46934 2.74827 0
M  V30 6450 N 642.596 -6.61053 2.36546 0
M  V30 6451 H 647.436 -2.14013 2.0737 0
M  V30 6452 H 644.973 -1.0482 1.03205 0
M  V30 6453 H 646.931 -4.12963 0.593057 0
M  V30 6454 H 645.561 -3.22631 -0.104457 0
M  V30 6455 H 644.613 -3.02454 2.30708 0
M  V30 6456 H 645.925 -4.09515 2.84779 0
M  V30 6457 H 645.079 -5.91457 1.35143 0
M  V30 6458 H 643.818 -4.82537 0.707753 0
M  V30 6459 H 642.823 -4.60599 3.00215 0
M  V30 6460 H 644.048 -5.72965 3.64538 0
M  V30 6461 H 641.994 -6.3863 1.49959 0
M  V30 6462 H 641.911 -6.86662 3.16277 0
M  V30 6463 H 643.179 -7.49221 2.15146 0
M  V30 6464 N 647.408 -1.11026 -1.11852 0
M  V30 6465 C 648.819 -0.873203 -1.65021 0
M  V30 6466 C 649.17 0.595364 -1.86949 0
M  V30 6467 O 648.295 1.45645 -1.60051 0
M  V30 6468 C 648.89 -1.57859 -2.99777 0
M  V30 6469 C 647.449 -1.38807 -3.49871 0
M  V30 6470 C 646.596 -1.62403 -2.24768 0
M  V30 6471 H 649.547 -1.26712 -0.955503 0
M  V30 6472 H 649.568 -1.02111 -3.66543 0
M  V30 6473 H 649.08 -2.6474 -2.83786 0
M  V30 6474 H 647.181 -0.341163 -3.71035 0
M  V30 6475 H 647.294 -2.13421 -4.28938 0
M  V30 6476 H 645.658 -1.04714 -2.32179 0
M  V30 6477 H 646.441 -2.70549 -2.11324 0
M  V30 6478 N 648.886 1.2938 -0.899927 0
M  V30 6479 C 650.111 2.00228 -0.540692 0
M  V30 6480 C 650.536 1.66909 0.867359 0
M  V30 6481 O 649.894 0.893824 1.57735 0
M  V30 6482 C 649.942 3.52921 -0.740232 0
M  V30 6483 O 649.046 4.11879 0.207154 0
M  V30 6484 H 648.387 0.629505 -0.211233 0
M  V30 6485 H 650.917 1.6487 -1.21158 0
M  V30 6486 H 650.927 4.0287 -0.644973 0
M  V30 6487 H 649.602 3.76508 -1.76677 0
M  V30 6488 H 648.179 3.72845 0.0643315 0
M  V30 6489 N 650.364 0.662433 1.43002 0
M  V30 6490 C 651.296 -0.062326 2.29115 0
M  V30 6491 C 652.309 -0.777926 1.43011 0
M  V30 6492 O 653.498 -0.634146 1.66856 0
M  V30 6493 C 650.598 -1.11163 3.2015 0
M  V30 6494 C 649.771 -0.472327 4.34842 0
M  V30 6495 C 648.83 -1.41974 5.06685 0
M  V30 6496 O 647.856 -0.924795 5.61637 0
M  V30 6497 N 649.058 -2.75345 5.11043 0
M  V30 6498 H 651.823 0.676838 2.91957 0
M  V30 6499 H 649.384 0.505907 1.53793 0
M  V30 6500 H 651.376 -1.74643 3.65078 0
M  V30 6501 H 649.946 -1.75266 2.58845 0
M  V30 6502 H 649.166 0.341751 3.92716 0
M  V30 6503 H 650.454 -0.0264381 5.08793 0
M  V30 6504 H 649.852 -3.18108 4.67786 0
M  V30 6505 H 648.409 -3.34105 5.59658 0
M  V30 6506 N 651.842 -1.52309 0.404946 0
M  V30 6507 C 653.088 -2.02065 -0.172455 0
M  V30 6508 C 653.421 -1.29022 -1.45145 0
M  V30 6509 O 652.696 -0.395284 -1.90441 0
M  V30 6510 C 652.979 -3.5759 -0.424433 0
M  V30 6511 C 652.832 -4.41287 0.870945 0
M  V30 6512 C 654.151 -4.23186 -1.20837 0
M  V30 6513 H 651.27 -0.734454 -0.0612035 0
M  V30 6514 H 653.912 -1.82236 0.53759 0
M  V30 6515 H 652.062 -3.74617 -1.02929 0
M  V30 6516 H 653.734 -4.3598 1.50729 0
M  V30 6517 H 651.977 -4.07669 1.48284 0
M  V30 6518 H 652.648 -5.48171 0.649083 0
M  V30 6519 H 655.124 -4.10232 -0.696338 0
M  V30 6520 H 654 -5.31953 -1.35343 0
M  V30 6521 H 654.261 -3.81862 -2.22786 0
M  V30 6522 N 653.32 -0.135238 -1.57019 0
M  V30 6523 C 654.25 0.805235 -2.19176 0
M  V30 6524 C 655.231 1.2656 -1.13651 0
M  V30 6525 O 656.416 1.32528 -1.4195 0
M  V30 6526 C 653.546 2.04914 -2.80406 0
M  V30 6527 C 652.5 1.72598 -3.91655 0
M  V30 6528 C 651.826 3.04154 -4.39766 0
M  V30 6529 C 653.126 0.981709 -5.12991 0
M  V30 6530 H 654.82 0.287232 -2.98019 0
M  V30 6531 H 652.366 0.136714 -1.4335 0
M  V30 6532 H 654.319 2.71178 -3.22553 0
M  V30 6533 H 653.043 2.59067 -1.98877 0
M  V30 6534 H 651.702 1.08717 -3.50109 0
M  V30 6535 H 651.35 3.56274 -3.55075 0
M  V30 6536 H 651.05 2.83299 -5.14796 0
M  V30 6537 H 652.574 3.71509 -4.84576 0
M  V30 6538 H 653.988 1.5462 -5.52056 0
M  V30 6539 H 652.385 0.873533 -5.93708 0
M  V30 6540 H 653.455 -0.0286887 -4.84892 0
M  V30 6541 N 654.798 1.5699 0.138552 0
M  V30 6542 C 655.73 1.95515 1.1961 0
M  V30 6543 C 656.743 0.852002 1.38726 0
M  V30 6544 O 657.932 1.13038 1.38147 0
M  V30 6545 C 655.032 2.2213 2.55952 0
M  V30 6546 C 654.205 3.53424 2.57702 0
M  V30 6547 C 653.264 3.6848 3.75645 0
M  V30 6548 O 652.29 4.4079 3.60129 0
M  V30 6549 N 653.492 3.05777 4.93438 0
M  V30 6550 H 656.257 2.86838 0.868557 0
M  V30 6551 H 653.818 1.58542 0.328033 0
M  V30 6552 H 655.81 2.29435 3.33379 0
M  V30 6553 H 654.38 1.3703 2.80965 0
M  V30 6554 H 653.6 3.57484 1.6613 0
M  V30 6555 H 654.888 4.39759 2.55909 0
M  V30 6556 H 654.286 2.46961 5.08947 0
M  V30 6557 H 652.843 3.18631 5.6861 0
M  V30 6558 N 656.276 -0.40816 1.52223 0
M  V30 6559 C 657.687 -0.986929 1.58482 0
M  V30 6560 C 658.038 -1.91521 0.425917 0
M  V30 6561 O 657.163 -2.11593 -0.453593 0
M  V30 6562 C 657.758 -1.7967 2.87235 0
M  V30 6563 C 656.317 -2.32549 2.9597 0
M  V30 6564 C 655.464 -1.12558 2.53428 0
M  V30 6565 H 658.415 -0.188362 1.57578 0
M  V30 6566 H 658.436 -2.65417 2.72642 0
M  V30 6567 H 657.948 -1.12082 3.71563 0
M  V30 6568 H 656.049 -3.03505 2.16137 0
M  V30 6569 H 656.162 -2.63348 4.00231 0
M  V30 6570 H 654.526 -1.47984 2.07299 0
M  V30 6571 H 655.309 -0.465351 3.40131 0
M  V30 6572 N 657.755 -1.42862 -0.66545 0
M  V30 6573 C 658.685 -1.49867 -1.79059 0
M  V30 6574 C 659.666 -0.354394 -1.66367 0
M  V30 6575 O 660.851 -0.569969 -1.85647 0
M  V30 6576 C 657.981 -1.40943 -3.17415 0
M  V30 6577 C 656.935 -2.53495 -3.44854 0
M  V30 6578 C 656.261 -2.29626 -4.82883 0
M  V30 6579 C 657.561 -3.95781 -3.40815 0
M  V30 6580 H 659.255 -2.44037 -1.73453 0
M  V30 6581 H 656.801 -1.17456 -0.833071 0
M  V30 6582 H 658.754 -1.4445 -3.95869 0
M  V30 6583 H 657.478 -0.432716 -3.23721 0
M  V30 6584 H 656.137 -2.4932 -2.68766 0
M  V30 6585 H 655.785 -1.30226 -4.8585 0
M  V30 6586 H 655.485 -3.05065 -5.02204 0
M  V30 6587 H 657.009 -2.34897 -5.63609 0
M  V30 6588 H 658.423 -4.01508 -4.09224 0
M  V30 6589 H 656.82 -4.71148 -3.71672 0
M  V30 6590 H 657.89 -4.21786 -2.39216 0
M  V30 6591 N 659.233 0.902656 -1.29189 0
M  V30 6592 C 660.479 1.6555 -1.18172 0
M  V30 6593 C 660.834 1.90569 0.264788 0
M  V30 6594 O 660.127 1.50292 1.1884 0
M  V30 6595 C 660.321 3.011 -1.92545 0
M  V30 6596 C 660.15 2.89312 -3.4428 0
M  V30 6597 C 658.92 2.90239 -4.1363 0
M  V30 6598 C 661.118 2.6656 -4.3983 0
M  V30 6599 N 659.1 2.69156 -5.5175 0
M  V30 6600 C 660.471 2.54429 -5.6539 0
M  V30 6601 C 662.526 2.51644 -4.29627 0
M  V30 6602 C 661.229 2.289 -6.81907 0
M  V30 6603 C 663.255 2.27498 -5.45892 0
M  V30 6604 C 662.617 2.16129 -6.70423 0
M  V30 6605 H 658.716 0.611519 -0.48741 0
M  V30 6606 H 661.3 1.06514 -1.62981 0
M  V30 6607 H 659.471 3.58202 -1.50154 0
M  V30 6608 H 661.203 3.65471 -1.73818 0
M  V30 6609 H 657.958 3.01412 -3.65305 0
M  V30 6610 H 658.382 2.61676 -6.24383 0
M  V30 6611 H 663.024 2.59178 -3.34045 0
M  V30 6612 H 660.742 2.20104 -7.77547 0
M  V30 6613 H 664.328 2.16805 -5.39895 0
M  V30 6614 H 663.208 1.97703 -7.5887 0
M  V30 6615 N 660.711 1.11618 1.11262 0
M  V30 6616 C 661.674 0.779447 2.15539 0
M  V30 6617 C 662.674 -0.202081 1.59525 0
M  V30 6618 O 663.864 0.0226356 1.74185 0
M  V30 6619 C 660.996 0.15674 3.40539 0
M  V30 6620 H 662.189 1.70324 2.4684 0
M  V30 6621 H 659.742 0.918298 1.26479 0
M  V30 6622 H 660.477 -0.777186 3.1485 0
M  V30 6623 H 660.262 0.863308 3.82478 0
M  V30 6624 H 661.752 -0.062661 4.17553 0
M  V30 6625 N 662.189 -1.289 0.906776 0
M  V30 6626 C 663.152 -2.25777 0.394656 0
M  V30 6627 C 664.152 -1.53621 -0.475119 0
M  V30 6628 O 665.342 -1.71949 -0.279165 0
M  V30 6629 C 662.474 -3.38113 -0.43499 0
M  V30 6630 H 663.667 -2.72592 1.25033 0
M  V30 6631 H 661.22 -1.40463 0.685547 0
M  V30 6632 H 661.955 -2.96648 -1.31036 0
M  V30 6633 H 661.74 -3.91647 0.188334 0
M  V30 6634 H 663.23 -4.10168 -0.784365 0
M  V30 6635 N 663.667 -0.670007 -1.42649 0
M  V30 6636 C 664.892 -0.196955 -2.06463 0
M  V30 6637 C 665.317 1.1352 -1.49983 0
M  V30 6638 O 664.675 1.705 -0.616397 0
M  V30 6639 C 664.723 -0.137381 -3.60338 0
M  V30 6640 O 663.827 0.895523 -4.02559 0
M  V30 6641 H 663.168 -0.102579 -0.656029 0
M  V30 6642 H 665.698 -0.917669 -1.82866 0
M  V30 6643 H 665.708 0.0403625 -4.0798 0
M  V30 6644 H 664.383 -1.10977 -4.0082 0
M  V30 6645 H 662.96 0.689209 -3.66476 0
M  V30 6646 N 665.145 1.52092 -0.413018 0
M  V30 6647 C 666.095 2.23947 0.427993 0
M  V30 6648 C 667.079 1.25229 1.01027 0
M  V30 6649 O 668.271 1.50448 0.932444 0
M  V30 6650 C 665.4 3.0672 1.542 0
M  V30 6651 C 664.486 4.12851 0.970307 0
M  V30 6652 N 664.877 5.05644 0.125611 0
M  V30 6653 C 663.175 4.28404 1.24042 0
M  V30 6654 C 663.876 5.8138 -0.192876 0
M  V30 6655 N 662.852 5.41996 0.417273 0
M  V30 6656 H 666.654 2.93048 -0.223628 0
M  V30 6657 H 664.168 1.60852 -0.223664 0
M  V30 6658 H 666.165 3.56754 2.15714 0
M  V30 6659 H 664.825 2.39159 2.19621 0
M  V30 6660 H 665.836 5.17348 -0.238995 0
M  V30 6661 H 662.513 3.72071 1.89391 0
M  V30 6662 H 663.903 6.66129 -0.878762 0
M  V30 6663 N 666.623 0.143563 1.56945 0
M  V30 6664 C 667.851 -0.515447 2.00377 0
M  V30 6665 C 668.266 -1.58643 1.02361 0
M  V30 6666 O 667.623 -1.82489 0.0201039 0
M  V30 6667 C 667.674 -1.11923 3.43737 0
M  V30 6668 O 667.395 -0.0910318 4.38005 0
M  V30 6669 C 668.896 -1.85918 4.02429 0
M  V30 6670 H 666.116 -0.134478 0.657386 0
M  V30 6671 H 668.66 0.237135 2.0312 0
M  V30 6672 H 666.815 -1.82245 3.41856 0
M  V30 6673 H 667.229 -0.532916 5.21786 0
M  V30 6674 H 668.703 -2.2346 5.04747 0
M  V30 6675 H 669.18 -2.7438 3.42947 0
M  V30 6676 H 669.786 -1.20303 4.07931 0
M  V30 6677 N 668.101 -1.57061 -0.130224 0
M  V30 6678 C 669.512 -1.73539 -0.68856 0
M  V30 6679 C 669.863 -0.760554 -1.80859 0
M  V30 6680 O 668.988 0.0690796 -2.1629 0
M  V30 6681 C 669.583 -3.14666 -1.25581 0
M  V30 6682 C 668.142 -3.32689 -1.76055 0
M  V30 6683 C 667.289 -2.69436 -0.655712 0
M  V30 6684 H 670.24 -1.58412 0.0956002 0
M  V30 6685 H 670.261 -3.15595 -2.12556 0
M  V30 6686 H 669.773 -3.85593 -0.440412 0
M  V30 6687 H 667.874 -2.66786 -2.60108 0
M  V30 6688 H 667.987 -4.4077 -1.87772 0
M  V30 6689 H 666.351 -2.30362 -1.08654 0
M  V30 6690 H 667.134 -3.42979 0.14852 0
M  V30 6691 N 669.579 0.400081 -1.52437 0
M  V30 6692 C 670.856 1.15973 -1.57511 0
M  V30 6693 C 671.236 2.0798 -0.361572 0
M  V30 6694 O 670.584 2.19032 0.650929 0
M  V30 6695 C 670.794 1.92912 -2.90837 0
M  V30 6696 C 672.142 2.48662 -3.44169 0
M  V30 6697 O 673.166 2.03081 -2.92637 0
M  V30 6698 O 672.025 3.31894 -4.34176 0
M  V30 6699 H 669.119 0.530023 -0.634827 0
M  V30 6700 H 671.665 0.40613 -1.64769 0
M  V30 6701 H 670.437 1.25564 -3.70607 0
M  V30 6702 H 670.06 2.75257 -2.86913 0
M  V30 6703 N 671.057 1.43213 0.657864 0
M  V30 6704 C 672.304 1.44584 1.41781 0
M  V30 6705 C 672.632 0.0684208 1.9438 0
M  V30 6706 O 671.887 -0.925872 1.72413 0
M  V30 6707 C 672.186 2.43143 2.61947 0
M  V30 6708 C 671.852 3.89128 2.27794 0
M  V30 6709 C 670.514 4.28889 2.18191 0
M  V30 6710 C 672.866 4.81144 2.00375 0
M  V30 6711 C 670.194 5.58625 1.79319 0
M  V30 6712 C 672.546 6.11239 1.63003 0
M  V30 6713 C 671.21 6.49981 1.51922 0
M  V30 6714 H 670.48 0.529069 0.518813 0
M  V30 6715 H 673.127 1.76263 0.748577 0
M  V30 6716 H 671.432 2.04851 3.33981 0
M  V30 6717 H 673.129 2.4146 3.20153 0
M  V30 6718 H 669.719 3.57657 2.36176 0
M  V30 6719 H 673.903 4.512 2.06718 0
M  V30 6720 H 669.159 5.87486 1.69323 0
M  V30 6721 H 673.333 6.82014 1.40817 0
M  V30 6722 H 670.96 7.50416 1.21572 0
M  V30 6723 N 672.536 -0.895792 1.29666 0
M  V30 6724 C 673.783 -1.64664 1.17864 0
M  V30 6725 C 674.111 -1.92631 -0.26902 0
M  V30 6726 O 673.366 -1.53787 -1.21029 0
M  V30 6727 C 673.665 -3.00075 1.94139 0
M  V30 6728 C 673.331 -2.91702 3.43833 0
M  V30 6729 C 671.993 -2.89126 3.84656 0
M  V30 6730 C 674.345 -2.80622 4.39205 0
M  V30 6731 C 671.673 -2.73293 5.1916 0
M  V30 6732 C 674.025 -2.66329 5.73805 0
M  V30 6733 C 672.689 -2.62121 6.1388 0
M  V30 6734 H 671.959 -0.602549 0.431295 0
M  V30 6735 H 674.606 -1.04234 1.60648 0
M  V30 6736 H 672.911 -3.64394 1.43958 0
M  V30 6737 H 674.608 -3.57111 1.82408 0
M  V30 6738 H 671.198 -2.94511 3.11386 0
M  V30 6739 H 675.382 -2.81686 4.08615 0
M  V30 6740 H 670.638 -2.68443 5.49316 0
M  V30 6741 H 674.812 -2.56727 6.47352 0
M  V30 6742 H 672.439 -2.49611 7.18052 0
M  V30 6743 N 674.014 -1.12206 -1.10668 0
M  V30 6744 C 675.262 -0.874144 -1.82217 0
M  V30 6745 C 675.583 0.601736 -1.85484 0
M  V30 6746 O 674.853 1.43725 -1.33116 0
M  V30 6747 H 673.433 -0.320404 -0.674797 0
M  V30 6748 H 676.095 -1.41606 -1.33917 0
M  V30 6749 H 675.191 -1.25349 -2.85822 0
M  V30 6750 N 675.492 1.28418 -0.913599 0
M  V30 6751 C 676.717 1.99643 -0.561899 0
M  V30 6752 C 677.142 1.67819 0.849608 0
M  V30 6753 O 676.5 0.910503 1.56779 0
M  V30 6754 C 676.548 3.52116 -0.777622 0
M  V30 6755 O 675.652 4.12076 0.163457 0
M  V30 6756 H 674.993 0.627229 -0.217898 0
M  V30 6757 H 677.523 1.63575 -1.229 0
M  V30 6758 H 677.533 4.02163 -0.687666 0
M  V30 6759 H 676.208 3.74613 -1.8066 0
M  V30 6760 H 674.785 3.72892 0.0247827 0
M  V30 6761 N 676.97 0.677563 1.42291 0
M  V30 6762 C 677.933 0.0101085 2.29198 0
M  V30 6763 C 678.933 -0.726219 1.43467 0
M  V30 6764 O 680.123 -0.563807 1.64824 0
M  V30 6765 C 677.255 -0.996316 3.26016 0
M  V30 6766 H 678.448 0.775071 2.89711 0
M  V30 6767 H 676.001 0.440065 1.49977 0
M  V30 6768 H 676.736 -1.78967 2.70446 0
M  V30 6769 H 676.521 -0.471687 3.89253 0
M  V30 6770 H 678.011 -1.46167 3.91184 0
M  V30 6771 N 678.448 -1.51871 0.421078 0
M  V30 6772 C 679.378 -2.30231 -0.389363 0
M  V30 6773 C 680.359 -1.34946 -1.03555 0
M  V30 6774 O 681.544 -1.63859 -1.04229 0
M  V30 6775 C 678.674 -3.13247 -1.49979 0
M  V30 6776 C 677.628 -4.16677 -0.977966 0
M  V30 6777 C 676.954 -4.88112 -2.1829 0
M  V30 6778 C 678.254 -5.22295 -0.0236775 0
M  V30 6779 H 679.948 -2.98229 0.264524 0
M  V30 6780 H 677.494 -1.43424 0.12866 0
M  V30 6781 H 679.447 -3.66838 -2.07383 0
M  V30 6782 H 678.171 -2.4304 -2.18173 0
M  V30 6783 H 676.83 -3.64114 -0.426245 0
M  V30 6784 H 676.478 -4.14423 -2.85066 0
M  V30 6785 H 676.178 -5.58041 -1.84021 0
M  V30 6786 H 677.702 -5.44521 -2.76278 0
M  V30 6787 H 679.116 -5.71055 -0.506899 0
M  V30 6788 H 677.513 -5.99656 0.230782 0
M  V30 6789 H 678.583 -4.76131 0.917999 0
M  V30 6790 N 679.926 -0.151884 -1.56866 0
M  V30 6791 C 681.342 0.204486 -1.58285 0
M  V30 6792 C 681.542 1.6431 -1.16639 0
M  V30 6793 O 680.598 2.37077 -0.868946 0
M  V30 6794 C 681.911 -0.0587019 -3.00643 0
M  V30 6795 C 683.459 0.00462303 -3.13 0
M  V30 6796 C 683.934 -0.231297 -4.57416 0
M  V30 6797 N 685.425 -0.178394 -4.62856 0
M  V30 6798 C 686.16 -0.335379 -5.72418 0
M  V30 6799 N 685.656 -0.550355 -6.90611 0
M  V30 6800 N 687.449 -0.272641 -5.61438 0
M  V30 6801 H 679.6 -1.09116 -1.82229 0
M  V30 6802 H 681.863 -0.432311 -0.843689 0
M  V30 6803 H 681.569 -1.05453 -3.35518 0
M  V30 6804 H 681.443 0.658508 -3.71407 0
M  V30 6805 H 683.83 0.991009 -2.77962 0
M  V30 6806 H 683.911 -0.744992 -2.44711 0
M  V30 6807 H 683.555 -1.2148 -4.93158 0
M  V30 6808 H 683.485 0.5387 -5.23837 0
M  V30 6809 H 685.976 -0.0170923 -3.77896 0
M  V30 6810 H 686.289 -0.660116 -7.69976 0
M  V30 6811 H 684.634 -0.586736 -6.92519 0
M  V30 6812 H 687.825 -0.105421 -4.67981 0
M  V30 6813 H 687.998 -0.398418 -6.46774 0
M  V30 6814 N 681.404 1.57128 0.121893 0
M  V30 6815 C 682.652 1.84335 0.828548 0
M  V30 6816 C 682.973 0.736632 1.80551 0
M  V30 6817 O 682.243 -0.23962 1.94429 0
M  V30 6818 H 680.823 0.680108 0.30897 0
M  V30 6819 H 683.485 1.9459 0.109906 0
M  V30 6820 H 682.581 2.80152 1.37554 0
M  V30 6821 N 682.882 -0.391992 1.52647 0
M  V30 6822 C 684.13 -1.13507 1.67214 0
M  V30 6823 C 684.451 -1.90575 0.41304 0
M  V30 6824 O 683.721 -1.87348 -0.572498 0
M  V30 6825 H 682.301 -0.422013 0.616372 0
M  V30 6826 H 684.963 -0.44502 1.89751 0
M  V30 6827 H 684.059 -1.83964 2.52118 0
M  V30 6828 N 684.36 -1.4356 -0.65026 0
M  V30 6829 C 685.776 -1.27025 -0.966269 0
M  V30 6830 C 685.976 -0.192117 -2.00582 0
M  V30 6831 O 685.032 0.428459 -2.48838 0
M  V30 6832 C 686.345 -2.63556 -1.44772 0
M  V30 6833 C 687.893 -2.71111 -1.56421 0
M  V30 6834 C 688.368 -4.08067 -2.07956 0
M  V30 6835 N 689.859 -4.10146 -2.15254 0
M  V30 6836 C 690.594 -5.12952 -2.56258 0
M  V30 6837 N 690.09 -6.26129 -2.96537 0
M  V30 6838 N 691.883 -5.00306 -2.56224 0
M  V30 6839 H 684.034 -2.12367 0.0375758 0
M  V30 6840 H 686.297 -0.946894 -0.0457782 0
M  V30 6841 H 686.003 -3.43429 -0.758271 0
M  V30 6842 H 685.877 -2.89152 -2.42221 0
M  V30 6843 H 688.264 -1.91569 -2.24467 0
M  V30 6844 H 688.345 -2.49277 -0.573967 0
M  V30 6845 H 687.989 -4.88077 -1.40511 0
M  V30 6846 H 687.919 -4.27266 -3.07817 0
M  V30 6847 H 690.41 -3.28453 -1.86887 0
M  V30 6848 H 690.723 -7.00403 -3.26582 0
M  V30 6849 H 689.068 -6.29597 -2.94334 0
M  V30 6850 H 692.259 -4.10952 -2.24135 0
M  V30 6851 H 692.432 -5.80553 -2.87857 0
M  V30 6852 N 685.838 0.888903 -1.30139 0
M  V30 6853 C 687.115 1.62145 -1.094 0
M  V30 6854 C 687.495 2.08041 0.358091 0
M  V30 6855 O 686.843 1.84438 1.34888 0
M  V30 6856 C 687.053 2.794 -2.09133 0
M  V30 6857 C 688.401 3.49826 -2.40638 0
M  V30 6858 O 689.425 2.89583 -2.07412 0
M  V30 6859 O 688.284 4.58457 -2.97455 0
M  V30 6860 H 685.378 0.712475 -0.41989 0
M  V30 6861 H 687.924 0.936023 -1.41551 0
M  V30 6862 H 686.696 2.42762 -3.06891 0
M  V30 6863 H 686.319 3.55643 -1.77776 0
M  V30 6864 N 687.317 1.12792 1.10072 0
M  V30 6865 C 688.247 0.821688 2.18565 0
M  V30 6866 C 689.228 -0.21612 1.68721 0
M  V30 6867 O 690.413 -0.0764932 1.94049 0
M  V30 6868 C 687.543 0.279624 3.46172 0
M  V30 6869 C 686.497 1.25092 4.09312 0
M  V30 6870 C 685.823 0.568916 5.31665 0
M  V30 6871 C 687.123 2.60699 4.52585 0
M  V30 6872 H 688.817 1.72888 2.44438 0
M  V30 6873 H 686.363 0.832702 1.17482 0
M  V30 6874 H 688.316 0.053099 4.21367 0
M  V30 6875 H 687.04 -0.662929 3.19801 0
M  V30 6876 H 685.699 1.46332 3.36129 0
M  V30 6877 H 685.347 -0.378898 5.01571 0
M  V30 6878 H 685.047 1.21687 5.74862 0
M  V30 6879 H 686.571 0.351517 6.09587 0
M  V30 6880 H 687.985 2.43465 5.19035 0
M  V30 6881 H 686.382 3.21608 5.06644 0
M  V30 6882 H 687.452 3.1886 3.65317 0
M  V30 6883 N 688.795 -1.27931 0.920396 0
M  V30 6884 C 690.072 -1.89728 0.475687 0
M  V30 6885 C 690.452 -1.8337 -1.04588 0
M  V30 6886 O 689.8 -1.27404 -1.89685 0
M  V30 6887 C 690.01 -3.33959 1.01354 0
M  V30 6888 C 691.358 -4.10907 1.06963 0
M  V30 6889 O 692.382 -3.42945 0.962646 0
M  V30 6890 O 691.241 -5.32399 1.23343 0
M  V30 6891 H 688.335 -0.81294 0.151845 0
M  V30 6892 H 690.881 -1.36252 1.01161 0
M  V30 6893 H 689.653 -3.32843 2.05746 0
M  V30 6894 H 689.276 -3.94944 0.458829 0
M  V30 6895 N 690.273 -0.685099 -1.4193 0
M  V30 6896 C 691.521 -0.21124 -2.00993 0
M  V30 6897 C 691.842 1.18985 -1.54491 0
M  V30 6898 O 691.112 1.8009 -0.771 0
M  V30 6899 H 689.692 -0.0751059 -0.743215 0
M  V30 6900 H 692.354 -0.883915 -1.73704 0
M  V30 6901 H 691.45 -0.220513 -3.1132 0
M  V30 6902 N 691.751 1.51645 -0.429126 0
M  V30 6903 C 692.699 2.29119 0.400921 0
M  V30 6904 C 693.693 1.34628 1.02819 0
M  V30 6905 O 694.899 1.52004 0.964098 0
M  V30 6906 H 691.274 0.737273 0.148095 0
M  V30 6907 H 693.245 2.97144 -0.273457 0
M  V30 6908 C 691.994 3.13953 1.49429 0
M  V30 6909 H 691.317 3.86544 1.02097 0
M  V30 6910 H 692.757 3.71232 2.04849 0
M  V30 6911 C 691.216 2.28796 2.47293 0
M  V30 6912 O 691.746 1.94193 3.51642 0
M  V30 6913 N 689.952 1.92177 2.17982 0
M  V30 6914 H 689.499 2.20517 1.33154 0
M  V30 6915 H 689.457 1.35497 2.83704 0
M  V30 6916 N 693.229 0.160201 1.56784 0
M  V30 6917 C 694.477 -0.486625 1.96154 0
M  V30 6918 C 694.798 -1.64525 1.04673 0
M  V30 6919 O 694.068 -1.95586 0.110864 0
M  V30 6920 H 692.648 -0.182764 0.724297 0
M  V30 6921 H 695.31 0.238787 1.93432 0
M  V30 6922 H 694.406 -0.854025 3.00188 0
M  V30 6923 N 694.707 -1.5719 -0.113559 0
M  V30 6924 C 695.937 -1.89053 -0.833212 0
M  V30 6925 C 696.345 -0.750139 -1.73694 0
M  V30 6926 O 695.688 0.287808 -1.81431 0
M  V30 6927 C 695.75 -3.15986 -1.71443 0
M  V30 6928 C 695.414 -4.46271 -0.984449 0
M  V30 6929 C 696.411 -5.18897 -0.322741 0
M  V30 6930 C 694.096 -4.92963 -0.964011 0
M  V30 6931 C 696.09 -6.3644 0.349646 0
M  V30 6932 C 693.777 -6.10422 -0.287828 0
M  V30 6933 C 694.775 -6.82009 0.36784 0
M  V30 6934 O 694.463 -7.97233 1.03322 0
M  V30 6935 H 694.195 -0.630225 -0.244526 0
M  V30 6936 H 696.749 -2.05152 -0.100847 0
M  V30 6937 H 694.979 -2.95984 -2.48858 0
M  V30 6938 H 696.668 -3.33826 -2.309 0
M  V30 6939 H 697.434 -4.83875 -0.330114 0
M  V30 6940 H 693.313 -4.37143 -1.46379 0
M  V30 6941 H 696.857 -6.92254 0.861996 0
M  V30 6942 H 692.754 -6.449 -0.278237 0
M  V30 6943 H 693.522 -8.13105 0.938247 0
M  V30 6944 N 696.185 0.383891 -1.52853 0
M  V30 6945 C 697.596 0.961591 -1.60032 0
M  V30 6946 C 697.947 1.90819 -0.456333 0
M  V30 6947 O 697.072 2.12288 0.419873 0
M  V30 6948 C 697.667 1.75078 -2.90057 0
M  V30 6949 C 696.226 2.2781 -2.99632 0
M  V30 6950 C 695.373 1.08512 -2.55187 0
M  V30 6951 H 698.324 0.163269 -1.57858 0
M  V30 6952 H 698.345 2.61046 -2.7683 0
M  V30 6953 H 697.857 1.06157 -3.73299 0
M  V30 6954 H 695.958 3.00028 -2.20939 0
M  V30 6955 H 696.071 2.56947 -4.0437 0
M  V30 6956 H 694.435 1.44667 -2.09627 0
M  V30 6957 H 695.218 0.41118 -3.40829 0
M  V30 6958 N 697.663 1.43903 0.642637 0
M  V30 6959 C 698.94 1.36556 1.40043 0
M  V30 6960 C 699.32 0.0185588 2.11092 0
M  V30 6961 O 698.668 -0.998438 2.05532 0
M  V30 6962 C 698.878 2.55596 2.37638 0
M  V30 6963 C 700.226 2.99153 3.01318 0
M  V30 6964 O 701.25 2.55719 2.47965 0
M  V30 6965 O 700.109 3.74427 3.98078 0
M  V30 6966 H 697.203 0.540189 0.626198 0
M  V30 6967 H 699.749 1.55971 0.668657 0
M  V30 6968 H 698.521 3.45256 1.84158 0
M  V30 6969 H 698.144 2.38334 3.18249 0
M  V30 6970 N 699.141 -0.881989 1.30609 0
M  V30 6971 C 700.071 -2.00413 1.1982 0
M  V30 6972 C 701.052 -1.69871 0.0881538 0
M  V30 6973 O 702.237 -1.92304 0.2707 0
M  V30 6974 C 699.367 -3.35641 0.89233 0
M  V30 6975 C 698.321 -3.80451 1.96064 0
M  V30 6976 C 697.647 -5.13003 1.5077 0
M  V30 6977 C 698.947 -3.98855 3.37213 0
M  V30 6978 H 700.641 -2.09698 2.13699 0
M  V30 6979 H 698.187 -1.00754 1.02882 0
M  V30 6980 H 700.14 -4.13669 0.803497 0
M  V30 6981 H 698.864 -3.26497 -0.0821381 0
M  V30 6982 H 697.523 -3.04654 2.03916 0
M  V30 6983 H 697.171 -5.0029 0.521417 0
M  V30 6984 H 696.871 -5.43956 2.22229 0
M  V30 6985 H 698.395 -5.93554 1.43271 0
M  V30 6986 H 699.809 -4.67312 3.32103 0
M  V30 6987 H 698.206 -4.41188 4.06784 0
M  V30 6988 H 699.276 -3.02614 3.78883 0
M  V30 6989 N 700.619 -1.13374 -1.09472 0
M  V30 6990 C 701.868 -0.889844 -1.8101 0
M  V30 6991 C 702.181 0.585686 -1.86625 0
M  V30 6992 O 703.387 0.946497 -2.54467 0
M  V30 6993 C 701.843 -1.54241 -3.25174 0
M  V30 6994 C 701.451 -3.05343 -3.27826 0
M  V30 6995 C 703.195 -1.37919 -4.0147 0
M  V30 6996 C 701.102 -3.63486 -4.6651 0
M  V30 6997 H 700.032 -0.329256 -0.678311 0
M  V30 6998 H 702.683 -1.36139 -1.23038 0
M  V30 6999 H 701.065 -0.998525 -3.83204 0
M  V30 7000 H 702.239 -3.66307 -2.79563 0
M  V30 7001 H 700.554 -3.21175 -2.65019 0
M  V30 7002 H 703.151 -1.78771 -5.03929 0
M  V30 7003 H 703.494 -0.323987 -4.15037 0
M  V30 7004 H 704.027 -1.89284 -3.49881 0
M  V30 7005 H 700.766 -4.68811 -4.58145 0
M  V30 7006 H 700.286 -3.073 -5.15099 0
M  V30 7007 H 701.965 -3.63134 -5.35484 0
M  V30 7008 N 702.098 1.27442 -0.927168 0
M  V30 7009 C 703.344 1.94679 -0.568164 0
M  V30 7010 C 703.677 1.72697 0.888219 0
M  V30 7011 O 702.952 1.05573 1.63354 0
M  V30 7012 C 703.235 3.4882 -0.894253 0
M  V30 7013 C 703.088 3.80146 -2.40435 0
M  V30 7014 C 704.407 4.38281 -0.399766 0
M  V30 7015 H 701.526 0.707071 -0.207892 0
M  V30 7016 H 704.168 1.50568 -1.15885 0
M  V30 7017 H 702.318 3.86522 -0.391566 0
M  V30 7018 H 703.99 3.52238 -2.97869 0
M  V30 7019 H 702.233 3.26716 -2.85375 0
M  V30 7020 H 702.904 4.87835 -2.58304 0
M  V30 7021 H 705.38 4.07726 -0.83058 0
M  V30 7022 H 704.256 5.44955 -0.656885 0
M  V30 7023 H 704.517 4.36521 0.700153 0
M  V30 7024 N 703.576 0.692616 1.41565 0
M  V30 7025 C 704.824 0.221896 2.00878 0
M  V30 7026 C 705.145 -1.18164 1.5512 0
M  V30 7027 O 704.415 -1.79679 0.78054 0
M  V30 7028 H 702.995 0.0790463 0.742806 0
M  V30 7029 H 705.657 0.893115 1.73232 0
M  V30 7030 H 704.753 0.23702 3.11199 0
M  V30 7031 N 705.054 -1.51416 0.437162 0
M  V30 7032 C 706.279 -2.0699 -0.130424 0
M  V30 7033 C 706.704 -1.30249 -1.35709 0
M  V30 7034 O 706.062 -0.340388 -1.78076 0
M  V30 7035 C 706.11 -3.5801 -0.43142 0
M  V30 7036 O 705.214 -3.8345 -1.5179 0
M  V30 7037 H 704.555 -0.663997 -0.00194339 0
M  V30 7038 H 707.085 -1.95029 0.618445 0
M  V30 7039 H 707.095 -4.02261 -0.681926 0
M  V30 7040 H 705.77 -4.13291 0.465137 0
M  V30 7041 H 704.347 -3.51062 -1.25737 0
M  V30 7042 N 706.532 -0.168513 -1.56696 0
M  V30 7043 C 707.779 0.477158 -1.96798 0
M  V30 7044 C 708.107 1.63442 -1.05437 0
M  V30 7045 O 707.362 1.95503 -0.0878903 0
M  V30 7046 C 707.661 1.00441 -3.42996 0
M  V30 7047 C 707.327 -0.0366556 -4.50885 0
M  V30 7048 C 705.989 -0.322785 -4.80116 0
M  V30 7049 C 708.341 -0.743447 -5.1587 0
M  V30 7050 C 705.669 -1.32114 -5.71632 0
M  V30 7051 C 708.021 -1.73077 -6.08463 0
M  V30 7052 C 706.685 -2.02437 -6.36062 0
M  V30 7053 H 705.955 0.174604 -0.720135 0
M  V30 7054 H 708.602 -0.259884 -1.89728 0
M  V30 7055 H 706.907 1.81922 -3.47004 0
M  V30 7056 H 708.604 1.51294 -3.71364 0
M  V30 7057 H 705.194 0.196532 -4.28149 0
M  V30 7058 H 709.378 -0.535602 -4.93401 0
M  V30 7059 H 704.634 -1.55482 -5.913 0
M  V30 7060 H 708.808 -2.28382 -6.57886 0
M  V30 7061 H 706.435 -2.79946 -7.06777 0
M  V30 7062 N 708.01 1.57248 0.105221 0
M  V30 7063 C 709.258 1.85204 0.808951 0
M  V30 7064 C 709.579 0.75574 1.7976 0
M  V30 7065 O 708.849 -0.218984 1.94672 0
M  V30 7066 H 707.429 0.683346 0.301739 0
M  V30 7067 H 710.091 1.94695 0.0892605 0
M  V30 7068 H 709.187 2.81595 1.34575 0
M  V30 7069 N 709.488 -0.375779 1.53054 0
M  V30 7070 C 710.734 -1.12114 1.68992 0
M  V30 7071 C 711.067 -1.8926 0.435238 0
M  V30 7072 O 710.342 -1.86044 -0.567278 0
M  V30 7073 C 710.625 -2.08867 2.93337 0
M  V30 7074 C 710.478 -1.35397 4.28938 0
M  V30 7075 C 711.797 -3.09124 3.13257 0
M  V30 7076 H 708.916 -0.406207 0.614951 0
M  V30 7077 H 711.558 -0.403054 1.85676 0
M  V30 7078 H 709.708 -2.70102 2.79244 0
M  V30 7079 H 711.38 -0.770242 4.54824 0
M  V30 7080 H 709.623 -0.655801 4.28814 0
M  V30 7081 H 710.294 -2.06161 5.12056 0
M  V30 7082 H 712.77 -2.57987 3.26469 0
M  V30 7083 H 711.646 -3.74054 4.01715 0
M  V30 7084 H 711.907 -3.78729 2.28072 0
M  V30 7085 N 710.966 -1.44241 -0.634997 0
M  V30 7086 C 712.243 -1.37296 -1.39317 0
M  V30 7087 C 712.623 -0.0297532 -2.11079 0
M  V30 7088 O 711.971 0.987524 -2.06059 0
M  V30 7089 C 712.181 -2.56853 -2.36279 0
M  V30 7090 C 713.529 -3.00747 -2.99728 0
M  V30 7091 O 714.553 -2.5703 -2.46605 0
M  V30 7092 O 713.412 -3.76533 -3.96087 0
M  V30 7093 H 710.506 -0.543503 -0.623325 0
M  V30 7094 H 713.052 -1.56324 -0.660376 0
M  V30 7095 H 711.824 -3.46228 -1.82324 0
M  V30 7096 H 711.447 -2.40019 -3.16981 0
M  V30 7097 N 712.444 0.87505 -1.31075 0
M  V30 7098 C 713.391 1.98178 -1.18296 0
M  V30 7099 C 714.361 1.65952 -0.0699923 0
M  V30 7100 O 715.546 1.8926 -0.241951 0
M  V30 7101 C 712.686 3.33399 -0.891024 0
M  V30 7102 C 711.799 3.78253 -2.08684 0
M  V30 7103 C 710.934 5.02166 -1.73212 0
M  V30 7104 C 709.973 5.39455 -2.89231 0
M  V30 7105 N 709.11 6.54549 -2.53989 0
M  V30 7106 H 713.95 2.0844 -2.12971 0
M  V30 7107 H 711.487 1.02047 -1.05948 0
M  V30 7108 H 713.445 4.11246 -0.702338 0
M  V30 7109 H 712.075 3.22794 0.0188799 0
M  V30 7110 H 711.127 2.9623 -2.38646 0
M  V30 7111 H 712.439 4.01821 -2.95536 0
M  V30 7112 H 711.593 5.87666 -1.50777 0
M  V30 7113 H 710.332 4.80491 -0.83544 0
M  V30 7114 H 709.337 4.52477 -3.12321 0
M  V30 7115 H 710.562 5.63098 -3.79601 0
M  V30 7116 H 708.508 6.3443 -1.66838 0
M  V30 7117 H 708.425 6.78035 -3.34372 0
M  V30 7118 H 709.693 7.43254 -2.34934 0
M  V30 7119 N 713.922 1.13953 1.08869 0
M  V30 7120 C 714.885 0.824991 2.13838 0
M  V30 7121 C 715.885 -0.168198 1.59918 0
M  V30 7122 O 717.075 0.0595778 1.74098 0
M  V30 7123 C 714.207 0.228938 3.4013 0
M  V30 7124 H 715.4 1.75521 2.43171 0
M  V30 7125 H 712.953 0.94492 1.24503 0
M  V30 7126 H 713.688 -0.710227 3.16427 0
M  V30 7127 H 713.473 0.944243 3.80561 0
M  V30 7128 H 714.963 0.0259223 4.17592 0
M  V30 7129 N 715.4 -1.26948 0.933913 0
M  V30 7130 C 716.646 -1.94374 0.57848 0
M  V30 7131 C 716.979 -1.73166 -0.879048 0
M  V30 7132 O 716.254 -1.06438 -1.62792 0
M  V30 7133 C 716.537 -3.4834 0.912739 0
M  V30 7134 C 716.39 -3.78866 2.42448 0
M  V30 7135 C 717.709 -4.38062 0.423003 0
M  V30 7136 H 714.828 -0.705959 0.211639 0
M  V30 7137 H 717.47 -1.49951 1.16682 0
M  V30 7138 H 715.62 -3.86309 0.412058 0
M  V30 7139 H 717.292 -3.50654 2.99733 0
M  V30 7140 H 715.535 -3.25198 2.87104 0
M  V30 7141 H 716.206 -4.86458 2.60887 0
M  V30 7142 H 718.682 -4.0728 0.852191 0
M  V30 7143 H 717.558 -5.44599 0.685776 0
M  V30 7144 H 717.819 -4.36886 -0.676994 0
M  V30 7145 N 716.879 -0.700114 -1.41195 0
M  V30 7146 C 718.125 -0.233351 -2.01453 0
M  V30 7147 C 718.458 1.16548 -1.55339 0
M  V30 7148 O 717.733 1.78756 -0.766575 0
M  V30 7149 C 718.016 -0.2961 -3.58881 0
M  V30 7150 C 717.869 -1.7322 -4.15108 0
M  V30 7151 C 719.188 0.341525 -4.38773 0
M  V30 7152 H 716.307 -0.0862667 -0.731934 0
M  V30 7153 H 718.949 -0.889693 -1.67882 0
M  V30 7154 H 717.099 0.262736 -3.87611 0
M  V30 7155 H 718.771 -2.34523 -3.97236 0
M  V30 7156 H 717.014 -2.2649 -3.69979 0
M  V30 7157 H 717.685 -1.7276 -5.24269 0
M  V30 7158 H 720.161 -0.134461 -4.15883 0
M  V30 7159 H 719.037 0.267098 -5.4825 0
M  V30 7160 H 719.298 1.42289 -4.18577 0
M  V30 7161 N 718.357 1.51182 -0.445186 0
M  V30 7162 C 719.587 2.06269 0.116922 0
M  V30 7163 C 719.995 1.31188 1.36332 0
M  V30 7164 O 719.338 0.367067 1.79995 0
M  V30 7165 C 719.4 3.56051 0.496757 0
M  V30 7166 C 719.064 4.52441 -0.64394 0
M  V30 7167 C 720.061 4.97233 -1.5184 0
M  V30 7168 C 717.746 4.95447 -0.826905 0
M  V30 7169 C 719.74 5.83712 -2.56046 0
M  V30 7170 C 717.427 5.81714 -1.87222 0
M  V30 7171 C 718.425 6.25745 -2.73738 0
M  V30 7172 O 718.113 7.10298 -3.76474 0
M  V30 7173 H 717.845 0.675954 0.00785733 0
M  V30 7174 H 720.399 1.95648 -0.625371 0
M  V30 7175 H 718.629 3.64483 1.29187 0
M  V30 7176 H 720.318 3.93618 0.990928 0
M  V30 7177 H 721.084 4.64696 -1.38862 0
M  V30 7178 H 716.963 4.60712 -0.163052 0
M  V30 7179 H 720.507 6.18 -3.23607 0
M  V30 7180 H 716.404 6.13664 -2.00218 0
M  V30 7181 H 717.172 7.28493 -3.73149 0
M  V30 7182 N 719.835 0.176821 1.56605 0
M  V30 7183 C 721.251 -0.179278 1.5859 0
M  V30 7184 C 721.451 -1.62433 1.19238 0
M  V30 7185 O 720.507 -2.35665 0.906552 0
M  V30 7186 C 721.82 0.106524 3.00511 0
M  V30 7187 C 723.368 0.0451731 3.12967 0
M  V30 7188 C 723.843 0.304038 4.5699 0
M  V30 7189 N 725.334 0.252008 4.62514 0
M  V30 7190 C 726.069 0.426404 5.71812 0
M  V30 7191 N 725.565 0.660155 6.89648 0
M  V30 7192 N 727.358 0.361926 5.60934 0
M  V30 7193 H 719.509 1.12001 1.8047 0
M  V30 7194 H 721.772 0.445679 0.836704 0
M  V30 7195 H 721.478 1.10778 3.33798 0
M  V30 7196 H 721.352 -0.599337 3.72408 0
M  V30 7197 H 723.739 -0.946662 2.79504 0
M  V30 7198 H 723.82 0.78383 2.43495 0
M  V30 7199 H 723.464 1.29311 4.91163 0
M  V30 7200 H 723.394 -0.455294 5.24628 0
M  V30 7201 H 725.885 0.0772102 3.77821 0
M  V30 7202 H 726.198 0.782529 7.68828 0
M  V30 7203 H 724.543 0.696835 6.91498 0
M  V30 7204 H 727.734 0.17986 4.67754 0
M  V30 7205 H 727.907 0.501263 6.46058 0
M  V30 7206 N 721.313 -1.57302 -0.09688 0
M  V30 7207 C 722.561 -1.8563 -0.799117 0
M  V30 7208 C 722.882 -0.765263 -1.79356 0
M  V30 7209 O 722.152 0.208657 -1.94786 0
M  V30 7210 H 720.732 -0.684937 -0.298111 0
M  V30 7211 H 723.394 -1.9474 -0.0789341 0
M  V30 7212 H 722.49 -2.82305 -1.3308 0
M  V30 7213 N 722.791 0.367657 -1.53252 0
M  V30 7214 C 724.207 0.709191 -1.42978 0
M  V30 7215 C 724.407 1.93352 -0.567193 0
M  V30 7216 O 723.463 2.52453 -0.0488349 0
M  V30 7217 C 724.776 0.924338 -2.86141 0
M  V30 7218 C 726.324 1.02448 -2.95759 0
M  V30 7219 C 726.799 1.27211 -4.39979 0
M  V30 7220 N 728.29 1.33986 -4.43398 0
M  V30 7221 C 729.025 1.54852 -5.52095 0
M  V30 7222 N 728.521 1.73049 -6.7084 0
M  V30 7223 N 730.314 1.57205 -5.39669 0
M  V30 7224 H 722.465 -0.437669 -2.07842 0
M  V30 7225 H 724.728 -0.133737 -0.938519 0
M  V30 7226 H 724.434 0.0965455 -3.51567 0
M  V30 7227 H 724.308 1.83302 -3.29667 0
M  V30 7228 H 726.695 1.84282 -2.30487 0
M  V30 7229 H 726.776 0.0932301 -2.5563 0
M  V30 7230 H 726.42 0.458792 -5.05824 0
M  V30 7231 H 726.35 2.21654 -4.77679 0
M  V30 7232 H 728.841 1.21545 -3.5782 0
M  V30 7233 H 729.154 1.88538 -7.49449 0
M  V30 7234 H 727.499 1.70231 -6.7383 0
M  V30 7235 H 730.69 1.42555 -4.45865 0
M  V30 7236 H 730.863 1.73126 -6.24445 0
M  V30 7237 N 724.269 1.44576 0.627338 0
M  V30 7238 C 725.68 1.42266 1.20902 0
M  V30 7239 C 726.031 0.139964 1.957 0
M  V30 7240 O 725.156 -0.759489 2.02634 0
M  V30 7241 C 725.751 2.57727 2.19914 0
M  V30 7242 C 724.31 2.58599 2.73502 0
M  V30 7243 C 723.457 2.34145 1.48564 0
M  V30 7244 H 726.408 1.53102 0.417791 0
M  V30 7245 H 726.429 2.30697 3.02588 0
M  V30 7246 H 725.941 3.51068 1.65447 0
M  V30 7247 H 724.042 1.6921 3.31962 0
M  V30 7248 H 724.155 3.57205 3.19282 0
M  V30 7249 H 722.519 1.83313 1.76829 0
M  V30 7250 H 723.302 3.29606 0.959935 0
M  V30 7251 N 725.747 -0.868086 1.31537 0
M  V30 7252 C 726.996 -1.61607 1.20689 0
M  V30 7253 C 727.309 -1.94204 -0.233275 0
M  V30 7254 O 728.515 -2.67515 -0.463465 0
M  V30 7255 C 726.971 -2.91348 2.11292 0
M  V30 7256 C 726.579 -2.66227 3.60315 0
M  V30 7257 C 728.323 -3.69344 2.09249 0
M  V30 7258 C 726.23 -3.91887 4.42921 0
M  V30 7259 H 725.16 -0.606373 0.448138 0
M  V30 7260 H 727.811 -0.959666 1.56405 0
M  V30 7261 H 726.193 -3.58374 1.68477 0
M  V30 7262 H 727.367 -2.07597 4.11388 0
M  V30 7263 H 725.682 -2.01582 3.64354 0
M  V30 7264 H 728.279 -4.62567 2.68209 0
M  V30 7265 H 728.622 -4.02044 1.0801 0
M  V30 7266 H 729.155 -3.09205 2.50274 0
M  V30 7267 H 725.894 -3.64336 5.44922 0
M  V30 7268 H 725.414 -4.49961 3.96605 0
M  V30 7269 H 727.093 -4.59754 4.55231 0
M  V30 7270 N 727.225 -1.14528 -1.08264 0
M  V30 7271 C 728.471 -0.91576 -1.80947 0
M  V30 7272 C 728.804 0.55623 -1.86064 0
M  V30 7273 O 728.079 1.41207 -1.33756 0
M  V30 7274 C 728.362 -1.51917 -3.26486 0
M  V30 7275 C 728.215 -3.06111 -3.2957 0
M  V30 7276 C 729.534 -1.19724 -4.23502 0
M  V30 7277 H 726.653 -0.334113 -0.656915 0
M  V30 7278 H 729.295 -1.41547 -1.26746 0
M  V30 7279 H 727.445 -1.0942 -3.72773 0
M  V30 7280 H 729.117 -3.57448 -2.91597 0
M  V30 7281 H 727.36 -3.40483 -2.688 0
M  V30 7282 H 728.031 -3.43438 -4.32151 0
M  V30 7283 H 730.507 -1.56467 -3.85561 0
M  V30 7284 H 729.383 -1.64575 -5.23647 0
M  V30 7285 H 729.644 -0.112771 -4.41956 0
M  V30 7286 N 728.703 1.26451 -0.940633 0
M  V30 7287 C 729.928 1.98407 -0.60412 0
M  V30 7288 C 730.353 1.69584 0.81382 0
M  V30 7289 O 729.711 0.943553 1.54812 0
M  V30 7290 C 729.759 3.50387 -0.852136 0
M  V30 7291 O 728.863 4.1233 0.076013 0
M  V30 7292 H 728.204 0.622466 -0.231153 0
M  V30 7293 H 730.734 1.60932 -1.26342 0
M  V30 7294 H 730.744 4.00614 -0.772816 0
M  V30 7295 H 729.419 3.70696 -1.88566 0
M  V30 7296 H 727.996 3.7286 -0.0543187 0
M  V30 7297 N 730.181 0.707592 1.40822 0
M  V30 7298 C 731.144 0.0587224 2.29125 0
M  V30 7299 C 732.144 -0.695624 1.44975 0
M  V30 7300 O 733.334 -0.528718 1.65983 0
M  V30 7301 C 730.466 -0.926939 3.28056 0
M  V30 7302 H 731.659 0.836349 2.88002 0
M  V30 7303 H 729.212 0.471778 1.4901 0
M  V30 7304 H 729.947 -1.7319 2.74182 0
M  V30 7305 H 729.732 -0.389015 3.90165 0
M  V30 7306 H 731.222 -1.37837 3.94196 0
M  V30 7307 N 731.66 -1.50943 0.453197 0
M  V30 7308 C 732.885 -2.07116 -0.108463 0
M  V30 7309 C 733.31 -1.31681 -1.3432 0
M  V30 7310 O 732.668 -0.359256 -1.77705 0
M  V30 7311 C 732.716 -3.58447 -0.393424 0
M  V30 7312 O 731.82 -3.85038 -1.47714 0
M  V30 7313 H 731.161 -0.66398 0.0050993 0
M  V30 7314 H 733.691 -1.94362 0.639095 0
M  V30 7315 H 733.701 -4.02961 -0.639222 0
M  V30 7316 H 732.376 -4.12774 0.508946 0
M  V30 7317 H 730.953 -3.52376 -1.22006 0
M  V30 7318 N 733.138 -0.185124 -1.56509 0
M  V30 7319 C 734.101 0.72591 -2.17401 0
M  V30 7320 C 735.101 1.14819 -1.12575 0
M  V30 7321 O 736.291 1.0629 -1.38015 0
M  V30 7322 C 733.423 1.98979 -2.76803 0
M  V30 7323 H 734.616 0.195588 -2.99262 0
M  V30 7324 H 732.169 0.0644772 -1.56167 0
M  V30 7325 H 732.904 2.56287 -1.98714 0
M  V30 7326 H 732.689 1.69583 -3.53531 0
M  V30 7327 H 734.179 2.63966 -3.23592 0
M  V30 7328 N 734.616 1.57351 0.0885366 0
M  V30 7329 C 735.841 1.91011 0.80805 0
M  V30 7330 C 736.266 0.780009 1.71165 0
M  V30 7331 O 735.624 -0.268083 1.79307 0
M  V30 7332 C 735.672 3.23562 1.59185 0
M  V30 7333 O 734.776 3.11615 2.7013 0
M  V30 7334 H 734.117 0.625943 0.221565 0
M  V30 7335 H 736.647 2.04507 0.0617954 0
M  V30 7336 H 736.657 3.5703 1.97468 0
M  V30 7337 H 735.332 4.05398 0.928741 0
M  V30 7338 H 733.909 2.89673 2.34827 0
M  V30 7339 N 736.094 -0.359525 1.53444 0
M  V30 7340 C 737.024 -1.44662 1.8329 0
M  V30 7341 C 738.005 -1.55617 0.68683 0
M  V30 7342 O 739.19 -1.70086 0.93725 0
M  V30 7343 C 736.32 -2.81923 2.02822 0
M  V30 7344 C 735.274 -2.85787 3.18606 0
M  V30 7345 C 734.6 -4.25781 3.23442 0
M  V30 7346 C 735.9 -2.52762 4.57065 0
M  V30 7347 H 737.594 -1.19934 2.74329 0
M  V30 7348 H 735.14 -0.575517 1.31999 0
M  V30 7349 H 737.093 -3.58005 2.22285 0
M  V30 7350 H 735.817 -3.08051 1.085 0
M  V30 7351 H 734.476 -2.12157 2.98973 0
M  V30 7352 H 734.124 -4.48994 2.26745 0
M  V30 7353 H 733.824 -4.29281 4.01238 0
M  V30 7354 H 735.348 -5.03727 3.45096 0
M  V30 7355 H 736.762 -3.18557 4.76649 0
M  V30 7356 H 735.159 -2.67569 5.37147 0
M  V30 7357 H 736.229 -1.47993 4.61764 0
M  V30 7358 N 737.572 -1.44907 -0.619662 0
M  V30 7359 C 738.8 -1.51795 -1.40591 0
M  V30 7360 C 739.215 -0.146553 -1.8823 0
M  V30 7361 O 738.572 0.849698 -1.61513 0
M  V30 7362 C 738.623 -2.49229 -2.61853 0
M  V30 7363 O 738.344 -3.81039 -2.16197 0
M  V30 7364 C 739.845 -2.65696 -3.54853 0
M  V30 7365 H 737.065 -0.514463 -0.430777 0
M  V30 7366 H 739.609 -1.8998 -0.756813 0
M  V30 7367 H 737.764 -2.14149 -3.2283 0
M  V30 7368 H 738.178 -4.33747 -2.94896 0
M  V30 7369 H 739.652 -3.37874 -4.36515 0
M  V30 7370 H 740.129 -1.71316 -4.0441 0
M  V30 7371 H 740.735 -3.01724 -2.99737 0
M  V30 7372 N 739.05 0.861098 -1.31996 0
M  V30 7373 C 740.299 1.60965 -1.21545 0
M  V30 7374 C 740.612 1.94325 0.222972 0
M  V30 7375 O 741.818 2.67757 0.449272 0
M  V30 7376 C 740.274 2.90223 -2.12834 0
M  V30 7377 C 739.882 2.64313 -3.61722 0
M  V30 7378 C 741.626 3.68229 -2.11205 0
M  V30 7379 C 739.533 3.89532 -4.44993 0
M  V30 7380 H 738.463 0.603988 -0.451348 0
M  V30 7381 H 741.114 0.951358 -1.56912 0
M  V30 7382 H 739.496 3.57475 -1.70375 0
M  V30 7383 H 740.67 2.05413 -4.12483 0
M  V30 7384 H 738.985 1.99647 -3.65418 0
M  V30 7385 H 741.582 4.61138 -2.70658 0
M  V30 7386 H 741.925 4.01466 -1.1014 0
M  V30 7387 H 742.458 3.07873 -2.51911 0
M  V30 7388 H 739.197 3.61441 -5.46846 0
M  V30 7389 H 738.717 4.47851 -3.98985 0
M  V30 7390 H 740.396 4.57334 -4.57663 0
M  V30 7391 N 740.528 1.15101 1.07655 0
M  V30 7392 C 741.775 0.923974 1.80191 0
M  V30 7393 C 742.103 -0.549065 1.86589 0
M  V30 7394 O 741.358 -1.42307 1.3434 0
M  V30 7395 C 741.657 1.47954 3.25337 0
M  V30 7396 C 741.323 2.97253 3.39044 0
M  V30 7397 C 739.985 3.38012 3.42493 0
M  V30 7398 C 742.337 3.93219 3.42094 0
M  V30 7399 C 739.665 4.73384 3.4659 0
M  V30 7400 C 742.017 5.28458 3.47728 0
M  V30 7401 C 740.681 5.68717 3.49453 0
M  V30 7402 H 739.951 0.338106 0.659367 0
M  V30 7403 H 742.598 1.43594 1.26701 0
M  V30 7404 H 740.903 0.888691 3.81588 0
M  V30 7405 H 742.6 1.27972 3.80032 0
M  V30 7406 H 739.19 2.64746 3.37057 0
M  V30 7407 H 743.374 3.62805 3.38654 0
M  V30 7408 H 738.63 5.03925 3.46222 0
M  V30 7409 H 742.804 6.02618 3.49034 0
M  V30 7410 H 740.431 6.73596 3.5238 0
M  V30 7411 N 742.006 -1.2595 0.947325 0
M  V30 7412 C 743.417 -1.75389 0.639963 0
M  V30 7413 C 743.768 -1.77081 -0.844788 0
M  V30 7414 O 742.893 -1.3869 -1.66114 0
M  V30 7415 C 743.488 -3.18506 1.15496 0
M  V30 7416 C 742.047 -3.65534 0.897894 0
M  V30 7417 C 741.194 -2.44818 1.30228 0
M  V30 7418 H 744.145 -1.1194 1.12495 0
M  V30 7419 H 744.166 -3.77045 0.511627 0
M  V30 7420 H 743.678 -3.17243 2.23559 0
M  V30 7421 H 741.779 -3.72221 -0.168096 0
M  V30 7422 H 741.892 -4.54039 1.52922 0
M  V30 7423 H 740.256 -2.44291 0.720678 0
M  V30 7424 H 741.039 -2.46251 2.39198 0
M  V30 7425 N 743.484 -0.715051 -1.40445 0
M  V30 7426 C 744.447 -0.0708726 -2.2909 0
M  V30 7427 C 745.447 0.687926 -1.45342 0
M  V30 7428 O 746.637 0.519908 -1.66261 0
M  V30 7429 C 743.769 0.909528 -3.28543 0
M  V30 7430 H 744.962 -0.851611 -2.87555 0
M  V30 7431 H 742.515 -0.479674 -1.48758 0
M  V30 7432 H 743.25 1.71734 -2.75096 0
M  V30 7433 H 743.035 0.368318 -3.90366 0
M  V30 7434 H 744.525 1.35744 -3.94922 0
M  V30 7435 N 744.962 1.50701 -0.461195 0
M  V30 7436 C 745.895 2.24948 0.383863 0
M  V30 7437 C 746.873 1.27851 1.00464 0
M  V30 7438 O 748.057 1.57049 1.04249 0
M  V30 7439 C 745.184 3.01818 1.537 0
M  V30 7440 C 744.23 4.13762 1.03457 0
M  V30 7441 S 745.063 5.35483 -0.0427485 0
M  V30 7442 C 746.219 6.15898 1.11449 0
M  V30 7443 H 746.452 2.96277 -0.246425 0
M  V30 7444 H 743.985 1.52428 -0.245961 0
M  V30 7445 H 745.943 3.467 2.19794 0
M  V30 7446 H 744.604 2.30034 2.13877 0
M  V30 7447 H 743.797 4.66914 1.89757 0
M  V30 7448 H 743.399 3.71265 0.4515 0
M  V30 7449 H 745.691 6.46431 2.02813 0
M  V30 7450 H 746.634 7.05359 0.622444 0
M  V30 7451 H 747.042 5.47777 1.36385 0
M  V30 7452 N 746.441 0.193421 1.56409 0
M  V30 7453 C 747.688 -0.445789 1.97532 0
M  V30 7454 C 748.016 -1.61744 1.08024 0
M  V30 7455 O 747.271 -1.95338 0.118982 0
M  V30 7456 C 747.57 -0.949718 3.44551 0
M  V30 7457 C 747.236 0.108383 4.5077 0
M  V30 7458 C 745.898 0.399126 4.79542 0
M  V30 7459 C 748.25 0.825423 5.14622 0
M  V30 7460 C 745.578 1.41192 5.69457 0
M  V30 7461 C 747.93 1.82735 6.05632 0
M  V30 7462 C 746.594 2.12531 6.32761 0
M  V30 7463 H 745.864 -0.163126 0.722822 0
M  V30 7464 H 748.511 0.290035 1.89291 0
M  V30 7465 H 746.816 -1.76378 3.49854 0
M  V30 7466 H 748.513 -1.45367 3.73724 0
M  V30 7467 H 745.103 -0.128392 4.28408 0
M  V30 7468 H 749.287 0.61403 4.92487 0
M  V30 7469 H 744.543 1.6487 5.88751 0
M  V30 7470 H 748.717 2.3882 6.5417 0
M  V30 7471 H 746.344 2.91155 7.02234 0
M  V30 7472 N 747.919 -1.57396 -0.0801906 0
M  V30 7473 C 748.867 -2.04136 -1.11495 0
M  V30 7474 C 749.861 -0.945137 -1.40583 0
M  V30 7475 O 751.067 -1.13028 -1.40088 0
M  V30 7476 H 747.442 -0.65076 -0.37685 0
M  V30 7477 H 749.413 -2.90205 -0.694526 0
M  V30 7478 C 748.162 -2.49399 -2.42272 0
M  V30 7479 H 747.485 -3.33339 -2.20737 0
M  V30 7480 H 748.925 -2.85864 -3.13142 0
M  V30 7481 C 747.384 -1.37341 -3.07635 0
M  V30 7482 O 747.914 -0.710829 -3.95361 0
M  V30 7483 N 746.12 -1.12064 -2.68123 0
M  V30 7484 H 745.667 -1.66126 -1.96875 0
M  V30 7485 H 745.625 -0.372916 -3.12181 0
M  V30 7486 N 749.397 0.351382 -1.53633 0
M  V30 7487 C 750.808 0.927429 -1.62036 0
M  V30 7488 C 751.159 1.89809 -0.496706 0
M  V30 7489 O 750.284 2.1313 0.374749 0
M  V30 7490 C 750.879 1.68886 -2.93706 0
M  V30 7491 C 749.438 2.21404 -3.04397 0
M  V30 7492 C 748.585 1.03075 -2.57431 0
M  V30 7493 H 751.536 0.129748 -1.58169 0
M  V30 7494 H 751.557 2.55116 -2.82305 0
M  V30 7495 H 751.069 0.982149 -3.75467 0
M  V30 7496 H 749.17 2.95274 -2.27253 0
M  V30 7497 H 749.283 2.48312 -4.09729 0
M  V30 7498 H 747.647 1.40188 -2.12649 0
M  V30 7499 H 748.43 0.338793 -3.41624 0
M  V30 7500 N 750.875 1.45233 0.611969 0
M  V30 7501 C 751.785 1.56098 1.7513 0
M  V30 7502 C 752.801 0.445646 1.68196 0
M  V30 7503 O 753.977 0.705718 1.88631 0
M  V30 7504 C 751.042 1.52052 3.11579 0
M  V30 7505 C 750.103 2.74589 3.29999 0
M  V30 7506 C 749.336 2.70726 4.59938 0
M  V30 7507 O 749.559 1.77806 5.41979 0
M  V30 7508 O 748.493 3.61864 4.80976 0
M  V30 7509 H 752.319 2.52392 1.68914 0
M  V30 7510 H 749.904 1.27695 0.775528 0
M  V30 7511 H 751.786 1.52387 3.92882 0
M  V30 7512 H 750.461 0.589085 3.18295 0
M  V30 7513 H 749.368 2.79817 2.48301 0
M  V30 7514 H 750.701 3.66843 3.28157 0
M  V30 7515 N 752.353 -0.854086 1.3245 0
M  V30 7516 C 753.263 -1.99503 1.23434 0
M  V30 7517 C 754.279 -1.73371 0.147828 0
M  V30 7518 O 755.455 -1.97998 0.368609 0
M  V30 7519 C 752.52 -3.33192 0.958328 0
M  V30 7520 C 751.581 -3.72542 2.13333 0
M  V30 7521 C 750.814 -4.99852 1.8704 0
M  V30 7522 O 751.037 -5.64573 0.813239 0
M  V30 7523 O 749.971 -5.36345 2.73161 0
M  V30 7524 H 753.797 -2.10046 2.1935 0
M  V30 7525 H 751.382 -0.984823 1.12346 0
M  V30 7526 H 753.264 -4.13327 0.820918 0
M  V30 7527 H 751.939 -3.23687 0.0293299 0
M  V30 7528 H 750.846 -2.92981 2.32622 0
M  V30 7529 H 752.179 -3.86694 3.04514 0
M  V30 7530 N 753.831 -1.1567 -1.07043 0
M  V30 7531 C 755.247 -0.900006 -1.31803 0
M  V30 7532 C 755.447 0.451293 -1.96381 0
M  V30 7533 O 754.503 1.19252 -2.22565 0
M  V30 7534 C 755.816 -2.04334 -2.20609 0
M  V30 7535 C 757.364 -2.07823 -2.34048 0
M  V30 7536 C 757.839 -3.21488 -3.26204 0
M  V30 7537 N 759.33 -3.21156 -3.33786 0
M  V30 7538 C 760.065 -4.05746 -4.05163 0
M  V30 7539 N 759.561 -5.00407 -4.79129 0
M  V30 7540 N 761.354 -3.93759 -4.01136 0
M  V30 7541 H 753.505 -2.02681 -0.635146 0
M  V30 7542 H 755.768 -0.883956 -0.342528 0
M  V30 7543 H 755.474 -3.01895 -1.80423 0
M  V30 7544 H 755.348 -1.97838 -3.21154 0
M  V30 7545 H 757.735 -1.1086 -2.73485 0
M  V30 7546 H 757.816 -2.18386 -1.33197 0
M  V30 7547 H 757.46 -4.18706 -2.87485 0
M  V30 7548 H 757.39 -3.08162 -4.27017 0
M  V30 7549 H 759.881 -2.52606 -2.81067 0
M  V30 7550 H 760.194 -5.61387 -5.31097 0
M  V30 7551 H 758.539 -5.04393 -4.78135 0
M  V30 7552 H 761.73 -3.19115 -3.42466 0
M  V30 7553 H 761.903 -4.59906 -4.56498 0
M  V30 7554 N 755.309 1.25446 -0.953992 0
M  V30 7555 C 756.534 1.97755 -0.625129 0
M  V30 7556 C 756.959 1.70437 0.795787 0
M  V30 7557 O 756.317 0.95992 1.53803 0
M  V30 7558 C 756.365 3.49463 -0.889251 0
M  V30 7559 O 755.469 4.12387 0.0322757 0
M  V30 7560 H 754.81 0.61998 -0.237742 0
M  V30 7561 H 757.34 1.59582 -1.28041 0
M  V30 7562 H 757.35 3.99772 -0.815263 0
M  V30 7563 H 756.025 3.68676 -1.92487 0
M  V30 7564 H 754.602 3.72782 -0.0938625 0
M  V30 7565 N 756.787 0.722489 1.40064 0
M  V30 7566 C 758.027 0.269491 2.02616 0
M  V30 7567 C 758.391 -1.11835 1.56067 0
M  V30 7568 O 759.592 -1.66873 2.1073 0
M  V30 7569 C 757.863 0.354066 3.55642 0
M  V30 7570 S 759.422 -0.0209309 4.38795 0
M  V30 7571 H 756.24 0.106412 0.702992 0
M  V30 7572 H 758.842 0.946237 1.71075 0
M  V30 7573 H 757.546 1.36565 3.87012 0
M  V30 7574 H 757.077 -0.340925 3.9192 0
M  V30 7575 H 759.092 -1.24093 4.80432 0
M  V30 7576 N 758.265 -1.50454 0.469181 0
M  V30 7577 C 759.49 -2.0722 -0.0864892 0
M  V30 7578 C 759.915 -1.33098 -1.32916 0
M  V30 7579 O 759.273 -0.378084 -1.77314 0
M  V30 7580 C 759.321 -3.58845 -0.355384 0
M  V30 7581 O 758.425 -3.86583 -1.43622 0
M  V30 7582 H 757.766 -0.663889 0.0121414 0
M  V30 7583 H 760.296 -1.93674 0.659674 0
M  V30 7584 H 760.306 -4.03617 -0.596447 0
M  V30 7585 H 758.981 -4.12211 0.552698 0
M  V30 7586 H 757.558 -3.5365 -1.18262 0
M  V30 7587 N 759.743 -0.201713 -1.56304 0
M  V30 7588 C 760.673 0.71155 -2.22394 0
M  V30 7589 C 761.654 1.21625 -1.18917 0
M  V30 7590 O 762.839 1.26388 -1.47444 0
M  V30 7591 C 759.969 1.92837 -2.88845 0
M  V30 7592 C 758.923 1.55831 -3.98623 0
M  V30 7593 C 758.249 2.85228 -4.52271 0
M  V30 7594 C 759.549 0.763249 -5.16693 0
M  V30 7595 H 761.243 0.160573 -2.98969 0
M  V30 7596 H 758.789 0.0757916 -1.438 0
M  V30 7597 H 760.742 2.57253 -3.33764 0
M  V30 7598 H 759.466 2.50398 -2.09686 0
M  V30 7599 H 758.125 0.9377 -3.54405 0
M  V30 7600 H 757.773 3.40893 -3.69866 0
M  V30 7601 H 757.473 2.6121 -5.26349 0
M  V30 7602 H 758.997 3.50622 -4.99897 0
M  V30 7603 H 760.411 1.31066 -5.58117 0
M  V30 7604 H 758.808 0.620935 -5.96879 0
M  V30 7605 H 759.878 -0.234322 -4.84334 0
M  V30 7606 N 761.222 1.57436 0.0718424 0
M  V30 7607 C 762.132 2.07039 1.10326 0
M  V30 7608 C 763.148 0.999918 1.424 0
M  V30 7609 O 764.324 1.31462 1.52577 0
M  V30 7610 C 761.389 2.50439 2.39752 0
M  V30 7611 C 760.45 3.71784 2.14651 0
M  V30 7612 C 759.683 4.13104 3.37906 0
M  V30 7613 O 759.906 3.54298 4.47023 0
M  V30 7614 O 758.84 5.05894 3.26121 0
M  V30 7615 H 762.666 2.95239 0.711872 0
M  V30 7616 H 760.251 1.46638 0.28597 0
M  V30 7617 H 762.133 2.78876 3.15921 0
M  V30 7618 H 760.808 1.65368 2.78271 0
M  V30 7619 H 759.715 3.48431 1.36187 0
M  V30 7620 H 761.048 4.57707 1.81012 0
M  V30 7621 N 762.7 -0.34323 1.53817 0
M  V30 7622 C 763.948 -1.0813 1.70741 0
M  V30 7623 C 764.269 -1.89165 0.473461 0
M  V30 7624 O 763.539 -1.89075 -0.512605 0
M  V30 7625 H 762.119 -0.40219 0.629486 0
M  V30 7626 H 764.781 -0.384426 1.91071 0
M  V30 7627 H 763.877 -1.7585 2.57843 0
M  V30 7628 N 764.178 -1.45556 -0.604258 0
M  V30 7629 C 765.126 -1.5482 -1.7359 0
M  V30 7630 C 766.12 -0.417966 -1.64163 0
M  V30 7631 O 767.326 -0.594007 -1.69916 0
M  V30 7632 H 763.701 -0.486352 -0.573556 0
M  V30 7633 H 765.672 -2.5001 -1.62903 0
M  V30 7634 C 764.421 -1.53521 -3.11972 0
M  V30 7635 H 763.744 -2.39818 -3.19886 0
M  V30 7636 H 765.184 -1.64061 -3.90973 0
M  V30 7637 C 763.643 -0.260191 -3.35894 0
M  V30 7638 O 764.173 0.658582 -3.96265 0
M  V30 7639 N 762.379 -0.154839 -2.90187 0
M  V30 7640 H 761.926 -0.903378 -2.4124 0
M  V30 7641 H 761.884 0.697437 -3.06567 0
M  V30 7642 N 765.656 0.84705 -1.32902 0
M  V30 7643 C 767.067 1.41785 -1.21466 0
M  V30 7644 C 767.418 1.95464 0.169767 0
M  V30 7645 O 766.543 1.88157 1.06892 0
M  V30 7646 C 767.138 2.57734 -2.19906 0
M  V30 7647 C 765.697 3.10791 -2.12334 0
M  V30 7648 C 764.844 1.83562 -2.07847 0
M  V30 7649 H 767.795 0.653532 -1.44619 0
M  V30 7650 H 767.816 3.35123 -1.80202 0
M  V30 7651 H 767.328 2.18635 -3.20656 0
M  V30 7652 H 765.429 3.54455 -1.14858 0
M  V30 7653 H 765.542 3.71519 -3.02506 0
M  V30 7654 H 763.906 2.03475 -1.53199 0
M  V30 7655 H 764.689 1.4667 -3.10392 0
M  V30 7656 N 767.134 1.16236 1.06428 0
M  V30 7657 C 768.38 0.944431 1.79467 0
M  V30 7658 C 768.713 -0.526558 1.86925 0
M  V30 7659 O 767.988 -1.39061 1.35986 0
M  V30 7660 C 768.271 1.57092 3.24028 0
M  V30 7661 C 768.124 3.11315 3.24658 0
M  V30 7662 C 769.443 1.26447 4.21544 0
M  V30 7663 H 766.562 0.344521 0.651517 0
M  V30 7664 H 769.204 1.43545 1.24478 0
M  V30 7665 H 767.354 1.15337 3.70985 0
M  V30 7666 H 769.026 3.62042 2.85873 0
M  V30 7667 H 767.269 3.44716 2.6335 0
M  V30 7668 H 767.94 3.50269 4.26633 0
M  V30 7669 H 770.416 1.62581 3.83023 0
M  V30 7670 H 769.292 1.72885 5.20963 0
M  V30 7671 H 769.553 0.183068 4.41721 0
M  V30 7672 N 768.612 -1.24939 0.960631 0
M  V30 7673 C 769.575 -2.239 0.49006 0
M  V30 7674 C 770.575 -1.55497 -0.409535 0
M  V30 7675 O 771.765 -1.72978 -0.205984 0
M  V30 7676 C 768.897 -3.39654 -0.291193 0
M  V30 7677 H 770.09 -2.67044 1.36482 0
M  V30 7678 H 767.643 -1.37429 0.744505 0
M  V30 7679 H 768.378 -3.01939 -1.18336 0
M  V30 7680 H 768.163 -3.90496 0.354276 0
M  V30 7681 H 769.653 -4.13125 -0.609693 0
M  V30 7682 N 770.09 -0.729906 -1.39679 0
M  V30 7683 C 771.33 -0.280232 -2.0247 0
M  V30 7684 C 771.694 1.11006 -1.56658 0
M  V30 7685 O 772.895 1.65753 -2.11612 0
M  V30 7686 C 771.166 -0.372922 -3.55449 0
M  V30 7687 S 772.725 -0.00233974 -4.388 0
M  V30 7688 H 769.543 -0.110139 -0.702418 0
M  V30 7689 H 772.145 -0.955296 -1.70571 0
M  V30 7690 H 770.849 -1.38616 -3.86282 0
M  V30 7691 H 770.38 0.320136 -3.92095 0
M  V30 7692 H 772.395 1.21544 -4.81084 0
M  V30 7693 N 771.568 1.50203 -0.477153 0
M  V30 7694 C 772.817 2.01551 0.0774548 0
M  V30 7695 C 773.13 1.36359 1.40234 0
M  V30 7696 O 774.336 1.78898 2.04225 0
M  V30 7697 C 772.792 3.59406 0.188539 0
M  V30 7698 C 772.4 4.3356 -1.12828 0
M  V30 7699 C 774.144 4.18776 0.694782 0
M  V30 7700 C 772.051 5.83213 -0.98066 0
M  V30 7701 H 770.981 0.75329 0.0327212 0
M  V30 7702 H 773.632 1.72959 -0.612969 0
M  V30 7703 H 772.014 3.84611 0.942881 0
M  V30 7704 H 773.188 4.20074 -1.89405 0
M  V30 7705 H 771.503 3.85827 -1.5661 0
M  V30 7706 H 774.1 5.28338 0.822356 0
M  V30 7707 H 774.443 3.80557 1.68766 0
M  V30 7708 H 774.976 3.978 -0.00234519 0
M  V30 7709 H 771.715 6.25914 -1.94709 0
M  V30 7710 H 771.235 5.99256 -0.255375 0
M  V30 7711 H 772.914 6.4373 -0.649717 0
M  V30 7712 N 773.046 0.209999 1.56195 0
M  V30 7713 C 773.994 -0.721416 2.2113 0
M  V30 7714 C 774.988 -1.20852 1.18706 0
M  V30 7715 O 776.194 -1.16968 1.36815 0
M  V30 7716 H 772.569 -0.251033 0.708863 0
M  V30 7717 H 774.54 -0.150193 2.98022 0
M  V30 7718 C 773.289 -1.92392 2.89621 0
M  V30 7719 H 772.612 -1.5582 3.68185 0
M  V30 7720 H 774.052 -2.55367 3.38473 0
M  V30 7721 C 772.511 -2.77208 1.91461 0
M  V30 7722 O 773.041 -3.75603 1.42426 0
M  V30 7723 N 771.247 -2.43006 1.59363 0
M  V30 7724 H 770.794 -1.63047 1.99433 0
M  V30 7725 H 770.752 -3.00036 0.939449 0
M  V30 7726 N 774.524 -1.57472 -0.0634922 0
M  V30 7727 C 775.454 -2.07297 -1.07473 0
M  V30 7728 C 776.435 -0.968162 -1.39859 0
M  V30 7729 O 777.62 -1.24139 -1.49343 0
M  V30 7730 C 774.75 -2.52381 -2.38581 0
M  V30 7731 C 773.704 -3.66813 -2.20526 0
M  V30 7732 C 773.03 -3.97982 -3.57092 0
M  V30 7733 C 774.33 -4.96553 -1.61965 0
M  V30 7734 H 776.024 -2.92033 -0.660092 0
M  V30 7735 H 773.57 -1.40488 -0.316074 0
M  V30 7736 H 775.523 -2.85852 -3.09624 0
M  V30 7737 H 774.247 -1.64684 -2.8204 0
M  V30 7738 H 772.906 -3.33639 -1.51924 0
M  V30 7739 H 772.554 -3.07403 -3.98136 0
M  V30 7740 H 772.254 -4.7504 -3.45848 0
M  V30 7741 H 773.778 -4.33956 -4.29552 0
M  V30 7742 H 775.192 -5.28201 -2.22883 0
M  V30 7743 H 773.589 -5.7799 -1.61394 0
M  V30 7744 H 774.659 -4.81396 -0.581918 0
M  V30 7745 N 776.003 0.335068 -1.53997 0
M  V30 7746 C 777.228 1.09859 -1.75914 0
M  V30 7747 C 777.653 1.81308 -0.500915 0
M  V30 7748 O 777.011 1.72854 0.54693 0
M  V30 7749 C 777.059 2.08122 -2.94478 0
M  V30 7750 O 776.163 3.15805 -2.65219 0
M  V30 7751 H 775.504 0.317313 -0.583274 0
M  V30 7752 H 778.034 0.382872 -2.00986 0
M  V30 7753 H 778.044 2.51195 -3.21504 0
M  V30 7754 H 776.719 1.55517 -3.8573 0
M  V30 7755 H 775.296 2.77489 -2.49107 0
M  V30 7756 N 777.481 1.45874 0.596531 0
M  V30 7757 C 778.728 1.50467 1.35521 0
M  V30 7758 C 779.056 0.150802 1.93915 0
M  V30 7759 O 778.311 -0.851913 1.76184 0
M  V30 7760 C 778.61 2.54034 2.51399 0
M  V30 7761 C 778.276 3.9844 2.11085 0
M  V30 7762 C 776.938 4.37758 1.99804 0
M  V30 7763 C 779.29 4.89209 1.79788 0
M  V30 7764 C 776.618 5.65727 1.55465 0
M  V30 7765 C 778.97 6.17602 1.36931 0
M  V30 7766 C 777.634 6.5584 1.24218 0
M  V30 7767 H 776.904 0.550597 0.495907 0
M  V30 7768 H 779.551 1.79279 0.673145 0
M  V30 7769 H 777.856 2.18832 3.24992 0
M  V30 7770 H 779.553 2.54822 3.09624 0
M  V30 7771 H 776.143 3.67353 2.20794 0
M  V30 7772 H 780.327 4.59562 1.87395 0
M  V30 7773 H 775.583 5.94139 1.44253 0
M  V30 7774 H 779.757 6.87373 1.11764 0
M  V30 7775 H 777.384 7.54897 0.896353 0
M  V30 7776 N 778.959 -0.83999 1.33349 0
M  V30 7777 C 780.199 -1.60888 1.26073 0
M  V30 7778 C 780.563 -1.91234 -0.17129 0
M  V30 7779 O 781.764 -2.66269 -0.36799 0
M  V30 7780 C 780.035 -2.88438 2.11042 0
M  V30 7781 S 781.594 -3.79116 2.20944 0
M  V30 7782 H 778.412 -0.55166 0.448545 0
M  V30 7783 H 781.014 -0.99359 1.68369 0
M  V30 7784 H 779.718 -2.64113 3.14121 0
M  V30 7785 H 779.249 -3.54974 1.69579 0
M  V30 7786 H 781.264 -4.76921 1.36969 0
M  V30 7787 N 780.437 -1.16799 -1.0581 0
M  V30 7788 C 781.367 -0.902241 -2.15364 0
M  V30 7789 C 782.348 0.153351 -1.69407 0
M  V30 7790 O 783.533 0.00442032 -1.94199 0
M  V30 7791 C 780.663 -0.407911 -3.44896 0
M  V30 7792 C 779.617 -1.40197 -4.04387 0
M  V30 7793 C 778.943 -0.765848 -5.29187 0
M  V30 7794 C 780.243 -2.77316 -4.42598 0
M  V30 7795 H 781.937 -1.81841 -2.37853 0
M  V30 7796 H 779.483 -0.875731 -1.14311 0
M  V30 7797 H 781.436 -0.20945 -4.20879 0
M  V30 7798 H 780.16 0.54378 -3.22041 0
M  V30 7799 H 778.819 -1.58707 -3.30466 0
M  V30 7800 H 778.467 0.192482 -5.02632 0
M  V30 7801 H 778.167 -1.42939 -5.69949 0
M  V30 7802 H 779.691 -0.577519 -6.07863 0
M  V30 7803 H 781.105 -2.62561 -5.09642 0
M  V30 7804 H 779.502 -3.4019 -4.94359 0
M  V30 7805 H 780.572 -3.32199 -3.53231 0
M  V30 7806 N 781.915 1.24427 -0.967243 0
M  V30 7807 C 782.863 2.27403 -0.488927 0
M  V30 7808 C 783.857 1.63388 0.447302 0
M  V30 7809 O 785.063 1.77085 0.322643 0
M  V30 7810 H 781.438 0.738921 -0.139643 0
M  V30 7811 H 783.409 2.65122 -1.36942 0
M  V30 7812 C 782.158 3.4709 0.205787 0
M  V30 7813 H 781.481 3.96591 -0.50551 0
M  V30 7814 H 782.921 4.2099 0.504296 0
M  V30 7815 C 781.38 3.04923 1.43261 0
M  V30 7816 O 781.91 3.12043 2.52967 0
M  V30 7817 N 780.116 2.59976 1.29849 0
M  V30 7818 H 779.663 2.54382 0.405876 0
M  V30 7819 H 779.621 2.32128 2.12047 0
M  V30 7820 N 783.393 0.737304 1.3929 0
M  V30 7821 C 784.356 0.10731 2.28949 0
M  V30 7822 C 785.356 -0.664716 1.46418 0
M  V30 7823 O 786.546 -0.493392 1.67067 0
M  V30 7824 C 783.678 -0.857145 3.29948 0
M  V30 7825 H 784.871 0.89725 2.86163 0
M  V30 7826 H 782.424 0.503279 1.47976 0
M  V30 7827 H 783.159 -1.67336 2.77794 0
M  V30 7828 H 782.944 -0.306167 3.90903 0
M  V30 7829 H 784.434 -1.29444 3.97031 0
M  V30 7830 N 784.871 -1.49948 0.485112 0
M  V30 7831 C 786.096 -2.073 -0.0645059 0
M  V30 7832 C 786.521 -1.345 -1.31497 0
M  V30 7833 O 785.879 -0.39687 -1.76903 0
M  V30 7834 C 785.927 -3.59201 -0.317304 0
M  V30 7835 O 785.031 -3.88085 -1.39514 0
M  V30 7836 H 784.372 -0.663723 0.0191822 0
M  V30 7837 H 786.902 -1.92963 0.680179 0
M  V30 7838 H 786.912 -4.04227 -0.553604 0
M  V30 7839 H 785.587 -4.11602 0.596387 0
M  V30 7840 H 784.164 -3.54885 -1.14504 0
M  V30 7841 N 786.349 -0.21828 -1.56081 0
M  V30 7842 C 787.597 0.413488 -1.97825 0
M  V30 7843 C 787.918 1.60527 -1.10707 0
M  V30 7844 O 787.188 1.9504 -0.183378 0
M  V30 7845 H 785.768 0.155757 -0.730581 0
M  V30 7846 H 788.43 -0.310413 -1.92412 0
M  V30 7847 H 787.526 0.742024 -3.03151 0
M  V30 7848 N 787.827 1.57504 0.0551401 0
M  V30 7849 C 788.774 2.04825 1.06373 0
M  V30 7850 C 789.744 0.932108 1.37481 0
M  V30 7851 O 790.929 1.20093 1.48265 0
M  V30 7852 C 788.069 2.51091 2.36743 0
M  V30 7853 C 787.182 3.76392 2.12021 0
M  V30 7854 C 786.317 4.11373 3.36074 0
M  V30 7855 C 785.356 5.29666 3.0679 0
M  V30 7856 N 784.493 5.60205 4.2322 0
M  V30 7857 H 789.333 2.90753 0.653216 0
M  V30 7858 H 786.87 1.43776 0.310951 0
M  V30 7859 H 788.828 2.75973 3.12881 0
M  V30 7860 H 787.458 1.68118 2.75565 0
M  V30 7861 H 786.51 3.58751 1.26498 0
M  V30 7862 H 787.822 4.62662 1.86401 0
M  V30 7863 H 786.976 4.37245 4.20597 0
M  V30 7864 H 785.715 3.23704 3.64784 0
M  V30 7865 H 784.72 5.03574 2.20664 0
M  V30 7866 H 785.945 6.18968 2.79385 0
M  V30 7867 H 783.891 4.75495 4.5193 0
M  V30 7868 H 783.808 6.40928 4.00933 0
M  V30 7869 H 785.076 5.90637 5.08692 0
M  V30 7870 N 789.305 -0.326896 1.54172 0
M  V30 7871 C 790.255 -1.40319 1.79707 0
M  V30 7872 C 791.239 -1.47056 0.652938 0
M  V30 7873 O 792.431 -1.51645 0.91284 0
M  V30 7874 C 789.56 -2.77222 2.02491 0
M  V30 7875 C 788.646 -2.74811 3.23016 0
M  V30 7876 N 789.037 -2.42022 4.44138 0
M  V30 7877 C 787.335 -3.05943 3.24522 0
M  V30 7878 C 788.036 -2.48263 5.26061 0
M  V30 7879 N 787.012 -2.84567 4.63166 0
M  V30 7880 H 790.814 -1.13892 2.70935 0
M  V30 7881 H 788.328 -0.53536 1.53322 0
M  V30 7882 H 790.325 -3.54793 2.18923 0
M  V30 7883 H 788.985 -3.04582 1.12515 0
M  V30 7884 H 789.996 -2.14926 4.71197 0
M  V30 7885 H 786.673 -3.38367 2.44569 0
M  V30 7886 H 788.063 -2.2593 6.32776 0
M  V30 7887 N 790.784 -1.46188 -0.588786 0
M  V30 7888 C 792.03 -1.51407 -1.34921 0
M  V30 7889 C 792.363 -0.162771 -1.93517 0
M  V30 7890 O 791.638 0.825082 -1.76132 0
M  V30 7891 C 791.921 -2.60795 -2.48311 0
M  V30 7892 C 791.774 -4.05435 -1.94789 0
M  V30 7893 C 793.093 -2.66313 -3.50379 0
M  V30 7894 H 790.212 -0.551213 -0.489217 0
M  V30 7895 H 792.854 -1.78095 -0.661993 0
M  V30 7896 H 791.004 -2.3817 -3.06932 0
M  V30 7897 H 792.676 -4.39328 -1.40672 0
M  V30 7898 H 790.919 -4.15202 -1.25659 0
M  V30 7899 H 791.59 -4.77691 -2.76613 0
M  V30 7900 H 794.066 -2.86634 -3.01629 0
M  V30 7901 H 792.942 -3.44681 -4.27184 0
M  V30 7902 H 793.203 -1.72127 -4.07216 0
M  V30 7903 N 792.262 0.832906 -1.33792 0
M  V30 7904 C 793.225 1.92471 -1.24449 0
M  V30 7905 C 794.225 1.59981 -0.162085 0
M  V30 7906 O 795.415 1.69208 -0.414029 0
M  V30 7907 C 792.547 3.28278 -0.919044 0
M  V30 7908 H 793.74 2.0218 -2.21502 0
M  V30 7909 H 791.293 1.0257 -1.17936 0
M  V30 7910 H 792.028 3.24263 0.048738 0
M  V30 7911 H 791.813 3.53241 -1.70187 0
M  V30 7912 H 793.303 4.08253 -0.878576 0
M  V30 7913 N 793.74 1.17359 1.05189 0
M  V30 7914 C 795.017 0.871914 1.75091 0
M  V30 7915 C 795.397 -0.627821 2.01548 0
M  V30 7916 O 794.745 -1.5791 1.65156 0
M  V30 7917 C 794.955 1.70687 3.04413 0
M  V30 7918 C 796.303 1.92684 3.78362 0
M  V30 7919 O 797.327 1.67645 3.14282 0
M  V30 7920 O 796.186 2.34765 4.93505 0
M  V30 7921 H 793.28 0.322831 0.761386 0
M  V30 7922 H 795.826 1.28054 1.11357 0
M  V30 7923 H 794.598 2.72405 2.80911 0
M  V30 7924 H 794.221 1.29602 3.75884 0
M  V30 7925 N 795.218 -1.23913 0.973828 0
M  V30 7926 C 796.443 -1.96735 0.656511 0
M  V30 7927 C 796.868 -1.71682 -0.768571 0
M  V30 7928 O 796.226 -0.984267 -1.52256 0
M  V30 7929 C 796.274 -3.48004 0.944735 0
M  V30 7930 O 795.378 -4.12387 0.0333357 0
M  V30 7931 H 794.719 -0.616119 0.247575 0
M  V30 7932 H 797.249 -1.57525 1.30564 0
M  V30 7933 H 797.259 -3.98424 0.87876 0
M  V30 7934 H 795.934 -3.65567 1.98328 0
M  V30 7935 H 794.511 -3.72585 0.153157 0
M  V30 7936 N 796.696 -0.74468 -1.38897 0
M  V30 7937 C 797.945 -0.293716 -1.9955 0
M  V30 7938 C 798.258 1.12831 -1.59777 0
M  V30 7939 O 799.464 1.67929 -2.13336 0
M  V30 7940 C 797.92 -0.474188 -3.56762 0
M  V30 7941 C 797.528 -1.90472 -4.05493 0
M  V30 7942 C 799.272 -0.0854875 -4.24414 0
M  V30 7943 C 797.179 -2.03423 -5.55314 0
M  V30 7944 H 796.109 -0.106066 -0.746502 0
M  V30 7945 H 798.76 -0.919948 -1.58774 0
M  V30 7946 H 797.142 0.221092 -3.95382 0
M  V30 7947 H 798.316 -2.63274 -3.78184 0
M  V30 7948 H 796.631 -2.24752 -3.50536 0
M  V30 7949 H 799.228 -0.161133 -5.34457 0
M  V30 7950 H 799.571 0.96066 -4.05064 0
M  V30 7951 H 800.104 -0.732286 -3.91002 0
M  V30 7952 H 796.843 -3.0626 -5.79556 0
M  V30 7953 H 796.363 -1.3507 -5.84394 0
M  V30 7954 H 798.042 -1.81996 -6.20876 0
M  V30 7955 N 798.174 1.49689 -0.493057 0
M  V30 7956 C 799.422 2.02027 0.0541642 0
M  V30 7957 C 799.743 1.37554 1.38217 0
M  V30 7958 O 799.013 0.528174 1.88646 0
M  V30 7959 H 797.593 0.746646 0.0230069 0
M  V30 7960 H 800.255 1.83795 -0.648489 0
M  V30 7961 H 799.351 3.11523 0.189652 0
M  V30 7962 N 799.652 0.226554 1.55963 0
M  V30 7963 C 800.899 -0.403789 1.98433 0
M  V30 7964 C 801.227 -1.59416 1.1143 0
M  V30 7965 O 800.482 -1.95042 0.160389 0
M  V30 7966 C 800.781 -0.87642 3.46488 0
M  V30 7967 C 800.447 0.203973 4.50438 0
M  V30 7968 C 799.109 0.500754 4.78587 0
M  V30 7969 C 801.461 0.934396 5.12756 0
M  V30 7970 C 798.789 1.53239 5.66334 0
M  V30 7971 C 801.141 1.9554 6.0162 0
M  V30 7972 C 799.805 2.25905 6.28111 0
M  V30 7973 H 799.075 -0.147757 0.726119 0
M  V30 7974 H 801.722 0.330121 1.88633 0
M  V30 7975 H 800.027 -1.68918 3.53517 0
M  V30 7976 H 801.724 -1.37407 3.76723 0
M  V30 7977 H 798.314 -0.0374917 4.28584 0
M  V30 7978 H 802.498 0.718355 4.91074 0
M  V30 7979 H 797.754 1.77321 5.85122 0
M  V30 7980 H 801.928 2.52642 6.48957 0
M  V30 7981 H 799.555 3.05985 6.959 0
M  V30 7982 N 801.13 -1.57531 -0.0467866 0
M  V30 7983 C 802.358 -1.92696 -0.753371 0
M  V30 7984 C 802.773 -0.824792 -1.69831 0
M  V30 7985 O 802.13 0.200155 -1.81399 0
M  V30 7986 C 802.181 -3.27728 -1.52566 0
M  V30 7987 O 801.902 -4.3371 -0.618674 0
M  V30 7988 C 803.403 -3.77066 -2.33101 0
M  V30 7989 H 800.623 -0.636367 -0.212788 0
M  V30 7990 H 803.167 -2.04498 -0.00959361 0
M  V30 7991 H 801.322 -3.17378 -2.22148 0
M  V30 7992 H 801.736 -5.11548 -1.15839 0
M  V30 7993 H 803.21 -4.74109 -2.82709 0
M  V30 7994 H 803.687 -3.07348 -3.13741 0
M  V30 7995 H 804.293 -3.90442 -1.68628 0
M  V30 7996 N 802.608 0.318715 -1.54344 0
M  V30 7997 C 803.854 1.05765 -1.73037 0
M  V30 7998 C 804.187 1.87514 -0.505181 0
M  V30 7999 O 803.462 1.88021 0.497838 0
M  V30 8000 C 803.745 1.97836 -3.00887 0
M  V30 8001 C 803.598 1.19384 -4.33668 0
M  V30 8002 C 804.917 2.97285 -3.24514 0
M  V30 8003 H 802.036 0.383104 -0.629603 0
M  V30 8004 H 804.678 0.333864 -1.87044 0
M  V30 8005 H 802.828 2.59552 -2.89076 0
M  V30 8006 H 804.5 0.600906 -4.57369 0
M  V30 8007 H 802.743 0.496198 -4.30953 0
M  V30 8008 H 803.414 1.87014 -5.19355 0
M  V30 8009 H 805.89 2.45693 -3.35819 0
M  V30 8010 H 804.766 3.58887 -4.15321 0
M  V30 8011 H 805.027 3.70003 -2.41971 0
M  V30 8012 N 804.086 1.46499 0.581025 0
M  V30 8013 C 804.996 1.59778 1.71779 0
M  V30 8014 C 806.012 0.481223 1.67213 0
M  V30 8015 O 807.188 0.74557 1.87091 0
M  V30 8016 C 804.253 1.58626 3.08283 0
M  V30 8017 C 803.314 2.81527 3.241 0
M  V30 8018 C 802.547 2.80421 4.54092 0
M  V30 8019 O 802.77 1.89262 5.38085 0
M  V30 8020 O 801.704 3.71984 4.73193 0
M  V30 8021 H 805.53 2.55918 1.63523 0
M  V30 8022 H 803.115 1.29311 0.748267 0
M  V30 8023 H 804.997 1.60686 3.89561 0
M  V30 8024 H 803.672 0.656467 3.16973 0
M  V30 8025 H 802.579 2.85021 2.42309 0
M  V30 8026 H 803.912 3.73721 3.20302 0
M  V30 8027 N 805.565 -0.825799 1.34232 0
M  V30 8028 C 806.495 -1.95151 1.28212 0
M  V30 8029 C 807.476 -1.69345 0.160123 0
M  V30 8030 O 808.661 -1.90983 0.352019 0
M  V30 8031 C 805.791 -3.31554 1.03388 0
M  V30 8032 C 804.745 -3.71793 2.12023 0
M  V30 8033 C 804.071 -5.06147 1.72392 0
M  V30 8034 C 805.371 -3.84193 3.53826 0
M  V30 8035 H 807.065 -2.00445 2.22401 0
M  V30 8036 H 804.611 -0.962996 1.07063 0
M  V30 8037 H 806.564 -4.09889 0.978225 0
M  V30 8038 H 805.288 -3.26551 0.0564142 0
M  V30 8039 H 803.947 -2.95731 2.16654 0
M  V30 8040 H 803.595 -4.97628 0.733137 0
M  V30 8041 H 803.295 -5.34041 2.451 0
M  V30 8042 H 804.819 -5.86943 1.68317 0
M  V30 8043 H 806.233 -4.52806 3.51624 0
M  V30 8044 H 804.63 -4.23538 4.2513 0
M  V30 8045 H 805.7 -2.86272 3.91377 0
M  V30 8046 N 807.043 -1.17915 -1.04565 0
M  V30 8047 C 807.975 -0.859359 -2.1248 0
M  V30 8048 C 808.988 0.140922 -1.62189 0
M  V30 8049 O 810.177 -0.0862361 -1.78292 0
M  V30 8050 C 807.277 -0.261811 -3.37887 0
M  V30 8051 C 806.45 -1.30651 -4.17431 0
M  V30 8052 C 805.509 -0.725575 -5.21174 0
M  V30 8053 O 804.535 -1.39901 -5.51739 0
M  V30 8054 N 805.737 0.479351 -5.78517 0
M  V30 8055 H 808.502 -1.78818 -2.40508 0
M  V30 8056 H 806.063 -1.07885 -1.20716 0
M  V30 8057 H 808.055 0.14028 -4.04457 0
M  V30 8058 H 806.625 0.570929 -3.07342 0
M  V30 8059 H 805.845 -1.88412 -3.46258 0
M  V30 8060 H 807.133 -2.01099 -4.67372 0
M  V30 8061 H 806.531 1.04431 -5.55977 0
M  V30 8062 H 805.088 0.823427 -6.46578 0
M  V30 8063 N 808.521 1.23394 -0.980386 0
M  V30 8064 C 809.451 2.2717 -0.540024 0
M  V30 8065 C 810.432 1.64659 0.426787 0
M  V30 8066 O 811.617 1.91543 0.320153 0
M  V30 8067 C 808.747 3.46939 0.15836 0
M  V30 8068 C 807.701 4.21802 -0.725732 0
M  V30 8069 C 807.027 5.34597 0.104866 0
M  V30 8070 C 808.327 4.81802 -2.01654 0
M  V30 8071 H 810.021 2.64257 -1.40743 0
M  V30 8072 H 807.567 1.2703 -0.678193 0
M  V30 8073 H 809.52 4.18683 0.477737 0
M  V30 8074 H 808.244 3.08912 1.06022 0
M  V30 8075 H 806.903 3.51875 -1.02857 0
M  V30 8076 H 806.551 4.92812 1.00726 0
M  V30 8077 H 806.251 5.85607 -0.483557 0
M  V30 8078 H 807.775 6.09163 0.418624 0
M  V30 8079 H 809.189 5.45554 -1.76193 0
M  V30 8080 H 807.586 5.43098 -2.55273 0
M  V30 8081 H 808.656 4.02549 -2.70338 0
M  V30 8082 N 809.999 0.752036 1.385 0
M  V30 8083 C 811.276 0.233075 1.94206 0
M  V30 8084 C 811.656 -1.26838 1.68746 0
M  V30 8085 O 811.004 -2.04214 1.02513 0
M  V30 8086 C 811.214 0.58509 3.44061 0
M  V30 8087 C 812.562 0.543871 4.21102 0
M  V30 8088 O 813.586 0.523291 3.52335 0
M  V30 8089 O 812.445 0.553436 5.4369 0
M  V30 8090 H 809.539 0.0483049 0.825588 0
M  V30 8091 H 812.085 0.832053 1.47902 0
M  V30 8092 H 810.857 1.62212 3.56094 0
M  V30 8093 H 810.48 -0.0419738 3.97578 0
M  V30 8094 N 811.477 -1.49425 0.500989 0
M  V30 8095 C 812.723 -2.03369 -0.0355945 0
M  V30 8096 C 813.078 -1.37387 -1.34694 0
M  V30 8097 O 812.371 -0.500516 -1.84947 0
M  V30 8098 C 812.565 -3.56562 -0.24463 0
M  V30 8099 C 812.394 -4.37392 1.04491 0
M  V30 8100 C 811.164 -4.7941 1.59669 0
M  V30 8101 C 813.362 -4.75974 1.94817 0
M  V30 8102 N 811.344 -5.44668 2.83214 0
M  V30 8103 C 812.715 -5.4095 3.0294 0
M  V30 8104 C 814.77 -4.57915 1.95495 0
M  V30 8105 C 813.473 -5.89779 4.11768 0
M  V30 8106 C 815.499 -5.07705 3.03298 0
M  V30 8107 C 814.861 -5.72682 4.1014 0
M  V30 8108 H 810.96 -0.781507 0.0277547 0
M  V30 8109 H 813.544 -1.82594 0.675844 0
M  V30 8110 H 811.715 -3.77221 -0.925126 0
M  V30 8111 H 813.447 -3.97147 -0.778219 0
M  V30 8112 H 810.202 -4.59629 1.14185 0
M  V30 8113 H 810.626 -5.81884 3.46035 0
M  V30 8114 H 815.268 -4.07085 1.14199 0
M  V30 8115 H 812.986 -6.3963 4.93862 0
M  V30 8116 H 816.572 -4.95542 3.04843 0
M  V30 8117 H 815.452 -6.10512 4.92184 0
M  V30 8118 N 812.955 -0.234822 -1.55841 0
M  V30 8119 C 813.887 0.702346 -2.18174 0
M  V30 8120 C 814.9 1.14776 -1.15457 0
M  V30 8121 O 816.089 1.07662 -1.42377 0
M  V30 8122 C 813.189 1.96483 -2.76129 0
M  V30 8123 C 812.362 1.67283 -4.04148 0
M  V30 8124 C 811.421 2.7837 -4.46539 0
M  V30 8125 O 810.447 2.46272 -5.13166 0
M  V30 8126 N 811.649 4.07611 -4.1332 0
M  V30 8127 H 814.414 0.169074 -2.99223 0
M  V30 8128 H 811.975 -0.0543164 -1.61809 0
M  V30 8129 H 813.967 2.70016 -3.01452 0
M  V30 8130 H 812.537 2.40822 -1.99307 0
M  V30 8131 H 811.757 0.773278 -3.86541 0
M  V30 8132 H 813.045 1.45222 -4.87635 0
M  V30 8133 H 812.443 4.36527 -3.59806 0
M  V30 8134 H 811 4.77646 -4.43506 0
M  V30 8135 N 814.433 1.57553 0.0384317 0
M  V30 8136 C 815.38 2.05942 1.04194 0
M  V30 8137 C 816.35 0.946637 1.36484 0
M  V30 8138 O 817.535 1.21658 1.46983 0
M  V30 8139 C 814.675 2.53588 2.34066 0
M  V30 8140 C 813.788 3.7862 2.08017 0
M  V30 8141 C 812.923 4.14915 3.31692 0
M  V30 8142 C 811.962 5.32891 3.01155 0
M  V30 8143 N 811.099 5.64662 4.17254 0
M  V30 8144 H 815.939 2.91429 0.622341 0
M  V30 8145 H 813.476 1.44098 0.295684 0
M  V30 8146 H 815.434 2.79276 3.09937 0
M  V30 8147 H 814.064 1.71031 2.73767 0
M  V30 8148 H 813.116 3.60073 1.22686 0
M  V30 8149 H 814.428 4.64613 1.81484 0
M  V30 8150 H 813.582 4.41681 4.15936 0
M  V30 8151 H 812.321 3.27555 3.6133 0
M  V30 8152 H 811.326 5.05887 2.15311 0
M  V30 8153 H 812.551 6.21896 2.72804 0
M  V30 8154 H 810.497 4.80261 4.46861 0
M  V30 8155 H 810.414 6.45145 3.94112 0
M  V30 8156 H 811.682 5.96 5.02399 0
M  V30 8157 N 815.911 -0.310526 1.54511 0
M  V30 8158 C 816.843 -1.40405 1.8116 0
M  V30 8159 C 817.856 -1.47261 0.694114 0
M  V30 8160 O 819.045 -1.49751 0.971441 0
M  V30 8161 C 816.145 -2.78849 1.92604 0
M  V30 8162 C 815.318 -2.95041 3.22908 0
M  V30 8163 C 814.377 -4.13925 3.24889 0
M  V30 8164 O 813.403 -4.06463 3.98467 0
M  V30 8165 N 814.605 -5.24099 2.496 0
M  V30 8166 H 817.37 -1.17903 2.75534 0
M  V30 8167 H 814.931 -0.500564 1.53967 0
M  V30 8168 H 816.923 -3.5661 1.91342 0
M  V30 8169 H 815.493 -2.94342 1.05268 0
M  V30 8170 H 814.713 -2.04472 3.37023 0
M  V30 8171 H 816.001 -3.02763 4.08916 0
M  V30 8172 H 815.399 -5.33039 1.89435 0
M  V30 8173 H 813.956 -6.0023 2.54102 0
M  V30 8174 N 817.389 -1.46805 -0.573248 0
M  V30 8175 C 818.336 -1.58084 -1.68161 0
M  V30 8176 C 819.306 -0.424636 -1.6058 0
M  V30 8177 O 820.491 -0.642623 -1.79652 0
M  V30 8178 C 817.631 -1.58601 -3.06496 0
M  V30 8179 C 816.744 -2.85023 -3.24632 0
M  V30 8180 C 815.879 -2.76981 -4.53271 0
M  V30 8181 C 814.918 -3.983 -4.64783 0
M  V30 8182 N 814.055 -3.88589 -5.84759 0
M  V30 8183 H 818.895 -2.52755 -1.57858 0
M  V30 8184 H 816.432 -1.25385 -0.769218 0
M  V30 8185 H 818.39 -1.56885 -3.86579 0
M  V30 8186 H 817.02 -0.674553 -3.15673 0
M  V30 8187 H 816.072 -2.96678 -2.38089 0
M  V30 8188 H 817.384 -3.7491 -3.29004 0
M  V30 8189 H 816.538 -2.73424 -5.41594 0
M  V30 8190 H 815.277 -1.84751 -4.51352 0
M  V30 8191 H 814.282 -4.02179 -3.74876 0
M  V30 8192 H 815.507 -4.91639 -4.68474 0
M  V30 8193 H 813.453 -2.99151 -5.83819 0
M  V30 8194 H 813.37 -4.7214 -5.90441 0
M  V30 8195 H 814.638 -3.89022 -6.75486 0
M  V30 8196 N 818.867 0.818669 -1.34668 0
M  V30 8197 C 820.115 1.57201 -1.27013 0
M  V30 8198 C 820.436 1.94354 0.158599 0
M  V30 8199 O 819.706 1.62626 1.09223 0
M  V30 8200 H 818.286 0.582919 -0.467135 0
M  V30 8201 H 820.948 0.977234 -1.6863 0
M  V30 8202 H 820.044 2.49291 -1.87778 0
M  V30 8203 N 820.346 1.18468 1.03938 0
M  V30 8204 C 821.594 0.978895 1.76811 0
M  V30 8205 C 821.915 -0.49257 1.88676 0
M  V30 8206 O 821.185 -1.3572 1.41269 0
M  V30 8207 H 819.765 0.359201 0.654968 0
M  V30 8208 H 822.427 1.49173 1.25433 0
M  V30 8209 H 821.523 1.418 2.78027 0
M  V30 8210 N 821.824 -1.22873 0.986916 0
M  V30 8211 C 823.07 -1.91746 0.660401 0
M  V30 8212 C 823.403 -1.76738 -0.804812 0
M  V30 8213 O 822.678 -1.13246 -1.58131 0
M  V30 8214 C 822.961 -3.44156 1.05966 0
M  V30 8215 C 822.814 -3.68242 2.58298 0
M  V30 8216 C 824.133 -4.35874 0.60842 0
M  V30 8217 H 821.252 -0.696347 0.241391 0
M  V30 8218 H 823.894 -1.44867 1.22937 0
M  V30 8219 H 822.044 -3.84213 0.575534 0
M  V30 8220 H 823.716 -3.37626 3.14335 0
M  V30 8221 H 821.959 -3.12728 3.00638 0
M  V30 8222 H 822.63 -4.74956 2.81285 0
M  V30 8223 H 825.106 -4.03299 1.02417 0
M  V30 8224 H 823.982 -5.41201 0.916142 0
M  V30 8225 H 824.243 -4.39364 -0.491086 0
M  V30 8226 N 823.302 -0.75937 -1.38099 0
M  V30 8227 C 824.718 -0.437606 -1.53483 0
M  V30 8228 C 824.918 1.04849 -1.72072 0
M  V30 8229 O 823.974 1.83448 -1.73502 0
M  V30 8230 C 825.287 -1.24189 -2.73857 0
M  V30 8231 C 826.835 -1.23255 -2.8771 0
M  V30 8232 C 827.31 -2.01992 -4.11051 0
M  V30 8233 N 828.801 -1.99282 -4.1814 0
M  V30 8234 C 829.536 -2.56996 -5.12583 0
M  V30 8235 N 829.032 -3.23446 -6.12662 0
M  V30 8236 N 830.825 -2.46894 -5.04975 0
M  V30 8237 H 822.976 -1.72242 -1.24283 0
M  V30 8238 H 825.239 -0.730507 -0.604205 0
M  V30 8239 H 824.945 -2.29449 -2.66545 0
M  V30 8240 H 824.819 -0.862672 -3.67203 0
M  V30 8241 H 827.206 -0.187988 -2.94501 0
M  V30 8242 H 827.287 -1.65132 -1.95359 0
M  V30 8243 H 826.931 -3.06462 -4.05023 0
M  V30 8244 H 826.861 -1.57505 -5.02494 0
M  V30 8245 H 829.352 -1.50893 -3.46467 0
M  V30 8246 H 829.665 -3.6489 -6.81231 0
M  V30 8247 H 828.01 -3.27543 -6.12977 0
M  V30 8248 H 831.201 -1.94604 -4.25731 0
M  V30 8249 H 831.374 -2.92168 -5.78396 0
M  V30 8250 N 824.78 1.49157 -0.508906 0
M  V30 8251 C 826.196 1.58741 -0.165372 0
M  V30 8252 C 826.396 1.5133 1.33047 0
M  V30 8253 O 825.452 1.39135 2.10707 0
M  V30 8254 C 826.765 2.91217 -0.749194 0
M  V30 8255 C 828.313 3.047 -0.716015 0
M  V30 8256 C 828.788 4.39807 -1.27804 0
M  V30 8257 N 830.279 4.46319 -1.23908 0
M  V30 8258 C 831.014 5.49325 -1.64406 0
M  V30 8259 N 830.51 6.59395 -2.12534 0
M  V30 8260 N 832.303 5.40084 -1.55773 0
M  V30 8261 H 824.454 1.52217 -1.48134 0
M  V30 8262 H 826.717 0.721514 -0.614915 0
M  V30 8263 H 826.423 3.02233 -1.79856 0
M  V30 8264 H 826.297 3.76592 -0.214144 0
M  V30 8265 H 828.684 2.9331 0.324535 0
M  V30 8266 H 828.765 2.2099 -1.2883 0
M  V30 8267 H 828.409 4.5195 -2.31741 0
M  V30 8268 H 828.339 5.2217 -0.681623 0
M  V30 8269 H 830.83 3.67354 -0.886537 0
M  V30 8270 H 831.143 7.34102 -2.41485 0
M  V30 8271 H 829.488 6.60414 -2.16513 0
M  V30 8272 H 832.679 4.52986 -1.17987 0
M  V30 8273 H 832.852 6.20233 -1.87657 0
M  V30 8274 N 826.258 0.243083 1.55714 0
M  V30 8275 C 827.221 -0.644723 2.19945 0
M  V30 8276 C 828.221 -1.10562 1.16759 0
M  V30 8277 O 829.411 -1.01095 1.41865 0
M  V30 8278 C 826.543 -1.88569 2.83997 0
M  V30 8279 H 827.736 -0.0843839 2.99781 0
M  V30 8280 H 825.289 -0.00647246 1.56299 0
M  V30 8281 H 826.024 -2.48736 2.08089 0
M  V30 8282 H 825.809 -1.56345 3.59581 0
M  V30 8283 H 827.299 -2.51774 3.33166 0
M  V30 8284 N 827.736 -1.57571 -0.0300757 0
M  V30 8285 C 828.666 -2.0953 -1.03051 0
M  V30 8286 C 829.647 -0.99761 -1.37774 0
M  V30 8287 O 830.832 -1.27279 -1.46676 0
M  V30 8288 C 827.962 -2.57385 -2.33174 0
M  V30 8289 C 826.916 -3.71409 -2.12696 0
M  V30 8290 C 826.242 -4.05467 -3.4857 0
M  V30 8291 C 827.542 -4.99877 -1.51396 0
M  V30 8292 H 829.236 -2.93367 -0.597999 0
M  V30 8293 H 826.782 -1.41127 -0.286203 0
M  V30 8294 H 828.735 -2.92355 -3.03491 0
M  V30 8295 H 827.459 -1.70629 -2.78484 0
M  V30 8296 H 826.118 -3.36786 -1.44813 0
M  V30 8297 H 825.766 -3.15779 -3.91526 0
M  V30 8298 H 825.466 -4.82269 -3.35694 0
M  V30 8299 H 826.99 -4.4297 -4.2025 0
M  V30 8300 H 828.404 -5.3281 -2.11629 0
M  V30 8301 H 826.801 -5.81283 -1.49098 0
M  V30 8302 H 827.871 -4.82522 -0.479676 0
M  V30 8303 N 829.214 0.302327 -1.54673 0
M  V30 8304 C 830.461 1.0377 -1.73891 0
M  V30 8305 C 830.789 1.87309 -0.523979 0
M  V30 8306 O 830.044 1.8936 0.494084 0
M  V30 8307 C 830.343 1.97365 -2.97963 0
M  V30 8308 C 830.009 1.29812 -4.3181 0
M  V30 8309 C 828.671 1.11121 -4.68194 0
M  V30 8310 C 831.023 0.815073 -5.14787 0
M  V30 8311 C 828.351 0.428077 -5.85136 0
M  V30 8312 C 830.703 0.145665 -6.32432 0
M  V30 8313 C 829.367 -0.0532098 -6.67479 0
M  V30 8314 H 828.637 0.379721 -0.636312 0
M  V30 8315 H 831.284 0.312708 -1.8893 0
M  V30 8316 H 829.589 2.76387 -2.777 0
M  V30 8317 H 831.286 2.54331 -3.10027 0
M  V30 8318 H 827.876 1.45366 -4.03196 0
M  V30 8319 H 832.06 0.947191 -4.87178 0
M  V30 8320 H 827.316 0.262995 -6.10834 0
M  V30 8321 H 831.49 -0.236533 -6.95998 0
M  V30 8322 H 829.117 -0.58456 -7.57949 0
M  V30 8323 N 830.692 1.47107 0.565454 0
M  V30 8324 C 831.622 1.61846 1.68309 0
M  V30 8325 C 832.603 0.468159 1.63531 0
M  V30 8326 O 833.788 0.696504 1.8128 0
M  V30 8327 C 830.918 1.62474 3.06952 0
M  V30 8328 C 829.872 2.76649 3.26572 0
M  V30 8329 C 829.198 2.62345 4.65917 0
M  V30 8330 C 830.498 4.18319 3.12741 0
M  V30 8331 H 832.192 2.55407 1.5623 0
M  V30 8332 H 829.738 1.22916 0.750179 0
M  V30 8333 H 831.691 1.71378 3.84977 0
M  V30 8334 H 830.415 0.654692 3.19971 0
M  V30 8335 H 829.074 2.67242 2.50952 0
M  V30 8336 H 828.722 1.63386 4.75725 0
M  V30 8337 H 828.422 3.38936 4.79996 0
M  V30 8338 H 829.946 2.73165 5.46089 0
M  V30 8339 H 831.36 4.28745 3.80593 0
M  V30 8340 H 829.757 4.95632 3.38333 0
M  V30 8341 H 830.827 4.37263 2.09592 0
M  V30 8342 N 832.17 -0.811516 1.35101 0
M  V30 8343 C 833.133 -1.90467 1.27495 0
M  V30 8344 C 834.133 -1.59703 0.187516 0
M  V30 8345 O 835.323 -1.68528 0.440896 0
M  V30 8346 C 832.455 -3.26774 0.971154 0
M  V30 8347 H 833.648 -1.98631 2.2469 0
M  V30 8348 H 831.201 -1.00681 1.19553 0
M  V30 8349 H 831.936 -3.243 0.0028557 0
M  V30 8350 H 831.721 -3.50488 1.75785 0
M  V30 8351 H 833.211 -4.06804 0.943414 0
M  V30 8352 N 833.648 -1.19017 -1.03309 0
M  V30 8353 C 834.873 -1.01598 -1.80811 0
M  V30 8354 C 835.298 0.430773 -1.83101 0
M  V30 8355 O 834.656 1.30946 -1.25391 0
M  V30 8356 C 834.704 -1.5845 -3.23923 0
M  V30 8357 O 833.808 -0.810972 -4.04348 0
M  V30 8358 H 833.149 -0.359398 -0.558327 0
M  V30 8359 H 835.679 -1.57945 -1.30055 0
M  V30 8360 H 835.689 -1.61486 -3.74682 0
M  V30 8361 H 834.364 -2.63752 -3.21571 0
M  V30 8362 H 832.941 -0.85353 -3.63 0
M  V30 8363 N 835.127 1.22348 -0.993418 0
M  V30 8364 C 836.543 1.43222 -0.704238 0
M  V30 8365 C 836.743 1.88009 0.724909 0
M  V30 8366 O 835.799 2.03429 1.49575 0
M  V30 8367 C 837.112 2.47328 -1.71025 0
M  V30 8368 C 838.66 2.61126 -1.72576 0
M  V30 8369 C 839.135 3.68453 -2.72041 0
M  V30 8370 N 840.626 3.75911 -2.70639 0
M  V30 8371 C 841.361 4.58551 -3.44266 0
M  V30 8372 N 840.857 5.45179 -4.27495 0
M  V30 8373 N 842.65 4.52866 -3.32969 0
M  V30 8374 H 834.801 0.915832 -1.91641 0
M  V30 8375 H 837.064 0.464283 -0.826526 0
M  V30 8376 H 836.77 2.21366 -2.73295 0
M  V30 8377 H 836.644 3.45939 -1.50353 0
M  V30 8378 H 839.031 2.86431 -0.710037 0
M  V30 8379 H 839.112 1.62787 -1.97317 0
M  V30 8380 H 838.756 3.43895 -3.73763 0
M  V30 8381 H 838.686 4.66362 -2.4457 0
M  V30 8382 H 841.177 3.14014 -2.10247 0
M  V30 8383 H 841.49 6.0526 -4.80499 0
M  V30 8384 H 839.835 5.44759 -4.31582 0
M  V30 8385 H 843.026 3.84215 -2.67389 0
M  V30 8386 H 843.199 5.17039 -3.90608 0
M  V30 8387 N 836.605 0.766683 1.37694 0
M  V30 8388 C 837.537 0.107798 2.28946 0
M  V30 8389 C 838.55 -0.669701 1.48387 0
M  V30 8390 O 839.739 -0.508629 1.711 0
M  V30 8391 C 836.839 -0.871084 3.27514 0
M  V30 8392 C 836.012 -0.148471 4.37148 0
M  V30 8393 C 835.071 -1.03998 5.1582 0
M  V30 8394 O 834.097 -0.505639 5.6695 0
M  V30 8395 N 835.299 -2.36679 5.3006 0
M  V30 8396 H 838.064 0.89154 2.86132 0
M  V30 8397 H 835.625 0.618593 1.49616 0
M  V30 8398 H 837.617 -1.47081 3.77027 0
M  V30 8399 H 836.187 -1.55582 2.71133 0
M  V30 8400 H 835.407 0.632117 3.89099 0
M  V30 8401 H 836.695 0.351045 5.07588 0
M  V30 8402 H 836.093 -2.82532 4.90094 0
M  V30 8403 H 834.65 -2.9167 5.82899 0
M  V30 8404 N 838.083 -1.48885 0.516809 0
M  V30 8405 C 839.046 -2.27916 -0.242256 0
M  V30 8406 C 840.046 -1.34601 -0.879735 0
M  V30 8407 O 841.236 -1.57616 -0.74182 0
M  V30 8408 C 838.368 -3.13067 -1.34914 0
M  V30 8409 H 839.561 -2.96483 0.451444 0
M  V30 8410 H 837.114 -1.5391 0.272294 0
M  V30 8411 H 837.849 -2.49102 -2.07651 0
M  V30 8412 H 837.634 -3.81695 -0.897313 0
M  V30 8413 H 839.124 -3.72716 -1.88341 0
M  V30 8414 N 839.561 -0.251338 -1.55583 0
M  V30 8415 C 840.789 0.376187 -2.03451 0
M  V30 8416 C 841.204 1.51215 -1.13047 0
M  V30 8417 O 840.561 1.81917 -0.145769 0
M  V30 8418 C 840.612 0.879779 -3.50631 0
M  V30 8419 O 840.333 -0.210917 -4.37592 0
M  V30 8420 C 841.834 1.57754 -4.14281 0
M  V30 8421 H 839.054 0.0888722 -0.665089 0
M  V30 8422 H 841.598 -0.376497 -2.01004 0
M  V30 8423 H 839.753 1.58263 -3.53598 0
M  V30 8424 H 840.167 0.172203 -5.24217 0
M  V30 8425 H 841.641 1.88158 -5.18942 0
M  V30 8426 H 842.118 2.50103 -3.61034 0
M  V30 8427 H 842.724 0.919154 -4.15249 0
M  V30 8428 N 841.039 1.57585 0.0217189 0
M  V30 8429 C 841.969 2.10073 1.01939 0
M  V30 8430 C 842.95 1.0049 1.37243 0
M  V30 8431 O 844.135 1.28055 1.45999 0
M  V30 8432 C 841.265 2.58618 2.31806 0
M  V30 8433 C 840.219 3.72531 2.10724 0
M  V30 8434 C 839.545 4.07309 3.46415 0
M  V30 8435 C 840.845 5.00672 1.48743 0
M  V30 8436 H 842.539 2.9368 0.582432 0
M  V30 8437 H 840.085 1.41277 0.278715 0
M  V30 8438 H 842.038 2.9396 3.01936 0
M  V30 8439 H 840.762 1.72104 2.77575 0
M  V30 8440 H 839.421 3.37549 1.43025 0
M  V30 8441 H 839.069 3.17851 3.89846 0
M  V30 8442 H 838.769 4.84042 3.33132 0
M  V30 8443 H 840.293 4.45192 4.17895 0
M  V30 8444 H 841.707 5.33925 2.088 0
M  V30 8445 H 840.104 5.82065 1.46013 0
M  V30 8446 H 841.174 4.82769 0.45408 0
M  V30 8447 N 842.517 -0.29412 1.54831 0
M  V30 8448 C 843.745 -1.04724 1.78439 0
M  V30 8449 C 844.16 -1.80695 0.547239 0
M  V30 8450 O 843.517 -1.75989 -0.483141 0
M  V30 8451 C 843.568 -2.02242 2.99634 0
M  V30 8452 O 843.289 -1.29352 4.18568 0
M  V30 8453 C 844.79 -2.89537 3.35683 0
M  V30 8454 H 842.01 -0.310285 0.594949 0
M  V30 8455 H 844.554 -0.331306 2.01798 0
M  V30 8456 H 842.709 -2.69328 2.78462 0
M  V30 8457 H 843.123 -1.94901 4.86943 0
M  V30 8458 H 844.597 -3.538 4.23709 0
M  V30 8459 H 845.074 -3.58201 2.54143 0
M  V30 8460 H 845.68 -2.27973 3.59038 0
M  V30 8461 N 843.995 -1.47404 -0.557645 0
M  V30 8462 C 844.927 -1.55917 -1.67995 0
M  V30 8463 C 845.94 -0.445411 -1.56588 0
M  V30 8464 O 847.129 -0.714999 -1.63554 0
M  V30 8465 C 844.229 -1.44697 -3.06457 0
M  V30 8466 C 843.402 -2.70633 -3.43622 0
M  V30 8467 C 842.461 -2.53256 -4.61246 0
M  V30 8468 O 841.487 -3.27068 -4.65849 0
M  V30 8469 N 842.689 -1.61053 -5.57711 0
M  V30 8470 H 845.454 -2.52694 -1.61139 0
M  V30 8471 H 843.015 -1.43778 -0.744271 0
M  V30 8472 H 845.007 -1.30806 -3.82978 0
M  V30 8473 H 843.577 -0.560039 -3.07542 0
M  V30 8474 H 842.797 -2.99288 -2.56555 0
M  V30 8475 H 844.085 -3.5424 -3.65228 0
M  V30 8476 H 843.483 -1.00235 -5.56749 0
M  V30 8477 H 842.04 -1.53115 -6.33561 0
M  V30 8478 N 845.473 0.80434 -1.35529 0
M  V30 8479 C 846.701 1.59283 -1.32048 0
M  V30 8480 C 847.116 1.88527 0.101556 0
M  V30 8481 O 846.473 1.48975 1.05417 0
M  V30 8482 C 846.524 2.92276 -2.12737 0
M  V30 8483 O 846.245 2.64299 -3.49396 0
M  V30 8484 C 847.746 3.86631 -2.16867 0
M  V30 8485 H 844.966 0.494523 -0.453528 0
M  V30 8486 H 847.51 0.999415 -1.78415 0
M  V30 8487 H 845.665 3.48125 -1.69964 0
M  V30 8488 H 846.079 3.4923 -3.91329 0
M  V30 8489 H 847.553 4.77053 -2.77712 0
M  V30 8490 H 848.03 4.23384 -1.16803 0
M  V30 8491 H 848.636 3.36717 -2.59811 0
M  V30 8492 N 846.951 1.19563 1.02676 0
M  V30 8493 C 847.881 0.959024 2.12897 0
M  V30 8494 C 848.862 -0.108382 1.69754 0
M  V30 8495 O 850.047 0.0470698 1.94143 0
M  V30 8496 C 847.177 0.499211 3.43693 0
M  V30 8497 C 846.131 1.5087 4.00528 0
M  V30 8498 C 845.457 0.905884 5.2697 0
M  V30 8499 C 846.757 2.88954 4.3509 0
M  V30 8500 H 848.451 1.88084 2.32948 0
M  V30 8501 H 845.997 0.905731 1.11949 0
M  V30 8502 H 847.95 0.320965 4.20176 0
M  V30 8503 H 846.674 -0.458205 3.2337 0
M  V30 8504 H 845.333 1.67413 3.26142 0
M  V30 8505 H 844.981 -0.0591506 5.02965 0
M  V30 8506 H 844.681 1.58 5.65959 0
M  V30 8507 H 846.205 0.73848 6.06118 0
M  V30 8508 H 847.619 2.75981 5.02501 0
M  V30 8509 H 846.016 3.53177 4.85166 0
M  V30 8510 H 847.086 3.41447 3.44299 0
M  V30 8511 N 848.429 -1.21819 0.999893 0
M  V30 8512 C 849.359 -2.26282 0.576096 0
M  V30 8513 C 850.34 -1.65317 -0.400537 0
M  V30 8514 O 851.525 -1.92028 -0.28964 0
M  V30 8515 C 848.655 -3.47147 -0.103145 0
M  V30 8516 C 847.609 -4.20594 0.792745 0
M  V30 8517 C 846.935 -5.34696 -0.0198026 0
M  V30 8518 C 848.235 -4.78533 2.09293 0
M  V30 8519 H 849.929 -2.61984 1.4493 0
M  V30 8520 H 847.475 -1.25935 0.698316 0
M  V30 8521 H 849.428 -4.1939 -0.411068 0
M  V30 8522 H 848.152 -3.1056 -1.01094 0
M  V30 8523 H 846.811 -3.50194 1.08442 0
M  V30 8524 H 846.459 -4.94352 -0.928729 0
M  V30 8525 H 846.159 -5.84764 0.576661 0
M  V30 8526 H 847.683 -6.09752 -0.321659 0
M  V30 8527 H 849.097 -5.42682 1.8485 0
M  V30 8528 H 847.494 -5.38968 2.63881 0
M  V30 8529 H 848.564 -3.98197 2.76708 0
M  V30 8530 N 849.908 -0.773975 -1.37286 0
M  V30 8531 C 851.157 -0.335977 -1.98882 0
M  V30 8532 C 851.47 1.09416 -1.62134 0
M  V30 8533 O 852.676 1.63366 -2.1685 0
M  V30 8534 C 851.132 -0.549756 -3.55676 0
M  V30 8535 C 850.74 -1.9903 -4.01361 0
M  V30 8536 C 852.484 -0.175493 -4.24137 0
M  V30 8537 C 850.391 -2.15156 -5.50874 0
M  V30 8538 H 849.321 -0.121877 -0.744085 0
M  V30 8539 H 851.972 -0.953419 -1.56787 0
M  V30 8540 H 850.354 0.137175 -3.95762 0
M  V30 8541 H 851.528 -2.71237 -3.72515 0
M  V30 8542 H 849.843 -2.32137 -3.4569 0
M  V30 8543 H 852.44 -0.274463 -5.33995 0
M  V30 8544 H 852.783 0.874524 -4.07011 0
M  V30 8545 H 853.316 -0.815058 -3.89361 0
M  V30 8546 H 850.055 -3.18485 -5.72929 0
M  V30 8547 H 849.575 -1.47435 -5.81397 0
M  V30 8548 H 851.254 -1.95124 -6.16876 0
M  V30 8549 N 851.386 1.48609 -0.524698 0
M  V30 8550 C 852.318 2.27508 0.278 0
M  V30 8551 C 853.331 1.35042 0.909258 0
M  V30 8552 O 854.52 1.60136 0.788592 0
M  V30 8553 C 851.62 3.08247 1.40843 0
M  V30 8554 C 850.793 4.28455 0.880083 0
M  V30 8555 C 849.852 4.91048 1.891 0
M  V30 8556 O 848.878 5.5042 1.45005 0
M  V30 8557 N 850.08 4.82816 3.22288 0
M  V30 8558 H 852.845 2.97037 -0.398642 0
M  V30 8559 H 850.406 1.57876 -0.358698 0
M  V30 8560 H 852.398 3.46992 2.08276 0
M  V30 8561 H 850.968 2.41173 1.98883 0
M  V30 8562 H 850.188 3.94189 0.0299228 0
M  V30 8563 H 851.476 5.06279 0.505881 0
M  V30 8564 H 850.874 4.3572 3.60783 0
M  V30 8565 H 849.431 5.25676 3.85368 0
M  V30 8566 N 852.864 0.259585 1.55447 0
M  V30 8567 C 853.812 -0.6507 2.23313 0
M  V30 8568 C 854.806 -1.17014 1.22491 0
M  V30 8569 O 856.012 -1.12557 1.40467 0
M  V30 8570 H 852.387 -0.228354 0.71649 0
M  V30 8571 H 854.358 -0.0553039 2.98349 0
M  V30 8572 C 853.107 -1.83081 2.95596 0
M  V30 8573 H 852.43 -1.44027 3.72956 0
M  V30 8574 H 853.87 -2.44469 3.46426 0
M  V30 8575 C 852.329 -2.70976 2.00184 0
M  V30 8576 O 852.859 -3.70882 1.54304 0
M  V30 8577 N 851.065 -2.37813 1.67014 0
M  V30 8578 H 850.612 -1.5662 2.04519 0
M  V30 8579 H 850.57 -2.96896 1.03443 0
M  V30 8580 N 854.342 -1.57594 -0.0133615 0
M  V30 8581 C 855.59 -1.89605 -0.699596 0
M  V30 8582 C 855.911 -0.85926 -1.75048 0
M  V30 8583 O 855.181 0.105112 -1.95618 0
M  V30 8584 H 853.761 -0.699776 -0.261385 0
M  V30 8585 H 856.423 -1.94885 0.0244044 0
M  V30 8586 H 855.519 -2.88962 -1.17928 0
M  V30 8587 N 855.82 0.285905 -1.54985 0
M  V30 8588 C 856.783 1.33625 -1.86218 0
M  V30 8589 C 857.783 1.42971 -0.735936 0
M  V30 8590 O 858.973 1.42345 -1.00417 0
M  V30 8591 C 856.105 2.71926 -2.05595 0
M  V30 8592 H 857.298 1.07167 -2.80099 0
M  V30 8593 H 854.851 0.523335 -1.47278 0
M  V30 8594 H 855.586 3.03583 -1.14053 0
M  V30 8595 H 855.371 2.6653 -2.87583 0
M  V30 8596 H 856.861 3.47841 -2.31077 0
M  V30 8597 N 857.298 1.47698 0.54982 0
M  V30 8598 C 858.714 1.3338 0.876468 0
M  V30 8599 C 858.914 0.329837 1.98782 0
M  V30 8600 O 857.97 -0.256022 2.51199 0
M  V30 8601 C 859.283 2.72903 1.26272 0
M  V30 8602 C 860.831 2.81243 1.37373 0
M  V30 8603 C 861.306 4.21423 1.79351 0
M  V30 8604 N 862.797 4.24 1.86489 0
M  V30 8605 C 863.532 5.29386 2.20313 0
M  V30 8606 N 863.028 6.4507 2.527 0
M  V30 8607 N 864.821 5.16768 2.2115 0
M  V30 8608 H 856.972 2.11603 -0.183781 0
M  V30 8609 H 859.235 0.947798 -0.0195601 0
M  V30 8610 H 858.941 3.47836 0.519889 0
M  V30 8611 H 858.815 3.05151 2.21727 0
M  V30 8612 H 861.202 2.06577 2.10737 0
M  V30 8613 H 861.283 2.52639 0.400882 0
M  V30 8614 H 860.927 4.96597 1.06555 0
M  V30 8615 H 860.857 4.47456 2.77652 0
M  V30 8616 H 863.348 3.40547 1.63817 0
M  V30 8617 H 863.661 7.21236 2.77557 0
M  V30 8618 H 862.006 6.48377 2.50263 0
M  V30 8619 H 865.197 4.25416 1.95293 0
M  V30 8620 H 865.37 5.99004 2.4718 0
M  V30 8621 N 858.776 -0.797141 1.35954 0
M  V30 8622 C 859.686 -1.94088 1.31784 0
M  V30 8623 C 860.702 -1.72588 0.221227 0
M  V30 8624 O 861.878 -1.96256 0.452255 0
M  V30 8625 C 858.943 -3.28828 1.09878 0
M  V30 8626 C 858.004 -3.63158 2.28942 0
M  V30 8627 C 857.237 -4.91469 2.08072 0
M  V30 8628 O 857.46 -5.60616 1.05196 0
M  V30 8629 O 856.394 -5.24277 2.95664 0
M  V30 8630 H 860.22 -2.00554 2.28061 0
M  V30 8631 H 857.805 -0.936288 1.16422 0
M  V30 8632 H 859.687 -4.09473 0.995485 0
M  V30 8633 H 858.362 -3.23271 0.16659 0
M  V30 8634 H 857.269 -2.82851 2.44839 0
M  V30 8635 H 858.602 -3.7343 3.20641 0
M  V30 8636 N 860.254 -1.20106 -1.0204 0
M  V30 8637 C 861.531 -0.918029 -1.72718 0
M  V30 8638 C 861.911 0.574163 -2.03142 0
M  V30 8639 O 861.259 1.53476 -1.69285 0
M  V30 8640 C 861.469 -1.78698 -2.9978 0
M  V30 8641 C 862.817 -2.02648 -3.7312 0
M  V30 8642 O 863.841 -1.75919 -3.09727 0
M  V30 8643 O 862.7 -2.47767 -4.87107 0
M  V30 8644 H 859.794 -0.342904 -0.752559 0
M  V30 8645 H 862.34 -1.30961 -1.07923 0
M  V30 8646 H 861.112 -2.79757 -2.7359 0
M  V30 8647 H 860.735 -1.39522 -3.72316 0
M  V30 8648 N 861.732 1.21287 -1.00634 0
M  V30 8649 C 862.972 1.92106 -0.698194 0
M  V30 8650 C 863.336 1.76437 0.757222 0
M  V30 8651 O 864.537 2.41641 1.17741 0
M  V30 8652 C 862.808 3.39748 -1.10932 0
M  V30 8653 S 864.367 4.29013 -0.921586 0
M  V30 8654 H 861.185 0.663755 -0.254853 0
M  V30 8655 H 863.787 1.46772 -1.29145 0
M  V30 8656 H 862.491 3.48669 -2.16467 0
M  V30 8657 H 862.022 3.90101 -0.508419 0
M  V30 8658 H 864.037 4.95871 0.180578 0
M  V30 8659 N 863.21 0.781244 1.36873 0
M  V30 8660 C 864.626 0.461968 1.52768 0
M  V30 8661 C 864.826 -1.02099 1.73719 0
M  V30 8662 O 863.882 -1.80665 1.76399 0
M  V30 8663 C 865.195 1.2853 2.71846 0
M  V30 8664 C 866.743 1.27817 2.85713 0
M  V30 8665 C 867.218 2.08506 4.07786 0
M  V30 8666 N 868.709 2.05909 4.14917 0
M  V30 8667 C 869.444 2.65118 5.08429 0
M  V30 8668 N 868.94 3.33152 6.07438 0
M  V30 8669 N 870.733 2.54896 5.00983 0
M  V30 8670 H 862.884 1.74198 1.21527 0
M  V30 8671 H 865.147 0.740027 0.592506 0
M  V30 8672 H 864.853 2.3366 2.62861 0
M  V30 8673 H 864.727 0.920981 3.65784 0
M  V30 8674 H 867.114 0.234817 2.94164 0
M  V30 8675 H 867.195 1.68219 1.92707 0
M  V30 8676 H 866.839 3.12867 4.00096 0
M  V30 8677 H 866.769 1.65479 4.99924 0
M  V30 8678 H 869.26 1.56386 3.44023 0
M  V30 8679 H 869.573 3.75681 6.75339 0
M  V30 8680 H 867.918 3.37253 6.07689 0
M  V30 8681 H 871.109 2.01352 4.22581 0
M  V30 8682 H 871.282 3.01332 5.73675 0
M  V30 8683 N 864.689 -1.48329 0.532571 0
M  V30 8684 C 865.599 -2.33445 -0.232546 0
M  V30 8685 C 866.615 -1.46651 -0.93645 0
M  V30 8686 O 867.791 -1.79627 -0.910834 0
M  V30 8687 C 864.856 -3.22824 -1.26434 0
M  V30 8688 C 863.917 -4.25492 -0.570511 0
M  V30 8689 C 863.15 -5.10601 -1.55315 0
M  V30 8690 O 863.373 -4.97733 -2.78599 0
M  V30 8691 O 862.307 -5.91927 -1.09112 0
M  V30 8692 H 866.133 -3.00119 0.464988 0
M  V30 8693 H 863.718 -1.46489 0.293462 0
M  V30 8694 H 865.6 -3.78103 -1.86055 0
M  V30 8695 H 864.275 -2.58807 -1.94424 0
M  V30 8696 H 863.182 -3.74041 0.0662587 0
M  V30 8697 H 864.515 -4.92154 0.0674904 0
M  V30 8698 N 866.167 -0.267825 -1.55308 0
M  V30 8699 C 867.1 0.663973 -2.18327 0
M  V30 8700 C 868.078 1.15759 -1.14187 0
M  V30 8701 O 869.262 1.23189 -1.42677 0
M  V30 8702 C 866.389 1.9047 -2.8007 0
M  V30 8703 C 865.435 1.54718 -3.97447 0
M  V30 8704 S 866.268 0.631654 -5.31762 0
M  V30 8705 C 867.424 1.88092 -5.96969 0
M  V30 8706 H 867.657 0.128486 -2.97022 0
M  V30 8707 H 865.19 -0.052129 -1.54312 0
M  V30 8708 H 867.148 2.61688 -3.16275 0
M  V30 8709 H 865.809 2.41132 -2.01281 0
M  V30 8710 H 865.002 2.47022 -4.39313 0
M  V30 8711 H 864.604 0.915254 -3.62628 0
M  V30 8712 H 866.896 2.82572 -6.15759 0
M  V30 8713 H 867.839 1.50539 -6.91913 0
M  V30 8714 H 868.247 2.04254 -5.26252 0
M  V30 8715 N 867.645 1.57599 0.00500368 0
M  V30 8716 C 868.592 2.08106 0.998025 0
M  V30 8717 C 869.562 0.975374 1.34446 0
M  V30 8718 O 870.747 1.24749 1.44369 0
M  V30 8719 C 867.887 2.58496 2.28635 0
M  V30 8720 C 867 3.82947 1.99939 0
M  V30 8721 C 866.135 4.21857 3.22816 0
M  V30 8722 C 865.174 5.39159 2.89783 0
M  V30 8723 N 864.311 5.73386 4.05183 0
M  V30 8724 H 869.151 2.92684 0.560385 0
M  V30 8725 H 866.688 1.44692 0.265053 0
M  V30 8726 H 868.646 2.85787 3.03943 0
M  V30 8727 H 867.276 1.768 2.70077 0
M  V30 8728 H 866.328 3.62594 1.1502 0
M  V30 8729 H 867.64 4.68358 1.71588 0
M  V30 8730 H 866.794 4.50404 4.06474 0
M  V30 8731 H 865.533 3.35145 3.54301 0
M  V30 8732 H 864.538 5.1034 2.04532 0
M  V30 8733 H 865.763 6.27543 2.59551 0
M  V30 8734 H 863.709 4.89632 4.36574 0
M  V30 8735 H 863.626 6.53359 3.80339 0
M  V30 8736 H 864.894 6.06522 4.89644 0
M  V30 8737 N 869.123 -0.277682 1.55134 0
M  V30 8738 C 870.372 -1.00766 1.74726 0
M  V30 8739 C 870.685 -1.87617 0.553092 0
M  V30 8740 O 871.891 -2.64058 0.631318 0
M  V30 8741 C 870.347 -1.84147 3.09221 0
M  V30 8742 C 869.955 -1.02186 4.3619 0
M  V30 8743 C 871.699 -2.56604 3.38164 0
M  V30 8744 C 869.606 -1.84978 5.61727 0
M  V30 8745 H 868.536 -0.379948 0.651273 0
M  V30 8746 H 871.187 -0.263543 1.81598 0
M  V30 8747 H 869.569 -2.62637 2.96375 0
M  V30 8748 H 870.743 -0.281459 4.5994 0
M  V30 8749 H 869.058 -0.412054 4.14356 0
M  V30 8750 H 871.655 -3.18942 4.29162 0
M  V30 8751 H 871.998 -3.26647 2.58085 0
M  V30 8752 H 872.531 -1.85147 3.52087 0
M  V30 8753 H 869.27 -1.19365 6.4454 0
M  V30 8754 H 868.79 -2.56628 5.42128 0
M  V30 8755 H 870.469 -2.42458 5.99853 0
M  V30 8756 N 870.601 -1.47988 -0.541979 0
M  V30 8757 C 871.831 -1.58804 -1.32155 0
M  V30 8758 C 872.239 -0.242893 -1.87634 0
M  V30 8759 O 871.582 0.776239 -1.66494 0
M  V30 8760 C 871.644 -2.56567 -2.51821 0
M  V30 8761 C 871.308 -4.01915 -2.17517 0
M  V30 8762 C 872.305 -4.89954 -1.73901 0
M  V30 8763 C 869.99 -4.47365 -2.28408 0
M  V30 8764 C 871.984 -6.21467 -1.41625 0
M  V30 8765 C 869.671 -5.78902 -1.95745 0
M  V30 8766 C 870.669 -6.65775 -1.52423 0
M  V30 8767 O 870.357 -7.94866 -1.20183 0
M  V30 8768 H 870.089 -0.538536 -0.408601 0
M  V30 8769 H 872.643 -1.94446 -0.661818 0
M  V30 8770 H 870.873 -2.16023 -3.20735 0
M  V30 8771 H 872.562 -2.57347 -3.13891 0
M  V30 8772 H 873.328 -4.56082 -1.64966 0
M  V30 8773 H 869.207 -3.79942 -2.61084 0
M  V30 8774 H 872.751 -6.8923 -1.07738 0
M  V30 8775 H 868.648 -6.12311 -2.04316 0
M  V30 8776 H 869.416 -8.07509 -1.33683 0
M  V30 8777 N 872.079 0.78992 -1.36375 0
M  V30 8778 C 873.009 1.91683 -1.33341 0
M  V30 8779 C 873.99 1.68861 -0.204965 0
M  V30 8780 O 875.175 1.89982 -0.402531 0
M  V30 8781 C 872.305 3.28696 -1.12143 0
M  V30 8782 C 871.259 3.66041 -2.21806 0
M  V30 8783 C 870.585 5.01399 -1.85751 0
M  V30 8784 C 871.885 3.74677 -3.63888 0
M  V30 8785 H 873.579 1.94478 -2.27637 0
M  V30 8786 H 871.125 0.934271 -1.09578 0
M  V30 8787 H 873.078 4.07151 -1.08656 0
M  V30 8788 H 871.802 3.26287 -0.142974 0
M  V30 8789 H 870.461 2.89883 -2.24418 0
M  V30 8790 H 870.109 4.9551 -0.864817 0
M  V30 8791 H 869.809 5.27355 -2.59173 0
M  V30 8792 H 871.333 5.82274 -1.83819 0
M  V30 8793 H 872.747 4.43324 -3.63506 0
M  V30 8794 H 871.144 4.12118 -4.3621 0
M  V30 8795 H 872.214 2.75795 -3.9883 0
M  V30 8796 N 873.557 1.20646 1.01402 0
M  V30 8797 C 874.973 0.961866 1.27359 0
M  V30 8798 C 875.173 -0.357083 1.98311 0
M  V30 8799 O 874.229 -1.08498 2.28001 0
M  V30 8800 C 875.542 2.14627 2.10609 0
M  V30 8801 C 877.09 2.18753 2.23866 0
M  V30 8802 C 877.565 3.36686 3.10494 0
M  V30 8803 N 879.056 3.36716 3.18083 0
M  V30 8804 C 879.791 4.24615 3.85343 0
M  V30 8805 N 879.287 5.22697 4.54708 0
M  V30 8806 N 881.08 4.12449 3.81893 0
M  V30 8807 H 873.231 2.05481 0.537721 0
M  V30 8808 H 875.494 0.899292 0.299963 0
M  V30 8809 H 875.2 3.10159 1.65814 0
M  V30 8810 H 875.074 2.12935 3.11349 0
M  V30 8811 H 877.461 1.23782 2.67885 0
M  V30 8812 H 877.542 2.24492 1.22626 0
M  V30 8813 H 877.186 4.31945 2.67181 0
M  V30 8814 H 877.116 3.28185 4.11828 0
M  V30 8815 H 879.607 2.65728 2.68695 0
M  V30 8816 H 879.92 5.86087 5.03708 0
M  V30 8817 H 878.265 5.26631 4.53525 0
M  V30 8818 H 881.456 3.35091 3.26851 0
M  V30 8819 H 881.629 4.81162 4.34035 0
M  V30 8820 N 875.035 -1.20752 1.01276 0
M  V30 8821 C 875.983 -2.25432 0.572989 0
M  V30 8822 C 876.977 -1.64935 -0.386354 0
M  V30 8823 O 878.183 -1.7816 -0.256696 0
M  V30 8824 H 874.558 -0.733229 0.166972 0
M  V30 8825 H 876.529 -2.59856 1.46687 0
M  V30 8826 C 875.278 -3.47615 -0.0768249 0
M  V30 8827 H 874.601 -3.94442 0.652354 0
M  V30 8828 H 876.041 -4.22572 -0.3477 0
M  V30 8829 C 874.5 -3.1003 -1.31845 0
M  V30 8830 O 875.03 -3.21216 -2.41211 0
M  V30 8831 N 873.236 -2.64616 -1.20111 0
M  V30 8832 H 872.783 -2.55714 -0.311184 0
M  V30 8833 H 872.741 -2.39838 -2.03286 0
M  V30 8834 N 876.513 -0.788492 -1.36457 0
M  V30 8835 C 877.423 -0.187385 -2.3385 0
M  V30 8836 C 878.439 0.659984 -1.60998 0
M  V30 8837 O 879.615 0.575986 -1.92988 0
M  V30 8838 C 876.68 0.668525 -3.40194 0
M  V30 8839 C 875.741 -0.197234 -4.28847 0
M  V30 8840 C 874.974 0.61792 -5.30111 0
M  V30 8841 O 875.197 1.85396 -5.3943 0
M  V30 8842 O 874.131 0.0183016 -6.01897 0
M  V30 8843 H 877.957 -0.992617 -2.87021 0
M  V30 8844 H 875.542 -0.549934 -1.3891 0
M  V30 8845 H 877.424 1.15663 -4.05216 0
M  V30 8846 H 876.099 1.45166 -2.89324 0
M  V30 8847 H 875.006 -0.73207 -3.66867 0
M  V30 8848 H 876.339 -0.943863 -4.83065 0
M  V30 8849 N 877.991 1.48044 -0.54043 0
M  V30 8850 C 879.216 2.07396 -0.0124765 0
M  V30 8851 C 879.641 1.39288 1.26414 0
M  V30 8852 O 878.999 0.462252 1.75308 0
M  V30 8853 C 879.047 3.60131 0.18377 0
M  V30 8854 O 878.151 3.92995 1.25014 0
M  V30 8855 H 877.492 0.662554 -0.0438026 0
M  V30 8856 H 880.022 1.90306 -0.751327 0
M  V30 8857 H 880.032 4.06003 0.403197 0
M  V30 8858 H 878.707 4.09105 -0.74874 0
M  V30 8859 H 877.284 3.5889 1.01254 0
M  V30 8860 N 879.47 0.276058 1.55163 0
M  V30 8861 C 880.38 -0.621066 2.2623 0
M  V30 8862 C 881.396 -1.16931 1.28853 0
M  V30 8863 O 882.572 -1.1994 1.61791 0
M  V30 8864 C 879.637 -1.78824 2.97023 0
M  V30 8865 C 878.698 -1.27657 4.09881 0
M  V30 8866 C 877.931 -2.38812 4.77289 0
M  V30 8867 O 878.154 -3.58188 4.43912 0
M  V30 8868 O 877.088 -2.06915 5.65217 0
M  V30 8869 H 880.914 -0.0453346 3.03666 0
M  V30 8870 H 878.499 0.0434275 1.49337 0
M  V30 8871 H 880.381 -2.46877 3.41511 0
M  V30 8872 H 879.056 -2.35104 2.22503 0
M  V30 8873 H 877.963 -0.56248 3.69847 0
M  V30 8874 H 879.296 -0.759509 4.86305 0
M  V30 8875 N 880.948 -1.576 0.00335426 0
M  V30 8876 C 882.195 -1.90713 -0.680791 0
M  V30 8877 C 882.523 -0.877263 -1.73592 0
M  V30 8878 O 881.778 0.117497 -1.95347 0
M  V30 8879 C 882.077 -3.3058 -1.35837 0
M  V30 8880 C 881.743 -4.48786 -0.436111 0
M  V30 8881 C 880.405 -4.80855 -0.182195 0
M  V30 8882 C 882.757 -5.20821 0.198677 0
M  V30 8883 C 880.085 -5.8233 0.714747 0
M  V30 8884 C 882.437 -6.23252 1.08351 0
M  V30 8885 C 881.101 -6.53776 1.34658 0
M  V30 8886 H 880.371 -0.697869 -0.249119 0
M  V30 8887 H 883.018 -1.91407 0.0596011 0
M  V30 8888 H 881.323 -3.26026 -2.17289 0
M  V30 8889 H 883.02 -3.53462 -1.89383 0
M  V30 8890 H 879.61 -4.23731 -0.644186 0
M  V30 8891 H 883.794 -4.96298 0.0155259 0
M  V30 8892 H 879.05 -6.04339 0.926529 0
M  V30 8893 H 883.224 -6.78199 1.58172 0
M  V30 8894 H 880.851 -7.32225 2.04328 0
M  V30 8895 N 882.426 0.269451 -1.5528 0
M  V30 8896 C 883.842 0.616827 -1.47199 0
M  V30 8897 C 884.042 1.89354 -0.68901 0
M  V30 8898 O 883.098 2.51631 -0.209287 0
M  V30 8899 C 884.411 0.740492 -2.9144 0
M  V30 8900 C 885.959 0.834312 -3.01676 0
M  V30 8901 C 886.434 0.989725 -4.47178 0
M  V30 8902 N 887.925 1.05516 -4.51022 0
M  V30 8903 C 888.66 1.19427 -5.60825 0
M  V30 8904 N 888.156 1.30035 -6.80487 0
M  V30 8905 N 889.949 1.22566 -5.48575 0
M  V30 8906 H 882.1 -0.568962 -2.04638 0
M  V30 8907 H 884.363 -0.193153 -0.928114 0
M  V30 8908 H 884.069 -0.127234 -3.5147 0
M  V30 8909 H 883.943 1.61965 -3.40657 0
M  V30 8910 H 886.33 1.6925 -2.4174 0
M  V30 8911 H 886.411 -0.0695298 -2.55705 0
M  V30 8912 H 886.055 0.136179 -5.07717 0
M  V30 8913 H 885.985 1.90827 -4.90808 0
M  V30 8914 H 888.476 0.985434 -3.64825 0
M  V30 8915 H 888.789 1.40494 -7.59922 0
M  V30 8916 H 887.134 1.27033 -6.83292 0
M  V30 8917 H 890.325 1.13911 -4.54029 0
M  V30 8918 H 890.498 1.33063 -6.34191 0
M  V30 8919 N 883.904 1.48273 0.534124 0
M  V30 8920 C 885.181 1.46567 1.29528 0
M  V30 8921 C 885.561 0.17509 2.10373 0
M  V30 8922 O 884.909 -0.843228 2.12372 0
M  V30 8923 C 885.119 2.72519 2.18023 0
M  V30 8924 C 886.467 3.2068 2.78298 0
M  V30 8925 O 887.491 2.73408 2.28313 0
M  V30 8926 O 886.35 4.02924 3.69208 0
M  V30 8927 H 883.444 0.585151 0.584403 0
M  V30 8928 H 885.99 1.60502 0.551119 0
M  V30 8929 H 884.762 3.57965 1.5804 0
M  V30 8930 H 884.385 2.61285 2.99693 0
M  V30 8931 N 885.382 -0.782676 1.36792 0
M  V30 8932 C 886.329 -1.89558 1.31667 0
M  V30 8933 C 887.299 -1.65076 0.184147 0
M  V30 8934 O 888.484 -1.87143 0.371753 0
M  V30 8935 C 885.624 -3.26469 1.11858 0
M  V30 8936 C 884.737 -3.62978 2.34245 0
M  V30 8937 C 883.872 -4.89041 2.07394 0
M  V30 8938 C 882.911 -5.18249 3.25706 0
M  V30 8939 N 882.048 -6.35497 2.98476 0
M  V30 8940 H 886.888 -1.93274 2.26824 0
M  V30 8941 H 884.425 -0.945057 1.12726 0
M  V30 8942 H 886.383 -4.05431 0.983968 0
M  V30 8943 H 885.013 -3.22158 0.203531 0
M  V30 8944 H 884.065 -2.79087 2.58485 0
M  V30 8945 H 885.377 -3.80507 3.22514 0
M  V30 8946 H 884.531 -5.75883 1.90901 0
M  V30 8947 H 883.27 -4.73594 1.16446 0
M  V30 8948 H 882.275 -4.29887 3.4275 0
M  V30 8949 H 883.5 -5.35611 4.1749 0
M  V30 8950 H 881.446 -6.21429 2.10146 0
M  V30 8951 H 881.363 -6.5339 3.80286 0
M  V30 8952 H 882.631 -7.25304 2.85577 0
M  V30 8953 N 886.86 -1.21182 -1.00761 0
M  V30 8954 C 887.79 -0.992773 -2.11344 0
M  V30 8955 C 888.771 0.0813618 -1.69905 0
M  V30 8956 O 889.956 -0.0779503 -1.94043 0
M  V30 8957 C 887.086 -0.553826 -3.42856 0
M  V30 8958 C 886.04 -1.57223 -3.98077 0
M  V30 8959 C 885.366 -0.989605 -5.25463 0
M  V30 8960 C 886.666 -2.95839 -4.30438 0
M  V30 8961 H 888.36 -1.91766 -2.29927 0
M  V30 8962 H 885.906 -0.923426 -1.10494 0
M  V30 8963 H 887.859 -0.387771 -4.19612 0
M  V30 8964 H 886.583 0.406702 -3.24058 0
M  V30 8965 H 885.242 -1.7258 -3.23437 0
M  V30 8966 H 884.89 -0.0208743 -5.02996 0
M  V30 8967 H 884.59 -1.66984 -5.63374 0
M  V30 8968 H 886.114 -0.834815 -6.04866 0
M  V30 8969 H 887.528 -2.8394 -4.98047 0
M  V30 8970 H 885.925 -3.60851 -4.79486 0
M  V30 8971 H 886.995 -3.46882 -3.38823 0
M  V30 8972 N 888.338 1.20213 -1.01915 0
M  V30 8973 C 889.563 1.94163 -0.729076 0
M  V30 8974 C 889.988 1.74416 0.704323 0
M  V30 8975 O 889.346 1.0401 1.48498 0
M  V30 8976 C 889.394 3.44258 -1.07324 0
M  V30 8977 O 888.498 4.11979 -0.186367 0
M  V30 8978 H 887.839 0.606506 -0.270272 0
M  V30 8979 H 890.369 1.52571 -1.3632 0
M  V30 8980 H 890.379 3.94888 -1.02603 0
M  V30 8981 H 889.054 3.57954 -2.11759 0
M  V30 8982 H 887.631 3.7176 -0.291334 0
M  V30 8983 N 889.816 0.795718 1.36037 0
M  V30 8984 C 891.227 0.433379 1.816 0
M  V30 8985 C 891.578 -1.04341 1.66155 0
M  V30 8986 O 890.703 -1.81004 1.18603 0
M  V30 8987 C 891.298 0.77985 3.29703 0
M  V30 8988 C 889.857 0.470256 3.73451 0
M  V30 8989 C 889.004 1.01119 2.58206 0
M  V30 8990 H 891.955 0.988317 1.24169 0
M  V30 8991 H 891.976 0.0732898 3.80429 0
M  V30 8992 H 891.488 1.85473 3.40913 0
M  V30 8993 H 889.589 -0.596332 3.67797 0
M  V30 8994 H 889.702 0.995276 4.68648 0
M  V30 8995 H 888.066 0.434077 2.50974 0
M  V30 8996 H 888.849 2.09196 2.72198 0
M  V30 8997 N 891.294 -1.47756 0.548274 0
M  V30 8998 C 892.543 -2.01691 0.0187961 0
M  V30 8999 C 892.856 -1.42894 -1.33569 0
M  V30 9000 O 894.062 -1.88438 -1.95457 0
M  V30 9001 C 892.518 -3.59896 -0.016847 0
M  V30 9002 C 892.126 -4.27683 1.33385 0
M  V30 9003 C 893.87 -4.21614 -0.494188 0
M  V30 9004 C 891.777 -5.7787 1.2578 0
M  V30 9005 H 890.707 -0.753993 0.00325648 0
M  V30 9006 H 893.358 -1.69838 0.694792 0
M  V30 9007 H 891.74 -3.88672 -0.758304 0
M  V30 9008 H 892.914 -4.10559 2.09232 0
M  V30 9009 H 891.229 -3.77915 1.7484 0
M  V30 9010 H 893.826 -5.3166 -0.569342 0
M  V30 9011 H 894.169 -3.88176 -1.50417 0
M  V30 9012 H 894.702 -3.97336 0.192138 0
M  V30 9013 H 891.441 -6.15912 2.2435 0
M  V30 9014 H 890.961 -5.97355 0.540997 0
M  V30 9015 H 892.64 -6.39897 0.956109 0
M  V30 9016 N 892.772 -0.284283 -1.55015 0
M  V30 9017 C 893.722 0.613913 -2.19579 0
M  V30 9018 C 894.706 1.11153 -1.16335 0
M  V30 9019 O 895.898 1.05508 -1.42116 0
M  V30 9020 C 893.027 1.79329 -2.92739 0
M  V30 9021 C 892.113 1.31242 -4.03282 0
M  V30 9022 N 892.504 0.548344 -5.02819 0
M  V30 9023 C 890.802 1.5946 -4.1652 0
M  V30 9024 C 891.503 0.294358 -5.80955 0
M  V30 9025 N 890.479 0.869406 -5.36603 0
M  V30 9026 H 894.281 0.0224088 -2.93891 0
M  V30 9027 H 891.795 -0.0882619 -1.6216 0
M  V30 9028 H 893.792 2.44814 -3.37449 0
M  V30 9029 H 892.452 2.38865 -2.1994 0
M  V30 9030 H 893.463 0.194812 -5.17533 0
M  V30 9031 H 890.14 2.19866 -3.54916 0
M  V30 9032 H 891.53 -0.318195 -6.71146 0
M  V30 9033 N 894.251 1.57596 -0.0117121 0
M  V30 9034 C 895.5 1.9025 0.669921 0
M  V30 9035 C 895.813 0.887986 1.74282 0
M  V30 9036 O 897.019 1.10516 2.47989 0
M  V30 9037 C 895.475 3.37762 1.24277 0
M  V30 9038 C 895.083 4.47535 0.204076 0
M  V30 9039 C 896.827 3.79509 1.90192 0
M  V30 9040 C 894.734 5.86132 0.787577 0
M  V30 9041 H 893.664 0.709935 0.253984 0
M  V30 9042 H 896.315 1.8335 -0.0741718 0
M  V30 9043 H 894.697 3.39537 2.03791 0
M  V30 9044 H 895.871 4.57294 -0.56733 0
M  V30 9045 H 894.186 4.14881 -0.355305 0
M  V30 9046 H 896.783 4.80402 2.34773 0
M  V30 9047 H 897.126 3.13643 2.7374 0
M  V30 9048 H 897.659 3.80084 1.17394 0
M  V30 9049 H 894.398 6.55499 -0.00938418 0
M  V30 9050 H 893.918 5.80014 1.52787 0
M  V30 9051 H 895.597 6.34158 1.28265 0
M  V30 9052 N 895.729 -0.261212 1.5542 0
M  V30 9053 C 896.692 -1.30645 1.8832 0
M  V30 9054 C 897.692 -1.41782 0.758588 0
M  V30 9055 O 898.882 -1.40729 1.02669 0
M  V30 9056 C 896.014 -2.6862 2.09895 0
M  V30 9057 H 897.207 -1.02698 2.81768 0
M  V30 9058 H 894.76 -0.499838 1.48092 0
M  V30 9059 H 895.495 -3.0173 1.18868 0
M  V30 9060 H 895.28 -2.61921 2.91787 0
M  V30 9061 H 896.77 -3.44121 2.36581 0
M  V30 9062 N 897.207 -1.48554 -0.526253 0
M  V30 9063 C 898.137 -1.66252 -1.63959 0
M  V30 9064 C 899.118 -0.511351 -1.62232 0
M  V30 9065 O 900.303 -0.744322 -1.7937 0
M  V30 9066 C 897.433 -1.70556 -3.02536 0
M  V30 9067 C 896.387 -2.8521 -3.19123 0
M  V30 9068 C 895.713 -2.74606 -4.58798 0
M  V30 9069 C 897.013 -4.26463 -3.0154 0
M  V30 9070 H 898.707 -2.59459 -1.49404 0
M  V30 9071 H 896.253 -1.24862 -0.717326 0
M  V30 9072 H 898.206 -1.81524 -3.80298 0
M  V30 9073 H 896.93 -0.739297 -3.18123 0
M  V30 9074 H 895.589 -2.73802 -2.43779 0
M  V30 9075 H 895.237 -1.75941 -4.71226 0
M  V30 9076 H 894.937 -3.51544 -4.70841 0
M  V30 9077 H 896.461 -2.87548 -5.38655 0
M  V30 9078 H 897.875 -4.38685 -3.69091 0
M  V30 9079 H 896.272 -5.04428 -3.25073 0
M  V30 9080 H 897.342 -4.42667 -1.97925 0
M  V30 9081 N 898.685 0.775411 -1.37205 0
M  V30 9082 C 899.633 1.90996 -1.32752 0
M  V30 9083 C 900.627 1.68006 -0.216907 0
M  V30 9084 O 901.833 1.7584 -0.384723 0
M  V30 9085 H 898.208 0.62803 -0.413621 0
M  V30 9086 H 900.179 1.91869 -2.28536 0
M  V30 9087 C 898.928 3.28211 -1.14772 0
M  V30 9088 H 898.251 3.46477 -1.99484 0
M  V30 9089 H 899.691 4.07907 -1.15706 0
M  V30 9090 C 898.15 3.3658 0.146852 0
M  V30 9091 O 898.68 3.85428 1.13173 0
M  V30 9092 N 896.886 2.89936 0.196305 0
M  V30 9093 H 896.433 2.50375 -0.605807 0
M  V30 9094 H 896.391 2.95916 1.06212 0
M  V30 9095 N 900.163 1.21714 1.00117 0
M  V30 9096 C 901.41 1.0367 1.73951 0
M  V30 9097 C 901.738 -0.429289 1.89703 0
M  V30 9098 O 900.993 -1.33475 1.43119 0
M  V30 9099 C 901.292 1.68345 3.15269 0
M  V30 9100 C 900.958 3.18214 3.19454 0
M  V30 9101 C 899.62 3.59109 3.20303 0
M  V30 9102 C 901.972 4.14179 3.16394 0
M  V30 9103 C 899.3 4.94467 3.15783 0
M  V30 9104 C 901.652 5.49502 3.13416 0
M  V30 9105 C 900.316 5.8979 3.12577 0
M  V30 9106 H 899.586 0.379355 0.63653 0
M  V30 9107 H 902.233 1.51361 1.17312 0
M  V30 9108 H 900.538 1.12957 3.75164 0
M  V30 9109 H 902.235 1.51882 3.71124 0
M  V30 9110 H 898.825 2.85646 3.19538 0
M  V30 9111 H 903.009 3.83607 3.14895 0
M  V30 9112 H 898.265 5.24923 3.13473 0
M  V30 9113 H 902.439 6.23595 3.10003 0
M  V30 9114 H 900.066 6.94643 3.08829 0
M  V30 9115 N 901.641 -1.19671 1.02551 0
M  V30 9116 C 902.866 -1.93774 0.739363 0
M  V30 9117 C 903.291 -1.74787 -0.695064 0
M  V30 9118 O 902.649 -1.04796 -1.47944 0
M  V30 9119 C 902.697 -3.43684 1.09149 0
M  V30 9120 O 901.801 -4.11874 0.208213 0
M  V30 9121 H 901.142 -0.605064 0.273484 0
M  V30 9122 H 903.672 -1.51846 1.37128 0
M  V30 9123 H 903.682 -3.94339 1.04695 0
M  V30 9124 H 902.357 -3.56826 2.13654 0
M  V30 9125 H 900.934 -3.716 0.311045 0
M  V30 9126 N 903.119 -0.802921 -1.35613 0
M  V30 9127 C 904.049 -0.225131 -2.32412 0
M  V30 9128 C 905.03 0.647383 -1.57299 0
M  V30 9129 O 906.215 0.578414 -1.85386 0
M  V30 9130 C 903.345 0.630085 -3.41537 0
M  V30 9131 C 902.299 -0.143635 -4.27759 0
M  V30 9132 C 901.625 0.833046 -5.28171 0
M  V30 9133 C 902.925 -1.34054 -5.04804 0
M  V30 9134 H 904.619 -1.03385 -2.80984 0
M  V30 9135 H 902.165 -0.498593 -1.35093 0
M  V30 9136 H 904.118 1.04433 -4.08254 0
M  V30 9137 H 902.842 1.47165 -2.91565 0
M  V30 9138 H 901.501 -0.539015 -3.62616 0
M  V30 9139 H 901.149 1.67001 -4.74468 0
M  V30 9140 H 900.849 0.319697 -5.8673 0
M  V30 9141 H 902.373 1.24558 -5.97761 0
M  V30 9142 H 903.787 -1.00136 -5.64487 0
M  V30 9143 H 902.184 -1.78812 -5.72841 0
M  V30 9144 H 903.254 -2.12906 -4.35659 0
M  V30 9145 N 904.597 1.47463 -0.556102 0
M  V30 9146 C 905.874 1.9557 0.0339892 0
M  V30 9147 C 906.254 1.49869 1.48669 0
M  V30 9148 O 905.602 0.737019 2.16288 0
M  V30 9149 C 905.812 3.48826 -0.110343 0
M  V30 9150 C 907.16 4.24585 0.0355716 0
M  V30 9151 O 908.184 3.5618 -0.0378356 0
M  V30 9152 O 907.043 5.46158 0.193299 0
M  V30 9153 H 904.137 0.824461 0.0647521 0
M  V30 9154 H 906.683 1.57868 -0.622547 0
M  V30 9155 H 905.455 3.74891 -1.12126 0
M  V30 9156 H 905.078 3.9329 0.583855 0
M  V30 9157 N 906.075 0.2925 1.54862 0
M  V30 9158 C 907.486 -0.201841 1.85606 0
M  V30 9159 C 907.837 -1.54093 1.21449 0
M  V30 9160 O 906.962 -2.10327 0.509079 0
M  V30 9161 C 907.557 -0.373011 3.3674 0
M  V30 9162 C 906.116 -0.811574 3.67547 0
M  V30 9163 C 905.263 0.0850583 2.7717 0
M  V30 9164 H 908.214 0.513774 1.50153 0
M  V30 9165 H 908.235 -1.20892 3.60785 0
M  V30 9166 H 907.747 0.601751 3.83407 0
M  V30 9167 H 905.848 -1.79719 3.26392 0
M  V30 9168 H 905.961 -0.636853 4.74848 0
M  V30 9169 H 904.325 -0.434224 2.50971 0
M  V30 9170 H 905.108 1.05602 3.26654 0
M  V30 9171 N 907.553 -1.57587 0.0200696 0
M  V30 9172 C 908.485 -2.06555 -0.993359 0
M  V30 9173 C 909.498 -0.987227 -1.29451 0
M  V30 9174 O 910.687 -1.26361 -1.26075 0
M  V30 9175 C 907.787 -2.4675 -2.3231 0
M  V30 9176 C 906.96 -3.77554 -2.20843 0
M  V30 9177 C 906.019 -4.04397 -3.36674 0
M  V30 9178 O 905.045 -4.7478 -3.13963 0
M  V30 9179 N 906.247 -3.53861 -4.60176 0
M  V30 9180 H 909.012 -2.9412 -0.575617 0
M  V30 9181 H 906.573 -1.61038 -0.166889 0
M  V30 9182 H 908.565 -2.61806 -3.08609 0
M  V30 9183 H 907.135 -1.64598 -2.65756 0
M  V30 9184 H 906.355 -3.72382 -1.29327 0
M  V30 9185 H 907.643 -4.63271 -2.10375 0
M  V30 9186 H 907.041 -2.96904 -4.81523 0
M  V30 9187 H 905.598 -3.74213 -5.33674 0
M  V30 9188 N 909.032 0.252966 -1.55557 0
M  V30 9189 C 909.995 1.29645 -1.8901 0
M  V30 9190 C 910.995 1.41378 -0.766096 0
M  V30 9191 O 912.185 1.40183 -1.03414 0
M  V30 9192 C 909.317 2.67504 -2.11316 0
M  V30 9193 H 910.51 1.01202 -2.82309 0
M  V30 9194 H 908.063 0.491977 -1.48355 0
M  V30 9195 H 908.798 3.01095 -1.20466 0
M  V30 9196 H 908.583 2.6037 -2.93172 0
M  V30 9197 H 910.073 3.42861 -2.38403 0
M  V30 9198 N 910.51 1.48831 0.518367 0
M  V30 9199 C 911.921 1.50842 1.10016 0
M  V30 9200 C 912.272 0.284744 1.94123 0
M  V30 9201 O 911.397 -0.607088 2.0771 0
M  V30 9202 C 911.992 2.73329 2.00191 0
M  V30 9203 C 910.551 2.78175 2.53566 0
M  V30 9204 C 909.698 2.4452 1.30786 0
M  V30 9205 H 912.649 1.55779 0.303073 0
M  V30 9206 H 912.67 2.52506 2.84642 0
M  V30 9207 H 912.182 3.62374 1.3895 0
M  V30 9208 H 910.283 1.93368 3.18496 0
M  V30 9209 H 910.396 3.79905 2.91906 0
M  V30 9210 H 908.76 1.95924 1.62744 0
M  V30 9211 H 909.543 3.35819 0.712797 0
M  V30 9212 N 911.988 -0.768124 1.37614 0
M  V30 9213 C 913.234 -1.52907 1.33219 0
M  V30 9214 C 913.567 -1.94026 -0.0821218 0
M  V30 9215 O 912.842 -1.64345 -1.04023 0
M  V30 9216 C 913.125 -2.79164 2.27463 0
M  V30 9217 C 912.978 -2.44276 3.7769 0
M  V30 9218 C 914.297 -3.81115 2.20089 0
M  V30 9219 H 911.416 -0.554712 0.485246 0
M  V30 9220 H 914.058 -0.880911 1.68345 0
M  V30 9221 H 912.208 -3.34472 1.97639 0
M  V30 9222 H 913.88 -1.94855 4.18126 0
M  V30 9223 H 912.123 -1.76925 3.96081 0
M  V30 9224 H 912.794 -3.34544 4.39072 0
M  V30 9225 H 915.27 -3.35311 2.46386 0
M  V30 9226 H 914.146 -4.67174 2.88166 0
M  V30 9227 H 914.407 -4.25644 1.19498 0
M  V30 9228 N 913.466 -1.22244 -0.994698 0
M  V30 9229 C 914.743 -0.954459 -1.70732 0
M  V30 9230 C 915.123 0.530945 -2.04314 0
M  V30 9231 O 914.471 1.49851 -1.72502 0
M  V30 9232 C 914.681 -1.85016 -2.95922 0
M  V30 9233 C 916.029 -2.10517 -3.68738 0
M  V30 9234 O 917.053 -1.82449 -3.05926 0
M  V30 9235 O 915.912 -2.58044 -4.81742 0
M  V30 9236 H 913.006 -0.35879 -0.745116 0
M  V30 9237 H 915.552 -1.33221 -1.0512 0
M  V30 9238 H 914.324 -2.85498 -2.67594 0
M  V30 9239 H 913.947 -1.47388 -3.69273 0
M  V30 9240 N 914.944 1.19125 -1.03184 0
M  V30 9241 C 916.169 1.93379 -0.749628 0
M  V30 9242 C 916.594 1.75153 0.685785 0
M  V30 9243 O 915.952 1.05579 1.47386 0
M  V30 9244 C 916 3.43101 -1.1097 0
M  V30 9245 O 915.104 4.11758 -0.230053 0
M  V30 9246 H 914.445 0.603605 -0.276689 0
M  V30 9247 H 916.975 1.51116 -1.37931 0
M  V30 9248 H 916.985 3.93778 -1.06785 0
M  V30 9249 H 915.66 3.55688 -2.15544 0
M  V30 9250 H 914.237 3.7143 -0.330748 0
M  V30 9251 N 916.422 0.810101 1.35185 0
M  V30 9252 C 917.372 0.195541 2.2716 0
M  V30 9253 C 918.356 -0.632691 1.47939 0
M  V30 9254 O 919.548 -0.489372 1.701 0
M  V30 9255 C 916.677 -0.652164 3.37049 0
M  V30 9256 C 915.763 0.185989 4.23692 0
M  V30 9257 N 916.154 1.25073 4.90092 0
M  V30 9258 C 914.452 -0.0318033 4.45989 0
M  V30 9259 C 915.153 1.76272 5.54349 0
M  V30 9260 N 914.129 1.06861 5.32993 0
M  V30 9261 H 917.931 1.01018 2.75994 0
M  V30 9262 H 915.445 0.651612 1.48754 0
M  V30 9263 H 917.442 -1.10851 4.01893 0
M  V30 9264 H 916.102 -1.46511 2.89767 0
M  V30 9265 H 917.113 1.63341 4.91467 0
M  V30 9266 H 913.79 -0.813607 4.09496 0
M  V30 9267 H 915.18 2.65278 6.17315 0
M  V30 9268 N 917.9 -1.47166 0.563914 0
M  V30 9269 C 919.148 -2.02056 0.0422873 0
M  V30 9270 C 919.469 -1.43992 -1.31497 0
M  V30 9271 O 918.739 -0.617578 -1.85911 0
M  V30 9272 H 917.319 -0.746893 0.0126427 0
M  V30 9273 H 919.981 -1.80492 0.735441 0
M  V30 9274 H 919.077 -3.12073 -0.0408044 0
M  V30 9275 N 919.378 -0.300708 -1.54705 0
M  V30 9276 C 920.308 0.568675 -2.26469 0
M  V30 9277 C 921.289 1.13817 -1.26411 0
M  V30 9278 O 922.474 1.16756 -1.55183 0
M  V30 9279 C 919.604 1.74077 -3.00524 0
M  V30 9280 C 918.558 1.30165 -4.07727 0
M  V30 9281 C 917.884 2.55888 -4.69495 0
M  V30 9282 C 919.184 0.433106 -5.20501 0
M  V30 9283 H 920.878 -0.0298851 -2.99385 0
M  V30 9284 H 918.424 -0.0158135 -1.43991 0
M  V30 9285 H 920.377 2.35506 -3.49449 0
M  V30 9286 H 919.101 2.36556 -2.25186 0
M  V30 9287 H 917.76 0.710414 -3.59651 0
M  V30 9288 H 917.408 3.16681 -3.90797 0
M  V30 9289 H 917.108 2.27207 -5.41895 0
M  V30 9290 H 918.632 3.18121 -5.21183 0
M  V30 9291 H 920.046 0.95307 -5.65322 0
M  V30 9292 H 918.443 0.240085 -5.9962 0
M  V30 9293 H 919.513 -0.541866 -4.81863 0
M  V30 9294 N 920.856 1.57574 -0.0284266 0
M  V30 9295 C 922.272 1.56194 0.327958 0
M  V30 9296 C 922.472 1.03397 1.72949 0
M  V30 9297 O 921.528 0.680392 2.4316 0
M  V30 9298 C 922.841 3.00177 0.177196 0
M  V30 9299 C 924.389 3.12 0.250014 0
M  V30 9300 C 924.864 4.57821 0.128049 0
M  V30 9301 N 926.355 4.6283 0.185054 0
M  V30 9302 C 927.09 5.73286 0.114454 0
M  V30 9303 N 926.586 6.928 -0.00719225 0
M  V30 9304 N 928.379 5.61848 0.16839 0
M  V30 9305 H 920.53 1.90224 -0.944921 0
M  V30 9306 H 922.793 0.874987 -0.364832 0
M  V30 9307 H 922.499 3.42753 -0.788224 0
M  V30 9308 H 922.373 3.65101 0.94768 0
M  V30 9309 H 924.76 2.69337 1.20589 0
M  V30 9310 H 924.841 2.49799 -0.550835 0
M  V30 9311 H 924.485 5.01165 -0.824407 0
M  V30 9312 H 924.415 5.18001 0.947753 0
M  V30 9313 H 926.906 3.76867 0.279247 0
M  V30 9314 H 927.219 7.72781 -0.0543903 0
M  V30 9315 H 925.564 6.94987 -0.0419648 0
M  V30 9316 H 928.755 4.67367 0.261821 0
M  V30 9317 H 928.928 6.47907 0.109908 0
M  V30 9318 N 922.334 -0.244713 1.55689 0
M  V30 9319 C 923.745 -0.813603 1.6804 0
M  V30 9320 C 924.096 -1.85936 0.626281 0
M  V30 9321 O 923.221 -2.15206 -0.227038 0
M  V30 9322 C 923.816 -1.48252 3.04642 0
M  V30 9323 C 922.375 -1.99908 3.18926 0
M  V30 9324 C 921.522 -0.850958 2.6392 0
M  V30 9325 H 924.473 -0.0204805 1.58687 0
M  V30 9326 H 924.494 -2.35062 2.99209 0
M  V30 9327 H 924.006 -0.721164 3.81341 0
M  V30 9328 H 922.107 -2.78918 2.47054 0
M  V30 9329 H 922.22 -2.19497 4.25862 0
M  V30 9330 H 920.584 -1.25206 2.21801 0
M  V30 9331 H 921.367 -0.10265 3.43146 0
M  V30 9332 N 923.813 -1.49104 -0.510467 0
M  V30 9333 C 924.776 -1.64569 -1.59529 0
M  V30 9334 C 925.776 -0.517937 -1.5223 0
M  V30 9335 O 926.966 -0.784183 -1.55551 0
M  V30 9336 C 924.098 -1.6342 -2.99177 0
M  V30 9337 H 925.291 -2.61318 -1.4715 0
M  V30 9338 H 922.844 -1.37993 -0.734001 0
M  V30 9339 H 923.579 -0.68221 -3.17043 0
M  V30 9340 H 923.364 -2.45312 -3.05883 0
M  V30 9341 H 924.854 -1.77474 -3.78011 0
M  V30 9342 N 925.291 0.760815 -1.38019 0
M  V30 9343 C 926.221 1.88811 -1.37377 0
M  V30 9344 C 927.202 1.68388 -0.240737 0
M  V30 9345 O 928.387 1.89086 -0.442739 0
M  V30 9346 C 925.517 3.26244 -1.1909 0
M  V30 9347 C 924.471 3.61254 -2.29521 0
M  V30 9348 C 923.797 4.97346 -1.96345 0
M  V30 9349 C 925.097 3.66874 -3.71753 0
M  V30 9350 H 926.791 1.89606 -2.31711 0
M  V30 9351 H 924.337 0.910818 -1.11535 0
M  V30 9352 H 926.29 4.04755 -1.17267 0
M  V30 9353 H 925.014 3.2591 -0.212152 0
M  V30 9354 H 923.673 2.85057 -2.30517 0
M  V30 9355 H 923.321 4.93564 -0.969728 0
M  V30 9356 H 923.021 5.21739 -2.703 0
M  V30 9357 H 924.545 5.78244 -1.96129 0
M  V30 9358 H 925.959 4.35514 -3.72828 0
M  V30 9359 H 924.356 4.02772 -4.44853 0
M  V30 9360 H 925.426 2.67273 -4.0459 0
M  V30 9361 N 926.769 1.22769 0.988202 0
M  V30 9362 C 927.719 0.969202 2.06375 0
M  V30 9363 C 928.703 -0.0819274 1.60691 0
M  V30 9364 O 929.895 0.129201 1.76528 0
M  V30 9365 C 927.024 0.553919 3.38802 0
M  V30 9366 C 926.11 1.64003 3.91106 0
M  V30 9367 N 926.501 2.86872 4.16579 0
M  V30 9368 C 924.799 1.5128 4.1956 0
M  V30 9369 C 925.5 3.57137 4.5916 0
M  V30 9370 N 924.476 2.84624 4.63131 0
M  V30 9371 H 928.278 1.90247 2.24017 0
M  V30 9372 H 925.792 1.12592 1.17033 0
M  V30 9373 H 927.789 0.350033 4.15428 0
M  V30 9374 H 926.449 -0.37239 3.22558 0
M  V30 9375 H 927.46 3.23254 4.04632 0
M  V30 9376 H 924.137 0.653032 4.12361 0
M  V30 9377 H 925.527 4.62428 4.87452 0
M  V30 9378 N 928.247 -1.18576 1.03814 0
M  V30 9379 C 929.477 -1.92158 0.758864 0
M  V30 9380 C 929.885 -1.76267 -0.687498 0
M  V30 9381 O 929.228 -1.08806 -1.4801 0
M  V30 9382 C 929.29 -3.44063 1.04217 0
M  V30 9383 C 928.954 -3.8373 2.48193 0
M  V30 9384 C 929.951 -3.87722 3.46363 0
M  V30 9385 C 927.636 -4.151 2.82838 0
M  V30 9386 C 929.63 -4.2253 4.77229 0
M  V30 9387 C 927.317 -4.49578 4.13911 0
M  V30 9388 C 928.315 -4.53269 5.10917 0
M  V30 9389 O 928.003 -4.86945 6.39641 0
M  V30 9390 H 927.735 -0.61694 0.276335 0
M  V30 9391 H 930.289 -1.51388 1.38819 0
M  V30 9392 H 928.519 -3.85061 0.355709 0
M  V30 9393 H 930.208 -3.9889 0.751091 0
M  V30 9394 H 930.974 -3.63627 3.20936 0
M  V30 9395 H 926.853 -4.11406 2.08006 0
M  V30 9396 H 930.397 -4.25326 5.52941 0
M  V30 9397 H 926.294 -4.73133 4.39107 0
M  V30 9398 H 927.062 -5.04857 6.44253 0
M  V30 9399 N 929.725 -0.817259 -1.34754 0
M  V30 9400 C 930.657 -0.192695 -2.28389 0
M  V30 9401 C 931.67 0.614167 -1.50771 0
M  V30 9402 O 932.859 0.444776 -1.7287 0
M  V30 9403 C 929.959 0.748929 -3.30521 0
M  V30 9404 C 929.132 -0.0138762 -4.37398 0
M  V30 9405 C 928.191 0.847825 -5.19325 0
M  V30 9406 O 927.217 0.29487 -5.68436 0
M  V30 9407 N 928.419 2.16843 -5.38479 0
M  V30 9408 H 931.184 -0.997122 -2.82626 0
M  V30 9409 H 928.745 -0.673696 -1.47217 0
M  V30 9410 H 930.737 1.32987 -3.82226 0
M  V30 9411 H 929.307 1.45412 -2.7672 0
M  V30 9412 H 928.527 -0.776093 -3.86485 0
M  V30 9413 H 929.815 -0.539191 -5.05935 0
M  V30 9414 H 929.213 2.64148 -5.00242 0
M  V30 9415 H 927.77 2.69835 -5.93323 0
M  V30 9416 N 931.203 1.46865 -0.571711 0
M  V30 9417 C 932.428 2.07323 -0.0564655 0
M  V30 9418 C 932.853 1.41938 1.23431 0
M  V30 9419 O 932.211 0.499334 1.74288 0
M  V30 9420 C 932.259 3.6044 0.107339 0
M  V30 9421 O 931.363 3.95558 1.1665 0
M  V30 9422 H 930.704 0.661475 -0.0578465 0
M  V30 9423 H 933.234 1.88669 -0.791524 0
M  V30 9424 H 933.244 4.06767 0.316987 0
M  V30 9425 H 931.919 4.07425 -0.835348 0
M  V30 9426 H 930.496 3.60957 0.936189 0
M  V30 9427 N 932.681 0.308908 1.54543 0
M  V30 9428 C 933.628 -0.563659 2.23811 0
M  V30 9429 C 934.598 -1.12332 1.22355 0
M  V30 9430 O 935.783 -1.16638 1.50997 0
M  V30 9431 C 932.923 -1.72585 2.98845 0
M  V30 9432 C 932.036 -1.19682 4.1509 0
M  V30 9433 C 931.171 -2.32351 4.77688 0
M  V30 9434 C 930.21 -1.76623 5.86064 0
M  V30 9435 N 929.347 -2.82896 6.42584 0
M  V30 9436 H 934.187 0.0336288 2.97981 0
M  V30 9437 H 931.724 0.0283666 1.47073 0
M  V30 9438 H 933.682 -2.40951 3.40586 0
M  V30 9439 H 932.312 -2.29464 2.27037 0
M  V30 9440 H 931.364 -0.405173 3.78236 0
M  V30 9441 H 932.676 -0.748923 4.93146 0
M  V30 9442 H 931.83 -3.0865 5.22322 0
M  V30 9443 H 930.569 -2.80472 3.98982 0
M  V30 9444 H 929.574 -0.988171 5.40847 0
M  V30 9445 H 930.799 -1.29398 6.66658 0
M  V30 9446 H 928.745 -3.30336 5.66758 0
M  V30 9447 H 928.662 -2.42626 7.16009 0
M  V30 9448 H 929.93 -3.59068 6.91875 0
M  V30 9449 N 934.159 -1.57557 0.0367827 0
M  V30 9450 C 935.384 -1.96828 -0.653707 0
M  V30 9451 C 935.809 -0.913559 -1.64425 0
M  V30 9452 O 935.167 0.124749 -1.8087 0
M  V30 9453 C 935.215 -3.35189 -1.32969 0
M  V30 9454 O 934.319 -3.32095 -2.44513 0
M  V30 9455 H 933.66 -0.64157 -0.171124 0
M  V30 9456 H 936.19 -2.04351 0.100912 0
M  V30 9457 H 936.2 -3.71593 -1.68472 0
M  V30 9458 H 934.875 -4.11496 -0.603654 0
M  V30 9459 H 933.452 -3.07418 -2.11065 0
M  V30 9460 N 935.637 0.236453 -1.55816 0
M  V30 9461 C 937.053 0.585465 -1.48474 0
M  V30 9462 C 937.253 1.8785 -0.72902 0
M  V30 9463 O 936.309 2.51131 -0.262614 0
M  V30 9464 C 937.622 0.678506 -2.92945 0
M  V30 9465 C 939.17 0.770135 -3.03378 0
M  V30 9466 C 939.645 0.894649 -4.49177 0
M  V30 9467 N 941.136 0.959253 -4.53158 0
M  V30 9468 C 941.871 1.07505 -5.63232 0
M  V30 9469 N 941.367 1.15572 -6.83092 0
M  V30 9470 N 943.16 1.10902 -5.51051 0
M  V30 9471 H 935.311 -0.612241 -2.03385 0
M  V30 9472 H 937.574 -0.212796 -0.923808 0
M  V30 9473 H 937.28 -0.201757 -3.51121 0
M  V30 9474 H 937.154 1.54703 -3.44016 0
M  V30 9475 H 939.541 1.64085 -2.45276 0
M  V30 9476 H 939.622 -0.123753 -2.555 0
M  V30 9477 H 939.266 0.0284537 -5.07892 0
M  V30 9478 H 939.196 1.80373 -4.94745 0
M  V30 9479 H 941.687 0.907827 -3.66834 0
M  V30 9480 H 942 1.24343 -7.62731 0
M  V30 9481 H 940.345 1.12511 -6.85833 0
M  V30 9482 H 943.536 1.04255 -4.56343 0
M  V30 9483 H 943.709 1.19581 -6.36871 0
M  V30 9484 N 937.115 1.49373 0.502552 0
M  V30 9485 C 938.364 1.58028 1.25339 0
M  V30 9486 C 938.677 0.271494 1.93707 0
M  V30 9487 O 939.883 0.236584 2.70467 0
M  V30 9488 C 938.339 2.78817 2.27572 0
M  V30 9489 C 937.947 4.16448 1.65151 0
M  V30 9490 C 939.691 2.96802 3.03494 0
M  V30 9491 C 937.598 5.28461 2.65486 0
M  V30 9492 H 936.528 0.588396 0.471494 0
M  V30 9493 H 939.179 1.75756 0.52744 0
M  V30 9494 H 937.561 2.5458 3.03323 0
M  V30 9495 H 938.735 4.50816 0.954029 0
M  V30 9496 H 937.05 4.03809 1.01625 0
M  V30 9497 H 939.647 3.77656 3.78524 0
M  V30 9498 H 939.99 2.07303 3.61014 0
M  V30 9499 H 940.523 3.21071 2.34858 0
M  V30 9500 H 937.262 6.20015 2.12749 0
M  V30 9501 H 936.782 4.9855 3.33479 0
M  V30 9502 H 938.461 5.5773 3.27943 0
M  V30 9503 N 938.594 -0.753485 1.38421 0
M  V30 9504 C 939.504 -1.89797 1.37892 0
M  V30 9505 C 940.52 -1.71797 0.276023 0
M  V30 9506 O 941.696 -1.94718 0.514464 0
M  V30 9507 C 938.761 -3.25166 1.20284 0
M  V30 9508 C 937.822 -3.55691 2.4038 0
M  V30 9509 C 937.055 -4.84601 2.23602 0
M  V30 9510 O 937.278 -5.56985 1.22979 0
M  V30 9511 O 936.212 -5.14605 3.12194 0
M  V30 9512 H 940.038 -1.93197 2.34326 0
M  V30 9513 H 937.623 -0.898775 1.19342 0
M  V30 9514 H 939.505 -4.06099 1.12525 0
M  V30 9515 H 938.18 -3.22577 0.269352 0
M  V30 9516 H 937.087 -2.74919 2.53714 0
M  V30 9517 H 938.42 -3.6304 3.32359 0
M  V30 9518 N 940.072 -1.23292 -0.981677 0
M  V30 9519 C 941.349 -0.972514 -1.6971 0
M  V30 9520 C 941.729 0.509244 -2.04866 0
M  V30 9521 O 941.077 1.48013 -1.74082 0
M  V30 9522 C 941.287 -1.88144 -2.93943 0
M  V30 9523 C 942.635 -2.14416 -3.66485 0
M  V30 9524 O 943.659 -1.85684 -3.03974 0
M  V30 9525 O 942.518 -2.63139 -4.78978 0
M  V30 9526 H 939.612 -0.366673 -0.741269 0
M  V30 9527 H 942.158 -1.34328 -1.03701 0
M  V30 9528 H 940.93 -2.8832 -2.64551 0
M  V30 9529 H 940.553 -1.51296 -3.67689 0
M  V30 9530 N 941.55 1.18024 -1.04442 0
M  V30 9531 C 942.497 2.21785 -0.638759 0
M  V30 9532 C 943.467 1.62255 0.355312 0
M  V30 9533 O 944.652 1.89176 0.24844 0
M  V30 9534 C 941.792 3.45098 -0.0118002 0
M  V30 9535 C 940.905 4.1895 -1.05379 0
M  V30 9536 C 940.04 5.2973 -0.394951 0
M  V30 9537 C 939.079 5.95359 -1.42178 0
M  V30 9538 N 938.216 6.97668 -0.787635 0
M  V30 9539 H 943.056 2.55839 -1.52808 0
M  V30 9540 H 940.593 1.25681 -0.764378 0
M  V30 9541 H 942.551 4.15564 0.369075 0
M  V30 9542 H 941.181 3.11652 0.84102 0
M  V30 9543 H 940.233 3.47274 -1.55258 0
M  V30 9544 H 941.545 4.63877 -1.83355 0
M  V30 9545 H 940.699 6.06687 0.0399244 0
M  V30 9546 H 939.438 4.85915 0.416867 0
M  V30 9547 H 938.443 5.17139 -1.86675 0
M  V30 9548 H 939.668 6.41255 -2.23536 0
M  V30 9549 H 937.614 6.56 0.00380893 0
M  V30 9550 H 937.531 7.40867 -1.50505 0
M  V30 9551 H 938.799 7.78586 -0.377282 0
M  V30 9552 N 943.028 0.824394 1.34319 0
M  V30 9553 C 943.991 0.252696 2.27803 0
M  V30 9554 C 944.991 -0.570254 1.50349 0
M  V30 9555 O 946.181 -0.386145 1.69866 0
M  V30 9556 C 943.313 -0.645575 3.34731 0
M  V30 9557 H 944.506 1.07742 2.79878 0
M  V30 9558 H 942.059 0.596367 1.44475 0
M  V30 9559 H 942.794 -1.4933 2.87873 0
M  V30 9560 H 942.579 -0.0569478 3.92059 0
M  V30 9561 H 944.069 -1.03933 4.0446 0
M  V30 9562 N 944.506 -1.46559 0.579492 0
M  V30 9563 C 945.438 -2.28383 -0.19337 0
M  V30 9564 C 946.451 -1.38324 -0.858511 0
M  V30 9565 O 947.64 -1.62952 -0.728615 0
M  V30 9566 C 944.74 -3.13262 -1.29306 0
M  V30 9567 C 943.913 -4.31426 -0.720459 0
M  V30 9568 C 942.972 -4.97728 -1.70744 0
M  V30 9569 O 941.998 -5.55423 -1.24476 0
M  V30 9570 N 943.2 -4.94445 -3.04146 0
M  V30 9571 H 945.965 -2.95353 0.508611 0
M  V30 9572 H 943.526 -1.56436 0.417046 0
M  V30 9573 H 945.518 -3.54483 -1.95254 0
M  V30 9574 H 944.088 -2.48388 -1.89795 0
M  V30 9575 H 943.308 -3.94028 0.116398 0
M  V30 9576 H 944.596 -5.07808 -0.31763 0
M  V30 9577 H 943.994 -4.4881 -3.44363 0
M  V30 9578 H 942.551 -5.39616 -3.65592 0
M  V30 9579 N 945.984 -0.3171 -1.54377 0
M  V30 9580 C 947.233 0.288271 -1.99629 0
M  V30 9581 C 947.546 1.53754 -1.2091 0
M  V30 9582 O 948.752 2.2185 -1.56508 0
M  V30 9583 C 947.208 0.564188 -3.5545 0
M  V30 9584 C 946.816 -0.667659 -4.42997 0
M  V30 9585 C 948.56 1.12987 -4.09187 0
M  V30 9586 C 946.467 -0.364003 -5.90279 0
M  V30 9587 H 945.397 0.111492 -0.745711 0
M  V30 9588 H 948.048 -0.428317 -1.78431 0
M  V30 9589 H 946.43 1.34079 -3.72611 0
M  V30 9590 H 947.604 -1.44335 -4.37612 0
M  V30 9591 H 945.919 -1.1531 -4.00116 0
M  V30 9592 H 948.516 1.37157 -5.1681 0
M  V30 9593 H 948.859 2.07722 -3.60773 0
M  V30 9594 H 949.392 0.414595 -3.95634 0
M  V30 9595 H 946.131 -1.28035 -6.42874 0
M  V30 9596 H 945.651 0.374102 -5.98632 0
M  V30 9597 H 947.33 0.0285433 -6.46994 0
M  V30 9598 N 947.462 1.57535 -0.0451378 0
M  V30 9599 C 948.392 2.14208 0.929372 0
M  V30 9600 C 949.373 1.06221 1.32858 0
M  V30 9601 O 950.558 1.34132 1.40436 0
M  V30 9602 C 947.688 2.68217 2.20629 0
M  V30 9603 C 946.642 3.81134 1.94734 0
M  V30 9604 C 945.968 4.21636 3.28828 0
M  V30 9605 C 947.268 5.06531 1.27374 0
M  V30 9606 H 948.962 2.95886 0.457348 0
M  V30 9607 H 946.508 1.42332 0.218544 0
M  V30 9608 H 948.461 3.06502 2.89196 0
M  V30 9609 H 947.185 1.83722 2.70026 0
M  V30 9610 H 945.844 3.43312 1.28579 0
M  V30 9611 H 945.492 3.34099 3.76014 0
M  V30 9612 H 945.192 4.97736 3.12302 0
M  V30 9613 H 946.716 4.62516 3.98637 0
M  V30 9614 H 948.13 5.423 1.85967 0
M  V30 9615 H 946.527 5.87735 1.21194 0
M  V30 9616 H 947.597 4.84261 0.248913 0
M  V30 9617 N 948.94 -0.228186 1.55939 0
M  V30 9618 C 949.87 -1.28607 1.94891 0
M  V30 9619 C 950.851 -1.49236 0.816245 0
M  V30 9620 O 952.036 -1.61531 1.07803 0
M  V30 9621 C 949.166 -2.63719 2.25986 0
M  V30 9622 C 948.12 -2.57757 3.4168 0
M  V30 9623 C 947.446 -3.96837 3.58364 0
M  V30 9624 C 948.746 -2.13116 4.76843 0
M  V30 9625 H 950.44 -0.962531 2.83506 0
M  V30 9626 H 947.986 -0.461577 1.36402 0
M  V30 9627 H 949.939 -3.37878 2.51826 0
M  V30 9628 H 948.663 -2.97747 1.34217 0
M  V30 9629 H 947.322 -1.86055 3.15878 0
M  V30 9630 H 946.97 -4.28162 2.63982 0
M  V30 9631 H 946.67 -3.93731 4.36176 0
M  V30 9632 H 948.194 -4.72668 3.86545 0
M  V30 9633 H 949.608 -2.77015 5.01932 0
M  V30 9634 H 948.005 -2.21083 5.57891 0
M  V30 9635 H 949.075 -1.08326 4.72645 0
M  V30 9636 N 950.418 -1.49637 -0.494624 0
M  V30 9637 C 951.695 -1.4995 -1.25596 0
M  V30 9638 C 952.075 -0.230805 -2.09834 0
M  V30 9639 O 951.423 0.786625 -2.14533 0
M  V30 9640 C 951.633 -2.78204 -2.10721 0
M  V30 9641 C 952.981 -3.27946 -2.69698 0
M  V30 9642 O 954.005 -2.79365 -2.20984 0
M  V30 9643 O 952.864 -4.12571 -3.58395 0
M  V30 9644 H 949.958 -0.60044 -0.568684 0
M  V30 9645 H 952.504 -1.61906 -0.508371 0
M  V30 9646 H 951.276 -3.62029 -1.48494 0
M  V30 9647 H 950.899 -2.69139 -2.92661 0
M  V30 9648 N 951.896 0.746133 -1.38819 0
M  V30 9649 C 953.136 1.51821 -1.36857 0
M  V30 9650 C 953.5 1.9196 0.0391461 0
M  V30 9651 O 954.701 2.68172 0.183689 0
M  V30 9652 C 952.972 2.73214 -2.3041 0
M  V30 9653 S 954.531 3.62995 -2.46536 0
M  V30 9654 H 951.349 0.51945 -0.485482 0
M  V30 9655 H 953.951 0.875244 -1.74813 0
M  V30 9656 H 952.655 2.41847 -3.31569 0
M  V30 9657 H 952.186 3.42449 -1.9363 0
M  V30 9658 H 954.201 4.66353 -1.69498 0
M  V30 9659 N 953.375 1.23811 0.975125 0
M  V30 9660 C 954.623 1.07124 1.71373 0
M  V30 9661 C 954.944 -0.391864 1.91022 0
M  V30 9662 O 954.214 -1.28041 1.48265 0
M  V30 9663 H 952.794 0.393415 0.635007 0
M  V30 9664 H 955.456 1.55612 1.17349 0
M  V30 9665 H 954.552 1.56338 2.7012 0
M  V30 9666 N 954.853 -1.17469 1.05066 0
M  V30 9667 C 955.763 -2.25089 0.661222 0
M  V30 9668 C 956.779 -1.71086 -0.31712 0
M  V30 9669 O 957.955 -2.00685 -0.169534 0
M  V30 9670 C 955.02 -3.46676 0.0406415 0
M  V30 9671 C 954.081 -4.15771 1.06927 0
M  V30 9672 C 953.314 -5.31553 0.478208 0
M  V30 9673 O 953.537 -5.6593 -0.712714 0
M  V30 9674 O 952.471 -5.89574 1.21185 0
M  V30 9675 H 956.297 -2.60685 1.5581 0
M  V30 9676 H 953.882 -1.24744 0.822147 0
M  V30 9677 H 955.764 -4.203 -0.304312 0
M  V30 9678 H 954.439 -3.1288 -0.829909 0
M  V30 9679 H 953.346 -3.44171 1.46619 0
M  V30 9680 H 954.679 -4.53591 1.91092 0
M  V30 9681 N 956.331 -0.831506 -1.3388 0
M  V30 9682 C 957.608 -0.345907 -1.92517 0
M  V30 9683 C 957.988 1.16784 -1.75854 0
M  V30 9684 O 957.336 1.97889 -1.14245 0
M  V30 9685 C 957.546 -0.784692 -3.40064 0
M  V30 9686 C 958.894 -0.78846 -4.17215 0
M  V30 9687 O 959.918 -0.727823 -3.48685 0
M  V30 9688 O 958.777 -0.869481 -5.39539 0
M  V30 9689 H 955.871 -0.0963568 -0.821367 0
M  V30 9690 H 958.417 -0.916868 -1.42799 0
M  V30 9691 H 957.189 -1.82697 -3.46031 0
M  V30 9692 H 956.812 -0.189897 -3.97146 0
M  V30 9693 N 957.809 1.4625 -0.587256 0
M  V30 9694 C 958.757 2.32076 0.156108 0
M  V30 9695 C 959.751 1.44756 0.879887 0
M  V30 9696 O 960.957 1.61356 0.797759 0
M  V30 9697 H 957.332 0.748808 0.0692098 0
M  V30 9698 H 959.303 2.9258 -0.586497 0
M  V30 9699 C 958.052 3.28008 1.15352 0
M  V30 9700 H 957.375 3.9518 0.60601 0
M  V30 9701 H 958.815 3.90832 1.64396 0
M  V30 9702 C 957.274 2.53691 2.21681 0
M  V30 9703 O 957.804 2.30329 3.29107 0
M  V30 9704 N 956.01 2.14174 1.96412 0
M  V30 9705 H 955.557 2.33374 1.09061 0
M  V30 9706 H 955.515 1.6477 2.67765 0
M  V30 9707 N 959.287 0.325282 1.54207 0
M  V30 9708 C 960.536 -0.27768 1.99779 0
M  V30 9709 C 960.849 -1.5311 1.21723 0
M  V30 9710 O 962.055 -2.21017 1.57682 0
M  V30 9711 C 960.511 -0.545329 3.55745 0
M  V30 9712 C 960.119 0.691143 4.42637 0
M  V30 9713 C 961.863 -1.10815 4.09781 0
M  V30 9714 C 959.77 0.395302 5.90077 0
M  V30 9715 H 958.7 -0.107536 0.746292 0
M  V30 9716 H 961.351 0.437773 1.78202 0
M  V30 9717 H 959.733 -1.32101 3.73317 0
M  V30 9718 H 960.907 1.46653 4.3684 0
M  V30 9719 H 959.222 1.1743 3.99499 0
M  V30 9720 H 961.819 -1.34414 5.1753 0
M  V30 9721 H 962.162 -2.05806 3.6187 0
M  V30 9722 H 962.695 -0.393608 3.95848 0
M  V30 9723 H 959.434 1.31443 6.42186 0
M  V30 9724 H 958.954 -0.34235 5.98822 0
M  V30 9725 H 960.633 0.00576877 6.47 0
M  V30 9726 N 960.765 -1.57509 0.0534917 0
M  V30 9727 C 962.005 -1.94654 -0.623641 0
M  V30 9728 C 962.369 -0.93184 -1.67871 0
M  V30 9729 O 963.57 -1.19031 -2.41009 0
M  V30 9730 C 961.841 -3.36575 -1.20216 0
M  V30 9731 S 963.4 -3.95677 -1.89697 0
M  V30 9732 H 960.218 -0.680893 -0.20471 0
M  V30 9733 H 962.82 -1.95113 0.122982 0
M  V30 9734 H 961.524 -4.08223 -0.422177 0
M  V30 9735 H 961.055 -3.39617 -1.98555 0
M  V30 9736 H 963.07 -3.81092 -3.17779 0
M  V30 9737 N 962.243 0.219913 -1.56058 0
M  V30 9738 C 963.489 0.945463 -1.79412 0
M  V30 9739 C 963.822 1.83922 -0.62341 0
M  V30 9740 O 963.097 1.90806 0.377256 0
M  V30 9741 C 963.38 1.783 -3.1286 0
M  V30 9742 C 963.233 0.915626 -4.40382 0
M  V30 9743 C 964.552 2.76045 -3.42764 0
M  V30 9744 H 961.671 0.342288 -0.652693 0
M  V30 9745 H 964.313 0.214235 -1.88788 0
M  V30 9746 H 962.463 2.40642 -3.04998 0
M  V30 9747 H 964.135 0.30882 -4.60265 0
M  V30 9748 H 962.378 0.221124 -4.33236 0
M  V30 9749 H 963.049 1.53607 -5.30197 0
M  V30 9750 H 965.525 2.23838 -3.50764 0
M  V30 9751 H 964.401 3.31748 -4.37304 0
M  V30 9752 H 964.662 3.53866 -2.65012 0
M  V30 9753 N 963.721 1.49897 0.486681 0
M  V30 9754 C 965.132 1.53142 1.06792 0
M  V30 9755 C 965.483 0.325856 1.93475 0
M  V30 9756 O 964.608 -0.562893 2.08951 0
M  V30 9757 C 965.203 2.77514 1.94348 0
M  V30 9758 C 963.762 2.83491 2.47609 0
M  V30 9759 C 962.909 2.47239 1.2557 0
M  V30 9760 H 965.86 1.56387 0.269962 0
M  V30 9761 H 965.881 2.58487 2.79221 0
M  V30 9762 H 965.393 3.65239 1.31232 0
M  V30 9763 H 963.494 2.0008 3.14323 0
M  V30 9764 H 963.607 3.86011 2.83782 0
M  V30 9765 H 961.971 1.99332 1.58552 0
M  V30 9766 H 962.754 3.37255 0.641404 0
M  V30 9767 N 965.199 -0.738761 1.39212 0
M  V30 9768 C 966.476 -1.48982 1.26742 0
M  V30 9769 C 966.856 -2.10732 -0.12466 0
M  V30 9770 O 966.204 -1.98287 -1.13554 0
M  V30 9771 C 966.414 -2.54427 2.38889 0
M  V30 9772 C 967.762 -3.20915 2.78027 0
M  V30 9773 O 968.786 -2.64738 2.38311 0
M  V30 9774 O 967.645 -4.22558 3.46565 0
M  V30 9775 H 964.739 -0.661395 0.496473 0
M  V30 9776 H 967.285 -0.772907 1.51077 0
M  V30 9777 H 966.057 -2.07151 3.3197 0
M  V30 9778 H 965.68 -3.33682 2.162 0
M  V30 9779 N 966.677 -1.24326 -0.968545 0
M  V30 9780 C 967.607 -1.05951 -2.08079 0
M  V30 9781 C 968.588 0.0272666 -1.70078 0
M  V30 9782 O 969.773 -0.139644 -1.93697 0
M  V30 9783 C 966.903 -0.662623 -3.4092 0
M  V30 9784 C 965.857 -1.69807 -3.92873 0
M  V30 9785 C 965.183 -1.15628 -5.22048 0
M  V30 9786 C 966.483 -3.09383 -4.20808 0
M  V30 9787 H 968.177 -1.98984 -2.23709 0
M  V30 9788 H 965.723 -0.958112 -1.075 0
M  V30 9789 H 967.676 -0.521071 -4.18166 0
M  V30 9790 H 966.4 0.303399 -3.25188 0
M  V30 9791 H 965.059 -1.82783 -3.17783 0
M  V30 9792 H 964.707 -0.180888 -5.02675 0
M  V30 9793 H 964.407 -1.84822 -5.57776 0
M  V30 9794 H 965.931 -1.02683 -6.01904 0
M  V30 9795 H 967.345 -2.99642 -4.88761 0
M  V30 9796 H 965.742 -3.75923 -4.67763 0
M  V30 9797 H 966.812 -3.57486 -3.27616 0
M  V30 9798 N 968.156 1.1691 -1.05688 0
M  V30 9799 C 969.088 2.20648 -0.620237 0
M  V30 9800 C 970.101 1.59652 0.318604 0
M  V30 9801 O 971.29 1.78157 0.110553 0
M  V30 9802 C 968.39 3.38716 0.111729 0
M  V30 9803 C 967.563 4.29277 -0.839062 0
M  V30 9804 C 966.622 5.25993 -0.147453 0
M  V30 9805 O 965.648 5.63787 -0.783151 0
M  V30 9806 N 966.85 5.69725 1.11327 0
M  V30 9807 H 969.615 2.58731 -1.51256 0
M  V30 9808 H 967.176 1.31858 -0.939412 0
M  V30 9809 H 969.168 4.00455 0.584657 0
M  V30 9810 H 967.738 2.99189 0.905784 0
M  V30 9811 H 966.958 3.64894 -1.4915 0
M  V30 9812 H 968.246 4.86669 -1.48428 0
M  V30 9813 H 967.644 5.41103 1.64999 0
M  V30 9814 H 966.201 6.33584 1.53018 0
M  V30 9815 N 969.634 0.838594 1.33437 0
M  V30 9816 C 970.564 0.286672 2.31734 0
M  V30 9817 C 971.545 -0.605451 1.5896 0
M  V30 9818 O 972.73 -0.529059 1.86854 0
M  V30 9819 C 969.86 -0.539311 3.43087 0
M  V30 9820 C 968.814 0.256997 4.27228 0
M  V30 9821 C 968.14 -0.692718 5.30194 0
M  V30 9822 C 969.44 1.47391 5.01072 0
M  V30 9823 H 971.134 1.10798 2.78144 0
M  V30 9824 H 968.68 0.534235 1.33723 0
M  V30 9825 H 970.633 -0.935724 4.1088 0
M  V30 9826 H 969.357 -1.39383 2.95364 0
M  V30 9827 H 968.016 0.634967 3.61059 0
M  V30 9828 H 967.664 -1.54363 4.78729 0
M  V30 9829 H 967.364 -0.164023 5.87371 0
M  V30 9830 H 968.888 -1.08665 6.00853 0
M  V30 9831 H 970.302 1.15067 5.61634 0
M  V30 9832 H 968.699 1.93937 5.67898 0
M  V30 9833 H 969.769 2.24382 4.29861 0
M  V30 9834 N 971.112 -1.45937 0.595003 0
M  V30 9835 C 972.022 -2.34221 -0.133325 0
M  V30 9836 C 973.038 -1.50491 -0.873407 0
M  V30 9837 O 974.214 -1.83328 -0.833828 0
M  V30 9838 C 971.279 -3.27896 -1.12628 0
M  V30 9839 C 970.34 -4.27529 -0.389532 0
M  V30 9840 C 969.573 -5.16729 -1.33519 0
M  V30 9841 O 969.796 -5.09102 -2.57238 0
M  V30 9842 O 968.73 -5.96023 -0.839084 0
M  V30 9843 H 972.556 -2.97877 0.591861 0
M  V30 9844 H 970.141 -1.45113 0.355329 0
M  V30 9845 H 972.023 -3.85654 -1.69851 0
M  V30 9846 H 970.698 -2.6682 -1.83272 0
M  V30 9847 H 969.605 -3.73424 0.224843 0
M  V30 9848 H 970.938 -4.91425 0.276169 0
M  V30 9849 N 972.59 -0.333456 -1.54032 0
M  V30 9850 C 973.836 0.266527 -2.01041 0
M  V30 9851 C 974.169 1.51006 -1.2211 0
M  V30 9852 O 973.444 1.92078 -0.306016 0
M  V30 9853 C 973.727 0.59078 -3.55221 0
M  V30 9854 C 973.58 -0.664143 -4.4487 0
M  V30 9855 C 974.899 1.40447 -4.17088 0
M  V30 9856 H 972.018 0.0953979 -0.7308 0
M  V30 9857 H 974.66 -0.451995 -1.84545 0
M  V30 9858 H 972.81 1.20292 -3.69408 0
M  V30 9859 H 974.482 -1.30227 -4.42537 0
M  V30 9860 H 972.725 -1.29106 -4.14143 0
M  V30 9861 H 973.396 -0.392664 -5.50602 0
M  V30 9862 H 975.872 0.886946 -4.06537 0
M  V30 9863 H 974.748 1.6001 -5.2506 0
M  V30 9864 H 975.009 2.40357 -3.71054 0
M  V30 9865 N 974.068 1.57479 -0.061844 0
M  V30 9866 C 975.315 1.93108 0.60954 0
M  V30 9867 C 975.643 0.941086 1.70217 0
M  V30 9868 O 974.898 -0.044914 1.95648 0
M  V30 9869 C 975.197 3.35394 1.23474 0
M  V30 9870 C 974.863 4.50095 0.269247 0
M  V30 9871 C 973.525 4.812 0.00360316 0
M  V30 9872 C 975.877 5.19725 -0.391839 0
M  V30 9873 C 973.205 5.79276 -0.930383 0
M  V30 9874 C 975.557 6.18801 -1.31408 0
M  V30 9875 C 974.221 6.48328 -1.58829 0
M  V30 9876 H 973.491 0.706634 0.223046 0
M  V30 9877 H 976.138 1.91054 -0.1306 0
M  V30 9878 H 974.443 3.33866 2.05039 0
M  V30 9879 H 976.14 3.60247 1.76134 0
M  V30 9880 H 972.73 4.2583 0.486477 0
M  V30 9881 H 976.914 4.95898 -0.199713 0
M  V30 9882 H 972.17 6.00484 -1.15019 0
M  V30 9883 H 976.344 6.71862 -1.83234 0
M  V30 9884 H 973.971 7.24137 -2.31363 0
M  V30 9885 N 975.546 -0.211634 1.56173 0
M  V30 9886 C 976.794 -0.932704 1.7929 0
M  V30 9887 C 977.115 -1.84472 0.632076 0
M  V30 9888 O 976.385 -1.92739 -0.350519 0
M  V30 9889 H 974.965 -0.347393 0.661307 0
M  V30 9890 H 977.627 -0.22111 1.93642 0
M  V30 9891 H 976.723 -1.53365 2.71819 0
M  V30 9892 N 977.024 -1.50153 -0.478725 0
M  V30 9893 C 977.934 -1.71232 -1.60364 0
M  V30 9894 C 978.95 -0.595269 -1.63501 0
M  V30 9895 O 980.126 -0.872683 -1.81511 0
M  V30 9896 C 977.191 -1.79487 -2.96623 0
M  V30 9897 C 976.252 -3.03185 -3.03937 0
M  V30 9898 C 975.485 -3.11036 -4.33696 0
M  V30 9899 O 975.708 -2.2588 -5.23769 0
M  V30 9900 O 974.642 -4.03698 -4.46443 0
M  V30 9901 H 978.468 -2.66575 -1.45505 0
M  V30 9902 H 976.053 -1.34158 -0.65741 0
M  V30 9903 H 977.935 -1.8714 -3.77567 0
M  V30 9904 H 976.61 -0.873264 -3.11698 0
M  V30 9905 H 975.517 -3.01036 -2.22099 0
M  V30 9906 H 976.85 -3.94898 -2.93796 0
M  V30 9907 N 978.502 0.731368 -1.39602 0
M  V30 9908 C 979.434 1.85575 -1.34516 0
M  V30 9909 C 980.447 1.60818 -0.253287 0
M  V30 9910 O 981.636 1.70984 -0.512505 0
M  V30 9911 C 978.736 3.21673 -1.06676 0
M  V30 9912 C 977.909 3.73757 -2.27211 0
M  V30 9913 C 976.968 4.88426 -1.95773 0
M  V30 9914 O 975.994 5.01898 -2.68491 0
M  V30 9915 N 977.196 5.73065 -0.926083 0
M  V30 9916 H 979.961 1.90442 -2.31413 0
M  V30 9917 H 977.522 0.912258 -1.33752 0
M  V30 9918 H 979.514 3.95959 -0.836577 0
M  V30 9919 H 978.084 3.12052 -0.185003 0
M  V30 9920 H 977.304 2.90781 -2.66158 0
M  V30 9921 H 978.592 4.05289 -3.07601 0
M  V30 9922 H 977.99 5.64774 -0.323497 0
M  V30 9923 H 976.547 6.47403 -0.755795 0
M  V30 9924 N 979.98 1.24838 0.961938 0
M  V30 9925 C 980.928 1.0436 2.07874 0
M  V30 9926 C 981.922 -0.0232531 1.69384 0
M  V30 9927 O 983.128 0.131773 1.79517 0
M  V30 9928 H 979.503 0.320492 0.680286 0
M  V30 9929 H 981.474 1.99055 2.22306 0
M  V30 9930 C 980.223 0.671246 3.41159 0
M  V30 9931 H 979.546 1.48395 3.7124 0
M  V30 9932 H 980.986 0.567608 4.20184 0
M  V30 9933 C 979.445 -0.622124 3.31106 0
M  V30 9934 O 979.975 -1.66627 3.65511 0
M  V30 9935 N 978.181 -0.605009 2.84232 0
M  V30 9936 H 977.728 0.245052 2.56432 0
M  V30 9937 H 977.686 -1.47056 2.77888 0
M  V30 9938 N 981.458 -1.16348 1.06306 0
M  V30 9939 C 982.408 -2.18717 0.643947 0
M  V30 9940 C 983.392 -1.57574 -0.325445 0
M  V30 9941 O 984.584 -1.76439 -0.140868 0
M  V30 9942 C 981.713 -3.43285 0.0320266 0
M  V30 9943 C 980.799 -4.11504 1.02592 0
M  V30 9944 N 981.19 -4.55374 2.20155 0
M  V30 9945 C 979.488 -4.37691 0.856887 0
M  V30 9946 C 980.189 -5.08149 2.83124 0
M  V30 9947 N 979.165 -5.01042 2.10851 0
M  V30 9948 H 982.967 -2.50353 1.53951 0
M  V30 9949 H 980.481 -1.328 0.934763 0
M  V30 9950 H 982.478 -4.15917 -0.286064 0
M  V30 9951 H 981.138 -3.13137 -0.858786 0
M  V30 9952 H 982.149 -4.49101 2.57931 0
M  V30 9953 H 978.826 -4.17496 0.0180742 0
M  V30 9954 H 980.216 -5.52131 3.82885 0
M  V30 9955 N 982.937 -0.845659 -1.3299 0
M  V30 9956 C 984.183 -0.445311 -1.9785 0
M  V30 9957 C 984.516 0.994476 -1.66805 0
M  V30 9958 O 983.791 1.69636 -0.95151 0
M  V30 9959 C 984.074 -0.674371 -3.53729 0
M  V30 9960 C 983.927 -2.16192 -3.94437 0
M  V30 9961 C 985.246 -0.124908 -4.39923 0
M  V30 9962 H 982.365 -0.163269 -0.718688 0
M  V30 9963 H 985.007 -1.06242 -1.5752 0
M  V30 9964 H 983.157 -0.149091 -3.88214 0
M  V30 9965 H 984.829 -2.75259 -3.70176 0
M  V30 9966 H 983.072 -2.64386 -3.43922 0
M  V30 9967 H 983.743 -2.27292 -5.03033 0
M  V30 9968 H 986.219 -0.573986 -4.12122 0
M  V30 9969 H 985.095 -0.314816 -5.47996 0
M  V30 9970 H 985.356 0.971758 -4.31288 0
M  V30 9971 N 984.415 1.45619 -0.602734 0
M  V30 9972 C 985.645 2.06348 -0.102105 0
M  V30 9973 C 986.053 1.44884 1.21677 0
M  V30 9974 O 985.396 0.555559 1.75098 0
M  V30 9975 C 985.458 3.59309 0.117026 0
M  V30 9976 C 985.122 4.43081 -1.11931 0
M  V30 9977 C 986.119 4.78364 -2.03627 0
M  V30 9978 C 983.804 4.83908 -1.34677 0
M  V30 9979 C 985.798 5.53325 -3.16403 0
M  V30 9980 C 983.485 5.58624 -2.47754 0
M  V30 9981 C 984.483 5.93249 -3.38445 0
M  V30 9982 O 984.171 6.6645 -4.49555 0
M  V30 9983 H 983.903 0.672988 -0.0637478 0
M  V30 9984 H 986.457 1.87928 -0.828983 0
M  V30 9985 H 984.687 3.76111 0.898742 0
M  V30 9986 H 986.376 4.01897 0.568649 0
M  V30 9987 H 987.142 4.47384 -1.87277 0
M  V30 9988 H 983.021 4.56396 -0.649875 0
M  V30 9989 H 986.565 5.80268 -3.87214 0
M  V30 9990 H 982.462 5.89019 -2.64059 0
M  V30 9991 H 983.23 6.84895 -4.48175 0
M  V30 9992 N 985.893 0.34162 1.53853 0
M  V30 9993 C 986.823 -0.508431 2.27897 0
M  V30 9994 C 987.804 -1.10425 1.29384 0
M  V30 9995 O 988.989 -1.126 1.58224 0
M  V30 9996 C 986.119 -1.66048 3.05034 0
M  V30 9997 C 985.073 -1.19309 4.11035 0
M  V30 9998 C 984.399 -2.4335 4.76114 0
M  V30 9999 C 985.699 -0.294952 5.21467 0
M  V30 10000 H 987.393 0.109251 2.99201 0
M  V30 10001 H 984.939 0.0539847 1.43899 0
M  V30 10002 H 986.892 -2.26158 3.5557 0
M  V30 10003 H 985.616 -2.30503 2.31379 0
M  V30 10004 H 984.275 -0.614809 3.61408 0
M  V30 10005 H 983.923 -3.06208 3.99056 0
M  V30 10006 H 983.623 -2.1276 5.47729 0
M  V30 10007 H 985.147 -3.0419 5.29434 0
M  V30 10008 H 986.561 -0.80285 5.67651 0
M  V30 10009 H 984.958 -0.0810221 6.00045 0
M  V30 10010 H 986.028 0.669433 4.80257 0
M  V30 10011 N 987.371 -1.57444 0.0701946 0
M  V30 10012 C 988.619 -1.93047 -0.598106 0
M  V30 10013 C 988.94 -0.950841 -1.70247 0
M  V30 10014 O 988.21 0.00127177 -1.959 0
M  V30 10015 H 986.79 -0.712648 -0.223924 0
M  V30 10016 H 989.452 -1.94481 0.127674 0
M  V30 10017 H 988.548 -2.94807 -1.02445 0
M  V30 10018 N 988.849 0.203349 -1.56283 0
M  V30 10019 C 990.126 0.950415 -1.70958 0
M  V30 10020 C 990.506 2.01708 -0.622647 0
M  V30 10021 O 989.854 2.25523 0.367635 0
M  V30 10022 C 990.064 1.54434 -3.12971 0
M  V30 10023 C 991.412 2.02964 -3.72949 0
M  V30 10024 O 992.436 1.64293 -3.16048 0
M  V30 10025 O 991.295 2.74097 -4.72793 0
M  V30 10026 H 988.389 0.445154 -0.69697 0
M  V30 10027 H 990.935 0.193695 -1.68591 0
M  V30 10028 H 989.707 0.77505 -3.83547 0
M  V30 10029 H 989.33 2.36611 -3.19532 0
M  V30 10030 N 990.327 1.50405 0.470755 0
M  V30 10031 C 991.274 1.69293 1.56871 0
M  V30 10032 C 992.244 0.534248 1.57274 0
M  V30 10033 O 993.429 0.764855 1.74799 0
M  V30 10034 C 990.569 1.79338 2.94842 0
M  V30 10035 C 989.682 3.06709 3.04226 0
M  V30 10036 C 988.817 3.07548 4.33114 0
M  V30 10037 C 987.856 4.29372 4.36241 0
M  V30 10038 N 986.993 4.27949 5.56601 0
M  V30 10039 H 991.833 2.63029 1.40071 0
M  V30 10040 H 989.37 1.30386 0.681016 0
M  V30 10041 H 991.328 1.83143 3.74853 0
M  V30 10042 H 989.958 0.890411 3.10277 0
M  V30 10043 H 989.01 3.12374 2.17086 0
M  V30 10044 H 990.322 3.96684 3.02396 0
M  V30 10045 H 989.476 3.10084 5.21472 0
M  V30 10046 H 988.215 2.15404 4.37553 0
M  V30 10047 H 987.22 4.27048 3.4628 0
M  V30 10048 H 988.445 5.22743 4.33493 0
M  V30 10049 H 986.391 3.38658 5.61824 0
M  V30 10050 H 986.308 5.11692 5.56513 0
M  V30 10051 H 987.576 4.34631 6.47083 0
M  V30 10052 N 991.805 -0.723954 1.39988 0
M  V30 10053 C 992.753 -1.85938 1.39749 0
M  V30 10054 C 993.747 -1.67085 0.279112 0
M  V30 10055 O 994.953 -1.74291 0.44972 0
M  V30 10056 H 991.328 -0.612246 0.436644 0
M  V30 10057 H 993.299 -1.83255 2.355 0
M  V30 10058 C 992.048 -3.23726 1.26874 0
M  V30 10059 H 991.371 -3.38835 2.12206 0
M  V30 10060 H 992.811 -4.03332 1.30765 0
M  V30 10061 C 991.27 -3.36893 -0.0218317 0
M  V30 10062 O 991.8 -3.89363 -0.987905 0
M  V30 10063 N 990.006 -2.90465 -0.0885618 0
M  V30 10064 H 989.553 -2.47954 0.698314 0
M  V30 10065 H 989.511 -2.99654 -0.951557 0
M  V30 10066 N 993.283 -1.25346 -0.955304 0
M  V30 10067 C 994.246 -1.05754 -2.03344 0
M  V30 10068 C 995.246 -0.0105743 -1.60797 0
M  V30 10069 O 996.436 -0.252699 -1.72357 0
M  V30 10070 C 993.568 -0.605536 -3.35479 0
M  V30 10071 H 994.761 -2.01459 -2.22158 0
M  V30 10072 H 992.314 -1.07744 -1.1323 0
M  V30 10073 H 993.049 0.354154 -3.2236 0
M  V30 10074 H 992.834 -1.36134 -3.67709 0
M  V30 10075 H 994.324 -0.489867 -4.14717 0
M  V30 10076 N 994.761 1.15782 -1.06922 0
M  V30 10077 C 995.691 2.22538 -0.707045 0
M  V30 10078 C 996.672 1.67371 0.303471 0
M  V30 10079 O 997.857 1.9339 0.177189 0
M  V30 10080 C 994.987 3.47158 -0.0994269 0
M  V30 10081 C 993.941 4.15257 -1.03661 0
M  V30 10082 C 993.267 5.33902 -0.291974 0
M  V30 10083 C 994.567 4.65516 -2.36837 0
M  V30 10084 H 996.261 2.53089 -1.59958 0
M  V30 10085 H 993.807 1.21649 -0.770552 0
M  V30 10086 H 995.76 4.21073 0.165852 0
M  V30 10087 H 994.484 3.15926 0.828155 0
M  V30 10088 H 993.143 3.43276 -1.28674 0
M  V30 10089 H 992.791 4.98926 0.638928 0
M  V30 10090 H 992.491 5.80407 -0.916613 0
M  V30 10091 H 994.015 6.1059 -0.0343915 0
M  V30 10092 H 995.429 5.30981 -2.16175 0
M  V30 10093 H 993.826 5.22666 -2.94856 0
M  V30 10094 H 994.896 3.81387 -2.99453 0
M  V30 10095 N 996.239 0.8527 1.3254 0
M  V30 10096 C 997.187 0.284659 2.30852 0
M  V30 10097 C 998.181 -0.5909 1.5876 0
M  V30 10098 O 999.387 -0.478922 1.73512 0
M  V30 10099 H 995.762 0.0733452 0.748415 0
M  V30 10100 H 997.733 1.1281 2.76254 0
M  V30 10101 C 996.482 -0.51379 3.43883 0
M  V30 10102 H 995.805 0.150644 3.99516 0
M  V30 10103 H 997.245 -0.876866 4.14834 0
M  V30 10104 C 995.704 -1.69823 2.90967 0
M  V30 10105 O 996.234 -2.79727 2.88298 0
M  V30 10106 N 994.44 -1.52465 2.47392 0
M  V30 10107 H 993.987 -0.630599 2.49762 0
M  V30 10108 H 993.945 -2.31859 2.12341 0
M  V30 10109 N 997.718 -1.45297 0.610449 0
M  V30 10110 C 998.648 -2.33311 -0.0939698 0
M  V30 10111 C 999.629 -1.46999 -0.85588 0
M  V30 10112 O 1000.81 -1.75764 -0.825865 0
M  V30 10113 C 997.944 -3.29751 -1.09003 0
M  V30 10114 C 996.898 -4.2572 -0.441146 0
M  V30 10115 C 996.224 -5.11873 -1.54566 0
M  V30 10116 C 997.524 -5.1837 0.639489 0
M  V30 10117 H 999.218 -2.92459 0.640941 0
M  V30 10118 H 996.764 -1.40631 0.309675 0
M  V30 10119 H 998.717 -3.90195 -1.59141 0
M  V30 10120 H 997.441 -2.68768 -1.85557 0
M  V30 10121 H 996.1 -3.66579 0.0393908 0
M  V30 10122 H 995.748 -4.47256 -2.30155 0
M  V30 10123 H 995.448 -5.76886 -1.11698 0
M  V30 10124 H 996.972 -5.75185 -2.04925 0
M  V30 10125 H 998.386 -5.7287 0.22207 0
M  V30 10126 H 996.783 -5.91876 0.990089 0
M  V30 10127 H 997.853 -4.60627 1.51495 0
M  V30 10128 N 999.196 -0.349774 -1.5367 0
M  V30 10129 C 1000.42 0.246038 -2.05432 0
M  V30 10130 C 1000.84 1.43719 -1.22435 0
M  V30 10131 O 1000.2 1.80622 -0.261166 0
M  V30 10132 C 1000.25 0.65501 -3.55516 0
M  V30 10133 O 999.968 -0.488782 -4.35365 0
M  V30 10134 C 1001.47 1.31088 -4.23475 0
M  V30 10135 H 998.689 0.0463952 -0.669394 0
M  V30 10136 H 1001.23 -0.503566 -1.98203 0
M  V30 10137 H 999.388 1.35455 -3.62947 0
M  V30 10138 H 999.802 -0.161528 -5.24251 0
M  V30 10139 H 1001.28 1.54774 -5.29857 0
M  V30 10140 H 1001.75 2.26636 -3.76208 0
M  V30 10141 H 1002.36 0.653211 -4.20254 0
M  V30 10142 N 1000.67 1.57404 -0.0785433 0
M  V30 10143 C 1001.92 1.93744 0.589024 0
M  V30 10144 C 1002.25 0.959087 1.69209 0
M  V30 10145 O 1001.5 -0.0241604 1.95685 0
M  V30 10146 C 1001.8 3.36684 1.1991 0
M  V30 10147 C 1001.47 4.50356 0.221493 0
M  V30 10148 C 1000.13 4.81177 -0.0474347 0
M  V30 10149 C 1002.48 5.1928 -0.446941 0
M  V30 10150 C 999.811 5.78257 -0.99177 0
M  V30 10151 C 1002.16 6.17372 -1.37964 0
M  V30 10152 C 1000.83 6.46607 -1.65697 0
M  V30 10153 H 1000.1 0.70896 0.215539 0
M  V30 10154 H 1002.74 1.90905 -0.150856 0
M  V30 10155 H 1001.05 3.36022 2.01486 0
M  V30 10156 H 1002.75 3.62095 1.72303 0
M  V30 10157 H 999.336 4.26322 0.441284 0
M  V30 10158 H 1003.52 4.95658 -0.252298 0
M  V30 10159 H 998.776 5.9923 -1.21381 0
M  V30 10160 H 1002.95 6.6988 -1.9035 0
M  V30 10161 H 1000.58 7.21643 -2.39031 0
M  V30 10162 N 1002.15 -0.195058 1.56388 0
M  V30 10163 C 1003.1 -1.24584 1.90952 0
M  V30 10164 C 1004.09 -1.40993 0.77522 0
M  V30 10165 O 1005.28 -1.43363 1.03808 0
M  V30 10166 C 1002.41 -2.59064 2.25258 0
M  V30 10167 C 1001.49 -2.46447 3.45145 0
M  V30 10168 N 1001.88 -2.0351 4.63052 0
M  V30 10169 C 1000.18 -2.77339 3.49283 0
M  V30 10170 C 1000.88 -2.02785 5.45209 0
M  V30 10171 N 999.859 -2.4429 4.85616 0
M  V30 10172 H 1003.66 -0.9052 2.79613 0
M  V30 10173 H 1001.17 -0.403493 1.57308 0
M  V30 10174 H 1003.17 -3.34963 2.48205 0
M  V30 10175 H 1001.83 -2.93951 1.37924 0
M  V30 10176 H 1002.84 -1.74219 4.87717 0
M  V30 10177 H 999.52 -3.16423 2.72365 0
M  V30 10178 H 1000.91 -1.71489 6.49647 0
M  V30 10179 N 1003.63 -1.50653 -0.462772 0
M  V30 10180 C 1004.59 -1.69561 -1.54213 0
M  V30 10181 C 1005.59 -0.566106 -1.50505 0
M  V30 10182 O 1006.78 -0.833273 -1.52978 0
M  V30 10183 C 1003.91 -1.72856 -2.93826 0
M  V30 10184 H 1005.11 -2.65867 -1.38761 0
M  V30 10185 H 1002.66 -1.40259 -0.689728 0
M  V30 10186 H 1003.4 -0.78273 -3.14712 0
M  V30 10187 H 1003.18 -2.54919 -2.97924 0
M  V30 10188 H 1004.67 -1.89411 -3.72174 0
M  V30 10189 N 1005.11 0.71652 -1.4037 0
M  V30 10190 C 1006.04 1.84138 -1.36477 0
M  V30 10191 C 1007.05 1.6054 -0.27033 0
M  V30 10192 O 1008.24 1.70431 -0.530612 0
M  V30 10193 C 1005.34 3.20523 -1.10082 0
M  V30 10194 C 1004.52 3.71326 -2.31162 0
M  V30 10195 C 1003.57 4.86322 -2.00942 0
M  V30 10196 O 1002.6 4.99022 -2.73799 0
M  V30 10197 N 1003.8 5.72051 -0.986812 0
M  V30 10198 H 1006.57 1.87977 -2.3342 0
M  V30 10199 H 1004.13 0.89802 -1.34712 0
M  V30 10200 H 1006.12 3.95049 -0.878526 0
M  V30 10201 H 1004.69 3.11838 -0.21809 0
M  V30 10202 H 1003.91 2.87941 -2.69227 0
M  V30 10203 H 1005.2 4.02003 -3.11883 0
M  V30 10204 H 1004.6 5.64399 -0.383381 0
M  V30 10205 H 1003.15 6.46565 -0.824419 0
M  V30 10206 N 1006.59 1.25851 0.948643 0
M  V30 10207 C 1007.53 1.06559 2.06756 0
M  V30 10208 C 1008.53 -0.00528632 1.69399 0
M  V30 10209 O 1009.73 0.150806 1.79367 0
M  V30 10210 H 1006.11 0.327689 0.676848 0
M  V30 10211 H 1008.08 2.01401 2.20182 0
M  V30 10212 C 1006.83 0.707392 3.40428 0
M  V30 10213 H 1006.15 1.52324 3.69645 0
M  V30 10214 H 1007.59 0.612142 4.19558 0
M  V30 10215 C 1006.05 -0.58697 3.31747 0
M  V30 10216 O 1006.58 -1.62741 3.67258 0
M  V30 10217 N 1004.79 -0.574828 2.84858 0
M  V30 10218 H 1004.33 0.272236 2.56157 0
M  V30 10219 H 1004.29 -1.441 2.79432 0
M  V30 10220 N 1008.06 -1.15214 1.07534 0
M  V30 10221 C 1009.31 -1.86319 0.800814 0
M  V30 10222 C 1009.64 -1.82221 -0.671494 0
M  V30 10223 O 1008.92 -1.24664 -1.49295 0
M  V30 10224 C 1009.2 -3.35347 1.31203 0
M  V30 10225 C 1009.05 -3.48067 2.84902 0
M  V30 10226 C 1010.37 -4.3016 0.930064 0
M  V30 10227 H 1007.49 -0.676523 0.292379 0
M  V30 10228 H 1010.13 -1.35349 1.33344 0
M  V30 10229 H 1008.28 -3.78886 0.858949 0
M  V30 10230 H 1009.96 -3.13379 3.38514 0
M  V30 10231 H 1008.2 -2.89566 3.23008 0
M  V30 10232 H 1008.87 -4.52782 3.15741 0
M  V30 10233 H 1011.35 -3.94591 1.3205 0
M  V30 10234 H 1010.22 -5.32914 1.31507 0
M  V30 10235 H 1010.48 -4.41796 -0.163824 0
M  V30 10236 N 1009.54 -0.859717 -1.32086 0
M  V30 10237 C 1010.79 -0.464662 -1.96686 0
M  V30 10238 C 1011.11 0.98412 -1.68345 0
M  V30 10239 O 1010.38 1.68847 -0.993361 0
M  V30 10240 H 1008.96 -0.168838 -0.727669 0
M  V30 10241 H 1011.62 -1.09726 -1.61079 0
M  V30 10242 H 1010.72 -0.613904 -3.06003 0
M  V30 10243 N 1011.02 1.44971 -0.618145 0
M  V30 10244 C 1011.93 2.34403 0.0960457 0
M  V30 10245 C 1012.95 1.51862 0.849355 0
M  V30 10246 O 1014.12 1.84632 0.804557 0
M  V30 10247 C 1011.19 3.29646 1.07397 0
M  V30 10248 C 1010.25 4.28095 0.321466 0
M  V30 10249 C 1009.48 5.18787 1.25281 0
M  V30 10250 O 1009.7 5.1313 2.49106 0
M  V30 10251 O 1008.64 5.97282 0.744156 0
M  V30 10252 H 1012.46 2.96898 -0.639176 0
M  V30 10253 H 1010.05 1.44529 -0.37837 0
M  V30 10254 H 1011.93 3.88307 1.63694 0
M  V30 10255 H 1010.61 2.69702 1.79004 0
M  V30 10256 H 1009.51 3.73019 -0.284223 0
M  V30 10257 H 1010.85 4.90923 -0.354315 0
M  V30 10258 N 1012.5 0.357919 1.53482 0
M  V30 10259 C 1013.75 -0.2337 2.00744 0
M  V30 10260 C 1014.07 -1.49908 1.2471 0
M  V30 10261 O 1013.34 -1.92597 0.358235 0
M  V30 10262 H 1011.92 -0.0893474 0.741637 0
M  V30 10263 H 1014.58 0.482388 1.88836 0
M  V30 10264 H 1013.68 -0.466073 3.086 0
M  V30 10265 N 1013.98 -1.5736 0.0868897 0
M  V30 10266 C 1015.22 -1.9367 -0.577598 0
M  V30 10267 C 1015.55 -0.968844 -1.69229 0
M  V30 10268 O 1014.82 -0.0195061 -1.9589 0
M  V30 10269 H 1013.4 -0.714983 -0.216353 0
M  V30 10270 H 1016.06 -1.94335 0.148294 0
M  V30 10271 H 1015.15 -2.95877 -0.993128 0
M  V30 10272 N 1015.45 0.186762 -1.56489 0
M  V30 10273 C 1016.42 1.21511 -1.94339 0
M  V30 10274 C 1017.42 1.38001 -0.82537 0
M  V30 10275 O 1018.61 1.3567 -1.09266 0
M  V30 10276 C 1015.74 2.583 -2.22472 0
M  V30 10277 H 1016.93 0.891371 -2.86347 0
M  V30 10278 H 1014.49 0.428612 -1.50308 0
M  V30 10279 H 1015.22 2.95715 -1.33129 0
M  V30 10280 H 1015.01 2.47701 -3.03951 0
M  V30 10281 H 1016.5 3.32441 -2.5273 0
M  V30 10282 N 1016.93 1.50896 0.454776 0
M  V30 10283 C 1018.16 1.66239 1.22671 0
M  V30 10284 C 1018.57 0.351876 1.85899 0
M  V30 10285 O 1017.91 -0.677848 1.70736 0
M  V30 10286 C 1017.98 2.70812 2.36434 0
M  V30 10287 C 1017.64 4.13913 1.93714 0
M  V30 10288 C 1018.64 4.99259 1.45039 0
M  V30 10289 C 1016.32 4.59921 2.01937 0
M  V30 10290 C 1018.32 6.28667 1.05151 0
M  V30 10291 C 1016 5.89329 1.6166 0
M  V30 10292 C 1017 6.73529 1.13347 0
M  V30 10293 O 1016.69 8.0052 0.736354 0
M  V30 10294 H 1016.42 0.561443 0.376508 0
M  V30 10295 H 1018.97 1.97974 0.547325 0
M  V30 10296 H 1017.2 2.34355 3.07595 0
M  V30 10297 H 1018.89 2.7521 2.98353 0
M  V30 10298 H 1019.66 4.64925 1.38095 0
M  V30 10299 H 1015.54 3.94518 2.38488 0
M  V30 10300 H 1019.08 6.94339 0.673711 0
M  V30 10301 H 1014.98 6.23182 1.68269 0
M  V30 10302 H 1015.75 8.1393 0.863759 0
M  V30 10303 N 1018.41 -0.709066 1.40748 0
M  V30 10304 C 1019.32 -1.85314 1.43861 0
M  V30 10305 C 1020.34 -1.70832 0.330539 0
M  V30 10306 O 1021.51 -1.92983 0.576152 0
M  V30 10307 C 1018.58 -3.21174 1.30568 0
M  V30 10308 C 1017.64 -3.47863 2.51574 0
M  V30 10309 C 1016.87 -4.77241 2.38906 0
M  V30 10310 O 1017.09 -5.52791 1.40636 0
M  V30 10311 O 1016.03 -5.04413 3.28407 0
M  V30 10312 H 1019.85 -1.85644 2.40354 0
M  V30 10313 H 1017.44 -0.860352 1.2214 0
M  V30 10314 H 1019.32 -4.02313 1.25388 0
M  V30 10315 H 1018 -3.21557 0.371841 0
M  V30 10316 H 1016.9 -2.66708 2.62331 0
M  V30 10317 H 1018.24 -3.52283 3.43741 0
M  V30 10318 N 1019.89 -1.26353 -0.941956 0
M  V30 10319 C 1020.85 -1.07904 -2.02211 0
M  V30 10320 C 1021.85 -0.0276283 -1.60776 0
M  V30 10321 O 1023.04 -0.270965 -1.7208 0
M  V30 10322 C 1020.17 -0.641084 -3.34818 0
M  V30 10323 H 1021.37 -2.03804 -2.20009 0
M  V30 10324 H 1018.92 -1.08939 -1.12081 0
M  V30 10325 H 1019.66 0.319943 -3.22718 0
M  V30 10326 H 1019.44 -1.40027 -3.66244 0
M  V30 10327 H 1020.93 -0.533826 -4.14174 0
M  V30 10328 N 1021.37 1.14642 -1.08144 0
M  V30 10329 C 1022.28 2.23257 -0.720668 0
M  V30 10330 C 1023.29 1.71866 0.271648 0
M  V30 10331 O 1024.47 2.01064 0.116266 0
M  V30 10332 C 1021.53 3.46447 -0.132542 0
M  V30 10333 C 1020.6 4.12789 -1.17913 0
M  V30 10334 C 1019.83 5.30099 -0.618971 0
M  V30 10335 O 1020.05 5.6762 0.562418 0
M  V30 10336 O 1018.99 5.86154 -1.36774 0
M  V30 10337 H 1022.81 2.56463 -1.62667 0
M  V30 10338 H 1020.4 1.22521 -0.854932 0
M  V30 10339 H 1022.28 4.20959 0.19277 0
M  V30 10340 H 1020.95 3.14971 0.746662 0
M  V30 10341 H 1019.86 3.40163 -1.55693 0
M  V30 10342 H 1021.19 4.48365 -2.03051 0
M  V30 10343 N 1022.85 0.866709 1.31628 0
M  V30 10344 C 1023.78 0.335762 2.31073 0
M  V30 10345 C 1024.76 -0.571597 1.60209 0
M  V30 10346 O 1025.94 -0.489306 1.87935 0
M  V30 10347 C 1023.07 -0.466416 3.44154 0
M  V30 10348 C 1022.03 0.347561 4.26586 0
M  V30 10349 C 1021.35 -0.5801 5.31544 0
M  V30 10350 C 1022.65 1.57986 4.97833 0
M  V30 10351 H 1024.35 1.16673 2.75731 0
M  V30 10352 H 1021.89 0.56248 1.3256 0
M  V30 10353 H 1023.84 -0.84836 4.12772 0
M  V30 10354 H 1022.57 -1.33086 2.98254 0
M  V30 10355 H 1021.23 0.71141 3.59631 0
M  V30 10356 H 1020.88 -1.44174 4.81895 0
M  V30 10357 H 1020.58 -0.0393965 5.87587 0
M  V30 10358 H 1022.1 -0.958958 6.03023 0
M  V30 10359 H 1023.51 1.26954 5.59067 0
M  V30 10360 H 1021.91 2.05939 5.63657 0
M  V30 10361 H 1022.98 2.3345 4.25005 0
M  V30 10362 N 1024.32 -1.44642 0.625825 0
M  V30 10363 C 1025.74 -1.56925 0.290992 0
M  V30 10364 C 1025.94 -1.61424 -1.20601 0
M  V30 10365 O 1025 -1.55439 -1.98985 0
M  V30 10366 C 1026.31 -2.84343 0.978242 0
M  V30 10367 C 1027.86 -2.98047 0.955882 0
M  V30 10368 C 1028.33 -4.2826 1.62349 0
M  V30 10369 N 1029.82 -4.35062 1.58983 0
M  V30 10370 C 1030.56 -5.34524 2.07538 0
M  V30 10371 N 1030.05 -6.4042 2.6426 0
M  V30 10372 N 1031.85 -5.25998 1.98198 0
M  V30 10373 H 1024 -1.39965 1.59761 0
M  V30 10374 H 1026.26 -0.670368 0.670306 0
M  V30 10375 H 1025.97 -2.86985 2.03304 0
M  V30 10376 H 1025.84 -3.73699 0.512726 0
M  V30 10377 H 1028.23 -2.94961 -0.0904292 0
M  V30 10378 H 1028.31 -2.10053 1.45984 0
M  V30 10379 H 1027.95 -4.32105 2.66923 0
M  V30 10380 H 1027.88 -5.15102 1.09441 0
M  V30 10381 H 1030.37 -3.59147 1.17565 0
M  V30 10382 H 1030.69 -7.1259 2.99056 0
M  V30 10383 H 1029.03 -6.41121 2.68308 0
M  V30 10384 H 1032.22 -4.42178 1.5361 0
M  V30 10385 H 1032.4 -6.03359 2.3635 0
M  V30 10386 N 1025.8 -0.366053 -1.5329 0
M  V30 10387 C 1027.05 0.223824 -2.01561 0
M  V30 10388 C 1027.38 1.48382 -1.25286 0
M  V30 10389 O 1026.66 1.91385 -0.34669 0
M  V30 10390 C 1026.94 0.5153 -3.56394 0
M  V30 10391 C 1026.79 -0.758357 -4.43361 0
M  V30 10392 C 1028.11 1.31568 -4.19974 0
M  V30 10393 H 1025.23 0.0798751 -0.732659 0
M  V30 10394 H 1027.87 -0.491038 -1.83545 0
M  V30 10395 H 1026.02 1.12429 -3.71876 0
M  V30 10396 H 1027.69 -1.39584 -4.39675 0
M  V30 10397 H 1025.94 -1.37862 -4.11311 0
M  V30 10398 H 1026.61 -0.509366 -5.49645 0
M  V30 10399 H 1029.08 0.800514 -4.08327 0
M  V30 10400 H 1027.96 1.48837 -5.28336 0
M  V30 10401 H 1028.22 2.32432 -3.76069 0
M  V30 10402 N 1027.28 1.57312 -0.0952337 0
M  V30 10403 C 1028.51 1.98697 0.57682 0
M  V30 10404 C 1028.92 0.974347 1.61716 0
M  V30 10405 O 1028.28 -0.036022 1.82464 0
M  V30 10406 C 1028.33 3.40133 1.2244 0
M  V30 10407 O 1028.05 4.37518 0.225678 0
M  V30 10408 C 1029.55 3.96522 1.98205 0
M  V30 10409 H 1026.77 0.65294 0.154629 0
M  V30 10410 H 1029.32 2.03754 -0.174562 0
M  V30 10411 H 1027.47 3.3609 1.92671 0
M  V30 10412 H 1027.89 5.199 0.693116 0
M  V30 10413 H 1029.36 4.97637 2.38875 0
M  V30 10414 H 1029.84 3.34347 2.84796 0
M  V30 10415 H 1030.44 4.04038 1.3279 0
M  V30 10416 N 1028.76 -0.17846 1.56586 0
M  V30 10417 C 1029.72 -1.20479 1.94981 0
M  V30 10418 C 1030.72 -1.37561 0.832677 0
M  V30 10419 O 1031.91 -1.35089 1.09984 0
M  V30 10420 C 1029.04 -2.57117 2.23839 0
M  V30 10421 H 1030.24 -0.876173 2.86816 0
M  V30 10422 H 1027.79 -0.420635 1.50534 0
M  V30 10423 H 1028.52 -2.95005 1.34695 0
M  V30 10424 H 1028.31 -2.46086 3.05261 0
M  V30 10425 H 1029.8 -3.31096 2.5449 0
M  V30 10426 N 1030.24 -1.51135 -0.446768 0
M  V30 10427 C 1031.65 -1.55919 -1.02694 0
M  V30 10428 C 1032 -0.377038 -1.92543 0
M  V30 10429 O 1031.12 0.507295 -2.1037 0
M  V30 10430 C 1031.72 -2.8257 -1.86922 0
M  V30 10431 C 1030.28 -2.89956 -2.40005 0
M  V30 10432 C 1029.42 -2.50482 -1.18971 0
M  V30 10433 H 1032.37 -1.57048 -0.228403 0
M  V30 10434 H 1032.4 -2.65799 -2.7227 0
M  V30 10435 H 1031.91 -3.6859 -1.21502 0
M  V30 10436 H 1030.01 -2.08343 -3.08907 0
M  V30 10437 H 1030.12 -3.93399 -2.73448 0
M  V30 10438 H 1028.49 -2.03466 -1.53211 0
M  V30 10439 H 1029.27 -3.38837 -0.551762 0
M  V30 10440 N 1031.71 0.701592 -1.41122 0
M  V30 10441 C 1033.12 1.28129 -1.35793 0
M  V30 10442 C 1033.48 1.96163 -0.0381185 0
M  V30 10443 O 1032.6 1.98416 0.863723 0
M  V30 10444 C 1033.2 2.33005 -2.45955 0
M  V30 10445 C 1031.75 2.86566 -2.44043 0
M  V30 10446 C 1030.9 1.60526 -2.26112 0
M  V30 10447 H 1033.85 0.496756 -1.50725 0
M  V30 10448 H 1033.87 3.14163 -2.14667 0
M  V30 10449 H 1033.39 1.8346 -3.42 0
M  V30 10450 H 1031.49 3.40304 -1.51737 0
M  V30 10451 H 1031.6 3.37406 -3.40138 0
M  V30 10452 H 1029.96 1.86113 -1.7388 0
M  V30 10453 H 1030.75 1.12985 -3.24175 0
M  V30 10454 N 1033.19 1.2685 0.935242 0
M  V30 10455 C 1034.1 1.10716 2.06831 0
M  V30 10456 C 1035.12 0.0391222 1.73956 0
M  V30 10457 O 1036.29 0.244071 1.99916 0
M  V30 10458 C 1033.36 0.748093 3.38533 0
M  V30 10459 C 1032.42 1.89619 3.85153 0
M  V30 10460 C 1031.65 1.55416 5.1057 0
M  V30 10461 O 1031.88 0.458596 5.68553 0
M  V30 10462 O 1030.81 2.39087 5.52378 0
M  V30 10463 H 1034.64 2.05785 2.23352 0
M  V30 10464 H 1032.22 1.05967 1.05315 0
M  V30 10465 H 1034.1 0.560841 4.17651 0
M  V30 10466 H 1032.78 -0.173142 3.23237 0
M  V30 10467 H 1031.68 2.13845 3.06954 0
M  V30 10468 H 1033.02 2.79737 4.04979 0
M  V30 10469 N 1034.67 -1.14067 1.0875 0
M  V30 10470 C 1035.63 -2.17453 0.724341 0
M  V30 10471 C 1036.63 -1.58959 -0.242614 0
M  V30 10472 O 1037.82 -1.74186 -0.0217008 0
M  V30 10473 C 1034.96 -3.40828 0.0700236 0
M  V30 10474 H 1036.15 -2.51094 1.63987 0
M  V30 10475 H 1033.7 -1.28775 0.885813 0
M  V30 10476 H 1034.44 -3.1277 -0.857061 0
M  V30 10477 H 1034.22 -3.84551 0.76569 0
M  V30 10478 H 1035.71 -4.17258 -0.168905 0
M  V30 10479 N 1036.15 -0.873678 -1.31166 0
M  V30 10480 C 1037.06 -0.335726 -2.32185 0
M  V30 10481 C 1038.07 0.556259 -1.64869 0
M  V30 10482 O 1039.25 0.452087 -1.9626 0
M  V30 10483 C 1036.32 0.450822 -3.43756 0
M  V30 10484 C 1035.38 -0.469565 -4.26724 0
M  V30 10485 C 1034.61 0.279538 -5.32967 0
M  V30 10486 O 1034.83 1.50715 -5.50128 0
M  V30 10487 O 1033.77 -0.36452 -6.00795 0
M  V30 10488 H 1037.59 -1.17314 -2.80127 0
M  V30 10489 H 1035.18 -0.637163 -1.35132 0
M  V30 10490 H 1037.06 0.896582 -4.11752 0
M  V30 10491 H 1035.73 1.26472 -2.9797 0
M  V30 10492 H 1034.64 -0.963902 -3.61469 0
M  V30 10493 H 1035.97 -1.24916 -4.76085 0
M  V30 10494 N 1037.63 1.44308 -0.633487 0
M  V30 10495 C 1038.86 2.06085 -0.145852 0
M  V30 10496 C 1039.26 1.47432 1.18577 0
M  V30 10497 O 1038.61 0.592575 1.7388 0
M  V30 10498 C 1038.67 3.59477 0.0407848 0
M  V30 10499 C 1038.33 4.40607 -1.21304 0
M  V30 10500 C 1039.33 4.73937 -2.13728 0
M  V30 10501 C 1037.02 4.80943 -1.44911 0
M  V30 10502 C 1039.01 5.46489 -3.28068 0
M  V30 10503 C 1036.7 5.53243 -2.59548 0
M  V30 10504 C 1037.69 5.85936 -3.50953 0
M  V30 10505 O 1037.38 6.56764 -4.6359 0
M  V30 10506 H 1037.11 0.671484 -0.0780085 0
M  V30 10507 H 1039.67 1.86128 -0.868658 0
M  V30 10508 H 1037.9 3.77933 0.818761 0
M  V30 10509 H 1039.59 4.03013 0.483273 0
M  V30 10510 H 1040.35 4.43311 -1.96725 0
M  V30 10511 H 1036.23 4.54915 -0.746537 0
M  V30 10512 H 1039.78 5.71924 -3.99435 0
M  V30 10513 H 1035.67 5.83285 -2.76493 0
M  V30 10514 H 1036.44 6.75234 -4.62602 0
M  V30 10515 N 1039.1 0.374177 1.53094 0
M  V30 10516 C 1040.33 -0.215903 2.06273 0
M  V30 10517 C 1040.75 -1.40979 1.24526 0
M  V30 10518 O 1040.11 -1.79331 0.266462 0
M  V30 10519 C 1040.16 -0.579089 3.5592 0
M  V30 10520 O 1039.26 -1.67516 3.76845 0
M  V30 10521 H 1038.61 -0.0293981 0.663349 0
M  V30 10522 H 1041.14 0.537271 1.9742 0
M  V30 10523 H 1041.15 -0.847678 3.99097 0
M  V30 10524 H 1039.82 0.293843 4.14861 0
M  V30 10525 H 1038.4 -1.40146 3.45563 0
M  V30 10526 N 1040.58 -1.57259 0.103575 0
M  V30 10527 C 1041.83 -1.94272 -0.557024 0
M  V30 10528 C 1042.15 -0.986739 -1.68192 0
M  V30 10529 O 1041.42 -0.0402818 -1.95859 0
M  V30 10530 H 1040 -0.717237 -0.208757 0
M  V30 10531 H 1042.66 -1.94167 0.168898 0
M  V30 10532 H 1041.76 -2.96914 -0.961691 0
M  V30 10533 N 1042.06 0.170153 -1.56679 0
M  V30 10534 C 1042.99 1.21285 -1.9953 0
M  V30 10535 C 1043.97 1.46104 -0.871071 0
M  V30 10536 O 1045.16 1.57419 -1.13724 0
M  V30 10537 C 1042.29 2.5515 -2.35618 0
M  V30 10538 C 1041.24 2.44898 -3.51011 0
M  V30 10539 C 1040.57 3.83263 -3.72845 0
M  V30 10540 C 1041.87 1.95271 -4.84424 0
M  V30 10541 H 1043.56 0.856646 -2.86883 0
M  V30 10542 H 1041.11 0.410634 -1.38021 0
M  V30 10543 H 1043.06 3.28299 -2.64193 0
M  V30 10544 H 1041.78 2.92561 -1.45175 0
M  V30 10545 H 1040.44 1.74203 -3.22566 0
M  V30 10546 H 1040.09 4.18069 -2.79691 0
M  V30 10547 H 1039.79 3.77272 -4.50488 0
M  V30 10548 H 1041.31 4.57996 -4.03822 0
M  V30 10549 H 1042.73 2.58195 -5.11867 0
M  V30 10550 H 1041.13 2.00225 -5.65712 0
M  V30 10551 H 1042.2 0.90709 -4.7634 0
M  V30 10552 N 1043.54 1.5137 0.438746 0
M  V30 10553 C 1044.78 1.64211 1.19006 0
M  V30 10554 C 1045.12 0.356607 1.90898 0
M  V30 10555 O 1044.39 -0.643722 1.83539 0
M  V30 10556 C 1044.68 2.8445 2.20817 0
M  V30 10557 C 1044.53 4.22972 1.53018 0
M  V30 10558 C 1045.85 3.00207 3.21813 0
M  V30 10559 H 1042.97 0.597628 0.431288 0
M  V30 10560 H 1045.61 1.8385 0.479487 0
M  V30 10561 H 1043.76 2.67836 2.81418 0
M  V30 10562 H 1045.43 4.5125 0.957654 0
M  V30 10563 H 1043.67 4.25736 0.832556 0
M  V30 10564 H 1044.34 5.03094 2.27158 0
M  V30 10565 H 1046.82 3.15522 2.71266 0
M  V30 10566 H 1045.7 3.85904 3.90345 0
M  V30 10567 H 1045.96 2.12216 3.87836 0
M  V30 10568 N 1045.02 -0.694098 1.41492 0
M  V30 10569 C 1046.43 -1.00487 1.23994 0
M  V30 10570 C 1046.63 -2.01078 0.130346 0
M  V30 10571 O 1045.69 -2.47403 -0.504775 0
M  V30 10572 C 1047 -1.52808 2.58979 0
M  V30 10573 C 1048.55 -1.64684 2.66173 0
M  V30 10574 C 1049.02 -2.20406 4.01479 0
M  V30 10575 N 1050.52 -2.27765 4.03333 0
M  V30 10576 C 1051.25 -2.7191 5.04829 0
M  V30 10577 N 1050.75 -3.1565 6.16714 0
M  V30 10578 N 1052.54 -2.71487 4.9219 0
M  V30 10579 H 1044.69 -0.027746 2.12382 0
M  V30 10580 H 1046.95 -0.0748741 0.945039 0
M  V30 10581 H 1046.66 -0.863519 3.40934 0
M  V30 10582 H 1046.53 -2.50998 2.81566 0
M  V30 10583 H 1048.92 -2.30251 1.84576 0
M  V30 10584 H 1049 -0.65035 2.47395 0
M  V30 10585 H 1048.65 -1.55454 4.83525 0
M  V30 10586 H 1048.58 -3.2081 4.17599 0
M  V30 10587 H 1051.07 -1.96899 3.22551 0
M  V30 10588 H 1051.38 -3.47966 6.90029 0
M  V30 10589 H 1049.72 -3.13555 6.20248 0
M  V30 10590 H 1052.92 -2.36666 4.03865 0
M  V30 10591 H 1053.09 -3.05573 5.71427 0
M  V30 10592 N 1046.49 -1.27344 -0.928501 0
M  V30 10593 C 1047.44 -1.06656 -2.01515 0
M  V30 10594 C 1048.43 0.00516619 -1.60899 0
M  V30 10595 O 1049.62 -0.213277 -1.7571 0
M  V30 10596 C 1046.75 -0.714935 -3.35773 0
M  V30 10597 C 1045.84 -1.82476 -3.82836 0
M  V30 10598 N 1046.23 -3.06421 -4.02417 0
M  V30 10599 C 1044.52 -1.71126 -4.11864 0
M  V30 10600 C 1045.23 -3.78637 -4.41598 0
M  V30 10601 N 1044.2 -3.06396 -4.49024 0
M  V30 10602 H 1048 -2.00718 -2.14685 0
M  V30 10603 H 1045.52 -1.18048 -1.11528 0
M  V30 10604 H 1047.51 -0.54784 -4.13285 0
M  V30 10605 H 1046.17 0.218069 -3.23967 0
M  V30 10606 H 1047.19 -3.42191 -3.88749 0
M  V30 10607 H 1043.86 -0.849031 -4.08776 0
M  V30 10608 H 1045.25 -4.85159 -4.64834 0
M  V30 10609 N 1047.97 1.13488 -1.09353 0
M  V30 10610 C 1049.38 1.66299 -0.848609 0
M  V30 10611 C 1049.73 1.86044 0.623051 0
M  V30 10612 O 1048.86 1.57871 1.48005 0
M  V30 10613 C 1049.45 3.02087 -1.53391 0
M  V30 10614 C 1048.01 3.51893 -1.33598 0
M  V30 10615 C 1047.16 2.27154 -1.59048 0
M  V30 10616 H 1050.11 0.974208 -1.25279 0
M  V30 10617 H 1050.13 3.68018 -0.966587 0
M  V30 10618 H 1049.64 2.87684 -2.60498 0
M  V30 10619 H 1047.75 3.715 -0.286045 0
M  V30 10620 H 1047.86 4.32059 -2.0703 0
M  V30 10621 H 1046.22 2.33708 -1.01256 0
M  V30 10622 H 1047.01 2.15317 -2.67383 0
M  V30 10623 N 1049.45 0.880621 1.30701 0
M  V30 10624 C 1050.7 0.495894 1.95922 0
M  V30 10625 C 1051.02 -0.957214 1.69889 0
M  V30 10626 O 1050.29 -1.67245 1.0201 0
M  V30 10627 H 1048.87 0.180394 0.724891 0
M  V30 10628 H 1051.53 1.12274 1.59313 0
M  V30 10629 H 1050.63 0.662508 3.04987 0
M  V30 10630 N 1050.93 -1.4397 0.641131 0
M  V30 10631 C 1051.88 -2.32495 -0.0698668 0
M  V30 10632 C 1052.87 -1.47922 -0.825555 0
M  V30 10633 O 1054.08 -1.64206 -0.737323 0
M  V30 10634 H 1050.45 -0.750861 -0.0413706 0
M  V30 10635 H 1052.42 -2.90201 0.694682 0
M  V30 10636 C 1051.17 -3.32063 -1.03098 0
M  V30 10637 H 1050.5 -3.97157 -0.458923 0
M  V30 10638 H 1051.94 -3.96664 -1.49778 0
M  V30 10639 C 1050.39 -2.61743 -2.12113 0
M  V30 10640 O 1050.92 -2.42385 -3.20332 0
M  V30 10641 N 1049.13 -2.21316 -1.88328 0
M  V30 10642 H 1048.68 -2.37261 -1.00324 0
M  V30 10643 H 1048.64 -1.74594 -2.61465 0
M  V30 10644 N 1052.41 -0.382291 -1.52893 0
M  V30 10645 C 1053.65 0.202133 -2.01489 0
M  V30 10646 C 1053.98 1.47399 -1.26901 0
M  V30 10647 O 1053.24 1.92439 -0.355771 0
M  V30 10648 C 1053.54 0.523437 -3.53546 0
M  V30 10649 C 1053.2 -0.656042 -4.46102 0
M  V30 10650 C 1051.86 -0.979633 -4.71123 0
M  V30 10651 C 1054.22 -1.44545 -5.00756 0
M  V30 10652 C 1051.54 -2.0943 -5.48047 0
M  V30 10653 C 1053.9 -2.55066 -5.78899 0
M  V30 10654 C 1052.56 -2.87942 -6.02201 0
M  V30 10655 H 1051.83 0.0739659 -0.737299 0
M  V30 10656 H 1054.48 -0.518196 -1.84356 0
M  V30 10657 H 1052.78 1.325 -3.68715 0
M  V30 10658 H 1054.48 0.988148 -3.88634 0
M  V30 10659 H 1051.07 -0.393818 -4.26787 0
M  V30 10660 H 1055.25 -1.20869 -4.81357 0
M  V30 10661 H 1050.51 -2.3528 -5.64317 0
M  V30 10662 H 1054.68 -3.1664 -6.20252 0
M  V30 10663 H 1052.31 -3.74435 -6.61591 0
M  V30 10664 N 1053.89 1.57202 -0.111913 0
M  V30 10665 C 1055.11 1.99723 0.559054 0
M  V30 10666 C 1055.54 0.990968 1.59879 0
M  V30 10667 O 1054.89 -0.038311 1.8126 0
M  V30 10668 C 1054.94 3.41151 1.16826 0
M  V30 10669 O 1054.05 3.43383 2.2839 0
M  V30 10670 H 1053.39 0.649004 0.140319 0
M  V30 10671 H 1055.92 2.03637 -0.198295 0
M  V30 10672 H 1055.93 3.79208 1.50551 0
M  V30 10673 H 1054.6 4.13907 0.406637 0
M  V30 10674 H 1053.18 3.17138 1.96158 0
M  V30 10675 N 1055.36 -0.161842 1.56767 0
M  V30 10676 C 1056.59 -0.896274 1.87034 0
M  V30 10677 C 1057.01 -1.74617 0.699314 0
M  V30 10678 O 1056.37 -1.77861 -0.351435 0
M  V30 10679 C 1056.42 -1.74105 3.15784 0
M  V30 10680 O 1055.52 -2.84372 2.98674 0
M  V30 10681 H 1054.86 -0.250523 0.614926 0
M  V30 10682 H 1057.39 -0.157127 2.03996 0
M  V30 10683 H 1057.4 -2.13907 3.4743 0
M  V30 10684 H 1056.08 -1.11684 4.00624 0
M  V30 10685 H 1054.66 -2.48084 2.78404 0
M  V30 10686 N 1056.84 -1.516 -0.430713 0
M  V30 10687 C 1057.77 -1.76342 -1.53054 0
M  V30 10688 C 1058.75 -0.61349 -1.58652 0
M  V30 10689 O 1059.94 -0.856888 -1.74273 0
M  V30 10690 C 1057.07 -1.8945 -2.91077 0
M  V30 10691 C 1056.02 -3.04928 -3.00339 0
M  V30 10692 C 1055.35 -3.03228 -4.40405 0
M  V30 10693 C 1056.65 -4.44777 -2.73808 0
M  V30 10694 H 1058.34 -2.68435 -1.326 0
M  V30 10695 H 1055.89 -1.29171 -0.636466 0
M  V30 10696 H 1057.84 -2.05343 -3.67984 0
M  V30 10697 H 1056.56 -0.940114 -3.12777 0
M  V30 10698 H 1055.22 -2.88751 -2.25872 0
M  V30 10699 H 1054.87 -2.05553 -4.59083 0
M  V30 10700 H 1054.57 -3.80776 -4.47531 0
M  V30 10701 H 1056.1 -3.21222 -5.19277 0
M  V30 10702 H 1057.51 -4.6127 -3.40445 0
M  V30 10703 H 1055.91 -5.2408 -2.92335 0
M  V30 10704 H 1056.98 -4.54358 -1.69372 0
M  V30 10705 N 1058.32 0.686584 -1.41858 0
M  V30 10706 C 1059.54 1.4802 -1.45275 0
M  V30 10707 C 1059.97 1.87997 -0.0621297 0
M  V30 10708 O 1059.33 1.55226 0.936733 0
M  V30 10709 C 1059.38 2.7133 -2.37513 0
M  V30 10710 O 1058.48 3.69159 -1.83836 0
M  V30 10711 H 1057.82 0.445152 -0.492682 0
M  V30 10712 H 1060.35 0.843161 -1.86419 0
M  V30 10713 H 1060.36 3.19537 -2.53693 0
M  V30 10714 H 1059.04 2.41571 -3.3855 0
M  V30 10715 H 1057.61 3.28134 -1.77151 0
M  V30 10716 N 1059.8 1.27835 0.921735 0
M  V30 10717 C 1061.04 1.15766 1.68457 0
M  V30 10718 C 1061.4 -0.290542 1.89789 0
M  V30 10719 O 1062.6 -0.53378 2.63447 0
M  V30 10720 C 1060.87 1.92591 3.0107 0
M  V30 10721 S 1062.43 1.96804 3.92191 0
M  V30 10722 H 1059.25 0.413169 0.578629 0
M  V30 10723 H 1061.85 1.61826 1.09693 0
M  V30 10724 H 1060.56 2.96991 2.8324 0
M  V30 10725 H 1060.09 1.47049 3.64884 0
M  V30 10726 H 1062.1 1.06877 4.84553 0
M  V30 10727 N 1061.28 -1.12907 1.09954 0
M  V30 10728 C 1062.55 -1.80602 0.751148 0
M  V30 10729 C 1062.93 -1.96826 -0.763077 0
M  V30 10730 O 1062.28 -1.54066 -1.68749 0
M  V30 10731 C 1062.49 -3.15289 1.49646 0
M  V30 10732 C 1063.84 -3.9056 1.66578 0
M  V30 10733 O 1064.86 -3.24929 1.45943 0
M  V30 10734 O 1063.72 -5.08292 2.00752 0
M  V30 10735 H 1060.82 -0.781529 0.270446 0
M  V30 10736 H 1063.36 -1.19786 1.20206 0
M  V30 10737 H 1062.13 -2.9874 2.52725 0
M  V30 10738 H 1061.76 -3.83809 1.03808 0
M  V30 10739 N 1062.75 -0.88754 -1.30232 0
M  V30 10740 C 1063.98 -0.521549 -1.99909 0
M  V30 10741 C 1064.39 0.895086 -1.66688 0
M  V30 10742 O 1063.73 1.60053 -0.90159 0
M  V30 10743 C 1063.8 -0.619564 -3.54121 0
M  V30 10744 C 1063.46 -2.00097 -4.10865 0
M  V30 10745 C 1064.46 -2.97068 -4.26669 0
M  V30 10746 C 1062.14 -2.30706 -4.46184 0
M  V30 10747 C 1064.14 -4.2278 -4.77007 0
M  V30 10748 C 1061.82 -3.56663 -4.96221 0
M  V30 10749 C 1062.82 -4.52515 -5.11585 0
M  V30 10750 O 1062.51 -5.76237 -5.60541 0
M  V30 10751 H 1062.24 -0.199904 -0.645766 0
M  V30 10752 H 1064.8 -1.19546 -1.67027 0
M  V30 10753 H 1063.03 0.111334 -3.8654 0
M  V30 10754 H 1064.71 -0.26448 -4.05037 0
M  V30 10755 H 1065.48 -2.74734 -3.99683 0
M  V30 10756 H 1061.36 -1.56865 -4.33491 0
M  V30 10757 H 1064.9 -4.97603 -4.88914 0
M  V30 10758 H 1060.8 -3.78834 -5.22643 0
M  V30 10759 H 1061.57 -5.78655 -5.78879 0
M  V30 10760 N 1064.23 1.43628 -0.648757 0
M  V30 10761 C 1065.48 2.01864 -0.160336 0
M  V30 10762 C 1065.81 1.51148 1.22412 0
M  V30 10763 O 1065.06 0.693168 1.83013 0
M  V30 10764 C 1065.36 3.57214 -0.115282 0
M  V30 10765 C 1065.03 4.27258 -1.44088 0
M  V30 10766 C 1063.69 4.46109 -1.8039 0
M  V30 10767 C 1066.04 4.66962 -2.31508 0
M  V30 10768 C 1063.37 5.01928 -3.03785 0
M  V30 10769 C 1065.72 5.24148 -3.54191 0
M  V30 10770 C 1064.39 5.41216 -3.90694 0
M  V30 10771 H 1063.66 0.738674 -0.0586712 0
M  V30 10772 H 1066.3 1.72163 -0.838578 0
M  V30 10773 H 1064.61 3.86431 0.646395 0
M  V30 10774 H 1066.3 4.00025 0.279425 0
M  V30 10775 H 1062.89 4.12928 -1.14842 0
M  V30 10776 H 1067.08 4.52095 -2.04753 0
M  V30 10777 H 1062.33 5.13328 -3.32122 0
M  V30 10778 H 1066.51 5.53861 -4.22151 0
M  V30 10779 H 1064.14 5.84234 -4.8639 0
M  V30 10780 N 1065.71 0.390394 1.52688 0
M  V30 10781 C 1066.67 -0.432149 2.25089 0
M  V30 10782 C 1067.67 -0.989296 1.26766 0
M  V30 10783 O 1068.86 -0.871126 1.50854 0
M  V30 10784 C 1066 -1.60642 3.00678 0
M  V30 10785 H 1067.19 0.201734 2.99221 0
M  V30 10786 H 1064.74 0.142531 1.55649 0
M  V30 10787 H 1065.48 -2.2777 2.3085 0
M  V30 10788 H 1065.26 -1.21361 3.72846 0
M  V30 10789 H 1066.75 -2.18873 3.55647 0
M  V30 10790 N 1067.19 -1.57141 0.120249 0
M  V30 10791 C 1068.43 -1.95527 -0.538245 0
M  V30 10792 C 1068.77 -1.00373 -1.6625 0
M  V30 10793 O 1068.04 -0.0411734 -1.94456 0
M  V30 10794 C 1068.33 -3.43843 -1.06976 0
M  V30 10795 C 1068.18 -4.49771 0.0511596 0
M  V30 10796 C 1069.5 -3.94035 -1.96022 0
M  V30 10797 H 1066.62 -0.710958 -0.194183 0
M  V30 10798 H 1069.26 -1.88986 0.196061 0
M  V30 10799 H 1067.41 -3.49548 -1.69553 0
M  V30 10800 H 1069.08 -4.56163 0.686503 0
M  V30 10801 H 1067.32 -4.27882 0.714127 0
M  V30 10802 H 1067.99 -5.50812 -0.361995 0
M  V30 10803 H 1070.47 -3.9064 -1.43315 0
M  V30 10804 H 1069.35 -4.98329 -2.3013 0
M  V30 10805 H 1069.61 -3.34803 -2.8872 0
M  V30 10806 N 1068.67 0.153526 -1.5685 0
M  V30 10807 C 1069.61 1.20896 -1.98713 0
M  V30 10808 C 1070.61 1.44839 -0.878529 0
M  V30 10809 O 1071.81 1.45208 -1.0637 0
M  V30 10810 H 1068.19 0.406797 -0.632472 0
M  V30 10811 H 1070.16 0.829145 -2.86649 0
M  V30 10812 C 1068.91 2.53642 -2.37825 0
M  V30 10813 H 1068.23 2.36047 -3.22679 0
M  V30 10814 H 1069.67 3.26136 -2.70946 0
M  V30 10815 C 1068.13 3.13706 -1.22841 0
M  V30 10816 O 1068.66 3.98246 -0.525626 0
M  V30 10817 N 1066.87 2.73059 -0.99435 0
M  V30 10818 H 1066.41 2.0441 -1.56761 0
M  V30 10819 H 1066.37 3.1358 -0.226883 0
M  V30 10820 N 1070.14 1.51827 0.422667 0
M  V30 10821 C 1071.08 1.70409 1.53275 0
M  V30 10822 C 1072.09 0.584584 1.51942 0
M  V30 10823 O 1073.28 0.859349 1.56453 0
M  V30 10824 C 1070.38 1.717 2.92185 0
M  V30 10825 C 1069.55 3.00472 3.17861 0
M  V30 10826 C 1068.61 2.93755 4.36571 0
M  V30 10827 O 1067.64 3.67682 4.3451 0
M  V30 10828 N 1068.84 2.10612 5.40946 0
M  V30 10829 H 1071.6 2.66176 1.37734 0
M  V30 10830 H 1069.16 1.49895 0.611799 0
M  V30 10831 H 1071.16 1.64756 3.69645 0
M  V30 10832 H 1069.73 0.834655 3.01251 0
M  V30 10833 H 1068.95 3.21171 2.28567 0
M  V30 10834 H 1070.23 3.85684 3.31851 0
M  V30 10835 H 1069.63 1.49954 5.45463 0
M  V30 10836 H 1068.19 2.09535 6.17202 0
M  V30 10837 N 1071.62 -0.679052 1.4222 0
M  V30 10838 C 1072.85 -1.47248 1.46058 0
M  V30 10839 C 1073.27 -1.87962 0.0720987 0
M  V30 10840 O 1072.63 -1.5572 -0.928488 0
M  V30 10841 C 1072.68 -2.70067 2.38948 0
M  V30 10842 O 1071.78 -3.68178 1.85791 0
M  V30 10843 H 1071.12 -0.442533 0.495036 0
M  V30 10844 H 1073.65 -0.833263 1.86863 0
M  V30 10845 H 1073.66 -3.18187 2.55385 0
M  V30 10846 H 1072.34 -2.39773 3.39826 0
M  V30 10847 H 1070.92 -3.2719 1.78889 0
M  V30 10848 N 1073.1 -1.28322 -0.914942 0
M  V30 10849 C 1074.52 -1.06003 -1.19313 0
M  V30 10850 C 1074.72 0.198366 -2.00521 0
M  V30 10851 O 1073.77 0.900364 -2.35902 0
M  V30 10852 C 1075.09 -2.30684 -1.92887 0
M  V30 10853 C 1076.63 -2.35851 -2.05775 0
M  V30 10854 C 1077.11 -3.60295 -2.82757 0
M  V30 10855 N 1078.6 -3.60928 -2.9032 0
M  V30 10856 C 1079.33 -4.53894 -3.50383 0
M  V30 10857 N 1078.83 -5.57178 -4.11734 0
M  V30 10858 N 1080.62 -4.41492 -3.4791 0
M  V30 10859 H 1072.77 -2.09104 -0.372735 0
M  V30 10860 H 1075.04 -0.920285 -0.227552 0
M  V30 10861 H 1074.74 -3.22355 -1.40643 0
M  V30 10862 H 1074.62 -2.37003 -2.93444 0
M  V30 10863 H 1077 -1.44678 -2.57201 0
M  V30 10864 H 1077.09 -2.33526 -1.04399 0
M  V30 10865 H 1076.73 -4.51811 -2.32011 0
M  V30 10866 H 1076.66 -3.59873 -3.84446 0
M  V30 10867 H 1079.15 -2.8624 -2.46729 0
M  V30 10868 H 1079.46 -6.24261 -4.55541 0
M  V30 10869 H 1077.81 -5.61005 -4.10242 0
M  V30 10870 H 1081 -3.60005 -2.99189 0
M  V30 10871 H 1081.17 -5.14132 -3.94427 0
M  V30 10872 N 1074.58 1.12322 -1.10551 0
M  V30 10873 C 1075.51 2.20176 -0.777486 0
M  V30 10874 C 1076.49 1.68252 0.250069 0
M  V30 10875 O 1077.67 1.93856 0.115574 0
M  V30 10876 C 1074.8 3.46666 -0.209822 0
M  V30 10877 C 1073.76 4.11749 -1.1682 0
M  V30 10878 C 1073.08 5.32703 -0.461684 0
M  V30 10879 C 1074.38 4.57746 -2.51527 0
M  V30 10880 H 1076.08 2.47872 -1.67928 0
M  V30 10881 H 1073.62 1.19136 -0.808863 0
M  V30 10882 H 1075.58 4.21388 0.0318068 0
M  V30 10883 H 1074.3 3.18401 0.727226 0
M  V30 10884 H 1072.96 3.39009 -1.3953 0
M  V30 10885 H 1072.61 5.00706 0.479875 0
M  V30 10886 H 1072.31 5.77197 -1.1008 0
M  V30 10887 H 1073.83 6.10172 -0.228629 0
M  V30 10888 H 1075.25 5.23835 -2.32958 0
M  V30 10889 H 1073.64 5.13021 -3.11335 0
M  V30 10890 H 1074.71 3.71667 -3.11435 0
M  V30 10891 N 1076.06 0.894434 1.2976 0
M  V30 10892 C 1076.99 0.3847 2.30309 0
M  V30 10893 C 1077.97 -0.537486 1.61385 0
M  V30 10894 O 1079.15 -0.449332 1.8893 0
M  V30 10895 C 1076.28 -0.393311 3.45066 0
M  V30 10896 C 1075.24 0.437968 4.25753 0
M  V30 10897 C 1074.56 -0.467221 5.32655 0
M  V30 10898 C 1075.86 1.6851 4.9437 0
M  V30 10899 H 1077.56 1.22496 2.73194 0
M  V30 10900 H 1075.1 0.590471 1.31337 0
M  V30 10901 H 1077.06 -0.760614 4.14479 0
M  V30 10902 H 1075.78 -1.2673 3.0101 0
M  V30 10903 H 1074.44 0.787533 3.58041 0
M  V30 10904 H 1074.09 -1.33919 4.84845 0
M  V30 10905 H 1073.79 0.0852482 5.87538 0
M  V30 10906 H 1075.31 -0.830833 6.04921 0
M  V30 10907 H 1076.72 1.38784 5.56248 0
M  V30 10908 H 1075.12 2.17849 5.59162 0
M  V30 10909 H 1076.19 2.42412 4.19958 0
M  V30 10910 N 1077.53 -1.43282 0.656365 0
M  V30 10911 C 1078.78 -2.02075 0.171293 0
M  V30 10912 C 1079.11 -1.51682 -1.21269 0
M  V30 10913 O 1078.39 -0.711243 -1.81029 0
M  V30 10914 C 1078.67 -3.59621 0.185602 0
M  V30 10915 C 1078.52 -4.20239 1.60373 0
M  V30 10916 C 1079.84 -4.37515 -0.476289 0
M  V30 10917 H 1076.96 -0.73424 0.0637185 0
M  V30 10918 H 1079.6 -1.70539 0.837648 0
M  V30 10919 H 1077.75 -3.86619 -0.381804 0
M  V30 10920 H 1079.43 -4.0426 2.22197 0
M  V30 10921 H 1077.67 -3.76769 2.15006 0
M  V30 10922 H 1078.34 -5.29333 1.56557 0
M  V30 10923 H 1080.82 -4.16099 0.00651073 0
M  V30 10924 H 1079.69 -5.47169 -0.435562 0
M  V30 10925 H 1079.95 -4.14003 -1.55093 0
M  V30 10926 N 1079.01 -0.398486 -1.52479 0
M  V30 10927 C 1080.25 0.180412 -2.03602 0
M  V30 10928 C 1080.62 1.43276 -1.27812 0
M  V30 10929 O 1081.82 2.08941 -1.69107 0
M  V30 10930 C 1080.09 0.432744 -3.5477 0
M  V30 10931 S 1081.65 0.980612 -4.27703 0
M  V30 10932 H 1078.47 0.0499981 -0.70924 0
M  V30 10933 H 1081.07 -0.548952 -1.87635 0
M  V30 10934 H 1079.77 -0.48568 -4.07516 0
M  V30 10935 H 1079.3 1.19028 -3.74961 0
M  V30 10936 H 1081.32 2.26216 -4.41634 0
M  V30 10937 N 1080.49 1.57075 -0.12858 0
M  V30 10938 C 1081.77 1.87075 0.571162 0
M  V30 10939 C 1082.15 1.03141 1.84188 0
M  V30 10940 O 1081.5 0.113001 2.2822 0
M  V30 10941 C 1081.71 3.3838 0.854383 0
M  V30 10942 C 1083.05 4.07194 1.20326 0
M  V30 10943 O 1084.08 3.43454 0.944338 0
M  V30 10944 O 1082.94 5.19725 1.68963 0
M  V30 10945 H 1080.03 0.774764 0.289258 0
M  V30 10946 H 1082.58 1.68908 -0.163806 0
M  V30 10947 H 1081.35 3.91273 -0.0456925 0
M  V30 10948 H 1080.97 3.62012 1.64418 0
M  V30 10949 N 1081.97 -0.145205 1.5693 0
M  V30 10950 C 1082.9 -1.18096 2.01434 0
M  V30 10951 C 1083.88 -1.447 0.894204 0
M  V30 10952 O 1085.07 -1.55589 1.16214 0
M  V30 10953 C 1082.2 -2.51369 2.39647 0
M  V30 10954 C 1081.15 -2.39283 3.54863 0
M  V30 10955 C 1080.48 -3.77283 3.78895 0
M  V30 10956 C 1081.78 -1.8754 4.87469 0
M  V30 10957 H 1083.47 -0.810897 2.8821 0
M  V30 10958 H 1081.02 -0.388624 1.38657 0
M  V30 10959 H 1082.97 -3.24054 2.69382 0
M  V30 10960 H 1081.69 -2.90214 1.49811 0
M  V30 10961 H 1080.35 -1.6905 3.25296 0
M  V30 10962 H 1080 -4.13567 2.86307 0
M  V30 10963 H 1079.7 -3.70057 4.56433 0
M  V30 10964 H 1081.22 -4.51514 4.11057 0
M  V30 10965 H 1082.64 -2.50019 5.1591 0
M  V30 10966 H 1081.03 -1.912 5.68826 0
M  V30 10967 H 1082.1 -0.831194 4.77723 0
M  V30 10968 N 1083.45 -1.52049 -0.414609 0
M  V30 10969 C 1084.7 -1.65511 -1.15977 0
M  V30 10970 C 1085.02 -0.384703 -1.91168 0
M  V30 10971 O 1084.29 0.600247 -1.86477 0
M  V30 10972 H 1082.87 -0.610039 -0.431116 0
M  V30 10973 H 1085.53 -1.8907 -0.473139 0
M  V30 10974 H 1084.62 -2.4936 -1.87686 0
M  V30 10975 N 1084.93 0.6715 -1.42579 0
M  V30 10976 C 1085.87 1.80623 -1.46554 0
M  V30 10977 C 1086.87 1.65934 -0.340932 0
M  V30 10978 O 1088.07 1.72502 -0.514098 0
M  V30 10979 H 1084.45 0.595619 -0.459067 0
M  V30 10980 H 1086.42 1.74388 -2.42139 0
M  V30 10981 C 1085.17 3.18794 -1.38801 0
M  V30 10982 H 1084.49 3.30725 -2.24635 0
M  V30 10983 H 1085.93 3.98201 -1.45645 0
M  V30 10984 C 1084.39 3.36742 -0.103219 0
M  V30 10985 O 1084.92 3.92761 0.842715 0
M  V30 10986 N 1083.13 2.90594 -0.0193034 0
M  V30 10987 H 1082.67 2.45192 -0.78986 0
M  V30 10988 H 1082.63 3.0298 0.839686 0
M  V30 10989 N 1086.4 1.28806 0.908124 0
M  V30 10990 C 1087.81 1.14719 1.47297 0
M  V30 10991 C 1088.17 -0.260763 1.94459 0
M  V30 10992 O 1087.29 -1.15553 1.82966 0
M  V30 10993 C 1087.89 2.07643 2.67712 0
M  V30 10994 C 1086.44 1.97605 3.20358 0
M  V30 10995 C 1085.59 1.99058 1.93058 0
M  V30 10996 H 1088.54 1.41413 0.720283 0
M  V30 10997 H 1088.56 1.64372 3.43165 0
M  V30 10998 H 1088.08 3.10108 2.33355 0
M  V30 10999 H 1086.18 0.981982 3.59427 0
M  V30 11000 H 1086.29 2.84846 3.85226 0
M  V30 11001 H 1084.65 1.43541 2.104 0
M  V30 11002 H 1085.44 3.03212 1.60989 0
M  V30 11003 N 1087.88 -1.11734 1.11145 0
M  V30 11004 C 1088.81 -2.16847 0.710809 0
M  V30 11005 C 1089.79 -1.59966 -0.291494 0
M  V30 11006 O 1090.98 -1.87554 -0.188645 0
M  V30 11007 C 1088.1 -3.38663 0.0499744 0
M  V30 11008 C 1087.15 -4.14199 1.01693 0
M  V30 11009 S 1087.98 -4.7154 2.53793 0
M  V30 11010 C 1089.14 -5.96682 1.89001 0
M  V30 11011 H 1089.37 -2.50497 1.60121 0
M  V30 11012 H 1086.9 -1.23311 0.929182 0
M  V30 11013 H 1088.86 -4.09212 -0.324959 0
M  V30 11014 H 1087.52 -3.03279 -0.817335 0
M  V30 11015 H 1086.72 -5.01494 0.501933 0
M  V30 11016 H 1086.32 -3.49395 1.33414 0
M  V30 11017 H 1088.61 -6.6634 1.22462 0
M  V30 11018 H 1089.55 -6.52821 2.74282 0
M  V30 11019 H 1089.96 -5.48084 1.35145 0
M  V30 11020 N 1089.36 -0.901303 -1.29284 0
M  V30 11021 C 1090.31 -0.378666 -2.27672 0
M  V30 11022 C 1091.28 0.540102 -1.57074 0
M  V30 11023 O 1092.46 0.464997 -1.85047 0
M  V30 11024 C 1089.6 0.38635 -3.42931 0
M  V30 11025 C 1088.71 -0.563496 -4.28309 0
M  V30 11026 C 1087.85 0.218731 -5.30749 0
M  V30 11027 C 1086.89 -0.725536 -6.07785 0
M  V30 11028 N 1086.03 0.0223854 -7.02096 0
M  V30 11029 H 1090.87 -1.22277 -2.71758 0
M  V30 11030 H 1088.4 -0.614302 -1.33659 0
M  V30 11031 H 1090.36 0.845967 -4.08533 0
M  V30 11032 H 1088.99 1.1949 -2.9987 0
M  V30 11033 H 1088.04 -1.14163 -3.62865 0
M  V30 11034 H 1089.35 -1.28623 -4.81931 0
M  V30 11035 H 1088.51 0.739473 -6.02177 0
M  V30 11036 H 1087.25 0.97459 -4.77863 0
M  V30 11037 H 1086.25 -1.25776 -5.3522 0
M  V30 11038 H 1087.48 -1.48075 -6.6276 0
M  V30 11039 H 1085.42 0.760482 -6.51577 0
M  V30 11040 H 1085.34 -0.640408 -7.53283 0
M  V30 11041 H 1086.61 0.523339 -7.77741 0
M  V30 11042 N 1090.84 1.42931 -0.663954 0
M  V30 11043 C 1091.8 2.29197 0.0117626 0
M  V30 11044 C 1092.8 1.42767 0.739875 0
M  V30 11045 O 1093.99 1.64278 0.579509 0
M  V30 11046 C 1091.12 3.2505 1.02738 0
M  V30 11047 H 1092.32 2.90438 -0.747391 0
M  V30 11048 H 1089.87 1.5039 -0.425733 0
M  V30 11049 H 1090.6 2.68726 1.8154 0
M  V30 11050 H 1090.39 3.88785 0.508809 0
M  V30 11051 H 1091.88 3.89771 1.49893 0
M  V30 11052 N 1092.32 0.406567 1.52266 0
M  V30 11053 C 1093.56 -0.169717 2.01386 0
M  V30 11054 C 1093.88 -1.45864 1.29417 0
M  V30 11055 O 1093.15 -1.9136 0.419327 0
M  V30 11056 H 1091.73 -0.0657075 0.744105 0
M  V30 11057 H 1094.4 0.542221 1.87206 0
M  V30 11058 H 1093.49 -0.367659 3.09927 0
M  V30 11059 N 1093.79 -1.57004 0.136909 0
M  V30 11060 C 1094.76 -2.15066 -0.792419 0
M  V30 11061 C 1095.76 -1.08991 -1.18226 0
M  V30 11062 O 1096.95 -1.34681 -1.10484 0
M  V30 11063 C 1094.08 -2.70554 -2.07397 0
M  V30 11064 H 1095.27 -2.98519 -0.28752 0
M  V30 11065 H 1092.83 -1.55895 -0.112469 0
M  V30 11066 H 1093.56 -1.90739 -2.62277 0
M  V30 11067 H 1093.35 -3.48149 -1.80374 0
M  V30 11068 H 1094.84 -3.15322 -2.73792 0
M  V30 11069 N 1095.27 0.136881 -1.57004 0
M  V30 11070 C 1096.5 0.866405 -1.88436 0
M  V30 11071 C 1096.92 1.73483 -0.727006 0
M  V30 11072 O 1096.28 1.78398 0.323094 0
M  V30 11073 C 1096.33 1.69059 -3.18514 0
M  V30 11074 O 1095.43 2.79584 -3.03161 0
M  V30 11075 H 1094.77 0.240709 -0.618834 0
M  V30 11076 H 1097.3 0.124653 -2.0422 0
M  V30 11077 H 1097.31 2.08353 -3.50789 0
M  V30 11078 H 1095.99 1.05296 -4.0235 0
M  V30 11079 H 1094.57 2.43623 -2.82315 0
M  V30 11080 N 1096.75 1.52266 0.40654 0
M  V30 11081 C 1097.68 1.78755 1.50229 0
M  V30 11082 C 1098.66 0.638652 1.57655 0
M  V30 11083 O 1099.85 0.884505 1.72888 0
M  V30 11084 C 1096.98 1.94057 2.88026 0
M  V30 11085 C 1095.93 3.09667 2.95449 0
M  V30 11086 C 1095.26 3.10196 4.35526 0
M  V30 11087 C 1096.56 4.49077 2.66697 0
M  V30 11088 H 1098.25 2.70511 1.28313 0
M  V30 11089 H 1095.8 1.30167 0.615836 0
M  V30 11090 H 1097.75 2.11171 3.64671 0
M  V30 11091 H 1096.47 0.989755 3.11242 0
M  V30 11092 H 1095.13 2.92308 2.2125 0
M  V30 11093 H 1094.78 2.12831 4.55754 0
M  V30 11094 H 1094.48 3.87847 4.41416 0
M  V30 11095 H 1096 3.29443 5.14101 0
M  V30 11096 H 1097.42 4.66628 3.33064 0
M  V30 11097 H 1095.82 5.28665 2.8396 0
M  V30 11098 H 1096.89 4.56995 1.62122 0
M  V30 11099 N 1098.23 -0.663929 1.42933 0
M  V30 11100 C 1099.47 -1.42446 1.45192 0
M  V30 11101 C 1099.83 -1.92269 0.0710678 0
M  V30 11102 O 1099.12 -1.68688 -0.908565 0
M  V30 11103 C 1099.32 -2.62976 2.4203 0
M  V30 11104 C 1099.15 -2.24948 3.89395 0
M  V30 11105 C 1097.92 -2.13786 4.57847 0
M  V30 11106 C 1100.11 -1.85907 4.79524 0
M  V30 11107 N 1098.1 -1.68976 5.90187 0
M  V30 11108 C 1099.47 -1.52099 6.01054 0
M  V30 11109 C 1101.52 -1.72995 4.6688 0
M  V30 11110 C 1100.22 -1.06673 7.11346 0
M  V30 11111 C 1102.25 -1.28975 5.77165 0
M  V30 11112 C 1101.61 -0.960968 6.97814 0
M  V30 11113 H 1097.71 -0.517312 0.58644 0
M  V30 11114 H 1100.3 -0.765097 1.79037 0
M  V30 11115 H 1098.47 -3.26586 2.10229 0
M  V30 11116 H 1100.2 -3.29624 2.34798 0
M  V30 11117 H 1096.95 -2.33203 4.12206 0
M  V30 11118 H 1097.38 -1.48964 6.60408 0
M  V30 11119 H 1102.02 -1.97057 3.7407 0
M  V30 11120 H 1099.74 -0.813591 8.03994 0
M  V30 11121 H 1103.32 -1.19489 5.69398 0
M  V30 11122 H 1102.2 -0.625522 7.81701 0
M  V30 11123 N 1099.71 -1.29285 -0.901281 0
M  V30 11124 C 1100.95 -1.16934 -1.64836 0
M  V30 11125 C 1101.28 0.279826 -1.92982 0
M  V30 11126 O 1100.55 1.19179 -1.55478 0
M  V30 11127 H 1099.13 -0.429768 -0.61099 0
M  V30 11128 H 1101.79 -1.62189 -1.08077 0
M  V30 11129 H 1100.88 -1.71821 -2.60545 0
M  V30 11130 N 1101.18 1.11143 -1.11736 0
M  V30 11131 C 1102.43 1.82586 -0.866412 0
M  V30 11132 C 1102.75 1.85227 0.609593 0
M  V30 11133 O 1102.02 1.32505 1.44288 0
M  V30 11134 H 1100.6 0.676149 -0.31754 0
M  V30 11135 H 1103.27 1.34516 -1.41037 0
M  V30 11136 H 1102.36 2.8635 -1.24136 0
M  V30 11137 N 1102.66 0.908147 1.28804 0
M  V30 11138 C 1103.59 0.409106 2.29888 0
M  V30 11139 C 1104.57 -0.520338 1.61946 0
M  V30 11140 O 1105.76 -0.429268 1.89396 0
M  V30 11141 C 1102.89 -0.35669 3.45463 0
M  V30 11142 C 1101.84 0.4831 4.25265 0
M  V30 11143 C 1101.17 -0.4107 5.3312 0
M  V30 11144 C 1102.47 1.73744 4.92555 0
M  V30 11145 H 1104.16 1.25386 2.7188 0
M  V30 11146 H 1101.71 0.604368 1.30703 0
M  V30 11147 H 1103.66 -0.71661 4.15262 0
M  V30 11148 H 1102.39 -1.2353 3.02337 0
M  V30 11149 H 1101.04 0.825464 3.57186 0
M  V30 11150 H 1100.69 -1.28769 4.86238 0
M  V30 11151 H 1100.39 0.14756 5.87415 0
M  V30 11152 H 1101.92 -0.766626 6.05768 0
M  V30 11153 H 1103.33 1.44676 5.54745 0
M  V30 11154 H 1101.73 2.23767 5.5682 0
M  V30 11155 H 1102.8 2.46853 4.17363 0
M  V30 11156 N 1104.14 -1.42577 0.671525 0
M  V30 11157 C 1105.56 -1.5592 0.340769 0
M  V30 11158 C 1105.76 -1.65179 -1.15405 0
M  V30 11159 O 1104.81 -1.61691 -1.93939 0
M  V30 11160 C 1106.13 -2.81087 1.06821 0
M  V30 11161 C 1107.67 -2.94855 1.05022 0
M  V30 11162 C 1108.15 -4.22878 1.75892 0
M  V30 11163 N 1109.64 -4.29783 1.72744 0
M  V30 11164 C 1110.37 -5.2765 2.24439 0
M  V30 11165 N 1109.87 -6.31689 2.84501 0
M  V30 11166 N 1111.66 -5.19426 2.14832 0
M  V30 11167 H 1103.81 -1.34811 1.64133 0
M  V30 11168 H 1106.08 -0.648704 0.691294 0
M  V30 11169 H 1105.78 -2.80371 2.12332 0
M  V30 11170 H 1105.66 -3.71879 0.631356 0
M  V30 11171 H 1108.04 -2.951 0.00345633 0
M  V30 11172 H 1108.13 -2.05303 1.52592 0
M  V30 11173 H 1107.77 -4.23394 2.80535 0
M  V30 11174 H 1107.7 -5.1136 1.25773 0
M  V30 11175 H 1110.19 -3.55225 1.28932 0
M  V30 11176 H 1110.5 -7.02715 3.21575 0
M  V30 11177 H 1108.85 -6.3226 2.88569 0
M  V30 11178 H 1112.04 -4.37067 1.676 0
M  V30 11179 H 1112.21 -5.95535 2.55426 0
M  V30 11180 N 1105.62 -0.414636 -1.52048 0
M  V30 11181 C 1106.87 0.159349 -2.01872 0
M  V30 11182 C 1107.19 1.44674 -1.29999 0
M  V30 11183 O 1106.45 1.91641 -0.396511 0
M  V30 11184 C 1106.75 0.448327 -3.54577 0
M  V30 11185 C 1106.41 -0.75052 -4.4461 0
M  V30 11186 C 1105.08 -1.07935 -4.68939 0
M  V30 11187 C 1107.43 -1.55134 -4.97577 0
M  V30 11188 C 1104.76 -2.21008 -5.43482 0
M  V30 11189 C 1107.11 -2.67288 -5.73358 0
M  V30 11190 C 1105.77 -3.00651 -5.95958 0
M  V30 11191 H 1105.04 0.05831 -0.738702 0
M  V30 11192 H 1107.69 -0.557184 -1.83215 0
M  V30 11193 H 1105.99 1.24649 -3.71443 0
M  V30 11194 H 1107.69 0.90549 -3.90643 0
M  V30 11195 H 1104.28 -0.484257 -4.25856 0
M  V30 11196 H 1108.46 -1.31052 -4.78685 0
M  V30 11197 H 1103.72 -2.47197 -5.59199 0
M  V30 11198 H 1107.89 -3.29725 -6.13396 0
M  V30 11199 H 1105.52 -3.88384 -6.535 0
M  V30 11200 N 1107.1 1.56929 -0.145233 0
M  V30 11201 C 1108.32 2.00431 0.513314 0
M  V30 11202 C 1108.74 1.0253 1.58534 0
M  V30 11203 O 1108.1 0.0220459 1.82487 0
M  V30 11204 C 1108.15 3.43856 1.11557 0
M  V30 11205 O 1107.87 4.38015 0.0863707 0
M  V30 11206 C 1109.37 4.02627 1.8549 0
M  V30 11207 H 1106.59 0.657529 0.133778 0
M  V30 11208 H 1109.13 2.03095 -0.239296 0
M  V30 11209 H 1107.29 3.4205 1.81881 0
M  V30 11210 H 1107.7 5.21842 0.527363 0
M  V30 11211 H 1109.18 5.04985 2.22923 0
M  V30 11212 H 1109.65 3.43239 2.74014 0
M  V30 11213 H 1110.26 4.08058 1.19869 0
M  V30 11214 N 1108.58 -0.128553 1.57075 0
M  V30 11215 C 1109.82 -0.839252 1.8462 0
M  V30 11216 C 1110.15 -1.79974 0.729582 0
M  V30 11217 O 1109.43 -1.92681 -0.265369 0
M  V30 11218 C 1109.71 -1.59756 3.22723 0
M  V30 11219 C 1109.57 -0.657313 4.44971 0
M  V30 11220 C 1110.88 -2.55592 3.58275 0
M  V30 11221 H 1108 -0.303652 0.671539 0
M  V30 11222 H 1110.65 -0.103802 1.89716 0
M  V30 11223 H 1108.8 -2.22451 3.18509 0
M  V30 11224 H 1110.47 -0.0399471 4.61283 0
M  V30 11225 H 1108.71 0.0318416 4.33788 0
M  V30 11226 H 1109.38 -1.22433 5.38251 0
M  V30 11227 H 1111.86 -2.03007 3.63218 0
M  V30 11228 H 1110.73 -3.05687 4.55902 0
M  V30 11229 H 1110.99 -3.37813 2.85193 0
M  V30 11230 N 1110.05 -1.5248 -0.398459 0
M  V30 11231 C 1111.46 -1.59107 -0.976817 0
M  V30 11232 C 1111.82 -0.438104 -1.91246 0
M  V30 11233 O 1110.94 0.440111 -2.11877 0
M  V30 11234 C 1111.54 -2.88373 -1.77838 0
M  V30 11235 C 1110.09 -2.97445 -2.30659 0
M  V30 11236 C 1109.24 -2.5414 -1.10942 0
M  V30 11237 H 1112.19 -1.57695 -0.178324 0
M  V30 11238 H 1112.21 -2.74327 -2.63676 0
M  V30 11239 H 1111.73 -3.72269 -1.09714 0
M  V30 11240 H 1109.83 -2.18066 -3.02123 0
M  V30 11241 H 1109.94 -4.019 -2.60794 0
M  V30 11242 H 1108.3 -2.08237 -1.46661 0
M  V30 11243 H 1109.09 -3.40421 -0.443684 0
M  V30 11244 N 1111.53 0.65634 -1.43283 0
M  V30 11245 C 1112.48 1.76243 -1.44646 0
M  V30 11246 C 1113.47 1.5778 -0.31532 0
M  V30 11247 O 1114.66 1.67945 -0.558881 0
M  V30 11248 C 1111.79 3.14813 -1.36921 0
M  V30 11249 C 1110.87 3.38835 -2.55053 0
M  V30 11250 N 1111.26 3.33345 -3.80414 0
M  V30 11251 C 1109.56 3.69542 -2.4971 0
M  V30 11252 C 1110.26 3.57361 -4.58986 0
M  V30 11253 N 1109.24 3.79022 -3.8967 0
M  V30 11254 H 1113.04 1.70419 -2.39447 0
M  V30 11255 H 1110.55 0.85789 -1.37891 0
M  V30 11256 H 1112.55 3.941 -1.3598 0
M  V30 11257 H 1111.21 3.21822 -0.431381 0
M  V30 11258 H 1112.22 3.12827 -4.12747 0
M  V30 11259 H 1108.9 3.83684 -1.64598 0
M  V30 11260 H 1110.29 3.58921 -5.68001 0
M  V30 11261 N 1113.01 1.29761 0.894412 0
M  V30 11262 C 1113.94 1.17902 2.01547 0
M  V30 11263 C 1114.92 0.0719402 1.69948 0
M  V30 11264 O 1116.11 0.252338 1.92554 0
M  V30 11265 C 1113.24 0.860262 3.36477 0
M  V30 11266 C 1112.19 1.92424 3.82305 0
M  V30 11267 C 1111.52 1.45868 5.14419 0
M  V30 11268 C 1112.82 3.33391 4.02054 0
M  V30 11269 H 1114.51 2.11688 2.11727 0
M  V30 11270 H 1112.06 1.01916 1.01731 0
M  V30 11271 H 1114.01 0.763987 4.14417 0
M  V30 11272 H 1112.73 -0.113289 3.26403 0
M  V30 11273 H 1111.39 2.00999 3.06586 0
M  V30 11274 H 1111.04 0.473654 5.00765 0
M  V30 11275 H 1110.74 2.17028 5.46052 0
M  V30 11276 H 1112.26 1.37601 5.94894 0
M  V30 11277 H 1113.68 3.27628 4.7046 0
M  V30 11278 H 1112.07 4.02555 4.4505 0
M  V30 11279 H 1113.14 3.75978 3.06216 0
M  V30 11280 N 1114.49 -1.10549 1.12324 0
M  V30 11281 C 1115.9 -1.34508 0.85905 0
M  V30 11282 C 1116.1 -1.94901 -0.511468 0
M  V30 11283 O 1115.16 -2.18793 -1.2604 0
M  V30 11284 C 1116.47 -2.26788 1.97453 0
M  V30 11285 C 1118.02 -2.40328 2.00528 0
M  V30 11286 C 1118.5 -3.35936 3.11305 0
M  V30 11287 N 1119.99 -3.43504 3.1074 0
M  V30 11288 C 1120.72 -4.17449 3.93096 0
M  V30 11289 N 1120.22 -4.9429 4.85437 0
M  V30 11290 N 1122.01 -4.13055 3.81237 0
M  V30 11291 H 1114.16 -0.697171 2.00632 0
M  V30 11292 H 1116.42 -0.369548 0.873005 0
M  V30 11293 H 1116.13 -1.89621 2.96204 0
M  V30 11294 H 1116 -3.27086 1.87869 0
M  V30 11295 H 1118.39 -2.76765 1.02397 0
M  V30 11296 H 1118.47 -1.39849 2.14186 0
M  V30 11297 H 1118.12 -3.00225 4.09667 0
M  V30 11298 H 1118.05 -4.36291 2.94886 0
M  V30 11299 H 1120.54 -2.88702 2.43843 0
M  V30 11300 H 1120.85 -5.48109 5.4479 0
M  V30 11301 H 1119.2 -4.93419 4.89452 0
M  V30 11302 H 1122.39 -3.52117 3.08433 0
M  V30 11303 H 1122.56 -4.70424 4.45651 0
M  V30 11304 N 1115.97 -0.914965 -1.28321 0
M  V30 11305 C 1117.24 -0.46764 -1.89928 0
M  V30 11306 C 1117.62 1.05364 -1.82925 0
M  V30 11307 O 1116.97 1.90223 -1.26599 0
M  V30 11308 C 1117.18 -0.999372 -3.34385 0
M  V30 11309 C 1118.53 -1.0522 -4.11356 0
M  V30 11310 O 1119.55 -0.9481 -3.4335 0
M  V30 11311 O 1118.41 -1.21085 -5.32917 0
M  V30 11312 H 1115.51 -0.148398 -0.813577 0
M  V30 11313 H 1118.05 -1.00583 -1.36679 0
M  V30 11314 H 1116.82 -2.04333 -3.33712 0
M  V30 11315 H 1116.45 -0.442083 -3.95135 0
M  V30 11316 N 1117.44 1.42219 -0.679077 0
M  V30 11317 C 1118.67 2.05815 -0.211649 0
M  V30 11318 C 1119.09 1.51037 1.13284 0
M  V30 11319 O 1118.44 0.651894 1.7046 0
M  V30 11320 C 1118.49 3.61218 -0.142663 0
M  V30 11321 O 1118.22 4.13965 -1.43402 0
M  V30 11322 C 1119.72 4.41934 0.347746 0
M  V30 11323 H 1116.94 0.663215 -0.101914 0
M  V30 11324 H 1119.48 1.82282 -0.927017 0
M  V30 11325 H 1117.64 3.83848 0.52342 0
M  V30 11326 H 1118.05 5.07872 -1.31021 0
M  V30 11327 H 1119.52 5.50921 0.344916 0
M  V30 11328 H 1120 4.16832 1.38377 0
M  V30 11329 H 1120.61 4.24332 -0.286751 0
M  V30 11330 N 1118.92 0.422693 1.51826 0
M  V30 11331 C 1119.87 -0.396088 2.27376 0
M  V30 11332 C 1120.84 -1.02946 1.30351 0
M  V30 11333 O 1122.02 -1.05116 1.59233 0
M  V30 11334 C 1119.16 -1.49942 3.10824 0
M  V30 11335 C 1118.28 -0.885623 4.22825 0
M  V30 11336 C 1117.41 -1.96278 4.93608 0
M  V30 11337 C 1116.45 -1.32664 5.97551 0
M  V30 11338 N 1115.59 -2.34452 6.61798 0
M  V30 11339 H 1120.43 0.254571 2.96911 0
M  V30 11340 H 1117.96 0.137383 1.46457 0
M  V30 11341 H 1119.92 -2.15023 3.57521 0
M  V30 11342 H 1118.55 -2.11991 2.43433 0
M  V30 11343 H 1117.6 -0.123491 3.80199 0
M  V30 11344 H 1118.92 -0.381057 4.97342 0
M  V30 11345 H 1118.07 -2.69055 5.43778 0
M  V30 11346 H 1116.81 -2.50103 4.18688 0
M  V30 11347 H 1115.81 -0.584262 5.46687 0
M  V30 11348 H 1117.04 -0.7959 6.7442 0
M  V30 11349 H 1114.99 -2.87385 5.897 0
M  V30 11350 H 1114.9 -1.88845 7.32034 0
M  V30 11351 H 1116.17 -3.06757 7.16603 0
M  V30 11352 N 1120.4 -1.5685 0.153553 0
M  V30 11353 C 1121.35 -2.1709 -0.783626 0
M  V30 11354 C 1122.32 -1.10567 -1.23952 0
M  V30 11355 O 1123.5 -1.38638 -1.31088 0
M  V30 11356 C 1120.64 -2.80183 -2.01473 0
M  V30 11357 C 1119.75 -4.01117 -1.60403 0
M  V30 11358 C 1118.89 -4.5219 -2.78743 0
M  V30 11359 C 1117.93 -5.65574 -2.34079 0
M  V30 11360 N 1117.07 -6.11235 -3.4545 0
M  V30 11361 H 1121.91 -2.96836 -0.263127 0
M  V30 11362 H 1119.44 -1.46625 -0.11816 0
M  V30 11363 H 1121.4 -3.14912 -2.73654 0
M  V30 11364 H 1120.03 -2.03071 -2.50923 0
M  V30 11365 H 1119.08 -3.72325 -0.779631 0
M  V30 11366 H 1120.39 -4.83243 -1.23605 0
M  V30 11367 H 1119.55 -4.89008 -3.59105 0
M  V30 11368 H 1118.29 -3.69085 -3.18791 0
M  V30 11369 H 1117.29 -5.28326 -1.52158 0
M  V30 11370 H 1118.52 -6.50468 -1.95109 0
M  V30 11371 H 1116.46 -5.31064 -3.85106 0
M  V30 11372 H 1116.38 -6.88304 -3.12687 0
M  V30 11373 H 1117.65 -6.527 -4.26149 0
M  V30 11374 N 1121.88 0.120221 -1.57141 0
M  V30 11375 C 1123.11 0.842441 -1.88972 0
M  V30 11376 C 1123.52 1.73494 -0.744671 0
M  V30 11377 O 1122.88 1.80268 0.284557 0
M  V30 11378 C 1122.93 1.67688 -3.20254 0
M  V30 11379 O 1122.65 0.820319 -4.30351 0
M  V30 11380 C 1124.15 2.50436 -3.65782 0
M  V30 11381 H 1121.37 0.242241 -0.625748 0
M  V30 11382 H 1123.91 0.104978 -2.0423 0
M  V30 11383 H 1122.07 2.36712 -3.0667 0
M  V30 11384 H 1122.48 1.39575 -5.05588 0
M  V30 11385 H 1123.96 3.04518 -4.60405 0
M  V30 11386 H 1124.43 3.27737 -2.92378 0
M  V30 11387 H 1125.04 1.86657 -3.82151 0
M  V30 11388 N 1123.36 1.52689 0.390367 0
M  V30 11389 C 1124.61 1.6689 1.13272 0
M  V30 11390 C 1124.92 0.414433 1.91159 0
M  V30 11391 O 1126.12 0.436559 2.67967 0
M  V30 11392 C 1124.58 2.94929 2.06264 0
M  V30 11393 C 1124.19 4.27551 1.33805 0
M  V30 11394 C 1125.93 3.18497 2.80642 0
M  V30 11395 C 1123.84 5.46698 2.25554 0
M  V30 11396 H 1122.77 0.621749 0.426549 0
M  V30 11397 H 1125.42 1.79185 0.395615 0
M  V30 11398 H 1123.8 2.76378 2.83604 0
M  V30 11399 H 1124.98 4.56651 0.616997 0
M  V30 11400 H 1123.29 4.10234 0.713913 0
M  V30 11401 H 1125.89 4.04693 3.49467 0
M  V30 11402 H 1126.23 2.33511 3.44642 0
M  V30 11403 H 1126.76 3.37607 2.10395 0
M  V30 11404 H 1123.5 6.34088 1.66171 0
M  V30 11405 H 1123.02 5.21913 2.95579 0
M  V30 11406 H 1124.7 5.80519 2.85668 0
M  V30 11407 N 1124.83 -0.648732 1.43629 0
M  V30 11408 C 1125.77 -1.77417 1.45107 0
M  V30 11409 C 1126.78 -1.59067 0.346618 0
M  V30 11410 O 1127.97 -1.67705 0.611322 0
M  V30 11411 C 1125.07 -3.14906 1.25249 0
M  V30 11412 C 1124.24 -3.59874 2.48616 0
M  V30 11413 C 1123.3 -4.76181 2.23916 0
M  V30 11414 O 1122.33 -4.8539 2.97296 0
M  V30 11415 N 1123.53 -5.66691 1.25862 0
M  V30 11416 H 1126.29 -1.76626 2.42123 0
M  V30 11417 H 1123.85 -0.832725 1.38843 0
M  V30 11418 H 1125.85 -3.90408 1.06601 0
M  V30 11419 H 1124.42 -3.10443 0.366623 0
M  V30 11420 H 1123.64 -2.74768 2.82659 0
M  V30 11421 H 1124.92 -3.86665 3.30708 0
M  V30 11422 H 1124.32 -5.61927 0.652227 0
M  V30 11423 H 1122.88 -6.41895 1.13196 0
M  V30 11424 N 1126.31 -1.30234 -0.887518 0
M  V30 11425 C 1127.56 -1.1891 -1.6391 0
M  V30 11426 C 1127.89 0.256749 -1.92798 0
M  V30 11427 O 1127.14 1.20047 -1.54555 0
M  V30 11428 C 1127.44 -1.96046 -2.98832 0
M  V30 11429 C 1127.11 -3.45683 -2.89507 0
M  V30 11430 C 1125.77 -3.86489 -2.8667 0
M  V30 11431 C 1128.12 -4.40983 -2.7782 0
M  V30 11432 C 1125.45 -5.2089 -2.69982 0
M  V30 11433 C 1127.8 -5.75489 -2.6267 0
M  V30 11434 C 1126.47 -6.15537 -2.58207 0
M  V30 11435 H 1125.74 -0.435123 -0.599791 0
M  V30 11436 H 1128.38 -1.61308 -1.03209 0
M  V30 11437 H 1126.69 -1.46275 -3.6347 0
M  V30 11438 H 1128.38 -1.84678 -3.55942 0
M  V30 11439 H 1124.97 -3.13255 -2.92523 0
M  V30 11440 H 1129.16 -4.10401 -2.79079 0
M  V30 11441 H 1124.41 -5.51014 -2.6494 0
M  V30 11442 H 1128.59 -6.48973 -2.526 0
M  V30 11443 H 1126.22 -7.19627 -2.45034 0
M  V30 11444 N 1127.79 1.09952 -1.12909 0
M  V30 11445 C 1129.07 1.78547 -0.798767 0
M  V30 11446 C 1129.45 1.9878 0.710624 0
M  V30 11447 O 1128.8 1.58485 1.64604 0
M  V30 11448 C 1129.01 3.1121 -1.57953 0
M  V30 11449 C 1130.35 3.86006 -1.76874 0
M  V30 11450 O 1131.38 3.20946 -1.54506 0
M  V30 11451 O 1130.24 5.02791 -2.14158 0
M  V30 11452 H 1127.33 0.774084 -0.291072 0
M  V30 11453 H 1129.88 1.16557 -1.2334 0
M  V30 11454 H 1128.65 2.91935 -2.60557 0
M  V30 11455 H 1128.27 3.80922 -1.13948 0
M  V30 11456 N 1129.27 0.921757 1.27833 0
M  V30 11457 C 1130.52 0.559078 1.94629 0
M  V30 11458 C 1130.84 -0.898641 1.72495 0
M  V30 11459 O 1130.1 -1.65546 1.0437 0
M  V30 11460 C 1130.4 0.824259 3.47765 0
M  V30 11461 C 1130.06 2.26278 3.90011 0
M  V30 11462 C 1128.73 2.65607 4.01256 0
M  V30 11463 C 1131.08 3.19853 4.11513 0
M  V30 11464 C 1128.41 3.97646 4.31387 0
M  V30 11465 C 1130.76 4.51467 4.43126 0
M  V30 11466 C 1129.42 4.90637 4.52583 0
M  V30 11467 H 1128.69 0.204581 0.712199 0
M  V30 11468 H 1131.34 1.1646 1.52018 0
M  V30 11469 H 1129.64 0.136011 3.91564 0
M  V30 11470 H 1131.34 0.522701 3.97579 0
M  V30 11471 H 1127.93 1.94765 3.81791 0
M  V30 11472 H 1132.11 2.90674 4.02271 0
M  V30 11473 H 1127.37 4.27685 4.36916 0
M  V30 11474 H 1131.54 5.23982 4.58711 0
M  V30 11475 H 1129.17 5.92982 4.75685 0
M  V30 11476 N 1130.75 -1.41857 0.686609 0
M  V30 11477 C 1131.68 -2.29188 -0.0234289 0
M  V30 11478 C 1132.69 -1.44311 -0.753541 0
M  V30 11479 O 1133.88 -1.67908 -0.605734 0
M  V30 11480 C 1130.98 -3.21991 -1.05713 0
M  V30 11481 C 1130.15 -4.35581 -0.398453 0
M  V30 11482 C 1129.21 -5.09022 -1.33354 0
M  V30 11483 O 1128.24 -5.63126 -0.829334 0
M  V30 11484 N 1129.44 -5.15643 -2.66632 0
M  V30 11485 H 1132.21 -2.90766 0.726295 0
M  V30 11486 H 1129.77 -1.52912 0.531937 0
M  V30 11487 H 1131.76 -3.6799 -1.68421 0
M  V30 11488 H 1130.33 -2.61782 -1.70847 0
M  V30 11489 H 1129.55 -3.92079 0.408358 0
M  V30 11490 H 1130.84 -5.08765 0.0599239 0
M  V30 11491 H 1130.23 -4.73118 -3.10122 0
M  V30 11492 H 1128.79 -5.65248 -3.24558 0
M  V30 11493 N 1132.22 -0.430739 -1.51599 0
M  V30 11494 C 1133.47 0.139396 -2.01218 0
M  V30 11495 C 1133.79 1.44361 -1.31982 0
M  V30 11496 O 1134.99 2.0963 -1.72533 0
M  V30 11497 C 1133.45 0.298969 -3.58656 0
M  V30 11498 C 1133.06 -0.994424 -4.36824 0
M  V30 11499 C 1134.8 0.82323 -4.16441 0
M  V30 11500 C 1132.71 -0.800855 -5.85952 0
M  V30 11501 H 1131.64 0.0558698 -0.751927 0
M  V30 11502 H 1134.29 -0.559493 -1.74762 0
M  V30 11503 H 1132.67 1.06071 -3.8153 0
M  V30 11504 H 1133.84 -1.76398 -4.257 0
M  V30 11505 H 1132.16 -1.44672 -3.9046 0
M  V30 11506 H 1134.76 0.984434 -5.2556 0
M  V30 11507 H 1135.1 1.80388 -3.75188 0
M  V30 11508 H 1135.63 0.119982 -3.97619 0
M  V30 11509 H 1132.37 -1.75369 -6.31606 0
M  V30 11510 H 1131.89 -0.0709793 -5.99758 0
M  V30 11511 H 1133.57 -0.451459 -6.45423 0
M  V30 11512 N 1133.7 1.56767 -0.161869 0
M  V30 11513 C 1134.63 2.20511 0.767918 0
M  V30 11514 C 1135.61 1.15783 1.24612 0
M  V30 11515 O 1136.8 1.44179 1.301 0
M  V30 11516 C 1133.93 2.83844 2.00125 0
M  V30 11517 C 1132.88 3.94528 1.65926 0
M  V30 11518 C 1132.21 4.44866 2.96646 0
M  V30 11519 C 1133.51 5.14583 0.894497 0
M  V30 11520 H 1135.2 2.98464 0.236607 0
M  V30 11521 H 1132.75 1.43561 0.112363 0
M  V30 11522 H 1134.7 3.27109 2.65664 0
M  V30 11523 H 1133.43 2.03246 2.55654 0
M  V30 11524 H 1132.08 3.51904 1.02759 0
M  V30 11525 H 1131.73 3.61071 3.50196 0
M  V30 11526 H 1131.43 5.19531 2.74521 0
M  V30 11527 H 1132.96 4.90812 3.6323 0
M  V30 11528 H 1134.37 5.54601 1.45228 0
M  V30 11529 H 1132.77 5.95105 0.772636 0
M  V30 11530 H 1133.84 4.84773 -0.110986 0
M  V30 11531 N 1135.18 -0.111886 1.57202 0
M  V30 11532 C 1136.41 -0.836317 1.89791 0
M  V30 11533 C 1136.83 -1.72304 0.754513 0
M  V30 11534 O 1136.19 -1.78889 -0.294672 0
M  V30 11535 C 1136.24 -1.63971 3.21164 0
M  V30 11536 O 1135.34 -2.74726 3.0757 0
M  V30 11537 H 1134.68 -0.230833 0.622585 0
M  V30 11538 H 1137.21 -0.0921478 2.04392 0
M  V30 11539 H 1137.22 -2.02746 3.54059 0
M  V30 11540 H 1135.9 -0.98882 4.03974 0
M  V30 11541 H 1134.47 -2.39101 2.86156 0
M  V30 11542 N 1136.66 -1.52894 -0.382264 0
M  V30 11543 C 1137.61 -1.78151 -1.46734 0
M  V30 11544 C 1138.58 -0.625034 -1.53891 0
M  V30 11545 O 1139.76 -0.865467 -1.70042 0
M  V30 11546 C 1136.9 -1.96223 -2.83885 0
M  V30 11547 C 1136.01 -3.23925 -2.85826 0
M  V30 11548 C 1135.15 -3.32277 -4.14446 0
M  V30 11549 C 1134.19 -4.54076 -4.10465 0
M  V30 11550 N 1133.32 -4.59672 -5.30703 0
M  V30 11551 H 1138.16 -2.70748 -1.24497 0
M  V30 11552 H 1135.7 -1.34135 -0.603838 0
M  V30 11553 H 1137.66 -2.04686 -3.63537 0
M  V30 11554 H 1136.29 -1.0698 -3.04557 0
M  V30 11555 H 1135.34 -3.245 -1.98505 0
M  V30 11556 H 1136.65 -4.1364 -2.78754 0
M  V30 11557 H 1135.81 -3.3996 -5.02506 0
M  V30 11558 H 1134.55 -2.40548 -4.2425 0
M  V30 11559 H 1133.55 -4.46511 -3.20793 0
M  V30 11560 H 1134.78 -5.47128 -4.02278 0
M  V30 11561 H 1132.72 -3.70838 -5.41124 0
M  V30 11562 H 1132.64 -5.43268 -5.25734 0
M  V30 11563 H 1133.91 -4.71618 -6.20642 0
M  V30 11564 N 1138.14 0.641106 -1.43971 0
M  V30 11565 C 1139.09 1.77474 -1.50352 0
M  V30 11566 C 1140.08 1.65173 -0.376052 0
M  V30 11567 O 1141.29 1.71373 -0.550572 0
M  V30 11568 H 1137.66 0.585747 -0.471597 0
M  V30 11569 H 1139.63 1.69213 -2.45784 0
M  V30 11570 C 1138.38 3.15778 -1.45532 0
M  V30 11571 H 1137.7 3.25886 -2.316 0
M  V30 11572 H 1139.14 3.95022 -1.54058 0
M  V30 11573 C 1137.6 3.36447 -0.174624 0
M  V30 11574 O 1138.13 3.9446 0.759215 0
M  V30 11575 N 1136.34 2.90487 -0.0809383 0
M  V30 11576 H 1135.89 2.43461 -0.841691 0
M  V30 11577 H 1135.84 3.04693 0.775231 0
M  V30 11578 N 1139.62 1.30703 0.880598 0
M  V30 11579 C 1140.55 1.20033 2.00286 0
M  V30 11580 C 1141.53 0.0899614 1.69862 0
M  V30 11581 O 1142.71 0.272747 1.92275 0
M  V30 11582 C 1139.84 0.895902 3.35546 0
M  V30 11583 C 1138.8 1.96468 3.80242 0
M  V30 11584 C 1138.12 1.51316 5.12843 0
M  V30 11585 C 1139.42 3.37637 3.98496 0
M  V30 11586 H 1141.12 2.13922 2.0947 0
M  V30 11587 H 1138.66 1.02989 1.00644 0
M  V30 11588 H 1140.61 0.807899 4.13583 0
M  V30 11589 H 1139.34 -0.0786636 3.26505 0
M  V30 11590 H 1138 2.0424 3.04437 0
M  V30 11591 H 1137.65 0.52674 5.00234 0
M  V30 11592 H 1137.35 2.22807 5.43719 0
M  V30 11593 H 1138.87 1.43903 5.93401 0
M  V30 11594 H 1140.28 3.326 4.66959 0
M  V30 11595 H 1138.68 4.07253 4.40755 0
M  V30 11596 H 1139.75 3.79205 3.02211 0
M  V30 11597 N 1141.09 -1.09351 1.1349 0
M  V30 11598 C 1142.04 -2.18099 0.808426 0
M  V30 11599 C 1143.04 -1.68099 -0.209571 0
M  V30 11600 O 1144.24 -1.79877 -0.0666417 0
M  V30 11601 H 1140.62 -0.711432 0.243658 0
M  V30 11602 H 1142.59 -2.42867 1.73373 0
M  V30 11603 C 1141.34 -3.46475 0.291615 0
M  V30 11604 H 1140.66 -3.85319 1.06627 0
M  V30 11605 H 1142.1 -4.23878 0.101616 0
M  V30 11606 C 1140.56 -3.22245 -0.982827 0
M  V30 11607 O 1141.09 -3.44947 -2.0585 0
M  V30 11608 N 1139.29 -2.75845 -0.914218 0
M  V30 11609 H 1138.84 -2.57571 -0.03872 0
M  V30 11610 H 1138.8 -2.60011 -1.76753 0
M  V30 11611 N 1142.57 -0.928524 -1.27343 0
M  V30 11612 C 1143.52 -0.418768 -2.28799 0
M  V30 11613 C 1144.51 0.497334 -1.61935 0
M  V30 11614 O 1145.72 0.376945 -1.76009 0
M  V30 11615 H 1142.09 -0.116855 -0.742865 0
M  V30 11616 H 1144.07 -1.28725 -2.69207 0
M  V30 11617 C 1142.81 0.312422 -3.46294 0
M  V30 11618 H 1142.14 -0.383317 -3.97958 0
M  V30 11619 H 1143.58 0.633514 -4.19241 0
M  V30 11620 C 1142.04 1.5257 -3.00373 0
M  V30 11621 O 1142.57 2.62443 -3.04116 0
M  V30 11622 N 1140.77 1.37782 -2.5586 0
M  V30 11623 H 1140.32 0.483908 -2.53014 0
M  V30 11624 H 1140.28 2.19085 -2.25498 0
M  V30 11625 N 1144.05 1.41491 -0.694123 0
M  V30 11626 C 1145.27 2.06099 -0.23197 0
M  V30 11627 C 1145.7 1.51888 1.10958 0
M  V30 11628 O 1145.06 0.645247 1.69429 0
M  V30 11629 C 1145.11 3.60053 -0.198522 0
M  V30 11630 O 1144.21 4.04021 0.827067 0
M  V30 11631 H 1143.55 0.654193 -0.113699 0
M  V30 11632 H 1146.08 1.81282 -0.948575 0
M  V30 11633 H 1146.09 4.0799 -0.0288904 0
M  V30 11634 H 1144.77 3.98879 -1.17764 0
M  V30 11635 H 1143.34 3.67593 0.626908 0
M  V30 11636 N 1145.53 0.438773 1.51369 0
M  V30 11637 C 1146.46 -0.407771 2.25543 0
M  V30 11638 C 1147.47 -0.985065 1.29616 0
M  V30 11639 O 1148.66 -0.878961 1.55359 0
M  V30 11640 C 1145.76 -1.58257 2.9968 0
M  V30 11641 C 1144.93 -1.12389 4.22714 0
M  V30 11642 C 1143.99 -2.16897 4.79418 0
M  V30 11643 O 1143.02 -1.76273 5.41218 0
M  V30 11644 N 1144.22 -3.49396 4.63576 0
M  V30 11645 H 1146.99 0.227963 2.98832 0
M  V30 11646 H 1144.55 0.267741 1.59671 0
M  V30 11647 H 1146.54 -2.27796 3.34501 0
M  V30 11648 H 1145.11 -2.12362 2.29393 0
M  V30 11649 H 1144.33 -0.255509 3.93371 0
M  V30 11650 H 1145.62 -0.794848 5.02553 0
M  V30 11651 H 1145.02 -3.85132 4.14355 0
M  V30 11652 H 1143.57 -4.14826 5.02755 0
M  V30 11653 N 1147.01 -1.56678 0.170181 0
M  V30 11654 C 1148.23 -2.0166 -0.484543 0
M  V30 11655 C 1148.66 -1.04962 -1.56091 0
M  V30 11656 O 1148.01 -0.0289887 -1.81277 0
M  V30 11657 C 1148.06 -3.45252 -1.04084 0
M  V30 11658 O 1147.17 -3.51623 -2.15488 0
M  V30 11659 H 1146.51 -0.653765 -0.116135 0
M  V30 11660 H 1149.04 -2.02761 0.273737 0
M  V30 11661 H 1149.05 -3.84534 -1.36373 0
M  V30 11662 H 1147.72 -4.15131 -0.252738 0
M  V30 11663 H 1146.3 -3.242 -1.84252 0
M  V30 11664 N 1148.48 0.103547 -1.57259 0
M  V30 11665 C 1149.76 0.839768 -1.76656 0
M  V30 11666 C 1150.14 1.9734 -0.749666 0
M  V30 11667 O 1149.49 2.27405 0.223466 0
M  V30 11668 C 1149.7 1.34218 -3.22159 0
M  V30 11669 C 1151.05 1.78835 -3.85102 0
M  V30 11670 O 1152.07 1.43861 -3.25857 0
M  V30 11671 O 1150.93 2.43474 -4.89267 0
M  V30 11672 H 1148.02 0.399928 -0.723869 0
M  V30 11673 H 1150.57 0.0860857 -1.69482 0
M  V30 11674 H 1149.34 0.52956 -3.877 0
M  V30 11675 H 1148.96 2.15811 -3.33933 0
M  V30 11676 N 1149.96 1.53094 0.37415 0
M  V30 11677 C 1151.21 1.69111 1.11934 0
M  V30 11678 C 1151.54 0.437252 1.89213 0
M  V30 11679 O 1150.82 -0.565298 1.86104 0
M  V30 11680 C 1151.1 2.93559 2.08554 0
M  V30 11681 C 1150.95 4.29082 1.3494 0
M  V30 11682 C 1152.27 3.13586 3.08791 0
M  V30 11683 H 1149.39 0.615383 0.405553 0
M  V30 11684 H 1152.03 1.85719 0.401078 0
M  V30 11685 H 1150.18 2.79531 2.69805 0
M  V30 11686 H 1151.85 4.54906 0.765402 0
M  V30 11687 H 1150.1 4.28884 0.651238 0
M  V30 11688 H 1150.77 5.12275 2.05616 0
M  V30 11689 H 1153.24 3.26743 2.57639 0
M  V30 11690 H 1152.12 4.02112 3.73627 0
M  V30 11691 H 1152.38 2.28475 3.78486 0
M  V30 11692 N 1151.44 -0.633461 1.44309 0
M  V30 11693 C 1152.69 -1.39513 1.47187 0
M  V30 11694 C 1153.02 -1.93926 0.103186 0
M  V30 11695 O 1152.29 -1.73512 -0.878853 0
M  V30 11696 C 1152.58 -2.56213 2.53036 0
M  V30 11697 C 1152.43 -2.07164 3.99253 0
M  V30 11698 C 1153.75 -3.58403 2.55412 0
M  V30 11699 H 1150.87 -0.505936 0.535908 0
M  V30 11700 H 1153.51 -0.716445 1.75975 0
M  V30 11701 H 1151.66 -3.14111 2.28619 0
M  V30 11702 H 1153.33 -1.54115 4.34795 0
M  V30 11703 H 1151.57 -1.38367 4.11141 0
M  V30 11704 H 1152.25 -2.91172 4.6896 0
M  V30 11705 H 1154.72 -3.103 2.77224 0
M  V30 11706 H 1153.6 -4.37581 3.31382 0
M  V30 11707 H 1153.86 -4.12316 1.59523 0
M  V30 11708 N 1152.92 -1.31168 -0.873655 0
M  V30 11709 C 1154.14 -1.23728 -1.66452 0
M  V30 11710 C 1154.57 0.194869 -1.87088 0
M  V30 11711 O 1153.93 1.1397 -1.40998 0
M  V30 11712 C 1153.97 -1.98285 -3.0119 0
M  V30 11713 O 1153.08 -1.31767 -3.90783 0
M  V30 11714 H 1152.42 -0.427362 -0.508191 0
M  V30 11715 H 1154.95 -1.73176 -1.08955 0
M  V30 11716 H 1154.96 -2.0774 -3.51153 0
M  V30 11717 H 1153.63 -3.02437 -2.8549 0
M  V30 11718 H 1152.21 -1.3074 -3.4923 0
M  V30 11719 N 1154.4 1.08748 -1.14068 0
M  V30 11720 C 1155.64 1.81065 -0.906738 0
M  V30 11721 C 1155.97 1.86057 0.566844 0
M  V30 11722 O 1155.23 1.32976 1.43582 0
M  V30 11723 C 1155.53 3.26734 -1.44843 0
M  V30 11724 C 1155.19 3.41866 -2.94005 0
M  V30 11725 C 1153.85 3.45703 -3.34729 0
M  V30 11726 C 1156.21 3.45831 -3.89937 0
M  V30 11727 C 1153.53 3.51092 -4.70055 0
M  V30 11728 C 1155.89 3.52755 -5.25116 0
M  V30 11729 C 1154.55 3.54863 -5.65357 0
M  V30 11730 H 1153.82 0.662564 -0.331799 0
M  V30 11731 H 1156.47 1.28065 -1.42378 0
M  V30 11732 H 1154.77 3.82419 -0.852239 0
M  V30 11733 H 1156.47 3.81236 -1.2434 0
M  V30 11734 H 1153.06 3.39568 -2.61518 0
M  V30 11735 H 1157.24 3.421 -3.59557 0
M  V30 11736 H 1152.5 3.51015 -5.00598 0
M  V30 11737 H 1156.67 3.54768 -5.9926 0
M  V30 11738 H 1154.3 3.58792 -6.70203 0
M  V30 11739 N 1155.87 0.935264 1.26849 0
M  V30 11740 C 1157.29 0.636661 1.46352 0
M  V30 11741 C 1157.49 -0.811823 1.84423 0
M  V30 11742 O 1156.55 -1.58902 1.9623 0
M  V30 11743 C 1157.86 1.59301 2.55036 0
M  V30 11744 C 1159.41 1.60207 2.68892 0
M  V30 11745 C 1159.88 2.54558 3.80742 0
M  V30 11746 N 1161.37 2.52809 3.88126 0
M  V30 11747 C 1162.11 3.225 4.74111 0
M  V30 11748 N 1161.6 4.01598 5.64527 0
M  V30 11749 N 1163.4 3.11481 4.67906 0
M  V30 11750 H 1155.55 1.8716 1.00423 0
M  V30 11751 H 1157.81 0.803968 0.502334 0
M  V30 11752 H 1157.52 2.62671 2.33874 0
M  V30 11753 H 1157.39 1.34052 3.52576 0
M  V30 11754 H 1159.78 0.575649 2.89431 0
M  V30 11755 H 1159.86 1.89508 1.71815 0
M  V30 11756 H 1159.5 3.57314 3.60956 0
M  V30 11757 H 1159.43 2.22549 4.77263 0
M  V30 11758 H 1161.92 1.9537 3.2348 0
M  V30 11759 H 1162.24 4.51742 6.27016 0
M  V30 11760 H 1160.58 4.057 5.64298 0
M  V30 11761 H 1163.77 2.49175 3.9627 0
M  V30 11762 H 1163.95 3.66064 5.34697 0
M  V30 11763 N 1157.35 -1.41121 0.701616 0
M  V30 11764 C 1158.28 -2.33436 0.0545974 0
M  V30 11765 C 1159.26 -1.52144 -0.760662 0
M  V30 11766 O 1160.45 -1.80661 -0.712414 0
M  V30 11767 C 1157.58 -3.36015 -0.878117 0
M  V30 11768 C 1156.53 -4.27664 -0.169511 0
M  V30 11769 C 1155.86 -5.20666 -1.21699 0
M  V30 11770 C 1157.16 -5.13254 0.967859 0
M  V30 11771 H 1158.85 -2.87791 0.825637 0
M  V30 11772 H 1156.4 -1.38377 0.398484 0
M  V30 11773 H 1158.35 -3.99526 -1.34004 0
M  V30 11774 H 1157.08 -2.80024 -1.68089 0
M  V30 11775 H 1155.73 -3.65586 0.272441 0
M  V30 11776 H 1155.38 -4.60987 -2.01246 0
M  V30 11777 H 1155.08 -5.82822 -0.747836 0
M  V30 11778 H 1156.61 -5.87053 -1.6793 0
M  V30 11779 H 1158.02 -5.70298 0.585944 0
M  V30 11780 H 1156.42 -5.84381 1.3645 0
M  V30 11781 H 1157.49 -4.5006 1.80483 0
M  V30 11782 N 1158.83 -0.446794 -1.51134 0
M  V30 11783 C 1160.06 0.117242 -2.07068 0
M  V30 11784 C 1160.48 1.34877 -1.3111 0
M  V30 11785 O 1159.84 1.77856 -0.35172 0
M  V30 11786 C 1159.89 0.408616 -3.58277 0
M  V30 11787 O 1158.99 1.49345 -3.84408 0
M  V30 11788 H 1158.33 -0.00228458 -0.663996 0
M  V30 11789 H 1160.86 -0.63085 -1.94632 0
M  V30 11790 H 1160.87 0.656298 -4.02687 0
M  V30 11791 H 1159.55 -0.491444 -4.12986 0
M  V30 11792 H 1158.12 1.23499 -3.51856 0
M  V30 11793 N 1160.31 1.56586 -0.178487 0
M  V30 11794 C 1161.55 1.9739 0.465306 0
M  V30 11795 C 1161.89 1.06474 1.6241 0
M  V30 11796 O 1161.16 0.113316 1.9417 0
M  V30 11797 C 1161.45 3.47577 0.941408 0
M  V30 11798 C 1161.3 4.49271 -0.218054 0
M  V30 11799 C 1162.62 4.01038 1.81263 0
M  V30 11800 H 1159.74 0.717676 0.167663 0
M  V30 11801 H 1162.38 1.88128 -0.266067 0
M  V30 11802 H 1160.53 3.556 1.56463 0
M  V30 11803 H 1162.2 4.53301 -0.855332 0
M  V30 11804 H 1160.44 4.24936 -0.872441 0
M  V30 11805 H 1161.11 5.51776 0.157315 0
M  V30 11806 H 1163.59 3.9569 1.28718 0
M  V30 11807 H 1162.47 5.06526 2.11476 0
M  V30 11808 H 1162.73 3.45288 2.76096 0
M  V30 11809 N 1161.79 -0.095206 1.57312 0
M  V30 11810 C 1162.7 -1.13388 2.05379 0
M  V30 11811 C 1163.71 -1.43868 0.978668 0
M  V30 11812 O 1164.89 -1.54512 1.29182 0
M  V30 11813 C 1161.95 -2.43444 2.46852 0
M  V30 11814 C 1161.01 -2.20146 3.68557 0
M  V30 11815 C 1160.25 -3.44001 4.08043 0
M  V30 11816 O 1160.47 -4.52233 3.47623 0
M  V30 11817 O 1159.4 -3.33596 5.00997 0
M  V30 11818 H 1163.23 -0.755622 2.9415 0
M  V30 11819 H 1160.82 -0.307707 1.46197 0
M  V30 11820 H 1162.7 -3.20027 2.74155 0
M  V30 11821 H 1161.37 -2.80696 1.61219 0
M  V30 11822 H 1160.28 -1.41345 3.46371 0
M  V30 11823 H 1161.61 -1.87787 4.54969 0
M  V30 11824 N 1163.26 -1.53291 -0.366026 0
M  V30 11825 C 1164.23 -1.79025 -1.43117 0
M  V30 11826 C 1165.23 -0.660676 -1.46601 0
M  V30 11827 O 1166.42 -0.928875 -1.47369 0
M  V30 11828 C 1163.55 -1.91192 -2.82238 0
M  V30 11829 H 1164.74 -2.74154 -1.21572 0
M  V30 11830 H 1162.3 -1.44361 -0.599132 0
M  V30 11831 H 1163.03 -0.98129 -3.09097 0
M  V30 11832 H 1162.82 -2.7335 -2.81109 0
M  V30 11833 H 1164.31 -2.12696 -3.59375 0
M  V30 11834 N 1164.74 0.6258 -1.44643 0
M  V30 11835 C 1165.67 1.75086 -1.47911 0
M  V30 11836 C 1166.69 1.58496 -0.37188 0
M  V30 11837 O 1167.88 1.66712 -0.637925 0
M  V30 11838 C 1164.98 3.12874 -1.30243 0
M  V30 11839 C 1164.15 3.55873 -2.54309 0
M  V30 11840 C 1163.21 4.72558 -2.31464 0
M  V30 11841 O 1162.23 4.80599 -3.04981 0
M  V30 11842 N 1163.44 5.64617 -1.34862 0
M  V30 11843 H 1166.2 1.72751 -2.44902 0
M  V30 11844 H 1163.76 0.810531 -1.4015 0
M  V30 11845 H 1165.75 3.88663 -1.12798 0
M  V30 11846 H 1164.32 3.0982 -0.415966 0
M  V30 11847 H 1163.54 2.70237 -2.86994 0
M  V30 11848 H 1164.83 3.81355 -3.36817 0
M  V30 11849 H 1164.23 5.60819 -0.741542 0
M  V30 11850 H 1162.79 6.40013 -1.23394 0
M  V30 11851 N 1166.22 1.31629 0.866686 0
M  V30 11852 C 1167.18 1.1951 1.95576 0
M  V30 11853 C 1168.18 0.121319 1.60342 0
M  V30 11854 O 1169.37 0.370832 1.70207 0
M  V30 11855 C 1166.51 0.835201 3.30511 0
M  V30 11856 H 1167.7 2.16285 2.07752 0
M  V30 11857 H 1165.25 1.15288 1.05539 0
M  V30 11858 H 1165.99 -0.131245 3.24034 0
M  V30 11859 H 1165.77 1.61142 3.57457 0
M  V30 11860 H 1167.26 0.774393 4.10357 0
M  V30 11861 N 1167.7 -1.08142 1.14644 0
M  V30 11862 C 1168.63 -2.15022 0.793614 0
M  V30 11863 C 1169.64 -1.61679 -0.190729 0
M  V30 11864 O 1170.83 -1.78472 0.0313696 0
M  V30 11865 C 1167.93 -3.38532 0.157785 0
M  V30 11866 C 1167.11 -4.21252 1.17753 0
M  V30 11867 C 1166.17 -5.23158 0.564968 0
M  V30 11868 O 1165.19 -5.5578 1.22869 0
M  V30 11869 N 1166.39 -5.7677 -0.657022 0
M  V30 11870 H 1169.16 -2.45893 1.71338 0
M  V30 11871 H 1166.72 -1.23976 1.04122 0
M  V30 11872 H 1168.71 -4.03834 -0.264586 0
M  V30 11873 H 1167.28 -3.05441 -0.665168 0
M  V30 11874 H 1166.5 -3.51888 1.77675 0
M  V30 11875 H 1167.79 -4.73335 1.86632 0
M  V30 11876 H 1167.19 -5.52503 -1.21478 0
M  V30 11877 H 1165.74 -6.4374 -1.02186 0
M  V30 11878 N 1169.18 -0.941978 -1.26351 0
M  V30 11879 C 1170.42 -0.590845 -1.94002 0
M  V30 11880 C 1170.76 0.868004 -1.73722 0
M  V30 11881 O 1170.03 1.62111 -1.07472 0
M  V30 11882 C 1170.31 -0.934901 -3.47752 0
M  V30 11883 C 1170.17 -2.44855 -3.77314 0
M  V30 11884 C 1171.49 -0.450888 -4.37784 0
M  V30 11885 H 1168.61 -0.21613 -0.704597 0
M  V30 11886 H 1171.25 -1.17634 -1.49205 0
M  V30 11887 H 1169.4 -0.436648 -3.86038 0
M  V30 11888 H 1171.07 -3.01959 -3.48738 0
M  V30 11889 H 1169.31 -2.89169 -3.23363 0
M  V30 11890 H 1169.98 -2.6398 -4.84787 0
M  V30 11891 H 1172.46 -0.878107 -4.06729 0
M  V30 11892 H 1171.34 -0.720439 -5.44152 0
M  V30 11893 H 1171.6 0.649162 -4.37308 0
M  V30 11894 N 1170.66 1.40747 -0.709091 0
M  V30 11895 C 1171.88 2.05319 -0.255258 0
M  V30 11896 C 1172.3 1.53406 1.10054 0
M  V30 11897 O 1171.66 0.687905 1.69039 0
M  V30 11898 C 1171.71 3.60835 -0.219251 0
M  V30 11899 O 1171.43 4.1083 -1.52151 0
M  V30 11900 C 1172.93 4.42572 0.253927 0
M  V30 11901 H 1170.15 0.660904 -0.115959 0
M  V30 11902 H 1172.69 1.80274 -0.965474 0
M  V30 11903 H 1170.85 3.84872 0.441882 0
M  V30 11904 H 1171.26 5.04979 -1.41764 0
M  V30 11905 H 1172.74 5.51529 0.22798 0
M  V30 11906 H 1173.21 4.19673 1.29504 0
M  V30 11907 H 1173.82 4.23629 -0.376694 0
M  V30 11908 N 1172.13 0.454803 1.50895 0
M  V30 11909 C 1173.06 -0.337982 2.31041 0
M  V30 11910 C 1174.04 -1.00523 1.37219 0
M  V30 11911 O 1175.23 -1.00553 1.66141 0
M  V30 11912 C 1172.36 -1.42964 3.1651 0
M  V30 11913 C 1171.31 -0.884907 4.18752 0
M  V30 11914 C 1170.64 -2.07363 4.92854 0
M  V30 11915 C 1171.94 0.0926716 5.22218 0
M  V30 11916 H 1173.63 0.33089 2.97566 0
M  V30 11917 H 1171.18 0.160577 1.43102 0
M  V30 11918 H 1173.13 -1.9916 3.71367 0
M  V30 11919 H 1171.86 -2.12705 2.47839 0
M  V30 11920 H 1170.52 -0.345031 3.64973 0
M  V30 11921 H 1170.16 -2.75764 4.2067 0
M  V30 11922 H 1169.86 -1.71545 5.62002 0
M  V30 11923 H 1171.39 -2.6408 5.5054 0
M  V30 11924 H 1172.8 -0.379568 5.72042 0
M  V30 11925 H 1171.2 0.3643 5.98993 0
M  V30 11926 H 1172.27 1.02383 4.73968 0
M  V30 11927 N 1173.61 -1.56489 0.186789 0
M  V30 11928 C 1174.56 -2.20034 -0.754164 0
M  V30 11929 C 1175.55 -1.16899 -1.22601 0
M  V30 11930 O 1176.76 -1.35064 -1.18987 0
M  V30 11931 H 1173.13 -0.705058 -0.261529 0
M  V30 11932 H 1175.11 -2.97766 -0.194418 0
M  V30 11933 C 1173.85 -2.86733 -1.9667 0
M  V30 11934 H 1173.18 -3.65831 -1.61268 0
M  V30 11935 H 1174.62 -3.34645 -2.60363 0
M  V30 11936 C 1173.08 -1.87325 -2.8002 0
M  V30 11937 O 1173.61 -1.36835 -3.77676 0
M  V30 11938 N 1171.81 -1.55738 -2.45345 0
M  V30 11939 H 1171.36 -1.9699 -1.6599 0
M  V30 11940 H 1171.32 -0.894805 -3.01398 0
M  V30 11941 N 1175.09 0.086862 -1.5736 0
M  V30 11942 C 1176.34 0.787281 -1.86135 0
M  V30 11943 C 1176.66 1.78866 -0.776667 0
M  V30 11944 O 1175.93 1.94915 0.19625 0
M  V30 11945 H 1174.51 0.293744 -0.686821 0
M  V30 11946 H 1177.17 0.0665326 -1.94786 0
M  V30 11947 H 1176.27 1.3128 -2.83147 0
M  V30 11948 N 1176.57 1.53483 0.357892 0
M  V30 11949 C 1177.81 1.70289 1.10134 0
M  V30 11950 C 1178.15 0.457296 1.88739 0
M  V30 11951 O 1177.42 -0.545527 1.86693 0
M  V30 11952 C 1177.7 2.95755 2.05429 0
M  V30 11953 C 1177.56 4.30489 1.30382 0
M  V30 11954 C 1178.88 3.16844 3.05447 0
M  V30 11955 H 1176 0.61965 0.399003 0
M  V30 11956 H 1178.64 1.86133 0.381357 0
M  V30 11957 H 1176.79 2.82377 2.66825 0
M  V30 11958 H 1178.46 4.55692 0.71711 0
M  V30 11959 H 1176.7 4.2955 0.605712 0
M  V30 11960 H 1177.37 5.14427 2.00171 0
M  V30 11961 H 1179.85 3.29458 2.54159 0
M  V30 11962 H 1178.73 4.06053 3.69341 0
M  V30 11963 H 1178.99 2.32476 3.76041 0
M  V30 11964 N 1178.05 -0.61812 1.44973 0
M  V30 11965 C 1179.27 -1.40921 1.52171 0
M  V30 11966 C 1179.7 -1.87487 0.151755 0
M  V30 11967 O 1179.05 -1.59518 -0.861606 0
M  V30 11968 C 1179.1 -2.59689 2.50188 0
M  V30 11969 O 1178.21 -3.59967 2.0124 0
M  V30 11970 H 1177.55 -0.421138 0.51336 0
M  V30 11971 H 1180.08 -0.753258 1.90229 0
M  V30 11972 H 1180.09 -3.07069 2.6865 0
M  V30 11973 H 1178.76 -2.25144 3.4969 0
M  V30 11974 H 1177.34 -3.19308 1.92605 0
M  V30 11975 N 1179.52 -1.32087 -0.859693 0
M  V30 11976 C 1180.47 -1.20601 -1.96784 0
M  V30 11977 C 1181.44 -0.089355 -1.65859 0
M  V30 11978 O 1182.63 -0.264022 -1.88964 0
M  V30 11979 C 1179.77 -0.929872 -3.32336 0
M  V30 11980 C 1178.88 -2.13084 -3.75791 0
M  V30 11981 C 1178.01 -1.79061 -5.00111 0
M  V30 11982 C 1177.05 -2.95507 -5.36043 0
M  V30 11983 N 1176.19 -2.61611 -6.5154 0
M  V30 11984 H 1181.03 -2.1539 -2.0594 0
M  V30 11985 H 1178.57 -1.07131 -1.00803 0
M  V30 11986 H 1180.52 -0.750285 -4.10398 0
M  V30 11987 H 1179.15 -0.0187929 -3.22795 0
M  V30 11988 H 1178.21 -2.42086 -2.93425 0
M  V30 11989 H 1179.52 -3.00205 -3.98344 0
M  V30 11990 H 1178.67 -1.57625 -5.85866 0
M  V30 11991 H 1177.41 -0.891459 -4.79483 0
M  V30 11992 H 1176.42 -3.17581 -4.48801 0
M  V30 11993 H 1177.64 -3.86147 -5.5863 0
M  V30 11994 H 1175.59 -1.74231 -6.32439 0
M  V30 11995 H 1175.5 -3.42262 -6.74087 0
M  V30 11996 H 1176.77 -2.43592 -7.40461 0
M  V30 11997 N 1181 1.07532 -1.15215 0
M  V30 11998 C 1182.41 1.61567 -0.935568 0
M  V30 11999 C 1182.76 1.89085 0.523557 0
M  V30 12000 O 1181.89 1.65495 1.39429 0
M  V30 12001 C 1182.48 2.93531 -1.69189 0
M  V30 12002 C 1181.04 3.44316 -1.52063 0
M  V30 12003 C 1180.19 2.18404 -1.70866 0
M  V30 12004 H 1183.14 0.906431 -1.30267 0
M  V30 12005 H 1183.16 3.62377 -1.16031 0
M  V30 12006 H 1182.67 2.73471 -2.75381 0
M  V30 12007 H 1180.77 3.69462 -0.482567 0
M  V30 12008 H 1180.89 4.20478 -2.29642 0
M  V30 12009 H 1179.25 2.28012 -1.13502 0
M  V30 12010 H 1180.03 2.00841 -2.7842 0
M  V30 12011 N 1182.48 0.948665 1.2585 0
M  V30 12012 C 1183.39 0.470525 2.29833 0
M  V30 12013 C 1184.41 -0.45919 1.67832 0
M  V30 12014 O 1185.58 -0.336893 1.98562 0
M  V30 12015 C 1182.65 -0.249635 3.458 0
M  V30 12016 C 1181.71 0.717559 4.23261 0
M  V30 12017 C 1180.94 0.0316724 5.33691 0
M  V30 12018 O 1181.16 -1.18384 5.5798 0
M  V30 12019 O 1180.1 0.71418 5.97648 0
M  V30 12020 H 1183.92 1.33447 2.72811 0
M  V30 12021 H 1181.51 0.714864 1.31187 0
M  V30 12022 H 1183.39 -0.654993 4.16279 0
M  V30 12023 H 1182.07 -1.08885 3.04837 0
M  V30 12024 H 1180.97 1.17301 3.55234 0
M  V30 12025 H 1182.31 1.52461 4.67992 0
M  V30 12026 N 1183.96 -1.40369 0.716545 0
M  V30 12027 C 1184.92 -2.29083 0.0733105 0
M  V30 12028 C 1185.92 -1.45415 -0.686378 0
M  V30 12029 O 1187.11 -1.66316 -0.518139 0
M  V30 12030 C 1184.24 -3.28639 -0.906032 0
M  V30 12031 H 1185.44 -2.87464 0.85467 0
M  V30 12032 H 1182.99 -1.48706 0.481256 0
M  V30 12033 H 1183.72 -2.75279 -1.71441 0
M  V30 12034 H 1183.51 -3.90405 -0.364163 0
M  V30 12035 H 1185 -3.95066 -1.35324 0
M  V30 12036 N 1185.44 -0.462799 -1.50652 0
M  V30 12037 C 1186.68 0.0951853 -2.02576 0
M  V30 12038 C 1187.02 1.40113 -1.34469 0
M  V30 12039 O 1186.29 1.88793 -0.467702 0
M  V30 12040 C 1186.57 0.287603 -3.5895 0
M  V30 12041 C 1186.43 -1.03878 -4.37641 0
M  V30 12042 C 1187.75 1.04593 -4.27491 0
M  V30 12043 H 1184.86 0.0331191 -0.736255 0
M  V30 12044 H 1187.51 -0.606772 -1.80051 0
M  V30 12045 H 1185.66 0.885514 -3.78274 0
M  V30 12046 H 1187.33 -1.67263 -4.29908 0
M  V30 12047 H 1185.57 -1.6374 -4.01711 0
M  V30 12048 H 1186.24 -0.857889 -5.45293 0
M  V30 12049 H 1188.72 0.539213 -4.12591 0
M  V30 12050 H 1187.59 1.14935 -5.36732 0
M  V30 12051 H 1187.86 2.08045 -3.90089 0
M  V30 12052 N 1186.91 1.56388 -0.195085 0
M  V30 12053 C 1187.84 2.22091 0.720971 0
M  V30 12054 C 1188.83 1.184 1.22128 0
M  V30 12055 O 1190.01 1.46907 1.27012 0
M  V30 12056 C 1187.14 2.88025 1.94059 0
M  V30 12057 C 1186.09 3.97959 1.5752 0
M  V30 12058 C 1185.42 4.51058 2.87143 0
M  V30 12059 C 1186.72 5.16365 0.785145 0
M  V30 12060 H 1188.41 2.98898 0.173245 0
M  V30 12061 H 1185.96 1.43767 0.0818868 0
M  V30 12062 H 1187.91 3.32671 2.58666 0
M  V30 12063 H 1186.64 2.08623 2.51285 0
M  V30 12064 H 1185.3 3.54004 0.952715 0
M  V30 12065 H 1184.94 3.68418 3.42458 0
M  V30 12066 H 1184.64 5.25237 2.63439 0
M  V30 12067 H 1186.17 4.98406 3.52738 0
M  V30 12068 H 1187.58 5.57556 1.33431 0
M  V30 12069 H 1185.98 5.9661 0.646231 0
M  V30 12070 H 1187.05 4.84428 -0.213789 0
M  V30 12071 N 1188.39 -0.0785156 1.57404 0
M  V30 12072 C 1189.64 -0.778938 1.86919 0
M  V30 12073 C 1189.97 -1.77915 0.785906 0
M  V30 12074 O 1189.22 -1.94473 -0.218811 0
M  V30 12075 C 1189.52 -1.52826 3.23078 0
M  V30 12076 C 1189.19 -0.668645 4.45915 0
M  V30 12077 C 1187.85 -0.43173 4.79259 0
M  V30 12078 C 1190.2 -0.0721327 5.2115 0
M  V30 12079 C 1187.53 0.41129 5.85257 0
M  V30 12080 C 1189.88 0.758303 6.28039 0
M  V30 12081 C 1188.55 1.00515 6.59889 0
M  V30 12082 H 1187.82 -0.285034 0.683986 0
M  V30 12083 H 1190.46 -0.039906 1.91458 0
M  V30 12084 H 1188.77 -2.33931 3.14299 0
M  V30 12085 H 1190.46 -2.07488 3.43147 0
M  V30 12086 H 1187.05 -0.863424 4.19813 0
M  V30 12087 H 1191.24 -0.242297 4.95708 0
M  V30 12088 H 1186.49 0.611354 6.08336 0
M  V30 12089 H 1190.67 1.2273 6.855 0
M  V30 12090 H 1188.3 1.66017 7.41851 0
M  V30 12091 N 1189.87 -1.5367 -0.349747 0
M  V30 12092 C 1191.28 -1.62135 -0.925704 0
M  V30 12093 C 1191.63 -0.498725 -1.89756 0
M  V30 12094 O 1190.76 0.372481 -2.1317 0
M  V30 12095 C 1191.35 -2.93885 -1.68573 0
M  V30 12096 C 1189.91 -3.04632 -2.2108 0
M  V30 12097 C 1189.06 -2.57541 -1.02801 0
M  V30 12098 H 1192.01 -1.58182 -0.128065 0
M  V30 12099 H 1192.03 -2.82577 -2.54815 0
M  V30 12100 H 1191.54 -3.75571 -0.978153 0
M  V30 12101 H 1189.64 -2.27567 -2.95032 0
M  V30 12102 H 1189.76 -4.09993 -2.47876 0
M  V30 12103 H 1188.12 -2.12798 -1.39962 0
M  V30 12104 H 1188.9 -3.4166 -0.335157 0
M  V30 12105 N 1191.35 0.610423 -1.45298 0
M  V30 12106 C 1192.59 1.37154 -1.49388 0
M  V30 12107 C 1192.93 1.93737 -0.134025 0
M  V30 12108 O 1192.2 1.74888 0.851138 0
M  V30 12109 C 1192.49 2.52155 -2.5708 0
M  V30 12110 C 1192.34 2.00786 -4.02498 0
M  V30 12111 C 1193.66 3.54294 -2.61082 0
M  V30 12112 H 1190.78 0.497346 -0.54389 0
M  V30 12113 H 1193.42 0.688358 -1.77092 0
M  V30 12114 H 1191.57 3.10434 -2.33587 0
M  V30 12115 H 1193.24 1.47178 -4.37191 0
M  V30 12116 H 1191.48 1.31809 -4.1329 0
M  V30 12117 H 1192.15 2.83674 -4.73533 0
M  V30 12118 H 1194.63 3.05851 -2.82125 0
M  V30 12119 H 1193.51 4.32254 -3.38301 0
M  V30 12120 H 1193.77 4.09726 -1.66063 0
M  V30 12121 N 1192.83 1.32541 0.852676 0
M  V30 12122 C 1194.05 1.2636 1.64462 0
M  V30 12123 C 1194.48 -0.16508 1.87374 0
M  V30 12124 O 1193.83 -1.11712 1.42794 0
M  V30 12125 C 1193.88 2.03052 2.97997 0
M  V30 12126 O 1192.99 1.37967 3.88637 0
M  V30 12127 H 1192.33 0.435393 0.501327 0
M  V30 12128 H 1194.86 1.74888 1.06186 0
M  V30 12129 H 1194.87 2.133 3.47803 0
M  V30 12130 H 1193.54 3.06941 2.80642 0
M  V30 12131 H 1192.12 1.36279 3.47106 0
M  V30 12132 N 1194.3 -1.0692 1.15784 0
M  V30 12133 C 1195.58 -1.76367 0.845825 0
M  V30 12134 C 1195.96 -2.00594 -0.657672 0
M  V30 12135 O 1195.31 -1.62794 -1.60345 0
M  V30 12136 C 1195.52 -3.06913 1.66149 0
M  V30 12137 C 1196.87 -3.81181 1.87046 0
M  V30 12138 O 1197.89 -3.16737 1.62961 0
M  V30 12139 O 1196.75 -4.96936 2.27413 0
M  V30 12140 H 1193.84 -0.766095 0.311493 0
M  V30 12141 H 1196.39 -1.13246 1.26386 0
M  V30 12142 H 1195.16 -2.84924 2.68205 0
M  V30 12143 H 1194.79 -3.77767 1.24007 0
M  V30 12144 N 1195.78 -0.955326 -1.25345 0
M  V30 12145 C 1197.03 -0.62095 -1.9369 0
M  V30 12146 C 1197.38 0.832995 -1.73433 0
M  V30 12147 O 1196.68 1.58991 -1.06922 0
M  V30 12148 C 1196.87 -0.916173 -3.45458 0
M  V30 12149 C 1196.7 -2.39726 -3.80475 0
M  V30 12150 C 1195.47 -3.05494 -4.02494 0
M  V30 12151 C 1197.67 -3.37664 -3.87927 0
M  V30 12152 N 1195.65 -4.43469 -4.2451 0
M  V30 12153 C 1197.02 -4.60949 -4.1464 0
M  V30 12154 C 1199.08 -3.32493 -3.70611 0
M  V30 12155 C 1197.78 -5.79703 -4.25837 0
M  V30 12156 C 1199.8 -4.50586 -3.83048 0
M  V30 12157 C 1199.17 -5.72657 -4.10174 0
M  V30 12158 H 1195.27 -0.277847 -0.730976 0
M  V30 12159 H 1197.85 -1.22764 -1.51119 0
M  V30 12160 H 1196.02 -0.338402 -3.86923 0
M  V30 12161 H 1197.75 -0.54163 -4.01059 0
M  V30 12162 H 1194.51 -2.56063 -3.98408 0
M  V30 12163 H 1194.93 -5.14927 -4.39522 0
M  V30 12164 H 1199.57 -2.39163 -3.48656 0
M  V30 12165 H 1197.29 -6.73473 -4.46609 0
M  V30 12166 H 1200.88 -4.48133 -3.71036 0
M  V30 12167 H 1199.76 -6.62512 -4.19581 0
M  V30 12168 N 1197.26 1.39987 -0.723979 0
M  V30 12169 C 1198.21 2.27938 -0.0531058 0
M  V30 12170 C 1199.2 1.43693 0.723965 0
M  V30 12171 O 1200.39 1.66707 0.594785 0
M  V30 12172 C 1197.52 3.32311 0.861659 0
M  V30 12173 C 1196.6 4.24026 0.079327 0
M  V30 12174 N 1196.99 4.96954 -0.941805 0
M  V30 12175 C 1195.29 4.44917 0.310637 0
M  V30 12176 C 1195.99 5.64287 -1.41261 0
M  V30 12177 N 1194.97 5.38632 -0.733217 0
M  V30 12178 H 1198.77 2.81771 -0.835608 0
M  V30 12179 H 1196.28 1.52538 -0.557315 0
M  V30 12180 H 1198.28 3.94174 1.35766 0
M  V30 12181 H 1196.94 2.80038 1.64344 0
M  V30 12182 H 1197.95 5.0072 -1.32288 0
M  V30 12183 H 1194.63 4.03606 1.06809 0
M  V30 12184 H 1196.02 6.32695 -2.26155 0
M  V30 12185 N 1198.74 0.470782 1.50404 0
M  V30 12186 C 1200.15 0.0155901 1.86693 0
M  V30 12187 C 1200.5 -1.38908 1.38561 0
M  V30 12188 O 1199.63 -2.02971 0.750454 0
M  V30 12189 C 1200.22 0.0215152 3.38793 0
M  V30 12190 C 1198.78 -0.378206 3.74495 0
M  V30 12191 C 1197.93 0.407126 2.74295 0
M  V30 12192 H 1200.88 0.68507 1.43152 0
M  V30 12193 H 1200.9 -0.780717 3.72404 0
M  V30 12194 H 1200.41 1.04397 3.73795 0
M  V30 12195 H 1198.51 -1.40503 3.45094 0
M  V30 12196 H 1198.63 -0.0797643 4.79034 0
M  V30 12197 H 1196.99 -0.139123 2.5432 0
M  V30 12198 H 1197.77 1.42909 3.12141 0
M  V30 12199 N 1200.22 -1.56282 0.203376 0
M  V30 12200 C 1201.63 -1.58871 -0.152335 0
M  V30 12201 C 1201.83 -1.21978 -1.60386 0
M  V30 12202 O 1200.89 -0.946422 -2.34092 0
M  V30 12203 C 1202.2 -3.00287 0.157515 0
M  V30 12204 C 1203.75 -3.12846 0.098287 0
M  V30 12205 C 1204.23 -4.56408 0.38156 0
M  V30 12206 N 1205.72 -4.6202 0.330475 0
M  V30 12207 C 1206.45 -5.71006 0.523397 0
M  V30 12208 N 1205.95 -6.88428 0.777115 0
M  V30 12209 N 1207.74 -5.60238 0.457082 0
M  V30 12210 H 1199.89 -1.78543 1.15048 0
M  V30 12211 H 1202.15 -0.829019 0.459816 0
M  V30 12212 H 1201.86 -3.3187 1.16427 0
M  V30 12213 H 1201.73 -3.73372 -0.536041 0
M  V30 12214 H 1204.12 -2.8107 -0.899085 0
M  V30 12215 H 1204.2 -2.42129 0.825045 0
M  V30 12216 H 1203.85 -4.88897 1.37629 0
M  V30 12217 H 1203.78 -5.25325 -0.366182 0
M  V30 12218 H 1206.27 -3.77636 0.141327 0
M  V30 12219 H 1206.58 -7.67389 0.912911 0
M  V30 12220 H 1204.93 -6.90215 0.814104 0
M  V30 12221 H 1208.12 -4.67382 0.259226 0
M  V30 12222 H 1208.29 -6.45114 0.610848 0
M  V30 12223 N 1201.7 0.070167 -1.57444 0
M  V30 12224 C 1202.97 0.802108 -1.78397 0
M  V30 12225 C 1203.35 1.95706 -0.791356 0
M  V30 12226 O 1202.7 2.27827 0.17518 0
M  V30 12227 C 1202.91 1.27354 -3.24934 0
M  V30 12228 C 1204.26 1.70626 -3.88808 0
M  V30 12229 O 1205.28 1.36916 -3.28835 0
M  V30 12230 O 1204.14 2.33041 -4.94322 0
M  V30 12231 H 1201.24 0.384483 -0.73219 0
M  V30 12232 H 1203.78 0.0501168 -1.69626 0
M  V30 12233 H 1202.55 0.447204 -3.88736 0
M  V30 12234 H 1202.18 2.0868 -3.38435 0
M  V30 12235 N 1203.17 1.53854 0.341593 0
M  V30 12236 C 1204.11 1.78295 1.44027 0
M  V30 12237 C 1205.12 0.664303 1.4863 0
M  V30 12238 O 1206.31 0.941073 1.51678 0
M  V30 12239 C 1203.41 1.86947 2.82673 0
M  V30 12240 C 1202.58 3.16898 3.01487 0
M  V30 12241 C 1201.64 3.16483 4.20386 0
M  V30 12242 O 1200.67 3.90197 4.14409 0
M  V30 12243 N 1201.87 2.3899 5.29022 0
M  V30 12244 H 1204.63 2.73102 1.23431 0
M  V30 12245 H 1202.19 1.52928 0.531483 0
M  V30 12246 H 1204.19 1.84118 3.60392 0
M  V30 12247 H 1202.76 0.993169 2.96403 0
M  V30 12248 H 1201.98 3.32835 2.11221 0
M  V30 12249 H 1203.26 4.02733 3.1094 0
M  V30 12250 H 1202.66 1.78657 5.36748 0
M  V30 12251 H 1201.22 2.41957 6.05227 0
M  V30 12252 N 1204.65 -0.602709 1.4562 0
M  V30 12253 C 1206.06 -1.1847 1.44297 0
M  V30 12254 C 1206.41 -1.95434 0.17316 0
M  V30 12255 O 1205.54 -2.03894 -0.724986 0
M  V30 12256 C 1206.13 -2.15508 2.61422 0
M  V30 12257 C 1204.69 -2.69073 2.63204 0
M  V30 12258 C 1203.84 -1.44568 2.36633 0
M  V30 12259 H 1206.79 -0.391745 1.53789 0
M  V30 12260 H 1206.81 -2.98628 2.35799 0
M  V30 12261 H 1206.32 -1.59464 3.53826 0
M  V30 12262 H 1204.42 -3.29042 1.7482 0
M  V30 12263 H 1204.54 -3.13173 3.62573 0
M  V30 12264 H 1202.9 -1.73692 1.86287 0
M  V30 12265 H 1203.68 -0.903852 3.31188 0
M  V30 12266 N 1206.13 -1.32992 -0.845635 0
M  V30 12267 C 1207.06 -1.18513 -1.96182 0
M  V30 12268 C 1208.07 -0.11781 -1.62373 0
M  V30 12269 O 1209.26 -0.36761 -1.74674 0
M  V30 12270 C 1206.36 -0.793812 -3.29472 0
M  V30 12271 C 1205.54 -1.95134 -3.91461 0
M  V30 12272 C 1204.6 -1.54209 -5.03096 0
M  V30 12273 O 1203.62 -2.25545 -5.22607 0
M  V30 12274 N 1204.82 -0.443235 -5.78805 0
M  V30 12275 H 1207.59 -2.14663 -2.09141 0
M  V30 12276 H 1205.15 -1.25648 -1.02099 0
M  V30 12277 H 1207.14 -0.502263 -4.01571 0
M  V30 12278 H 1205.71 0.0768031 -3.12506 0
M  V30 12279 H 1204.93 -2.40889 -3.12035 0
M  V30 12280 H 1206.22 -2.72604 -4.2961 0
M  V30 12281 H 1205.62 0.150298 -5.655 0
M  V30 12282 H 1204.17 -0.211331 -6.51457 0
M  V30 12283 N 1207.61 1.06304 -1.1635 0
M  V30 12284 C 1208.55 2.13776 -0.869965 0
M  V30 12285 C 1209.52 1.65105 0.181541 0
M  V30 12286 O 1210.71 1.90743 0.0467705 0
M  V30 12287 C 1207.85 3.43034 -0.377077 0
M  V30 12288 C 1206.96 4.0544 -1.4914 0
M  V30 12289 C 1206.1 5.22572 -0.953538 0
M  V30 12290 C 1205.14 5.76961 -2.04407 0
M  V30 12291 N 1204.27 6.85409 -1.52181 0
M  V30 12292 H 1209.11 2.38224 -1.79034 0
M  V30 12293 H 1206.65 1.16882 -0.893136 0
M  V30 12294 H 1208.61 4.17136 -0.0729426 0
M  V30 12295 H 1207.24 3.18804 0.506359 0
M  V30 12296 H 1206.29 3.28886 -1.9115 0
M  V30 12297 H 1207.6 4.41859 -2.31434 0
M  V30 12298 H 1206.76 6.037 -0.602579 0
M  V30 12299 H 1205.5 4.87598 -0.099897 0
M  V30 12300 H 1204.5 4.9447 -2.40373 0
M  V30 12301 H 1205.73 6.13987 -2.90167 0
M  V30 12302 H 1203.67 6.52354 -0.690697 0
M  V30 12303 H 1203.59 7.2077 -2.28092 0
M  V30 12304 H 1204.86 7.70217 -1.19942 0
M  V30 12305 N 1209.09 0.96196 1.24836 0
M  V30 12306 C 1210 0.494876 2.29321 0
M  V30 12307 C 1211.01 -0.441363 1.68309 0
M  V30 12308 O 1212.19 -0.315814 1.98908 0
M  V30 12309 C 1209.25 -0.212944 3.46045 0
M  V30 12310 C 1208.31 0.762411 4.22476 0
M  V30 12311 C 1207.55 0.0882756 5.33627 0
M  V30 12312 O 1207.77 -1.12459 5.59204 0
M  V30 12313 O 1206.7 0.777529 5.96857 0
M  V30 12314 H 1210.53 1.36333 2.7138 0
M  V30 12315 H 1208.11 0.728738 1.30421 0
M  V30 12316 H 1210 -0.610805 4.1695 0
M  V30 12317 H 1208.67 -1.05645 3.05975 0
M  V30 12318 H 1207.58 1.21062 3.5397 0
M  V30 12319 H 1208.91 1.57416 4.66349 0
M  V30 12320 N 1210.56 -1.39601 0.731392 0
M  V30 12321 C 1211.47 -2.34425 0.090527 0
M  V30 12322 C 1212.49 -1.58131 -0.725992 0
M  V30 12323 O 1213.67 -1.90441 -0.655294 0
M  V30 12324 C 1210.73 -3.37138 -0.808624 0
M  V30 12325 C 1209.79 -4.29295 0.0197365 0
M  V30 12326 C 1209.02 -5.27102 -0.836593 0
M  V30 12327 O 1209.25 -5.31302 -2.07543 0
M  V30 12328 O 1208.18 -6.01307 -0.267172 0
M  V30 12329 H 1212.01 -2.9088 0.873084 0
M  V30 12330 H 1209.59 -1.41066 0.492024 0
M  V30 12331 H 1211.47 -4.00087 -1.32319 0
M  V30 12332 H 1210.15 -2.83074 -1.57006 0
M  V30 12333 H 1209.06 -3.69581 0.579744 0
M  V30 12334 H 1210.39 -4.86555 0.743308 0
M  V30 12335 N 1212.04 -0.478751 -1.50152 0
M  V30 12336 C 1213.32 0.135533 -1.9513 0
M  V30 12337 C 1213.7 1.56253 -1.41944 0
M  V30 12338 O 1213.05 2.19824 -0.623673 0
M  V30 12339 C 1213.26 0.0710037 -3.48928 0
M  V30 12340 C 1214.61 0.256075 -4.23827 0
M  V30 12341 O 1215.63 0.147234 -3.55896 0
M  V30 12342 O 1214.49 0.476741 -5.44417 0
M  V30 12343 H 1211.58 0.107491 -0.819985 0
M  V30 12344 H 1214.13 -0.539701 -1.60889 0
M  V30 12345 H 1212.9 -0.925012 -3.80209 0
M  V30 12346 H 1212.52 0.787362 -3.89726 0
M  V30 12347 N 1213.52 1.56172 -0.211661 0
M  V30 12348 C 1214.45 2.22843 0.697375 0
M  V30 12349 C 1215.43 1.19689 1.20866 0
M  V30 12350 O 1216.62 1.48245 1.25447 0
M  V30 12351 C 1213.75 2.90067 1.90993 0
M  V30 12352 C 1212.7 3.99608 1.5329 0
M  V30 12353 C 1212.03 4.54078 2.82343 0
M  V30 12354 C 1213.33 5.17169 0.730333 0
M  V30 12355 H 1215.02 2.99065 0.141533 0
M  V30 12356 H 1212.57 1.43846 0.0666337 0
M  V30 12357 H 1214.52 3.35396 2.55123 0
M  V30 12358 H 1213.24 2.11276 2.49058 0
M  V30 12359 H 1211.9 3.54995 0.915115 0
M  V30 12360 H 1211.55 3.72029 3.38531 0
M  V30 12361 H 1211.25 5.28001 2.57853 0
M  V30 12362 H 1212.77 5.02119 3.47432 0
M  V30 12363 H 1214.19 5.5894 1.2751 0
M  V30 12364 H 1212.59 5.97262 0.582916 0
M  V30 12365 H 1213.66 4.84174 -0.265157 0
M  V30 12366 N 1215 -0.0618163 1.57479 0
M  V30 12367 C 1216.25 -0.757569 1.87364 0
M  V30 12368 C 1216.57 -1.77607 0.805025 0
M  V30 12369 O 1215.84 -1.95202 -0.165216 0
M  V30 12370 H 1214.42 -0.28278 0.691408 0
M  V30 12371 H 1217.08 -0.0355354 1.94868 0
M  V30 12372 H 1216.18 -1.26758 2.85199 0
M  V30 12373 N 1216.48 -1.54033 -0.333429 0
M  V30 12374 C 1217.89 -1.63107 -0.908455 0
M  V30 12375 C 1218.24 -0.518823 -1.89216 0
M  V30 12376 O 1217.36 0.34985 -2.13553 0
M  V30 12377 C 1217.96 -2.95657 -1.65447 0
M  V30 12378 C 1216.52 -3.0696 -2.17836 0
M  V30 12379 C 1215.66 -2.58617 -1.00063 0
M  V30 12380 H 1218.62 -1.58309 -0.11128 0
M  V30 12381 H 1218.64 -2.85263 -2.51804 0
M  V30 12382 H 1218.15 -3.76588 -0.938263 0
M  V30 12383 H 1216.25 -2.30683 -2.92602 0
M  V30 12384 H 1216.36 -4.12599 -2.43513 0
M  V30 12385 H 1214.73 -2.1427 -1.37697 0
M  V30 12386 H 1215.51 -3.41996 -0.298901 0
M  V30 12387 N 1217.95 0.594978 -1.45938 0
M  V30 12388 C 1218.92 1.68688 -1.55168 0
M  V30 12389 C 1219.92 1.54945 -0.429951 0
M  V30 12390 O 1221.11 1.59785 -0.693859 0
M  V30 12391 C 1218.24 3.0804 -1.46027 0
M  V30 12392 H 1219.43 1.61866 -2.52467 0
M  V30 12393 H 1216.99 0.811785 -1.33565 0
M  V30 12394 H 1217.72 3.20428 -0.499614 0
M  V30 12395 H 1217.51 3.19423 -2.27401 0
M  V30 12396 H 1219 3.8755 -1.55546 0
M  V30 12397 N 1219.43 1.33438 0.838571 0
M  V30 12398 C 1220.68 1.25097 1.5962 0
M  V30 12399 C 1221.01 -0.182798 1.93338 0
M  V30 12400 O 1220.29 -1.1242 1.5872 0
M  V30 12401 C 1220.57 2.12655 2.90603 0
M  V30 12402 C 1220.42 3.64491 2.63565 0
M  V30 12403 C 1221.74 1.99994 3.92033 0
M  V30 12404 H 1218.86 0.455776 0.579169 0
M  V30 12405 H 1221.5 1.63542 0.967169 0
M  V30 12406 H 1219.65 1.79998 3.44286 0
M  V30 12407 H 1221.32 4.0744 2.16312 0
M  V30 12408 H 1219.57 3.86356 1.9726 0
M  V30 12409 H 1220.24 4.21101 3.569 0
M  V30 12410 H 1222.71 2.28635 3.47657 0
M  V30 12411 H 1221.59 2.63509 4.81512 0
M  V30 12412 H 1221.85 0.972263 4.31277 0
M  V30 12413 N 1220.91 -1.05686 1.16912 0
M  V30 12414 C 1221.86 -2.11584 0.849483 0
M  V30 12415 C 1222.84 -1.59959 -0.173774 0
M  V30 12416 O 1224.04 -1.76978 0.0279436 0
M  V30 12417 C 1221.17 -3.41417 0.359079 0
M  V30 12418 C 1220.25 -3.99852 1.41347 0
M  V30 12419 N 1220.64 -4.32317 2.62557 0
M  V30 12420 C 1218.94 -4.27531 1.27017 0
M  V30 12421 C 1219.64 -4.7885 3.30269 0
M  V30 12422 N 1218.62 -4.78664 2.57647 0
M  V30 12423 H 1222.42 -2.34539 1.77112 0
M  V30 12424 H 1219.93 -1.23286 1.05708 0
M  V30 12425 H 1221.93 -4.1675 0.111666 0
M  V30 12426 H 1220.59 -3.19897 -0.556413 0
M  V30 12427 H 1221.6 -4.22472 2.99563 0
M  V30 12428 H 1218.28 -4.15423 0.415924 0
M  V30 12429 H 1219.67 -5.13123 4.33768 0
M  V30 12430 N 1222.39 -0.968567 -1.24324 0
M  V30 12431 C 1223.34 -0.470481 -2.23093 0
M  V30 12432 C 1224.32 0.447989 -1.54538 0
M  V30 12433 O 1225.51 0.27877 -1.74791 0
M  V30 12434 C 1222.64 0.237222 -3.42479 0
M  V30 12435 C 1221.73 -0.700126 -4.18281 0
M  V30 12436 N 1222.12 -1.83775 -4.71233 0
M  V30 12437 C 1220.42 -0.51108 -4.43062 0
M  V30 12438 C 1221.12 -2.42411 -5.28783 0
M  V30 12439 N 1220.1 -1.70918 -5.16031 0
M  V30 12440 H 1223.9 -1.33848 -2.61652 0
M  V30 12441 H 1221.41 -0.827764 -1.39721 0
M  V30 12442 H 1223.41 0.61128 -4.12394 0
M  V30 12443 H 1222.07 1.10166 -3.0544 0
M  V30 12444 H 1223.08 -2.21926 -4.67942 0
M  V30 12445 H 1219.76 0.309316 -4.16353 0
M  V30 12446 H 1221.15 -3.38417 -5.80451 0
M  V30 12447 N 1223.87 1.39211 -0.738786 0
M  V30 12448 C 1225.11 2.00733 -0.288817 0
M  V30 12449 C 1225.45 1.58494 1.1222 0
M  V30 12450 O 1224.72 0.815579 1.76575 0
M  V30 12451 C 1225 3.57928 -0.394956 0
M  V30 12452 C 1224.86 4.10174 -1.84601 0
M  V30 12453 C 1226.18 4.39548 0.220395 0
M  V30 12454 H 1223.29 0.729276 -0.106418 0
M  V30 12455 H 1225.94 1.65365 -0.935652 0
M  V30 12456 H 1224.09 3.88188 0.155744 0
M  V30 12457 H 1225.76 3.90618 -2.45388 0
M  V30 12458 H 1224 3.63593 -2.36607 0
M  V30 12459 H 1224.67 5.19305 -1.87152 0
M  V30 12460 H 1227.15 4.15354 -0.249098 0
M  V30 12461 H 1226.02 5.48778 0.115806 0
M  V30 12462 H 1226.29 4.22341 1.30691 0
M  V30 12463 N 1225.34 0.486708 1.49896 0
M  V30 12464 C 1226.57 -0.0599944 2.06513 0
M  V30 12465 C 1226.98 -1.32662 1.34898 0
M  V30 12466 O 1226.33 -1.78915 0.416565 0
M  V30 12467 C 1226.39 -0.39838 3.57286 0
M  V30 12468 C 1226.05 0.768465 4.50493 0
M  V30 12469 C 1227.05 1.65495 4.92856 0
M  V30 12470 C 1224.73 0.96322 4.92978 0
M  V30 12471 C 1226.73 2.72046 5.76429 0
M  V30 12472 C 1224.41 2.03193 5.7633 0
M  V30 12473 C 1225.41 2.9089 6.17958 0
M  V30 12474 O 1225.1 3.95919 6.99645 0
M  V30 12475 H 1224.83 0.0107865 0.675914 0
M  V30 12476 H 1227.39 0.679087 1.93849 0
M  V30 12477 H 1225.62 -1.19086 3.67907 0
M  V30 12478 H 1227.31 -0.882003 3.96201 0
M  V30 12479 H 1228.07 1.51624 4.6069 0
M  V30 12480 H 1223.95 0.29004 4.60087 0
M  V30 12481 H 1227.49 3.40526 6.08841 0
M  V30 12482 H 1223.39 2.17064 6.07909 0
M  V30 12483 H 1224.16 3.93097 7.17925 0
M  V30 12484 N 1226.82 -1.56058 0.219941 0
M  V30 12485 C 1227.73 -2.23844 -0.70222 0
M  V30 12486 C 1228.75 -1.24554 -1.215 0
M  V30 12487 O 1229.93 -1.57362 -1.25695 0
M  V30 12488 C 1226.99 -2.90384 -1.89416 0
M  V30 12489 C 1226.05 -4.05012 -1.42351 0
M  V30 12490 C 1225.28 -4.68369 -2.55863 0
M  V30 12491 O 1225.51 -4.3071 -3.73958 0
M  V30 12492 O 1224.44 -5.5739 -2.27157 0
M  V30 12493 H 1228.27 -3.03305 -0.15478 0
M  V30 12494 H 1225.85 -1.49396 -0.010438 0
M  V30 12495 H 1227.73 -3.32389 -2.59028 0
M  V30 12496 H 1226.41 -2.13883 -2.42973 0
M  V30 12497 H 1225.32 -3.67579 -0.695448 0
M  V30 12498 H 1226.65 -4.83251 -0.934332 0
M  V30 12499 N 1228.3 0.053464 -1.57509 0
M  V30 12500 C 1229.23 1.06151 -2.07977 0
M  V30 12501 C 1230.21 1.3924 -0.977047 0
M  V30 12502 O 1231.4 1.48549 -1.25087 0
M  V30 12503 C 1228.53 2.36969 -2.53895 0
M  V30 12504 C 1227.48 2.18186 -3.6821 0
M  V30 12505 C 1226.81 3.54551 -4.00247 0
M  V30 12506 C 1228.11 1.588 -4.97574 0
M  V30 12507 H 1229.8 0.641483 -2.92447 0
M  V30 12508 H 1227.35 0.307122 -1.40687 0
M  V30 12509 H 1229.3 3.07797 -2.87817 0
M  V30 12510 H 1228.02 2.80986 -1.66476 0
M  V30 12511 H 1226.68 1.49796 -3.34599 0
M  V30 12512 H 1226.33 3.96171 -3.09932 0
M  V30 12513 H 1226.03 3.42816 -4.77232 0
M  V30 12514 H 1227.56 4.2678 -4.36682 0
M  V30 12515 H 1228.97 2.19515 -5.29609 0
M  V30 12516 H 1227.37 1.57711 -5.79006 0
M  V30 12517 H 1228.44 0.551254 -4.81756 0
M  V30 12518 N 1229.78 1.54207 0.325255 0
M  V30 12519 C 1231.03 1.71544 1.06091 0
M  V30 12520 C 1231.34 0.495137 1.89229 0
M  V30 12521 O 1232.55 0.54982 2.65874 0
M  V30 12522 C 1231 3.03412 1.93569 0
M  V30 12523 C 1230.61 4.32842 1.1555 0
M  V30 12524 C 1232.36 3.30113 2.66881 0
M  V30 12525 C 1230.26 5.55773 2.02164 0
M  V30 12526 H 1229.19 0.639281 0.399795 0
M  V30 12527 H 1231.84 1.80701 0.319261 0
M  V30 12528 H 1230.23 2.88158 2.71626 0
M  V30 12529 H 1231.4 4.58857 0.42276 0
M  V30 12530 H 1229.71 4.12893 0.539277 0
M  V30 12531 H 1232.31 4.19151 3.31988 0
M  V30 12532 H 1232.65 2.47918 3.34428 0
M  V30 12533 H 1233.19 3.46227 1.95887 0
M  V30 12534 H 1229.93 6.40565 1.39128 0
M  V30 12535 H 1229.45 5.3398 2.73177 0
M  V30 12536 H 1231.13 5.92113 2.60789 0
M  V30 12537 N 1231.26 -0.58723 1.46251 0
M  V30 12538 C 1232.21 -1.71771 1.56836 0
M  V30 12539 C 1233.2 -1.63664 0.437096 0
M  V30 12540 O 1234.41 -1.69212 0.613797 0
M  V30 12541 H 1230.78 -0.567841 0.493012 0
M  V30 12542 H 1232.75 -1.59974 2.51895 0
M  V30 12543 C 1231.5 -3.10159 1.57152 0
M  V30 12544 H 1230.82 -3.17066 2.43535 0
M  V30 12545 H 1232.26 -3.89032 1.68613 0
M  V30 12546 C 1230.72 -3.35567 0.299374 0
M  V30 12547 O 1231.25 -3.97006 -0.612291 0
M  V30 12548 N 1229.46 -2.89987 0.188695 0
M  V30 12549 H 1229.01 -2.4017 0.93147 0
M  V30 12550 H 1228.96 -3.0736 -0.661612 0
M  V30 12551 N 1232.74 -1.33881 -0.831482 0
M  V30 12552 C 1233.67 -1.20587 -1.94914 0
M  V30 12553 C 1234.68 -0.135026 -1.62239 0
M  V30 12554 O 1235.87 -0.386116 -1.74274 0
M  V30 12555 C 1232.97 -0.828712 -3.28612 0
M  V30 12556 C 1232.14 -1.99275 -3.89369 0
M  V30 12557 C 1231.2 -1.59537 -5.01432 0
M  V30 12558 O 1230.23 -2.31076 -5.20185 0
M  V30 12559 N 1231.43 -0.5046 -5.78303 0
M  V30 12560 H 1234.19 -2.16869 -2.06852 0
M  V30 12561 H 1231.76 -1.26723 -1.00761 0
M  V30 12562 H 1233.75 -0.544827 -4.01016 0
M  V30 12563 H 1232.32 0.0436534 -3.1257 0
M  V30 12564 H 1231.54 -2.44185 -3.09463 0
M  V30 12565 H 1232.83 -2.77145 -4.26694 0
M  V30 12566 H 1232.22 0.0903105 -5.65628 0
M  V30 12567 H 1230.78 -0.280415 -6.51197 0
M  V30 12568 N 1234.21 1.05064 -1.1747 0
M  V30 12569 C 1235.46 1.77737 -0.961979 0
M  V30 12570 C 1235.78 1.88198 0.510551 0
M  V30 12571 O 1235.05 1.39968 1.37062 0
M  V30 12572 H 1233.63 0.658366 -0.352935 0
M  V30 12573 H 1236.29 1.26851 -1.47969 0
M  V30 12574 H 1235.39 2.79368 -1.39141 0
M  V30 12575 N 1235.69 0.975146 1.23809 0
M  V30 12576 C 1237.1 0.678873 1.7392 0
M  V30 12577 C 1237.45 -0.805133 1.78919 0
M  V30 12578 O 1236.58 -1.62984 1.42356 0
M  V30 12579 C 1237.17 1.22562 3.15854 0
M  V30 12580 C 1235.73 0.979096 3.63443 0
M  V30 12581 C 1234.88 1.35649 2.41857 0
M  V30 12582 H 1237.83 1.14961 1.09406 0
M  V30 12583 H 1237.85 0.595489 3.75811 0
M  V30 12584 H 1237.36 2.30571 3.12184 0
M  V30 12585 H 1235.46 -0.0851407 3.72503 0
M  V30 12586 H 1235.58 1.62998 4.5052 0
M  V30 12587 H 1233.94 0.774916 2.42626 0
M  V30 12588 H 1234.72 2.44624 2.40861 0
M  V30 12589 N 1237.17 -1.38817 0.746158 0
M  V30 12590 C 1238.39 -2.05096 0.308302 0
M  V30 12591 C 1238.82 -1.55902 -1.05244 0
M  V30 12592 O 1238.18 -0.707685 -1.66918 0
M  V30 12593 C 1238.23 -3.59068 0.332016 0
M  V30 12594 O 1237.33 -4.06813 -0.676547 0
M  V30 12595 H 1236.67 -0.649523 0.1379 0
M  V30 12596 H 1239.2 -1.77637 1.0152 0
M  V30 12597 H 1239.21 -4.07601 0.180293 0
M  V30 12598 H 1237.89 -3.94234 1.32487 0
M  V30 12599 H 1236.46 -3.69666 -0.490046 0
M  V30 12600 N 1238.65 -0.49465 -1.49636 0
M  V30 12601 C 1239.87 0.051305 -2.07337 0
M  V30 12602 C 1240.3 1.30637 -1.35335 0
M  V30 12603 O 1239.66 1.76647 -0.408126 0
M  V30 12604 C 1239.7 0.294425 -3.59396 0
M  V30 12605 O 1238.81 1.3704 -3.88965 0
M  V30 12606 H 1238.15 -0.023408 -0.663587 0
M  V30 12607 H 1240.68 -0.692451 -1.92526 0
M  V30 12608 H 1240.69 0.527854 -4.04571 0
M  V30 12609 H 1239.36 -0.622583 -4.11214 0
M  V30 12610 H 1237.94 1.12242 -3.55607 0
M  V30 12611 N 1240.13 1.55939 -0.228214 0
M  V30 12612 C 1241.37 1.97652 0.402067 0
M  V30 12613 C 1241.69 1.11911 1.60422 0
M  V30 12614 O 1242.89 1.43552 2.30445 0
M  V30 12615 C 1241.35 3.51638 0.766724 0
M  V30 12616 C 1240.96 4.46092 -0.412991 0
M  V30 12617 C 1242.7 4.02049 1.36224 0
M  V30 12618 C 1240.61 5.91394 -0.0255281 0
M  V30 12619 H 1239.54 0.738107 0.153994 0
M  V30 12620 H 1242.19 1.8059 -0.32548 0
M  V30 12621 H 1240.57 3.64325 1.55188 0
M  V30 12622 H 1241.75 4.45156 -1.19049 0
M  V30 12623 H 1240.06 4.0606 -0.92218 0
M  V30 12624 H 1242.66 5.08111 1.66514 0
M  V30 12625 H 1243 3.48292 2.28032 0
M  V30 12626 H 1243.53 3.92612 0.640378 0
M  V30 12627 H 1240.27 6.49149 -0.910269 0
M  V30 12628 H 1239.79 5.95509 0.716149 0
M  V30 12629 H 1241.47 6.4577 0.398839 0
M  V30 12630 N 1241.6 -0.0451101 1.57535 0
M  V30 12631 C 1242.83 -0.755068 1.93167 0
M  V30 12632 C 1243.25 -1.68949 0.826915 0
M  V30 12633 O 1242.61 -1.79978 -0.218534 0
M  V30 12634 C 1242.66 -1.50201 3.27829 0
M  V30 12635 O 1241.76 -2.61434 3.18945 0
M  V30 12636 H 1241.11 -0.204219 0.631815 0
M  V30 12637 H 1243.64 -0.00537504 2.04599 0
M  V30 12638 H 1243.65 -1.87547 3.6234 0
M  V30 12639 H 1242.32 -0.816591 4.07805 0
M  V30 12640 H 1240.9 -2.26749 2.96039 0
M  V30 12641 N 1243.08 -1.54377 -0.317073 0
M  V30 12642 C 1244.01 -1.80563 -1.41172 0
M  V30 12643 C 1245.03 -0.687865 -1.47554 0
M  V30 12644 O 1246.22 -0.965084 -1.50161 0
M  V30 12645 C 1243.32 -1.9142 -2.79663 0
M  V30 12646 C 1242.49 -3.21655 -2.96407 0
M  V30 12647 C 1241.55 -3.23131 -4.15298 0
M  V30 12648 O 1240.57 -3.96741 -4.08149 0
M  V30 12649 N 1241.78 -2.47376 -5.25153 0
M  V30 12650 H 1244.54 -2.75032 -1.1907 0
M  V30 12651 H 1242.1 -1.53754 -0.507086 0
M  V30 12652 H 1244.09 -1.89828 -3.57418 0
M  V30 12653 H 1242.66 -1.0402 -2.94786 0
M  V30 12654 H 1241.88 -3.36154 -2.05899 0
M  V30 12655 H 1243.17 -4.07629 -3.04494 0
M  V30 12656 H 1242.57 -1.87173 -5.33838 0
M  V30 12657 H 1241.13 -2.51555 -6.01301 0
M  V30 12658 N 1244.56 0.579466 -1.4656 0
M  V30 12659 C 1245.81 1.33492 -1.51738 0
M  V30 12660 C 1246.13 1.94241 -0.171926 0
M  V30 12661 O 1245.4 1.78737 0.801875 0
M  V30 12662 H 1243.98 0.49565 -0.558874 0
M  V30 12663 H 1246.64 0.678394 -1.82712 0
M  V30 12664 H 1245.74 2.13995 -2.27183 0
M  V30 12665 N 1246.04 1.3432 0.824371 0
M  V30 12666 C 1247.28 1.26783 1.58284 0
M  V30 12667 C 1247.62 -0.162282 1.93521 0
M  V30 12668 O 1246.89 -1.1073 1.59903 0
M  V30 12669 C 1247.18 2.15725 2.88331 0
M  V30 12670 C 1247.03 3.67266 2.59684 0
M  V30 12671 C 1248.35 2.04141 3.8989 0
M  V30 12672 H 1245.47 0.461893 0.574303 0
M  V30 12673 H 1248.11 1.64558 0.949769 0
M  V30 12674 H 1246.26 1.83639 3.42358 0
M  V30 12675 H 1247.93 4.09711 2.11978 0
M  V30 12676 H 1246.17 3.88426 1.93151 0
M  V30 12677 H 1246.84 4.24863 3.52414 0
M  V30 12678 H 1249.32 2.3231 3.45212 0
M  V30 12679 H 1248.2 2.68601 4.7869 0
M  V30 12680 H 1248.46 1.01795 4.30221 0
M  V30 12681 N 1247.52 -1.0444 1.18026 0
M  V30 12682 C 1248.45 -2.14297 0.927314 0
M  V30 12683 C 1249.43 -1.69575 -0.13357 0
M  V30 12684 O 1250.61 -1.94191 0.0182439 0
M  V30 12685 C 1247.74 -3.44397 0.448134 0
M  V30 12686 C 1246.7 -4.02723 1.44907 0
M  V30 12687 C 1246.02 -5.28257 0.827555 0
M  V30 12688 C 1247.32 -4.39331 2.82463 0
M  V30 12689 H 1249.02 -2.35715 1.84605 0
M  V30 12690 H 1246.56 -1.13281 0.889012 0
M  V30 12691 H 1248.52 -4.20606 0.258554 0
M  V30 12692 H 1247.24 -3.22654 -0.506159 0
M  V30 12693 H 1245.9 -3.28591 1.62552 0
M  V30 12694 H 1245.55 -5.02822 -0.13381 0
M  V30 12695 H 1245.25 -5.68242 1.49581 0
M  V30 12696 H 1246.77 -6.07147 0.64842 0
M  V30 12697 H 1248.18 -5.06543 2.68491 0
M  V30 12698 H 1246.58 -4.90355 3.45936 0
M  V30 12699 H 1247.65 -3.4933 3.36299 0
M  V30 12700 N 1248.99 -0.981699 -1.2329 0
M  V30 12701 C 1249.9 -0.531296 -2.28505 0
M  V30 12702 C 1250.92 0.414531 -1.6899 0
M  V30 12703 O 1252.1 0.284129 -1.99386 0
M  V30 12704 C 1249.16 0.157864 -3.4634 0
M  V30 12705 C 1248.22 -0.829527 -4.21209 0
M  V30 12706 C 1247.46 -0.17316 -5.33419 0
M  V30 12707 O 1247.68 1.03549 -5.60922 0
M  V30 12708 O 1246.61 -0.872385 -5.95544 0
M  V30 12709 H 1250.44 -1.40633 -2.69177 0
M  V30 12710 H 1248.02 -0.749395 -1.29246 0
M  V30 12711 H 1249.91 0.544394 -4.17869 0
M  V30 12712 H 1248.58 1.00764 -3.07617 0
M  V30 12713 H 1247.49 -1.26678 -3.51999 0
M  V30 12714 H 1248.82 -1.64815 -4.63785 0
M  V30 12715 N 1250.47 1.3842 -0.753509 0
M  V30 12716 C 1251.4 2.33073 -0.141198 0
M  V30 12717 C 1252.38 1.54863 0.70367 0
M  V30 12718 O 1253.57 1.8318 0.644872 0
M  V30 12719 C 1250.7 3.39043 0.752802 0
M  V30 12720 C 1249.65 4.27999 0.0106692 0
M  V30 12721 C 1248.98 5.24824 1.02291 0
M  V30 12722 C 1250.28 5.09308 -1.15768 0
M  V30 12723 H 1251.97 2.84528 -0.93188 0
M  V30 12724 H 1249.52 1.36802 -0.449567 0
M  V30 12725 H 1251.47 4.04224 1.19083 0
M  V30 12726 H 1250.2 2.8607 1.57581 0
M  V30 12727 H 1248.85 3.64323 -0.407939 0
M  V30 12728 H 1248.5 4.68139 1.83998 0
M  V30 12729 H 1248.2 5.85196 0.53101 0
M  V30 12730 H 1249.73 5.92882 1.46026 0
M  V30 12731 H 1251.14 5.6773 -0.797203 0
M  V30 12732 H 1249.54 5.78914 -1.58044 0
M  V30 12733 H 1250.61 4.43051 -1.97062 0
M  V30 12734 N 1251.95 0.502579 1.49372 0
M  V30 12735 C 1253.18 -0.0403087 2.07361 0
M  V30 12736 C 1253.6 -1.29918 1.36026 0
M  V30 12737 O 1252.96 -1.76428 0.417488 0
M  V30 12738 C 1253.01 -0.275362 3.59547 0
M  V30 12739 O 1252.11 -1.34975 3.89686 0
M  V30 12740 H 1251.45 0.0269268 0.663454 0
M  V30 12741 H 1253.98 0.702652 1.92156 0
M  V30 12742 H 1253.99 -0.506392 4.04845 0
M  V30 12743 H 1252.67 0.644382 4.10878 0
M  V30 12744 H 1251.24 -1.10355 3.56197 0
M  V30 12745 N 1253.43 -1.55816 0.23648 0
M  V30 12746 C 1254.67 -2.0059 -0.39281 0
M  V30 12747 C 1255.03 -1.12092 -1.55883 0
M  V30 12748 O 1256.23 -1.46277 -2.25514 0
M  V30 12749 C 1254.5 -3.48281 -0.80219 0
M  V30 12750 S 1256.06 -4.15069 -1.42348 0
M  V30 12751 H 1252.88 -0.700093 -0.124057 0
M  V30 12752 H 1255.48 -1.92355 0.349272 0
M  V30 12753 H 1254.19 -4.10362 0.0558941 0
M  V30 12754 H 1253.72 -3.60421 -1.57671 0
M  V30 12755 H 1255.73 -4.15493 -2.71257 0
M  V30 12756 N 1254.91 0.036755 -1.57557 0
M  V30 12757 C 1256.32 0.584324 -1.7732 0
M  V30 12758 C 1256.67 1.76025 -0.86658 0
M  V30 12759 O 1255.79 2.16318 -0.059443 0
M  V30 12760 C 1256.39 1.06679 -3.21566 0
M  V30 12761 C 1254.95 1.55994 -3.42553 0
M  V30 12762 C 1254.09 0.494604 -2.72853 0
M  V30 12763 H 1257.05 -0.189473 -1.57565 0
M  V30 12764 H 1257.07 1.93446 -3.27657 0
M  V30 12765 H 1256.58 0.210727 -3.87527 0
M  V30 12766 H 1254.68 2.43811 -2.81757 0
M  V30 12767 H 1254.79 1.61274 -4.5114 0
M  V30 12768 H 1253.16 0.947865 -2.36406 0
M  V30 12769 H 1253.94 -0.351868 -3.41492 0
M  V30 12770 N 1256.39 1.54543 0.308881 0
M  V30 12771 C 1257.32 1.81309 1.40212 0
M  V30 12772 C 1258.33 0.69568 1.47187 0
M  V30 12773 O 1259.52 0.973034 1.49647 0
M  V30 12774 C 1256.62 1.92901 2.78644 0
M  V30 12775 C 1255.79 3.23222 2.94697 0
M  V30 12776 C 1254.85 3.25329 4.13579 0
M  V30 12777 O 1253.88 3.989 4.06039 0
M  V30 12778 N 1255.08 2.50158 5.23833 0
M  V30 12779 H 1257.84 2.75659 1.1761 0
M  V30 12780 H 1255.41 1.54021 0.498925 0
M  V30 12781 H 1257.4 1.91721 3.56406 0
M  V30 12782 H 1255.97 1.05582 2.9423 0
M  V30 12783 H 1255.19 3.37241 2.04113 0
M  V30 12784 H 1256.48 4.09238 3.02328 0
M  V30 12785 H 1255.87 1.90002 5.32838 0
M  V30 12786 H 1254.43 2.5474 5.99959 0
M  V30 12787 N 1257.86 -0.571685 1.46866 0
M  V30 12788 C 1258.83 -1.66198 1.57832 0
M  V30 12789 C 1259.83 -1.54242 0.454547 0
M  V30 12790 O 1261.02 -1.58661 0.719191 0
M  V30 12791 C 1258.15 -3.05678 1.5091 0
M  V30 12792 H 1259.34 -1.57829 2.5501 0
M  V30 12793 H 1256.89 -0.790433 1.3484 0
M  V30 12794 H 1257.63 -3.19593 0.550529 0
M  V30 12795 H 1257.41 -3.15765 2.32454 0
M  V30 12796 H 1258.9 -3.85027 1.61692 0
M  V30 12797 N 1259.34 -1.34755 -0.817236 0
M  V30 12798 C 1260.27 -1.29452 -1.94331 0
M  V30 12799 C 1261.25 -0.170902 -1.69239 0
M  V30 12800 O 1262.44 -0.364173 -1.90755 0
M  V30 12801 C 1259.57 -1.05497 -3.30889 0
M  V30 12802 C 1258.52 -2.14386 -3.70436 0
M  V30 12803 C 1257.85 -1.75612 -5.05039 0
M  V30 12804 C 1259.15 -3.56265 -3.81933 0
M  V30 12805 H 1260.84 -2.23672 -1.99025 0
M  V30 12806 H 1258.39 -1.07674 -0.956159 0
M  V30 12807 H 1260.34 -1.0043 -4.09257 0
M  V30 12808 H 1259.06 -0.0772059 -3.26509 0
M  V30 12809 H 1257.72 -2.18532 -2.94345 0
M  V30 12810 H 1257.37 -0.764809 -4.97152 0
M  V30 12811 H 1257.07 -2.48495 -5.3247 0
M  V30 12812 H 1258.6 -1.72051 -5.85859 0
M  V30 12813 H 1260.01 -3.545 -4.50558 0
M  V30 12814 H 1258.41 -4.27818 -4.20822 0
M  V30 12815 H 1259.48 -3.93192 -2.83775 0
M  V30 12816 N 1260.82 1.03812 -1.18578 0
M  V30 12817 C 1261.73 2.15371 -0.930182 0
M  V30 12818 C 1262.75 1.73673 0.106599 0
M  V30 12819 O 1263.92 2.01257 -0.0759054 0
M  V30 12820 C 1260.99 3.43606 -0.462151 0
M  V30 12821 C 1260.05 3.99671 -1.5672 0
M  V30 12822 C 1259.28 5.21785 -1.12141 0
M  V30 12823 O 1259.5 5.70397 0.0188357 0
M  V30 12824 O 1258.44 5.70449 -1.9202 0
M  V30 12825 H 1262.26 2.39791 -1.86371 0
M  V30 12826 H 1259.85 1.13814 -0.967819 0
M  V30 12827 H 1261.73 4.2088 -0.20934 0
M  V30 12828 H 1260.41 3.20654 0.443052 0
M  V30 12829 H 1259.31 3.23774 -1.87406 0
M  V30 12830 H 1260.65 4.2697 -2.44862 0
M  V30 12831 N 1262.3 0.988223 1.22768 0
M  V30 12832 C 1263.55 0.660154 1.91014 0
M  V30 12833 C 1263.87 -0.809788 1.77391 0
M  V30 12834 O 1263.14 -1.57998 1.15817 0
M  V30 12835 H 1261.72 0.24118 0.706995 0
M  V30 12836 H 1264.38 1.25372 1.49224 0
M  V30 12837 H 1263.47 0.918603 2.98275 0
M  V30 12838 N 1263.78 -1.38018 0.760839 0
M  V30 12839 C 1264.71 -2.2899 0.0980916 0
M  V30 12840 C 1265.72 -1.48102 -0.675985 0
M  V30 12841 O 1266.91 -1.70883 -0.515878 0
M  V30 12842 C 1264.01 -3.27142 -0.884959 0
M  V30 12843 C 1263.18 -4.37081 -0.167 0
M  V30 12844 C 1262.24 -5.15375 -1.06184 0
M  V30 12845 O 1261.27 -5.6673 -0.529667 0
M  V30 12846 N 1262.47 -5.29052 -2.38924 0
M  V30 12847 H 1265.23 -2.86508 0.879403 0
M  V30 12848 H 1262.8 -1.49877 0.612245 0
M  V30 12849 H 1264.79 -3.764 -1.48678 0
M  V30 12850 H 1263.36 -2.70471 -1.5673 0
M  V30 12851 H 1262.58 -3.89363 0.615617 0
M  V30 12852 H 1263.87 -5.07732 0.329525 0
M  V30 12853 H 1263.26 -4.88892 -2.84607 0
M  V30 12854 H 1261.82 -5.81658 -2.94139 0
M  V30 12855 N 1265.25 -0.510493 -1.49103 0
M  V30 12856 C 1266.19 0.299697 -2.27232 0
M  V30 12857 C 1267.2 0.922102 -1.34168 0
M  V30 12858 O 1268.39 0.803836 -1.59376 0
M  V30 12859 C 1265.49 1.43778 -3.06889 0
M  V30 12860 C 1264.66 0.920927 -4.27595 0
M  V30 12861 C 1263.72 1.93777 -4.89221 0
M  V30 12862 O 1262.75 1.5025 -5.49011 0
M  V30 12863 N 1263.95 3.2688 -4.79718 0
M  V30 12864 H 1266.71 -0.37028 -2.97404 0
M  V30 12865 H 1264.27 -0.343617 -1.58212 0
M  V30 12866 H 1266.27 2.11577 -3.44988 0
M  V30 12867 H 1264.84 2.01175 -2.39264 0
M  V30 12868 H 1264.06 0.0675358 -3.94142 0
M  V30 12869 H 1265.34 0.554168 -5.05773 0
M  V30 12870 H 1264.74 3.64924 -4.32258 0
M  V30 12871 H 1263.3 3.90366 -5.21974 0
M  V30 12872 N 1266.73 1.55688 -0.24474 0
M  V30 12873 C 1267.66 2.24272 0.64995 0
M  V30 12874 C 1268.64 1.22226 1.183 0
M  V30 12875 O 1269.83 1.50873 1.22274 0
M  V30 12876 C 1266.96 2.94053 1.84798 0
M  V30 12877 C 1265.91 4.02769 1.44779 0
M  V30 12878 C 1265.24 4.59965 2.72647 0
M  V30 12879 C 1266.54 5.18601 0.62047 0
M  V30 12880 H 1268.23 2.99298 0.0780654 0
M  V30 12881 H 1265.78 1.43955 0.0361069 0
M  V30 12882 H 1267.73 3.40732 2.47951 0
M  V30 12883 H 1266.45 2.16511 2.44521 0
M  V30 12884 H 1265.11 3.56856 0.839609 0
M  V30 12885 H 1264.76 3.79126 3.30564 0
M  V30 12886 H 1264.46 5.33352 2.46596 0
M  V30 12887 H 1265.99 5.09376 3.36703 0
M  V30 12888 H 1267.4 5.61519 1.15625 0
M  V30 12889 H 1265.8 5.98364 0.456097 0
M  V30 12890 H 1266.87 4.83503 -0.367798 0
M  V30 12891 N 1268.21 -0.0283989 1.57574 0
M  V30 12892 C 1269.14 -1.02828 2.09639 0
M  V30 12893 C 1270.12 -1.37668 0.999076 0
M  V30 12894 O 1271.31 -1.4654 1.27435 0
M  V30 12895 C 1268.44 -2.329 2.57633 0
M  V30 12896 C 1267.39 -2.12301 3.71635 0
M  V30 12897 C 1266.72 -3.48138 4.05837 0
M  V30 12898 C 1268.02 -1.50864 5.00037 0
M  V30 12899 H 1269.71 -0.594876 2.93431 0
M  V30 12900 H 1267.26 -0.284701 1.41158 0
M  V30 12901 H 1269.21 -3.03179 2.92678 0
M  V30 12902 H 1267.93 -2.78302 1.70926 0
M  V30 12903 H 1266.59 -1.44454 3.3694 0
M  V30 12904 H 1266.24 -3.9119 3.16195 0
M  V30 12905 H 1265.94 -3.3518 4.82626 0
M  V30 12906 H 1267.46 -4.19779 4.43417 0
M  V30 12907 H 1268.88 -2.11062 5.33035 0
M  V30 12908 H 1267.27 -1.48479 5.81441 0
M  V30 12909 H 1268.34 -0.474541 4.82572 0
M  V30 12910 N 1269.69 -1.54705 -0.300681 0
M  V30 12911 C 1270.92 -1.77735 -1.05327 0
M  V30 12912 C 1271.33 -0.53709 -1.81417 0
M  V30 12913 O 1270.67 0.502663 -1.76689 0
M  V30 12914 C 1270.73 -2.93222 -2.07993 0
M  V30 12915 C 1270.39 -4.313 -1.51095 0
M  V30 12916 C 1271.39 -5.11317 -0.94082 0
M  V30 12917 C 1269.08 -4.77901 -1.54648 0
M  V30 12918 C 1271.07 -6.36055 -0.413791 0
M  V30 12919 C 1268.76 -6.02602 -1.01558 0
M  V30 12920 C 1269.76 -6.81515 -0.450209 0
M  V30 12921 O 1269.44 -8.03867 0.0726375 0
M  V30 12922 H 1269.18 -0.596468 -0.318122 0
M  V30 12923 H 1271.73 -2.02475 -0.345404 0
M  V30 12924 H 1269.96 -2.64108 -2.82461 0
M  V30 12925 H 1271.65 -3.03826 -2.69156 0
M  V30 12926 H 1272.41 -4.76458 -0.906268 0
M  V30 12927 H 1268.29 -4.16507 -1.97594 0
M  V30 12928 H 1271.84 -6.97594 0.0281534 0
M  V30 12929 H 1267.73 -6.36948 -1.04728 0
M  V30 12930 H 1268.5 -8.1849 -0.0406321 0
M  V30 12931 N 1271.17 0.563888 -1.47167 0
M  V30 12932 C 1272.41 1.32331 -1.53676 0
M  V30 12933 C 1272.75 1.93213 -0.195593 0
M  V30 12934 O 1272.02 1.77508 0.795068 0
M  V30 12935 C 1272.3 2.43848 -2.64972 0
M  V30 12936 C 1272.16 1.8788 -4.08682 0
M  V30 12937 C 1273.48 3.45809 -2.72221 0
M  V30 12938 H 1270.59 0.479791 -0.559437 0
M  V30 12939 H 1273.24 0.631669 -1.79192 0
M  V30 12940 H 1271.39 3.02846 -2.43345 0
M  V30 12941 H 1273.06 1.33195 -4.41652 0
M  V30 12942 H 1271.3 1.18593 -4.17275 0
M  V30 12943 H 1271.97 2.68465 -4.82318 0
M  V30 12944 H 1274.45 2.9672 -2.91713 0
M  V30 12945 H 1273.32 4.21272 -3.51882 0
M  V30 12946 H 1273.59 4.04236 -1.79014 0
M  V30 12947 N 1272.64 1.35187 0.810078 0
M  V30 12948 C 1273.87 1.31371 1.59841 0
M  V30 12949 C 1274.29 -0.109547 1.88482 0
M  V30 12950 O 1273.64 -1.06047 1.48527 0
M  V30 12951 C 1273.7 2.11496 2.93175 0
M  V30 12952 O 1273.42 3.48273 2.65777 0
M  V30 12953 C 1274.92 2.15226 3.87547 0
M  V30 12954 H 1272.14 0.451428 0.496441 0
M  V30 12955 H 1274.68 1.7799 1.00697 0
M  V30 12956 H 1272.84 1.68486 3.48843 0
M  V30 12957 H 1273.25 3.89845 3.50886 0
M  V30 12958 H 1274.72 2.75687 4.78226 0
M  V30 12959 H 1275.2 1.15007 4.23875 0
M  V30 12960 H 1275.81 2.58382 3.37815 0
M  V30 12961 N 1274.12 -1.03182 1.19127 0
M  V30 12962 C 1275.54 -1.28773 0.942854 0
M  V30 12963 C 1275.74 -1.97759 -0.386483 0
M  V30 12964 O 1274.79 -2.26365 -1.1187 0
M  V30 12965 C 1276.11 -2.13771 2.11476 0
M  V30 12966 C 1277.66 -2.27089 2.15406 0
M  V30 12967 C 1278.13 -3.15458 3.32039 0
M  V30 12968 N 1279.62 -3.23046 3.31957 0
M  V30 12969 C 1280.36 -3.91604 4.18848 0
M  V30 12970 N 1279.85 -4.62418 5.15889 0
M  V30 12971 N 1281.65 -3.87974 4.06734 0
M  V30 12972 H 1273.8 -0.568165 2.0466 0
M  V30 12973 H 1276.06 -0.31328 0.89474 0
M  V30 12974 H 1275.77 -1.704 3.07663 0
M  V30 12975 H 1275.64 -3.14476 2.0829 0
M  V30 12976 H 1278.03 -2.69693 1.19791 0
M  V30 12977 H 1278.11 -1.25945 2.22647 0
M  V30 12978 H 1277.75 -2.73564 4.27931 0
M  V30 12979 H 1277.68 -4.16654 3.22035 0
M  V30 12980 H 1280.17 -2.7261 2.6171 0
M  V30 12981 H 1280.49 -5.12353 5.78545 0
M  V30 12982 H 1278.83 -4.61293 5.1984 0
M  V30 12983 H 1282.02 -3.31789 3.30202 0
M  V30 12984 H 1282.19 -4.4113 4.74666 0
M  V30 12985 N 1275.6 -0.99472 -1.22242 0
M  V30 12986 C 1276.85 -0.672596 -1.91322 0
M  V30 12987 C 1277.18 0.793542 -1.77247 0
M  V30 12988 O 1276.45 1.57407 -1.14251 0
M  V30 12989 C 1276.74 -1.08155 -3.43474 0
M  V30 12990 C 1276.59 -2.60638 -3.6659 0
M  V30 12991 C 1277.91 -0.636161 -4.35478 0
M  V30 12992 H 1275.03 -0.24582 -0.694796 0
M  V30 12993 H 1277.67 -1.23857 -1.44082 0
M  V30 12994 H 1275.82 -0.599987 -3.83839 0
M  V30 12995 H 1277.49 -3.16479 -3.35617 0
M  V30 12996 H 1275.74 -3.02624 -3.10808 0
M  V30 12997 H 1276.41 -2.84304 -4.73155 0
M  V30 12998 H 1278.88 -1.04982 -4.02639 0
M  V30 12999 H 1277.76 -0.950584 -5.40606 0
M  V30 13000 H 1278.02 0.4631 -4.39668 0
M  V30 13001 N 1277.08 1.37613 -0.768148 0
M  V30 13002 C 1278.31 2.04052 -0.342111 0
M  V30 13003 C 1278.72 1.57936 1.03449 0
M  V30 13004 O 1278.08 0.758981 1.65969 0
M  V30 13005 C 1278.13 3.5958 -0.372096 0
M  V30 13006 O 1277.85 4.04008 -1.69439 0
M  V30 13007 C 1279.35 4.43251 0.0659884 0
M  V30 13008 H 1276.57 0.655391 -0.143886 0
M  V30 13009 H 1279.12 1.76017 -1.04107 0
M  V30 13010 H 1277.27 3.86399 0.278248 0
M  V30 13011 H 1277.68 4.98511 -1.63054 0
M  V30 13012 H 1279.16 5.52 -0.00614775 0
M  V30 13013 H 1279.64 4.24788 1.11588 0
M  V30 13014 H 1280.24 4.2165 -0.55603 0
M  V30 13015 N 1278.56 0.518393 1.4883 0
M  V30 13016 C 1279.8 -0.019866 2.0209 0
M  V30 13017 C 1280.13 -1.35863 1.3988 0
M  V30 13018 O 1279.4 -1.87722 0.560117 0
M  V30 13019 H 1277.98 -0.0103306 0.746929 0
M  V30 13020 H 1280.64 0.679591 1.82668 0
M  V30 13021 H 1279.73 -0.136749 3.118 0
M  V30 13022 N 1280.03 -1.55556 0.252993 0
M  V30 13023 C 1280.96 -2.24613 -0.638047 0
M  V30 13024 C 1281.95 -1.22852 -1.1765 0
M  V30 13025 O 1283.13 -1.51519 -1.21472 0
M  V30 13026 C 1280.26 -2.95029 -1.83236 0
M  V30 13027 C 1279.21 -4.03531 -1.42641 0
M  V30 13028 C 1278.54 -4.61404 -2.70204 0
M  V30 13029 C 1279.84 -5.18923 -0.592958 0
M  V30 13030 H 1281.53 -2.99335 -0.0621918 0
M  V30 13031 H 1279.08 -1.43972 -0.0284722 0
M  V30 13032 H 1281.03 -3.42042 -2.46141 0
M  V30 13033 H 1279.76 -2.17805 -2.43369 0
M  V30 13034 H 1278.42 -3.57296 -0.820672 0
M  V30 13035 H 1278.06 -3.80874 -3.28548 0
M  V30 13036 H 1277.76 -5.34652 -2.43764 0
M  V30 13037 H 1279.29 -5.11154 -3.33997 0
M  V30 13038 H 1280.7 -5.62124 -1.12646 0
M  V30 13039 H 1279.1 -5.98598 -0.424358 0
M  V30 13040 H 1280.17 -4.83301 0.393434 0
M  V30 13041 N 1281.51 0.0200419 -1.57587 0
M  V30 13042 C 1282.46 1.0362 -2.08244 0
M  V30 13043 C 1283.45 1.36872 -0.998119 0
M  V30 13044 O 1284.66 1.35671 -1.18293 0
M  V30 13045 H 1281.04 0.351731 -0.664673 0
M  V30 13046 H 1283.01 0.583226 -2.92645 0
M  V30 13047 C 1281.76 2.32574 -2.58466 0
M  V30 13048 H 1281.08 2.0785 -3.41523 0
M  V30 13049 H 1282.52 3.02 -2.97611 0
M  V30 13050 C 1280.98 3.02167 -1.48986 0
M  V30 13051 O 1281.51 3.92359 -0.861251 0
M  V30 13052 N 1279.71 2.63649 -1.22219 0
M  V30 13053 H 1279.26 1.90389 -1.73521 0
M  V30 13054 H 1279.22 3.10529 -0.491828 0
M  V30 13055 N 1282.99 1.54862 0.292472 0
M  V30 13056 C 1284.23 1.76289 1.03448 0
M  V30 13057 C 1284.59 0.541914 1.84194 0
M  V30 13058 O 1285.8 0.634075 2.61214 0
M  V30 13059 C 1284.07 3.02112 1.90953 0
M  V30 13060 S 1285.63 3.44577 2.71683 0
M  V30 13061 H 1282.44 0.619596 0.348744 0
M  V30 13062 H 1285.05 1.93075 0.306952 0
M  V30 13063 H 1283.75 3.89091 1.30523 0
M  V30 13064 H 1283.28 2.87937 2.68059 0
M  V30 13065 H 1285.3 3.02318 3.93469 0
M  V30 13066 N 1284.47 -0.556076 1.47464 0
M  V30 13067 C 1285.7 -1.33858 1.57764 0
M  V30 13068 C 1286.11 -1.87415 0.22825 0
M  V30 13069 O 1285.47 -1.65054 -0.778674 0
M  V30 13070 C 1285.52 -2.5077 2.60378 0
M  V30 13071 O 1285.24 -1.99426 3.90078 0
M  V30 13072 C 1286.74 -3.42965 2.80873 0
M  V30 13073 H 1283.96 -0.408003 0.532705 0
M  V30 13074 H 1286.51 -0.673501 1.93091 0
M  V30 13075 H 1284.66 -3.13214 2.27982 0
M  V30 13076 H 1285.07 -2.75759 4.46158 0
M  V30 13077 H 1286.55 -4.21412 3.56533 0
M  V30 13078 H 1287.03 -3.96579 1.88737 0
M  V30 13079 H 1287.63 -2.86336 3.14471 0
M  V30 13080 N 1285.95 -1.35615 -0.802897 0
M  V30 13081 C 1287.18 -1.32217 -1.59142 0
M  V30 13082 C 1287.59 0.0995496 -1.88537 0
M  V30 13083 O 1286.95 1.05258 -1.49087 0
M  V30 13084 C 1287 -2.13048 -2.92049 0
M  V30 13085 O 1286.72 -3.49677 -2.63927 0
M  V30 13086 C 1288.22 -2.17278 -3.864 0
M  V30 13087 H 1285.44 -0.454054 -0.49404 0
M  V30 13088 H 1287.98 -1.78521 -0.997516 0
M  V30 13089 H 1286.14 -1.70334 -3.47944 0
M  V30 13090 H 1286.55 -3.917 -3.48814 0
M  V30 13091 H 1288.03 -2.7822 -4.76758 0
M  V30 13092 H 1288.5 -1.17253 -4.23259 0
M  V30 13093 H 1289.11 -2.6017 -3.3644 0
M  V30 13094 N 1287.43 1.02549 -1.19673 0
M  V30 13095 C 1288.37 2.13015 -0.934209 0
M  V30 13096 C 1289.37 1.69035 0.111208 0
M  V30 13097 O 1290.57 1.79959 -0.0383449 0
M  V30 13098 H 1286.95 0.696015 -0.284722 0
M  V30 13099 H 1288.92 2.32346 -1.87238 0
M  V30 13100 C 1287.67 3.44185 -0.493124 0
M  V30 13101 H 1286.99 3.78447 -1.28911 0
M  V30 13102 H 1288.43 4.22565 -0.348577 0
M  V30 13103 C 1286.89 3.27427 0.793277 0
M  V30 13104 O 1287.42 3.56362 1.85388 0
M  V30 13105 N 1285.63 2.80706 0.751837 0
M  V30 13106 H 1285.17 2.57359 -0.111517 0
M  V30 13107 H 1285.13 2.69874 1.61292 0
M  V30 13108 N 1288.9 1.00119 1.21713 0
M  V30 13109 C 1289.85 0.529464 2.21767 0
M  V30 13110 C 1290.84 -0.406858 1.55671 0
M  V30 13111 O 1292.03 -0.232329 1.75469 0
M  V30 13112 C 1289.16 -0.146336 3.42988 0
M  V30 13113 C 1288.24 0.81078 4.16278 0
M  V30 13114 N 1288.64 1.96204 4.66195 0
M  V30 13115 C 1286.93 0.628371 4.41551 0
M  V30 13116 C 1287.63 2.56346 5.2217 0
M  V30 13117 N 1286.61 1.8454 5.11318 0
M  V30 13118 H 1290.41 1.40738 2.58012 0
M  V30 13119 H 1287.93 0.864518 1.37477 0
M  V30 13120 H 1289.92 -0.501726 4.1387 0
M  V30 13121 H 1288.58 -1.02029 3.08254 0
M  V30 13122 H 1289.59 2.34255 4.61893 0
M  V30 13123 H 1286.27 -0.198819 4.17026 0
M  V30 13124 H 1287.66 3.53688 5.71274 0
M  V30 13125 N 1290.38 -1.37203 0.775435 0
M  V30 13126 C 1291.79 -1.82224 0.406372 0
M  V30 13127 C 1292.14 -1.64587 -1.06796 0
M  V30 13128 O 1291.27 -1.15903 -1.82744 0
M  V30 13129 C 1291.86 -3.30824 0.730819 0
M  V30 13130 C 1290.42 -3.74108 0.414766 0
M  V30 13131 C 1289.57 -2.59679 0.972747 0
M  V30 13132 H 1292.52 -1.25623 0.969775 0
M  V30 13133 H 1292.54 -3.80496 0.0168066 0
M  V30 13134 H 1292.05 -3.43628 1.80392 0
M  V30 13135 H 1290.15 -3.66871 -0.650866 0
M  V30 13136 H 1290.27 -4.70074 0.925595 0
M  V30 13137 H 1288.63 -2.51591 0.396772 0
M  V30 13138 H 1289.41 -2.75274 2.05132 0
M  V30 13139 N 1291.86 -0.526279 -1.48553 0
M  V30 13140 C 1293.11 0.0111473 -2.01697 0
M  V30 13141 C 1293.42 1.35675 -1.40895 0
M  V30 13142 O 1294.63 1.98233 -1.85515 0
M  V30 13143 C 1293.08 0.0702721 -3.59831 0
M  V30 13144 C 1292.69 -1.27022 -4.29616 0
M  V30 13145 C 1294.44 0.556722 -4.20834 0
M  V30 13146 C 1292.34 -1.17188 -5.79673 0
M  V30 13147 H 1291.27 0.00793697 -0.753958 0
M  V30 13148 H 1293.92 -0.669503 -1.70851 0
M  V30 13149 H 1292.31 0.81592 -3.87503 0
M  V30 13150 H 1293.48 -2.03114 -4.1362 0
M  V30 13151 H 1291.79 -1.69211 -3.80469 0
M  V30 13152 H 1294.39 0.648205 -5.30756 0
M  V30 13153 H 1294.73 1.56163 -3.859 0
M  V30 13154 H 1295.27 -0.133132 -3.97577 0
M  V30 13155 H 1292.01 -2.15182 -6.19174 0
M  V30 13156 H 1291.53 -0.452259 -5.98093 0
M  V30 13157 H 1293.21 -0.861011 -6.41245 0
M  V30 13158 N 1293.34 1.5542 -0.261239 0
M  V30 13159 C 1294.29 2.23382 0.648324 0
M  V30 13160 C 1295.28 1.22615 1.16884 0
M  V30 13161 O 1296.49 1.40587 1.12407 0
M  V30 13162 H 1292.86 0.716733 0.227592 0
M  V30 13163 H 1294.83 2.98354 0.0521289 0
M  V30 13164 C 1293.58 2.9579 1.82766 0
M  V30 13165 H 1292.9 3.73109 1.4363 0
M  V30 13166 H 1294.34 3.46686 2.441 0
M  V30 13167 C 1292.8 2.00472 2.70763 0
M  V30 13168 O 1293.33 1.54698 3.70717 0
M  V30 13169 N 1291.54 1.67267 2.37635 0
M  V30 13170 H 1291.09 2.04685 1.56402 0
M  V30 13171 H 1291.04 1.03759 2.96785 0
M  V30 13172 N 1294.82 -0.0116844 1.57596 0
M  V30 13173 C 1296.23 -0.55604 1.78228 0
M  V30 13174 C 1296.58 -1.74624 0.894474 0
M  V30 13175 O 1295.7 -2.16196 0.0938498 0
M  V30 13176 C 1296.3 -1.0155 3.23223 0
M  V30 13177 C 1294.86 -1.50525 3.44992 0
M  V30 13178 C 1294 -0.451133 2.73606 0
M  V30 13179 H 1296.95 0.214516 1.57243 0
M  V30 13180 H 1296.98 -1.88208 3.30693 0
M  V30 13181 H 1296.49 -0.149048 3.87814 0
M  V30 13182 H 1294.59 -2.39298 2.856 0
M  V30 13183 H 1294.7 -1.54076 4.53649 0
M  V30 13184 H 1293.07 -0.910135 2.37884 0
M  V30 13185 H 1293.85 0.406152 3.40889 0
M  V30 13186 N 1296.29 -1.55015 -0.284256 0
M  V30 13187 C 1297.24 -1.87122 -1.35107 0
M  V30 13188 C 1298.21 -0.721638 -1.49605 0
M  V30 13189 O 1299.4 -0.971855 -1.64194 0
M  V30 13190 C 1296.54 -2.1388 -2.70831 0
M  V30 13191 C 1295.65 -3.41447 -2.64647 0
M  V30 13192 C 1294.78 -3.57961 -3.92476 0
M  V30 13193 C 1293.82 -4.79261 -3.80757 0
M  V30 13194 N 1292.96 -4.92492 -5.00395 0
M  V30 13195 H 1297.8 -2.78117 -1.07027 0
M  V30 13196 H 1295.34 -1.37704 -0.517311 0
M  V30 13197 H 1297.29 -2.27391 -3.49784 0
M  V30 13198 H 1295.92 -1.26132 -2.97137 0
M  V30 13199 H 1294.98 -3.36467 -1.77466 0
M  V30 13200 H 1296.29 -4.3053 -2.51884 0
M  V30 13201 H 1295.44 -3.71229 -4.79868 0
M  V30 13202 H 1294.18 -2.67042 -4.08093 0
M  V30 13203 H 1293.19 -4.66008 -2.91747 0
M  V30 13204 H 1294.41 -5.71604 -3.66669 0
M  V30 13205 H 1292.36 -4.04501 -5.16445 0
M  V30 13206 H 1292.27 -5.75603 -4.9012 0
M  V30 13207 H 1293.54 -5.10134 -5.89392 0
M  V30 13208 N 1297.77 0.548248 -1.47757 0
M  V30 13209 C 1299.02 1.30243 -1.54535 0
M  V30 13210 C 1299.34 1.93832 -0.213089 0
M  V30 13211 O 1298.61 1.80397 0.763782 0
M  V30 13212 H 1297.19 0.483684 -0.569262 0
M  V30 13213 H 1299.85 0.639485 -1.8411 0
M  V30 13214 H 1298.95 2.09128 -2.31672 0
M  V30 13215 N 1299.25 1.36039 0.795694 0
M  V30 13216 C 1300.18 1.32528 1.92246 0
M  V30 13217 C 1301.16 0.197805 1.68946 0
M  V30 13218 O 1302.35 0.394474 1.90151 0
M  V30 13219 C 1299.48 1.10748 3.29169 0
M  V30 13220 C 1298.43 2.20253 3.66978 0
M  V30 13221 C 1297.76 1.83624 5.02181 0
M  V30 13222 C 1299.06 3.62296 3.76216 0
M  V30 13223 H 1300.75 2.2681 1.95442 0
M  V30 13224 H 1298.3 1.09181 0.938908 0
M  V30 13225 H 1300.25 1.06929 4.07608 0
M  V30 13226 H 1298.97 0.129141 3.26345 0
M  V30 13227 H 1297.63 2.23187 2.90832 0
M  V30 13228 H 1297.28 0.843804 4.95872 0
M  V30 13229 H 1296.98 2.56935 5.28449 0
M  V30 13230 H 1298.5 1.81349 5.83048 0
M  V30 13231 H 1299.92 3.61623 4.44861 0
M  V30 13232 H 1298.31 4.34459 4.13963 0
M  V30 13233 H 1299.38 3.97657 2.77483 0
M  V30 13234 N 1300.73 -1.01913 1.20215 0
M  V30 13235 C 1301.64 -2.13864 0.964328 0
M  V30 13236 C 1302.65 -1.73821 -0.0789556 0
M  V30 13237 O 1303.83 -2.01111 0.107914 0
M  V30 13238 C 1300.9 -3.42827 0.516757 0
M  V30 13239 C 1299.96 -3.97127 1.63059 0
M  V30 13240 C 1299.19 -5.19935 1.20428 0
M  V30 13241 O 1299.41 -5.70355 0.0719119 0
M  V30 13242 O 1298.35 -5.67322 2.01071 0
M  V30 13243 H 1302.17 -2.36795 1.90162 0
M  V30 13244 H 1299.76 -1.1226 0.985803 0
M  V30 13245 H 1301.64 -4.20493 0.276272 0
M  V30 13246 H 1300.31 -3.21318 -0.391983 0
M  V30 13247 H 1299.22 -3.20752 1.92533 0
M  V30 13248 H 1300.55 -4.2302 2.51624 0
M  V30 13249 N 1302.21 -1.00763 -1.2118 0
M  V30 13250 C 1303.14 -0.590493 -2.2591 0
M  V30 13251 C 1304.12 0.390002 -1.65569 0
M  V30 13252 O 1305.3 0.277406 -1.92208 0
M  V30 13253 C 1302.43 0.0810388 -3.47205 0
M  V30 13254 C 1301.39 -0.81951 -4.20081 0
M  V30 13255 C 1300.71 -0.014244 -5.34698 0
M  V30 13256 C 1302.01 -2.12336 -4.7719 0
M  V30 13257 H 1303.71 -1.46595 -2.61056 0
M  V30 13258 H 1301.25 -0.706321 -1.25487 0
M  V30 13259 H 1303.21 0.384355 -4.19644 0
M  V30 13260 H 1301.93 0.991145 -3.11197 0
M  V30 13261 H 1300.59 -1.10669 -3.49497 0
M  V30 13262 H 1300.24 0.897233 -4.94933 0
M  V30 13263 H 1299.94 -0.613883 -5.84384 0
M  V30 13264 H 1301.46 0.282827 -6.09945 0
M  V30 13265 H 1302.87 -1.88301 -5.41494 0
M  V30 13266 H 1301.27 -2.67308 -5.37277 0
M  V30 13267 H 1302.34 -2.79238 -3.96427 0
M  V30 13268 N 1303.68 1.3679 -0.7827 0
M  V30 13269 C 1304.96 1.93639 -0.276278 0
M  V30 13270 C 1305.34 1.7153 1.23048 0
M  V30 13271 O 1304.69 1.07037 2.01879 0
M  V30 13272 C 1304.9 3.42672 -0.661586 0
M  V30 13273 C 1306.25 4.19786 -0.637538 0
M  V30 13274 O 1307.27 3.51082 -0.601645 0
M  V30 13275 O 1306.13 5.42323 -0.674408 0
M  V30 13276 H 1303.22 0.824307 -0.0666832 0
M  V30 13277 H 1305.77 1.46012 -0.864792 0
M  V30 13278 H 1304.54 3.52393 -1.70103 0
M  V30 13279 H 1304.17 3.97573 -0.0465987 0
M  V30 13280 N 1305.16 0.53415 1.48272 0
M  V30 13281 C 1306.57 0.0947592 1.86459 0
M  V30 13282 C 1306.92 -1.32906 1.44328 0
M  V30 13283 O 1306.05 -1.99605 0.835866 0
M  V30 13284 C 1306.64 0.16519 3.38397 0
M  V30 13285 C 1305.2 -0.219029 3.75762 0
M  V30 13286 C 1304.35 0.523097 2.72321 0
M  V30 13287 H 1307.3 0.74517 1.40117 0
M  V30 13288 H 1307.32 -0.622065 3.75381 0
M  V30 13289 H 1306.83 1.20157 3.69031 0
M  V30 13290 H 1304.94 -1.2574 3.50742 0
M  V30 13291 H 1305.05 0.123482 4.78941 0
M  V30 13292 H 1303.41 -0.0311323 2.54681 0
M  V30 13293 H 1304.2 1.56019 3.05799 0
M  V30 13294 N 1306.64 -1.55279 0.269478 0
M  V30 13295 C 1307.55 -2.25965 -0.63065 0
M  V30 13296 C 1308.57 -1.28357 -1.17476 0
M  V30 13297 O 1309.74 -1.61281 -1.20625 0
M  V30 13298 C 1306.81 -2.96263 -1.80081 0
M  V30 13299 C 1305.87 -4.09336 -1.29394 0
M  V30 13300 C 1305.1 -4.76272 -2.40833 0
M  V30 13301 O 1305.32 -4.42389 -3.60066 0
M  V30 13302 O 1304.26 -5.64334 -2.09309 0
M  V30 13303 H 1308.08 -3.03644 -0.0582069 0
M  V30 13304 H 1305.67 -1.49354 0.0370966 0
M  V30 13305 H 1307.55 -3.40461 -2.48322 0
M  V30 13306 H 1306.23 -2.21505 -2.36045 0
M  V30 13307 H 1305.13 -3.69605 -0.578154 0
M  V30 13308 H 1306.47 -4.85978 -0.780117 0
M  V30 13309 N 1308.12 0.00332656 -1.576 0
M  V30 13310 C 1309.37 0.687508 -1.90047 0
M  V30 13311 C 1309.69 1.74497 -0.870388 0
M  V30 13312 O 1308.96 1.95681 0.0926544 0
M  V30 13313 H 1307.54 0.256924 -0.701426 0
M  V30 13314 H 1310.2 -0.0368129 -1.94865 0
M  V30 13315 H 1309.3 1.16086 -2.89707 0
M  V30 13316 N 1309.6 1.55164 0.276031 0
M  V30 13317 C 1310.82 1.7998 1.03063 0
M  V30 13318 C 1311.25 0.569769 1.79263 0
M  V30 13319 O 1310.6 -0.48054 1.74816 0
M  V30 13320 C 1310.65 3.02209 1.96728 0
M  V30 13321 O 1309.76 2.77083 3.05449 0
M  V30 13322 H 1309.1 0.594963 0.294814 0
M  V30 13323 H 1311.63 2.02301 0.305861 0
M  V30 13324 H 1311.64 3.3086 2.38738 0
M  V30 13325 H 1310.31 3.91386 1.40677 0
M  V30 13326 H 1308.89 2.5952 2.67776 0
M  V30 13327 N 1311.07 -0.540404 1.48045 0
M  V30 13328 C 1312 -1.65538 1.6468 0
M  V30 13329 C 1312.99 -1.62713 0.495847 0
M  V30 13330 O 1314.17 -1.80072 0.727172 0
M  V30 13331 C 1311.3 -3.0415 1.67661 0
M  V30 13332 C 1310.25 -3.2183 2.82152 0
M  V30 13333 C 1309.58 -4.61397 2.70216 0
M  V30 13334 C 1310.88 -3.05596 4.23567 0
M  V30 13335 H 1312.57 -1.51873 2.58021 0
M  V30 13336 H 1310.12 -0.729208 1.24171 0
M  V30 13337 H 1312.07 -3.82013 1.77887 0
M  V30 13338 H 1310.8 -3.18814 0.708907 0
M  V30 13339 H 1309.46 -2.4638 2.71463 0
M  V30 13340 H 1309.1 -4.72883 1.71437 0
M  V30 13341 H 1308.8 -4.74174 3.47035 0
M  V30 13342 H 1310.33 -5.41374 2.82395 0
M  V30 13343 H 1311.74 -3.73261 4.35143 0
M  V30 13344 H 1310.14 -3.29871 5.01303 0
M  V30 13345 H 1311.21 -2.0214 4.40758 0
M  V30 13346 N 1312.55 -1.36459 -0.788468 0
M  V30 13347 C 1313.5 -1.27391 -1.89092 0
M  V30 13348 C 1314.49 -0.165201 -1.6005 0
M  V30 13349 O 1315.68 -0.398097 -1.72465 0
M  V30 13350 C 1312.81 -1.06639 -3.26317 0
M  V30 13351 C 1311.89 -2.21981 -3.61366 0
M  V30 13352 N 1312.28 -3.47302 -3.67716 0
M  V30 13353 C 1310.58 -2.13767 -3.91433 0
M  V30 13354 C 1311.28 -4.2326 -3.99031 0
M  V30 13355 N 1310.26 -3.52211 -4.14063 0
M  V30 13356 H 1314.06 -2.22318 -1.92229 0
M  V30 13357 H 1311.58 -1.29191 -0.98404 0
M  V30 13358 H 1313.57 -0.982292 -4.05162 0
M  V30 13359 H 1312.23 -0.126129 -3.24455 0
M  V30 13360 H 1313.24 -3.81424 -3.50337 0
M  V30 13361 H 1309.92 -1.27702 -3.9749 0
M  V30 13362 H 1311.31 -5.31643 -4.1086 0
M  V30 13363 N 1314.03 1.01274 -1.20754 0
M  V30 13364 C 1314.98 2.08285 -0.927426 0
M  V30 13365 C 1315.96 1.60494 0.114286 0
M  V30 13366 O 1317.16 1.76752 -0.0936086 0
M  V30 13367 C 1314.29 3.39849 -0.485546 0
M  V30 13368 C 1313.37 3.94331 -1.5609 0
M  V30 13369 N 1313.76 4.22274 -2.78421 0
M  V30 13370 C 1312.06 4.22522 -1.42797 0
M  V30 13371 C 1312.76 4.66262 -3.47813 0
M  V30 13372 N 1311.74 4.68771 -2.75235 0
M  V30 13373 H 1315.54 2.27804 -1.85695 0
M  V30 13374 H 1313.05 1.19278 -1.10211 0
M  V30 13375 H 1315.05 4.16049 -0.266263 0
M  V30 13376 H 1313.71 3.21742 0.437301 0
M  V30 13377 H 1314.72 4.11063 -3.15036 0
M  V30 13378 H 1311.4 4.13593 -0.569819 0
M  V30 13379 H 1312.79 4.9667 -4.52513 0
M  V30 13380 N 1315.51 1.01404 1.20644 0
M  V30 13381 C 1316.44 0.540288 2.22741 0
M  V30 13382 C 1317.45 -0.375953 1.584 0
M  V30 13383 O 1318.64 -0.174708 1.77643 0
M  V30 13384 C 1315.74 -0.233766 3.38093 0
M  V30 13385 C 1314.92 0.683759 4.32023 0
M  V30 13386 C 1313.98 -0.0422681 5.26183 0
M  V30 13387 O 1313 0.579392 5.66243 0
M  V30 13388 N 1314.2 -1.31794 5.65341 0
M  V30 13389 H 1316.97 1.41831 2.64015 0
M  V30 13390 H 1314.53 0.891265 1.35159 0
M  V30 13391 H 1316.52 -0.728645 3.98087 0
M  V30 13392 H 1315.09 -1.01306 2.9573 0
M  V30 13393 H 1314.31 1.35899 3.70034 0
M  V30 13394 H 1315.6 1.30786 4.91704 0
M  V30 13395 H 1315 -1.84399 5.34802 0
M  V30 13396 H 1313.55 -1.7576 6.27656 0
M  V30 13397 N 1316.99 -1.36373 0.789944 0
M  V30 13398 C 1317.92 -2.2873 0.146642 0
M  V30 13399 C 1318.93 -1.49503 -0.644419 0
M  V30 13400 O 1320.12 -1.71939 -0.479515 0
M  V30 13401 C 1317.22 -3.28945 -0.815369 0
M  V30 13402 C 1316.39 -4.37337 -0.0742515 0
M  V30 13403 C 1315.45 -5.17511 -0.952284 0
M  V30 13404 O 1314.48 -5.67726 -0.409336 0
M  V30 13405 N 1315.68 -5.34001 -2.27648 0
M  V30 13406 H 1318.45 -2.84578 0.939978 0
M  V30 13407 H 1316.01 -1.48545 0.643898 0
M  V30 13408 H 1318 -3.79469 -1.40661 0
M  V30 13409 H 1316.57 -2.73734 -1.50958 0
M  V30 13410 H 1315.79 -3.8797 0.698068 0
M  V30 13411 H 1317.08 -5.06919 0.437148 0
M  V30 13412 H 1316.48 -4.94819 -2.74173 0
M  V30 13413 H 1315.03 -5.87766 -2.81735 0
M  V30 13414 N 1318.47 -0.542005 -1.47987 0
M  V30 13415 C 1319.41 0.214151 -2.29804 0
M  V30 13416 C 1320.38 0.922625 -1.38119 0
M  V30 13417 O 1321.57 0.921301 -1.67083 0
M  V30 13418 C 1318.71 1.24768 -3.21756 0
M  V30 13419 C 1317.82 0.546824 -4.28525 0
M  V30 13420 C 1316.96 1.56432 -5.07644 0
M  V30 13421 C 1315.99 0.847598 -6.06203 0
M  V30 13422 N 1315.13 1.81121 -6.78336 0
M  V30 13423 H 1319.97 -0.489707 -2.93949 0
M  V30 13424 H 1317.51 -0.253331 -1.44902 0
M  V30 13425 H 1319.47 1.85933 -3.73477 0
M  V30 13426 H 1318.1 1.91976 -2.59509 0
M  V30 13427 H 1317.15 -0.179026 -3.79978 0
M  V30 13428 H 1318.46 -0.0153623 -4.98798 0
M  V30 13429 H 1317.61 2.24992 -5.63439 0
M  V30 13430 H 1316.35 2.16041 -4.37238 0
M  V30 13431 H 1315.36 0.147989 -5.49601 0
M  V30 13432 H 1316.58 0.257454 -6.78612 0
M  V30 13433 H 1314.53 2.39615 -6.10672 0
M  V30 13434 H 1314.45 1.30077 -7.44725 0
M  V30 13435 H 1315.71 2.48842 -7.38714 0
M  V30 13436 N 1319.94 1.55134 -0.277709 0
M  V30 13437 C 1321.36 1.59417 0.0763615 0
M  V30 13438 C 1321.56 1.29491 1.54384 0
M  V30 13439 O 1320.62 1.05703 2.2931 0
M  V30 13440 C 1321.93 2.99194 -0.300607 0
M  V30 13441 C 1323.48 3.1202 -0.247438 0
M  V30 13442 C 1323.95 4.54068 -0.598884 0
M  V30 13443 N 1325.44 4.59917 -0.550534 0
M  V30 13444 C 1326.18 5.67859 -0.795235 0
M  V30 13445 N 1325.67 6.83936 -1.10469 0
M  V30 13446 N 1327.47 5.5742 -0.723859 0
M  V30 13447 H 1319.62 1.72851 -1.23435 0
M  V30 13448 H 1321.88 0.806137 -0.498846 0
M  V30 13449 H 1321.59 3.25937 -1.32129 0
M  V30 13450 H 1321.46 3.75504 0.35729 0
M  V30 13451 H 1323.85 2.8504 0.763959 0
M  V30 13452 H 1323.93 2.37917 -0.939629 0
M  V30 13453 H 1323.57 4.81774 -1.60798 0
M  V30 13454 H 1323.5 5.26474 0.115126 0
M  V30 13455 H 1325.99 3.76531 -0.321341 0
M  V30 13456 H 1326.31 7.62159 -1.278 0
M  V30 13457 H 1324.65 6.85545 -1.14249 0
M  V30 13458 H 1327.84 4.65613 -0.481925 0
M  V30 13459 H 1328.02 6.41465 -0.917944 0
M  V30 13460 N 1321.42 0.00503138 1.57599 0
M  V30 13461 C 1322.33 -1.00097 2.12174 0
M  V30 13462 C 1323.35 -1.37353 1.06818 0
M  V30 13463 O 1324.52 -1.45984 1.38747 0
M  V30 13464 C 1321.59 -2.27252 2.61835 0
M  V30 13465 C 1320.65 -1.96262 3.81811 0
M  V30 13466 C 1319.88 -3.17355 4.29094 0
M  V30 13467 O 1320.11 -4.2921 3.75679 0
M  V30 13468 O 1319.04 -3.01059 5.21198 0
M  V30 13469 H 1322.87 -0.567024 2.9836 0
M  V30 13470 H 1320.45 -0.214109 1.47858 0
M  V30 13471 H 1322.33 -3.01944 2.93952 0
M  V30 13472 H 1321.01 -2.69875 1.78744 0
M  V30 13473 H 1319.91 -1.19031 3.54658 0
M  V30 13474 H 1321.25 -1.58473 4.65991 0
M  V30 13475 N 1322.9 -1.55308 -0.267798 0
M  V30 13476 C 1323.86 -1.87765 -1.31442 0
M  V30 13477 C 1324.86 -0.752571 -1.42102 0
M  V30 13478 O 1326.05 -1.02072 -1.41163 0
M  V30 13479 C 1323.18 -2.08754 -2.69508 0
M  V30 13480 H 1324.38 -2.8133 -1.03891 0
M  V30 13481 H 1321.93 -1.47879 -0.506111 0
M  V30 13482 H 1322.67 -1.17588 -3.02231 0
M  V30 13483 H 1322.45 -2.90674 -2.63156 0
M  V30 13484 H 1323.94 -2.3512 -3.4512 0
M  V30 13485 N 1324.38 0.532545 -1.4833 0
M  V30 13486 C 1325.79 1.11451 -1.49785 0
M  V30 13487 C 1326.14 1.94386 -0.266207 0
M  V30 13488 O 1325.26 2.07121 0.62688 0
M  V30 13489 C 1325.86 2.0279 -2.71407 0
M  V30 13490 C 1324.42 2.56209 -2.75742 0
M  V30 13491 C 1323.57 1.33114 -2.43261 0
M  V30 13492 H 1326.52 0.317924 -1.55483 0
M  V30 13493 H 1326.54 2.87038 -2.49779 0
M  V30 13494 H 1326.05 1.42401 -3.61031 0
M  V30 13495 H 1324.15 3.20327 -1.9032 0
M  V30 13496 H 1324.26 2.95518 -3.77102 0
M  V30 13497 H 1322.63 1.64607 -1.94362 0
M  V30 13498 H 1323.41 0.744809 -3.35123 0
M  V30 13499 N 1325.86 1.36875 0.78122 0
M  V30 13500 C 1327.08 1.349 1.57533 0
M  V30 13501 C 1327.51 -0.0655249 1.87986 0
M  V30 13502 O 1326.86 -1.03986 1.48515 0
M  V30 13503 C 1326.91 2.18562 2.86815 0
M  V30 13504 O 1326.02 1.58374 3.80777 0
M  V30 13505 H 1325.36 0.461355 0.477543 0
M  V30 13506 H 1327.89 1.80271 0.96766 0
M  V30 13507 H 1327.9 2.31436 3.36008 0
M  V30 13508 H 1326.57 3.21385 2.63978 0
M  V30 13509 H 1325.15 1.54487 3.39394 0
M  V30 13510 N 1327.33 -1.00632 1.21289 0
M  V30 13511 C 1328.75 -1.26744 0.969956 0
M  V30 13512 C 1328.95 -1.98534 -0.344449 0
M  V30 13513 O 1328.01 -2.28687 -1.07044 0
M  V30 13514 C 1329.32 -2.09238 2.15963 0
M  V30 13515 C 1330.87 -2.22469 2.20174 0
M  V30 13516 C 1331.34 -3.08344 3.38656 0
M  V30 13517 N 1332.83 -3.15932 3.38734 0
M  V30 13518 C 1333.57 -3.82632 4.2706 0
M  V30 13519 N 1333.06 -4.51371 5.25582 0
M  V30 13520 N 1334.86 -3.79259 4.14872 0
M  V30 13521 H 1327.01 -0.524626 2.05819 0
M  V30 13522 H 1329.27 -0.294231 0.901184 0
M  V30 13523 H 1328.98 -1.63835 3.11209 0
M  V30 13524 H 1328.85 -3.09987 2.14914 0
M  V30 13525 H 1331.24 -2.67091 1.25485 0
M  V30 13526 H 1331.32 -1.21194 2.25268 0
M  V30 13527 H 1330.96 -2.64425 4.33638 0
M  V30 13528 H 1330.89 -4.0973 3.30801 0
M  V30 13529 H 1333.38 -2.66998 2.67434 0
M  V30 13530 H 1333.7 -4.99966 5.89283 0
M  V30 13531 H 1332.04 -4.50162 5.29508 0
M  V30 13532 H 1335.23 -3.2471 3.37166 0
M  V30 13533 H 1335.41 -4.30963 4.83916 0
M  V30 13534 N 1328.81 -1.02043 -1.20104 0
M  V30 13535 C 1330.04 -0.731142 -1.94085 0
M  V30 13536 C 1330.46 0.702467 -1.74491 0
M  V30 13537 O 1329.82 1.48387 -1.04168 0
M  V30 13538 C 1329.87 -1.07691 -3.44144 0
M  V30 13539 O 1328.97 -0.190751 -4.11959 0
M  V30 13540 H 1328.31 -0.270917 -0.606218 0
M  V30 13541 H 1330.84 -1.36483 -1.52426 0
M  V30 13542 H 1330.85 -1.03023 -3.94779 0
M  V30 13543 H 1329.53 -2.1214 -3.57728 0
M  V30 13544 H 1328.1 -0.29529 -3.71729 0
M  V30 13545 N 1330.29 1.35952 -0.797165 0
M  V30 13546 C 1331.52 2.0381 -0.38421 0
M  V30 13547 C 1331.94 1.597 0.993854 0
M  V30 13548 O 1331.3 0.769148 1.64176 0
M  V30 13549 C 1331.35 3.57589 -0.465054 0
M  V30 13550 O 1330.45 4.09043 0.525095 0
M  V30 13551 H 1329.79 0.643957 -0.161912 0
M  V30 13552 H 1332.32 1.73746 -1.08043 0
M  V30 13553 H 1332.33 4.06651 -0.331448 0
M  V30 13554 H 1331.01 3.89045 -1.47027 0
M  V30 13555 H 1329.58 3.7123 0.352509 0
M  V30 13556 N 1331.77 0.549846 1.47697 0
M  V30 13557 C 1332.73 -0.191427 2.28399 0
M  V30 13558 C 1333.73 -0.849533 1.36527 0
M  V30 13559 O 1334.92 -0.706526 1.59229 0
M  V30 13560 C 1332.05 -1.27907 3.15995 0
M  V30 13561 H 1333.25 0.517375 2.95404 0
M  V30 13562 H 1330.8 0.30651 1.53265 0
M  V30 13563 H 1331.53 -2.0205 2.53665 0
M  V30 13564 H 1331.32 -0.812066 3.83599 0
M  V30 13565 H 1332.81 -1.79992 3.76819 0
M  V30 13566 N 1333.25 -1.54984 0.285932 0
M  V30 13567 C 1334.47 -2.04699 -0.333621 0
M  V30 13568 C 1334.9 -1.16252 -1.47875 0
M  V30 13569 O 1334.25 -0.163376 -1.80562 0
M  V30 13570 C 1334.3 -3.52022 -0.78187 0
M  V30 13571 O 1333.41 -3.66639 -1.88812 0
M  V30 13572 H 1332.75 -0.660579 -0.0673203 0
M  V30 13573 H 1335.28 -2.00171 0.423386 0
M  V30 13574 H 1335.29 -3.93591 -1.07473 0
M  V30 13575 H 1333.96 -4.15862 0.055893 0
M  V30 13576 H 1332.54 -3.36974 -1.59696 0
M  V30 13577 N 1334.72 -0.0133892 -1.57594 0
M  V30 13578 C 1335.95 0.682855 -1.95836 0
M  V30 13579 C 1336.37 1.65763 -0.889049 0
M  V30 13580 O 1335.73 1.80665 0.151585 0
M  V30 13581 C 1335.78 1.37931 -3.33178 0
M  V30 13582 O 1334.88 2.49416 -3.28429 0
M  V30 13583 H 1334.23 0.180629 -0.638959 0
M  V30 13584 H 1336.76 -0.0705644 -2.04478 0
M  V30 13585 H 1336.77 1.73969 -3.69051 0
M  V30 13586 H 1335.44 0.664675 -4.10554 0
M  V30 13587 H 1334.02 2.15606 -3.04251 0
M  V30 13588 N 1336.2 1.55448 0.259558 0
M  V30 13589 C 1337.45 1.76337 0.987396 0
M  V30 13590 C 1337.77 0.57505 1.86328 0
M  V30 13591 O 1337.04 -0.409621 1.9157 0
M  V30 13592 H 1335.62 0.650312 0.367565 0
M  V30 13593 H 1338.28 1.9287 0.280551 0
M  V30 13594 H 1337.38 2.66975 1.61651 0
M  V30 13595 N 1337.68 -0.524672 1.4861 0
M  V30 13596 C 1339.09 -1.10655 1.50374 0
M  V30 13597 C 1339.44 -1.94242 0.276512 0
M  V30 13598 O 1338.57 -2.07451 -0.615887 0
M  V30 13599 C 1339.16 -2.01348 2.72478 0
M  V30 13600 C 1337.72 -2.54743 2.77097 0
M  V30 13601 C 1336.87 -1.31822 2.43964 0
M  V30 13602 H 1339.82 -0.309674 1.55649 0
M  V30 13603 H 1339.84 -2.85709 2.51297 0
M  V30 13604 H 1339.35 -1.40485 3.61781 0
M  V30 13605 H 1337.45 -3.19313 1.92016 0
M  V30 13606 H 1337.57 -2.93514 3.78664 0
M  V30 13607 H 1335.93 -1.63574 1.95233 0
M  V30 13608 H 1336.71 -0.727026 3.35513 0
M  V30 13609 N 1339.16 -1.37287 -0.77395 0
M  V30 13610 C 1340.09 -1.28746 -1.89624 0
M  V30 13611 C 1341.1 -0.203715 -1.6152 0
M  V30 13612 O 1342.29 -0.459684 -1.72479 0
M  V30 13613 C 1339.39 -0.967342 -3.24801 0
M  V30 13614 C 1338.57 -2.1561 -3.80567 0
M  V30 13615 C 1337.62 -1.80661 -4.94215 0
M  V30 13616 O 1336.65 -2.5293 -5.09917 0
M  V30 13617 N 1337.85 -0.749424 -5.75642 0
M  V30 13618 H 1340.62 -2.25447 -1.97468 0
M  V30 13619 H 1338.18 -1.30883 -0.952956 0
M  V30 13620 H 1340.17 -0.714421 -3.98344 0
M  V30 13621 H 1338.74 -0.0889573 -3.12473 0
M  V30 13622 H 1337.96 -2.57091 -2.98828 0
M  V30 13623 H 1339.25 -2.94993 -4.14556 0
M  V30 13624 H 1338.65 -0.149673 -5.65502 0
M  V30 13625 H 1337.2 -0.556358 -6.49421 0
M  V30 13626 N 1340.64 0.999871 -1.21821 0
M  V30 13627 C 1341.89 1.73257 -1.03271 0
M  V30 13628 C 1342.2 1.90736 0.433502 0
M  V30 13629 O 1343.4 2.61263 0.738511 0
M  V30 13630 C 1341.86 3.11697 -1.79925 0
M  V30 13631 C 1341.47 3.02173 -3.3075 0
M  V30 13632 C 1343.21 3.89061 -1.698 0
M  V30 13633 C 1341.12 4.35725 -3.99872 0
M  V30 13634 H 1340.05 0.649595 -0.382809 0
M  V30 13635 H 1342.7 1.11676 -1.45605 0
M  V30 13636 H 1341.08 3.73919 -1.30386 0
M  V30 13637 H 1342.26 2.49158 -3.8763 0
M  V30 13638 H 1340.57 2.38296 -3.41473 0
M  V30 13639 H 1343.17 4.87897 -2.1877 0
M  V30 13640 H 1343.51 4.11081 -0.657148 0
M  V30 13641 H 1344.04 3.33502 -2.16844 0
M  V30 13642 H 1340.78 4.18906 -5.04181 0
M  V30 13643 H 1340.3 4.8868 -3.47781 0
M  V30 13644 H 1341.98 5.04503 -4.05075 0
M  V30 13645 N 1342.11 1.02678 1.19562 0
M  V30 13646 C 1343.04 0.626359 2.24942 0
M  V30 13647 C 1344.03 -0.363612 1.66168 0
M  V30 13648 O 1345.21 -0.246793 1.92625 0
M  V30 13649 C 1342.34 -0.0257912 3.4729 0
M  V30 13650 C 1341.29 0.886237 4.18724 0
M  V30 13651 C 1340.62 0.0993081 5.34608 0
M  V30 13652 C 1341.92 2.19901 4.73752 0
M  V30 13653 H 1343.61 1.50729 2.58691 0
M  V30 13654 H 1341.16 0.726195 1.24348 0
M  V30 13655 H 1343.11 -0.317545 4.20202 0
M  V30 13656 H 1341.84 -0.941511 3.12735 0
M  V30 13657 H 1340.5 1.16215 3.47692 0
M  V30 13658 H 1340.14 -0.81838 4.96298 0
M  V30 13659 H 1339.84 0.706776 5.83334 0
M  V30 13660 H 1341.37 -0.185754 6.10317 0
M  V30 13661 H 1342.78 1.96892 5.3843 0
M  V30 13662 H 1341.18 2.75821 5.32956 0
M  V30 13663 H 1342.25 2.85509 3.91934 0
M  V30 13664 N 1343.59 -1.35528 0.804364 0
M  V30 13665 C 1344.54 -2.29832 0.211186 0
M  V30 13666 C 1345.51 -1.52704 -0.653503 0
M  V30 13667 O 1346.69 -1.81152 -0.599052 0
M  V30 13668 C 1343.83 -3.39188 -0.636054 0
M  V30 13669 C 1342.95 -4.31283 0.248824 0
M  V30 13670 C 1342.08 -5.2773 -0.60621 0
M  V30 13671 C 1341.12 -6.11463 0.279205 0
M  V30 13672 N 1340.26 -7.00054 -0.535672 0
M  V30 13673 H 1345.1 -2.79971 1.0208 0
M  V30 13674 H 1342.64 -1.37793 0.514931 0
M  V30 13675 H 1344.59 -4.01254 -1.14241 0
M  V30 13676 H 1343.22 -2.90331 -1.41095 0
M  V30 13677 H 1342.28 -3.70241 0.873263 0
M  V30 13678 H 1343.59 -4.90046 0.930417 0
M  V30 13679 H 1342.74 -5.95158 -1.17778 0
M  V30 13680 H 1341.48 -4.69458 -1.32138 0
M  V30 13681 H 1340.49 -5.42984 0.863066 0
M  V30 13682 H 1341.71 -6.71813 0.9922 0
M  V30 13683 H 1339.66 -6.44273 -1.23486 0
M  V30 13684 H 1339.57 -7.55949 0.0879213 0
M  V30 13685 H 1340.84 -7.71833 -1.09059 0
M  V30 13686 N 1345.07 -0.557671 -1.47404 0
M  V30 13687 C 1346.31 -0.0361491 -2.04368 0
M  V30 13688 C 1346.68 1.2894 -1.42262 0
M  V30 13689 O 1347.88 1.89864 -1.90276 0
M  V30 13690 C 1346.15 0.0547287 -3.57358 0
M  V30 13691 S 1347.71 0.522307 -4.3568 0
M  V30 13692 H 1344.52 -0.0253676 -0.710547 0
M  V30 13693 H 1347.13 -0.744509 -1.80769 0
M  V30 13694 H 1345.83 -0.914374 -4.00084 0
M  V30 13695 H 1345.36 0.786629 -3.85455 0
M  V30 13696 H 1347.38 1.7819 -4.63101 0
M  V30 13697 N 1346.55 1.54831 -0.294147 0
M  V30 13698 C 1347.96 1.85627 0.199866 0
M  V30 13699 C 1348.31 1.21613 1.53964 0
M  V30 13700 O 1347.44 0.511317 2.10272 0
M  V30 13701 C 1348.03 3.3678 0.369428 0
M  V30 13702 C 1346.59 3.67633 0.807663 0
M  V30 13703 C 1345.74 2.7716 -0.0880078 0
M  V30 13704 H 1348.69 1.50099 -0.515371 0
M  V30 13705 H 1348.71 3.60913 1.20508 0
M  V30 13706 H 1348.22 3.83342 -0.605831 0
M  V30 13707 H 1346.32 3.26583 1.79372 0
M  V30 13708 H 1346.44 4.74916 0.631799 0
M  V30 13709 H 1344.8 2.51017 0.431553 0
M  V30 13710 H 1345.58 3.26542 -1.0595 0
M  V30 13711 N 1348.03 0.0217466 1.57585 0
M  V30 13712 C 1348.94 -0.978407 2.13224 0
M  V30 13713 C 1349.95 -1.36212 1.08269 0
M  V30 13714 O 1351.13 -1.44504 1.40288 0
M  V30 13715 C 1348.19 -2.24462 2.6423 0
M  V30 13716 C 1347.26 -1.92201 3.83871 0
M  V30 13717 C 1346.49 -3.12786 4.32436 0
M  V30 13718 O 1346.71 -4.25201 3.8021 0
M  V30 13719 O 1345.65 -2.95514 5.24362 0
M  V30 13720 H 1349.47 -0.535347 2.98944 0
M  V30 13721 H 1347.06 -0.198414 1.48077 0
M  V30 13722 H 1348.94 -2.98809 2.97138 0
M  V30 13723 H 1347.61 -2.67964 1.81596 0
M  V30 13724 H 1346.52 -1.15262 3.55901 0
M  V30 13725 H 1347.85 -1.53521 4.67645 0
M  V30 13726 N 1349.51 -1.55583 -0.251311 0
M  V30 13727 C 1350.47 -1.89148 -1.29443 0
M  V30 13728 C 1351.47 -0.7676 -1.41296 0
M  V30 13729 O 1352.66 -1.03563 -1.40073 0
M  V30 13730 C 1349.79 -2.11601 -2.67279 0
M  V30 13731 H 1350.98 -2.82416 -1.00901 0
M  V30 13732 H 1348.54 -1.48407 -0.490398 0
M  V30 13733 H 1349.27 -1.20787 -3.00967 0
M  V30 13734 H 1349.06 -2.93449 -2.60058 0
M  V30 13735 H 1350.55 -2.38768 -3.42607 0
M  V30 13736 N 1350.98 0.516783 -1.48886 0
M  V30 13737 C 1351.89 1.6467 -1.67095 0
M  V30 13738 C 1352.91 1.64963 -0.553466 0
M  V30 13739 O 1354.09 1.83673 -0.826206 0
M  V30 13740 C 1351.15 3.01095 -1.71879 0
M  V30 13741 C 1350.21 3.11554 -2.95352 0
M  V30 13742 C 1349.44 4.41471 -2.99898 0
M  V30 13743 O 1349.67 5.29348 -2.12477 0
M  V30 13744 O 1348.6 4.56573 -3.92205 0
M  V30 13745 H 1352.43 1.52242 -2.62785 0
M  V30 13746 H 1350.01 0.69134 -1.32442 0
M  V30 13747 H 1351.89 3.82207 -1.77471 0
M  V30 13748 H 1350.57 3.1382 -0.793656 0
M  V30 13749 H 1349.48 2.29689 -2.95286 0
M  V30 13750 H 1350.81 3.03751 -3.87294 0
M  V30 13751 N 1352.46 1.37696 0.766659 0
M  V30 13752 C 1353.7 1.34588 1.53836 0
M  V30 13753 C 1354.07 -0.0676384 1.91881 0
M  V30 13754 O 1355.27 -0.223479 2.67869 0
M  V30 13755 C 1353.54 2.26329 2.76604 0
M  V30 13756 S 1355.1 2.4112 3.66615 0
M  V30 13757 H 1351.91 0.477717 0.5266 0
M  V30 13758 H 1354.52 1.73495 0.901099 0
M  V30 13759 H 1353.22 3.27943 2.46742 0
M  V30 13760 H 1352.75 1.88525 3.45285 0
M  V30 13761 H 1354.77 1.62556 4.68818 0
M  V30 13762 N 1353.94 -0.993397 1.22349 0
M  V30 13763 C 1355.19 -1.73287 1.04775 0
M  V30 13764 C 1355.51 -1.89973 -0.417201 0
M  V30 13765 O 1354.77 -1.43966 -1.32561 0
M  V30 13766 C 1355.07 -3.14191 1.70349 0
M  V30 13767 C 1354.73 -3.17421 3.20241 0
M  V30 13768 C 1353.4 -3.1801 3.61141 0
M  V30 13769 C 1355.75 -3.13751 4.16185 0
M  V30 13770 C 1353.08 -3.12628 4.96468 0
M  V30 13771 C 1355.43 -3.09911 5.51487 0
M  V30 13772 C 1354.09 -3.08815 5.91768 0
M  V30 13773 H 1353.36 -0.634102 0.3834 0
M  V30 13774 H 1356.01 -1.16346 1.52105 0
M  V30 13775 H 1354.31 -3.74437 1.15343 0
M  V30 13776 H 1356.01 -3.70149 1.54242 0
M  V30 13777 H 1352.6 -3.17713 2.87674 0
M  V30 13778 H 1356.79 -3.12446 3.85605 0
M  V30 13779 H 1352.04 -3.10125 5.26909 0
M  V30 13780 H 1356.22 -3.06026 6.25556 0
M  V30 13781 H 1353.84 -3.044 6.96595 0
M  V30 13782 N 1355.42 -1.03311 -1.19015 0
M  V30 13783 C 1356.83 -0.750946 -1.4083 0
M  V30 13784 C 1357.03 0.662704 -1.90291 0
M  V30 13785 O 1356.09 1.42806 -2.08237 0
M  V30 13786 C 1357.4 -1.79064 -2.41571 0
M  V30 13787 C 1358.95 -1.81068 -2.55311 0
M  V30 13788 C 1359.43 -2.84008 -3.59309 0
M  V30 13789 N 1360.92 -2.82852 -3.6681 0
M  V30 13790 C 1361.65 -3.59156 -4.46984 0
M  V30 13791 N 1361.15 -4.45188 -5.30829 0
M  V30 13792 N 1362.94 -3.47679 -4.41674 0
M  V30 13793 H 1355.09 -1.94548 -0.852329 0
M  V30 13794 H 1357.35 -0.841344 -0.436858 0
M  V30 13795 H 1357.06 -2.80425 -2.12261 0
M  V30 13796 H 1356.93 -1.61646 -3.40809 0
M  V30 13797 H 1359.32 -0.803825 -2.83941 0
M  V30 13798 H 1359.4 -2.02562 -1.56212 0
M  V30 13799 H 1359.05 -3.84867 -3.3142 0
M  V30 13800 H 1358.98 -2.59771 -4.58069 0
M  V30 13801 H 1361.47 -2.20457 -3.06932 0
M  V30 13802 H 1361.78 -5.00139 -5.89135 0
M  V30 13803 H 1360.13 -4.49259 -5.30275 0
M  V30 13804 H 1363.32 -2.79876 -3.75216 0
M  V30 13805 H 1363.49 -4.07396 -5.03917 0
M  V30 13806 N 1356.9 1.35099 -0.81154 0
M  V30 13807 C 1357.83 2.32264 -0.239925 0
M  V30 13808 C 1358.81 1.57708 0.637354 0
M  V30 13809 O 1359.99 1.85751 0.566598 0
M  V30 13810 C 1357.12 3.41931 0.608325 0
M  V30 13811 C 1356.08 4.27659 -0.170869 0
M  V30 13812 C 1355.4 5.28691 0.799398 0
M  V30 13813 C 1356.7 5.0394 -1.37266 0
M  V30 13814 H 1358.4 2.8032 -1.05172 0
M  V30 13815 H 1355.94 1.34773 -0.507185 0
M  V30 13816 H 1357.89 4.08911 1.01832 0
M  V30 13817 H 1356.62 2.92496 1.45306 0
M  V30 13818 H 1355.28 3.62265 -0.562094 0
M  V30 13819 H 1354.93 4.75521 1.63977 0
M  V30 13820 H 1354.63 5.86921 0.282331 0
M  V30 13821 H 1356.15 5.98542 1.20749 0
M  V30 13822 H 1357.56 5.63838 -1.03728 0
M  V30 13823 H 1355.96 5.7169 -1.82456 0
M  V30 13824 H 1357.03 4.34295 -2.15676 0
M  V30 13825 N 1358.37 0.56548 1.47106 0
M  V30 13826 C 1359.79 0.225855 1.57994 0
M  V30 13827 C 1359.99 -1.27173 1.56299 0
M  V30 13828 O 1359.05 -2.05242 1.47078 0
M  V30 13829 C 1360.36 0.859829 2.88145 0
M  V30 13830 C 1361.91 0.831821 3.01744 0
M  V30 13831 C 1362.38 1.44502 4.34607 0
M  V30 13832 N 1363.87 1.40857 4.41263 0
M  V30 13833 C 1364.61 1.85258 5.42648 0
M  V30 13834 N 1364.1 2.37553 6.508 0
M  V30 13835 N 1365.9 1.76279 5.33744 0
M  V30 13836 H 1358.05 1.53837 1.46451 0
M  V30 13837 H 1360.31 0.642013 0.697512 0
M  V30 13838 H 1360.02 1.91264 2.95146 0
M  V30 13839 H 1359.89 0.357762 3.755 0
M  V30 13840 H 1362.28 -0.212319 2.94335 0
M  V30 13841 H 1362.36 1.37173 2.1591 0
M  V30 13842 H 1362 2.48827 4.42773 0
M  V30 13843 H 1361.93 0.880479 5.19187 0
M  V30 13844 H 1364.42 1.02614 3.63702 0
M  V30 13845 H 1364.74 2.69335 7.24347 0
M  V30 13846 H 1363.08 2.41569 6.51667 0
M  V30 13847 H 1366.27 1.35195 4.48152 0
M  V30 13848 H 1366.45 2.11199 6.12616 0
M  V30 13849 N 1359.85 -1.54672 0.302354 0
M  V30 13850 C 1361.09 -2.02076 -0.30738 0
M  V30 13851 C 1361.46 -1.18603 -1.50988 0
M  V30 13852 O 1362.66 -1.5571 -2.19107 0
M  V30 13853 C 1360.93 -3.5137 -0.65375 0
M  V30 13854 S 1362.49 -4.20733 -1.24615 0
M  V30 13855 H 1359.31 -0.704725 -0.0942521 0
M  V30 13856 H 1361.91 -1.907 0.430542 0
M  V30 13857 H 1360.61 -4.09756 0.229892 0
M  V30 13858 H 1360.14 -3.66784 -1.42243 0
M  V30 13859 H 1362.16 -4.26624 -2.5339 0
M  V30 13860 N 1361.33 -0.0301034 -1.57571 0
M  V30 13861 C 1362.24 0.967086 -2.1374 0
M  V30 13862 C 1363.26 1.35636 -1.0899 0
M  V30 13863 O 1364.43 1.43758 -1.41052 0
M  V30 13864 C 1361.5 2.23058 -2.65417 0
M  V30 13865 C 1360.56 1.90163 -3.84885 0
M  V30 13866 C 1359.79 3.10488 -4.34088 0
M  V30 13867 O 1360.01 4.23179 -3.8246 0
M  V30 13868 O 1358.95 2.92729 -5.25921 0
M  V30 13869 H 1362.77 0.519486 -2.99224 0
M  V30 13870 H 1360.36 0.190559 -1.4818 0
M  V30 13871 H 1362.24 2.97229 -2.98719 0
M  V30 13872 H 1360.92 2.66997 -1.83015 0
M  V30 13873 H 1359.82 1.13373 -3.56507 0
M  V30 13874 H 1361.16 1.51039 -4.68453 0
M  V30 13875 N 1362.81 1.55714 0.243056 0
M  V30 13876 C 1363.74 1.93655 1.30461 0
M  V30 13877 C 1364.72 0.801968 1.50008 0
M  V30 13878 O 1365.9 1.06256 1.62552 0
M  V30 13879 C 1363.03 2.23459 2.65863 0
M  V30 13880 C 1361.99 3.39205 2.61006 0
M  V30 13881 C 1361.31 3.5456 4.00239 0
M  V30 13882 C 1362.61 4.74787 2.17656 0
M  V30 13883 H 1364.31 2.82575 0.98954 0
M  V30 13884 H 1361.85 1.35955 0.474572 0
M  V30 13885 H 1363.81 2.48591 3.40266 0
M  V30 13886 H 1362.53 1.31369 2.99014 0
M  V30 13887 H 1361.19 3.14088 1.89061 0
M  V30 13888 H 1360.84 2.59884 4.30661 0
M  V30 13889 H 1360.54 4.32399 3.97876 0
M  V30 13890 H 1362.06 3.82017 4.76335 0
M  V30 13891 H 1363.48 4.99266 2.81792 0
M  V30 13892 H 1361.87 5.55756 2.26397 0
M  V30 13893 H 1362.94 4.7159 1.12831 0
M  V30 13894 N 1364.29 -0.50888 1.49158 0
M  V30 13895 C 1365.53 -1.261 1.57934 0
M  V30 13896 C 1365.86 -1.93199 0.264405 0
M  V30 13897 O 1365.13 -1.82359 -0.715684 0
M  V30 13898 H 1363.71 -0.468421 0.581886 0
M  V30 13899 H 1366.37 -0.590447 1.85741 0
M  V30 13900 H 1365.46 -2.02913 2.37135 0
M  V30 13901 N 1365.76 -1.381 -0.759346 0
M  V30 13902 C 1367.18 -1.30379 -1.33635 0
M  V30 13903 C 1367.53 0.0430279 -1.96153 0
M  V30 13904 O 1366.65 0.945029 -1.94675 0
M  V30 13905 C 1367.25 -2.3611 -2.42976 0
M  V30 13906 C 1365.81 -2.31985 -2.96412 0
M  V30 13907 C 1364.95 -2.19281 -1.69739 0
M  V30 13908 H 1367.9 -1.48542 -0.558656 0
M  V30 13909 H 1367.92 -2.01493 -3.22771 0
M  V30 13910 H 1367.44 -3.34122 -1.97445 0
M  V30 13911 H 1365.54 -1.37536 -3.46287 0
M  V30 13912 H 1365.65 -3.25895 -3.51183 0
M  V30 13913 H 1364.01 -1.66035 -1.93144 0
M  V30 13914 H 1364.8 -3.19225 -1.26293 0
M  V30 13915 N 1367.24 0.986894 -1.22875 0
M  V30 13916 C 1368.17 2.09628 -1.0285 0
M  V30 13917 C 1369.15 1.70019 0.0525118 0
M  V30 13918 O 1370.34 1.93883 -0.110874 0
M  V30 13919 C 1367.47 3.41866 -0.61194 0
M  V30 13920 C 1366.42 3.95351 -1.63956 0
M  V30 13921 C 1365.75 5.23707 -1.07865 0
M  V30 13922 C 1367.05 4.25354 -3.03102 0
M  V30 13923 H 1368.74 2.26639 -1.95641 0
M  V30 13924 H 1366.29 1.0891 -0.942048 0
M  V30 13925 H 1368.24 4.18893 -0.458936 0
M  V30 13926 H 1366.97 3.24701 0.35164 0
M  V30 13927 H 1365.62 3.20462 -1.78045 0
M  V30 13928 H 1365.27 5.02888 -0.106246 0
M  V30 13929 H 1364.97 5.60459 -1.76522 0
M  V30 13930 H 1366.5 6.03362 -0.937359 0
M  V30 13931 H 1367.91 4.93156 -2.92353 0
M  V30 13932 H 1366.31 4.73292 -3.68938 0
M  V30 13933 H 1367.38 3.32887 -3.52583 0
M  V30 13934 N 1368.72 1.0394 1.18466 0
M  V30 13935 C 1369.67 0.59975 2.1997 0
M  V30 13936 C 1370.65 -0.357127 1.56887 0
M  V30 13937 O 1371.85 -0.176388 1.76119 0
M  V30 13938 C 1368.98 -0.0371434 3.4328 0
M  V30 13939 C 1368.06 0.942805 4.13488 0
M  V30 13940 N 1368.45 2.10936 4.59717 0
M  V30 13941 C 1366.75 0.768529 4.39329 0
M  V30 13942 C 1367.45 2.72829 5.1375 0
M  V30 13943 N 1366.43 2.00713 5.05188 0
M  V30 13944 H 1370.23 1.48875 2.53403 0
M  V30 13945 H 1367.74 0.907817 1.34657 0
M  V30 13946 H 1369.74 -0.369803 4.15257 0
M  V30 13947 H 1368.4 -0.921701 3.11343 0
M  V30 13948 H 1369.41 2.48831 4.54207 0
M  V30 13949 H 1366.09 -0.0660446 4.17448 0
M  V30 13950 H 1367.48 3.71684 5.59733 0
M  V30 13951 N 1370.2 -1.34667 0.818693 0
M  V30 13952 C 1371.13 -2.28368 0.195126 0
M  V30 13953 C 1372.14 -1.50836 -0.612562 0
M  V30 13954 O 1373.33 -1.72917 -0.442936 0
M  V30 13955 C 1370.43 -3.30601 -0.745411 0
M  V30 13956 C 1369.61 -4.37396 0.0185308 0
M  V30 13957 C 1368.66 -5.19415 -0.842298 0
M  V30 13958 O 1367.69 -5.68467 -0.288821 0
M  V30 13959 N 1368.89 -5.38709 -2.1627 0
M  V30 13960 H 1371.66 -2.8252 1.00013 0
M  V30 13961 H 1369.22 -1.47146 0.675262 0
M  V30 13962 H 1371.21 -3.82367 -1.3258 0
M  V30 13963 H 1369.78 -2.76875 -1.45118 0
M  V30 13964 H 1369 -3.86402 0.780205 0
M  V30 13965 H 1370.29 -5.05877 0.544575 0
M  V30 13966 H 1369.69 -5.00523 -2.63616 0
M  V30 13967 H 1368.24 -5.9361 -2.69204 0
M  V30 13968 N 1371.68 -0.573274 -1.46804 0
M  V30 13969 C 1372.61 0.20305 -2.28299 0
M  V30 13970 C 1373.62 0.864367 -1.37958 0
M  V30 13971 O 1374.81 0.735516 -1.62642 0
M  V30 13972 C 1371.91 1.30633 -3.12711 0
M  V30 13973 C 1371.08 0.738741 -4.31116 0
M  V30 13974 C 1370.14 1.72853 -4.96999 0
M  V30 13975 O 1369.17 1.2683 -5.5489 0
M  V30 13976 N 1370.37 3.06239 -4.93151 0
M  V30 13977 H 1373.14 -0.496086 -2.95566 0
M  V30 13978 H 1370.7 -0.410411 -1.56612 0
M  V30 13979 H 1372.69 1.96755 -3.53652 0
M  V30 13980 H 1371.26 1.90846 -2.47581 0
M  V30 13981 H 1370.48 -0.0996941 -3.94074 0
M  V30 13982 H 1371.77 0.339154 -5.07668 0
M  V30 13983 H 1371.16 3.46262 -4.47347 0
M  V30 13984 H 1369.72 3.67876 -5.38062 0
M  V30 13985 N 1373.15 1.5451 -0.310553 0
M  V30 13986 C 1374.06 2.27557 0.570518 0
M  V30 13987 C 1375.08 1.31426 1.14032 0
M  V30 13988 O 1376.26 1.64423 1.16306 0
M  V30 13989 C 1373.32 3.00933 1.72163 0
M  V30 13990 C 1372.38 4.12623 1.18495 0
M  V30 13991 C 1371.62 4.8249 2.28121 0
M  V30 13992 O 1371.84 4.5178 3.48211 0
M  V30 13993 O 1370.77 5.69686 1.94273 0
M  V30 13994 H 1374.6 3.03692 -0.0223195 0
M  V30 13995 H 1372.18 1.49203 -0.0766821 0
M  V30 13996 H 1374.07 3.46925 2.39208 0
M  V30 13997 H 1372.74 2.27685 2.3009 0
M  V30 13998 H 1371.65 3.71008 0.479956 0
M  V30 13999 H 1372.98 4.87876 0.650994 0
M  V30 14000 N 1374.63 0.0384594 1.57553 0
M  V30 14001 C 1375.86 -0.651613 1.96898 0
M  V30 14002 C 1376.28 -1.64328 0.915308 0
M  V30 14003 O 1375.64 -1.80883 -0.122824 0
M  V30 14004 C 1375.69 -1.32613 3.3533 0
M  V30 14005 O 1374.79 -2.44159 3.32355 0
M  V30 14006 H 1374.13 -0.170441 0.641752 0
M  V30 14007 H 1376.66 0.103086 2.0434 0
M  V30 14008 H 1376.67 -1.68076 3.71772 0
M  V30 14009 H 1375.35 -0.599275 4.1156 0
M  V30 14010 H 1373.93 -2.10738 3.07642 0
M  V30 14011 N 1376.11 -1.55841 -0.234795 0
M  V30 14012 C 1377.04 -1.87793 -1.31402 0
M  V30 14013 C 1378.06 -0.765113 -1.43701 0
M  V30 14014 O 1379.25 -1.04332 -1.44834 0
M  V30 14015 C 1376.35 -2.05976 -2.69123 0
M  V30 14016 C 1375.52 -3.36914 -2.7894 0
M  V30 14017 C 1374.58 -3.44691 -3.97586 0
M  V30 14018 O 1373.6 -4.17818 -3.86545 0
M  V30 14019 N 1374.81 -2.74866 -5.11301 0
M  V30 14020 H 1377.57 -2.80957 -1.04324 0
M  V30 14021 H 1375.13 -1.56226 -0.424872 0
M  V30 14022 H 1377.12 -2.08507 -3.46853 0
M  V30 14023 H 1375.69 -1.195 -2.88857 0
M  V30 14024 H 1374.91 -3.46595 -1.87791 0
M  V30 14025 H 1376.2 -4.23196 -2.82458 0
M  V30 14026 H 1375.6 -2.15208 -5.23165 0
M  V30 14027 H 1374.16 -2.83075 -5.87122 0
M  V30 14028 N 1377.59 0.500963 -1.49426 0
M  V30 14029 C 1378.81 1.28383 -1.62888 0
M  V30 14030 C 1379.24 1.85688 -0.300262 0
M  V30 14031 O 1378.6 1.6586 0.73212 0
M  V30 14032 C 1378.65 2.38987 -2.70033 0
M  V30 14033 O 1377.75 3.42837 -2.29208 0
M  V30 14034 H 1377.09 0.379012 -0.545202 0
M  V30 14035 H 1379.62 0.59971 -1.95613 0
M  V30 14036 H 1379.63 2.84749 -2.92202 0
M  V30 14037 H 1378.31 1.96643 -3.66475 0
M  V30 14038 H 1376.88 3.02993 -2.1737 0
M  V30 14039 N 1379.07 1.38501 0.752011 0
M  V30 14040 C 1380 1.38577 1.87933 0
M  V30 14041 C 1380.98 0.251454 1.68231 0
M  V30 14042 O 1382.16 0.45477 1.888 0
M  V30 14043 C 1379.29 1.21164 3.25479 0
M  V30 14044 C 1378.25 2.31816 3.59785 0
M  V30 14045 C 1377.57 1.99508 4.96085 0
M  V30 14046 C 1378.87 3.74082 3.645 0
M  V30 14047 H 1380.57 2.32913 1.88127 0
M  V30 14048 H 1378.11 1.12113 0.903698 0
M  V30 14049 H 1380.07 1.19842 4.04 0
M  V30 14050 H 1378.79 0.232899 3.25769 0
M  V30 14051 H 1377.45 2.32327 2.83584 0
M  V30 14052 H 1377.1 1.00114 4.92936 0
M  V30 14053 H 1376.8 2.73617 5.20007 0
M  V30 14054 H 1378.32 1.99807 5.76983 0
M  V30 14055 H 1379.74 3.75593 4.33131 0
M  V30 14056 H 1378.13 4.47409 3.99931 0
M  V30 14057 H 1379.2 4.06284 2.64692 0
M  V30 14058 N 1380.55 -0.980364 1.23396 0
M  V30 14059 C 1381.48 -2.07522 0.972991 0
M  V30 14060 C 1382.49 -1.62714 -0.0530191 0
M  V30 14061 O 1383.68 -1.77564 0.182513 0
M  V30 14062 C 1380.78 -3.35977 0.444126 0
M  V30 14063 C 1379.95 -4.09756 1.53031 0
M  V30 14064 C 1379.01 -5.16488 1.00631 0
M  V30 14065 O 1378.04 -5.43368 1.69529 0
M  V30 14066 N 1379.24 -5.80263 -0.165842 0
M  V30 14067 H 1382 -2.30487 1.91561 0
M  V30 14068 H 1379.57 -1.14706 1.14255 0
M  V30 14069 H 1381.56 -4.04624 0.078617 0
M  V30 14070 H 1380.13 -3.0998 -0.403912 0
M  V30 14071 H 1379.35 -3.35564 2.06858 0
M  V30 14072 H 1380.64 -4.55815 2.26076 0
M  V30 14073 H 1380.03 -5.60811 -0.742162 0
M  V30 14074 H 1378.59 -6.50084 -0.472614 0
M  V30 14075 N 1382.02 -1.04567 -1.17913 0
M  V30 14076 C 1382.95 -0.662066 -2.23917 0
M  V30 14077 C 1383.93 0.33713 -1.66726 0
M  V30 14078 O 1385.12 0.216116 -1.92994 0
M  V30 14079 C 1382.25 -0.029463 -3.47288 0
M  V30 14080 C 1381.2 -0.95274 -4.17261 0
M  V30 14081 C 1380.53 -0.184347 -5.34382 0
M  V30 14082 C 1381.83 -2.2741 -4.70194 0
M  V30 14083 H 1383.52 -1.54826 -2.5626 0
M  V30 14084 H 1381.07 -0.745886 -1.23177 0
M  V30 14085 H 1383.02 0.250654 -4.20654 0
M  V30 14086 H 1381.75 0.891638 -3.14193 0
M  V30 14087 H 1380.41 -1.21732 -3.45799 0
M  V30 14088 H 1380.05 0.73932 -4.97537 0
M  V30 14089 H 1379.75 -0.79949 -5.82136 0
M  V30 14090 H 1381.28 0.0886344 -6.10536 0
M  V30 14091 H 1382.69 -2.05433 -5.35229 0
M  V30 14092 H 1381.09 -2.84265 -5.28501 0
M  V30 14093 H 1382.16 -2.91708 -3.87342 0
M  V30 14094 N 1383.5 1.34231 -0.825823 0
M  V30 14095 C 1384.45 2.26916 -0.222038 0
M  V30 14096 C 1385.44 1.48667 0.615382 0
M  V30 14097 O 1386.63 1.7066 0.469487 0
M  V30 14098 C 1383.76 3.37787 0.612785 0
M  V30 14099 C 1382.84 4.23446 -0.235423 0
M  V30 14100 N 1383.23 4.88599 -1.30784 0
M  V30 14101 C 1381.53 4.45995 -0.0202477 0
M  V30 14102 C 1382.23 5.52254 -1.82729 0
M  V30 14103 N 1381.21 5.3171 -1.13074 0
M  V30 14104 H 1385.01 2.74796 -1.04232 0
M  V30 14105 H 1382.52 1.47983 -0.668928 0
M  V30 14106 H 1384.52 4.03159 1.06153 0
M  V30 14107 H 1383.18 2.91457 1.43119 0
M  V30 14108 H 1384.19 4.89528 -1.69066 0
M  V30 14109 H 1380.87 4.10417 0.765761 0
M  V30 14110 H 1382.26 6.14177 -2.72464 0
M  V30 14111 N 1384.98 0.581051 1.46498 0
M  V30 14112 C 1386.23 0.0659956 2.02392 0
M  V30 14113 C 1386.55 -1.29329 1.45273 0
M  V30 14114 O 1385.81 -1.86047 0.607041 0
M  V30 14115 C 1386.11 -0.0514774 3.57363 0
M  V30 14116 C 1385.77 1.24 4.33514 0
M  V30 14117 C 1384.44 1.59383 4.54038 0
M  V30 14118 C 1386.79 2.09473 4.77253 0
M  V30 14119 C 1384.12 2.8004 5.15552 0
M  V30 14120 C 1386.47 3.29355 5.401 0
M  V30 14121 C 1385.13 3.65022 5.58852 0
M  V30 14122 H 1384.4 0.0241495 0.740606 0
M  V30 14123 H 1387.05 0.757354 1.75887 0
M  V30 14124 H 1385.35 -0.825955 3.82995 0
M  V30 14125 H 1387.05 -0.465726 3.98286 0
M  V30 14126 H 1383.64 0.954547 4.17835 0
M  V30 14127 H 1387.83 1.83441 4.61154 0
M  V30 14128 H 1383.08 3.07814 5.28262 0
M  V30 14129 H 1387.26 3.95855 5.7295 0
M  V30 14130 H 1384.88 4.58607 6.06287 0
M  V30 14131 N 1386.46 -1.54343 0.318742 0
M  V30 14132 C 1387.87 -1.59564 -0.034068 0
M  V30 14133 C 1388.07 -1.33539 -1.50896 0
M  V30 14134 O 1387.13 -1.11746 -2.26427 0
M  V30 14135 C 1388.44 -2.98291 0.379827 0
M  V30 14136 C 1389.99 -3.11255 0.330078 0
M  V30 14137 C 1390.47 -4.5232 0.719061 0
M  V30 14138 N 1391.96 -4.58295 0.67228 0
M  V30 14139 C 1392.69 -5.65551 0.945513 0
M  V30 14140 N 1392.19 -6.80767 1.28563 0
M  V30 14141 N 1393.98 -5.55305 0.871394 0
M  V30 14142 H 1386.13 -1.69518 1.27975 0
M  V30 14143 H 1388.39 -0.792627 0.520044 0
M  V30 14144 H 1388.1 -3.22319 1.40724 0
M  V30 14145 H 1387.97 -3.76319 -0.257606 0
M  V30 14146 H 1390.36 -2.86965 -0.688117 0
M  V30 14147 H 1390.44 -2.35342 1.00238 0
M  V30 14148 H 1390.09 -4.77342 1.73515 0
M  V30 14149 H 1390.02 -5.26594 0.0245001 0
M  V30 14150 H 1392.51 -3.75547 0.421059 0
M  V30 14151 H 1392.82 -7.58503 1.47963 0
M  V30 14152 H 1391.17 -6.82275 1.32385 0
M  V30 14153 H 1394.36 -4.64171 0.605205 0
M  V30 14154 H 1394.53 -6.38806 1.08769 0
M  V30 14155 N 1387.94 -0.0468143 -1.5753 0
M  V30 14156 C 1389.18 0.628869 -1.92803 0
M  V30 14157 C 1389.51 1.70751 -0.925083 0
M  V30 14158 O 1388.79 1.94437 0.0495821 0
M  V30 14159 C 1389.07 1.22899 -3.38479 0
M  V30 14160 C 1388.93 0.158707 -4.4952 0
M  V30 14161 C 1390.24 2.1419 -3.84461 0
M  V30 14162 H 1387.36 0.227137 -0.701126 0
M  V30 14163 H 1390.01 -0.107689 -1.89695 0
M  V30 14164 H 1388.16 1.85674 -3.41259 0
M  V30 14165 H 1389.83 -0.472963 -4.58869 0
M  V30 14166 H 1388.07 -0.51375 -4.30747 0
M  V30 14167 H 1388.74 0.618545 -5.48523 0
M  V30 14168 H 1391.22 1.61382 -3.8353 0
M  V30 14169 H 1390.09 2.53125 -4.87051 0
M  V30 14170 H 1390.35 3.04024 -3.2097 0
M  V30 14171 N 1389.41 1.55964 0.226527 0
M  V30 14172 C 1390.66 1.79921 0.94869 0
M  V30 14173 C 1391.02 0.619018 1.8217 0
M  V30 14174 O 1390.31 -0.387105 1.87649 0
M  V30 14175 C 1390.5 3.07235 1.82597 0
M  V30 14176 C 1390.33 4.37524 1.03937 0
M  V30 14177 C 1389.1 4.99907 0.736294 0
M  V30 14178 C 1391.3 5.12686 0.407078 0
M  V30 14179 N 1389.28 6.13858 -0.0722247 0
M  V30 14180 C 1390.65 6.19433 -0.265063 0
M  V30 14181 C 1392.71 4.96873 0.319605 0
M  V30 14182 C 1391.41 7.12084 -1.0163 0
M  V30 14183 C 1393.44 5.8992 -0.418156 0
M  V30 14184 C 1392.8 6.96089 -1.07886 0
M  V30 14185 H 1388.9 0.710081 0.327581 0
M  V30 14186 H 1391.48 1.93453 0.219997 0
M  V30 14187 H 1389.65 2.94994 2.52652 0
M  V30 14188 H 1391.38 3.19403 2.48523 0
M  V30 14189 H 1388.14 4.61743 1.0531 0
M  V30 14190 H 1388.56 6.754 -0.465173 0
M  V30 14191 H 1393.21 4.1485 0.816071 0
M  V30 14192 H 1390.92 7.93593 -1.52431 0
M  V30 14193 H 1394.51 5.7976 -0.486776 0
M  V30 14194 H 1393.39 7.66847 -1.64061 0
M  V30 14195 N 1390.89 -0.493031 1.4969 0
M  V30 14196 C 1391.86 -1.57598 1.6642 0
M  V30 14197 C 1392.86 -1.51615 0.535668 0
M  V30 14198 O 1394.05 -1.54626 0.802283 0
M  V30 14199 C 1391.18 -2.97249 1.66901 0
M  V30 14200 H 1392.37 -1.4409 2.63017 0
M  V30 14201 H 1389.92 -0.717846 1.3884 0
M  V30 14202 H 1390.66 -3.16225 0.719164 0
M  V30 14203 H 1390.44 -3.02999 2.48865 0
M  V30 14204 H 1391.93 -3.75914 1.81874 0
M  V30 14205 N 1392.37 -1.38898 -0.744656 0
M  V30 14206 C 1393.32 -1.36845 -1.85855 0
M  V30 14207 C 1394.29 -0.2296 -1.64505 0
M  V30 14208 O 1395.47 -0.423221 -1.86047 0
M  V30 14209 C 1392.61 -1.20818 -3.2326 0
M  V30 14210 C 1391.73 -2.44166 -3.5638 0
M  V30 14211 C 1390.86 -2.20801 -4.83136 0
M  V30 14212 C 1389.9 -3.39874 -5.0907 0
M  V30 14213 N 1389.04 -3.15888 -6.27024 0
M  V30 14214 H 1393.88 -2.32068 -1.86945 0
M  V30 14215 H 1391.41 -1.15289 -0.913611 0
M  V30 14216 H 1393.37 -1.0954 -4.02563 0
M  V30 14217 H 1392 -0.292295 -3.21474 0
M  V30 14218 H 1391.05 -2.66083 -2.71852 0
M  V30 14219 H 1392.37 -3.32885 -3.71469 0
M  V30 14220 H 1391.52 -2.0671 -5.704 0
M  V30 14221 H 1390.26 -1.29462 -4.70203 0
M  V30 14222 H 1389.26 -3.54474 -4.20271 0
M  V30 14223 H 1390.49 -4.32102 -5.23894 0
M  V30 14224 H 1388.43 -2.27204 -6.15398 0
M  V30 14225 H 1388.35 -3.9816 -6.42655 0
M  V30 14226 H 1389.62 -3.0547 -7.17153 0
M  V30 14227 N 1393.85 0.973806 -1.23914 0
M  V30 14228 C 1395.08 1.75107 -1.10206 0
M  V30 14229 C 1395.49 1.85604 0.345935 0
M  V30 14230 O 1394.85 1.33996 1.239 0
M  V30 14231 C 1394.9 3.17466 -1.72909 0
M  V30 14232 O 1394.62 3.07504 -3.12047 0
M  V30 14233 C 1396.12 4.11557 -1.6473 0
M  V30 14234 H 1393.34 0.549318 -0.385345 0
M  V30 14235 H 1395.89 1.22301 -1.63898 0
M  V30 14236 H 1394.04 3.67277 -1.23234 0
M  V30 14237 H 1394.45 3.97169 -3.42575 0
M  V30 14238 H 1395.93 5.09126 -2.13295 0
M  V30 14239 H 1396.41 4.3498 -0.607352 0
M  V30 14240 H 1397.01 3.67653 -2.13802 0
M  V30 14241 N 1395.33 1.05191 1.17357 0
M  V30 14242 C 1396.57 0.761984 1.87617 0
M  V30 14243 C 1396.9 -0.710976 1.8104 0
M  V30 14244 O 1396.16 -1.53566 1.21309 0
M  V30 14245 C 1396.46 1.18779 3.37085 0
M  V30 14246 C 1396.12 2.66296 3.63864 0
M  V30 14247 C 1394.78 3.06594 3.70882 0
M  V30 14248 C 1397.14 3.61622 3.75339 0
M  V30 14249 C 1394.46 4.41081 3.86865 0
M  V30 14250 C 1396.82 4.95842 3.9284 0
M  V30 14251 C 1395.48 5.35793 3.98097 0
M  V30 14252 H 1394.75 0.27883 0.686538 0
M  V30 14253 H 1397.4 1.31899 1.38834 0
M  V30 14254 H 1395.7 0.549782 3.87923 0
M  V30 14255 H 1397.4 0.940667 3.89811 0
M  V30 14256 H 1393.99 2.34089 3.59027 0
M  V30 14257 H 1398.17 3.31628 3.69238 0
M  V30 14258 H 1393.43 4.71536 3.89183 0
M  V30 14259 H 1397.6 5.696 4.00661 0
M  V30 14260 H 1395.23 6.40009 4.10234 0
M  V30 14261 N 1396.8 -1.33791 0.83293 0
M  V30 14262 C 1397.73 -2.31853 0.276846 0
M  V30 14263 C 1398.72 -1.58702 -0.612184 0
M  V30 14264 O 1399.9 -1.86629 -0.536975 0
M  V30 14265 C 1397.03 -3.42855 -0.55385 0
M  V30 14266 C 1395.98 -4.27333 0.238884 0
M  V30 14267 C 1395.31 -5.29895 -0.715187 0
M  V30 14268 C 1396.61 -5.01692 1.45265 0
M  V30 14269 H 1398.3 -2.78611 1.09618 0
M  V30 14270 H 1395.85 -1.33949 0.528562 0
M  V30 14271 H 1397.8 -4.10479 -0.953133 0
M  V30 14272 H 1396.53 -2.94771 -1.40634 0
M  V30 14273 H 1395.19 -3.61325 0.619656 0
M  V30 14274 H 1394.83 -4.7807 -1.56391 0
M  V30 14275 H 1394.53 -5.87296 -0.188921 0
M  V30 14276 H 1396.06 -6.00387 -1.11211 0
M  V30 14277 H 1397.47 -5.62117 1.12685 0
M  V30 14278 H 1395.87 -5.68715 1.91528 0
M  V30 14279 H 1396.94 -4.30809 2.22558 0
M  V30 14280 N 1398.28 -0.588812 -1.46187 0
M  V30 14281 C 1399.21 0.178825 -2.28501 0
M  V30 14282 C 1400.23 0.849686 -1.38867 0
M  V30 14283 O 1401.42 0.718224 -1.63413 0
M  V30 14284 C 1398.52 1.27309 -3.14079 0
M  V30 14285 C 1397.69 0.692974 -4.31876 0
M  V30 14286 C 1396.75 1.67572 -4.98805 0
M  V30 14287 O 1395.77 1.20937 -5.56204 0
M  V30 14288 N 1396.98 3.00992 -4.96371 0
M  V30 14289 H 1399.74 -0.527407 -2.95023 0
M  V30 14290 H 1397.3 -0.426998 -1.56168 0
M  V30 14291 H 1399.29 1.92993 -3.55719 0
M  V30 14292 H 1397.86 1.88209 -2.49592 0
M  V30 14293 H 1397.08 -0.141485 -3.93946 0
M  V30 14294 H 1398.37 0.28529 -5.08 0
M  V30 14295 H 1397.77 3.41498 -4.50994 0
M  V30 14296 H 1396.33 3.62149 -5.41933 0
M  V30 14297 N 1399.76 1.54172 -0.326923 0
M  V30 14298 C 1401.18 1.59579 0.0256055 0
M  V30 14299 C 1401.38 1.34337 1.50186 0
M  V30 14300 O 1400.43 1.12945 2.25831 0
M  V30 14301 C 1401.75 2.98086 -0.395641 0
M  V30 14302 C 1403.29 3.11075 -0.346579 0
M  V30 14303 C 1403.77 4.51932 -0.743039 0
M  V30 14304 N 1405.26 4.57932 -0.696575 0
M  V30 14305 C 1405.99 5.65041 -0.975493 0
M  V30 14306 N 1405.49 6.80075 -1.32172 0
M  V30 14307 N 1407.28 5.54835 -0.900831 0
M  V30 14308 H 1399.43 1.68836 -1.28872 0
M  V30 14309 H 1401.7 0.789858 -0.52424 0
M  V30 14310 H 1401.4 3.21568 -1.42431 0
M  V30 14311 H 1401.28 3.76451 0.237645 0
M  V30 14312 H 1403.66 2.87326 0.672889 0
M  V30 14313 H 1403.75 2.34807 -1.01484 0
M  V30 14314 H 1403.39 4.76415 -1.76044 0
M  V30 14315 H 1403.32 5.26574 -0.0524263 0
M  V30 14316 H 1405.81 3.75318 -0.440969 0
M  V30 14317 H 1406.12 7.57708 -1.51983 0
M  V30 14318 H 1404.47 6.81563 -1.36001 0
M  V30 14319 H 1407.66 4.63844 -0.629812 0
M  V30 14320 H 1407.83 6.3822 -1.12156 0
M  V30 14321 N 1401.24 0.0551678 1.57503 0
M  V30 14322 C 1402.15 -0.932959 2.15251 0
M  V30 14323 C 1403.16 -1.33885 1.11134 0
M  V30 14324 O 1404.34 -1.41495 1.43321 0
M  V30 14325 C 1401.41 -2.18807 2.68932 0
M  V30 14326 C 1400.47 -1.84016 3.87862 0
M  V30 14327 C 1399.7 -3.03543 4.38973 0
M  V30 14328 O 1399.92 -4.17041 3.89144 0
M  V30 14329 O 1398.86 -2.84325 5.30512 0
M  V30 14330 H 1402.68 -0.471816 3.00013 0
M  V30 14331 H 1400.27 -0.16696 1.48464 0
M  V30 14332 H 1402.15 -2.92439 3.0341 0
M  V30 14333 H 1400.82 -2.64051 1.87239 0
M  V30 14334 H 1399.73 -1.07687 3.58266 0
M  V30 14335 H 1401.06 -1.43567 4.70796 0
M  V30 14336 N 1402.72 -1.56081 -0.218252 0
M  V30 14337 C 1403.67 -1.89082 -1.27405 0
M  V30 14338 C 1404.65 -0.754204 -1.42129 0
M  V30 14339 O 1405.84 -1.01668 -1.44888 0
M  V30 14340 C 1402.97 -2.21387 -2.62379 0
M  V30 14341 C 1402.06 -3.41448 -2.51543 0
M  V30 14342 N 1402.45 -4.5998 -2.10362 0
M  V30 14343 C 1400.75 -3.45128 -2.82494 0
M  V30 14344 C 1401.45 -5.42139 -2.10857 0
M  V30 14345 N 1400.42 -4.81936 -2.51472 0
M  V30 14346 H 1404.23 -2.78238 -0.946609 0
M  V30 14347 H 1401.74 -1.56691 -0.426801 0
M  V30 14348 H 1403.74 -2.43205 -3.38611 0
M  V30 14349 H 1402.4 -1.33545 -2.95966 0
M  V30 14350 H 1403.41 -4.85077 -1.8144 0
M  V30 14351 H 1400.08 -2.67638 -3.20431 0
M  V30 14352 H 1401.47 -6.47029 -1.81114 0
M  V30 14353 N 1404.2 0.485086 -1.49949 0
M  V30 14354 C 1405.13 1.60191 -1.63926 0
M  V30 14355 C 1406.14 1.5423 -0.521256 0
M  V30 14356 O 1407.33 1.59872 -0.79392 0
M  V30 14357 C 1404.43 2.99035 -1.59472 0
M  V30 14358 C 1403.6 3.30014 -2.87071 0
M  V30 14359 C 1402.66 4.48345 -2.75451 0
M  V30 14360 O 1401.69 4.49342 -3.494 0
M  V30 14361 N 1402.89 5.49192 -1.88064 0
M  V30 14362 H 1405.65 1.48622 -2.60253 0
M  V30 14363 H 1403.22 0.673258 -1.47237 0
M  V30 14364 H 1405.21 3.76142 -1.4933 0
M  V30 14365 H 1403.78 3.04445 -0.709373 0
M  V30 14366 H 1403 2.41652 -3.11445 0
M  V30 14367 H 1404.29 3.47515 -3.71632 0
M  V30 14368 H 1403.68 5.51198 -1.2727 0
M  V30 14369 H 1402.24 6.25338 -1.83835 0
M  V30 14370 N 1405.67 1.39291 0.737279 0
M  V30 14371 C 1407.08 1.32489 1.31543 0
M  V30 14372 C 1407.44 -0.0118162 1.96196 0
M  V30 14373 O 1406.56 -0.913938 1.96153 0
M  V30 14374 C 1407.16 2.39946 2.39189 0
M  V30 14375 C 1405.71 2.36671 2.92684 0
M  V30 14376 C 1404.86 2.21953 1.66229 0
M  V30 14377 H 1407.81 1.49412 0.534954 0
M  V30 14378 H 1407.83 2.06603 3.19524 0
M  V30 14379 H 1407.35 3.3722 1.92104 0
M  V30 14380 H 1405.45 1.43028 3.44055 0
M  V30 14381 H 1405.56 3.31441 3.45953 0
M  V30 14382 H 1403.92 1.69087 1.90478 0
M  V30 14383 H 1404.71 3.21194 1.21199 0
M  V30 14384 N 1407.15 -0.967221 1.24429 0
M  V30 14385 C 1408.4 -1.71026 1.08427 0
M  V30 14386 C 1408.73 -1.90815 -0.376812 0
M  V30 14387 O 1407.98 -1.46745 -1.29477 0
M  V30 14388 C 1408.28 -3.10507 1.76975 0
M  V30 14389 C 1407.95 -3.10557 3.26902 0
M  V30 14390 C 1406.61 -3.10278 3.67806 0
M  V30 14391 C 1408.96 -3.04852 4.22746 0
M  V30 14392 C 1406.29 -3.02027 5.02988 0
M  V30 14393 C 1408.64 -2.98143 5.57937 0
M  V30 14394 C 1407.3 -2.96193 5.98185 0
M  V30 14395 H 1406.57 -0.625827 0.396764 0
M  V30 14396 H 1409.22 -1.13094 1.54538 0
M  V30 14397 H 1407.53 -3.71906 1.2326 0
M  V30 14398 H 1409.22 -3.66794 1.62058 0
M  V30 14399 H 1405.81 -3.11539 2.94349 0
M  V30 14400 H 1410 -3.04197 3.92145 0
M  V30 14401 H 1405.25 -2.98878 5.33368 0
M  V30 14402 H 1409.43 -2.92688 6.31907 0
M  V30 14403 H 1407.05 -2.89555 7.02895 0
M  V30 14404 N 1408.63 -1.05812 -1.16797 0
M  V30 14405 C 1409.85 -0.792518 -1.91661 0
M  V30 14406 C 1410.28 0.646598 -1.76637 0
M  V30 14407 O 1409.64 1.44998 -1.08836 0
M  V30 14408 C 1409.69 -1.18585 -3.40544 0
M  V30 14409 O 1408.79 -0.321716 -4.11143 0
M  V30 14410 H 1408.13 -0.290066 -0.597292 0
M  V30 14411 H 1410.66 -1.41263 -1.48007 0
M  V30 14412 H 1410.67 -1.1553 -3.91301 0
M  V30 14413 H 1409.35 -2.23413 -3.50798 0
M  V30 14414 H 1407.92 -0.413403 -3.70601 0
M  V30 14415 N 1410.11 1.33347 -0.840014 0
M  V30 14416 C 1411.04 2.31703 -0.289138 0
M  V30 14417 C 1412.02 1.59024 0.603759 0
M  V30 14418 O 1413.2 1.86911 0.527071 0
M  V30 14419 C 1410.33 3.43144 0.53566 0
M  V30 14420 C 1409.29 4.272 -0.261544 0
M  V30 14421 C 1408.61 5.30267 0.687075 0
M  V30 14422 C 1409.91 5.00915 -1.47924 0
M  V30 14423 H 1411.61 2.78026 -1.11094 0
M  V30 14424 H 1409.15 1.33666 -0.535658 0
M  V30 14425 H 1411.11 4.10979 0.931351 0
M  V30 14426 H 1409.83 2.95512 1.39069 0
M  V30 14427 H 1408.49 3.60991 -0.638809 0
M  V30 14428 H 1408.14 4.78893 1.53853 0
M  V30 14429 H 1407.84 5.87388 0.157773 0
M  V30 14430 H 1409.36 6.00968 1.08026 0
M  V30 14431 H 1410.78 5.61511 -1.15664 0
M  V30 14432 H 1409.17 5.67692 -1.94541 0
M  V30 14433 H 1410.24 4.29622 -2.24839 0
M  V30 14434 N 1411.59 0.596556 1.45873 0
M  V30 14435 C 1412.52 -0.166704 2.28593 0
M  V30 14436 C 1413.53 -0.84231 1.39316 0
M  V30 14437 O 1414.72 -0.709548 1.63792 0
M  V30 14438 C 1411.82 -1.25641 3.1475 0
M  V30 14439 C 1410.99 -0.67006 4.32237 0
M  V30 14440 C 1410.05 -1.64924 4.99686 0
M  V30 14441 O 1409.08 -1.17986 5.56838 0
M  V30 14442 N 1410.28 -2.98355 4.9796 0
M  V30 14443 H 1413.04 0.543045 2.94739 0
M  V30 14444 H 1410.61 0.435274 1.55939 0
M  V30 14445 H 1412.6 -1.91104 3.56737 0
M  V30 14446 H 1411.17 -1.86883 2.50586 0
M  V30 14447 H 1410.39 0.162375 3.93865 0
M  V30 14448 H 1411.68 -0.258345 5.08144 0
M  V30 14449 H 1411.07 -3.39101 4.52799 0
M  V30 14450 H 1409.63 -3.5927 5.43846 0
M  V30 14451 N 1413.06 -1.53996 0.335095 0
M  V30 14452 C 1414.3 -2.02682 -0.264447 0
M  V30 14453 C 1414.67 -1.21779 -1.48438 0
M  V30 14454 O 1415.87 -1.60322 -2.15755 0
M  V30 14455 C 1414.14 -3.52678 -0.579072 0
M  V30 14456 S 1415.7 -4.23282 -1.15663 0
M  V30 14457 H 1412.52 -0.706566 -0.0792826 0
M  V30 14458 H 1415.12 -1.89744 0.470895 0
M  V30 14459 H 1413.82 -4.09176 0.316756 0
M  V30 14460 H 1413.35 -3.69719 -1.34431 0
M  V30 14461 H 1415.37 -4.31903 -2.44284 0
M  V30 14462 N 1414.54 -0.0635198 -1.57472 0
M  V30 14463 C 1415.45 0.921531 -2.15743 0
M  V30 14464 C 1416.47 1.33294 -1.11842 0
M  V30 14465 O 1417.64 1.40733 -1.4407 0
M  V30 14466 C 1414.71 2.17378 -2.70088 0
M  V30 14467 C 1413.77 1.81956 -3.88832 0
M  V30 14468 C 1413 3.01211 -4.40577 0
M  V30 14469 O 1413.23 4.14971 -3.9135 0
M  V30 14470 O 1412.16 2.81507 -5.32012 0
M  V30 14471 H 1415.99 0.455899 -3.00259 0
M  V30 14472 H 1413.57 0.159085 -1.48551 0
M  V30 14473 H 1415.45 2.90826 -3.04956 0
M  V30 14474 H 1414.13 2.63055 -1.88637 0
M  V30 14475 H 1413.03 1.05786 -3.58832 0
M  V30 14476 H 1414.37 1.41069 -4.71551 0
M  V30 14477 N 1416.02 1.56195 0.209972 0
M  V30 14478 C 1416.98 1.92514 1.24383 0
M  V30 14479 C 1417.98 0.804793 1.39211 0
M  V30 14480 O 1419.17 1.0724 1.37278 0
M  V30 14481 C 1416.3 2.18613 2.61574 0
M  V30 14482 H 1417.5 2.84992 0.933781 0
M  V30 14483 H 1415.05 1.49656 0.450878 0
M  V30 14484 H 1415.79 1.28724 2.97659 0
M  V30 14485 H 1415.57 3.00241 2.52186 0
M  V30 14486 H 1417.06 2.47767 3.36156 0
M  V30 14487 N 1417.5 -0.477127 1.50204 0
M  V30 14488 C 1418.74 -1.23147 1.6113 0
M  V30 14489 C 1419.08 -1.91743 0.307909 0
M  V30 14490 O 1418.35 -1.81841 -0.690223 0
M  V30 14491 C 1418.63 -2.27985 2.78738 0
M  V30 14492 C 1418.49 -1.63733 4.18941 0
M  V30 14493 C 1419.81 -3.29349 2.9192 0
M  V30 14494 H 1416.93 -0.446358 0.586459 0
M  V30 14495 H 1419.57 -0.52612 1.8257 0
M  V30 14496 H 1417.72 -2.88143 2.60588 0
M  V30 14497 H 1419.39 -1.07218 4.48667 0
M  V30 14498 H 1417.63 -0.940634 4.23479 0
M  V30 14499 H 1418.3 -2.39888 4.9715 0
M  V30 14500 H 1420.78 -2.79208 3.08516 0
M  V30 14501 H 1419.66 -4.0004 3.75845 0
M  V30 14502 H 1419.92 -3.93111 2.02278 0
M  V30 14503 N 1418.98 -1.3968 -0.729882 0
M  V30 14504 C 1420.21 -1.40263 -1.5169 0
M  V30 14505 C 1420.61 0.00325293 -1.892 0
M  V30 14506 O 1419.96 0.986225 -1.54982 0
M  V30 14507 C 1420.02 -2.21629 -2.83056 0
M  V30 14508 C 1419.68 -3.70204 -2.67951 0
M  V30 14509 C 1420.68 -4.63169 -2.36158 0
M  V30 14510 C 1418.37 -4.13851 -2.84662 0
M  V30 14511 C 1420.36 -5.97763 -2.21265 0
M  V30 14512 C 1418.05 -5.4852 -2.69387 0
M  V30 14513 C 1419.04 -6.4029 -2.37734 0
M  V30 14514 O 1418.73 -7.72478 -2.22561 0
M  V30 14515 H 1418.46 -0.480808 -0.475184 0
M  V30 14516 H 1421.02 -1.84184 -0.909136 0
M  V30 14517 H 1419.25 -1.72465 -3.46111 0
M  V30 14518 H 1420.94 -2.14328 -3.447 0
M  V30 14519 H 1421.7 -4.30748 -2.22893 0
M  V30 14520 H 1417.58 -3.42751 -3.0829 0
M  V30 14521 H 1421.13 -6.69359 -1.96481 0
M  V30 14522 H 1417.02 -5.8053 -2.82232 0
M  V30 14523 H 1417.79 -7.83258 -2.37591 0
M  V30 14524 N 1420.45 0.960609 -1.2494 0
M  V30 14525 C 1421.4 2.05634 -1.04801 0
M  V30 14526 C 1422.37 1.66049 0.0409611 0
M  V30 14527 O 1423.56 1.90453 -0.115053 0
M  V30 14528 C 1420.7 3.38604 -0.666444 0
M  V30 14529 C 1419.81 3.91341 -1.82964 0
M  V30 14530 C 1418.94 5.1261 -1.39299 0
M  V30 14531 C 1417.98 5.57562 -2.52569 0
M  V30 14532 N 1417.12 6.70046 -2.09722 0
M  V30 14533 H 1421.96 2.22194 -1.9858 0
M  V30 14534 H 1419.5 1.08892 -0.988981 0
M  V30 14535 H 1421.46 4.15017 -0.426205 0
M  V30 14536 H 1420.09 3.21948 0.23435 0
M  V30 14537 H 1419.14 3.11502 -2.18335 0
M  V30 14538 H 1420.45 4.20656 -2.68049 0
M  V30 14539 H 1419.6 5.96421 -1.11205 0
M  V30 14540 H 1418.34 4.84997 -0.512779 0
M  V30 14541 H 1417.35 4.72319 -2.81415 0
M  V30 14542 H 1418.57 5.87186 -3.41159 0
M  V30 14543 H 1416.52 6.44153 -1.24109 0
M  V30 14544 H 1416.44 6.98846 -2.88357 0
M  V30 14545 H 1417.7 7.57281 -1.84787 0
M  V30 14546 N 1421.93 1.0643 1.16234 0
M  V30 14547 C 1422.9 0.680383 2.18869 0
M  V30 14548 C 1423.9 -0.274591 1.58438 0
M  V30 14549 O 1425.09 -0.0567907 1.74107 0
M  V30 14550 C 1422.22 0.00134091 3.409 0
M  V30 14551 H 1423.41 1.58894 2.54347 0
M  V30 14552 H 1420.96 0.859688 1.30534 0
M  V30 14553 H 1421.7 -0.919903 3.1098 0
M  V30 14554 H 1421.48 0.688057 3.86016 0
M  V30 14555 H 1422.97 -0.252938 4.16833 0
M  V30 14556 N 1423.41 -1.329 0.847073 0
M  V30 14557 C 1424.34 -2.31546 0.301422 0
M  V30 14558 C 1425.32 -1.59342 -0.595317 0
M  V30 14559 O 1426.51 -1.87188 -0.517151 0
M  V30 14560 C 1423.64 -3.43423 -0.517454 0
M  V30 14561 C 1422.59 -4.27055 0.284195 0
M  V30 14562 C 1421.92 -5.30624 -0.658944 0
M  V30 14563 C 1423.22 -5.00123 1.50578 0
M  V30 14564 H 1424.91 -2.77433 1.12567 0
M  V30 14565 H 1422.46 -1.3338 0.542739 0
M  V30 14566 H 1424.41 -4.11467 -0.909543 0
M  V30 14567 H 1423.13 -2.96246 -1.37499 0
M  V30 14568 H 1421.79 -3.60648 0.657944 0
M  V30 14569 H 1421.44 -4.79702 -1.51311 0
M  V30 14570 H 1421.14 -5.87464 -0.12662 0
M  V30 14571 H 1422.66 -6.01533 -1.04837 0
M  V30 14572 H 1424.08 -5.6089 1.18641 0
M  V30 14573 H 1422.48 -5.66652 1.97549 0
M  V30 14574 H 1423.55 -4.28424 2.27115 0
M  V30 14575 N 1424.89 -0.604284 -1.45555 0
M  V30 14576 C 1425.84 0.116491 -2.30506 0
M  V30 14577 C 1426.81 0.863214 -1.41908 0
M  V30 14578 O 1427.99 0.849606 -1.7084 0
M  V30 14579 C 1425.13 1.11009 -3.26758 0
M  V30 14580 C 1424.24 0.36458 -4.30459 0
M  V30 14581 C 1423.38 1.34761 -5.13822 0
M  V30 14582 C 1422.42 0.589724 -6.09253 0
M  V30 14583 N 1421.55 1.52187 -6.85408 0
M  V30 14584 H 1426.39 -0.61394 -2.91607 0
M  V30 14585 H 1423.93 -0.314561 -1.43697 0
M  V30 14586 H 1425.89 1.69925 -3.81027 0
M  V30 14587 H 1424.52 1.80797 -2.67418 0
M  V30 14588 H 1423.57 -0.340026 -3.78877 0
M  V30 14589 H 1424.88 -0.226906 -4.98284 0
M  V30 14590 H 1424.04 2.00893 -5.72474 0
M  V30 14591 H 1422.78 1.97302 -4.46008 0
M  V30 14592 H 1421.78 -0.0852486 -5.49734 0
M  V30 14593 H 1423.01 -0.0306001 -6.79093 0
M  V30 14594 H 1420.95 2.13499 -6.20286 0
M  V30 14595 H 1420.87 0.983737 -7.49572 0
M  V30 14596 H 1422.14 2.17287 -7.48603 0
M  V30 14597 N 1426.37 1.53816 -0.343257 0
M  V30 14598 C 1427.3 2.21306 0.556696 0
M  V30 14599 C 1428.28 1.19697 1.10051 0
M  V30 14600 O 1429.46 1.48515 1.16084 0
M  V30 14601 C 1426.59 2.89026 1.76583 0
M  V30 14602 C 1425.63 4.04521 1.35149 0
M  V30 14603 S 1426.47 5.3421 0.37154 0
M  V30 14604 C 1427.62 6.05433 1.58751 0
M  V30 14605 H 1427.86 2.97295 -0.0165367 0
M  V30 14606 H 1425.39 1.53874 -0.127331 0
M  V30 14607 H 1427.35 3.28662 2.45951 0
M  V30 14608 H 1426.01 2.12803 2.31028 0
M  V30 14609 H 1425.2 4.50839 2.25301 0
M  V30 14610 H 1424.8 3.66661 0.737296 0
M  V30 14611 H 1427.1 6.28808 2.52203 0
M  V30 14612 H 1428.04 6.98432 1.16613 0
M  V30 14613 H 1428.45 5.35588 1.78343 0
M  V30 14614 N 1427.84 0.0718701 1.57436 0
M  V30 14615 C 1429.26 -0.460784 1.80924 0
M  V30 14616 C 1429.61 -1.69637 0.985781 0
M  V30 14617 O 1428.73 -2.15395 0.208319 0
M  V30 14618 C 1429.33 -0.842738 3.28151 0
M  V30 14619 C 1427.89 -1.32026 3.52486 0
M  V30 14620 C 1427.03 -0.305466 2.75612 0
M  V30 14621 H 1429.98 0.297566 1.55885 0
M  V30 14622 H 1430 -1.70414 3.40205 0
M  V30 14623 H 1429.52 0.056733 3.88059 0
M  V30 14624 H 1427.62 -2.23822 2.97883 0
M  V30 14625 H 1427.73 -1.29813 4.61178 0
M  V30 14626 H 1426.09 -0.782758 2.42374 0
M  V30 14627 H 1426.88 0.586279 3.38257 0
M  V30 14628 N 1429.32 -1.56304 -0.201686 0
M  V30 14629 C 1430.55 -1.84074 -0.938103 0
M  V30 14630 C 1430.96 -0.651377 -1.77634 0
M  V30 14631 O 1430.3 0.389278 -1.79528 0
M  V30 14632 C 1430.37 -3.05856 -1.88924 0
M  V30 14633 C 1430.03 -4.40036 -1.2336 0
M  V30 14634 C 1431.03 -5.16265 -0.613737 0
M  V30 14635 C 1428.71 -4.86768 -1.23942 0
M  V30 14636 C 1430.71 -6.37399 -0.00844569 0
M  V30 14637 C 1428.39 -6.07841 -0.630296 0
M  V30 14638 C 1429.39 -6.82998 -0.0158799 0
M  V30 14639 O 1429.08 -8.01778 0.58372 0
M  V30 14640 H 1428.81 -0.615492 -0.279545 0
M  V30 14641 H 1431.36 -2.04262 -0.215938 0
M  V30 14642 H 1429.59 -2.81536 -2.65093 0
M  V30 14643 H 1431.28 -3.20328 -2.49289 0
M  V30 14644 H 1432.05 -4.81257 -0.601424 0
M  V30 14645 H 1427.93 -4.2823 -1.70705 0
M  V30 14646 H 1431.47 -6.96003 0.47174 0
M  V30 14647 H 1427.37 -6.42319 -0.640089 0
M  V30 14648 H 1428.14 -8.17091 0.479979 0
M  V30 14649 N 1430.8 0.469154 -1.50455 0
M  V30 14650 C 1432.22 0.803067 -1.37924 0
M  V30 14651 C 1432.42 1.96708 -0.436837 0
M  V30 14652 O 1431.47 2.52216 0.119823 0
M  V30 14653 C 1432.79 1.11332 -2.79331 0
M  V30 14654 C 1434.33 1.21965 -2.88259 0
M  V30 14655 C 1434.81 1.56302 -4.30504 0
M  V30 14656 N 1436.3 1.6329 -4.33464 0
M  V30 14657 C 1437.03 1.91367 -5.40524 0
M  V30 14658 N 1436.53 2.17451 -6.57789 0
M  V30 14659 N 1438.32 1.92885 -5.2797 0
M  V30 14660 H 1430.47 -0.297928 -2.103 0
M  V30 14661 H 1432.74 -0.0707794 -0.945354 0
M  V30 14662 H 1432.44 0.331052 -3.50138 0
M  V30 14663 H 1432.32 2.04903 -3.16693 0
M  V30 14664 H 1434.7 1.99259 -2.17669 0
M  V30 14665 H 1434.79 0.263692 -2.54437 0
M  V30 14666 H 1434.43 0.795479 -5.01632 0
M  V30 14667 H 1434.36 2.53052 -4.61814 0
M  V30 14668 H 1436.85 1.45164 -3.48907 0
M  V30 14669 H 1437.16 2.38154 -7.35189 0
M  V30 14670 H 1435.51 2.14839 -6.60961 0
M  V30 14671 H 1438.7 1.72005 -4.35353 0
M  V30 14672 H 1438.87 2.1443 -6.11493 0
M  V30 14673 N 1432.28 1.40065 0.722464 0
M  V30 14674 C 1433.53 1.37277 1.47776 0
M  V30 14675 C 1433.84 -0.0242852 1.95585 0
M  V30 14676 O 1435.05 -0.174769 2.70937 0
M  V30 14677 C 1433.5 2.41233 2.67085 0
M  V30 14678 C 1433.11 3.86716 2.26174 0
M  V30 14679 C 1434.85 2.47541 3.44853 0
M  V30 14680 C 1432.76 4.82284 3.42281 0
M  V30 14681 H 1431.69 0.510405 0.55498 0
M  V30 14682 H 1434.34 1.6577 0.786928 0
M  V30 14683 H 1432.72 2.0583 3.38305 0
M  V30 14684 H 1433.9 4.31227 1.6242 0
M  V30 14685 H 1432.21 3.83819 1.61468 0
M  V30 14686 H 1434.81 3.16131 4.31237 0
M  V30 14687 H 1435.15 1.50379 3.8819 0
M  V30 14688 H 1435.69 2.81901 2.80672 0
M  V30 14689 H 1432.43 5.80754 3.03982 0
M  V30 14690 H 1431.95 4.42443 4.04975 0
M  V30 14691 H 1433.62 5.0178 4.08443 0
M  V30 14692 N 1433.76 -0.95397 1.25448 0
M  V30 14693 C 1434.69 -2.06828 1.08372 0
M  V30 14694 C 1435.67 -1.70098 -0.00741585 0
M  V30 14695 O 1436.85 -1.93521 0.16224 0
M  V30 14696 C 1433.98 -3.40124 0.702365 0
M  V30 14697 C 1432.94 -3.90865 1.74381 0
M  V30 14698 C 1432.26 -5.20663 1.21712 0
M  V30 14699 C 1433.56 -4.17169 3.14273 0
M  V30 14700 H 1435.26 -2.21372 2.01581 0
M  V30 14701 H 1432.8 -1.06374 0.970592 0
M  V30 14702 H 1434.76 -4.17529 0.569837 0
M  V30 14703 H 1433.48 -3.2552 -0.265428 0
M  V30 14704 H 1432.14 -3.15628 1.86479 0
M  V30 14705 H 1431.79 -5.02429 0.23954 0
M  V30 14706 H 1431.49 -5.55581 1.91319 0
M  V30 14707 H 1433.01 -6.00665 1.097 0
M  V30 14708 H 1434.43 -4.85231 3.05325 0
M  V30 14709 H 1432.82 -4.63344 3.81356 0
M  V30 14710 H 1433.89 -3.23421 3.61285 0
M  V30 14711 N 1435.24 -1.07045 -1.15668 0
M  V30 14712 C 1436.65 -0.814932 -1.67975 0
M  V30 14713 C 1437 0.660408 -1.84751 0
M  V30 14714 O 1436.12 1.51156 -1.54857 0
M  V30 14715 C 1436.72 -1.47274 -3.05116 0
M  V30 14716 C 1435.28 -1.26481 -3.54513 0
M  V30 14717 C 1434.42 -1.54439 -2.30312 0
M  V30 14718 H 1437.37 -1.23291 -0.999251 0
M  V30 14719 H 1437.4 -0.892244 -3.69891 0
M  V30 14720 H 1436.91 -2.54649 -2.92874 0
M  V30 14721 H 1435.01 -0.211138 -3.72001 0
M  V30 14722 H 1435.12 -1.98283 -4.36143 0
M  V30 14723 H 1433.49 -0.965269 -2.357 0
M  V30 14724 H 1434.27 -2.6299 -2.20661 0
M  V30 14725 N 1436.71 1.32449 -0.85411 0
M  V30 14726 C 1438.13 1.50046 -0.543895 0
M  V30 14727 C 1438.33 1.78985 0.925561 0
M  V30 14728 O 1437.39 1.85909 1.70862 0
M  V30 14729 C 1438.7 2.64499 -1.43041 0
M  V30 14730 C 1440.25 2.78384 -1.43078 0
M  V30 14731 C 1440.72 3.95915 -2.3025 0
M  V30 14732 N 1442.21 4.03176 -2.28043 0
M  V30 14733 C 1442.95 4.9335 -2.92221 0
M  V30 14734 N 1442.44 5.88536 -3.6551 0
M  V30 14735 N 1444.24 4.86468 -2.81612 0
M  V30 14736 H 1436.39 1.11931 -1.80514 0
M  V30 14737 H 1438.65 0.551626 -0.770982 0
M  V30 14738 H 1438.36 2.49842 -2.47532 0
M  V30 14739 H 1438.23 3.60269 -1.11742 0
M  V30 14740 H 1440.62 2.92464 -0.393529 0
M  V30 14741 H 1440.7 1.83329 -1.78393 0
M  V30 14742 H 1440.34 3.82594 -3.34043 0
M  V30 14743 H 1440.27 4.90245 -1.92268 0
M  V30 14744 H 1442.76 3.35064 -1.74759 0
M  V30 14745 H 1443.08 6.54038 -4.11648 0
M  V30 14746 H 1441.42 5.88564 -3.69618 0
M  V30 14747 H 1444.61 4.11076 -2.23907 0
M  V30 14748 H 1444.79 5.56542 -3.3191 0
M  V30 14749 N 1438.19 0.611994 1.45232 0
M  V30 14750 C 1439.12 -0.142449 2.28757 0
M  V30 14751 C 1440.14 -0.827486 1.40202 0
M  V30 14752 O 1441.33 -0.692136 1.64535 0
M  V30 14753 C 1438.43 -1.22296 3.16065 0
M  V30 14754 C 1437.6 -0.624178 4.32924 0
M  V30 14755 C 1436.66 -1.59615 5.01408 0
M  V30 14756 O 1435.68 -1.12073 5.58058 0
M  V30 14757 N 1436.89 -2.93057 5.01097 0
M  V30 14758 H 1439.65 0.574276 2.94147 0
M  V30 14759 H 1437.21 0.451789 1.55469 0
M  V30 14760 H 1439.2 -1.87309 3.58744 0
M  V30 14761 H 1437.77 -1.84215 2.52554 0
M  V30 14762 H 1436.99 0.204141 3.93671 0
M  V30 14763 H 1438.28 -0.204435 5.08389 0
M  V30 14764 H 1437.68 -3.3428 4.5637 0
M  V30 14765 H 1436.24 -3.53481 5.47626 0
M  V30 14766 N 1439.67 -1.53632 0.351409 0
M  V30 14767 C 1440.6 -2.28217 -0.49391 0
M  V30 14768 C 1441.58 -1.30085 -1.09599 0
M  V30 14769 O 1442.77 -1.58938 -1.1159 0
M  V30 14770 C 1439.9 -3.06085 -1.64102 0
M  V30 14771 C 1438.85 -4.11786 -1.16689 0
M  V30 14772 C 1438.18 -4.77654 -2.40314 0
M  V30 14773 C 1439.48 -5.21644 -0.261742 0
M  V30 14774 H 1441.17 -2.99125 0.1283 0
M  V30 14775 H 1438.72 -1.43861 0.0631462 0
M  V30 14776 H 1440.67 -3.57003 -2.2389 0
M  V30 14777 H 1439.39 -2.32842 -2.29025 0
M  V30 14778 H 1438.05 -3.61792 -0.591784 0
M  V30 14779 H 1437.7 -4.00997 -3.03661 0
M  V30 14780 H 1437.4 -5.49072 -2.09268 0
M  V30 14781 H 1438.92 -5.3136 -3.00813 0
M  V30 14782 H 1440.34 -5.6815 -0.766689 0
M  V30 14783 H 1438.73 -6.00085 -0.0428132 0
M  V30 14784 H 1439.8 -4.79821 0.699999 0
M  V30 14785 N 1441.15 -0.0802183 -1.57396 0
M  V30 14786 C 1442.56 0.451183 -1.81166 0
M  V30 14787 C 1442.91 1.69112 -0.994764 0
M  V30 14788 O 1442.03 2.15281 -0.219739 0
M  V30 14789 C 1442.63 0.825324 -3.28594 0
M  V30 14790 C 1441.19 1.30154 -3.53181 0
M  V30 14791 C 1440.34 0.290846 -2.75771 0
M  V30 14792 H 1443.29 -0.305829 -1.55725 0
M  V30 14793 H 1443.31 1.68608 -3.41104 0
M  V30 14794 H 1442.82 -0.0773119 -3.88023 0
M  V30 14795 H 1440.92 2.22239 -2.99066 0
M  V30 14796 H 1441.03 1.27365 -4.6186 0
M  V30 14797 H 1439.4 0.769894 -2.42785 0
M  V30 14798 H 1440.18 -0.604209 -3.37941 0
M  V30 14799 N 1442.63 1.56409 0.193394 0
M  V30 14800 C 1443.56 1.91211 1.26377 0
M  V30 14801 C 1444.57 0.802944 1.41622 0
M  V30 14802 O 1445.76 1.08136 1.42017 0
M  V30 14803 C 1442.86 2.13039 2.63567 0
M  V30 14804 C 1442.03 3.44192 2.69909 0
M  V30 14805 C 1441.09 3.55111 3.88307 0
M  V30 14806 O 1440.12 4.2792 3.75331 0
M  V30 14807 N 1441.32 2.88325 5.03834 0
M  V30 14808 H 1444.08 2.83624 0.968383 0
M  V30 14809 H 1441.65 1.57297 0.383302 0
M  V30 14810 H 1443.64 2.1763 3.41202 0
M  V30 14811 H 1442.21 1.27116 2.85588 0
M  V30 14812 H 1441.43 3.51452 1.78535 0
M  V30 14813 H 1442.72 4.30536 2.71139 0
M  V30 14814 H 1442.11 2.29003 5.17276 0
M  V30 14815 H 1440.67 2.98542 5.7941 0
M  V30 14816 N 1444.1 -0.461169 1.50702 0
M  V30 14817 C 1445.05 -1.5579 1.70288 0
M  V30 14818 C 1446.02 -1.5693 0.544251 0
M  V30 14819 O 1447.21 -1.74308 0.77597 0
M  V30 14820 C 1444.35 -2.93694 1.81212 0
M  V30 14821 C 1443.46 -3.02267 3.0864 0
M  V30 14822 C 1442.59 -4.31147 3.103 0
M  V30 14823 C 1441.63 -4.33498 4.32141 0
M  V30 14824 N 1440.77 -5.53864 4.31484 0
M  V30 14825 H 1445.61 -1.38393 2.63915 0
M  V30 14826 H 1443.15 -0.6727 1.30817 0
M  V30 14827 H 1445.1 -3.73679 1.85526 0
M  V30 14828 H 1443.73 -3.09703 0.91015 0
M  V30 14829 H 1442.79 -2.15093 3.1375 0
M  V30 14830 H 1444.1 -2.99864 3.98601 0
M  V30 14831 H 1443.25 -5.19487 3.13398 0
M  V30 14832 H 1441.99 -4.36172 2.18186 0
M  V30 14833 H 1441 -3.43554 4.29245 0
M  V30 14834 H 1442.22 -4.30156 5.25493 0
M  V30 14835 H 1440.17 -5.59657 3.42229 0
M  V30 14836 H 1440.08 -5.53244 5.15225 0
M  V30 14837 H 1441.35 -6.44302 4.38742 0
M  V30 14838 N 1445.58 -1.40446 -0.715026 0
M  V30 14839 C 1446.49 -1.43074 -1.85922 0
M  V30 14840 C 1447.51 -0.323294 -1.7097 0
M  V30 14841 O 1448.68 -0.567966 -1.93226 0
M  V30 14842 C 1445.75 -1.29206 -3.21725 0
M  V30 14843 C 1444.81 -2.50097 -3.48927 0
M  V30 14844 C 1444.04 -2.36881 -4.7825 0
M  V30 14845 O 1444.27 -1.38292 -5.53382 0
M  V30 14846 O 1443.2 -3.26266 -5.058 0
M  V30 14847 H 1447.03 -2.39565 -1.86661 0
M  V30 14848 H 1444.61 -1.21775 -0.865522 0
M  V30 14849 H 1446.49 -1.23681 -4.02841 0
M  V30 14850 H 1445.17 -0.358207 -3.21712 0
M  V30 14851 H 1444.07 -2.61199 -2.67817 0
M  V30 14852 H 1445.41 -3.42244 -3.53737 0
M  V30 14853 N 1447.06 0.947303 -1.25952 0
M  V30 14854 C 1448.48 1.21972 -1.02932 0
M  V30 14855 C 1448.68 1.99951 0.249333 0
M  V30 14856 O 1447.73 2.33534 0.960108 0
M  V30 14857 C 1449.04 1.98695 -2.257 0
M  V30 14858 C 1450.59 2.11711 -2.30538 0
M  V30 14859 C 1451.07 2.91835 -3.52982 0
M  V30 14860 N 1452.56 2.99411 -3.53422 0
M  V30 14861 C 1453.29 3.6182 -4.4483 0
M  V30 14862 N 1452.79 4.25781 -5.46519 0
M  V30 14863 N 1454.58 3.59033 -4.32495 0
M  V30 14864 H 1446.73 0.42583 -2.08088 0
M  V30 14865 H 1449 0.250899 -0.914196 0
M  V30 14866 H 1448.7 1.48801 -3.18671 0
M  V30 14867 H 1448.58 2.9938 -2.29459 0
M  V30 14868 H 1450.96 2.608 -1.38085 0
M  V30 14869 H 1451.04 1.10308 -2.30794 0
M  V30 14870 H 1450.69 2.43435 -4.4576 0
M  V30 14871 H 1450.62 3.9348 -3.49973 0
M  V30 14872 H 1453.11 2.53934 -2.79868 0
M  V30 14873 H 1453.42 4.71281 -6.12466 0
M  V30 14874 H 1451.77 4.24386 -5.50383 0
M  V30 14875 H 1454.96 3.08254 -3.52274 0
M  V30 14876 H 1455.13 4.07384 -5.03927 0
M  V30 14877 N 1448.54 1.07657 1.15099 0
M  V30 14878 C 1449.47 0.657598 2.19564 0
M  V30 14879 C 1450.48 -0.29146 1.6017 0
M  V30 14880 O 1451.67 -0.0802981 1.78319 0
M  V30 14881 C 1448.77 -0.0542221 3.38857 0
M  V30 14882 C 1447.95 0.911803 4.27791 0
M  V30 14883 C 1447 0.236709 5.25667 0
M  V30 14884 O 1446.03 0.878731 5.62376 0
M  V30 14885 N 1447.23 -1.01641 5.71532 0
M  V30 14886 H 1450 1.55626 2.56126 0
M  V30 14887 H 1447.56 0.961657 1.30245 0
M  V30 14888 H 1449.55 -0.516603 4.01389 0
M  V30 14889 H 1448.12 -0.854871 3.00684 0
M  V30 14890 H 1447.34 1.55322 3.6231 0
M  V30 14891 H 1448.63 1.56667 4.8408 0
M  V30 14892 H 1448.03 -1.55791 5.43825 0
M  V30 14893 H 1446.58 -1.42242 6.3609 0
M  V30 14894 N 1450.02 -1.31994 0.861122 0
M  V30 14895 C 1451.26 -1.97317 0.468371 0
M  V30 14896 C 1451.6 -1.67954 -0.974941 0
M  V30 14897 O 1450.87 -0.971243 -1.68514 0
M  V30 14898 C 1451.15 -3.52918 0.715607 0
M  V30 14899 C 1451.01 -3.91888 2.20781 0
M  V30 14900 C 1452.33 -4.39747 0.17624 0
M  V30 14901 H 1449.44 -0.716733 0.171646 0
M  V30 14902 H 1452.09 -1.56269 1.08074 0
M  V30 14903 H 1450.24 -3.88013 0.194387 0
M  V30 14904 H 1451.91 -3.66938 2.7956 0
M  V30 14905 H 1450.15 -3.40813 2.68382 0
M  V30 14906 H 1450.82 -5.00346 2.33147 0
M  V30 14907 H 1453.3 -4.11424 0.622043 0
M  V30 14908 H 1452.17 -5.47592 0.378748 0
M  V30 14909 H 1452.44 -4.32393 -0.921358 0
M  V30 14910 N 1451.49 -0.619688 -1.44906 0
M  V30 14911 C 1452.46 0.0822364 -2.29052 0
M  V30 14912 C 1453.46 0.783427 -1.40425 0
M  V30 14913 O 1454.65 0.629751 -1.62419 0
M  V30 14914 C 1451.78 1.12685 -3.21737 0
M  V30 14915 H 1452.97 -0.657726 -2.92599 0
M  V30 14916 H 1450.53 -0.379286 -1.51628 0
M  V30 14917 H 1451.26 1.89717 -2.63017 0
M  V30 14918 H 1451.05 0.628122 -3.87036 0
M  V30 14919 H 1452.54 1.61808 -3.84978 0
M  V30 14920 N 1452.97 1.53444 -0.359552 0
M  V30 14921 C 1454.2 2.05584 0.232953 0
M  V30 14922 C 1454.62 1.23347 1.42937 0
M  V30 14923 O 1453.97 0.272662 1.80452 0
M  V30 14924 C 1454.02 3.55926 0.632359 0
M  V30 14925 O 1453.74 4.35045 -0.516494 0
M  V30 14926 C 1455.25 4.24301 1.28389 0
M  V30 14927 H 1452.47 0.669676 0.042132 0
M  V30 14928 H 1455.01 1.97878 -0.516176 0
M  V30 14929 H 1453.16 3.63802 1.33141 0
M  V30 14930 H 1453.58 5.24138 -0.194906 0
M  V30 14931 H 1455.05 5.30832 1.51397 0
M  V30 14932 H 1455.53 3.77644 2.24236 0
M  V30 14933 H 1456.14 4.20661 0.626438 0
M  V30 14934 N 1454.45 0.0885642 1.57351 0
M  V30 14935 C 1455.41 -0.858178 2.12528 0
M  V30 14936 C 1456.41 -1.21522 1.05304 0
M  V30 14937 O 1457.6 -1.14573 1.3122 0
M  V30 14938 C 1454.74 -2.15619 2.64048 0
M  V30 14939 H 1455.93 -0.37918 2.97493 0
M  V30 14940 H 1453.48 -0.160354 1.55475 0
M  V30 14941 H 1454.22 -2.68018 1.82584 0
M  V30 14942 H 1454 -1.90995 3.42437 0
M  V30 14943 H 1455.49 -2.83359 3.06753 0
M  V30 14944 N 1455.93 -1.56509 -0.185096 0
M  V30 14945 C 1457.17 -1.81474 -0.905263 0
M  V30 14946 C 1457.51 -0.664225 -1.82488 0
M  V30 14947 O 1456.78 0.33466 -1.91599 0
M  V30 14948 C 1457.07 -3.16754 -1.71287 0
M  V30 14949 C 1456.92 -4.42312 -0.817302 0
M  V30 14950 C 1458.24 -3.48828 -2.68342 0
M  V30 14951 H 1455.36 -0.660155 -0.327664 0
M  V30 14952 H 1458 -1.89219 -0.172129 0
M  V30 14953 H 1456.15 -3.10282 -2.33789 0
M  V30 14954 H 1457.82 -4.60839 -0.206218 0
M  V30 14955 H 1456.06 -4.33621 -0.124564 0
M  V30 14956 H 1456.73 -5.33487 -1.41758 0
M  V30 14957 H 1459.21 -3.55663 -2.15969 0
M  V30 14958 H 1458.09 -4.44585 -3.21924 0
M  V30 14959 H 1458.35 -2.72829 -3.47875 0
M  V30 14960 N 1457.41 0.45317 -1.50944 0
M  V30 14961 C 1458.34 1.56678 -1.67287 0
M  V30 14962 C 1459.35 1.53089 -0.553853 0
M  V30 14963 O 1460.54 1.58152 -0.827653 0
M  V30 14964 C 1457.64 2.95585 -1.65779 0
M  V30 14965 C 1456.81 3.2385 -2.94007 0
M  V30 14966 C 1455.87 4.42401 -2.84899 0
M  V30 14967 O 1454.9 4.4183 -3.58853 0
M  V30 14968 N 1456.1 5.4508 -1.99671 0
M  V30 14969 H 1458.87 1.43069 -2.63347 0
M  V30 14970 H 1456.43 0.641875 -1.48632 0
M  V30 14971 H 1458.42 3.7289 -1.57275 0
M  V30 14972 H 1456.99 3.02872 -0.773791 0
M  V30 14973 H 1456.21 2.34991 -3.16501 0
M  V30 14974 H 1457.5 3.39554 -3.7892 0
M  V30 14975 H 1456.89 5.48374 -1.38933 0
M  V30 14976 H 1455.45 6.21298 -1.97057 0
M  V30 14977 N 1458.88 1.40823 0.707568 0
M  V30 14978 C 1460.13 1.40743 1.46843 0
M  V30 14979 C 1460.49 0.0119104 1.92396 0
M  V30 14980 O 1459.78 -0.960008 1.65814 0
M  V30 14981 C 1459.97 2.33829 2.70294 0
M  V30 14982 C 1459.8 3.82294 2.36816 0
M  V30 14983 C 1458.57 4.51056 2.27764 0
M  V30 14984 C 1460.77 4.7358 2.00565 0
M  V30 14985 N 1458.75 5.84711 1.87045 0
M  V30 14986 C 1460.12 5.96093 1.7051 0
M  V30 14987 C 1462.18 4.6134 1.8727 0
M  V30 14988 C 1460.88 7.07729 1.28497 0
M  V30 14989 C 1462.91 5.72926 1.46662 0
M  V30 14990 C 1462.27 6.94529 1.1751 0
M  V30 14991 H 1458.37 0.570255 0.535101 0
M  V30 14992 H 1460.95 1.766 0.81979 0
M  V30 14993 H 1459.12 2.00087 3.32896 0
M  V30 14994 H 1460.85 2.2455 3.36689 0
M  V30 14995 H 1457.61 4.04839 2.45768 0
M  V30 14996 H 1458.03 6.55515 1.69201 0
M  V30 14997 H 1462.68 3.67834 2.08467 0
M  V30 14998 H 1460.39 8.01112 1.06044 0
M  V30 14999 H 1463.98 5.65454 1.36942 0
M  V30 15000 H 1462.86 7.79408 0.865604 0
M  V30 15001 N 1460.36 -0.94061 1.26453 0
M  V30 15002 C 1461.59 -1.72123 1.1481 0
M  V30 15003 C 1462.01 -1.86456 -0.296604 0
M  V30 15004 O 1461.36 -1.37234 -1.20304 0
M  V30 15005 C 1461.41 -3.1277 1.81266 0
M  V30 15006 O 1461.13 -2.99122 3.2009 0
M  V30 15007 C 1462.64 -4.07045 1.75584 0
M  V30 15008 H 1459.86 -0.538908 0.399774 0
M  V30 15009 H 1462.4 -1.17913 1.67083 0
M  V30 15010 H 1460.55 -3.6388 1.32928 0
M  V30 15011 H 1460.97 -3.87946 3.52984 0
M  V30 15012 H 1462.44 -5.03292 2.26719 0
M  V30 15013 H 1462.92 -4.33217 0.722466 0
M  V30 15014 H 1463.53 -3.61855 2.23475 0
M  V30 15015 N 1461.84 -1.08266 -1.14527 0
M  V30 15016 C 1462.79 -0.711332 -2.19565 0
M  V30 15017 C 1463.76 0.301774 -1.63336 0
M  V30 15018 O 1464.94 0.186109 -1.8989 0
M  V30 15019 C 1462.08 -0.125255 -3.44873 0
M  V30 15020 C 1461.2 -1.19096 -4.15259 0
M  V30 15021 C 1460.33 -0.568901 -5.28145 0
M  V30 15022 C 1459.37 -1.61675 -5.90362 0
M  V30 15023 N 1458.51 -1.01659 -6.94701 0
M  V30 15024 H 1463.35 -1.61137 -2.50677 0
M  V30 15025 H 1460.88 -0.805286 -1.231 0
M  V30 15026 H 1462.84 0.232247 -4.16553 0
M  V30 15027 H 1461.47 0.738101 -3.14248 0
M  V30 15028 H 1460.52 -1.66591 -3.41982 0
M  V30 15029 H 1461.84 -1.98508 -4.57598 0
M  V30 15030 H 1460.99 -0.159563 -6.0649 0
M  V30 15031 H 1459.73 0.256884 -4.87023 0
M  V30 15032 H 1458.73 -2.03576 -5.10722 0
M  V30 15033 H 1459.96 -2.44498 -6.33559 0
M  V30 15034 H 1457.9 -0.211872 -6.55658 0
M  V30 15035 H 1457.82 -1.74781 -7.35518 0
M  V30 15036 H 1459.09 -0.63306 -7.76925 0
M  V30 15037 N 1463.32 1.31536 -0.86811 0
M  V30 15038 C 1464.28 2.26849 -0.327456 0
M  V30 15039 C 1465.28 1.52142 0.520514 0
M  V30 15040 O 1466.47 1.71044 0.330088 0
M  V30 15041 C 1463.6 3.36673 0.535174 0
M  V30 15042 H 1464.8 2.76184 -1.16886 0
M  V30 15043 H 1462.35 1.42437 -0.643545 0
M  V30 15044 H 1463.09 2.92627 1.39785 0
M  V30 15045 H 1462.87 3.92034 -0.0719835 0
M  V30 15046 H 1464.36 4.07658 0.905786 0
M  V30 15047 N 1464.8 0.627364 1.44575 0
M  V30 15048 C 1465.71 -0.0811184 2.3446 0
M  V30 15049 C 1466.72 -0.839668 1.52399 0
M  V30 15050 O 1467.9 -0.792784 1.8514 0
M  V30 15051 C 1464.96 -1.05296 3.30323 0
M  V30 15052 C 1464.03 -0.294201 4.28291 0
M  V30 15053 C 1463.26 -1.21975 5.19575 0
M  V30 15054 O 1463.48 -2.45834 5.14706 0
M  V30 15055 O 1462.42 -0.70611 5.97744 0
M  V30 15056 H 1466.24 0.658067 2.96485 0
M  V30 15057 H 1463.83 0.387565 1.44285 0
M  V30 15058 H 1465.71 -1.61218 3.89341 0
M  V30 15059 H 1464.38 -1.77283 2.70837 0
M  V30 15060 H 1463.29 0.307969 3.7283 0
M  V30 15061 H 1464.62 0.385567 4.90687 0
M  V30 15062 N 1466.28 -1.53251 0.367684 0
M  V30 15063 C 1467.52 -2.00889 -0.220914 0
M  V30 15064 C 1467.84 -1.25662 -1.4911 0
M  V30 15065 O 1467.11 -0.370491 -1.92365 0
M  V30 15066 H 1465.69 -0.742191 -0.0846233 0
M  V30 15067 H 1468.36 -1.88525 0.494402 0
M  V30 15068 H 1467.45 -3.08891 -0.446414 0
M  V30 15069 N 1467.75 -0.0969077 -1.57302 0
M  V30 15070 C 1468.98 0.578086 -1.99181 0
M  V30 15071 C 1469.4 1.60818 -0.975667 0
M  V30 15072 O 1468.76 1.81215 0.0556054 0
M  V30 15073 C 1468.81 1.20076 -3.40021 0
M  V30 15074 O 1467.91 2.31656 -3.41188 0
M  V30 15075 H 1467.25 0.146506 -0.647636 0
M  V30 15076 H 1469.78 -0.178855 -2.03817 0
M  V30 15077 H 1469.79 1.54162 -3.77754 0
M  V30 15078 H 1468.47 0.446114 -4.135 0
M  V30 15079 H 1467.05 1.99175 -3.15252 0
M  V30 15080 N 1469.23 1.56605 0.176793 0
M  V30 15081 C 1470.46 1.85543 0.9087 0
M  V30 15082 C 1470.87 0.679554 1.76575 0
M  V30 15083 O 1470.21 -0.360668 1.80125 0
M  V30 15084 C 1470.27 3.08823 1.84034 0
M  V30 15085 C 1469.94 4.41942 1.16344 0
M  V30 15086 C 1470.94 5.17176 0.531526 0
M  V30 15087 C 1468.62 4.88679 1.16183 0
M  V30 15088 C 1470.61 6.37332 -0.0929601 0
M  V30 15089 C 1468.3 6.08767 0.533514 0
M  V30 15090 C 1469.3 6.82937 -0.0927812 0
M  V30 15091 O 1468.99 8.00748 -0.711202 0
M  V30 15092 H 1468.72 0.619862 0.269717 0
M  V30 15093 H 1471.27 2.04579 0.183414 0
M  V30 15094 H 1469.5 2.85718 2.6058 0
M  V30 15095 H 1471.19 3.24253 2.44161 0
M  V30 15096 H 1471.96 4.82152 0.524784 0
M  V30 15097 H 1467.84 4.30891 1.63871 0
M  V30 15098 H 1471.38 6.95165 -0.582409 0
M  V30 15099 H 1467.28 6.43256 0.537821 0
M  V30 15100 H 1468.05 8.16224 -0.609911 0
M  V30 15101 N 1470.71 -0.445159 1.51182 0
M  V30 15102 C 1471.96 -1.19288 1.6314 0
M  V30 15103 C 1472.28 -1.91904 0.346109 0
M  V30 15104 O 1471.55 -1.8523 -0.637695 0
M  V30 15105 H 1470.13 -0.443319 0.601229 0
M  V30 15106 H 1472.79 -0.511136 1.88078 0
M  V30 15107 H 1471.89 -1.92672 2.45528 0
M  V30 15108 N 1472.19 -1.41197 -0.700089 0
M  V30 15109 C 1473.43 -1.40519 -1.46227 0
M  V30 15110 C 1473.77 -0.0126108 -1.94196 0
M  V30 15111 O 1473.04 0.958837 -1.69223 0
M  V30 15112 C 1473.32 -2.40808 -2.67738 0
M  V30 15113 C 1473.18 -3.89154 -2.25563 0
M  V30 15114 C 1474.5 -2.38415 -3.69927 0
M  V30 15115 H 1471.62 -0.511724 -0.530384 0
M  V30 15116 H 1474.26 -1.72441 -0.797754 0
M  V30 15117 H 1472.41 -2.13717 -3.24434 0
M  V30 15118 H 1474.08 -4.27132 -1.74229 0
M  V30 15119 H 1472.32 -4.04239 -1.57395 0
M  V30 15120 H 1472.99 -4.54866 -3.12731 0
M  V30 15121 H 1475.47 -2.62447 -3.22895 0
M  V30 15122 H 1474.35 -3.10609 -4.52563 0
M  V30 15123 H 1474.61 -1.40116 -4.19309 0
M  V30 15124 N 1473.67 0.933891 -1.2695 0
M  V30 15125 C 1475.08 1.49578 -1.11728 0
M  V30 15126 C 1475.43 1.93895 0.299889 0
M  V30 15127 O 1474.55 1.806 1.19216 0
M  V30 15128 C 1475.15 2.71841 -2.02208 0
M  V30 15129 C 1473.71 3.24274 -1.9111 0
M  V30 15130 C 1472.85 1.97029 -1.95128 0
M  V30 15131 H 1475.8 0.748628 -1.39933 0
M  V30 15132 H 1475.83 3.46407 -1.57425 0
M  V30 15133 H 1475.34 2.39556 -3.05343 0
M  V30 15134 H 1473.44 3.61333 -0.909367 0
M  V30 15135 H 1473.55 3.90887 -2.77027 0
M  V30 15136 H 1471.92 2.13249 -1.39273 0
M  V30 15137 H 1472.7 1.67066 -2.99907 0
M  V30 15138 N 1475.14 1.08871 1.13951 0
M  V30 15139 C 1476.07 0.744715 2.21306 0
M  V30 15140 C 1477.05 -0.275019 1.67862 0
M  V30 15141 O 1478.24 -0.144339 1.93663 0
M  V30 15142 C 1475.37 0.158336 3.46939 0
M  V30 15143 C 1474.32 1.10695 4.13438 0
M  V30 15144 C 1473.65 0.382552 5.3333 0
M  V30 15145 C 1474.95 2.44704 4.61429 0
M  V30 15146 H 1476.64 1.6423 2.50337 0
M  V30 15147 H 1474.19 0.791088 1.20324 0
M  V30 15148 H 1476.14 -0.0943587 4.21294 0
M  V30 15149 H 1474.87 -0.774413 3.17286 0
M  V30 15150 H 1473.53 1.34482 3.41043 0
M  V30 15151 H 1473.17 -0.554153 4.99938 0
M  V30 15152 H 1472.87 1.01499 5.78767 0
M  V30 15153 H 1474.4 0.138023 6.10444 0
M  V30 15154 H 1475.81 2.25156 5.27236 0
M  V30 15155 H 1474.21 3.03684 5.17586 0
M  V30 15156 H 1475.28 3.05883 3.76249 0
M  V30 15157 N 1476.62 -1.31073 0.875073 0
M  V30 15158 C 1477.87 -1.97194 0.498612 0
M  V30 15159 C 1478.22 -1.67884 -0.939819 0
M  V30 15160 O 1477.52 -0.967708 -1.65366 0
M  V30 15161 C 1477.71 -3.50511 0.698351 0
M  V30 15162 C 1477.54 -3.94722 2.15465 0
M  V30 15163 C 1476.31 -4.2081 2.79726 0
M  V30 15164 C 1478.51 -4.08283 3.12745 0
M  V30 15165 N 1476.49 -4.51411 4.16055 0
M  V30 15166 C 1477.86 -4.42653 4.34117 0
M  V30 15167 C 1479.91 -3.90678 3.08667 0
M  V30 15168 C 1478.62 -4.61255 5.51939 0
M  V30 15169 C 1480.64 -4.10476 4.25751 0
M  V30 15170 C 1480.01 -4.45182 5.45887 0
M  V30 15171 H 1476.1 -0.74692 0.231592 0
M  V30 15172 H 1478.69 -1.585 1.13074 0
M  V30 15173 H 1476.86 -3.88282 0.0957804 0
M  V30 15174 H 1478.59 -4.03661 0.289771 0
M  V30 15175 H 1475.35 -4.13641 2.30648 0
M  V30 15176 H 1475.77 -4.70862 4.86434 0
M  V30 15177 H 1480.41 -3.6293 2.16892 0
M  V30 15178 H 1478.13 -4.8785 6.44227 0
M  V30 15179 H 1481.72 -3.98334 4.24054 0
M  V30 15180 H 1480.6 -4.60189 6.34977 0
M  V30 15181 N 1478.1 -0.635022 -1.4424 0
M  V30 15182 C 1479.35 -0.138497 -2.01224 0
M  V30 15183 C 1479.66 1.2485 -1.50571 0
M  V30 15184 O 1480.87 1.83926 -1.99709 0
M  V30 15185 C 1479.32 -0.196836 -3.59361 0
M  V30 15186 C 1478.93 -1.58539 -4.1901 0
M  V30 15187 C 1480.68 0.243025 -4.23804 0
M  V30 15188 C 1478.58 -1.59864 -5.69384 0
M  V30 15189 H 1477.51 -0.0480117 -0.75247 0
M  V30 15190 H 1480.16 -0.794391 -1.65414 0
M  V30 15191 H 1478.55 0.526231 -3.92488 0
M  V30 15192 H 1479.72 -2.33236 -3.97414 0
M  V30 15193 H 1478.04 -1.96967 -3.66869 0
M  V30 15194 H 1480.63 0.252717 -5.34102 0
M  V30 15195 H 1480.98 1.27107 -3.96421 0
M  V30 15196 H 1481.51 -0.427678 -3.95494 0
M  V30 15197 H 1478.25 -2.60518 -6.01507 0
M  V30 15198 H 1477.77 -0.894664 -5.9309 0
M  V30 15199 H 1479.45 -1.3343 -6.33092 0
M  V30 15200 N 1479.58 1.53054 -0.375806 0
M  V30 15201 C 1480.83 2.00584 0.211847 0
M  V30 15202 C 1481.14 1.26692 1.49025 0
M  V30 15203 O 1482.35 1.64863 2.15713 0
M  V30 15204 C 1480.8 3.57345 0.428074 0
M  V30 15205 C 1480.41 4.40125 -0.836299 0
M  V30 15206 C 1482.15 4.13203 0.972825 0
M  V30 15207 C 1480.06 5.88459 -0.589093 0
M  V30 15208 H 1478.99 0.749424 0.0829412 0
M  V30 15209 H 1481.64 1.76666 -0.496126 0
M  V30 15210 H 1480.02 3.77458 1.19756 0
M  V30 15211 H 1481.2 4.31782 -1.60936 0
M  V30 15212 H 1479.51 3.95422 -1.30501 0
M  V30 15213 H 1482.11 5.21669 1.17326 0
M  V30 15214 H 1482.45 3.68441 1.93797 0
M  V30 15215 H 1482.99 3.96928 0.263249 0
M  V30 15216 H 1479.73 6.37517 -1.52485 0
M  V30 15217 H 1479.25 5.99624 0.145285 0
M  V30 15218 H 1480.92 6.46631 -0.218485 0
M  V30 15219 N 1481.06 0.105248 1.57248 0
M  V30 15220 C 1482.31 -0.555797 1.93891 0
M  V30 15221 C 1482.62 -1.68703 0.989883 0
M  V30 15222 O 1483.82 -2.40991 1.25043 0
M  V30 15223 C 1482.28 -1.04006 3.44544 0
M  V30 15224 C 1481.89 0.0619641 4.47957 0
M  V30 15225 C 1483.63 -1.67327 3.90131 0
M  V30 15226 C 1481.54 -0.438229 5.89774 0
M  V30 15227 H 1480.47 -0.211391 0.723761 0
M  V30 15228 H 1483.12 0.182887 1.82586 0
M  V30 15229 H 1481.5 -1.83275 3.51036 0
M  V30 15230 H 1482.68 0.837803 4.5312 0
M  V30 15231 H 1480.99 0.600973 4.1204 0
M  V30 15232 H 1483.59 -2.0584 4.93492 0
M  V30 15233 H 1483.93 -2.54638 3.29341 0
M  V30 15234 H 1484.46 -0.946231 3.86382 0
M  V30 15235 H 1481.2 0.398506 6.54288 0
M  V30 15236 H 1480.72 -1.18085 5.88061 0
M  V30 15237 H 1482.4 -0.903922 6.40655 0
M  V30 15238 N 1482.53 -1.56697 -0.168486 0
M  V30 15239 C 1483.46 -1.99659 -1.21073 0
M  V30 15240 C 1484.45 -0.872625 -1.46011 0
M  V30 15241 O 1485.63 -1.13891 -1.57297 0
M  V30 15242 C 1482.76 -2.35889 -2.54899 0
M  V30 15243 C 1481.71 -3.51272 -2.44524 0
M  V30 15244 C 1481.04 -3.73253 -3.82866 0
M  V30 15245 C 1482.34 -4.84631 -1.94756 0
M  V30 15246 H 1484.03 -2.86974 -0.853593 0
M  V30 15247 H 1481.58 -1.38065 -0.409165 0
M  V30 15248 H 1483.53 -2.64542 -3.28017 0
M  V30 15249 H 1482.26 -1.45486 -2.92406 0
M  V30 15250 H 1480.92 -3.22751 -1.7386 0
M  V30 15251 H 1480.56 -2.80136 -4.17772 0
M  V30 15252 H 1480.26 -4.5089 -3.76792 0
M  V30 15253 H 1481.79 -4.04309 -4.57566 0
M  V30 15254 H 1483.2 -5.12142 -2.5765 0
M  V30 15255 H 1481.6 -5.65925 -1.99623 0
M  V30 15256 H 1482.67 -4.76436 -0.902021 0
M  V30 15257 N 1484.01 0.437135 -1.51416 0
M  V30 15258 C 1484.98 1.51313 -1.72154 0
M  V30 15259 C 1485.98 1.49523 -0.59157 0
M  V30 15260 O 1487.17 1.51541 -0.859118 0
M  V30 15261 C 1484.3 2.9085 -1.77818 0
M  V30 15262 H 1485.49 1.34229 -2.68184 0
M  V30 15263 H 1483.04 0.665822 -1.41409 0
M  V30 15264 H 1483.78 3.13338 -0.836033 0
M  V30 15265 H 1483.56 2.93554 -2.59939 0
M  V30 15266 H 1485.05 3.68905 -1.957 0
M  V30 15267 N 1485.49 1.41566 0.692592 0
M  V30 15268 C 1486.74 1.40381 1.44831 0
M  V30 15269 C 1487.05 0.0172068 1.95592 0
M  V30 15270 O 1488.26 -0.11726 2.71247 0
M  V30 15271 C 1486.71 2.46844 2.61908 0
M  V30 15272 C 1486.32 3.91426 2.17921 0
M  V30 15273 C 1488.07 2.548 3.39525 0
M  V30 15274 C 1485.97 4.89436 3.31974 0
M  V30 15275 H 1484.9 0.522062 0.544028 0
M  V30 15276 H 1487.55 1.67402 0.751589 0
M  V30 15277 H 1485.94 2.12959 3.33863 0
M  V30 15278 H 1487.11 4.34575 1.53236 0
M  V30 15279 H 1485.43 3.87158 1.5329 0
M  V30 15280 H 1488.02 3.25207 4.24434 0
M  V30 15281 H 1488.37 1.58579 3.84913 0
M  V30 15282 H 1488.9 2.87791 2.74629 0
M  V30 15283 H 1485.64 5.87071 2.91595 0
M  V30 15284 H 1485.16 4.50933 3.95499 0
M  V30 15285 H 1486.84 5.10331 3.97708 0
M  V30 15286 N 1486.97 -0.927146 1.27443 0
M  V30 15287 C 1487.9 -2.04483 1.12735 0
M  V30 15288 C 1488.88 -1.70076 0.0286662 0
M  V30 15289 O 1490.06 -1.93133 0.203252 0
M  V30 15290 C 1487.19 -3.38557 0.774352 0
M  V30 15291 C 1486.15 -3.87078 1.82632 0
M  V30 15292 C 1485.47 -5.17964 1.32729 0
M  V30 15293 C 1486.77 -4.10409 3.23051 0
M  V30 15294 H 1488.47 -2.17046 2.06231 0
M  V30 15295 H 1486.01 -1.04292 0.992937 0
M  V30 15296 H 1487.97 -4.16227 0.658273 0
M  V30 15297 H 1486.69 -3.26009 -0.196321 0
M  V30 15298 H 1485.35 -3.11602 1.93132 0
M  V30 15299 H 1485 -5.01808 0.346059 0
M  V30 15300 H 1484.7 -5.51398 2.03061 0
M  V30 15301 H 1486.22 -5.98203 1.22416 0
M  V30 15302 H 1487.64 -4.78646 3.15549 0
M  V30 15303 H 1486.03 -4.5515 3.91099 0
M  V30 15304 H 1487.1 -3.15685 3.68064 0
M  V30 15305 N 1488.45 -1.09474 -1.13372 0
M  V30 15306 C 1489.69 -0.831091 -1.84659 0
M  V30 15307 C 1490.02 0.643294 -1.83554 0
M  V30 15308 O 1489.28 1.48958 -1.26925 0
M  V30 15309 C 1489.58 -1.31208 -3.32444 0
M  V30 15310 C 1489.24 -2.79617 -3.5373 0
M  V30 15311 C 1487.9 -3.20147 -3.59248 0
M  V30 15312 C 1490.26 -3.75303 -3.61659 0
M  V30 15313 C 1487.58 -4.55135 -3.70228 0
M  V30 15314 C 1489.94 -5.1008 -3.74167 0
M  V30 15315 C 1488.6 -5.50199 -3.77938 0
M  V30 15316 H 1487.87 -0.304118 -0.675717 0
M  V30 15317 H 1490.52 -1.36961 -1.33843 0
M  V30 15318 H 1488.82 -0.693379 -3.85616 0
M  V30 15319 H 1490.52 -1.08469 -3.86051 0
M  V30 15320 H 1487.11 -2.47253 -3.50091 0
M  V30 15321 H 1491.29 -3.45103 -3.56676 0
M  V30 15322 H 1486.55 -4.85656 -3.71414 0
M  V30 15323 H 1490.72 -5.84077 -3.79245 0
M  V30 15324 H 1488.35 -6.54794 -3.86198 0
M  V30 15325 N 1489.92 1.30607 -0.882012 0
M  V30 15326 C 1491.17 1.95869 -0.497978 0
M  V30 15327 C 1491.49 1.69991 0.955405 0
M  V30 15328 O 1490.76 1.02188 1.67136 0
M  V30 15329 H 1489.34 0.724699 -0.181165 0
M  V30 15330 H 1492.01 1.59193 -1.12444 0
M  V30 15331 H 1491.1 3.04917 -0.665754 0
M  V30 15332 N 1491.4 0.642663 1.43901 0
M  V30 15333 C 1492.33 -0.0419756 2.33462 0
M  V30 15334 C 1493.31 -0.822923 1.48869 0
M  V30 15335 O 1494.5 -0.786508 1.7756 0
M  V30 15336 C 1491.63 -1.01631 3.32097 0
M  V30 15337 C 1490.58 -0.346206 4.26597 0
M  V30 15338 C 1489.91 -1.43125 5.15189 0
M  V30 15339 C 1491.21 0.754799 5.16817 0
M  V30 15340 H 1492.9 0.705929 2.90959 0
M  V30 15341 H 1490.45 0.340924 1.39906 0
M  V30 15342 H 1492.4 -1.5041 3.93643 0
M  V30 15343 H 1491.13 -1.79525 2.72834 0
M  V30 15344 H 1489.78 0.121038 3.664 0
M  V30 15345 H 1489.43 -2.20135 4.52271 0
M  V30 15346 H 1489.13 -0.988194 5.79231 0
M  V30 15347 H 1490.66 -1.92061 5.79607 0
M  V30 15348 H 1492.07 0.349624 5.72233 0
M  V30 15349 H 1490.47 1.12169 5.89524 0
M  V30 15350 H 1491.54 1.61718 4.57138 0
M  V30 15351 N 1492.88 -1.52852 0.383918 0
M  V30 15352 C 1493.81 -2.29213 -0.44539 0
M  V30 15353 C 1494.79 -1.3238 -1.06815 0
M  V30 15354 O 1495.98 -1.61269 -1.08194 0
M  V30 15355 C 1493.11 -3.09497 -1.57573 0
M  V30 15356 C 1492.06 -4.14168 -1.07928 0
M  V30 15357 C 1491.39 -4.82644 -2.30128 0
M  V30 15358 C 1492.69 -5.22082 -0.151035 0
M  V30 15359 H 1494.38 -2.98786 0.19172 0
M  V30 15360 H 1491.93 -1.43695 0.0936471 0
M  V30 15361 H 1493.88 -3.61672 -2.16267 0
M  V30 15362 H 1492.6 -2.37647 -2.24034 0
M  V30 15363 H 1491.26 -3.62966 -0.514909 0
M  V30 15364 H 1490.91 -4.07348 -2.95087 0
M  V30 15365 H 1490.61 -5.53388 -1.97574 0
M  V30 15366 H 1492.14 -5.37621 -2.89475 0
M  V30 15367 H 1493.55 -5.69649 -0.646003 0
M  V30 15368 H 1491.95 -6.00041 0.0844833 0
M  V30 15369 H 1493.02 -4.78228 0.801618 0
M  V30 15370 N 1494.36 -0.113586 -1.5719 0
M  V30 15371 C 1495.29 0.835363 -2.18046 0
M  V30 15372 C 1496.27 1.28114 -1.11897 0
M  V30 15373 O 1497.46 1.34472 -1.40111 0
M  V30 15374 C 1494.59 2.08759 -2.77556 0
M  V30 15375 C 1493.54 1.77979 -3.8924 0
M  V30 15376 C 1492.87 3.10185 -4.35533 0
M  V30 15377 C 1494.17 1.05231 -5.11589 0
M  V30 15378 H 1495.86 0.328275 -2.97595 0
M  V30 15379 H 1493.41 0.156456 -1.43148 0
M  V30 15380 H 1495.36 2.75597 -3.18785 0
M  V30 15381 H 1494.08 2.61783 -1.95288 0
M  V30 15382 H 1492.74 1.13532 -3.48577 0
M  V30 15383 H 1492.39 3.61133 -3.50131 0
M  V30 15384 H 1492.09 2.90367 -5.10843 0
M  V30 15385 H 1493.61 3.78151 -4.7941 0
M  V30 15386 H 1495.03 1.62213 -5.49872 0
M  V30 15387 H 1493.42 0.955269 -5.92448 0
M  V30 15388 H 1494.49 0.038137 -4.84885 0
M  V30 15389 N 1495.84 1.56784 0.160173 0
M  V30 15390 C 1496.77 2.00298 1.20012 0
M  V30 15391 C 1497.75 0.880356 1.45546 0
M  V30 15392 O 1498.93 1.14724 1.56691 0
M  V30 15393 C 1496.06 2.37238 2.53645 0
M  V30 15394 C 1495.02 3.52563 2.42658 0
M  V30 15395 C 1494.34 3.75278 3.80881 0
M  V30 15396 C 1495.64 4.85657 1.92183 0
M  V30 15397 H 1497.34 2.87423 0.838362 0
M  V30 15398 H 1494.88 1.3828 0.401838 0
M  V30 15399 H 1496.84 2.66278 3.2661 0
M  V30 15400 H 1495.56 1.47035 2.9163 0
M  V30 15401 H 1494.22 3.23669 1.72146 0
M  V30 15402 H 1493.87 2.82347 4.1628 0
M  V30 15403 H 1493.57 4.52882 3.74396 0
M  V30 15404 H 1495.09 4.0673 4.55415 0
M  V30 15405 H 1496.51 5.13501 2.54931 0
M  V30 15406 H 1494.9 5.66975 1.96619 0
M  V30 15407 H 1495.97 4.76908 0.876742 0
M  V30 15408 N 1497.32 -0.429099 1.51646 0
M  V30 15409 C 1498.56 -1.17551 1.64396 0
M  V30 15410 C 1498.88 -1.91526 0.366444 0
M  V30 15411 O 1498.15 -1.85896 -0.618013 0
M  V30 15412 H 1496.73 -0.436918 0.605898 0
M  V30 15413 H 1499.4 -0.491159 1.8861 0
M  V30 15414 H 1498.49 -1.90057 2.47557 0
M  V30 15415 N 1498.79 -1.41931 -0.685074 0
M  V30 15416 C 1499.72 -1.47385 -1.81107 0
M  V30 15417 C 1500.7 -0.331433 -1.6684 0
M  V30 15418 O 1501.89 -0.544331 -1.86415 0
M  V30 15419 C 1499.02 -1.36555 -3.19327 0
M  V30 15420 C 1497.97 -2.48718 -3.48315 0
M  V30 15421 C 1497.3 -2.2295 -4.86002 0
M  V30 15422 C 1498.6 -3.91047 -3.46237 0
M  V30 15423 H 1500.29 -2.41624 -1.768 0
M  V30 15424 H 1497.84 -1.16297 -0.849178 0
M  V30 15425 H 1499.79 -1.38981 -3.97822 0
M  V30 15426 H 1498.52 -0.388063 -3.24286 0
M  V30 15427 H 1497.18 -2.45592 -2.72176 0
M  V30 15428 H 1496.82 -1.23518 -4.87598 0
M  V30 15429 H 1496.52 -2.98116 -5.0636 0
M  V30 15430 H 1498.05 -2.27108 -5.66793 0
M  V30 15431 H 1499.46 -3.95831 -4.14718 0
M  V30 15432 H 1497.86 -4.65981 -3.7813 0
M  V30 15433 H 1498.93 -4.1845 -2.45006 0
M  V30 15434 N 1500.27 0.920374 -1.27933 0
M  V30 15435 C 1501.2 2.03882 -1.13817 0
M  V30 15436 C 1502.18 1.70058 -0.0376853 0
M  V30 15437 O 1503.37 1.93023 -0.213492 0
M  V30 15438 C 1500.5 3.38142 -0.792296 0
M  V30 15439 C 1499.45 3.86104 -1.84683 0
M  V30 15440 C 1498.78 5.17253 -1.35474 0
M  V30 15441 C 1500.08 4.0869 -3.25223 0
M  V30 15442 H 1501.77 2.15949 -2.07379 0
M  V30 15443 H 1499.32 1.03764 -0.998454 0
M  V30 15444 H 1501.27 4.15872 -0.680337 0
M  V30 15445 H 1499.99 3.26109 0.179029 0
M  V30 15446 H 1498.65 3.10573 -1.94782 0
M  V30 15447 H 1498.3 5.01618 -0.372666 0
M  V30 15448 H 1498 5.50314 -2.05982 0
M  V30 15449 H 1499.53 5.97545 -1.25587 0
M  V30 15450 H 1500.94 4.76965 -3.18083 0
M  V30 15451 H 1499.34 4.5307 -3.93507 0
M  V30 15452 H 1500.41 3.13729 -3.69733 0
M  V30 15453 N 1501.75 1.10074 1.1279 0
M  V30 15454 C 1503 0.835715 1.83572 0
M  V30 15455 C 1503.31 -0.640831 1.84805 0
M  V30 15456 O 1504.52 -1.02162 2.51545 0
M  V30 15457 C 1502.97 1.44519 3.29609 0
M  V30 15458 C 1502.58 2.95476 3.36746 0
M  V30 15459 C 1504.33 1.2594 4.05388 0
M  V30 15460 C 1502.23 3.49477 4.77095 0
M  V30 15461 H 1501.16 0.308974 0.687787 0
M  V30 15462 H 1503.81 1.32427 1.27025 0
M  V30 15463 H 1502.2 0.884323 3.86 0
M  V30 15464 H 1503.37 3.57846 2.90315 0
M  V30 15465 H 1501.68 3.13166 2.74437 0
M  V30 15466 H 1504.28 1.63732 5.09015 0
M  V30 15467 H 1504.62 0.200633 4.15816 0
M  V30 15468 H 1505.16 1.78814 3.55346 0
M  V30 15469 H 1501.9 4.55003 4.7186 0
M  V30 15470 H 1501.42 2.91873 5.23995 0
M  V30 15471 H 1503.1 3.47077 5.46028 0
M  V30 15472 N 1503.23 -1.30138 0.888926 0
M  V30 15473 C 1504.46 -1.99853 0.523676 0
M  V30 15474 C 1504.87 -1.66783 -0.893312 0
M  V30 15475 O 1504.21 -0.903292 -1.59957 0
M  V30 15476 C 1504.27 -3.54055 0.623332 0
M  V30 15477 C 1503.93 -4.10652 2.00534 0
M  V30 15478 C 1504.93 -4.26353 2.97522 0
M  V30 15479 C 1502.62 -4.45938 2.3118 0
M  V30 15480 C 1504.61 -4.76557 4.23288 0
M  V30 15481 C 1502.3 -4.95841 3.57191 0
M  V30 15482 C 1503.3 -5.11103 4.53059 0
M  V30 15483 O 1502.98 -5.59927 5.76833 0
M  V30 15484 H 1502.72 -0.645553 0.200591 0
M  V30 15485 H 1505.27 -1.66899 1.19724 0
M  V30 15486 H 1503.5 -3.86551 -0.107221 0
M  V30 15487 H 1505.19 -4.05009 0.26879 0
M  V30 15488 H 1505.95 -3.9939 2.75159 0
M  V30 15489 H 1501.83 -4.33324 1.57326 0
M  V30 15490 H 1505.38 -4.88385 4.98123 0
M  V30 15491 H 1501.27 -5.22239 3.7939 0
M  V30 15492 H 1502.04 -5.78263 5.79271 0
M  V30 15493 N 1504.71 -0.650285 -1.43559 0
M  V30 15494 C 1505.95 -0.159832 -2.01066 0
M  V30 15495 C 1506.27 1.23246 -1.51887 0
M  V30 15496 O 1507.47 1.81797 -2.01648 0
M  V30 15497 C 1505.93 -0.23494 -3.59132 0
M  V30 15498 C 1505.54 -1.62975 -4.17305 0
M  V30 15499 C 1507.28 0.198061 -4.24038 0
M  V30 15500 C 1505.19 -1.65894 -5.67656 0
M  V30 15501 H 1504.12 -0.0559899 -0.751918 0
M  V30 15502 H 1506.77 -0.811891 -1.64562 0
M  V30 15503 H 1505.15 0.484573 -3.93024 0
M  V30 15504 H 1506.33 -2.37438 -3.94918 0
M  V30 15505 H 1504.64 -2.00847 -3.64759 0
M  V30 15506 H 1507.24 0.196054 -5.3434 0
M  V30 15507 H 1507.58 1.22896 -3.97747 0
M  V30 15508 H 1508.11 -0.469602 -3.95018 0
M  V30 15509 H 1504.85 -2.66883 -5.9871 0
M  V30 15510 H 1504.37 -0.957519 -5.92108 0
M  V30 15511 H 1506.05 -1.40137 -6.31641 0
M  V30 15512 N 1506.18 1.52647 -0.392018 0
M  V30 15513 C 1507.11 2.29446 0.433228 0
M  V30 15514 C 1508.09 1.32945 1.06111 0
M  V30 15515 O 1509.28 1.61841 1.07337 0
M  V30 15516 C 1506.41 3.10328 1.55929 0
M  V30 15517 C 1505.36 4.14735 1.05731 0
M  V30 15518 C 1504.69 4.83858 2.27565 0
M  V30 15519 C 1505.99 5.22154 0.123346 0
M  V30 15520 H 1507.68 2.9868 -0.207563 0
M  V30 15521 H 1505.23 1.43643 -0.101266 0
M  V30 15522 H 1507.18 3.62814 2.14346 0
M  V30 15523 H 1505.91 2.38832 2.22771 0
M  V30 15524 H 1504.57 3.63234 0.495653 0
M  V30 15525 H 1504.21 4.08907 2.92923 0
M  V30 15526 H 1503.91 5.54428 1.94637 0
M  V30 15527 H 1505.44 5.39149 2.86619 0
M  V30 15528 H 1506.85 5.69983 0.615784 0
M  V30 15529 H 1505.25 5.99987 -0.116304 0
M  V30 15530 H 1506.32 4.77796 -0.826969 0
M  V30 15531 N 1507.66 0.121921 1.57128 0
M  V30 15532 C 1508.89 -0.542225 1.99358 0
M  V30 15533 C 1509.3 -1.60578 1.00057 0
M  V30 15534 O 1508.64 -1.83694 -0.0142649 0
M  V30 15535 C 1508.71 -1.22448 3.38004 0
M  V30 15536 C 1508.37 -0.308522 4.55957 0
M  V30 15537 C 1509.37 0.454012 5.17914 0
M  V30 15538 C 1507.05 -0.218741 5.01823 0
M  V30 15539 C 1509.05 1.29403 6.24126 0
M  V30 15540 C 1506.73 0.624906 6.07896 0
M  V30 15541 C 1507.73 1.37992 6.68915 0
M  V30 15542 O 1507.42 2.20955 7.72938 0
M  V30 15543 H 1507.15 -0.147894 0.659624 0
M  V30 15544 H 1509.7 0.205954 2.04365 0
M  V30 15545 H 1507.93 -2.01979 3.2976 0
M  V30 15546 H 1509.62 -1.78583 3.64504 0
M  V30 15547 H 1510.39 0.394539 4.83393 0
M  V30 15548 H 1506.27 -0.796109 4.54074 0
M  V30 15549 H 1509.81 1.88382 6.71683 0
M  V30 15550 H 1505.71 0.685762 6.41847 0
M  V30 15551 H 1506.48 2.13929 7.90049 0
M  V30 15552 N 1509.14 -1.56867 -0.151857 0
M  V30 15553 C 1510.09 -1.97899 -1.18763 0
M  V30 15554 C 1511.06 -0.845833 -1.42951 0
M  V30 15555 O 1512.24 -1.10751 -1.55367 0
M  V30 15556 C 1509.38 -2.36063 -2.5173 0
M  V30 15557 C 1508.5 -3.62647 -2.34757 0
M  V30 15558 C 1507.63 -3.89936 -3.60726 0
M  V30 15559 C 1506.67 -5.09806 -3.38769 0
M  V30 15560 N 1505.81 -5.33129 -4.56856 0
M  V30 15561 H 1510.65 -2.86187 -0.830713 0
M  V30 15562 H 1508.18 -1.41592 -0.398745 0
M  V30 15563 H 1510.14 -2.56218 -3.29254 0
M  V30 15564 H 1508.77 -1.50861 -2.85379 0
M  V30 15565 H 1507.82 -3.50297 -1.48312 0
M  V30 15566 H 1509.14 -4.50328 -2.1449 0
M  V30 15567 H 1508.29 -4.10563 -4.4668 0
M  V30 15568 H 1507.03 -3.00668 -3.83993 0
M  V30 15569 H 1506.03 -4.89057 -2.51203 0
M  V30 15570 H 1507.26 -6.00623 -3.16906 0
M  V30 15571 H 1505.2 -4.46815 -4.80305 0
M  V30 15572 H 1505.12 -6.1507 -4.39574 0
M  V30 15573 H 1506.39 -5.5825 -5.44038 0
M  V30 15574 N 1510.62 0.421051 -1.51871 0
M  V30 15575 C 1511.55 1.51928 -1.77313 0
M  V30 15576 C 1512.53 1.58258 -0.623579 0
M  V30 15577 O 1513.71 1.73724 -0.867967 0
M  V30 15578 C 1510.84 2.89865 -1.913 0
M  V30 15579 C 1509.8 2.98391 -3.06834 0
M  V30 15580 C 1509.12 4.38466 -3.06026 0
M  V30 15581 C 1510.42 2.7097 -4.46511 0
M  V30 15582 H 1512.12 1.30889 -2.69274 0
M  V30 15583 H 1509.66 0.628229 -1.29573 0
M  V30 15584 H 1511.62 3.66669 -2.07682 0
M  V30 15585 H 1510.34 3.12172 -0.960011 0
M  V30 15586 H 1509 2.24029 -2.90184 0
M  V30 15587 H 1508.65 4.57764 -2.08472 0
M  V30 15588 H 1508.35 4.45097 -3.83618 0
M  V30 15589 H 1509.87 5.17221 -3.24522 0
M  V30 15590 H 1511.29 3.37501 -4.63428 0
M  V30 15591 H 1509.68 2.88992 -5.25931 0
M  V30 15592 H 1510.75 1.66476 -4.55427 0
M  V30 15593 N 1512.1 1.42293 0.677538 0
M  V30 15594 C 1513.34 1.42334 1.43476 0
M  V30 15595 C 1513.67 0.0397842 1.94959 0
M  V30 15596 O 1512.94 -0.921258 1.72886 0
M  V30 15597 H 1511.52 0.523969 0.532415 0
M  V30 15598 H 1514.18 1.7769 0.800758 0
M  V30 15599 H 1513.27 2.12146 2.28912 0
M  V30 15600 N 1513.57 -0.913576 1.28419 0
M  V30 15601 C 1514.82 -1.66273 1.15584 0
M  V30 15602 C 1515.15 -1.92242 -0.295541 0
M  V30 15603 O 1514.4 -1.52104 -1.23137 0
M  V30 15604 C 1514.7 -3.02722 1.89985 0
M  V30 15605 C 1514.37 -2.96413 3.3978 0
M  V30 15606 C 1513.03 -2.94399 3.80635 0
M  V30 15607 C 1515.38 -2.86648 4.35296 0
M  V30 15608 C 1512.71 -2.80422 5.15345 0
M  V30 15609 C 1515.06 -2.74211 5.7008 0
M  V30 15610 C 1513.73 -2.70556 6.1021 0
M  V30 15611 H 1513 -0.608435 0.422951 0
M  V30 15612 H 1515.64 -1.06438 1.59196 0
M  V30 15613 H 1513.95 -3.66344 1.38923 0
M  V30 15614 H 1515.65 -3.59591 1.7747 0
M  V30 15615 H 1512.24 -2.98775 3.07297 0
M  V30 15616 H 1516.42 -2.87291 4.04695 0
M  V30 15617 H 1511.68 -2.75987 5.45565 0
M  V30 15618 H 1515.85 -2.65624 6.43752 0
M  V30 15619 H 1513.48 -2.59483 7.14544 0
M  V30 15620 N 1515.05 -1.1067 -1.12204 0
M  V30 15621 C 1516.3 -0.85063 -1.83768 0
M  V30 15622 C 1516.63 0.62379 -1.84226 0
M  V30 15623 O 1515.88 1.47603 -1.28498 0
M  V30 15624 C 1516.18 -1.34727 -3.31034 0
M  V30 15625 C 1515.85 -2.83353 -3.50745 0
M  V30 15626 C 1514.51 -3.2394 -3.55832 0
M  V30 15627 C 1516.86 -3.79118 -3.57658 0
M  V30 15628 C 1514.19 -4.59036 -3.6538 0
M  V30 15629 C 1516.54 -5.1402 -3.68736 0
M  V30 15630 C 1515.21 -5.54177 -3.72081 0
M  V30 15631 H 1514.48 -0.311268 -0.672453 0
M  V30 15632 H 1517.12 -1.38373 -1.32383 0
M  V30 15633 H 1515.43 -0.73424 -3.84859 0
M  V30 15634 H 1517.12 -1.12558 -3.84879 0
M  V30 15635 H 1513.71 -2.50952 -3.47449 0
M  V30 15636 H 1517.9 -3.48867 -3.52995 0
M  V30 15637 H 1513.15 -4.89568 -3.66243 0
M  V30 15638 H 1517.33 -5.88067 -3.73028 0
M  V30 15639 H 1514.96 -6.58853 -3.79232 0
M  V30 15640 N 1516.53 1.29665 -0.895815 0
M  V30 15641 C 1517.48 2.27831 -0.369011 0
M  V30 15642 C 1518.45 1.56843 0.546756 0
M  V30 15643 O 1519.63 1.84848 0.472837 0
M  V30 15644 C 1516.77 3.42764 0.400884 0
M  V30 15645 C 1515.89 4.28544 -0.545335 0
M  V30 15646 C 1515.02 5.30652 0.241228 0
M  V30 15647 C 1514.06 6.08087 -0.699765 0
M  V30 15648 N 1513.2 7.02081 0.0521477 0
M  V30 15649 H 1518.04 2.72274 -1.21124 0
M  V30 15650 H 1515.57 1.33918 -0.608631 0
M  V30 15651 H 1517.53 4.08171 0.863277 0
M  V30 15652 H 1516.16 2.99361 1.2076 0
M  V30 15653 H 1515.21 3.63346 -1.12624 0
M  V30 15654 H 1516.53 4.82472 -1.26579 0
M  V30 15655 H 1515.68 6.01858 0.764994 0
M  V30 15656 H 1514.42 4.77446 0.994838 0
M  V30 15657 H 1513.42 5.35748 -1.23507 0
M  V30 15658 H 1514.65 6.63382 -1.45264 0
M  V30 15659 H 1512.59 6.51249 0.788096 0
M  V30 15660 H 1512.51 7.53547 -0.60847 0
M  V30 15661 H 1513.78 7.77512 0.556304 0
M  V30 15662 N 1518.01 0.657889 1.43212 0
M  V30 15663 C 1519.42 0.325876 1.56238 0
M  V30 15664 C 1519.62 -1.16975 1.6407 0
M  V30 15665 O 1518.68 -1.95473 1.59833 0
M  V30 15666 C 1519.99 1.04134 2.82093 0
M  V30 15667 C 1521.54 1.02204 2.95844 0
M  V30 15668 C 1522.02 1.71849 4.24537 0
M  V30 15669 N 1523.51 1.68635 4.31412 0
M  V30 15670 C 1524.24 2.19393 5.29768 0
M  V30 15671 N 1523.74 2.7846 6.34375 0
M  V30 15672 N 1525.53 2.09866 5.21452 0
M  V30 15673 H 1517.68 1.62839 1.36371 0
M  V30 15674 H 1519.95 0.685072 0.655271 0
M  V30 15675 H 1519.65 2.09647 2.82385 0
M  V30 15676 H 1519.53 0.595842 3.72464 0
M  V30 15677 H 1521.91 -0.0247029 2.9509 0
M  V30 15678 H 1521.99 1.50627 2.06749 0
M  V30 15679 H 1521.64 2.76482 4.26052 0
M  V30 15680 H 1521.57 1.20888 5.12536 0
M  V30 15681 H 1524.06 1.25536 3.56439 0
M  V30 15682 H 1524.37 3.14855 7.05752 0
M  V30 15683 H 1522.72 2.82523 6.34985 0
M  V30 15684 H 1525.91 1.63422 4.38647 0
M  V30 15685 H 1526.08 2.49732 5.97945 0
M  V30 15686 N 1519.49 -1.52437 0.400108 0
M  V30 15687 C 1520.71 -2.0661 -0.180861 0
M  V30 15688 C 1521.14 -1.269 -1.38845 0
M  V30 15689 O 1520.49 -0.296862 -1.78853 0
M  V30 15690 C 1520.54 -3.56851 -0.518595 0
M  V30 15691 O 1519.65 -3.79634 -1.61095 0
M  V30 15692 H 1518.99 -0.663752 -0.0181348 0
M  V30 15693 H 1521.52 -1.96479 0.570702 0
M  V30 15694 H 1521.53 -4.00478 -0.779817 0
M  V30 15695 H 1520.2 -4.14302 0.364216 0
M  V30 15696 H 1518.78 -3.47892 -1.3426 0
M  V30 15697 N 1520.96 -0.130252 -1.57061 0
M  V30 15698 C 1521.89 0.812189 -2.18919 0
M  V30 15699 C 1522.88 1.2692 -1.13249 0
M  V30 15700 O 1524.06 1.32978 -1.41529 0
M  V30 15701 C 1521.19 2.05803 -2.79754 0
M  V30 15702 C 1520.14 1.73841 -3.91105 0
M  V30 15703 C 1519.47 3.05549 -4.38799 0
M  V30 15704 C 1520.77 0.997991 -5.12677 0
M  V30 15705 H 1522.46 0.296692 -2.97926 0
M  V30 15706 H 1520.01 0.141265 -1.43305 0
M  V30 15707 H 1521.96 2.72201 -3.21691 0
M  V30 15708 H 1520.69 2.59697 -1.98053 0
M  V30 15709 H 1519.35 1.09828 -3.49762 0
M  V30 15710 H 1518.99 3.57399 -3.53942 0
M  V30 15711 H 1518.69 2.84932 -5.13894 0
M  V30 15712 H 1520.22 3.73045 -4.83394 0
M  V30 15713 H 1521.63 1.56372 -5.51562 0
M  V30 15714 H 1520.03 0.892378 -5.93428 0
M  V30 15715 H 1521.1 -0.0132936 -4.84898 0
M  V30 15716 N 1522.44 1.56945 0.143535 0
M  V30 15717 C 1523.85 1.72949 0.703249 0
M  V30 15718 C 1524.21 0.745193 1.81497 0
M  V30 15719 O 1523.33 -0.0874144 2.16223 0
M  V30 15720 C 1523.93 3.1359 1.28244 0
M  V30 15721 C 1522.48 3.31184 1.78869 0
M  V30 15722 C 1521.63 2.6887 0.678531 0
M  V30 15723 H 1524.58 1.58487 -0.0821664 0
M  V30 15724 H 1524.6 3.13782 2.15224 0
M  V30 15725 H 1524.12 3.85206 0.473087 0
M  V30 15726 H 1522.22 2.64571 2.6236 0
M  V30 15727 H 1522.33 4.39163 1.91502 0
M  V30 15728 H 1520.69 2.29432 1.10603 0
M  V30 15729 H 1521.48 3.43092 -0.119437 0
M  V30 15730 N 1523.92 -0.412991 1.52093 0
M  V30 15731 C 1525.15 -1.1804 1.69558 0
M  V30 15732 C 1525.56 -1.84858 0.403007 0
M  V30 15733 O 1524.9 -1.72541 -0.630506 0
M  V30 15734 C 1524.96 -2.28876 2.7723 0
M  V30 15735 C 1524.63 -1.82226 4.19098 0
M  V30 15736 C 1525.63 -1.31216 5.03069 0
M  V30 15737 C 1523.31 -1.89177 4.65314 0
M  V30 15738 C 1525.3 -0.877743 6.31328 0
M  V30 15739 C 1522.99 -1.45347 5.93563 0
M  V30 15740 C 1523.99 -0.947302 6.76399 0
M  V30 15741 O 1523.68 -0.515315 8.02247 0
M  V30 15742 H 1523.41 -0.360882 0.571612 0
M  V30 15743 H 1525.96 -0.492521 1.99408 0
M  V30 15744 H 1524.19 -3.01015 2.42748 0
M  V30 15745 H 1525.88 -2.9065 2.83333 0
M  V30 15746 H 1526.65 -1.25221 4.68556 0
M  V30 15747 H 1522.53 -2.27518 4.00945 0
M  V30 15748 H 1526.07 -0.481977 6.95933 0
M  V30 15749 H 1521.97 -1.51019 6.27585 0
M  V30 15750 H 1522.74 -0.638973 8.16002 0
M  V30 15751 N 1525.4 -1.4265 -0.669982 0
M  V30 15752 C 1526.65 -1.43093 -1.42719 0
M  V30 15753 C 1526.97 -0.0501228 -1.94936 0
M  V30 15754 O 1526.24 0.912077 -1.73372 0
M  V30 15755 H 1524.82 -0.526785 -0.529628 0
M  V30 15756 H 1527.48 -1.78113 -0.791324 0
M  V30 15757 H 1526.58 -2.13357 -2.27783 0
M  V30 15758 N 1526.88 0.906753 -1.28902 0
M  V30 15759 C 1528.11 1.69019 -1.19333 0
M  V30 15760 C 1528.52 1.87176 0.247065 0
M  V30 15761 O 1527.88 1.40376 1.16623 0
M  V30 15762 C 1527.93 3.07854 -1.89495 0
M  V30 15763 O 1527.65 2.90531 -3.27908 0
M  V30 15764 C 1529.15 4.02246 -1.86314 0
M  V30 15765 H 1526.37 0.528119 -0.413922 0
M  V30 15766 H 1528.91 1.13441 -1.70151 0
M  V30 15767 H 1527.07 3.60228 -1.42529 0
M  V30 15768 H 1527.48 3.78451 -3.63146 0
M  V30 15769 H 1528.96 4.97104 -2.39983 0
M  V30 15770 H 1529.43 4.31149 -0.837071 0
M  V30 15771 H 1530.04 3.55803 -2.3299 0
M  V30 15772 N 1528.36 1.11264 1.11616 0
M  V30 15773 C 1529.32 0.7726 2.15786 0
M  V30 15774 C 1530.32 -0.207145 1.5946 0
M  V30 15775 O 1531.51 0.0171053 1.74192 0
M  V30 15776 C 1528.64 0.145927 3.40588 0
M  V30 15777 H 1529.83 1.69539 2.47379 0
M  V30 15778 H 1527.39 0.914278 1.2677 0
M  V30 15779 H 1528.12 -0.787178 3.14601 0
M  V30 15780 H 1527.91 0.851161 3.8275 0
M  V30 15781 H 1529.4 -0.0759176 4.17531 0
M  V30 15782 N 1529.83 -1.29188 0.902679 0
M  V30 15783 C 1530.77 -2.25842 0.327193 0
M  V30 15784 C 1531.74 -1.52567 -0.562321 0
M  V30 15785 O 1532.93 -1.81513 -0.508462 0
M  V30 15786 C 1530.06 -3.34475 -0.533338 0
M  V30 15787 C 1529.1 -4.25518 0.289268 0
M  V30 15788 S 1529.93 -5.08168 1.68896 0
M  V30 15789 C 1531.09 -6.20299 0.835428 0
M  V30 15790 H 1531.32 -2.74307 1.14644 0
M  V30 15791 H 1528.86 -1.37456 0.703212 0
M  V30 15792 H 1530.81 -3.97522 -1.02404 0
M  V30 15793 H 1529.48 -2.84699 -1.32685 0
M  V30 15794 H 1528.67 -5.02653 -0.368218 0
M  V30 15795 H 1528.27 -3.67136 0.71322 0
M  V30 15796 H 1530.56 -6.77473 0.0601329 0
M  V30 15797 H 1531.51 -6.90271 1.57896 0
M  V30 15798 H 1531.91 -5.63162 0.388497 0
M  V30 15799 N 1531.31 -0.665475 -1.42861 0
M  V30 15800 C 1532.22 0.018927 -2.34592 0
M  V30 15801 C 1533.24 0.798967 -1.54572 0
M  V30 15802 O 1534.41 0.743419 -1.87177 0
M  V30 15803 C 1531.48 0.965013 -3.32999 0
M  V30 15804 C 1530.54 0.180544 -4.2892 0
M  V30 15805 C 1529.77 1.08157 -5.22626 0
M  V30 15806 O 1530 2.32101 -5.21043 0
M  V30 15807 O 1528.93 0.54738 -5.99406 0
M  V30 15808 H 1532.76 -0.736444 -2.94636 0
M  V30 15809 H 1530.34 -0.425684 -1.43207 0
M  V30 15810 H 1532.22 1.50839 -3.93479 0
M  V30 15811 H 1530.9 1.7004 -2.75442 0
M  V30 15812 H 1529.8 -0.40671 -3.71883 0
M  V30 15813 H 1531.14 -0.515529 -4.89493 0
M  V30 15814 N 1532.79 1.52222 -0.408187 0
M  V30 15815 C 1533.74 2.26988 0.417767 0
M  V30 15816 C 1534.71 1.29362 1.04185 0
M  V30 15817 O 1535.89 1.58223 1.06631 0
M  V30 15818 C 1533.03 3.09379 1.52901 0
M  V30 15819 C 1532.14 4.2196 0.92593 0
M  V30 15820 C 1531.28 4.91712 2.00979 0
M  V30 15821 C 1530.32 5.96258 1.3836 0
M  V30 15822 N 1529.46 6.59531 2.40756 0
M  V30 15823 H 1534.3 2.9714 -0.226228 0
M  V30 15824 H 1531.83 1.46581 -0.123402 0
M  V30 15825 H 1533.79 3.55452 2.18425 0
M  V30 15826 H 1532.42 2.41399 2.14304 0
M  V30 15827 H 1531.47 3.80064 0.159765 0
M  V30 15828 H 1532.78 4.96956 0.428497 0
M  V30 15829 H 1531.94 5.41186 2.74231 0
M  V30 15830 H 1530.68 4.16282 2.54087 0
M  V30 15831 H 1529.68 5.46104 0.636402 0
M  V30 15832 H 1530.91 6.7363 0.860218 0
M  V30 15833 H 1528.85 5.86931 2.92999 0
M  V30 15834 H 1528.77 7.30198 1.95822 0
M  V30 15835 H 1530.04 7.13643 3.13581 0
M  V30 15836 N 1534.27 0.138579 1.5699 0
M  V30 15837 C 1535.23 -0.79013 2.1515 0
M  V30 15838 C 1536.23 -1.1811 1.09117 0
M  V30 15839 O 1537.42 -1.1034 1.34798 0
M  V30 15840 C 1534.55 -2.07109 2.70774 0
M  V30 15841 H 1535.75 -0.284343 2.98549 0
M  V30 15842 H 1533.3 -0.11081 1.55907 0
M  V30 15843 H 1534.03 -2.62074 1.91018 0
M  V30 15844 H 1533.82 -1.80004 3.4834 0
M  V30 15845 H 1535.31 -2.73456 3.15613 0
M  V30 15846 N 1535.75 -1.57019 -0.13521 0
M  V30 15847 C 1536.68 -1.95769 -1.19193 0
M  V30 15848 C 1537.69 -0.854953 -1.38544 0
M  V30 15849 O 1538.88 -1.13332 -1.37906 0
M  V30 15850 C 1535.98 -2.22674 -2.55479 0
M  V30 15851 C 1535.15 -3.53972 -2.56949 0
M  V30 15852 C 1534.21 -3.69278 -3.7486 0
M  V30 15853 O 1533.24 -4.41555 -3.59191 0
M  V30 15854 N 1534.44 -3.06826 -4.92786 0
M  V30 15855 H 1537.2 -2.87022 -0.862451 0
M  V30 15856 H 1534.77 -1.58611 -0.324658 0
M  V30 15857 H 1536.76 -2.30144 -3.3289 0
M  V30 15858 H 1535.33 -1.37628 -2.80673 0
M  V30 15859 H 1534.55 -3.57836 -1.65368 0
M  V30 15860 H 1535.84 -4.40303 -2.54973 0
M  V30 15861 H 1535.23 -2.48043 -5.0842 0
M  V30 15862 H 1533.79 -3.19841 -5.67931 0
M  V30 15863 N 1537.22 0.404919 -1.52309 0
M  V30 15864 C 1538.15 1.50039 -1.78915 0
M  V30 15865 C 1539.14 1.57587 -0.640329 0
M  V30 15866 O 1540.32 1.72793 -0.886344 0
M  V30 15867 C 1537.45 2.87819 -1.94364 0
M  V30 15868 C 1536.4 2.9512 -3.09981 0
M  V30 15869 C 1535.73 4.35195 -3.10659 0
M  V30 15870 C 1537.03 2.66219 -4.4936 0
M  V30 15871 H 1538.72 1.28025 -2.70647 0
M  V30 15872 H 1536.27 0.61445 -1.30233 0
M  V30 15873 H 1538.22 3.64446 -2.11559 0
M  V30 15874 H 1536.95 3.11136 -0.993067 0
M  V30 15875 H 1535.61 2.20939 -2.92543 0
M  V30 15876 H 1535.25 4.55528 -2.13316 0
M  V30 15877 H 1534.95 4.41003 -3.88317 0
M  V30 15878 H 1536.48 5.1375 -3.29989 0
M  V30 15879 H 1537.89 3.32567 -4.66982 0
M  V30 15880 H 1536.29 2.83398 -5.28967 0
M  V30 15881 H 1537.36 1.61636 -4.57167 0
M  V30 15882 N 1538.7 1.43003 0.662408 0
M  V30 15883 C 1539.65 1.47448 1.77561 0
M  V30 15884 C 1540.62 0.325121 1.62887 0
M  V30 15885 O 1541.8 0.530971 1.83263 0
M  V30 15886 C 1538.94 1.3946 3.15666 0
M  V30 15887 C 1538.06 2.64529 3.41539 0
M  V30 15888 C 1537.19 2.48594 4.69441 0
M  V30 15889 C 1536.23 3.68976 4.88388 0
M  V30 15890 N 1535.37 3.51908 6.0754 0
M  V30 15891 H 1540.21 2.42573 1.73097 0
M  V30 15892 H 1537.75 1.2042 0.84484 0
M  V30 15893 H 1539.7 1.32824 3.95492 0
M  V30 15894 H 1538.33 0.479227 3.19223 0
M  V30 15895 H 1537.39 2.81481 2.55877 0
M  V30 15896 H 1538.7 3.53977 3.51429 0
M  V30 15897 H 1537.85 2.39614 5.57378 0
M  V30 15898 H 1536.59 1.56656 4.61855 0
M  V30 15899 H 1535.6 3.78374 3.9889 0
M  V30 15900 H 1536.82 4.61911 4.9781 0
M  V30 15901 H 1534.77 2.62697 6.01104 0
M  V30 15902 H 1534.68 4.34951 6.18347 0
M  V30 15903 H 1535.95 3.46763 6.98123 0
M  V30 15904 N 1540.18 -0.899904 1.29381 0
M  V30 15905 C 1541.59 -1.46563 1.15655 0
M  V30 15906 C 1541.94 -1.94622 -0.248375 0
M  V30 15907 O 1541.07 -1.83698 -1.14386 0
M  V30 15908 C 1541.66 -2.66384 2.09344 0
M  V30 15909 C 1540.22 -3.19093 1.99641 0
M  V30 15910 C 1539.37 -1.91786 2.00283 0
M  V30 15911 H 1542.32 -0.711264 1.41869 0
M  V30 15912 H 1542.34 -3.42111 1.66554 0
M  V30 15913 H 1541.85 -2.31376 3.11587 0
M  V30 15914 H 1539.95 -3.58795 1.00485 0
M  V30 15915 H 1540.07 -3.83405 2.87293 0
M  V30 15916 H 1538.43 -2.09482 1.44878 0
M  V30 15917 H 1539.21 -1.59055 3.04231 0
M  V30 15918 N 1541.66 -1.11854 -1.11024 0
M  V30 15919 C 1543.07 -0.885443 -1.64368 0
M  V30 15920 C 1543.42 0.581455 -1.87386 0
M  V30 15921 O 1542.55 1.44452 -1.61129 0
M  V30 15922 C 1543.14 -1.60082 -2.98595 0
M  V30 15923 C 1541.7 -1.41403 -3.4883 0
M  V30 15924 C 1540.85 -1.64069 -2.23555 0
M  V30 15925 H 1543.8 -1.27418 -0.94606 0
M  V30 15926 H 1543.82 -1.04832 -3.65774 0
M  V30 15927 H 1543.33 -2.66842 -2.8181 0
M  V30 15928 H 1541.43 -0.368727 -3.70771 0
M  V30 15929 H 1541.54 -2.16603 -4.27341 0
M  V30 15930 H 1539.91 -1.06437 -2.31394 0
M  V30 15931 H 1540.69 -2.72112 -2.09308 0
M  V30 15932 N 1543.14 1.28707 -0.909517 0
M  V30 15933 C 1544.1 2.25692 -0.39946 0
M  V30 15934 C 1545.1 1.53721 0.471848 0
M  V30 15935 O 1546.29 1.72008 0.275504 0
M  V30 15936 C 1543.42 3.38205 0.427793 0
M  V30 15937 H 1544.61 2.72326 -1.25613 0
M  V30 15938 H 1542.17 1.40317 -0.688535 0
M  V30 15939 H 1542.9 2.96926 1.30404 0
M  V30 15940 H 1542.69 3.91606 -0.19667 0
M  V30 15941 H 1544.18 4.10334 0.775634 0
M  V30 15942 N 1544.61 0.673042 1.42506 0
M  V30 15943 C 1545.84 0.202922 2.05902 0
M  V30 15944 C 1546.26 -1.13923 1.50556 0
M  V30 15945 O 1545.61 -1.70735 0.644662 0
M  V30 15946 C 1545.67 0.12735 3.61276 0
M  V30 15947 O 1545.39 1.41646 4.1457 0
M  V30 15948 C 1546.89 -0.366477 4.41783 0
M  V30 15949 H 1544.11 0.0991021 0.663641 0
M  V30 15950 H 1546.65 0.919282 1.82673 0
M  V30 15951 H 1544.81 -0.539687 3.83622 0
M  V30 15952 H 1545.22 1.28866 5.08423 0
M  V30 15953 H 1546.69 -0.368267 5.5077 0
M  V30 15954 H 1547.17 -1.40142 4.16241 0
M  V30 15955 H 1547.78 0.268761 4.2445 0
M  V30 15956 N 1546.09 -1.52004 0.416254 0
M  V30 15957 C 1547.32 -2.0679 -0.158937 0
M  V30 15958 C 1547.74 -1.28366 -1.37491 0
M  V30 15959 O 1547.1 -0.315815 -1.78528 0
M  V30 15960 C 1547.15 -3.57381 -0.480717 0
M  V30 15961 O 1546.25 -3.81321 -1.5706 0
M  V30 15962 H 1545.59 -0.663907 -0.0110938 0
M  V30 15963 H 1548.12 -1.95863 0.591509 0
M  V30 15964 H 1548.13 -4.01283 -0.737297 0
M  V30 15965 H 1546.81 -4.13893 0.408137 0
M  V30 15966 H 1545.39 -3.49296 -1.30563 0
M  V30 15967 N 1547.57 -0.146903 -1.56914 0
M  V30 15968 C 1548.85 0.549291 -1.87729 0
M  V30 15969 C 1549.23 1.82971 -1.05284 0
M  V30 15970 O 1548.58 2.28073 -0.139628 0
M  V30 15971 C 1548.79 0.814835 -3.39354 0
M  V30 15972 C 1550.13 1.15565 -4.0857 0
M  V30 15973 O 1551.16 0.904191 -3.44533 0
M  V30 15974 O 1550.02 1.62886 -5.21661 0
M  V30 15975 H 1547.11 0.280196 -0.778087 0
M  V30 15976 H 1549.66 -0.183507 -1.68705 0
M  V30 15977 H 1548.43 -0.0913527 -3.91193 0
M  V30 15978 H 1548.05 1.60182 -3.63906 0
M  V30 15979 N 1549.05 1.57088 0.126881 0
M  V30 15980 C 1550.01 1.98836 1.14003 0
M  V30 15981 C 1551.01 0.877454 1.34749 0
M  V30 15982 O 1552.2 1.14366 1.314 0
M  V30 15983 C 1549.33 2.32171 2.49618 0
M  V30 15984 H 1550.53 2.89541 0.7814 0
M  V30 15985 H 1548.08 1.51835 0.370915 0
M  V30 15986 H 1548.81 1.44321 2.90417 0
M  V30 15987 H 1548.6 3.13187 2.35916 0
M  V30 15988 H 1550.09 2.65238 3.2255 0
M  V30 15989 O 1550.57 -0.271318 1.59205 0
M  V30 15990 H 1551.26 -0.916383 1.70652 0
M  V30 END ATOM
M  V30 BEGIN BOND
M  V30 END BOND
M  V30 END CTAB
M  END
$$$$
