drugbank_target|P52564 Dual specificity mitogen-activated protein kinase kinase 6 (DB12010)
 OpenBabel12092121163D

  0  0  0     0  0            999 V3000
M  V30 BEGIN CTAB
M  V30 COUNTS 5297 5352 0 0 0
M  V30 BEGIN ATOM
M  V30 1 H -0.908 1.98254 -0.117106 0
M  V30 2 N 0 1.576 0 0
M  V30 3 C 0.933 2.03868 1.02534 0
M  V30 4 C 1.911 0.928543 1.3348 0
M  V30 5 O 3.095 1.19667 1.45644 0
M  V30 6 C 0.222 2.43627 2.35294 0
M  V30 7 C -0.732 3.65373 2.2001 0
M  V30 8 S 0.101 5.13292 1.52614 0
M  V30 9 C 1.257 5.56322 2.86805 0
M  V30 10 H 1.49 2.90518 0.631377 0
M  V30 11 H -0.977 1.52953 0.210867 0
M  V30 12 H 0.981 2.67203 3.11629 0
M  V30 13 H -0.358 1.57376 2.7183 0
M  V30 14 H -1.165 3.90944 3.18086 0
M  V30 15 H -1.563 3.418 1.51819 0
M  V30 16 H 0.729 5.58782 3.83104 0
M  V30 17 H 1.672 6.56266 2.65933 0
M  V30 18 H 2.08 4.83886 2.90714 0
M  V30 19 N 1.4781 -0.272755 1.55222 0
M  V30 20 C 2.7031 -1.02683 1.80197 0
M  V30 21 C 3.1281 -1.79142 0.573551 0
M  V30 22 O 2.4861 -1.74917 -0.476849 0
M  V30 23 C 2.5341 -1.9609 3.02624 0
M  V30 24 O 1.6381 -3.04863 2.77727 0
M  V30 25 H 0.9791 -0.293557 0.595584 0
M  V30 26 H 3.5091 -0.30159 2.02365 0
M  V30 27 H 3.5191 -2.38039 3.31363 0
M  V30 28 H 2.1941 -1.39851 3.91682 0
M  V30 29 H 0.7711 -2.67228 2.60084 0
M  V30 30 N 2.9562 -1.48159 -0.537278 0
M  V30 31 C 3.8882 -1.58218 -1.65831 0
M  V30 32 C 4.9012 -0.466948 -1.5596 0
M  V30 33 O 6.0902 -0.73747 -1.62553 0
M  V30 34 C 3.1902 -1.48906 -3.04434 0
M  V30 35 C 2.3632 -2.75343 -3.3986 0
M  V30 36 C 1.4222 -2.59588 -4.57712 0
M  V30 37 O 0.4482 -3.33457 -4.61297 0
M  V30 38 N 1.6502 -1.68724 -5.55439 0
M  V30 39 H 4.4152 -2.54891 -1.57641 0
M  V30 40 H 1.9762 -1.4479 -0.724386 0
M  V30 41 H 3.9682 -1.36072 -3.81139 0
M  V30 42 H 2.5382 -0.602368 -3.06741 0
M  V30 43 H 1.7582 -3.02795 -2.52406 0
M  V30 44 H 3.0462 -3.5924 -3.60311 0
M  V30 45 H 2.4442 -1.07898 -5.55315 0
M  V30 46 H 1.0012 -1.61832 -6.3139 0
M  V30 47 N 4.4343 0.785586 -1.36625 0
M  V30 48 C 5.6593 1.57963 -1.34397 0
M  V30 49 C 6.0843 1.87964 0.071526 0
M  V30 50 O 5.4423 1.48182 1.0446 0
M  V30 51 C 5.4903 2.87511 -2.17646 0
M  V30 52 O 4.5943 3.81281 -1.57158 0
M  V30 53 H 3.9353 0.479014 -0.459828 0
M  V30 54 H 6.4653 0.973411 -1.79961 0
M  V30 55 H 6.4753 3.36745 -2.30362 0
M  V30 56 H 5.1503 2.65002 -3.20541 0
M  V30 57 H 3.7273 3.39885 -1.53403 0
M  V30 58 N 5.9124 1.20967 1.01018 0
M  V30 59 C 6.8594 0.964281 2.09691 0
M  V30 60 C 7.8294 -0.107853 1.65749 0
M  V30 61 O 9.0144 0.0381987 1.90762 0
M  V30 62 C 6.1544 0.52943 3.41015 0
M  V30 63 C 5.2674 1.67043 3.98398 0
M  V30 64 C 4.4024 1.18525 5.17808 0
M  V30 65 C 3.4414 2.29892 5.67288 0
M  V30 66 N 2.5784 1.82546 6.77954 0
M  V30 67 H 7.4184 1.89463 2.30017 0
M  V30 68 H 4.9554 0.944289 1.1279 0
M  V30 69 H 6.9134 0.258588 4.16398 0
M  V30 70 H 5.5434 -0.363919 3.20742 0
M  V30 71 H 4.5954 2.05603 3.20049 0
M  V30 72 H 5.9074 2.50877 4.31117 0
M  V30 73 H 5.0614 0.870762 6.00419 0
M  V30 74 H 3.8004 0.316887 4.86669 0
M  V30 75 H 2.8054 2.6215 4.83278 0
M  V30 76 H 4.0304 3.17216 6.00459 0
M  V30 77 H 1.9764 0.980454 6.48632 0
M  V30 78 H 1.8934 2.59956 7.09901 0
M  V30 79 H 3.1614 1.54115 7.64113 0
M  V30 80 N 7.3905 -1.2043 1.01659 0
M  V30 81 C 8.6385 -1.89423 0.704522 0
M  V30 82 C 8.9595 -1.79231 -0.768197 0
M  V30 83 O 8.2295 -1.1947 -1.55254 0
M  V30 84 H 6.8095 -0.701178 0.257602 0
M  V30 85 H 9.4715 -1.4626 1.28818 0
M  V30 86 H 8.5675 -2.96052 0.987916 0
M  V30 87 N 8.8686 -0.792821 -1.36206 0
M  V30 88 C 9.8156 -0.191653 -2.30003 0
M  V30 89 C 10.7856 0.666453 -1.52143 0
M  V30 90 O 11.9706 0.61442 -1.80636 0
M  V30 91 C 9.1106 0.664848 -3.38635 0
M  V30 92 C 8.2236 -0.212175 -4.31479 0
M  V30 93 C 7.3586 0.651022 -5.27196 0
M  V30 94 C 6.3976 -0.227247 -6.11678 0
M  V30 95 N 5.5346 0.595127 -6.99573 0
M  V30 96 H 10.3746 -0.996978 -2.80828 0
M  V30 97 H 7.9116 -0.503206 -1.38225 0
M  V30 98 H 9.8696 1.17645 -4.00269 0
M  V30 99 H 8.4996 1.43557 -2.89122 0
M  V30 100 H 7.5516 -0.841777 -3.70969 0
M  V30 101 H 8.8636 -0.888751 -4.90818 0
M  V30 102 H 8.0176 1.2283 -5.94136 0
M  V30 103 H 6.7566 1.36121 -4.68319 0
M  V30 104 H 5.7616 -0.816904 -5.43697 0
M  V30 105 H 6.9866 -0.93509 -6.72631 0
M  V30 106 H 4.9326 1.28955 -6.432 0
M  V30 107 H 4.8496 -0.0236952 -7.55996 0
M  V30 108 H 6.1176 1.15613 -7.70879 0
M  V30 109 N 10.3467 1.47872 -0.545128 0
M  V30 110 C 11.2937 2.29849 0.2093 0
M  V30 111 C 12.2637 1.38313 0.919707 0
M  V30 112 O 13.4487 1.67277 0.917772 0
M  V30 113 C 10.5887 3.22019 1.24088 0
M  V30 114 C 9.7017 4.2864 0.537778 0
M  V30 115 C 8.8367 5.07973 1.5536 0
M  V30 116 C 7.8757 6.06381 0.8348 0
M  V30 117 N 7.0127 6.78717 1.79688 0
M  V30 118 H 11.8527 2.93845 -0.49591 0
M  V30 119 H 9.3897 1.44848 -0.256389 0
M  V30 120 H 11.3477 3.73868 1.85144 0
M  V30 121 H 9.9777 2.59914 1.91428 0
M  V30 122 H 9.0297 3.7994 -0.187046 0
M  V30 123 H 10.3417 4.98793 -0.0258907 0
M  V30 124 H 9.4957 5.63912 2.23803 0
M  V30 125 H 8.2347 4.37693 2.15118 0
M  V30 126 H 7.2397 5.49631 0.136388 0
M  V30 127 H 8.4647 6.78665 0.24313 0
M  V30 128 H 6.4107 6.11177 2.38326 0
M  V30 129 H 6.3277 7.44998 1.28505 0
M  V30 130 H 7.5957 7.39237 2.47282 0
M  V30 131 N 11.8248 0.280983 1.55075 0
M  V30 132 C 13.2408 -0.0729964 1.59433 0
M  V30 133 C 13.4408 -1.5411 1.29817 0
M  V30 134 O 12.4968 -2.29086 1.06187 0
M  V30 135 C 13.8098 0.306921 2.9913 0
M  V30 136 C 15.3578 0.254023 3.11968 0
M  V30 137 C 15.8328 0.608467 4.5394 0
M  V30 138 N 17.3238 0.560241 4.59799 0
M  V30 139 C 18.0588 0.80722 5.6769 0
M  V30 140 N 17.5548 1.11912 6.83701 0
M  V30 141 N 19.3478 0.735623 5.57266 0
M  V30 142 H 11.4988 1.238 1.7259 0
M  V30 143 H 13.7618 0.500547 0.805082 0
M  V30 144 H 13.4678 1.32816 3.25657 0
M  V30 145 H 13.3418 -0.349363 3.75579 0
M  V30 146 H 15.7288 -0.75794 2.852 0
M  V30 147 H 15.8098 0.944649 2.37718 0
M  V30 148 H 15.4538 1.61814 4.81434 0
M  V30 149 H 15.3838 -0.104013 5.26497 0
M  V30 150 H 17.8748 0.329288 3.76463 0
M  V30 151 H 18.1878 1.29409 7.61888 0
M  V30 152 H 16.5328 1.15695 6.85303 0
M  V30 153 H 19.7238 0.491752 4.6551 0
M  V30 154 H 19.8968 0.931482 6.4127 0
M  V30 155 N 13.3029 -1.57598 0.00835791 0
M  V30 156 C 14.2509 -2.10078 -0.998508 0
M  V30 157 C 15.2449 -1.02262 -1.35051 0
M  V30 158 O 16.4509 -1.20719 -1.33518 0
M  V30 159 H 12.8259 -0.670903 -0.339696 0
M  V30 160 H 14.7969 -2.93648 -0.530398 0
M  V30 161 C 13.5459 -2.62615 -2.27879 0
M  V30 162 H 12.8689 -3.45213 -2.01662 0
M  V30 163 H 14.3089 -3.03004 -2.96588 0
M  V30 164 C 12.7679 -1.54407 -2.99433 0
M  V30 165 O 13.2979 -0.931812 -3.90743 0
M  V30 166 N 11.5039 -1.2695 -2.61404 0
M  V30 167 H 11.0509 -1.76924 -1.87232 0
M  V30 168 H 11.0089 -0.547704 -3.09593 0
M  V30 169 N 14.781 0.264519 -1.55364 0
M  V30 170 C 16.192 0.834936 -1.6699 0
M  V30 171 C 16.543 1.86718 -0.602552 0
M  V30 172 O 15.668 2.14899 0.254425 0
M  V30 173 C 16.263 1.5212 -3.02729 0
M  V30 174 C 14.822 2.03954 -3.16354 0
M  V30 175 C 13.969 0.884498 -2.62815 0
M  V30 176 H 16.92 0.0406869 -1.58648 0
M  V30 177 H 16.941 2.38853 -2.96191 0
M  V30 178 H 16.453 0.769668 -3.80392 0
M  V30 179 H 14.554 2.82041 -2.43482 0
M  V30 180 H 14.667 2.24902 -4.23032 0
M  V30 181 H 13.031 1.2802 -2.20188 0
M  V30 182 H 13.814 0.14634 -3.42988 0
M  V30 183 N 16.2591 1.48442 0.529413 0
M  V30 184 C 17.5071 1.56179 1.28267 0
M  V30 185 C 17.8281 0.237721 1.93546 0
M  V30 186 O 17.0981 -0.740779 1.81354 0
M  V30 187 H 15.6781 0.575367 0.476405 0
M  V30 188 H 18.3401 1.84909 0.61602 0
M  V30 189 H 17.4361 2.34312 2.06165 0
M  V30 190 N 17.7372 -0.778329 1.37039 0
M  V30 191 C 18.6672 -1.90546 1.34962 0
M  V30 192 C 19.6482 -1.68681 0.219274 0
M  V30 193 O 20.8332 -1.89634 0.418624 0
M  V30 194 C 17.9632 -3.27734 1.14925 0
M  V30 195 C 16.9172 -3.64147 2.24902 0
M  V30 196 C 16.2432 -4.99806 1.89996 0
M  V30 197 C 17.5432 -3.71579 3.67051 0
M  V30 198 H 19.2372 -1.92541 2.29277 0
M  V30 199 H 16.7832 -0.924948 1.10366 0
M  V30 200 H 18.7362 -4.06215 1.12104 0
M  V30 201 H 17.4602 -3.26154 0.170631 0
M  V30 202 H 16.1192 -2.8797 2.26868 0
M  V30 203 H 15.7672 -4.94759 0.906796 0
M  V30 204 H 15.4672 -5.25139 2.63634 0
M  V30 205 H 16.9912 -5.80694 1.88749 0
M  V30 206 H 18.4052 -4.40227 3.67251 0
M  V30 207 H 16.8022 -4.08405 4.39688 0
M  V30 208 H 17.8722 -2.72404 4.01154 0
M  V30 209 N 19.2153 -1.21501 -1.00376 0
M  V30 210 C 20.1623 -0.975387 -2.09177 0
M  V30 211 C 21.1323 0.0990615 -1.65804 0
M  V30 212 O 22.3173 -0.0483147 -1.90739 0
M  V30 213 C 19.4573 -0.547507 -3.40729 0
M  V30 214 C 18.5703 -1.69153 -3.97506 0
M  V30 215 C 17.7053 -1.2127 -5.17172 0
M  V30 216 C 16.7443 -2.32897 -5.66061 0
M  V30 217 N 15.8813 -1.86138 -6.76976 0
M  V30 218 H 20.7213 -1.9068 -2.29009 0
M  V30 219 H 18.2583 -0.950257 -1.12288 0
M  V30 220 H 20.2163 -0.280667 -4.16255 0
M  V30 221 H 18.8463 0.346904 -3.20931 0
M  V30 222 H 17.8983 -2.07298 -3.18954 0
M  V30 223 H 19.2103 -2.5316 -4.29781 0
M  V30 224 H 18.3643 -0.902591 -5.99948 0
M  V30 225 H 17.1033 -0.342692 -4.86495 0
M  V30 226 H 16.1083 -2.64709 -4.81881 0
M  V30 227 H 17.3333 -3.20396 -5.98768 0
M  V30 228 H 15.2793 -1.01484 -6.48103 0
M  V30 229 H 15.1963 -2.63717 -7.08512 0
M  V30 230 H 16.4643 -1.58165 -7.63285 0
M  V30 231 N 20.6934 1.19889 -1.02296 0
M  V30 232 C 21.9424 1.88743 -0.711257 0
M  V30 233 C 22.2554 1.80112 0.762817 0
M  V30 234 O 23.4614 2.44161 1.18733 0
M  V30 235 C 21.9174 3.38525 -1.22185 0
M  V30 236 C 21.5254 3.55727 -2.72328 0
M  V30 237 C 23.2694 4.12893 -0.985864 0
M  V30 238 C 21.1764 4.99369 -3.16835 0
M  V30 239 H 20.1064 0.706885 -0.262353 0
M  V30 240 H 22.7574 1.35586 -1.23648 0
M  V30 241 H 21.1394 3.91044 -0.624571 0
M  V30 242 H 22.3134 3.13564 -3.3766 0
M  V30 243 H 20.6284 2.94739 -2.9414 0
M  V30 244 H 23.2254 5.18813 -1.29374 0
M  V30 245 H 23.5684 4.16228 0.0775055 0
M  V30 246 H 24.1014 3.66494 -1.54684 0
M  V30 247 H 20.8404 5.01193 -4.22476 0
M  V30 248 H 20.3604 5.42317 -2.56228 0
M  V30 249 H 22.0394 5.67988 -3.09837 0
M  V30 250 N 22.1715 0.800033 1.35784 0
M  V30 251 C 23.5825 0.439142 1.81462 0
M  V30 252 C 23.9335 -1.03813 1.66485 0
M  V30 253 O 23.0585 -1.80626 1.19177 0
M  V30 254 C 23.6535 0.790314 3.29453 0
M  V30 255 C 22.2125 0.482111 3.733 0
M  V30 256 C 21.3595 1.01938 2.57883 0
M  V30 257 H 24.3105 0.992254 1.23855 0
M  V30 258 H 24.3315 0.0853677 3.80404 0
M  V30 259 H 23.8435 1.86554 3.40322 0
M  V30 260 H 21.9445 -0.584652 3.67984 0
M  V30 261 H 22.0575 1.01015 4.6833 0
M  V30 262 H 20.4215 0.442043 2.50835 0
M  V30 263 H 21.2045 2.10059 2.71533 0
M  V30 264 N 23.6496 -1.47581 0.552962 0
M  V30 265 C 24.5966 -2.29957 -0.197108 0
M  V30 266 C 25.5666 -1.38799 -0.912359 0
M  V30 267 O 26.7516 -1.67761 -0.908888 0
M  V30 268 C 23.8916 -3.22672 -1.22379 0
M  V30 269 C 23.0046 -4.28919 -0.515038 0
M  V30 270 C 22.1396 -5.0879 -1.52664 0
M  V30 271 C 21.1786 -6.06815 -0.802631 0
M  V30 272 N 20.3156 -6.7966 -1.76086 0
M  V30 273 H 25.1556 -2.93578 0.511486 0
M  V30 274 H 22.6926 -1.4471 0.264067 0
M  V30 275 H 24.6506 -3.74845 -1.83159 0
M  V30 276 H 23.2806 -2.60925 -1.90047 0
M  V30 277 H 22.3326 -3.79835 0.207192 0
M  V30 278 H 23.6446 -4.98773 0.0523425 0
M  V30 279 H 22.7986 -5.65091 -2.20809 0
M  V30 280 H 21.5376 -4.38828 -2.12794 0
M  V30 281 H 20.5426 -5.49695 -0.107238 0
M  V30 282 H 21.7676 -6.78784 -0.207135 0
M  V30 283 H 19.7136 -6.12432 -2.35081 0
M  V30 284 H 19.6306 -7.45669 -1.24552 0
M  V30 285 H 20.8986 -7.40538 -2.43359 0
M  V30 286 N 25.1277 -0.289203 -1.54924 0
M  V30 287 C 26.0377 0.601863 -2.26748 0
M  V30 288 C 27.0537 1.15834 -1.2984 0
M  V30 289 O 28.2297 1.18564 -1.62802 0
M  V30 290 C 25.2947 1.76299 -2.98529 0
M  V30 291 C 24.3557 1.24178 -4.10948 0
M  V30 292 C 23.5887 2.34757 -4.79296 0
M  V30 293 O 23.8117 3.54411 -4.46933 0
M  V30 294 O 22.7457 2.02115 -5.66951 0
M  V30 295 H 26.5717 0.0195879 -3.03694 0
M  V30 296 H 24.1567 -0.0560868 -1.49295 0
M  V30 297 H 26.0387 2.43973 -3.43592 0
M  V30 298 H 24.7137 2.33209 -2.24488 0
M  V30 299 H 23.6207 0.531104 -3.70311 0
M  V30 300 H 24.9537 0.718252 -4.86931 0
M  V30 301 N 26.6058 1.57591 -0.0167156 0
M  V30 302 C 27.5688 2.08393 0.954204 0
M  V30 303 C 28.5688 0.996531 1.26198 0
M  V30 304 O 29.7588 1.25858 1.20438 0
M  V30 305 C 26.8908 2.5394 2.27436 0
M  V30 306 H 28.0838 2.95455 0.514451 0
M  V30 307 H 25.6368 1.54582 0.231089 0
M  V30 308 H 26.3718 1.70171 2.76066 0
M  V30 309 H 26.1568 3.33371 2.06412 0
M  V30 310 H 27.6468 2.93512 2.97053 0
M  V30 311 N 28.0839 -0.256276 1.55502 0
M  V30 312 C 29.3309 -0.985619 1.76895 0
M  V30 313 C 29.6589 -1.85671 0.579355 0
M  V30 314 O 28.9139 -1.90744 -0.437651 0
M  V30 315 C 29.2129 -1.88432 3.03691 0
M  V30 316 C 28.8789 -1.16936 4.35473 0
M  V30 317 C 27.5409 -0.97173 4.71286 0
M  V30 318 C 29.8929 -0.661889 5.1698 0
M  V30 319 C 27.2209 -0.254179 5.86149 0
M  V30 320 C 29.5729 0.042149 6.32586 0
M  V30 321 C 28.2369 0.25134 6.67027 0
M  V30 322 H 27.5069 -0.360663 0.647304 0
M  V30 323 H 30.1539 -0.256483 1.89775 0
M  V30 324 H 28.4589 -2.68021 2.85783 0
M  V30 325 H 30.1559 -2.45015 3.1744 0
M  V30 326 H 26.7459 -1.33332 4.07333 0
M  V30 327 H 30.9299 -0.802145 4.89775 0
M  V30 328 H 26.1859 -0.0815408 6.11346 0
M  V30 329 H 30.3599 0.443049 6.94989 0
M  V30 330 H 27.9869 0.809314 7.5588 0
M  V30 331 N 29.562 -1.4872 -0.521534 0
M  V30 332 C 30.472 -1.66569 -1.65203 0
M  V30 333 C 31.488 -0.548197 -1.65139 0
M  V30 334 O 32.664 -0.820339 -1.83936 0
M  V30 335 C 29.729 -1.70917 -3.01642 0
M  V30 336 C 28.79 -2.94356 -3.12495 0
M  V30 337 C 28.023 -2.98487 -4.42426 0
M  V30 338 O 28.246 -2.10786 -5.30024 0
M  V30 339 O 27.18 -3.90746 -4.57822 0
M  V30 340 H 31.006 -2.62298 -1.5308 0
M  V30 341 H 28.591 -1.3222 -0.695565 0
M  V30 342 H 30.473 -1.7625 -3.82771 0
M  V30 343 H 29.148 -0.783633 -3.14071 0
M  V30 344 H 28.055 -2.94552 -2.3063 0
M  V30 345 H 29.388 -3.86322 -3.04986 0
M  V30 346 N 31.0401 0.771051 -1.3745 0
M  V30 347 C 31.9721 1.89352 -1.29146 0
M  V30 348 C 32.9851 1.61477 -0.207124 0
M  V30 349 O 34.1741 1.72382 -0.463324 0
M  V30 350 C 31.2741 3.24596 -0.974195 0
M  V30 351 C 30.4471 3.80111 -2.16413 0
M  V30 352 C 29.5061 4.93832 -1.81703 0
M  V30 353 O 28.5321 5.09382 -2.54006 0
M  V30 354 N 29.7341 5.75483 -0.761573 0
M  V30 355 H 32.4991 1.96991 -2.25864 0
M  V30 356 H 30.0601 0.950191 -1.31084 0
M  V30 357 H 32.0521 3.98193 -0.722828 0
M  V30 358 H 30.6221 3.12454 -0.0955527 0
M  V30 359 H 29.8421 2.98284 -2.57721 0
M  V30 360 H 31.1301 4.13932 -2.95867 0
M  V30 361 H 30.5281 5.65469 -0.161609 0
M  V30 362 H 29.0851 6.49302 -0.570064 0
M  V30 363 N 32.5182 1.22032 0.997298 0
M  V30 364 C 33.9292 1.0397 1.55071 0
M  V30 365 C 34.2802 -0.398192 1.92117 0
M  V30 366 O 33.4052 -1.28254 1.74298 0
M  V30 367 C 34.0002 1.88109 2.81781 0
M  V30 368 C 32.5592 1.74357 3.33581 0
M  V30 369 C 31.7062 1.84846 2.06706 0
M  V30 370 H 34.6572 1.35941 0.818883 0
M  V30 371 H 34.6782 1.39589 3.53971 0
M  V30 372 H 34.1902 2.92754 2.54787 0
M  V30 373 H 32.2912 0.72427 3.65493 0
M  V30 374 H 32.4042 2.56772 4.04481 0
M  V30 375 H 30.7682 1.28238 2.20062 0
M  V30 376 H 31.5512 2.91014 1.82114 0
M  V30 377 N 33.9963 -1.19345 1.0293 0
M  V30 378 C 34.9283 -2.22036 0.56857 0
M  V30 379 C 35.9413 -1.58865 -0.355779 0
M  V30 380 O 37.1303 -1.77851 -0.152103 0
M  V30 381 C 34.2303 -3.38363 -0.190752 0
M  V30 382 C 33.4033 -4.31118 0.738643 0
M  V30 383 C 32.4623 -5.26194 0.0246497 0
M  V30 384 O 31.4883 -5.65461 0.651354 0
M  V30 385 N 32.6903 -5.66971 -1.24594 0
M  V30 386 H 35.4553 -2.6219 1.45177 0
M  V30 387 H 33.0163 -1.34015 0.908381 0
M  V30 388 H 35.0083 -3.98981 -0.677961 0
M  V30 389 H 33.5783 -2.96994 -0.975366 0
M  V30 390 H 32.7983 -3.68276 1.40593 0
M  V30 391 H 34.0863 -4.90001 1.37029 0
M  V30 392 H 33.4843 -5.37104 -1.77583 0
M  V30 393 H 32.0413 -6.2984 -1.67764 0
M  V30 394 N 35.4744 -0.807222 -1.35358 0
M  V30 395 C 36.7024 -0.400377 -2.02989 0
M  V30 396 C 37.1174 0.988859 -1.60832 0
M  V30 397 O 36.4744 1.63729 -0.806175 0
M  V30 398 C 36.5254 -0.474867 -3.58368 0
M  V30 399 O 36.2464 -1.80933 -3.98992 0
M  V30 400 C 37.7474 -0.0609112 -4.43258 0
M  V30 401 H 34.9674 -0.162587 -0.651004 0
M  V30 402 H 37.5114 -1.09102 -1.72965 0
M  V30 403 H 35.6664 0.167534 -3.87038 0
M  V30 404 H 36.0804 -1.77256 -4.9364 0
M  V30 405 H 37.5544 -0.164145 -5.51756 0
M  V30 406 H 38.0314 0.993831 -4.27808 0
M  V30 407 H 38.6374 -0.676492 -4.19885 0
M  V30 408 N 36.9525 1.47285 -0.560781 0
M  V30 409 C 38.1775 2.07359 -0.0410566 0
M  V30 410 C 38.6025 1.41017 1.24483 0
M  V30 411 O 37.9605 0.486368 1.74654 0
M  V30 412 C 38.0085 3.6035 0.134123 0
M  V30 413 O 37.1125 3.94681 1.19587 0
M  V30 414 H 36.4535 0.661887 -0.0529291 0
M  V30 415 H 38.9835 1.89252 -0.777482 0
M  V30 416 H 38.9935 4.0652 0.347207 0
M  V30 417 H 37.6685 4.08034 -0.805047 0
M  V30 418 H 36.2455 3.60251 0.962987 0
M  V30 419 N 38.4306 0.297415 1.54768 0
M  V30 420 C 39.6556 -0.318435 2.04941 0
M  V30 421 C 40.0806 -1.4701 1.17345 0
M  V30 422 O 39.4386 -1.80436 0.176758 0
M  V30 423 C 39.4866 -0.755749 3.52592 0
M  V30 424 O 38.5906 -1.86088 3.68028 0
M  V30 425 H 37.9316 -0.062421 0.661059 0
M  V30 426 H 40.4616 0.438215 1.99852 0
M  V30 427 H 40.4716 -1.04552 3.94376 0
M  V30 428 H 39.1466 0.0867233 4.1581 0
M  V30 429 H 37.7236 -1.57193 3.38149 0
M  V30 430 N 39.9087 -1.5758 0.0250728 0
M  V30 431 C 41.1367 -1.9593 -0.664747 0
M  V30 432 C 41.5517 -0.901352 -1.65895 0
M  V30 433 O 40.9087 0.117255 -1.82123 0
M  V30 434 C 40.9597 -3.34342 -1.37468 0
M  V30 435 O 40.6807 -4.36079 -0.420324 0
M  V30 436 C 42.1817 -3.873 -2.1567 0
M  V30 437 H 39.4017 -0.645405 -0.183557 0
M  V30 438 H 41.9457 -2.04329 0.0836372 0
M  V30 439 H 40.1007 -3.27175 -2.0745 0
M  V30 440 H 40.5147 -5.16297 -0.923991 0
M  V30 441 H 41.9887 -4.86504 -2.60803 0
M  V30 442 H 42.4657 -3.21331 -2.99405 0
M  V30 443 H 43.0717 -3.97723 -1.50654 0
M  V30 444 N 41.3868 0.248026 -1.55636 0
M  V30 445 C 42.7978 0.817177 -1.67866 0
M  V30 446 C 43.1488 1.86069 -0.622322 0
M  V30 447 O 42.2738 2.15157 0.231618 0
M  V30 448 C 42.8688 1.489 -3.04326 0
M  V30 449 C 41.4278 2.00587 -3.185 0
M  V30 450 C 40.5748 0.856573 -2.63739 0
M  V30 451 H 43.5258 0.0238579 -1.58682 0
M  V30 452 H 43.5468 2.35698 -2.98708 0
M  V30 453 H 43.0588 0.729279 -3.81186 0
M  V30 454 H 41.1598 2.79443 -2.4646 0
M  V30 455 H 41.2728 2.20402 -4.25393 0
M  V30 456 H 39.6368 1.25678 -2.21534 0
M  V30 457 H 40.4198 0.109953 -3.43124 0
M  V30 458 N 42.8649 1.48995 0.513639 0
M  V30 459 C 44.2759 1.5119 1.09537 0
M  V30 460 C 44.6269 0.290906 1.94031 0
M  V30 461 O 43.7519 -0.60049 2.07902 0
M  V30 462 C 44.3469 2.73964 1.99322 0
M  V30 463 C 42.9059 2.78978 2.52682 0
M  V30 464 C 42.0529 2.44934 1.30009 0
M  V30 465 H 45.0039 1.55875 0.298125 0
M  V30 466 H 45.0249 2.53409 2.83838 0
M  V30 467 H 44.5369 3.62813 1.37799 0
M  V30 468 H 42.6379 1.94378 3.1788 0
M  V30 469 H 42.7509 3.8083 2.90698 0
M  V30 470 H 41.1149 1.9644 1.62122 0
M  V30 471 H 41.8979 3.36043 0.702131 0
M  V30 472 N 44.343 -0.763751 1.37857 0
M  V30 473 C 45.759 -1.06542 1.18832 0
M  V30 474 C 45.959 -2.01478 0.0299722 0
M  V30 475 O 45.015 -2.4458 -0.627447 0
M  V30 476 C 46.328 -1.65525 2.51042 0
M  V30 477 C 47.876 -1.77745 2.57635 0
M  V30 478 C 48.351 -2.4014 3.89996 0
M  V30 479 N 49.842 -2.47582 3.91481 0
M  V30 480 C 50.577 -2.96732 4.9065 0
M  V30 481 N 50.073 -3.45993 6.00217 0
M  V30 482 N 51.866 -2.95679 4.78048 0
M  V30 483 H 44.017 -0.133556 2.1198 0
M  V30 484 H 46.28 -0.121879 0.940133 0
M  V30 485 H 45.986 -1.03236 3.36207 0
M  V30 486 H 45.86 -2.64719 2.68707 0
M  V30 487 H 48.247 -2.39164 1.72872 0
M  V30 488 H 48.328 -0.772836 2.43846 0
M  V30 489 H 47.972 -1.79358 4.75177 0
M  V30 490 H 47.902 -3.41223 4.01092 0
M  V30 491 H 50.393 -2.1273 3.12337 0
M  V30 492 H 50.706 -3.81922 6.7183 0
M  V30 493 H 49.051 -3.44077 6.03851 0
M  V30 494 H 52.242 -2.56499 3.91568 0
M  V30 495 H 52.415 -3.33672 5.55488 0
M  V30 496 N 45.8211 -1.22559 -0.990812 0
M  V30 497 C 47.0981 -0.959875 -1.70428 0
M  V30 498 C 47.4781 0.524455 -2.04481 0
M  V30 499 O 46.8261 1.49302 -1.72977 0
M  V30 500 C 47.0361 -1.85955 -2.95333 0
M  V30 501 C 48.3841 -2.11687 -3.68068 0
M  V30 502 O 49.4081 -1.8342 -3.05345 0
M  V30 503 O 48.2671 -2.59572 -4.80921 0
M  V30 504 H 45.3611 -0.361154 -0.743974 0
M  V30 505 H 47.9071 -1.33554 -1.04697 0
M  V30 506 H 46.6791 -2.86346 -2.66687 0
M  V30 507 H 46.3021 -1.4856 -3.68803 0
M  V30 508 N 47.2992 1.18797 -1.03562 0
M  V30 509 C 48.2292 2.24472 -0.643019 0
M  V30 510 C 49.2102 1.66433 0.351283 0
M  V30 511 O 50.3952 1.92803 0.232505 0
M  V30 512 C 47.5252 3.473 4.24935e-05 0
M  V30 513 C 46.4792 4.18055 -0.917257 0
M  V30 514 C 45.8052 5.34519 -0.138941 0
M  V30 515 C 47.1052 4.72109 -2.23407 0
M  V30 516 H 48.7992 2.57566 -1.52643 0
M  V30 517 H 46.3452 1.23806 -0.735394 0
M  V30 518 H 48.2982 4.20426 0.286383 0
M  V30 519 H 47.0222 3.13424 0.918299 0
M  V30 520 H 45.6812 3.46821 -1.1879 0
M  V30 521 H 45.3292 4.96891 0.781562 0
M  V30 522 H 45.0292 5.82794 -0.750005 0
M  V30 523 H 46.5532 6.10438 0.1405 0
M  V30 524 H 47.9672 5.36955 -2.00879 0
M  V30 525 H 46.3642 5.30897 -2.79765 0
M  V30 526 H 47.4342 3.89807 -2.88407 0
M  V30 527 N 48.7773 0.814389 1.34928 0
M  V30 528 C 50.0543 0.321363 1.92942 0
M  V30 529 C 50.4343 -1.19014 1.74353 0
M  V30 530 O 49.7823 -1.99328 1.11716 0
M  V30 531 C 49.9923 0.741323 3.41036 0
M  V30 532 C 51.3403 0.735266 4.18185 0
M  V30 533 O 52.3643 0.68336 3.49584 0
M  V30 534 O 51.2233 0.800703 5.40602 0
M  V30 535 H 48.3173 0.0858893 0.822528 0
M  V30 536 H 50.8633 0.898609 1.43955 0
M  V30 537 H 49.6353 1.78276 3.4833 0
M  V30 538 H 49.2583 0.139307 3.97356 0
M  V30 539 N 50.2554 -1.46986 0.568584 0
M  V30 540 C 51.4804 -2.07335 0.0520528 0
M  V30 541 C 51.9054 -1.41675 -1.23733 0
M  V30 542 O 51.2634 -0.495623 -1.74394 0
M  V30 543 C 51.3114 -3.60417 -0.11501 0
M  V30 544 O 50.4154 -3.95309 -1.17492 0
M  V30 545 H 49.7564 -0.661597 0.0564385 0
M  V30 546 H 52.2864 -1.88837 0.787507 0
M  V30 547 H 52.2964 -4.06698 -0.325644 0
M  V30 548 H 50.9714 -4.07601 0.826675 0
M  V30 549 H 49.5484 -3.60757 -0.943869 0
M  V30 550 N 51.7335 -0.305618 -1.54608 0
M  V30 551 C 52.6805 0.568421 -2.23691 0
M  V30 552 C 53.6505 1.12592 -1.22116 0
M  V30 553 O 54.8355 1.16959 -1.50749 0
M  V30 554 C 51.9755 1.7322 -2.98477 0
M  V30 555 C 51.0885 1.20566 -4.14835 0
M  V30 556 C 50.2235 2.33368 -4.77193 0
M  V30 557 C 49.2625 1.7787 -5.85686 0
M  V30 558 N 48.3995 2.84263 -6.4198 0
M  V30 559 H 53.2395 -0.0272867 -2.97988 0
M  V30 560 H 50.7765 -0.0252363 -1.47078 0
M  V30 561 H 52.7345 2.41675 -3.40072 0
M  V30 562 H 51.3645 2.29947 -2.26548 0
M  V30 563 H 50.4165 0.413223 -3.78149 0
M  V30 564 H 51.7285 0.759417 -4.92985 0
M  V30 565 H 50.8825 3.09761 -5.21664 0
M  V30 566 H 49.6215 2.8132 -3.98385 0
M  V30 567 H 48.6265 0.99968 -5.40635 0
M  V30 568 H 49.8515 1.30816 -6.66381 0
M  V30 569 H 47.7975 3.31541 -5.66053 0
M  V30 570 H 47.7145 2.44149 -7.15491 0
M  V30 571 H 48.9825 3.6054 -6.91109 0
M  V30 572 N 53.2116 1.57565 -0.0334293 0
M  V30 573 C 54.1746 2.09393 0.932048 0
M  V30 574 C 55.1746 1.00986 1.25134 0
M  V30 575 O 56.3646 1.27129 1.19096 0
M  V30 576 C 53.4966 2.56338 2.2473 0
M  V30 577 H 54.6896 2.95984 0.483085 0
M  V30 578 H 52.2426 1.54819 0.21468 0
M  V30 579 H 52.9776 1.7309 2.74245 0
M  V30 580 H 52.7626 3.35542 2.02865 0
M  V30 581 H 54.2526 2.96646 2.93923 0
M  V30 582 N 54.6897 -0.239769 1.55765 0
M  V30 583 C 55.9297 -0.974076 1.79697 0
M  V30 584 C 56.2937 -1.82249 0.604088 0
M  V30 585 O 57.4947 -2.58913 0.722324 0
M  V30 586 C 55.7657 -1.80595 3.08416 0
M  V30 587 S 57.3247 -2.59838 3.53596 0
M  V30 588 H 54.1427 -0.327524 0.63107 0
M  V30 589 H 56.7447 -0.241277 1.94005 0
M  V30 590 H 55.4487 -1.17249 3.93295 0
M  V30 591 H 54.9797 -2.58137 2.96865 0
M  V30 592 H 56.9947 -3.82987 3.15492 0
M  V30 593 N 56.1678 -1.49265 -0.50573 0
M  V30 594 C 57.4168 -1.57761 -1.25675 0
M  V30 595 C 57.7298 -0.267371 -1.93764 0
M  V30 596 O 58.9358 -0.230827 -2.70517 0
M  V30 597 C 57.3918 -2.78332 -2.28165 0
M  V30 598 C 56.9998 -4.16096 -1.66037 0
M  V30 599 C 58.7438 -2.96155 -3.04125 0
M  V30 600 C 56.6508 -5.27895 -2.6661 0
M  V30 601 H 55.5808 -0.587391 -0.472745 0
M  V30 602 H 58.2318 -1.75644 -0.53118 0
M  V30 603 H 56.6138 -2.53934 -3.03865 0
M  V30 604 H 57.7878 -4.50612 -0.963622 0
M  V30 605 H 56.1028 -4.03591 -1.02484 0
M  V30 606 H 58.6998 -3.76849 -3.79327 0
M  V30 607 H 59.0428 -2.06534 -3.61455 0
M  V30 608 H 59.5758 -3.2057 -2.35541 0
M  V30 609 H 56.3148 -6.1956 -2.14068 0
M  V30 610 H 55.8348 -4.97839 -3.34539 0
M  V30 611 H 57.5138 -5.57031 -3.29129 0
M  V30 612 N 57.6459 0.756429 -1.3826 0
M  V30 613 C 58.8709 1.55077 -1.37717 0
M  V30 614 C 59.2959 1.88073 0.03164 0
M  V30 615 O 58.6539 1.50364 1.01293 0
M  V30 616 C 58.7019 2.8283 -2.23695 0
M  V30 617 O 57.8059 3.77862 -1.6521 0
M  V30 618 H 57.1469 0.469152 -0.469885 0
M  V30 619 H 59.6769 0.935019 -1.81985 0
M  V30 620 H 59.6869 3.31783 -2.37453 0
M  V30 621 H 58.3619 2.58144 -3.2609 0
M  V30 622 H 56.9389 3.36555 -1.60578 0
M  V30 623 N 59.124 1.23083 0.984299 0
M  V30 624 C 60.373 1.05466 1.71929 0
M  V30 625 C 60.686 -0.409211 1.91272 0
M  V30 626 O 61.892 -0.705226 2.62181 0
M  V30 627 C 60.348 1.83874 3.09384 0
M  V30 628 C 59.956 3.34566 2.97943 0
M  V30 629 C 61.7 1.74734 3.8687 0
M  V30 630 C 59.607 4.05381 4.30605 0
M  V30 631 H 58.537 0.391039 0.644674 0
M  V30 632 H 61.188 1.47013 1.09815 0
M  V30 633 H 59.57 1.35131 3.72231 0
M  V30 634 H 60.744 3.90767 2.44209 0
M  V30 635 H 59.059 3.44476 2.33934 0
M  V30 636 H 61.656 2.24957 4.85076 0
M  V30 637 H 61.999 0.709372 4.10212 0
M  V30 638 H 62.532 2.21067 3.30717 0
M  V30 639 H 59.271 5.09467 4.1246 0
M  V30 640 H 58.791 3.53967 4.84218 0
M  V30 641 H 60.47 4.11458 4.99311 0
M  V30 642 N 60.6021 -1.18246 1.0419 0
M  V30 643 C 61.8501 -1.87886 0.744543 0
M  V30 644 C 62.1711 -1.8082 -0.730006 0
M  V30 645 O 61.4411 -1.22736 -1.52685 0
M  V30 646 H 60.0211 -0.695556 0.272417 0
M  V30 647 H 62.6831 -1.43494 1.31892 0
M  V30 648 H 61.7791 -2.9389 1.05049 0
M  V30 649 N 62.0802 -0.821533 -1.34494 0
M  V30 650 C 63.0282 -0.230702 -2.31453 0
M  V30 651 C 64.0222 0.627793 -1.57338 0
M  V30 652 O 65.2282 0.519288 -1.72347 0
M  V30 653 H 61.6032 -0.0558577 -0.749923 0
M  V30 654 H 63.5742 -1.06332 -2.78812 0
M  V30 655 C 62.3232 0.59391 -3.4259 0
M  V30 656 H 61.6462 -0.0573588 -3.99759 0
M  V30 657 H 63.0862 0.973446 -4.12674 0
M  V30 658 C 61.5452 1.76568 -2.86924 0
M  V30 659 O 62.0752 2.8638 -2.81691 0
M  V30 660 N 60.2812 1.58198 -2.43766 0
M  V30 661 H 59.8282 0.68872 -2.48222 0
M  V30 662 H 59.7862 2.36752 -2.06871 0
M  V30 663 N 63.5583 1.46682 -0.576371 0
M  V30 664 C 64.4903 2.28341 0.198231 0
M  V30 665 C 65.5033 1.38141 0.861453 0
M  V30 666 O 66.6923 1.62797 0.732082 0
M  V30 667 C 63.7923 3.12986 1.29972 0
M  V30 668 C 62.9653 4.31271 0.729639 0
M  V30 669 C 62.0243 4.97363 1.71803 0
M  V30 670 O 61.0503 5.55156 1.25658 0
M  V30 671 N 62.2523 4.93796 3.05198 0
M  V30 672 H 65.0173 2.9546 -0.502324 0
M  V30 673 H 62.5783 1.56525 -0.413715 0
M  V30 674 H 64.5703 3.54066 1.96008 0
M  V30 675 H 63.1403 2.47984 1.90323 0
M  V30 676 H 62.3603 3.94052 -0.108012 0
M  V30 677 H 63.6483 5.07739 0.328438 0
M  V30 678 H 63.0463 4.48077 3.45317 0
M  V30 679 H 61.6033 5.38837 3.6674 0
M  V30 680 N 65.0364 0.313813 1.54444 0
M  V30 681 C 65.9844 -0.572171 2.25453 0
M  V30 682 C 66.9784 -1.12657 1.2651 0
M  V30 683 O 68.1844 -1.07573 1.44319 0
M  V30 684 H 64.5594 -0.203146 0.724041 0
M  V30 685 H 66.5304 0.0491145 2.9836 0
M  V30 686 C 65.2794 -1.72626 3.0182 0
M  V30 687 H 64.6024 -1.30891 3.77767 0
M  V30 688 H 66.0424 -2.32199 3.54767 0
M  V30 689 C 64.5014 -2.63806 2.09542 0
M  V30 690 O 65.0314 -3.65256 1.67185 0
M  V30 691 N 63.2374 -2.31824 1.75232 0
M  V30 692 H 62.7844 -1.49368 2.09873 0
M  V30 693 H 62.7424 -2.93095 1.13767 0
M  V30 694 N 66.5145 -1.57545 0.0417849 0
M  V30 695 C 67.7615 -1.92317 -0.634082 0
M  V30 696 C 68.0895 -0.919334 -1.71402 0
M  V30 697 O 67.3445 0.0698253 -1.95575 0
M  V30 698 C 67.6435 -3.33794 -1.27735 0
M  V30 699 C 67.3095 -4.49716 -0.326543 0
M  V30 700 C 65.9715 -4.81156 -0.0648814 0
M  V30 701 C 68.3235 -5.20182 0.325623 0
M  V30 702 C 65.6515 -5.80414 0.856539 0
M  V30 703 C 68.0035 -6.20424 1.23518 0
M  V30 704 C 66.6675 -6.50298 1.5056 0
M  V30 705 H 65.9375 -0.703736 -0.232027 0
M  V30 706 H 68.5845 -1.91205 0.106259 0
M  V30 707 H 66.8895 -3.31228 -2.09274 0
M  V30 708 H 68.5865 -3.57975 -1.80707 0
M  V30 709 H 65.1765 -4.25176 -0.540665 0
M  V30 710 H 69.3605 -4.96112 0.136546 0
M  V30 711 H 64.6165 -6.019 1.07363 0
M  V30 712 H 68.7905 -6.74141 1.74664 0
M  V30 713 H 66.4175 -7.27025 2.22123 0
M  V30 714 N 67.9926 0.231505 -1.5589 0
M  V30 715 C 68.9026 1.308 -1.94752 0
M  V30 716 C 69.9186 1.51826 -0.849989 0
M  V30 717 O 71.0946 1.6515 -1.15271 0
M  V30 718 C 68.1596 2.63968 -2.24771 0
M  V30 719 C 67.2206 2.51331 -3.48039 0
M  V30 720 C 66.4536 3.78148 -3.76616 0
M  V30 721 O 66.6766 4.80722 -3.07022 0
M  V30 722 O 65.6106 3.75857 -4.70123 0
M  V30 723 H 69.4366 1.0083 -2.86474 0
M  V30 724 H 67.0216 0.433547 -1.42971 0
M  V30 725 H 68.9036 3.42633 -2.45318 0
M  V30 726 H 67.5786 2.9364 -1.36225 0
M  V30 727 H 66.4856 1.709 -3.32782 0
M  V30 728 H 67.8186 2.26601 -4.36936 0
M  V30 729 N 69.4707 1.49531 0.497807 0
M  V30 730 C 70.7167 1.59415 1.25358 0
M  V30 731 C 71.0497 0.281422 1.9215 0
M  V30 732 O 70.3247 -0.715249 1.80871 0
M  V30 733 C 70.6077 2.75566 2.3181 0
M  V30 734 C 70.4607 4.16642 1.69498 0
M  V30 735 C 71.7797 2.87347 3.33346 0
M  V30 736 H 68.8987 0.580244 0.454408 0
M  V30 737 H 71.5407 1.81827 0.551262 0
M  V30 738 H 69.6907 2.56587 2.91711 0
M  V30 739 H 71.3627 4.47145 1.13399 0
M  V30 740 H 69.6057 4.22141 0.998978 0
M  V30 741 H 70.2767 4.93792 2.46725 0
M  V30 742 H 72.7527 3.04634 2.83438 0
M  V30 743 H 71.6287 3.70289 4.05188 0
M  V30 744 H 71.8897 1.96834 3.95865 0
M  V30 745 N 70.9488 -0.749086 1.3866 0
M  V30 746 C 71.8958 -1.86291 1.36251 0
M  V30 747 C 72.8658 -1.64578 0.224347 0
M  V30 748 O 74.0508 -1.86181 0.417279 0
M  V30 749 C 71.1908 -3.23644 1.19786 0
M  V30 750 C 70.3038 -3.57158 2.43027 0
M  V30 751 C 69.4388 -4.83838 2.19258 0
M  V30 752 C 68.4778 -5.10152 3.38247 0
M  V30 753 N 67.6148 -6.28029 3.13884 0
M  V30 754 H 72.4548 -1.87685 2.3147 0
M  V30 755 H 69.9918 -0.917287 1.14997 0
M  V30 756 H 71.9498 -4.0291 1.08254 0
M  V30 757 H 70.5798 -3.21566 0.282031 0
M  V30 758 H 69.6318 -2.72701 2.65214 0
M  V30 759 H 70.9438 -3.7253 3.31697 0
M  V30 760 H 70.0978 -5.71057 2.04888 0
M  V30 761 H 68.8368 -4.70614 1.2796 0
M  V30 762 H 67.8418 -4.21401 3.53131 0
M  V30 763 H 69.0668 -5.25271 4.30427 0
M  V30 764 H 67.0128 -6.1612 2.25238 0
M  V30 765 H 66.9298 -6.43922 3.96106 0
M  V30 766 H 68.1978 -7.18124 3.03179 0
M  V30 767 N 72.4269 -1.23603 -0.977757 0
M  V30 768 C 73.3899 -1.02069 -2.05218 0
M  V30 769 C 74.3899 0.0184305 -1.60789 0
M  V30 770 O 75.5799 -0.221569 -1.72785 0
M  V30 771 C 72.7119 -0.544926 -3.36517 0
M  V30 772 H 73.9049 -1.9742 -2.25755 0
M  V30 773 H 71.4579 -1.05684 -1.15155 0
M  V30 774 H 72.1929 0.412241 -3.21669 0
M  V30 775 H 71.9779 -1.2948 -3.70105 0
M  V30 776 H 73.4679 -0.414985 -4.15533 0
M  V30 777 N 73.905 1.17692 -1.04816 0
M  V30 778 C 75.182 1.83768 -0.669963 0
M  V30 779 C 75.562 1.93232 0.849986 0
M  V30 780 O 74.91 1.46397 1.75443 0
M  V30 781 C 75.12 3.21641 -1.35455 0
M  V30 782 C 76.468 3.97592 -1.49017 0
M  V30 783 O 77.492 3.31107 -1.31326 0
M  V30 784 O 76.351 5.16729 -1.77914 0
M  V30 785 H 73.445 0.792799 -0.235368 0
M  V30 786 H 75.991 1.25021 -1.14751 0
M  V30 787 H 74.763 3.097 -2.39168 0
M  V30 788 H 74.386 3.88052 -0.866107 0
M  V30 789 N 75.3831 0.828654 1.34056 0
M  V30 790 C 76.6601 0.341809 1.9259 0
M  V30 791 C 77.0401 -1.17158 1.75605 0
M  V30 792 O 76.3881 -1.98132 1.13824 0
M  V30 793 C 76.5981 0.777453 3.4023 0
M  V30 794 C 77.9461 0.779579 4.17382 0
M  V30 795 O 78.9701 0.7204 3.48839 0
M  V30 796 O 77.8291 0.857996 5.39723 0
M  V30 797 H 74.9231 0.0946085 0.821571 0
M  V30 798 H 77.4691 0.913827 1.42994 0
M  V30 799 H 76.2411 1.8196 3.46419 0
M  V30 800 H 75.8641 0.181444 3.97186 0
M  V30 801 N 76.8612 -1.46375 0.584142 0
M  V30 802 C 77.7912 -2.33103 -0.136037 0
M  V30 803 C 78.7722 -1.45431 -0.882255 0
M  V30 804 O 79.9572 -1.74246 -0.857434 0
M  V30 805 C 77.0872 -3.27731 -1.14933 0
M  V30 806 C 76.0412 -4.24855 -0.517862 0
M  V30 807 C 75.3672 -5.09001 -1.63773 0
M  V30 808 C 76.6672 -5.19439 0.545886 0
M  V30 809 H 78.3612 -2.93568 0.588086 0
M  V30 810 H 75.9072 -1.41166 0.284259 0
M  V30 811 H 77.8602 -3.87261 -1.66153 0
M  V30 812 H 76.5842 -2.65377 -1.90375 0
M  V30 813 H 75.2432 -3.6659 -0.0267361 0
M  V30 814 H 74.8912 -4.43031 -2.38185 0
M  V30 815 H 74.5912 -5.74777 -1.22085 0
M  V30 816 H 76.1152 -5.71396 -2.15266 0
M  V30 817 H 77.5292 -5.73177 0.118704 0
M  V30 818 H 75.9262 -5.93566 0.88317 0
M  V30 819 H 76.9962 -4.63285 1.43162 0
M  V30 820 N 78.3393 -0.321999 -1.54275 0
M  V30 821 C 79.2493 0.553631 -2.27974 0
M  V30 822 C 80.2653 1.13054 -1.32268 0
M  V30 823 O 81.4413 1.15084 -1.6528 0
M  V30 824 C 78.5063 1.69927 -3.02201 0
M  V30 825 C 77.5673 1.15433 -4.1349 0
M  V30 826 C 76.8003 2.24537 -4.84168 0
M  V30 827 O 77.0233 3.44852 -4.5435 0
M  V30 828 O 75.9573 1.90044 -5.7111 0
M  V30 829 H 79.7833 -0.0448345 -3.03667 0
M  V30 830 H 77.3683 -0.0877418 -1.49142 0
M  V30 831 H 79.2503 2.3663 -3.48689 0
M  V30 832 H 77.9253 2.28395 -2.29385 0
M  V30 833 H 76.8323 0.452436 -3.71354 0
M  V30 834 H 78.1653 0.614805 -4.88345 0
M  V30 835 N 79.8174 1.5752 -0.0501392 0
M  V30 836 C 81.2284 1.80271 0.485705 0
M  V30 837 C 81.5794 0.96228 1.70981 0
M  V30 838 O 80.7044 0.178578 2.15662 0
M  V30 839 C 81.2994 3.26957 0.887938 0
M  V30 840 C 79.8584 3.5063 1.36877 0
M  V30 841 C 79.0054 2.75165 0.343468 0
M  V30 842 H 81.9564 1.56281 -0.276028 0
M  V30 843 H 81.9774 3.37821 1.75093 0
M  V30 844 H 81.4894 3.881 -0.0031809 0
M  V30 845 H 79.5904 2.94766 2.27911 0
M  V30 846 H 79.7034 4.59343 1.36164 0
M  V30 847 H 78.0674 2.4127 0.816128 0
M  V30 848 H 78.8504 3.39034 -0.539548 0
M  V30 849 N 81.2955 -0.223234 1.56011 0
M  V30 850 C 82.5445 -0.945912 1.78144 0
M  V30 851 C 82.8575 -1.85567 0.618396 0
M  V30 852 O 84.0635 -2.61688 0.723318 0
M  V30 853 C 82.5195 -1.73216 3.15475 0
M  V30 854 C 82.1275 -0.868619 4.39499 0
M  V30 855 C 83.8715 -2.44615 3.46935 0
M  V30 856 C 81.7785 -1.65212 5.67855 0
M  V30 857 H 80.7085 -0.356929 0.664167 0
M  V30 858 H 83.3595 -0.199845 1.82409 0
M  V30 859 H 81.7415 -2.52107 3.05382 0
M  V30 860 H 82.9155 -0.120366 4.60643 0
M  V30 861 H 81.2305 -0.26683 4.15544 0
M  V30 862 H 83.8275 -3.03732 4.40058 0
M  V30 863 H 84.1705 -3.17417 2.69355 0
M  V30 864 H 84.7035 -1.72715 3.58349 0
M  V30 865 H 81.4425 -0.967407 6.48322 0
M  V30 866 H 80.9625 -2.37503 5.50774 0
M  V30 867 H 82.6415 -2.21322 6.07968 0
M  V30 868 N 82.7736 -1.49793 -0.48987 0
M  V30 869 C 83.7066 -1.61898 -1.60823 0
M  V30 870 C 84.6846 -0.467651 -1.5573 0
M  V30 871 O 85.8686 -0.684682 -1.75626 0
M  V30 872 C 82.9956 -1.58422 -2.99366 0
M  V30 873 C 82.0416 -2.78889 -3.22682 0
M  V30 874 S 82.8746 -4.40429 -3.04602 0
M  V30 875 C 84.0306 -4.39617 -4.4552 0
M  V30 876 H 84.2636 -2.56502 -1.50312 0
M  V30 877 H 81.7966 -1.38822 -0.675849 0
M  V30 878 H 83.7546 -1.57103 -3.79248 0
M  V30 879 H 82.4156 -0.650866 -3.07283 0
M  V30 880 H 81.6086 -2.72708 -4.23847 0
M  V30 881 H 81.2106 -2.77678 -2.50541 0
M  V30 882 H 83.5026 -4.12022 -5.37814 0
M  V30 883 H 84.4456 -5.41097 -4.56749 0
M  V30 884 H 84.8536 -3.69554 -4.2672 0
M  V30 885 N 84.2517 0.741722 -1.39055 0
M  V30 886 C 85.1617 1.88621 -1.39496 0
M  V30 887 C 86.1777 1.71557 -0.290578 0
M  V30 888 O 87.3537 1.94275 -0.530954 0
M  V30 889 C 84.4187 3.24134 -1.23037 0
M  V30 890 C 83.4797 3.5364 -2.43387 0
M  V30 891 C 82.7127 4.82687 -2.27703 0
M  V30 892 O 82.9357 5.55922 -1.27696 0
M  V30 893 O 81.8697 5.1194 -3.16545 0
M  V30 894 H 85.6957 1.91203 -2.35956 0
M  V30 895 H 83.2807 0.888625 -1.20099 0
M  V30 896 H 85.1627 4.0513 -1.15964 0
M  V30 897 H 83.8377 3.22337 -0.296691 0
M  V30 898 H 82.7447 2.72758 -2.56035 0
M  V30 899 H 84.0777 3.60209 -3.35425 0
M  V30 900 N 85.7298 1.2412 0.971189 0
M  V30 901 C 86.6598 1.05508 2.08304 0
M  V30 902 C 87.6408 -0.0308864 1.70072 0
M  V30 903 O 88.8258 0.135521 1.93727 0
M  V30 904 C 85.9558 0.655365 3.4106 0
M  V30 905 C 84.9098 1.68971 3.93234 0
M  V30 906 C 84.2358 1.14516 5.22293 0
M  V30 907 C 85.5358 3.08487 4.21465 0
M  V30 908 H 87.2298 1.98507 2.24132 0
M  V30 909 H 84.7758 0.955821 1.07704 0
M  V30 910 H 86.7288 0.51217 4.18276 0
M  V30 911 H 85.4528 -0.31032 3.25122 0
M  V30 912 H 84.1118 1.82106 3.18171 0
M  V30 913 H 83.7598 0.170189 5.02712 0
M  V30 914 H 83.4598 1.83635 5.58168 0
M  V30 915 H 84.9838 1.01401 6.02121 0
M  V30 916 H 86.3978 2.98601 4.89398 0
M  V30 917 H 84.7948 3.74926 4.68562 0
M  V30 918 H 85.8648 3.56787 3.28376 0
M  V30 919 N 87.2079 -1.17134 1.05439 0
M  V30 920 C 88.4559 -1.87085 0.764429 0
M  V30 921 C 88.7769 -1.81584 -0.710787 0
M  V30 922 O 88.0469 -1.24349 -1.51374 0
M  V30 923 H 86.6269 -0.692627 0.279779 0
M  V30 924 H 89.2889 -1.42087 1.33406 0
M  V30 925 H 88.3849 -2.92759 1.0816 0
M  V30 926 N 88.686 -0.835752 -1.33615 0
M  V30 927 C 90.102 -0.523139 -1.50783 0
M  V30 928 C 90.302 0.950171 -1.77691 0
M  V30 929 O 89.358 1.73411 -1.83534 0
M  V30 930 C 90.671 -1.39378 -2.66448 0
M  V30 931 C 92.219 -1.39223 -2.80332 0
M  V30 932 C 92.694 -2.24765 -3.99055 0
M  V30 933 N 94.185 -2.22458 -4.06284 0
M  V30 934 C 94.92 -2.85386 -4.97336 0
M  V30 935 N 94.416 -3.57354 -5.93523 0
M  V30 936 N 96.209 -2.74872 -4.90308 0
M  V30 937 H 88.36 -1.78952 -1.14411 0
M  V30 938 H 90.623 -0.763297 -0.562212 0
M  V30 939 H 90.329 -2.44061 -2.53234 0
M  V30 940 H 90.203 -1.0676 -3.61776 0
M  V30 941 H 92.59 -0.353136 -2.92979 0
M  V30 942 H 92.671 -1.75846 -1.85773 0
M  V30 943 H 92.315 -3.28732 -3.87167 0
M  V30 944 H 92.245 -1.85485 -4.92852 0
M  V30 945 H 94.736 -1.70119 -3.37443 0
M  V30 946 H 95.049 -4.02584 -6.59656 0
M  V30 947 H 93.394 -3.61461 -5.93608 0
M  V30 948 H 96.585 -2.18213 -4.14126 0
M  V30 949 H 96.758 -3.24199 -5.61069 0
M  V30 950 N 90.1641 1.46063 -0.591896 0
M  V30 951 C 91.4121 2.01938 -0.0808391 0
M  V30 952 C 91.7331 1.46475 1.28725 0
M  V30 953 O 91.0031 0.652944 1.84698 0
M  V30 954 H 89.5831 0.746516 -0.0268938 0
M  V30 955 H 92.2451 1.79055 -0.769752 0
M  V30 956 H 91.3411 3.12094 -0.0187578 0
M  V30 957 N 91.6422 0.330177 1.54103 0
M  V30 958 C 92.6052 -0.520144 2.2322 0
M  V30 959 C 93.6052 -1.03828 1.22786 0
M  V30 960 O 94.7952 -0.929652 1.4732 0
M  V30 961 C 91.9272 -1.72317 2.94142 0
M  V30 962 H 93.1202 0.0841605 2.99782 0
M  V30 963 H 90.6732 0.0813433 1.56088 0
M  V30 964 H 91.4082 -2.36653 2.21734 0
M  V30 965 H 91.1932 -1.35898 3.67796 0
M  V30 966 H 92.6832 -2.3266 3.46784 0
M  V30 967 N 93.1203 -1.57491 0.0584922 0
M  V30 968 C 94.3503 -1.9701 -0.622134 0
M  V30 969 C 94.7583 -0.935034 -1.6448 0
M  V30 970 O 94.1013 0.0882904 -1.83488 0
M  V30 971 C 94.1633 -3.32794 -1.35972 0
M  V30 972 C 93.8273 -4.54343 -0.492043 0
M  V30 973 C 94.8243 -5.19323 0.244901 0
M  V30 974 C 92.5093 -5.00534 -0.420821 0
M  V30 975 C 94.5033 -6.28835 1.04143 0
M  V30 976 C 92.1903 -6.09921 0.379389 0
M  V30 977 C 93.1883 -6.73933 1.10919 0
M  V30 978 O 92.8763 -7.81216 1.89623 0
M  V30 979 H 92.6083 -0.653127 -0.174359 0
M  V30 980 H 95.1623 -2.05029 0.123418 0
M  V30 981 H 93.3923 -3.21351 -2.15105 0
M  V30 982 H 95.0813 -3.5701 -1.93129 0
M  V30 983 H 95.8473 -4.8459 0.19939 0
M  V30 984 H 91.7263 -4.50496 -0.978474 0
M  V30 985 H 95.2703 -6.7873 1.61157 0
M  V30 986 H 91.1673 -6.44089 0.426512 0
M  V30 987 H 91.9353 -7.98029 1.81913 0
M  V30 988 N 94.5984 0.214957 -1.56127 0
M  V30 989 C 95.8464 0.936518 -1.79091 0
M  V30 990 C 96.1674 1.84606 -0.628148 0
M  V30 991 O 95.4374 1.92664 0.35462 0
M  V30 992 H 94.0174 0.3488 -0.660566 0
M  V30 993 H 96.6794 0.22523 -1.93594 0
M  V30 994 H 95.7754 1.53943 -2.71492 0
M  V30 995 N 96.0765 1.50051 0.48192 0
M  V30 996 C 97.3225 1.60736 1.2366 0
M  V30 997 C 97.6555 0.301786 1.91841 0
M  V30 998 O 96.9305 -0.696025 1.8162 0
M  V30 999 C 97.2135 2.78009 2.28874 0
M  V30 1000 C 97.0665 4.18416 1.65069 0
M  V30 1001 C 98.3855 2.90867 3.30279 0
M  V30 1002 H 95.5045 0.585031 0.448228 0
M  V30 1003 H 98.1465 1.82402 0.531946 0
M  V30 1004 H 96.2965 2.59667 2.88973 0
M  V30 1005 H 97.9685 4.48322 1.0865 0
M  V30 1006 H 96.2115 4.23177 0.954148 0
M  V30 1007 H 96.8825 4.96381 2.41474 0
M  V30 1008 H 99.3585 3.07623 2.80191 0
M  V30 1009 H 98.2345 3.74566 4.01238 0
M  V30 1010 H 98.4955 2.01021 3.93755 0
M  V30 1011 N 97.5546 -0.734337 1.39446 0
M  V30 1012 C 98.8006 -1.49613 1.36908 0
M  V30 1013 C 99.1336 -1.94169 -0.0347829 0
M  V30 1014 O 98.4086 -1.66833 -0.999847 0
M  V30 1015 C 98.6916 -2.73534 2.34203 0
M  V30 1016 C 98.5446 -2.34993 3.83534 0
M  V30 1017 C 99.8636 -3.75635 2.29317 0
M  V30 1018 H 96.9826 -0.542714 0.498629 0
M  V30 1019 H 99.6246 -0.839597 1.70443 0
M  V30 1020 H 97.7746 -3.29553 2.05736 0
M  V30 1021 H 99.4466 -1.84601 4.22753 0
M  V30 1022 H 97.6896 -1.67213 4.00278 0
M  V30 1023 H 98.3606 -3.23738 4.47099 0
M  V30 1024 H 100.837 -3.29203 2.54489 0
M  V30 1025 H 99.7126 -4.60008 2.99472 0
M  V30 1026 H 99.9736 -4.22603 1.29842 0
M  V30 1027 N 99.0327 -1.24633 -0.964593 0
M  V30 1028 C 99.9427 -1.05859 -2.09359 0
M  V30 1029 C 100.959 0.00148855 -1.74 0
M  V30 1030 O 102.135 -0.197346 -2.00431 0
M  V30 1031 C 99.1997 -0.668879 -3.40187 0
M  V30 1032 C 98.2607 -1.80578 -3.89474 0
M  V30 1033 C 97.4937 -1.43457 -5.14058 0
M  V30 1034 O 97.7167 -0.325775 -5.69469 0
M  V30 1035 O 96.6507 -2.2613 -5.57807 0
M  V30 1036 H 100.477 -2.00516 -2.28094 0
M  V30 1037 H 98.0617 -1.03481 -1.0776 0
M  V30 1038 H 99.9437 -0.463211 -4.18846 0
M  V30 1039 H 98.6187 0.248536 -3.22744 0
M  V30 1040 H 97.5257 -2.06623 -3.11862 0
M  V30 1041 H 98.8587 -2.70208 -4.11398 0
M  V30 1042 N 100.511 1.16574 -1.06058 0
M  V30 1043 C 101.458 2.20883 -0.669263 0
M  V30 1044 C 102.428 1.62729 0.332918 0
M  V30 1045 O 103.613 1.895 0.222346 0
M  V30 1046 C 100.753 3.45049 -0.0593572 0
M  V30 1047 C 99.8658 4.17458 -1.11143 0
M  V30 1048 C 99.0008 5.29135 -0.467916 0
M  V30 1049 C 98.0398 5.93343 -1.50369 0
M  V30 1050 N 97.1768 6.96516 -0.883706 0
M  V30 1051 H 102.017 2.53709 -1.5632 0
M  V30 1052 H 99.5538 1.24616 -0.781625 0
M  V30 1053 H 101.512 4.16033 0.311771 0
M  V30 1054 H 100.142 3.12781 0.797992 0
M  V30 1055 H 99.1938 3.45101 -1.60029 0
M  V30 1056 H 100.506 4.61307 -1.89731 0
M  V30 1057 H 99.6598 6.06684 -0.0436871 0
M  V30 1058 H 98.3988 4.86443 0.349864 0
M  V30 1059 H 97.4038 5.14517 -1.93784 0
M  V30 1060 H 98.6288 6.38114 -2.32352 0
M  V30 1061 H 96.5748 6.55943 -0.086595 0
M  V30 1062 H 96.4918 7.38723 -1.607 0
M  V30 1063 H 97.7598 7.77993 -0.484543 0
M  V30 1064 N 101.989 0.842826 1.3317 0
M  V30 1065 C 102.922 0.223862 2.27099 0
M  V30 1066 C 103.9 -0.631311 1.49844 0
M  V30 1067 O 105.084 -0.590708 1.79005 0
M  V30 1068 C 102.211 -0.685313 3.31694 0
M  V30 1069 C 101.257 0.094919 4.26394 0
M  V30 1070 S 102.09 1.45546 5.15341 0
M  V30 1071 C 103.246 0.551685 6.23464 0
M  V30 1072 H 103.479 1.02015 2.79249 0
M  V30 1073 H 101.012 0.639797 1.4052 0
M  V30 1074 H 102.97 -1.20426 3.92438 0
M  V30 1075 H 101.631 -1.4553 2.78352 0
M  V30 1076 H 100.824 -0.597059 5.00451 0
M  V30 1077 H 100.426 0.545054 3.70007 0
M  V30 1078 H 102.718 -0.248877 6.77043 0
M  V30 1079 H 103.661 1.26253 6.96754 0
M  V30 1080 H 104.069 0.131275 5.64347 0
M  V30 1081 N 103.467 -1.45747 0.599634 0
M  V30 1082 C 104.883 -1.57424 0.26264 0
M  V30 1083 C 105.083 -1.59222 -1.23493 0
M  V30 1084 O 104.139 -1.51825 -2.01756 0
M  V30 1085 C 105.452 -2.86061 0.926795 0
M  V30 1086 C 107 -2.99722 0.901967 0
M  V30 1087 C 107.475 -4.31119 1.54598 0
M  V30 1088 N 108.966 -4.37858 1.5111 0
M  V30 1089 C 109.701 -5.3818 1.97863 0
M  V30 1090 N 109.197 -6.45083 2.52666 0
M  V30 1091 N 110.99 -5.29487 1.88679 0
M  V30 1092 H 103.141 -1.42823 1.57211 0
M  V30 1093 H 105.404 -0.68235 0.658105 0
M  V30 1094 H 105.11 -2.90605 1.98095 0
M  V30 1095 H 104.984 -3.74563 0.445238 0
M  V30 1096 H 107.371 -2.9475 -0.143617 0
M  V30 1097 H 107.452 -2.12652 1.42171 0
M  V30 1098 H 107.096 -4.36849 2.59085 0
M  V30 1099 H 107.026 -5.16992 1.00132 0
M  V30 1100 H 109.517 -3.61209 1.11068 0
M  V30 1101 H 109.83 -7.17869 2.86155 0
M  V30 1102 H 108.175 -6.45856 2.56701 0
M  V30 1103 H 111.366 -4.44877 1.4561 0
M  V30 1104 H 111.539 -6.07524 2.25429 0
M  V30 1105 N 104.945 -0.338344 -1.53925 0
M  V30 1106 C 105.895 0.536712 -2.21593 0
M  V30 1107 C 106.879 1.07015 -1.20153 0
M  V30 1108 O 108.071 1.00471 -1.45721 0
M  V30 1109 C 105.2 1.68977 -2.98834 0
M  V30 1110 C 104.286 1.17052 -4.07627 0
M  V30 1111 N 104.677 0.372085 -5.0443 0
M  V30 1112 C 102.975 1.44789 -4.21844 0
M  V30 1113 C 103.676 0.0909171 -5.81629 0
M  V30 1114 N 102.652 0.681131 -5.39316 0
M  V30 1115 H 106.454 -0.0804298 -2.9379 0
M  V30 1116 H 103.968 -0.144943 -1.61752 0
M  V30 1117 H 105.965 2.32857 -3.45808 0
M  V30 1118 H 104.625 2.31024 -2.28162 0
M  V30 1119 H 105.636 0.0136217 -5.17898 0
M  V30 1120 H 102.313 2.07313 -3.62391 0
M  V30 1121 H 103.703 -0.552817 -6.69622 0
M  V30 1122 N 106.423 1.57458 -0.0668435 0
M  V30 1123 C 107.669 1.93587 0.6043 0
M  V30 1124 C 108.002 0.946722 1.69561 0
M  V30 1125 O 107.277 -0.0248516 1.94484 0
M  V30 1126 C 107.56 3.40014 1.18585 0
M  V30 1127 C 107.413 4.49685 0.101529 0
M  V30 1128 C 108.732 3.87154 2.09284 0
M  V30 1129 H 105.851 0.703958 0.218202 0
M  V30 1130 H 108.493 1.89542 -0.131804 0
M  V30 1131 H 106.643 3.43592 1.81319 0
M  V30 1132 H 108.315 4.5823 -0.531279 0
M  V30 1133 H 106.558 4.30059 -0.568487 0
M  V30 1134 H 107.229 5.49266 0.54874 0
M  V30 1135 H 109.705 3.85551 1.56491 0
M  V30 1136 H 108.581 4.90231 2.46911 0
M  V30 1137 H 108.842 3.2481 2.99918 0
M  V30 1138 N 107.901 -0.206675 1.56239 0
M  V30 1139 C 109.312 -0.772383 1.69974 0
M  V30 1140 C 109.663 -1.84353 0.671436 0
M  V30 1141 O 108.788 -2.15695 -0.174491 0
M  V30 1142 C 109.383 -1.40779 3.08167 0
M  V30 1143 C 107.942 -1.92072 3.23706 0
M  V30 1144 C 107.089 -0.786347 2.65917 0
M  V30 1145 H 110.04 0.0182223 1.5869 0
M  V30 1146 H 110.061 -2.27696 3.04852 0
M  V30 1147 H 109.573 -0.627958 3.82986 0
M  V30 1148 H 107.674 -2.7281 2.53782 0
M  V30 1149 H 107.787 -2.09046 4.31087 0
M  V30 1150 H 106.151 -1.1976 2.24788 0
M  V30 1151 H 106.934 -0.0189416 3.43295 0
M  V30 1152 N 109.379 -1.50304 -0.473955 0
M  V30 1153 C 110.604 -1.65175 -1.25427 0
M  V30 1154 C 111.029 -0.333673 -1.85117 0
M  V30 1155 O 110.387 0.702114 -1.67153 0
M  V30 1156 C 110.435 -2.74295 -2.34082 0
M  V30 1157 O 109.539 -2.35349 -3.38651 0
M  V30 1158 H 108.88 -0.551944 -0.369126 0
M  V30 1159 H 111.41 -1.96662 -0.564364 0
M  V30 1160 H 111.42 -2.97285 -2.79438 0
M  V30 1161 H 110.095 -3.69959 -1.90008 0
M  V30 1162 H 108.672 -2.22794 -2.99027 0
M  V30 1163 N 110.857 0.726932 -1.39834 0
M  V30 1164 C 112.105 1.4837 -1.37225 0
M  V30 1165 C 112.426 1.94979 0.0284857 0
M  V30 1166 O 111.696 1.69555 0.981213 0
M  V30 1167 H 110.276 0.55043 -0.505011 0
M  V30 1168 H 112.938 0.862468 -1.74778 0
M  V30 1169 H 112.034 2.36198 -2.04003 0
M  V30 1170 N 112.336 1.25143 0.95797 0
M  V30 1171 C 113.268 1.01023 2.05735 0
M  V30 1172 C 114.281 -0.0236902 1.62783 0
M  V30 1173 O 115.47 0.21448 1.77207 0
M  V30 1174 C 112.57 0.504595 3.35122 0
M  V30 1175 C 111.743 1.6039 4.06932 0
M  V30 1176 C 110.802 1.09922 5.14591 0
M  V30 1177 O 109.828 1.79293 5.40225 0
M  V30 1178 N 111.03 -0.0612545 5.80468 0
M  V30 1179 H 113.795 1.95683 2.26998 0
M  V30 1180 H 111.356 1.16303 1.12629 0
M  V30 1181 H 113.348 0.151516 4.04416 0
M  V30 1182 H 111.918 -0.347989 3.10657 0
M  V30 1183 H 111.138 2.12872 3.31782 0
M  V30 1184 H 112.426 2.34252 4.51667 0
M  V30 1185 H 111.824 -0.640985 5.62057 0
M  V30 1186 H 110.381 -0.355395 6.5083 0
M  V30 1187 N 113.814 -1.1601 1.06675 0
M  V30 1188 C 115.063 -1.85973 0.780818 0
M  V30 1189 C 115.376 -1.82819 -0.695444 0
M  V30 1190 O 116.582 -2.484 -1.09589 0
M  V30 1191 C 115.038 -3.33757 1.34665 0
M  V30 1192 C 114.646 -3.45374 2.85343 0
M  V30 1193 C 116.39 -4.0895 1.13843 0
M  V30 1194 C 114.297 -4.87266 3.35151 0
M  V30 1195 H 113.227 -0.696661 0.288407 0
M  V30 1196 H 115.878 -1.30903 1.28595 0
M  V30 1197 H 114.26 -3.88456 0.769274 0
M  V30 1198 H 115.434 -3.00816 3.49065 0
M  V30 1199 H 113.749 -2.83619 3.04876 0
M  V30 1200 H 116.346 -5.13654 1.4854 0
M  V30 1201 H 116.689 -4.16229 0.0770282 0
M  V30 1202 H 117.222 -3.605 1.68179 0
M  V30 1203 H 113.961 -4.85168 4.40786 0
M  V30 1204 H 113.481 -5.32433 2.76179 0
M  V30 1205 H 115.16 -5.56097 3.30704 0
M  V30 1206 N 115.292 -0.849877 -1.32721 0
M  V30 1207 C 116.225 -0.235903 -2.26977 0
M  V30 1208 C 117.203 0.623355 -1.50177 0
M  V30 1209 O 118.387 0.581207 -1.79316 0
M  V30 1210 C 115.514 0.667712 -3.32053 0
M  V30 1211 C 114.56 -0.11753 -4.26338 0
M  V30 1212 S 115.393 -1.48277 -5.14562 0
M  V30 1213 C 116.549 -0.584741 -6.23163 0
M  V30 1214 H 116.782 -1.03495 -2.78704 0
M  V30 1215 H 114.315 -0.64724 -1.40179 0
M  V30 1216 H 116.273 1.18343 -3.93072 0
M  V30 1217 H 114.934 1.44052 -2.7912 0
M  V30 1218 H 114.127 0.57051 -5.00761 0
M  V30 1219 H 113.729 -0.564668 -3.69713 0
M  V30 1220 H 116.021 0.212968 -6.77165 0
M  V30 1221 H 116.964 -1.29947 -6.96074 0
M  V30 1222 H 117.372 -0.161202 -5.6427 0
M  V30 1223 N 116.77 1.45427 -0.607355 0
M  V30 1224 C 117.733 2.28974 0.101693 0
M  V30 1225 C 118.733 1.39754 0.795329 0
M  V30 1226 O 119.923 1.61878 0.643527 0
M  V30 1227 C 117.055 3.20768 1.15414 0
M  V30 1228 H 118.248 2.93147 -0.632844 0
M  V30 1229 H 115.801 1.51945 -0.366391 0
M  V30 1230 H 116.536 2.61395 1.91945 0
M  V30 1231 H 116.321 3.86489 0.66098 0
M  V30 1232 H 117.811 3.83589 1.65073 0
M  V30 1233 N 118.248 0.346503 1.53744 0
M  V30 1234 C 119.494 -0.249473 2.0126 0
M  V30 1235 C 119.827 -1.49965 1.23386 0
M  V30 1236 O 119.102 -1.91811 0.32229 0
M  V30 1237 C 119.385 -0.560643 3.55709 0
M  V30 1238 C 119.238 0.701836 4.44291 0
M  V30 1239 C 120.557 -1.36905 4.18264 0
M  V30 1240 H 117.676 -0.0891987 0.731582 0
M  V30 1241 H 120.318 0.467624 1.84156 0
M  V30 1242 H 118.468 -1.17156 3.70414 0
M  V30 1243 H 120.14 1.33974 4.41417 0
M  V30 1244 H 118.383 1.32612 4.13033 0
M  V30 1245 H 119.054 0.43933 5.50249 0
M  V30 1246 H 121.53 -0.852448 4.07275 0
M  V30 1247 H 120.406 -1.55553 5.26398 0
M  V30 1248 H 120.667 -2.37203 3.73078 0
M  V30 1249 N 119.726 -1.57421 0.075193 0
M  V30 1250 C 120.673 -2.12915 -0.890843 0
M  V30 1251 C 121.643 -1.04252 -1.29309 0
M  V30 1252 O 122.828 -1.31933 -1.37834 0
M  V30 1253 C 119.968 -2.69795 -2.15186 0
M  V30 1254 C 119.081 -3.92624 -1.80194 0
M  V30 1255 C 118.216 -4.37736 -3.00933 0
M  V30 1256 C 117.255 -5.53205 -2.61974 0
M  V30 1257 N 116.392 -5.9326 -3.75483 0
M  V30 1258 H 121.232 -2.95156 -0.410735 0
M  V30 1259 H 118.769 -1.45854 -0.191086 0
M  V30 1260 H 120.727 -3.00883 -2.89008 0
M  V30 1261 H 119.357 -1.90313 -2.60731 0
M  V30 1262 H 118.409 -3.67977 -0.964218 0
M  V30 1263 H 119.721 -4.76482 -1.47534 0
M  V30 1264 H 118.875 -4.70503 -3.8303 0
M  V30 1265 H 117.614 -3.52739 -3.36789 0
M  V30 1266 H 116.619 -5.20086 -1.783 0
M  V30 1267 H 117.844 -6.39936 -2.27284 0
M  V30 1268 H 115.79 -5.11212 -4.11094 0
M  V30 1269 H 115.707 -6.71865 -3.46602 0
M  V30 1270 H 116.975 -6.30651 -4.58148 0
M  V30 1271 N 121.204 0.198386 -1.56346 0
M  V30 1272 C 122.62 0.549085 -1.49857 0
M  V30 1273 C 122.82 1.86016 -0.774611 0
M  V30 1274 O 121.876 2.50416 -0.323776 0
M  V30 1275 C 123.189 0.606868 -2.94512 0
M  V30 1276 C 124.737 0.695925 -3.05165 0
M  V30 1277 C 125.212 0.784848 -4.51225 0
M  V30 1278 N 126.703 0.848463 -4.55363 0
M  V30 1279 C 127.438 0.937378 -5.65686 0
M  V30 1280 N 126.934 0.9888 -6.85707 0
M  V30 1281 N 128.727 0.974312 -5.53592 0
M  V30 1282 H 120.878 -0.661655 -2.01831 0
M  V30 1283 H 123.141 -0.235261 -0.918344 0
M  V30 1284 H 122.847 -0.28732 -3.50524 0
M  V30 1285 H 122.721 1.46268 -3.47686 0
M  V30 1286 H 125.108 1.58055 -2.49204 0
M  V30 1287 H 125.189 -0.186022 -2.55123 0
M  V30 1288 H 124.833 -0.0954072 -5.0781 0
M  V30 1289 H 124.763 1.68255 -4.98997 0
M  V30 1290 H 127.254 0.818103 -3.68938 0
M  V30 1291 H 127.567 1.05707 -7.65536 0
M  V30 1292 H 125.912 0.957534 -6.88372 0
M  V30 1293 H 129.103 0.930954 -4.58749 0
M  V30 1294 H 129.276 1.04015 -6.39597 0
M  V30 1295 N 122.682 1.50554 0.465978 0
M  V30 1296 C 123.931 1.61038 1.21448 0
M  V30 1297 C 124.244 0.31865 1.92987 0
M  V30 1298 O 125.45 0.302469 2.6981 0
M  V30 1299 C 123.906 2.84283 2.20706 0
M  V30 1300 C 123.514 4.20352 1.54946 0
M  V30 1301 C 125.258 3.04115 2.96166 0
M  V30 1302 C 123.165 5.34778 2.5252 0
M  V30 1303 H 122.095 0.599718 0.457005 0
M  V30 1304 H 124.746 1.7699 0.484424 0
M  V30 1305 H 123.128 2.61901 2.97025 0
M  V30 1306 H 124.302 4.53008 0.843811 0
M  V30 1307 H 122.617 4.06167 0.917475 0
M  V30 1308 H 125.214 3.86774 3.69202 0
M  V30 1309 H 125.557 2.16045 3.55852 0
M  V30 1310 H 126.09 3.26702 2.26959 0
M  V30 1311 H 122.829 6.25018 1.97566 0
M  V30 1312 H 122.349 5.06534 3.21222 0
M  V30 1313 H 124.028 5.65561 3.14245 0
M  V30 1314 N 124.16 -0.719506 1.40217 0
M  V30 1315 C 125.576 -1.02707 1.22161 0
M  V30 1316 C 125.776 -2.0128 0.0940557 0
M  V30 1317 O 124.832 -2.46452 -0.549318 0
M  V30 1318 C 126.145 -1.57454 2.56181 0
M  V30 1319 C 127.693 -1.69458 2.63159 0
M  V30 1320 C 128.168 -2.27611 3.97438 0
M  V30 1321 N 129.659 -2.35002 3.99159 0
M  V30 1322 C 130.394 -2.80972 4.99842 0
M  V30 1323 N 129.89 -3.26723 6.10921 0
M  V30 1324 N 131.683 -2.80321 4.87213 0
M  V30 1325 H 123.834 -0.0660492 2.12297 0
M  V30 1326 H 126.097 -0.0919077 0.943534 0
M  V30 1327 H 125.803 -0.924873 3.39321 0
M  V30 1328 H 125.677 -2.56036 2.76993 0
M  V30 1329 H 128.064 -2.33543 1.80393 0
M  V30 1330 H 128.145 -0.694867 2.46181 0
M  V30 1331 H 127.789 -1.6415 4.80643 0
M  V30 1332 H 127.719 -3.2829 4.11744 0
M  V30 1333 H 130.21 -2.02685 3.18947 0
M  V30 1334 H 130.523 -3.60355 6.8364 0
M  V30 1335 H 128.868 -3.24692 6.14492 0
M  V30 1336 H 132.059 -2.43912 3.9953 0
M  V30 1337 H 132.232 -3.15831 5.65822 0
M  V30 1338 N 125.638 -1.25649 -0.95132 0
M  V30 1339 C 126.601 -1.06399 -2.03007 0
M  V30 1340 C 127.601 -0.0156794 -1.60792 0
M  V30 1341 O 128.791 -0.25817 -1.72276 0
M  V30 1342 C 125.923 -0.616184 -3.35285 0
M  V30 1343 H 127.116 -2.02164 -2.21517 0
M  V30 1344 H 124.669 -1.08103 -1.12887 0
M  V30 1345 H 125.404 0.343917 -3.22471 0
M  V30 1346 H 125.189 -1.37301 -3.67275 0
M  V30 1347 H 126.679 -0.503032 -4.14559 0
M  V30 1348 N 127.117 1.15442 -1.07289 0
M  V30 1349 C 128.345 1.90096 -0.81676 0
M  V30 1350 C 128.76 1.7798 0.629966 0
M  V30 1351 O 128.117 1.1313 1.43206 0
M  V30 1352 C 128.168 3.40466 -1.21512 0
M  V30 1353 O 127.889 3.52232 -2.60508 0
M  V30 1354 C 129.39 4.32145 -0.988198 0
M  V30 1355 H 126.61 0.602495 -0.295366 0
M  V30 1356 H 129.154 1.4627 -1.42918 0
M  V30 1357 H 127.309 3.81958 -0.647039 0
M  V30 1358 H 127.723 4.45549 -2.76742 0
M  V30 1359 H 129.197 5.36072 -1.31645 0
M  V30 1360 H 129.674 4.39135 0.0755063 0
M  V30 1361 H 130.28 3.96395 -1.54115 0
M  V30 1362 N 128.595 0.856903 1.32268 0
M  V30 1363 C 129.841 0.462069 1.97466 0
M  V30 1364 C 130.174 -0.980298 1.67642 0
M  V30 1365 O 129.449 -1.68824 0.965858 0
M  V30 1366 C 129.732 0.704336 3.53145 0
M  V30 1367 C 129.585 2.19529 3.9259 0
M  V30 1368 C 130.904 0.1622 4.39801 0
M  V30 1369 H 128.023 0.169357 0.717278 0
M  V30 1370 H 130.665 1.07574 1.56614 0
M  V30 1371 H 128.815 0.181999 3.88073 0
M  V30 1372 H 130.487 2.78387 3.67829 0
M  V30 1373 H 128.73 2.67292 3.41668 0
M  V30 1374 H 129.401 2.31549 5.01088 0
M  V30 1375 H 131.877 0.608905 4.11621 0
M  V30 1376 H 130.753 0.361265 5.4771 0
M  V30 1377 H 131.014 -0.935158 4.32096 0
M  V30 1378 N 130.073 -1.45103 0.615059 0
M  V30 1379 C 131.021 -2.32331 -0.111791 0
M  V30 1380 C 132.015 -1.46409 -0.852102 0
M  V30 1381 O 133.221 -1.62849 -0.766821 0
M  V30 1382 H 129.596 -0.749993 -0.0549072 0
M  V30 1383 H 131.567 -2.91407 0.642225 0
M  V30 1384 C 130.316 -3.3015 -1.09071 0
M  V30 1385 H 129.639 -3.96265 -0.530485 0
M  V30 1386 H 131.079 -3.93898 -1.56908 0
M  V30 1387 C 129.538 -2.57875 -2.168 0
M  V30 1388 O 130.068 -2.36567 -3.24652 0
M  V30 1389 N 128.274 -2.17884 -1.92289 0
M  V30 1390 H 127.821 -2.35413 -1.04587 0
M  V30 1391 H 127.779 -1.6985 -2.64572 0
M  V30 1392 N 131.551 -0.354651 -1.53558 0
M  V30 1393 C 132.776 0.242153 -2.05981 0
M  V30 1394 C 133.201 1.42553 -1.2272 0
M  V30 1395 O 132.559 1.79656 -0.243604 0
M  V30 1396 C 132.607 0.624367 -3.55154 0
M  V30 1397 O 131.711 1.72301 -3.74681 0
M  V30 1398 H 131.052 0.0378432 -0.662921 0
M  V30 1399 H 133.582 -0.512087 -1.98088 0
M  V30 1400 H 133.592 0.898433 -3.97985 0
M  V30 1401 H 132.267 -0.240989 -4.15201 0
M  V30 1402 H 130.844 1.44535 -3.4375 0
M  V30 1403 N 133.029 1.57378 -0.0835403 0
M  V30 1404 C 133.961 2.10389 0.909338 0
M  V30 1405 C 134.974 1.03858 1.25369 0
M  V30 1406 O 136.163 1.31338 1.20882 0
M  V30 1407 C 133.263 2.55908 2.2218 0
M  V30 1408 C 132.436 3.86145 2.05453 0
M  V30 1409 C 131.495 4.17633 3.20108 0
M  V30 1410 O 130.521 4.87043 2.94581 0
M  V30 1411 N 131.723 3.72113 4.45547 0
M  V30 1412 H 134.488 2.962 0.456657 0
M  V30 1413 H 132.049 1.61579 0.101877 0
M  V30 1414 H 134.041 2.74027 2.97811 0
M  V30 1415 H 132.611 1.75171 2.58909 0
M  V30 1416 H 131.831 3.7729 1.1422 0
M  V30 1417 H 133.119 4.7137 1.91541 0
M  V30 1418 H 132.517 3.16062 4.69171 0
M  V30 1419 H 131.074 3.95409 5.18165 0
M  V30 1420 N 134.507 -0.190092 1.56449 0
M  V30 1421 C 135.417 -1.25591 1.98152 0
M  V30 1422 C 136.433 -1.49519 0.889944 0
M  V30 1423 O 137.609 -1.62036 1.19609 0
M  V30 1424 C 134.674 -2.57916 2.3169 0
M  V30 1425 C 133.735 -2.42015 3.5458 0
M  V30 1426 C 132.968 -3.6803 3.8651 0
M  V30 1427 O 133.191 -4.72413 3.1966 0
M  V30 1428 O 132.125 -3.6326 4.79923 0
M  V30 1429 H 135.951 -0.931988 2.89046 0
M  V30 1430 H 133.536 -0.395488 1.4407 0
M  V30 1431 H 135.418 -3.36008 2.54316 0
M  V30 1432 H 134.093 -2.89925 1.43963 0
M  V30 1433 H 133 -1.62017 3.37196 0
M  V30 1434 H 134.333 -2.14937 4.4279 0
M  V30 1435 N 135.985 -1.50799 -0.457987 0
M  V30 1436 C 136.917 -1.66786 -1.57211 0
M  V30 1437 C 137.93 -0.548962 -1.53265 0
M  V30 1438 O 139.119 -0.8226 -1.58416 0
M  V30 1439 C 136.219 -1.64834 -2.96113 0
M  V30 1440 C 135.392 -2.92971 -3.24787 0
M  V30 1441 C 134.451 -2.83485 -4.43309 0
M  V30 1442 O 133.477 -3.5744 -4.42973 0
M  V30 1443 N 134.679 -1.97929 -5.45714 0
M  V30 1444 H 137.444 -2.62889 -1.43909 0
M  V30 1445 H 135.005 -1.48427 -0.646617 0
M  V30 1446 H 136.997 -1.56084 -3.7339 0
M  V30 1447 H 135.567 -0.764118 -3.03117 0
M  V30 1448 H 134.787 -3.15749 -2.36 0
M  V30 1449 H 136.075 -3.77834 -3.40762 0
M  V30 1450 H 135.473 -1.37182 -5.48815 0
M  V30 1451 H 134.03 -1.95073 -6.21924 0
M  V30 1452 N 137.463 0.71206 -1.40597 0
M  V30 1453 C 138.41 1.82613 -1.41142 0
M  V30 1454 C 139.38 1.63925 -0.267903 0
M  V30 1455 O 140.565 1.85009 -0.466495 0
M  V30 1456 C 137.705 3.20354 -1.28324 0
M  V30 1457 C 136.818 3.50589 -2.52411 0
M  V30 1458 C 135.953 4.77855 -2.32009 0
M  V30 1459 C 134.992 5.01005 -3.51654 0
M  V30 1460 N 134.129 6.19487 -3.30425 0
M  V30 1461 H 138.969 1.81482 -2.36365 0
M  V30 1462 H 136.506 0.886475 -1.17388 0
M  V30 1463 H 138.464 3.99899 -1.18899 0
M  V30 1464 H 137.094 3.20705 -0.367189 0
M  V30 1465 H 136.146 2.65573 -2.72351 0
M  V30 1466 H 137.458 3.63604 -3.41458 0
M  V30 1467 H 136.612 5.65424 -2.19956 0
M  V30 1468 H 135.351 4.67056 -1.40392 0
M  V30 1469 H 134.356 4.1189 -3.64179 0
M  V30 1470 H 135.581 5.13674 -4.44202 0
M  V30 1471 H 133.527 6.09932 -2.41494 0
M  V30 1472 H 133.444 6.33194 -4.13039 0
M  V30 1473 H 134.712 7.09834 -3.22113 0
M  V30 1474 N 138.941 1.26152 0.944643 0
M  V30 1475 C 140.357 1.03189 1.21754 0
M  V30 1476 C 140.557 -0.245112 2.00004 0
M  V30 1477 O 139.613 -0.955176 2.33736 0
M  V30 1478 C 140.926 2.26119 1.98219 0
M  V30 1479 C 142.474 2.30984 2.11224 0
M  V30 1480 C 142.949 3.53597 2.91089 0
M  V30 1481 N 144.44 3.54053 2.98664 0
M  V30 1482 C 145.175 4.45593 3.60881 0
M  V30 1483 N 144.671 5.47416 4.24626 0
M  V30 1484 N 146.464 4.33252 3.58119 0
M  V30 1485 H 138.615 2.08177 0.421437 0
M  V30 1486 H 140.878 0.914723 0.248969 0
M  V30 1487 H 140.584 3.18984 1.48128 0
M  V30 1488 H 140.458 2.3009 2.98895 0
M  V30 1489 H 142.845 1.38635 2.60508 0
M  V30 1490 H 142.926 2.31026 1.09821 0
M  V30 1491 H 142.57 4.46273 2.42493 0
M  V30 1492 H 142.5 3.50802 3.92741 0
M  V30 1493 H 144.991 2.80403 2.53343 0
M  V30 1494 H 145.304 6.13459 4.69987 0
M  V30 1495 H 143.649 5.51278 4.23223 0
M  V30 1496 H 146.84 3.52924 3.0751 0
M  V30 1497 H 147.013 5.04786 4.06319 0
M  V30 1498 N 140.419 -1.14872 1.07899 0
M  V30 1499 C 141.349 -2.2193 0.725887 0
M  V30 1500 C 142.33 -1.67622 -0.28927 0
M  V30 1501 O 143.515 -1.93533 -0.160787 0
M  V30 1502 C 140.645 -3.47061 0.128856 0
M  V30 1503 C 139.599 -4.14363 1.07178 0
M  V30 1504 C 138.925 -5.33636 0.337229 0
M  V30 1505 C 140.225 -4.63492 2.40775 0
M  V30 1506 H 141.919 -2.51724 1.62097 0
M  V30 1507 H 139.465 -1.20991 0.780838 0
M  V30 1508 H 141.418 -4.21199 -0.130147 0
M  V30 1509 H 140.142 -3.16617 -0.80134 0
M  V30 1510 H 138.801 -3.42173 1.3158 0
M  V30 1511 H 138.449 -4.99449 -0.596606 0
M  V30 1512 H 138.149 -5.79609 0.965788 0
M  V30 1513 H 139.673 -6.10539 0.0861567 0
M  V30 1514 H 141.087 -5.2913 2.20669 0
M  V30 1515 H 139.484 -5.20148 2.99276 0
M  V30 1516 H 140.554 -3.78834 3.02676 0
M  V30 1517 N 141.898 -0.863906 -1.31812 0
M  V30 1518 C 142.828 -0.330843 -2.31144 0
M  V30 1519 C 143.809 0.575005 -1.60087 0
M  V30 1520 O 144.994 0.493304 -1.8783 0
M  V30 1521 C 142.124 0.47374 -3.44054 0
M  V30 1522 C 141.078 -0.338481 -4.26659 0
M  V30 1523 C 140.404 0.591412 -5.31419 0
M  V30 1524 C 141.704 -1.56926 -4.98168 0
M  V30 1525 H 143.398 -1.16086 -2.75979 0
M  V30 1526 H 140.944 -0.559657 -1.32679 0
M  V30 1527 H 142.897 0.857143 -4.12591 0
M  V30 1528 H 141.621 1.33721 -2.9797 0
M  V30 1529 H 140.28 -0.703754 -3.59782 0
M  V30 1530 H 139.928 1.45199 -4.81587 0
M  V30 1531 H 139.628 0.0519022 -5.87577 0
M  V30 1532 H 141.152 0.97179 -6.02817 0
M  V30 1533 H 142.566 -1.25764 -5.59336 0
M  V30 1534 H 140.963 -2.04739 -5.64094 0
M  V30 1535 H 142.033 -2.32544 -4.25501 0
M  V30 1536 N 143.376 1.44774 -0.622745 0
M  V30 1537 C 144.309 2.27792 0.136329 0
M  V30 1538 C 145.287 1.38041 0.859264 0
M  V30 1539 O 146.471 1.67478 0.86506 0
M  V30 1540 C 143.598 3.16776 1.19878 0
M  V30 1541 C 142.644 4.22575 0.57731 0
M  V30 1542 S 143.477 5.31825 -0.626294 0
M  V30 1543 C 144.633 6.24377 0.436378 0
M  V30 1544 H 144.866 2.91824 -0.567967 0
M  V30 1545 H 142.399 1.48838 -0.410677 0
M  V30 1546 H 144.357 3.68596 1.80686 0
M  V30 1547 H 143.018 2.5198 1.87523 0
M  V30 1548 H 142.211 4.84818 1.37721 0
M  V30 1549 H 141.813 3.73974 0.0440439 0
M  V30 1550 H 144.105 6.64689 1.31128 0
M  V30 1551 H 145.048 7.07941 -0.150271 0
M  V30 1552 H 145.456 5.59381 0.758513 0
M  V30 1553 N 144.854 0.36279 1.53368 0
M  V30 1554 C 146.131 -0.284021 1.93527 0
M  V30 1555 C 146.511 -1.66628 1.29608 0
M  V30 1556 O 145.859 -2.23942 0.45413 0
M  V30 1557 C 146.069 -0.337028 3.47369 0
M  V30 1558 C 147.417 -0.578708 4.20638 0
M  V30 1559 O 148.441 -0.418352 3.53735 0
M  V30 1560 O 147.3 -0.89074 5.39192 0
M  V30 1561 H 144.394 -0.169743 0.809393 0
M  V30 1562 H 146.94 0.41537 1.64538 0
M  V30 1563 H 145.712 0.632217 3.86159 0
M  V30 1564 H 145.335 -1.08243 3.82582 0
M  V30 1565 N 146.332 -1.57332 0.0918853 0
M  V30 1566 C 147.262 -2.16872 -0.865371 0
M  V30 1567 C 148.243 -1.10118 -1.29646 0
M  V30 1568 O 149.428 -1.38242 -1.36392 0
M  V30 1569 C 146.558 -2.74649 -2.12569 0
M  V30 1570 C 145.512 -3.86747 -1.83333 0
M  V30 1571 C 144.838 -4.31212 -3.16166 0
M  V30 1572 C 146.138 -5.10089 -1.1228 0
M  V30 1573 H 147.832 -2.97114 -0.369307 0
M  V30 1574 H 145.378 -1.42918 -0.176194 0
M  V30 1575 H 147.331 -3.14952 -2.7997 0
M  V30 1576 H 146.055 -1.91657 -2.64452 0
M  V30 1577 H 144.714 -3.46978 -1.18331 0
M  V30 1578 H 144.362 -3.45115 -3.6593 0
M  V30 1579 H 144.062 -5.06788 -2.97388 0
M  V30 1580 H 145.586 -4.74146 -3.84731 0
M  V30 1581 H 147 -5.47582 -1.69785 0
M  V30 1582 H 145.397 -5.91073 -1.03693 0
M  V30 1583 H 146.467 -4.84786 -0.105041 0
M  V30 1584 N 147.81 0.181792 -1.56548 0
M  V30 1585 C 149.087 0.926765 -1.72251 0
M  V30 1586 C 149.467 2.00831 -0.650386 0
M  V30 1587 O 148.815 2.26008 0.336521 0
M  V30 1588 C 149.025 1.50106 -3.1507 0
M  V30 1589 C 150.373 1.97805 -3.75711 0
M  V30 1590 O 151.397 1.59922 -3.18282 0
M  V30 1591 O 150.256 2.67555 -4.76525 0
M  V30 1592 H 147.35 0.435506 -0.703039 0
M  V30 1593 H 149.896 0.170443 -1.68842 0
M  V30 1594 H 148.668 0.72212 -3.84579 0
M  V30 1595 H 148.291 2.32186 -3.22763 0
M  V30 1596 N 149.288 1.51039 0.449983 0
M  V30 1597 C 150.537 1.62317 1.19733 0
M  V30 1598 C 150.85 0.339101 1.92638 0
M  V30 1599 O 152.056 0.331069 2.69474 0
M  V30 1600 C 150.512 2.86608 2.17678 0
M  V30 1601 C 150.12 4.21972 1.50479 0
M  V30 1602 C 151.864 3.07239 2.92924 0
M  V30 1603 C 149.771 5.37426 2.46834 0
M  V30 1604 H 148.701 0.604532 0.450619 0
M  V30 1605 H 151.352 1.77494 0.465625 0
M  V30 1606 H 149.734 2.65037 2.94231 0
M  V30 1607 H 150.908 4.53878 0.795716 0
M  V30 1608 H 149.223 4.07117 0.874344 0
M  V30 1609 H 151.82 3.90668 3.65079 0
M  V30 1610 H 152.163 2.19807 3.5354 0
M  V30 1611 H 152.696 3.29091 2.23481 0
M  V30 1612 H 149.435 6.27079 1.90926 0
M  V30 1613 H 148.955 5.09912 3.15832 0
M  V30 1614 H 150.634 5.68862 3.08228 0
M  V30 1615 N 150.766 -0.704594 1.40972 0
M  V30 1616 C 151.991 -1.49858 1.43378 0
M  V30 1617 C 152.416 -1.88061 0.038184 0
M  V30 1618 O 151.774 -1.5402 -0.956425 0
M  V30 1619 C 151.822 -2.74333 2.34038 0
M  V30 1620 O 150.926 -3.7147 1.7912 0
M  V30 1621 H 150.267 -0.45139 0.486974 0
M  V30 1622 H 152.797 -0.866832 1.8533 0
M  V30 1623 H 152.807 -3.22741 2.49604 0
M  V30 1624 H 151.482 -2.45863 3.35446 0
M  V30 1625 H 150.059 -3.30363 1.72958 0
M  V30 1626 N 152.244 -1.26651 -0.937939 0
M  V30 1627 C 153.177 -1.02811 -2.03728 0
M  V30 1628 C 154.155 0.0481915 -1.62529 0
M  V30 1629 O 155.339 -0.0948839 -1.88261 0
M  V30 1630 C 152.466 -0.557517 -3.3408 0
M  V30 1631 C 151.512 -1.62686 -3.94253 0
M  V30 1632 S 152.345 -3.21667 -4.28125 0
M  V30 1633 C 153.501 -2.76384 -5.61572 0
M  V30 1634 H 153.734 -1.95891 -2.23638 0
M  V30 1635 H 151.267 -1.10367 -1.07974 0
M  V30 1636 H 153.225 -0.292674 -4.09455 0
M  V30 1637 H 151.886 0.353062 -3.12109 0
M  V30 1638 H 151.079 -1.24866 -4.88287 0
M  V30 1639 H 150.681 -1.84324 -3.25424 0
M  V30 1640 H 152.973 -2.2105 -6.40424 0
M  V30 1641 H 153.916 -3.69123 -6.0428 0
M  V30 1642 H 154.324 -2.15847 -5.21604 0
M  V30 1643 N 153.722 1.14298 -1.08507 0
M  V30 1644 C 155.138 1.37347 -0.812901 0
M  V30 1645 C 155.338 1.93052 0.577325 0
M  V30 1646 O 154.394 2.14389 1.33393 0
M  V30 1647 C 155.707 2.33359 -1.89642 0
M  V30 1648 C 157.255 2.46996 -1.92255 0
M  V30 1649 C 157.73 3.46309 -2.99724 0
M  V30 1650 N 159.221 3.53853 -2.98902 0
M  V30 1651 C 159.956 4.3055 -3.787 0
M  V30 1652 N 159.452 5.10482 -4.6838 0
M  V30 1653 N 161.245 4.25757 -3.66998 0
M  V30 1654 H 153.396 0.764867 -1.9815 0
M  V30 1655 H 155.659 0.398966 -0.859959 0
M  V30 1656 H 155.365 1.99565 -2.89597 0
M  V30 1657 H 155.239 3.33274 -1.76659 0
M  V30 1658 H 157.626 2.80081 -0.929445 0
M  V30 1659 H 157.707 1.47039 -2.09316 0
M  V30 1660 H 157.351 3.13957 -3.99241 0
M  V30 1661 H 157.281 4.46049 -2.79907 0
M  V30 1662 H 159.772 2.96812 -2.33904 0
M  V30 1663 H 160.085 5.66284 -5.25873 0
M  V30 1664 H 158.43 5.09747 -4.72422 0
M  V30 1665 H 161.621 3.62383 -2.96304 0
M  V30 1666 H 161.794 4.85279 -4.29427 0
M  V30 1667 N 155.201 0.870884 1.31352 0
M  V30 1668 C 156.429 0.49677 2.00848 0
M  V30 1669 C 156.844 -0.910998 1.65367 0
M  V30 1670 O 156.201 -1.59696 0.883374 0
M  V30 1671 C 156.252 0.645308 3.55694 0
M  V30 1672 O 155.973 1.99764 3.89905 0
M  V30 1673 C 157.474 0.272326 4.42463 0
M  V30 1674 H 154.694 0.193462 0.642506 0
M  V30 1675 H 157.238 1.1723 1.67563 0
M  V30 1676 H 155.393 0.0173176 3.87396 0
M  V30 1677 H 155.807 2.00607 4.84621 0
M  V30 1678 H 157.281 0.427208 5.50344 0
M  V30 1679 H 157.758 -0.788587 4.32062 0
M  V30 1680 H 158.364 0.876054 4.1618 0
M  V30 1681 N 156.679 -1.44442 0.630414 0
M  V30 1682 C 157.925 -2.02351 0.134816 0
M  V30 1683 C 158.258 -1.4947 -1.23986 0
M  V30 1684 O 157.533 -0.678475 -1.82283 0
M  V30 1685 C 157.816 -3.59898 0.120707 0
M  V30 1686 C 157.669 -4.23063 1.52767 0
M  V30 1687 C 158.988 -4.36585 -0.555127 0
M  V30 1688 H 156.107 -0.73527 0.0504646 0
M  V30 1689 H 158.749 -1.72022 0.806751 0
M  V30 1690 H 156.899 -3.85868 -0.451477 0
M  V30 1691 H 158.571 -4.08202 2.14869 0
M  V30 1692 H 156.814 -3.80586 2.08175 0
M  V30 1693 H 157.485 -5.32071 1.46984 0
M  V30 1694 H 159.961 -4.16044 -0.0685429 0
M  V30 1695 H 158.837 -5.46294 -0.534185 0
M  V30 1696 H 159.098 -4.11138 -1.62535 0
M  V30 1697 N 158.157 -0.370918 -1.53173 0
M  V30 1698 C 159.434 0.273754 -1.93675 0
M  V30 1699 C 159.814 1.65938 -1.3049 0
M  V30 1700 O 159.162 2.23698 -0.465999 0
M  V30 1701 C 159.372 0.318602 -3.47543 0
M  V30 1702 C 160.72 0.556392 -4.20939 0
M  V30 1703 O 161.744 0.399587 -3.53952 0
M  V30 1704 O 160.603 0.862133 -5.39657 0
M  V30 1705 H 157.697 0.165448 -0.810281 0
M  V30 1706 H 160.243 -0.42409 -1.64315 0
M  V30 1707 H 159.015 -0.652687 -3.85818 0
M  V30 1708 H 158.638 1.06212 -3.83151 0
M  V30 1709 N 159.635 1.57281 -0.100228 0
M  V30 1710 C 160.875 1.96419 0.56558 0
M  V30 1711 C 161.239 0.981265 1.65031 0
M  V30 1712 O 162.44 1.26133 2.37369 0
M  V30 1713 C 160.711 3.39996 1.10171 0
M  V30 1714 S 162.27 4.01134 1.77867 0
M  V30 1715 H 159.088 0.68667 0.184406 0
M  V30 1716 H 161.69 1.94662 -0.180851 0
M  V30 1717 H 160.394 4.09296 0.300803 0
M  V30 1718 H 159.925 3.45361 1.88385 0
M  V30 1719 H 161.94 3.90358 3.06326 0
M  V30 1720 N 161.113 -0.173488 1.56642 0
M  V30 1721 C 162.524 -0.736155 1.71574 0
M  V30 1722 C 162.875 -1.82888 0.710389 0
M  V30 1723 O 162 -2.16017 -0.1287 0
M  V30 1724 C 162.595 -1.34211 3.11083 0
M  V30 1725 C 161.154 -1.85162 3.27707 0
M  V30 1726 C 160.301 -0.729765 2.67525 0
M  V30 1727 H 163.252 0.0518786 1.58615 0
M  V30 1728 H 163.273 -2.21178 3.09613 0
M  V30 1729 H 162.785 -0.546579 3.84232 0
M  V30 1730 H 160.886 -2.67366 2.59512 0
M  V30 1731 H 160.999 -1.99855 4.35425 0
M  V30 1732 H 159.363 -1.14965 2.27278 0
M  V30 1733 H 160.146 0.0538806 3.43258 0
M  V30 1734 N 162.591 -1.51276 -0.441967 0
M  V30 1735 C 163.838 -1.63715 -1.19179 0
M  V30 1736 C 164.166 -0.351175 -1.91303 0
M  V30 1737 O 163.421 0.664524 -1.84072 0
M  V30 1738 C 163.72 -2.78746 -2.23686 0
M  V30 1739 C 163.386 -4.18189 -1.68607 0
M  V30 1740 C 162.048 -4.56125 -1.53308 0
M  V30 1741 C 164.4 -5.05222 -1.28062 0
M  V30 1742 C 161.728 -5.78804 -0.959317 0
M  V30 1743 C 164.08 -6.28476 -0.721162 0
M  V30 1744 C 162.744 -6.65188 -0.55504 0
M  V30 1745 H 162.014 -0.599076 -0.436106 0
M  V30 1746 H 164.661 -1.85296 -0.48351 0
M  V30 1747 H 162.966 -2.51369 -3.00535 0
M  V30 1748 H 164.663 -2.8557 -2.81515 0
M  V30 1749 H 161.253 -3.88277 -1.8149 0
M  V30 1750 H 165.437 -4.76524 -1.38704 0
M  V30 1751 H 160.693 -6.05899 -0.81833 0
M  V30 1752 H 164.867 -6.95259 -0.398458 0
M  V30 1753 H 162.494 -7.60123 -0.108311 0
M  V30 1754 N 164.069 0.697108 -1.41344 0
M  V30 1755 C 165.297 1.48593 -1.43972 0
M  V30 1756 C 165.712 1.88747 -0.0445612 0
M  V30 1757 O 165.069 1.56682 0.935785 0
M  V30 1758 C 165.12 2.74946 -2.34706 0
M  V30 1759 O 164.841 2.36484 -3.68791 0
M  V30 1760 C 166.342 3.687 -2.46121 0
M  V30 1761 H 163.562 0.457964 -0.490418 0
M  V30 1762 H 166.106 0.858429 -1.8561 0
M  V30 1763 H 164.261 3.33937 -1.9638 0
M  V30 1764 H 164.675 3.17918 -4.17167 0
M  V30 1765 H 166.149 4.54145 -3.13777 0
M  V30 1766 H 166.626 4.13081 -1.49199 0
M  V30 1767 H 167.232 3.15613 -2.85076 0
M  V30 1768 N 165.547 1.27147 0.931209 0
M  V30 1769 C 166.793 1.13446 1.68101 0
M  V30 1770 C 167.126 -0.319628 1.91552 0
M  V30 1771 O 166.401 -1.23407 1.50336 0
M  V30 1772 C 166.684 1.91482 3.0497 0
M  V30 1773 C 166.537 3.44855 2.88782 0
M  V30 1774 C 167.856 1.71651 4.05246 0
M  V30 1775 H 164.975 0.413498 0.610072 0
M  V30 1776 H 167.617 1.56261 1.08086 0
M  V30 1777 H 165.767 1.55095 3.56199 0
M  V30 1778 H 167.439 3.9105 2.44698 0
M  V30 1779 H 165.682 3.71373 2.24198 0
M  V30 1780 H 166.353 3.94694 3.85902 0
M  V30 1781 H 168.829 2.0337 3.63015 0
M  V30 1782 H 167.705 2.28651 4.99009 0
M  V30 1783 H 167.966 0.663555 4.37092 0
M  V30 1784 N 167.025 -1.13721 1.09112 0
M  V30 1785 C 168.253 -1.88773 0.846899 0
M  V30 1786 C 168.668 -1.7896 -0.601572 0
M  V30 1787 O 168.025 -1.15394 -1.41388 0
M  V30 1788 C 168.076 -3.3849 1.26913 0
M  V30 1789 O 167.797 -3.48043 2.66079 0
M  V30 1790 C 169.298 -4.30518 1.05682 0
M  V30 1791 H 166.518 -0.59772 0.304914 0
M  V30 1792 H 169.062 -1.43977 1.45227 0
M  V30 1793 H 167.217 -3.80881 0.707723 0
M  V30 1794 H 167.631 -4.4109 2.83795 0
M  V30 1795 H 169.105 -5.3391 1.40156 0
M  V30 1796 H 169.582 -4.392 -0.00563416 0
M  V30 1797 H 170.188 -3.93893 1.60402 0
M  V30 1798 N 168.503 -0.877838 -1.30888 0
M  V30 1799 C 169.75 -0.492696 -1.96415 0
M  V30 1800 C 170.078 0.956671 -1.69346 0
M  V30 1801 O 169.333 1.68993 -0.986913 0
M  V30 1802 C 169.632 -0.705748 -3.50363 0
M  V30 1803 C 169.298 -2.1291 -3.97467 0
M  V30 1804 C 167.96 -2.51834 -4.1004 0
M  V30 1805 C 170.312 -3.05702 -4.22132 0
M  V30 1806 C 167.64 -3.82775 -4.44635 0
M  V30 1807 C 169.992 -4.36166 -4.58194 0
M  V30 1808 C 168.656 -4.74993 -4.68975 0
M  V30 1809 H 167.926 -0.18029 -0.718733 0
M  V30 1810 H 170.573 -1.11233 -1.55883 0
M  V30 1811 H 168.878 -0.00303058 -3.918 0
M  V30 1812 H 170.575 -0.387456 -3.99124 0
M  V30 1813 H 167.165 -1.81694 -3.88182 0
M  V30 1814 H 171.349 -2.76853 -4.11906 0
M  V30 1815 H 166.605 -4.12609 -4.51181 0
M  V30 1816 H 170.779 -5.08111 -4.76231 0
M  V30 1817 H 168.406 -5.76495 -4.95537 0
M  V30 1818 N 169.982 1.44106 -0.638065 0
M  V30 1819 C 171.212 2.06037 -0.152394 0
M  V30 1820 C 171.62 1.47808 1.18108 0
M  V30 1821 O 170.963 0.598092 1.73691 0
M  V30 1822 C 171.025 3.59488 0.0293714 0
M  V30 1823 C 170.689 4.4022 -1.22702 0
M  V30 1824 C 171.686 4.73256 -2.15232 0
M  V30 1825 C 169.371 4.8048 -1.46437 0
M  V30 1826 C 171.365 5.45444 -3.29802 0
M  V30 1827 C 169.052 5.52417 -2.61303 0
M  V30 1828 C 170.05 5.84819 -3.52811 0
M  V30 1829 O 169.738 6.55289 -4.65673 0
M  V30 1830 H 169.47 0.671233 -0.0801401 0
M  V30 1831 H 172.024 1.85851 -0.874563 0
M  V30 1832 H 170.254 3.78191 0.806758 0
M  V30 1833 H 171.943 4.03164 0.470475 0
M  V30 1834 H 172.709 4.42684 -1.98131 0
M  V30 1835 H 168.588 4.54676 -0.760977 0
M  V30 1836 H 172.132 5.70653 -4.01249 0
M  V30 1837 H 168.029 5.82404 -2.78344 0
M  V30 1838 H 168.797 6.73762 -4.64744 0
M  V30 1839 N 171.46 0.379036 1.52974 0
M  V30 1840 C 172.708 -0.206014 2.01047 0
M  V30 1841 C 173.029 -1.48175 1.26765 0
M  V30 1842 O 172.299 -1.92085 0.384743 0
M  V30 1843 H 170.879 -0.0791184 0.742798 0
M  V30 1844 H 173.541 0.508366 1.88153 0
M  V30 1845 H 172.637 -0.423501 3.09213 0
M  V30 1846 N 172.938 -1.57226 0.108567 0
M  V30 1847 C 173.901 -2.13602 -0.831082 0
M  V30 1848 C 174.901 -1.06841 -1.20173 0
M  V30 1849 O 176.091 -1.32666 -1.12895 0
M  V30 1850 C 173.223 -2.66769 -2.12243 0
M  V30 1851 H 174.416 -2.97951 -0.341317 0
M  V30 1852 H 171.969 -1.55667 -0.14057 0
M  V30 1853 H 172.704 -1.85977 -2.65675 0
M  V30 1854 H 172.489 -3.44839 -1.86625 0
M  V30 1855 H 173.979 -3.10332 -2.79435 0
M  V30 1856 N 174.416 0.165178 -1.56732 0
M  V30 1857 C 175.346 1.20651 -1.99914 0
M  V30 1858 C 176.327 1.45827 -0.875705 0
M  V30 1859 O 177.512 1.57057 -1.14223 0
M  V30 1860 C 174.642 2.54401 -2.36427 0
M  V30 1861 C 173.596 2.43782 -3.51787 0
M  V30 1862 C 172.922 3.82078 -3.7406 0
M  V30 1863 C 174.222 1.93732 -4.85041 0
M  V30 1864 H 175.916 0.847534 -2.87154 0
M  V30 1865 H 173.462 0.40625 -1.38151 0
M  V30 1866 H 175.415 3.27458 -2.65234 0
M  V30 1867 H 174.139 2.92098 -1.46103 0
M  V30 1868 H 172.798 1.73178 -3.23117 0
M  V30 1869 H 172.446 4.17179 -2.81017 0
M  V30 1870 H 172.146 3.7584 -4.51684 0
M  V30 1871 H 173.67 4.56712 -4.05274 0
M  V30 1872 H 175.084 2.56569 -5.12684 0
M  V30 1873 H 173.481 1.98428 -5.66345 0
M  V30 1874 H 174.551 0.891962 -4.76626 0
M  V30 1875 N 175.894 1.51508 0.433938 0
M  V30 1876 C 177.141 1.64345 1.18309 0
M  V30 1877 C 177.469 0.361315 1.91115 0
M  V30 1878 O 176.724 -0.654753 1.84422 0
M  V30 1879 C 177.023 2.79928 2.22205 0
M  V30 1880 C 176.689 4.19078 1.66387 0
M  V30 1881 C 175.351 4.56932 1.50887 0
M  V30 1882 C 177.703 5.05894 1.25381 0
M  V30 1883 C 175.031 5.79305 0.928608 0
M  V30 1884 C 177.383 6.2885 0.687823 0
M  V30 1885 C 176.047 6.65473 0.519755 0
M  V30 1886 H 175.317 0.601381 0.432923 0
M  V30 1887 H 177.964 1.85549 0.473676 0
M  V30 1888 H 176.269 2.52959 2.99197 0
M  V30 1889 H 177.966 2.87059 2.79997 0
M  V30 1890 H 174.556 3.89234 1.79428 0
M  V30 1891 H 178.74 4.77253 1.36175 0
M  V30 1892 H 173.996 6.06324 0.786186 0
M  V30 1893 H 178.17 6.95461 0.361581 0
M  V30 1894 H 175.797 7.6017 0.0679979 0
M  V30 1895 N 177.372 -0.689602 1.41712 0
M  V30 1896 C 178.788 -1.00093 1.24312 0
M  V30 1897 C 178.988 -2.01036 0.136729 0
M  V30 1898 O 178.044 -2.47562 -0.496918 0
M  V30 1899 C 179.357 -1.51985 2.59463 0
M  V30 1900 C 180.905 -1.63838 2.66695 0
M  V30 1901 C 181.38 -2.1913 4.02177 0
M  V30 1902 N 182.871 -2.26483 4.04054 0
M  V30 1903 C 183.606 -2.70306 5.0569 0
M  V30 1904 N 183.102 -3.13691 6.17713 0
M  V30 1905 N 184.895 -2.69923 4.9305 0
M  V30 1906 H 177.046 -0.0210029 2.1239 0
M  V30 1907 H 179.309 -0.0718733 0.945272 0
M  V30 1908 H 179.015 -0.85269 3.41207 0
M  V30 1909 H 178.889 -2.50103 2.82362 0
M  V30 1910 H 181.276 -2.29664 1.85306 0
M  V30 1911 H 181.357 -0.642492 2.476 0
M  V30 1912 H 181.001 -1.53918 4.84016 0
M  V30 1913 H 180.931 -3.19482 4.18615 0
M  V30 1914 H 183.422 -1.95874 3.23174 0
M  V30 1915 H 183.735 -3.45773 6.9113 0
M  V30 1916 H 182.08 -3.11585 6.21241 0
M  V30 1917 H 185.271 -2.35382 4.04614 0
M  V30 1918 H 185.444 -3.03758 5.72394 0
M  V30 1919 N 178.85 -1.27639 -0.924453 0
M  V30 1920 C 179.76 -1.12466 -2.05885 0
M  V30 1921 C 180.776 -0.053869 -1.73917 0
M  V30 1922 O 181.952 -0.261012 -1.99702 0
M  V30 1923 C 179.017 -0.776768 -3.37886 0
M  V30 1924 C 178.078 -1.92878 -3.83532 0
M  V30 1925 C 177.311 -1.59739 -5.09234 0
M  V30 1926 O 177.534 -0.506782 -5.68144 0
M  V30 1927 O 176.468 -2.43761 -5.50331 0
M  V30 1928 H 180.294 -2.07671 -2.21599 0
M  V30 1929 H 177.879 -1.06857 -1.04413 0
M  V30 1930 H 179.761 -0.596229 -4.17161 0
M  V30 1931 H 178.436 0.145732 -3.23372 0
M  V30 1932 H 177.343 -2.1644 -3.0513 0
M  V30 1933 H 178.676 -2.8316 -4.02593 0
M  V30 1934 N 180.328 1.1314 -1.09713 0
M  V30 1935 C 181.576 1.84119 -0.833338 0
M  V30 1936 C 181.897 1.84097 0.642904 0
M  V30 1937 O 181.167 1.29881 1.46655 0
M  V30 1938 H 179.747 0.681766 -0.305293 0
M  V30 1939 H 182.409 1.37038 -1.38588 0
M  V30 1940 H 181.505 2.88543 -1.18951 0
M  V30 1941 N 181.806 0.884767 1.30421 0
M  V30 1942 C 183.083 0.423185 1.90967 0
M  V30 1943 C 183.463 -1.09605 1.80416 0
M  V30 1944 O 182.811 -1.93126 1.22125 0
M  V30 1945 C 183.021 0.921056 3.36627 0
M  V30 1946 C 184.369 0.955903 4.137 0
M  V30 1947 O 185.393 0.867706 3.4547 0
M  V30 1948 O 184.252 1.08614 5.35598 0
M  V30 1949 H 181.346 0.129369 0.816819 0
M  V30 1950 H 183.892 0.973653 1.3899 0
M  V30 1951 H 182.664 1.96489 3.3839 0
M  V30 1952 H 182.287 0.349741 3.96059 0
M  V30 1953 N 183.284 -1.43765 0.645699 0
M  V30 1954 C 184.53 -2.02197 0.156271 0
M  V30 1955 C 184.863 -1.50776 -1.22393 0
M  V30 1956 O 184.138 -0.697771 -1.81553 0
M  V30 1957 C 184.421 -3.59749 0.158872 0
M  V30 1958 C 184.274 -4.21419 1.57245 0
M  V30 1959 C 185.593 -4.37149 -0.50879 0
M  V30 1960 H 182.712 -0.734694 0.0582602 0
M  V30 1961 H 185.354 -1.71157 0.824951 0
M  V30 1962 H 183.504 -3.86325 -0.410525 0
M  V30 1963 H 185.176 -4.059 2.19186 0
M  V30 1964 H 183.419 -3.78356 2.122 0
M  V30 1965 H 184.09 -5.30482 1.52619 0
M  V30 1966 H 186.566 -4.16093 -0.024412 0
M  V30 1967 H 185.442 -5.4683 -0.476213 0
M  V30 1968 H 185.703 -4.12839 -1.58165 0
M  V30 1969 N 184.763 -0.387143 -1.52771 0
M  V30 1970 C 186.009 0.188506 -2.02525 0
M  V30 1971 C 186.364 1.44649 -1.26864 0
M  V30 1972 O 185.657 1.88189 -0.359945 0
M  V30 1973 C 185.851 0.512209 -3.53711 0
M  V30 1974 C 185.68 -0.712855 -4.44014 0
M  V30 1975 C 184.45 -1.23147 -4.90064 0
M  V30 1976 C 186.648 -1.58453 -4.89282 0
M  V30 1977 N 184.63 -2.41431 -5.64433 0
M  V30 1978 C 186.001 -2.61381 -5.6221 0
M  V30 1979 C 188.056 -1.60488 -4.71326 0
M  V30 1980 C 186.759 -3.66227 -6.19088 0
M  V30 1981 C 188.785 -2.6424 -5.29085 0
M  V30 1982 C 188.147 -3.6589 -6.01917 0
M  V30 1983 H 184.246 0.0311236 -0.78138 0
M  V30 1984 H 186.83 -0.536548 -1.87161 0
M  V30 1985 H 185.001 1.20632 -3.69192 0
M  V30 1986 H 186.733 1.07482 -3.90166 0
M  V30 1987 H 183.488 -0.792795 -4.66917 0
M  V30 1988 H 183.912 -3.01274 -6.0627 0
M  V30 1989 H 188.554 -0.83247 -4.14524 0
M  V30 1990 H 186.272 -4.44337 -6.74974 0
M  V30 1991 H 189.858 -2.66695 -5.17074 0
M  V30 1992 H 188.738 -4.44855 -6.45813 0
M  V30 1993 N 186.241 1.57166 -0.116904 0
M  V30 1994 C 187.49 1.94298 0.541407 0
M  V30 1995 C 187.803 1.00236 1.67964 0
M  V30 1996 O 189.009 1.26826 2.40057 0
M  V30 1997 C 187.465 3.45306 1.01449 0
M  V30 1998 C 187.073 4.47899 -0.0951738 0
M  V30 1999 C 188.817 3.91361 1.6443 0
M  V30 2000 C 186.724 5.90083 0.394491 0
M  V30 2001 H 185.654 0.725308 0.206019 0
M  V30 2002 H 188.305 1.82446 -0.196419 0
M  V30 2003 H 186.687 3.52385 1.80667 0
M  V30 2004 H 187.861 4.52486 -0.871374 0
M  V30 2005 H 186.176 4.11583 -0.631505 0
M  V30 2006 H 188.773 4.95004 2.02176 0
M  V30 2007 H 189.116 3.3122 2.52189 0
M  V30 2008 H 189.649 3.87073 0.917559 0
M  V30 2009 H 186.388 6.53974 -0.447004 0
M  V30 2010 H 185.908 5.88921 1.13722 0
M  V30 2011 H 187.587 6.41307 0.856399 0
M  V30 2012 N 187.719 -0.156864 1.56817 0
M  V30 2013 C 188.959 -0.877453 1.84608 0
M  V30 2014 C 189.323 -1.78791 0.699845 0
M  V30 2015 O 190.524 -2.5472 0.858553 0
M  V30 2016 C 188.795 -1.63992 3.17555 0
M  V30 2017 S 190.354 -2.40729 3.66872 0
M  V30 2018 H 187.172 -0.293612 0.647544 0
M  V30 2019 H 189.774 -0.138099 1.95012 0
M  V30 2020 H 188.478 -0.962363 3.98957 0
M  V30 2021 H 188.009 -2.42038 3.10131 0
M  V30 2022 H 190.024 -3.65725 3.3535 0
M  V30 2023 N 189.197 -1.51736 -0.425897 0
M  V30 2024 C 190.13 -1.68574 -1.53812 0
M  V30 2025 C 191.108 -0.53328 -1.53606 0
M  V30 2026 O 192.292 -0.758555 -1.72564 0
M  V30 2027 C 189.419 -1.70977 -2.92377 0
M  V30 2028 C 188.465 -2.92324 -3.10563 0
M  V30 2029 S 189.298 -4.52952 -2.85648 0
M  V30 2030 C 190.454 -4.58117 -4.26474 0
M  V30 2031 H 190.687 -2.62647 -1.39298 0
M  V30 2032 H 188.22 -1.41564 -0.616361 0
M  V30 2033 H 190.178 -1.73047 -3.72243 0
M  V30 2034 H 188.839 -0.78061 -3.04245 0
M  V30 2035 H 188.032 -2.90439 -4.11899 0
M  V30 2036 H 187.634 -2.88055 -2.38538 0
M  V30 2037 H 189.926 -4.34462 -5.19855 0
M  V30 2038 H 190.869 -5.59983 -4.33388 0
M  V30 2039 H 191.277 -3.8732 -4.10662 0
M  V30 2040 N 190.675 0.682077 -1.42076 0
M  V30 2041 C 191.585 1.82535 -1.47371 0
M  V30 2042 C 192.601 1.7017 -0.363079 0
M  V30 2043 O 193.777 1.91848 -0.612875 0
M  V30 2044 C 190.842 3.18624 -1.36674 0
M  V30 2045 C 189.903 3.42999 -2.58167 0
M  V30 2046 C 189.136 4.72595 -2.4797 0
M  V30 2047 O 189.359 5.50006 -1.5116 0
M  V30 2048 O 188.293 4.98054 -3.37974 0
M  V30 2049 H 192.119 1.81023 -2.43853 0
M  V30 2050 H 189.704 0.836887 -1.2376 0
M  V30 2051 H 191.586 3.99847 -1.33043 0
M  V30 2052 H 190.261 3.20789 -0.433138 0
M  V30 2053 H 189.168 2.61653 -2.67373 0
M  V30 2054 H 190.501 3.45659 -3.50401 0
M  V30 2055 N 192.153 1.28127 0.917671 0
M  V30 2056 C 193.083 1.14248 2.03641 0
M  V30 2057 C 194.064 0.0412748 1.7005 0
M  V30 2058 O 195.249 0.217566 1.92977 0
M  V30 2059 C 192.379 0.799431 3.37974 0
M  V30 2060 C 191.333 1.85497 3.85713 0
M  V30 2061 C 190.659 1.36565 5.16966 0
M  V30 2062 C 191.959 3.26085 4.08002 0
M  V30 2063 H 193.653 2.07835 2.15511 0
M  V30 2064 H 191.199 1.00064 1.03553 0
M  V30 2065 H 193.152 0.689114 4.15727 0
M  V30 2066 H 191.876 -0.172145 3.26146 0
M  V30 2067 H 190.535 1.95437 3.10161 0
M  V30 2068 H 190.183 0.383253 5.01538 0
M  V30 2069 H 189.883 2.07143 5.49878 0
M  V30 2070 H 191.407 1.26848 5.97279 0
M  V30 2071 H 192.821 3.19089 4.76293 0
M  V30 2072 H 191.218 3.94462 4.52238 0
M  V30 2073 H 192.288 3.70394 3.12948 0
M  V30 2074 N 193.631 -1.12557 1.10312 0
M  V30 2075 C 194.564 -2.1737 0.694674 0
M  V30 2076 C 195.542 -1.59745 -0.303373 0
M  V30 2077 O 196.726 -1.87408 -0.202578 0
M  V30 2078 C 193.853 -3.38691 0.0248052 0
M  V30 2079 C 192.899 -4.14943 0.986121 0
M  V30 2080 S 193.732 -4.73413 2.50281 0
M  V30 2081 C 194.888 -5.9807 1.84562 0
M  V30 2082 H 195.121 -2.5168 1.58255 0
M  V30 2083 H 192.654 -1.23998 0.919992 0
M  V30 2084 H 194.612 -4.08959 -0.355361 0
M  V30 2085 H 193.273 -3.02664 -0.839851 0
M  V30 2086 H 192.466 -5.01854 0.464651 0
M  V30 2087 H 192.068 -3.50377 1.30813 0
M  V30 2088 H 194.36 -6.67232 1.17507 0
M  V30 2089 H 195.303 -6.54841 2.69423 0
M  V30 2090 H 195.711 -5.49073 1.31069 0
M  V30 2091 N 195.109 -0.891671 -1.2995 0
M  V30 2092 C 196.386 -0.433307 -1.9074 0
M  V30 2093 C 196.766 1.08646 -1.80995 0
M  V30 2094 O 196.114 1.92476 -1.23147 0
M  V30 2095 C 196.324 -0.938895 -3.36134 0
M  V30 2096 C 197.672 -0.977829 -4.13187 0
M  V30 2097 O 198.696 -0.886015 -3.45005 0
M  V30 2098 O 197.555 -1.11453 -5.35015 0
M  V30 2099 H 194.649 -0.133699 -0.816121 0
M  V30 2100 H 197.195 -0.981011 -1.38471 0
M  V30 2101 H 195.967 -1.98281 -3.37343 0
M  V30 2102 H 195.59 -0.37074 -3.95868 0
M  V30 2103 N 196.587 1.43421 -0.653314 0
M  V30 2104 C 197.815 2.06163 -0.174491 0
M  V30 2105 C 198.23 1.48969 1.1599 0
M  V30 2106 O 197.587 0.621042 1.71608 0
M  V30 2107 C 197.638 3.61417 -0.0774865 0
M  V30 2108 O 197.359 4.16485 -1.35912 0
M  V30 2109 C 198.86 4.41235 0.427402 0
M  V30 2110 H 196.08 0.664946 -0.0899353 0
M  V30 2111 H 198.624 1.83924 -0.893988 0
M  V30 2112 H 196.779 3.82841 0.59257 0
M  V30 2113 H 197.193 5.10153 -1.21839 0
M  V30 2114 H 198.667 5.5021 0.44423 0
M  V30 2115 H 199.144 4.14268 1.45873 0
M  V30 2116 H 199.75 4.2478 -0.210167 0
M  V30 2117 N 198.065 0.39524 1.52563 0
M  V30 2118 C 199.29 -0.187456 2.06551 0
M  V30 2119 C 199.715 -1.39249 1.26457 0
M  V30 2120 O 199.073 -1.78947 0.291151 0
M  V30 2121 C 199.121 -0.529985 3.56684 0
M  V30 2122 O 198.225 -1.62307 3.79118 0
M  V30 2123 H 197.566 -0.0202537 0.663691 0
M  V30 2124 H 200.096 0.564426 1.96661 0
M  V30 2125 H 200.106 -0.792598 4.00227 0
M  V30 2126 H 198.781 0.350987 4.14416 0
M  V30 2127 H 197.358 -1.3537 3.47461 0
M  V30 2128 N 199.544 -1.57102 0.125237 0
M  V30 2129 C 200.474 -2.18659 -0.819174 0
M  V30 2130 C 201.455 -1.12843 -1.27281 0
M  V30 2131 O 202.64 -1.41104 -1.33429 0
M  V30 2132 C 199.77 -2.79096 -2.06695 0
M  V30 2133 C 198.724 -3.90548 -1.75088 0
M  V30 2134 C 198.05 -4.37821 -3.06948 0
M  V30 2135 C 199.35 -5.12356 -1.01435 0
M  V30 2136 H 201.044 -2.9783 -0.306202 0
M  V30 2137 H 198.59 -1.4326 -0.145839 0
M  V30 2138 H 200.543 -3.2082 -2.73226 0
M  V30 2139 H 199.267 -1.97223 -2.60328 0
M  V30 2140 H 197.926 -3.49409 -1.10944 0
M  V30 2141 H 197.574 -3.52799 -3.58527 0
M  V30 2142 H 197.274 -5.12982 -2.86571 0
M  V30 2143 H 198.798 -4.822 -3.74587 0
M  V30 2144 H 200.212 -5.5106 -1.58132 0
M  V30 2145 H 198.609 -5.9314 -0.911319 0
M  V30 2146 H 199.679 -4.849 -0.00218681 0
M  V30 2147 N 201.022 0.148545 -1.56898 0
M  V30 2148 C 202.299 0.890019 -1.74178 0
M  V30 2149 C 202.679 1.99407 -0.692839 0
M  V30 2150 O 202.027 2.26671 0.288505 0
M  V30 2151 C 202.237 1.43389 -3.18183 0
M  V30 2152 C 203.585 1.89791 -3.79822 0
M  V30 2153 O 204.609 1.53134 -3.21603 0
M  V30 2154 O 203.468 2.57387 -4.82093 0
M  V30 2155 H 200.562 0.420496 -0.712118 0
M  V30 2156 H 203.108 0.134591 -1.69165 0
M  V30 2157 H 201.88 0.640383 -3.86024 0
M  V30 2158 H 201.503 2.25287 -3.27615 0
M  V30 2159 N 202.5 1.5196 0.417844 0
M  V30 2160 C 203.447 1.74678 1.50852 0
M  V30 2161 C 204.417 0.588947 1.55308 0
M  V30 2162 O 205.602 0.825544 1.72016 0
M  V30 2163 C 202.742 1.89544 2.88387 0
M  V30 2164 C 201.855 3.17166 2.93309 0
M  V30 2165 C 200.99 3.22513 4.22088 0
M  V30 2166 C 200.029 4.44372 4.20951 0
M  V30 2167 N 199.166 4.47161 5.41287 0
M  V30 2168 H 204.006 2.67768 1.30783 0
M  V30 2169 H 201.543 1.32689 0.63498 0
M  V30 2170 H 203.501 1.96146 3.68216 0
M  V30 2171 H 202.131 0.998424 3.06971 0
M  V30 2172 H 201.183 3.19778 2.06024 0
M  V30 2173 H 202.495 4.07021 2.88332 0
M  V30 2174 H 201.649 3.28139 5.10303 0
M  V30 2175 H 200.388 2.30581 4.29748 0
M  V30 2176 H 199.393 4.38902 3.31127 0
M  V30 2177 H 200.618 5.3759 4.14938 0
M  V30 2178 H 198.564 3.58108 5.49632 0
M  V30 2179 H 198.481 5.3085 5.3827 0
M  V30 2180 H 199.749 4.57005 6.3148 0
M  V30 2181 N 203.978 -0.674533 1.42435 0
M  V30 2182 C 205.225 -1.43459 1.42919 0
M  V30 2183 C 205.553 -1.94446 0.0457312 0
M  V30 2184 O 204.808 -1.7132 -0.94593 0
M  V30 2185 C 205.107 -2.64767 2.40069 0
M  V30 2186 C 204.773 -2.3232 3.86443 0
M  V30 2187 C 203.435 -2.23182 4.26314 0
M  V30 2188 C 205.787 -2.05977 4.78773 0
M  V30 2189 C 203.115 -1.85827 5.56494 0
M  V30 2190 C 205.467 -1.70125 6.09295 0
M  V30 2191 C 204.131 -1.59498 6.48164 0
M  V30 2192 H 203.401 -0.524952 0.522978 0
M  V30 2193 H 206.048 -0.769097 1.75377 0
M  V30 2194 H 204.353 -3.36349 2.00939 0
M  V30 2195 H 206.05 -3.22949 2.37707 0
M  V30 2196 H 202.64 -2.40334 3.54877 0
M  V30 2197 H 206.824 -2.11969 4.48757 0
M  V30 2198 H 202.08 -1.76168 5.8547 0
M  V30 2199 H 206.254 -1.48767 6.80324 0
M  V30 2200 H 203.881 -1.30322 7.48946 0
M  V30 2201 N 205.456 -1.28612 -0.910864 0
M  V30 2202 C 206.686 -1.1862 -1.69153 0
M  V30 2203 C 207.094 0.257324 -1.87442 0
M  V30 2204 O 206.437 1.18543 -1.40332 0
M  V30 2205 C 206.499 -1.81606 -3.10257 0
M  V30 2206 C 206.163 -3.30864 -3.15243 0
M  V30 2207 C 207.16 -4.27256 -2.96223 0
M  V30 2208 C 204.845 -3.71871 -3.37664 0
M  V30 2209 C 206.839 -5.62631 -2.99541 0
M  V30 2210 C 204.526 -5.07371 -3.40614 0
M  V30 2211 C 205.524 -6.02561 -3.21573 0
M  V30 2212 O 205.212 -7.35589 -3.2429 0
M  V30 2213 H 204.944 -0.412633 -0.535453 0
M  V30 2214 H 207.498 -1.70306 -1.14827 0
M  V30 2215 H 205.728 -1.24418 -3.66138 0
M  V30 2216 H 207.417 -1.66092 -3.70362 0
M  V30 2217 H 208.183 -3.9691 -2.78725 0
M  V30 2218 H 204.062 -2.98241 -3.5153 0
M  V30 2219 H 207.606 -6.36907 -2.84597 0
M  V30 2220 H 203.503 -5.37366 -3.57642 0
M  V30 2221 H 204.271 -7.44252 -3.40633 0
M  V30 2222 N 206.934 1.1197 -1.10907 0
M  V30 2223 C 207.881 2.17846 -0.762345 0
M  V30 2224 C 208.851 1.63995 0.263599 0
M  V30 2225 O 210.036 1.90273 0.141773 0
M  V30 2226 C 207.176 3.44487 -0.205651 0
M  V30 2227 C 206.289 4.12369 -1.28748 0
M  V30 2228 C 205.424 5.26674 -0.691919 0
M  V30 2229 C 204.463 5.86431 -1.75399 0
M  V30 2230 N 203.6 6.92142 -1.17833 0
M  V30 2231 H 208.44 2.46851 -1.6694 0
M  V30 2232 H 205.977 1.21188 -0.833776 0
M  V30 2233 H 207.935 4.16981 0.135037 0
M  V30 2234 H 206.565 3.15884 0.664613 0
M  V30 2235 H 205.617 3.38003 -1.74522 0
M  V30 2236 H 206.929 4.52844 -2.09125 0
M  V30 2237 H 206.083 6.05953 -0.300963 0
M  V30 2238 H 204.822 4.8749 0.143232 0
M  V30 2239 H 203.827 5.05835 -2.15432 0
M  V30 2240 H 205.052 6.27685 -2.59208 0
M  V30 2241 H 202.998 6.54985 -0.364725 0
M  V30 2242 H 202.915 7.31242 -1.91887 0
M  V30 2243 H 204.183 7.75237 -0.81408 0
M  V30 2244 N 208.412 0.89855 1.29475 0
M  V30 2245 C 209.344 0.332726 2.26772 0
M  V30 2246 C 210.357 -0.520323 1.54261 0
M  V30 2247 O 211.546 -0.337668 1.75277 0
M  V30 2248 C 208.646 -0.544334 3.345 0
M  V30 2249 C 207.819 0.282728 4.36485 0
M  V30 2250 C 206.878 -0.526982 5.23555 0
M  V30 2251 O 205.904 0.0551165 5.69173 0
M  V30 2252 N 207.106 -1.83331 5.5079 0
M  V30 2253 H 209.871 1.16897 2.75962 0
M  V30 2254 H 207.432 0.762919 1.42798 0
M  V30 2255 H 209.424 -1.09239 3.89678 0
M  V30 2256 H 207.994 -1.28127 2.85136 0
M  V30 2257 H 207.214 1.01221 3.80983 0
M  V30 2258 H 208.502 0.84918 5.01664 0
M  V30 2259 H 207.9 -2.32898 5.15534 0
M  V30 2260 H 206.457 -2.32852 6.08788 0
M  V30 2261 N 209.89 -1.43072 0.660911 0
M  V30 2262 C 211.136 -2.0202 0.177708 0
M  V30 2263 C 211.469 -1.52066 -1.20787 0
M  V30 2264 O 210.744 -0.716987 -1.80802 0
M  V30 2265 C 211.027 -3.59561 0.197019 0
M  V30 2266 C 210.88 -4.19727 1.61706 0
M  V30 2267 C 212.199 -4.37664 -0.462396 0
M  V30 2268 H 209.318 -0.734034 0.0660494 0
M  V30 2269 H 211.96 -1.70272 0.843058 0
M  V30 2270 H 210.11 -3.86739 -0.369527 0
M  V30 2271 H 211.782 -4.03553 2.23479 0
M  V30 2272 H 210.025 -3.76084 2.16201 0
M  V30 2273 H 210.696 -5.28834 1.58237 0
M  V30 2274 H 213.172 -4.16095 0.0197215 0
M  V30 2275 H 212.048 -5.47305 -0.418188 0
M  V30 2276 H 212.309 -4.14493 -1.53778 0
M  V30 2277 N 211.368 -0.403325 -1.52352 0
M  V30 2278 C 212.617 0.175668 -2.00934 0
M  V30 2279 C 212.93 1.46718 -1.29356 0
M  V30 2280 O 214.136 2.12708 -1.68724 0
M  V30 2281 C 212.592 0.363612 -3.58058 0
M  V30 2282 C 212.2 -0.915472 -4.38547 0
M  V30 2283 C 213.944 0.89821 -4.14888 0
M  V30 2284 C 211.851 -0.695035 -5.87302 0
M  V30 2285 H 210.781 0.0694234 -0.750797 0
M  V30 2286 H 213.432 -0.527879 -1.75743 0
M  V30 2287 H 211.814 1.12935 -3.79555 0
M  V30 2288 H 212.988 -1.68691 -4.28812 0
M  V30 2289 H 211.303 -1.37606 -3.93006 0
M  V30 2290 H 213.9 1.07907 -5.23699 0
M  V30 2291 H 214.243 1.87126 -3.71873 0
M  V30 2292 H 214.776 0.191681 -3.97338 0
M  V30 2293 H 211.515 -1.63948 -6.34666 0
M  V30 2294 H 211.035 0.0372116 -5.99788 0
M  V30 2295 H 212.714 -0.33497 -6.46132 0
M  V30 2296 N 212.846 1.57033 -0.133567 0
M  V30 2297 C 214.123 1.87256 0.56522 0
M  V30 2298 C 214.503 1.03726 1.83859 0
M  V30 2299 O 213.851 0.120247 2.28183 0
M  V30 2300 C 214.061 3.3865 0.843636 0
M  V30 2301 C 215.409 4.07574 1.19032 0
M  V30 2302 O 216.433 3.43752 0.933429 0
M  V30 2303 O 215.292 5.20259 1.67312 0
M  V30 2304 H 212.386 0.775678 0.286796 0
M  V30 2305 H 214.932 1.68855 -0.169168 0
M  V30 2306 H 213.704 3.91257 -0.0581149 0
M  V30 2307 H 213.327 3.62532 1.63268 0
M  V30 2308 N 214.325 -0.140222 1.56975 0
M  V30 2309 C 215.272 -1.17292 1.98774 0
M  V30 2310 C 216.242 -1.4232 0.856408 0
M  V30 2311 O 217.427 -1.54541 1.119 0
M  V30 2312 C 214.567 -2.49973 2.37923 0
M  V30 2313 C 213.68 -2.32062 3.64378 0
M  V30 2314 C 212.815 -3.57825 3.926 0
M  V30 2315 C 211.854 -3.3498 5.12303 0
M  V30 2316 N 210.991 -4.52891 5.36502 0
M  V30 2317 H 215.831 -0.809472 2.86795 0
M  V30 2318 H 213.368 -0.388237 1.41884 0
M  V30 2319 H 215.326 -3.27346 2.58652 0
M  V30 2320 H 213.956 -2.84252 1.52972 0
M  V30 2321 H 213.008 -1.45711 3.51387 0
M  V30 2322 H 214.32 -2.11145 4.51906 0
M  V30 2323 H 213.474 -4.43624 4.13863 0
M  V30 2324 H 212.213 -3.81753 3.03506 0
M  V30 2325 H 211.218 -2.4757 4.90906 0
M  V30 2326 H 212.443 -3.12444 6.02956 0
M  V30 2327 H 210.389 -4.76979 4.50363 0
M  V30 2328 H 210.306 -4.35001 6.18312 0
M  V30 2329 H 211.574 -5.39884 5.62268 0
M  V30 2330 N 215.803 -1.52179 -0.40978 0
M  V30 2331 C 217.051 -1.65878 -1.15451 0
M  V30 2332 C 217.372 -0.390771 -1.91044 0
M  V30 2333 O 216.642 0.594323 -1.86667 0
M  V30 2334 H 215.222 -0.611405 -0.429177 0
M  V30 2335 H 217.884 -1.89219 -0.467134 0
M  V30 2336 H 216.98 -2.49954 -1.86894 0
M  V30 2337 N 217.281 0.66697 -1.42791 0
M  V30 2338 C 218.213 1.7925 -1.42836 0
M  V30 2339 C 219.226 1.59496 -0.326333 0
M  V30 2340 O 220.415 1.6847 -0.589916 0
M  V30 2341 C 217.515 3.16476 -1.21229 0
M  V30 2342 C 216.688 3.63011 -2.44013 0
M  V30 2343 C 215.747 4.78993 -2.17834 0
M  V30 2344 O 214.773 4.89137 -2.91091 0
M  V30 2345 N 215.975 5.68248 -1.18635 0
M  V30 2346 H 218.74 1.79695 -2.39854 0
M  V30 2347 H 216.301 0.850338 -1.37771 0
M  V30 2348 H 218.293 3.91734 -1.01621 0
M  V30 2349 H 216.863 3.10884 -0.32706 0
M  V30 2350 H 216.083 2.78346 -2.79137 0
M  V30 2351 H 217.371 3.90845 -3.25757 0
M  V30 2352 H 216.769 5.62712 -0.580615 0
M  V30 2353 H 215.326 6.43285 -1.05013 0
M  V30 2354 N 218.759 1.29093 0.90403 0
M  V30 2355 C 219.987 1.19689 1.68766 0
M  V30 2356 C 220.402 -0.243113 1.87228 0
M  V30 2357 O 219.759 -1.16326 1.40621 0
M  V30 2358 C 219.81 1.90144 3.07453 0
M  V30 2359 O 219.531 3.2852 2.89838 0
M  V30 2360 C 221.032 1.87162 4.01852 0
M  V30 2361 H 218.252 0.415035 0.527244 0
M  V30 2362 H 220.796 1.7039 1.13082 0
M  V30 2363 H 218.951 1.43289 3.59926 0
M  V30 2364 H 219.365 3.63944 3.77684 0
M  V30 2365 H 220.839 2.41032 4.96596 0
M  V30 2366 H 221.316 0.84617 4.30972 0
M  V30 2367 H 221.922 2.33741 3.5531 0
M  V30 2368 N 220.237 -1.11381 1.11499 0
M  V30 2369 C 221.486 -1.82494 0.858993 0
M  V30 2370 C 221.799 -1.85605 -0.617278 0
M  V30 2371 O 223.005 -2.52824 -0.989552 0
M  V30 2372 C 221.461 -3.27745 1.48699 0
M  V30 2373 C 221.069 -3.32961 2.99735 0
M  V30 2374 C 222.813 -4.03754 1.31085 0
M  V30 2375 C 220.72 -4.72612 3.55516 0
M  V30 2376 H 219.65 -0.683802 0.317696 0
M  V30 2377 H 222.301 -1.25331 1.34031 0
M  V30 2378 H 220.683 -3.84844 0.933339 0
M  V30 2379 H 221.857 -2.85741 3.61509 0
M  V30 2380 H 220.172 -2.70433 3.16631 0
M  V30 2381 H 222.769 -5.06891 1.70192 0
M  V30 2382 H 223.112 -4.15527 0.253496 0
M  V30 2383 H 223.645 -3.53043 1.83318 0
M  V30 2384 H 220.384 -4.66036 4.60967 0
M  V30 2385 H 219.904 -5.2024 2.98513 0
M  V30 2386 H 221.583 -5.4157 3.53992 0
M  V30 2387 N 221.715 -0.905404 -1.28997 0
M  V30 2388 C 223.126 -0.581953 -1.77398 0
M  V30 2389 C 223.477 0.902552 -1.74208 0
M  V30 2390 O 222.602 1.70584 -1.33154 0
M  V30 2391 C 223.197 -1.04961 -3.22131 0
M  V30 2392 C 221.756 -0.777229 -3.68288 0
M  V30 2393 C 220.903 -1.22109 -2.48967 0
M  V30 2394 H 223.854 -1.08754 -1.15578 0
M  V30 2395 H 223.875 -0.387387 -3.78523 0
M  V30 2396 H 223.387 -2.13008 -3.24421 0
M  V30 2397 H 221.488 0.290383 -3.71467 0
M  V30 2398 H 221.601 -1.37911 -4.58822 0
M  V30 2399 H 219.965 -0.639971 -2.46529 0
M  V30 2400 H 220.748 -2.30972 -2.53982 0
M  V30 2401 N 223.193 1.4272 -0.668489 0
M  V30 2402 C 224.103 2.34596 0.0139753 0
M  V30 2403 C 225.119 1.5474 0.795703 0
M  V30 2404 O 226.295 1.87334 0.739466 0
M  V30 2405 C 223.36 3.33202 0.957982 0
M  V30 2406 C 222.421 4.28957 0.17149 0
M  V30 2407 C 221.654 5.22853 1.07053 0
M  V30 2408 O 221.877 5.21531 2.31001 0
M  V30 2409 O 220.811 5.9952 0.534727 0
M  V30 2410 H 224.637 2.9448 -0.742661 0
M  V30 2411 H 222.222 1.43117 -0.428705 0
M  V30 2412 H 224.104 3.93796 1.50008 0
M  V30 2413 H 222.779 2.758 1.69458 0
M  V30 2414 H 221.686 3.71796 -0.414558 0
M  V30 2415 H 223.019 4.89383 -0.52586 0
M  V30 2416 N 224.671 0.411399 1.52136 0
M  V30 2417 C 225.948 -0.222308 1.94333 0
M  V30 2418 C 226.328 -1.6242 1.34844 0
M  V30 2419 O 225.676 -2.22384 0.525145 0
M  V30 2420 C 225.886 -0.226345 3.48265 0
M  V30 2421 C 227.234 -0.444592 4.22266 0
M  V30 2422 O 228.258 -0.305602 3.54887 0
M  V30 2423 O 227.117 -0.718749 5.41753 0
M  V30 2424 H 224.211 -0.143907 0.814383 0
M  V30 2425 H 226.757 0.467506 1.63133 0
M  V30 2426 H 225.529 0.75475 3.83952 0
M  V30 2427 H 225.152 -0.960163 3.85832 0
M  V30 2428 N 226.149 -1.5696 0.141893 0
M  V30 2429 C 227.398 -1.95135 -0.510427 0
M  V30 2430 C 227.711 -1.02896 -1.66348 0
M  V30 2431 O 228.917 -1.30629 -2.38009 0
M  V30 2432 C 227.373 -3.46876 -0.959427 0
M  V30 2433 C 226.981 -4.47691 0.166419 0
M  V30 2434 C 228.725 -3.93927 -1.58183 0
M  V30 2435 C 226.632 -5.90636 -0.300565 0
M  V30 2436 H 225.562 -0.728494 -0.194454 0
M  V30 2437 H 228.213 -1.8211 0.22542 0
M  V30 2438 H 226.595 -3.55215 -1.75038 0
M  V30 2439 H 227.769 -4.51043 0.94325 0
M  V30 2440 H 226.084 -4.10527 0.696905 0
M  V30 2441 H 228.681 -4.98158 -1.94275 0
M  V30 2442 H 229.024 -3.3519 -2.46888 0
M  V30 2443 H 229.557 -3.88484 -0.855863 0
M  V30 2444 H 226.296 -6.5318 0.550989 0
M  V30 2445 H 225.816 -5.90655 -1.04338 0
M  V30 2446 H 227.495 -6.42588 -0.754265 0
M  V30 2447 N 227.627 0.131896 -1.57047 0
M  V30 2448 C 228.557 1.16384 -2.02428 0
M  V30 2449 C 229.538 1.43936 -0.90644 0
M  V30 2450 O 230.723 1.54599 -1.17528 0
M  V30 2451 C 227.853 2.49328 -2.4177 0
M  V30 2452 C 226.807 2.36266 -3.56879 0
M  V30 2453 C 226.133 3.74057 -3.8208 0
M  V30 2454 C 227.433 1.834 -4.89042 0
M  V30 2455 H 229.127 0.786433 -2.88887 0
M  V30 2456 H 226.673 0.376855 -1.38981 0
M  V30 2457 H 228.626 3.21759 -2.7212 0
M  V30 2458 H 227.35 2.88934 -1.52266 0
M  V30 2459 H 226.009 1.66286 -3.26718 0
M  V30 2460 H 225.657 4.11125 -2.89803 0
M  V30 2461 H 225.357 3.66174 -4.59554 0
M  V30 2462 H 226.881 4.48012 -4.1487 0
M  V30 2463 H 228.295 2.45636 -5.18011 0
M  V30 2464 H 226.692 1.8637 -5.70426 0
M  V30 2465 H 227.762 0.790662 -4.7841 0
M  V30 2466 N 229.106 1.52395 0.401703 0
M  V30 2467 C 230.354 1.66488 1.14569 0
M  V30 2468 C 230.675 0.400897 1.90835 0
M  V30 2469 O 229.945 -0.584415 1.8698 0
M  V30 2470 H 228.525 0.613672 0.425929 0
M  V30 2471 H 231.187 1.89464 0.457093 0
M  V30 2472 H 230.283 2.50942 1.85566 0
M  V30 2473 N 230.584 -0.659388 1.43143 0
M  V30 2474 C 231.531 -1.77249 1.47822 0
M  V30 2475 C 232.501 -1.62818 0.328558 0
M  V30 2476 O 233.686 -1.83151 0.534838 0
M  V30 2477 C 230.826 -3.15371 1.40126 0
M  V30 2478 C 229.939 -3.4098 2.65249 0
M  V30 2479 C 229.074 -4.68915 2.49584 0
M  V30 2480 C 228.113 -4.87608 3.70006 0
M  V30 2481 N 227.25 -6.06796 3.53189 0
M  V30 2482 H 232.09 -1.72584 2.42938 0
M  V30 2483 H 229.627 -0.842297 1.20598 0
M  V30 2484 H 231.585 -3.9521 1.33659 0
M  V30 2485 H 230.215 -3.19121 0.485964 0
M  V30 2486 H 229.267 -2.55282 2.8202 0
M  V30 2487 H 230.579 -3.50681 3.54717 0
M  V30 2488 H 229.733 -5.56871 2.4079 0
M  V30 2489 H 228.472 -4.61524 1.5763 0
M  V30 2490 H 227.477 -3.9809 3.79215 0
M  V30 2491 H 228.702 -4.96834 4.62961 0
M  V30 2492 H 226.648 -6.00549 2.63965 0
M  V30 2493 H 226.565 -6.17428 4.36255 0
M  V30 2494 H 227.833 -6.9739 3.48236 0
M  V30 2495 N 232.062 -1.29571 -0.897171 0
M  V30 2496 C 233.311 -1.1706 -1.64256 0
M  V30 2497 C 233.624 0.276476 -1.93636 0
M  V30 2498 O 234.83 0.52294 -2.66416 0
M  V30 2499 C 233.286 -2.0475 -2.95982 0
M  V30 2500 C 232.894 -3.54295 -2.74187 0
M  V30 2501 C 234.638 -2.0097 -3.73914 0
M  V30 2502 C 232.545 -4.34081 -4.01656 0
M  V30 2503 H 231.475 -0.43452 -0.616205 0
M  V30 2504 H 234.126 -1.54229 -0.994268 0
M  V30 2505 H 232.508 -1.60452 -3.62038 0
M  V30 2506 H 233.682 -4.06662 -2.1671 0
M  V30 2507 H 231.997 -3.59773 -2.09648 0
M  V30 2508 H 234.594 -2.57838 -4.68427 0
M  V30 2509 H 234.937 -0.990273 -4.0435 0
M  V30 2510 H 235.47 -2.43325 -3.14703 0
M  V30 2511 H 232.209 -5.36671 -3.76384 0
M  V30 2512 H 231.729 -3.86483 -4.58684 0
M  V30 2513 H 233.408 -4.44877 -4.69781 0
M  V30 2514 N 233.54 1.10788 -1.12088 0
M  V30 2515 C 234.503 2.15207 -0.788577 0
M  V30 2516 C 235.503 1.59609 0.195317 0
M  V30 2517 O 236.693 1.74174 -0.0300193 0
M  V30 2518 C 233.825 3.4047 -0.171174 0
M  V30 2519 H 235.018 2.46116 -1.71368 0
M  V30 2520 H 232.571 1.26089 -0.923652 0
M  V30 2521 H 233.306 3.15176 0.763832 0
M  V30 2522 H 233.091 3.82109 -0.879514 0
M  V30 2523 H 234.581 4.17576 0.04496 0
M  V30 2524 N 235.018 0.912232 1.28515 0
M  V30 2525 C 236.264 0.545405 1.95328 0
M  V30 2526 C 236.597 -0.908313 1.71649 0
M  V30 2527 O 235.872 -1.64575 1.03659 0
M  V30 2528 C 236.155 0.853483 3.4984 0
M  V30 2529 C 236.008 2.35982 3.82926 0
M  V30 2530 C 237.327 0.348589 4.38717 0
M  V30 2531 H 234.446 0.199626 0.709449 0
M  V30 2532 H 237.088 1.1412 1.5191 0
M  V30 2533 H 235.238 0.34643 3.86952 0
M  V30 2534 H 236.91 2.93738 3.55691 0
M  V30 2535 H 235.153 2.81543 3.30024 0
M  V30 2536 H 235.824 2.52593 4.90816 0
M  V30 2537 H 238.3 0.78294 4.08668 0
M  V30 2538 H 237.176 0.593242 5.45685 0
M  V30 2539 H 237.437 -0.751049 4.35674 0
M  V30 2540 N 236.496 -1.42363 0.676048 0
M  V30 2541 C 237.721 -2.06377 0.205705 0
M  V30 2542 C 238.146 -1.50463 -1.12883 0
M  V30 2543 O 237.504 -0.623619 -1.70237 0
M  V30 2544 C 237.552 -3.60277 0.152655 0
M  V30 2545 O 236.656 -4.02935 -0.87845 0
M  V30 2546 H 235.997 -0.655588 0.105359 0
M  V30 2547 H 238.527 -1.82475 0.925412 0
M  V30 2548 H 238.537 -4.07993 -0.0230675 0
M  V30 2549 H 237.212 -4.00346 1.12675 0
M  V30 2550 H 235.789 -3.66764 -0.673668 0
M  V30 2551 N 237.974 -0.419461 -1.51915 0
M  V30 2552 C 239.223 0.154346 -2.01109 0
M  V30 2553 C 239.536 1.45338 -1.30905 0
M  V30 2554 O 240.742 2.10906 -1.7097 0
M  V30 2555 C 239.198 0.325615 -3.58424 0
M  V30 2556 C 238.806 -0.961934 -4.37551 0
M  V30 2557 C 240.55 0.854155 -4.15818 0
M  V30 2558 C 238.457 -0.757287 -5.86531 0
M  V30 2559 H 237.387 0.0614563 -0.751491 0
M  V30 2560 H 240.038 -0.54649 -1.75173 0
M  V30 2561 H 238.42 1.08903 -3.80731 0
M  V30 2562 H 239.594 -1.7323 -4.26999 0
M  V30 2563 H 237.909 -1.41766 -3.91524 0
M  V30 2564 H 240.506 1.02346 -5.24814 0
M  V30 2565 H 240.849 1.83172 -3.73837 0
M  V30 2566 H 241.382 0.149528 -3.97519 0
M  V30 2567 H 238.121 -1.70671 -6.32892 0
M  V30 2568 H 237.641 -0.0264061 -5.99794 0
M  V30 2569 H 239.32 -0.403482 -6.45741 0
M  V30 2570 N 239.452 1.56882 -0.150215 0
M  V30 2571 C 240.698 1.96518 0.500834 0
M  V30 2572 C 241.031 1.03527 1.64304 0
M  V30 2573 O 240.306 0.0782751 1.94342 0
M  V30 2574 C 240.589 3.45822 1.00395 0
M  V30 2575 C 240.442 4.49591 -0.136983 0
M  V30 2576 C 241.761 3.97704 1.88467 0
M  V30 2577 H 238.88 0.714535 0.18058 0
M  V30 2578 H 241.522 1.88577 -0.232091 0
M  V30 2579 H 239.672 3.5272 1.62851 0
M  V30 2580 H 241.344 4.5477 -0.77343 0
M  V30 2581 H 239.587 4.26441 -0.795652 0
M  V30 2582 H 240.258 5.51402 0.256815 0
M  V30 2583 H 242.734 3.93304 1.35834 0
M  V30 2584 H 241.61 5.0263 2.20578 0
M  V30 2585 H 241.871 3.40252 2.82279 0
M  V30 2586 N 240.93 -0.123565 1.57115 0
M  V30 2587 C 241.877 -1.15177 2.00007 0
M  V30 2588 C 242.847 -1.41403 0.871454 0
M  V30 2589 O 244.032 -1.53346 1.13533 0
M  V30 2590 C 241.172 -2.47436 2.40561 0
M  V30 2591 C 240.285 -2.28184 3.66819 0
M  V30 2592 C 239.42 -3.53641 3.96373 0
M  V30 2593 C 238.459 -3.29528 5.15827 0
M  V30 2594 N 237.596 -4.47175 5.41275 0
M  V30 2595 H 242.436 -0.779008 2.87638 0
M  V30 2596 H 239.973 -0.373166 1.42288 0
M  V30 2597 H 241.931 -3.24584 2.62109 0
M  V30 2598 H 240.561 -2.82614 1.55978 0
M  V30 2599 H 239.613 -1.41976 3.52912 0
M  V30 2600 H 240.925 -2.0634 4.5412 0
M  V30 2601 H 240.079 -4.39209 4.18545 0
M  V30 2602 H 238.818 -3.78512 3.07538 0
M  V30 2603 H 237.823 -2.42349 4.93505 0
M  V30 2604 H 239.048 -3.06031 6.06236 0
M  V30 2605 H 236.994 -4.72175 4.55397 0
M  V30 2606 H 236.911 -4.28419 6.22891 0
M  V30 2607 H 238.179 -5.3389 5.67963 0
M  V30 2608 N 242.408 -1.52605 -0.393616 0
M  V30 2609 C 243.371 -1.76415 -1.46323 0
M  V30 2610 C 244.371 -0.634126 -1.47768 0
M  V30 2611 O 245.561 -0.902142 -1.4902 0
M  V30 2612 C 242.693 -1.8607 -2.85641 0
M  V30 2613 H 243.886 -2.71916 -1.26498 0
M  V30 2614 H 241.439 -1.43257 -0.625073 0
M  V30 2615 H 242.174 -0.925378 -3.10817 0
M  V30 2616 H 241.959 -2.68235 -2.85993 0
M  V30 2617 H 243.449 -2.06179 -3.63153 0
M  V30 2618 N 243.887 0.651787 -1.4349 0
M  V30 2619 C 244.817 1.77621 -1.51569 0
M  V30 2620 C 245.798 1.66022 -0.370253 0
M  V30 2621 O 246.983 1.85095 -0.587658 0
M  V30 2622 C 244.113 3.16056 -1.43966 0
M  V30 2623 C 243.067 3.4242 -2.56774 0
M  V30 2624 C 242.393 4.8067 -2.34223 0
M  V30 2625 C 243.693 3.37023 -3.99015 0
M  V30 2626 H 245.387 1.71117 -2.45681 0
M  V30 2627 H 242.933 0.821825 -1.18246 0
M  V30 2628 H 244.886 3.94472 -1.48221 0
M  V30 2629 H 243.61 3.23293 -0.463586 0
M  V30 2630 H 242.269 2.66375 -2.51873 0
M  V30 2631 H 241.917 4.84585 -1.34856 0
M  V30 2632 H 241.617 4.9927 -3.09844 0
M  V30 2633 H 243.141 5.61342 -2.40265 0
M  V30 2634 H 244.555 4.05374 -4.05395 0
M  V30 2635 H 242.952 3.67159 -4.74673 0
M  V30 2636 H 244.022 2.3518 -4.2405 0
M  V30 2637 N 245.365 1.30045 0.890287 0
M  V30 2638 C 246.275 1.17885 2.02831 0
M  V30 2639 C 247.291 0.0999609 1.73713 0
M  V30 2640 O 248.467 0.313867 1.98939 0
M  V30 2641 C 245.532 0.866079 3.35708 0
M  V30 2642 C 244.593 2.02979 3.78283 0
M  V30 2643 C 243.826 1.73184 5.0482 0
M  V30 2644 O 244.049 0.657237 5.66601 0
M  V30 2645 O 242.983 2.58267 5.43674 0
M  V30 2646 H 246.809 2.13474 2.16015 0
M  V30 2647 H 244.394 1.09587 1.01543 0
M  V30 2648 H 246.276 0.706623 4.15433 0
M  V30 2649 H 244.951 -0.0599443 3.23644 0
M  V30 2650 H 243.858 2.24454 2.99285 0
M  V30 2651 H 245.191 2.93734 3.94944 0
M  V30 2652 N 246.843 -1.10192 1.12674 0
M  V30 2653 C 247.793 -2.14754 0.765801 0
M  V30 2654 C 248.777 -1.59154 -0.236409 0
M  V30 2655 O 249.969 -1.76951 -0.0415261 0
M  V30 2656 C 247.098 -3.42563 0.224827 0
M  V30 2657 C 246.184 -4.05091 1.25548 0
M  V30 2658 N 246.575 -4.42287 2.4539 0
M  V30 2659 C 244.873 -4.32186 1.10142 0
M  V30 2660 C 245.574 -4.91441 3.11224 0
M  V30 2661 N 244.55 -4.88405 2.38666 0
M  V30 2662 H 248.352 -2.41309 1.67772 0
M  V30 2663 H 245.866 -1.27339 1.00789 0
M  V30 2664 H 247.863 -4.16868 -0.0519578 0
M  V30 2665 H 246.523 -3.17467 -0.681515 0
M  V30 2666 H 247.534 -4.33902 2.82754 0
M  V30 2667 H 244.211 -4.16735 0.252587 0
M  V30 2668 H 245.601 -5.29749 4.13298 0
M  V30 2669 N 248.321 -0.919034 -1.28029 0
M  V30 2670 C 249.251 -0.428581 -2.29533 0
M  V30 2671 C 250.232 0.50659 -1.62381 0
M  V30 2672 O 251.417 0.413195 -1.89753 0
M  V30 2673 C 248.547 0.327388 -3.45753 0
M  V30 2674 C 247.501 -0.519137 -4.2484 0
M  V30 2675 C 246.827 0.365486 -5.33449 0
M  V30 2676 C 248.127 -1.77914 -4.91064 0
M  V30 2677 H 249.821 -1.27687 -2.70807 0
M  V30 2678 H 247.367 -0.615428 -1.30186 0
M  V30 2679 H 249.32 0.681378 -4.15855 0
M  V30 2680 H 248.044 1.20963 -3.03374 0
M  V30 2681 H 246.703 -0.855717 -3.56473 0
M  V30 2682 H 246.351 1.24642 -4.87312 0
M  V30 2683 H 246.051 -0.197356 -5.87268 0
M  V30 2684 H 247.575 0.715241 -6.06396 0
M  V30 2685 H 248.989 -1.49374 -5.53498 0
M  V30 2686 H 247.386 -2.2848 -5.54903 0
M  V30 2687 H 248.456 -2.50382 -4.15255 0
M  V30 2688 N 249.799 1.42003 -0.683588 0
M  V30 2689 C 250.749 2.27997 0.0121992 0
M  V30 2690 C 251.733 1.4156 0.764822 0
M  V30 2691 O 252.925 1.64935 0.642287 0
M  V30 2692 C 250.054 3.29706 0.956482 0
M  V30 2693 C 249.14 4.23625 0.200739 0
M  V30 2694 N 249.531 4.99448 -0.799087 0
M  V30 2695 C 247.829 4.43845 0.437937 0
M  V30 2696 C 248.53 5.68102 -1.25041 0
M  V30 2697 N 247.506 5.40511 -0.578648 0
M  V30 2698 H 251.308 2.84048 -0.754564 0
M  V30 2699 H 248.822 1.54071 -0.513398 0
M  V30 2700 H 250.819 3.90124 1.47 0
M  V30 2701 H 249.479 2.75216 1.72297 0
M  V30 2702 H 250.49 5.04303 -1.17893 0
M  V30 2703 H 247.167 4.00382 1.18325 0
M  V30 2704 H 248.557 6.38913 -2.07942 0
M  V30 2705 N 251.277 0.427512 1.51691 0
M  V30 2706 C 252.502 -0.143601 2.06902 0
M  V30 2707 C 252.927 -1.36536 1.29382 0
M  V30 2708 O 252.285 -1.78289 0.329043 0
M  V30 2709 C 252.333 -0.454207 3.57728 0
M  V30 2710 O 251.437 -1.54228 3.82475 0
M  V30 2711 H 250.778 -0.00617128 0.663971 0
M  V30 2712 H 253.308 0.606014 1.95419 0
M  V30 2713 H 253.318 -0.707525 4.01818 0
M  V30 2714 H 251.993 0.438812 4.13579 0
M  V30 2715 H 250.57 -1.2797 3.50254 0
M  V30 2716 N 252.755 -1.56801 0.158532 0
M  V30 2717 C 253.702 -2.17337 -0.776729 0
M  V30 2718 C 254.672 -1.1096 -1.23601 0
M  V30 2719 O 255.857 -1.39054 -1.30647 0
M  V30 2720 C 252.997 -2.80822 -2.00582 0
M  V30 2721 C 252.11 -4.01624 -1.59129 0
M  V30 2722 C 251.245 -4.53072 -2.77306 0
M  V30 2723 C 250.284 -5.66314 -2.32282 0
M  V30 2724 N 249.421 -6.12329 -3.43508 0
M  V30 2725 H 254.261 -2.96918 -0.253701 0
M  V30 2726 H 251.798 -1.46661 -0.113504 0
M  V30 2727 H 253.756 -3.15779 -2.72652 0
M  V30 2728 H 252.386 -2.03866 -2.50277 0
M  V30 2729 H 251.438 -3.72571 -0.767806 0
M  V30 2730 H 252.75 -4.83633 -1.2207 0
M  V30 2731 H 251.904 -4.90145 -3.57551 0
M  V30 2732 H 250.643 -3.70095 -3.17617 0
M  V30 2733 H 249.648 -5.28806 -1.5048 0
M  V30 2734 H 250.873 -6.51085 -1.93043 0
M  V30 2735 H 248.819 -5.32284 -3.83418 0
M  V30 2736 H 248.736 -6.89293 -3.105 0
M  V30 2737 H 250.004 -6.5405 -4.24075 0
M  V30 2738 N 254.233 0.115231 -1.57178 0
M  V30 2739 C 255.163 1.1423 -2.03651 0
M  V30 2740 C 256.144 1.42967 -0.921655 0
M  V30 2741 O 257.329 1.53343 -1.19162 0
M  V30 2742 C 254.459 2.4675 -2.44401 0
M  V30 2743 C 253.413 2.32467 -3.59365 0
M  V30 2744 C 252.739 3.69984 -3.86026 0
M  V30 2745 C 254.039 1.78203 -4.90959 0
M  V30 2746 H 255.733 0.755749 -2.89705 0
M  V30 2747 H 253.279 0.362093 -1.39373 0
M  V30 2748 H 255.232 3.18854 -2.75517 0
M  V30 2749 H 253.956 2.87302 -1.55322 0
M  V30 2750 H 252.615 1.62811 -3.28463 0
M  V30 2751 H 252.263 4.08028 -2.94147 0
M  V30 2752 H 251.963 3.61279 -4.63412 0
M  V30 2753 H 253.487 4.43587 -4.19599 0
M  V30 2754 H 254.901 2.40128 -5.20587 0
M  V30 2755 H 253.298 1.8031 -5.72371 0
M  V30 2756 H 254.368 0.739876 -4.79222 0
M  V30 2757 N 255.711 1.52812 0.385517 0
M  V30 2758 C 256.936 1.72207 1.15583 0
M  V30 2759 C 257.361 0.441034 1.82857 0
M  V30 2760 O 256.719 -0.603465 1.70962 0
M  V30 2761 C 256.767 2.87476 2.17692 0
M  V30 2762 O 255.871 2.54693 3.24354 0
M  V30 2763 H 255.212 0.572526 0.336319 0
M  V30 2764 H 257.742 1.99618 0.448744 0
M  V30 2765 H 257.752 3.13072 2.6163 0
M  V30 2766 H 256.427 3.80408 1.68115 0
M  V30 2767 H 255.004 2.3985 2.85529 0
M  V30 2768 N 257.189 -0.644168 1.43834 0
M  V30 2769 C 258.435 -1.40603 1.46146 0
M  V30 2770 C 258.768 -1.93997 0.0887717 0
M  V30 2771 O 258.043 -1.72854 -0.891724 0
M  V30 2772 C 258.326 -2.58086 2.51124 0
M  V30 2773 C 258.179 -2.10126 3.97702 0
M  V30 2774 C 259.498 -3.60291 2.52742 0
M  V30 2775 H 256.617 -0.509905 0.532134 0
M  V30 2776 H 259.259 -0.729502 1.75437 0
M  V30 2777 H 257.409 -3.15801 2.26278 0
M  V30 2778 H 259.081 -1.57342 4.33637 0
M  V30 2779 H 257.324 -1.41419 4.10101 0
M  V30 2780 H 257.995 -2.94649 4.66783 0
M  V30 2781 H 260.471 -3.12352 2.7491 0
M  V30 2782 H 259.347 -4.40032 3.28121 0
M  V30 2783 H 259.608 -4.1349 1.56455 0
M  V30 2784 N 258.668 -1.30515 -0.883378 0
M  V30 2785 C 259.917 -1.18795 -1.63005 0
M  V30 2786 C 260.23 0.255923 -1.93919 0
M  V30 2787 O 261.436 0.494654 -2.66956 0
M  V30 2788 C 259.892 -2.07878 -2.93794 0
M  V30 2789 C 259.5 -3.57184 -2.70414 0
M  V30 2790 C 261.244 -2.04924 -3.71761 0
M  V30 2791 C 259.151 -4.38317 -3.97029 0
M  V30 2792 H 258.081 -0.441031 -0.611562 0
M  V30 2793 H 260.732 -1.55275 -0.977854 0
M  V30 2794 H 259.114 -1.64283 -3.60315 0
M  V30 2795 H 260.288 -4.08937 -2.12384 0
M  V30 2796 H 258.603 -3.61976 -2.0582 0
M  V30 2797 H 261.2 -2.62792 -4.65665 0
M  V30 2798 H 261.543 -1.0331 -4.03277 0
M  V30 2799 H 262.076 -2.46649 -3.12104 0
M  V30 2800 H 258.815 -5.40632 -3.70671 0
M  V30 2801 H 258.335 -3.91326 -4.54559 0
M  V30 2802 H 260.014 -4.49834 -4.65036 0
M  V30 2803 N 260.146 1.09593 -1.13257 0
M  V30 2804 C 261.096 2.14345 -0.777179 0
M  V30 2805 C 262.08 1.59277 0.227966 0
M  V30 2806 O 263.272 1.76971 0.0321413 0
M  V30 2807 C 260.401 3.42439 -0.242991 0
M  V30 2808 C 259.487 4.04419 -1.27694 0
M  V30 2809 N 259.878 4.40979 -2.47732 0
M  V30 2810 C 258.176 4.31596 -1.12432 0
M  V30 2811 C 258.877 4.89784 -3.13826 0
M  V30 2812 N 257.853 4.87133 -2.41252 0
M  V30 2813 H 261.655 2.40415 -1.69049 0
M  V30 2814 H 259.169 1.26803 -1.01463 0
M  V30 2815 H 261.166 4.16889 0.0298496 0
M  V30 2816 H 259.826 3.17824 0.66467 0
M  V30 2817 H 260.837 4.32396 -2.85051 0
M  V30 2818 H 257.514 4.16595 -0.274684 0
M  V30 2819 H 258.904 5.2755 -4.16102 0
M  V30 2820 N 261.624 0.925811 1.2754 0
M  V30 2821 C 263.04 0.625767 1.46821 0
M  V30 2822 C 263.24 -0.825506 1.83814 0
M  V30 2823 O 262.296 -1.60356 1.95044 0
M  V30 2824 C 263.609 1.57402 2.56213 0
M  V30 2825 C 265.157 1.58204 2.70075 0
M  V30 2826 C 265.632 2.51721 3.82623 0
M  V30 2827 N 267.123 2.49917 3.89994 0
M  V30 2828 C 267.858 3.18968 4.76494 0
M  V30 2829 N 267.354 3.97391 5.67496 0
M  V30 2830 N 269.147 3.07996 4.70208 0
M  V30 2831 H 261.298 1.86409 1.01811 0
M  V30 2832 H 263.561 0.800213 0.508295 0
M  V30 2833 H 263.267 2.60925 2.35819 0
M  V30 2834 H 263.141 1.31428 3.53563 0
M  V30 2835 H 265.528 0.554124 2.89851 0
M  V30 2836 H 265.609 1.88226 1.73218 0
M  V30 2837 H 265.253 3.54622 3.63601 0
M  V30 2838 H 265.183 2.18996 4.78903 0
M  V30 2839 H 267.674 1.9296 3.24923 0
M  V30 2840 H 267.987 4.4707 6.30356 0
M  V30 2841 H 266.332 4.01495 5.67298 0
M  V30 2842 H 269.523 2.46223 3.9811 0
M  V30 2843 H 269.696 3.6208 5.37403 0
M  V30 2844 N 263.102 -1.41638 0.69111 0
M  V30 2845 C 264.379 -1.95036 0.148421 0
M  V30 2846 C 264.759 -1.63072 -1.34055 0
M  V30 2847 O 264.107 -0.93538 -2.08478 0
M  V30 2848 C 264.317 -3.46279 0.434951 0
M  V30 2849 C 265.665 -4.23069 0.360275 0
M  V30 2850 O 266.689 -3.54277 0.369613 0
M  V30 2851 O 265.548 -5.45583 0.316534 0
M  V30 2852 H 262.642 -0.826908 0.0123654 0
M  V30 2853 H 265.188 -1.5138 0.766963 0
M  V30 2854 H 263.96 -3.6281 1.46576 0
M  V30 2855 H 263.583 -3.97019 -0.214787 0
M  V30 2856 N 264.58 -0.43555 -1.51462 0
M  V30 2857 C 265.826 0.131709 -2.02372 0
M  V30 2858 C 266.159 1.42516 -1.3192 0
M  V30 2859 O 265.434 1.89606 -0.433573 0
M  V30 2860 C 265.717 0.352301 -3.58373 0
M  V30 2861 C 265.57 -0.959676 -4.39443 0
M  V30 2862 C 266.889 1.12286 -4.25535 0
M  V30 2863 H 264.008 0.0463936 -0.735538 0
M  V30 2864 H 266.65 -0.574197 -1.81116 0
M  V30 2865 H 264.8 0.9536 -3.76615 0
M  V30 2866 H 266.472 -1.59482 -4.32855 0
M  V30 2867 H 264.715 -1.56468 -4.04599 0
M  V30 2868 H 265.386 -0.759394 -5.46752 0
M  V30 2869 H 267.862 0.613545 -4.11552 0
M  V30 2870 H 266.738 1.24598 -5.34571 0
M  V30 2871 H 266.999 2.15048 -3.86273 0
M  V30 2872 N 266.058 1.56714 -0.166846 0
M  V30 2873 C 267.005 2.17746 0.765193 0
M  V30 2874 C 267.975 1.11614 1.23011 0
M  V30 2875 O 269.16 1.39745 1.29908 0
M  V30 2876 C 266.3 2.81882 1.9909 0
M  V30 2877 C 265.413 4.02462 1.56997 0
M  V30 2878 C 264.548 4.54537 2.749 0
M  V30 2879 C 263.587 5.67538 2.29275 0
M  V30 2880 N 262.724 6.14142 3.40255 0
M  V30 2881 H 267.564 2.97048 0.237952 0
M  V30 2882 H 265.101 1.4672 0.105725 0
M  V30 2883 H 267.059 3.17221 2.70974 0
M  V30 2884 H 265.689 2.05191 2.49192 0
M  V30 2885 H 264.741 3.72973 0.748037 0
M  V30 2886 H 266.053 4.84273 1.19503 0
M  V30 2887 H 265.207 4.92035 3.54946 0
M  V30 2888 H 263.946 3.71774 3.1565 0
M  V30 2889 H 262.951 5.29597 1.47674 0
M  V30 2890 H 264.176 6.52099 1.89588 0
M  V30 2891 H 262.122 5.3431 3.8059 0
M  V30 2892 H 262.039 6.9093 3.06841 0
M  V30 2893 H 263.307 6.56289 4.206 0
M  V30 2894 N 267.536 -0.106894 1.57237 0
M  V30 2895 C 268.947 -0.662723 1.74542 0
M  V30 2896 C 269.298 -1.7971 0.787319 0
M  V30 2897 O 268.423 -2.16368 -0.0369636 0
M  V30 2898 C 269.018 -1.20896 3.16496 0
M  V30 2899 C 267.577 -1.71096 3.35266 0
M  V30 2900 C 266.724 -0.615642 2.7038 0
M  V30 2901 H 269.675 0.119106 1.58252 0
M  V30 2902 H 269.696 -2.07847 3.18716 0
M  V30 2903 H 269.208 -0.383122 3.86204 0
M  V30 2904 H 267.309 -2.56119 2.70618 0
M  V30 2905 H 267.422 -1.81208 4.43509 0
M  V30 2906 H 265.786 -1.05222 2.31949 0
M  V30 2907 H 266.569 0.199419 3.4272 0
M  V30 2908 N 269.014 -1.53014 -0.377408 0
M  V30 2909 C 270.239 -1.72818 -1.14668 0
M  V30 2910 C 270.664 -0.450725 -1.8262 0
M  V30 2911 O 270.022 0.59439 -1.7128 0
M  V30 2912 C 270.07 -2.88627 -2.16164 0
M  V30 2913 O 269.174 -2.56409 -3.22998 0
M  V30 2914 H 268.515 -0.574301 -0.333278 0
M  V30 2915 H 271.045 -1.99853 -0.438152 0
M  V30 2916 H 271.055 -3.14455 -2.59966 0
M  V30 2917 H 269.73 -3.81294 -1.66095 0
M  V30 2918 H 268.307 -2.4136 -2.84253 0
M  V30 2919 N 270.492 0.636531 -1.44174 0
M  V30 2920 C 271.44 1.76995 -1.50915 0
M  V30 2921 C 272.434 1.65053 -0.381295 0
M  V30 2922 O 273.64 1.71197 -0.55601 0
M  V30 2923 H 270.015 0.584247 -0.473455 0
M  V30 2924 H 271.986 1.68432 -2.4632 0
M  V30 2925 C 270.735 3.15314 -1.46534 0
M  V30 2926 H 270.058 3.25149 -2.32633 0
M  V30 2927 H 271.498 3.9453 -1.55312 0
M  V30 2928 C 269.957 3.3639 -0.185305 0
M  V30 2929 O 270.487 3.94699 0.746688 0
M  V30 2930 N 268.693 2.9046 -0.0901606 0
M  V30 2931 H 268.24 2.43193 -0.849416 0
M  V30 2932 H 268.198 3.04937 0.765553 0
M  V30 2933 N 271.97 1.30982 0.876444 0
M  V30 2934 C 273.216 1.20474 1.63138 0
M  V30 2935 C 273.549 -0.238096 1.92735 0
M  V30 2936 O 272.824 -1.1692 1.55435 0
M  V30 2937 C 273.107 2.04244 2.96574 0
M  V30 2938 C 272.96 3.56793 2.73896 0
M  V30 2939 C 274.279 1.88684 3.97601 0
M  V30 2940 H 271.398 0.439001 0.591985 0
M  V30 2941 H 274.04 1.60704 1.01361 0
M  V30 2942 H 272.19 1.70063 3.493 0
M  V30 2943 H 273.862 4.01077 2.27892 0
M  V30 2944 H 272.105 3.80548 2.08245 0
M  V30 2945 H 272.776 4.10706 3.68815 0
M  V30 2946 H 275.252 2.18584 3.54062 0
M  V30 2947 H 274.128 2.4961 4.88862 0
M  V30 2948 H 274.389 0.848343 4.33884 0
M  V30 2949 N 273.449 -1.08991 1.13837 0
M  V30 2950 C 274.379 -2.17771 0.842507 0
M  V30 2951 C 275.36 -1.6892 -0.20001 0
M  V30 2952 O 276.545 -1.94113 -0.0579731 0
M  V30 2953 C 273.675 -3.4589 0.312644 0
M  V30 2954 C 272.629 -4.08099 1.28992 0
M  V30 2955 C 271.955 -5.31098 0.619623 0
M  V30 2956 C 273.255 -4.50077 2.65005 0
M  V30 2957 H 274.949 -2.42777 1.75213 0
M  V30 2958 H 272.495 -1.16682 0.843875 0
M  V30 2959 H 274.448 -4.21297 0.0933043 0
M  V30 2960 H 273.172 -3.20419 -0.632382 0
M  V30 2961 H 271.831 -3.34717 1.49533 0
M  V30 2962 H 271.479 -5.0191 -0.33102 0
M  V30 2963 H 271.179 -5.73674 1.27167 0
M  V30 2964 H 272.703 -6.09224 0.409669 0
M  V30 2965 H 274.117 -5.16688 2.48407 0
M  V30 2966 H 272.514 -5.03553 3.26427 0
M  V30 2967 H 273.584 -3.62257 3.22332 0
M  V30 2968 N 274.927 -0.932562 -1.27047 0
M  V30 2969 C 276.176 -0.571351 -1.93439 0
M  V30 2970 C 276.489 0.892467 -1.74053 0
M  V30 2971 O 277.695 1.36267 -2.34826 0
M  V30 2972 C 276.151 -0.97106 -3.46552 0
M  V30 2973 C 275.759 -2.4559 -3.74686 0
M  V30 2974 C 277.503 -0.681333 -4.18997 0
M  V30 2975 C 275.41 -2.79475 -5.21198 0
M  V30 2976 H 274.34 -0.209966 -0.724176 0
M  V30 2977 H 276.991 -1.13403 -1.44263 0
M  V30 2978 H 275.373 -0.336983 -3.94564 0
M  V30 2979 H 276.547 -3.13829 -3.37414 0
M  V30 2980 H 274.862 -2.71802 -3.15456 0
M  V30 2981 H 277.459 -0.910939 -5.26883 0
M  V30 2982 H 277.802 0.381628 -4.14547 0
M  V30 2983 H 278.335 -1.27473 -3.76823 0
M  V30 2984 H 275.074 -3.847 -5.30741 0
M  V30 2985 H 274.594 -2.1589 -5.596 0
M  V30 2986 H 276.273 -2.67478 -5.89122 0
M  V30 2987 N 276.405 1.4127 -0.698611 0
M  V30 2988 C 277.353 2.32588 -0.023855 0
M  V30 2989 C 278.347 1.51128 0.765292 0
M  V30 2990 O 279.553 1.67043 0.670571 0
M  V30 2991 H 275.928 0.751918 0.0110871 0
M  V30 2992 H 277.899 2.87167 -0.811031 0
M  V30 2993 C 276.648 3.35947 0.896369 0
M  V30 2994 H 275.971 3.98684 0.298548 0
M  V30 2995 H 277.411 4.02376 1.33676 0
M  V30 2996 C 275.87 2.70076 2.01396 0
M  V30 2997 O 276.4 2.55093 3.10307 0
M  V30 2998 N 274.606 2.28724 1.79259 0
M  V30 2999 H 274.153 2.4111 0.906841 0
M  V30 3000 H 274.111 1.84986 2.54219 0
M  V30 3001 N 277.883 0.443576 1.51229 0
M  V30 3002 C 278.846 -0.353132 2.26463 0
M  V30 3003 C 279.846 -0.944338 1.3015 0
M  V30 3004 O 281.036 -0.817813 1.5381 0
M  V30 3005 C 278.168 -1.50023 3.06114 0
M  V30 3006 H 279.361 0.3063 2.98332 0
M  V30 3007 H 276.914 0.196902 1.55055 0
M  V30 3008 H 277.649 -2.19553 2.38677 0
M  V30 3009 H 277.434 -1.08241 3.76864 0
M  V30 3010 H 278.924 -2.06296 3.63087 0
M  V30 3011 N 279.361 -1.56624 0.175154 0
M  V30 3012 C 280.291 -2.21155 -0.749195 0
M  V30 3013 C 281.272 -1.16836 -1.23626 0
M  V30 3014 O 282.457 -1.45277 -1.28873 0
M  V30 3015 C 279.587 -2.8553 -1.97711 0
M  V30 3016 C 278.541 -3.95921 -1.62575 0
M  V30 3017 C 277.867 -4.47365 -2.92864 0
M  V30 3018 C 279.167 -5.15323 -0.850838 0
M  V30 3019 H 280.861 -2.98653 -0.211295 0
M  V30 3020 H 278.407 -1.43651 -0.100188 0
M  V30 3021 H 280.36 -3.2935 -2.62881 0
M  V30 3022 H 279.084 -2.05406 -2.53921 0
M  V30 3023 H 277.743 -3.52762 -0.997719 0
M  V30 3024 H 277.391 -3.64027 -3.47122 0
M  V30 3025 H 277.091 -5.21839 -2.70106 0
M  V30 3026 H 278.615 -4.93873 -3.59056 0
M  V30 3027 H 280.029 -5.55812 -1.40521 0
M  V30 3028 H 278.426 -5.95739 -0.722154 0
M  V30 3029 H 279.496 -4.84661 0.152082 0
M  V30 3030 N 280.839 0.0985539 -1.57292 0
M  V30 3031 C 282.087 0.801092 -1.85545 0
M  V30 3032 C 282.408 1.79438 -0.763353 0
M  V30 3033 O 281.678 1.94763 0.21073 0
M  V30 3034 H 280.258 0.29884 -0.684619 0
M  V30 3035 H 282.92 0.0810064 -1.94732 0
M  V30 3036 H 282.016 1.3338 -2.82163 0
M  V30 3037 N 282.317 1.53212 0.369288 0
M  V30 3038 C 283.249 1.75668 1.47219 0
M  V30 3039 C 284.262 0.637387 1.49804 0
M  V30 3040 O 285.451 0.913561 1.5335 0
M  V30 3041 C 282.551 1.81818 2.85999 0
M  V30 3042 C 281.724 3.11409 3.07153 0
M  V30 3043 C 280.783 3.08849 4.26026 0
M  V30 3044 O 279.809 3.82659 4.2138 0
M  V30 3045 N 281.011 2.29409 5.33246 0
M  V30 3046 H 283.776 2.70832 1.28337 0
M  V30 3047 H 281.337 1.51944 0.55898 0
M  V30 3048 H 283.329 1.77588 3.63655 0
M  V30 3049 H 281.899 0.939544 2.98146 0
M  V30 3050 H 281.119 3.28971 2.1719 0
M  V30 3051 H 282.407 3.97059 3.18154 0
M  V30 3052 H 281.805 1.68946 5.39883 0
M  V30 3053 H 280.362 2.31001 6.09493 0
M  V30 3054 N 283.795 -0.628877 1.44509 0
M  V30 3055 C 285.041 -1.39045 1.47629 0
M  V30 3056 C 285.374 -1.93892 0.109343 0
M  V30 3057 O 284.649 -1.7379 -0.87334 0
M  V30 3058 C 284.932 -2.55408 2.53848 0
M  V30 3059 C 284.785 -2.05896 3.99909 0
M  V30 3060 C 286.104 -3.5759 2.56549 0
M  V30 3061 H 283.223 -0.504232 0.537512 0
M  V30 3062 H 285.865 -0.710854 1.76201 0
M  V30 3063 H 284.015 -3.13384 2.29615 0
M  V30 3064 H 285.687 -1.52734 4.35282 0
M  V30 3065 H 283.93 -1.37061 4.11578 0
M  V30 3066 H 284.601 -2.89681 4.69882 0
M  V30 3067 H 287.077 -3.09419 2.78207 0
M  V30 3068 H 285.953 -4.36527 3.32769 0
M  V30 3069 H 286.214 -4.11808 1.60832 0
M  V30 3070 N 285.273 -1.31445 -0.869486 0
M  V30 3071 C 286.22 -1.19135 -1.97675 0
M  V30 3072 C 287.19 -0.0770266 -1.65921 0
M  V30 3073 O 288.375 -0.249972 -1.89155 0
M  V30 3074 C 285.515 -0.905149 -3.33018 0
M  V30 3075 C 284.628 -2.10285 -3.77365 0
M  V30 3076 C 283.763 -1.75339 -5.01427 0
M  V30 3077 C 282.802 -2.91515 -5.38224 0
M  V30 3078 N 281.939 -2.56762 -6.53466 0
M  V30 3079 H 286.779 -2.13853 -2.07535 0
M  V30 3080 H 284.316 -1.06379 -1.01597 0
M  V30 3081 H 286.274 -0.719765 -4.10944 0
M  V30 3082 H 284.904 0.00519624 -3.228 0
M  V30 3083 H 283.956 -2.39899 -2.95216 0
M  V30 3084 H 285.268 -2.97237 -4.00564 0
M  V30 3085 H 284.422 -1.53266 -5.87022 0
M  V30 3086 H 283.161 -0.855801 -4.80133 0
M  V30 3087 H 282.166 -3.14237 -4.51149 0
M  V30 3088 H 283.391 -3.81985 -5.61484 0
M  V30 3089 H 281.337 -1.69526 -6.33717 0
M  V30 3090 H 281.254 -3.37243 -6.76612 0
M  V30 3091 H 282.522 -2.38083 -7.42251 0
M  V30 3092 N 286.751 1.08385 -1.14413 0
M  V30 3093 C 287.684 2.14642 -0.774871 0
M  V30 3094 C 288.662 1.60761 0.243876 0
M  V30 3095 O 289.846 1.88031 0.132883 0
M  V30 3096 C 286.973 3.38366 -0.150491 0
M  V30 3097 C 286.019 4.10997 -1.13945 0
M  V30 3098 S 286.852 4.63797 -2.67679 0
M  V30 3099 C 288.008 5.90808 -2.06631 0
M  V30 3100 H 288.241 2.45633 -1.67487 0
M  V30 3101 H 285.774 1.20498 -0.96538 0
M  V30 3102 H 287.732 4.09996 0.203334 0
M  V30 3103 H 286.393 3.05572 0.72694 0
M  V30 3104 H 285.586 4.99783 -0.65059 0
M  V30 3105 H 285.188 3.4528 -1.43727 0
M  V30 3106 H 287.48 6.62411 -1.4219 0
M  V30 3107 H 288.423 6.4439 -2.93542 0
M  V30 3108 H 288.831 5.4383 -1.51357 0
M  V30 3109 N 288.23 0.939286 1.26551 0
M  V30 3110 C 289.47 0.5933 1.956 0
M  V30 3111 C 289.834 -0.851515 1.72085 0
M  V30 3112 O 291.035 -1.30634 2.34921 0
M  V30 3113 C 289.306 0.923996 3.45249 0
M  V30 3114 S 290.865 0.688269 4.33369 0
M  V30 3115 H 287.683 0.218591 0.676564 0
M  V30 3116 H 290.285 1.2102 1.5354 0
M  V30 3117 H 288.989 1.97297 3.59864 0
M  V30 3118 H 288.52 0.296746 3.92279 0
M  V30 3119 H 290.535 -0.448434 4.9417 0
M  V30 3120 N 289.708 -1.40897 0.706093 0
M  V30 3121 C 290.985 -1.94868 0.169099 0
M  V30 3122 C 291.365 -1.64485 -1.32318 0
M  V30 3123 O 290.713 -0.95744 -2.07474 0
M  V30 3124 C 290.923 -3.45798 0.471654 0
M  V30 3125 C 292.271 -4.22663 0.405127 0
M  V30 3126 O 293.295 -3.53865 0.407168 0
M  V30 3127 O 292.154 -5.45216 0.374383 0
M  V30 3128 H 289.248 -0.82673 0.0211352 0
M  V30 3129 H 291.794 -1.50558 0.782976 0
M  V30 3130 H 290.566 -3.61235 1.50416 0
M  V30 3131 H 290.189 -3.97225 -0.172666 0
M  V30 3132 N 291.186 -0.45159 -1.50991 0
M  V30 3133 C 292.433 0.110074 -2.02201 0
M  V30 3134 C 292.761 1.4146 -1.33489 0
M  V30 3135 O 292.016 1.90617 -0.443125 0
M  V30 3136 C 292.315 0.361728 -3.55565 0
M  V30 3137 C 291.981 -0.858717 -4.42648 0
M  V30 3138 C 290.643 -1.19338 -4.66167 0
M  V30 3139 C 292.995 -1.67221 -4.93646 0
M  V30 3140 C 290.323 -2.34195 -5.37931 0
M  V30 3141 C 292.675 -2.8119 -5.6667 0
M  V30 3142 C 291.339 -3.15094 -5.88449 0
M  V30 3143 H 290.609 0.040279 -0.739904 0
M  V30 3144 H 293.256 -0.601696 -1.81802 0
M  V30 3145 H 291.561 1.15554 -3.74372 0
M  V30 3146 H 293.258 0.80996 -3.92735 0
M  V30 3147 H 289.848 -0.58796 -4.24548 0
M  V30 3148 H 294.032 -1.42686 -4.75347 0
M  V30 3149 H 289.288 -2.6076 -5.53005 0
M  V30 3150 H 293.462 -3.44585 -6.05173 0
M  V30 3151 H 291.089 -4.04204 -6.43835 0
M  V30 3152 N 292.664 1.56529 -0.183458 0
M  V30 3153 C 293.912 1.96855 0.457452 0
M  V30 3154 C 294.233 1.07104 1.62953 0
M  V30 3155 O 293.503 0.139887 1.954 0
M  V30 3156 H 292.083 0.72693 0.171992 0
M  V30 3157 H 294.745 1.93056 -0.267476 0
M  V30 3158 H 293.841 3.01423 0.809368 0
M  V30 3159 N 294.142 -0.090211 1.57342 0
M  V30 3160 C 295.391 -0.791531 1.8552 0
M  V30 3161 C 295.704 -1.79659 0.773441 0
M  V30 3162 O 296.91 -2.54616 0.942497 0
M  V30 3163 C 295.366 -1.45856 3.2902 0
M  V30 3164 C 294.974 -0.493017 4.45279 0
M  V30 3165 C 296.718 -2.14332 3.66418 0
M  V30 3166 C 294.625 -1.16491 5.79814 0
M  V30 3167 H 293.555 -0.299356 0.692027 0
M  V30 3168 H 296.206 -0.0445343 1.83446 0
M  V30 3169 H 294.588 -2.25318 3.2565 0
M  V30 3170 H 295.762 0.270464 4.60006 0
M  V30 3171 H 294.077 0.0863061 4.16311 0
M  V30 3172 H 296.674 -2.65344 4.64216 0
M  V30 3173 H 297.017 -2.93447 2.95287 0
M  V30 3174 H 297.55 -1.41724 3.71698 0
M  V30 3175 H 294.289 -0.41447 6.54188 0
M  V30 3176 H 293.809 -1.8997 5.68921 0
M  V30 3177 H 295.488 -1.69001 6.24538 0
M  V30 3178 N 295.62 -1.53406 -0.361157 0
M  V30 3179 C 296.845 -1.74024 -1.12829 0
M  V30 3180 C 297.27 -0.470069 -1.82132 0
M  V30 3181 O 296.628 0.57619 -1.719 0
M  V30 3182 C 296.676 -2.90903 -2.13091 0
M  V30 3183 O 295.78 -2.59821 -3.20261 0
M  V30 3184 H 295.121 -0.577804 -0.327168 0
M  V30 3185 H 297.651 -2.00307 -0.41693 0
M  V30 3186 H 297.661 -3.17194 -2.56616 0
M  V30 3187 H 296.336 -3.83034 -1.62042 0
M  V30 3188 H 294.913 -2.44362 -2.81677 0
M  V30 3189 N 297.098 0.621204 -1.44841 0
M  V30 3190 C 298.346 1.37783 -1.47852 0
M  V30 3191 C 298.667 1.94653 -0.116224 0
M  V30 3192 O 297.937 1.76367 0.852737 0
M  V30 3193 H 296.517 0.511453 -0.544449 0
M  V30 3194 H 299.179 0.730446 -1.80694 0
M  V30 3195 H 298.275 2.20414 -2.20961 0
M  V30 3196 N 298.576 1.31904 0.862503 0
M  V30 3197 C 299.806 1.24817 1.64634 0
M  V30 3198 C 300.214 -0.187579 1.88268 0
M  V30 3199 O 299.557 -1.13253 1.44635 0
M  V30 3200 C 299.619 1.92996 3.03303 0
M  V30 3201 C 299.283 3.42336 3.02746 0
M  V30 3202 C 300.28 4.37956 2.80162 0
M  V30 3203 C 297.965 3.84147 3.2363 0
M  V30 3204 C 299.959 5.73361 2.78453 0
M  V30 3205 C 297.646 5.19663 3.21549 0
M  V30 3206 C 298.644 6.14081 2.98988 0
M  V30 3207 O 298.332 7.47118 2.96766 0
M  V30 3208 H 298.064 0.432222 0.519769 0
M  V30 3209 H 300.618 1.7445 1.08427 0
M  V30 3210 H 298.848 1.37922 3.61268 0
M  V30 3211 H 300.537 1.79723 3.63943 0
M  V30 3212 H 301.303 4.06981 2.63802 0
M  V30 3213 H 297.182 3.11083 3.40218 0
M  V30 3214 H 300.726 6.4703 2.60763 0
M  V30 3215 H 296.623 5.5027 3.37451 0
M  V30 3216 H 297.391 7.56382 3.12775 0
M  V30 3217 N 300.054 -1.07777 1.14986 0
M  V30 3218 C 300.984 -2.16865 0.865557 0
M  V30 3219 C 301.965 -1.69123 -0.182083 0
M  V30 3220 O 303.15 -1.94164 -0.0373815 0
M  V30 3221 C 300.28 -3.45539 0.349313 0
M  V30 3222 C 299.234 -4.06708 1.33313 0
M  V30 3223 C 298.56 -5.30411 0.675918 0
M  V30 3224 C 299.86 -4.47241 2.69764 0
M  V30 3225 H 301.554 -2.40905 1.77778 0
M  V30 3226 H 299.1 -1.15781 0.856203 0
M  V30 3227 H 301.053 -4.21174 0.137983 0
M  V30 3228 H 299.777 -3.21072 -0.598362 0
M  V30 3229 H 298.436 -3.33112 1.53075 0
M  V30 3230 H 298.084 -5.02232 -0.277767 0
M  V30 3231 H 297.784 -5.72293 1.33244 0
M  V30 3232 H 299.308 -6.08755 0.474262 0
M  V30 3233 H 300.722 -5.14025 2.53873 0
M  V30 3234 H 299.119 -5.00062 3.3175 0
M  V30 3235 H 300.189 -3.58818 3.26156 0
M  V30 3236 N 301.532 -0.945985 -1.26051 0
M  V30 3237 C 302.778 -0.597002 -1.93814 0
M  V30 3238 C 303.111 0.862484 -1.73997 0
M  V30 3239 O 302.386 1.61769 -1.07986 0
M  V30 3240 C 302.669 -0.945937 -3.47454 0
M  V30 3241 C 302.522 -2.46052 -3.76535 0
M  V30 3242 C 303.841 -0.464785 -4.37639 0
M  V30 3243 H 300.96 -0.218366 -0.703907 0
M  V30 3244 H 303.602 -1.18107 -1.48831 0
M  V30 3245 H 301.752 -0.448902 -3.85898 0
M  V30 3246 H 303.424 -3.03065 -3.47778 0
M  V30 3247 H 301.667 -2.90194 -3.22444 0
M  V30 3248 H 302.338 -2.65517 -4.83947 0
M  V30 3249 H 304.814 -0.891016 -4.06448 0
M  V30 3250 H 303.69 -0.737712 -5.4392 0
M  V30 3251 H 303.951 0.635274 -4.37512 0
M  V30 3252 N 303.011 1.40521 -0.713556 0
M  V30 3253 C 304.288 1.94775 -0.17943 0
M  V30 3254 C 304.668 1.65184 1.31444 0
M  V30 3255 O 304.016 0.968429 2.06963 0
M  V30 3256 C 304.226 3.45543 -0.489986 0
M  V30 3257 C 305.574 4.22442 -0.427536 0
M  V30 3258 O 306.598 3.53644 -0.425929 0
M  V30 3259 O 305.457 5.4501 -0.403292 0
M  V30 3260 H 302.551 0.826606 -0.0255192 0
M  V30 3261 H 305.097 1.5014 -0.790949 0
M  V30 3262 H 303.869 3.60432 -1.5233 0
M  V30 3263 H 303.492 3.97311 0.151598 0
M  V30 3264 N 304.489 0.459591 1.5075 0
M  V30 3265 C 305.714 -0.0996819 2.0716 0
M  V30 3266 C 306.139 -1.33761 1.32249 0
M  V30 3267 O 305.497 -1.77551 0.366786 0
M  V30 3268 C 305.545 -0.378226 3.58611 0
M  V30 3269 O 304.649 -1.46081 3.85661 0
M  V30 3270 H 303.99 0.00791392 0.663953 0
M  V30 3271 H 306.52 0.647329 1.9409 0
M  V30 3272 H 306.53 -0.622135 4.03229 0
M  V30 3273 H 305.205 0.526439 4.12555 0
M  V30 3274 H 303.782 -1.20511 3.5289 0
M  V30 3275 N 305.967 -1.56429 0.191757 0
M  V30 3276 C 307.213 -1.97777 -0.448554 0
M  V30 3277 C 307.546 -1.07847 -1.61501 0
M  V30 3278 O 306.821 -0.129774 -1.94067 0
M  V30 3279 C 307.104 -3.48362 -0.911906 0
M  V30 3280 C 306.957 -4.4907 0.256136 0
M  V30 3281 C 308.276 -4.02561 -1.77857 0
M  V30 3282 H 305.395 -0.719071 -0.161572 0
M  V30 3283 H 308.037 -1.87896 0.282007 0
M  V30 3284 H 306.187 -3.56914 -1.53442 0
M  V30 3285 H 307.859 -4.5256 0.893733 0
M  V30 3286 H 306.102 -4.24181 0.908436 0
M  V30 3287 H 306.773 -5.51889 -0.11053 0
M  V30 3288 H 309.249 -3.96767 -1.25359 0
M  V30 3289 H 308.125 -5.08301 -2.07174 0
M  V30 3290 H 308.386 -3.47616 -2.73158 0
M  V30 3291 N 307.445 0.0818655 -1.57387 0
M  V30 3292 C 308.408 1.08265 -2.02018 0
M  V30 3293 C 309.408 1.32183 -0.915664 0
M  V30 3294 O 310.598 1.28073 -1.18081 0
M  V30 3295 C 307.73 2.42871 -2.39221 0
M  V30 3296 H 308.923 0.698204 -2.91659 0
M  V30 3297 H 306.476 0.327303 -1.52835 0
M  V30 3298 H 307.211 2.86167 -1.52575 0
M  V30 3299 H 306.996 2.26855 -3.19811 0
M  V30 3300 H 308.486 3.14826 -2.74362 0
M  V30 3301 N 308.923 1.53595 0.353017 0
M  V30 3302 C 309.87 1.80919 1.43308 0
M  V30 3303 C 310.84 0.654288 1.5267 0
M  V30 3304 O 312.025 0.897759 1.6836 0
M  V30 3305 C 309.165 2.01605 2.80089 0
M  V30 3306 C 308.278 3.29321 2.79593 0
M  V30 3307 C 307.413 3.40125 4.0803 0
M  V30 3308 C 306.452 4.61826 4.01725 0
M  V30 3309 N 305.589 4.69716 5.21834 0
M  V30 3310 H 310.429 2.73074 1.19308 0
M  V30 3311 H 307.966 1.35263 0.578131 0
M  V30 3312 H 309.924 2.11586 3.59565 0
M  V30 3313 H 308.554 1.12772 3.0246 0
M  V30 3314 H 307.606 3.28229 1.92276 0
M  V30 3315 H 308.918 4.18884 2.70809 0
M  V30 3316 H 308.072 3.49488 4.95927 0
M  V30 3317 H 306.811 2.48601 4.19582 0
M  V30 3318 H 305.816 4.52552 3.12213 0
M  V30 3319 H 307.041 5.54705 3.91764 0
M  V30 3320 H 304.987 3.81097 5.33948 0
M  V30 3321 H 304.904 5.53202 5.1527 0
M  V30 3322 H 306.172 4.83376 6.11529 0
M  V30 3323 N 310.401 -0.613514 1.45168 0
M  V30 3324 C 311.629 -1.39946 1.5239 0
M  V30 3325 C 312.044 -1.88167 0.154531 0
M  V30 3326 O 311.401 -1.61872 -0.842843 0
M  V30 3327 C 311.452 -2.60795 2.50337 0
M  V30 3328 O 311.173 -2.1458 3.81952 0
M  V30 3329 C 312.674 -3.53723 2.67198 0
M  V30 3330 H 309.894 -0.428593 0.516284 0
M  V30 3331 H 312.438 -0.748753 1.903 0
M  V30 3332 H 310.593 -3.21919 2.15515 0
M  V30 3333 H 311.007 -2.93055 4.34993 0
M  V30 3334 H 312.481 -4.35079 3.39721 0
M  V30 3335 H 312.958 -4.0368 1.73029 0
M  V30 3336 H 313.564 -2.98456 3.02992 0
M  V30 3337 N 311.879 -1.3236 -0.855495 0
M  V30 3338 C 313.128 -1.22226 -1.60448 0
M  V30 3339 C 313.441 0.214733 -1.94418 0
M  V30 3340 O 314.647 0.437917 -2.67945 0
M  V30 3341 C 313.103 -2.14063 -2.89318 0
M  V30 3342 C 312.711 -3.62839 -2.62777 0
M  V30 3343 C 314.455 -2.12764 -3.67331 0
M  V30 3344 C 312.362 -4.4664 -3.87643 0
M  V30 3345 H 311.292 -0.453904 -0.602069 0
M  V30 3346 H 313.943 -1.57314 -0.944698 0
M  V30 3347 H 312.325 -1.71889 -3.5675 0
M  V30 3348 H 313.499 -4.1335 -2.03662 0
M  V30 3349 H 311.814 -3.66261 -1.98096 0
M  V30 3350 H 314.411 -2.72611 -4.59987 0
M  V30 3351 H 314.754 -1.11841 -4.00995 0
M  V30 3352 H 315.287 -2.53214 -3.06802 0
M  V30 3353 H 312.026 -5.48373 -3.5912 0
M  V30 3354 H 311.546 -4.0088 -4.46156 0
M  V30 3355 H 313.225 -4.59597 -4.55389 0
M  V30 3356 N 313.357 1.07166 -1.15556 0
M  V30 3357 C 314.634 1.76546 -0.842069 0
M  V30 3358 C 315.014 2.00453 0.661939 0
M  V30 3359 O 314.362 1.62452 1.60691 0
M  V30 3360 C 314.572 3.07266 -1.65495 0
M  V30 3361 C 315.92 3.81578 -1.86234 0
M  V30 3362 O 316.944 3.17083 -1.62287 0
M  V30 3363 O 315.803 4.97419 -2.26355 0
M  V30 3364 H 312.897 0.766756 -0.309862 0
M  V30 3365 H 315.443 1.13514 -1.26145 0
M  V30 3366 H 314.215 2.85494 -2.67598 0
M  V30 3367 H 313.838 3.7803 -1.23203 0
M  V30 3368 N 314.835 0.952656 1.25548 0
M  V30 3369 C 315.798 0.475794 2.24207 0
M  V30 3370 C 316.798 -0.419428 1.55234 0
M  V30 3371 O 317.988 -0.216994 1.72843 0
M  V30 3372 C 315.12 -0.312814 3.39462 0
M  V30 3373 H 316.313 1.34779 2.67908 0
M  V30 3374 H 313.866 0.735739 1.37901 0
M  V30 3375 H 314.601 -1.20257 3.01179 0
M  V30 3376 H 314.386 0.329404 3.90714 0
M  V30 3377 H 315.876 -0.635986 4.12729 0
M  V30 3378 N 316.313 -1.40141 0.720998 0
M  V30 3379 C 317.561 -2.0039 0.262323 0
M  V30 3380 C 317.882 -1.57469 -1.15015 0
M  V30 3381 O 317.152 -0.816582 -1.78069 0
M  V30 3382 H 315.732 -0.741063 0.093996 0
M  V30 3383 H 318.394 -1.71398 0.927835 0
M  V30 3384 H 317.49 -3.10658 0.299671 0
M  V30 3385 N 317.792 -0.46758 -1.50504 0
M  V30 3386 C 319.032 0.0874114 -2.04213 0
M  V30 3387 C 319.396 1.37301 -1.34211 0
M  V30 3388 O 320.597 2.01015 -1.78456 0
M  V30 3389 C 318.868 0.270571 -3.56374 0
M  V30 3390 S 320.427 0.784623 -4.31728 0
M  V30 3391 H 317.245 0.0176153 -0.710782 0
M  V30 3392 H 319.847 -0.633915 -1.84937 0
M  V30 3393 H 318.551 -0.670942 -4.04878 0
M  V30 3394 H 318.082 1.01811 -3.79997 0
M  V30 3395 H 320.097 2.05849 -4.51487 0
M  V30 3396 N 319.27 1.56325 -0.20005 0
M  V30 3397 C 320.217 2.1932 0.718833 0
M  V30 3398 C 321.187 1.14198 1.20615 0
M  V30 3399 O 322.372 1.42469 1.26914 0
M  V30 3400 C 319.512 2.86041 1.93066 0
M  V30 3401 C 318.625 4.05702 1.48425 0
M  V30 3402 C 317.76 4.60266 2.65196 0
M  V30 3403 C 316.799 5.72273 2.17185 0
M  V30 3404 N 315.936 6.21221 3.27152 0
M  V30 3405 H 320.776 2.97486 0.17489 0
M  V30 3406 H 318.313 1.46911 0.0745794 0
M  V30 3407 H 320.271 3.22897 2.64184 0
M  V30 3408 H 318.901 2.1043 2.44783 0
M  V30 3409 H 317.953 3.74475 0.668755 0
M  V30 3410 H 319.265 4.86699 1.09204 0
M  V30 3411 H 318.419 4.99453 3.4443 0
M  V30 3412 H 317.158 3.78386 3.07693 0
M  V30 3413 H 316.163 5.3261 1.36407 0
M  V30 3414 H 317.388 6.55974 1.75713 0
M  V30 3415 H 315.334 5.42263 3.69171 0
M  V30 3416 H 315.251 6.97284 2.92116 0
M  V30 3417 H 316.519 6.65063 4.06585 0
M  V30 3418 N 320.748 -0.0735177 1.57428 0
M  V30 3419 C 322.159 -0.625551 1.75908 0
M  V30 3420 C 322.51 -1.78 0.825261 0
M  V30 3421 O 321.635 -2.16398 0.00893964 0
M  V30 3422 C 322.23 -1.14155 3.18989 0
M  V30 3423 C 320.789 -1.63946 3.38819 0
M  V30 3424 C 319.936 -0.558151 2.71625 0
M  V30 3425 H 322.887 0.152647 1.57964 0
M  V30 3426 H 322.908 -2.0104 3.23053 0
M  V30 3427 H 322.42 -0.301116 3.8693 0
M  V30 3428 H 320.521 -2.50321 2.7599 0
M  V30 3429 H 320.634 -1.71759 4.47253 0
M  V30 3430 H 318.998 -1.00278 2.34129 0
M  V30 3431 H 319.781 0.272071 3.4222 0
M  V30 3432 N 322.226 -1.5378 -0.344866 0
M  V30 3433 C 323.456 -1.74646 -1.10374 0
M  V30 3434 C 323.864 -0.48491 -1.8288 0
M  V30 3435 O 323.207 0.553062 -1.75177 0
M  V30 3436 C 323.269 -2.87145 -2.16306 0
M  V30 3437 C 322.933 -4.26795 -1.63386 0
M  V30 3438 C 323.93 -5.08412 -1.08688 0
M  V30 3439 C 321.615 -4.73276 -1.68272 0
M  V30 3440 C 323.609 -6.34609 -0.595792 0
M  V30 3441 C 321.296 -5.99446 -1.18776 0
M  V30 3442 C 322.294 -6.79946 -0.645215 0
M  V30 3443 O 321.982 -8.03745 -0.157626 0
M  V30 3444 H 321.714 -0.587112 -0.335075 0
M  V30 3445 H 324.268 -2.01403 -0.403252 0
M  V30 3446 H 322.498 -2.55909 -2.89909 0
M  V30 3447 H 324.187 -2.95992 -2.77747 0
M  V30 3448 H 324.953 -4.73666 -1.04236 0
M  V30 3449 H 320.832 -4.10677 -2.09442 0
M  V30 3450 H 324.376 -6.97389 -0.171654 0
M  V30 3451 H 320.273 -6.33687 -1.22928 0
M  V30 3452 H 321.041 -8.18038 -0.275037 0
M  V30 3453 N 323.704 0.605807 -1.45491 0
M  V30 3454 C 324.637 1.73022 -1.48791 0
M  V30 3455 C 325.615 1.58917 -0.344112 0
M  V30 3456 O 326.799 1.80453 -0.544876 0
M  V30 3457 C 323.926 3.10865 -1.34463 0
M  V30 3458 C 322.972 3.43554 -2.5273 0
M  V30 3459 S 323.805 3.38196 -4.15191 0
M  V30 3460 C 324.961 4.78616 -4.03333 0
M  V30 3461 H 325.194 1.69961 -2.43928 0
M  V30 3462 H 322.727 0.782611 -1.33096 0
M  V30 3463 H 324.685 3.90398 -1.26884 0
M  V30 3464 H 323.346 3.1144 -0.40794 0
M  V30 3465 H 322.539 4.43924 -2.38637 0
M  V30 3466 H 322.141 2.71541 -2.5718 0
M  V30 3467 H 324.433 5.68463 -3.68587 0
M  V30 3468 H 325.376 4.97767 -5.03621 0
M  V30 3469 H 325.784 4.54381 -3.34959 0
M  V30 3470 N 325.182 1.32811 0.848464 0
M  V30 3471 C 326.145 1.22194 1.9391 0
M  V30 3472 C 327.145 0.143404 1.60159 0
M  V30 3473 O 328.335 0.394253 1.6968 0
M  V30 3474 C 325.467 0.88067 3.29328 0
M  V30 3475 H 326.66 2.19127 2.04752 0
M  V30 3476 H 324.213 1.16731 1.0394 0
M  V30 3477 H 324.948 -0.0865776 3.24184 0
M  V30 3478 H 324.733 1.66052 3.55203 0
M  V30 3479 H 326.223 0.830871 4.09251 0
M  V30 3480 N 326.66 -1.06551 1.16123 0
M  V30 3481 C 328.071 -1.60768 0.949232 0
M  V30 3482 C 328.422 -1.89523 -0.507508 0
M  V30 3483 O 327.547 -1.66671 -1.38021 0
M  V30 3484 C 328.142 -2.92086 1.71671 0
M  V30 3485 C 326.701 -3.43015 1.54977 0
M  V30 3486 C 325.848 -2.16947 1.72711 0
M  V30 3487 H 328.799 -0.895354 1.31031 0
M  V30 3488 H 328.82 -3.6138 1.19099 0
M  V30 3489 H 328.332 -2.71127 2.7769 0
M  V30 3490 H 326.433 -3.69039 0.513873 0
M  V30 3491 H 326.546 -4.18516 2.33198 0
M  V30 3492 H 324.91 -2.27041 1.15431 0
M  V30 3493 H 325.693 -1.98473 2.80113 0
M  V30 3494 N 328.138 -0.959301 -1.25041 0
M  V30 3495 C 329.048 -0.489994 -2.29426 0
M  V30 3496 C 330.064 0.444944 -1.68215 0
M  V30 3497 O 331.24 0.320046 -1.98841 0
M  V30 3498 C 328.305 0.220309 -3.45999 0
M  V30 3499 C 327.366 -0.753418 -4.22637 0
M  V30 3500 C 326.599 -0.076918 -5.33645 0
M  V30 3501 O 326.822 1.13649 -5.58963 0
M  V30 3502 O 325.756 -0.764824 -5.97021 0
M  V30 3503 H 329.582 -1.35755 -2.71669 0
M  V30 3504 H 327.167 -0.725961 -1.30576 0
M  V30 3505 H 329.049 0.619677 -4.16819 0
M  V30 3506 H 327.724 1.06296 -3.0575 0
M  V30 3507 H 326.631 -1.20308 -3.54227 0
M  V30 3508 H 327.964 -1.56423 -4.66683 0
M  V30 3509 N 329.616 1.39756 -0.72842 0
M  V30 3510 C 331.032 1.5442 -0.403308 0
M  V30 3511 C 331.232 1.69694 1.08656 0
M  V30 3512 O 330.288 1.69373 1.87267 0
M  V30 3513 C 331.601 2.76555 -1.18058 0
M  V30 3514 C 333.149 2.90384 -1.16815 0
M  V30 3515 C 333.624 4.15449 -1.92785 0
M  V30 3516 N 335.115 4.22475 -1.89918 0
M  V30 3517 C 335.85 5.1818 -2.45514 0
M  V30 3518 N 335.346 6.19714 -3.09719 0
M  V30 3519 N 337.139 5.1035 -2.35584 0
M  V30 3520 H 329.29 1.28089 -1.69431 0
M  V30 3521 H 331.553 0.620327 -0.716867 0
M  V30 3522 H 331.259 2.7159 -2.23455 0
M  V30 3523 H 331.133 3.69033 -0.780662 0
M  V30 3524 H 333.52 2.94846 -0.12234 0
M  V30 3525 H 333.601 1.98988 -1.6074 0
M  V30 3526 H 333.245 4.11749 -2.97364 0
M  V30 3527 H 333.175 5.05877 -1.46272 0
M  V30 3528 H 335.666 3.49743 -1.43138 0
M  V30 3529 H 335.979 6.8919 -3.49625 0
M  V30 3530 H 334.324 6.20121 -3.13807 0
M  V30 3531 H 337.515 4.2996 -1.85072 0
M  V30 3532 H 337.688 5.84761 -2.79211 0
M  V30 3533 N 331.094 0.475555 1.50254 0
M  V30 3534 C 332.343 -0.0795996 2.01543 0
M  V30 3535 C 332.656 -1.4038 1.36209 0
M  V30 3536 O 333.862 -2.04415 1.7868 0
M  V30 3537 C 332.318 -0.192363 3.59386 0
M  V30 3538 C 331.926 1.12367 4.33679 0
M  V30 3539 C 333.67 -0.699238 4.18701 0
M  V30 3540 C 331.577 0.974453 5.83317 0
M  V30 3541 H 330.507 -0.0335228 0.753254 0
M  V30 3542 H 333.158 0.611128 1.73025 0
M  V30 3543 H 331.54 -0.946974 3.84511 0
M  V30 3544 H 332.714 1.88958 4.20276 0
M  V30 3545 H 331.029 1.562 3.85993 0
M  V30 3546 H 333.626 -0.827978 5.28251 0
M  V30 3547 H 333.969 -1.69171 3.80377 0
M  V30 3548 H 334.502 -0.00188807 3.978 0
M  V30 3549 H 331.241 1.94042 6.26121 0
M  V30 3550 H 330.761 0.248998 5.99283 0
M  V30 3551 H 332.44 0.642867 6.43798 0
M  V30 3552 N 332.573 -1.56217 0.208337 0
M  V30 3553 C 333.521 -2.21053 -0.723769 0
M  V30 3554 C 334.515 -1.18578 -1.20978 0
M  V30 3555 O 335.721 -1.36691 -1.17114 0
M  V30 3556 H 332.096 -0.708595 -0.251788 0
M  V30 3557 H 334.067 -2.98006 -0.153365 0
M  V30 3558 C 332.816 -2.89417 -1.927 0
M  V30 3559 H 332.139 -3.68019 -1.56212 0
M  V30 3560 H 333.579 -3.38201 -2.55727 0
M  V30 3561 C 332.038 -1.91166 -2.77411 0
M  V30 3562 O 332.568 -1.42026 -3.75754 0
M  V30 3563 N 330.774 -1.59105 -2.43175 0
M  V30 3564 H 330.321 -1.99259 -1.63259 0
M  V30 3565 H 330.279 -0.936255 -3.00136 0
M  V30 3566 N 334.051 0.0651679 -1.57465 0
M  V30 3567 C 335.462 0.616213 -1.76238 0
M  V30 3568 C 335.813 1.7756 -0.834689 0
M  V30 3569 O 334.938 2.1639 -0.0204156 0
M  V30 3570 C 335.533 1.12462 -3.1959 0
M  V30 3571 C 334.092 1.62147 -3.39684 0
M  V30 3572 C 333.239 0.543739 -2.71917 0
M  V30 3573 H 336.19 -0.161022 -1.57881 0
M  V30 3574 H 336.211 1.99324 -3.24114 0
M  V30 3575 H 335.723 0.280592 -3.87084 0
M  V30 3576 H 333.824 2.48854 -2.77313 0
M  V30 3577 H 333.937 1.69385 -4.48158 0
M  V30 3578 H 332.301 0.990352 -2.34657 0
M  V30 3579 H 333.084 -0.290216 -3.42071 0
M  V30 3580 N 335.529 1.53961 0.336706 0
M  V30 3581 C 336.439 1.85432 1.43708 0
M  V30 3582 C 337.455 0.745053 1.57242 0
M  V30 3583 O 338.631 1.03804 1.72588 0
M  V30 3584 C 335.696 2.06349 2.78605 0
M  V30 3585 C 334.757 3.30191 2.74358 0
M  V30 3586 C 333.99 3.50101 4.02822 0
M  V30 3587 O 334.213 2.7371 5.00439 0
M  V30 3588 O 333.147 4.43547 4.06878 0
M  V30 3589 H 336.973 2.78975 1.20028 0
M  V30 3590 H 334.558 1.39701 0.52952 0
M  V30 3591 H 336.44 2.21513 3.58483 0
M  V30 3592 H 335.115 1.15995 3.02203 0
M  V30 3593 H 334.022 3.20425 1.93078 0
M  V30 3594 H 335.355 4.2056 2.55715 0
M  V30 3595 N 337.007 -0.598083 1.45811 0
M  V30 3596 C 337.937 -1.71873 1.58057 0
M  V30 3597 C 338.918 -1.64533 0.431615 0
M  V30 3598 O 340.103 -1.82787 0.65595 0
M  V30 3599 C 337.233 -3.10495 1.55597 0
M  V30 3600 C 336.187 -3.32654 2.69305 0
M  V30 3601 C 335.513 -4.71646 2.51902 0
M  V30 3602 C 336.813 -3.21981 4.11248 0
M  V30 3603 H 338.507 -1.61881 2.51863 0
M  V30 3604 H 336.053 -0.777372 1.21214 0
M  V30 3605 H 338.006 -3.88699 1.6276 0
M  V30 3606 H 336.73 -3.2135 0.583255 0
M  V30 3607 H 335.389 -2.56843 2.61586 0
M  V30 3608 H 335.037 -4.79246 1.52748 0
M  V30 3609 H 334.737 -4.87426 3.2816 0
M  V30 3610 H 336.261 -5.52038 2.60933 0
M  V30 3611 H 337.675 -3.90049 4.20161 0
M  V30 3612 H 336.072 -3.49289 4.87972 0
M  V30 3613 H 337.142 -2.1928 4.32486 0
M  V30 3614 N 338.485 -1.33259 -0.841409 0
M  V30 3615 C 339.433 -1.23279 -1.97244 0
M  V30 3616 C 340.427 -0.134706 -1.68864 0
M  V30 3617 O 341.633 -0.298501 -1.77508 0
M  V30 3618 H 338.008 -0.382497 -0.647457 0
M  V30 3619 H 339.979 -2.18906 -2.02787 0
M  V30 3620 C 338.728 -0.986268 -3.33419 0
M  V30 3621 H 338.051 -1.82347 -3.55794 0
M  V30 3622 H 339.491 -0.956728 -4.13065 0
M  V30 3623 C 337.95 0.310842 -3.35463 0
M  V30 3624 O 338.48 1.31838 -3.79449 0
M  V30 3625 N 336.686 0.337485 -2.88634 0
M  V30 3626 H 336.233 -0.482967 -2.53032 0
M  V30 3627 H 336.191 1.20518 -2.90384 0
M  V30 3628 N 339.963 1.05934 -1.16686 0
M  V30 3629 C 340.895 2.13468 -0.834503 0
M  V30 3630 C 341.908 1.62013 0.15984 0
M  V30 3631 O 343.097 1.7838 -0.0654228 0
M  V30 3632 C 340.197 3.3817 -0.222361 0
M  V30 3633 C 339.37 4.18928 -1.25771 0
M  V30 3634 C 338.429 5.21985 -0.664703 0
M  V30 3635 O 337.455 5.53334 -1.33453 0
M  V30 3636 N 338.657 5.77919 0.546834 0
M  V30 3637 H 341.422 2.42578 -1.75999 0
M  V30 3638 H 338.983 1.21967 -1.06469 0
M  V30 3639 H 340.975 4.04266 0.187472 0
M  V30 3640 H 339.545 3.06655 0.606758 0
M  V30 3641 H 338.765 3.48433 -1.84358 0
M  V30 3642 H 340.053 4.69687 -1.95631 0
M  V30 3643 H 339.451 5.54721 1.10912 0
M  V30 3644 H 338.008 6.45573 0.898829 0
M  V30 3645 N 341.441 0.965919 1.2453 0
M  V30 3646 C 342.388 0.49402 2.25451 0
M  V30 3647 C 343.358 -0.45948 1.59618 0
M  V30 3648 O 344.543 -0.370238 1.87173 0
M  V30 3649 C 341.683 -0.211359 3.44452 0
M  V30 3650 C 340.796 0.7807 4.24887 0
M  V30 3651 C 339.931 0.0516105 5.31175 0
M  V30 3652 C 338.97 1.03385 6.03306 0
M  V30 3653 N 338.107 0.334887 7.01301 0
M  V30 3654 H 342.947 1.35946 2.65184 0
M  V30 3655 H 340.484 0.681515 1.3036 0
M  V30 3656 H 342.442 -0.637 4.12308 0
M  V30 3657 H 341.072 -1.04077 3.05562 0
M  V30 3658 H 340.124 1.32479 3.56586 0
M  V30 3659 H 341.436 1.52978 4.74762 0
M  V30 3660 H 340.59 -0.432114 6.05159 0
M  V30 3661 H 339.329 -0.730179 4.82203 0
M  V30 3662 H 338.334 1.52847 5.28127 0
M  V30 3663 H 339.559 1.81606 6.54367 0
M  V30 3664 H 337.505 -0.427959 6.54603 0
M  V30 3665 H 337.422 1.02287 7.49048 0
M  V30 3666 H 338.69 -0.126928 7.79397 0
M  V30 3667 N 342.919 -1.39368 0.735821 0
M  V30 3668 C 344.167 -2.00101 0.283562 0
M  V30 3669 C 344.488 -1.5868 -1.13338 0
M  V30 3670 O 343.758 -0.835423 -1.77193 0
M  V30 3671 H 342.338 -0.740024 0.101851 0
M  V30 3672 H 345 -1.70404 0.945962 0
M  V30 3673 H 344.096 -3.10323 0.332604 0
M  V30 3674 N 344.397 -0.483516 -1.5 0
M  V30 3675 C 345.627 0.0643896 -2.065 0
M  V30 3676 C 346.035 1.32949 -1.34615 0
M  V30 3677 O 345.378 1.79003 -0.412756 0
M  V30 3678 C 345.44 0.405983 -3.572 0
M  V30 3679 C 345.104 -0.758875 -4.50655 0
M  V30 3680 C 346.101 -1.64445 -4.93208 0
M  V30 3681 C 343.786 -0.952725 -4.93182 0
M  V30 3682 C 345.78 -2.70818 -5.77006 0
M  V30 3683 C 343.467 -2.01966 -5.76761 0
M  V30 3684 C 344.465 -2.89574 -6.18576 0
M  V30 3685 O 344.153 -3.94429 -7.00486 0
M  V30 3686 H 343.885 -0.00934786 -0.675935 0
M  V30 3687 H 346.439 -0.674959 -1.93993 0
M  V30 3688 H 344.669 1.19869 -3.67652 0
M  V30 3689 H 346.358 0.890433 -3.96013 0
M  V30 3690 H 347.124 -1.50643 -4.61012 0
M  V30 3691 H 343.003 -0.280247 -4.60147 0
M  V30 3692 H 346.547 -3.3923 -6.09565 0
M  V30 3693 H 342.444 -2.1577 -6.0837 0
M  V30 3694 H 343.212 -3.91568 -7.1876 0
M  V30 3695 N 345.875 1.56104 -0.216619 0
M  V30 3696 C 347.1 2.0301 0.424462 0
M  V30 3697 C 347.525 1.0955 1.52907 0
M  V30 3698 O 346.883 0.0827914 1.81111 0
M  V30 3699 C 346.931 3.4819 0.937883 0
M  V30 3700 O 346.035 3.57865 2.04955 0
M  V30 3701 H 345.376 0.656925 0.0966755 0
M  V30 3702 H 347.906 2.01859 -0.33381 0
M  V30 3703 H 347.916 3.88413 1.24897 0
M  V30 3704 H 346.591 4.15699 0.129387 0
M  V30 3705 H 345.168 3.29527 1.74546 0
M  V30 3706 N 347.353 -0.0568162 1.57498 0
M  V30 3707 C 348.599 -0.75422 1.88253 0
M  V30 3708 C 348.932 -1.76461 0.810865 0
M  V30 3709 O 348.207 -1.93691 -0.177259 0
M  V30 3710 C 348.49 -1.44878 3.2967 0
M  V30 3711 C 348.343 -0.453789 4.47505 0
M  V30 3712 C 349.662 -2.38994 3.69554 0
M  V30 3713 H 346.781 -0.272724 0.684683 0
M  V30 3714 H 349.423 -0.0172113 1.89992 0
M  V30 3715 H 347.573 -2.077 3.28318 0
M  V30 3716 H 349.245 0.170371 4.60985 0
M  V30 3717 H 347.488 0.229552 4.33192 0
M  V30 3718 H 348.159 -0.977699 5.43273 0
M  V30 3719 H 350.635 -1.86239 3.72095 0
M  V30 3720 H 349.511 -2.84587 4.69363 0
M  V30 3721 H 349.772 -3.24461 3.00296 0
M  V30 3722 N 348.832 -1.54138 -0.328536 0
M  V30 3723 C 349.779 -1.83176 -1.40411 0
M  V30 3724 C 350.749 -0.678494 -1.5161 0
M  V30 3725 O 351.934 -0.92443 -1.6691 0
M  V30 3726 C 349.074 -2.06035 -2.76846 0
M  V30 3727 C 348.187 -3.33727 -2.74318 0
M  V30 3728 C 347.322 -3.46574 -4.02567 0
M  V30 3729 C 346.361 -4.68159 -3.94327 0
M  V30 3730 N 345.498 -4.77959 -5.14296 0
M  V30 3731 H 350.338 -2.74938 -1.14948 0
M  V30 3732 H 347.875 -1.36166 -0.556538 0
M  V30 3733 H 349.833 -2.1728 -3.56153 0
M  V30 3734 H 348.463 -1.1757 -3.00628 0
M  V30 3735 H 347.515 -3.31246 -1.8703 0
M  V30 3736 H 348.827 -4.23139 -2.64111 0
M  V30 3737 H 347.981 -3.57333 -4.90304 0
M  V30 3738 H 346.72 -2.55245 -4.15574 0
M  V30 3739 H 345.725 -4.57461 -3.04974 0
M  V30 3740 H 346.95 -5.60868 -3.82889 0
M  V30 3741 H 344.896 -3.89544 -5.27818 0
M  V30 3742 H 344.813 -5.6133 -5.06404 0
M  V30 3743 H 346.081 -4.93044 -6.03761 0
M  V30 3744 N 350.31 0.590341 -1.46126 0
M  V30 3745 C 351.535 1.37991 -1.54833 0
M  V30 3746 C 351.96 1.87163 -0.187506 0
M  V30 3747 O 351.318 1.61133 0.831008 0
M  V30 3748 C 351.366 2.54867 -2.55098 0
M  V30 3749 O 350.47 3.56061 -2.08073 0
M  V30 3750 H 349.811 0.411265 -0.521303 0
M  V30 3751 H 352.341 0.716819 -1.91632 0
M  V30 3752 H 352.351 3.01886 -2.74461 0
M  V30 3753 H 351.026 2.18429 -3.53923 0
M  V30 3754 H 349.603 3.15574 -1.98664 0
M  V30 3755 N 351.788 1.33704 0.83433 0
M  V30 3756 C 353.065 1.16011 1.57483 0
M  V30 3757 C 353.445 -0.27176 2.09343 0
M  V30 3758 O 352.793 -1.27146 1.89858 0
M  V30 3759 C 353.003 2.20507 2.70514 0
M  V30 3760 C 354.351 2.54898 3.39577 0
M  V30 3761 O 355.375 2.19209 2.80759 0
M  V30 3762 O 354.234 3.16158 4.45765 0
M  V30 3763 H 351.328 0.448992 0.694503 0
M  V30 3764 H 353.874 1.453 0.876691 0
M  V30 3765 H 352.646 3.16667 2.29865 0
M  V30 3766 H 352.269 1.92329 3.47987 0
M  V30 3767 N 353.266 -1.05314 1.17247 0
M  V30 3768 C 354.515 -1.77685 0.954521 0
M  V30 3769 C 354.828 -1.88616 -0.518025 0
M  V30 3770 O 356.034 -2.57714 -0.854144 0
M  V30 3771 C 354.49 -3.19402 1.65863 0
M  V30 3772 C 354.098 -3.16605 3.16963 0
M  V30 3773 C 355.842 -3.96237 1.52303 0
M  V30 3774 C 353.749 -4.53103 3.80068 0
M  V30 3775 H 352.679 -0.666 0.353496 0
M  V30 3776 H 355.33 -1.1805 1.40486 0
M  V30 3777 H 353.712 -3.79355 1.13602 0
M  V30 3778 H 354.886 -2.66176 3.76148 0
M  V30 3779 H 353.201 -2.53268 3.30521 0
M  V30 3780 H 355.798 -4.97157 1.96822 0
M  V30 3781 H 356.141 -4.136 0.473401 0
M  V30 3782 H 356.674 -3.42829 2.01775 0
M  V30 3783 H 353.413 -4.40946 4.85023 0
M  V30 3784 H 352.933 -5.03686 3.2567 0
M  V30 3785 H 354.612 -5.22045 3.82202 0
M  V30 3786 N 354.744 -0.972509 -1.24016 0
M  V30 3787 C 355.99 -0.647583 -1.92816 0
M  V30 3788 C 356.345 0.809015 -1.74564 0
M  V30 3789 O 355.638 1.57502 -1.09103 0
M  V30 3790 C 355.832 -0.963694 -3.44162 0
M  V30 3791 C 355.661 -2.44947 -3.77135 0
M  V30 3792 C 354.431 -3.11012 -3.98246 0
M  V30 3793 C 356.629 -3.42978 -3.83237 0
M  V30 3794 N 354.611 -4.49277 -4.18358 0
M  V30 3795 C 355.982 -4.66619 -4.08248 0
M  V30 3796 C 358.037 -3.37569 -3.65994 0
M  V30 3797 C 356.74 -5.85516 -4.17808 0
M  V30 3798 C 358.766 -4.55822 -3.76802 0
M  V30 3799 C 358.128 -5.78256 -4.02243 0
M  V30 3800 H 354.227 -0.287894 -0.727077 0
M  V30 3801 H 356.811 -1.24835 -1.49413 0
M  V30 3802 H 354.982 -0.391692 -3.8642 0
M  V30 3803 H 356.714 -0.596849 -4.00275 0
M  V30 3804 H 353.469 -2.61529 -3.94841 0
M  V30 3805 H 353.893 -5.20935 -4.32384 0
M  V30 3806 H 358.535 -2.43945 -3.45327 0
M  V30 3807 H 356.253 -6.79564 -4.37285 0
M  V30 3808 H 359.839 -4.53204 -3.64825 0
M  V30 3809 H 358.719 -6.68231 -4.10411 0
M  V30 3810 N 356.222 1.38976 -0.743202 0
M  V30 3811 C 357.447 2.05161 -0.303936 0
M  V30 3812 C 357.872 1.55677 1.05576 0
M  V30 3813 O 357.23 0.704131 1.67068 0
M  V30 3814 C 357.278 3.59138 -0.324373 0
M  V30 3815 O 356.382 4.06668 0.685204 0
M  V30 3816 H 355.723 0.649815 -0.136518 0
M  V30 3817 H 358.253 1.77852 -1.01142 0
M  V30 3818 H 358.263 4.07639 -0.171618 0
M  V30 3819 H 356.938 3.94515 -1.31647 0
M  V30 3820 H 355.515 3.69561 0.497913 0
M  V30 3821 N 357.7 0.491464 1.49741 0
M  V30 3822 C 358.63 -0.28154 2.31796 0
M  V30 3823 C 359.611 -0.971473 1.3963 0
M  V30 3824 O 360.796 -0.964719 1.68543 0
M  V30 3825 C 357.926 -1.35203 3.19902 0
M  V30 3826 C 356.88 -0.782529 4.20786 0
M  V30 3827 C 356.206 -1.95283 4.97764 0
M  V30 3828 C 357.506 0.21999 5.21837 0
M  V30 3829 H 359.2 0.403355 2.96671 0
M  V30 3830 H 356.746 0.195425 1.42668 0
M  V30 3831 H 358.699 -1.90045 3.76113 0
M  V30 3832 H 357.423 -2.06598 2.52953 0
M  V30 3833 H 356.082 -0.255928 3.65706 0
M  V30 3834 H 355.73 -2.65423 4.2727 0
M  V30 3835 H 355.43 -1.57789 5.66018 0
M  V30 3836 H 356.954 -2.50577 5.56816 0
M  V30 3837 H 358.368 -0.23996 5.72798 0
M  V30 3838 H 356.765 0.51026 5.97927 0
M  V30 3839 H 357.835 1.13911 4.7133 0
M  V30 3840 N 359.178 -1.55987 0.224894 0
M  V30 3841 C 360.426 -1.97998 -0.405099 0
M  V30 3842 C 360.747 -1.11387 -1.60056 0
M  V30 3843 O 360.017 -0.191645 -1.9496 0
M  V30 3844 H 358.597 -0.731235 -0.152658 0
M  V30 3845 H 361.259 -1.92279 0.318567 0
M  V30 3846 H 360.355 -3.03463 -0.729167 0
M  V30 3847 N 360.656 0.0484629 -1.57525 0
M  V30 3848 C 361.905 0.742065 -1.87553 0
M  V30 3849 C 362.218 1.77545 -0.820802 0
M  V30 3850 O 363.424 2.52027 -1.00967 0
M  V30 3851 C 361.88 1.37081 -3.32771 0
M  V30 3852 C 361.488 0.374786 -4.4643 0
M  V30 3853 C 363.232 2.04542 -3.71972 0
M  V30 3854 C 361.139 1.01077 -5.82698 0
M  V30 3855 H 360.069 0.280903 -0.699721 0
M  V30 3856 H 362.72 -0.00411877 -1.835 0
M  V30 3857 H 361.102 2.16605 -3.31509 0
M  V30 3858 H 362.276 -0.392331 -4.59127 0
M  V30 3859 H 360.591 -0.196653 -4.15935 0
M  V30 3860 H 363.188 2.52943 -4.71088 0
M  V30 3861 H 363.531 2.85515 -3.02964 0
M  V30 3862 H 364.064 1.31819 -3.75325 0
M  V30 3863 H 360.803 0.240878 -6.55057 0
M  V30 3864 H 360.323 1.74819 -5.73758 0
M  V30 3865 H 362.002 1.52383 -6.28799 0
M  V30 3866 N 362.134 1.5431 0.320358 0
M  V30 3867 C 363.362 1.76636 1.07738 0
M  V30 3868 C 363.777 0.51649 1.81598 0
M  V30 3869 O 363.134 -0.512942 1.75143 0
M  V30 3870 C 363.185 2.96158 2.07299 0
M  V30 3871 O 362.906 4.16313 1.36438 0
M  V30 3872 C 364.407 3.3072 2.95193 0
M  V30 3873 H 361.627 0.589597 0.320339 0
M  V30 3874 H 364.171 2.01207 0.36551 0
M  V30 3875 H 362.326 2.73851 2.74016 0
M  V30 3876 H 362.74 4.83565 2.03138 0
M  V30 3877 H 364.214 4.17643 3.60941 0
M  V30 3878 H 364.691 2.48026 3.62463 0
M  V30 3879 H 365.297 3.55117 2.34034 0
M  V30 3880 N 363.613 -0.582584 1.46437 0
M  V30 3881 C 364.546 -1.70633 1.51524 0
M  V30 3882 C 365.524 -1.58349 0.369351 0
M  V30 3883 O 366.708 -1.79563 0.573516 0
M  V30 3884 C 363.835 -3.08687 1.39392 0
M  V30 3885 C 362.881 -3.3949 2.58164 0
M  V30 3886 S 363.714 -3.31548 4.20519 0
M  V30 3887 C 364.87 -4.72139 4.10896 0
M  V30 3888 H 365.103 -1.66058 2.46601 0
M  V30 3889 H 362.636 -0.761337 1.34324 0
M  V30 3890 H 364.594 -3.8833 1.33079 0
M  V30 3891 H 363.255 -3.10751 0.457436 0
M  V30 3892 H 362.448 -4.40071 2.45669 0
M  V30 3893 H 362.05 -2.67415 2.61468 0
M  V30 3894 H 364.342 -5.62527 3.77584 0
M  V30 3895 H 365.285 -4.89692 5.11476 0
M  V30 3896 H 365.693 -4.48995 3.42146 0
M  V30 3897 N 365.091 -1.34144 -0.827227 0
M  V30 3898 C 366.34 -1.25602 -1.5782 0
M  V30 3899 C 366.653 0.173445 -1.94829 0
M  V30 3900 O 367.859 0.380984 -2.68814 0
M  V30 3901 C 366.315 -2.20151 -2.84713 0
M  V30 3902 C 365.923 -3.68331 -2.55021 0
M  V30 3903 C 367.667 -2.20508 -3.62735 0
M  V30 3904 C 365.574 -4.54762 -3.78082 0
M  V30 3905 H 364.504 -0.466573 -0.592306 0
M  V30 3906 H 367.155 -1.59283 -0.911116 0
M  V30 3907 H 365.537 -1.79417 -3.53023 0
M  V30 3908 H 366.711 -4.17577 -1.94849 0
M  V30 3909 H 365.026 -3.7038 -1.90283 0
M  V30 3910 H 367.623 -2.82306 -4.54101 0
M  V30 3911 H 367.966 -1.20322 -3.98533 0
M  V30 3912 H 368.499 -2.59664 -3.01362 0
M  V30 3913 H 365.238 -5.55867 -3.47407 0
M  V30 3914 H 364.758 -4.10254 -4.37552 0
M  V30 3915 H 366.437 -4.69153 -4.45538 0
M  V30 3916 N 366.569 1.04691 -1.17803 0
M  V30 3917 C 367.479 2.16057 -0.914151 0
M  V30 3918 C 368.495 1.73589 0.119503 0
M  V30 3919 O 369.671 2.01308 -0.0609468 0
M  V30 3920 C 366.736 3.4394 -0.436603 0
M  V30 3921 C 365.797 4.00825 -1.53746 0
M  V30 3922 C 365.03 5.22604 -1.0826 0
M  V30 3923 O 365.253 5.70367 0.0612244 0
M  V30 3924 O 364.187 5.7186 -1.87775 0
M  V30 3925 H 368.013 2.41169 -1.84584 0
M  V30 3926 H 365.598 1.1453 -0.959334 0
M  V30 3927 H 367.48 4.21024 -0.178057 0
M  V30 3928 H 366.155 3.20316 0.466869 0
M  V30 3929 H 365.062 3.25158 -1.84995 0
M  V30 3930 H 366.395 4.28778 -2.41683 0
M  V30 3931 N 368.047 0.979072 1.23499 0
M  V30 3932 C 368.977 0.537606 2.27227 0
M  V30 3933 C 369.958 -0.428539 1.64613 0
M  V30 3934 O 371.143 -0.322191 1.91509 0
M  V30 3935 C 368.273 -0.162052 3.46922 0
M  V30 3936 C 367.227 0.721242 4.21879 0
M  V30 3937 C 366.553 -0.110555 5.34586 0
M  V30 3938 C 367.853 2.01141 4.82016 0
M  V30 3939 H 369.547 1.40462 2.64406 0
M  V30 3940 H 367.093 0.67684 1.27102 0
M  V30 3941 H 369.046 -0.482192 4.18632 0
M  V30 3942 H 367.77 -1.06351 3.08799 0
M  V30 3943 H 366.429 1.02482 3.51984 0
M  V30 3944 H 366.077 -1.0125 4.92704 0
M  V30 3945 H 365.777 0.477325 5.85658 0
M  V30 3946 H 367.301 -0.425107 6.09118 0
M  V30 3947 H 368.715 1.75612 5.45741 0
M  V30 3948 H 367.112 2.54695 5.43369 0
M  V30 3949 H 368.182 2.69909 4.02836 0
M  V30 3950 N 369.525 -1.3858 0.750561 0
M  V30 3951 C 370.488 -2.28836 0.129152 0
M  V30 3952 C 371.488 -1.47045 -0.650714 0
M  V30 3953 O 372.678 -1.6753 -0.477428 0
M  V30 3954 C 369.81 -3.30751 -0.825622 0
M  V30 3955 H 371.003 -2.85294 0.924516 0
M  V30 3956 H 368.556 -1.47489 0.517376 0
M  V30 3957 H 369.291 -2.79378 -1.64677 0
M  V30 3958 H 369.076 -3.91177 -0.268852 0
M  V30 3959 H 370.566 -3.98249 -1.2565 0
M  V30 3960 N 371.003 -0.499398 -1.49478 0
M  V30 3961 C 372.252 0.0475259 -2.01644 0
M  V30 3962 C 372.565 1.38195 -1.38425 0
M  V30 3963 O 373.771 2.01547 -1.8191 0
M  V30 3964 C 372.227 0.135164 -3.59646 0
M  V30 3965 C 371.835 -1.19252 -4.31837 0
M  V30 3966 C 373.579 0.632538 -4.19761 0
M  V30 3967 C 371.486 -1.06713 -5.81693 0
M  V30 3968 H 370.416 0.0215349 -0.753692 0
M  V30 3969 H 373.067 -0.638577 -1.7203 0
M  V30 3970 H 371.449 0.885681 -3.85969 0
M  V30 3971 H 372.623 -1.9562 -4.17216 0
M  V30 3972 H 370.938 -1.62321 -3.83459 0
M  V30 3973 H 373.535 0.743833 -5.29501 0
M  V30 3974 H 373.878 1.63098 -3.83021 0
M  V30 3975 H 374.411 -0.0613987 -3.97753 0
M  V30 3976 H 371.15 -2.03979 -6.22955 0
M  V30 3977 H 370.67 -0.344307 -5.98811 0
M  V30 3978 H 372.349 -0.745208 -6.42694 0
M  V30 3979 N 372.481 1.55866 -0.233164 0
M  V30 3980 C 373.411 2.23783 0.666599 0
M  V30 3981 C 374.392 1.21343 1.19205 0
M  V30 3982 O 375.577 1.4996 1.23392 0
M  V30 3983 C 372.707 2.92671 1.86978 0
M  V30 3984 C 371.661 4.01682 1.47768 0
M  V30 3985 C 370.987 4.57926 2.76058 0
M  V30 3986 C 372.287 5.18126 0.658993 0
M  V30 3987 H 373.981 2.99232 0.100306 0
M  V30 3988 H 371.527 1.43924 0.046804 0
M  V30 3989 H 373.48 3.3888 2.50476 0
M  V30 3990 H 372.204 2.14688 2.46123 0
M  V30 3991 H 370.863 3.56222 0.866106 0
M  V30 3992 H 370.511 3.76659 3.33372 0
M  V30 3993 H 370.211 5.31505 2.50552 0
M  V30 3994 H 371.735 5.06859 3.40479 0
M  V30 3995 H 373.149 5.60644 1.19795 0
M  V30 3996 H 371.546 5.98009 0.500552 0
M  V30 3997 H 372.616 4.83763 -0.331856 0
M  V30 3998 N 373.959 -0.0401083 1.57549 0
M  V30 3999 C 375.375 -0.395556 1.54621 0
M  V30 4000 C 375.575 -1.77281 0.957799 0
M  V30 4001 O 374.631 -2.45888 0.574031 0
M  V30 4002 C 375.944 -0.307535 2.99123 0
M  V30 4003 C 377.492 -0.385425 3.10618 0
M  V30 4004 C 377.967 -0.326973 4.56831 0
M  V30 4005 N 379.458 -0.386102 4.61588 0
M  V30 4006 C 380.193 -0.363591 5.72246 0
M  V30 4007 N 379.689 -0.29402 6.92176 0
M  V30 4008 N 381.482 -0.412503 5.60584 0
M  V30 4009 H 373.633 0.861325 1.94152 0
M  V30 4010 H 375.896 0.326445 0.890021 0
M  V30 4011 H 375.602 0.638461 3.45856 0
M  V30 4012 H 375.476 -1.10552 3.60636 0
M  V30 4013 H 377.863 -1.32185 2.63839 0
M  V30 4014 H 377.944 0.44171 2.51957 0
M  V30 4015 H 377.588 0.605738 5.04275 0
M  V30 4016 H 377.518 -1.17207 5.13391 0
M  V30 4017 H 380.009 -0.442832 3.75296 0
M  V30 4018 H 380.322 -0.28164 7.72287 0
M  V30 4019 H 378.667 -0.260232 6.94513 0
M  V30 4020 H 381.858 -0.464769 4.65787 0
M  V30 4021 H 382.031 -0.391492 6.46816 0
M  V30 4022 N 375.437 -1.54477 -0.31217 0
M  V30 4023 C 376.684 -1.73227 -1.04875 0
M  V30 4024 C 377.012 -0.512042 -1.87639 0
M  V30 4025 O 376.267 0.506131 -1.89042 0
M  V30 4026 C 376.566 -2.967 -1.99258 0
M  V30 4027 C 376.232 -4.30974 -1.32559 0
M  V30 4028 C 374.894 -4.67477 -1.141 0
M  V30 4029 C 377.246 -5.14258 -0.847835 0
M  V30 4030 C 374.574 -5.84852 -0.465326 0
M  V30 4031 C 376.926 -6.32327 -0.185931 0
M  V30 4032 C 375.59 -6.67499 0.0107077 0
M  V30 4033 H 374.86 -0.633881 -0.383765 0
M  V30 4034 H 377.507 -1.88727 -0.324731 0
M  V30 4035 H 375.812 -2.75935 -2.7815 0
M  V30 4036 H 377.509 -3.08401 -2.563 0
M  V30 4037 H 374.099 -4.02262 -1.4793 0
M  V30 4038 H 378.283 -4.86565 -0.978192 0
M  V30 4039 H 373.539 -6.10654 -0.301883 0
M  V30 4040 H 377.713 -6.96135 0.192211 0
M  V30 4041 H 375.34 -7.58306 0.536287 0
M  V30 4042 N 376.915 0.57481 -1.46744 0
M  V30 4043 C 378.326 1.15695 -1.46532 0
M  V30 4044 C 378.677 1.95068 -0.210425 0
M  V30 4045 O 377.802 2.05241 0.685944 0
M  V30 4046 C 378.397 2.1048 -2.65487 0
M  V30 4047 C 376.956 2.64002 -2.68291 0
M  V30 4048 C 376.103 1.40026 -2.39349 0
M  V30 4049 H 379.054 0.362325 -1.54509 0
M  V30 4050 H 379.075 2.94074 -2.41455 0
M  V30 4051 H 378.587 1.52683 -3.56805 0
M  V30 4052 H 376.688 3.25646 -1.81067 0
M  V30 4053 H 376.801 3.06197 -3.68483 0
M  V30 4054 H 375.165 1.70106 -1.89568 0
M  V30 4055 H 375.948 0.840485 -3.32852 0
M  V30 4056 N 378.394 1.34581 0.820102 0
M  V30 4057 C 379.624 1.29991 1.6058 0
M  V30 4058 C 380.032 -0.127588 1.88769 0
M  V30 4059 O 379.375 -1.08595 1.48165 0
M  V30 4060 C 379.437 2.02548 2.9701 0
M  V30 4061 C 379.101 3.51794 2.91701 0
M  V30 4062 C 380.098 4.46647 2.66087 0
M  V30 4063 C 377.783 3.94249 3.11245 0
M  V30 4064 C 379.777 5.81929 2.60071 0
M  V30 4065 C 377.464 5.2963 3.04853 0
M  V30 4066 C 378.462 6.23282 2.793 0
M  V30 4067 O 378.15 7.56181 2.72847 0
M  V30 4068 H 377.882 0.448539 0.505756 0
M  V30 4069 H 380.436 1.77811 1.02822 0
M  V30 4070 H 378.666 1.49345 3.56697 0
M  V30 4071 H 380.355 1.91211 3.58041 0
M  V30 4072 H 381.121 4.15168 2.5072 0
M  V30 4073 H 377 3.21749 3.30149 0
M  V30 4074 H 380.544 6.54999 2.40046 0
M  V30 4075 H 376.441 5.60727 3.19774 0
M  V30 4076 H 377.209 7.6595 2.88553 0
M  V30 4077 N 379.872 -1.04064 1.18357 0
M  V30 4078 C 381.149 -1.74252 0.888581 0
M  V30 4079 C 381.529 -2.02138 -0.60856 0
M  V30 4080 O 380.877 -1.66656 -1.56327 0
M  V30 4081 C 381.087 -3.0277 1.73584 0
M  V30 4082 C 382.435 -3.76506 1.96286 0
M  V30 4083 O 383.459 -3.12668 1.70637 0
M  V30 4084 O 382.318 -4.91243 2.39464 0
M  V30 4085 H 379.412 -0.758271 0.330082 0
M  V30 4086 H 381.958 -1.1013 1.2911 0
M  V30 4087 H 380.73 -2.78299 2.75073 0
M  V30 4088 H 380.353 -3.74631 1.33183 0
M  V30 4089 N 381.35 -0.985608 -1.22978 0
M  V30 4090 C 382.575 -0.675254 -1.961 0
M  V30 4091 C 383 0.752154 -1.72407 0
M  V30 4092 O 382.358 1.5131 -0.998751 0
M  V30 4093 C 382.406 -0.977899 -3.47087 0
M  V30 4094 O 381.51 -0.072685 -4.12336 0
M  V30 4095 H 380.851 -0.253443 -0.613728 0
M  V30 4096 H 383.381 -1.32061 -1.56272 0
M  V30 4097 H 383.391 -0.916739 -3.97567 0
M  V30 4098 H 382.066 -2.01807 -3.63657 0
M  V30 4099 H 380.643 -0.188703 -3.72422 0
M  V30 4100 N 382.828 1.3818 -0.7579 0
M  V30 4101 C 384.074 2.0078 -0.325423 0
M  V30 4102 C 384.429 1.59085 1.08211 0
M  V30 4103 O 383.722 0.820394 1.73148 0
M  V30 4104 C 383.916 3.55252 -0.391218 0
M  V30 4105 C 383.745 4.11947 -1.8036 0
M  V30 4106 C 382.515 4.43519 -2.42113 0
M  V30 4107 C 384.713 4.33908 -2.76095 0
M  V30 4108 N 382.695 4.85847 -3.75267 0
M  V30 4109 C 384.066 4.78692 -3.94023 0
M  V30 4110 C 386.121 4.16015 -2.73561 0
M  V30 4111 C 384.824 5.07459 -5.09782 0
M  V30 4112 C 386.85 4.45909 -3.88483 0
M  V30 4113 C 386.212 4.90921 -5.0515 0
M  V30 4114 H 382.311 0.764215 -0.165831 0
M  V30 4115 H 384.895 1.67724 -0.988776 0
M  V30 4116 H 383.066 3.87646 0.241886 0
M  V30 4117 H 384.798 4.04653 0.061989 0
M  V30 4118 H 381.553 4.32113 -1.93842 0
M  V30 4119 H 381.977 5.11339 -4.4369 0
M  V30 4120 H 386.619 3.80399 -1.84544 0
M  V30 4121 H 384.337 5.4197 -5.99412 0
M  V30 4122 H 387.923 4.33666 -3.87847 0
M  V30 4123 H 386.803 5.1361 -5.92599 0
M  V30 4124 N 384.306 0.507319 1.49211 0
M  V30 4125 C 385.554 -0.0348839 2.0207 0
M  V30 4126 C 385.875 -1.36898 1.38866 0
M  V30 4127 O 385.145 -1.88133 0.546151 0
M  V30 4128 H 383.725 -0.0158812 0.746831 0
M  V30 4129 H 386.387 0.665998 1.83168 0
M  V30 4130 H 385.483 -0.159917 3.1169 0
M  V30 4131 N 385.784 -1.5574 0.241426 0
M  V30 4132 C 387.012 -2.03208 -0.389134 0
M  V30 4133 C 387.427 -1.12082 -1.51931 0
M  V30 4134 O 386.784 -0.134183 -1.82006 0
M  V30 4135 C 386.835 -3.50064 -0.902087 0
M  V30 4136 O 386.556 -4.37717 0.18305 0
M  V30 4137 C 388.057 -4.13268 -1.60389 0
M  V30 4138 H 385.277 -0.664509 -0.0931053 0
M  V30 4139 H 387.821 -2.0124 0.36369 0
M  V30 4140 H 385.976 -3.52583 -1.60511 0
M  V30 4141 H 386.39 -5.24097 -0.205579 0
M  V30 4142 H 387.864 -5.17733 -1.91458 0
M  V30 4143 H 388.341 -3.59434 -2.52397 0
M  V30 4144 H 388.947 -4.14655 -0.945576 0
M  V30 4145 N 387.262 0.0317525 -1.57568 0
M  V30 4146 C 388.673 0.578692 -1.77505 0
M  V30 4147 C 389.024 1.75749 -0.872164 0
M  V30 4148 O 388.149 2.16298 -0.0663106 0
M  V30 4149 C 388.744 1.05658 -3.21904 0
M  V30 4150 C 387.303 1.54906 -3.43047 0
M  V30 4151 C 386.45 0.485939 -2.73009 0
M  V30 4152 H 389.401 -0.194475 -1.57504 0
M  V30 4153 H 389.422 1.92404 -3.28269 0
M  V30 4154 H 388.934 0.198422 -3.87592 0
M  V30 4155 H 387.035 2.42915 -2.82529 0
M  V30 4156 H 387.148 1.59841 -4.5165 0
M  V30 4157 H 385.512 0.940354 -2.36705 0
M  V30 4158 H 386.295 -0.362709 -3.41379 0
M  V30 4159 N 388.74 1.54641 0.303973 0
M  V30 4160 C 389.987 1.7378 1.03955 0
M  V30 4161 C 390.315 0.521986 1.87365 0
M  V30 4162 O 389.57 -0.496099 1.89308 0
M  V30 4163 C 389.869 2.97753 1.97681 0
M  V30 4164 C 389.535 4.31671 1.30271 0
M  V30 4165 C 388.197 4.68075 1.11619 0
M  V30 4166 C 390.549 5.147 0.82055 0
M  V30 4167 C 387.877 5.8509 0.434304 0
M  V30 4168 C 390.229 6.32416 0.152395 0
M  V30 4169 C 388.893 6.67484 -0.0461067 0
M  V30 4170 H 388.163 0.635908 0.380398 0
M  V30 4171 H 390.81 1.88896 0.314718 0
M  V30 4172 H 389.115 2.77406 2.76682 0
M  V30 4173 H 390.812 3.09756 2.54661 0
M  V30 4174 H 387.402 4.03041 1.45795 0
M  V30 4175 H 391.586 4.87077 0.952374 0
M  V30 4176 H 386.842 6.10806 0.269495 0
M  V30 4177 H 391.016 6.96023 -0.229126 0
M  V30 4178 H 388.643 7.58011 -0.576494 0
M  V30 4179 N 390.218 -0.567019 1.47046 0
M  V30 4180 C 391.15 -1.68985 1.54844 0
M  V30 4181 C 392.163 -1.56869 0.435431 0
M  V30 4182 O 393.352 -1.64006 0.70457 0
M  V30 4183 C 390.452 -3.07373 1.42742 0
M  V30 4184 C 389.625 -3.45339 2.6844 0
M  V30 4185 C 388.684 -4.62849 2.50314 0
M  V30 4186 O 387.71 -4.67922 3.24095 0
M  V30 4187 N 388.912 -5.58726 1.57499 0
M  V30 4188 H 391.677 -1.62745 2.51663 0
M  V30 4189 H 389.238 -0.753411 1.43302 0
M  V30 4190 H 391.23 -3.83803 1.28365 0
M  V30 4191 H 389.8 -3.07893 0.540445 0
M  V30 4192 H 389.02 -2.58455 2.97648 0
M  V30 4193 H 390.308 -3.67476 3.51907 0
M  V30 4194 H 389.706 -5.57376 0.966876 0
M  V30 4195 H 388.263 -6.34523 1.49078 0
M  V30 4196 N 391.696 -1.35014 -0.812953 0
M  V30 4197 C 392.628 -1.23262 -1.93233 0
M  V30 4198 C 393.641 -0.157371 -1.62038 0
M  V30 4199 O 394.83 -0.410096 -1.73725 0
M  V30 4200 C 391.93 -0.87392 -3.27438 0
M  V30 4201 C 391.103 -2.04622 -3.86586 0
M  V30 4202 C 390.162 -1.66432 -4.99186 0
M  V30 4203 O 389.188 -2.38222 -5.16951 0
M  V30 4204 N 390.39 -0.584248 -5.77552 0
M  V30 4205 H 393.155 -2.19699 -2.03844 0
M  V30 4206 H 390.716 -1.281 -0.99005 0
M  V30 4207 H 392.708 -0.600039 -4.00227 0
M  V30 4208 H 391.278 0.00057392 -3.126 0
M  V30 4209 H 390.498 -2.48427 -3.06068 0
M  V30 4210 H 391.786 -2.82999 -4.22835 0
M  V30 4211 H 391.184 0.0123526 -5.65699 0
M  V30 4212 H 389.741 -0.37013 -6.50748 0
M  V30 4213 N 393.175 1.03435 -1.18907 0
M  V30 4214 C 394.105 2.13503 -0.945448 0
M  V30 4215 C 395.086 1.69682 0.119189 0
M  V30 4216 O 396.271 1.94169 -0.034707 0
M  V30 4217 C 393.401 3.44004 -0.477316 0
M  V30 4218 C 392.355 4.0148 -1.48316 0
M  V30 4219 C 391.681 5.27537 -0.872311 0
M  V30 4220 C 392.981 4.36921 -2.86177 0
M  V30 4221 H 394.675 2.34141 -1.86597 0
M  V30 4222 H 392.221 1.12523 -0.898584 0
M  V30 4223 H 394.174 4.20372 -0.294204 0
M  V30 4224 H 392.898 3.23072 0.478786 0
M  V30 4225 H 391.557 3.27201 -1.65332 0
M  V30 4226 H 391.205 5.02917 0.0911752 0
M  V30 4227 H 390.905 5.66954 -1.54393 0
M  V30 4228 H 392.429 6.06576 -0.699871 0
M  V30 4229 H 393.843 5.04248 -2.72776 0
M  V30 4230 H 392.24 4.87405 -3.50081 0
M  V30 4231 H 393.31 3.46466 -3.39248 0
M  V30 4232 N 394.653 0.992116 1.22453 0
M  V30 4233 C 395.6 0.541731 2.24352 0
M  V30 4234 C 396.57 -0.425519 1.60557 0
M  V30 4235 O 397.755 -0.330453 1.87917 0
M  V30 4236 C 394.895 -0.138248 3.44823 0
M  V30 4237 C 394.008 0.870649 4.23136 0
M  V30 4238 C 393.143 0.164269 5.30946 0
M  V30 4239 C 392.182 1.16159 6.00977 0
M  V30 4240 N 391.319 0.483568 7.00433 0
M  V30 4241 H 396.159 1.41541 2.62241 0
M  V30 4242 H 393.696 0.709013 1.28885 0
M  V30 4243 H 395.654 -0.5494 4.13567 0
M  V30 4244 H 394.284 -0.975721 3.077 0
M  V30 4245 H 393.336 1.40013 3.53696 0
M  V30 4246 H 394.648 1.63014 4.7141 0
M  V30 4247 H 393.802 -0.303653 6.0594 0
M  V30 4248 H 392.541 -0.627733 4.83643 0
M  V30 4249 H 391.546 1.64015 5.24766 0
M  V30 4250 H 392.771 1.95445 6.50368 0
M  V30 4251 H 390.717 -0.289012 6.55363 0
M  V30 4252 H 390.634 1.18152 7.4671 0
M  V30 4253 H 391.902 0.0384219 7.79491 0
M  V30 4254 N 396.131 -1.37776 0.765217 0
M  V30 4255 C 397.063 -2.28958 0.105361 0
M  V30 4256 C 398.076 -1.48316 -0.67128 0
M  V30 4257 O 399.265 -1.71046 -0.51045 0
M  V30 4258 C 396.365 -3.27421 -0.874569 0
M  V30 4259 C 395.538 -4.37132 -0.153123 0
M  V30 4260 C 394.597 -5.1571 -1.04547 0
M  V30 4261 O 393.623 -5.66896 -0.511672 0
M  V30 4262 N 394.825 -5.29808 -2.37243 0
M  V30 4263 H 397.59 -2.86227 0.888495 0
M  V30 4264 H 395.151 -1.49682 0.617 0
M  V30 4265 H 397.143 -3.7687 -1.47483 0
M  V30 4266 H 395.713 -2.70967 -1.55871 0
M  V30 4267 H 394.933 -3.89166 0.627975 0
M  V30 4268 H 396.221 -5.07625 0.345643 0
M  V30 4269 H 395.619 -4.89793 -2.83054 0
M  V30 4270 H 394.176 -5.82589 -2.9229 0
M  V30 4271 N 397.609 -0.515225 -1.4894 0
M  V30 4272 C 398.855 0.0242508 -2.02785 0
M  V30 4273 C 399.188 1.35323 -1.39289 0
M  V30 4274 O 398.463 1.87041 -0.533469 0
M  V30 4275 C 398.746 0.16184 -3.59736 0
M  V30 4276 C 398.599 -1.19127 -4.33738 0
M  V30 4277 C 399.918 0.895719 -4.30888 0
M  V30 4278 H 397.037 0.00733914 -0.736963 0
M  V30 4279 H 399.679 -0.669395 -1.77818 0
M  V30 4280 H 397.829 0.752624 -3.8114 0
M  V30 4281 H 399.501 -1.82202 -4.23792 0
M  V30 4282 H 397.744 -1.77695 -3.95736 0
M  V30 4283 H 398.415 -1.04815 -5.41957 0
M  V30 4284 H 400.891 0.394528 -4.14225 0
M  V30 4285 H 399.767 0.960859 -5.40425 0
M  V30 4286 H 400.028 1.9427 -3.97129 0
M  V30 4287 N 399.087 1.5561 -0.249682 0
M  V30 4288 C 400.333 1.99306 0.374841 0
M  V30 4289 C 400.666 1.13767 1.57387 0
M  V30 4290 O 399.941 0.201711 1.93451 0
M  V30 4291 C 400.224 3.51507 0.781986 0
M  V30 4292 C 400.077 4.4781 -0.422629 0
M  V30 4293 C 401.396 4.08884 1.62793 0
M  V30 4294 H 398.515 0.724572 0.134773 0
M  V30 4295 H 401.157 1.86719 -0.351549 0
M  V30 4296 H 399.307 3.62363 1.4009 0
M  V30 4297 H 400.979 4.48931 -1.06108 0
M  V30 4298 H 399.222 4.20518 -1.06524 0
M  V30 4299 H 399.893 5.51919 -0.0943766 0
M  V30 4300 H 402.369 4.01147 1.10547 0
M  V30 4301 H 401.245 5.1564 1.88166 0
M  V30 4302 H 401.506 3.57515 2.60068 0
M  V30 4303 N 400.565 -0.0233959 1.57583 0
M  V30 4304 C 401.475 -1.03907 2.10334 0
M  V30 4305 C 402.491 -1.39257 1.04323 0
M  V30 4306 O 403.667 -1.48462 1.36091 0
M  V30 4307 C 400.732 -2.31938 2.57693 0
M  V30 4308 C 399.793 -2.03117 3.78209 0
M  V30 4309 C 399.026 -3.25043 4.233 0
M  V30 4310 O 399.249 -4.35916 3.67876 0
M  V30 4311 O 398.183 -3.10411 5.15683 0
M  V30 4312 H 402.009 -0.620748 2.97288 0
M  V30 4313 H 399.594 -0.240743 1.47448 0
M  V30 4314 H 401.476 -3.07196 2.88458 0
M  V30 4315 H 400.151 -2.73055 1.73847 0
M  V30 4316 H 399.058 -1.25408 3.52454 0
M  V30 4317 H 400.391 -1.66852 4.63056 0
M  V30 4318 N 402.043 -1.548 -0.295768 0
M  V30 4319 C 402.953 -1.89177 -1.38742 0
M  V30 4320 C 403.969 -0.786481 -1.55211 0
M  V30 4321 O 405.145 -1.08344 -1.69775 0
M  V30 4322 C 402.21 -2.13663 -2.73036 0
M  V30 4323 C 401.271 -3.37349 -2.65508 0
M  V30 4324 C 400.504 -3.60658 -3.93398 0
M  V30 4325 O 400.727 -2.86882 -4.93006 0
M  V30 4326 O 399.661 -4.54179 -3.94975 0
M  V30 4327 H 403.487 -2.82059 -1.12589 0
M  V30 4328 H 401.072 -1.41056 -0.492295 0
M  V30 4329 H 402.954 -2.3094 -3.52484 0
M  V30 4330 H 401.629 -1.23967 -2.99022 0
M  V30 4331 H 400.536 -3.25431 -1.84514 0
M  V30 4332 H 401.869 -4.27192 -2.44474 0
M  V30 4333 N 403.521 0.559213 -1.47345 0
M  V30 4334 C 404.932 1.14134 -1.47751 0
M  V30 4335 C 405.283 1.94834 -0.231103 0
M  V30 4336 O 404.408 2.05957 0.664137 0
M  V30 4337 C 405.003 2.07653 -2.67705 0
M  V30 4338 C 403.562 2.61141 -2.71076 0
M  V30 4339 C 402.709 1.3748 -2.40821 0
M  V30 4340 H 405.66 0.345917 -1.54884 0
M  V30 4341 H 405.681 2.91497 -2.44561 0
M  V30 4342 H 405.193 1.4889 -3.58404 0
M  V30 4343 H 403.294 3.23707 -1.84511 0
M  V30 4344 H 403.407 3.02272 -3.7171 0
M  V30 4345 H 401.771 1.68086 -1.91362 0
M  V30 4346 H 402.554 0.805135 -3.33725 0
M  V30 4347 N 404.999 1.35443 0.805782 0
M  V30 4348 C 406.224 1.32037 1.59941 0
M  V30 4349 C 406.649 -0.0994215 1.87837 0
M  V30 4350 O 406.007 -1.06648 1.46615 0
M  V30 4351 C 406.055 2.13354 2.90711 0
M  V30 4352 O 405.159 1.5148 3.83572 0
M  V30 4353 H 404.5 0.452666 0.485787 0
M  V30 4354 H 407.03 1.78496 1.00002 0
M  V30 4355 H 407.04 2.25338 3.40128 0
M  V30 4356 H 405.715 3.16572 2.69732 0
M  V30 4357 H 404.292 1.4834 3.42125 0
M  V30 4358 N 406.477 -1.02803 1.19454 0
M  V30 4359 C 407.888 -1.57667 0.999899 0
M  V30 4360 C 408.239 -1.91041 -0.446956 0
M  V30 4361 O 407.364 -1.70978 -1.32648 0
M  V30 4362 C 407.959 -2.86477 1.80877 0
M  V30 4363 C 406.518 -3.37911 1.65811 0
M  V30 4364 C 405.665 -2.11343 1.79526 0
M  V30 4365 H 408.616 -0.853214 1.33813 0
M  V30 4366 H 408.637 -3.57408 1.30536 0
M  V30 4367 H 408.149 -2.62155 2.86175 0
M  V30 4368 H 406.25 -3.67218 0.63102 0
M  V30 4369 H 406.363 -4.10885 2.46395 0
M  V30 4370 H 404.727 -2.23254 1.22596 0
M  V30 4371 H 405.51 -1.89461 2.86285 0
M  V30 4372 N 407.956 -0.998596 -1.21925 0
M  V30 4373 C 408.888 -0.511879 -2.23411 0
M  V30 4374 C 409.901 0.396094 -1.57908 0
M  V30 4375 O 411.09 0.197316 -1.77406 0
M  V30 4376 C 408.19 0.276802 -3.37768 0
M  V30 4377 C 407.363 -0.628687 -4.32858 0
M  V30 4378 C 406.422 0.109272 -5.26087 0
M  V30 4379 O 405.448 -0.507237 -5.66935 0
M  V30 4380 N 406.65 1.38983 -5.63617 0
M  V30 4381 H 409.415 -1.38457 -2.658 0
M  V30 4382 H 406.976 -0.873981 -1.36283 0
M  V30 4383 H 408.968 0.77928 -3.97126 0
M  V30 4384 H 407.538 1.05063 -2.94415 0
M  V30 4385 H 406.758 -1.31175 -3.71735 0
M  V30 4386 H 408.046 -1.24514 -4.93329 0
M  V30 4387 H 407.444 1.91194 -5.32411 0
M  V30 4388 H 406.001 1.83739 -6.25367 0
M  V30 4389 N 409.434 1.37368 -0.772513 0
M  V30 4390 C 410.364 2.32856 -0.173304 0
M  V30 4391 C 411.345 1.55818 0.682262 0
M  V30 4392 O 412.53 1.84052 0.619566 0
M  V30 4393 C 409.66 3.40048 0.706007 0
M  V30 4394 C 408.614 4.27973 -0.0483144 0
M  V30 4395 C 407.94 5.26184 0.950491 0
M  V30 4396 C 409.24 5.07665 -1.22776 0
M  V30 4397 H 410.934 2.83217 -0.971002 0
M  V30 4398 H 408.48 1.3617 -0.468377 0
M  V30 4399 H 410.433 4.05827 1.13501 0
M  V30 4400 H 409.157 2.88214 1.53623 0
M  V30 4401 H 407.816 3.63726 -0.458107 0
M  V30 4402 H 407.464 4.7063 1.77529 0
M  V30 4403 H 407.164 5.85872 0.450314 0
M  V30 4404 H 408.688 5.94838 1.37842 0
M  V30 4405 H 410.102 5.66578 -0.875366 0
M  V30 4406 H 408.499 5.76681 -1.66007 0
M  V30 4407 H 409.569 4.40294 -2.03149 0
M  V30 4408 N 410.912 0.523116 1.48665 0
M  V30 4409 C 412.323 0.0808997 1.86525 0
M  V30 4410 C 412.674 -1.33975 1.43336 0
M  V30 4411 O 411.799 -2.00221 0.821009 0
M  V30 4412 C 412.394 0.140037 3.3851 0
M  V30 4413 C 410.953 -0.246948 3.75589 0
M  V30 4414 C 410.1 0.502845 2.72703 0
M  V30 4415 H 413.051 0.734736 1.40667 0
M  V30 4416 H 413.072 -0.649945 3.74908 0
M  V30 4417 H 412.584 1.17412 3.69914 0
M  V30 4418 H 410.685 -1.28343 3.49798 0
M  V30 4419 H 410.798 0.0878859 4.79019 0
M  V30 4420 H 409.162 -0.0500581 2.54651 0
M  V30 4421 H 409.945 1.53743 3.0695 0
M  V30 4422 N 412.39 -1.55475 0.257931 0
M  V30 4423 C 413.353 -2.20551 -0.623706 0
M  V30 4424 C 414.353 -1.17809 -1.09443 0
M  V30 4425 O 415.543 -1.42823 -0.997362 0
M  V30 4426 C 412.675 -2.85784 -1.8585 0
M  V30 4427 H 413.868 -2.99848 -0.0557743 0
M  V30 4428 H 411.421 -1.56298 0.0084422 0
M  V30 4429 H 412.156 -2.10453 -2.46739 0
M  V30 4430 H 411.941 -3.61057 -1.52907 0
M  V30 4431 H 413.431 -3.35553 -2.48584 0
M  V30 4432 N 413.868 0.0150385 -1.57593 0
M  V30 4433 C 415.145 0.7392 -1.81094 0
M  V30 4434 C 415.525 1.92817 -0.859344 0
M  V30 4435 O 414.873 2.28301 0.095362 0
M  V30 4436 C 415.083 1.15907 -3.29191 0
M  V30 4437 C 416.431 1.56918 -3.9454 0
M  V30 4438 O 417.455 1.25328 -3.33424 0
M  V30 4439 O 416.314 2.15604 -5.02173 0
M  V30 4440 H 413.408 0.358631 -0.745193 0
M  V30 4441 H 415.954 -0.00926156 -1.69697 0
M  V30 4442 H 414.726 0.310921 -3.90063 0
M  V30 4443 H 414.349 1.96711 -3.45529 0
M  V30 4444 N 415.346 1.54954 0.287554 0
M  V30 4445 C 416.293 1.86834 1.35505 0
M  V30 4446 C 417.263 0.718452 1.49758 0
M  V30 4447 O 418.448 0.968358 1.644 0
M  V30 4448 C 415.588 2.13303 2.71286 0
M  V30 4449 C 414.701 3.40883 2.65373 0
M  V30 4450 C 413.836 3.57125 3.93236 0
M  V30 4451 C 412.875 4.78449 3.81776 0
M  V30 4452 N 412.012 4.91426 5.01443 0
M  V30 4453 H 416.852 2.77889 1.07619 0
M  V30 4454 H 414.389 1.37593 0.520241 0
M  V30 4455 H 416.347 2.26646 3.50267 0
M  V30 4456 H 414.977 1.25499 2.97405 0
M  V30 4457 H 414.029 3.36088 1.78182 0
M  V30 4458 H 415.341 4.29993 2.52799 0
M  V30 4459 H 414.495 3.70207 4.80658 0
M  V30 4460 H 413.234 2.66173 4.0866 0
M  V30 4461 H 412.239 4.65386 2.92738 0
M  V30 4462 H 413.464 5.70822 3.67884 0
M  V30 4463 H 411.41 4.03401 5.17304 0
M  V30 4464 H 411.327 5.74559 4.91343 0
M  V30 4465 H 412.595 5.08879 5.90477 0
M  V30 4466 N 416.824 -0.551391 1.4764 0
M  V30 4467 C 418.071 -1.3083 1.54563 0
M  V30 4468 C 418.399 -1.93359 0.210361 0
M  V30 4469 O 417.654 -1.78721 -0.797332 0
M  V30 4470 C 417.953 -2.43469 2.61644 0
M  V30 4471 C 417.619 -1.98732 4.04742 0
M  V30 4472 C 416.281 -1.86248 4.43695 0
M  V30 4473 C 418.633 -1.64659 4.94507 0
M  V30 4474 C 415.961 -1.37995 5.70241 0
M  V30 4475 C 418.313 -1.17875 6.21521 0
M  V30 4476 C 416.977 -1.03992 6.5935 0
M  V30 4477 H 416.247 -0.478741 0.565587 0
M  V30 4478 H 418.894 -0.617697 1.81264 0
M  V30 4479 H 417.199 -3.18109 2.28722 0
M  V30 4480 H 418.896 -3.01642 2.64222 0
M  V30 4481 H 415.486 -2.09393 3.73968 0
M  V30 4482 H 419.67 -1.73174 4.65107 0
M  V30 4483 H 414.926 -1.25915 5.98294 0
M  V30 4484 H 419.1 -0.905739 6.90485 0
M  V30 4485 H 416.727 -0.663794 7.57296 0
M  V30 4486 N 418.302 -1.35869 -0.798587 0
M  V30 4487 C 419.527 -1.32883 -1.59238 0
M  V30 4488 C 419.952 0.0894587 -1.87887 0
M  V30 4489 O 419.31 1.05869 -1.47178 0
M  V30 4490 C 419.358 -2.14892 -2.89575 0
M  V30 4491 O 418.462 -1.53512 -3.82763 0
M  V30 4492 H 417.803 -0.455236 -0.48338 0
M  V30 4493 H 420.333 -1.79024 -0.990539 0
M  V30 4494 H 420.343 -2.27139 -3.38928 0
M  V30 4495 H 419.018 -3.17998 -2.68049 0
M  V30 4496 H 417.595 -1.50153 -3.41334 0
M  V30 4497 N 419.78 1.02168 -1.19998 0
M  V30 4498 C 420.743 2.08765 -0.94604 0
M  V30 4499 C 421.743 1.60618 0.0763846 0
M  V30 4500 O 422.933 1.73472 -0.159135 0
M  V30 4501 C 420.065 3.38262 -0.423255 0
M  V30 4502 H 421.258 2.32726 -1.89153 0
M  V30 4503 H 418.811 1.1889 -1.01464 0
M  V30 4504 H 419.546 3.19974 0.527938 0
M  V30 4505 H 419.331 3.74532 -1.16053 0
M  V30 4506 H 420.821 4.16759 -0.264911 0
M  V30 4507 N 421.258 1.00505 1.21394 0
M  V30 4508 C 422.168 0.574806 2.27449 0
M  V30 4509 C 423.184 -0.382206 1.6975 0
M  V30 4510 O 424.36 -0.246027 1.99892 0
M  V30 4511 C 421.425 -0.0917414 3.46579 0
M  V30 4512 C 420.486 0.909758 4.1955 0
M  V30 4513 C 419.719 0.274924 5.32991 0
M  V30 4514 O 419.942 -0.928254 5.62796 0
M  V30 4515 O 418.876 0.985877 5.93771 0
M  V30 4516 H 422.702 1.45744 2.66444 0
M  V30 4517 H 420.287 0.773923 1.27792 0
M  V30 4518 H 422.169 -0.464551 4.18832 0
M  V30 4519 H 420.844 -0.948755 3.09484 0
M  V30 4520 H 419.751 1.33372 3.49518 0
M  V30 4521 H 421.084 1.73636 4.60555 0
M  V30 4522 N 422.737 -1.36956 0.779787 0
M  V30 4523 C 423.984 -1.99491 0.347766 0
M  V30 4524 C 424.312 -1.61898 -1.07793 0
M  V30 4525 O 423.567 -0.86071 -1.75756 0
M  V30 4526 C 423.866 -3.54585 0.447686 0
M  V30 4527 C 423.532 -4.1197 1.83279 0
M  V30 4528 C 422.194 -4.27356 2.2118 0
M  V30 4529 C 424.546 -4.43354 2.74019 0
M  V30 4530 C 421.874 -4.71432 3.4924 0
M  V30 4531 C 424.226 -4.88858 4.01497 0
M  V30 4532 C 422.89 -5.0245 4.39432 0
M  V30 4533 H 422.16 -0.729991 0.127257 0
M  V30 4534 H 424.807 -1.63599 0.995376 0
M  V30 4535 H 423.112 -3.90773 -0.283447 0
M  V30 4536 H 424.809 -4.00888 0.0945948 0
M  V30 4537 H 421.399 -4.00428 1.52825 0
M  V30 4538 H 425.583 -4.31045 2.45995 0
M  V30 4539 H 420.839 -4.80141 3.78516 0
M  V30 4540 H 425.013 -5.12108 4.71931 0
M  V30 4541 H 422.64 -5.36362 5.38721 0
M  V30 4542 N 424.215 -0.530993 -1.48385 0
M  V30 4543 C 425.461 0.00274135 -2.028 0
M  V30 4544 C 425.794 1.33838 -1.40716 0
M  V30 4545 O 425.069 1.86465 -0.553277 0
M  V30 4546 C 425.352 0.123676 -3.59888 0
M  V30 4547 C 425.205 -1.2372 -4.3245 0
M  V30 4548 C 426.524 0.849967 -4.31814 0
M  V30 4549 H 423.643 -0.000477758 -0.737 0
M  V30 4550 H 426.285 -0.688217 -1.77098 0
M  V30 4551 H 424.435 0.712157 -3.81917 0
M  V30 4552 H 426.107 -1.86687 -4.21836 0
M  V30 4553 H 424.35 -1.81882 -3.93829 0
M  V30 4554 H 425.021 -1.10557 -5.40815 0
M  V30 4555 H 427.497 0.350572 -4.14621 0
M  V30 4556 H 426.373 0.903486 -5.41413 0
M  V30 4557 H 426.634 1.90047 -3.99167 0
M  V30 4558 N 425.693 1.55336 -0.266172 0
M  V30 4559 C 426.97 1.91372 0.404486 0
M  V30 4560 C 427.35 1.18935 1.74407 0
M  V30 4561 O 426.698 0.3132 2.26343 0
M  V30 4562 C 426.908 3.44581 0.553593 0
M  V30 4563 C 428.256 4.16196 0.840618 0
M  V30 4564 O 429.28 3.50426 0.638739 0
M  V30 4565 O 428.139 5.32567 1.22618 0
M  V30 4566 H 425.233 0.797194 0.220025 0
M  V30 4567 H 427.779 1.66813 -0.311664 0
M  V30 4568 H 426.551 3.89357 -0.389498 0
M  V30 4569 H 426.174 3.75065 1.31955 0
M  V30 4570 N 427.171 -0.0066808 1.57599 0
M  V30 4571 C 428.418 -0.69292 1.90276 0
M  V30 4572 C 428.746 -1.74148 0.866192 0
M  V30 4573 O 428.001 -1.95268 -0.129933 0
M  V30 4574 C 428.3 -1.37939 3.29708 0
M  V30 4575 C 427.966 -0.464679 4.48499 0
M  V30 4576 C 426.628 -0.212809 4.80729 0
M  V30 4577 C 428.98 0.16551 5.20937 0
M  V30 4578 C 426.308 0.677653 5.82773 0
M  V30 4579 C 428.66 1.04381 6.23929 0
M  V30 4580 C 427.324 1.30492 6.54621 0
M  V30 4581 H 426.594 -0.253558 0.696268 0
M  V30 4582 H 429.241 0.0474123 1.91441 0
M  V30 4583 H 427.546 -2.1936 3.24636 0
M  V30 4584 H 429.243 -1.9163 3.52249 0
M  V30 4585 H 425.833 -0.671153 4.23313 0
M  V30 4586 H 430.017 -0.0160756 4.96297 0
M  V30 4587 H 425.273 0.88803 6.04917 0
M  V30 4588 H 429.447 1.53851 6.79193 0
M  V30 4589 H 427.074 1.99662 7.33512 0
M  V30 4590 N 428.649 -1.55105 -0.279332 0
M  V30 4591 C 429.877 -1.7943 -1.03017 0
M  V30 4592 C 430.292 -0.564456 -1.80165 0
M  V30 4593 O 429.649 0.466326 -1.76442 0
M  V30 4594 C 429.7 -3.0155 -1.99374 0
M  V30 4595 O 429.421 -4.19784 -1.25352 0
M  V30 4596 C 430.922 -3.3843 -2.86321 0
M  V30 4597 H 428.142 -0.597882 -0.304594 0
M  V30 4598 H 430.686 -2.02105 -0.312035 0
M  V30 4599 H 428.841 -2.81019 -2.66659 0
M  V30 4600 H 429.255 -4.88781 -1.90246 0
M  V30 4601 H 430.729 -4.27066 -3.49741 0
M  V30 4602 H 431.206 -2.57549 -3.5576 0
M  V30 4603 H 431.812 -3.61197 -2.24536 0
M  V30 4604 N 430.127 0.543554 -1.4793 0
M  V30 4605 C 431.352 1.32995 -1.59145 0
M  V30 4606 C 431.777 1.86472 -0.246956 0
M  V30 4607 O 431.135 1.63696 0.779324 0
M  V30 4608 C 431.183 2.46623 -2.63077 0
M  V30 4609 O 430.287 3.49261 -2.19295 0
M  V30 4610 H 429.628 0.394472 -0.534124 0
M  V30 4611 H 432.158 0.655489 -1.93816 0
M  V30 4612 H 432.168 2.93001 -2.83926 0
M  V30 4613 H 430.843 2.07059 -3.60693 0
M  V30 4614 H 429.42 3.09094 -2.08603 0
M  V30 4615 N 431.605 1.3629 0.791371 0
M  V30 4616 C 432.537 1.26321 1.91248 0
M  V30 4617 C 433.55 0.18313 1.61767 0
M  V30 4618 O 434.739 0.437682 1.73051 0
M  V30 4619 C 431.839 0.925901 3.26007 0
M  V30 4620 C 431.012 2.10746 3.83281 0
M  V30 4621 C 430.071 1.74352 4.96475 0
M  V30 4622 O 429.097 2.46416 5.13096 0
M  V30 4623 N 430.299 0.676058 5.7655 0
M  V30 4624 H 433.064 2.22915 2.00323 0
M  V30 4625 H 430.625 1.29659 0.969546 0
M  V30 4626 H 432.617 0.663636 3.99222 0
M  V30 4627 H 431.187 0.0491581 3.12561 0
M  V30 4628 H 430.407 2.53264 3.02077 0
M  V30 4629 H 431.695 2.8969 4.18279 0
M  V30 4630 H 431.093 0.0776467 5.65647 0
M  V30 4631 H 429.65 0.473612 6.50077 0
M  V30 4632 N 433.083 -1.0153 1.20538 0
M  V30 4633 C 434.323 -1.76689 1.02763 0
M  V30 4634 C 434.687 -1.87065 -0.432513 0
M  V30 4635 O 435.888 -2.58684 -0.730481 0
M  V30 4636 C 434.159 -3.14707 1.69393 0
M  V30 4637 S 435.718 -4.05886 1.66738 0
M  V30 4638 H 432.536 -0.608076 0.368463 0
M  V30 4639 H 435.138 -1.21558 1.53114 0
M  V30 4640 H 433.842 -3.04782 2.74838 0
M  V30 4641 H 433.373 -3.74913 1.19179 0
M  V30 4642 H 435.388 -4.91221 0.70117 0
M  V30 4643 N 434.561 -1.01147 -1.20859 0
M  V30 4644 C 435.491 -0.597663 -2.25722 0
M  V30 4645 C 436.472 0.384744 -1.65692 0
M  V30 4646 O 437.657 0.271303 -1.92296 0
M  V30 4647 C 434.787 0.0700149 -3.47229 0
M  V30 4648 C 433.741 -0.832843 -4.19819 0
M  V30 4649 C 433.067 -0.0312202 -5.34691 0
M  V30 4650 C 434.367 -2.1385 -4.76514 0
M  V30 4651 H 436.061 -1.47423 -2.60589 0
M  V30 4652 H 433.607 -0.710301 -1.25263 0
M  V30 4653 H 435.56 0.37103 -4.19763 0
M  V30 4654 H 434.284 0.981259 -3.11511 0
M  V30 4655 H 432.943 -1.11778 -3.49144 0
M  V30 4656 H 432.591 0.881515 -4.95215 0
M  V30 4657 H 432.291 -0.632434 -5.84187 0
M  V30 4658 H 433.815 0.26346 -6.10031 0
M  V30 4659 H 435.229 -1.9002 -5.40893 0
M  V30 4660 H 433.626 -2.69012 -5.36426 0
M  V30 4661 H 434.696 -2.80495 -3.95538 0
M  V30 4662 N 436.039 1.36541 -0.78704 0
M  V30 4663 C 436.986 2.30082 -0.181901 0
M  V30 4664 C 437.956 1.5186 0.672896 0
M  V30 4665 O 439.141 1.80374 0.622072 0
M  V30 4666 C 436.281 3.3835 0.679197 0
M  V30 4667 C 435.394 4.31565 -0.193882 0
M  V30 4668 C 434.529 5.26915 0.673364 0
M  V30 4669 C 433.568 6.11769 -0.201315 0
M  V30 4670 N 432.705 6.99315 0.624777 0
M  V30 4671 H 437.545 2.81248 -0.985064 0
M  V30 4672 H 435.082 1.38437 -0.497342 0
M  V30 4673 H 437.04 3.99767 1.19341 0
M  V30 4674 H 435.67 2.8851 1.44781 0
M  V30 4675 H 434.722 3.71323 -0.826044 0
M  V30 4676 H 436.034 4.91191 -0.867937 0
M  V30 4677 H 435.188 5.9361 1.25348 0
M  V30 4678 H 433.927 4.67737 1.38105 0
M  V30 4679 H 432.932 5.44039 -0.793849 0
M  V30 4680 H 434.157 6.73022 -0.906568 0
M  V30 4681 H 432.103 6.42648 1.3168 0
M  V30 4682 H 432.02 7.56 0.00835237 0
M  V30 4683 H 433.288 7.70382 1.18879 0
M  V30 4684 N 437.518 0.538854 1.48102 0
M  V30 4685 C 438.465 -0.219042 2.29758 0
M  V30 4686 C 439.435 -0.925562 1.37922 0
M  V30 4687 O 440.62 -0.924855 1.66886 0
M  V30 4688 C 437.76 -1.25452 3.2149 0
M  V30 4689 C 436.873 -0.555943 4.28408 0
M  V30 4690 C 436.008 -1.57512 5.0731 0
M  V30 4691 C 435.047 -0.860498 6.06021 0
M  V30 4692 N 434.184 -1.82564 6.77949 0
M  V30 4693 H 439.024 0.483449 2.94052 0
M  V30 4694 H 436.561 0.250247 1.44956 0
M  V30 4695 H 438.519 -1.86727 3.7308 0
M  V30 4696 H 437.149 -1.92528 2.591 0
M  V30 4697 H 436.201 0.170938 3.80016 0
M  V30 4698 H 437.513 0.00474616 4.988 0
M  V30 4699 H 436.667 -2.26191 5.62959 0
M  V30 4700 H 435.406 -2.16972 4.36778 0
M  V30 4701 H 434.411 -0.159686 5.49568 0
M  V30 4702 H 435.636 -0.271897 6.78555 0
M  V30 4703 H 433.582 -2.40915 6.10161 0
M  V30 4704 H 433.499 -1.31662 7.44447 0
M  V30 4705 H 434.767 -2.50414 7.38182 0
M  V30 4706 N 438.996 -1.55193 0.274407 0
M  V30 4707 C 439.944 -2.23924 -0.629362 0
M  V30 4708 C 440.938 -1.23602 -1.1584 0
M  V30 4709 O 442.144 -1.41535 -1.11211 0
M  V30 4710 H 438.519 -0.718637 -0.221507 0
M  V30 4711 H 440.49 -2.98388 -0.0268322 0
M  V30 4712 C 439.239 -2.97329 -1.80252 0
M  V30 4713 H 438.562 -3.74313 -1.40462 0
M  V30 4714 H 440.002 -3.48743 -2.41152 0
M  V30 4715 C 438.461 -2.0276 -2.69054 0
M  V30 4716 O 438.991 -1.57836 -3.69392 0
M  V30 4717 N 437.197 -1.69275 -2.36208 0
M  V30 4718 H 436.744 -2.06004 -1.54661 0
M  V30 4719 H 436.702 -1.06271 -2.95895 0
M  V30 4720 N 440.474 -0.00167713 -1.576 0
M  V30 4721 C 441.699 0.69739 -1.95323 0
M  V30 4722 C 442.124 1.6642 -0.876706 0
M  V30 4723 O 441.482 1.80548 0.165007 0
M  V30 4724 C 441.53 1.40403 -3.32144 0
M  V30 4725 O 440.634 2.5185 -3.26566 0
M  V30 4726 H 439.975 0.185373 -0.637599 0
M  V30 4727 H 442.505 -0.0553665 -2.04525 0
M  V30 4728 H 442.515 1.76707 -3.67748 0
M  V30 4729 H 441.19 0.695167 -4.10049 0
M  V30 4730 H 439.767 2.17861 -3.0264 0
M  V30 4731 N 441.952 1.55251 0.271103 0
M  V30 4732 C 442.899 1.88261 1.33516 0
M  V30 4733 C 443.869 0.734296 1.48988 0
M  V30 4734 O 445.054 0.985741 1.63364 0
M  V30 4735 C 442.194 2.16168 2.69008 0
M  V30 4736 C 441.307 3.43678 2.61743 0
M  V30 4737 C 440.442 3.61276 3.89427 0
M  V30 4738 C 439.481 4.82472 3.7668 0
M  V30 4739 N 438.618 4.96717 4.96202 0
M  V30 4740 H 443.458 2.79015 1.04665 0
M  V30 4741 H 440.995 1.38137 0.505618 0
M  V30 4742 H 442.953 2.30349 3.47844 0
M  V30 4743 H 441.583 1.28646 2.96057 0
M  V30 4744 H 440.635 3.37959 1.74607 0
M  V30 4745 H 441.947 4.3265 2.48224 0
M  V30 4746 H 441.101 3.75284 4.76704 0
M  V30 4747 H 439.84 2.70492 4.05814 0
M  V30 4748 H 438.845 4.68465 2.87786 0
M  V30 4749 H 440.07 5.74692 3.61809 0
M  V30 4750 H 438.016 4.08865 5.12997 0
M  V30 4751 H 437.933 5.79738 4.85222 0
M  V30 4752 H 439.201 5.15113 5.85046 0
M  V30 4753 N 443.43 -0.535701 1.48216 0
M  V30 4754 C 444.34 -1.66785 1.64985 0
M  V30 4755 C 445.356 -1.65654 0.532414 0
M  V30 4756 O 446.532 -1.8471 0.80275 0
M  V30 4757 C 443.597 -3.0326 1.68031 0
M  V30 4758 C 442.658 -3.1529 2.9136 0
M  V30 4759 C 441.891 -4.45255 2.94252 0
M  V30 4760 O 442.114 -5.32011 2.05719 0
M  V30 4761 O 441.048 -4.6153 3.86359 0
M  V30 4762 H 444.874 -1.55576 2.60825 0
M  V30 4763 H 442.459 -0.70815 1.31551 0
M  V30 4764 H 444.341 -3.84436 1.72589 0
M  V30 4765 H 443.016 -3.14805 0.753628 0
M  V30 4766 H 441.923 -2.3343 2.92337 0
M  V30 4767 H 443.256 -3.08658 3.83394 0
M  V30 4768 N 444.908 -1.36708 -0.784132 0
M  V30 4769 C 446.324 -1.17237 -1.08294 0
M  V30 4770 C 446.524 -5.93947e-05 -2.015 0
M  V30 4771 O 445.58 0.663686 -2.43622 0
M  V30 4772 C 446.893 -2.48557 -1.69233 0
M  V30 4773 C 448.441 -2.54968 -1.8155 0
M  V30 4774 C 448.916 -3.86388 -2.45904 0
M  V30 4775 N 450.407 -3.87762 -2.53367 0
M  V30 4776 C 451.142 -4.86191 -3.03983 0
M  V30 4777 N 450.638 -5.95015 -3.54866 0
M  V30 4778 N 452.431 -4.73606 -3.02743 0
M  V30 4779 H 444.582 -2.11758 -0.16501 0
M  V30 4780 H 446.845 -0.93822 -0.135822 0
M  V30 4781 H 446.551 -3.34638 -1.08215 0
M  V30 4782 H 446.425 -2.64748 -2.68679 0
M  V30 4783 H 448.812 -1.69302 -2.41704 0
M  V30 4784 H 448.893 -2.42672 -0.80895 0
M  V30 4785 H 448.537 -4.72462 -1.86392 0
M  V30 4786 H 448.467 -3.95982 -3.4714 0
M  V30 4787 H 450.958 -3.09145 -2.17343 0
M  V30 4788 H 451.271 -6.66086 -3.91854 0
M  V30 4789 H 449.616 -5.98676 -3.53003 0
M  V30 4790 H 452.807 -3.87717 -2.62284 0
M  V30 4791 H 452.98 -5.50473 -3.41881 0
M  V30 4792 N 446.386 1.0089 -1.21074 0
M  V30 4793 C 447.797 1.56056 -1.02486 0
M  V30 4794 C 448.148 1.91728 0.416506 0
M  V30 4795 O 447.273 1.73066 1.29912 0
M  V30 4796 C 447.868 2.83563 -1.85411 0
M  V30 4797 C 446.427 3.3523 -1.71166 0
M  V30 4798 C 445.574 2.0846 -1.82865 0
M  V30 4799 H 448.525 0.831818 -1.35154 0
M  V30 4800 H 448.546 3.55286 -1.36205 0
M  V30 4801 H 448.058 2.57569 -2.9031 0
M  V30 4802 H 446.159 3.66167 -0.689361 0
M  V30 4803 H 446.272 4.06913 -2.52901 0
M  V30 4804 H 444.636 2.21275 -1.26132 0
M  V30 4805 H 445.419 1.84883 -2.89263 0
M  V30 4806 N 447.864 1.01787 1.20321 0
M  V30 4807 C 449.092 0.727194 1.937 0
M  V30 4808 C 449.507 -0.712305 1.74848 0
M  V30 4809 O 448.864 -1.48327 1.06327 0
M  V30 4810 C 448.915 1.05497 3.45764 0
M  V30 4811 O 448.636 2.43794 3.64 0
M  V30 4812 C 450.137 0.785534 4.36285 0
M  V30 4813 H 447.357 0.266939 0.615617 0
M  V30 4814 H 449.901 1.35939 1.52777 0
M  V30 4815 H 448.056 0.468158 3.84561 0
M  V30 4816 H 448.47 2.55656 4.57974 0
M  V30 4817 H 449.944 1.06495 5.4163 0
M  V30 4818 H 450.421 -0.280273 4.38305 0
M  V30 4819 H 451.027 1.35456 4.03152 0
M  V30 4820 N 449.342 -1.36122 0.79427 0
M  V30 4821 C 450.572 -2.03067 0.380437 0
M  V30 4822 C 450.98 -1.60018 -1.00949 0
M  V30 4823 O 450.323 -0.787425 -1.65968 0
M  V30 4824 C 450.385 -3.57587 0.37034 0
M  V30 4825 C 450.049 -4.23855 1.70867 0
M  V30 4826 C 451.046 -4.46404 2.66496 0
M  V30 4827 C 448.731 -4.61229 1.9893 0
M  V30 4828 C 450.725 -5.05412 3.88378 0
M  V30 4829 C 448.412 -5.19953 3.21079 0
M  V30 4830 C 449.41 -5.41985 4.15621 0
M  V30 4831 O 449.098 -5.99475 5.35616 0
M  V30 4832 H 448.83 -0.658168 0.154243 0
M  V30 4833 H 451.384 -1.7498 1.0757 0
M  V30 4834 H 449.614 -3.84814 -0.381444 0
M  V30 4835 H 451.303 -4.05895 -0.0194894 0
M  V30 4836 H 452.069 -4.17921 2.46103 0
M  V30 4837 H 447.948 -4.43402 1.26158 0
M  V30 4838 H 451.492 -5.22524 4.62185 0
M  V30 4839 H 447.389 -5.47862 3.41347 0
M  V30 4840 H 448.157 -6.17937 5.36745 0
M  V30 4841 N 450.82 -0.546701 -1.47814 0
M  V30 4842 C 452.231 -0.110564 -1.86372 0
M  V30 4843 C 452.582 1.31678 -1.45449 0
M  V30 4844 O 451.707 1.98889 -0.852758 0
M  V30 4845 C 452.302 -0.193873 -3.38245 0
M  V30 4846 C 450.861 0.187164 -3.75934 0
M  V30 4847 C 450.008 -0.546166 -2.71868 0
M  V30 4848 H 452.959 -0.757022 -1.39481 0
M  V30 4849 H 452.98 0.590218 -3.75895 0
M  V30 4850 H 452.492 -1.23282 -3.67999 0
M  V30 4851 H 450.593 1.22762 -3.51796 0
M  V30 4852 H 450.706 -0.164083 -4.78819 0
M  V30 4853 H 449.07 0.00953904 -2.54698 0
M  V30 4854 H 449.853 -1.58606 -3.04465 0
M  V30 4855 N 452.299 1.55045 -0.282633 0
M  V30 4856 C 453.209 2.26491 0.61147 0
M  V30 4857 C 454.225 1.29348 1.16384 0
M  V30 4858 O 455.401 1.62298 1.19253 0
M  V30 4859 C 452.466 2.97779 1.77563 0
M  V30 4860 C 451.527 4.10418 1.25919 0
M  V30 4861 C 450.76 4.78297 2.36786 0
M  V30 4862 O 450.983 4.45426 3.56303 0
M  V30 4863 O 449.917 5.66089 2.04517 0
M  V30 4864 H 453.743 3.03683 0.0324615 0
M  V30 4865 H 451.328 1.49317 -0.0497576 0
M  V30 4866 H 453.21 3.42554 2.45427 0
M  V30 4867 H 451.885 2.23498 2.34159 0
M  V30 4868 H 450.792 3.70082 0.546797 0
M  V30 4869 H 452.125 4.86622 0.738887 0
M  V30 4870 N 453.777 0.010035 1.57597 0
M  V30 4871 C 454.707 -0.976857 2.12084 0
M  V30 4872 C 455.688 -1.35191 1.03235 0
M  V30 4873 O 456.873 -1.43389 1.3097 0
M  V30 4874 C 454.003 -2.26548 2.63236 0
M  V30 4875 C 452.957 -2.03175 3.76701 0
M  V30 4876 C 452.283 -3.38138 4.14206 0
M  V30 4877 C 453.583 -1.38625 5.03568 0
M  V30 4878 H 455.277 -0.523145 2.94794 0
M  V30 4879 H 452.823 -0.250195 1.4181 0
M  V30 4880 H 454.776 -2.95952 2.99984 0
M  V30 4881 H 453.5 -2.74051 1.77661 0
M  V30 4882 H 452.159 -1.36195 3.40362 0
M  V30 4883 H 451.807 -3.83363 3.25641 0
M  V30 4884 H 451.507 -3.23312 4.90656 0
M  V30 4885 H 453.031 -4.08841 4.53521 0
M  V30 4886 H 454.445 -1.98 5.38023 0
M  V30 4887 H 452.842 -1.34256 5.84889 0
M  V30 4888 H 453.912 -0.356722 4.83586 0
M  V30 4889 N 455.255 -1.55392 -0.262866 0
M  V30 4890 C 456.188 -1.8391 -1.35101 0
M  V30 4891 C 457.166 -0.692901 -1.47097 0
M  V30 4892 O 458.35 -0.936979 -1.63563 0
M  V30 4893 C 455.477 -2.00969 -2.72634 0
M  V30 4894 C 454.523 -3.23559 -2.7787 0
M  V30 4895 S 455.356 -4.80647 -2.3609 0
M  V30 4896 C 456.512 -5.00692 -3.75578 0
M  V30 4897 H 456.745 -2.75918 -1.1071 0
M  V30 4898 H 454.278 -1.47294 -0.463029 0
M  V30 4899 H 456.236 -2.11482 -3.51832 0
M  V30 4900 H 454.897 -1.09832 -2.94272 0
M  V30 4901 H 454.09 -3.32413 -3.78837 0
M  V30 4902 H 453.692 -3.11689 -2.06702 0
M  V30 4903 H 455.984 -4.87055 -4.70939 0
M  V30 4904 H 456.927 -6.02717 -3.71669 0
M  V30 4905 H 457.335 -4.28619 -3.6735 0
M  V30 4906 N 456.733 0.527833 -1.48498 0
M  V30 4907 C 457.665 1.6482 -1.5927 0
M  V30 4908 C 458.678 1.55659 -0.476869 0
M  V30 4909 O 459.867 1.62081 -0.747806 0
M  V30 4910 C 456.967 3.0348 -1.50842 0
M  V30 4911 C 456.14 3.381 -2.77502 0
M  V30 4912 C 455.199 4.5605 -2.62497 0
M  V30 4913 O 454.225 4.59165 -3.36387 0
M  V30 4914 N 455.427 5.54353 -1.72257 0
M  V30 4915 H 458.192 1.56015 -2.55889 0
M  V30 4916 H 455.753 0.715152 -1.45249 0
M  V30 4917 H 457.745 3.80264 -1.38496 0
M  V30 4918 H 456.315 3.06352 -0.621887 0
M  V30 4919 H 455.535 2.50473 -3.04396 0
M  V30 4920 H 456.823 3.58017 -3.61527 0
M  V30 4921 H 456.221 5.54617 -1.11431 0
M  V30 4922 H 454.778 6.30347 -1.65849 0
M  V30 4923 N 458.211 1.37122 0.776871 0
M  V30 4924 C 459.161 1.28989 1.88005 0
M  V30 4925 C 460.145 0.178765 1.59904 0
M  V30 4926 O 461.337 0.412705 1.72121 0
M  V30 4927 C 458.466 1.09402 3.25402 0
M  V30 4928 C 457.552 2.25036 3.59471 0
M  V30 4929 N 457.943 3.50407 3.64759 0
M  V30 4930 C 456.241 2.17078 3.89607 0
M  V30 4931 C 456.942 4.26628 3.95428 0
M  V30 4932 N 455.918 3.55709 4.11062 0
M  V30 4933 H 459.72 2.2394 1.90337 0
M  V30 4934 H 457.234 1.30021 0.973052 0
M  V30 4935 H 459.231 1.01661 4.04315 0
M  V30 4936 H 457.891 0.153632 3.24336 0
M  V30 4937 H 458.902 3.8438 3.47091 0
M  V30 4938 H 455.579 1.31067 3.96393 0
M  V30 4939 H 456.969 5.35107 4.06338 0
M  V30 4940 N 459.689 -1.00246 1.21608 0
M  V30 4941 C 461.1 -1.55511 1.03312 0
M  V30 4942 C 461.451 -1.91946 -0.406332 0
M  V30 4943 O 460.576 -1.73753 -1.28992 0
M  V30 4944 C 461.171 -2.82576 1.86913 0
M  V30 4945 C 459.73 -3.34318 1.72941 0
M  V30 4946 C 458.877 -2.07487 1.83968 0
M  V30 4947 H 461.828 -0.824638 1.35593 0
M  V30 4948 H 461.849 -3.54559 1.38087 0
M  V30 4949 H 461.361 -2.56026 2.91672 0
M  V30 4950 H 459.462 -3.65797 0.70877 0
M  V30 4951 H 459.575 -4.05566 2.55055 0
M  V30 4952 H 457.939 -2.20603 1.27304 0
M  V30 4953 H 458.722 -1.83346 2.9024 0
M  V30 4954 N 461.167 -1.02423 -1.1978 0
M  V30 4955 C 462.414 -0.717988 -1.89344 0
M  V30 4956 C 462.742 0.753036 -1.79331 0
M  V30 4957 O 461.997 1.56355 -1.17692 0
M  V30 4958 C 462.296 -1.1088 -3.39765 0
M  V30 4959 C 461.962 -2.57731 -3.6998 0
M  V30 4960 C 460.624 -2.97854 -3.77937 0
M  V30 4961 C 462.976 -3.52763 -3.83677 0
M  V30 4962 C 460.304 -4.31931 -3.97054 0
M  V30 4963 C 462.656 -4.86538 -4.04306 0
M  V30 4964 C 461.32 -5.26356 -4.10494 0
M  V30 4965 H 460.59 -0.26273 -0.692859 0
M  V30 4966 H 463.237 -1.28623 -1.41875 0
M  V30 4967 H 461.542 -0.459094 -3.89101 0
M  V30 4968 H 463.239 -0.849432 -3.919 0
M  V30 4969 H 459.829 -2.25646 -3.64393 0
M  V30 4970 H 464.013 -3.2292 -3.76877 0
M  V30 4971 H 459.269 -4.62324 -4.00083 0
M  V30 4972 H 463.443 -5.60093 -4.13846 0
M  V30 4973 H 461.07 -6.3026 -4.2506 0
M  V30 4974 N 462.645 1.35699 -0.801477 0
M  V30 4975 C 463.892 1.98913 -0.379459 0
M  V30 4976 C 464.22 1.63592 1.05204 0
M  V30 4977 O 463.475 0.888563 1.74365 0
M  V30 4978 C 463.774 3.53828 -0.504041 0
M  V30 4979 C 463.44 4.09002 -1.8981 0
M  V30 4980 C 462.102 4.23783 -2.27951 0
M  V30 4981 C 464.454 4.38939 -2.81038 0
M  V30 4982 C 461.782 4.65816 -3.56696 0
M  V30 4983 C 464.134 4.82409 -4.09224 0
M  V30 4984 C 462.798 4.95395 -4.4737 0
M  V30 4985 H 462.068 0.727874 -0.138854 0
M  V30 4986 H 464.715 1.61994 -1.02128 0
M  V30 4987 H 463.02 3.91175 0.221242 0
M  V30 4988 H 464.717 4.00687 -0.158361 0
M  V30 4989 H 461.307 3.97946 -1.59176 0
M  V30 4990 H 465.491 4.27077 -2.52821 0
M  V30 4991 H 460.747 4.74059 -3.86106 0
M  V30 4992 H 464.921 5.04535 -4.80018 0
M  V30 4993 H 462.548 5.27724 -5.47185 0
M  V30 4994 N 464.123 0.554532 1.47522 0
M  V30 4995 C 465.351 0.034257 2.06872 0
M  V30 4996 C 465.766 -1.25826 1.40759 0
M  V30 4997 O 465.123 -1.75425 0.503217 0
M  V30 4998 C 465.174 -0.167827 3.6111 0
M  V30 4999 O 464.895 1.07351 4.24744 0
M  V30 5000 C 466.396 -0.72569 4.3732 0
M  V30 5001 H 463.616 0.0446275 0.669514 0
M  V30 5002 H 466.16 0.767181 1.89564 0
M  V30 5003 H 464.315 -0.850872 3.7794 0
M  V30 5004 H 464.729 0.869563 5.17242 0
M  V30 5005 H 466.203 -0.816394 5.45929 0
M  V30 5006 H 466.68 -1.73635 4.0342 0
M  V30 5007 H 467.286 -0.0784292 4.25228 0
M  V30 5008 N 465.601 -1.54893 0.290851 0
M  V30 5009 C 466.531 -2.26103 -0.583084 0
M  V30 5010 C 467.512 -1.25684 -1.14619 0
M  V30 5011 O 468.697 -1.54436 -1.17741 0
M  V30 5012 C 465.827 -2.99409 -1.75987 0
M  V30 5013 C 464.781 -4.0689 -1.32758 0
M  V30 5014 C 464.107 -4.67856 -2.58872 0
M  V30 5015 C 465.407 -5.20215 -0.46624 0
M  V30 5016 H 467.101 -2.99398 0.0108214 0
M  V30 5017 H 464.647 -1.43998 0.00664468 0
M  V30 5018 H 466.6 -3.47943 -2.37727 0
M  V30 5019 H 465.324 -2.23675 -2.37985 0
M  V30 5020 H 463.983 -3.59191 -0.733299 0
M  V30 5021 H 463.631 -3.88772 -3.19163 0
M  V30 5022 H 463.331 -5.40438 -2.30653 0
M  V30 5023 H 464.855 -5.19147 -3.21433 0
M  V30 5024 H 466.269 -5.64704 -0.989047 0
M  V30 5025 H 464.666 -5.99455 -0.27826 0
M  V30 5026 H 465.736 -4.82198 0.511173 0
M  V30 5027 N 467.08 -0.0183926 -1.57589 0
M  V30 5028 C 468.03 0.975944 -2.06057 0
M  V30 5029 C 469.014 1.29204 -0.958908 0
M  V30 5030 O 470.206 1.27995 -1.22255 0
M  V30 5031 C 467.335 2.26194 -2.58247 0
M  V30 5032 C 466.421 1.97467 -3.75323 0
M  V30 5033 N 466.812 1.38968 -4.86335 0
M  V30 5034 C 465.11 2.27515 -3.83605 0
M  V30 5035 C 465.811 1.27131 -5.67638 0
M  V30 5036 N 464.787 1.76319 -5.14211 0
M  V30 5037 H 468.589 0.518444 -2.89291 0
M  V30 5038 H 466.103 0.18688 -1.61321 0
M  V30 5039 H 468.1 2.98289 -2.91255 0
M  V30 5040 H 466.76 2.7258 -1.76438 0
M  V30 5041 H 467.771 1.06608 -5.06809 0
M  V30 5042 H 464.448 2.76649 -3.12684 0
M  V30 5043 H 465.838 0.819882 -6.66879 0
M  V30 5044 N 468.558 1.5553 0.254621 0
M  V30 5045 C 469.468 1.92789 1.33677 0
M  V30 5046 C 470.484 0.827356 1.53071 0
M  V30 5047 O 471.66 1.12807 1.66843 0
M  V30 5048 C 468.725 2.20827 2.67275 0
M  V30 5049 C 467.786 3.4427 2.5647 0
M  V30 5050 C 467.019 3.70961 3.83697 0
M  V30 5051 O 467.242 2.99852 4.85227 0
M  V30 5052 O 466.176 4.64491 3.82794 0
M  V30 5053 H 470.002 2.84945 1.05071 0
M  V30 5054 H 467.587 1.42312 0.454723 0
M  V30 5055 H 469.469 2.40204 3.46237 0
M  V30 5056 H 468.144 1.31851 2.9563 0
M  V30 5057 H 467.051 3.30209 1.75821 0
M  V30 5058 H 468.384 4.33524 2.33062 0
M  V30 5059 N 470.036 -0.519951 1.48776 0
M  V30 5060 C 471.261 -1.30447 1.6124 0
M  V30 5061 C 471.686 -1.86055 0.276591 0
M  V30 5062 O 471.044 -1.64915 -0.753183 0
M  V30 5063 C 471.092 -2.42406 2.66967 0
M  V30 5064 O 470.196 -3.45728 2.24824 0
M  V30 5065 H 469.537 -0.385924 0.540332 0
M  V30 5066 H 472.067 -0.624572 1.94834 0
M  V30 5067 H 472.077 -2.88447 2.88552 0
M  V30 5068 H 470.752 -2.01294 3.63941 0
M  V30 5069 H 469.329 -3.05737 2.13494 0
M  V30 5070 N 471.514 -1.37532 -0.769588 0
M  V30 5071 C 472.461 -1.3347 -1.88293 0
M  V30 5072 C 473.431 -0.199891 -1.64893 0
M  V30 5073 O 474.616 -0.389594 -1.8678 0
M  V30 5074 C 471.756 -1.14968 -3.25387 0
M  V30 5075 C 470.869 -2.37698 -3.60727 0
M  V30 5076 C 470.004 -2.12051 -4.8704 0
M  V30 5077 C 469.043 -3.30636 -5.15117 0
M  V30 5078 N 468.18 -3.04527 -6.3262 0
M  V30 5079 H 473.02 -2.28658 -1.911 0
M  V30 5080 H 470.557 -1.13622 -0.934257 0
M  V30 5081 H 472.515 -1.02261 -4.04473 0
M  V30 5082 H 471.145 -0.234263 -3.21949 0
M  V30 5083 H 470.197 -2.61137 -2.76608 0
M  V30 5084 H 471.509 -3.26131 -3.77413 0
M  V30 5085 H 470.663 -1.96388 -5.74035 0
M  V30 5086 H 469.402 -1.20959 -4.72462 0
M  V30 5087 H 468.407 -3.46836 -4.26597 0
M  V30 5088 H 469.632 -4.22582 -5.31603 0
M  V30 5089 H 467.578 -2.16067 -6.19396 0
M  V30 5090 H 467.495 -3.86503 -6.49732 0
M  V30 5091 H 468.763 -2.92485 -7.22546 0
M  V30 5092 N 472.992 0.995999 -1.22138 0
M  V30 5093 C 474.24 1.73167 -1.042 0
M  V30 5094 C 474.561 1.90329 0.42423 0
M  V30 5095 O 473.831 1.4607 1.30539 0
M  V30 5096 H 472.411 0.641593 -0.38258 0
M  V30 5097 H 475.073 1.19974 -1.53598 0
M  V30 5098 H 474.169 2.72734 -1.51731 0
M  V30 5099 N 474.47 1.03057 1.19235 0
M  V30 5100 C 475.698 0.747697 1.92917 0
M  V30 5101 C 476.113 -0.69372 1.75593 0
M  V30 5102 O 475.47 -1.47191 1.07894 0
M  V30 5103 C 475.521 1.09159 3.44625 0
M  V30 5104 O 475.242 2.47641 3.61394 0
M  V30 5105 C 476.743 0.831763 4.35427 0
M  V30 5106 H 473.963 0.273453 0.612751 0
M  V30 5107 H 476.507 1.37552 1.51327 0
M  V30 5108 H 474.662 0.508919 3.84043 0
M  V30 5109 H 475.076 2.60499 4.55237 0
M  V30 5110 H 476.55 1.12233 5.4047 0
M  V30 5111 H 477.027 -0.233769 4.38577 0
M  V30 5112 H 477.633 1.39725 4.01693 0
M  V30 5113 N 475.948 -1.35272 0.808662 0
M  V30 5114 C 477.225 -1.93077 0.313181 0
M  V30 5115 C 477.605 -1.73847 -1.19752 0
M  V30 5116 O 476.953 -1.1087 -1.998 0
M  V30 5117 C 477.163 -3.41347 0.726859 0
M  V30 5118 C 478.511 -4.18493 0.717532 0
M  V30 5119 O 479.535 -3.4987 0.668535 0
M  V30 5120 O 478.394 -5.40937 0.777779 0
M  V30 5121 H 475.488 -0.822885 0.0824018 0
M  V30 5122 H 478.034 -1.44335 0.892499 0
M  V30 5123 H 476.806 -3.49082 1.76797 0
M  V30 5124 H 476.429 -3.97411 0.122461 0
M  V30 5125 N 477.426 -0.562348 -1.47226 0
M  V30 5126 C 478.672 -0.0402761 -2.0276 0
M  V30 5127 C 479.005 1.30823 -1.43523 0
M  V30 5128 O 478.28 1.85249 -0.592705 0
M  V30 5129 C 478.563 0.047311 -3.60069 0
M  V30 5130 C 478.416 -1.32865 -4.29729 0
M  V30 5131 C 479.735 0.758182 -4.3352 0
M  V30 5132 H 476.854 -0.0161105 -0.736824 0
M  V30 5133 H 479.496 -0.725628 -1.75598 0
M  V30 5134 H 477.646 0.630986 -3.83342 0
M  V30 5135 H 479.318 -1.95593 -4.17781 0
M  V30 5136 H 477.561 -1.90195 -3.89882 0
M  V30 5137 H 478.232 -1.22004 -5.38349 0
M  V30 5138 H 480.708 0.262546 -4.15271 0
M  V30 5139 H 479.584 0.78844 -5.43208 0
M  V30 5140 H 479.845 1.81537 -4.03109 0
M  V30 5141 N 478.904 1.54736 -0.299062 0
M  V30 5142 C 479.867 2.22127 0.565012 0
M  V30 5143 C 480.867 1.20669 1.06281 0
M  V30 5144 O 482.057 1.45417 0.959145 0
M  V30 5145 C 479.189 2.90611 1.78208 0
M  V30 5146 H 480.382 2.99891 -0.0237448 0
M  V30 5147 H 477.935 1.5622 -0.0498788 0
M  V30 5148 H 478.67 2.16921 2.41072 0
M  V30 5149 H 478.455 3.64984 1.43281 0
M  V30 5150 H 479.945 3.42026 2.396 0
M  V30 5151 N 480.382 0.0267497 1.57577 0
M  V30 5152 C 481.607 -0.666227 1.96408 0
M  V30 5153 C 482.032 -1.65004 0.903071 0
M  V30 5154 O 481.39 -1.80787 -0.136263 0
M  V30 5155 C 481.438 -1.35101 3.34335 0
M  V30 5156 O 480.542 -2.46623 3.30531 0
M  V30 5157 H 479.883 -0.175206 0.640468 0
M  V30 5158 H 482.413 0.0878977 2.04411 0
M  V30 5159 H 482.423 -1.70834 3.70513 0
M  V30 5160 H 481.098 -0.629844 4.11103 0
M  V30 5161 H 479.675 -2.13019 3.06068 0
M  V30 5162 N 481.861 -1.55662 -0.24637 0
M  V30 5163 C 483.108 -1.77519 -0.974335 0
M  V30 5164 C 483.436 -0.591165 -1.85298 0
M  V30 5165 O 482.691 0.425497 -1.91018 0
M  V30 5166 C 482.99 -3.04885 -1.86494 0
M  V30 5167 C 482.656 -4.36209 -1.14161 0
M  V30 5168 C 481.318 -4.71896 -0.941701 0
M  V30 5169 C 483.67 -5.17391 -0.628957 0
M  V30 5170 C 480.998 -5.86299 -0.216852 0
M  V30 5171 C 483.35 -6.32546 0.0824273 0
M  V30 5172 C 482.014 -6.66853 0.293807 0
M  V30 5173 H 481.284 -0.649588 -0.356535 0
M  V30 5174 H 483.931 -1.89934 -0.244394 0
M  V30 5175 H 482.236 -2.87484 -2.66196 0
M  V30 5176 H 483.933 -3.18994 -2.42989 0
M  V30 5177 H 480.523 -4.08174 -1.30736 0
M  V30 5178 H 484.707 -4.90276 -0.770943 0
M  V30 5179 H 479.963 -6.11385 -0.0426124 0
M  V30 5180 H 484.137 -6.94693 0.487292 0
M  V30 5181 H 481.764 -7.55349 0.857428 0
M  V30 5182 N 483.339 0.512053 -1.4905 0
M  V30 5183 C 484.585 1.26874 -1.58212 0
M  V30 5184 C 484.918 1.9241 -0.263073 0
M  V30 5185 O 484.193 1.80181 0.732476 0
M  V30 5186 C 484.476 2.34428 -2.73341 0
M  V30 5187 C 484.329 1.73466 -4.15006 0
M  V30 5188 C 485.648 3.36073 -2.84154 0
M  V30 5189 H 482.767 0.459924 -0.575881 0
M  V30 5190 H 485.409 0.568587 -1.81293 0
M  V30 5191 H 483.559 2.94146 -2.53792 0
M  V30 5192 H 485.231 1.17661 -4.46042 0
M  V30 5193 H 483.474 1.03921 -4.21168 0
M  V30 5194 H 484.145 2.51426 -4.91415 0
M  V30 5195 H 486.621 2.86332 -3.01916 0
M  V30 5196 H 485.497 4.08703 -3.66406 0
M  V30 5197 H 485.758 3.97725 -1.93048 0
M  V30 5198 N 484.817 1.37938 0.762283 0
M  V30 5199 C 485.764 1.34467 1.87583 0
M  V30 5200 C 486.734 0.208633 1.64785 0
M  V30 5201 O 487.919 0.399494 1.86571 0
M  V30 5202 C 485.059 1.16692 3.24772 0
M  V30 5203 C 484.172 2.39608 3.59461 0
M  V30 5204 C 483.307 2.14631 4.85908 0
M  V30 5205 C 482.346 3.33364 5.13357 0
M  V30 5206 N 481.483 3.07877 6.30996 0
M  V30 5207 H 486.323 2.29669 1.89885 0
M  V30 5208 H 483.86 1.14116 0.928219 0
M  V30 5209 H 485.818 1.04405 4.03925 0
M  V30 5210 H 484.448 0.251333 3.2182 0
M  V30 5211 H 483.5 2.626 2.75219 0
M  V30 5212 H 484.812 3.28128 3.75678 0
M  V30 5213 H 483.966 1.99429 5.72986 0
M  V30 5214 H 482.705 1.23463 4.71814 0
M  V30 5215 H 481.71 3.49094 4.24751 0
M  V30 5216 H 482.935 4.25395 5.29354 0
M  V30 5217 H 480.881 2.19348 6.18241 0
M  V30 5218 H 480.798 3.89944 6.47673 0
M  V30 5219 H 482.066 2.96313 7.20985 0
M  V30 5220 N 486.295 -0.989507 1.22664 0
M  V30 5221 C 487.225 -2.09847 1.02404 0
M  V30 5222 C 488.206 -1.70007 -0.0561303 0
M  V30 5223 O 489.391 -1.93906 0.106748 0
M  V30 5224 C 486.521 -3.41996 0.604663 0
M  V30 5225 C 485.475 -3.95699 1.63115 0
M  V30 5226 C 484.801 -5.23936 1.0675 0
M  V30 5227 C 486.101 -4.25999 3.02196 0
M  V30 5228 H 487.795 -2.27054 1.95158 0
M  V30 5229 H 485.341 -1.09111 0.939727 0
M  V30 5230 H 487.294 -4.1899 0.45002 0
M  V30 5231 H 486.018 -3.24626 -0.35855 0
M  V30 5232 H 484.677 -3.2084 1.77362 0
M  V30 5233 H 484.325 -5.02909 0.0955422 0
M  V30 5234 H 484.025 -5.60833 1.75328 0
M  V30 5235 H 485.549 -6.0356 0.924516 0
M  V30 5236 H 486.963 -4.93777 2.91303 0
M  V30 5237 H 485.36 -4.74076 3.67929 0
M  V30 5238 H 486.43 -3.33636 3.51873 0
M  V30 5239 N 487.773 -1.03688 -1.18687 0
M  V30 5240 C 489.022 -0.733235 -1.879 0
M  V30 5241 C 489.335 0.741745 -1.8099 0
M  V30 5242 O 490.541 1.15875 -2.4553 0
M  V30 5243 C 488.997 -1.26127 -3.37076 0
M  V30 5244 C 488.605 -2.76461 -3.52524 0
M  V30 5245 C 490.349 -1.03398 -4.11715 0
M  V30 5246 C 488.256 -3.22642 -4.95637 0
M  V30 5247 H 487.186 -0.270584 -0.703776 0
M  V30 5248 H 489.837 -1.25222 -1.34133 0
M  V30 5249 H 488.219 -0.670165 -3.90288 0
M  V30 5250 H 489.393 -3.41296 -3.09602 0
M  V30 5251 H 487.708 -2.97559 -2.91286 0
M  V30 5252 H 490.305 -1.3542 -5.17267 0
M  V30 5253 H 490.648 0.0289246 -4.1629 0
M  V30 5254 H 491.181 -1.5895 -3.64664 0
M  V30 5255 H 487.92 -4.28296 -4.96228 0
M  V30 5256 H 487.44 -2.62539 -5.39289 0
M  V30 5257 H 489.119 -3.16444 -5.64333 0
M  V30 5258 N 489.251 1.34841 -0.815825 0
M  V30 5259 C 490.181 2.32187 -0.247298 0
M  V30 5260 C 491.162 1.5791 0.632344 0
M  V30 5261 O 492.347 1.8593 0.560698 0
M  V30 5262 C 489.477 3.42122 0.597466 0
M  V30 5263 C 488.431 4.27602 -0.184446 0
M  V30 5264 C 487.757 5.28942 0.782609 0
M  V30 5265 C 489.057 5.03502 -1.38865 0
M  V30 5266 H 490.751 2.79985 -1.06061 0
M  V30 5267 H 488.297 1.34611 -0.511461 0
M  V30 5268 H 490.25 4.09232 1.00533 0
M  V30 5269 H 488.974 2.92956 1.44376 0
M  V30 5270 H 487.633 3.62085 -0.573592 0
M  V30 5271 H 487.281 4.7604 1.62466 0
M  V30 5272 H 486.981 5.87008 0.263695 0
M  V30 5273 H 488.505 5.98922 1.18848 0
M  V30 5274 H 489.919 5.63506 -1.05518 0
M  V30 5275 H 488.316 5.71108 -1.8427 0
M  V30 5276 H 489.386 4.33608 -2.17054 0
M  V30 5277 N 490.729 0.570148 1.46925 0
M  V30 5278 C 491.977 0.0508523 2.02036 0
M  V30 5279 C 492.298 -1.30885 1.44548 0
M  V30 5280 O 491.568 -1.85647 0.625453 0
M  V30 5281 H 490.148 0.0158088 0.746833 0
M  V30 5282 H 492.81 0.743086 1.80178 0
M  V30 5283 H 491.906 -0.027575 3.12088 0
M  V30 5284 N 492.207 -1.54576 0.307264 0
M  V30 5285 C 493.484 -1.92377 -0.353605 0
M  V30 5286 C 493.864 -1.23517 -1.71192 0
M  V30 5287 O 493.212 -0.373101 -2.25433 0
M  V30 5288 C 493.422 -3.45928 -0.462039 0
M  V30 5289 C 494.77 -4.18278 -0.729975 0
M  V30 5290 O 495.794 -3.51997 -0.545605 0
M  V30 5291 O 494.653 -5.3563 -1.08454 0
M  V30 5292 H 491.747 -0.802747 -0.198812 0
M  V30 5293 H 494.293 -1.65929 0.355783 0
M  V30 5294 H 493.065 -3.88187 0.492592 0
M  V30 5295 H 492.688 -3.78431 -1.21965 0
M  V30 5296 O 493.724 -0.174109 -1.60559 0
M  V30 5297 H 494.415 0.415114 -1.892 0
M  V30 END ATOM
M  V30 BEGIN BOND
M  V30 END BOND
M  V30 END CTAB
M  END
$$$$
