drugbank_target|Q9Y6R4 Mitogen-activated protein kinase kinase kinase 4 (DB12010)
 OpenBabel12092121163D

  0  0  0     0  0            999 V3000
M  V30 BEGIN CTAB
M  V30 COUNTS 25407 25683 0 0 0
M  V30 BEGIN ATOM
M  V30 1 H -0.908 1.98254 -0.117106 0
M  V30 2 N 0 1.576 0 0
M  V30 3 C 0.933 2.03868 1.02534 0
M  V30 4 C 1.911 0.928543 1.3348 0
M  V30 5 O 3.095 1.19667 1.45644 0
M  V30 6 C 0.222 2.43627 2.35294 0
M  V30 7 C -0.732 3.65373 2.2001 0
M  V30 8 S 0.101 5.13292 1.52614 0
M  V30 9 C 1.257 5.56322 2.86805 0
M  V30 10 H 1.49 2.90518 0.631377 0
M  V30 11 H -0.977 1.52953 0.210867 0
M  V30 12 H 0.981 2.67203 3.11629 0
M  V30 13 H -0.358 1.57376 2.7183 0
M  V30 14 H -1.165 3.90944 3.18086 0
M  V30 15 H -1.563 3.418 1.51819 0
M  V30 16 H 0.729 5.58782 3.83104 0
M  V30 17 H 1.672 6.56266 2.65933 0
M  V30 18 H 2.08 4.83886 2.90714 0
M  V30 19 N 1.4781 -0.272755 1.55222 0
M  V30 20 C 2.8941 -0.619959 1.47067 0
M  V30 21 C 3.0941 -1.895 0.684978 0
M  V30 22 O 2.1501 -2.51675 0.203931 0
M  V30 23 C 3.4631 -0.746693 2.91282 0
M  V30 24 C 5.0111 -0.840731 3.01497 0
M  V30 25 C 5.4861 -0.99924 4.46967 0
M  V30 26 N 6.9771 -1.06476 4.50796 0
M  V30 27 C 7.7121 -1.20621 5.6057 0
M  V30 28 N 7.2081 -1.31483 6.80209 0
M  V30 29 N 9.0011 -1.23733 5.48312 0
M  V30 30 H 1.1521 0.564606 2.04758 0
M  V30 31 H 3.4151 0.191177 0.928523 0
M  V30 32 H 3.1211 0.119753 3.51496 0
M  V30 33 H 2.9951 -1.6269 3.40311 0
M  V30 34 H 5.3821 -1.69764 2.41379 0
M  V30 35 H 5.4631 0.0640874 2.5572 0
M  V30 36 H 5.1071 -0.146984 5.07687 0
M  V30 37 H 5.0371 -1.91871 4.90401 0
M  V30 38 H 7.5281 -0.993196 3.64615 0
M  V30 39 H 7.8411 -1.42111 7.59621 0
M  V30 40 H 6.1861 -1.28487 6.8302 0
M  V30 41 H 9.3771 -1.14877 4.53785 0
M  V30 42 H 9.5501 -1.34412 6.33906 0
M  V30 43 N 2.9562 -1.48159 -0.537278 0
M  V30 44 C 3.8662 -1.64807 -1.6696 0
M  V30 45 C 4.8822 -0.530651 -1.65711 0
M  V30 46 O 6.0582 -0.800784 -1.84796 0
M  V30 47 C 3.1232 -1.67708 -3.03438 0
M  V30 48 C 2.1842 -2.91025 -3.156 0
M  V30 49 C 1.4172 -2.93778 -4.45567 0
M  V30 50 O 1.6402 -2.05153 -5.3223 0
M  V30 51 O 0.5742 -3.85868 -4.61941 0
M  V30 52 H 4.4002 -2.6066 -1.55853 0
M  V30 53 H 1.9852 -1.31475 -0.709549 0
M  V30 54 H 3.8672 -1.7218 -3.84619 0
M  V30 55 H 2.5422 -0.750278 -3.14885 0
M  V30 56 H 1.4492 -2.92089 -2.33741 0
M  V30 57 H 2.7822 -3.83065 -3.09066 0
M  V30 58 N 4.4343 0.785586 -1.36625 0
M  V30 59 C 5.3973 1.87999 -1.31107 0
M  V30 60 C 6.3973 1.59316 -0.217959 0
M  V30 61 O 7.5873 1.67656 -0.472977 0
M  V30 62 C 4.7193 3.24861 -1.03334 0
M  V30 63 H 5.9123 1.94307 -2.2844 0
M  V30 64 H 3.4653 0.983813 -1.21453 0
M  V30 65 H 4.2003 3.24235 -0.0647432 0
M  V30 66 H 3.9853 3.4707 -1.82441 0
M  V30 67 H 5.4753 4.04929 -1.02088 0
M  V30 68 N 5.9124 1.20967 1.01018 0
M  V30 69 C 6.8754 0.965918 2.07853 0
M  V30 70 C 7.8754 -0.0610545 1.60684 0
M  V30 71 O 9.0654 0.175681 1.73312 0
M  V30 72 C 6.1974 0.455513 3.37843 0
M  V30 73 H 7.3904 1.91365 2.3091 0
M  V30 74 H 4.9434 1.02594 1.17916 0
M  V30 75 H 5.6784 -0.497381 3.20463 0
M  V30 76 H 5.4634 1.19622 3.73407 0
M  V30 77 H 6.9534 0.304667 4.16487 0
M  V30 78 N 7.3905 -1.2043 1.01659 0
M  V30 79 C 8.3535 -2.21433 0.591616 0
M  V30 80 C 9.3535 -1.57203 -0.338226 0
M  V30 81 O 10.5435 -1.73737 -0.126918 0
M  V30 82 C 7.6755 -3.40628 -0.136058 0
M  V30 83 H 8.8685 -2.60545 1.48514 0
M  V30 84 H 6.4215 -1.33893 0.806379 0
M  V30 85 H 7.1565 -3.07019 -1.04449 0
M  V30 86 H 6.9415 -3.88475 0.531917 0
M  V30 87 H 8.4315 -4.15475 -0.420735 0
M  V30 88 N 8.8686 -0.792821 -1.36206 0
M  V30 89 C 9.8316 -0.199459 -2.2833 0
M  V30 90 C 10.8316 0.605189 -1.48977 0
M  V30 91 O 12.0216 0.425685 -1.68919 0
M  V30 92 C 9.1536 0.723523 -3.33134 0
M  V30 93 H 10.3466 -1.01181 -2.82316 0
M  V30 94 H 7.8996 -0.562485 -1.45828 0
M  V30 95 H 8.6346 1.56008 -2.84309 0
M  V30 96 H 8.4196 0.148436 -3.91819 0
M  V30 97 H 9.9096 1.13344 -4.01924 0
M  V30 98 N 10.3467 1.47872 -0.545128 0
M  V30 99 C 11.2767 2.32661 0.197793 0
M  V30 100 C 12.2577 1.43041 0.920504 0
M  V30 101 O 13.4427 1.71912 0.90333 0
M  V30 102 C 10.5727 3.24569 1.23582 0
M  V30 103 C 9.5267 4.23333 0.630323 0
M  V30 104 C 8.8527 5.0448 1.77211 0
M  V30 105 C 10.1527 5.20704 -0.407974 0
M  V30 106 H 11.8467 2.95024 -0.510045 0
M  V30 107 H 9.3927 1.4187 -0.246731 0
M  V30 108 H 11.3457 3.8272 1.76362 0
M  V30 109 H 10.0697 2.60236 1.97344 0
M  V30 110 H 8.7287 3.6639 0.123922 0
M  V30 111 H 8.3767 4.36561 2.49847 0
M  V30 112 H 8.0767 5.71339 1.37281 0
M  V30 113 H 9.6007 5.65487 2.3034 0
M  V30 114 H 11.0147 5.7329 0.033305 0
M  V30 115 H 9.4117 5.95699 -0.725486 0
M  V30 116 H 10.4817 4.66917 -1.30828 0
M  V30 117 N 11.8248 0.280983 1.55075 0
M  V30 118 C 13.0708 -0.33461 2.00021 0
M  V30 119 C 13.4038 -1.55063 1.16915 0
M  V30 120 O 12.6788 -1.93006 0.240646 0
M  V30 121 C 12.9618 -0.711007 3.53011 0
M  V30 122 C 12.8148 0.512766 4.46868 0
M  V30 123 C 14.1338 -1.54522 4.12081 0
M  V30 124 H 11.2528 -0.120147 0.727141 0
M  V30 125 H 13.8948 0.389097 1.85973 0
M  V30 126 H 12.0448 -1.32761 3.65112 0
M  V30 127 H 13.7168 1.15131 4.46702 0
M  V30 128 H 11.9598 1.14975 4.18286 0
M  V30 129 H 12.6308 0.205556 5.51617 0
M  V30 130 H 15.1068 -1.02442 4.03293 0
M  V30 131 H 13.9828 -1.77739 5.19327 0
M  V30 132 H 14.2438 -2.52813 3.62682 0
M  V30 133 N 13.3029 -1.57598 0.00835791 0
M  V30 134 C 14.7139 -1.7892 -0.53333 0
M  V30 135 C 15.0649 -0.916609 -1.73473 0
M  V30 136 O 14.1899 -0.121336 -2.1606 0
M  V30 137 C 14.7849 -3.24488 -0.974313 0
M  V30 138 C 13.3439 -3.46878 -1.46125 0
M  V30 139 C 12.4909 -2.74157 -0.416302 0
M  V30 140 H 15.4419 -1.56958 0.234495 0
M  V30 141 H 15.4629 -3.3306 -1.83988 0
M  V30 142 H 14.9749 -3.87972 -0.099718 0
M  V30 143 H 13.0759 -2.8862 -2.35646 0
M  V30 144 H 13.1889 -4.55572 -1.48295 0
M  V30 145 H 11.5529 -2.39022 -0.87981 0
M  V30 146 H 12.3359 -3.40345 0.44947 0
M  V30 147 N 14.781 0.264519 -1.55364 0
M  V30 148 C 16.192 0.834936 -1.6699 0
M  V30 149 C 16.543 1.86718 -0.602552 0
M  V30 150 O 15.668 2.14899 0.254425 0
M  V30 151 C 16.263 1.5212 -3.02729 0
M  V30 152 C 14.822 2.03954 -3.16354 0
M  V30 153 C 13.969 0.884498 -2.62815 0
M  V30 154 H 16.92 0.0406869 -1.58648 0
M  V30 155 H 16.941 2.38853 -2.96191 0
M  V30 156 H 16.453 0.769668 -3.80392 0
M  V30 157 H 14.554 2.82041 -2.43482 0
M  V30 158 H 14.667 2.24902 -4.23032 0
M  V30 159 H 13.031 1.2802 -2.20188 0
M  V30 160 H 13.814 0.14634 -3.42988 0
M  V30 161 N 16.2591 1.48442 0.529413 0
M  V30 162 C 17.6701 1.5002 1.11134 0
M  V30 163 C 18.0211 0.27031 1.94329 0
M  V30 164 O 17.1461 -0.622507 2.07253 0
M  V30 165 C 17.7411 2.71834 2.02217 0
M  V30 166 C 16.3001 2.76283 2.55627 0
M  V30 167 C 15.4471 2.43542 1.326 0
M  V30 168 H 18.3981 1.5555 0.314641 0
M  V30 169 H 18.4191 2.50384 2.8651 0
M  V30 170 H 17.9311 3.61331 1.41639 0
M  V30 171 H 16.0321 1.90995 3.19924 0
M  V30 172 H 16.1451 3.77725 2.94721 0
M  V30 173 H 14.5091 1.94709 1.64196 0
M  V30 174 H 15.2921 3.3528 0.737734 0
M  V30 175 N 17.7372 -0.778329 1.37039 0
M  V30 176 C 18.7002 -1.87301 1.32102 0
M  V30 177 C 19.7002 -1.59198 0.226405 0
M  V30 178 O 20.8902 -1.67403 0.481861 0
M  V30 179 C 18.0222 -3.24309 1.05055 0
M  V30 180 H 19.2152 -1.93093 2.29467 0
M  V30 181 H 16.7682 -0.977358 1.21973 0
M  V30 182 H 17.5032 -3.24196 0.0819373 0
M  V30 183 H 17.2882 -3.46098 1.84279 0
M  V30 184 H 18.7782 -4.04382 1.04234 0
M  V30 185 N 19.2153 -1.21501 -1.00376 0
M  V30 186 C 20.4623 -1.03299 -1.74171 0
M  V30 187 C 20.7903 0.433326 -1.89612 0
M  V30 188 O 20.0453 1.33779 -1.42834 0
M  V30 189 C 20.3443 -1.67673 -3.15627 0
M  V30 190 C 20.0103 -3.17533 -3.2013 0
M  V30 191 C 18.6723 -3.58427 -3.21067 0
M  V30 192 C 21.0243 -4.13504 -3.17275 0
M  V30 193 C 18.3523 -4.93794 -3.16835 0
M  V30 194 C 20.7043 -5.48834 -3.14585 0
M  V30 195 C 19.3683 -5.89123 -3.13831 0
M  V30 196 H 18.6383 -0.377999 -0.637336 0
M  V30 197 H 21.2853 -1.51111 -1.17634 0
M  V30 198 H 19.5903 -1.12158 -3.75404 0
M  V30 199 H 21.2873 -1.51091 -3.71446 0
M  V30 200 H 17.8773 -2.84965 -3.20145 0
M  V30 201 H 22.0613 -3.82936 -3.15711 0
M  V30 202 H 17.3173 -5.24255 -3.1459 0
M  V30 203 H 21.4913 -6.22934 -3.1133 0
M  V30 204 H 19.1183 -6.93984 -3.10307 0
M  V30 205 N 20.6934 1.19889 -1.02296 0
M  V30 206 C 21.6564 2.21116 -0.603351 0
M  V30 207 C 22.6564 1.5738 0.329884 0
M  V30 208 O 23.8464 1.73802 0.117702 0
M  V30 209 C 20.9784 3.40696 0.117992 0
M  V30 210 H 22.1714 2.59754 -1.49893 0
M  V30 211 H 19.7244 1.33463 -0.813468 0
M  V30 212 H 20.4594 3.07569 1.0282 0
M  V30 213 H 20.2444 3.88188 -0.552511 0
M  V30 214 H 21.7344 4.15692 0.398696 0
M  V30 215 N 22.1715 0.800033 1.35784 0
M  V30 216 C 23.4175 0.377901 1.99248 0
M  V30 217 C 23.7505 -1.05052 1.63333 0
M  V30 218 O 23.0255 -1.72768 0.893385 0
M  V30 219 C 23.3085 0.553922 3.55814 0
M  V30 220 C 23.1615 2.0268 4.01548 0
M  V30 221 C 24.4805 -0.0244802 4.40093 0
M  V30 222 H 21.5995 0.138782 0.723815 0
M  V30 223 H 24.2415 1.00835 1.61035 0
M  V30 224 H 22.3915 0.0172398 3.88496 0
M  V30 225 H 24.0635 2.62536 3.79305 0
M  V30 226 H 22.3065 2.5256 3.52698 0
M  V30 227 H 22.9775 2.10087 5.10458 0
M  V30 228 H 25.4535 0.433775 4.13833 0
M  V30 229 H 24.3295 0.128637 5.48749 0
M  V30 230 H 24.5905 -1.11758 4.27741 0
M  V30 231 N 23.6496 -1.47581 0.552962 0
M  V30 232 C 24.8776 -2.06875 0.0320556 0
M  V30 233 C 25.2926 -1.40625 -1.25976 0
M  V30 234 O 24.6496 -0.501349 -1.75479 0
M  V30 235 C 24.7006 -3.61092 -0.17167 0
M  V30 236 O 24.4216 -4.24858 1.06899 0
M  V30 237 C 25.9226 -4.37242 -0.730344 0
M  V30 238 H 23.1426 -0.669561 0.043915 0
M  V30 239 H 25.6866 -1.89646 0.765163 0
M  V30 240 H 23.8416 -3.7785 -0.854894 0
M  V30 241 H 24.2556 -5.17334 0.864059 0
M  V30 242 H 25.7296 -5.45842 -0.822203 0
M  V30 243 H 26.2066 -4.03235 -1.74064 0
M  V30 244 H 26.8126 -4.25219 -0.0829543 0
M  V30 245 N 25.1277 -0.289203 -1.54924 0
M  V30 246 C 26.5387 0.205791 -1.85562 0
M  V30 247 C 26.8897 1.54351 -1.2112 0
M  V30 248 O 26.0147 2.10435 -0.504601 0
M  V30 249 C 26.6097 0.380177 -3.3666 0
M  V30 250 C 25.1687 0.819395 -3.67373 0
M  V30 251 C 24.3157 -0.079159 -2.77187 0
M  V30 252 H 27.2667 -0.510577 -1.50262 0
M  V30 253 H 27.2877 1.21659 -3.60526 0
M  V30 254 H 26.7997 -0.593589 -3.83534 0
M  V30 255 H 24.9007 1.80413 -3.26009 0
M  V30 256 H 25.0137 0.646957 -4.74712 0
M  V30 257 H 23.3777 0.439565 -2.50878 0
M  V30 258 H 24.1607 -1.04906 -3.26878 0
M  V30 259 N 26.6058 1.57591 -0.0167156 0
M  V30 260 C 27.5688 2.08393 0.954204 0
M  V30 261 C 28.5688 0.996531 1.26198 0
M  V30 262 O 29.7588 1.25858 1.20438 0
M  V30 263 C 26.8908 2.5394 2.27436 0
M  V30 264 H 28.0838 2.95455 0.514451 0
M  V30 265 H 25.6368 1.54582 0.231089 0
M  V30 266 H 26.3718 1.70171 2.76066 0
M  V30 267 H 26.1568 3.33371 2.06412 0
M  V30 268 H 27.6468 2.93512 2.97053 0
M  V30 269 N 28.0839 -0.256276 1.55502 0
M  V30 270 C 29.0469 -1.30047 1.88734 0
M  V30 271 C 30.0469 -1.4154 0.763086 0
M  V30 272 O 31.2369 -1.40403 1.03115 0
M  V30 273 C 28.3689 -2.67953 2.10747 0
M  V30 274 H 29.5619 -1.01802 2.82093 0
M  V30 275 H 27.1149 -0.495134 1.4825 0
M  V30 276 H 27.8499 -3.01351 1.19825 0
M  V30 277 H 27.6349 -2.60993 2.92617 0
M  V30 278 H 29.1249 -3.43368 2.37673 0
M  V30 279 N 29.562 -1.4872 -0.521534 0
M  V30 280 C 30.525 -1.63379 -1.60748 0
M  V30 281 C 31.525 -0.50661 -1.52611 0
M  V30 282 O 32.715 -0.772601 -1.5613 0
M  V30 283 C 29.847 -1.61192 -3.00383 0
M  V30 284 H 31.04 -2.60217 -1.49087 0
M  V30 285 H 28.593 -1.37444 -0.744235 0
M  V30 286 H 29.328 -0.65863 -3.17541 0
M  V30 287 H 29.113 -2.43032 -3.07698 0
M  V30 288 H 30.603 -1.7466 -3.7932 0
M  V30 289 N 31.0401 0.771051 -1.3745 0
M  V30 290 C 31.9731 1.89166 -1.27638 0
M  V30 291 C 32.9511 1.61842 -0.156782 0
M  V30 292 O 34.1351 1.85569 -0.331111 0
M  V30 293 C 31.2621 3.24405 -0.973621 0
M  V30 294 C 30.3081 3.70638 -2.1102 0
M  V30 295 S 31.1411 3.84228 -3.73 0
M  V30 296 C 32.2971 5.22313 -3.44876 0
M  V30 297 H 32.5301 1.972 -2.22485 0
M  V30 298 H 30.0631 0.932224 -1.23081 0
M  V30 299 H 32.0211 4.02514 -0.805766 0
M  V30 300 H 30.6821 3.14071 -0.0426279 0
M  V30 301 H 29.8751 4.68685 -1.85338 0
M  V30 302 H 29.4771 2.99632 -2.23822 0
M  V30 303 H 31.7691 6.07505 -2.99908 0
M  V30 304 H 32.7121 5.53008 -4.42253 0
M  V30 305 H 33.1201 4.90284 -2.79789 0
M  V30 306 N 32.5182 1.22032 0.997298 0
M  V30 307 C 33.4282 1.00271 2.12092 0
M  V30 308 C 34.4442 -0.047621 1.73935 0
M  V30 309 O 35.6202 0.144136 2.00884 0
M  V30 310 C 32.6852 0.578449 3.4184 0
M  V30 311 C 31.7462 1.70189 3.94125 0
M  V30 312 C 30.9792 1.29778 5.17681 0
M  V30 313 O 31.2022 0.174676 5.70132 0
M  V30 314 O 30.1362 2.11261 5.63607 0
M  V30 315 H 33.9622 1.94398 2.3333 0
M  V30 316 H 31.5472 1.00587 1.10465 0
M  V30 317 H 33.4292 0.351998 4.19927 0
M  V30 318 H 32.1042 -0.334019 3.21972 0
M  V30 319 H 31.0112 1.98282 3.1723 0
M  V30 320 H 32.3442 2.59206 4.18417 0
M  V30 321 N 33.9963 -1.19345 1.0293 0
M  V30 322 C 34.9063 -2.26245 0.620515 0
M  V30 323 C 35.9223 -1.70486 -0.347928 0
M  V30 324 O 37.0983 -2.00347 -0.205704 0
M  V30 325 C 34.1633 -3.46693 -0.0218957 0
M  V30 326 C 33.2243 -4.17632 0.994102 0
M  V30 327 C 32.4573 -5.32329 0.382253 0
M  V30 328 O 32.6803 -5.64552 -0.814676 0
M  V30 329 O 31.6143 -5.91664 1.10531 0
M  V30 330 H 35.4403 -2.63453 1.51083 0
M  V30 331 H 33.0253 -1.26207 0.799513 0
M  V30 332 H 34.9073 -4.19683 -0.380072 0
M  V30 333 H 33.5823 -3.11333 -0.886209 0
M  V30 334 H 32.4893 -3.4676 1.40387 0
M  V30 335 H 33.8223 -4.56964 1.8288 0
M  V30 336 N 35.4744 -0.807222 -1.35358 0
M  V30 337 C 36.8854 -0.44876 -1.81226 0
M  V30 338 C 37.2364 1.02929 -1.67033 0
M  V30 339 O 36.3614 1.79991 -1.20133 0
M  V30 340 C 36.9564 -0.807774 -3.2903 0
M  V30 341 C 35.5154 -0.501901 -3.73039 0
M  V30 342 C 34.6624 -1.03304 -2.57339 0
M  V30 343 H 37.6134 -0.998808 -1.23327 0
M  V30 344 H 37.6344 -0.10554 -3.80354 0
M  V30 345 H 37.1464 -1.88357 -3.39328 0
M  V30 346 H 35.2474 0.565128 -3.68289 0
M  V30 347 H 35.3604 -1.03497 -4.67787 0
M  V30 348 H 33.7244 -0.455339 -2.50597 0
M  V30 349 H 34.5074 -2.11496 -2.70415 0
M  V30 350 N 36.9525 1.47285 -0.560781 0
M  V30 351 C 38.3635 1.86258 -0.128343 0
M  V30 352 C 38.7145 1.46699 1.30284 0
M  V30 353 O 37.8395 0.871698 1.98067 0
M  V30 354 C 38.4345 3.38044 -0.22614 0
M  V30 355 C 36.9935 3.76096 0.151283 0
M  V30 356 C 36.1405 2.71335 -0.572084 0
M  V30 357 H 39.0915 1.38752 -0.770297 0
M  V30 358 H 39.1125 3.76441 0.554322 0
M  V30 359 H 38.6245 3.66806 -1.26788 0
M  V30 360 H 36.7255 3.52951 1.19399 0
M  V30 361 H 36.8385 4.78641 -0.209765 0
M  V30 362 H 35.2025 2.54696 -0.0147653 0
M  V30 363 H 35.9855 3.02938 -1.61504 0
M  V30 364 N 38.4306 0.297415 1.54768 0
M  V30 365 C 39.8416 -0.195947 1.85669 0
M  V30 366 C 40.1926 -1.53707 1.21937 0
M  V30 367 O 39.3176 -2.10164 0.515754 0
M  V30 368 C 39.9126 -0.362318 3.36857 0
M  V30 369 C 38.4716 -0.799901 3.67802 0
M  V30 370 C 37.6186 0.0938578 2.77141 0
M  V30 371 H 40.5696 0.518538 1.4999 0
M  V30 372 H 40.5906 -1.19745 3.61167 0
M  V30 373 H 40.1026 0.613921 3.83214 0
M  V30 374 H 38.2036 -1.78682 3.26961 0
M  V30 375 H 38.3166 -0.621773 4.75048 0
M  V30 376 H 36.6806 -0.426254 2.51108 0
M  V30 377 H 37.4636 1.06639 3.26318 0
M  V30 378 N 39.9087 -1.5758 0.0250728 0
M  V30 379 C 41.3197 -1.79476 -0.514323 0
M  V30 380 C 41.6707 -0.934956 -1.72491 0
M  V30 381 O 40.7957 -0.144245 -2.15919 0
M  V30 382 C 41.3907 -3.25503 -0.939842 0
M  V30 383 C 39.9497 -3.48408 -1.42438 0
M  V30 384 C 39.0967 -2.74583 -0.387201 0
M  V30 385 H 42.0477 -1.567 0.25113 0
M  V30 386 H 42.0687 -3.34992 -1.80445 0
M  V30 387 H 41.5807 -3.88056 -0.0585628 0
M  V30 388 H 39.6817 -2.91103 -2.32572 0
M  V30 389 H 39.7947 -4.57119 -1.43455 0
M  V30 390 H 38.1587 -2.39942 -0.854409 0
M  V30 391 H 38.9417 -3.39849 0.485543 0
M  V30 392 N 41.3868 0.248026 -1.55636 0
M  V30 393 C 42.7978 0.817177 -1.67866 0
M  V30 394 C 43.1488 1.86069 -0.622322 0
M  V30 395 O 42.2738 2.15157 0.231618 0
M  V30 396 C 42.8688 1.489 -3.04326 0
M  V30 397 C 41.4278 2.00587 -3.185 0
M  V30 398 C 40.5748 0.856573 -2.63739 0
M  V30 399 H 43.5258 0.0238579 -1.58682 0
M  V30 400 H 43.5468 2.35698 -2.98708 0
M  V30 401 H 43.0588 0.729279 -3.81186 0
M  V30 402 H 41.1598 2.79443 -2.4646 0
M  V30 403 H 41.2728 2.20402 -4.25393 0
M  V30 404 H 39.6368 1.25678 -2.21534 0
M  V30 405 H 40.4198 0.109953 -3.43124 0
M  V30 406 N 42.8649 1.48995 0.513639 0
M  V30 407 C 44.2759 1.5119 1.09537 0
M  V30 408 C 44.6269 0.290906 1.94031 0
M  V30 409 O 43.7519 -0.60049 2.07902 0
M  V30 410 C 44.3469 2.73964 1.99322 0
M  V30 411 C 42.9059 2.78978 2.52682 0
M  V30 412 C 42.0529 2.44934 1.30009 0
M  V30 413 H 45.0039 1.55875 0.298125 0
M  V30 414 H 45.0249 2.53409 2.83838 0
M  V30 415 H 44.5369 3.62813 1.37799 0
M  V30 416 H 42.6379 1.94378 3.1788 0
M  V30 417 H 42.7509 3.8083 2.90698 0
M  V30 418 H 41.1149 1.9644 1.62122 0
M  V30 419 H 41.8979 3.36043 0.702131 0
M  V30 420 N 44.343 -0.763751 1.37857 0
M  V30 421 C 45.754 -1.3405 1.29952 0
M  V30 422 C 46.105 -1.96138 -0.0492898 0
M  V30 423 O 45.23 -1.94372 -0.951239 0
M  V30 424 C 45.825 -2.43729 2.35333 0
M  V30 425 C 44.384 -2.97151 2.31037 0
M  V30 426 C 43.531 -1.70438 2.18738 0
M  V30 427 H 46.482 -0.563396 1.48363 0
M  V30 428 H 46.503 -3.23412 2.00462 0
M  V30 429 H 46.015 -1.9851 3.33489 0
M  V30 430 H 44.116 -3.46724 1.3643 0
M  V30 431 H 44.229 -3.52221 3.24772 0
M  V30 432 H 42.593 -1.93673 1.65418 0
M  V30 433 H 43.376 -1.27312 3.18821 0
M  V30 434 N 45.8211 -1.22559 -0.990812 0
M  V30 435 C 47.2321 -1.04791 -1.54518 0
M  V30 436 C 47.5831 0.387998 -1.92325 0
M  V30 437 O 46.7081 1.27328 -1.74976 0
M  V30 438 C 47.3031 -1.896 -2.80779 0
M  V30 439 C 45.8621 -1.76124 -3.32652 0
M  V30 440 C 45.0091 -1.8594 -2.05722 0
M  V30 441 H 47.9601 -1.36374 -0.811662 0
M  V30 442 H 47.9811 -1.41464 -3.53225 0
M  V30 443 H 47.4931 -2.94101 -2.53231 0
M  V30 444 H 45.5941 -0.743643 -3.65104 0
M  V30 445 H 45.7071 -2.58913 -4.03114 0
M  V30 446 H 44.0711 -1.29403 -2.19379 0
M  V30 447 H 44.8541 -2.91976 -1.80568 0
M  V30 448 N 47.2992 1.18797 -1.03562 0
M  V30 449 C 48.7102 1.70322 -0.764676 0
M  V30 450 C 49.0612 1.82708 0.714996 0
M  V30 451 O 48.1862 1.50299 1.55689 0
M  V30 452 C 48.7812 3.09356 -1.38145 0
M  V30 453 C 47.3402 3.58114 -1.15895 0
M  V30 454 C 46.4872 2.34798 -1.4753 0
M  V30 455 H 49.4382 1.03543 -1.20268 0
M  V30 456 H 49.4592 3.72378 -0.781977 0
M  V30 457 H 48.9712 3.00309 -2.45837 0
M  V30 458 H 47.0722 3.72464 -0.100544 0
M  V30 459 H 47.1852 4.4184 -1.8524 0
M  V30 460 H 45.5492 2.38464 -0.894829 0
M  V30 461 H 46.3322 2.28375 -2.56319 0
M  V30 462 N 48.7773 0.814389 1.34928 0
M  V30 463 C 50.1883 0.458364 1.80986 0
M  V30 464 C 50.5393 -1.02042 1.67577 0
M  V30 465 O 49.6643 -1.79352 1.21086 0
M  V30 466 C 50.2593 0.825212 3.28597 0
M  V30 467 C 48.8183 0.521677 3.72767 0
M  V30 468 C 47.9653 1.04668 2.56788 0
M  V30 469 H 50.9163 1.00533 1.22795 0
M  V30 470 H 50.9373 0.12571 3.80292 0
M  V30 471 H 50.4493 1.90154 3.38324 0
M  V30 472 H 48.5503 -0.545589 3.68584 0
M  V30 473 H 48.6633 1.05977 4.67232 0
M  V30 474 H 47.0273 0.468622 2.50352 0
M  V30 475 H 47.8103 2.12927 2.6929 0
M  V30 476 N 50.2554 -1.46986 0.568584 0
M  V30 477 C 51.6664 -1.86188 0.138219 0
M  V30 478 C 52.0174 -1.47388 -1.29504 0
M  V30 479 O 51.1424 -0.88219 -1.97602 0
M  V30 480 C 51.7374 -3.3792 0.244065 0
M  V30 481 C 50.2964 -3.76171 -0.131335 0
M  V30 482 C 49.4434 -2.71027 0.586465 0
M  V30 483 H 52.3944 -1.38342 0.777645 0
M  V30 484 H 52.4154 -3.76729 -0.534351 0
M  V30 485 H 51.9274 -3.66128 1.28731 0
M  V30 486 H 50.0284 -3.5358 -1.17526 0
M  V30 487 H 50.1414 -4.78523 0.235146 0
M  V30 488 H 48.5054 -2.54684 0.0282722 0
M  V30 489 H 49.2884 -3.02077 1.63109 0
M  V30 490 N 51.7335 -0.305618 -1.54608 0
M  V30 491 C 53.1445 0.186098 -1.8577 0
M  V30 492 C 53.4955 1.53058 -1.22751 0
M  V30 493 O 52.6205 2.09888 -0.526893 0
M  V30 494 C 53.2155 0.344449 -3.37044 0
M  V30 495 C 51.7745 0.780384 -3.68221 0
M  V30 496 C 50.9215 -0.108554 -2.77087 0
M  V30 497 H 53.8725 -0.526485 -1.49712 0
M  V30 498 H 53.8935 1.17828 -3.61796 0
M  V30 499 H 53.4055 -0.634235 -3.82883 0
M  V30 500 H 51.5065 1.76945 -3.27904 0
M  V30 501 H 51.6195 0.596572 -4.75371 0
M  V30 502 H 49.9835 0.412931 -2.5133 0
M  V30 503 H 50.7665 -1.08368 -3.25747 0
M  V30 504 N 53.2116 1.57565 -0.0334293 0
M  V30 505 C 54.1216 2.13943 0.962572 0
M  V30 506 C 55.1376 1.09276 1.35406 0
M  V30 507 O 56.3136 1.41355 1.4346 0
M  V30 508 C 53.3786 2.65887 2.22497 0
M  V30 509 C 52.4396 3.85286 1.8935 0
M  V30 510 C 51.6726 4.34743 3.09571 0
M  V30 511 O 51.8956 3.83352 4.22371 0
M  V30 512 O 50.8296 5.26538 2.91618 0
M  V30 513 H 54.6556 2.99333 0.513169 0
M  V30 514 H 52.2406 1.4822 0.18743 0
M  V30 515 H 54.1226 2.99346 2.96598 0
M  V30 516 H 52.7976 1.83578 2.6661 0
M  V30 517 H 51.7046 3.56746 1.1262 0
M  V30 518 H 53.0376 4.68771 1.5005 0
M  V30 519 N 54.6897 -0.239769 1.55765 0
M  V30 520 C 56.1007 -0.808263 1.68297 0
M  V30 521 C 56.4517 -1.85736 0.632181 0
M  V30 522 O 55.5767 -2.15277 -0.220204 0
M  V30 523 C 56.1717 -1.47284 3.05111 0
M  V30 524 C 54.7307 -1.98895 3.19559 0
M  V30 525 C 53.8777 -0.842575 2.64189 0
M  V30 526 H 56.8287 -0.0154422 1.58692 0
M  V30 527 H 56.8497 -2.34111 2.99954 0
M  V30 528 H 56.3617 -0.709053 3.81568 0
M  V30 529 H 54.4627 -2.78132 2.47938 0
M  V30 530 H 54.5757 -2.18143 4.26556 0
M  V30 531 H 52.9397 -1.24501 2.22197 0
M  V30 532 H 53.7227 -0.0917552 3.43177 0
M  V30 533 N 56.1678 -1.49265 -0.50573 0
M  V30 534 C 57.0778 -1.68312 -1.63427 0
M  V30 535 C 58.0938 -0.565682 -1.64548 0
M  V30 536 O 59.2698 -0.839801 -1.83055 0
M  V30 537 C 56.3348 -1.74107 -2.99813 0
M  V30 538 C 55.3958 -2.97653 -3.09356 0
M  V30 539 C 54.6288 -3.03163 -4.39236 0
M  V30 540 O 54.8518 -2.16396 -5.27758 0
M  V30 541 O 53.7858 -3.9558 -4.53652 0
M  V30 542 H 57.6118 -2.63907 -1.50289 0
M  V30 543 H 55.1968 -1.32951 -0.681502 0
M  V30 544 H 57.0788 -1.803 -3.80881 0
M  V30 545 H 55.7538 -0.816901 -3.13223 0
M  V30 546 H 54.6608 -2.96981 -2.27493 0
M  V30 547 H 55.9938 -3.89535 -3.00871 0
M  V30 548 N 57.6459 0.756429 -1.3826 0
M  V30 549 C 58.8739 1.54565 -1.3754 0
M  V30 550 C 59.2889 1.88767 0.0355331 0
M  V30 551 O 58.6459 1.52572 1.0014 0
M  V30 552 C 58.6969 2.84654 -2.22833 0
M  V30 553 O 58.4179 2.51912 -3.5843 0
M  V30 554 C 59.9189 3.78807 -2.30261 0
M  V30 555 H 57.1389 0.478353 -0.470553 0
M  V30 556 H 59.6829 0.936381 -1.81803 0
M  V30 557 H 57.8379 3.41965 -1.8204 0
M  V30 558 H 58.2519 3.35325 -4.03308 0
M  V30 559 H 59.7259 4.67045 -2.94233 0
M  V30 560 H 60.2029 4.19038 -1.31545 0
M  V30 561 H 60.8089 3.2742 -2.71433 0
M  V30 562 N 59.124 1.23083 0.984299 0
M  V30 563 C 60.034 1.02515 2.11016 0
M  V30 564 C 61.05 -0.0291702 1.73976 0
M  V30 565 O 62.226 0.165434 2.00719 0
M  V30 566 C 59.291 0.614673 3.41208 0
M  V30 567 C 58.352 1.74359 3.92297 0
M  V30 568 C 57.585 1.35261 5.16275 0
M  V30 569 O 57.808 0.235136 5.69915 0
M  V30 570 O 56.742 2.17227 5.61334 0
M  V30 571 H 60.568 1.96862 2.31255 0
M  V30 572 H 58.153 1.01753 1.09392 0
M  V30 573 H 60.035 0.396518 4.1953 0
M  V30 574 H 58.71 -0.299851 3.22308 0
M  V30 575 H 57.617 2.01635 3.1511 0
M  V30 576 H 58.95 2.63629 4.15645 0
M  V30 577 N 60.6021 -1.18246 1.0419 0
M  V30 578 C 61.8271 -1.92736 0.765996 0
M  V30 579 C 62.2521 -1.75728 -0.67091 0
M  V30 580 O 61.6101 -1.06825 -1.46486 0
M  V30 581 C 61.6581 -3.42148 1.13875 0
M  V30 582 O 60.7621 -4.11548 0.264954 0
M  V30 583 H 60.1031 -0.601238 0.281797 0
M  V30 584 H 62.6331 -1.49942 1.39207 0
M  V30 585 H 62.6431 -3.92858 1.1012 0
M  V30 586 H 61.3181 -3.53848 2.18551 0
M  V30 587 H 59.8951 -3.71137 0.362226 0
M  V30 588 N 62.0802 -0.821533 -1.34494 0
M  V30 589 C 62.9902 -0.244355 -2.33324 0
M  V30 590 C 64.0062 0.620527 -1.62559 0
M  V30 591 O 65.1822 0.528754 -1.94335 0
M  V30 592 C 62.2472 0.585368 -3.41723 0
M  V30 593 C 61.3082 -0.301752 -4.28238 0
M  V30 594 C 60.5412 0.488466 -5.3146 0
M  V30 595 O 60.7642 1.72186 -5.4379 0
M  V30 596 O 59.6982 -0.12848 -6.01763 0
M  V30 597 H 63.5242 -1.06231 -2.84515 0
M  V30 598 H 61.1092 -0.583645 -1.37528 0
M  V30 599 H 62.9912 1.05747 -4.07916 0
M  V30 600 H 61.6662 1.38068 -2.92778 0
M  V30 601 H 60.5732 -0.821315 -3.64973 0
M  V30 602 H 61.9062 -1.06138 -4.8062 0
M  V30 603 N 63.5583 1.46682 -0.576371 0
M  V30 604 C 64.9693 1.86112 -0.148091 0
M  V30 605 C 65.3203 1.48073 1.2872 0
M  V30 606 O 64.4453 0.892656 1.97131 0
M  V30 607 C 65.0403 3.37786 -0.261982 0
M  V30 608 C 63.5993 3.76235 0.111384 0
M  V30 609 C 62.7463 2.70713 -0.60083 0
M  V30 610 H 65.6973 1.37927 -0.78497 0
M  V30 611 H 65.7183 3.77007 0.514364 0
M  V30 612 H 65.2303 3.6544 -1.30671 0
M  V30 613 H 63.3313 3.54198 1.15649 0
M  V30 614 H 63.4443 4.78391 -0.26052 0
M  V30 615 H 61.8083 2.54666 -0.0417783 0
M  V30 616 H 62.5913 3.01208 -1.64708 0
M  V30 617 N 65.0364 0.313813 1.54444 0
M  V30 618 C 65.9464 -0.565714 2.27677 0
M  V30 619 C 66.9624 -1.13754 1.31666 0
M  V30 620 O 68.1384 -1.15959 1.64668 0
M  V30 621 C 65.2034 -1.71528 3.01296 0
M  V30 622 C 64.2644 -1.17624 4.12872 0
M  V30 623 C 63.4974 -2.27102 4.8297 0
M  V30 624 O 63.7204 -3.47256 4.52514 0
M  V30 625 O 62.6544 -1.9307 5.70094 0
M  V30 626 H 66.4804 0.0287296 3.03686 0
M  V30 627 H 64.0654 0.0798312 1.49187 0
M  V30 628 H 65.9474 -2.38476 3.4743 0
M  V30 629 H 64.6224 -2.29608 2.2817 0
M  V30 630 H 63.5294 -0.472124 3.71109 0
M  V30 631 H 64.8624 -0.640695 4.88012 0
M  V30 632 N 66.5145 -1.57545 0.0417849 0
M  V30 633 C 67.7545 -1.94185 -0.63809 0
M  V30 634 C 68.1185 -0.919339 -1.68559 0
M  V30 635 O 69.3195 -1.17236 -2.41886 0
M  V30 636 C 67.5905 -3.35672 -1.22714 0
M  V30 637 S 69.1495 -3.94256 -1.92633 0
M  V30 638 H 65.9675 -0.679353 -0.209764 0
M  V30 639 H 68.5695 -1.95199 0.108479 0
M  V30 640 H 67.2735 -4.07898 -0.452503 0
M  V30 641 H 66.8045 -3.38132 -2.01073 0
M  V30 642 H 68.8195 -3.7872 -3.20602 0
M  V30 643 N 67.9926 0.231505 -1.5589 0
M  V30 644 C 69.2326 0.964533 -1.80211 0
M  V30 645 C 69.5966 1.81926 -0.613744 0
M  V30 646 O 70.7976 2.58526 -0.736045 0
M  V30 647 C 69.0686 1.78956 -3.09369 0
M  V30 648 S 70.6276 2.57959 -3.54969 0
M  V30 649 H 67.4456 0.324173 -0.632798 0
M  V30 650 H 70.0476 0.230985 -1.94131 0
M  V30 651 H 68.7516 1.15161 -3.93911 0
M  V30 652 H 68.2826 2.56559 -2.9823 0
M  V30 653 H 70.2976 3.81309 -3.17519 0
M  V30 654 N 69.4707 1.49531 0.497807 0
M  V30 655 C 70.4007 1.6935 1.60757 0
M  V30 656 C 71.3817 0.542218 1.61227 0
M  V30 657 O 72.5667 0.778417 1.77917 0
M  V30 658 C 69.6967 1.76298 2.99226 0
M  V30 659 C 68.6507 2.91248 3.13622 0
M  V30 660 C 67.9767 2.83312 4.53474 0
M  V30 661 C 69.2767 4.3214 2.93346 0
M  V30 662 H 70.9707 2.62263 1.44425 0
M  V30 663 H 68.5167 1.26208 0.693367 0
M  V30 664 H 70.4697 1.88749 3.76765 0
M  V30 665 H 69.1937 0.799871 3.16654 0
M  V30 666 H 67.8527 2.78404 2.38509 0
M  V30 667 H 67.5007 1.84902 4.67782 0
M  V30 668 H 67.2007 3.60465 4.64046 0
M  V30 669 H 68.7247 2.97775 5.33069 0
M  V30 670 H 70.1387 4.45649 3.60652 0
M  V30 671 H 68.5357 5.1054 3.15387 0
M  V30 672 H 69.6057 4.46363 1.89441 0
M  V30 673 N 70.9488 -0.749086 1.3866 0
M  V30 674 C 71.9118 -1.84457 1.36045 0
M  V30 675 C 72.9118 -1.58682 0.260122 0
M  V30 676 O 74.1018 -1.66343 0.517261 0
M  V30 677 C 71.2338 -3.22008 1.11911 0
M  V30 678 H 72.4268 -1.88182 2.33512 0
M  V30 679 H 69.9798 -0.951266 1.24019 0
M  V30 680 H 70.7148 -3.2395 0.150686 0
M  V30 681 H 70.4998 -3.42111 1.91579 0
M  V30 682 H 71.9898 -4.0208 1.12788 0
M  V30 683 N 72.4269 -1.23603 -0.977757 0
M  V30 684 C 73.3899 -1.02069 -2.05218 0
M  V30 685 C 74.3899 0.0184305 -1.60789 0
M  V30 686 O 75.5799 -0.221569 -1.72785 0
M  V30 687 C 72.7119 -0.544926 -3.36517 0
M  V30 688 H 73.9049 -1.9742 -2.25755 0
M  V30 689 H 71.4579 -1.05684 -1.15155 0
M  V30 690 H 72.1929 0.412241 -3.21669 0
M  V30 691 H 71.9779 -1.2948 -3.70105 0
M  V30 692 H 73.4679 -0.414985 -4.15533 0
M  V30 693 N 73.905 1.17692 -1.04816 0
M  V30 694 C 75.321 1.39863 -0.768794 0
M  V30 695 C 75.521 1.91118 0.638451 0
M  V30 696 O 74.577 2.10036 1.40146 0
M  V30 697 C 75.89 2.39274 -1.82122 0
M  V30 698 C 77.438 2.52987 -1.843 0
M  V30 699 C 77.913 3.55669 -2.88555 0
M  V30 700 N 79.404 3.63183 -2.87493 0
M  V30 701 C 80.139 4.42381 -3.64811 0
M  V30 702 N 79.635 5.25125 -4.51903 0
M  V30 703 N 81.428 4.37217 -3.53267 0
M  V30 704 H 73.579 0.82752 -1.95617 0
M  V30 705 H 75.842 0.426123 -0.846831 0
M  V30 706 H 75.548 2.08678 -2.83102 0
M  V30 707 H 75.422 3.38725 -1.65967 0
M  V30 708 H 77.809 2.82896 -0.839869 0
M  V30 709 H 77.89 1.53623 -2.04532 0
M  V30 710 H 77.534 3.26499 -3.89051 0
M  V30 711 H 77.464 4.54728 -2.65575 0
M  V30 712 H 79.955 3.04103 -2.24343 0
M  V30 713 H 80.268 5.82728 -5.07591 0
M  V30 714 H 78.613 5.24519 -4.55966 0
M  V30 715 H 81.804 3.71626 -2.84625 0
M  V30 716 H 81.977 4.98696 -4.13771 0
M  V30 717 N 75.3831 0.828654 1.34056 0
M  V30 718 C 76.3151 0.212052 2.28217 0
M  V30 719 C 77.3281 -0.601362 1.51286 0
M  V30 720 O 78.5171 -0.430104 1.73241 0
M  V30 721 C 75.6171 -0.72088 3.31144 0
M  V30 722 C 74.7901 0.0509587 4.3737 0
M  V30 723 C 73.8491 -0.803766 5.20025 0
M  V30 724 O 72.8751 -0.246667 5.68665 0
M  V30 725 N 74.0771 -2.1227 5.40298 0
M  V30 726 H 76.8421 1.02105 2.81771 0
M  V30 727 H 74.4031 0.686153 1.46641 0
M  V30 728 H 76.3951 -1.29742 3.8334 0
M  V30 729 H 74.9651 -1.43061 2.77943 0
M  V30 730 H 74.1851 0.808831 3.85813 0
M  V30 731 H 75.4731 0.582065 5.0546 0
M  V30 732 H 74.8711 -2.59898 5.02464 0
M  V30 733 H 73.4281 -2.64796 5.95589 0
M  V30 734 N 76.8612 -1.46375 0.584142 0
M  V30 735 C 77.7712 -2.34115 -0.150728 0
M  V30 736 C 78.7872 -1.49838 -0.884567 0
M  V30 737 O 79.9632 -1.82704 -0.847429 0
M  V30 738 C 77.0282 -3.2705 -1.15062 0
M  V30 739 C 76.0892 -4.27228 -0.421293 0
M  V30 740 C 75.3222 -5.15722 -1.37355 0
M  V30 741 O 75.5452 -5.07176 -2.61014 0
M  V30 742 O 74.4792 -5.95383 -0.883355 0
M  V30 743 H 78.3052 -2.98309 0.569708 0
M  V30 744 H 75.8902 -1.45373 0.344535 0
M  V30 745 H 77.7722 -3.84381 -1.72712 0
M  V30 746 H 76.4472 -2.65451 -1.8525 0
M  V30 747 H 75.3542 -3.7358 0.197085 0
M  V30 748 H 76.6872 -4.91616 0.239641 0
M  V30 749 N 78.3393 -0.321999 -1.54275 0
M  V30 750 C 79.5873 0.280489 -2.00144 0
M  V30 751 C 79.9083 1.52777 -1.21178 0
M  V30 752 O 79.1783 1.9338 -0.313187 0
M  V30 753 H 77.7583 0.106632 -0.73935 0
M  V30 754 H 80.4203 -0.438184 -1.8991 0
M  V30 755 H 79.5163 0.537972 -3.07428 0
M  V30 756 N 79.8174 1.5752 -0.0501392 0
M  V30 757 C 81.0454 1.96963 0.633492 0
M  V30 758 C 81.4604 0.927631 1.6444 0
M  V30 759 O 80.8174 -0.0882665 1.82286 0
M  V30 760 C 80.8684 3.36487 1.32132 0
M  V30 761 O 80.5894 4.36693 0.350894 0
M  V30 762 C 82.0904 3.90682 2.09481 0
M  V30 763 H 79.3104 0.648244 0.173266 0
M  V30 764 H 81.8544 2.0417 -0.116134 0
M  V30 765 H 80.0094 3.30434 2.02218 0
M  V30 766 H 80.4234 5.17702 0.841735 0
M  V30 767 H 81.8974 4.90591 2.5303 0
M  V30 768 H 82.3744 3.26053 2.94255 0
M  V30 769 H 82.9804 4.00069 1.44307 0
M  V30 770 N 81.2955 -0.223234 1.56011 0
M  V30 771 C 82.2255 -1.27988 1.95298 0
M  V30 772 C 83.2065 -1.48976 0.820979 0
M  V30 773 O 84.3915 -1.61188 1.08315 0
M  V30 774 C 81.5215 -2.63 2.26822 0
M  V30 775 C 80.4755 -2.56671 3.42497 0
M  V30 776 C 79.8015 -3.95697 3.59622 0
M  V30 777 C 81.1015 -2.11601 4.77517 0
M  V30 778 H 82.7955 -0.953525 2.8381 0
M  V30 779 H 80.3415 -0.457244 1.36548 0
M  V30 780 H 82.2945 -3.37077 2.52898 0
M  V30 781 H 81.0185 -2.9732 1.35161 0
M  V30 782 H 79.6775 -1.85051 3.16467 0
M  V30 783 H 79.3255 -4.27322 2.6534 0
M  V30 784 H 79.0255 -3.92345 4.37424 0
M  V30 785 H 80.5495 -4.71438 3.88044 0
M  V30 786 H 81.9635 -2.7542 5.02809 0
M  V30 787 H 80.3605 -2.19311 5.5859 0
M  V30 788 H 81.4305 -1.06824 4.72987 0
M  V30 789 N 82.7736 -1.49793 -0.48987 0
M  V30 790 C 84.0216 -1.59525 -1.24081 0
M  V30 791 C 84.3426 -0.288953 -1.92847 0
M  V30 792 O 83.6126 0.692436 -1.83254 0
M  V30 793 H 82.1926 -0.587796 -0.460983 0
M  V30 794 H 84.8546 -1.86477 -0.566778 0
M  V30 795 H 83.9506 -2.39696 -1.99881 0
M  V30 796 N 84.2517 0.741722 -1.39055 0
M  V30 797 C 85.5287 1.49252 -1.26425 0
M  V30 798 C 85.9087 2.10705 0.129144 0
M  V30 799 O 85.2567 1.98045 1.13976 0
M  V30 800 C 85.4667 2.54934 -2.38347 0
M  V30 801 C 86.8147 3.21506 -2.77343 0
M  V30 802 O 87.8387 2.65245 -2.37747 0
M  V30 803 O 86.6977 4.23294 -3.45665 0
M  V30 804 H 83.7917 0.662451 -0.495064 0
M  V30 805 H 86.3377 0.776121 -1.50912 0
M  V30 806 H 85.1097 2.07857 -3.31529 0
M  V30 807 H 84.7327 3.34141 -2.15489 0
M  V30 808 N 85.7298 1.2412 0.971189 0
M  V30 809 C 86.9548 1.10667 1.75407 0
M  V30 810 C 87.3798 -0.337048 1.85056 0
M  V30 811 O 86.7378 -1.24396 1.31892 0
M  V30 812 C 86.7858 1.74726 3.15441 0
M  V30 813 O 85.8898 1.01566 3.99697 0
M  V30 814 H 85.2308 0.387341 0.539317 0
M  V30 815 H 87.7608 1.64358 1.2185 0
M  V30 816 H 87.7708 1.80341 3.6598 0
M  V30 817 H 86.4458 2.79773 3.07734 0
M  V30 818 H 85.0228 1.03713 3.58187 0
M  V30 819 N 87.2079 -1.17134 1.05439 0
M  V30 820 C 88.1709 -2.19439 0.661764 0
M  V30 821 C 89.1709 -1.58199 -0.288042 0
M  V30 822 O 90.3609 -1.74053 -0.0715803 0
M  V30 823 C 87.4929 -3.40889 -0.0276209 0
M  V30 824 H 88.6859 -2.55688 1.56728 0
M  V30 825 H 86.2389 -1.31259 0.848567 0
M  V30 826 H 86.9739 -3.10187 -0.94629 0
M  V30 827 H 86.7589 -3.86586 0.655238 0
M  V30 828 H 88.2489 -4.16603 -0.288342 0
M  V30 829 N 88.686 -0.835752 -1.33615 0
M  V30 830 C 89.926 -0.43599 -1.99696 0
M  V30 831 C 90.29 0.98557 -1.64774 0
M  V30 832 O 91.491 1.48889 -2.23798 0
M  V30 833 C 89.762 -0.646721 -3.515 0
M  V30 834 S 91.321 -0.341715 -4.37467 0
M  V30 835 H 88.139 -0.164136 -0.691795 0
M  V30 836 H 90.741 -1.08436 -1.62671 0
M  V30 837 H 89.445 -1.68077 -3.74404 0
M  V30 838 H 88.976 0.0159173 -3.93397 0
M  V30 839 H 90.991 0.839708 -4.89043 0
M  V30 840 N 90.1641 1.46063 -0.591896 0
M  V30 841 C 91.1111 2.30399 0.136069 0
M  V30 842 C 92.0811 1.41169 0.875238 0
M  V30 843 O 93.2661 1.70112 0.86409 0
M  V30 844 C 90.4061 3.25804 1.13781 0
M  V30 845 C 89.5191 4.30134 0.401137 0
M  V30 846 C 88.6541 5.12659 1.39121 0
M  V30 847 C 87.6931 6.0873 0.641462 0
M  V30 848 N 86.8301 6.8409 1.58004 0
M  V30 849 H 91.6701 2.92118 -0.589144 0
M  V30 850 H 89.2071 1.43959 -0.302342 0
M  V30 851 H 91.1651 3.79569 1.73156 0
M  V30 852 H 89.7951 2.65872 1.83062 0
M  V30 853 H 88.8471 3.79152 -0.307826 0
M  V30 854 H 90.1591 4.98458 -0.184565 0
M  V30 855 H 89.3131 5.70747 2.05749 0
M  V30 856 H 88.0521 4.44316 2.01084 0
M  V30 857 H 87.0571 5.49786 -0.0385419 0
M  V30 858 H 88.2821 6.79095 0.0270945 0
M  V30 859 H 86.2281 6.18449 2.18761 0
M  V30 860 H 86.1451 7.48709 1.04738 0
M  V30 861 H 87.4131 7.4673 2.23639 0
M  V30 862 N 91.6422 0.330177 1.54103 0
M  V30 863 C 92.8672 -0.274893 2.0557 0
M  V30 864 C 93.2922 -1.44487 1.20437 0
M  V30 865 O 92.6502 -1.80021 0.214991 0
M  V30 866 C 92.6982 -0.68079 3.54115 0
M  V30 867 O 91.8022 -1.7824 3.71893 0
M  V30 868 H 91.1432 -0.0483849 0.662235 0
M  V30 869 H 93.6732 0.480508 1.98878 0
M  V30 870 H 93.6832 -0.961635 3.96505 0
M  V30 871 H 92.3582 0.174903 4.15532 0
M  V30 872 H 90.9352 -1.49985 3.41407 0
M  V30 873 N 93.1203 -1.57491 0.0584922 0
M  V30 874 C 94.5313 -1.80526 -0.476138 0
M  V30 875 C 94.8823 -0.971334 -1.70469 0
M  V30 876 O 94.0073 -0.190012 -2.15564 0
M  V30 877 C 94.6023 -3.27424 -0.870587 0
M  V30 878 C 93.1613 -3.51351 -1.35015 0
M  V30 879 C 92.3083 -2.75343 -0.32887 0
M  V30 880 H 95.2593 -1.56133 0.284312 0
M  V30 881 H 95.2803 -3.38745 -1.73299 0
M  V30 882 H 94.7923 -3.88093 0.0237627 0
M  V30 883 H 92.8933 -2.95971 -2.26345 0
M  V30 884 H 93.0063 -4.60059 -1.33726 0
M  V30 885 H 91.3703 -2.417 -0.803321 0
M  V30 886 H 92.1533 -3.38743 0.557521 0
M  V30 887 N 94.5984 0.214957 -1.56127 0
M  V30 888 C 95.5084 1.28727 -1.96129 0
M  V30 889 C 96.5244 1.50916 -0.866044 0
M  V30 890 O 97.7004 1.63918 -1.17016 0
M  V30 891 C 94.7654 2.61569 -2.27558 0
M  V30 892 C 93.8264 2.47625 -3.50685 0
M  V30 893 C 93.0594 3.74132 -3.80606 0
M  V30 894 O 93.2824 4.77438 -3.12104 0
M  V30 895 O 92.2164 3.70849 -4.74083 0
M  V30 896 H 96.0424 0.977855 -2.87527 0
M  V30 897 H 93.6274 0.418358 -1.43423 0
M  V30 898 H 95.5094 3.40012 -2.48938 0
M  V30 899 H 94.1844 2.92178 -1.39332 0
M  V30 900 H 93.0914 1.67361 -3.34576 0
M  V30 901 H 94.4244 2.21954 -4.39315 0
M  V30 902 N 96.0765 1.50051 0.48192 0
M  V30 903 C 97.3015 1.64508 1.26301 0
M  V30 904 C 97.7265 0.323851 1.85291 0
M  V30 905 O 97.0845 -0.710969 1.66778 0
M  V30 906 C 97.1325 2.7305 2.35533 0
M  V30 907 O 96.2365 2.3355 3.39895 0
M  V30 908 H 95.5775 0.549978 0.372048 0
M  V30 909 H 98.1075 1.9636 0.574786 0
M  V30 910 H 98.1175 2.95799 2.8101 0
M  V30 911 H 96.7925 3.68946 1.91967 0
M  V30 912 H 95.3695 2.21205 3.00204 0
M  V30 913 N 97.5546 -0.734337 1.39446 0
M  V30 914 C 98.8316 -1.48579 1.27215 0
M  V30 915 C 99.2116 -2.1077 -0.117968 0
M  V30 916 O 98.5596 -1.98646 -1.12924 0
M  V30 917 C 98.7696 -2.53667 2.39696 0
M  V30 918 C 100.118 -3.20031 2.79044 0
M  V30 919 O 101.142 -2.6398 2.39151 0
M  V30 920 O 100.001 -4.21455 3.47905 0
M  V30 921 H 97.0946 -0.659816 0.49857 0
M  V30 922 H 99.6406 -0.768106 1.51322 0
M  V30 923 H 98.4126 -2.06096 3.32626 0
M  V30 924 H 98.0356 -3.32994 2.17258 0
M  V30 925 N 99.0327 -1.24633 -0.964593 0
M  V30 926 C 99.9627 -1.06611 -2.07741 0
M  V30 927 C 100.944 0.0218666 -1.70086 0
M  V30 928 O 102.129 -0.145793 -1.93652 0
M  V30 929 C 99.2587 -0.673444 -3.40708 0
M  V30 930 C 98.2127 -1.71054 -3.92332 0
M  V30 931 C 97.5387 -1.17285 -5.21678 0
M  V30 932 C 98.8387 -3.10718 -4.19824 0
M  V30 933 H 100.533 -1.99693 -2.23076 0
M  V30 934 H 98.0787 -0.96152 -1.07195 0
M  V30 935 H 100.032 -0.534345 -4.17998 0
M  V30 936 H 98.7557 0.293073 -3.25282 0
M  V30 937 H 97.4147 -1.83791 -3.17201 0
M  V30 938 H 97.0627 -0.196847 -5.02615 0
M  V30 939 H 96.7627 -1.86592 -5.57187 0
M  V30 940 H 98.2867 -1.04593 -6.01575 0
M  V30 941 H 99.7007 -3.01192 -4.87808 0
M  V30 942 H 98.0977 -3.77406 -4.66567 0
M  V30 943 H 99.1677 -3.58524 -3.26479 0
M  V30 944 N 100.511 1.16574 -1.06058 0
M  V30 945 C 101.421 2.2452 -0.680282 0
M  V30 946 C 102.437 1.71348 0.302604 0
M  V30 947 O 103.613 2.00822 0.152513 0
M  V30 948 C 100.678 3.46629 -0.0700315 0
M  V30 949 C 99.7388 4.14849 -1.10448 0
M  V30 950 C 98.9718 5.31129 -0.523256 0
M  V30 951 O 99.1948 5.66514 0.664709 0
M  V30 952 O 98.1288 5.88526 -1.26179 0
M  V30 953 H 101.955 2.59355 -1.58015 0
M  V30 954 H 99.5398 1.24043 -0.832694 0
M  V30 955 H 101.422 4.20543 0.268667 0
M  V30 956 H 100.097 3.13573 0.803353 0
M  V30 957 H 99.0038 3.42916 -1.49532 0
M  V30 958 H 100.337 4.51954 -1.94931 0
M  V30 959 N 101.989 0.842826 1.3317 0
M  V30 960 C 103.266 0.362216 1.92217 0
M  V30 961 C 103.646 -1.15289 1.76838 0
M  V30 962 O 102.994 -1.96914 1.15919 0
M  V30 963 C 103.204 0.813495 3.39387 0
M  V30 964 C 104.552 0.823804 4.16532 0
M  V30 965 O 105.576 0.757358 3.48055 0
M  V30 966 O 104.435 0.915193 5.38782 0
M  V30 967 H 101.529 0.103317 0.820521 0
M  V30 968 H 104.075 0.928942 1.42017 0
M  V30 969 H 102.847 1.85624 3.4447 0
M  V30 970 H 102.47 0.223561 3.96971 0
M  V30 971 N 103.467 -1.45747 0.599634 0
M  V30 972 C 104.714 -2.02292 0.0917284 0
M  V30 973 C 105.042 -1.46906 -1.27472 0
M  V30 974 O 104.297 -0.630652 -1.8526 0
M  V30 975 C 104.596 -3.57399 -0.00602758 0
M  V30 976 C 104.262 -4.31902 1.29503 0
M  V30 977 C 102.924 -4.51974 1.65144 0
M  V30 978 C 105.276 -4.74551 2.15525 0
M  V30 979 C 102.604 -5.11949 2.86574 0
M  V30 980 C 104.956 -5.35868 3.36196 0
M  V30 981 C 103.62 -5.54165 3.72099 0
M  V30 982 H 102.89 -0.740239 0.0335658 0
M  V30 983 H 105.537 -1.7491 0.779661 0
M  V30 984 H 103.842 -3.84014 -0.777183 0
M  V30 985 H 105.539 -3.98846 -0.415038 0
M  V30 986 H 102.129 -4.16588 1.00761 0
M  V30 987 H 106.313 -4.58784 1.8929 0
M  V30 988 H 101.569 -5.24305 3.14507 0
M  V30 989 H 105.743 -5.6787 4.03109 0
M  V30 990 H 103.37 -6.00406 4.6628 0
M  V30 991 N 104.945 -0.338344 -1.53925 0
M  V30 992 C 106.17 0.263987 -2.05713 0
M  V30 993 C 106.595 1.43847 -1.21201 0
M  V30 994 O 105.953 1.79904 -0.224535 0
M  V30 995 C 106.001 0.662 -3.54471 0
M  V30 996 O 105.105 1.76265 -3.72833 0
M  V30 997 H 104.446 0.0448722 -0.662482 0
M  V30 998 H 106.976 -0.491048 -1.9862 0
M  V30 999 H 106.986 0.940594 -3.9701 0
M  V30 1000 H 105.661 -0.196937 -4.15433 0
M  V30 1001 H 104.238 1.48173 -3.42198 0
M  V30 1002 N 106.423 1.57458 -0.0668435 0
M  V30 1003 C 107.7 1.8469 0.644132 0
M  V30 1004 C 108.08 0.958343 1.88093 0
M  V30 1005 O 107.428 0.0233579 2.28488 0
M  V30 1006 C 107.638 3.34767 0.986509 0
M  V30 1007 C 108.986 4.02159 1.36212 0
M  V30 1008 O 110.01 3.39484 1.07839 0
M  V30 1009 O 108.869 5.12694 1.89227 0
M  V30 1010 H 105.963 0.762816 0.319437 0
M  V30 1011 H 108.509 1.6942 -0.0973986 0
M  V30 1012 H 107.281 3.91151 0.107883 0
M  V30 1013 H 106.904 3.55281 1.78497 0
M  V30 1014 N 107.901 -0.206675 1.56239 0
M  V30 1015 C 108.811 -1.27686 1.96808 0
M  V30 1016 C 109.827 -1.50455 0.874035 0
M  V30 1017 O 111.003 -1.63295 1.17884 0
M  V30 1018 C 108.068 -2.60358 2.28942 0
M  V30 1019 C 107.129 -2.45762 3.51994 0
M  V30 1020 C 106.362 -3.72108 3.82585 0
M  V30 1021 O 106.585 -4.75776 3.14631 0
M  V30 1022 O 105.519 -3.6833 4.76043 0
M  V30 1023 H 109.345 -0.962593 2.88041 0
M  V30 1024 H 106.93 -0.410746 1.43643 0
M  V30 1025 H 108.812 -3.38687 2.50737 0
M  V30 1026 H 107.487 -2.91435 1.4088 0
M  V30 1027 H 106.394 -1.65584 3.35459 0
M  V30 1028 H 107.727 -2.19621 4.40486 0
M  V30 1029 N 109.379 -1.50304 -0.473955 0
M  V30 1030 C 110.607 -1.64902 -1.24959 0
M  V30 1031 C 111.022 -0.331198 -1.85872 0
M  V30 1032 O 110.379 0.68652 -1.69095 0
M  V30 1033 C 110.43 -2.73803 -2.36038 0
M  V30 1034 O 110.151 -4.00477 -1.77624 0
M  V30 1035 C 111.652 -2.99349 -3.26964 0
M  V30 1036 H 108.872 -0.554383 -0.378022 0
M  V30 1037 H 111.416 -1.9651 -0.566054 0
M  V30 1038 H 109.571 -2.44898 -3.00173 0
M  V30 1039 H 109.985 -4.60678 -2.5075 0
M  V30 1040 H 111.459 -3.79217 -4.01121 0
M  V30 1041 H 111.936 -2.10307 -3.85574 0
M  V30 1042 H 112.542 -3.29774 -2.68569 0
M  V30 1043 N 110.857 0.726932 -1.39834 0
M  V30 1044 C 111.805 1.86235 -1.39353 0
M  V30 1045 C 112.799 1.67144 -0.275555 0
M  V30 1046 O 114.005 1.74387 -0.44601 0
M  V30 1047 H 110.38 0.613174 -0.43534 0
M  V30 1048 H 112.351 1.83756 -2.35109 0
M  V30 1049 C 111.1 3.23995 -1.26185 0
M  V30 1050 H 110.423 3.39285 -2.11484 0
M  V30 1051 H 111.863 4.03609 -1.29907 0
M  V30 1052 C 110.322 3.36888 0.0290018 0
M  V30 1053 O 110.852 3.89152 0.99619 0
M  V30 1054 N 109.058 2.90446 0.0947437 0
M  V30 1055 H 108.605 2.48102 -0.693035 0
M  V30 1056 H 108.563 2.99451 0.957932 0
M  V30 1057 N 112.336 1.25143 0.95797 0
M  V30 1058 C 113.564 1.12424 1.73691 0
M  V30 1059 C 113.979 -0.322304 1.86029 0
M  V30 1060 O 113.336 -1.22186 1.35561 0
M  V30 1061 C 113.387 1.76933 3.15241 0
M  V30 1062 O 113.108 3.15932 3.03511 0
M  V30 1063 C 114.609 1.6995 4.09429 0
M  V30 1064 H 111.829 0.3923 0.544373 0
M  V30 1065 H 114.373 1.6544 1.20207 0
M  V30 1066 H 112.528 1.27895 3.6568 0
M  V30 1067 H 112.942 3.47598 3.9278 0
M  V30 1068 H 114.416 2.19753 5.06372 0
M  V30 1069 H 114.893 0.662619 4.34173 0
M  V30 1070 H 115.499 2.18461 3.64904 0
M  V30 1071 N 113.814 -1.1601 1.06675 0
M  V30 1072 C 114.724 -2.24156 0.692179 0
M  V30 1073 C 115.74 -1.71507 -0.293513 0
M  V30 1074 O 116.916 -2.009 -0.141861 0
M  V30 1075 C 113.981 -3.46587 0.0884131 0
M  V30 1076 C 113.042 -4.14257 1.12646 0
M  V30 1077 C 112.275 -5.30844 0.551416 0
M  V30 1078 O 112.498 -5.66858 -0.634656 0
M  V30 1079 O 111.432 -5.87848 1.29298 0
M  V30 1080 H 115.258 -2.58513 1.59388 0
M  V30 1081 H 112.843 -1.23599 0.83926 0
M  V30 1082 H 114.725 -4.20679 -0.246361 0
M  V30 1083 H 113.4 -3.13994 -0.786712 0
M  V30 1084 H 112.307 -3.42118 1.51348 0
M  V30 1085 H 113.64 -4.50914 1.97325 0
M  V30 1086 N 115.292 -0.849877 -1.32721 0
M  V30 1087 C 116.24 -0.279745 -2.30912 0
M  V30 1088 C 117.234 0.594278 -1.58634 0
M  V30 1089 O 118.44 0.482613 -1.73409 0
M  V30 1090 H 114.815 -0.0717521 -0.748569 0
M  V30 1091 H 116.786 -1.12222 -2.76494 0
M  V30 1092 C 115.535 0.521108 -3.43773 0
M  V30 1093 H 114.858 -0.142141 -3.99547 0
M  V30 1094 H 116.298 0.885693 -4.14646 0
M  V30 1095 C 114.757 1.70442 -2.90605 0
M  V30 1096 O 115.287 2.8034 -2.87702 0
M  V30 1097 N 113.493 1.52991 -2.47067 0
M  V30 1098 H 113.04 0.635914 -2.49628 0
M  V30 1099 H 112.998 2.32311 -2.11847 0
M  V30 1100 N 116.77 1.45427 -0.607355 0
M  V30 1101 C 117.7 2.3329 0.0989352 0
M  V30 1102 C 118.681 1.46816 0.859007 0
M  V30 1103 O 119.866 1.75588 0.829604 0
M  V30 1104 C 116.996 3.29518 1.09705 0
M  V30 1105 C 115.95 4.25626 0.450206 0
M  V30 1106 C 115.276 5.11542 1.55655 0
M  V30 1107 C 116.576 5.18505 -0.628455 0
M  V30 1108 H 118.27 2.92595 -0.634716 0
M  V30 1109 H 115.816 1.40696 -0.306681 0
M  V30 1110 H 117.769 3.89855 1.59971 0
M  V30 1111 H 116.493 2.68372 1.86129 0
M  V30 1112 H 115.152 3.66586 -0.0315886 0
M  V30 1113 H 114.8 4.46765 2.31107 0
M  V30 1114 H 114.5 5.76647 1.12925 0
M  V30 1115 H 116.024 5.74748 2.06148 0
M  V30 1116 H 117.438 5.72916 -0.209877 0
M  V30 1117 H 115.835 5.92085 -0.977489 0
M  V30 1118 H 116.905 4.60948 -1.50514 0
M  V30 1119 N 118.248 0.346503 1.53744 0
M  V30 1120 C 119.478 -0.250047 2.05081 0
M  V30 1121 C 119.886 -1.44529 1.22098 0
M  V30 1122 O 119.229 -1.81992 0.249917 0
M  V30 1123 C 119.291 -0.725934 3.52094 0
M  V30 1124 C 118.955 0.350053 4.55657 0
M  V30 1125 C 119.952 1.19372 5.0601 0
M  V30 1126 C 117.637 0.504827 4.99757 0
M  V30 1127 C 119.631 2.17768 5.99046 0
M  V30 1128 C 117.318 1.49218 5.92602 0
M  V30 1129 C 118.316 2.32706 6.42135 0
M  V30 1130 O 118.004 3.2976 7.33153 0
M  V30 1131 H 117.736 -0.0515469 0.674032 0
M  V30 1132 H 120.29 0.497559 1.99282 0
M  V30 1133 H 118.52 -1.52483 3.55367 0
M  V30 1134 H 120.209 -1.24336 3.86388 0
M  V30 1135 H 120.975 1.08525 4.72702 0
M  V30 1136 H 116.854 -0.135178 4.60802 0
M  V30 1137 H 120.398 2.82971 6.37631 0
M  V30 1138 H 116.295 1.6012 6.25325 0
M  V30 1139 H 117.063 3.25265 7.51096 0
M  V30 1140 N 119.726 -1.57421 0.075193 0
M  V30 1141 C 120.974 -1.93236 -0.591974 0
M  V30 1142 C 121.295 -0.956241 -1.69944 0
M  V30 1143 O 120.565 -0.00494792 -1.95899 0
M  V30 1144 H 119.145 -0.713355 -0.22166 0
M  V30 1145 H 121.807 -1.9444 0.133848 0
M  V30 1146 H 120.903 -2.95131 -1.01509 0
M  V30 1147 N 121.204 0.198386 -1.56346 0
M  V30 1148 C 122.432 0.935572 -1.84539 0
M  V30 1149 C 122.847 1.76989 -0.657281 0
M  V30 1150 O 122.204 1.78626 0.374043 0
M  V30 1151 C 122.255 1.8344 -3.11499 0
M  V30 1152 O 121.976 1.03377 -4.25728 0
M  V30 1153 C 123.477 2.68355 -3.52846 0
M  V30 1154 H 120.697 0.273126 -0.612897 0
M  V30 1155 H 123.241 0.20663 -2.03453 0
M  V30 1156 H 121.396 2.51701 -2.94492 0
M  V30 1157 H 121.81 1.64599 -4.98003 0
M  V30 1158 H 123.284 3.27085 -4.44657 0
M  V30 1159 H 123.761 3.41901 -2.75681 0
M  V30 1160 H 124.367 2.05471 -3.72373 0
M  V30 1161 N 122.682 1.50554 0.465978 0
M  V30 1162 C 123.907 1.65838 1.24549 0
M  V30 1163 C 124.332 0.343486 1.84937 0
M  V30 1164 O 123.69 -0.69324 1.67523 0
M  V30 1165 C 123.738 2.75533 2.32624 0
M  V30 1166 O 122.842 2.37142 3.37398 0
M  V30 1167 H 122.183 0.553893 0.366194 0
M  V30 1168 H 124.713 1.96959 0.553927 0
M  V30 1169 H 124.723 2.98763 2.77857 0
M  V30 1170 H 123.398 3.70962 1.88043 0
M  V30 1171 H 121.975 2.24377 2.97841 0
M  V30 1172 N 124.16 -0.719506 1.40217 0
M  V30 1173 C 125.571 -1.29848 1.34151 0
M  V30 1174 C 125.922 -1.96196 0.0131349 0
M  V30 1175 O 125.047 -1.973 -0.88892 0
M  V30 1176 C 125.642 -2.36118 2.42968 0
M  V30 1177 C 124.201 -2.8965 2.40374 0
M  V30 1178 C 123.348 -1.63393 2.24049 0
M  V30 1179 H 126.299 -0.51591 1.5008 0
M  V30 1180 H 126.32 -3.16871 2.10649 0
M  V30 1181 H 125.832 -1.878 3.39636 0
M  V30 1182 H 123.933 -3.42208 1.47392 0
M  V30 1183 H 124.046 -3.4171 3.35814 0
M  V30 1184 H 122.41 -1.88312 1.71495 0
M  V30 1185 H 123.193 -1.17104 3.2271 0
M  V30 1186 N 125.638 -1.25649 -0.95132 0
M  V30 1187 C 127.049 -1.09654 -1.51106 0
M  V30 1188 C 127.4 0.326615 -1.93462 0
M  V30 1189 O 126.525 1.21697 -1.78938 0
M  V30 1190 C 127.12 -1.98437 -2.74605 0
M  V30 1191 C 125.679 -1.86618 -3.2688 0
M  V30 1192 C 124.826 -1.9239 -1.99703 0
M  V30 1193 H 127.777 -1.38887 -0.767865 0
M  V30 1194 H 127.798 -1.5263 -3.48546 0
M  V30 1195 H 127.31 -3.02009 -2.43746 0
M  V30 1196 H 125.411 -0.859421 -3.62553 0
M  V30 1197 H 125.524 -2.71607 -3.94673 0
M  V30 1198 H 123.888 -1.36317 -2.15151 0
M  V30 1199 H 124.671 -2.97573 -1.71188 0
M  V30 1200 N 127.117 1.15442 -1.07289 0
M  V30 1201 C 128.342 1.90638 -0.816828 0
M  V30 1202 C 128.767 1.77445 0.624083 0
M  V30 1203 O 128.125 1.10671 1.43602 0
M  V30 1204 C 128.173 3.39008 -1.22906 0
M  V30 1205 O 127.277 4.10701 -0.373975 0
M  V30 1206 H 126.618 0.593555 -0.297638 0
M  V30 1207 H 129.148 1.46198 -1.43134 0
M  V30 1208 H 129.158 3.89801 -1.20497 0
M  V30 1209 H 127.833 3.47929 -2.27856 0
M  V30 1210 H 126.41 3.70046 -0.460499 0
M  V30 1211 N 128.595 0.856903 1.32268 0
M  V30 1212 C 129.823 0.475439 2.01363 0
M  V30 1213 C 130.238 -0.928486 1.64392 0
M  V30 1214 O 129.595 -1.60624 0.866387 0
M  V30 1215 C 129.646 0.607545 3.56358 0
M  V30 1216 O 129.367 1.95617 3.92002 0
M  V30 1217 C 130.868 0.225382 4.42727 0
M  V30 1218 H 128.088 0.186636 0.644521 0
M  V30 1219 H 130.632 1.15446 1.68797 0
M  V30 1220 H 128.787 -0.0237719 3.87393 0
M  V30 1221 H 129.201 1.95455 4.86721 0
M  V30 1222 H 130.675 0.368813 5.50767 0
M  V30 1223 H 131.152 -0.834369 4.31202 0
M  V30 1224 H 131.758 0.831864 4.17085 0
M  V30 1225 N 130.073 -1.45103 0.615059 0
M  V30 1226 C 131.484 -1.85654 0.197383 0
M  V30 1227 C 131.835 -1.51433 -1.24749 0
M  V30 1228 O 130.96 -0.944608 -1.94695 0
M  V30 1229 C 131.555 -3.36972 0.351448 0
M  V30 1230 C 130.114 -3.76398 -0.011593 0
M  V30 1231 C 129.261 -2.69024 0.672394 0
M  V30 1232 H 132.212 -1.35797 0.821263 0
M  V30 1233 H 132.233 -3.78239 -0.414227 0
M  V30 1234 H 131.745 -3.61847 1.40314 0
M  V30 1235 H 129.846 -3.5714 -1.06217 0
M  V30 1236 H 129.959 -4.77532 0.387265 0
M  V30 1237 H 128.323 -2.54465 0.109284 0
M  V30 1238 H 129.106 -2.96735 1.72636 0
M  V30 1239 N 131.551 -0.354651 -1.53558 0
M  V30 1240 C 132.967 -0.00315426 -1.596 0
M  V30 1241 C 133.167 1.47741 -1.37021 0
M  V30 1242 O 132.223 2.23759 -1.16996 0
M  V30 1243 C 133.536 -0.44929 -2.97325 0
M  V30 1244 C 135.084 -0.402578 -3.104 0
M  V30 1245 C 135.559 -0.824355 -4.5052 0
M  V30 1246 N 137.05 -0.778979 -4.56603 0
M  V30 1247 C 137.785 -1.07715 -5.63192 0
M  V30 1248 N 137.281 -1.44405 -6.77583 0
M  V30 1249 N 139.074 -1.00066 -5.53121 0
M  V30 1250 H 131.225 -1.31893 -1.66487 0
M  V30 1251 H 133.488 -0.538388 -0.780284 0
M  V30 1252 H 133.194 -1.48202 -3.1895 0
M  V30 1253 H 133.068 0.169772 -3.76818 0
M  V30 1254 H 135.455 0.621004 -2.88492 0
M  V30 1255 H 135.536 -1.05699 -2.32941 0
M  V30 1256 H 135.18 -1.846 -4.73165 0
M  V30 1257 H 135.11 -0.147304 -5.26394 0
M  V30 1258 H 137.601 -0.508528 -3.74463 0
M  V30 1259 H 137.914 -1.65612 -7.54846 0
M  V30 1260 H 136.259 -1.4826 -6.79002 0
M  V30 1261 H 139.45 -0.713293 -4.62633 0
M  V30 1262 H 139.623 -1.23638 -6.36096 0
M  V30 1263 N 133.029 1.57378 -0.0835403 0
M  V30 1264 C 133.961 2.10389 0.909338 0
M  V30 1265 C 134.974 1.03858 1.25369 0
M  V30 1266 O 136.163 1.31338 1.20882 0
M  V30 1267 C 133.263 2.55908 2.2218 0
M  V30 1268 C 132.436 3.86145 2.05453 0
M  V30 1269 C 131.495 4.17633 3.20108 0
M  V30 1270 O 130.521 4.87043 2.94581 0
M  V30 1271 N 131.723 3.72113 4.45547 0
M  V30 1272 H 134.488 2.962 0.456657 0
M  V30 1273 H 132.049 1.61579 0.101877 0
M  V30 1274 H 134.041 2.74027 2.97811 0
M  V30 1275 H 132.611 1.75171 2.58909 0
M  V30 1276 H 131.831 3.7729 1.1422 0
M  V30 1277 H 133.119 4.7137 1.91541 0
M  V30 1278 H 132.517 3.16062 4.69171 0
M  V30 1279 H 131.074 3.95409 5.18165 0
M  V30 1280 N 134.507 -0.190092 1.56449 0
M  V30 1281 C 135.44 -1.26375 1.90012 0
M  V30 1282 C 136.418 -1.43705 0.760765 0
M  V30 1283 O 137.602 -1.59014 1.01226 0
M  V30 1284 C 134.729 -2.62962 2.13468 0
M  V30 1285 C 133.775 -2.62474 3.36169 0
M  V30 1286 S 134.608 -2.13412 4.91137 0
M  V30 1287 C 135.764 -3.51812 5.17667 0
M  V30 1288 H 135.997 -0.977181 2.80782 0
M  V30 1289 H 133.53 -0.393814 1.49293 0
M  V30 1290 H 135.488 -3.41583 2.27664 0
M  V30 1291 H 134.149 -2.88828 1.23439 0
M  V30 1292 H 133.342 -3.62918 3.49723 0
M  V30 1293 H 132.944 -1.91937 3.20992 0
M  V30 1294 H 135.236 -4.47706 5.08494 0
M  V30 1295 H 136.179 -3.43148 6.19399 0
M  V30 1296 H 136.587 -3.46956 4.45288 0
M  V30 1297 N 135.985 -1.50799 -0.457987 0
M  V30 1298 C 136.932 -1.70617 -1.5543 0
M  V30 1299 C 137.902 -0.547562 -1.56815 0
M  V30 1300 O 139.087 -0.779647 -1.74144 0
M  V30 1301 C 136.227 -1.81831 -2.93311 0
M  V30 1302 C 135.34 -3.09278 -3.01615 0
M  V30 1303 C 134.475 -3.11209 -4.30491 0
M  V30 1304 C 133.514 -4.33055 -4.32585 0
M  V30 1305 N 132.651 -4.32652 -5.52952 0
M  V30 1306 H 137.491 -2.64207 -1.37836 0
M  V30 1307 H 135.028 -1.30959 -0.669937 0
M  V30 1308 H 136.986 -1.86314 -3.73287 0
M  V30 1309 H 135.616 -0.916685 -3.0951 0
M  V30 1310 H 134.668 -3.14203 -2.1443 0
M  V30 1311 H 135.98 -3.99233 -2.99022 0
M  V30 1312 H 135.134 -3.14494 -5.18824 0
M  V30 1313 H 133.873 -2.19106 -4.35711 0
M  V30 1314 H 132.878 -4.29969 -3.42647 0
M  V30 1315 H 134.103 -5.264 -4.29046 0
M  V30 1316 H 132.049 -3.43409 -5.58933 0
M  V30 1317 H 131.966 -5.16392 -5.52155 0
M  V30 1318 H 133.234 -4.40101 -6.43375 0
M  V30 1319 N 137.463 0.71206 -1.40597 0
M  V30 1320 C 138.879 1.02058 -1.22704 0
M  V30 1321 C 139.079 2.01228 -0.104729 0
M  V30 1322 O 138.135 2.4674 0.53624 0
M  V30 1323 C 139.448 1.56094 -2.57012 0
M  V30 1324 C 140.996 1.6806 -2.64054 0
M  V30 1325 C 141.471 2.25501 -3.9864 0
M  V30 1326 N 142.962 2.32882 -4.004 0
M  V30 1327 C 143.697 2.78317 -5.01325 0
M  V30 1328 N 143.193 3.23478 -6.12645 0
M  V30 1329 N 144.986 2.77733 -4.88693 0
M  V30 1330 H 137.137 0.0547896 -2.12329 0
M  V30 1331 H 139.4 0.0869027 -0.944008 0
M  V30 1332 H 139.106 0.906865 -3.39807 0
M  V30 1333 H 138.98 2.54564 -2.78347 0
M  V30 1334 H 141.367 2.32583 -1.81629 0
M  V30 1335 H 141.448 0.681802 -2.46546 0
M  V30 1336 H 141.092 1.61598 -4.81506 0
M  V30 1337 H 141.022 3.26102 -4.13479 0
M  V30 1338 H 143.513 2.00991 -3.20017 0
M  V30 1339 H 143.826 3.56725 -6.85542 0
M  V30 1340 H 142.171 3.21429 -6.16205 0
M  V30 1341 H 145.362 2.4179 -4.00818 0
M  V30 1342 H 145.535 3.12826 -5.67489 0
M  V30 1343 N 138.941 1.26152 0.944643 0
M  V30 1344 C 139.874 1.01729 2.04271 0
M  V30 1345 C 140.852 -0.0568101 1.62501 0
M  V30 1346 O 142.036 0.0848987 1.88309 0
M  V30 1347 C 139.163 0.539792 3.34371 0
M  V30 1348 C 138.209 1.60593 3.9511 0
M  V30 1349 S 139.042 3.19392 4.29825 0
M  V30 1350 C 140.198 2.73402 5.63029 0
M  V30 1351 H 140.431 1.94703 2.24673 0
M  V30 1352 H 137.964 1.09793 1.08558 0
M  V30 1353 H 139.922 0.270956 4.09605 0
M  V30 1354 H 138.583 -0.369609 3.11918 0
M  V30 1355 H 137.776 1.22275 4.88943 0
M  V30 1356 H 137.378 1.82596 3.26397 0
M  V30 1357 H 139.67 2.1765 6.41588 0
M  V30 1358 H 140.613 3.65913 6.06229 0
M  V30 1359 H 141.021 2.13077 5.22741 0
M  V30 1360 N 140.419 -1.14872 1.07899 0
M  V30 1361 C 141.644 -1.90202 0.826926 0
M  V30 1362 C 142.069 -1.77774 -0.614664 0
M  V30 1363 O 141.427 -1.11431 -1.43013 0
M  V30 1364 C 141.475 -3.38352 1.24702 0
M  V30 1365 O 140.579 -4.10497 0.39575 0
M  V30 1366 H 139.92 -0.591968 0.300782 0
M  V30 1367 H 142.45 -1.45437 1.43907 0
M  V30 1368 H 142.46 -3.89156 1.22563 0
M  V30 1369 H 141.135 -3.46715 2.29698 0
M  V30 1370 H 139.712 -3.69796 0.480117 0
M  V30 1371 N 141.898 -0.863906 -1.31812 0
M  V30 1372 C 143.126 -0.486111 -2.01108 0
M  V30 1373 C 143.541 0.919755 -1.64882 0
M  V30 1374 O 142.898 1.60162 -0.874893 0
M  V30 1375 C 142.949 -0.626435 -3.56031 0
M  V30 1376 O 142.67 -1.97693 -3.90959 0
M  V30 1377 C 144.171 -0.248857 -4.42601 0
M  V30 1378 H 141.391 -0.190052 -0.643523 0
M  V30 1379 H 143.935 -1.1634 -1.68182 0
M  V30 1380 H 142.09 0.00322717 -3.874 0
M  V30 1381 H 142.504 -1.98034 -4.85678 0
M  V30 1382 H 143.978 -0.398016 -5.50563 0
M  V30 1383 H 144.455 0.811489 -4.31638 0
M  V30 1384 H 145.061 -0.853971 -4.16638 0
M  V30 1385 N 143.376 1.44774 -0.622745 0
M  V30 1386 C 144.323 2.30635 0.0871679 0
M  V30 1387 C 145.293 1.42994 0.845097 0
M  V30 1388 O 146.478 1.71907 0.827812 0
M  V30 1389 C 143.618 3.28144 1.06844 0
M  V30 1390 C 142.731 4.30888 0.309809 0
M  V30 1391 C 141.866 5.15494 1.28215 0
M  V30 1392 C 140.905 6.09953 0.512198 0
M  V30 1393 N 140.042 6.87287 1.43458 0
M  V30 1394 H 144.882 2.90803 -0.650974 0
M  V30 1395 H 142.419 1.43286 -0.33281 0
M  V30 1396 H 144.377 3.83157 1.65066 0
M  V30 1397 H 143.007 2.69695 1.77382 0
M  V30 1398 H 142.059 3.78414 -0.388181 0
M  V30 1399 H 143.371 4.97955 -0.290254 0
M  V30 1400 H 142.525 5.74983 1.93596 0
M  V30 1401 H 141.264 4.48481 1.91614 0
M  V30 1402 H 140.269 5.49581 -0.155151 0
M  V30 1403 H 141.494 6.78999 -0.116958 0
M  V30 1404 H 139.44 6.2295 2.05594 0
M  V30 1405 H 139.357 7.50763 0.888335 0
M  V30 1406 H 140.625 7.51306 2.07749 0
M  V30 1407 N 144.854 0.36279 1.53368 0
M  V30 1408 C 145.804 -0.501391 2.22419 0
M  V30 1409 C 146.788 -1.0509 1.2184 0
M  V30 1410 O 147.98 -0.981404 1.47301 0
M  V30 1411 C 145.109 -1.64201 3.01484 0
M  V30 1412 C 144.195 -1.10552 4.09438 0
M  V30 1413 N 144.586 -0.291788 5.04958 0
M  V30 1414 C 142.884 -1.3806 4.24094 0
M  V30 1415 C 143.585 0.00162655 5.817 0
M  V30 1416 N 142.561 -0.595244 5.40331 0
M  V30 1417 H 146.363 0.127159 2.93625 0
M  V30 1418 H 143.877 0.170658 1.61501 0
M  V30 1419 H 145.874 -2.27326 3.49469 0
M  V30 1420 H 144.534 -2.27365 2.31809 0
M  V30 1421 H 145.545 0.0687731 5.17854 0
M  V30 1422 H 142.222 -2.01522 3.65644 0
M  V30 1423 H 143.612 0.659278 6.68658 0
M  V30 1424 N 146.332 -1.57332 0.0918853 0
M  V30 1425 C 147.264 -2.10869 -0.898168 0
M  V30 1426 C 148.277 -1.04521 -1.24817 0
M  V30 1427 O 149.466 -1.31977 -1.20184 0
M  V30 1428 C 146.566 -2.57083 -2.2082 0
M  V30 1429 C 145.739 -3.87229 -2.03402 0
M  V30 1430 C 144.798 -4.19324 -3.17889 0
M  V30 1431 O 143.824 -4.88598 -2.91994 0
M  V30 1432 N 145.026 -3.74471 -4.43567 0
M  V30 1433 H 147.791 -2.96439 -0.440943 0
M  V30 1434 H 145.352 -1.61631 -0.0933064 0
M  V30 1435 H 147.344 -2.75602 -2.96354 0
M  V30 1436 H 145.914 -1.76541 -2.57977 0
M  V30 1437 H 145.134 -3.7789 -1.12218 0
M  V30 1438 H 146.422 -4.72379 -1.89038 0
M  V30 1439 H 145.82 -3.18546 -4.67488 0
M  V30 1440 H 144.377 -3.98151 -5.16061 0
M  V30 1441 N 147.81 0.181792 -1.56548 0
M  V30 1442 C 149.226 0.53316 -1.50431 0
M  V30 1443 C 149.426 1.85184 -0.794297 0
M  V30 1444 O 148.482 2.50058 -0.350318 0
M  V30 1445 C 149.795 0.575597 -2.9514 0
M  V30 1446 C 151.343 0.663519 -3.05886 0
M  V30 1447 C 151.818 0.736946 -4.52032 0
M  V30 1448 N 153.309 0.800118 -4.56237 0
M  V30 1449 C 154.044 0.877327 -5.66649 0
M  V30 1450 N 153.54 0.916016 -6.86718 0
M  V30 1451 N 155.333 0.915542 -5.54594 0
M  V30 1452 H 147.484 -0.683025 -2.01118 0
M  V30 1453 H 149.747 -0.244988 -0.915797 0
M  V30 1454 H 149.453 -0.324482 -3.502 0
M  V30 1455 H 149.327 1.42572 -3.49218 0
M  V30 1456 H 151.714 1.55403 -2.50867 0
M  V30 1457 H 151.795 -0.21307 -2.54911 0
M  V30 1458 H 151.439 -0.149262 -5.07681 0
M  V30 1459 H 151.369 1.62953 -5.00753 0
M  V30 1460 H 153.86 0.778926 -3.69785 0
M  V30 1461 H 154.173 0.975813 -7.66614 0
M  V30 1462 H 152.518 0.884469 -6.89349 0
M  V30 1463 H 155.709 0.882245 -4.59711 0
M  V30 1464 H 155.882 0.972253 -6.40665 0
M  V30 1465 N 149.288 1.51039 0.449983 0
M  V30 1466 C 150.236 1.71995 1.5659 0
M  V30 1467 C 151.23 0.586029 1.5894 0
M  V30 1468 O 152.436 0.76709 1.62837 0
M  V30 1469 H 148.811 0.543233 0.520001 0
M  V30 1470 H 150.782 2.65562 1.36085 0
M  V30 1471 C 149.531 1.8506 2.9436 0
M  V30 1472 H 148.854 2.71712 2.93279 0
M  V30 1473 H 150.294 2.0374 3.71842 0
M  V30 1474 C 148.753 0.607277 3.31382 0
M  V30 1475 O 149.283 -0.243903 4.00959 0
M  V30 1476 N 147.489 0.455073 2.87015 0
M  V30 1477 H 147.036 1.14879 2.30566 0
M  V30 1478 H 146.994 -0.375611 3.12148 0
M  V30 1479 N 150.766 -0.704594 1.40972 0
M  V30 1480 C 151.714 -1.83994 1.42299 0
M  V30 1481 C 152.708 -1.66684 0.302111 0
M  V30 1482 O 153.914 -1.73655 0.473697 0
M  V30 1483 H 150.289 -0.606171 0.44504 0
M  V30 1484 H 152.26 -1.79992 2.38003 0
M  V30 1485 C 151.009 -3.21946 1.31323 0
M  V30 1486 H 150.332 -3.35878 2.16855 0
M  V30 1487 H 151.772 -4.01491 1.36311 0
M  V30 1488 C 150.231 -3.36891 0.0245977 0
M  V30 1489 O 150.761 -3.90687 -0.934153 0
M  V30 1490 N 148.967 -2.90559 -0.0485243 0
M  V30 1491 H 148.514 -2.46968 0.732419 0
M  V30 1492 H 148.472 -3.00937 -0.910171 0
M  V30 1493 N 152.244 -1.26651 -0.937939 0
M  V30 1494 C 153.49 -1.12553 -1.687 0
M  V30 1495 C 153.823 0.329782 -1.91379 0
M  V30 1496 O 153.098 1.24202 -1.4968 0
M  V30 1497 C 153.381 -1.89862 -3.05981 0
M  V30 1498 C 153.234 -3.43318 -2.90607 0
M  V30 1499 C 154.553 -1.69499 -4.0615 0
M  V30 1500 H 151.672 -0.410257 -0.612257 0
M  V30 1501 H 154.314 -1.55685 -1.08913 0
M  V30 1502 H 152.464 -1.53204 -3.57017 0
M  V30 1503 H 154.136 -3.89747 -2.46769 0
M  V30 1504 H 152.379 -3.70179 -2.26164 0
M  V30 1505 H 153.05 -3.92642 -3.8799 0
M  V30 1506 H 155.526 -2.01442 -3.64088 0
M  V30 1507 H 154.402 -2.26002 -5.00214 0
M  V30 1508 H 154.663 -0.640365 -4.37438 0
M  V30 1509 N 153.722 1.14298 -1.08507 0
M  V30 1510 C 154.97 1.84993 -0.813763 0
M  V30 1511 C 155.291 1.83405 0.662393 0
M  V30 1512 O 154.561 1.28319 1.48024 0
M  V30 1513 H 153.141 0.684966 -0.298045 0
M  V30 1514 H 155.803 1.385 -1.37126 0
M  V30 1515 H 154.899 2.89788 -1.15884 0
M  V30 1516 N 155.201 0.870884 1.31352 0
M  V30 1517 C 156.617 0.562932 1.49343 0
M  V30 1518 C 156.817 -0.902725 1.80148 0
M  V30 1519 O 155.873 -1.68484 1.88067 0
M  V30 1520 C 157.186 1.46393 2.62659 0
M  V30 1521 C 158.734 1.46607 2.76542 0
M  V30 1522 C 159.209 2.35266 3.92955 0
M  V30 1523 N 160.7 2.33151 4.00243 0
M  V30 1524 C 161.435 2.98471 4.89594 0
M  V30 1525 N 160.931 3.72964 5.8384 0
M  V30 1526 N 162.724 2.87775 4.82848 0
M  V30 1527 H 154.875 1.81923 1.09626 0
M  V30 1528 H 157.138 0.777934 0.541777 0
M  V30 1529 H 156.844 2.50689 2.46674 0
M  V30 1530 H 156.718 1.16314 3.58819 0
M  V30 1531 H 159.105 0.43069 2.9194 0
M  V30 1532 H 159.186 1.8071 1.81046 0
M  V30 1533 H 158.83 3.38881 3.78315 0
M  V30 1534 H 158.76 1.98487 4.87761 0
M  V30 1535 H 161.251 1.79006 3.32814 0
M  V30 1536 H 161.564 4.19932 6.4875 0
M  V30 1537 H 159.909 3.77073 5.83816 0
M  V30 1538 H 163.1 2.29116 4.08195 0
M  V30 1539 H 163.273 3.38961 5.52277 0
M  V30 1540 N 156.679 -1.44442 0.630414 0
M  V30 1541 C 158.09 -1.85434 0.217063 0
M  V30 1542 C 158.441 -1.52748 -1.23136 0
M  V30 1543 O 157.566 -0.965205 -1.93682 0
M  V30 1544 C 158.161 -3.36581 0.387168 0
M  V30 1545 C 156.72 -3.76389 0.0283297 0
M  V30 1546 C 155.867 -2.68296 0.700889 0
M  V30 1547 H 158.818 -1.34919 0.83562 0
M  V30 1548 H 158.839 -3.78657 -0.374086 0
M  V30 1549 H 158.351 -3.60339 1.44144 0
M  V30 1550 H 156.452 -3.58246 -1.02423 0
M  V30 1551 H 156.565 -4.77095 0.437892 0
M  V30 1552 H 154.929 -2.54335 0.136267 0
M  V30 1553 H 155.712 -2.94887 1.75774 0
M  V30 1554 N 158.157 -0.370918 -1.53173 0
M  V30 1555 C 159.12 0.460778 -2.24521 0
M  V30 1556 C 160.12 1.00536 -1.25496 0
M  V30 1557 O 161.31 0.890266 -1.49733 0
M  V30 1558 C 158.442 1.64457 -2.98608 0
M  V30 1559 H 159.635 -0.163613 -2.99453 0
M  V30 1560 H 157.188 -0.122699 -1.55818 0
M  V30 1561 H 157.923 2.30691 -2.2793 0
M  V30 1562 H 157.708 1.26099 -3.7127 0
M  V30 1563 H 159.198 2.23384 -3.5283 0
M  V30 1564 N 159.635 1.57281 -0.100228 0
M  V30 1565 C 160.86 1.99302 0.573881 0
M  V30 1566 C 161.285 0.979059 1.60611 0
M  V30 1567 O 160.643 -0.0517803 1.81226 0
M  V30 1568 C 160.691 3.40274 1.19358 0
M  V30 1569 O 159.795 3.41676 2.30935 0
M  V30 1570 H 159.136 0.647944 0.145138 0
M  V30 1571 H 161.666 2.03779 -0.183156 0
M  V30 1572 H 161.676 3.78078 1.53365 0
M  V30 1573 H 160.351 4.13594 0.437385 0
M  V30 1574 H 158.928 3.15672 1.98509 0
M  V30 1575 N 161.113 -0.173488 1.56642 0
M  V30 1576 C 162.529 -0.525174 1.50712 0
M  V30 1577 C 162.729 -1.8476 0.804107 0
M  V30 1578 O 161.785 -2.49869 0.363574 0
M  V30 1579 C 163.098 -0.559937 2.95441 0
M  V30 1580 C 164.646 -0.647288 3.06234 0
M  V30 1581 C 165.121 -0.712963 4.52417 0
M  V30 1582 N 166.612 -0.775911 4.56655 0
M  V30 1583 C 167.347 -0.847264 5.67106 0
M  V30 1584 N 166.843 -0.879585 6.87194 0
M  V30 1585 N 168.636 -0.886117 5.55071 0
M  V30 1586 H 160.787 0.693681 2.00753 0
M  V30 1587 H 163.05 0.249841 0.914485 0
M  V30 1588 H 162.756 0.343049 3.50023 0
M  V30 1589 H 162.63 -1.40718 3.49969 0
M  V30 1590 H 165.017 -1.5407 2.51687 0
M  V30 1591 H 165.098 0.226586 2.54794 0
M  V30 1592 H 164.742 0.176183 5.07594 0
M  V30 1593 H 164.672 -1.60295 5.0161 0
M  V30 1594 H 167.163 -0.759304 3.70193 0
M  V30 1595 H 167.476 -0.935144 7.67121 0
M  V30 1596 H 165.821 -0.847898 6.89808 0
M  V30 1597 H 169.012 -0.857853 4.60172 0
M  V30 1598 H 169.185 -0.938263 6.41171 0
M  V30 1599 N 162.591 -1.51276 -0.441967 0
M  V30 1600 C 163.816 -1.67799 -1.21895 0
M  V30 1601 C 164.241 -0.372864 -1.84367 0
M  V30 1602 O 163.599 0.666501 -1.68604 0
M  V30 1603 C 163.647 -2.79199 -2.28211 0
M  V30 1604 O 162.751 -2.42479 -3.33583 0
M  V30 1605 H 162.092 -0.559649 -0.357336 0
M  V30 1606 H 164.622 -1.97815 -0.522522 0
M  V30 1607 H 164.632 -3.03146 -2.73069 0
M  V30 1608 H 163.307 -3.73906 -1.82118 0
M  V30 1609 H 161.884 -2.29087 -2.94234 0
M  V30 1610 N 164.069 0.697108 -1.41344 0
M  V30 1611 C 165.017 1.83237 -1.43272 0
M  V30 1612 C 166.011 1.66522 -0.310947 0
M  V30 1613 O 167.217 1.73402 -0.482899 0
M  V30 1614 H 163.592 0.603802 -0.448249 0
M  V30 1615 H 165.563 1.78727 -2.38954 0
M  V30 1616 C 164.312 3.21245 -1.33029 0
M  V30 1617 H 163.635 3.34723 -2.18633 0
M  V30 1618 H 165.075 4.00763 -1.38439 0
M  V30 1619 C 163.534 3.36873 -0.0424635 0
M  V30 1620 O 164.064 3.91177 0.913421 0
M  V30 1621 N 162.27 2.90581 0.0331145 0
M  V30 1622 H 161.817 2.46577 -0.745506 0
M  V30 1623 H 161.775 3.01416 0.894199 0
M  V30 1624 N 165.547 1.27147 0.931209 0
M  V30 1625 C 166.477 1.12081 2.04842 0
M  V30 1626 C 167.458 0.0232364 1.70084 0
M  V30 1627 O 168.643 0.197085 1.93197 0
M  V30 1628 C 165.773 0.76354 3.38803 0
M  V30 1629 C 164.727 1.81396 3.87659 0
M  V30 1630 C 164.053 1.31075 5.18385 0
M  V30 1631 C 165.353 3.21739 4.11438 0
M  V30 1632 H 167.047 2.05537 2.17703 0
M  V30 1633 H 164.593 0.989603 1.04608 0
M  V30 1634 H 166.546 0.644982 4.16435 0
M  V30 1635 H 165.27 -0.206727 3.25945 0
M  V30 1636 H 163.929 1.92136 3.12217 0
M  V30 1637 H 163.577 0.330037 5.01916 0
M  V30 1638 H 163.277 2.013 5.52044 0
M  V30 1639 H 164.801 1.20506 5.98591 0
M  V30 1640 H 166.215 3.14019 4.79651 0
M  V30 1641 H 164.612 3.89644 4.56397 0
M  V30 1642 H 165.682 3.67054 3.16859 0
M  V30 1643 N 167.025 -1.13721 1.09112 0
M  V30 1644 C 167.972 -2.19031 0.727591 0
M  V30 1645 C 168.942 -1.63555 -0.289656 0
M  V30 1646 O 170.127 -1.90023 -0.172026 0
M  V30 1647 C 167.267 -3.4477 0.15082 0
M  V30 1648 C 166.38 -4.14365 1.22172 0
M  V30 1649 C 165.515 -5.27709 0.608042 0
M  V30 1650 C 164.554 -5.89147 1.66047 0
M  V30 1651 N 163.691 -6.93929 1.06806 0
M  V30 1652 H 168.531 -2.49475 1.62991 0
M  V30 1653 H 166.068 -1.22499 0.81439 0
M  V30 1654 H 168.026 -4.16714 -0.201358 0
M  V30 1655 H 166.656 -3.14787 -0.714783 0
M  V30 1656 H 165.708 -3.40737 1.69122 0
M  V30 1657 H 167.02 -4.56114 2.01895 0
M  V30 1658 H 166.174 -6.06355 0.204523 0
M  V30 1659 H 164.913 -4.872 -0.220769 0
M  V30 1660 H 163.918 -5.09198 2.07357 0
M  V30 1661 H 165.143 -6.31729 2.49189 0
M  V30 1662 H 163.089 -6.55483 0.260476 0
M  V30 1663 H 163.006 -7.34202 1.8023 0
M  V30 1664 H 164.274 -7.76434 0.690644 0
M  V30 1665 N 168.503 -0.877838 -1.30888 0
M  V30 1666 C 169.413 -0.343096 -2.32078 0
M  V30 1667 C 170.429 0.551022 -1.65045 0
M  V30 1668 O 171.605 0.445854 -1.96403 0
M  V30 1669 C 168.67 0.439905 -3.43898 0
M  V30 1670 C 167.731 -0.483111 -4.26573 0
M  V30 1671 C 166.964 0.262616 -5.33053 0
M  V30 1672 O 167.187 1.48967 -5.50604 0
M  V30 1673 O 166.121 -0.383593 -6.00676 0
M  V30 1674 H 169.947 -1.18203 -2.79753 0
M  V30 1675 H 167.532 -0.64145 -1.34929 0
M  V30 1676 H 169.414 0.883504 -4.12034 0
M  V30 1677 H 168.089 1.25526 -2.98371 0
M  V30 1678 H 166.996 -0.975374 -3.61161 0
M  V30 1679 H 168.329 -1.26427 -4.75686 0
M  V30 1680 N 169.982 1.44106 -0.638065 0
M  V30 1681 C 170.929 2.30715 0.062701 0
M  V30 1682 C 171.899 1.43882 0.829883 0
M  V30 1683 O 173.084 1.72775 0.809532 0
M  V30 1684 C 170.224 3.29258 1.03358 0
M  V30 1685 C 169.337 4.31192 0.26409 0
M  V30 1686 C 168.472 5.16825 1.22741 0
M  V30 1687 C 167.511 6.10462 0.447475 0
M  V30 1688 N 166.648 6.8877 1.36161 0
M  V30 1689 H 171.488 2.90096 -0.681781 0
M  V30 1690 H 169.025 1.42925 -0.347988 0
M  V30 1691 H 170.983 3.84886 1.60992 0
M  V30 1692 H 169.613 2.71562 1.74511 0
M  V30 1693 H 168.665 3.77981 -0.428295 0
M  V30 1694 H 169.977 4.97619 -0.343052 0
M  V30 1695 H 169.131 5.77004 1.87487 0
M  V30 1696 H 167.87 4.50488 1.86847 0
M  V30 1697 H 166.875 5.49386 -0.213433 0
M  V30 1698 H 168.1 6.78837 -0.188968 0
M  V30 1699 H 166.046 6.25096 1.98975 0
M  V30 1700 H 165.963 7.51663 0.808656 0
M  V30 1701 H 167.231 7.53467 1.99769 0
M  V30 1702 N 171.46 0.379036 1.52974 0
M  V30 1703 C 172.393 -0.504932 2.22544 0
M  V30 1704 C 173.371 -1.0723 1.22231 0
M  V30 1705 O 174.555 -1.12589 1.51182 0
M  V30 1706 C 171.682 -1.69794 2.93066 0
M  V30 1707 C 170.728 -1.25678 4.07563 0
M  V30 1708 S 171.561 -0.246852 5.34931 0
M  V30 1709 C 172.717 -1.44588 6.08971 0
M  V30 1710 H 172.95 0.0858666 2.97176 0
M  V30 1711 H 170.483 0.163183 1.53535 0
M  V30 1712 H 172.441 -2.38219 3.34308 0
M  V30 1713 H 171.102 -2.26002 2.18133 0
M  V30 1714 H 170.295 -2.14725 4.5597 0
M  V30 1715 H 169.897 -0.651584 3.6828 0
M  V30 1716 H 172.189 -2.37469 6.34519 0
M  V30 1717 H 173.132 -1.00292 7.00962 0
M  V30 1718 H 173.54 -1.65804 5.39601 0
M  V30 1719 N 172.938 -1.57226 0.108567 0
M  V30 1720 C 173.886 -2.16002 -0.862885 0
M  V30 1721 C 174.88 -1.10644 -1.28274 0
M  V30 1722 O 176.086 -1.28966 -1.2557 0
M  V30 1723 H 172.461 -0.691148 -0.296342 0
M  V30 1724 H 174.432 -2.96427 -0.342575 0
M  V30 1725 C 173.181 -2.76576 -2.10716 0
M  V30 1726 H 172.504 -3.5734 -1.793 0
M  V30 1727 H 173.944 -3.21253 -2.76717 0
M  V30 1728 C 172.403 -1.73137 -2.89007 0
M  V30 1729 O 172.933 -1.17842 -3.84026 0
M  V30 1730 N 171.139 -1.43317 -2.52801 0
M  V30 1731 H 170.686 -1.88473 -1.75601 0
M  V30 1732 H 170.644 -0.743485 -3.05483 0
M  V30 1733 N 174.416 0.165178 -1.56732 0
M  V30 1734 C 175.379 1.18822 -1.95995 0
M  V30 1735 C 176.379 1.3685 -0.84431 0
M  V30 1736 O 177.569 1.34152 -1.11126 0
M  V30 1737 C 174.701 2.5521 -2.26011 0
M  V30 1738 H 175.894 0.851825 -2.87548 0
M  V30 1739 H 173.447 0.407857 -1.50885 0
M  V30 1740 H 174.182 2.93852 -1.37191 0
M  V30 1741 H 173.967 2.43489 -3.07336 0
M  V30 1742 H 175.457 3.28927 -2.57288 0
M  V30 1743 N 175.894 1.51508 0.433938 0
M  V30 1744 C 177.305 1.56784 1.01369 0
M  V30 1745 C 177.656 0.393349 1.92217 0
M  V30 1746 O 176.781 -0.489441 2.10792 0
M  V30 1747 C 177.376 2.84144 1.8452 0
M  V30 1748 C 175.935 2.9198 2.37539 0
M  V30 1749 C 175.082 2.51482 1.16843 0
M  V30 1750 H 178.033 1.57236 0.215081 0
M  V30 1751 H 178.054 2.68098 2.70007 0
M  V30 1752 H 177.566 3.69607 1.18373 0
M  V30 1753 H 175.667 2.10955 3.0713 0
M  V30 1754 H 175.78 3.95704 2.70103 0
M  V30 1755 H 174.144 2.04758 1.51481 0
M  V30 1756 H 174.927 3.39293 0.523015 0
M  V30 1757 N 177.372 -0.689602 1.41712 0
M  V30 1758 C 178.32 -1.82475 1.44242 0
M  V30 1759 C 179.314 -1.66354 0.319774 0
M  V30 1760 O 180.52 -1.73143 0.492089 0
M  V30 1761 H 176.895 -0.601416 0.451445 0
M  V30 1762 H 178.866 -1.77458 2.39899 0
M  V30 1763 C 177.615 -3.20535 1.3473 0
M  V30 1764 H 176.938 -3.33559 2.20405 0
M  V30 1765 H 178.378 -4.00023 1.40562 0
M  V30 1766 C 176.837 -3.36846 0.0603281 0
M  V30 1767 O 177.367 -3.91656 -0.892663 0
M  V30 1768 N 175.573 -2.90595 -0.0177039 0
M  V30 1769 H 175.12 -2.46178 0.758572 0
M  V30 1770 H 175.078 -3.01886 -0.878201 0
M  V30 1771 N 178.85 -1.27639 -0.924453 0
M  V30 1772 C 179.782 -1.06442 -2.02985 0
M  V30 1773 C 180.795 -0.0194771 -1.62788 0
M  V30 1774 O 181.984 -0.261388 -1.76576 0
M  V30 1775 C 179.084 -0.59327 -3.33667 0
M  V30 1776 C 178.257 -1.71123 -4.02537 0
M  V30 1777 C 177.316 -1.23527 -5.11495 0
M  V30 1778 O 176.342 -1.93553 -5.35281 0
M  V30 1779 N 177.544 -0.0926678 -5.80426 0
M  V30 1780 H 180.309 -2.01633 -2.2173 0
M  V30 1781 H 177.87 -1.19248 -1.09505 0
M  V30 1782 H 179.862 -0.258686 -4.03872 0
M  V30 1783 H 178.432 0.265502 -3.1147 0
M  V30 1784 H 177.652 -2.21593 -3.26022 0
M  V30 1785 H 178.94 -2.46145 -4.45298 0
M  V30 1786 H 178.338 0.491741 -5.63559 0
M  V30 1787 H 176.895 0.182714 -6.51544 0
M  V30 1788 N 180.328 1.1314 -1.09713 0
M  V30 1789 C 181.739 1.66029 -0.853885 0
M  V30 1790 C 182.09 1.86241 0.617142 0
M  V30 1791 O 181.215 1.5834 1.47503 0
M  V30 1792 C 181.81 3.01599 -1.5435 0
M  V30 1793 C 180.369 3.51467 -1.34714 0
M  V30 1794 C 179.516 2.26648 -1.59769 0
M  V30 1795 H 182.467 0.970226 -1.25588 0
M  V30 1796 H 182.488 3.67709 -0.978267 0
M  V30 1797 H 182 2.86856 -2.6141 0
M  V30 1798 H 180.101 3.71408 -0.297838 0
M  V30 1799 H 180.214 4.314 -2.08401 0
M  V30 1800 H 178.578 2.33385 -1.01998 0
M  V30 1801 H 179.361 2.14467 -2.68065 0
M  V30 1802 N 181.806 0.884767 1.30421 0
M  V30 1803 C 183.217 0.553656 1.78302 0
M  V30 1804 C 183.568 -0.930153 1.7275 0
M  V30 1805 O 182.693 -1.72681 1.30423 0
M  V30 1806 C 183.288 0.998234 3.2376 0
M  V30 1807 C 181.847 0.71854 3.69478 0
M  V30 1808 C 180.994 1.18132 2.50879 0
M  V30 1809 H 183.945 1.06901 1.17294 0
M  V30 1810 H 183.966 0.327118 3.79091 0
M  V30 1811 H 183.478 2.0782 3.27769 0
M  V30 1812 H 181.579 -0.349444 3.70958 0
M  V30 1813 H 181.692 1.30595 4.60958 0
M  V30 1814 H 180.056 0.600669 2.47516 0
M  V30 1815 H 180.839 2.26902 2.57624 0
M  V30 1816 N 183.284 -1.43765 0.645699 0
M  V30 1817 C 184.234 -2.27884 -0.0726442 0
M  V30 1818 C 185.218 -1.39483 -0.802086 0
M  V30 1819 O 186.41 -1.63174 -0.685791 0
M  V30 1820 C 183.539 -3.27055 -1.04356 0
M  V30 1821 C 182.625 -4.22944 -0.312985 0
M  V30 1822 N 183.016 -5.01391 0.666386 0
M  V30 1823 C 181.314 -4.42528 -0.55546 0
M  V30 1824 C 182.015 -5.71217 1.09935 0
M  V30 1825 N 180.991 -5.41856 0.435137 0
M  V30 1826 H 184.793 -2.85949 0.678988 0
M  V30 1827 H 182.307 -1.55378 0.472368 0
M  V30 1828 H 184.304 -3.86089 -1.57292 0
M  V30 1829 H 182.964 -2.70551 -1.79534 0
M  V30 1830 H 183.975 -5.07252 1.04481 0
M  V30 1831 H 180.652 -3.97104 -1.28899 0
M  V30 1832 H 182.042 -6.44202 1.90929 0
M  V30 1833 N 184.763 -0.387143 -1.52771 0
M  V30 1834 C 185.71 0.449048 -2.26389 0
M  V30 1835 C 186.68 1.05961 -1.27912 0
M  V30 1836 O 187.865 1.08804 -1.56737 0
M  V30 1837 C 185.005 1.57155 -3.0724 0
M  V30 1838 C 184.118 0.984066 -4.20643 0
M  V30 1839 C 183.253 2.07745 -4.88892 0
M  V30 1840 C 182.292 1.46574 -5.94292 0
M  V30 1841 N 181.429 2.49834 -6.56146 0
M  V30 1842 H 186.269 -0.185205 -2.97424 0
M  V30 1843 H 183.806 -0.103164 -1.46738 0
M  V30 1844 H 185.764 2.23309 -3.52405 0
M  V30 1845 H 184.394 2.17615 -2.38419 0
M  V30 1846 H 183.446 0.212193 -3.79808 0
M  V30 1847 H 184.758 0.497029 -4.96318 0
M  V30 1848 H 183.912 2.81673 -5.3735 0
M  V30 1849 H 182.651 2.59807 -4.12737 0
M  V30 1850 H 181.656 0.711696 -5.45174 0
M  V30 1851 H 182.881 0.953088 -6.72379 0
M  V30 1852 H 180.827 3.0107 -5.82832 0
M  V30 1853 H 180.744 2.05879 -7.27427 0
M  V30 1854 H 182.012 3.23399 -7.09249 0
M  V30 1855 N 186.241 1.57166 -0.116904 0
M  V30 1856 C 187.518 1.86645 0.585049 0
M  V30 1857 C 187.898 1.0177 1.84949 0
M  V30 1858 O 187.246 0.0960379 2.28298 0
M  V30 1859 C 187.456 3.37736 0.879507 0
M  V30 1860 C 188.804 4.06289 1.23348 0
M  V30 1861 O 189.828 3.42743 0.969836 0
M  V30 1862 O 188.687 5.18455 1.7282 0
M  V30 1863 H 185.781 0.772593 0.295007 0
M  V30 1864 H 188.327 1.69025 -0.151249 0
M  V30 1865 H 187.099 3.91296 -0.0166136 0
M  V30 1866 H 186.722 3.6078 1.67103 0
M  V30 1867 N 187.719 -0.156864 1.56817 0
M  V30 1868 C 188.947 -0.886316 1.86955 0
M  V30 1869 C 189.362 -1.75185 0.703975 0
M  V30 1870 O 188.719 -1.79555 -0.326552 0
M  V30 1871 C 188.77 -1.75117 3.16253 0
M  V30 1872 O 188.491 -0.920537 4.2832 0
M  V30 1873 C 189.992 -2.58905 3.59837 0
M  V30 1874 H 187.212 -0.25678 0.619923 0
M  V30 1875 H 189.756 -0.152615 2.0393 0
M  V30 1876 H 187.911 -2.43805 3.01062 0
M  V30 1877 H 188.325 -1.51337 5.02192 0
M  V30 1878 H 189.799 -3.1518 4.53172 0
M  V30 1879 H 190.276 -3.34472 2.84649 0
M  V30 1880 H 190.882 -1.95526 3.7769 0
M  V30 1881 N 189.197 -1.51736 -0.425897 0
M  V30 1882 C 190.445 -1.64644 -1.17204 0
M  V30 1883 C 190.766 -0.370486 -1.91448 0
M  V30 1884 O 190.036 0.614088 -1.86026 0
M  V30 1885 H 188.616 -0.606819 -0.435638 0
M  V30 1886 H 191.278 -1.88713 -0.487177 0
M  V30 1887 H 190.374 -2.47958 -1.89534 0
M  V30 1888 N 190.675 0.682077 -1.42076 0
M  V30 1889 C 191.622 1.79578 -1.44984 0
M  V30 1890 C 192.592 1.6332 -0.302614 0
M  V30 1891 O 193.777 1.83978 -0.505633 0
M  V30 1892 C 190.917 3.1756 -1.35091 0
M  V30 1893 C 190.03 3.45156 -2.59791 0
M  V30 1894 C 189.165 4.72826 -2.42093 0
M  V30 1895 C 188.204 4.93433 -3.62202 0
M  V30 1896 N 187.341 6.12338 -3.43491 0
M  V30 1897 H 192.181 1.76427 -2.40161 0
M  V30 1898 H 189.718 0.861376 -1.19242 0
M  V30 1899 H 191.676 3.97287 -1.27354 0
M  V30 1900 H 190.306 3.19854 -0.435133 0
M  V30 1901 H 189.358 2.59736 -2.77923 0
M  V30 1902 H 190.67 3.5628 -3.49094 0
M  V30 1903 H 189.824 5.60631 -2.319 0
M  V30 1904 H 188.563 4.63973 -1.50268 0
M  V30 1905 H 187.568 4.04073 -3.72834 0
M  V30 1906 H 188.793 5.04136 -4.54998 0
M  V30 1907 H 186.739 6.04672 -2.54377 0
M  V30 1908 H 186.656 6.2429 -4.26377 0
M  V30 1909 H 187.924 7.02841 -3.37097 0
M  V30 1910 N 192.153 1.28127 0.917671 0
M  V30 1911 C 193.381 1.17892 1.70026 0
M  V30 1912 C 193.796 -0.262958 1.8696 0
M  V30 1913 O 193.153 -1.17811 1.3938 0
M  V30 1914 C 193.204 1.86872 3.09453 0
M  V30 1915 O 192.925 3.25428 2.93306 0
M  V30 1916 C 194.426 1.8289 4.03815 0
M  V30 1917 H 191.646 0.40942 0.531617 0
M  V30 1918 H 194.19 1.69181 1.14883 0
M  V30 1919 H 192.345 1.39464 3.61426 0
M  V30 1920 H 192.759 3.59918 3.81523 0
M  V30 1921 H 194.233 2.35751 4.99125 0
M  V30 1922 H 194.71 0.800412 4.31845 0
M  V30 1923 H 195.316 2.29959 3.57769 0
M  V30 1924 N 193.631 -1.12557 1.10312 0
M  V30 1925 C 194.877 -1.84311 0.846011 0
M  V30 1926 C 195.21 -1.83805 -0.626859 0
M  V30 1927 O 194.485 -1.28268 -1.46211 0
M  V30 1928 C 194.768 -3.32048 1.39341 0
M  V30 1929 C 194.621 -3.41016 2.93305 0
M  V30 1930 C 195.94 -4.27764 1.03468 0
M  V30 1931 H 193.059 -0.669192 0.30879 0
M  V30 1932 H 195.701 -1.32057 1.36605 0
M  V30 1933 H 193.851 -3.76678 0.951087 0
M  V30 1934 H 195.523 -3.05031 3.46055 0
M  V30 1935 H 193.766 -2.81603 3.29973 0
M  V30 1936 H 194.437 -4.44948 3.26689 0
M  V30 1937 H 196.913 -3.91253 1.41633 0
M  V30 1938 H 195.789 -5.29549 1.44463 0
M  V30 1939 H 196.05 -4.42064 -0.0560404 0
M  V30 1940 N 195.109 -0.891671 -1.2995 0
M  V30 1941 C 196.019 -0.367691 -2.31701 0
M  V30 1942 C 197.035 0.533486 -1.6562 0
M  V30 1943 O 198.211 0.424997 -1.96865 0
M  V30 1944 C 195.276 0.403406 -3.44345 0
M  V30 1945 C 194.337 -0.528328 -4.26037 0
M  V30 1946 C 193.57 0.206063 -5.33302 0
M  V30 1947 O 193.793 1.43119 -5.52153 0
M  V30 1948 O 192.727 -0.447281 -6.00236 0
M  V30 1949 H 196.553 -1.21163 -2.78484 0
M  V30 1950 H 194.138 -0.655725 -1.34241 0
M  V30 1951 H 196.02 0.839753 -4.12948 0
M  V30 1952 H 194.695 1.22354 -2.99685 0
M  V30 1953 H 193.602 -1.01362 -3.60106 0
M  V30 1954 H 194.935 -1.31465 -4.74318 0
M  V30 1955 N 196.587 1.43421 -0.653314 0
M  V30 1956 C 197.535 2.32546 0.0501531 0
M  V30 1957 C 198.529 1.48617 0.812985 0
M  V30 1958 O 199.735 1.64825 0.723375 0
M  V30 1959 H 196.11 0.751185 0.0350032 0
M  V30 1960 H 198.081 2.89602 -0.719261 0
M  V30 1961 C 196.83 3.32925 1.00279 0
M  V30 1962 H 196.153 3.97532 0.425236 0
M  V30 1963 H 197.593 3.9792 1.46409 0
M  V30 1964 C 196.052 2.63532 2.09886 0
M  V30 1965 O 196.582 2.45092 3.18265 0
M  V30 1966 N 194.788 2.22905 1.86445 0
M  V30 1967 H 194.335 2.38103 0.98309 0
M  V30 1968 H 194.293 1.76805 2.59976 0
M  V30 1969 N 198.065 0.39524 1.52563 0
M  V30 1970 C 199.311 -0.185318 2.01952 0
M  V30 1971 C 199.644 -1.45964 1.28095 0
M  V30 1972 O 198.919 -1.90689 0.38315 0
M  V30 1973 C 199.202 -0.447193 3.57312 0
M  V30 1974 C 199.055 0.842828 4.41833 0
M  V30 1975 C 200.374 -1.23529 4.22408 0
M  V30 1976 H 197.493 -0.0658788 0.73405 0
M  V30 1977 H 200.135 0.525975 1.82575 0
M  V30 1978 H 198.285 -1.05312 3.73954 0
M  V30 1979 H 199.957 1.4795 4.36931 0
M  V30 1980 H 198.2 1.45686 4.08605 0
M  V30 1981 H 198.871 0.614165 5.48573 0
M  V30 1982 H 201.347 -0.722445 4.0978 0
M  V30 1983 H 200.223 -1.38727 5.3108 0
M  V30 1984 H 200.484 -2.25213 3.80436 0
M  V30 1985 N 199.544 -1.57102 0.125237 0
M  V30 1986 C 200.454 -2.19191 -0.8362 0
M  V30 1987 C 201.47 -1.16985 -1.28805 0
M  V30 1988 O 202.646 -1.49479 -1.34974 0
M  V30 1989 C 199.711 -2.78407 -2.06617 0
M  V30 1990 C 198.772 -3.9567 -1.66565 0
M  V30 1991 C 198.005 -4.52052 -2.83698 0
M  V30 1992 O 198.228 -4.07326 -3.99302 0
M  V30 1993 O 197.162 -5.42645 -2.60423 0
M  V30 1994 H 200.988 -3.01816 -0.337776 0
M  V30 1995 H 198.573 -1.4906 -0.100695 0
M  V30 1996 H 200.455 -3.16129 -2.7864 0
M  V30 1997 H 199.13 -1.9881 -2.55453 0
M  V30 1998 H 198.037 -3.62705 -0.916296 0
M  V30 1999 H 199.37 -4.76722 -1.22464 0
M  V30 2000 N 201.022 0.148545 -1.56898 0
M  V30 2001 C 201.932 1.20293 -2.01412 0
M  V30 2002 C 202.948 1.47107 -0.929273 0
M  V30 2003 O 204.124 1.58807 -1.23863 0
M  V30 2004 C 201.189 2.51682 -2.38447 0
M  V30 2005 C 200.25 2.32529 -3.60872 0
M  V30 2006 C 199.483 3.57653 -3.96132 0
M  V30 2007 O 199.706 4.63771 -3.32073 0
M  V30 2008 O 198.64 3.50408 -4.89385 0
M  V30 2009 H 202.466 0.855025 -2.91416 0
M  V30 2010 H 200.051 0.357151 -1.45068 0
M  V30 2011 H 201.933 3.29147 -2.63135 0
M  V30 2012 H 200.608 2.86006 -1.51599 0
M  V30 2013 H 199.515 1.53019 -3.41373 0
M  V30 2014 H 200.848 2.03121 -4.48333 0
M  V30 2015 N 202.5 1.5196 0.417844 0
M  V30 2016 C 203.73 1.69181 1.18581 0
M  V30 2017 C 204.138 0.397104 1.84986 0
M  V30 2018 O 203.481 -0.636011 1.72339 0
M  V30 2019 C 203.543 2.76497 2.29759 0
M  V30 2020 C 203.207 4.18514 1.83563 0
M  V30 2021 C 204.204 5.02648 1.32821 0
M  V30 2022 C 201.889 4.64708 1.90661 0
M  V30 2023 C 203.883 6.31044 0.897894 0
M  V30 2024 C 201.57 5.93096 1.47241 0
M  V30 2025 C 202.568 6.76093 0.968891 0
M  V30 2026 O 202.256 8.02078 0.540924 0
M  V30 2027 H 201.988 0.570457 0.362705 0
M  V30 2028 H 204.542 1.99249 0.498885 0
M  V30 2029 H 202.772 2.41786 3.01789 0
M  V30 2030 H 204.461 2.82403 2.91553 0
M  V30 2031 H 205.227 4.68154 1.26716 0
M  V30 2032 H 201.106 4.00216 2.28797 0
M  V30 2033 H 204.65 6.95776 0.504192 0
M  V30 2034 H 200.547 6.271 1.53022 0
M  V30 2035 H 201.315 8.15794 0.66502 0
M  V30 2036 N 203.978 -0.674533 1.42435 0
M  V30 2037 C 205.203 -1.46784 1.46524 0
M  V30 2038 C 205.628 -1.87938 0.078066 0
M  V30 2039 O 204.986 -1.56014 -0.92354 0
M  V30 2040 C 205.034 -2.69307 2.39805 0
M  V30 2041 O 204.138 -3.67587 1.86959 0
M  V30 2042 H 203.479 -0.440959 0.496439 0
M  V30 2043 H 206.009 -0.827326 1.87127 0
M  V30 2044 H 206.019 -3.17374 2.56393 0
M  V30 2045 H 204.694 -2.38692 3.40586 0
M  V30 2046 H 203.271 -3.2662 1.79927 0
M  V30 2047 N 205.456 -1.28612 -0.910864 0
M  V30 2048 C 206.686 -1.1862 -1.69153 0
M  V30 2049 C 207.094 0.257324 -1.87442 0
M  V30 2050 O 206.437 1.18543 -1.40332 0
M  V30 2051 C 206.499 -1.81606 -3.10257 0
M  V30 2052 C 206.163 -3.30864 -3.15243 0
M  V30 2053 C 207.16 -4.27256 -2.96223 0
M  V30 2054 C 204.845 -3.71871 -3.37664 0
M  V30 2055 C 206.839 -5.62631 -2.99541 0
M  V30 2056 C 204.526 -5.07371 -3.40614 0
M  V30 2057 C 205.524 -6.02561 -3.21573 0
M  V30 2058 O 205.212 -7.35589 -3.2429 0
M  V30 2059 H 204.944 -0.412633 -0.535453 0
M  V30 2060 H 207.498 -1.70306 -1.14827 0
M  V30 2061 H 205.728 -1.24418 -3.66138 0
M  V30 2062 H 207.417 -1.66092 -3.70362 0
M  V30 2063 H 208.183 -3.9691 -2.78725 0
M  V30 2064 H 204.062 -2.98241 -3.5153 0
M  V30 2065 H 207.606 -6.36907 -2.84597 0
M  V30 2066 H 203.503 -5.37366 -3.57642 0
M  V30 2067 H 204.271 -7.44252 -3.40633 0
M  V30 2068 N 206.934 1.1197 -1.10907 0
M  V30 2069 C 207.881 2.17846 -0.762345 0
M  V30 2070 C 208.851 1.63995 0.263599 0
M  V30 2071 O 210.036 1.90273 0.141773 0
M  V30 2072 C 207.176 3.44487 -0.205651 0
M  V30 2073 C 206.289 4.12369 -1.28748 0
M  V30 2074 C 205.424 5.26674 -0.691919 0
M  V30 2075 C 204.463 5.86431 -1.75399 0
M  V30 2076 N 203.6 6.92142 -1.17833 0
M  V30 2077 H 208.44 2.46851 -1.6694 0
M  V30 2078 H 205.977 1.21188 -0.833776 0
M  V30 2079 H 207.935 4.16981 0.135037 0
M  V30 2080 H 206.565 3.15884 0.664613 0
M  V30 2081 H 205.617 3.38003 -1.74522 0
M  V30 2082 H 206.929 4.52844 -2.09125 0
M  V30 2083 H 206.083 6.05953 -0.300963 0
M  V30 2084 H 204.822 4.8749 0.143232 0
M  V30 2085 H 203.827 5.05835 -2.15432 0
M  V30 2086 H 205.052 6.27685 -2.59208 0
M  V30 2087 H 202.998 6.54985 -0.364725 0
M  V30 2088 H 202.915 7.31242 -1.91887 0
M  V30 2089 H 204.183 7.75237 -0.81408 0
M  V30 2090 N 208.412 0.89855 1.29475 0
M  V30 2091 C 209.344 0.332726 2.26772 0
M  V30 2092 C 210.357 -0.520323 1.54261 0
M  V30 2093 O 211.546 -0.337668 1.75277 0
M  V30 2094 C 208.646 -0.544334 3.345 0
M  V30 2095 C 207.819 0.282728 4.36485 0
M  V30 2096 C 206.878 -0.526982 5.23555 0
M  V30 2097 O 205.904 0.0551165 5.69173 0
M  V30 2098 N 207.106 -1.83331 5.5079 0
M  V30 2099 H 209.871 1.16897 2.75962 0
M  V30 2100 H 207.432 0.762919 1.42798 0
M  V30 2101 H 209.424 -1.09239 3.89678 0
M  V30 2102 H 207.994 -1.28127 2.85136 0
M  V30 2103 H 207.214 1.01221 3.80983 0
M  V30 2104 H 208.502 0.84918 5.01664 0
M  V30 2105 H 207.9 -2.32898 5.15534 0
M  V30 2106 H 206.457 -2.32852 6.08788 0
M  V30 2107 N 209.89 -1.43072 0.660911 0
M  V30 2108 C 210.8 -2.34585 -0.0264163 0
M  V30 2109 C 211.816 -1.54316 -0.803898 0
M  V30 2110 O 212.992 -1.86939 -0.749391 0
M  V30 2111 C 210.057 -3.32689 -0.975639 0
M  V30 2112 C 209.118 -4.2886 -0.194236 0
M  V30 2113 C 208.351 -5.22278 -1.09825 0
M  V30 2114 O 208.574 -5.20299 -2.33763 0
M  V30 2115 O 207.508 -5.99228 -0.566513 0
M  V30 2116 H 211.334 -2.94869 0.727034 0
M  V30 2117 H 208.919 -1.43342 0.42111 0
M  V30 2118 H 210.801 -3.92995 -1.52094 0
M  V30 2119 H 209.476 -2.74898 -1.70918 0
M  V30 2120 H 208.383 -3.72011 0.394835 0
M  V30 2121 H 209.716 -4.89655 0.499899 0
M  V30 2122 N 211.368 -0.403325 -1.52352 0
M  V30 2123 C 212.315 0.425011 -2.26853 0
M  V30 2124 C 213.285 1.04598 -1.29029 0
M  V30 2125 O 214.47 1.07135 -1.57882 0
M  V30 2126 C 211.61 1.53888 -3.08889 0
M  V30 2127 C 210.723 0.939396 -4.21663 0
M  V30 2128 C 209.858 2.02547 -4.91068 0
M  V30 2129 C 208.897 1.40263 -5.95813 0
M  V30 2130 N 208.034 2.4286 -6.58759 0
M  V30 2131 H 212.874 -0.21674 -2.97211 0
M  V30 2132 H 210.411 -0.118722 -1.4662 0
M  V30 2133 H 212.369 2.19558 -3.54753 0
M  V30 2134 H 210.999 2.15074 -2.40714 0
M  V30 2135 H 210.051 0.171898 -3.80011 0
M  V30 2136 H 211.363 0.44436 -4.96817 0
M  V30 2137 H 210.517 2.75958 -5.40308 0
M  V30 2138 H 209.256 2.55415 -4.15469 0
M  V30 2139 H 208.261 0.653833 -5.45898 0
M  V30 2140 H 209.486 0.881719 -6.73352 0
M  V30 2141 H 207.432 2.94871 -5.85992 0
M  V30 2142 H 207.349 1.98152 -7.2957 0
M  V30 2143 H 208.617 3.15858 -7.12639 0
M  V30 2144 N 212.846 1.57033 -0.133567 0
M  V30 2145 C 213.793 2.16074 0.811208 0
M  V30 2146 C 214.763 1.08979 1.2535 0
M  V30 2147 O 215.948 1.36958 1.32843 0
M  V30 2148 C 213.088 2.77595 2.05024 0
M  V30 2149 C 212.201 3.99042 1.65498 0
M  V30 2150 C 211.336 4.48603 2.84479 0
M  V30 2151 C 210.375 5.62547 2.41262 0
M  V30 2152 N 209.512 6.06787 3.53206 0
M  V30 2153 H 214.352 2.96477 0.300906 0
M  V30 2154 H 211.889 1.46462 0.136822 0
M  V30 2155 H 213.847 3.11402 2.77642 0
M  V30 2156 H 212.477 1.99859 2.53488 0
M  V30 2157 H 211.529 3.71302 0.826981 0
M  V30 2158 H 212.841 4.81629 1.29748 0
M  V30 2159 H 211.995 4.84395 3.65303 0
M  V30 2160 H 210.734 3.64995 3.23465 0
M  V30 2161 H 209.739 5.26345 1.58874 0
M  V30 2162 H 210.964 6.47931 2.03377 0
M  V30 2163 H 208.91 5.26117 3.91838 0
M  V30 2164 H 208.827 6.84266 3.21427 0
M  V30 2165 H 210.095 6.4722 4.34427 0
M  V30 2166 N 214.325 -0.140222 1.56975 0
M  V30 2167 C 215.574 -0.850152 1.82908 0
M  V30 2168 C 215.887 -1.82028 0.715892 0
M  V30 2169 O 217.093 -2.57485 0.861016 0
M  V30 2170 C 215.549 -1.5625 3.24213 0
M  V30 2171 C 215.157 -0.63443 4.43485 0
M  V30 2172 C 216.901 -2.25881 3.59413 0
M  V30 2173 C 214.808 -1.34879 5.75814 0
M  V30 2174 H 213.738 -0.321221 0.682153 0
M  V30 2175 H 216.389 -0.102874 1.83211 0
M  V30 2176 H 214.771 -2.35565 3.18316 0
M  V30 2177 H 215.945 0.12398 4.60633 0
M  V30 2178 H 214.26 -0.0461836 4.16374 0
M  V30 2179 H 216.857 -2.79978 4.5554 0
M  V30 2180 H 217.2 -3.02693 2.85802 0
M  V30 2181 H 217.733 -1.53477 3.67001 0
M  V30 2182 H 214.472 -0.622385 6.52539 0
M  V30 2183 H 213.992 -2.07974 5.6259 0
M  V30 2184 H 215.671 -1.88784 6.18845 0
M  V30 2185 N 215.803 -1.52179 -0.40978 0
M  V30 2186 C 217.219 -1.40968 -0.74835 0
M  V30 2187 C 217.419 -0.513657 -1.94843 0
M  V30 2188 O 216.475 0.0208026 -2.52491 0
M  V30 2189 C 217.788 -2.83483 -1.0029 0
M  V30 2190 C 219.336 -2.92821 -1.10565 0
M  V30 2191 C 219.811 -4.36303 -1.39296 0
M  V30 2192 N 221.302 -4.39535 -1.46162 0
M  V30 2193 C 222.037 -5.47614 -1.70018 0
M  V30 2194 N 221.533 -6.65812 -1.91483 0
M  V30 2195 N 223.326 -5.35129 -1.72027 0
M  V30 2196 H 215.477 -2.0897 0.380186 0
M  V30 2197 H 217.74 -0.94185 0.107805 0
M  V30 2198 H 217.446 -3.51168 -0.193461 0
M  V30 2199 H 217.32 -3.24487 -1.92323 0
M  V30 2200 H 219.707 -2.25318 -1.90568 0
M  V30 2201 H 219.788 -2.55276 -0.16369 0
M  V30 2202 H 219.432 -5.04366 -0.598109 0
M  V30 2203 H 219.362 -4.71385 -2.34743 0
M  V30 2204 H 221.853 -3.54332 -1.31367 0
M  V30 2205 H 222.166 -7.43964 -2.09134 0
M  V30 2206 H 220.511 -6.68879 -1.88749 0
M  V30 2207 H 223.702 -4.41764 -1.54796 0
M  V30 2208 H 223.875 -6.19433 -1.9028 0
M  V30 2209 N 217.281 0.66697 -1.42791 0
M  V30 2210 C 218.244 1.76211 -1.46568 0
M  V30 2211 C 219.244 1.56896 -0.352196 0
M  V30 2212 O 220.434 1.63044 -0.613364 0
M  V30 2213 C 217.566 3.14935 -1.30494 0
M  V30 2214 H 218.759 1.74247 -2.44086 0
M  V30 2215 H 216.312 0.877342 -1.29354 0
M  V30 2216 H 217.047 3.2252 -0.339301 0
M  V30 2217 H 216.832 3.30359 -2.11199 0
M  V30 2218 H 218.322 3.94821 -1.36038 0
M  V30 2219 N 218.759 1.29093 0.90403 0
M  V30 2220 C 219.722 1.1386 1.98919 0
M  V30 2221 C 220.722 0.0753457 1.60623 0
M  V30 2222 O 221.912 0.321931 1.71199 0
M  V30 2223 C 219.044 0.740198 3.32767 0
M  V30 2224 H 220.237 2.10246 2.13861 0
M  V30 2225 H 217.79 1.12218 1.08797 0
M  V30 2226 H 218.525 -0.223997 3.23525 0
M  V30 2227 H 218.31 1.50838 3.61926 0
M  V30 2228 H 219.8 0.656546 4.12407 0
M  V30 2229 N 220.237 -1.11381 1.11499 0
M  V30 2230 C 221.167 -2.19509 0.796125 0
M  V30 2231 C 222.148 -1.68458 -0.235796 0
M  V30 2232 O 223.333 -1.93947 -0.0991344 0
M  V30 2233 C 220.463 -3.46475 0.239205 0
M  V30 2234 C 219.417 -4.10744 1.20307 0
M  V30 2235 C 218.743 -5.32293 0.50683 0
M  V30 2236 C 220.043 -4.55597 2.55399 0
M  V30 2237 H 221.737 -2.46439 1.70024 0
M  V30 2238 H 219.283 -1.18446 0.818935 0
M  V30 2239 H 221.236 -4.214 0.00392006 0
M  V30 2240 H 219.96 -3.19006 -0.700206 0
M  V30 2241 H 218.619 -3.37813 1.42399 0
M  V30 2242 H 218.267 -5.01095 -0.437408 0
M  V30 2243 H 217.967 -5.76243 1.1497 0
M  V30 2244 H 219.491 -6.09956 0.280351 0
M  V30 2245 H 220.905 -5.21841 2.37391 0
M  V30 2246 H 219.302 -5.10363 3.15673 0
M  V30 2247 H 220.372 -3.69013 3.14575 0
M  V30 2248 N 221.715 -0.905404 -1.28997 0
M  V30 2249 C 223.131 -0.60233 -1.47798 0
M  V30 2250 C 223.331 0.854645 -1.82478 0
M  V30 2251 O 222.387 1.63439 -1.92468 0
M  V30 2252 C 223.7 -1.53306 -2.58685 0
M  V30 2253 C 225.248 -1.53887 -2.72558 0
M  V30 2254 C 225.723 -2.45602 -3.86579 0
M  V30 2255 N 227.214 -2.43681 -3.93921 0
M  V30 2256 C 227.949 -3.11347 -4.81509 0
M  V30 2257 N 227.445 -3.88313 -5.73746 0
M  V30 2258 N 229.238 -3.00476 -4.75048 0
M  V30 2259 H 221.389 -1.84765 -1.04764 0
M  V30 2260 H 223.652 -0.792025 -0.520961 0
M  V30 2261 H 223.358 -2.57141 -2.39941 0
M  V30 2262 H 223.232 -1.25787 -3.55609 0
M  V30 2263 H 225.619 -0.507941 -2.90696 0
M  V30 2264 H 225.7 -1.85447 -1.76191 0
M  V30 2265 H 225.344 -3.48792 -3.69197 0
M  V30 2266 H 225.274 -2.11349 -4.82327 0
M  V30 2267 H 227.765 -1.87767 -3.27951 0
M  V30 2268 H 228.078 -4.36985 -6.37389 0
M  V30 2269 H 226.423 -3.92419 -5.73614 0
M  V30 2270 H 229.614 -2.39858 -4.01977 0
M  V30 2271 H 229.787 -3.53485 -5.43095 0
M  V30 2272 N 223.193 1.4272 -0.668489 0
M  V30 2273 C 224.421 2.05966 -0.196348 0
M  V30 2274 C 224.836 1.50191 1.14403 0
M  V30 2275 O 224.193 0.639208 1.7094 0
M  V30 2276 C 224.244 3.61314 -0.115815 0
M  V30 2277 O 223.965 4.1502 -1.40322 0
M  V30 2278 C 225.466 4.41663 0.380579 0
M  V30 2279 H 222.686 0.663954 -0.0969829 0
M  V30 2280 H 225.23 1.82966 -0.913446 0
M  V30 2281 H 223.385 3.83448 0.551931 0
M  V30 2282 H 223.799 5.08832 -1.27243 0
M  V30 2283 H 225.273 5.5065 0.385848 0
M  V30 2284 H 225.75 4.15792 1.41471 0
M  V30 2285 H 226.356 4.24534 -0.255209 0
M  V30 2286 N 224.671 0.411399 1.52136 0
M  V30 2287 C 225.899 -0.163076 2.06256 0
M  V30 2288 C 226.314 -1.3867 1.28125 0
M  V30 2289 O 225.671 -1.79423 0.333721 0
M  V30 2290 C 225.722 -0.511252 3.57867 0
M  V30 2291 O 225.443 0.66378 4.33042 0
M  V30 2292 C 226.944 -1.13921 4.28412 0
M  V30 2293 H 224.164 -0.0193897 0.67072 0
M  V30 2294 H 226.708 0.583007 1.96013 0
M  V30 2295 H 224.863 -1.20723 3.6811 0
M  V30 2296 H 225.277 0.372601 5.23175 0
M  V30 2297 H 226.751 -1.33302 5.35663 0
M  V30 2298 H 227.228 -2.11296 3.85033 0
M  V30 2299 H 227.834 -0.483373 4.22544 0
M  V30 2300 N 226.149 -1.5696 0.141893 0
M  V30 2301 C 227.059 -2.20066 -0.812905 0
M  V30 2302 C 228.075 -1.18344 -1.27557 0
M  V30 2303 O 229.251 -1.50902 -1.33381 0
M  V30 2304 C 226.316 -2.80583 -2.03652 0
M  V30 2305 C 225.377 -3.97414 -1.62359 0
M  V30 2306 C 224.61 -4.55036 -2.78887 0
M  V30 2307 O 224.833 -4.11538 -3.94959 0
M  V30 2308 O 223.767 -5.45376 -2.54653 0
M  V30 2309 H 227.593 -3.02157 -0.305746 0
M  V30 2310 H 225.178 -1.49159 -0.0848799 0
M  V30 2311 H 227.06 -3.19067 -2.75272 0
M  V30 2312 H 225.735 -2.01508 -2.5333 0
M  V30 2313 H 224.642 -3.63656 -0.877775 0
M  V30 2314 H 225.975 -4.77994 -1.17401 0
M  V30 2315 N 227.627 0.131896 -1.57047 0
M  V30 2316 C 229.043 0.485031 -1.52051 0
M  V30 2317 C 229.243 1.82563 -0.85281 0
M  V30 2318 O 228.299 2.48817 -0.429694 0
M  V30 2319 C 229.612 0.481409 -2.96821 0
M  V30 2320 C 231.16 0.565868 -3.07842 0
M  V30 2321 C 231.635 0.592762 -4.54148 0
M  V30 2322 N 233.126 0.654564 -4.58552 0
M  V30 2323 C 233.861 0.696608 -5.69153 0
M  V30 2324 N 233.357 0.697078 -6.89284 0
M  V30 2325 N 235.15 0.738639 -5.57226 0
M  V30 2326 H 227.301 -0.746664 -1.98843 0
M  V30 2327 H 229.564 -0.273999 -0.90754 0
M  V30 2328 H 229.27 -0.435731 -3.4899 0
M  V30 2329 H 229.144 1.3139 -3.53577 0
M  V30 2330 H 231.531 1.47343 -2.55684 0
M  V30 2331 H 231.612 -0.29406 -2.54104 0
M  V30 2332 H 231.256 -0.310701 -5.06949 0
M  V30 2333 H 231.186 1.46939 -5.05684 0
M  V30 2334 H 233.677 0.660887 -3.72076 0
M  V30 2335 H 233.99 0.731426 -7.69331 0
M  V30 2336 H 232.335 0.66471 -6.91814 0
M  V30 2337 H 235.526 0.735545 -4.62285 0
M  V30 2338 H 235.699 0.767938 -6.43434 0
M  V30 2339 N 229.106 1.52395 0.401703 0
M  V30 2340 C 230.383 1.57387 1.16141 0
M  V30 2341 C 230.763 0.359359 2.08019 0
M  V30 2342 O 230.111 -0.65326 2.18963 0
M  V30 2343 C 230.321 2.90631 1.93221 0
M  V30 2344 C 231.669 3.43904 2.49028 0
M  V30 2345 O 232.693 2.92421 2.03393 0
M  V30 2346 O 231.552 4.33823 3.32356 0
M  V30 2347 H 228.646 0.634262 0.530698 0
M  V30 2348 H 231.192 1.64725 0.407883 0
M  V30 2349 H 229.964 3.70473 1.25958 0
M  V30 2350 H 229.587 2.8662 2.75563 0
M  V30 2351 N 230.584 -0.659388 1.43143 0
M  V30 2352 C 232 -0.974337 1.26407 0
M  V30 2353 C 232.2 -2.007 0.179341 0
M  V30 2354 O 231.256 -2.4856 -0.444295 0
M  V30 2355 C 232.569 -1.46447 2.62628 0
M  V30 2356 C 234.117 -1.58144 2.7011 0
M  V30 2357 C 234.592 -2.1055 4.06734 0
M  V30 2358 N 236.083 -2.17861 4.08767 0
M  V30 2359 C 236.818 -2.59519 5.1131 0
M  V30 2360 N 236.314 -3.00518 6.24228 0
M  V30 2361 N 238.107 -2.59404 4.98664 0
M  V30 2362 H 230.258 0.0240528 2.12386 0
M  V30 2363 H 232.521 -0.0518065 0.946583 0
M  V30 2364 H 232.227 -0.780123 3.42939 0
M  V30 2365 H 232.101 -2.44058 2.87603 0
M  V30 2366 H 234.488 -2.25682 1.90136 0
M  V30 2367 H 234.569 -0.589828 2.48907 0
M  V30 2368 H 234.213 -1.43616 4.87172 0
M  V30 2369 H 234.143 -3.10531 4.25298 0
M  V30 2370 H 236.634 -1.88975 3.27257 0
M  V30 2371 H 236.947 -3.31036 6.98309 0
M  V30 2372 H 235.292 -2.98337 6.2771 0
M  V30 2373 H 238.483 -2.26747 4.09516 0
M  V30 2374 H 238.656 -2.91548 5.78709 0
M  V30 2375 N 232.062 -1.29571 -0.897171 0
M  V30 2376 C 233.009 -1.14916 -2.00158 0
M  V30 2377 C 233.979 -0.0418149 -1.66047 0
M  V30 2378 O 235.164 -0.209793 -1.89643 0
M  V30 2379 C 232.304 -0.834307 -3.34863 0
M  V30 2380 C 231.417 -2.02234 -3.8174 0
M  V30 2381 C 230.552 -1.64664 -5.05034 0
M  V30 2382 C 229.591 -2.80033 -5.44286 0
M  V30 2383 N 228.728 -2.42843 -6.58765 0
M  V30 2384 H 233.568 -2.09403 -2.12025 0
M  V30 2385 H 231.105 -1.042 -1.0383 0
M  V30 2386 H 233.063 -0.632436 -4.12379 0
M  V30 2387 H 231.693 0.0736656 -3.22716 0
M  V30 2388 H 230.745 -2.33583 -3.00238 0
M  V30 2389 H 232.057 -2.88673 -4.06779 0
M  V30 2390 H 231.211 -1.4078 -5.9014 0
M  V30 2391 H 229.95 -0.753766 -4.8184 0
M  V30 2392 H 228.955 -3.04596 -4.57713 0
M  V30 2393 H 230.18 -3.69989 -5.6946 0
M  V30 2394 H 228.126 -1.56046 -6.3717 0
M  V30 2395 H 228.043 -3.22815 -6.83613 0
M  V30 2396 H 229.311 -2.22285 -7.47134 0
M  V30 2397 N 233.54 1.10788 -1.12088 0
M  V30 2398 C 234.487 2.17025 -0.785407 0
M  V30 2399 C 235.457 1.64265 0.246191 0
M  V30 2400 O 236.642 1.90412 0.121584 0
M  V30 2401 C 233.782 3.44249 -0.242177 0
M  V30 2402 C 232.895 4.1098 -1.33115 0
M  V30 2403 C 232.03 5.25911 -0.747741 0
M  V30 2404 C 231.069 5.84538 -1.81609 0
M  V30 2405 N 230.206 6.90853 -1.25167 0
M  V30 2406 H 235.046 2.45066 -1.69548 0
M  V30 2407 H 232.583 1.20297 -0.846582 0
M  V30 2408 H 234.541 4.17101 0.0908026 0
M  V30 2409 H 233.171 3.16571 0.631072 0
M  V30 2410 H 232.223 3.36133 -1.78097 0
M  V30 2411 H 233.535 4.50601 -2.13917 0
M  V30 2412 H 232.689 6.056 -0.365216 0
M  V30 2413 H 231.428 4.87614 0.0915188 0
M  V30 2414 H 230.433 5.03522 -2.20785 0
M  V30 2415 H 231.658 6.249 -2.6585 0
M  V30 2416 H 229.604 6.54562 -0.434174 0
M  V30 2417 H 229.521 7.29166 -1.99633 0
M  V30 2418 H 230.789 7.7433 -0.896259 0
M  V30 2419 N 235.018 0.912232 1.28515 0
M  V30 2420 C 235.966 0.389597 2.29314 0
M  V30 2421 C 236.96 -0.517915 1.61289 0
M  V30 2422 O 238.166 -0.399328 1.75515 0
M  V30 2423 H 234.541 0.107386 0.744293 0
M  V30 2424 H 236.512 1.25286 2.70825 0
M  V30 2425 C 235.261 -0.356496 3.45868 0
M  V30 2426 H 234.584 0.332608 3.98414 0
M  V30 2427 H 236.024 -0.686851 4.184 0
M  V30 2428 C 234.483 -1.56383 2.98406 0
M  V30 2429 O 235.013 -2.66294 3.00749 0
M  V30 2430 N 233.219 -1.41029 2.54085 0
M  V30 2431 H 232.766 -0.516089 2.52377 0
M  V30 2432 H 232.724 -2.21939 2.22689 0
M  V30 2433 N 236.496 -1.42363 0.676048 0
M  V30 2434 C 237.742 -2.0182 0.199125 0
M  V30 2435 C 238.075 -1.53339 -1.19168 0
M  V30 2436 O 237.35 -0.736124 -1.80032 0
M  V30 2437 C 237.633 -3.59331 0.235144 0
M  V30 2438 C 237.486 -4.17989 1.66149 0
M  V30 2439 C 238.805 -4.3813 -0.41595 0
M  V30 2440 H 235.924 -0.733293 0.0738311 0
M  V30 2441 H 238.566 -1.69368 0.86107 0
M  V30 2442 H 236.716 -3.87109 -0.328487 0
M  V30 2443 H 238.388 -4.0116 2.27747 0
M  V30 2444 H 236.631 -3.7377 2.20178 0
M  V30 2445 H 237.302 -5.27126 1.63837 0
M  V30 2446 H 239.778 -4.16051 0.0638529 0
M  V30 2447 H 238.654 -5.47717 -0.360115 0
M  V30 2448 H 238.915 -4.16101 -1.49373 0
M  V30 2449 N 237.974 -0.419461 -1.51915 0
M  V30 2450 C 238.906 0.43646 -2.25006 0
M  V30 2451 C 239.919 1.00149 -1.28351 0
M  V30 2452 O 241.108 0.898674 -1.54227 0
M  V30 2453 C 238.208 1.6206 -2.9764 0
M  V30 2454 C 237.381 1.17763 -4.21249 0
M  V30 2455 C 236.44 2.22985 -4.76617 0
M  V30 2456 O 235.466 1.83151 -5.38929 0
M  V30 2457 N 236.668 3.55271 -4.59089 0
M  V30 2458 H 239.433 -0.18989 -2.99098 0
M  V30 2459 H 236.994 -0.247386 -1.59999 0
M  V30 2460 H 238.986 2.32038 -3.31573 0
M  V30 2461 H 237.556 2.15266 -2.2667 0
M  V30 2462 H 236.776 0.305582 -3.93014 0
M  V30 2463 H 238.064 0.858781 -5.015 0
M  V30 2464 H 237.462 3.90377 -4.09417 0
M  V30 2465 H 236.019 4.21195 -4.97432 0
M  V30 2466 N 239.452 1.56882 -0.150215 0
M  V30 2467 C 240.692 1.98119 0.502804 0
M  V30 2468 C 241.056 1.03327 1.61826 0
M  V30 2469 O 242.257 1.33621 2.33236 0
M  V30 2470 C 240.528 3.43329 0.992988 0
M  V30 2471 S 242.087 4.0659 1.65015 0
M  V30 2472 H 238.905 0.692189 0.162467 0
M  V30 2473 H 241.507 1.93988 -0.242689 0
M  V30 2474 H 240.211 4.10046 0.170436 0
M  V30 2475 H 239.742 3.5118 1.77303 0
M  V30 2476 H 241.757 3.99906 2.93752 0
M  V30 2477 N 240.93 -0.123565 1.57115 0
M  V30 2478 C 242.155 -0.850398 1.89164 0
M  V30 2479 C 242.58 -1.7286 0.741688 0
M  V30 2480 O 241.938 -1.78665 -0.307958 0
M  V30 2481 C 241.986 -1.66353 3.19936 0
M  V30 2482 O 241.09 -2.77004 3.0552 0
M  V30 2483 H 240.431 -0.235454 0.620852 0
M  V30 2484 H 242.961 -0.107335 2.04318 0
M  V30 2485 H 242.971 -2.05372 3.52543 0
M  V30 2486 H 241.646 -1.01881 4.03228 0
M  V30 2487 H 240.223 -2.41221 2.84371 0
M  V30 2488 N 242.408 -1.52605 -0.393616 0
M  V30 2489 C 243.655 -1.67424 -1.1391 0
M  V30 2490 C 243.983 -0.411859 -1.90089 0
M  V30 2491 O 243.238 0.605626 -1.86093 0
M  V30 2492 C 243.537 -2.85721 -2.14705 0
M  V30 2493 C 243.203 -4.23342 -1.55218 0
M  V30 2494 C 241.865 -4.60771 -1.3872 0
M  V30 2495 C 244.217 -5.09041 -1.11924 0
M  V30 2496 C 241.545 -5.81563 -0.774689 0
M  V30 2497 C 243.897 -6.30452 -0.520853 0
M  V30 2498 C 242.561 -6.66617 -0.343134 0
M  V30 2499 H 241.831 -0.612648 -0.416826 0
M  V30 2500 H 244.478 -1.8674 -0.424315 0
M  V30 2501 H 242.783 -2.60803 -2.92385 0
M  V30 2502 H 244.48 -2.94382 -2.72288 0
M  V30 2503 H 241.07 -3.93855 -1.69045 0
M  V30 2504 H 245.254 -4.80695 -1.23473 0
M  V30 2505 H 240.51 -6.08196 -0.625154 0
M  V30 2506 H 244.684 -6.96175 -0.177065 0
M  V30 2507 H 242.311 -7.60083 0.133571 0
M  V30 2508 N 243.887 0.651787 -1.4349 0
M  V30 2509 C 244.82 1.77668 -1.43211 0
M  V30 2510 C 245.798 1.59931 -0.29338 0
M  V30 2511 O 246.982 1.82095 -0.487191 0
M  V30 2512 C 244.109 3.14986 -1.24505 0
M  V30 2513 C 243.155 3.51421 -2.41673 0
M  V30 2514 S 243.988 3.51234 -4.04222 0
M  V30 2515 C 245.144 4.91206 -3.87902 0
M  V30 2516 H 245.377 1.77635 -2.38397 0
M  V30 2517 H 242.91 0.824558 -1.30539 0
M  V30 2518 H 244.868 3.94237 -1.144 0
M  V30 2519 H 243.529 3.1258 -0.308651 0
M  V30 2520 H 242.722 4.51291 -2.24393 0
M  V30 2521 H 242.324 2.79585 -2.48411 0
M  V30 2522 H 244.616 5.79902 -3.50315 0
M  V30 2523 H 245.559 5.13537 -4.8753 0
M  V30 2524 H 245.967 4.64808 -3.20334 0
M  V30 2525 N 245.365 1.30045 0.890287 0
M  V30 2526 C 246.295 1.18541 2.01172 0
M  V30 2527 C 247.276 0.0773356 1.69924 0
M  V30 2528 O 248.461 0.25845 1.92473 0
M  V30 2529 C 245.591 0.870941 3.36202 0
M  V30 2530 C 244.545 1.93637 3.81692 0
M  V30 2531 C 243.871 1.475 5.13953 0
M  V30 2532 C 245.171 3.34666 4.00994 0
M  V30 2533 H 246.865 2.12359 2.11054 0
M  V30 2534 H 244.411 1.02238 1.01407 0
M  V30 2535 H 246.364 0.777141 4.14172 0
M  V30 2536 H 245.088 -0.102926 3.26438 0
M  V30 2537 H 243.747 2.01972 3.05946 0
M  V30 2538 H 243.395 0.489551 5.00612 0
M  V30 2539 H 243.095 2.1876 5.4536 0
M  V30 2540 H 244.619 1.39489 5.94454 0
M  V30 2541 H 246.033 3.2912 4.69417 0
M  V30 2542 H 244.43 4.03966 4.43769 0
M  V30 2543 H 245.5 3.76949 3.05021 0
M  V30 2544 N 246.843 -1.10192 1.12674 0
M  V30 2545 C 248.12 -1.78717 0.794965 0
M  V30 2546 C 248.5 -1.98628 -0.714853 0
M  V30 2547 O 247.848 -1.58135 -1.64941 0
M  V30 2548 C 248.058 -3.11546 1.5729 0
M  V30 2549 C 249.406 -3.86382 1.76052 0
M  V30 2550 O 250.43 -3.21274 1.53823 0
M  V30 2551 O 249.289 -5.03246 2.13087 0
M  V30 2552 H 246.383 -0.774702 0.289423 0
M  V30 2553 H 248.929 -1.16819 1.23091 0
M  V30 2554 H 247.701 -2.92489 2.59935 0
M  V30 2555 H 247.324 -3.81164 1.13137 0
M  V30 2556 N 248.321 -0.919034 -1.28029 0
M  V30 2557 C 249.546 -0.570357 -1.99403 0
M  V30 2558 C 249.971 0.842486 -1.68178 0
M  V30 2559 O 249.329 1.56391 -0.917141 0
M  V30 2560 C 249.377 -0.792541 -3.51783 0
M  V30 2561 O 248.481 0.145988 -4.12142 0
M  V30 2562 H 247.822 -0.220555 -0.6263 0
M  V30 2563 H 250.352 -1.23592 -1.63053 0
M  V30 2564 H 250.362 -0.704708 -4.01868 0
M  V30 2565 H 249.037 -1.82247 -3.73844 0
M  V30 2566 H 247.614 0.00897528 -3.72899 0
M  V30 2567 N 249.799 1.42003 -0.683588 0
M  V30 2568 C 251.045 2.01712 -0.209825 0
M  V30 2569 C 251.378 1.53968 1.18353 0
M  V30 2570 O 250.653 0.745661 1.79639 0
M  V30 2571 C 250.936 3.59202 -0.254197 0
M  V30 2572 C 250.789 4.17102 -1.68363 0
M  V30 2573 C 252.108 4.38344 0.392709 0
M  V30 2574 H 249.227 0.732891 -0.0777189 0
M  V30 2575 H 251.869 1.68909 -0.87004 0
M  V30 2576 H 250.019 3.87278 0.307954 0
M  V30 2577 H 251.691 3.99946 -2.29871 0
M  V30 2578 H 249.934 3.72597 -2.22157 0
M  V30 2579 H 250.605 5.26249 -1.6663 0
M  V30 2580 H 253.081 4.16011 -0.0859162 0
M  V30 2581 H 251.957 5.47901 0.331063 0
M  V30 2582 H 252.218 4.16887 1.47164 0
M  V30 2583 N 251.277 0.427512 1.51691 0
M  V30 2584 C 252.525 -0.141948 2.01601 0
M  V30 2585 C 252.846 -1.44067 1.31414 0
M  V30 2586 O 252.116 -1.90763 0.445658 0
M  V30 2587 H 250.696 -0.0554468 0.744939 0
M  V30 2588 H 253.358 0.567968 1.86441 0
M  V30 2589 H 252.454 -0.324913 3.10404 0
M  V30 2590 N 252.755 -1.56801 0.158532 0
M  V30 2591 C 254.003 -1.96102 -0.488712 0
M  V30 2592 C 254.324 -1.04498 -1.64636 0
M  V30 2593 O 253.594 -0.108783 -1.95598 0
M  V30 2594 H 252.174 -0.724102 -0.183535 0
M  V30 2595 H 254.836 -1.93457 0.236728 0
M  V30 2596 H 253.932 -3.00097 -0.857219 0
M  V30 2597 N 254.233 0.115231 -1.57178 0
M  V30 2598 C 255.458 0.840354 -1.89612 0
M  V30 2599 C 255.883 1.72464 -0.750845 0
M  V30 2600 O 255.241 1.78826 0.298478 0
M  V30 2601 C 255.289 1.64654 -3.20814 0
M  V30 2602 O 254.393 2.7538 -3.06985 0
M  V30 2603 H 253.734 0.232158 -0.622092 0
M  V30 2604 H 256.264 0.0964977 -2.04372 0
M  V30 2605 H 256.274 2.03499 -3.53627 0
M  V30 2606 H 254.949 0.997416 -4.03763 0
M  V30 2607 H 253.526 2.3971 -2.85646 0
M  V30 2608 N 255.711 1.52812 0.385517 0
M  V30 2609 C 256.641 1.80808 1.47752 0
M  V30 2610 C 257.622 0.660318 1.5676 0
M  V30 2611 O 258.807 0.908246 1.71652 0
M  V30 2612 C 255.937 1.98008 2.85324 0
M  V30 2613 C 254.891 3.13709 2.91154 0
M  V30 2614 C 254.217 3.16169 4.31209 0
M  V30 2615 C 255.517 4.52709 2.60483 0
M  V30 2616 H 257.211 2.72253 1.24573 0
M  V30 2617 H 254.757 1.31003 0.597839 0
M  V30 2618 H 256.71 2.16176 3.61726 0
M  V30 2619 H 255.434 1.03255 3.09848 0
M  V30 2620 H 254.093 2.95329 2.17201 0
M  V30 2621 H 253.741 2.19092 4.52778 0
M  V30 2622 H 253.441 3.93894 4.36029 0
M  V30 2623 H 254.965 3.36496 5.09512 0
M  V30 2624 H 256.379 4.71173 3.26602 0
M  V30 2625 H 254.776 5.32528 2.76648 0
M  V30 2626 H 255.846 4.59186 1.55809 0
M  V30 2627 N 257.189 -0.644168 1.43834 0
M  V30 2628 C 258.6 -1.22554 1.40845 0
M  V30 2629 C 258.951 -1.9585 0.117115 0
M  V30 2630 O 258.076 -2.01734 -0.783086 0
M  V30 2631 C 258.671 -2.22907 2.55143 0
M  V30 2632 C 257.23 -2.76501 2.5539 0
M  V30 2633 C 256.377 -1.51287 2.32396 0
M  V30 2634 H 259.328 -0.43563 1.52604 0
M  V30 2635 H 259.349 -3.05259 2.2715 0
M  V30 2636 H 258.861 -1.69533 3.49114 0
M  V30 2637 H 256.962 -3.33914 1.65324 0
M  V30 2638 H 257.075 -3.23429 3.53455 0
M  V30 2639 H 255.439 -1.78957 1.81236 0
M  V30 2640 H 256.222 -0.998336 3.28463 0
M  V30 2641 N 258.668 -1.30515 -0.883378 0
M  V30 2642 C 259.615 -1.17032 -1.98927 0
M  V30 2643 C 260.585 -0.0594241 -1.65994 0
M  V30 2644 O 261.77 -0.229895 -1.8941 0
M  V30 2645 C 258.91 -0.869777 -3.33959 0
M  V30 2646 C 258.023 -2.06271 -3.79574 0
M  V30 2647 C 257.158 -1.70011 -5.03259 0
M  V30 2648 C 256.197 -2.8579 -5.41286 0
M  V30 2649 N 255.334 -2.49816 -6.56153 0
M  V30 2650 H 260.174 -2.1164 -2.09792 0
M  V30 2651 H 257.711 -1.05296 -1.02719 0
M  V30 2652 H 259.669 -0.676138 -4.11685 0
M  V30 2653 H 258.299 0.0394332 -3.22776 0
M  V30 2654 H 257.351 -2.36755 -2.97744 0
M  V30 2655 H 258.663 -2.92971 -4.03694 0
M  V30 2656 H 257.817 -1.47032 -5.88614 0
M  V30 2657 H 256.556 -0.804829 -4.81013 0
M  V30 2658 H 255.561 -3.09434 -4.54456 0
M  V30 2659 H 256.786 -3.76008 -5.65504 0
M  V30 2660 H 254.732 -1.62795 -6.35479 0
M  V30 2661 H 254.649 -3.30048 -6.8015 0
M  V30 2662 H 255.917 -2.30197 -7.44735 0
M  V30 2663 N 260.146 1.09593 -1.13257 0
M  V30 2664 C 261.093 2.1618 -0.808381 0
M  V30 2665 C 262.063 1.64517 0.228754 0
M  V30 2666 O 263.248 1.9053 0.101381 0
M  V30 2667 C 260.388 3.43973 -0.278675 0
M  V30 2668 C 259.501 4.09545 -1.37466 0
M  V30 2669 C 258.636 5.25088 -0.803479 0
M  V30 2670 C 257.675 5.82579 -1.87799 0
M  V30 2671 N 256.812 6.89486 -1.32488 0
M  V30 2672 H 261.652 2.43254 -1.72138 0
M  V30 2673 H 259.189 1.19392 -0.859294 0
M  V30 2674 H 261.147 4.17174 0.0465583 0
M  V30 2675 H 259.777 3.17223 0.597459 0
M  V30 2676 H 258.829 3.34226 -1.81652 0
M  V30 2677 H 260.141 4.48307 -2.18684 0
M  V30 2678 H 259.295 6.05178 -0.429427 0
M  V30 2679 H 258.034 4.87684 0.0397956 0
M  V30 2680 H 257.039 5.01152 -2.26113 0
M  V30 2681 H 258.264 6.22045 -2.72463 0
M  V30 2682 H 256.21 6.54064 -0.503575 0
M  V30 2683 H 256.127 7.27007 -2.07355 0
M  V30 2684 H 257.395 7.73336 -0.978336 0
M  V30 2685 N 261.624 0.925811 1.2754 0
M  V30 2686 C 262.849 0.580924 1.99098 0
M  V30 2687 C 263.274 -0.833555 1.68622 0
M  V30 2688 O 262.632 -1.55903 0.925422 0
M  V30 2689 C 262.68 0.811186 3.51358 0
M  V30 2690 O 261.784 -0.124129 4.12213 0
M  V30 2691 H 261.125 0.223873 0.625122 0
M  V30 2692 H 263.655 1.24455 1.62395 0
M  V30 2693 H 263.665 0.72601 4.01489 0
M  V30 2694 H 262.34 1.84227 3.72872 0
M  V30 2695 H 260.917 0.0108006 3.72898 0
M  V30 2696 N 263.102 -1.41638 0.69111 0
M  V30 2697 C 264.351 -2.00526 0.217318 0
M  V30 2698 C 264.664 -1.55353 -1.18848 0
M  V30 2699 O 265.87 -2.06769 -1.75951 0
M  V30 2700 C 264.326 -3.58313 0.337639 0
M  V30 2701 C 263.934 -4.12469 1.74852 0
M  V30 2702 C 265.678 -4.24431 -0.0766066 0
M  V30 2703 C 263.585 -5.62675 1.82074 0
M  V30 2704 H 262.515 -0.750008 0.0774893 0
M  V30 2705 H 265.166 -1.6217 0.858661 0
M  V30 2706 H 263.548 -3.9425 -0.371879 0
M  V30 2707 H 264.722 -3.8796 2.48644 0
M  V30 2708 H 263.037 -3.58861 2.11205 0
M  V30 2709 H 265.634 -5.34683 -0.0430284 0
M  V30 2710 H 265.977 -4.01101 -1.1146 0
M  V30 2711 H 266.51 -3.93512 0.582476 0
M  V30 2712 H 263.249 -5.90826 2.83911 0
M  V30 2713 H 262.769 -5.89124 1.12661 0
M  V30 2714 H 264.448 -6.27371 1.58159 0
M  V30 2715 N 264.58 -0.43555 -1.51462 0
M  V30 2716 C 265.991 0.0279871 -1.86679 0
M  V30 2717 C 266.342 1.42104 -1.35281 0
M  V30 2718 O 265.467 2.04667 -0.702878 0
M  V30 2719 C 266.062 0.0575626 -3.38751 0
M  V30 2720 C 264.621 0.465507 -3.7351 0
M  V30 2721 C 263.768 -0.342996 -2.75171 0
M  V30 2722 H 266.719 -0.651473 -1.44712 0
M  V30 2723 H 266.74 0.867421 -3.70481 0
M  V30 2724 H 266.252 -0.956448 -3.7613 0
M  V30 2725 H 264.353 1.48519 -3.41721 0
M  V30 2726 H 264.466 0.191546 -4.78717 0
M  V30 2727 H 262.83 0.198442 -2.53926 0
M  V30 2728 H 263.613 -1.35585 -3.15391 0
M  V30 2729 N 266.058 1.56714 -0.166846 0
M  V30 2730 C 267.335 1.88412 0.525373 0
M  V30 2731 C 267.715 1.07602 1.81618 0
M  V30 2732 O 267.063 0.168621 2.27877 0
M  V30 2733 C 267.273 3.40363 0.771613 0
M  V30 2734 C 268.621 4.10007 1.1036 0
M  V30 2735 O 269.645 3.45655 0.860304 0
M  V30 2736 O 268.504 5.2369 1.56239 0
M  V30 2737 H 265.598 0.781587 0.270278 0
M  V30 2738 H 268.144 1.68458 -0.204946 0
M  V30 2739 H 266.916 3.91046 -0.141093 0
M  V30 2740 H 266.539 3.65914 1.55541 0
M  V30 2741 N 267.536 -0.106894 1.57237 0
M  V30 2742 C 268.782 -0.81373 1.85759 0
M  V30 2743 C 269.115 -1.78952 0.754315 0
M  V30 2744 O 268.39 -1.93029 -0.23879 0
M  V30 2745 C 268.673 -1.55293 3.24894 0
M  V30 2746 C 268.526 -0.595929 4.45835 0
M  V30 2747 C 269.845 -2.5063 3.61763 0
M  V30 2748 H 266.964 -0.294369 0.67566 0
M  V30 2749 H 269.606 -0.0776472 1.89841 0
M  V30 2750 H 267.756 -2.1804 3.21544 0
M  V30 2751 H 269.428 0.0236262 4.61294 0
M  V30 2752 H 267.671 0.0916191 4.33703 0
M  V30 2753 H 268.342 -1.15004 5.39887 0
M  V30 2754 H 270.818 -1.97982 3.65981 0
M  V30 2755 H 269.694 -2.99376 4.60071 0
M  V30 2756 H 269.955 -3.3385 2.89821 0
M  V30 2757 N 269.014 -1.53014 -0.377408 0
M  V30 2758 C 270.291 -1.59215 -1.13622 0
M  V30 2759 C 270.671 -0.392407 -2.07421 0
M  V30 2760 O 270.019 0.618342 -2.19975 0
M  V30 2761 C 270.229 -2.93669 -1.88573 0
M  V30 2762 C 271.577 -3.47822 -2.43526 0
M  V30 2763 O 272.601 -2.9562 -1.98715 0
M  V30 2764 O 271.46 -4.39055 -3.25412 0
M  V30 2765 H 268.554 -0.642625 -0.52054 0
M  V30 2766 H 271.1 -1.65353 -0.381625 0
M  V30 2767 H 269.872 -3.7243 -1.20048 0
M  V30 2768 H 269.495 -2.90968 -2.70968 0
M  V30 2769 N 270.492 0.636531 -1.44174 0
M  V30 2770 C 271.422 1.76003 -1.53444 0
M  V30 2771 C 272.403 1.65619 -0.387841 0
M  V30 2772 O 273.588 1.84461 -0.607257 0
M  V30 2773 C 270.718 3.14511 -1.4731 0
M  V30 2774 C 269.672 3.39677 -2.60391 0
M  V30 2775 C 268.998 4.78159 -2.39308 0
M  V30 2776 C 270.298 3.32772 -4.02567 0
M  V30 2777 H 271.992 1.68501 -2.47483 0
M  V30 2778 H 269.538 0.809237 -1.19111 0
M  V30 2779 H 271.491 3.92878 -1.52397 0
M  V30 2780 H 270.215 3.22783 -0.49785 0
M  V30 2781 H 268.874 2.63688 -2.54684 0
M  V30 2782 H 268.522 4.83128 -1.39988 0
M  V30 2783 H 268.222 4.95956 -3.15122 0
M  V30 2784 H 269.746 5.58762 -2.46205 0
M  V30 2785 H 271.16 4.01051 -4.09672 0
M  V30 2786 H 269.557 3.62104 -4.7854 0
M  V30 2787 H 270.627 2.30669 -4.2652 0
M  V30 2788 N 271.97 1.30982 0.876444 0
M  V30 2789 C 272.918 1.18006 2.00443 0
M  V30 2790 C 273.912 0.0898871 1.69161 0
M  V30 2791 O 275.118 0.251333 1.78237 0
M  V30 2792 H 271.493 0.365196 0.65737 0
M  V30 2793 H 273.464 2.13453 2.0852 0
M  V30 2794 C 272.213 0.897521 3.35916 0
M  V30 2795 H 271.536 1.7285 3.60504 0
M  V30 2796 H 272.976 0.846874 4.15456 0
M  V30 2797 C 271.435 -0.399674 3.34521 0
M  V30 2798 O 271.965 -1.41852 3.7582 0
M  V30 2799 N 270.171 -0.413893 2.87637 0
M  V30 2800 H 269.718 0.41571 2.54224 0
M  V30 2801 H 269.676 -1.28175 2.87086 0
M  V30 2802 N 273.449 -1.08991 1.13837 0
M  V30 2803 C 274.396 -2.15748 0.819835 0
M  V30 2804 C 275.366 -1.64636 -0.220026 0
M  V30 2805 O 276.551 -1.90582 -0.0912757 0
M  V30 2806 C 273.691 -3.4382 0.296913 0
M  V30 2807 C 272.804 -4.0881 1.39636 0
M  V30 2808 C 271.939 -5.24655 0.831314 0
M  V30 2809 C 270.978 -5.81575 1.90886 0
M  V30 2810 N 270.115 -6.88774 1.36142 0
M  V30 2811 H 274.955 -2.42338 1.73426 0
M  V30 2812 H 272.492 -1.18935 0.865613 0
M  V30 2813 H 274.45 -4.17193 -0.0244339 0
M  V30 2814 H 273.08 -3.17535 -0.580628 0
M  V30 2815 H 272.132 -3.33258 1.83422 0
M  V30 2816 H 273.444 -4.47141 2.21058 0
M  V30 2817 H 272.598 -6.04942 0.461515 0
M  V30 2818 H 271.337 -4.87698 -0.013932 0
M  V30 2819 H 270.342 -4.99946 2.28767 0
M  V30 2820 H 271.567 -6.20592 2.75758 0
M  V30 2821 H 269.513 -6.53788 0.538254 0
M  V30 2822 H 269.43 -7.25898 2.11208 0
M  V30 2823 H 270.698 -7.72806 1.01933 0
M  V30 2824 N 274.927 -0.932562 -1.27047 0
M  V30 2825 C 276.338 -0.619451 -1.76124 0
M  V30 2826 C 276.689 0.865397 -1.76083 0
M  V30 2827 O 275.814 1.67722 -1.36742 0
M  V30 2828 C 276.409 -1.11771 -3.19832 0
M  V30 2829 C 274.968 -0.855174 -3.66557 0
M  V30 2830 C 274.115 -1.27362 -2.46321 0
M  V30 2831 H 277.066 -1.11181 -1.13245 0
M  V30 2832 H 277.087 -0.46759 -3.77616 0
M  V30 2833 H 276.599 -2.19842 -3.1983 0
M  V30 2834 H 274.7 0.211524 -3.71999 0
M  V30 2835 H 274.813 -1.47613 -4.55793 0
M  V30 2836 H 273.177 -0.692119 -2.45116 0
M  V30 2837 H 273.96 -2.36307 -2.49025 0
M  V30 2838 N 276.405 1.4127 -0.698611 0
M  V30 2839 C 277.635 2.05205 -0.239644 0
M  V30 2840 C 278.043 1.52684 1.11733 0
M  V30 2841 O 277.386 0.671222 1.70998 0
M  V30 2842 C 277.448 3.59289 -0.123126 0
M  V30 2843 C 277.112 4.34619 -1.41263 0
M  V30 2844 C 278.109 4.63701 -2.35111 0
M  V30 2845 C 275.794 4.73837 -1.66684 0
M  V30 2846 C 277.788 5.30966 -3.52639 0
M  V30 2847 C 275.475 5.40837 -2.84498 0
M  V30 2848 C 276.473 5.69329 -3.77298 0
M  V30 2849 O 276.161 6.34949 -4.93047 0
M  V30 2850 H 275.893 0.66723 -0.108537 0
M  V30 2851 H 278.447 1.81974 -0.952602 0
M  V30 2852 H 276.677 3.81272 0.645628 0
M  V30 2853 H 278.366 4.04797 0.299056 0
M  V30 2854 H 279.132 4.33882 -2.16729 0
M  V30 2855 H 275.011 4.51039 -0.953135 0
M  V30 2856 H 278.555 5.53121 -4.25091 0
M  V30 2857 H 274.452 5.70075 -3.02795 0
M  V30 2858 H 275.22 6.53445 -4.92902 0
M  V30 2859 N 277.883 0.443576 1.51229 0
M  V30 2860 C 278.813 -0.355142 2.30783 0
M  V30 2861 C 279.794 -1.0154 1.36468 0
M  V30 2862 O 280.979 -1.01785 1.65389 0
M  V30 2863 C 278.109 -1.45312 3.15439 0
M  V30 2864 C 277.063 -0.916002 4.18083 0
M  V30 2865 C 276.389 -2.1102 4.91299 0
M  V30 2866 C 277.689 0.0538602 5.22272 0
M  V30 2867 H 279.383 0.308767 2.97804 0
M  V30 2868 H 276.929 0.149937 1.43217 0
M  V30 2869 H 278.882 -2.01914 3.69876 0
M  V30 2870 H 277.606 -2.14541 2.46252 0
M  V30 2871 H 276.265 -0.372145 3.64706 0
M  V30 2872 H 275.913 -2.78882 4.18609 0
M  V30 2873 H 275.613 -1.75717 5.60712 0
M  V30 2874 H 277.137 -2.68164 5.48562 0
M  V30 2875 H 278.551 -0.422069 5.71744 0
M  V30 2876 H 276.948 0.319776 5.99247 0
M  V30 2877 H 278.018 0.98858 4.74716 0
M  V30 2878 N 279.361 -1.56624 0.175154 0
M  V30 2879 C 280.586 -2.01813 -0.478137 0
M  V30 2880 C 281.011 -1.05457 -1.55757 0
M  V30 2881 O 280.369 -0.0347439 -1.81267 0
M  V30 2882 C 280.417 -3.45581 -1.02987 0
M  V30 2883 O 279.521 -3.52305 -2.14371 0
M  V30 2884 H 278.862 -0.65413 -0.114059 0
M  V30 2885 H 281.392 -2.02673 0.280173 0
M  V30 2886 H 281.402 -3.84965 -1.35151 0
M  V30 2887 H 280.077 -4.1521 -0.239556 0
M  V30 2888 H 278.654 -3.24783 -1.83222 0
M  V30 2889 N 280.839 0.0985539 -1.57292 0
M  V30 2890 C 281.769 1.12064 -2.04851 0
M  V30 2891 C 282.75 1.41981 -0.936767 0
M  V30 2892 O 283.935 1.52071 -1.20781 0
M  V30 2893 C 281.065 2.44144 -2.47004 0
M  V30 2894 C 280.019 2.28643 -3.6181 0
M  V30 2895 C 279.345 3.65869 -3.89929 0
M  V30 2896 C 280.645 1.72986 -4.92822 0
M  V30 2897 H 282.339 0.724979 -2.9049 0
M  V30 2898 H 279.885 0.34729 -1.39749 0
M  V30 2899 H 281.838 3.15914 -2.78884 0
M  V30 2900 H 280.562 2.85639 -1.5836 0
M  V30 2901 H 279.221 1.59318 -3.30172 0
M  V30 2902 H 278.869 4.04885 -2.98458 0
M  V30 2903 H 278.569 3.56344 -4.67218 0
M  V30 2904 H 280.093 4.39112 -4.2428 0
M  V30 2905 H 281.507 2.34593 -5.23105 0
M  V30 2906 H 279.904 1.74229 -5.74251 0
M  V30 2907 H 280.974 0.689007 -4.7998 0
M  V30 2908 N 282.317 1.53212 0.369288 0
M  V30 2909 C 283.565 1.68881 1.11012 0
M  V30 2910 C 283.886 0.441285 1.89941 0
M  V30 2911 O 283.156 -0.544623 1.88177 0
M  V30 2912 H 281.736 0.622569 0.412816 0
M  V30 2913 H 284.398 1.90391 0.416802 0
M  V30 2914 H 283.494 2.54822 1.80201 0
M  V30 2915 N 283.795 -0.628877 1.44509 0
M  V30 2916 C 285.035 -1.39993 1.48934 0
M  V30 2917 C 285.399 -1.91627 0.119604 0
M  V30 2918 O 286.6 -2.68772 0.0385283 0
M  V30 2919 C 284.871 -2.53241 2.52198 0
M  V30 2920 S 286.43 -3.41383 2.75687 0
M  V30 2921 H 283.248 -0.477558 0.526744 0
M  V30 2922 H 285.85 -0.727804 1.81448 0
M  V30 2923 H 284.554 -2.13622 3.50419 0
M  V30 2924 H 284.085 -3.25278 2.21264 0
M  V30 2925 H 286.1 -4.50752 2.07453 0
M  V30 2926 N 285.273 -1.31445 -0.869486 0
M  V30 2927 C 286.498 -1.24256 -1.66058 0
M  V30 2928 C 286.923 0.188928 -1.87149 0
M  V30 2929 O 286.281 1.13522 -1.4136 0
M  V30 2930 C 286.329 -1.9924 -3.00559 0
M  V30 2931 O 285.433 -1.33007 -3.90362 0
M  V30 2932 H 284.774 -0.428973 -0.506831 0
M  V30 2933 H 287.304 -1.73521 -1.08404 0
M  V30 2934 H 287.314 -2.08854 -3.50491 0
M  V30 2935 H 285.989 -3.03342 -2.84528 0
M  V30 2936 H 284.566 -1.31848 -3.48813 0
M  V30 2937 N 286.751 1.08385 -1.14413 0
M  V30 2938 C 287.699 2.17406 -0.826888 0
M  V30 2939 C 288.693 1.6827 0.195312 0
M  V30 2940 O 289.899 1.79927 0.0513892 0
M  V30 2941 H 286.274 0.70934 -0.249681 0
M  V30 2942 H 288.245 2.41388 -1.75426 0
M  V30 2943 C 286.994 3.46215 -0.320979 0
M  V30 2944 H 286.317 3.84401 -1.0989 0
M  V30 2945 H 287.757 4.23777 -0.137549 0
M  V30 2946 C 286.216 3.23067 0.955472 0
M  V30 2947 O 286.746 3.4668 2.02918 0
M  V30 2948 N 284.952 2.7661 0.890798 0
M  V30 2949 H 284.499 2.57594 0.0168815 0
M  V30 2950 H 284.457 2.61501 1.74542 0
M  V30 2951 N 288.23 0.939286 1.26551 0
M  V30 2952 C 289.193 0.451987 2.24699 0
M  V30 2953 C 290.193 -0.435869 1.5478 0
M  V30 2954 O 291.383 -0.235314 1.72603 0
M  V30 2955 C 288.515 -0.348801 3.39111 0
M  V30 2956 H 289.708 1.3193 2.69322 0
M  V30 2957 H 287.261 0.721072 1.38673 0
M  V30 2958 H 287.996 -1.23444 2.99887 0
M  V30 2959 H 287.781 0.287945 3.91041 0
M  V30 2960 H 289.271 -0.679726 4.12031 0
M  V30 2961 N 289.708 -1.40897 0.706093 0
M  V30 2962 C 290.655 -2.30751 0.0474474 0
M  V30 2963 C 291.625 -1.47678 -0.76029 0
M  V30 2964 O 292.81 -1.76441 -0.726177 0
M  V30 2965 C 289.95 -3.33815 -0.875309 0
M  V30 2966 C 289.063 -4.31961 -0.0580623 0
M  V30 2967 C 288.198 -5.22093 -0.979425 0
M  V30 2968 C 287.237 -6.11902 -0.155706 0
M  V30 2969 N 286.374 -6.94482 -1.03144 0
M  V30 2970 H 291.214 -2.86513 0.819413 0
M  V30 2971 H 288.751 -1.41102 0.415783 0
M  V30 2972 H 290.709 -3.92129 -1.42446 0
M  V30 2973 H 289.339 -2.79579 -1.61356 0
M  V30 2974 H 288.391 -3.75507 0.608147 0
M  V30 2975 H 289.703 -4.95415 0.580082 0
M  V30 2976 H 288.857 -5.85292 -1.59744 0
M  V30 2977 H 287.596 -4.5889 -1.65141 0
M  V30 2978 H 286.601 -5.47742 0.475309 0
M  V30 2979 H 287.826 -6.77162 0.512635 0
M  V30 2980 H 285.772 -6.33877 -1.68924 0
M  V30 2981 H 285.689 -7.54665 -0.449108 0
M  V30 2982 H 286.957 -7.6214 -1.63593 0
M  V30 2983 N 291.186 -0.45159 -1.50991 0
M  V30 2984 C 292.116 0.342898 -2.30969 0
M  V30 2985 C 293.097 1.00815 -1.37005 0
M  V30 2986 O 294.282 1.00907 -1.65926 0
M  V30 2987 C 291.412 1.43637 -3.16205 0
M  V30 2988 C 290.366 0.893818 -4.18563 0
M  V30 2989 C 289.692 2.08411 -4.92411 0
M  V30 2990 C 290.992 -0.0815568 -5.22236 0
M  V30 2991 H 292.686 -0.324556 -2.97636 0
M  V30 2992 H 290.232 -0.157531 -1.43136 0
M  V30 2993 H 292.185 1.9995 -3.70942 0
M  V30 2994 H 290.909 2.13232 -2.47386 0
M  V30 2995 H 289.568 0.352798 -3.64898 0
M  V30 2996 H 289.216 2.76658 -4.20082 0
M  V30 2997 H 288.916 1.72741 -5.61636 0
M  V30 2998 H 290.44 2.65251 -5.49976 0
M  V30 2999 H 291.854 0.391742 -5.7196 0
M  V30 3000 H 290.251 -0.351551 -5.99069 0
M  V30 3001 H 291.321 -1.01374 -4.74185 0
M  V30 3002 N 292.664 1.56529 -0.183458 0
M  V30 3003 C 294.075 1.83739 0.331177 0
M  V30 3004 C 294.426 1.10373 1.62211 0
M  V30 3005 O 293.551 0.36071 2.13373 0
M  V30 3006 C 294.146 3.33306 0.607646 0
M  V30 3007 C 292.705 3.60969 1.06668 0
M  V30 3008 C 291.852 2.77086 0.109029 0
M  V30 3009 H 294.803 1.53379 -0.407484 0
M  V30 3010 H 294.824 3.51444 1.45832 0
M  V30 3011 H 294.336 3.86677 -0.332086 0
M  V30 3012 H 292.437 3.13021 2.0211 0
M  V30 3013 H 292.55 4.69231 0.967447 0
M  V30 3014 H 290.914 2.47319 0.608714 0
M  V30 3015 H 291.697 3.33241 -0.82494 0
M  V30 3016 N 294.142 -0.090211 1.57342 0
M  V30 3017 C 295.388 -0.793982 1.86611 0
M  V30 3018 C 295.721 -1.78142 0.773252 0
M  V30 3019 O 294.996 -1.93271 -0.218304 0
M  V30 3020 C 295.279 -1.51839 3.26523 0
M  V30 3021 C 295.132 -0.548609 4.46442 0
M  V30 3022 C 296.451 -2.46779 3.64401 0
M  V30 3023 H 293.57 -0.287186 0.678744 0
M  V30 3024 H 296.212 -0.0575076 1.89913 0
M  V30 3025 H 294.362 -2.14617 3.23839 0
M  V30 3026 H 296.034 0.0725513 4.61243 0
M  V30 3027 H 294.277 0.137614 4.33582 0
M  V30 3028 H 294.948 -1.09271 5.41076 0
M  V30 3029 H 297.424 -1.94089 3.68061 0
M  V30 3030 H 296.3 -2.94479 4.63221 0
M  V30 3031 H 296.561 -3.30758 2.93346 0
M  V30 3032 N 295.62 -1.53406 -0.361157 0
M  V30 3033 C 296.845 -1.74024 -1.12829 0
M  V30 3034 C 297.27 -0.470069 -1.82132 0
M  V30 3035 O 296.628 0.57619 -1.719 0
M  V30 3036 C 296.676 -2.90903 -2.13091 0
M  V30 3037 O 295.78 -2.59821 -3.20261 0
M  V30 3038 H 295.121 -0.577804 -0.327168 0
M  V30 3039 H 297.651 -2.00307 -0.41693 0
M  V30 3040 H 297.661 -3.17194 -2.56616 0
M  V30 3041 H 296.336 -3.83034 -1.62042 0
M  V30 3042 H 294.913 -2.44362 -2.81677 0
M  V30 3043 N 297.098 0.621204 -1.44841 0
M  V30 3044 C 298.344 1.3826 -1.48365 0
M  V30 3045 C 298.677 1.93831 -0.119624 0
M  V30 3046 O 297.952 1.74251 0.864111 0
M  V30 3047 C 298.235 2.54058 -2.55199 0
M  V30 3048 C 298.088 2.03772 -4.00995 0
M  V30 3049 C 299.407 3.56225 -2.58442 0
M  V30 3050 H 296.526 0.501374 -0.540179 0
M  V30 3051 H 299.168 0.7015 -1.76576 0
M  V30 3052 H 297.318 3.12162 -2.31274 0
M  V30 3053 H 298.99 1.50423 -4.36086 0
M  V30 3054 H 297.233 1.34876 -4.12299 0
M  V30 3055 H 297.904 2.87185 -4.71411 0
M  V30 3056 H 300.38 3.07939 -2.79844 0
M  V30 3057 H 299.256 4.34756 -3.3508 0
M  V30 3058 H 299.517 4.10949 -1.63013 0
M  V30 3059 N 298.576 1.31904 0.862503 0
M  V30 3060 C 299.987 1.19803 1.43193 0
M  V30 3061 C 300.338 -0.192567 1.95253 0
M  V30 3062 O 299.463 -1.09081 1.86896 0
M  V30 3063 C 300.058 2.16883 2.60283 0
M  V30 3064 C 298.617 2.08692 3.13248 0
M  V30 3065 C 297.764 2.05691 1.85975 0
M  V30 3066 H 300.715 1.43846 0.670365 0
M  V30 3067 H 300.736 1.76278 3.37204 0
M  V30 3068 H 300.248 3.18083 2.22363 0
M  V30 3069 H 298.349 1.10713 3.55771 0
M  V30 3070 H 298.462 2.9815 3.75025 0
M  V30 3071 H 296.826 1.50814 2.05249 0
M  V30 3072 H 297.609 3.08659 1.50282 0
M  V30 3073 N 300.054 -1.07777 1.14986 0
M  V30 3074 C 300.987 -2.14228 0.786243 0
M  V30 3075 C 301.965 -1.60888 -0.235347 0
M  V30 3076 O 303.149 -1.88099 -0.122909 0
M  V30 3077 C 300.276 -3.38281 0.168433 0
M  V30 3078 C 299.322 -4.10387 1.16123 0
M  V30 3079 S 300.155 -4.62371 2.70135 0
M  V30 3080 C 301.311 -5.89704 2.09762 0
M  V30 3081 H 301.544 -2.44741 1.68787 0
M  V30 3082 H 299.077 -1.19984 0.971756 0
M  V30 3083 H 301.035 -4.10098 -0.181588 0
M  V30 3084 H 299.696 -3.05953 -0.710725 0
M  V30 3085 H 298.889 -4.99431 0.677086 0
M  V30 3086 H 298.491 -3.44513 1.45556 0
M  V30 3087 H 300.783 -6.61648 1.45701 0
M  V30 3088 H 301.726 -6.42824 2.96955 0
M  V30 3089 H 302.134 -5.4302 1.54239 0
M  V30 3090 N 301.532 -0.945985 -1.26051 0
M  V30 3091 C 302.943 -0.638096 -1.75457 0
M  V30 3092 C 303.294 0.846672 -1.76991 0
M  V30 3093 O 302.419 1.66262 -1.38513 0
M  V30 3094 C 303.014 -1.15157 -3.18629 0
M  V30 3095 C 301.573 -0.894004 -3.65629 0
M  V30 3096 C 300.72 -1.29967 -2.44957 0
M  V30 3097 H 303.671 -1.12376 -1.1206 0
M  V30 3098 H 303.692 -0.507615 -3.77099 0
M  V30 3099 H 303.204 -2.23222 -3.1748 0
M  V30 3100 H 301.305 0.172057 -3.72203 0
M  V30 3101 H 301.418 -1.52439 -4.54202 0
M  V30 3102 H 299.782 -0.718078 -2.44368 0
M  V30 3103 H 300.565 -2.38935 -2.46505 0
M  V30 3104 N 303.011 1.40521 -0.713556 0
M  V30 3105 C 304.26 2.00155 -0.249192 0
M  V30 3106 C 304.573 1.57224 1.16362 0
M  V30 3107 O 305.779 2.09542 1.72639 0
M  V30 3108 C 304.235 3.5773 -0.3946 0
M  V30 3109 C 303.843 4.09635 -1.81392 0
M  V30 3110 C 305.587 4.24499 0.00907364 0
M  V30 3111 C 303.494 5.59707 -1.91003 0
M  V30 3112 H 302.424 0.74868 -0.0894114 0
M  V30 3113 H 305.075 1.60784 -0.884352 0
M  V30 3114 H 303.457 3.94792 0.30911 0
M  V30 3115 H 304.631 3.83955 -2.54785 0
M  V30 3116 H 302.946 3.55456 -2.16888 0
M  V30 3117 H 305.543 5.34683 -0.0420404 0
M  V30 3118 H 305.886 4.02824 1.05065 0
M  V30 3119 H 306.419 3.92536 -0.645007 0
M  V30 3120 H 303.158 5.86234 -2.93275 0
M  V30 3121 H 302.678 5.87258 -1.22019 0
M  V30 3122 H 304.357 6.24776 -1.6812 0
M  V30 3123 N 304.489 0.459591 1.5075 0
M  V30 3124 C 305.452 -0.329093 2.26825 0
M  V30 3125 C 306.452 -0.930481 1.31144 0
M  V30 3126 O 307.642 -0.801453 1.54669 0
M  V30 3127 C 304.774 -1.46768 3.07688 0
M  V30 3128 H 305.967 0.337924 2.9799 0
M  V30 3129 H 303.52 0.213336 1.54837 0
M  V30 3130 H 304.255 -2.17009 2.40993 0
M  V30 3131 H 304.04 -1.04238 3.77991 0
M  V30 3132 H 305.53 -2.02433 3.65254 0
M  V30 3133 N 305.967 -1.56429 0.191757 0
M  V30 3134 C 307.383 -1.58754 -0.164137 0
M  V30 3135 C 307.583 -1.20782 -1.61288 0
M  V30 3136 O 306.639 -0.928999 -2.34789 0
M  V30 3137 C 307.952 -3.00396 0.135195 0
M  V30 3138 C 309.5 -3.1291 0.0750351 0
M  V30 3139 C 309.975 -4.56679 0.347632 0
M  V30 3140 N 311.466 -4.62252 0.296131 0
M  V30 3141 C 312.201 -5.71379 0.480948 0
M  V30 3142 N 311.697 -6.88986 0.725933 0
M  V30 3143 N 313.49 -5.60563 0.415435 0
M  V30 3144 H 305.641 -1.79393 1.13718 0
M  V30 3145 H 307.904 -0.832414 0.453643 0
M  V30 3146 H 307.61 -3.32726 1.13958 0
M  V30 3147 H 307.484 -3.72963 -0.563773 0
M  V30 3148 H 309.871 -2.80394 -0.919948 0
M  V30 3149 H 309.952 -2.42736 0.807029 0
M  V30 3150 H 309.596 -4.89907 1.33992 0
M  V30 3151 H 309.526 -5.25039 -0.405212 0
M  V30 3152 H 312.017 -3.7773 0.113259 0
M  V30 3153 H 312.33 -7.68046 0.855857 0
M  V30 3154 H 310.675 -6.90801 0.762788 0
M  V30 3155 H 313.866 -4.67561 0.224486 0
M  V30 3156 H 314.039 -6.45551 0.562889 0
M  V30 3157 N 307.445 0.0818655 -1.57387 0
M  V30 3158 C 308.856 0.634871 -1.75574 0
M  V30 3159 C 309.207 1.78435 -0.815809 0
M  V30 3160 O 308.332 2.164 0.0025366 0
M  V30 3161 C 308.927 1.15845 -3.18379 0
M  V30 3162 C 307.486 1.65741 -3.37945 0
M  V30 3163 C 306.633 0.572549 -2.71325 0
M  V30 3164 H 309.584 -0.144268 -1.58043 0
M  V30 3165 H 309.605 2.02751 -3.21982 0
M  V30 3166 H 309.117 0.321631 -3.86765 0
M  V30 3167 H 307.218 2.51781 -2.74658 0
M  V30 3168 H 307.331 1.74129 -4.46336 0
M  V30 3169 H 305.695 1.01518 -2.33594 0
M  V30 3170 H 306.478 -0.253918 -3.4236 0
M  V30 3171 N 308.923 1.53595 0.353017 0
M  V30 3172 C 309.886 1.80232 1.41594 0
M  V30 3173 C 310.886 0.673081 1.46035 0
M  V30 3174 O 312.076 0.941335 1.46576 0
M  V30 3175 C 309.208 1.93578 2.80607 0
M  V30 3176 H 310.401 2.75174 1.19244 0
M  V30 3177 H 307.954 1.44864 0.586872 0
M  V30 3178 H 308.689 1.00746 3.08254 0
M  V30 3179 H 308.474 2.75724 2.78781 0
M  V30 3180 H 309.964 2.15735 3.57558 0
M  V30 3181 N 310.401 -0.613514 1.45168 0
M  V30 3182 C 311.817 -0.933629 1.29443 0
M  V30 3183 C 312.017 -2.00028 0.243101 0
M  V30 3184 O 311.073 -2.49848 -0.364992 0
M  V30 3185 C 312.386 -1.38018 2.67155 0
M  V30 3186 C 313.934 -1.49471 2.75004 0
M  V30 3187 C 314.409 -1.97503 4.13227 0
M  V30 3188 N 315.9 -2.04746 4.15491 0
M  V30 3189 C 316.635 -2.43121 5.19307 0
M  V30 3190 N 316.131 -2.80506 6.33473 0
M  V30 3191 N 317.924 -2.43408 5.06664 0
M  V30 3192 H 310.075 0.0916097 2.12202 0
M  V30 3193 H 312.338 -0.0216655 0.947752 0
M  V30 3194 H 312.044 -0.670625 3.45247 0
M  V30 3195 H 311.918 -2.34784 2.95222 0
M  V30 3196 H 314.305 -2.19519 1.9722 0
M  V30 3197 H 314.386 -0.510342 2.50657 0
M  V30 3198 H 314.03 -1.28045 4.91495 0
M  V30 3199 H 313.96 -2.96843 4.34962 0
M  V30 3200 H 316.451 -1.78468 3.33103 0
M  V30 3201 H 316.764 -3.08652 7.08487 0
M  V30 3202 H 315.109 -2.78216 6.36884 0
M  V30 3203 H 318.3 -2.13604 4.16523 0
M  V30 3204 H 318.473 -2.72989 5.87691 0
M  V30 3205 N 311.879 -1.3236 -0.855495 0
M  V30 3206 C 312.811 -1.17052 -1.97057 0
M  V30 3207 C 313.824 -0.10574 -1.62456 0
M  V30 3208 O 315.013 -0.354619 -1.74942 0
M  V30 3209 C 312.113 -0.769305 -3.30053 0
M  V30 3210 C 311.286 -1.9222 -3.929 0
M  V30 3211 C 310.345 -1.50466 -5.04228 0
M  V30 3212 O 309.371 -2.21655 -5.24269 0
M  V30 3213 N 310.573 -0.400209 -5.79119 0
M  V30 3214 H 313.338 -2.13103 -2.1073 0
M  V30 3215 H 310.899 -1.24885 -1.0303 0
M  V30 3216 H 312.891 -0.472407 -4.01933 0
M  V30 3217 H 311.461 0.100025 -3.1244 0
M  V30 3218 H 310.681 -2.38563 -3.13817 0
M  V30 3219 H 311.969 -2.69403 -4.31624 0
M  V30 3220 H 311.367 0.192319 -5.65373 0
M  V30 3221 H 309.924 -0.162912 -6.51596 0
M  V30 3222 N 313.357 1.07166 -1.15556 0
M  V30 3223 C 314.585 1.83514 -0.955519 0
M  V30 3224 C 315 1.82163 0.49621 0
M  V30 3225 O 314.357 1.23441 1.34419 0
M  V30 3226 C 314.408 3.30515 -1.46432 0
M  V30 3227 O 314.129 3.31937 -2.85918 0
M  V30 3228 C 315.63 4.23625 -1.30603 0
M  V30 3229 H 312.85 0.578926 -0.339244 0
M  V30 3230 H 315.394 1.35265 -1.53374 0
M  V30 3231 H 313.549 3.76106 -0.928584 0
M  V30 3232 H 313.963 4.23794 -3.09029 0
M  V30 3233 H 315.437 5.24831 -1.71047 0
M  V30 3234 H 315.914 4.38485 -0.250441 0
M  V30 3235 H 316.52 3.83871 -1.83094 0
M  V30 3236 N 314.835 0.952656 1.25548 0
M  V30 3237 C 316.06 0.623025 1.97821 0
M  V30 3238 C 316.485 -0.7976 1.70352 0
M  V30 3239 O 315.843 -1.53905 0.958283 0
M  V30 3240 C 315.891 0.885532 3.49558 0
M  V30 3241 O 314.995 -0.0366641 4.12384 0
M  V30 3242 H 314.336 0.237082 0.620232 0
M  V30 3243 H 316.866 1.27871 1.59719 0
M  V30 3244 H 316.876 0.811009 3.99858 0
M  V30 3245 H 315.551 1.92094 3.6888 0
M  V30 3246 H 314.128 0.0898954 3.72792 0
M  V30 3247 N 316.313 -1.40141 0.720998 0
M  V30 3248 C 317.729 -1.54632 0.395113 0
M  V30 3249 C 317.929 -1.69115 -1.09555 0
M  V30 3250 O 316.985 -1.68377 -1.88163 0
M  V30 3251 C 318.298 -2.77177 1.1659 0
M  V30 3252 C 319.846 -2.91 1.15274 0
M  V30 3253 C 320.321 -4.16465 1.90579 0
M  V30 3254 N 321.812 -4.23476 1.87675 0
M  V30 3255 C 322.547 -5.19475 2.42762 0
M  V30 3256 N 322.043 -6.21348 3.06428 0
M  V30 3257 N 323.836 -5.11592 2.32874 0
M  V30 3258 H 315.987 -1.28986 1.68749 0
M  V30 3259 H 318.25 -0.62412 0.713567 0
M  V30 3260 H 317.956 -2.72771 2.22011 0
M  V30 3261 H 317.83 -3.69442 0.76108 0
M  V30 3262 H 320.217 -2.94907 0.106702 0
M  V30 3263 H 320.298 -1.99838 1.59682 0
M  V30 3264 H 319.942 -4.1332 2.95176 0
M  V30 3265 H 319.872 -5.06646 1.43587 0
M  V30 3266 H 322.363 -3.50497 1.41281 0
M  V30 3267 H 322.676 -6.91034 3.45965 0
M  V30 3268 H 321.021 -6.21777 3.10514 0
M  V30 3269 H 324.212 -4.30936 1.82789 0
M  V30 3270 H 324.385 -5.86233 2.76106 0
M  V30 3271 N 317.792 -0.46758 -1.50504 0
M  V30 3272 C 319.02 0.0864133 -2.06719 0
M  V30 3273 C 319.435 1.33819 -1.33184 0
M  V30 3274 O 318.792 1.78061 -0.400083 0
M  V30 3275 C 318.843 0.378079 -3.59517 0
M  V30 3276 O 318.564 -0.824044 -4.3028 0
M  V30 3277 C 320.065 0.979426 -4.32345 0
M  V30 3278 H 317.285 -0.00551697 -0.670977 0
M  V30 3279 H 319.829 -0.655354 -1.93715 0
M  V30 3280 H 317.984 1.06977 -3.72337 0
M  V30 3281 H 318.398 -0.566518 -5.21432 0
M  V30 3282 H 319.872 1.1333 -5.40241 0
M  V30 3283 H 320.349 1.9686 -3.9261 0
M  V30 3284 H 320.955 0.326216 -4.24047 0
M  V30 3285 N 319.27 1.56325 -0.20005 0
M  V30 3286 C 320.547 1.89484 0.48529 0
M  V30 3287 C 320.927 1.1143 1.79294 0
M  V30 3288 O 320.275 0.216919 2.27468 0
M  V30 3289 C 320.485 3.41923 0.699243 0
M  V30 3290 C 321.833 4.12256 1.01638 0
M  V30 3291 O 322.857 3.47402 0.786792 0
M  V30 3292 O 321.716 5.26887 1.45095 0
M  V30 3293 H 318.81 0.787144 0.253639 0
M  V30 3294 H 321.356 1.67985 -0.240633 0
M  V30 3295 H 320.128 3.90658 -0.224008 0
M  V30 3296 H 319.751 3.69131 1.47744 0
M  V30 3297 N 320.748 -0.0735177 1.57428 0
M  V30 3298 C 321.988 -0.778363 1.89 0
M  V30 3299 C 322.352 -1.7483 0.793634 0
M  V30 3300 O 323.553 -2.49811 0.992367 0
M  V30 3301 C 321.824 -1.46929 3.25802 0
M  V30 3302 S 323.383 -2.20943 3.79117 0
M  V30 3303 H 320.201 -0.258874 0.662197 0
M  V30 3304 H 322.803 -0.0345338 1.95469 0
M  V30 3305 H 321.507 -0.749532 4.03497 0
M  V30 3306 H 321.038 -2.25258 3.22525 0
M  V30 3307 H 323.053 -3.47435 3.54265 0
M  V30 3308 N 322.226 -1.5378 -0.344866 0
M  V30 3309 C 323.637 -1.62428 -0.920552 0
M  V30 3310 C 323.988 -0.504747 -1.89596 0
M  V30 3311 O 323.113 0.365711 -2.13287 0
M  V30 3312 C 323.708 -2.94419 -1.67639 0
M  V30 3313 C 322.267 -3.05333 -2.20111 0
M  V30 3314 C 321.414 -2.57866 -1.01982 0
M  V30 3315 H 324.365 -1.58222 -0.123042 0
M  V30 3316 H 324.386 -2.83384 -2.53917 0
M  V30 3317 H 323.898 -3.7588 -0.966224 0
M  V30 3318 H 321.999 -2.28502 -2.94308 0
M  V30 3319 H 322.112 -4.10778 -2.46573 0
M  V30 3320 H 320.476 -2.13241 -1.39285 0
M  V30 3321 H 321.259 -3.41765 -0.324308 0
M  V30 3322 N 323.704 0.605807 -1.45491 0
M  V30 3323 C 324.667 1.69836 -1.5391 0
M  V30 3324 C 325.667 1.55261 -0.418424 0
M  V30 3325 O 326.857 1.60296 -0.681965 0
M  V30 3326 C 323.989 3.09117 -1.43734 0
M  V30 3327 H 325.182 1.63738 -2.51257 0
M  V30 3328 H 322.735 0.821689 -1.32959 0
M  V30 3329 H 323.47 3.20791 -0.475788 0
M  V30 3330 H 323.255 3.21104 -2.25021 0
M  V30 3331 H 324.745 3.88696 -1.52661 0
M  V30 3332 N 325.182 1.32811 0.848464 0
M  V30 3333 C 326.459 1.14334 1.58704 0
M  V30 3334 C 326.839 -0.293948 2.09043 0
M  V30 3335 O 326.187 -1.29153 1.88499 0
M  V30 3336 C 326.397 2.17626 2.72837 0
M  V30 3337 C 327.745 2.51282 3.42261 0
M  V30 3338 O 328.769 2.16219 2.83068 0
M  V30 3339 O 327.628 3.11413 4.49093 0
M  V30 3340 H 324.722 0.441601 0.699226 0
M  V30 3341 H 327.268 1.44362 0.892053 0
M  V30 3342 H 326.04 3.14211 2.3321 0
M  V30 3343 H 325.663 1.88628 3.50008 0
M  V30 3344 N 326.66 -1.06551 1.16123 0
M  V30 3345 C 328.076 -1.3142 0.905585 0
M  V30 3346 C 328.276 -1.96571 -0.442964 0
M  V30 3347 O 327.332 -2.23068 -1.18308 0
M  V30 3348 C 328.645 -2.19741 2.05267 0
M  V30 3349 C 330.193 -2.33165 2.08813 0
M  V30 3350 C 330.668 -3.24838 3.22868 0
M  V30 3351 N 332.159 -3.32421 3.22568 0
M  V30 3352 C 332.894 -4.0344 4.0746 0
M  V30 3353 N 332.39 -4.77003 5.02434 0
M  V30 3354 N 334.183 -3.99464 3.95456 0
M  V30 3355 H 326.334 -0.626548 2.02949 0
M  V30 3356 H 328.597 -0.338777 0.8854 0
M  V30 3357 H 328.303 -1.79142 3.02657 0
M  V30 3358 H 328.177 -3.20313 1.99198 0
M  V30 3359 H 330.564 -2.73013 1.12018 0
M  V30 3360 H 330.645 -1.3227 2.18948 0
M  V30 3361 H 330.289 -2.85708 4.19921 0
M  V30 3362 H 330.219 -4.25707 3.0997 0
M  V30 3363 H 332.71 -2.79994 2.53795 0
M  V30 3364 H 333.023 -5.28712 5.63634 0
M  V30 3365 H 331.368 -4.75992 5.06415 0
M  V30 3366 H 334.559 -3.4111 3.20564 0
M  V30 3367 H 334.732 -4.54544 4.61837 0
M  V30 3368 N 328.138 -0.959301 -1.25041 0
M  V30 3369 C 329.068 -0.501388 -2.28053 0
M  V30 3370 C 330.049 0.454673 -1.63911 0
M  V30 3371 O 331.234 0.352618 -1.90972 0
M  V30 3372 C 328.364 0.217224 -3.4662 0
M  V30 3373 C 327.318 -0.654034 -4.22973 0
M  V30 3374 C 326.644 0.195589 -5.34342 0
M  V30 3375 C 327.944 -1.93447 -4.85155 0
M  V30 3376 H 329.638 -1.36238 -2.66608 0
M  V30 3377 H 327.184 -0.656534 -1.28163 0
M  V30 3378 H 329.137 0.548732 -4.17812 0
M  V30 3379 H 327.861 1.1125 -3.07068 0
M  V30 3380 H 326.52 -0.968693 -3.5357 0
M  V30 3381 H 326.168 1.09076 -4.91031 0
M  V30 3382 H 325.868 -0.384091 -5.86343 0
M  V30 3383 H 327.392 0.521958 -6.08365 0
M  V30 3384 H 328.806 -1.66908 -5.48466 0
M  V30 3385 H 327.203 -2.46018 -5.47353 0
M  V30 3386 H 328.273 -2.63466 -4.07079 0
M  V30 3387 N 329.616 1.39756 -0.72842 0
M  V30 3388 C 330.563 2.30647 -0.0841519 0
M  V30 3389 C 331.533 1.48869 0.7367 0
M  V30 3390 O 332.718 1.77574 0.698015 0
M  V30 3391 C 329.858 3.35165 0.822091 0
M  V30 3392 C 328.971 4.31999 -0.0106663 0
M  V30 3393 C 328.106 5.23585 0.896241 0
M  V30 3394 C 327.145 6.12072 0.0583381 0
M  V30 3395 N 326.282 6.96035 0.920818 0
M  V30 3396 H 331.122 2.85173 -0.864891 0
M  V30 3397 H 328.659 1.40422 -0.438179 0
M  V30 3398 H 330.617 3.94345 1.36189 0
M  V30 3399 H 329.247 2.8211 1.56888 0
M  V30 3400 H 328.299 3.74492 -0.66781 0
M  V30 3401 H 329.611 4.9443 -0.658825 0
M  V30 3402 H 328.765 5.87759 1.50412 0
M  V30 3403 H 327.504 4.61459 1.57819 0
M  V30 3404 H 326.509 5.46916 -0.562389 0
M  V30 3405 H 327.734 6.76261 -0.6203 0
M  V30 3406 H 325.68 6.36485 1.58818 0
M  V30 3407 H 325.597 7.55284 0.32899 0
M  V30 3408 H 326.865 7.64646 1.51447 0
M  V30 3409 N 331.094 0.475555 1.50254 0
M  V30 3410 C 332.341 -0.0778919 2.0235 0
M  V30 3411 C 332.669 -1.39319 1.35722 0
M  V30 3412 O 331.924 -1.89888 0.473395 0
M  V30 3413 C 332.223 -0.305114 3.56095 0
M  V30 3414 C 331.889 0.92903 4.41225 0
M  V30 3415 C 330.551 1.26739 4.6421 0
M  V30 3416 C 332.903 1.75054 4.90923 0
M  V30 3417 C 330.231 2.42724 5.34137 0
M  V30 3418 C 332.583 2.9017 5.62125 0
M  V30 3419 C 331.247 3.24416 5.83362 0
M  V30 3420 H 330.517 -0.0285027 0.740452 0
M  V30 3421 H 333.164 0.630543 1.80821 0
M  V30 3422 H 331.469 -1.09584 3.76163 0
M  V30 3423 H 333.166 -0.747377 3.93974 0
M  V30 3424 H 329.756 0.655428 4.23559 0
M  V30 3425 H 333.94 1.50231 4.73016 0
M  V30 3426 H 329.196 2.69525 5.48786 0
M  V30 3427 H 333.37 3.54169 5.99614 0
M  V30 3428 H 330.997 4.14396 6.37323 0
M  V30 3429 N 332.573 -1.56217 0.208337 0
M  V30 3430 C 333.82 -1.97949 -0.42692 0
M  V30 3431 C 334.148 -1.09562 -1.60706 0
M  V30 3432 O 333.403 -0.137616 -1.95216 0
M  V30 3433 C 333.702 -3.45441 -0.916797 0
M  V30 3434 C 333.368 -4.50646 0.151391 0
M  V30 3435 C 332.03 -4.79139 0.444867 0
M  V30 3436 C 334.382 -5.13811 0.874492 0
M  V30 3437 C 331.71 -5.68084 1.46619 0
M  V30 3438 C 334.062 -6.03861 1.88506 0
M  V30 3439 C 332.726 -6.30704 2.18559 0
M  V30 3440 H 331.996 -0.724345 -0.156221 0
M  V30 3441 H 334.643 -1.89006 0.308084 0
M  V30 3442 H 332.948 -3.51521 -1.73032 0
M  V30 3443 H 334.645 -3.75094 -1.41794 0
M  V30 3444 H 331.235 -4.28511 -0.0875068 0
M  V30 3445 H 335.419 -4.91879 0.660996 0
M  V30 3446 H 330.675 -5.87151 1.7048 0
M  V30 3447 H 334.849 -6.51861 2.45051 0
M  V30 3448 H 332.476 -6.99424 2.97843 0
M  V30 3449 N 334.051 0.0651679 -1.57465 0
M  V30 3450 C 334.961 1.09448 -2.07505 0
M  V30 3451 C 335.977 1.41974 -1.00595 0
M  V30 3452 O 337.153 1.52018 -1.32107 0
M  V30 3453 C 334.218 2.38689 -2.51453 0
M  V30 3454 C 333.279 2.13073 -3.72691 0
M  V30 3455 C 332.512 3.36152 -4.14533 0
M  V30 3456 O 332.735 4.45517 -3.56189 0
M  V30 3457 O 331.669 3.23974 -5.07272 0
M  V30 3458 H 335.495 0.69935 -2.95538 0
M  V30 3459 H 333.08 0.279752 -1.46757 0
M  V30 3460 H 334.962 3.14736 -2.80212 0
M  V30 3461 H 333.637 2.77568 -1.66546 0
M  V30 3462 H 332.544 1.34709 -3.49005 0
M  V30 3463 H 333.877 1.79071 -4.5847 0
M  V30 3464 N 335.529 1.53961 0.336706 0
M  V30 3465 C 336.757 1.75483 1.09605 0
M  V30 3466 C 337.172 0.4972 1.82136 0
M  V30 3467 O 336.529 -0.53149 1.74589 0
M  V30 3468 C 336.58 2.93943 2.10428 0
M  V30 3469 O 336.301 4.14842 1.40846 0
M  V30 3470 C 337.802 3.27571 2.98684 0
M  V30 3471 H 335.022 0.586166 0.326574 0
M  V30 3472 H 337.566 2.00808 0.38683 0
M  V30 3473 H 335.721 2.70929 2.76905 0
M  V30 3474 H 336.135 4.81383 2.08255 0
M  V30 3475 H 337.609 4.13791 3.6535 0
M  V30 3476 H 338.086 2.44168 3.65074 0
M  V30 3477 H 338.692 3.52615 2.37787 0
M  V30 3478 N 337.007 -0.598083 1.45811 0
M  V30 3479 C 337.937 -1.71873 1.58057 0
M  V30 3480 C 338.918 -1.64533 0.431615 0
M  V30 3481 O 340.103 -1.82787 0.65595 0
M  V30 3482 C 337.233 -3.10495 1.55597 0
M  V30 3483 C 336.187 -3.32654 2.69305 0
M  V30 3484 C 335.513 -4.71646 2.51902 0
M  V30 3485 C 336.813 -3.21981 4.11248 0
M  V30 3486 H 338.507 -1.61881 2.51863 0
M  V30 3487 H 336.053 -0.777372 1.21214 0
M  V30 3488 H 338.006 -3.88699 1.6276 0
M  V30 3489 H 336.73 -3.2135 0.583255 0
M  V30 3490 H 335.389 -2.56843 2.61586 0
M  V30 3491 H 335.037 -4.79246 1.52748 0
M  V30 3492 H 334.737 -4.87426 3.2816 0
M  V30 3493 H 336.261 -5.52038 2.60933 0
M  V30 3494 H 337.675 -3.90049 4.20161 0
M  V30 3495 H 336.072 -3.49289 4.87972 0
M  V30 3496 H 337.142 -2.1928 4.32486 0
M  V30 3497 N 338.485 -1.33259 -0.841409 0
M  V30 3498 C 339.901 -1.12538 -1.13169 0
M  V30 3499 C 340.101 0.0854037 -2.01319 0
M  V30 3500 O 339.157 0.766417 -2.40587 0
M  V30 3501 C 340.47 -2.41156 -1.79623 0
M  V30 3502 C 342.018 -2.47038 -1.922 0
M  V30 3503 C 342.493 -3.7561 -2.6207 0
M  V30 3504 N 343.984 -3.76667 -2.69585 0
M  V30 3505 C 344.719 -4.72861 -3.2433 0
M  V30 3506 N 344.215 -5.79428 -3.79783 0
M  V30 3507 N 346.008 -4.6034 -3.22558 0
M  V30 3508 H 338.159 -2.10868 -0.254676 0
M  V30 3509 H 340.422 -0.931615 -0.175493 0
M  V30 3510 H 340.128 -3.29747 -1.22311 0
M  V30 3511 H 340.002 -2.53114 -2.79666 0
M  V30 3512 H 342.389 -1.58898 -2.48667 0
M  V30 3513 H 342.47 -2.39022 -0.911148 0
M  V30 3514 H 342.114 -4.64131 -2.06263 0
M  V30 3515 H 342.044 -3.80902 -3.63622 0
M  V30 3516 H 344.535 -2.99648 -2.30259 0
M  V30 3517 H 344.848 -6.48867 -4.19752 0
M  V30 3518 H 343.193 -5.83166 -3.78078 0
M  V30 3519 H 346.384 -3.76244 -2.78492 0
M  V30 3520 H 346.557 -5.35478 -3.64921 0
M  V30 3521 N 339.963 1.05934 -1.16686 0
M  V30 3522 C 340.893 2.1546 -0.899949 0
M  V30 3523 C 341.874 1.69391 0.155154 0
M  V30 3524 O 343.059 1.94199 0.00648693 0
M  V30 3525 C 340.189 3.44939 -0.404241 0
M  V30 3526 C 339.143 4.04536 -1.39767 0
M  V30 3527 C 338.469 5.29268 -0.760216 0
M  V30 3528 C 339.769 4.42893 -2.76845 0
M  V30 3529 H 341.463 2.38046 -1.81588 0
M  V30 3530 H 339.009 1.14404 -0.874514 0
M  V30 3531 H 340.962 4.20901 -0.204971 0
M  V30 3532 H 339.686 3.21983 0.547206 0
M  V30 3533 H 338.345 3.30635 -1.58355 0
M  V30 3534 H 337.993 5.02611 0.197831 0
M  V30 3535 H 337.693 5.70101 -1.42332 0
M  V30 3536 H 339.217 6.07924 -0.57105 0
M  V30 3537 H 340.631 5.09921 -2.62019 0
M  V30 3538 H 339.028 4.94721 -3.39663 0
M  V30 3539 H 340.098 3.53584 -3.31823 0
M  V30 3540 N 341.441 0.965919 1.2453 0
M  V30 3541 C 342.371 0.513476 2.27784 0
M  V30 3542 C 343.352 -0.445974 1.6415 0
M  V30 3543 O 344.537 -0.342485 1.91156 0
M  V30 3544 C 341.667 -0.198839 3.4673 0
M  V30 3545 C 340.621 0.676456 4.2262 0
M  V30 3546 C 339.947 -0.167248 5.34438 0
M  V30 3547 C 341.247 1.96017 4.84123 0
M  V30 3548 H 342.941 1.3765 2.65881 0
M  V30 3549 H 340.487 0.663321 1.27813 0
M  V30 3550 H 342.44 -0.526567 4.18097 0
M  V30 3551 H 341.164 -1.0962 3.07654 0
M  V30 3552 H 339.823 0.98743 3.53052 0
M  V30 3553 H 339.471 -1.0647 4.91603 0
M  V30 3554 H 339.171 0.415181 5.86131 0
M  V30 3555 H 340.695 -0.489688 6.08633 0
M  V30 3556 H 342.109 1.69814 5.47573 0
M  V30 3557 H 340.506 2.48918 5.4604 0
M  V30 3558 H 341.576 2.65622 4.05676 0
M  V30 3559 N 342.919 -1.39368 0.735821 0
M  V30 3560 C 343.849 -2.33234 0.111506 0
M  V30 3561 C 344.83 -1.53954 -0.723334 0
M  V30 3562 O 346.015 -1.82344 -0.668147 0
M  V30 3563 C 343.145 -3.38057 -0.795917 0
M  V30 3564 C 342.099 -4.2795 -0.065172 0
M  V30 3565 C 341.425 -5.23479 -1.08967 0
M  V30 3566 C 342.725 -5.10741 1.09273 0
M  V30 3567 H 344.419 -2.85692 0.895571 0
M  V30 3568 H 341.965 -1.37364 0.432109 0
M  V30 3569 H 343.918 -4.02675 -1.24221 0
M  V30 3570 H 342.642 -2.8404 -1.61211 0
M  V30 3571 H 341.301 -3.64813 0.361511 0
M  V30 3572 H 340.949 -4.65758 -1.89944 0
M  V30 3573 H 340.649 -5.84472 -0.605489 0
M  V30 3574 H 342.173 -5.90974 -1.53565 0
M  V30 3575 H 343.587 -5.68699 0.724841 0
M  V30 3576 H 341.984 -5.8088 1.50659 0
M  V30 3577 H 343.054 -4.45525 1.91404 0
M  V30 3578 N 344.397 -0.483516 -1.5 0
M  V30 3579 C 345.344 0.304164 -2.28787 0
M  V30 3580 C 346.314 0.976114 -1.34392 0
M  V30 3581 O 347.499 0.986156 -1.63339 0
M  V30 3582 C 344.639 1.37298 -3.16612 0
M  V30 3583 C 343.752 0.714561 -4.26049 0
M  V30 3584 C 342.887 1.76232 -5.01114 0
M  V30 3585 C 341.926 1.08483 -6.0241 0
M  V30 3586 N 341.063 2.076 -6.70706 0
M  V30 3587 H 345.903 -0.373981 -2.95644 0
M  V30 3588 H 343.44 -0.196275 -1.45785 0
M  V30 3589 H 345.398 2.00445 -3.65893 0
M  V30 3590 H 344.028 2.02012 -2.51776 0
M  V30 3591 H 343.08 -0.0297798 -3.80388 0
M  V30 3592 H 344.392 0.180383 -4.98474 0
M  V30 3593 H 343.546 2.46929 -5.54176 0
M  V30 3594 H 342.285 2.33033 -4.28424 0
M  V30 3595 H 341.29 0.363545 -5.48597 0
M  V30 3596 H 342.515 0.523551 -6.77079 0
M  V30 3597 H 340.461 2.63394 -6.00799 0
M  V30 3598 H 340.378 1.59201 -7.39047 0
M  V30 3599 H 341.646 2.77639 -7.2838 0
M  V30 3600 N 345.875 1.56104 -0.216619 0
M  V30 3601 C 346.805 2.23063 0.690296 0
M  V30 3602 C 347.786 1.20072 1.20485 0
M  V30 3603 O 348.971 1.48643 1.24976 0
M  V30 3604 C 346.101 2.90672 1.90072 0
M  V30 3605 C 345.055 4.00092 1.5202 0
M  V30 3606 C 344.381 4.54972 2.80899 0
M  V30 3607 C 345.681 5.17398 0.71391 0
M  V30 3608 H 347.375 2.99109 0.132038 0
M  V30 3609 H 344.921 1.43866 0.0620664 0
M  V30 3610 H 346.874 3.36204 2.54057 0
M  V30 3611 H 345.598 2.12066 2.48386 0
M  V30 3612 H 344.257 3.55283 0.903839 0
M  V30 3613 H 343.905 3.73102 3.37348 0
M  V30 3614 H 343.605 5.28817 2.56176 0
M  V30 3615 H 345.129 5.0322 3.45836 0
M  V30 3616 H 346.543 5.59342 1.25735 0
M  V30 3617 H 344.94 5.97444 0.563951 0
M  V30 3618 H 346.01 4.84088 -0.280527 0
M  V30 3619 N 347.353 -0.0568162 1.57498 0
M  V30 3620 C 348.581 -0.765626 1.92213 0
M  V30 3621 C 348.996 -1.70353 0.813961 0
M  V30 3622 O 348.353 -1.81268 -0.211701 0
M  V30 3623 C 348.404 -1.5465 3.2675 0
M  V30 3624 O 348.125 -0.646278 4.33307 0
M  V30 3625 C 349.626 -2.35497 3.75574 0
M  V30 3626 H 346.846 -0.216835 0.634999 0
M  V30 3627 H 349.39 -0.0226146 2.04487 0
M  V30 3628 H 347.545 -2.24165 3.15957 0
M  V30 3629 H 347.959 -1.19093 5.108 0
M  V30 3630 H 349.433 -2.85722 4.72299 0
M  V30 3631 H 349.91 -3.15692 3.05344 0
M  V30 3632 H 350.516 -1.7111 3.8936 0
M  V30 3633 N 348.832 -1.54138 -0.328536 0
M  V30 3634 C 350.057 -1.76378 -1.09112 0
M  V30 3635 C 350.482 -0.508596 -1.81094 0
M  V30 3636 O 349.84 0.539598 -1.73084 0
M  V30 3637 C 349.888 -2.95358 -2.06872 0
M  V30 3638 O 348.992 -2.66556 -3.14677 0
M  V30 3639 H 348.333 -0.584614 -0.314838 0
M  V30 3640 H 350.863 -2.01146 -0.374348 0
M  V30 3641 H 350.873 -3.22566 -2.4983 0
M  V30 3642 H 349.548 -3.86385 -1.5388 0
M  V30 3643 H 348.125 -2.50282 -2.7643 0
M  V30 3644 N 350.31 0.590341 -1.46126 0
M  V30 3645 C 351.556 1.35082 -1.51264 0
M  V30 3646 C 351.889 1.93534 -0.160711 0
M  V30 3647 O 351.164 1.76045 0.826956 0
M  V30 3648 C 351.447 2.48588 -2.6053 0
M  V30 3649 C 351.3 1.95221 -4.05227 0
M  V30 3650 C 352.619 3.50662 -2.6594 0
M  V30 3651 H 349.738 0.489803 -0.550692 0
M  V30 3652 H 352.38 0.663887 -1.78024 0
M  V30 3653 H 350.53 3.07186 -2.37843 0
M  V30 3654 H 352.202 1.41139 -4.39178 0
M  V30 3655 H 350.445 1.26101 -4.15068 0
M  V30 3656 H 351.116 2.77121 -4.77397 0
M  V30 3657 H 353.592 3.01934 -2.86313 0
M  V30 3658 H 352.468 4.27551 -3.44226 0
M  V30 3659 H 352.729 4.07399 -1.71694 0
M  V30 3660 N 351.788 1.33704 0.83433 0
M  V30 3661 C 353.013 1.28615 1.62705 0
M  V30 3662 C 353.438 -0.139242 1.87584 0
M  V30 3663 O 352.796 -1.09734 1.4432 0
M  V30 3664 C 352.844 2.07139 2.95171 0
M  V30 3665 O 351.948 1.4331 3.86699 0
M  V30 3666 H 351.289 0.44226 0.49528 0
M  V30 3667 H 353.819 1.76335 1.03766 0
M  V30 3668 H 353.829 2.18073 3.44831 0
M  V30 3669 H 352.504 3.10779 2.76386 0
M  V30 3670 H 351.081 1.4105 3.45195 0
M  V30 3671 N 353.266 -1.05314 1.17247 0
M  V30 3672 C 354.213 -2.13031 0.888058 0
M  V30 3673 C 355.183 -1.65253 -0.167537 0
M  V30 3674 O 356.368 -1.90775 -0.0305974 0
M  V30 3675 C 353.508 -3.42702 0.406147 0
M  V30 3676 C 352.621 -4.04161 1.52572 0
M  V30 3677 C 351.756 -5.21744 0.997808 0
M  V30 3678 C 350.795 -5.75207 2.09291 0
M  V30 3679 N 349.932 -6.84094 1.57986 0
M  V30 3680 H 354.772 -2.36698 1.81048 0
M  V30 3681 H 352.309 -1.16121 0.903013 0
M  V30 3682 H 354.267 -4.17059 0.108305 0
M  V30 3683 H 352.897 -3.19222 -0.479313 0
M  V30 3684 H 351.949 -3.27253 1.93931 0
M  V30 3685 H 353.261 -4.39881 2.35172 0
M  V30 3686 H 352.415 -6.03168 0.653739 0
M  V30 3687 H 351.154 -4.87495 0.141232 0
M  V30 3688 H 350.159 -4.92414 2.44557 0
M  V30 3689 H 351.384 -6.11505 2.95362 0
M  V30 3690 H 349.33 -6.51745 0.74598 0
M  V30 3691 H 349.247 -7.18811 2.34195 0
M  V30 3692 H 350.515 -7.69172 1.26468 0
M  V30 3693 N 354.744 -0.972509 -1.24016 0
M  V30 3694 C 355.691 -0.505969 -2.25186 0
M  V30 3695 C 356.661 0.451009 -1.5986 0
M  V30 3696 O 357.846 0.360307 -1.87367 0
M  V30 3697 C 354.986 0.193089 -3.44559 0
M  V30 3698 C 354.099 -0.803222 -4.24467 0
M  V30 3699 C 353.234 -0.0797793 -5.3114 0
M  V30 3700 C 352.273 -1.06583 -6.02749 0
M  V30 3701 N 351.41 -0.372074 -7.01113 0
M  V30 3702 H 356.25 -1.37351 -2.64459 0
M  V30 3703 H 353.787 -0.688419 -1.29997 0
M  V30 3704 H 355.745 0.615125 -4.1264 0
M  V30 3705 H 354.375 1.02455 -3.06109 0
M  V30 3706 H 353.427 -1.34368 -3.55878 0
M  V30 3707 H 354.739 -1.55494 -4.73944 0
M  V30 3708 H 353.893 0.400015 -6.0538 0
M  V30 3709 H 352.632 0.704597 -4.82583 0
M  V30 3710 H 351.637 -1.55645 -5.27309 0
M  V30 3711 H 352.862 -1.85074 -6.53395 0
M  V30 3712 H 350.808 0.393238 -6.5482 0
M  V30 3713 H 350.725 -1.06258 -7.48495 0
M  V30 3714 H 351.993 0.0855932 -7.79453 0
M  V30 3715 N 356.222 1.38976 -0.743202 0
M  V30 3716 C 357.169 2.30544 -0.10861 0
M  V30 3717 C 358.139 1.49642 0.720869 0
M  V30 3718 O 359.324 1.78304 0.679142 0
M  V30 3719 C 356.464 3.36018 0.786496 0
M  V30 3720 C 355.577 4.31963 -0.0564849 0
M  V30 3721 C 354.712 5.24506 0.840657 0
M  V30 3722 C 353.751 6.121 -0.00658363 0
M  V30 3723 N 352.888 6.96973 0.846943 0
M  V30 3724 H 357.728 2.8424 -0.895088 0
M  V30 3725 H 355.265 1.3995 -0.453048 0
M  V30 3726 H 357.223 3.95768 1.31999 0
M  V30 3727 H 355.853 2.83758 1.53887 0
M  V30 3728 H 354.905 3.73763 -0.707492 0
M  V30 3729 H 356.217 4.93703 -0.711229 0
M  V30 3730 H 355.371 5.89322 1.4417 0
M  V30 3731 H 354.11 4.63107 1.52916 0
M  V30 3732 H 353.115 5.46289 -0.620366 0
M  V30 3733 H 354.34 6.75565 -0.691992 0
M  V30 3734 H 352.286 6.38133 1.52059 0
M  V30 3735 H 352.203 7.5559 0.248864 0
M  V30 3736 H 353.471 7.6621 1.43328 0
M  V30 3737 N 357.7 0.491464 1.49741 0
M  V30 3738 C 358.977 -0.118984 1.95238 0
M  V30 3739 C 359.357 -1.55044 1.43264 0
M  V30 3740 O 358.705 -2.19287 0.642287 0
M  V30 3741 C 358.915 -0.0414187 3.48975 0
M  V30 3742 C 360.263 -0.220133 4.24029 0
M  V30 3743 O 361.287 -0.117055 3.56008 0
M  V30 3744 O 360.146 -0.430567 5.44801 0
M  V30 3745 H 357.24 -0.100536 0.820866 0
M  V30 3746 H 359.786 0.553322 1.60426 0
M  V30 3747 H 358.558 0.957214 3.79412 0
M  V30 3748 H 358.181 -0.754292 3.9038 0
M  V30 3749 N 359.178 -1.55987 0.224894 0
M  V30 3750 C 360.594 -1.59066 -0.130426 0
M  V30 3751 C 360.794 -1.24176 -1.5869 0
M  V30 3752 O 359.85 -0.978592 -2.32766 0
M  V30 3753 C 361.163 -3.00042 0.198883 0
M  V30 3754 C 362.711 -3.1268 0.141391 0
M  V30 3755 C 363.186 -4.55839 0.444422 0
M  V30 3756 N 364.677 -4.6152 0.394115 0
M  V30 3757 C 365.412 -5.70231 0.602038 0
M  V30 3758 N 364.908 -6.87291 0.871914 0
M  V30 3759 N 366.701 -5.59555 0.534245 0
M  V30 3760 H 358.852 -1.76941 1.17497 0
M  V30 3761 H 361.115 -0.822604 0.471197 0
M  V30 3762 H 360.821 -3.30234 1.2099 0
M  V30 3763 H 360.695 -3.74075 -0.484535 0
M  V30 3764 H 363.082 -2.82283 -0.860265 0
M  V30 3765 H 363.163 -2.40969 0.858335 0
M  V30 3766 H 362.807 -4.86954 1.44353 0
M  V30 3767 H 362.737 -5.2578 -0.293752 0
M  V30 3768 H 365.228 -3.77405 0.193356 0
M  V30 3769 H 365.541 -7.66058 1.01858 0
M  V30 3770 H 363.886 -6.89028 0.909145 0
M  V30 3771 H 367.077 -4.6698 0.323612 0
M  V30 3772 H 367.25 -6.44211 0.699693 0
M  V30 3773 N 360.656 0.0484629 -1.57525 0
M  V30 3774 C 361.566 1.07241 -2.08654 0
M  V30 3775 C 362.582 1.409 -1.02095 0
M  V30 3776 O 363.758 1.50609 -1.33712 0
M  V30 3777 C 360.823 2.36008 -2.5397 0
M  V30 3778 C 359.884 2.09108 -3.7493 0
M  V30 3779 C 359.117 3.31736 -4.18075 0
M  V30 3780 O 359.34 4.41714 -3.60895 0
M  V30 3781 O 358.274 3.18576 -5.10679 0
M  V30 3782 H 362.1 0.667965 -2.96263 0
M  V30 3783 H 359.685 0.26417 -1.47046 0
M  V30 3784 H 361.567 3.11747 -2.83535 0
M  V30 3785 H 360.242 2.75786 -1.69481 0
M  V30 3786 H 359.149 1.31 -3.50414 0
M  V30 3787 H 360.482 1.74198 -4.60343 0
M  V30 3788 N 362.134 1.5431 0.320358 0
M  V30 3789 C 363.066 1.80262 1.41556 0
M  V30 3790 C 364.079 0.684723 1.477 0
M  V30 3791 O 365.268 0.961886 1.50366 0
M  V30 3792 C 362.368 1.90825 2.8007 0
M  V30 3793 C 361.541 3.21023 2.97091 0
M  V30 3794 C 360.6 3.22247 4.15985 0
M  V30 3795 O 359.626 3.95871 4.08992 0
M  V30 3796 N 360.828 2.46258 5.25678 0
M  V30 3797 H 363.593 2.74778 1.19655 0
M  V30 3798 H 361.154 1.53646 0.510358 0
M  V30 3799 H 363.146 1.89067 3.57821 0
M  V30 3800 H 361.716 1.03392 2.95006 0
M  V30 3801 H 360.936 3.35715 2.06614 0
M  V30 3802 H 362.224 4.0698 3.05361 0
M  V30 3803 H 361.622 1.86037 5.34235 0
M  V30 3804 H 360.179 2.50275 6.01835 0
M  V30 3805 N 363.613 -0.582584 1.46437 0
M  V30 3806 C 365.029 -0.905962 1.31394 0
M  V30 3807 C 365.229 -1.99468 0.285476 0
M  V30 3808 O 364.285 -2.50566 -0.311914 0
M  V30 3809 C 365.598 -1.3232 2.70022 0
M  V30 3810 C 367.146 -1.43604 2.78113 0
M  V30 3811 C 367.621 -1.88694 4.17323 0
M  V30 3812 N 369.112 -1.95887 4.19741 0
M  V30 3813 C 369.847 -2.32051 5.24347 0
M  V30 3814 N 369.343 -2.67006 6.39281 0
M  V30 3815 N 371.136 -2.32606 5.11713 0
M  V30 3816 H 363.287 0.1366 2.1196 0
M  V30 3817 H 365.55 -0.00155736 0.947999 0
M  V30 3818 H 365.256 -0.597242 3.46592 0
M  V30 3819 H 365.13 -2.28469 3.00136 0
M  V30 3820 H 367.517 -2.15286 2.01832 0
M  V30 3821 H 367.598 -0.457059 2.51684 0
M  V30 3822 H 367.242 -1.1759 4.941 0
M  V30 3823 H 367.172 -2.8755 4.4116 0
M  V30 3824 H 369.663 -1.71362 3.36814 0
M  V30 3825 H 369.976 -2.93554 7.14875 0
M  V30 3826 H 368.321 -2.64644 6.42642 0
M  V30 3827 H 371.512 -2.04721 4.2096 0
M  V30 3828 H 371.685 -2.60462 5.93349 0
M  V30 3829 N 365.091 -1.34144 -0.827227 0
M  V30 3830 C 366.339 -1.26009 -1.58007 0
M  V30 3831 C 366.66 0.170971 -1.94249 0
M  V30 3832 O 365.93 1.10256 -1.61927 0
M  V30 3833 H 364.51 -0.463414 -0.585881 0
M  V30 3834 H 367.172 -1.68005 -0.987951 0
M  V30 3835 H 366.268 -1.86187 -2.50481 0
M  V30 3836 N 366.569 1.04691 -1.17803 0
M  V30 3837 C 367.501 2.12571 -0.857097 0
M  V30 3838 C 368.514 1.62174 0.142647 0
M  V30 3839 O 369.703 1.78301 -0.0843387 0
M  V30 3840 C 366.803 3.37915 -0.258216 0
M  V30 3841 C 365.976 4.1757 -1.30207 0
M  V30 3842 C 365.035 5.2125 -0.720029 0
M  V30 3843 O 364.061 5.51888 -1.39314 0
M  V30 3844 N 365.263 5.78466 0.485507 0
M  V30 3845 H 368.028 2.40698 -1.78562 0
M  V30 3846 H 365.589 1.20831 -1.07757 0
M  V30 3847 H 367.581 4.04442 0.144584 0
M  V30 3848 H 366.151 3.07281 0.574199 0
M  V30 3849 H 365.371 3.46458 -1.88043 0
M  V30 3850 H 366.659 4.67586 -2.00601 0
M  V30 3851 H 366.057 5.55866 1.05022 0
M  V30 3852 H 364.614 6.4649 0.830307 0
M  V30 3853 N 368.047 0.979072 1.23499 0
M  V30 3854 C 368.957 0.526431 2.28617 0
M  V30 3855 C 369.973 -0.418126 1.68901 0
M  V30 3856 O 371.149 -0.288372 1.99325 0
M  V30 3857 C 368.214 -0.165235 3.46306 0
M  V30 3858 C 367.275 0.82056 4.21385 0
M  V30 3859 C 366.508 0.161807 5.33455 0
M  V30 3860 O 366.731 -1.04742 5.60701 0
M  V30 3861 O 365.665 0.859708 5.95729 0
M  V30 3862 H 369.491 1.4006 2.69475 0
M  V30 3863 H 367.076 0.746643 1.29405 0
M  V30 3864 H 368.958 -0.553287 4.17752 0
M  V30 3865 H 367.633 -1.01419 3.07402 0
M  V30 3866 H 366.54 1.25929 3.52268 0
M  V30 3867 H 367.873 1.63828 4.64135 0
M  V30 3868 N 369.525 -1.3858 0.750561 0
M  V30 3869 C 370.473 -2.32339 0.110162 0
M  V30 3870 C 371.467 -1.53864 -0.708674 0
M  V30 3871 O 372.673 -1.69417 -0.608112 0
M  V30 3872 H 369.048 -0.751812 0.0168275 0
M  V30 3873 H 371.019 -2.83959 0.917053 0
M  V30 3874 C 369.768 -3.39043 -0.771067 0
M  V30 3875 H 369.091 -3.99517 -0.150374 0
M  V30 3876 H 370.531 -4.07061 -1.1865 0
M  V30 3877 C 368.99 -2.77365 -1.91234 0
M  V30 3878 O 369.52 -2.66434 -3.00626 0
M  V30 3879 N 367.726 -2.35219 -1.70646 0
M  V30 3880 H 367.273 -2.4431 -0.81673 0
M  V30 3881 H 367.231 -1.94294 -2.47178 0
M  V30 3882 N 371.003 -0.499398 -1.49478 0
M  V30 3883 C 372.231 0.0425456 -2.06856 0
M  V30 3884 C 372.646 1.30964 -1.35992 0
M  V30 3885 O 372.003 1.77172 -0.437762 0
M  V30 3886 C 372.054 0.301735 -3.60239 0
M  V30 3887 O 371.775 -0.915127 -4.28436 0
M  V30 3888 C 373.276 0.887499 -4.34325 0
M  V30 3889 H 370.496 -0.0197482 -0.670709 0
M  V30 3890 H 373.04 -0.696297 -1.92281 0
M  V30 3891 H 371.195 0.990556 -3.74522 0
M  V30 3892 H 371.609 -0.676993 -5.20113 0
M  V30 3893 H 373.083 1.01845 -5.42523 0
M  V30 3894 H 373.56 1.88488 -3.96698 0
M  V30 3895 H 374.166 0.236196 -4.24644 0
M  V30 3896 N 372.481 1.55866 -0.233164 0
M  V30 3897 C 373.706 2.03449 0.402906 0
M  V30 3898 C 374.131 1.11166 1.51736 0
M  V30 3899 O 373.489 0.101996 1.81013 0
M  V30 3900 C 373.537 3.49165 0.9009 0
M  V30 3901 O 372.641 3.60019 2.01147 0
M  V30 3902 H 371.982 0.657913 0.0897025 0
M  V30 3903 H 374.512 2.01493 -0.355201 0
M  V30 3904 H 374.522 3.89716 1.2077 0
M  V30 3905 H 373.197 4.15813 0.0852889 0
M  V30 3906 H 371.774 3.3136 1.71042 0
M  V30 3907 N 373.959 -0.0401083 1.57549 0
M  V30 3908 C 375.207 -0.731677 1.8839 0
M  V30 3909 C 375.528 -1.76481 0.829425 0
M  V30 3910 O 374.798 -1.95411 -0.1383 0
M  V30 3911 H 373.378 -0.273225 0.695239 0
M  V30 3912 H 376.04 -0.00867725 1.94898 0
M  V30 3913 H 375.136 -1.22816 2.86919 0
M  V30 3914 N 375.437 -1.54477 -0.31217 0
M  V30 3915 C 376.684 -1.73227 -1.04875 0
M  V30 3916 C 377.012 -0.512042 -1.87639 0
M  V30 3917 O 376.267 0.506131 -1.89042 0
M  V30 3918 C 376.566 -2.967 -1.99258 0
M  V30 3919 C 376.232 -4.30974 -1.32559 0
M  V30 3920 C 374.894 -4.67477 -1.141 0
M  V30 3921 C 377.246 -5.14258 -0.847835 0
M  V30 3922 C 374.574 -5.84852 -0.465326 0
M  V30 3923 C 376.926 -6.32327 -0.185931 0
M  V30 3924 C 375.59 -6.67499 0.0107077 0
M  V30 3925 H 374.86 -0.633881 -0.383765 0
M  V30 3926 H 377.507 -1.88727 -0.324731 0
M  V30 3927 H 375.812 -2.75935 -2.7815 0
M  V30 3928 H 377.509 -3.08401 -2.563 0
M  V30 3929 H 374.099 -4.02262 -1.4793 0
M  V30 3930 H 378.283 -4.86565 -0.978192 0
M  V30 3931 H 373.539 -6.10654 -0.301883 0
M  V30 3932 H 377.713 -6.96135 0.192211 0
M  V30 3933 H 375.34 -7.58306 0.536287 0
M  V30 3934 N 376.915 0.57481 -1.46744 0
M  V30 3935 C 378.161 1.33251 -1.53674 0
M  V30 3936 C 378.516 1.91468 -0.189125 0
M  V30 3937 O 377.809 1.73954 0.803151 0
M  V30 3938 C 378.003 2.476 -2.57738 0
M  V30 3939 C 377.832 2.00586 -4.02487 0
M  V30 3940 C 376.602 1.85237 -4.70123 0
M  V30 3941 C 378.8 1.56078 -4.90045 0
M  V30 3942 N 376.782 1.32377 -5.99458 0
M  V30 3943 C 378.153 1.14863 -6.09267 0
M  V30 3944 C 380.208 1.43968 -4.76632 0
M  V30 3945 C 378.911 0.627435 -7.16558 0
M  V30 3946 C 380.937 0.932512 -5.84002 0
M  V30 3947 C 380.299 0.53019 -7.02402 0
M  V30 3948 H 376.398 0.480284 -0.617131 0
M  V30 3949 H 378.982 0.653592 -1.83402 0
M  V30 3950 H 377.153 3.13045 -2.29907 0
M  V30 3951 H 378.885 3.14567 -2.54616 0
M  V30 3952 H 375.64 2.07423 -4.25761 0
M  V30 3953 H 376.064 1.08085 -6.68316 0
M  V30 3954 H 380.706 1.73689 -3.85476 0
M  V30 3955 H 378.424 0.317821 -8.07475 0
M  V30 3956 H 382.01 0.842611 -5.75666 0
M  V30 3957 H 380.89 0.14381 -7.84068 0
M  V30 3958 N 378.394 1.34581 0.820102 0
M  V30 3959 C 379.324 1.29038 1.94606 0
M  V30 3960 C 380.305 0.1673 1.69275 0
M  V30 3961 O 381.49 0.360112 1.90832 0
M  V30 3962 C 378.62 1.04793 3.31113 0
M  V30 3963 C 377.574 2.13597 3.70891 0
M  V30 3964 C 376.9 1.74537 5.05412 0
M  V30 3965 C 378.2 3.55451 3.8269 0
M  V30 3966 H 379.894 2.23248 1.99501 0
M  V30 3967 H 377.44 1.0747 0.958449 0
M  V30 3968 H 379.393 0.995592 4.0947 0
M  V30 3969 H 378.117 0.0702565 3.26524 0
M  V30 3970 H 376.776 2.17905 2.9481 0
M  V30 3971 H 376.424 0.754226 4.97313 0
M  V30 3972 H 376.124 2.47361 5.32997 0
M  V30 3973 H 377.648 1.70803 5.86224 0
M  V30 3974 H 379.062 3.5354 4.51312 0
M  V30 3975 H 377.459 4.26922 4.21732 0
M  V30 3976 H 378.529 3.92587 2.84611 0
M  V30 3977 N 379.872 -1.04064 1.18357 0
M  V30 3978 C 380.82 -2.14187 0.907007 0
M  V30 3979 C 381.814 -1.68879 -0.132725 0
M  V30 3980 O 383.02 -1.79993 0.0154248 0
M  V30 3981 H 379.395 -0.699585 0.275835 0
M  V30 3982 H 381.366 -2.34711 1.84264 0
M  V30 3983 C 380.115 -3.44785 0.449254 0
M  V30 3984 H 379.438 -3.80058 1.24081 0
M  V30 3985 H 380.878 -4.22974 0.294737 0
M  V30 3986 C 379.337 -3.26391 -0.834909 0
M  V30 3987 O 379.867 -3.53973 -1.89911 0
M  V30 3988 N 378.073 -2.79726 -0.787523 0
M  V30 3989 H 377.62 -2.5748 0.0787347 0
M  V30 3990 H 377.578 -2.67798 -1.64716 0
M  V30 3991 N 381.35 -0.985608 -1.22978 0
M  V30 3992 C 382.766 -0.695104 -1.43668 0
M  V30 3993 C 382.966 0.736866 -1.87543 0
M  V30 3994 O 382.022 1.50868 -2.02473 0
M  V30 3995 C 383.335 -1.69447 -2.48412 0
M  V30 3996 C 384.883 -1.70909 -2.62219 0
M  V30 3997 C 385.358 -2.6969 -3.70178 0
M  V30 3998 N 386.849 -2.6824 -3.77626 0
M  V30 3999 C 387.584 -3.41339 -4.60733 0
M  V30 4000 N 387.08 -4.24015 -5.4789 0
M  V30 4001 N 388.873 -3.30079 -4.54977 0
M  V30 4002 H 381.024 -1.91054 -0.928016 0
M  V30 4003 H 383.287 -0.823553 -0.469536 0
M  V30 4004 H 382.993 -2.7188 -2.23102 0
M  V30 4005 H 382.867 -1.48147 -3.46889 0
M  V30 4006 H 385.254 -0.691785 -2.86877 0
M  V30 4007 H 385.335 -1.96276 -1.6404 0
M  V30 4008 H 384.979 -3.71566 -3.46268 0
M  V30 4009 H 384.909 -2.41595 -4.67909 0
M  V30 4010 H 387.4 -2.08243 -3.15346 0
M  V30 4011 H 387.713 -4.76636 -6.08308 0
M  V30 4012 H 386.058 -4.28104 -5.47496 0
M  V30 4013 H 389.249 -2.64937 -3.85909 0
M  V30 4014 H 389.422 -3.87308 -5.19516 0
M  V30 4015 N 382.828 1.3818 -0.7579 0
M  V30 4016 C 384.053 2.04827 -0.325679 0
M  V30 4017 C 384.478 1.56788 1.03919 0
M  V30 4018 O 383.836 0.721811 1.66312 0
M  V30 4019 C 383.884 3.58774 -0.362447 0
M  V30 4020 O 382.988 4.07372 0.642033 0
M  V30 4021 H 382.329 0.64833 -0.143402 0
M  V30 4022 H 384.859 1.7677 -1.03023 0
M  V30 4023 H 384.869 4.07434 -0.214844 0
M  V30 4024 H 383.544 3.93096 -1.35824 0
M  V30 4025 H 382.121 3.70068 0.458688 0
M  V30 4026 N 384.306 0.507319 1.49211 0
M  V30 4027 C 385.254 -0.281364 2.30892 0
M  V30 4028 C 386.248 -0.95687 1.39787 0
M  V30 4029 O 387.454 -0.883838 1.56807 0
M  V30 4030 H 383.829 -0.109597 0.743971 0
M  V30 4031 H 385.8 0.42744 2.95323 0
M  V30 4032 C 384.549 -1.32918 3.21291 0
M  V30 4033 H 383.872 -0.818799 3.91326 0
M  V30 4034 H 385.312 -1.85288 3.81372 0
M  V30 4035 C 383.771 -2.35074 2.41333 0
M  V30 4036 O 384.301 -3.4108 2.12197 0
M  V30 4037 N 382.507 -2.07705 2.03241 0
M  V30 4038 H 382.054 -1.2152 2.27136 0
M  V30 4039 H 382.012 -2.76283 1.50051 0
M  V30 4040 N 385.784 -1.5574 0.241426 0
M  V30 4041 C 386.694 -2.2479 -0.671305 0
M  V30 4042 C 387.71 -1.26217 -1.19772 0
M  V30 4043 O 388.886 -1.59079 -1.23514 0
M  V30 4044 C 385.951 -2.92966 -1.85396 0
M  V30 4045 C 385.012 -4.06935 -1.36756 0
M  V30 4046 C 384.245 -4.71851 -2.49384 0
M  V30 4047 O 384.468 -4.35823 -3.67987 0
M  V30 4048 O 383.402 -5.60467 -2.19454 0
M  V30 4049 H 387.228 -3.0349 -0.112966 0
M  V30 4050 H 384.813 -1.49397 0.0101513 0
M  V30 4051 H 386.695 -3.35927 -2.54423 0
M  V30 4052 H 385.37 -2.17211 -2.40002 0
M  V30 4053 H 384.277 -3.68503 -0.644726 0
M  V30 4054 H 385.61 -4.84492 -0.867647 0
M  V30 4055 N 387.262 0.0317525 -1.57568 0
M  V30 4056 C 388.192 1.03274 -2.0942 0
M  V30 4057 C 389.173 1.3788 -0.996143 0
M  V30 4058 O 390.358 1.46811 -1.27122 0
M  V30 4059 C 387.488 2.33448 -2.57137 0
M  V30 4060 C 386.442 2.13091 -3.71182 0
M  V30 4061 C 385.768 3.49001 -4.05095 0
M  V30 4062 C 387.068 1.51928 -4.99715 0
M  V30 4063 H 388.762 0.60112 -2.93303 0
M  V30 4064 H 386.308 0.287705 -1.41097 0
M  V30 4065 H 388.261 3.03802 -2.92032 0
M  V30 4066 H 386.985 2.78665 -1.70333 0
M  V30 4067 H 385.644 1.45171 -3.36632 0
M  V30 4068 H 385.292 3.91862 -3.15362 0
M  V30 4069 H 384.992 3.36207 -4.81911 0
M  V30 4070 H 386.516 4.20721 -4.42522 0
M  V30 4071 H 387.93 2.12196 -5.32584 0
M  V30 4072 H 386.327 1.49716 -5.81124 0
M  V30 4073 H 387.397 0.484811 -4.8247 0
M  V30 4074 N 388.74 1.54641 0.303973 0
M  V30 4075 C 389.989 1.7299 1.03717 0
M  V30 4076 C 390.302 0.521168 1.88529 0
M  V30 4077 O 391.508 0.586408 2.65092 0
M  V30 4078 C 389.964 3.06051 1.89369 0
M  V30 4079 C 389.572 4.34393 1.09574 0
M  V30 4080 C 391.316 3.3376 2.62306 0
M  V30 4081 C 389.223 5.58506 1.94486 0
M  V30 4082 H 388.153 0.64473 0.390947 0
M  V30 4083 H 390.804 1.81124 0.294328 0
M  V30 4084 H 389.186 2.91874 2.67629 0
M  V30 4085 H 390.36 4.59396 0.359485 0
M  V30 4086 H 388.675 4.13597 0.482324 0
M  V30 4087 H 391.272 4.23687 3.26181 0
M  V30 4088 H 391.615 2.52503 3.3098 0
M  V30 4089 H 392.148 3.48894 1.91097 0
M  V30 4090 H 388.887 6.42422 1.30287 0
M  V30 4091 H 388.407 5.37694 2.65792 0
M  V30 4092 H 390.086 5.95651 2.52605 0
M  V30 4093 N 390.218 -0.567019 1.47046 0
M  V30 4094 C 391.464 -1.32434 1.54379 0
M  V30 4095 C 391.819 -1.91365 0.199276 0
M  V30 4096 O 391.112 -1.74378 -0.793915 0
M  V30 4097 C 391.306 -2.4623 2.59047 0
M  V30 4098 C 391.135 -1.98448 4.03545 0
M  V30 4099 C 389.905 -1.82741 4.71098 0
M  V30 4100 C 392.103 -1.53477 4.90866 0
M  V30 4101 N 390.085 -1.29196 6.00151 0
M  V30 4102 C 391.456 -1.1163 6.09868 0
M  V30 4103 C 393.511 -1.41438 4.77388 0
M  V30 4104 C 392.214 -0.589425 7.16881 0
M  V30 4105 C 394.24 -0.901528 5.84488 0
M  V30 4106 C 393.602 -0.492932 7.02673 0
M  V30 4107 H 389.701 -0.477005 0.61967 0
M  V30 4108 H 392.285 -0.643856 1.83746 0
M  V30 4109 H 390.456 -3.11821 2.31564 0
M  V30 4110 H 392.188 -3.13213 2.56281 0
M  V30 4111 H 388.943 -2.05162 4.26855 0
M  V30 4112 H 389.367 -1.0454 6.6888 0
M  V30 4113 H 394.009 -1.71643 3.86392 0
M  V30 4114 H 391.727 -0.274994 8.07632 0
M  V30 4115 H 395.313 -0.812071 5.76105 0
M  V30 4116 H 394.193 -0.102227 7.84133 0
M  V30 4117 N 391.696 -1.35014 -0.812953 0
M  V30 4118 C 392.626 -1.30069 -1.93919 0
M  V30 4119 C 393.607 -0.176275 -1.69184 0
M  V30 4120 O 394.792 -0.370227 -1.90638 0
M  V30 4121 C 391.922 -1.06547 -3.30552 0
M  V30 4122 C 390.876 -2.15561 -3.69753 0
M  V30 4123 C 390.202 -1.77214 -5.04479 0
M  V30 4124 C 391.502 -3.57476 -3.808 0
M  V30 4125 H 393.196 -2.24303 -1.98314 0
M  V30 4126 H 390.742 -1.07977 -0.952736 0
M  V30 4127 H 392.695 -1.01729 -4.08937 0
M  V30 4128 H 391.419 -0.0875719 -3.26483 0
M  V30 4129 H 390.078 -2.19466 -2.9365 0
M  V30 4130 H 389.726 -0.780589 -4.96906 0
M  V30 4131 H 389.426 -2.50184 -5.31678 0
M  V30 4132 H 390.95 -1.7391 -5.8531 0
M  V30 4133 H 392.364 -3.55929 -4.4943 0
M  V30 4134 H 390.761 -4.29152 -4.19462 0
M  V30 4135 H 391.831 -3.94091 -2.82525 0
M  V30 4136 N 393.175 1.03435 -1.18907 0
M  V30 4137 C 394.085 2.15075 -0.937015 0
M  V30 4138 C 395.101 1.73706 0.101085 0
M  V30 4139 O 396.277 2.01232 -0.0822948 0
M  V30 4140 C 393.342 3.43458 -0.473057 0
M  V30 4141 C 392.403 3.99172 -1.57989 0
M  V30 4142 C 391.636 5.21427 -1.13797 0
M  V30 4143 O 391.859 5.704 0.000725941 0
M  V30 4144 O 390.793 5.69837 -1.9383 0
M  V30 4145 H 394.619 2.39198 -1.87131 0
M  V30 4146 H 392.204 1.13506 -0.971427 0
M  V30 4147 H 394.086 4.20811 -0.222702 0
M  V30 4148 H 392.761 3.20793 0.432869 0
M  V30 4149 H 391.668 3.23178 -1.88433 0
M  V30 4150 H 393.001 4.2619 -2.46217 0
M  V30 4151 N 394.653 0.992116 1.22453 0
M  V30 4152 C 395.583 0.561677 2.26644 0
M  V30 4153 C 396.564 -0.411055 1.65059 0
M  V30 4154 O 397.749 -0.301861 1.9184 0
M  V30 4155 C 394.879 -0.125247 3.47074 0
M  V30 4156 C 393.833 0.765948 4.21091 0
M  V30 4157 C 393.159 -0.0538484 5.34673 0
M  V30 4158 C 394.459 2.06242 4.79856 0
M  V30 4159 H 396.153 1.43259 2.62902 0
M  V30 4160 H 393.699 0.690283 1.26377 0
M  V30 4161 H 395.652 -0.437764 4.1912 0
M  V30 4162 H 394.376 -1.03069 3.0991 0
M  V30 4163 H 393.035 1.0621 3.50878 0
M  V30 4164 H 392.683 -0.960188 4.9375 0
M  V30 4165 H 392.383 0.539415 5.85119 0
M  V30 4166 H 393.907 -0.360477 6.09535 0
M  V30 4167 H 395.321 1.8139 5.43848 0
M  V30 4168 H 393.718 2.60444 5.40638 0
M  V30 4169 H 394.788 2.74167 3.99951 0
M  V30 4170 N 396.131 -1.37776 0.765217 0
M  V30 4171 C 397.063 -2.28958 0.105361 0
M  V30 4172 C 398.076 -1.48316 -0.67128 0
M  V30 4173 O 399.265 -1.71046 -0.51045 0
M  V30 4174 C 396.365 -3.27421 -0.874569 0
M  V30 4175 C 395.538 -4.37132 -0.153123 0
M  V30 4176 C 394.597 -5.1571 -1.04547 0
M  V30 4177 O 393.623 -5.66896 -0.511672 0
M  V30 4178 N 394.825 -5.29808 -2.37243 0
M  V30 4179 H 397.59 -2.86227 0.888495 0
M  V30 4180 H 395.151 -1.49682 0.617 0
M  V30 4181 H 397.143 -3.7687 -1.47483 0
M  V30 4182 H 395.713 -2.70967 -1.55871 0
M  V30 4183 H 394.933 -3.89166 0.627975 0
M  V30 4184 H 396.221 -5.07625 0.345643 0
M  V30 4185 H 395.619 -4.89793 -2.83054 0
M  V30 4186 H 394.176 -5.82589 -2.9229 0
M  V30 4187 N 397.609 -0.515225 -1.4894 0
M  V30 4188 C 398.572 0.244681 -2.2789 0
M  V30 4189 C 399.572 0.881166 -1.34507 0
M  V30 4190 O 400.762 0.743497 -1.57537 0
M  V30 4191 C 397.894 1.35247 -3.12923 0
M  V30 4192 H 399.087 -0.448289 -2.96531 0
M  V30 4193 H 396.64 -0.270656 -1.53939 0
M  V30 4194 H 397.375 2.07916 -2.48881 0
M  V30 4195 H 397.16 0.901374 -3.81599 0
M  V30 4196 H 398.65 1.88737 -3.72516 0
M  V30 4197 N 399.087 1.5561 -0.249682 0
M  V30 4198 C 400.333 2.00044 0.367952 0
M  V30 4199 C 400.688 1.1349 1.55363 0
M  V30 4200 O 399.981 0.191079 1.90645 0
M  V30 4201 C 400.175 3.4775 0.824887 0
M  V30 4202 C 400.004 4.48596 -0.314973 0
M  V30 4203 C 398.774 4.99077 -0.790555 0
M  V30 4204 C 400.972 5.0144 -1.14291 0
M  V30 4205 N 398.954 5.83675 -1.90254 0
M  V30 4206 C 400.325 5.83236 -2.10322 0
M  V30 4207 C 402.38 4.83736 -1.17916 0
M  V30 4208 C 401.083 6.49217 -3.09692 0
M  V30 4209 C 403.109 5.50497 -2.16117 0
M  V30 4210 C 402.471 6.32084 -3.10884 0
M  V30 4211 H 398.57 0.775512 0.100522 0
M  V30 4212 H 401.154 1.91193 -0.367896 0
M  V30 4213 H 399.325 3.56994 1.53002 0
M  V30 4214 H 401.057 3.79056 1.4177 0
M  V30 4215 H 397.812 4.72119 -0.374218 0
M  V30 4216 H 398.236 6.30671 -2.46137 0
M  V30 4217 H 402.878 4.20286 -0.460352 0
M  V30 4218 H 400.596 7.11832 -3.8252 0
M  V30 4219 H 404.182 5.38752 -2.19631 0
M  V30 4220 H 403.062 6.82832 -3.8563 0
M  V30 4221 N 400.565 -0.0233959 1.57583 0
M  V30 4222 C 401.515 -1.03023 2.03397 0
M  V30 4223 C 402.499 -1.31701 0.924315 0
M  V30 4224 O 403.691 -1.31191 1.18819 0
M  V30 4225 C 400.82 -2.32961 2.52159 0
M  V30 4226 C 399.906 -2.07349 3.69956 0
M  V30 4227 N 400.297 -1.51814 4.82479 0
M  V30 4228 C 398.595 -2.37606 3.77438 0
M  V30 4229 C 399.296 -1.42136 5.64068 0
M  V30 4230 N 398.272 -1.89891 5.09355 0
M  V30 4231 H 402.074 -0.594962 2.87815 0
M  V30 4232 H 399.588 -0.229586 1.60769 0
M  V30 4233 H 401.585 -3.05906 2.83244 0
M  V30 4234 H 400.245 -2.77162 1.69149 0
M  V30 4235 H 401.256 -1.20008 5.03804 0
M  V30 4236 H 397.933 -2.84842 3.05239 0
M  V30 4237 H 399.323 -0.996405 6.64471 0
M  V30 4238 N 402.043 -1.548 -0.295768 0
M  V30 4239 C 403.006 -1.85363 -1.34808 0
M  V30 4240 C 404.006 -0.726817 -1.43436 0
M  V30 4241 O 405.196 -0.995088 -1.42981 0
M  V30 4242 C 402.328 -2.03859 -2.73229 0
M  V30 4243 H 403.521 -2.7941 -1.08949 0
M  V30 4244 H 401.074 -1.46942 -0.532702 0
M  V30 4245 H 401.809 -1.12117 -3.04303 0
M  V30 4246 H 401.594 -2.8588 -2.68356 0
M  V30 4247 H 403.084 -2.28857 -3.49305 0
M  V30 4248 N 403.521 0.559213 -1.47345 0
M  V30 4249 C 404.769 1.31388 -1.53563 0
M  V30 4250 C 405.09 1.93985 -0.198678 0
M  V30 4251 O 404.36 1.79825 0.777167 0
M  V30 4252 H 402.94 0.487901 -0.565652 0
M  V30 4253 H 405.602 0.65315 -1.8363 0
M  V30 4254 H 404.698 2.10844 -2.30111 0
M  V30 4255 N 404.999 1.35443 0.805782 0
M  V30 4256 C 406.415 1.15499 1.10146 0
M  V30 4257 C 406.615 -0.0319975 2.01475 0
M  V30 4258 O 405.671 -0.70236 2.42535 0
M  V30 4259 C 406.984 2.45833 1.73166 0
M  V30 4260 C 408.532 2.52047 1.85583 0
M  V30 4261 C 409.007 3.82427 2.52019 0
M  V30 4262 N 410.498 3.83682 2.59504 0
M  V30 4263 C 411.233 4.81294 3.11679 0
M  V30 4264 N 410.729 5.89294 3.64287 0
M  V30 4265 N 412.522 4.6873 3.1024 0
M  V30 4266 H 404.673 2.11469 0.198678 0
M  V30 4267 H 406.936 0.93594 0.150731 0
M  V30 4268 H 406.642 3.32874 1.13526 0
M  V30 4269 H 406.516 2.6044 2.72857 0
M  V30 4270 H 408.903 1.65435 2.44367 0
M  V30 4271 H 408.984 2.41354 0.847455 0
M  V30 4272 H 408.628 4.69437 1.93885 0
M  V30 4273 H 408.558 3.90409 3.53395 0
M  V30 4274 H 411.049 3.05648 2.22234 0
M  V30 4275 H 411.362 6.59768 4.02401 0
M  V30 4276 H 409.707 5.92985 3.62483 0
M  V30 4277 H 412.898 3.83496 2.68419 0
M  V30 4278 H 413.071 5.44965 3.50596 0
M  V30 4279 N 406.477 -1.02803 1.19454 0
M  V30 4280 C 407.705 -1.79841 1.02297 0
M  V30 4281 C 408.12 -1.83879 -0.428259 0
M  V30 4282 O 407.477 -1.28345 -1.29745 0
M  V30 4283 C 407.528 -3.24852 1.58598 0
M  V30 4284 O 407.249 -3.21097 2.98041 0
M  V30 4285 C 408.75 -4.18485 1.46236 0
M  V30 4286 H 405.97 -0.565936 0.360496 0
M  V30 4287 H 408.514 -1.2948 1.58288 0
M  V30 4288 H 406.669 -3.72401 1.06753 0
M  V30 4289 H 407.083 -4.12033 3.24545 0
M  V30 4290 H 408.557 -5.18121 1.90407 0
M  V30 4291 H 409.034 -4.37254 0.41301 0
M  V30 4292 H 409.64 -3.76811 1.97215 0
M  V30 4293 N 407.956 -0.998596 -1.21925 0
M  V30 4294 C 409.205 -0.673085 -1.90138 0
M  V30 4295 C 409.518 0.79895 -1.78539 0
M  V30 4296 O 410.724 1.23628 -2.4172 0
M  V30 4297 C 409.18 -1.15339 -3.40918 0
M  V30 4298 C 408.788 -2.65106 -3.61141 0
M  V30 4299 C 410.532 -0.902476 -4.14796 0
M  V30 4300 C 408.439 -3.0671 -5.05651 0
M  V30 4301 H 407.369 -0.248057 -0.712028 0
M  V30 4302 H 410.02 -1.20891 -1.38049 0
M  V30 4303 H 408.402 -0.545658 -3.92223 0
M  V30 4304 H 409.576 -3.31274 -3.20304 0
M  V30 4305 H 407.891 -2.88142 -3.00605 0
M  V30 4306 H 410.488 -1.18895 -5.21314 0
M  V30 4307 H 410.831 0.161349 -4.15987 0
M  V30 4308 H 411.364 -1.47269 -3.69536 0
M  V30 4309 H 408.103 -4.12292 -5.09603 0
M  V30 4310 H 407.623 -2.45249 -5.47369 0
M  V30 4311 H 409.302 -2.9833 -5.74115 0
M  V30 4312 N 409.434 1.37368 -0.772513 0
M  V30 4313 C 410.382 2.32134 -0.147111 0
M  V30 4314 C 411.376 1.54972 0.684106 0
M  V30 4315 O 412.582 1.70363 0.581083 0
M  V30 4316 H 408.957 0.751449 -0.028786 0
M  V30 4317 H 410.928 2.82464 -0.962112 0
M  V30 4318 C 409.677 3.40226 0.71703 0
M  V30 4319 H 409 3.99706 0.0867951 0
M  V30 4320 H 410.44 4.08897 1.12159 0
M  V30 4321 C 408.899 2.80372 1.86797 0
M  V30 4322 O 409.429 2.71183 2.96349 0
M  V30 4323 N 407.635 2.37904 1.66883 0
M  V30 4324 H 407.182 2.45578 0.777759 0
M  V30 4325 H 407.14 1.98202 2.44056 0
M  V30 4326 N 410.912 0.523116 1.48665 0
M  V30 4327 C 412.189 -0.0775449 1.95446 0
M  V30 4328 C 412.569 -1.5197 1.4652 0
M  V30 4329 O 411.917 -2.17876 0.688657 0
M  V30 4330 C 412.127 0.0326135 3.48985 0
M  V30 4331 C 413.475 -0.130141 4.24401 0
M  V30 4332 O 414.499 -0.0415142 3.56176 0
M  V30 4333 O 413.358 -0.31491 5.45592 0
M  V30 4334 H 410.452 -0.0831012 0.822814 0
M  V30 4335 H 412.998 0.587227 1.59216 0
M  V30 4336 H 411.77 1.03748 3.77296 0
M  V30 4337 H 411.393 -0.671317 3.91892 0
M  V30 4338 N 412.39 -1.55475 0.257931 0
M  V30 4339 C 413.322 -2.19192 -0.669881 0
M  V30 4340 C 414.335 -1.17148 -1.1305 0
M  V30 4341 O 415.524 -1.43959 -1.05537 0
M  V30 4342 C 412.624 -2.79016 -1.92363 0
M  V30 4343 C 411.797 -4.06586 -1.61265 0
M  V30 4344 C 410.856 -4.50622 -2.7171 0
M  V30 4345 O 409.882 -5.16765 -2.38627 0
M  V30 4346 N 411.084 -4.19325 -4.01431 0
M  V30 4347 H 413.849 -2.99441 -0.124635 0
M  V30 4348 H 411.41 -1.6171 0.0783311 0
M  V30 4349 H 413.402 -3.05427 -2.65511 0
M  V30 4350 H 411.972 -2.0286 -2.37837 0
M  V30 4351 H 411.192 -3.87646 -0.715811 0
M  V30 4352 H 412.48 -4.89737 -1.37967 0
M  V30 4353 H 411.878 -3.66247 -4.31138 0
M  V30 4354 H 410.435 -4.50547 -4.7101 0
M  V30 4355 N 413.868 0.0150385 -1.57593 0
M  V30 4356 C 415.145 0.7392 -1.81094 0
M  V30 4357 C 415.525 1.92817 -0.859344 0
M  V30 4358 O 414.873 2.28301 0.095362 0
M  V30 4359 C 415.083 1.15907 -3.29191 0
M  V30 4360 C 416.431 1.56918 -3.9454 0
M  V30 4361 O 417.455 1.25328 -3.33424 0
M  V30 4362 O 416.314 2.15604 -5.02173 0
M  V30 4363 H 413.408 0.358631 -0.745193 0
M  V30 4364 H 415.954 -0.00926156 -1.69697 0
M  V30 4365 H 414.726 0.310921 -3.90063 0
M  V30 4366 H 414.349 1.96711 -3.45529 0
M  V30 4367 N 415.346 1.54954 0.287554 0
M  V30 4368 C 416.593 1.74873 1.02106 0
M  V30 4369 C 416.921 0.541829 1.86801 0
M  V30 4370 O 416.176 -0.475992 1.89823 0
M  V30 4371 C 416.475 2.99833 1.94512 0
M  V30 4372 C 416.141 4.33029 1.25686 0
M  V30 4373 C 414.803 4.69233 1.06649 0
M  V30 4374 C 417.155 5.15542 0.765913 0
M  V30 4375 C 414.483 5.85518 0.372222 0
M  V30 4376 C 416.835 6.32542 0.0853101 0
M  V30 4377 C 415.499 6.67398 -0.1169 0
M  V30 4378 H 414.769 0.639906 0.373632 0
M  V30 4379 H 417.416 1.89219 0.294665 0
M  V30 4380 H 415.721 2.80325 2.73725 0
M  V30 4381 H 417.418 3.1244 2.51361 0
M  V30 4382 H 414.008 4.04564 1.41512 0
M  V30 4383 H 418.192 4.88059 0.90066 0
M  V30 4384 H 413.448 6.11057 0.204695 0
M  V30 4385 H 417.622 6.95741 -0.302936 0
M  V30 4386 H 415.249 7.57357 -0.656859 0
M  V30 4387 N 416.824 -0.551391 1.4764 0
M  V30 4388 C 418.071 -1.3083 1.54563 0
M  V30 4389 C 418.399 -1.93359 0.210361 0
M  V30 4390 O 417.654 -1.78721 -0.797332 0
M  V30 4391 C 417.953 -2.43469 2.61644 0
M  V30 4392 C 417.619 -1.98732 4.04742 0
M  V30 4393 C 416.281 -1.86248 4.43695 0
M  V30 4394 C 418.633 -1.64659 4.94507 0
M  V30 4395 C 415.961 -1.37995 5.70241 0
M  V30 4396 C 418.313 -1.17875 6.21521 0
M  V30 4397 C 416.977 -1.03992 6.5935 0
M  V30 4398 H 416.247 -0.478741 0.565587 0
M  V30 4399 H 418.894 -0.617697 1.81264 0
M  V30 4400 H 417.199 -3.18109 2.28722 0
M  V30 4401 H 418.896 -3.01642 2.64222 0
M  V30 4402 H 415.486 -2.09393 3.73968 0
M  V30 4403 H 419.67 -1.73174 4.65107 0
M  V30 4404 H 414.926 -1.25915 5.98294 0
M  V30 4405 H 419.1 -0.905739 6.90485 0
M  V30 4406 H 416.727 -0.663794 7.57296 0
M  V30 4407 N 418.302 -1.35869 -0.798587 0
M  V30 4408 C 419.232 -1.32118 -1.92528 0
M  V30 4409 C 420.213 -0.194209 -1.68988 0
M  V30 4410 O 421.398 -0.390426 -1.90235 0
M  V30 4411 C 418.528 -1.10047 -3.29404 0
M  V30 4412 C 417.482 -2.19471 -3.67446 0
M  V30 4413 C 416.808 -1.82555 -5.02571 0
M  V30 4414 C 418.108 -3.61495 -3.76987 0
M  V30 4415 H 419.802 -2.26394 -1.95924 0
M  V30 4416 H 417.348 -1.08981 -0.94123 0
M  V30 4417 H 419.301 -1.06061 -4.07835 0
M  V30 4418 H 418.025 -0.122195 -3.26371 0
M  V30 4419 H 416.684 -2.22568 -2.91306 0
M  V30 4420 H 416.332 -0.833249 -4.9605 0
M  V30 4421 H 416.032 -2.5581 -5.28995 0
M  V30 4422 H 417.556 -1.80108 -5.83432 0
M  V30 4423 H 418.97 -3.60676 -4.4563 0
M  V30 4424 H 417.367 -4.33577 -4.14887 0
M  V30 4425 H 418.437 -3.97065 -2.78329 0
M  V30 4426 N 419.78 1.02168 -1.19998 0
M  V30 4427 C 421.01 1.79036 -1.031 0
M  V30 4428 C 421.418 1.84409 0.423078 0
M  V30 4429 O 420.761 1.29228 1.30559 0
M  V30 4430 C 420.823 3.25185 -1.53281 0
M  V30 4431 C 420.487 3.43431 -3.01503 0
M  V30 4432 C 421.484 3.33063 -3.99206 0
M  V30 4433 C 419.169 3.69412 -3.40353 0
M  V30 4434 C 421.163 3.48413 -5.33748 0
M  V30 4435 C 418.85 3.84406 -4.75053 0
M  V30 4436 C 419.848 3.7391 -5.71559 0
M  V30 4437 O 419.536 3.88452 -7.03818 0
M  V30 4438 H 419.268 0.570043 -0.363355 0
M  V30 4439 H 421.822 1.29524 -1.59414 0
M  V30 4440 H 420.052 3.75756 -0.913483 0
M  V30 4441 H 421.741 3.83671 -1.32481 0
M  V30 4442 H 422.507 3.12934 -3.70537 0
M  V30 4443 H 418.386 3.76671 -2.65782 0
M  V30 4444 H 421.93 3.40137 -6.09059 0
M  V30 4445 H 417.827 4.04035 -5.03415 0
M  V30 4446 H 418.595 4.055 -7.10993 0
M  V30 4447 N 421.258 1.00505 1.21394 0
M  V30 4448 C 422.486 0.706609 1.9446 0
M  V30 4449 C 422.901 -0.73081 1.74082 0
M  V30 4450 O 422.258 -1.49446 1.04747 0
M  V30 4451 C 422.309 1.01824 3.46863 0
M  V30 4452 O 422.03 2.39919 3.66566 0
M  V30 4453 C 423.531 0.739216 4.37093 0
M  V30 4454 H 420.751 0.260394 0.618414 0
M  V30 4455 H 423.295 1.34311 1.54211 0
M  V30 4456 H 421.45 0.427343 3.85036 0
M  V30 4457 H 421.864 2.50784 4.6066 0
M  V30 4458 H 423.338 1.00744 5.42729 0
M  V30 4459 H 423.815 -0.326746 4.37983 0
M  V30 4460 H 424.421 1.31173 4.04566 0
M  V30 4461 N 422.737 -1.36956 0.779787 0
M  V30 4462 C 423.7 -2.2851 0.177662 0
M  V30 4463 C 424.7 -1.48393 -0.619377 0
M  V30 4464 O 425.89 -1.68505 -0.441785 0
M  V30 4465 C 423.022 -3.32428 -0.755279 0
M  V30 4466 H 424.215 -2.83269 0.984823 0
M  V30 4467 H 421.768 -1.46358 0.548544 0
M  V30 4468 H 422.503 -2.82808 -1.58714 0
M  V30 4469 H 422.288 -3.91659 -0.185817 0
M  V30 4470 H 423.778 -4.00824 -1.17174 0
M  V30 4471 N 424.215 -0.530993 -1.48385 0
M  V30 4472 C 425.631 -0.188919 -1.58478 0
M  V30 4473 C 425.831 1.30786 -1.53288 0
M  V30 4474 O 424.887 2.08619 -1.42248 0
M  V30 4475 C 426.2 -0.792343 -2.90073 0
M  V30 4476 C 427.748 -0.76117 -3.03604 0
M  V30 4477 C 428.223 -1.34319 -4.37861 0
M  V30 4478 N 429.714 -1.3052 -4.44431 0
M  V30 4479 C 430.449 -1.72543 -5.46824 0
M  V30 4480 N 429.945 -2.22299 -6.56167 0
M  V30 4481 N 431.738 -1.63773 -5.37712 0
M  V30 4482 H 423.889 -1.50377 -1.50002 0
M  V30 4483 H 426.152 -0.625559 -0.712306 0
M  V30 4484 H 425.858 -1.84323 -2.99529 0
M  V30 4485 H 425.732 -0.270026 -3.76232 0
M  V30 4486 H 428.119 0.280957 -2.93759 0
M  V30 4487 H 428.2 -1.32097 -2.19053 0
M  V30 4488 H 427.844 -2.38425 -4.4846 0
M  V30 4489 H 427.774 -0.759064 -5.21101 0
M  V30 4490 H 430.265 -0.940973 -3.65997 0
M  V30 4491 H 430.578 -2.52356 -7.30436 0
M  V30 4492 H 428.923 -2.26293 -6.57127 0
M  V30 4493 H 432.114 -1.24698 -4.51185 0
M  V30 4494 H 432.287 -1.96844 -6.17379 0
M  V30 4495 N 425.693 1.55336 -0.266172 0
M  V30 4496 C 426.625 2.19544 0.658247 0
M  V30 4497 C 427.638 1.17746 1.12427 0
M  V30 4498 O 428.827 1.44517 1.04772 0
M  V30 4499 C 425.927 2.80032 1.9088 0
M  V30 4500 C 425.1 4.07436 1.59106 0
M  V30 4501 C 424.159 4.52056 2.69317 0
M  V30 4502 O 423.185 5.18023 2.35883 0
M  V30 4503 N 424.387 4.21448 3.99201 0
M  V30 4504 H 427.152 2.99503 0.108754 0
M  V30 4505 H 424.713 1.61667 -0.0869059 0
M  V30 4506 H 426.705 3.06831 2.63888 0
M  V30 4507 H 425.275 2.04119 2.36758 0
M  V30 4508 H 424.495 3.88021 0.695243 0
M  V30 4509 H 425.783 4.90462 1.35367 0
M  V30 4510 H 425.181 3.68528 4.29189 0
M  V30 4511 H 423.738 4.53039 4.68614 0
M  V30 4512 N 427.171 -0.0066808 1.57599 0
M  V30 4513 C 428.134 -0.985035 2.06953 0
M  V30 4514 C 429.134 -1.27663 0.977687 0
M  V30 4515 O 430.324 -1.22293 1.24057 0
M  V30 4516 C 427.456 -2.3118 2.50536 0
M  V30 4517 H 428.649 -0.558255 2.94658 0
M  V30 4518 H 426.202 -0.254011 1.54222 0
M  V30 4519 H 426.937 -2.78561 1.66054 0
M  V30 4520 H 426.722 -2.11338 3.3027 0
M  V30 4521 H 428.212 -3.01377 2.8907 0
M  V30 4522 N 428.649 -1.55105 -0.279332 0
M  V30 4523 C 429.898 -1.74618 -1.00952 0
M  V30 4524 C 430.211 -0.551096 -1.87676 0
M  V30 4525 O 431.417 -0.628507 -2.64125 0
M  V30 4526 C 429.873 -3.09025 -1.84476 0
M  V30 4527 C 429.481 -4.36081 -1.0265 0
M  V30 4528 C 431.225 -3.37891 -2.56963 0
M  V30 4529 C 429.132 -5.6153 -1.85576 0
M  V30 4530 H 428.062 -0.650868 -0.38064 0
M  V30 4531 H 430.713 -1.81569 -0.265475 0
M  V30 4532 H 429.095 -2.96095 -2.62952 0
M  V30 4533 H 430.269 -4.59909 -0.286354 0
M  V30 4534 H 428.584 -4.14312 -0.416464 0
M  V30 4535 H 431.181 -4.28822 -3.19399 0
M  V30 4536 H 431.524 -2.57737 -3.26921 0
M  V30 4537 H 432.057 -3.5189 -1.85522 0
M  V30 4538 H 428.796 -6.44413 -1.2005 0
M  V30 4539 H 428.316 -5.41854 -2.57204 0
M  V30 4540 H 429.995 -5.99594 -2.43096 0
M  V30 4541 N 430.127 0.543554 -1.4793 0
M  V30 4542 C 431.538 1.12561 -1.48953 0
M  V30 4543 C 431.889 1.94578 -0.251754 0
M  V30 4544 O 431.014 2.0665 0.642255 0
M  V30 4545 C 431.609 2.04801 -2.69892 0
M  V30 4546 C 430.168 2.58251 -2.73831 0
M  V30 4547 C 429.315 1.34918 -2.42265 0
M  V30 4548 H 432.266 0.32947 -1.55242 0
M  V30 4549 H 432.287 2.88886 -2.47639 0
M  V30 4550 H 431.799 1.4508 -3.59963 0
M  V30 4551 H 429.9 3.21732 -1.87934 0
M  V30 4552 H 430.013 2.98312 -3.74895 0
M  V30 4553 H 428.377 1.66046 -1.93134 0
M  V30 4554 H 429.16 0.769693 -3.3456 0
M  V30 4555 N 431.605 1.3629 0.791371 0
M  V30 4556 C 432.882 1.20962 1.53712 0
M  V30 4557 C 433.262 -0.205021 2.10102 0
M  V30 4558 O 432.61 -1.21042 1.93807 0
M  V30 4559 C 432.82 2.29002 2.63361 0
M  V30 4560 C 434.168 2.65572 3.31295 0
M  V30 4561 O 435.192 2.2803 2.73643 0
M  V30 4562 O 434.051 3.3018 4.35481 0
M  V30 4563 H 431.145 0.47086 0.679867 0
M  V30 4564 H 433.691 1.48016 0.830021 0
M  V30 4565 H 432.463 3.2382 2.19674 0
M  V30 4566 H 432.086 2.03303 3.41692 0
M  V30 4567 N 433.083 -1.0153 1.20538 0
M  V30 4568 C 434.332 -1.74558 1.01057 0
M  V30 4569 C 434.645 -1.90168 -0.457756 0
M  V30 4570 O 435.851 -2.60301 -0.771722 0
M  V30 4571 C 434.307 -3.13963 1.75941 0
M  V30 4572 C 433.915 -3.06361 3.26875 0
M  V30 4573 C 435.659 -3.91191 1.64832 0
M  V30 4574 C 433.566 -4.40782 3.94291 0
M  V30 4575 H 432.496 -0.654417 0.374505 0
M  V30 4576 H 435.147 -1.13521 1.44171 0
M  V30 4577 H 433.529 -3.75549 1.25614 0
M  V30 4578 H 434.703 -2.54074 3.84425 0
M  V30 4579 H 433.018 -2.42625 3.38411 0
M  V30 4580 H 435.615 -4.90644 2.12539 0
M  V30 4581 H 435.958 -4.11884 0.604745 0
M  V30 4582 H 436.491 -3.36236 2.12579 0
M  V30 4583 H 433.23 -4.25292 4.98805 0
M  V30 4584 H 432.75 -4.9307 3.41529 0
M  V30 4585 H 434.429 -5.09621 3.98617 0
M  V30 4586 N 434.561 -1.01147 -1.20859 0
M  V30 4587 C 435.81 -0.693214 -1.89413 0
M  V30 4588 C 436.123 0.779969 -1.79376 0
M  V30 4589 O 437.329 1.21057 -2.43017 0
M  V30 4590 C 435.785 -1.18949 -3.39675 0
M  V30 4591 C 435.393 -2.68921 -3.58309 0
M  V30 4592 C 437.137 -0.94642 -4.13815 0
M  V30 4593 C 435.044 -3.12056 -5.0237 0
M  V30 4594 H 433.974 -0.255595 -0.709357 0
M  V30 4595 H 436.625 -1.22349 -1.36759 0
M  V30 4596 H 435.007 -0.587228 -3.91622 0
M  V30 4597 H 436.181 -3.34652 -3.16772 0
M  V30 4598 H 434.496 -2.91314 -2.97532 0
M  V30 4599 H 437.093 -1.24417 -5.20023 0
M  V30 4600 H 437.436 0.117219 -4.16135 0
M  V30 4601 H 437.969 -1.5118 -3.67953 0
M  V30 4602 H 434.708 -4.17674 -5.05202 0
M  V30 4603 H 434.228 -2.51041 -5.44737 0
M  V30 4604 H 435.907 -3.04403 -5.70918 0
M  V30 4605 N 436.039 1.36541 -0.78704 0
M  V30 4606 C 436.987 2.31965 -0.171724 0
M  V30 4607 C 437.981 1.55689 0.667631 0
M  V30 4608 O 439.187 1.70969 0.562981 0
M  V30 4609 H 435.562 0.751101 -0.0367545 0
M  V30 4610 H 437.533 2.81428 -0.992017 0
M  V30 4611 C 436.282 3.40968 0.680904 0
M  V30 4612 H 435.605 3.99775 0.0443961 0
M  V30 4613 H 437.045 4.10063 1.07815 0
M  V30 4614 C 435.504 2.82338 1.83813 0
M  V30 4615 O 436.034 2.74311 2.93456 0
M  V30 4616 N 434.24 2.39661 1.6435 0
M  V30 4617 H 433.787 2.46389 0.751668 0
M  V30 4618 H 433.745 2.00779 2.4194 0
M  V30 4619 N 437.518 0.538854 1.48102 0
M  V30 4620 C 438.428 -0.222648 2.33541 0
M  V30 4621 C 439.444 -0.930225 1.47047 0
M  V30 4622 O 440.62 -0.903211 1.80011 0
M  V30 4623 C 437.685 -1.25064 3.23357 0
M  V30 4624 C 436.746 -0.552469 4.2573 0
M  V30 4625 C 435.979 -1.53149 5.11254 0
M  V30 4626 O 436.202 -2.76487 4.9891 0
M  V30 4627 O 435.136 -1.06602 5.92385 0
M  V30 4628 H 438.962 0.477707 2.99919 0
M  V30 4629 H 436.547 0.299669 1.46364 0
M  V30 4630 H 438.429 -1.8445 3.78888 0
M  V30 4631 H 437.104 -1.93325 2.59629 0
M  V30 4632 H 436.011 0.082114 3.7401 0
M  V30 4633 H 437.344 0.0883526 4.92121 0
M  V30 4634 N 438.996 -1.55193 0.274407 0
M  V30 4635 C 440.245 -1.98758 -0.343213 0
M  V30 4636 C 440.558 -1.16624 -1.5703 0
M  V30 4637 O 441.764 -1.5033 -2.26082 0
M  V30 4638 C 440.22 -3.53759 -0.661996 0
M  V30 4639 C 439.828 -4.4467 0.54524 0
M  V30 4640 C 441.572 -4.05916 -1.24228 0
M  V30 4641 C 439.479 -5.91058 0.201084 0
M  V30 4642 H 438.409 -0.742353 -0.132014 0
M  V30 4643 H 441.06 -1.79545 0.378948 0
M  V30 4644 H 439.442 -3.68772 -1.44304 0
M  V30 4645 H 440.616 -4.41426 1.32212 0
M  V30 4646 H 438.931 -4.03143 1.04232 0
M  V30 4647 H 441.528 -5.12831 -1.51357 0
M  V30 4648 H 441.871 -3.54908 -2.17592 0
M  V30 4649 H 442.404 -3.9434 -0.523542 0
M  V30 4650 H 439.143 -6.46161 1.10258 0
M  V30 4651 H 438.663 -5.97373 -0.539045 0
M  V30 4652 H 440.342 -6.46669 -0.206954 0
M  V30 4653 N 440.474 -0.00167713 -1.576 0
M  V30 4654 C 441.404 0.988091 -2.11563 0
M  V30 4655 C 442.385 1.35736 -1.02517 0
M  V30 4656 O 443.57 1.44082 -1.30208 0
M  V30 4657 C 440.7 2.27941 -2.62031 0
M  V30 4658 C 439.654 2.0517 -3.75619 0
M  V30 4659 C 438.98 3.4033 -4.12407 0
M  V30 4660 C 440.28 1.41294 -5.02825 0
M  V30 4661 H 441.974 0.538771 -2.94513 0
M  V30 4662 H 439.52 0.257712 -1.41675 0
M  V30 4663 H 441.473 2.97539 -2.9841 0
M  V30 4664 H 440.197 2.74989 -1.76205 0
M  V30 4665 H 438.856 1.37998 -3.39635 0
M  V30 4666 H 438.504 3.85085 -3.23603 0
M  V30 4667 H 438.204 3.25909 -4.88935 0
M  V30 4668 H 439.728 4.1124 -4.51347 0
M  V30 4669 H 441.142 2.00851 -5.36965 0
M  V30 4670 H 439.539 1.37356 -5.84169 0
M  V30 4671 H 440.609 0.382362 -4.8339 0
M  V30 4672 N 441.952 1.55251 0.271103 0
M  V30 4673 C 443.18 1.79974 1.02064 0
M  V30 4674 C 443.595 0.574003 1.79863 0
M  V30 4675 O 442.952 -0.456962 1.76686 0
M  V30 4676 C 443.003 3.02603 1.97772 0
M  V30 4677 O 442.724 4.20443 1.23124 0
M  V30 4678 C 444.225 3.39944 2.84522 0
M  V30 4679 H 441.445 0.599489 0.301419 0
M  V30 4680 H 443.989 2.02268 0.301313 0
M  V30 4681 H 442.144 2.8243 2.65165 0
M  V30 4682 H 442.558 4.89783 1.87651 0
M  V30 4683 H 444.032 4.28915 3.47471 0
M  V30 4684 H 444.509 2.59432 3.54389 0
M  V30 4685 H 445.115 3.62383 2.22618 0
M  V30 4686 N 443.43 -0.535701 1.48216 0
M  V30 4687 C 444.677 -1.29183 1.55942 0
M  V30 4688 C 445.005 -1.93125 0.230857 0
M  V30 4689 O 444.26 -1.79556 -0.778331 0
M  V30 4690 C 444.559 -2.4068 2.64212 0
M  V30 4691 C 444.225 -1.94428 4.06827 0
M  V30 4692 C 442.887 -1.81532 4.45645 0
M  V30 4693 C 445.239 -1.59405 4.96225 0
M  V30 4694 C 442.567 -1.31939 5.71672 0
M  V30 4695 C 444.919 -1.11276 6.22736 0
M  V30 4696 C 443.583 -0.969924 6.60416 0
M  V30 4697 H 442.853 -0.472715 0.570632 0
M  V30 4698 H 445.5 -0.598437 1.81909 0
M  V30 4699 H 443.805 -3.15666 2.32083 0
M  V30 4700 H 445.502 -2.98822 2.67407 0
M  V30 4701 H 442.092 -2.05415 3.76168 0
M  V30 4702 H 446.276 -1.68231 4.66917 0
M  V30 4703 H 441.532 -1.19562 5.99596 0
M  V30 4704 H 445.706 -0.832453 6.91407 0
M  V30 4705 H 443.333 -0.583436 7.57958 0
M  V30 4706 N 444.908 -1.36708 -0.784132 0
M  V30 4707 C 445.855 -1.31466 -1.89698 0
M  V30 4708 C 446.825 -0.18239 -1.65096 0
M  V30 4709 O 448.01 -0.369762 -1.87183 0
M  V30 4710 C 445.15 -1.1151 -3.26588 0
M  V30 4711 C 444.263 -2.33859 -3.63227 0
M  V30 4712 C 443.398 -2.06873 -4.89262 0
M  V30 4713 C 442.437 -3.25154 -5.18595 0
M  V30 4714 N 441.574 -2.978 -6.35814 0
M  V30 4715 H 446.414 -2.26619 -1.93515 0
M  V30 4716 H 443.951 -1.12625 -0.946256 0
M  V30 4717 H 445.909 -0.979653 -4.05535 0
M  V30 4718 H 444.539 -0.200103 -3.22179 0
M  V30 4719 H 443.591 -2.58188 -2.79362 0
M  V30 4720 H 444.903 -3.22109 -3.8085 0
M  V30 4721 H 444.057 -1.90289 -5.76086 0
M  V30 4722 H 442.796 -1.15942 -4.73718 0
M  V30 4723 H 441.801 -3.42292 -4.30251 0
M  V30 4724 H 443.026 -4.1692 -5.36055 0
M  V30 4725 H 440.972 -2.09485 -6.21653 0
M  V30 4726 H 440.889 -3.7959 -6.53794 0
M  V30 4727 H 442.157 -2.84805 -7.25607 0
M  V30 4728 N 446.386 1.0089 -1.21074 0
M  V30 4729 C 447.632 1.74866 -1.02712 0
M  V30 4730 C 447.965 1.89178 0.438787 0
M  V30 4731 O 447.24 1.42325 1.32567 0
M  V30 4732 C 447.523 3.16347 -1.72036 0
M  V30 4733 C 447.376 3.09782 -3.26121 0
M  V30 4734 C 448.695 4.15187 -1.45973 0
M  V30 4735 H 445.814 0.634736 -0.374539 0
M  V30 4736 H 448.456 1.17646 -1.49196 0
M  V30 4737 H 446.606 3.65201 -1.32517 0
M  V30 4738 H 448.278 2.68673 -3.74983 0
M  V30 4739 H 446.521 2.46982 -3.56626 0
M  V30 4740 H 447.192 4.09829 -3.6979 0
M  V30 4741 H 449.668 3.75022 -1.80272 0
M  V30 4742 H 448.544 5.12331 -1.96999 0
M  V30 4743 H 448.805 4.40386 -0.388924 0
M  V30 4744 N 447.864 1.01787 1.20321 0
M  V30 4745 C 449.141 0.622978 1.85414 0
M  V30 4746 C 449.521 -0.898887 1.91006 0
M  V30 4747 O 448.869 -1.79112 1.41884 0
M  V30 4748 C 449.079 1.27226 3.24984 0
M  V30 4749 C 450.427 1.3885 4.01255 0
M  V30 4750 O 451.451 1.22857 3.34342 0
M  V30 4751 O 450.31 1.64705 5.2109 0
M  V30 4752 H 447.404 0.215116 0.798533 0
M  V30 4753 H 449.95 1.11533 1.27901 0
M  V30 4754 H 448.722 2.31209 3.15687 0
M  V30 4755 H 448.345 0.767069 3.90131 0
M  V30 4756 N 449.342 -1.36122 0.79427 0
M  V30 4757 C 450.572 -2.03067 0.380437 0
M  V30 4758 C 450.98 -1.60018 -1.00949 0
M  V30 4759 O 450.323 -0.787425 -1.65968 0
M  V30 4760 C 450.385 -3.57587 0.37034 0
M  V30 4761 C 450.049 -4.23855 1.70867 0
M  V30 4762 C 451.046 -4.46404 2.66496 0
M  V30 4763 C 448.731 -4.61229 1.9893 0
M  V30 4764 C 450.725 -5.05412 3.88378 0
M  V30 4765 C 448.412 -5.19953 3.21079 0
M  V30 4766 C 449.41 -5.41985 4.15621 0
M  V30 4767 O 449.098 -5.99475 5.35616 0
M  V30 4768 H 448.83 -0.658168 0.154243 0
M  V30 4769 H 451.384 -1.7498 1.0757 0
M  V30 4770 H 449.614 -3.84814 -0.381444 0
M  V30 4771 H 451.303 -4.05895 -0.0194894 0
M  V30 4772 H 452.069 -4.17921 2.46103 0
M  V30 4773 H 447.948 -4.43402 1.26158 0
M  V30 4774 H 451.492 -5.22524 4.62185 0
M  V30 4775 H 447.389 -5.47862 3.41347 0
M  V30 4776 H 448.157 -6.17937 5.36745 0
M  V30 4777 N 450.82 -0.546701 -1.47814 0
M  V30 4778 C 452.068 -0.0187037 -2.02091 0
M  V30 4779 C 452.389 1.33168 -1.42447 0
M  V30 4780 O 451.659 1.86619 -0.595839 0
M  V30 4781 H 450.239 -0.00392531 -0.74699 0
M  V30 4782 H 452.901 -0.714327 -1.81338 0
M  V30 4783 H 451.997 0.0772219 -3.12004 0
M  V30 4784 N 452.299 1.55045 -0.282633 0
M  V30 4785 C 453.524 2.04628 0.337977 0
M  V30 4786 C 453.949 1.15937 1.48123 0
M  V30 4787 O 453.307 0.159532 1.80597 0
M  V30 4788 C 453.355 3.51854 0.78936 0
M  V30 4789 O 452.459 3.66236 1.89592 0
M  V30 4790 H 451.8 0.660434 0.0687261 0
M  V30 4791 H 454.33 2.00261 -0.419124 0
M  V30 4792 H 454.34 3.93361 1.08311 0
M  V30 4793 H 453.015 4.15873 -0.0470419 0
M  V30 4794 H 451.592 3.36633 1.60413 0
M  V30 4795 N 453.777 0.010035 1.57597 0
M  V30 4796 C 455.024 -0.6727 1.91 0
M  V30 4797 C 455.352 -1.73219 0.884614 0
M  V30 4798 O 454.607 -1.95395 -0.109215 0
M  V30 4799 C 454.906 -1.34434 3.31153 0
M  V30 4800 C 454.572 -0.417083 4.48967 0
M  V30 4801 C 453.234 -0.161809 4.80928 0
M  V30 4802 C 455.586 0.220753 5.20732 0
M  V30 4803 C 452.914 0.739426 5.82022 0
M  V30 4804 C 455.266 1.10993 6.22787 0
M  V30 4805 C 453.93 1.37428 6.532 0
M  V30 4806 H 453.2 -0.246158 0.698918 0
M  V30 4807 H 455.847 0.0677145 1.9138 0
M  V30 4808 H 454.152 -2.15905 3.26944 0
M  V30 4809 H 455.849 -1.87883 3.54261 0
M  V30 4810 H 452.439 -0.626217 4.24001 0
M  V30 4811 H 456.623 0.0365643 4.96287 0
M  V30 4812 H 451.879 0.952139 6.03941 0
M  V30 4813 H 456.053 1.61046 6.77523 0
M  V30 4814 H 453.68 2.0743 7.31353 0
M  V30 4815 N 455.255 -1.55392 -0.262866 0
M  V30 4816 C 456.218 -1.88181 -1.30846 0
M  V30 4817 C 457.218 -0.757079 -1.41862 0
M  V30 4818 O 458.408 -1.02519 -1.40838 0
M  V30 4819 C 455.54 -2.09609 -2.68844 0
M  V30 4820 H 456.733 -2.81659 -1.02997 0
M  V30 4821 H 454.286 -1.48039 -0.501414 0
M  V30 4822 H 455.021 -1.18547 -3.01856 0
M  V30 4823 H 454.806 -2.91508 -2.62231 0
M  V30 4824 H 456.296 -2.36215 -3.44372 0
M  V30 4825 N 456.733 0.527833 -1.48498 0
M  V30 4826 C 457.98 1.28354 -1.56625 0
M  V30 4827 C 458.308 1.93 -0.241096 0
M  V30 4828 O 457.563 1.79967 0.768798 0
M  V30 4829 C 457.862 2.39275 -2.65485 0
M  V30 4830 C 457.528 1.92268 -4.07853 0
M  V30 4831 C 456.19 1.79166 -4.46602 0
M  V30 4832 C 458.542 1.56771 -4.97064 0
M  V30 4833 C 455.87 1.28905 -5.72364 0
M  V30 4834 C 458.222 1.07972 -6.23318 0
M  V30 4835 C 456.886 0.934887 -6.60921 0
M  V30 4836 H 456.156 0.469682 -0.573131 0
M  V30 4837 H 458.803 0.588781 -1.82224 0
M  V30 4838 H 457.108 3.1443 -2.33754 0
M  V30 4839 H 458.805 2.974 -2.68988 0
M  V30 4840 H 455.395 2.03417 -3.77252 0
M  V30 4841 H 459.579 1.65753 -4.67803 0
M  V30 4842 H 454.835 1.16381 -6.00221 0
M  V30 4843 H 459.009 0.795775 -6.91838 0
M  V30 4844 H 456.636 0.543231 -7.58257 0
M  V30 4845 N 458.211 1.37122 0.776871 0
M  V30 4846 C 459.457 1.32243 1.53752 0
M  V30 4847 C 459.79 -0.0944745 1.9397 0
M  V30 4848 O 459.065 -1.05068 1.6368 0
M  V30 4849 C 459.348 2.25681 2.80607 0
M  V30 4850 C 459.201 3.76127 2.46676 0
M  V30 4851 C 460.52 2.17657 3.82509 0
M  V30 4852 H 457.639 0.481704 0.557791 0
M  V30 4853 H 460.281 1.6778 0.891612 0
M  V30 4854 H 458.431 1.95505 3.35723 0
M  V30 4855 H 460.103 4.16877 1.97513 0
M  V30 4856 H 458.346 3.94946 1.79443 0
M  V30 4857 H 459.017 4.36933 3.37333 0
M  V30 4858 H 461.493 2.44245 3.36873 0
M  V30 4859 H 460.369 2.85185 4.69 0
M  V30 4860 H 460.63 1.16785 4.26396 0
M  V30 4861 N 459.689 -1.00246 1.21608 0
M  V30 4862 C 461.105 -1.26435 0.973975 0
M  V30 4863 C 461.305 -1.98642 -0.338143 0
M  V30 4864 O 460.361 -2.29026 -1.06317 0
M  V30 4865 C 461.674 -2.08551 2.16626 0
M  V30 4866 C 463.222 -2.21769 2.20879 0
M  V30 4867 C 463.697 -3.07267 3.39633 0
M  V30 4868 N 465.188 -3.14855 3.39736 0
M  V30 4869 C 465.923 -3.81274 4.28273 0
M  V30 4870 N 465.419 -4.497 5.27012 0
M  V30 4871 N 467.212 -3.7794 4.16074 0
M  V30 4872 H 459.363 -0.518089 2.05984 0
M  V30 4873 H 461.626 -0.291368 0.902113 0
M  V30 4874 H 461.332 -1.62847 3.11727 0
M  V30 4875 H 461.206 -3.09303 2.15897 0
M  V30 4876 H 463.593 -2.66691 1.26332 0
M  V30 4877 H 463.674 -1.20478 2.25652 0
M  V30 4878 H 463.318 -2.63047 4.34475 0
M  V30 4879 H 463.248 -4.08678 3.321 0
M  V30 4880 H 465.739 -2.66147 2.6828 0
M  V30 4881 H 466.052 -4.98092 5.90867 0
M  V30 4882 H 464.397 -4.48479 5.30935 0
M  V30 4883 H 467.588 -3.23638 3.38195 0
M  V30 4884 H 467.761 -4.29424 4.85282 0
M  V30 4885 N 461.167 -1.02423 -1.1978 0
M  V30 4886 C 462.444 -0.632802 -1.85081 0
M  V30 4887 C 462.824 0.888745 -1.9148 0
M  V30 4888 O 462.172 1.78357 -1.42832 0
M  V30 4889 C 462.382 -1.28947 -3.24305 0
M  V30 4890 C 463.73 -1.40976 -4.00513 0
M  V30 4891 O 464.754 -1.24628 -3.33686 0
M  V30 4892 O 463.613 -1.67467 -5.20209 0
M  V30 4893 H 460.707 -0.219348 -0.79738 0
M  V30 4894 H 463.253 -1.12209 -1.27307 0
M  V30 4895 H 462.025 -2.3288 -3.14456 0
M  V30 4896 H 461.648 -0.787748 -3.89718 0
M  V30 4897 N 462.645 1.35699 -0.801477 0
M  V30 4898 C 464.061 1.52065 -0.484596 0
M  V30 4899 C 464.261 1.75215 0.995084 0
M  V30 4900 O 463.317 1.79061 1.78026 0
M  V30 4901 C 464.63 2.69908 -1.32552 0
M  V30 4902 C 466.178 2.83784 -1.32044 0
M  V30 4903 C 466.653 4.04646 -2.14536 0
M  V30 4904 N 468.144 4.11814 -2.12046 0
M  V30 4905 C 468.879 5.04437 -2.72636 0
M  V30 4906 N 468.375 6.02426 -3.42133 0
M  V30 4907 N 470.168 4.97144 -2.62305 0
M  V30 4908 H 462.319 1.18928 -1.75983 0
M  V30 4909 H 464.582 0.581455 -0.748741 0
M  V30 4910 H 464.288 2.59363 -2.37537 0
M  V30 4911 H 464.162 3.64376 -0.975181 0
M  V30 4912 H 466.549 2.93783 -0.27846 0
M  V30 4913 H 466.63 1.90188 -1.71062 0
M  V30 4914 H 466.274 3.95407 -3.18772 0
M  V30 4915 H 466.204 4.97413 -1.72882 0
M  V30 4916 H 468.695 3.41664 -1.61476 0
M  V30 4917 H 469.008 6.69688 -3.85666 0
M  V30 4918 H 467.353 6.02615 -3.46237 0
M  V30 4919 H 470.544 4.19546 -2.07603 0
M  V30 4920 H 470.717 5.69138 -3.09815 0
M  V30 4921 N 464.123 0.554532 1.47522 0
M  V30 4922 C 465.086 -0.184174 2.28459 0
M  V30 4923 C 466.086 -0.845195 1.36796 0
M  V30 4924 O 467.276 -0.701467 1.59452 0
M  V30 4925 C 464.408 -1.26903 3.16399 0
M  V30 4926 H 465.601 0.526751 2.95238 0
M  V30 4927 H 463.154 0.311375 1.53167 0
M  V30 4928 H 463.889 -2.01244 2.54306 0
M  V30 4929 H 463.674 -0.799883 3.83854 0
M  V30 4930 H 465.164 -1.78794 3.77389 0
M  V30 4931 N 465.601 -1.54893 0.290851 0
M  V30 4932 C 466.849 -1.99538 -0.320756 0
M  V30 4933 C 467.17 -1.18075 -1.55188 0
M  V30 4934 O 466.44 -0.274162 -1.93972 0
M  V30 4935 H 465.02 -0.737052 -0.121507 0
M  V30 4936 H 467.682 -1.90755 0.399832 0
M  V30 4937 H 466.778 -3.06282 -0.599802 0
M  V30 4938 N 467.08 -0.0183926 -1.57589 0
M  V30 4939 C 468.327 0.662562 -1.91354 0
M  V30 4940 C 468.655 1.72747 -0.893788 0
M  V30 4941 O 467.91 1.9545 0.0988509 0
M  V30 4942 C 468.209 1.32676 -3.31861 0
M  V30 4943 C 467.875 0.393267 -4.49182 0
M  V30 4944 C 466.537 0.136302 -4.81007 0
M  V30 4945 C 468.889 -0.248366 -5.20608 0
M  V30 4946 C 466.217 -0.770282 -5.81621 0
M  V30 4947 C 468.569 -1.14294 -6.22189 0
M  V30 4948 C 467.233 -1.4089 -6.52462 0
M  V30 4949 H 466.503 0.242448 -0.700214 0
M  V30 4950 H 469.15 -0.0778629 -1.91342 0
M  V30 4951 H 467.455 2.14168 -3.28084 0
M  V30 4952 H 469.152 1.86001 -3.55253 0
M  V30 4953 H 465.742 0.603723 -4.24327 0
M  V30 4954 H 469.926 -0.062883 -4.9626 0
M  V30 4955 H 465.182 -0.984154 -6.03427 0
M  V30 4956 H 469.356 -1.64637 -6.76659 0
M  V30 4957 H 466.983 -2.11306 -7.30242 0
M  V30 4958 N 468.558 1.5553 0.254621 0
M  V30 4959 C 469.506 1.9048 1.33492 0
M  V30 4960 C 470.5 0.78304 1.50216 0
M  V30 4961 O 471.706 0.967582 1.51782 0
M  V30 4962 H 468.081 0.604846 0.44684 0
M  V30 4963 H 470.052 2.80688 1.01275 0
M  V30 4964 C 468.801 2.20928 2.68489 0
M  V30 4965 H 468.124 3.06742 2.56417 0
M  V30 4966 H 469.564 2.49291 3.42972 0
M  V30 4967 C 468.023 1.023 3.20993 0
M  V30 4968 O 468.553 0.267027 4.00811 0
M  V30 4969 N 466.759 0.815714 2.78917 0
M  V30 4970 H 466.306 1.43217 2.14119 0
M  V30 4971 H 466.264 0.0236532 3.14391 0
M  V30 4972 N 470.036 -0.519951 1.48776 0
M  V30 4973 C 471.284 -1.2727 1.56993 0
M  V30 4974 C 471.605 -1.9339 0.25004 0
M  V30 4975 O 470.875 -1.81822 -0.729216 0
M  V30 4976 H 469.455 -0.472732 0.578389 0
M  V30 4977 H 472.117 -0.604234 1.85297 0
M  V30 4978 H 471.213 -2.04669 2.3562 0
M  V30 4979 N 471.514 -1.37532 -0.769588 0
M  V30 4980 C 472.742 -1.36059 -1.55871 0
M  V30 4981 C 473.157 0.053544 -1.88724 0
M  V30 4982 O 472.514 1.01591 -1.5161 0
M  V30 4983 C 472.565 -2.20107 -2.86767 0
M  V30 4984 O 472.286 -3.56009 -2.55321 0
M  V30 4985 C 473.787 -2.26636 -3.80987 0
M  V30 4986 H 471.007 -0.465967 -0.482821 0
M  V30 4987 H 473.551 -1.80901 -0.953686 0
M  V30 4988 H 471.706 -1.78768 -3.43687 0
M  V30 4989 H 472.12 -4.0009 -3.39158 0
M  V30 4990 H 473.594 -2.89763 -4.69831 0
M  V30 4991 H 474.071 -1.2754 -4.20274 0
M  V30 4992 H 474.677 -2.68296 -3.29996 0
M  V30 4993 N 472.992 0.995999 -1.22138 0
M  V30 4994 C 474.217 1.77601 -1.0711 0
M  V30 4995 C 474.642 1.84339 0.374264 0
M  V30 4996 O 474 1.29359 1.27028 0
M  V30 4997 C 474.048 3.18897 -1.68336 0
M  V30 4998 O 473.152 4.01663 -0.934928 0
M  V30 4999 H 472.493 0.547011 -0.376397 0
M  V30 5000 H 475.023 1.25137 -1.6187 0
M  V30 5001 H 475.033 3.69539 -1.72931 0
M  V30 5002 H 473.708 3.13308 -2.73516 0
M  V30 5003 H 472.285 3.60204 -0.964751 0
M  V30 5004 N 474.47 1.03057 1.19235 0
M  V30 5005 C 475.716 0.729098 1.89241 0
M  V30 5006 C 476.049 -0.740573 1.79525 0
M  V30 5007 O 475.324 -1.53946 1.18874 0
M  V30 5008 C 475.607 1.18304 3.40112 0
M  V30 5009 C 475.46 2.71406 3.5869 0
M  V30 5010 C 476.779 0.765161 4.33397 0
M  V30 5011 H 473.898 0.266338 0.687192 0
M  V30 5012 H 476.54 1.28079 1.40341 0
M  V30 5013 H 474.69 0.713672 3.81889 0
M  V30 5014 H 476.362 3.26303 3.26074 0
M  V30 5015 H 474.605 3.11717 3.01687 0
M  V30 5016 H 475.276 2.98225 4.64506 0
M  V30 5017 H 477.752 1.16889 3.99345 0
M  V30 5018 H 476.628 1.11065 5.37546 0
M  V30 5019 H 476.889 -0.332372 4.40849 0
M  V30 5020 N 475.948 -1.35272 0.808662 0
M  V30 5021 C 476.858 -2.33546 0.222079 0
M  V30 5022 C 477.874 -1.6196 -0.636011 0
M  V30 5023 O 479.05 -1.93822 -0.547274 0
M  V30 5024 C 476.115 -3.41148 -0.61795 0
M  V30 5025 C 475.176 -4.28507 0.260875 0
M  V30 5026 C 474.409 -5.3097 -0.539156 0
M  V30 5027 O 474.632 -5.42123 -1.77367 0
M  V30 5028 O 473.566 -6.01858 0.0710526 0
M  V30 5029 H 477.392 -2.85515 1.03512 0
M  V30 5030 H 474.977 -1.38079 0.570495 0
M  V30 5031 H 476.859 -4.06889 -1.09634 0
M  V30 5032 H 475.534 -2.91447 -1.40855 0
M  V30 5033 H 474.441 -3.6574 0.786451 0
M  V30 5034 H 475.774 -4.81611 1.01547 0
M  V30 5035 N 477.426 -0.562348 -1.47226 0
M  V30 5036 C 478.674 -0.0401371 -2.0206 0
M  V30 5037 C 478.995 1.3165 -1.43852 0
M  V30 5038 O 478.265 1.85976 -0.615599 0
M  V30 5039 H 476.845 -0.0118479 -0.746906 0
M  V30 5040 H 479.507 -0.73352 -1.8057 0
M  V30 5041 H 478.603 0.0441254 -3.12069 0
M  V30 5042 N 478.904 1.54736 -0.299062 0
M  V30 5043 C 479.836 2.20891 0.61153 0
M  V30 5044 C 480.849 1.20104 1.09904 0
M  V30 5045 O 482.038 1.46707 1.01683 0
M  V30 5046 C 479.138 2.84018 1.84897 0
M  V30 5047 C 478.311 4.10719 1.50428 0
M  V30 5048 C 477.37 4.57667 2.59667 0
M  V30 5049 O 476.396 5.2291 2.24842 0
M  V30 5050 N 477.598 4.29821 3.90172 0
M  V30 5051 H 480.363 2.99666 0.0452001 0
M  V30 5052 H 477.924 1.61446 -0.121178 0
M  V30 5053 H 479.916 3.1236 2.5732 0
M  V30 5054 H 478.486 2.09095 2.32375 0
M  V30 5055 H 477.706 3.89408 0.612781 0
M  V30 5056 H 478.994 4.93223 1.24934 0
M  V30 5057 H 478.392 3.77549 4.21276 0
M  V30 5058 H 476.949 4.62877 4.58899 0
M  V30 5059 N 480.382 0.0267497 1.57577 0
M  V30 5060 C 481.622 -0.65659 1.93567 0
M  V30 5061 C 481.986 -1.69429 0.903213 0
M  V30 5062 O 483.187 -2.42994 1.14923 0
M  V30 5063 C 481.458 -1.25912 3.34486 0
M  V30 5064 S 483.017 -1.96386 3.924 0
M  V30 5065 H 479.835 -0.216237 0.67732 0
M  V30 5066 H 482.437 0.0898475 1.95293 0
M  V30 5067 H 481.141 -0.491405 4.07447 0
M  V30 5068 H 480.672 -2.04291 3.36198 0
M  V30 5069 H 482.687 -3.24202 3.75643 0
M  V30 5070 N 481.861 -1.55662 -0.24637 0
M  V30 5071 C 482.808 -1.90361 -1.30504 0
M  V30 5072 C 483.778 -0.757905 -1.47801 0
M  V30 5073 O 484.963 -1.01161 -1.61775 0
M  V30 5074 C 482.103 -2.2042 -2.65535 0
M  V30 5075 C 481.216 -3.47799 -2.56242 0
M  V30 5076 C 480.351 -3.67426 -3.8363 0
M  V30 5077 C 479.39 -4.88403 -3.68956 0
M  V30 5078 N 478.527 -5.04548 -4.88237 0
M  V30 5079 H 483.367 -2.80645 -1.00213 0
M  V30 5080 H 480.904 -1.38924 -0.483577 0
M  V30 5081 H 482.862 -2.35853 -3.44135 0
M  V30 5082 H 481.492 -1.3334 -2.93973 0
M  V30 5083 H 480.544 -3.40694 -1.69208 0
M  V30 5084 H 481.856 -4.36544 -2.4131 0
M  V30 5085 H 481.01 -3.82821 -4.70673 0
M  V30 5086 H 479.749 -2.76914 -4.01459 0
M  V30 5087 H 478.754 -4.72984 -2.80296 0
M  V30 5088 H 479.979 -5.80375 -3.52621 0
M  V30 5089 H 477.925 -4.16974 -5.06427 0
M  V30 5090 H 477.842 -5.87384 -4.75937 0
M  V30 5091 H 479.11 -5.24355 -5.76777 0
M  V30 5092 N 483.339 0.512053 -1.4905 0
M  V30 5093 C 484.302 1.59704 -1.64399 0
M  V30 5094 C 485.302 1.52285 -0.516317 0
M  V30 5095 O 486.492 1.55635 -0.782527 0
M  V30 5096 C 483.624 2.9935 -1.63102 0
M  V30 5097 H 484.817 1.47428 -2.61161 0
M  V30 5098 H 482.37 0.735469 -1.37915 0
M  V30 5099 H 483.105 3.17116 -0.678836 0
M  V30 5100 H 482.89 3.06144 -2.44986 0
M  V30 5101 H 484.38 3.782 -1.77072 0
M  V30 5102 N 484.817 1.37938 0.762283 0
M  V30 5103 C 486.045 1.36883 1.55147 0
M  V30 5104 C 486.46 -0.0435348 1.8875 0
M  V30 5105 O 485.817 -1.00786 1.52146 0
M  V30 5106 C 485.868 2.21624 2.85596 0
M  V30 5107 O 485.589 3.57358 2.5343 0
M  V30 5108 C 487.09 2.28653 3.7978 0
M  V30 5109 H 484.31 0.468521 0.480343 0
M  V30 5110 H 486.854 1.81404 0.944079 0
M  V30 5111 H 485.009 1.80588 3.42734 0
M  V30 5112 H 485.423 4.01883 3.37032 0
M  V30 5113 H 486.897 2.9225 4.68288 0
M  V30 5114 H 487.374 1.29767 4.19592 0
M  V30 5115 H 487.98 2.70043 3.28568 0
M  V30 5116 N 486.295 -0.989507 1.22664 0
M  V30 5117 C 487.706 -1.54406 1.04955 0
M  V30 5118 C 488.057 -1.92366 -0.385951 0
M  V30 5119 O 487.182 -1.75111 -1.27142 0
M  V30 5120 C 487.777 -2.80578 1.89899 0
M  V30 5121 C 486.336 -3.32464 1.76478 0
M  V30 5122 C 485.483 -2.05524 1.86159 0
M  V30 5123 H 488.434 -0.810211 1.3646 0
M  V30 5124 H 488.455 -3.53075 1.4184 0
M  V30 5125 H 487.967 -2.52918 2.94371 0
M  V30 5126 H 486.068 -3.65024 0.747528 0
M  V30 5127 H 486.181 -4.02838 2.59342 0
M  V30 5128 H 484.545 -2.19241 1.29636 0
M  V30 5129 H 485.328 -1.80258 2.92168 0
M  V30 5130 N 487.773 -1.03688 -1.18687 0
M  V30 5131 C 489.021 -0.736572 -1.88199 0
M  V30 5132 C 489.342 0.737665 -1.80509 0
M  V30 5133 O 488.612 1.53204 -1.22088 0
M  V30 5134 H 487.192 -0.269466 -0.696704 0
M  V30 5135 H 489.854 -1.31282 -1.44052 0
M  V30 5136 H 488.95 -1.03802 -2.94332 0
M  V30 5137 N 489.251 1.34841 -0.815825 0
M  V30 5138 C 490.479 2.0273 -0.413294 0
M  V30 5139 C 490.894 1.61459 0.978599 0
M  V30 5140 O 490.251 0.816584 1.63212 0
M  V30 5141 C 490.302 3.58058 -0.497676 0
M  V30 5142 O 490.023 3.97832 -1.8347 0
M  V30 5143 C 491.524 4.4321 -0.0891339 0
M  V30 5144 H 488.744 0.649956 -0.166728 0
M  V30 5145 H 491.288 1.72267 -1.10201 0
M  V30 5146 H 489.443 3.87136 0.142886 0
M  V30 5147 H 489.857 4.92501 -1.80396 0
M  V30 5148 H 491.331 5.5164 -0.199274 0
M  V30 5149 H 491.808 4.28432 0.966571 0
M  V30 5150 H 492.414 4.19446 -0.703214 0
M  V30 5151 N 490.729 0.570148 1.46925 0
M  V30 5152 C 491.676 -0.170257 2.30171 0
M  V30 5153 C 492.646 -0.896099 1.39855 0
M  V30 5154 O 493.831 -0.889248 1.68811 0
M  V30 5155 C 490.971 -1.18605 3.24079 0
M  V30 5156 C 490.084 -0.464947 4.29491 0
M  V30 5157 C 489.219 -1.46716 5.10537 0
M  V30 5158 C 488.258 -0.731758 6.0771 0
M  V30 5159 N 487.395 -1.68142 6.81669 0
M  V30 5160 H 492.235 0.545713 2.92961 0
M  V30 5161 H 489.772 0.280938 1.44392 0
M  V30 5162 H 491.73 -1.78771 3.76957 0
M  V30 5163 H 490.36 -1.86989 2.63125 0
M  V30 5164 H 489.412 0.251506 3.79568 0
M  V30 5165 H 490.724 0.110548 4.98677 0
M  V30 5166 H 489.878 -2.14199 5.6763 0
M  V30 5167 H 488.617 -2.07658 4.41282 0
M  V30 5168 H 487.622 -0.0430787 5.49783 0
M  V30 5169 H 488.847 -0.127904 6.7898 0
M  V30 5170 H 486.793 -2.27918 6.15134 0
M  V30 5171 H 486.71 -1.15841 7.47072 0
M  V30 5172 H 487.978 -2.347 7.43328 0
M  V30 5173 N 492.207 -1.54576 0.307264 0
M  V30 5174 C 493.456 -1.99442 -0.300976 0
M  V30 5175 C 493.769 -1.19928 -1.5452 0
M  V30 5176 O 494.975 -1.55092 -2.22842 0
M  V30 5177 C 493.431 -3.55084 -0.586809 0
M  V30 5178 C 493.039 -4.43413 0.639438 0
M  V30 5179 C 494.783 -4.0846 -1.1559 0
M  V30 5180 C 492.69 -5.90499 0.326411 0
M  V30 5181 H 491.62 -0.744986 -0.116238 0
M  V30 5182 H 494.271 -1.787 0.416947 0
M  V30 5183 H 492.653 -3.71749 -1.36449 0
M  V30 5184 H 493.827 -4.38522 1.41545 0
M  V30 5185 H 492.142 -4.00842 1.1276 0
M  V30 5186 H 494.739 -5.15926 -1.40445 0
M  V30 5187 H 495.082 -3.59443 -2.10015 0
M  V30 5188 H 495.615 -3.95362 -0.439778 0
M  V30 5189 H 492.354 -6.43676 1.23939 0
M  V30 5190 H 491.874 -5.98382 -0.412212 0
M  V30 5191 H 493.553 -6.46962 -0.0697393 0
M  V30 5192 N 493.685 -0.035106 -1.57561 0
M  V30 5193 C 494.931 0.64318 -1.92331 0
M  V30 5194 C 495.264 1.71434 -0.912368 0
M  V30 5195 O 494.539 1.94395 0.0640303 0
M  V30 5196 C 494.822 1.25411 -3.37556 0
M  V30 5197 C 494.675 0.192109 -4.4939 0
M  V30 5198 C 495.994 2.17041 -3.82859 0
M  V30 5199 H 493.113 0.232341 -0.699419 0
M  V30 5200 H 495.755 -0.0935889 -1.89769 0
M  V30 5201 H 493.905 1.88205 -3.39869 0
M  V30 5202 H 495.577 -0.438849 -4.59208 0
M  V30 5203 H 493.82 -0.481725 -4.31117 0
M  V30 5204 H 494.491 0.659292 -5.48049 0
M  V30 5205 H 496.967 1.64228 -3.8232 0
M  V30 5206 H 495.843 2.56738 -4.85157 0
M  V30 5207 H 496.104 3.06401 -3.18702 0
M  V30 5208 N 495.163 1.55791 0.238111 0
M  V30 5209 C 496.411 1.77681 0.963001 0
M  V30 5210 C 496.732 0.600674 1.85518 0
M  V30 5211 O 496.002 -0.383182 1.92116 0
M  V30 5212 H 494.582 0.655315 0.358568 0
M  V30 5213 H 497.244 1.93239 0.253945 0
M  V30 5214 H 496.34 2.69177 1.57956 0
M  V30 5215 N 496.642 -0.504142 1.49319 0
M  V30 5216 C 497.872 -1.28071 1.62116 0
M  V30 5217 C 498.28 -1.86955 0.290566 0
M  V30 5218 O 497.623 -1.68415 -0.733616 0
M  V30 5219 C 497.685 -2.4521 2.62893 0
M  V30 5220 C 497.349 -2.07218 4.0732 0
M  V30 5221 C 498.346 -1.61375 4.94221 0
M  V30 5222 C 496.031 -2.16949 4.53033 0
M  V30 5223 C 498.025 -1.25763 6.2487 0
M  V30 5224 C 495.712 -1.80949 5.83696 0
M  V30 5225 C 496.71 -1.3543 6.69438 0
M  V30 5226 O 496.398 -0.99915 7.97667 0
M  V30 5227 H 496.13 -0.394763 0.54876 0
M  V30 5228 H 498.684 -0.612118 1.96067 0
M  V30 5229 H 496.914 -3.15134 2.24115 0
M  V30 5230 H 498.603 -3.0724 2.65252 0
M  V30 5231 H 499.369 -1.53306 4.60133 0
M  V30 5232 H 495.248 -2.5133 3.86463 0
M  V30 5233 H 498.792 -0.901631 6.91749 0
M  V30 5234 H 494.689 -1.88667 6.17313 0
M  V30 5235 H 495.457 -1.13089 8.1065 0
M  V30 5236 N 498.12 -1.38341 -0.754957 0
M  V30 5237 C 499.345 -1.37882 -1.5493 0
M  V30 5238 C 499.77 0.0296385 -1.88077 0
M  V30 5239 O 499.128 1.01133 -1.50472 0
M  V30 5240 C 499.176 -2.23996 -2.82592 0
M  V30 5241 O 498.28 -1.65612 -3.77686 0
M  V30 5242 H 497.621 -0.470384 -0.468652 0
M  V30 5243 H 500.151 -1.82084 -0.933082 0
M  V30 5244 H 500.161 -2.37806 -3.3153 0
M  V30 5245 H 498.836 -3.26365 -2.57796 0
M  V30 5246 H 497.413 -1.60936 -3.36384 0
M  V30 5247 N 499.598 0.982988 -1.23187 0
M  V30 5248 C 500.826 1.75921 -1.08901 0
M  V30 5249 C 501.241 1.85341 0.359719 0
M  V30 5250 O 500.598 1.33072 1.24892 0
M  V30 5251 C 500.649 3.18742 -1.70545 0
M  V30 5252 O 500.37 3.09814 -3.09753 0
M  V30 5253 C 501.871 4.1277 -1.61667 0
M  V30 5254 H 499.091 0.552166 -0.381252 0
M  V30 5255 H 501.635 1.23516 -1.62985 0
M  V30 5256 H 499.79 3.68182 -1.20501 0
M  V30 5257 H 500.204 3.99703 -3.39614 0
M  V30 5258 H 501.678 5.10697 -2.09506 0
M  V30 5259 H 502.155 4.3542 -0.575009 0
M  V30 5260 H 502.761 3.69232 -2.11064 0
M  V30 5261 N 501.076 1.04316 1.18135 0
M  V30 5262 C 502.026 0.606731 2.19779 0
M  V30 5263 C 503.01 -0.352144 1.56999 0
M  V30 5264 O 504.202 -0.170795 1.76174 0
M  V30 5265 C 501.331 -0.0262443 3.4329 0
M  V30 5266 C 500.417 0.955928 4.13186 0
M  V30 5267 N 500.808 2.12395 4.59045 0
M  V30 5268 C 499.106 0.782473 4.39082 0
M  V30 5269 C 499.807 2.74458 5.12882 0
M  V30 5270 N 498.783 2.02316 5.04548 0
M  V30 5271 H 502.585 1.49679 2.5293 0
M  V30 5272 H 500.099 0.912088 1.34368 0
M  V30 5273 H 502.096 -0.356617 4.15372 0
M  V30 5274 H 500.756 -0.911811 3.11635 0
M  V30 5275 H 501.767 2.50272 4.53414 0
M  V30 5276 H 498.444 -0.0527906 4.17467 0
M  V30 5277 H 499.834 3.73459 5.5855 0
M  V30 5278 N 502.554 -1.34406 0.822964 0
M  V30 5279 C 503.504 -2.26963 0.217208 0
M  V30 5280 C 504.488 -1.48536 -0.618545 0
M  V30 5281 O 505.68 -1.7056 -0.473118 0
M  V30 5282 C 502.809 -3.37655 -0.619973 0
M  V30 5283 C 501.895 -4.23495 0.226411 0
M  V30 5284 N 502.286 -4.88876 1.29744 0
M  V30 5285 C 500.584 -4.45999 0.0107554 0
M  V30 5286 C 501.285 -5.52642 1.81553 0
M  V30 5287 N 500.261 -5.31949 1.11942 0
M  V30 5288 H 504.063 -2.75017 1.03647 0
M  V30 5289 H 501.577 -1.48126 0.665777 0
M  V30 5290 H 503.574 -4.02932 -1.07011 0
M  V30 5291 H 502.234 -2.91151 -1.43739 0
M  V30 5292 H 503.245 -4.89886 1.68024 0
M  V30 5293 H 499.922 -4.10253 -0.774495 0
M  V30 5294 H 501.312 -6.14755 2.71156 0
M  V30 5295 N 504.032 -0.577932 -1.46621 0
M  V30 5296 C 504.942 0.160651 -2.34049 0
M  V30 5297 C 505.958 0.890911 -1.49462 0
M  V30 5298 O 507.134 0.855166 -1.82343 0
M  V30 5299 C 504.199 1.16447 -3.26559 0
M  V30 5300 C 503.26 0.4394 -4.27045 0
M  V30 5301 C 502.493 1.3954 -5.15135 0
M  V30 5302 O 502.716 2.63162 -5.06065 0
M  V30 5303 O 501.65 0.908585 -5.95003 0
M  V30 5304 H 505.476 -0.557057 -2.98547 0
M  V30 5305 H 503.061 -0.338369 -1.45518 0
M  V30 5306 H 504.943 1.7434 -3.83645 0
M  V30 5307 H 503.618 1.86373 -2.64663 0
M  V30 5308 H 502.525 -0.181247 -3.73661 0
M  V30 5309 H 503.858 -0.218799 -4.91713 0
M  V30 5310 N 505.51 1.54411 -0.315457 0
M  V30 5311 C 506.46 2.20772 0.569549 0
M  V30 5312 C 507.444 1.18551 1.08787 0
M  V30 5313 O 508.636 1.44213 1.02624 0
M  V30 5314 C 505.765 2.96293 1.73394 0
M  V30 5315 C 504.851 4.05844 1.2309 0
M  V30 5316 N 505.242 5.03822 0.446927 0
M  V30 5317 C 503.54 4.19648 1.51035 0
M  V30 5318 C 504.241 5.8143 0.17725 0
M  V30 5319 N 503.217 5.38245 0.761118 0
M  V30 5320 H 507.019 2.93877 -0.0368076 0
M  V30 5321 H 504.533 1.61949 -0.120915 0
M  V30 5322 H 506.53 3.42313 2.37965 0
M  V30 5323 H 505.19 2.24708 2.34386 0
M  V30 5324 H 506.201 5.17821 0.0905027 0
M  V30 5325 H 502.878 3.59274 2.1267 0
M  V30 5326 H 504.268 6.70369 -0.45335 0
M  V30 5327 N 506.988 0.0434614 1.5754 0
M  V30 5328 C 507.918 -0.931651 2.14109 0
M  V30 5329 C 508.899 -1.32971 1.06079 0
M  V30 5330 O 510.084 -1.40579 1.33982 0
M  V30 5331 C 507.214 -2.20914 2.67982 0
M  V30 5332 C 506.168 -1.95139 3.80926 0
M  V30 5333 C 505.494 -3.29276 4.21285 0
M  V30 5334 C 506.794 -1.27913 5.06395 0
M  V30 5335 H 508.488 -0.460497 2.95837 0
M  V30 5336 H 506.034 -0.220058 1.42309 0
M  V30 5337 H 507.987 -2.89522 3.06194 0
M  V30 5338 H 506.711 -2.70221 1.83434 0
M  V30 5339 H 505.37 -1.28945 3.43175 0
M  V30 5340 H 505.018 -3.76369 3.33699 0
M  V30 5341 H 504.718 -3.12831 4.97404 0
M  V30 5342 H 506.242 -3.99129 4.62091 0
M  V30 5343 H 507.656 -1.86544 5.42102 0
M  V30 5344 H 506.053 -1.2182 5.87605 0
M  V30 5345 H 507.123 -0.254066 4.84234 0
M  V30 5346 N 508.466 -1.55915 -0.229846 0
M  V30 5347 C 509.398 -1.88209 -1.30805 0
M  V30 5348 C 510.411 -0.769672 -1.43457 0
M  V30 5349 O 511.6 -1.04792 -1.44502 0
M  V30 5350 C 508.7 -2.06829 -2.68468 0
M  V30 5351 C 507.873 -3.37798 -2.77869 0
M  V30 5352 C 506.932 -3.45952 -3.96489 0
M  V30 5353 O 505.958 -4.19043 -3.85216 0
M  V30 5354 N 507.16 -2.76488 -5.10426 0
M  V30 5355 H 509.925 -2.81286 -1.03431 0
M  V30 5356 H 507.486 -1.5636 -0.41991 0
M  V30 5357 H 509.478 -2.09608 -3.46189 0
M  V30 5358 H 508.048 -1.20416 -2.88477 0
M  V30 5359 H 507.268 -3.4719 -1.86689 0
M  V30 5360 H 508.556 -4.24091 -2.81113 0
M  V30 5361 H 507.954 -2.16868 -5.2248 0
M  V30 5362 H 506.511 -2.84938 -5.8622 0
M  V30 5363 N 509.944 0.496216 -1.49584 0
M  V30 5364 C 511.36 0.827814 -1.36453 0
M  V30 5365 C 511.56 1.97464 -0.401285 0
M  V30 5366 O 510.616 2.51958 0.165296 0
M  V30 5367 C 511.929 1.16352 -2.77277 0
M  V30 5368 C 513.477 1.27145 -2.86013 0
M  V30 5369 C 513.952 1.64042 -4.27615 0
M  V30 5370 N 515.443 1.71082 -4.30448 0
M  V30 5371 C 516.178 2.01085 -5.36984 0
M  V30 5372 N 515.674 2.2928 -6.5376 0
M  V30 5373 N 517.467 2.02376 -5.24405 0
M  V30 5374 H 509.618 -0.259947 -2.10803 0
M  V30 5375 H 511.881 -0.0537163 -0.946477 0
M  V30 5376 H 511.587 0.394153 -3.49484 0
M  V30 5377 H 511.461 2.10582 -3.12946 0
M  V30 5378 H 513.848 2.03152 -2.1404 0
M  V30 5379 H 513.929 0.309542 -2.5392 0
M  V30 5380 H 513.573 0.88583 -5.00115 0
M  V30 5381 H 513.503 2.6134 -4.57175 0
M  V30 5382 H 515.994 1.51434 -3.46232 0
M  V30 5383 H 516.307 2.51376 -7.30774 0
M  V30 5384 H 514.652 2.26726 -6.56978 0
M  V30 5385 H 517.843 1.79829 -4.32179 0
M  V30 5386 H 518.016 2.25425 -6.07526 0
M  V30 5387 N 511.423 1.38739 0.74761 0
M  V30 5388 C 512.355 1.32341 1.87132 0
M  V30 5389 C 513.368 0.234502 1.61102 0
M  V30 5390 O 514.557 0.492516 1.71571 0
M  V30 5391 C 511.657 1.02915 3.22896 0
M  V30 5392 C 510.83 2.22834 3.76383 0
M  V30 5393 C 509.889 1.90059 4.90677 0
M  V30 5394 O 508.915 2.62615 5.04997 0
M  V30 5395 N 510.117 0.859141 5.74107 0
M  V30 5396 H 512.882 2.29175 1.93129 0
M  V30 5397 H 510.443 1.32678 0.927805 0
M  V30 5398 H 512.435 0.79031 3.96908 0
M  V30 5399 H 511.005 0.148572 3.12247 0
M  V30 5400 H 510.225 2.62747 2.93867 0
M  V30 5401 H 511.513 3.02851 4.08851 0
M  V30 5402 H 510.911 0.257564 5.65113 0
M  V30 5403 H 509.468 0.680189 6.48241 0
M  V30 5404 N 512.901 -0.976442 1.23707 0
M  V30 5405 C 514.317 -1.24341 1.00058 0
M  V30 5406 C 514.517 -1.99315 -0.295932 0
M  V30 5407 O 513.573 -2.3123 -1.01435 0
M  V30 5408 C 514.886 -2.03909 2.21001 0
M  V30 5409 C 516.434 -2.17034 2.25534 0
M  V30 5410 C 516.909 -2.99994 3.46075 0
M  V30 5411 N 518.4 -3.07578 3.46338 0
M  V30 5412 C 519.135 -3.72104 4.36264 0
M  V30 5413 N 518.631 -4.3842 5.36432 0
M  V30 5414 N 520.424 -3.69029 4.23998 0
M  V30 5415 H 512.575 -0.47428 2.07037 0
M  V30 5416 H 514.838 -0.272167 0.908091 0
M  V30 5417 H 514.544 -1.56198 3.15111 0
M  V30 5418 H 514.418 -3.04654 2.22409 0
M  V30 5419 H 516.805 -2.63951 1.31961 0
M  V30 5420 H 516.886 -1.15664 2.28156 0
M  V30 5421 H 516.53 -2.53772 4.39957 0
M  V30 5422 H 516.46 -4.01541 3.40694 0
M  V30 5423 H 518.951 -2.60397 2.73865 0
M  V30 5424 H 519.264 -4.85447 6.013 0
M  V30 5425 H 517.609 -4.37116 5.40328 0
M  V30 5426 H 520.8 -3.16392 3.44984 0
M  V30 5427 H 520.973 -4.19034 4.94282 0
M  V30 5428 N 514.379 -1.04941 -1.1758 0
M  V30 5429 C 515.625 -0.759112 -1.88057 0
M  V30 5430 C 515.958 0.711918 -1.8068 0
M  V30 5431 O 515.233 1.52035 -1.21308 0
M  V30 5432 C 515.516 -1.237 -3.38187 0
M  V30 5433 C 515.369 -2.77078 -3.54327 0
M  V30 5434 C 516.688 -0.834014 -4.32125 0
M  V30 5435 H 513.807 -0.277237 -0.682868 0
M  V30 5436 H 516.449 -1.30296 -1.38286 0
M  V30 5437 H 514.599 -0.774337 -3.80705 0
M  V30 5438 H 516.271 -3.31449 -3.20842 0
M  V30 5439 H 514.514 -3.16477 -2.96689 0
M  V30 5440 H 515.185 -3.05577 -4.59703 0
M  V30 5441 H 517.661 -1.23228 -3.97434 0
M  V30 5442 H 516.537 -1.19603 -5.35711 0
M  V30 5443 H 516.798 0.262195 -4.41322 0
M  V30 5444 N 515.857 1.33968 -0.830081 0
M  V30 5445 C 517.082 2.02813 -0.433796 0
M  V30 5446 C 517.507 1.62076 0.954614 0
M  V30 5447 O 516.865 0.808955 1.62252 0
M  V30 5448 C 516.913 3.56348 -0.552115 0
M  V30 5449 O 516.017 4.10202 0.425191 0
M  V30 5450 H 515.358 0.639817 -0.177567 0
M  V30 5451 H 517.888 1.7106 -1.12248 0
M  V30 5452 H 517.898 4.05722 -0.430513 0
M  V30 5453 H 516.573 3.85344 -1.56471 0
M  V30 5454 H 515.15 3.71979 0.261878 0
M  V30 5455 N 517.335 0.585699 1.46312 0
M  V30 5456 C 518.582 0.0724211 2.0237 0
M  V30 5457 C 518.91 -1.28868 1.45683 0
M  V30 5458 O 518.165 -1.85853 0.612945 0
M  V30 5459 C 518.464 -0.0401312 3.57377 0
M  V30 5460 C 518.13 1.25376 4.33119 0
M  V30 5461 C 516.792 1.60824 4.5353 0
M  V30 5462 C 519.144 2.10987 4.76586 0
M  V30 5463 C 516.472 2.81676 5.14661 0
M  V30 5464 C 518.824 3.31068 5.39052 0
M  V30 5465 C 517.488 3.66794 5.5769 0
M  V30 5466 H 516.758 0.0265007 0.740526 0
M  V30 5467 H 519.405 0.762935 1.75646 0
M  V30 5468 H 517.71 -0.813791 3.83255 0
M  V30 5469 H 519.407 -0.453078 3.98432 0
M  V30 5470 H 515.997 0.967808 4.1753 0
M  V30 5471 H 520.181 1.84904 4.60569 0
M  V30 5472 H 515.437 3.0949 5.27282 0
M  V30 5473 H 519.611 3.97672 5.71691 0
M  V30 5474 H 517.238 4.60529 6.04828 0
M  V30 5475 N 518.813 -1.54241 0.323641 0
M  V30 5476 C 519.723 -2.28033 -0.551205 0
M  V30 5477 C 520.739 -1.32388 -1.12913 0
M  V30 5478 O 521.915 -1.65403 -1.14908 0
M  V30 5479 C 518.98 -3.02382 -1.69606 0
M  V30 5480 C 518.041 -4.13612 -1.14993 0
M  V30 5481 C 517.274 -4.84407 -2.24022 0
M  V30 5482 O 517.497 -4.54716 -3.44368 0
M  V30 5483 O 516.431 -5.71312 -1.89436 0
M  V30 5484 H 520.257 -3.03662 0.048066 0
M  V30 5485 H 517.842 -1.49133 0.0893289 0
M  V30 5486 H 519.724 -3.48941 -2.36259 0
M  V30 5487 H 518.399 -2.29628 -2.28151 0
M  V30 5488 H 517.306 -3.71402 -0.448484 0
M  V30 5489 H 518.639 -4.8841 -0.609608 0
M  V30 5490 N 520.291 -0.0518155 -1.57515 0
M  V30 5491 C 521.223 0.951542 -2.08515 0
M  V30 5492 C 522.236 1.27436 -1.01311 0
M  V30 5493 O 523.425 1.23504 -1.28876 0
M  V30 5494 C 520.525 2.27291 -2.5138 0
M  V30 5495 C 519.698 2.13191 -3.81927 0
M  V30 5496 C 518.757 3.28458 -4.11098 0
M  V30 5497 O 517.783 3.04334 -4.81009 0
M  V30 5498 N 518.985 4.52954 -3.63061 0
M  V30 5499 H 521.75 0.516242 -2.9522 0
M  V30 5500 H 519.311 0.13441 -1.61341 0
M  V30 5501 H 521.303 3.03272 -2.67971 0
M  V30 5502 H 519.873 2.62386 -1.69919 0
M  V30 5503 H 519.093 1.21798 -3.74912 0
M  V30 5504 H 520.381 2.00999 -4.67415 0
M  V30 5505 H 519.779 4.75444 -3.06545 0
M  V30 5506 H 518.336 5.26026 -3.84889 0
M  V30 5507 N 521.769 1.56035 0.221574 0
M  V30 5508 C 523.015 1.79312 0.947372 0
M  V30 5509 C 523.348 0.621453 1.83988 0
M  V30 5510 O 522.623 -0.379287 1.90766 0
M  V30 5511 C 522.906 3.1267 1.78633 0
M  V30 5512 C 522.759 4.40284 0.920312 0
M  V30 5513 C 524.078 3.4247 2.7641 0
M  V30 5514 H 521.197 0.652328 0.342982 0
M  V30 5515 H 523.839 1.88765 0.216244 0
M  V30 5516 H 521.989 3.04741 2.40967 0
M  V30 5517 H 523.661 4.60232 0.313718 0
M  V30 5518 H 521.904 4.33212 0.225734 0
M  V30 5519 H 522.575 5.30033 1.54171 0
M  V30 5520 H 525.051 3.50526 2.24211 0
M  V30 5521 H 523.927 4.3695 3.32213 0
M  V30 5522 H 524.188 2.64635 3.54148 0
M  V30 5523 N 523.247 -0.488276 1.49845 0
M  V30 5524 C 524.194 -1.58836 1.67451 0
M  V30 5525 C 525.164 -1.57886 0.515857 0
M  V30 5526 O 526.349 -1.75679 0.744403 0
M  V30 5527 C 523.489 -2.96915 1.75885 0
M  V30 5528 C 522.602 -3.07784 3.03138 0
M  V30 5529 C 521.737 -4.36673 3.02473 0
M  V30 5530 C 520.776 -4.41222 4.24252 0
M  V30 5531 N 519.913 -5.61557 4.21424 0
M  V30 5532 H 524.753 -1.43131 2.61376 0
M  V30 5533 H 522.29 -0.696186 1.29583 0
M  V30 5534 H 524.248 -3.76965 1.78755 0
M  V30 5535 H 522.878 -3.11295 0.85414 0
M  V30 5536 H 521.93 -2.20717 3.09819 0
M  V30 5537 H 523.242 -3.07005 3.93128 0
M  V30 5538 H 522.396 -5.25055 3.03977 0
M  V30 5539 H 521.135 -4.40037 2.10283 0
M  V30 5540 H 520.14 -3.5124 4.22978 0
M  V30 5541 H 521.365 -4.39564 5.17649 0
M  V30 5542 H 519.311 -5.65738 3.32078 0
M  V30 5543 H 519.228 -5.62447 5.05163 0
M  V30 5544 H 520.496 -6.52111 4.2705 0
M  V30 5545 N 524.725 -1.39134 -0.740242 0
M  V30 5546 C 526.141 -1.20623 -1.0451 0
M  V30 5547 C 526.341 -0.0641651 -2.01398 0
M  V30 5548 O 525.397 0.585843 -2.4561 0
M  V30 5549 C 526.71 -2.53815 -1.6124 0
M  V30 5550 C 528.258 -2.60615 -1.73346 0
M  V30 5551 C 528.733 -3.94015 -2.33486 0
M  V30 5552 N 530.224 -3.95627 -2.40902 0
M  V30 5553 C 530.959 -4.95616 -2.88361 0
M  V30 5554 N 530.455 -6.06003 -3.35756 0
M  V30 5555 N 532.248 -4.82998 -2.87523 0
M  V30 5556 H 524.399 -2.12176 -0.0975576 0
M  V30 5557 H 526.662 -0.942066 -0.105904 0
M  V30 5558 H 526.368 -3.37911 -0.975144 0
M  V30 5559 H 526.242 -2.73162 -2.6012 0
M  V30 5560 H 528.629 -1.76906 -2.36195 0
M  V30 5561 H 528.71 -2.45123 -0.731336 0
M  V30 5562 H 528.354 -4.78153 -1.71267 0
M  V30 5563 H 528.284 -4.06825 -3.34366 0
M  V30 5564 H 530.775 -3.15903 -2.07398 0
M  V30 5565 H 531.088 -6.78215 -3.70464 0
M  V30 5566 H 529.433 -6.09604 -3.33778 0
M  V30 5567 H 532.624 -3.95866 -2.49816 0
M  V30 5568 H 532.797 -5.61072 -3.24196 0
M  V30 5569 N 526.204 0.969867 -1.24223 0
M  V30 5570 C 527.453 1.70687 -1.07466 0
M  V30 5571 C 527.766 1.91736 0.386861 0
M  V30 5572 O 528.972 2.62986 0.674581 0
M  V30 5573 C 527.428 3.07217 -1.87472 0
M  V30 5574 C 527.036 2.94018 -3.3802 0
M  V30 5575 C 528.78 3.84804 -1.79237 0
M  V30 5576 C 526.687 4.25844 -4.10379 0
M  V30 5577 H 525.617 0.640067 -0.398536 0
M  V30 5578 H 528.268 1.08092 -1.48285 0
M  V30 5579 H 526.65 3.70628 -1.39466 0
M  V30 5580 H 527.824 2.39632 -3.9359 0
M  V30 5581 H 526.139 2.29898 -3.47183 0
M  V30 5582 H 528.736 4.82417 -2.30603 0
M  V30 5583 H 529.079 4.09356 -0.757197 0
M  V30 5584 H 529.612 3.28115 -2.24912 0
M  V30 5585 H 526.351 4.06486 -5.14246 0
M  V30 5586 H 525.871 4.80054 -3.59594 0
M  V30 5587 H 527.55 4.94475 -4.17257 0
M  V30 5588 N 527.682 1.05563 1.17022 0
M  V30 5589 C 528.615 0.604197 2.20056 0
M  V30 5590 C 529.593 -0.369169 1.58354 0
M  V30 5591 O 530.777 -0.279898 1.8641 0
M  V30 5592 C 527.904 -0.115265 3.38504 0
M  V30 5593 C 526.95 0.813698 4.18666 0
M  V30 5594 S 527.783 2.30492 4.83357 0
M  V30 5595 C 528.939 1.59674 6.0519 0
M  V30 5596 H 529.172 1.47713 2.58008 0
M  V30 5597 H 526.705 0.867932 1.27696 0
M  V30 5598 H 528.663 -0.524162 4.0714 0
M  V30 5599 H 527.324 -0.964284 2.98932 0
M  V30 5600 H 526.517 0.256736 5.03346 0
M  V30 5601 H 526.119 1.16213 3.55486 0
M  V30 5602 H 528.411 0.898164 6.7152 0
M  V30 5603 H 529.354 2.42115 6.65422 0
M  V30 5604 H 529.762 1.08252 5.54023 0
M  V30 5605 N 529.16 -1.33526 0.837174 0
M  V30 5606 C 530.07 -2.33023 0.271568 0
M  V30 5607 C 531.086 -1.63272 -0.601514 0
M  V30 5608 O 532.262 -1.94939 -0.506038 0
M  V30 5609 C 529.327 -3.42382 -0.545448 0
M  V30 5610 C 528.388 -4.27857 0.351709 0
M  V30 5611 C 527.621 -5.31994 -0.426409 0
M  V30 5612 O 527.844 -5.45763 -1.65828 0
M  V30 5613 O 526.778 -6.01572 0.1987 0
M  V30 5614 H 530.604 -2.83256 1.09545 0
M  V30 5615 H 528.189 -1.36837 0.599655 0
M  V30 5616 H 530.071 -4.09122 -1.00979 0
M  V30 5617 H 528.746 -2.94369 -1.34641 0
M  V30 5618 H 527.653 -3.6399 0.863853 0
M  V30 5619 H 528.986 -4.79349 1.1174 0
M  V30 5620 N 530.638 -0.59345 -1.46 0
M  V30 5621 C 531.568 0.121192 -2.33185 0
M  V30 5622 C 532.549 0.872977 -1.4599 0
M  V30 5623 O 533.734 0.846321 -1.74789 0
M  V30 5624 C 530.864 1.12844 -3.28456 0
M  V30 5625 C 529.818 0.4908 -4.25177 0
M  V30 5626 C 529.144 1.60529 -5.10034 0
M  V30 5627 C 530.444 -0.578949 -5.19081 0
M  V30 5628 H 532.138 -0.606767 -2.93187 0
M  V30 5629 H 529.684 -0.293242 -1.40983 0
M  V30 5630 H 531.637 1.63684 -3.88311 0
M  V30 5631 H 530.361 1.88681 -2.66584 0
M  V30 5632 H 529.02 0.00339328 -3.666 0
M  V30 5633 H 528.668 2.35359 -4.44539 0
M  V30 5634 H 528.368 1.18422 -5.75543 0
M  V30 5635 H 529.892 2.11623 -5.72755 0
M  V30 5636 H 531.306 -0.155199 -5.7309 0
M  V30 5637 H 529.703 -0.920947 -5.92991 0
M  V30 5638 H 530.773 -1.46109 -4.62364 0
M  V30 5639 N 532.116 1.54067 -0.331816 0
M  V30 5640 C 533.046 2.27569 0.522932 0
M  V30 5641 C 534.027 1.28679 1.11247 0
M  V30 5642 O 535.212 1.57504 1.13605 0
M  V30 5643 C 532.342 3.0397 1.67987 0
M  V30 5644 C 531.296 4.10267 1.21924 0
M  V30 5645 C 530.622 4.74555 2.46377 0
M  V30 5646 C 531.922 5.21268 0.32815 0
M  V30 5647 H 533.616 2.99264 -0.0901977 0
M  V30 5648 H 531.162 1.4393 -0.044821 0
M  V30 5649 H 533.115 3.54123 2.28418 0
M  V30 5650 H 531.839 2.29906 2.31971 0
M  V30 5651 H 530.498 3.61009 0.637809 0
M  V30 5652 H 530.146 3.97098 3.08743 0
M  V30 5653 H 529.846 5.46363 2.16243 0
M  V30 5654 H 531.37 5.27487 3.07555 0
M  V30 5655 H 532.784 5.67128 0.838978 0
M  V30 5656 H 531.181 5.99982 0.119228 0
M  V30 5657 H 532.251 4.80673 -0.638839 0
M  V30 5658 N 533.594 0.0601682 1.57485 0
M  V30 5659 C 534.504 -0.926121 2.15546 0
M  V30 5660 C 535.52 -1.33532 1.11558 0
M  V30 5661 O 536.696 -1.4104 1.4377 0
M  V30 5662 C 533.761 -2.17952 2.69625 0
M  V30 5663 C 532.822 -1.82783 3.88444 0
M  V30 5664 C 532.055 -3.02148 4.39935 0
M  V30 5665 O 532.278 -4.15803 3.90466 0
M  V30 5666 O 531.212 -2.82639 5.31412 0
M  V30 5667 H 535.038 -0.462289 3.00161 0
M  V30 5668 H 532.623 -0.162246 1.48516 0
M  V30 5669 H 534.505 -2.91474 3.04337 0
M  V30 5670 H 533.18 -2.63456 1.88077 0
M  V30 5671 H 532.087 -1.06549 3.58606 0
M  V30 5672 H 533.42 -1.42072 4.7125 0
M  V30 5673 N 535.072 -1.5615 -0.213296 0
M  V30 5674 C 536.302 -1.83372 -0.951757 0
M  V30 5675 C 536.71 -0.638158 -1.78113 0
M  V30 5676 O 536.053 0.402609 -1.79234 0
M  V30 5677 C 536.115 -3.04444 -1.91192 0
M  V30 5678 C 535.779 -4.39107 -1.26627 0
M  V30 5679 C 536.776 -5.15794 -0.652087 0
M  V30 5680 C 534.461 -4.85834 -1.27556 0
M  V30 5681 C 536.455 -6.37376 -0.055814 0
M  V30 5682 C 534.142 -6.07356 -0.675451 0
M  V30 5683 C 535.14 -6.82967 -0.0666367 0
M  V30 5684 O 534.828 -8.0219 0.524119 0
M  V30 5685 H 534.56 -0.613398 -0.284111 0
M  V30 5686 H 537.114 -2.04096 -0.231112 0
M  V30 5687 H 535.344 -2.79559 -2.67178 0
M  V30 5688 H 537.033 -3.18466 -2.51662 0
M  V30 5689 H 537.799 -4.80796 -0.637172 0
M  V30 5690 H 533.678 -4.26949 -1.73883 0
M  V30 5691 H 537.222 -6.96334 0.420004 0
M  V30 5692 H 533.119 -6.41825 -0.687806 0
M  V30 5693 H 533.887 -8.17426 0.419243 0
M  V30 5694 N 536.55 0.480323 -1.50102 0
M  V30 5695 C 537.799 1.22979 -1.59872 0
M  V30 5696 C 538.112 1.93282 -0.30022 0
M  V30 5697 O 539.318 2.70086 -0.276709 0
M  V30 5698 C 537.774 2.23408 -2.82164 0
M  V30 5699 C 537.382 1.5895 -4.18854 0
M  V30 5700 C 539.126 2.99055 -3.01275 0
M  V30 5701 C 537.033 2.57611 -5.32344 0
M  V30 5702 H 535.963 0.462707 -0.59533 0
M  V30 5703 H 538.614 0.501291 -1.7652 0
M  V30 5704 H 536.996 2.99511 -2.59055 0
M  V30 5705 H 538.17 0.887 -4.52182 0
M  V30 5706 H 536.485 0.956191 -4.05273 0
M  V30 5707 H 539.082 3.72876 -3.83233 0
M  V30 5708 H 539.425 3.57897 -2.12639 0
M  V30 5709 H 539.958 2.30066 -3.24522 0
M  V30 5710 H 536.697 2.03521 -6.23105 0
M  V30 5711 H 536.217 3.26041 -5.03445 0
M  V30 5712 H 537.896 3.19627 -5.62537 0
M  V30 5713 N 538.028 1.39524 0.732853 0
M  V30 5714 C 538.938 1.40695 1.87729 0
M  V30 5715 C 539.954 0.301496 1.71368 0
M  V30 5716 O 541.13 0.543313 1.93933 0
M  V30 5717 C 538.195 1.25098 3.23344 0
M  V30 5718 C 537.256 2.45634 3.52083 0
M  V30 5719 C 536.489 2.30772 4.81228 0
M  V30 5720 O 536.712 1.31233 5.55098 0
M  V30 5721 O 535.646 3.19799 5.09914 0
M  V30 5722 H 539.472 2.37168 1.89697 0
M  V30 5723 H 537.057 1.20663 0.880959 0
M  V30 5724 H 538.939 1.18541 4.04383 0
M  V30 5725 H 537.614 0.317209 3.22142 0
M  V30 5726 H 536.521 2.57767 2.71122 0
M  V30 5727 H 537.854 3.37712 3.58066 0
M  V30 5728 N 539.506 -0.963266 1.24736 0
M  V30 5729 C 540.469 -2.04013 1.04457 0
M  V30 5730 C 541.469 -1.608 0.000335555 0
M  V30 5731 O 542.659 -1.72515 0.241719 0
M  V30 5732 C 539.791 -3.35858 0.584162 0
M  V30 5733 H 540.984 -2.23436 2.00041 0
M  V30 5734 H 538.537 -1.13914 1.07021 0
M  V30 5735 H 539.272 -3.22128 -0.374673 0
M  V30 5736 H 539.057 -3.68568 1.3379 0
M  V30 5737 H 540.547 -4.1502 0.463451 0
M  V30 5738 N 540.985 -1.06182 -1.16461 0
M  V30 5739 C 541.915 -0.692861 -2.22984 0
M  V30 5740 C 542.896 0.314122 -1.67174 0
M  V30 5741 O 544.081 0.189499 -1.93273 0
M  V30 5742 C 541.211 -0.07732 -3.47214 0
M  V30 5743 C 540.165 -1.01015 -4.15909 0
M  V30 5744 C 539.491 -0.257973 -5.34077 0
M  V30 5745 C 540.791 -2.33868 -4.67015 0
M  V30 5746 H 542.485 -1.58343 -2.54102 0
M  V30 5747 H 540.031 -0.76279 -1.22137 0
M  V30 5748 H 541.984 0.19266 -4.20959 0
M  V30 5749 H 540.708 0.848254 -3.15392 0
M  V30 5750 H 539.367 -1.26486 -3.44088 0
M  V30 5751 H 539.015 0.670684 -4.98509 0
M  V30 5752 H 538.715 -0.879638 -5.80979 0
M  V30 5753 H 540.239 0.00448788 -6.106 0
M  V30 5754 H 541.653 -2.1279 -5.32347 0
M  V30 5755 H 540.05 -2.91522 -5.24533 0
M  V30 5756 H 541.12 -2.97019 -3.83286 0
M  V30 5757 N 542.463 1.3308 -0.844243 0
M  V30 5758 C 543.693 2.01515 -0.455541 0
M  V30 5759 C 544.101 1.63655 0.949406 0
M  V30 5760 O 543.444 0.84848 1.62931 0
M  V30 5761 C 543.506 3.55967 -0.502801 0
M  V30 5762 C 543.17 4.17222 -1.86481 0
M  V30 5763 C 544.167 4.36205 -2.8288 0
M  V30 5764 C 541.852 4.53528 -2.15911 0
M  V30 5765 C 543.846 4.90649 -4.06869 0
M  V30 5766 C 541.533 5.07679 -3.40155 0
M  V30 5767 C 542.531 5.26186 -4.35451 0
M  V30 5768 O 542.219 5.79183 -5.57496 0
M  V30 5769 H 541.951 0.65199 -0.178565 0
M  V30 5770 H 544.505 1.70867 -1.1399 0
M  V30 5771 H 542.735 3.85965 0.23836 0
M  V30 5772 H 544.424 4.05688 -0.131169 0
M  V30 5773 H 545.19 4.085 -2.61444 0
M  V30 5774 H 541.069 4.38414 -1.42528 0
M  V30 5775 H 544.613 5.0501 -4.81259 0
M  V30 5776 H 540.51 5.34815 -3.61446 0
M  V30 5777 H 541.278 5.97591 -5.5931 0
M  V30 5778 N 543.941 0.601185 1.45683 0
M  V30 5779 C 545.352 0.179659 1.85834 0
M  V30 5780 C 545.703 -1.26189 1.50236 0
M  V30 5781 O 544.828 -1.95587 0.925987 0
M  V30 5782 C 545.423 0.319277 3.37292 0
M  V30 5783 C 543.982 -0.0475092 3.7637 0
M  V30 5784 C 543.129 0.646692 2.69654 0
M  V30 5785 H 546.08 0.808268 1.36575 0
M  V30 5786 H 546.101 -0.4503 3.77826 0
M  V30 5787 H 545.613 1.36855 3.6317 0
M  V30 5788 H 543.714 -1.0962 3.5611 0
M  V30 5789 H 543.827 0.34168 4.7788 0
M  V30 5790 H 542.191 0.0849971 2.54558 0
M  V30 5791 H 542.974 1.69797 2.98369 0
M  V30 5792 N 545.419 -1.53889 0.339982 0
M  V30 5793 C 546.644 -2.05741 -0.261798 0
M  V30 5794 C 547.069 -1.21354 -1.43718 0
M  V30 5795 O 546.427 -0.22645 -1.7988 0
M  V30 5796 C 546.475 -3.54542 -0.658228 0
M  V30 5797 O 545.579 -3.7302 -1.75869 0
M  V30 5798 H 544.92 -0.662529 -0.0441672 0
M  V30 5799 H 547.45 -1.98568 0.493161 0
M  V30 5800 H 547.46 -3.9711 -0.936368 0
M  V30 5801 H 546.135 -4.15412 0.201358 0
M  V30 5802 H 544.712 -3.42355 -1.47809 0
M  V30 5803 N 546.897 -0.0685191 -1.57451 0
M  V30 5804 C 547.827 0.89747 -2.15564 0
M  V30 5805 C 548.808 1.31266 -1.08181 0
M  V30 5806 O 549.993 1.38429 -1.36202 0
M  V30 5807 C 547.123 2.16623 -2.71463 0
M  V30 5808 C 546.077 1.89054 -3.83982 0
M  V30 5809 C 545.403 3.22532 -4.26471 0
M  V30 5810 C 546.703 1.1984 -5.08366 0
M  V30 5811 H 548.397 0.413373 -2.96533 0
M  V30 5812 H 545.943 0.197391 -1.42641 0
M  V30 5813 H 547.896 2.84614 -3.10761 0
M  V30 5814 H 546.62 2.67269 -1.8771 0
M  V30 5815 H 545.279 1.23469 -3.45183 0
M  V30 5816 H 544.927 3.71013 -3.39644 0
M  V30 5817 H 544.627 3.04879 -5.02317 0
M  V30 5818 H 546.151 3.91727 -4.68383 0
M  V30 5819 H 547.565 1.77896 -5.45001 0
M  V30 5820 H 545.962 1.12456 -5.89469 0
M  V30 5821 H 547.032 0.176996 -4.84577 0
M  V30 5822 N 548.375 1.56261 0.205012 0
M  V30 5823 C 549.307 1.90266 1.27795 0
M  V30 5824 C 550.32 0.792397 1.42214 0
M  V30 5825 O 551.509 1.07077 1.42817 0
M  V30 5826 C 548.609 2.11074 2.65143 0
M  V30 5827 C 547.782 3.42176 2.7246 0
M  V30 5828 C 546.841 3.52216 3.90936 0
M  V30 5829 O 545.867 4.25119 3.78501 0
M  V30 5830 N 547.069 2.84573 5.05963 0
M  V30 5831 H 549.834 2.82896 0.989434 0
M  V30 5832 H 547.395 1.57008 0.394981 0
M  V30 5833 H 549.387 2.15089 3.4281 0
M  V30 5834 H 547.957 1.2499 2.86524 0
M  V30 5835 H 547.177 3.50116 1.81142 0
M  V30 5836 H 548.465 4.28509 2.74331 0
M  V30 5837 H 547.863 2.25152 5.18963 0
M  V30 5838 H 546.42 2.94228 5.81613 0
M  V30 5839 N 549.853 -0.472356 1.50355 0
M  V30 5840 C 550.816 -1.5529 1.68576 0
M  V30 5841 C 551.816 -1.50863 0.556511 0
M  V30 5842 O 553.006 -1.53505 0.823516 0
M  V30 5843 C 550.138 -2.94921 1.70981 0
M  V30 5844 H 551.331 -1.40451 2.64978 0
M  V30 5845 H 548.884 -0.698645 1.39816 0
M  V30 5846 H 549.619 -3.15204 0.762675 0
M  V30 5847 H 549.404 -2.99541 2.53017 0
M  V30 5848 H 550.894 -3.73372 1.87037 0
M  V30 5849 N 551.331 -1.39911 -0.725443 0
M  V30 5850 C 552.261 -1.42138 -1.85254 0
M  V30 5851 C 553.242 -0.283513 -1.67721 0
M  V30 5852 O 554.427 -0.490717 -1.87898 0
M  V30 5853 C 551.557 -1.27354 -3.23107 0
M  V30 5854 C 550.511 -2.3864 -3.55296 0
M  V30 5855 C 549.837 -2.08939 -4.92188 0
M  V30 5856 C 551.137 -3.8097 -3.57295 0
M  V30 5857 H 552.831 -2.36461 -1.83648 0
M  V30 5858 H 550.377 -1.13817 -0.882138 0
M  V30 5859 H 552.33 -1.2753 -4.01639 0
M  V30 5860 H 551.054 -0.295025 -3.25265 0
M  V30 5861 H 549.713 -2.37696 -2.79099 0
M  V30 5862 H 549.361 -1.09502 -4.90936 0
M  V30 5863 H 549.061 -2.83491 -5.14691 0
M  V30 5864 H 550.585 -2.10781 -5.73065 0
M  V30 5865 H 551.999 -3.8379 -4.25885 0
M  V30 5866 H 550.396 -4.5496 -3.9132 0
M  V30 5867 H 551.466 -4.11261 -2.5689 0
M  V30 5868 N 552.809 0.956637 -1.25245 0
M  V30 5869 C 553.741 2.05628 -1.01242 0
M  V30 5870 C 554.754 1.62785 0.0219579 0
M  V30 5871 O 555.943 1.77184 -0.216365 0
M  V30 5872 C 553.043 3.35069 -0.508161 0
M  V30 5873 C 552.216 4.06761 -1.60823 0
M  V30 5874 C 551.275 5.14473 -1.1047 0
M  V30 5875 O 550.301 5.40033 -1.79868 0
M  V30 5876 N 551.503 5.80474 0.0550773 0
M  V30 5877 H 554.268 2.2679 -1.95925 0
M  V30 5878 H 551.829 1.12505 -1.16423 0
M  V30 5879 H 553.821 4.044 -0.155819 0
M  V30 5880 H 552.391 3.10694 0.344683 0
M  V30 5881 H 551.611 3.31555 -2.13224 0
M  V30 5882 H 552.899 4.51418 -2.34733 0
M  V30 5883 H 552.297 5.62125 0.635004 0
M  V30 5884 H 550.854 6.50868 0.348469 0
M  V30 5885 N 554.287 1.06798 1.15896 0
M  V30 5886 C 555.234 0.683314 2.20453 0
M  V30 5887 C 556.204 -0.32255 1.62938 0
M  V30 5888 O 557.389 -0.210276 1.89638 0
M  V30 5889 C 554.529 0.0813266 3.45004 0
M  V30 5890 C 553.642 1.13799 4.16742 0
M  V30 5891 C 552.777 0.501598 5.28826 0
M  V30 5892 C 551.816 1.54144 5.92373 0
M  V30 5893 N 550.953 0.928038 6.9594 0
M  V30 5894 H 555.793 1.57932 2.52708 0
M  V30 5895 H 553.33 0.789544 1.24115 0
M  V30 5896 H 555.288 -0.285274 4.16224 0
M  V30 5897 H 553.918 -0.77806 3.13283 0
M  V30 5898 H 552.97 1.62223 3.44075 0
M  V30 5899 H 554.282 1.92664 4.60089 0
M  V30 5900 H 553.436 0.0823162 6.06644 0
M  V30 5901 H 552.175 -0.318883 4.86656 0
M  V30 5902 H 551.18 1.97056 5.13273 0
M  V30 5903 H 552.405 2.3641 6.36621 0
M  V30 5904 H 550.351 0.12836 6.55874 0
M  V30 5905 H 550.268 1.65401 7.37685 0
M  V30 5906 H 551.536 0.534071 7.77668 0
M  V30 5907 N 555.766 -1.3263 0.851289 0
M  V30 5908 C 557.043 -1.91982 0.374448 0
M  V30 5909 C 557.423 -1.77568 -1.14161 0
M  V30 5910 O 556.771 -1.1717 -1.96172 0
M  V30 5911 C 556.981 -3.38862 0.835088 0
M  V30 5912 C 558.329 -4.15999 0.850309 0
M  V30 5913 O 559.353 -3.47566 0.779505 0
M  V30 5914 O 558.212 -5.38189 0.949481 0
M  V30 5915 H 555.306 -0.819846 0.10854 0
M  V30 5916 H 557.852 -1.41422 0.937966 0
M  V30 5917 H 556.624 -3.43281 1.87814 0
M  V30 5918 H 556.247 -3.96821 0.248833 0
M  V30 5919 N 557.244 -0.608902 -1.45362 0
M  V30 5920 C 558.474 -0.110852 -2.06302 0
M  V30 5921 C 558.882 1.21062 -1.45398 0
M  V30 5922 O 558.225 1.74861 -0.562976 0
M  V30 5923 C 558.287 0.101793 -3.59356 0
M  V30 5924 C 557.951 -1.13808 -4.42602 0
M  V30 5925 C 558.948 -2.05653 -4.77496 0
M  V30 5926 C 556.633 -1.36727 -4.83333 0
M  V30 5927 C 558.627 -3.18745 -5.51978 0
M  V30 5928 C 556.314 -2.5012 -5.57569 0
M  V30 5929 C 557.312 -3.40957 -5.91809 0
M  V30 5930 O 557 -4.52376 -6.64538 0
M  V30 5931 H 556.732 -0.0666001 -0.672711 0
M  V30 5932 H 559.286 -0.836942 -1.87575 0
M  V30 5933 H 557.516 0.88279 -3.76489 0
M  V30 5934 H 559.205 0.551607 -4.02134 0
M  V30 5935 H 559.971 -1.89172 -4.46586 0
M  V30 5936 H 555.85 -0.669216 -4.56117 0
M  V30 5937 H 559.394 -3.8967 -5.78622 0
M  V30 5938 H 555.291 -2.66553 -5.87894 0
M  V30 5939 H 556.059 -4.51075 -6.82989 0
M  V30 5940 N 558.722 1.53707 -0.348139 0
M  V30 5941 C 559.632 2.28881 0.514857 0
M  V30 5942 C 560.648 1.34168 1.10793 0
M  V30 5943 O 561.824 1.6721 1.12262 0
M  V30 5944 C 558.889 3.05042 1.64774 0
M  V30 5945 C 557.95 4.15389 1.08398 0
M  V30 5946 C 557.183 4.87909 2.16287 0
M  V30 5947 O 557.406 4.60137 3.3709 0
M  V30 5948 O 556.34 5.74254 1.80323 0
M  V30 5949 H 560.166 3.03547 -0.0963699 0
M  V30 5950 H 557.751 1.48972 -0.113043 0
M  V30 5951 H 559.633 3.52656 2.30677 0
M  V30 5952 H 558.308 2.33228 2.24469 0
M  V30 5953 H 557.215 3.72068 0.389341 0
M  V30 5954 H 558.548 4.89318 0.531829 0
M  V30 5955 N 560.2 0.0768682 1.57412 0
M  V30 5956 C 561.147 -0.888577 2.13009 0
M  V30 5957 C 562.117 -1.29198 1.0439 0
M  V30 5958 O 563.302 -1.37694 1.3208 0
M  V30 5959 C 560.442 -2.14899 2.70023 0
M  V30 5960 C 559.555 -1.79777 3.92816 0
M  V30 5961 C 558.69 -3.00467 4.38056 0
M  V30 5962 C 557.729 -2.61385 5.53484 0
M  V30 5963 N 556.866 -3.74851 5.93659 0
M  V30 5964 H 561.706 -0.407593 2.95199 0
M  V30 5965 H 559.243 -0.189534 1.45874 0
M  V30 5966 H 561.201 -2.88688 3.0119 0
M  V30 5967 H 559.831 -2.60529 1.9059 0
M  V30 5968 H 558.883 -0.960301 3.68079 0
M  V30 5969 H 560.195 -1.47027 4.76639 0
M  V30 5970 H 559.349 -3.82529 4.7091 0
M  V30 5971 H 558.088 -3.36413 3.53097 0
M  V30 5972 H 557.093 -1.77746 5.20275 0
M  V30 5973 H 558.318 -2.26603 6.40178 0
M  V30 5974 H 556.264 -4.1055 5.11649 0
M  V30 5975 H 556.181 -3.45887 6.72234 0
M  V30 5976 H 557.449 -4.57477 6.31138 0
M  V30 5977 N 561.678 -1.56367 -0.196722 0
M  V30 5978 C 562.908 -1.84371 -0.932254 0
M  V30 5979 C 563.316 -0.657013 -1.77426 0
M  V30 5980 O 562.659 0.383576 -1.79651 0
M  V30 5981 C 562.721 -3.06454 -1.87952 0
M  V30 5982 C 562.385 -4.40425 -1.21962 0
M  V30 5983 C 563.382 -5.16457 -0.597343 0
M  V30 5984 C 561.067 -4.8716 -1.22396 0
M  V30 5985 C 563.061 -6.37399 0.0117913 0
M  V30 5986 C 560.748 -6.08038 -0.610995 0
M  V30 5987 C 561.746 -6.83 0.00580487 0
M  V30 5988 O 561.434 -8.01589 0.609173 0
M  V30 5989 H 561.166 -0.616377 -0.277589 0
M  V30 5990 H 563.72 -2.04329 -0.209452 0
M  V30 5991 H 561.95 -2.82377 -2.64197 0
M  V30 5992 H 563.639 -3.21118 -2.48271 0
M  V30 5993 H 564.405 -4.81445 -0.586142 0
M  V30 5994 H 560.284 -4.2877 -1.69345 0
M  V30 5995 H 563.828 -6.9585 0.493836 0
M  V30 5996 H 559.725 -6.42519 -0.619693 0
M  V30 5997 H 560.493 -8.16935 0.505919 0
M  V30 5998 N 563.156 0.464375 -1.50603 0
M  V30 5999 C 564.119 1.54393 -1.69397 0
M  V30 6000 C 565.119 1.50566 -0.564504 0
M  V30 6001 O 566.309 1.53066 -0.831645 0
M  V30 6002 C 563.441 2.9401 -1.72543 0
M  V30 6003 H 564.634 1.39044 -2.65719 0
M  V30 6004 H 562.187 0.69122 -1.40185 0
M  V30 6005 H 562.922 3.14795 -0.77938 0
M  V30 6006 H 562.707 2.98195 -2.54602 0
M  V30 6007 H 564.197 3.72375 -1.89015 0
M  V30 6008 N 564.634 1.40294 0.718013 0
M  V30 6009 C 565.597 1.4012 1.81381 0
M  V30 6010 C 566.597 0.295405 1.58063 0
M  V30 6011 O 567.787 0.554187 1.6515 0
M  V30 6012 C 564.919 1.19056 3.19435 0
M  V30 6013 H 566.112 2.37645 1.82933 0
M  V30 6014 H 563.665 1.26107 0.923405 0
M  V30 6015 H 564.4 0.222809 3.23534 0
M  V30 6016 H 564.185 1.99152 3.37758 0
M  V30 6017 H 565.675 1.21716 3.99468 0
M  V30 6018 N 566.112 -0.949982 1.2575 0
M  V30 6019 C 567.059 -2.04738 1.06541 0
M  V30 6020 C 568.029 -1.66078 -0.0268818 0
M  V30 6021 O 569.214 -1.90348 0.131196 0
M  V30 6022 C 566.354 -3.38027 0.695127 0
M  V30 6023 C 565.467 -3.89776 1.86276 0
M  V30 6024 C 564.602 -5.11411 1.4364 0
M  V30 6025 C 563.641 -5.554 2.57287 0
M  V30 6026 N 562.778 -6.68244 2.15395 0
M  V30 6027 H 567.618 -2.20502 2.00457 0
M  V30 6028 H 565.155 -1.0805 0.998178 0
M  V30 6029 H 567.113 -4.14641 0.461375 0
M  V30 6030 H 565.743 -3.22135 -0.207046 0
M  V30 6031 H 564.795 -3.0964 2.20969 0
M  V30 6032 H 566.107 -4.18368 2.71606 0
M  V30 6033 H 565.261 -5.95457 1.16257 0
M  V30 6034 H 564 -4.84545 0.553879 0
M  V30 6035 H 563.005 -4.69916 2.85409 0
M  V30 6036 H 564.23 -5.84272 3.46125 0
M  V30 6037 H 562.176 -6.43078 1.29565 0
M  V30 6038 H 562.093 -6.96377 2.94272 0
M  V30 6039 H 563.361 -7.55687 1.91201 0
M  V30 6040 N 567.59 -1.07411 -1.15328 0
M  V30 6041 C 568.867 -0.710732 -1.82231 0
M  V30 6042 C 569.247 0.806732 -1.95077 0
M  V30 6043 O 568.595 1.72139 -1.50268 0
M  V30 6044 C 568.805 -1.42586 -3.18544 0
M  V30 6045 C 570.153 -1.57836 -3.94174 0
M  V30 6046 O 571.177 -1.38669 -3.281 0
M  V30 6047 O 570.036 -1.8938 -5.12638 0
M  V30 6048 H 567.13 -0.25297 -0.78736 0
M  V30 6049 H 569.676 -1.17508 -1.22434 0
M  V30 6050 H 568.448 -2.46008 -3.04296 0
M  V30 6051 H 568.071 -0.952332 -3.86026 0
M  V30 6052 N 569.068 1.32177 -0.85831 0
M  V30 6053 C 570.315 1.97125 -0.463484 0
M  V30 6054 C 570.643 1.67907 0.981705 0
M  V30 6055 O 569.898 0.961717 1.70439 0
M  V30 6056 C 570.197 3.51372 -0.653658 0
M  V30 6057 C 569.863 4.00584 -2.06987 0
M  V30 6058 C 568.525 4.13733 -2.4572 0
M  V30 6059 C 570.877 4.26624 -2.99402 0
M  V30 6060 C 568.205 4.50268 -3.76132 0
M  V30 6061 C 570.557 4.64618 -4.29316 0
M  V30 6062 C 569.221 4.75975 -4.67979 0
M  V30 6063 H 568.491 0.72133 -0.169601 0
M  V30 6064 H 571.138 1.57517 -1.08907 0
M  V30 6065 H 569.443 3.91761 0.0551328 0
M  V30 6066 H 571.14 3.99655 -0.328163 0
M  V30 6067 H 567.73 3.90837 -1.75911 0
M  V30 6068 H 571.914 4.1597 -2.70708 0
M  V30 6069 H 567.17 4.57256 -4.05865 0
M  V30 6070 H 571.344 4.83722 -5.00985 0
M  V30 6071 H 568.971 5.04041 -5.69076 0
M  V30 6072 N 570.547 0.616602 1.45037 0
M  V30 6073 C 571.479 -0.135186 2.28801 0
M  V30 6074 C 572.492 -0.82303 1.40464 0
M  V30 6075 O 573.681 -0.686909 1.64754 0
M  V30 6076 C 570.781 -1.21292 3.16451 0
M  V30 6077 C 569.954 -0.61043 4.3312 0
M  V30 6078 C 569.013 -1.58022 5.01912 0
M  V30 6079 O 568.039 -1.10301 5.58411 0
M  V30 6080 N 569.241 -2.91464 5.02025 0
M  V30 6081 H 572.006 0.583612 2.93963 0
M  V30 6082 H 569.567 0.456723 1.55324 0
M  V30 6083 H 571.559 -1.86169 3.59337 0
M  V30 6084 H 570.129 -1.83412 2.53138 0
M  V30 6085 H 569.349 0.216638 3.93604 0
M  V30 6086 H 570.637 -0.188293 5.08451 0
M  V30 6087 H 570.035 -3.32829 4.57429 0
M  V30 6088 H 568.592 -3.51741 5.48745 0
M  V30 6089 N 572.025 -1.5352 0.356285 0
M  V30 6090 C 573.302 -1.93405 -0.292223 0
M  V30 6091 C 573.682 -1.28901 -1.67176 0
M  V30 6092 O 573.03 -0.444632 -2.24132 0
M  V30 6093 C 573.24 -3.47223 -0.35175 0
M  V30 6094 C 574.588 -4.20389 -0.596534 0
M  V30 6095 O 575.612 -3.53554 -0.433344 0
M  V30 6096 O 574.471 -5.3881 -0.913589 0
M  V30 6097 H 571.565 -0.808666 -0.173172 0
M  V30 6098 H 574.111 -1.64713 0.408391 0
M  V30 6099 H 572.883 -3.86423 0.615841 0
M  V30 6100 H 572.506 -3.8212 -1.09864 0
M  V30 6101 N 573.503 -0.0852151 -1.57369 0
M  V30 6102 C 574.919 0.271436 -1.57275 0
M  V30 6103 C 575.119 1.69109 -1.09565 0
M  V30 6104 O 574.175 2.40549 -0.767611 0
M  V30 6105 C 575.488 0.0688638 -3.00621 0
M  V30 6106 C 577.036 0.137373 -3.12698 0
M  V30 6107 C 577.511 -0.0370832 -4.57985 0
M  V30 6108 N 579.002 0.0180794 -4.63196 0
M  V30 6109 C 579.737 -0.0922953 -5.73326 0
M  V30 6110 N 579.233 -0.256948 -6.92323 0
M  V30 6111 N 581.026 -0.0342702 -5.6209 0
M  V30 6112 H 573.177 -1.01288 -1.86693 0
M  V30 6113 H 575.44 -0.396138 -0.861266 0
M  V30 6114 H 575.146 -0.911277 -3.39689 0
M  V30 6115 H 575.02 0.815442 -3.6828 0
M  V30 6116 H 577.407 1.10801 -2.73509 0
M  V30 6117 H 577.488 -0.640532 -2.47651 0
M  V30 6118 H 577.132 -1.00455 -4.97867 0
M  V30 6119 H 577.062 0.760392 -5.21081 0
M  V30 6120 H 579.553 0.143202 -3.77629 0
M  V30 6121 H 579.866 -0.332949 -7.72082 0
M  V30 6122 H 578.211 -0.292487 -6.94384 0
M  V30 6123 H 581.402 0.0931605 -4.68007 0
M  V30 6124 H 581.575 -0.12374 -6.47882 0
M  V30 6125 N 574.981 1.5647 0.188427 0
M  V30 6126 C 576.227 1.81281 0.909124 0
M  V30 6127 C 576.56 0.66034 1.82628 0
M  V30 6128 O 575.835 -0.338737 1.91528 0
M  V30 6129 C 576.118 3.16388 1.7196 0
M  V30 6130 C 575.971 4.42137 0.826714 0
M  V30 6131 C 577.29 3.48256 2.69083 0
M  V30 6132 H 574.409 0.659457 0.329068 0
M  V30 6133 H 577.051 1.89182 0.176156 0
M  V30 6134 H 575.201 3.09784 2.34448 0
M  V30 6135 H 576.873 4.60794 0.216025 0
M  V30 6136 H 575.116 4.33594 0.133792 0
M  V30 6137 H 575.787 5.33184 1.42893 0
M  V30 6138 H 578.263 3.55203 2.16726 0
M  V30 6139 H 577.139 4.43899 3.2287 0
M  V30 6140 H 577.4 2.72088 3.48455 0
M  V30 6141 N 576.459 -0.456382 1.50847 0
M  V30 6142 C 577.391 -1.57033 1.66953 0
M  V30 6143 C 578.404 -1.53207 0.550593 0
M  V30 6144 O 579.593 -1.58328 0.824285 0
M  V30 6145 C 576.693 -2.95937 1.65149 0
M  V30 6146 C 575.866 -3.24475 2.93317 0
M  V30 6147 C 574.925 -4.43007 2.83957 0
M  V30 6148 O 573.951 -4.42592 3.57912 0
M  V30 6149 N 575.153 -5.45503 1.9851 0
M  V30 6150 H 577.918 -1.43629 2.63042 0
M  V30 6151 H 575.479 -0.645037 1.48495 0
M  V30 6152 H 577.471 -3.73224 1.56481 0
M  V30 6153 H 576.041 -3.03036 0.767343 0
M  V30 6154 H 575.261 -2.35664 3.16 0
M  V30 6155 H 576.549 -3.4036 3.78196 0
M  V30 6156 H 575.947 -5.48668 1.37766 0
M  V30 6157 H 574.504 -6.21716 1.95735 0
M  V30 6158 N 577.937 -1.40673 -0.710563 0
M  V30 6159 C 578.9 -1.4108 -1.80635 0
M  V30 6160 C 579.9 -0.303783 -1.57904 0
M  V30 6161 O 581.09 -0.562937 -1.64853 0
M  V30 6162 C 578.222 -1.20748 -3.18799 0
M  V30 6163 H 579.415 -2.38612 -1.81671 0
M  V30 6164 H 576.968 -1.26595 -0.916704 0
M  V30 6165 H 577.703 -0.239964 -3.23411 0
M  V30 6166 H 577.488 -2.00941 -3.36698 0
M  V30 6167 H 578.978 -1.23833 -3.98817 0
M  V30 6168 N 579.415 0.9433 -1.26252 0
M  V30 6169 C 580.345 2.05902 -1.10122 0
M  V30 6170 C 581.326 1.70099 -0.00700552 0
M  V30 6171 O 582.511 1.93377 -0.178641 0
M  V30 6172 C 579.641 3.39516 -0.731175 0
M  V30 6173 C 578.595 3.89372 -1.77688 0
M  V30 6174 C 577.921 5.19613 -1.26122 0
M  V30 6175 C 579.221 4.14489 -3.17799 0
M  V30 6176 H 580.915 2.19655 -2.03451 0
M  V30 6177 H 578.461 1.05548 -0.979576 0
M  V30 6178 H 580.414 4.17031 -0.605215 0
M  V30 6179 H 579.138 3.25733 0.23782 0
M  V30 6180 H 577.797 3.14036 -1.89148 0
M  V30 6181 H 577.445 5.02208 -0.282128 0
M  V30 6182 H 577.145 5.53939 -1.96023 0
M  V30 6183 H 578.669 5.99713 -1.14789 0
M  V30 6184 H 580.083 4.82625 -3.09428 0
M  V30 6185 H 578.48 4.60094 -3.85271 0
M  V30 6186 H 579.55 3.20347 -3.64014 0
M  V30 6187 N 580.893 1.08022 1.14757 0
M  V30 6188 C 582.133 0.816959 1.87364 0
M  V30 6189 C 582.497 -0.645407 1.80827 0
M  V30 6190 O 583.698 -1.024 2.48531 0
M  V30 6191 C 581.969 1.31961 3.32146 0
M  V30 6192 S 583.528 1.18806 4.2241 0
M  V30 6193 H 580.346 0.295862 0.646519 0
M  V30 6194 H 582.948 1.3807 1.38408 0
M  V30 6195 H 581.652 2.37847 3.3445 0
M  V30 6196 H 581.183 0.751371 3.86158 0
M  V30 6197 H 583.198 0.129865 4.9603 0
M  V30 6198 N 582.371 -1.3172 0.865308 0
M  V30 6199 C 583.301 -2.31109 0.333302 0
M  V30 6200 C 584.282 -1.60148 -0.573301 0
M  V30 6201 O 585.467 -1.87882 -0.491305 0
M  V30 6202 C 582.597 -3.44104 -0.470078 0
M  V30 6203 C 581.551 -4.26623 0.343021 0
M  V30 6204 C 580.877 -5.31482 -0.585756 0
M  V30 6205 C 582.177 -4.98001 1.57456 0
M  V30 6206 H 583.871 -2.75855 1.1638 0
M  V30 6207 H 581.417 -1.3262 0.561069 0
M  V30 6208 H 583.37 -4.12682 -0.852752 0
M  V30 6209 H 582.094 -2.98112 -1.33404 0
M  V30 6210 H 580.753 -3.59707 0.707583 0
M  V30 6211 H 580.401 -4.81741 -1.44686 0
M  V30 6212 H 580.101 -5.87582 -0.0456494 0
M  V30 6213 H 581.625 -6.0292 -0.965375 0
M  V30 6214 H 583.039 -5.59201 1.26359 0
M  V30 6215 H 581.436 -5.63876 2.05339 0
M  V30 6216 H 582.506 -4.25253 2.32997 0
M  V30 6217 N 583.85 -0.624285 -1.44708 0
M  V30 6218 C 585.096 -0.13473 -2.02953 0
M  V30 6219 C 585.451 1.22724 -1.48178 0
M  V30 6220 O 584.744 1.80109 -0.653542 0
M  V30 6221 C 584.938 -0.0546353 -3.57358 0
M  V30 6222 C 584.767 -1.40729 -4.27113 0
M  V30 6223 C 583.537 -1.99231 -4.64365 0
M  V30 6224 C 585.735 -2.33968 -4.58 0
M  V30 6225 N 583.716 -3.27803 -5.19055 0
M  V30 6226 C 585.088 -3.47149 -5.137 0
M  V30 6227 C 587.143 -2.33132 -4.39948 0
M  V30 6228 C 585.846 -4.59682 -5.53249 0
M  V30 6229 C 587.872 -3.44724 -4.8054 0
M  V30 6230 C 587.234 -4.56629 -5.36348 0
M  V30 6231 H 583.332 -0.0930617 -0.776443 0
M  V30 6232 H 585.917 -0.826286 -1.76297 0
M  V30 6233 H 584.088 0.606183 -3.8364 0
M  V30 6234 H 585.82 0.443116 -4.02267 0
M  V30 6235 H 582.575 -1.52251 -4.4846 0
M  V30 6236 H 582.999 -3.93519 -5.50883 0
M  V30 6237 H 587.641 -1.47868 -3.961 0
M  V30 6238 H 585.359 -5.4566 -5.96054 0
M  V30 6239 H 588.945 -3.45245 -4.68291 0
M  V30 6240 H 587.825 -5.41551 -5.67179 0
M  V30 6241 N 585.328 1.53329 -0.364422 0
M  V30 6242 C 586.258 2.28627 0.474543 0
M  V30 6243 C 587.239 1.31009 1.08492 0
M  V30 6244 O 588.424 1.59878 1.10239 0
M  V30 6245 C 585.554 3.07465 1.61501 0
M  V30 6246 C 584.508 4.1276 1.13194 0
M  V30 6247 C 583.834 4.79674 2.36255 0
M  V30 6248 C 585.134 5.21847 0.217507 0
M  V30 6249 H 586.828 2.99005 -0.153656 0
M  V30 6250 H 584.374 1.43803 -0.0753406 0
M  V30 6251 H 586.327 3.58889 2.20855 0
M  V30 6252 H 585.051 2.34775 2.27042 0
M  V30 6253 H 583.71 3.62281 0.56109 0
M  V30 6254 H 583.358 4.03557 3.00251 0
M  V30 6255 H 583.058 5.50827 2.04606 0
M  V30 6256 H 584.582 5.33892 2.96297 0
M  V30 6257 H 585.996 5.6878 0.718493 0
M  V30 6258 H 584.393 6.00099 -0.00806408 0
M  V30 6259 H 585.463 4.7921 -0.740653 0
M  V30 6260 N 586.806 0.0935595 1.57322 0
M  V30 6261 C 587.754 -0.883457 2.15169 0
M  V30 6262 C 588.748 -1.29324 1.09415 0
M  V30 6263 O 589.954 -1.26795 1.27762 0
M  V30 6264 H 586.329 -0.302923 0.688289 0
M  V30 6265 H 588.3 -0.370845 2.96087 0
M  V30 6266 C 587.049 -2.13345 2.74552 0
M  V30 6267 H 586.372 -1.82702 3.55612 0
M  V30 6268 H 587.812 -2.7977 3.18598 0
M  V30 6269 C 586.271 -2.90646 1.70371 0
M  V30 6270 O 586.801 -3.85133 1.14173 0
M  V30 6271 N 585.007 -2.54157 1.40899 0
M  V30 6272 H 584.554 -1.77391 1.86789 0
M  V30 6273 H 584.512 -3.06178 0.714301 0
M  V30 6274 N 588.284 -1.56567 -0.180126 0
M  V30 6275 C 589.533 -1.80685 -0.896426 0
M  V30 6276 C 589.846 -0.669335 -1.83791 0
M  V30 6277 O 591.052 -0.795209 -2.59593 0
M  V30 6278 C 589.508 -3.20132 -1.6445 0
M  V30 6279 C 589.116 -4.41727 -0.747088 0
M  V30 6280 C 590.86 -3.53549 -2.34955 0
M  V30 6281 C 588.767 -5.72195 -1.49489 0
M  V30 6282 H 587.697 -0.673758 -0.338477 0
M  V30 6283 H 590.348 -1.8289 -0.149467 0
M  V30 6284 H 588.73 -3.12218 -2.43589 0
M  V30 6285 H 589.904 -4.608 0.00671129 0
M  V30 6286 H 588.219 -4.16122 -0.152134 0
M  V30 6287 H 590.816 -4.48267 -2.91481 0
M  V30 6288 H 591.159 -2.78006 -3.09868 0
M  V30 6289 H 591.692 -3.62976 -1.62768 0
M  V30 6290 H 588.431 -6.50743 -0.788251 0
M  V30 6291 H 587.951 -5.57115 -2.22224 0
M  V30 6292 H 589.63 -6.1384 -2.04472 0
M  V30 6293 N 589.762 0.448376 -1.51087 0
M  V30 6294 C 590.99 1.22143 -1.66999 0
M  V30 6295 C 591.405 1.85283 -0.362699 0
M  V30 6296 O 590.762 1.70236 0.65772 0
M  V30 6297 C 590.813 2.31357 -2.7777 0
M  V30 6298 O 590.534 1.70801 -4.03434 0
M  V30 6299 C 592.035 3.21836 -3.04855 0
M  V30 6300 H 589.255 0.368558 -0.560719 0
M  V30 6301 H 591.799 0.532618 -1.97442 0
M  V30 6302 H 589.954 2.95973 -2.49958 0
M  V30 6303 H 590.368 2.42895 -4.64868 0
M  V30 6304 H 591.842 3.94627 -3.85971 0
M  V30 6305 H 592.319 3.81949 -2.16821 0
M  V30 6306 H 592.925 2.62933 -3.34285 0
M  V30 6307 N 591.24 1.41047 0.703093 0
M  V30 6308 C 592.187 1.42302 1.81711 0
M  V30 6309 C 593.157 0.278336 1.63751 0
M  V30 6310 O 594.342 0.478266 1.84709 0
M  V30 6311 C 591.482 1.30362 3.19531 0
M  V30 6312 C 590.595 2.54638 3.48975 0
M  V30 6313 C 589.73 2.35047 4.76368 0
M  V30 6314 C 588.769 3.54837 4.98756 0
M  V30 6315 N 587.906 3.34363 6.1737 0
M  V30 6316 H 592.746 2.37516 1.79973 0
M  V30 6317 H 590.283 1.1795 0.878983 0
M  V30 6318 H 592.241 1.21443 3.99134 0
M  V30 6319 H 590.871 0.387602 3.20464 0
M  V30 6320 H 589.923 2.74037 2.63833 0
M  V30 6321 H 591.235 3.43766 3.61423 0
M  V30 6322 H 590.389 2.23552 5.64012 0
M  V30 6323 H 589.128 1.43363 4.66153 0
M  V30 6324 H 588.133 3.66795 4.09563 0
M  V30 6325 H 589.358 4.47464 5.10835 0
M  V30 6326 H 587.304 2.45373 6.08382 0
M  V30 6327 H 587.221 4.17063 6.30551 0
M  V30 6328 H 588.489 3.26626 7.07768 0
M  V30 6329 N 592.718 -0.936591 1.26751 0
M  V30 6330 C 593.995 -1.66094 1.03306 0
M  V30 6331 C 594.375 -2.06568 -0.435058 0
M  V30 6332 O 593.723 -1.79305 -1.41641 0
M  V30 6333 C 593.933 -2.86969 1.98619 0
M  V30 6334 C 595.281 -3.58516 2.27489 0
M  V30 6335 O 596.305 -2.97082 1.96522 0
M  V30 6336 O 595.164 -4.69181 2.80235 0
M  V30 6337 H 592.258 -0.727568 0.393158 0
M  V30 6338 H 594.804 -0.987914 1.3798 0
M  V30 6339 H 593.576 -2.53985 2.9767 0
M  V30 6340 H 593.199 -3.61996 1.64454 0
M  V30 6341 N 594.196 -1.08629 -1.14182 0
M  V30 6342 C 595.126 -0.740003 -2.21464 0
M  V30 6343 C 596.107 0.278591 -1.67803 0
M  V30 6344 O 597.292 0.148461 -1.93632 0
M  V30 6345 C 594.422 -0.150952 -3.46972 0
M  V30 6346 C 593.376 -1.09815 -4.13672 0
M  V30 6347 C 592.702 -0.3712 -5.3341 0
M  V30 6348 C 594.002 -2.43722 -4.61949 0
M  V30 6349 H 595.696 -1.63697 -2.50686 0
M  V30 6350 H 593.242 -0.788526 -1.20492 0
M  V30 6351 H 595.195 0.103325 -4.21273 0
M  V30 6352 H 593.919 0.781164 -3.1712 0
M  V30 6353 H 592.578 -1.33756 -3.41328 0
M  V30 6354 H 592.226 0.564792 -4.99819 0
M  V30 6355 H 591.926 -1.00267 -5.78982 0
M  V30 6356 H 593.45 -0.12503 -6.10472 0
M  V30 6357 H 594.864 -2.24034 -5.27714 0
M  V30 6358 H 593.261 -3.02582 -5.18232 0
M  V30 6359 H 594.331 -3.05082 -3.76899 0
M  V30 6360 N 595.674 1.31259 -0.872281 0
M  V30 6361 C 596.622 2.30404 -0.318897 0
M  V30 6362 C 597.616 1.5962 0.567267 0
M  V30 6363 O 598.822 1.74204 0.453111 0
M  V30 6364 H 595.197 0.747243 -0.0844474 0
M  V30 6365 H 597.168 2.74549 -1.16899 0
M  V30 6366 C 595.917 3.44608 0.462683 0
M  V30 6367 H 595.24 3.99248 -0.209936 0
M  V30 6368 H 596.68 4.1609 0.815187 0
M  V30 6369 C 595.139 2.93456 1.65485 0
M  V30 6370 O 595.669 2.92418 2.75417 0
M  V30 6371 N 593.875 2.49628 1.48776 0
M  V30 6372 H 593.422 2.50671 0.593452 0
M  V30 6373 H 593.38 2.15759 2.28682 0
M  V30 6374 N 597.152 0.631951 1.44375 0
M  V30 6375 C 598.084 -0.110911 2.28931 0
M  V30 6376 C 599.097 -0.808086 1.41329 0
M  V30 6377 O 600.286 -0.669396 1.65473 0
M  V30 6378 C 597.386 -1.17928 3.1772 0
M  V30 6379 C 596.559 -0.564458 4.33743 0
M  V30 6380 C 595.618 -1.5269 5.0356 0
M  V30 6381 O 594.644 -1.04372 5.59549 0
M  V30 6382 N 595.846 -2.86123 5.05088 0
M  V30 6383 H 598.611 0.614758 2.93327 0
M  V30 6384 H 596.172 0.473171 1.54831 0
M  V30 6385 H 598.164 -1.82348 3.61291 0
M  V30 6386 H 596.734 -1.80717 2.55069 0
M  V30 6387 H 595.954 0.258373 3.93352 0
M  V30 6388 H 597.242 -0.134355 5.08623 0
M  V30 6389 H 596.64 -3.27959 4.60933 0
M  V30 6390 H 595.197 -3.45901 5.52445 0
M  V30 6391 N 598.631 -1.53133 0.372548 0
M  V30 6392 C 599.578 -2.25951 -0.470631 0
M  V30 6393 C 600.548 -1.26895 -1.07176 0
M  V30 6394 O 601.733 -1.55691 -1.10294 0
M  V30 6395 C 598.873 -3.05726 -1.6008 0
M  V30 6396 C 597.986 -4.19684 -1.02416 0
M  V30 6397 C 597.121 -4.86888 -2.124 0
M  V30 6398 C 596.16 -5.92866 -1.52238 0
M  V30 6399 N 595.297 -6.53732 -2.56084 0
M  V30 6400 H 600.137 -2.97587 0.156816 0
M  V30 6401 H 597.674 -1.4683 0.0891571 0
M  V30 6402 H 599.632 -3.50258 -2.26661 0
M  V30 6403 H 598.262 -2.36331 -2.1988 0
M  V30 6404 H 597.314 -3.79588 -0.248426 0
M  V30 6405 H 598.626 -4.95821 -0.544366 0
M  V30 6406 H 597.78 -5.34638 -2.86787 0
M  V30 6407 H 596.519 -4.10239 -2.63734 0
M  V30 6408 H 595.524 -5.4447 -0.763685 0
M  V30 6409 H 596.749 -6.71439 -1.0172 0
M  V30 6410 H 594.695 -5.79932 -3.06618 0
M  V30 6411 H 594.612 -7.25429 -2.12811 0
M  V30 6412 H 595.88 -7.0613 -3.30152 0
M  V30 6413 N 600.109 -0.101901 -1.5727 0
M  V30 6414 C 601.039 0.851544 -2.17419 0
M  V30 6415 C 602.02 1.28942 -1.10941 0
M  V30 6416 O 603.205 1.35509 -1.39107 0
M  V30 6417 C 600.335 2.10816 -2.75996 0
M  V30 6418 C 599.289 1.80867 -3.87906 0
M  V30 6419 C 598.615 3.13413 -4.33216 0
M  V30 6420 C 599.915 1.0903 -5.10793 0
M  V30 6421 H 601.609 0.350381 -2.97343 0
M  V30 6422 H 599.155 0.16709 -1.43027 0
M  V30 6423 H 601.108 2.77959 -3.16729 0
M  V30 6424 H 599.832 2.63227 -1.93337 0
M  V30 6425 H 598.491 1.16119 -3.47724 0
M  V30 6426 H 598.139 3.63725 -3.47438 0
M  V30 6427 H 597.839 2.94155 -5.08671 0
M  V30 6428 H 599.363 3.81704 -4.76586 0
M  V30 6429 H 600.777 1.66295 -5.48652 0
M  V30 6430 H 599.174 0.99927 -5.91722 0
M  V30 6431 H 600.244 0.0741704 -4.84843 0
M  V30 6432 N 601.587 1.56661 0.17182 0
M  V30 6433 C 603.003 1.50768 0.52357 0
M  V30 6434 C 603.203 0.806072 1.84675 0
M  V30 6435 O 602.259 0.366233 2.4983 0
M  V30 6436 C 603.572 2.955 0.556793 0
M  V30 6437 C 605.12 3.06303 0.644029 0
M  V30 6438 C 605.595 4.52492 0.708148 0
M  V30 6439 N 607.086 4.56737 0.771051 0
M  V30 6440 C 607.821 5.67196 0.841229 0
M  V30 6441 N 607.317 6.87287 0.872272 0
M  V30 6442 N 609.11 5.55165 0.88021 0
M  V30 6443 H 601.261 2.00679 -0.695817 0
M  V30 6444 H 603.524 0.914219 -0.250814 0
M  V30 6445 H 603.23 3.49986 -0.346774 0
M  V30 6446 H 603.104 3.50119 1.40346 0
M  V30 6447 H 605.491 2.51851 1.53802 0
M  V30 6448 H 605.572 2.5477 -0.229297 0
M  V30 6449 H 605.216 5.07575 -0.181585 0
M  V30 6450 H 605.146 5.01781 1.59761 0
M  V30 6451 H 607.637 3.70274 0.755364 0
M  V30 6452 H 607.95 7.6722 0.92698 0
M  V30 6453 H 606.295 6.89898 0.840557 0
M  V30 6454 H 609.486 4.60263 0.852956 0
M  V30 6455 H 609.659 6.41271 0.931439 0
M  V30 6456 N 603.065 -0.440357 1.51323 0
M  V30 6457 C 604.314 -1.18697 1.63076 0
M  V30 6458 C 604.627 -1.92418 0.35136 0
M  V30 6459 O 605.833 -2.69258 0.348221 0
M  V30 6460 C 604.289 -2.15849 2.87988 0
M  V30 6461 C 603.897 -1.47789 4.22921 0
M  V30 6462 C 605.641 -2.90962 3.09098 0
M  V30 6463 C 603.548 -2.43407 5.38987 0
M  V30 6464 H 602.478 -0.44676 0.607389 0
M  V30 6465 H 605.129 -0.454313 1.77787 0
M  V30 6466 H 603.511 -2.92537 2.66905 0
M  V30 6467 H 604.685 -0.7668 4.54375 0
M  V30 6468 H 603 -0.848404 4.07665 0
M  V30 6469 H 605.597 -3.62584 3.92985 0
M  V30 6470 H 605.94 -3.52133 2.22053 0
M  V30 6471 H 606.473 -2.21381 3.30507 0
M  V30 6472 H 603.212 -1.86929 6.28282 0
M  V30 6473 H 602.732 -3.12579 5.11913 0
M  V30 6474 H 604.411 -3.046 5.70813 0
M  V30 6475 N 604.543 -1.41418 -0.695603 0
M  V30 6476 C 605.476 -1.3768 -1.81988 0
M  V30 6477 C 606.454 -0.244061 -1.60758 0
M  V30 6478 O 607.638 -0.430965 -1.83507 0
M  V30 6479 C 604.765 -1.1476 -3.18666 0
M  V30 6480 C 603.811 -2.30752 -3.58686 0
M  V30 6481 S 604.644 -3.9323 -3.63498 0
M  V30 6482 C 605.8 -3.72613 -5.02902 0
M  V30 6483 H 606.033 -2.32822 -1.84882 0
M  V30 6484 H 603.566 -1.27942 -0.86431 0
M  V30 6485 H 605.524 -1.02223 -3.97569 0
M  V30 6486 H 604.185 -0.212385 -3.13381 0
M  V30 6487 H 603.378 -2.10409 -4.57978 0
M  V30 6488 H 602.98 -2.39696 -2.87092 0
M  V30 6489 H 605.272 -3.32317 -5.904 0
M  V30 6490 H 606.215 -4.71507 -5.28286 0
M  V30 6491 H 606.623 -3.0589 -4.74438 0
M  V30 6492 N 606.021 0.929856 -1.27246 0
M  V30 6493 C 607.269 1.674 -1.13233 0
M  V30 6494 C 607.59 1.92311 0.322744 0
M  V30 6495 O 606.86 1.52784 1.22612 0
M  V30 6496 H 605.44 0.620411 -0.416052 0
M  V30 6497 H 608.102 1.11663 -1.59741 0
M  V30 6498 H 607.198 2.64308 -1.65975 0
M  V30 6499 N 607.499 1.09233 1.13605 0
M  V30 6500 C 608.727 0.848908 1.88683 0
M  V30 6501 C 609.142 -0.599667 1.79024 0
M  V30 6502 O 608.499 -1.41265 1.15544 0
M  V30 6503 C 608.55 1.27273 3.38355 0
M  V30 6504 O 608.271 2.66449 3.47759 0
M  V30 6505 C 609.772 1.0614 4.30406 0
M  V30 6506 H 606.992 0.305549 0.597395 0
M  V30 6507 H 609.536 1.4538 1.43823 0
M  V30 6508 H 607.691 0.711776 3.80805 0
M  V30 6509 H 608.105 2.84264 4.40788 0
M  V30 6510 H 609.579 1.40725 5.33761 0
M  V30 6511 H 610.056 -0.000960332 4.392 0
M  V30 6512 H 610.662 1.60821 3.93722 0
M  V30 6513 N 608.977 -1.30795 0.87923 0
M  V30 6514 C 610.223 -1.96653 0.495519 0
M  V30 6515 C 610.556 -1.69282 -0.951703 0
M  V30 6516 O 609.831 -0.994374 -1.6716 0
M  V30 6517 C 610.114 -3.51898 0.764174 0
M  V30 6518 C 609.967 -3.88808 2.2616 0
M  V30 6519 C 611.286 -4.39462 0.236825 0
M  V30 6520 H 608.405 -0.7143 0.181507 0
M  V30 6521 H 611.047 -1.54765 1.10217 0
M  V30 6522 H 609.197 -3.87709 0.247841 0
M  V30 6523 H 610.869 -3.63051 2.8459 0
M  V30 6524 H 609.112 -3.37082 2.73053 0
M  V30 6525 H 609.783 -4.97086 2.4002 0
M  V30 6526 H 612.259 -4.10528 0.678683 0
M  V30 6527 H 611.135 -5.47018 0.454176 0
M  V30 6528 H 611.396 -4.33621 -0.861683 0
M  V30 6529 N 610.455 -0.639598 -1.44038 0
M  V30 6530 C 611.385 0.0469443 -2.33453 0
M  V30 6531 C 612.366 0.82609 -1.48694 0
M  V30 6532 O 613.551 0.790285 -1.77393 0
M  V30 6533 C 610.681 1.02338 -3.3188 0
M  V30 6534 C 609.635 0.355284 -4.26523 0
M  V30 6535 C 608.961 1.44221 -5.14883 0
M  V30 6536 C 610.261 -0.743798 -5.16977 0
M  V30 6537 H 611.955 -0.699735 -2.91108 0
M  V30 6538 H 609.501 -0.337946 -1.39978 0
M  V30 6539 H 611.454 1.51247 -3.93322 0
M  V30 6540 H 610.178 1.80105 -2.72451 0
M  V30 6541 H 608.837 -0.113239 -3.66425 0
M  V30 6542 H 608.485 2.21097 -4.51802 0
M  V30 6543 H 608.185 1.00052 -5.79019 0
M  V30 6544 H 609.709 1.93295 -5.79197 0
M  V30 6545 H 611.123 -0.337444 -5.72306 0
M  V30 6546 H 609.52 -1.10914 -5.89761 0
M  V30 6547 H 610.59 -1.60745 -4.57481 0
M  V30 6548 N 611.933 1.52934 -0.380664 0
M  V30 6549 C 613.181 2.01069 0.203874 0
M  V30 6550 C 613.502 1.26922 1.4804 0
M  V30 6551 O 612.772 0.386787 1.92044 0
M  V30 6552 H 611.352 0.742882 0.0783279 0
M  V30 6553 H 614.014 1.88099 -0.510368 0
M  V30 6554 H 613.11 3.09258 0.42021 0
M  V30 6555 N 613.412 0.11024 1.57214 0
M  V30 6556 C 614.661 -0.549638 1.94067 0
M  V30 6557 C 614.974 -1.68388 0.995234 0
M  V30 6558 O 616.18 -2.40593 1.25807 0
M  V30 6559 C 614.636 -1.02912 3.44873 0
M  V30 6560 C 614.244 0.0761861 4.47935 0
M  V30 6561 C 615.988 -1.66087 3.9066 0
M  V30 6562 C 613.895 -0.419502 5.8991 0
M  V30 6563 H 612.825 -0.209092 0.724428 0
M  V30 6564 H 615.476 0.188683 1.82527 0
M  V30 6565 H 613.858 -1.82159 3.51616 0
M  V30 6566 H 615.032 0.852185 4.52851 0
M  V30 6567 H 613.347 0.614052 4.11847 0
M  V30 6568 H 615.944 -2.04272 4.94143 0
M  V30 6569 H 616.287 -2.53591 3.30148 0
M  V30 6570 H 616.82 -0.933959 3.86681 0
M  V30 6571 H 613.559 0.419277 6.54158 0
M  V30 6572 H 613.079 -1.16217 5.88433 0
M  V30 6573 H 614.758 -0.883577 6.40938 0
M  V30 6574 N 614.89 -1.56749 -0.16351 0
M  V30 6575 C 615.837 -1.97011 -1.2023 0
M  V30 6576 C 616.807 -0.835186 -1.43575 0
M  V30 6577 O 617.992 -1.09594 -1.56185 0
M  V30 6578 C 615.132 -2.34186 -2.53478 0
M  V30 6579 C 614.245 -3.60893 -2.37446 0
M  V30 6580 C 613.38 -3.87245 -3.63614 0
M  V30 6581 C 612.419 -5.07274 -3.42548 0
M  V30 6582 N 611.556 -5.29719 -4.60806 0
M  V30 6583 H 616.396 -2.85562 -0.851958 0
M  V30 6584 H 613.933 -1.41292 -0.409257 0
M  V30 6585 H 615.891 -2.53764 -3.31149 0
M  V30 6586 H 614.521 -1.48736 -2.86492 0
M  V30 6587 H 613.573 -3.49185 -1.50911 0
M  V30 6588 H 614.885 -4.48722 -2.1783 0
M  V30 6589 H 614.039 -4.07232 -4.49719 0
M  V30 6590 H 612.778 -2.97806 -3.86216 0
M  V30 6591 H 611.783 -4.87177 -2.5483 0
M  V30 6592 H 613.008 -5.98251 -3.2136 0
M  V30 6593 H 610.954 -4.43233 -4.83612 0
M  V30 6594 H 610.871 -6.11786 -4.44132 0
M  V30 6595 H 612.139 -5.54192 -5.48171 0
M  V30 6596 N 616.368 0.432326 -1.51554 0
M  V30 6597 C 617.316 1.54572 -1.73811 0
M  V30 6598 C 618.31 1.58246 -0.604539 0
M  V30 6599 O 619.516 1.6193 -0.786041 0
M  V30 6600 H 615.891 0.513626 -0.549265 0
M  V30 6601 H 617.862 1.32977 -2.67132 0
M  V30 6602 C 616.611 2.92181 -1.88483 0
M  V30 6603 H 615.934 2.90088 -2.75116 0
M  V30 6604 H 617.374 3.69439 -2.08065 0
M  V30 6605 C 615.833 3.3065 -0.645909 0
M  V30 6606 O 616.363 4.01216 0.197093 0
M  V30 6607 N 614.569 2.86464 -0.488538 0
M  V30 6608 H 614.116 2.29209 -1.17562 0
M  V30 6609 H 614.074 3.12565 0.339156 0
M  V30 6610 N 617.846 1.41785 0.688094 0
M  V30 6611 C 618.776 1.47 1.8142 0
M  V30 6612 C 619.757 0.327881 1.6691 0
M  V30 6613 O 620.942 0.540362 1.86531 0
M  V30 6614 C 618.072 1.35876 3.19617 0
M  V30 6615 C 617.026 2.47976 3.48844 0
M  V30 6616 C 616.352 2.21915 4.86475 0
M  V30 6617 C 617.652 3.90309 3.47068 0
M  V30 6618 H 619.346 2.41247 1.77314 0
M  V30 6619 H 616.892 1.16116 0.851651 0
M  V30 6620 H 618.845 1.38134 3.98117 0
M  V30 6621 H 617.569 0.38116 3.24368 0
M  V30 6622 H 616.228 2.45013 2.72698 0
M  V30 6623 H 615.876 1.2248 4.8786 0
M  V30 6624 H 615.576 2.97037 5.06994 0
M  V30 6625 H 617.1 2.25901 5.67275 0
M  V30 6626 H 618.514 3.94947 4.1556 0
M  V30 6627 H 616.911 4.65175 3.7912 0
M  V30 6628 H 617.981 4.17927 2.45896 0
M  V30 6629 N 619.324 -0.923095 1.27737 0
M  V30 6630 C 620.549 -1.71054 1.17283 0
M  V30 6631 C 620.974 -1.86208 -0.266153 0
M  V30 6632 O 620.332 -1.36545 -1.1927 0
M  V30 6633 C 620.38 -3.0854 1.86642 0
M  V30 6634 O 619.484 -3.95528 1.16752 0
M  V30 6635 H 618.825 -0.524136 0.407649 0
M  V30 6636 H 621.355 -1.15487 1.6889 0
M  V30 6637 H 621.365 -3.58828 1.94182 0
M  V30 6638 H 620.04 -2.96828 2.91317 0
M  V30 6639 H 618.617 -3.53967 1.17312 0
M  V30 6640 N 620.802 -1.09834 -1.13024 0
M  V30 6641 C 622.079 -0.749225 -1.80682 0
M  V30 6642 C 622.459 0.765171 -1.96744 0
M  V30 6643 O 621.807 1.68912 -1.53886 0
M  V30 6644 C 622.017 -1.49311 -3.15448 0
M  V30 6645 C 623.365 -1.66162 -3.90737 0
M  V30 6646 O 624.389 -1.45597 -3.25085 0
M  V30 6647 O 623.248 -2.00211 -5.08505 0
M  V30 6648 H 620.342 -0.269614 -0.781817 0
M  V30 6649 H 622.888 -1.20078 -1.19914 0
M  V30 6650 H 621.66 -2.52407 -2.99009 0
M  V30 6651 H 621.283 -1.034 -3.8392 0
M  V30 6652 N 622.28 1.30327 -0.886154 0
M  V30 6653 C 623.529 1.95373 -0.501243 0
M  V30 6654 C 623.842 1.70722 0.954634 0
M  V30 6655 O 625.048 2.29761 1.44644 0
M  V30 6656 C 623.504 3.49828 -0.845493 0
M  V30 6657 C 623.112 3.83296 -2.31922 0
M  V30 6658 C 624.856 4.2118 -0.529838 0
M  V30 6659 C 622.763 5.30935 -2.60504 0
M  V30 6660 H 621.693 0.731274 -0.183722 0
M  V30 6661 H 624.344 1.48258 -1.08129 0
M  V30 6662 H 622.726 3.95522 -0.19452 0
M  V30 6663 H 623.9 3.48508 -3.01461 0
M  V30 6664 H 622.215 3.2505 -2.60253 0
M  V30 6665 H 624.812 5.29825 -0.720401 0
M  V30 6666 H 625.155 4.12902 0.530828 0
M  V30 6667 H 625.688 3.81173 -1.13806 0
M  V30 6668 H 622.427 5.44265 -3.65316 0
M  V30 6669 H 621.947 5.67019 -1.95575 0
M  V30 6670 H 623.626 5.98381 -2.46066 0
M  V30 6671 N 623.758 0.647228 1.43697 0
M  V30 6672 C 625.006 0.157876 2.01482 0
M  V30 6673 C 625.327 -1.23039 1.51282 0
M  V30 6674 O 624.597 -1.82071 0.722982 0
M  V30 6675 H 623.177 0.0553745 0.744945 0
M  V30 6676 H 625.839 0.83755 1.75986 0
M  V30 6677 H 624.935 0.137895 3.11795 0
M  V30 6678 N 625.236 -1.5273 0.388769 0
M  V30 6679 C 626.482 -2.02545 -0.186351 0
M  V30 6680 C 626.837 -1.27017 -1.44514 0
M  V30 6681 O 626.13 -0.361948 -1.8815 0
M  V30 6682 C 626.324 -3.53765 -0.508445 0
M  V30 6683 C 626.153 -4.43938 0.71758 0
M  V30 6684 C 624.923 -4.89933 1.23668 0
M  V30 6685 C 627.121 -4.89113 1.58974 0
M  V30 6686 N 625.103 -5.64176 2.42031 0
M  V30 6687 C 626.474 -5.61931 2.61979 0
M  V30 6688 C 628.529 -4.71155 1.60989 0
M  V30 6689 C 627.232 -6.18698 3.66886 0
M  V30 6690 C 629.258 -5.28804 2.64803 0
M  V30 6691 C 628.62 -6.01527 3.6653 0
M  V30 6692 H 624.719 -0.781413 -0.0302921 0
M  V30 6693 H 627.303 -1.87104 0.538539 0
M  V30 6694 H 625.474 -3.6932 -1.20239 0
M  V30 6695 H 627.206 -3.9028 -1.07067 0
M  V30 6696 H 623.961 -4.66833 0.797763 0
M  V30 6697 H 624.385 -6.05949 3.01919 0
M  V30 6698 H 629.027 -4.14435 0.836881 0
M  V30 6699 H 626.745 -6.74501 4.45055 0
M  V30 6700 H 630.331 -5.1679 2.67245 0
M  V30 6701 H 629.211 -6.45339 4.45542 0
M  V30 6702 N 626.714 -0.118576 -1.57153 0
M  V30 6703 C 628.125 0.40687 -1.82213 0
M  V30 6704 C 628.476 1.66636 -1.03571 0
M  V30 6705 O 627.601 2.14682 -0.272171 0
M  V30 6706 C 628.196 0.744949 -3.30509 0
M  V30 6707 C 626.755 1.21503 -3.5625 0
M  V30 6708 C 625.902 0.223511 -2.76398 0
M  V30 6709 H 628.853 -0.343712 -1.54933 0
M  V30 6710 H 628.874 1.6024 -3.45114 0
M  V30 6711 H 628.386 -0.171911 -3.87719 0
M  V30 6712 H 626.487 2.1488 -3.04396 0
M  V30 6713 H 626.6 1.16065 -4.64829 0
M  V30 6714 H 624.964 0.71046 -2.44591 0
M  V30 6715 H 625.747 -0.686439 -3.36367 0
M  V30 6716 N 628.193 1.56834 0.155195 0
M  V30 6717 C 629.439 1.83169 0.870467 0
M  V30 6718 C 629.772 0.698929 1.81187 0
M  V30 6719 O 629.047 -0.298035 1.92203 0
M  V30 6720 C 629.33 3.19965 1.65211 0
M  V30 6721 C 629.183 4.43792 0.732744 0
M  V30 6722 C 630.502 3.53885 2.61636 0
M  V30 6723 H 627.621 0.666288 0.315006 0
M  V30 6724 H 630.263 1.89513 0.135988 0
M  V30 6725 H 628.413 3.14687 2.27825 0
M  V30 6726 H 630.085 4.61148 0.118236 0
M  V30 6727 H 628.328 4.3378 0.0417906 0
M  V30 6728 H 628.999 5.36095 1.31552 0
M  V30 6729 H 631.475 3.5972 2.09143 0
M  V30 6730 H 630.351 4.50648 3.13381 0
M  V30 6731 H 630.612 2.79418 3.42605 0
M  V30 6732 N 629.671 -0.424282 1.51781 0
M  V30 6733 C 630.918 -1.1726 1.65095 0
M  V30 6734 C 631.246 -1.90881 0.373477 0
M  V30 6735 O 630.501 -1.84835 -0.642997 0
M  V30 6736 C 630.8 -2.20418 2.81337 0
M  V30 6737 C 630.466 -1.63715 4.20129 0
M  V30 6738 C 629.128 -1.47975 4.57883 0
M  V30 6739 C 631.48 -1.22157 5.06682 0
M  V30 6740 C 628.808 -0.891703 5.79884 0
M  V30 6741 C 631.16 -0.647767 6.29275 0
M  V30 6742 C 629.824 -0.477371 6.65791 0
M  V30 6743 H 629.094 -0.429085 0.604125 0
M  V30 6744 H 631.741 -0.461852 1.85847 0
M  V30 6745 H 630.046 -2.97581 2.54859 0
M  V30 6746 H 631.743 -2.78163 2.88836 0
M  V30 6747 H 628.333 -1.76946 3.90369 0
M  V30 6748 H 632.517 -1.33133 4.7811 0
M  V30 6749 H 627.773 -0.747563 6.06813 0
M  V30 6750 H 631.947 -0.317291 6.95677 0
M  V30 6751 H 629.574 -0.0195936 7.60197 0
M  V30 6752 N 631.149 -1.42148 -0.680565 0
M  V30 6753 C 632.059 -1.47565 -1.82378 0
M  V30 6754 C 633.075 -0.36489 -1.70131 0
M  V30 6755 O 634.251 -0.614916 -1.91783 0
M  V30 6756 C 631.316 -1.37013 -3.18478 0
M  V30 6757 C 630.377 -2.58532 -3.42724 0
M  V30 6758 C 629.61 -2.48473 -4.72331 0
M  V30 6759 O 629.833 -1.51745 -5.49845 0
M  V30 6760 O 628.767 -3.38503 -4.97694 0
M  V30 6761 H 632.593 -2.44045 -1.80764 0
M  V30 6762 H 630.178 -1.23849 -0.835569 0
M  V30 6763 H 632.06 -1.33468 -3.99705 0
M  V30 6764 H 630.735 -0.436552 -3.20743 0
M  V30 6765 H 629.642 -2.67652 -2.61368 0
M  V30 6766 H 630.975 -3.50769 -3.45286 0
M  V30 6767 N 632.627 0.916307 -1.28225 0
M  V30 6768 C 633.876 1.65975 -1.14608 0
M  V30 6769 C 634.189 1.93204 0.305191 0
M  V30 6770 O 635.395 2.65611 0.562432 0
M  V30 6771 C 633.851 2.98989 -2.00333 0
M  V30 6772 C 633.459 2.79417 -3.50186 0
M  V30 6773 C 635.203 3.76856 -1.95397 0
M  V30 6774 C 633.11 4.08056 -4.28071 0
M  V30 6775 H 632.04 0.622587 -0.425324 0
M  V30 6776 H 634.691 1.01705 -1.52736 0
M  V30 6777 H 633.073 3.6438 -1.5506 0
M  V30 6778 H 634.247 2.22723 -4.034 0
M  V30 6779 H 632.562 2.14966 -3.56621 0
M  V30 6780 H 635.159 4.72203 -2.50856 0
M  V30 6781 H 635.502 4.05776 -0.930137 0
M  V30 6782 H 636.035 3.1828 -2.38626 0
M  V30 6783 H 632.774 3.8431 -5.31024 0
M  V30 6784 H 632.294 4.64371 -3.79631 0
M  V30 6785 H 633.973 4.76333 -4.37854 0
M  V30 6786 N 634.105 1.10431 1.1244 0
M  V30 6787 C 635.516 0.864439 1.65482 0
M  V30 6788 C 635.867 -0.60527 1.8663 0
M  V30 6789 O 634.992 -1.46492 1.59276 0
M  V30 6790 C 635.587 1.56267 3.0061 0
M  V30 6791 C 634.146 1.3695 3.50602 0
M  V30 6792 C 633.293 1.61209 2.25626 0
M  V30 6793 H 636.244 1.26203 0.962209 0
M  V30 6794 H 636.265 1.00166 3.67079 0
M  V30 6795 H 635.777 2.63231 2.85186 0
M  V30 6796 H 633.878 0.321481 3.71211 0
M  V30 6797 H 633.991 2.11143 4.30064 0
M  V30 6798 H 632.355 1.03482 2.32731 0
M  V30 6799 H 633.138 2.69425 2.12756 0
M  V30 6800 N 635.583 -1.29855 0.893053 0
M  V30 6801 C 636.808 -2.00512 0.530066 0
M  V30 6802 C 637.233 -1.66446 -0.876199 0
M  V30 6803 O 636.591 -0.885446 -1.58207 0
M  V30 6804 C 636.639 -3.53308 0.721505 0
M  V30 6805 O 635.743 -4.11764 -0.228994 0
M  V30 6806 H 635.084 -0.630617 0.207891 0
M  V30 6807 H 637.614 -1.6551 1.20282 0
M  V30 6808 H 637.624 -4.03206 0.623599 0
M  V30 6809 H 636.299 -3.77439 1.74678 0
M  V30 6810 H 634.876 -3.72805 -0.0841034 0
M  V30 6811 N 637.061 -0.65484 -1.43351 0
M  V30 6812 C 638.472 -0.248506 -1.85039 0
M  V30 6813 C 638.823 1.20526 -1.54816 0
M  V30 6814 O 637.948 1.92016 -0.99794 0
M  V30 6815 C 638.543 -0.444241 -3.35875 0
M  V30 6816 C 637.102 -0.0922108 -3.76287 0
M  V30 6817 C 636.249 -0.746327 -2.67068 0
M  V30 6818 H 639.2 -0.8584 -1.33481 0
M  V30 6819 H 639.221 0.309762 -3.79237 0
M  V30 6820 H 638.733 -1.50239 -3.5784 0
M  V30 6821 H 636.834 0.96328 -3.59933 0
M  V30 6822 H 636.947 -0.518807 -4.76283 0
M  V30 6823 H 635.311 -0.179416 -2.54067 0
M  V30 6824 H 636.094 -1.80754 -2.91861 0
M  V30 6825 N 638.539 1.52521 -0.396863 0
M  V30 6826 C 639.955 1.5953 -0.0471659 0
M  V30 6827 C 640.155 1.41044 1.43906 0
M  V30 6828 O 639.211 1.23122 2.20448 0
M  V30 6829 C 640.524 2.95972 -0.531113 0
M  V30 6830 C 642.072 3.09172 -0.488024 0
M  V30 6831 C 642.547 4.48075 -0.948281 0
M  V30 6832 N 644.038 4.54281 -0.9046 0
M  V30 6833 C 644.773 5.60007 -1.23205 0
M  V30 6834 N 644.269 6.73343 -1.63036 0
M  V30 6835 N 646.062 5.50151 -1.15282 0
M  V30 6836 H 638.213 1.62786 -1.36435 0
M  V30 6837 H 640.476 0.76514 -0.559701 0
M  V30 6838 H 640.182 3.14741 -1.56942 0
M  V30 6839 H 640.056 3.77143 0.0657922 0
M  V30 6840 H 642.443 2.90095 0.541211 0
M  V30 6841 H 642.524 2.29937 -1.12083 0
M  V30 6842 H 642.168 4.67894 -1.97578 0
M  V30 6843 H 642.098 5.25788 -0.292412 0
M  V30 6844 H 644.589 3.72918 -0.6116 0
M  V30 6845 H 644.902 7.49992 -1.86365 0
M  V30 6846 H 643.247 6.74655 -1.66929 0
M  V30 6847 H 646.438 4.6049 -0.840602 0
M  V30 6848 H 646.611 6.32444 -1.41133 0
M  V30 6849 N 640.017 0.126909 1.57088 0
M  V30 6850 C 641.428 -0.397201 1.82426 0
M  V30 6851 C 641.779 -1.66084 1.04453 0
M  V30 6852 O 640.904 -2.14534 0.283552 0
M  V30 6853 C 641.499 -0.727411 3.30899 0
M  V30 6854 C 640.058 -1.19612 3.56889 0
M  V30 6855 C 639.205 -0.20885 2.76512 0
M  V30 6856 H 642.156 0.351924 1.54749 0
M  V30 6857 H 642.177 -1.58407 3.45959 0
M  V30 6858 H 641.689 0.19247 3.87622 0
M  V30 6859 H 639.79 -2.13263 3.05532 0
M  V30 6860 H 639.903 -1.13598 4.65438 0
M  V30 6861 H 638.267 -0.697479 2.44964 0
M  V30 6862 H 639.05 0.704267 3.35998 0
M  V30 6863 N 641.495 -1.56914 -0.146875 0
M  V30 6864 C 642.72 -1.87881 -0.878386 0
M  V30 6865 C 643.145 -0.715945 -1.73942 0
M  V30 6866 O 642.503 0.334447 -1.78189 0
M  V30 6867 C 642.551 -3.17431 -1.71084 0
M  V30 6868 O 641.655 -3.01374 -2.81509 0
M  V30 6869 H 640.996 -0.617289 -0.244644 0
M  V30 6870 H 643.526 -2.04136 -0.137654 0
M  V30 6871 H 643.536 -3.49455 -2.10582 0
M  V30 6872 H 642.211 -4.01671 -1.07856 0
M  V30 6873 H 640.788 -2.80758 -2.45416 0
M  V30 6874 N 642.974 0.416227 -1.52004 0
M  V30 6875 C 643.921 1.50666 -1.74838 0
M  V30 6876 C 644.891 1.55245 -0.590599 0
M  V30 6877 O 646.076 1.71928 -0.827374 0
M  V30 6878 C 643.216 2.88185 -1.89851 0
M  V30 6879 C 642.329 2.92971 -3.17478 0
M  V30 6880 C 641.464 4.21745 -3.22962 0
M  V30 6881 C 640.503 4.20478 -4.4482 0
M  V30 6882 N 639.64 5.40811 -4.47736 0
M  V30 6883 H 644.48 1.30498 -2.67907 0
M  V30 6884 H 642.017 0.633568 -1.32757 0
M  V30 6885 H 643.975 3.68007 -1.96537 0
M  V30 6886 H 642.605 3.06865 -1.00169 0
M  V30 6887 H 641.657 2.05684 -3.19997 0
M  V30 6888 H 642.969 2.87899 -4.07328 0
M  V30 6889 H 642.123 5.09954 -3.28682 0
M  V30 6890 H 640.862 4.29503 -2.31038 0
M  V30 6891 H 639.867 3.30659 -4.39254 0
M  V30 6892 H 641.092 4.14366 -5.38031 0
M  V30 6893 H 639.038 5.4925 -3.58692 0
M  V30 6894 H 638.955 5.37705 -5.31422 0
M  V30 6895 H 640.223 6.30993 -4.57676 0
M  V30 6896 N 644.452 1.42507 0.673017 0
M  V30 6897 C 645.7 1.42789 1.43023 0
M  V30 6898 C 646.021 0.0459738 1.94946 0
M  V30 6899 O 645.291 -0.915765 1.73178 0
M  V30 6900 H 643.871 0.525657 0.530748 0
M  V30 6901 H 646.533 1.77944 0.795113 0
M  V30 6902 H 645.629 2.12872 2.28237 0
M  V30 6903 N 645.93 -0.909495 1.28709 0
M  V30 6904 C 646.878 -2.03381 1.12866 0
M  V30 6905 C 647.872 -1.69335 0.0468074 0
M  V30 6906 O 649.078 -1.78819 0.205891 0
M  V30 6907 H 645.453 -0.666452 0.348348 0
M  V30 6908 H 647.424 -2.13885 2.08077 0
M  V30 6909 C 646.173 -3.38092 0.811742 0
M  V30 6910 H 645.496 -3.64786 1.63619 0
M  V30 6911 H 646.936 -4.17477 0.740869 0
M  V30 6912 C 645.395 -3.33395 -0.484679 0
M  V30 6913 O 645.925 -3.72089 -1.5137 0
M  V30 6914 N 644.131 -2.86491 -0.486961 0
M  V30 6915 H 643.678 -2.55199 0.350877 0
M  V30 6916 H 643.636 -2.83731 -1.3544 0
M  V30 6917 N 647.408 -1.11026 -1.11852 0
M  V30 6918 C 648.318 -0.777252 -2.2135 0
M  V30 6919 C 649.334 0.227821 -1.72502 0
M  V30 6920 O 650.51 0.0650587 -2.01295 0
M  V30 6921 C 647.575 -0.220668 -3.45997 0
M  V30 6922 C 646.636 -1.2838 -4.09655 0
M  V30 6923 C 645.869 -0.753678 -5.28352 0
M  V30 6924 O 646.092 0.417779 -5.68868 0
M  V30 6925 O 645.026 -1.51647 -5.82483 0
M  V30 6926 H 648.852 -1.69141 -2.5224 0
M  V30 6927 H 646.437 -0.885836 -1.20305 0
M  V30 6928 H 648.319 0.0855756 -4.21313 0
M  V30 6929 H 646.994 0.666262 -3.16769 0
M  V30 6930 H 645.901 -1.64299 -3.3609 0
M  V30 6931 H 647.234 -2.14396 -4.43052 0
M  V30 6932 N 648.886 1.2938 -0.899927 0
M  V30 6933 C 650.297 1.77644 -0.574427 0
M  V30 6934 C 650.648 1.73824 0.909928 0
M  V30 6935 O 649.773 1.32429 1.71147 0
M  V30 6936 C 650.368 3.22573 -1.03595 0
M  V30 6937 C 648.927 3.68614 -0.76161 0
M  V30 6938 C 648.074 2.49483 -1.21052 0
M  V30 6939 H 651.025 1.16038 -1.08263 0
M  V30 6940 H 651.046 3.78684 -0.371337 0
M  V30 6941 H 650.558 3.25321 -2.11631 0
M  V30 6942 H 648.659 3.7134 0.306127 0
M  V30 6943 H 648.772 4.59402 -1.35965 0
M  V30 6944 H 647.136 2.46798 -0.629515 0
M  V30 6945 H 647.919 2.54959 -2.29893 0
M  V30 6946 N 650.364 0.662433 1.43002 0
M  V30 6947 C 651.274 -0.0239199 2.34588 0
M  V30 6948 C 652.29 -0.802255 1.54402 0
M  V30 6949 O 653.466 -0.747401 1.87018 0
M  V30 6950 C 650.531 -0.972098 3.32793 0
M  V30 6951 C 649.592 -0.189673 4.28881 0
M  V30 6952 C 648.825 -1.09269 5.22395 0
M  V30 6953 O 649.048 -2.33209 5.20547 0
M  V30 6954 O 647.982 -0.560136 5.99288 0
M  V30 6955 H 651.808 0.730171 2.94792 0
M  V30 6956 H 649.393 0.422635 1.43297 0
M  V30 6957 H 651.275 -1.51676 3.93157 0
M  V30 6958 H 649.95 -1.70626 2.75079 0
M  V30 6959 H 648.857 0.398794 3.71968 0
M  V30 6960 H 650.19 0.50511 4.89601 0
M  V30 6961 N 651.842 -1.52309 0.404946 0
M  V30 6962 C 653.072 -2.05886 -0.171569 0
M  V30 6963 C 653.48 -1.27527 -1.39762 0
M  V30 6964 O 652.823 -0.319215 -1.80905 0
M  V30 6965 C 652.885 -3.54609 -0.590983 0
M  V30 6966 C 652.549 -4.53989 0.523757 0
M  V30 6967 C 653.546 -5.01084 1.38604 0
M  V30 6968 C 651.231 -4.97465 0.695255 0
M  V30 6969 C 653.225 -5.90295 2.4048 0
M  V30 6970 C 650.912 -5.86473 1.71733 0
M  V30 6971 C 651.91 -6.32782 2.57051 0
M  V30 6972 O 651.598 -7.20029 3.57509 0
M  V30 6973 H 651.33 -0.675508 -0.0257763 0
M  V30 6974 H 653.884 -1.97238 0.573278 0
M  V30 6975 H 652.114 -3.60929 -1.38805 0
M  V30 6976 H 653.803 -3.90853 -1.09494 0
M  V30 6977 H 654.569 -4.68214 1.26492 0
M  V30 6978 H 650.448 -4.60982 0.0408447 0
M  V30 6979 H 653.992 -6.26363 3.07108 0
M  V30 6980 H 649.889 -6.18756 1.83877 0
M  V30 6981 H 650.657 -7.3813 3.53703 0
M  V30 6982 N 653.32 -0.135238 -1.57019 0
M  V30 6983 C 654.23 0.822226 -2.19719 0
M  V30 6984 C 655.246 1.28057 -1.17802 0
M  V30 6985 O 656.422 1.3402 -1.50335 0
M  V30 6986 C 653.487 2.0484 -2.79717 0
M  V30 6987 C 652.548 1.64042 -3.96723 0
M  V30 6988 C 651.781 2.80814 -4.53849 0
M  V30 6989 O 652.004 3.967 -4.0986 0
M  V30 6990 O 650.938 2.56963 -5.44292 0
M  V30 6991 H 654.764 0.318552 -3.02025 0
M  V30 6992 H 652.349 0.0912021 -1.49121 0
M  V30 6993 H 654.231 2.76622 -3.17897 0
M  V30 6994 H 652.906 2.54182 -2.00432 0
M  V30 6995 H 651.813 0.893182 -3.63281 0
M  V30 6996 H 653.146 1.19426 -4.77492 0
M  V30 6997 N 654.798 1.5699 0.138552 0
M  V30 6998 C 656.046 1.83446 0.848053 0
M  V30 6999 C 656.367 0.71744 1.81322 0
M  V30 7000 O 655.637 -0.260228 1.94164 0
M  V30 7001 H 654.217 0.676792 0.316166 0
M  V30 7002 H 656.879 1.94462 0.130538 0
M  V30 7003 H 655.975 2.78677 1.40518 0
M  V30 7004 N 656.276 -0.40816 1.52223 0
M  V30 7005 C 657.553 -1.16807 1.56893 0
M  V30 7006 C 657.933 -2.08169 0.350537 0
M  V30 7007 O 657.281 -2.18684 -0.662536 0
M  V30 7008 C 657.491 -1.94451 2.8981 0
M  V30 7009 C 658.839 -2.50484 3.42845 0
M  V30 7010 O 659.863 -2.0463 2.91556 0
M  V30 7011 O 658.722 -3.34192 4.3241 0
M  V30 7012 H 655.816 -0.533382 0.632007 0
M  V30 7013 H 658.362 -0.414862 1.64551 0
M  V30 7014 H 657.134 -1.27527 3.69936 0
M  V30 7015 H 656.757 -2.76775 2.85449 0
M  V30 7016 N 657.755 -1.42862 -0.66545 0
M  V30 7017 C 659.032 -1.3431 -1.42197 0
M  V30 7018 C 659.412 0.0150265 -2.11095 0
M  V30 7019 O 658.76 1.03101 -2.03918 0
M  V30 7020 C 658.97 -2.51783 -2.41674 0
M  V30 7021 C 660.318 -2.94321 -3.0604 0
M  V30 7022 O 661.342 -2.51741 -2.52001 0
M  V30 7023 O 660.201 -3.68047 -4.03985 0
M  V30 7024 H 657.295 -0.530159 -0.634713 0
M  V30 7025 H 659.841 -1.54888 -0.693386 0
M  V30 7026 H 658.613 -3.42282 -1.89627 0
M  V30 7027 H 658.236 -2.33241 -3.22001 0
M  V30 7028 N 659.233 0.902656 -1.29189 0
M  V30 7029 C 660.461 1.68639 -1.19869 0
M  V30 7030 C 660.876 1.87254 0.241121 0
M  V30 7031 O 660.233 1.40745 1.16177 0
M  V30 7032 C 660.284 3.07251 -1.90471 0
M  V30 7033 O 660.005 2.89488 -3.28829 0
M  V30 7034 C 661.506 4.01653 -1.8759 0
M  V30 7035 H 658.726 0.526802 -0.415596 0
M  V30 7036 H 661.27 1.12901 -1.7051 0
M  V30 7037 H 659.425 3.59774 -1.43672 0
M  V30 7038 H 659.839 3.77296 -3.64346 0
M  V30 7039 H 661.313 4.96339 -2.4156 0
M  V30 7040 H 661.79 4.30881 -0.850756 0
M  V30 7041 H 662.396 3.55061 -2.34119 0
M  V30 7042 N 660.711 1.11618 1.11262 0
M  V30 7043 C 661.621 0.78898 2.20935 0
M  V30 7044 C 662.637 -0.21867 1.7262 0
M  V30 7045 O 663.813 -0.0543826 2.01327 0
M  V30 7046 C 660.878 0.239014 3.45875 0
M  V30 7047 C 659.939 1.3055 4.08968 0
M  V30 7048 C 659.172 0.781687 5.27944 0
M  V30 7049 O 659.395 -0.387605 5.69082 0
M  V30 7050 O 658.329 1.54734 5.81671 0
M  V30 7051 H 662.155 1.70477 2.51339 0
M  V30 7052 H 659.74 0.892203 1.19834 0
M  V30 7053 H 661.622 -0.0632312 4.21353 0
M  V30 7054 H 660.297 -0.649454 3.17118 0
M  V30 7055 H 659.204 1.66079 3.35214 0
M  V30 7056 H 660.537 2.16743 4.41909 0
M  V30 7057 N 662.189 -1.289 0.906776 0
M  V30 7058 C 663.437 -1.94883 0.535266 0
M  V30 7059 C 663.758 -1.71784 -0.922791 0
M  V30 7060 O 663.028 -1.05359 -1.65156 0
M  V30 7061 H 661.608 -0.721109 0.194962 0
M  V30 7062 H 664.27 -1.57018 1.15461 0
M  V30 7063 H 663.366 -3.03591 0.723821 0
M  V30 7064 N 663.667 -0.670007 -1.42649 0
M  V30 7065 C 664.577 0.0114788 -2.34597 0
M  V30 7066 C 665.593 0.794055 -1.54825 0
M  V30 7067 O 666.769 0.737472 -1.87412 0
M  V30 7068 C 663.834 0.954436 -3.33304 0
M  V30 7069 C 662.895 0.166925 -4.28975 0
M  V30 7070 C 662.128 1.06497 -5.22967 0
M  V30 7071 O 662.351 2.30446 -5.21777 0
M  V30 7072 O 661.285 0.528347 -5.99577 0
M  V30 7073 H 665.111 -0.745794 -2.944 0
M  V30 7074 H 662.696 -0.430228 -1.43071 0
M  V30 7075 H 664.578 1.49589 -3.93956 0
M  V30 7076 H 663.253 1.69164 -2.7598 0
M  V30 7077 H 662.16 -0.418515 -3.71752 0
M  V30 7078 H 663.493 -0.531067 -4.89327 0
M  V30 7079 N 665.145 1.52092 -0.413018 0
M  V30 7080 C 666.075 2.30021 0.401567 0
M  V30 7081 C 667.056 1.34395 1.04269 0
M  V30 7082 O 668.241 1.63304 1.05097 0
M  V30 7083 C 665.371 3.12447 1.51638 0
M  V30 7084 C 664.325 4.16153 1.00005 0
M  V30 7085 C 663.651 4.86948 2.20875 0
M  V30 7086 C 664.951 5.22275 0.0513757 0
M  V30 7087 H 666.645 2.98365 -0.248704 0
M  V30 7088 H 664.191 1.4349 -0.121052 0
M  V30 7089 H 666.144 3.65733 2.09326 0
M  V30 7090 H 664.868 2.41879 2.19458 0
M  V30 7091 H 663.527 3.63882 0.445549 0
M  V30 7092 H 663.175 4.12905 2.8726 0
M  V30 7093 H 662.875 5.57057 1.86978 0
M  V30 7094 H 664.399 5.43048 2.79162 0
M  V30 7095 H 665.813 5.70778 0.537176 0
M  V30 7096 H 664.21 5.9977 -0.198977 0
M  V30 7097 H 665.28 4.76611 -0.892736 0
M  V30 7098 N 666.623 0.143563 1.56945 0
M  V30 7099 C 667.57 -0.797433 2.16586 0
M  V30 7100 C 668.54 -1.24654 1.09775 0
M  V30 7101 O 669.725 -1.31968 1.37801 0
M  V30 7102 C 666.865 -2.03253 2.78895 0
M  V30 7103 C 665.978 -1.62954 4.00087 0
M  V30 7104 C 665.113 -2.81617 4.50406 0
M  V30 7105 C 664.152 -2.37675 5.64072 0
M  V30 7106 N 663.289 -3.49335 6.09023 0
M  V30 7107 H 668.129 -0.282023 2.96662 0
M  V30 7108 H 665.666 -0.127494 1.46546 0
M  V30 7109 H 667.624 -2.75653 3.13163 0
M  V30 7110 H 666.254 -2.52211 2.01469 0
M  V30 7111 H 665.306 -0.803322 3.71821 0
M  V30 7112 H 666.618 -1.26679 4.82446 0
M  V30 7113 H 665.772 -3.62212 4.86711 0
M  V30 7114 H 664.511 -3.21134 3.67048 0
M  V30 7115 H 663.516 -1.55519 5.27346 0
M  V30 7116 H 664.741 -1.99247 6.49213 0
M  V30 7117 H 662.687 -3.8848 5.28601 0
M  V30 7118 H 662.604 -3.17064 6.86299 0
M  V30 7119 H 663.872 -4.30297 6.49973 0
M  V30 7120 N 668.101 -1.57061 -0.130224 0
M  V30 7121 C 669.011 -2.02802 -1.17934 0
M  V30 7122 C 670.027 -0.946378 -1.46013 0
M  V30 7123 O 671.203 -1.25708 -1.57351 0
M  V30 7124 C 668.268 -2.41368 -2.48882 0
M  V30 7125 C 667.329 -3.63561 -2.28301 0
M  V30 7126 C 666.562 -4.00279 -3.53005 0
M  V30 7127 O 666.785 -3.37463 -4.59864 0
M  V30 7128 O 665.719 -4.93441 -3.44673 0
M  V30 7129 H 669.545 -2.92394 -0.820958 0
M  V30 7130 H 667.13 -1.45475 -0.340197 0
M  V30 7131 H 669.012 -2.66958 -3.26054 0
M  V30 7132 H 667.687 -1.54926 -2.84217 0
M  V30 7133 H 666.594 -3.43136 -1.49025 0
M  V30 7134 H 667.927 -4.50673 -1.97875 0
M  V30 7135 N 669.579 0.400081 -1.52437 0
M  V30 7136 C 670.509 1.4947 -1.7939 0
M  V30 7137 C 671.49 1.57383 -0.645329 0
M  V30 7138 O 672.675 1.72511 -0.891826 0
M  V30 7139 C 669.805 2.87201 -1.95276 0
M  V30 7140 C 668.759 2.94134 -3.10917 0
M  V30 7141 C 668.085 4.34207 -3.1204 0
M  V30 7142 C 669.385 2.64791 -4.50203 0
M  V30 7143 H 671.079 1.27165 -2.71052 0
M  V30 7144 H 668.625 0.610312 -1.30427 0
M  V30 7145 H 670.578 3.63772 -2.12715 0
M  V30 7146 H 669.302 3.10819 -1.00294 0
M  V30 7147 H 667.961 2.20009 -2.93243 0
M  V30 7148 H 667.609 4.54848 -2.14761 0
M  V30 7149 H 667.309 4.39768 -3.89715 0
M  V30 7150 H 668.833 5.127 -3.31619 0
M  V30 7151 H 670.247 3.31083 -4.68035 0
M  V30 7152 H 668.644 2.81717 -5.29864 0
M  V30 7153 H 669.714 1.60184 -4.57678 0
M  V30 7154 N 671.057 1.43213 0.657864 0
M  V30 7155 C 671.967 1.50448 1.80007 0
M  V30 7156 C 672.983 0.39191 1.69529 0
M  V30 7157 O 674.159 0.645349 1.90781 0
M  V30 7158 C 671.224 1.42062 3.16258 0
M  V30 7159 C 670.285 2.63951 3.38568 0
M  V30 7160 C 669.518 2.55956 4.68318 0
M  V30 7161 O 669.741 1.60473 5.47361 0
M  V30 7162 O 668.675 3.46378 4.92245 0
M  V30 7163 H 672.501 2.4689 1.76858 0
M  V30 7164 H 670.086 1.25163 0.81576 0
M  V30 7165 H 671.968 1.3981 3.97531 0
M  V30 7166 H 670.643 0.487524 3.20008 0
M  V30 7167 H 669.55 2.71776 2.57077 0
M  V30 7168 H 670.883 3.56217 3.39662 0
M  V30 7169 N 672.536 -0.895792 1.29666 0
M  V30 7170 C 673.761 -1.68528 1.20885 0
M  V30 7171 C 674.186 -1.8673 -0.226595 0
M  V30 7172 O 673.544 -1.39044 -1.16347 0
M  V30 7173 C 673.592 -3.04512 1.93144 0
M  V30 7174 O 672.696 -3.92963 1.25115 0
M  V30 7175 H 672.037 -0.515371 0.418675 0
M  V30 7176 H 674.567 -1.11878 1.71302 0
M  V30 7177 H 674.577 -3.54628 2.0175 0
M  V30 7178 H 673.252 -2.90582 2.97548 0
M  V30 7179 H 671.829 -3.51399 1.24794 0
M  V30 7180 N 674.014 -1.12206 -1.10668 0
M  V30 7181 C 675.239 -0.898938 -1.86906 0
M  V30 7182 C 675.664 0.546346 -1.79991 0
M  V30 7183 O 675.022 1.38655 -1.1681 0
M  V30 7184 C 675.07 -1.37529 -3.33344 0
M  V30 7185 O 674.174 -0.55218 -4.08687 0
M  V30 7186 H 673.515 -0.323163 -0.580053 0
M  V30 7187 H 676.045 -1.49355 -1.39837 0
M  V30 7188 H 676.055 -1.3733 -3.84193 0
M  V30 7189 H 674.73 -2.42767 -3.37693 0
M  V30 7190 H 673.307 -0.620947 -3.67694 0
M  V30 7191 N 675.492 1.28418 -0.913599 0
M  V30 7192 C 676.72 1.99106 -0.562536 0
M  V30 7193 C 677.135 1.68273 0.856137 0
M  V30 7194 O 676.492 0.935401 1.56705 0
M  V30 7195 C 676.543 3.5338 -0.761903 0
M  V30 7196 O 676.264 3.83127 -2.12475 0
M  V30 7197 C 677.765 4.41328 -0.417651 0
M  V30 7198 H 674.985 0.635798 -0.214481 0
M  V30 7199 H 677.529 1.63618 -1.22676 0
M  V30 7200 H 675.684 3.8713 -0.144676 0
M  V30 7201 H 676.098 4.77763 -2.16431 0
M  V30 7202 H 677.572 5.48642 -0.607919 0
M  V30 7203 H 678.049 4.34422 0.646108 0
M  V30 7204 H 678.655 4.13074 -1.01241 0
M  V30 7205 N 676.97 0.677563 1.42291 0
M  V30 7206 C 678.247 0.129803 1.95169 0
M  V30 7207 C 678.627 -1.35605 1.61786 0
M  V30 7208 O 677.975 -2.09361 0.915444 0
M  V30 7209 C 678.185 0.401889 3.46678 0
M  V30 7210 C 679.533 0.319889 4.23393 0
M  V30 7211 O 680.557 0.33579 3.54614 0
M  V30 7212 O 679.416 0.264459 5.4586 0
M  V30 7213 H 676.51 0.00447433 0.826988 0
M  V30 7214 H 679.056 0.752483 1.52105 0
M  V30 7215 H 677.828 1.43108 3.64192 0
M  V30 7216 H 677.451 -0.252662 3.96796 0
M  V30 7217 N 678.448 -1.51871 0.421078 0
M  V30 7218 C 679.358 -2.31077 -0.405069 0
M  V30 7219 C 680.374 -1.39301 -1.04265 0
M  V30 7220 O 681.55 -1.72376 -1.04157 0
M  V30 7221 C 678.615 -3.12556 -1.50032 0
M  V30 7222 C 677.676 -4.20088 -0.884559 0
M  V30 7223 C 676.909 -4.97673 -1.92762 0
M  V30 7224 O 677.132 -4.75696 -3.14753 0
M  V30 7225 O 676.066 -5.82203 -1.52719 0
M  V30 7226 H 679.892 -3.02742 0.241086 0
M  V30 7227 H 677.477 -1.48263 0.183991 0
M  V30 7228 H 679.359 -3.6326 -2.13589 0
M  V30 7229 H 678.034 -2.43672 -2.13086 0
M  V30 7230 H 676.941 -3.73502 -0.211379 0
M  V30 7231 H 678.274 -4.91298 -0.297763 0
M  V30 7232 N 679.926 -0.151884 -1.56866 0
M  V30 7233 C 681.151 0.508044 -2.01081 0
M  V30 7234 C 681.576 1.57306 -1.03134 0
M  V30 7235 O 680.934 1.81298 -0.0078309 0
M  V30 7236 C 680.982 1.08106 -3.44014 0
M  V30 7237 O 680.086 2.19577 -3.49084 0
M  V30 7238 H 679.427 0.123757 -0.652365 0
M  V30 7239 H 681.957 -0.250055 -2.03066 0
M  V30 7240 H 681.967 1.40851 -3.82916 0
M  V30 7241 H 680.642 0.301168 -4.14808 0
M  V30 7242 H 679.219 1.88023 -3.22027 0
M  V30 7243 N 681.404 1.57128 0.121893 0
M  V30 7244 C 682.314 2.03425 1.16857 0
M  V30 7245 C 683.33 0.954108 1.45509 0
M  V30 7246 O 684.506 1.26541 1.56682 0
M  V30 7247 C 681.571 2.42685 2.47599 0
M  V30 7248 C 680.632 3.64767 2.2637 0
M  V30 7249 C 679.865 4.02145 3.50878 0
M  V30 7250 O 680.088 3.39897 4.58068 0
M  V30 7251 O 679.022 4.95262 3.42051 0
M  V30 7252 H 682.848 2.92825 0.80544 0
M  V30 7253 H 680.433 1.45654 0.332477 0
M  V30 7254 H 682.315 2.68684 3.24634 0
M  V30 7255 H 680.99 1.56432 2.83392 0
M  V30 7256 H 679.897 3.43922 1.47203 0
M  V30 7257 H 681.23 4.51716 1.95482 0
M  V30 7258 N 682.882 -0.391992 1.52647 0
M  V30 7259 C 683.792 -1.503 1.80131 0
M  V30 7260 C 684.808 -1.59825 0.687882 0
M  V30 7261 O 685.984 -1.76218 0.975149 0
M  V30 7262 C 683.049 -2.85863 1.96171 0
M  V30 7263 C 682.11 -2.86084 3.20085 0
M  V30 7264 C 681.343 -4.15181 3.35351 0
M  V30 7265 O 681.566 -5.09981 2.55491 0
M  V30 7266 O 680.5 -4.22603 4.28591 0
M  V30 7267 H 684.326 -1.30007 2.74466 0
M  V30 7268 H 681.911 -0.579539 1.37701 0
M  V30 7269 H 683.793 -3.66236 2.08445 0
M  V30 7270 H 682.468 -3.06189 1.05025 0
M  V30 7271 H 681.375 -2.04504 3.13256 0
M  V30 7272 H 682.708 -2.7071 4.11068 0
M  V30 7273 N 684.36 -1.4356 -0.65026 0
M  V30 7274 C 685.27 -1.514 -1.79207 0
M  V30 7275 C 686.286 -0.400895 -1.69319 0
M  V30 7276 O 687.462 -0.655458 -1.90436 0
M  V30 7277 C 684.527 -1.43737 -3.155 0
M  V30 7278 C 683.588 -2.65743 -3.37163 0
M  V30 7279 C 682.821 -2.58436 -4.66954 0
M  V30 7280 O 683.044 -1.63374 -5.46503 0
M  V30 7281 O 681.978 -3.48984 -4.90402 0
M  V30 7282 H 685.804 -2.47825 -1.75547 0
M  V30 7283 H 683.389 -1.25594 -0.809111 0
M  V30 7284 H 685.271 -1.41916 -3.96784 0
M  V30 7285 H 683.946 -0.504488 -3.19745 0
M  V30 7286 H 682.853 -2.73136 -2.55632 0
M  V30 7287 H 684.186 -3.58014 -3.37768 0
M  V30 7288 N 685.838 0.888903 -1.30139 0
M  V30 7289 C 686.77 1.99972 -1.11999 0
M  V30 7290 C 687.783 1.62673 -0.0643619 0
M  V30 7291 O 688.972 1.75788 -0.309983 0
M  V30 7292 C 686.072 3.31904 -0.685059 0
M  V30 7293 C 685.245 3.97665 -1.82158 0
M  V30 7294 C 684.304 5.07894 -1.37585 0
M  V30 7295 O 683.33 5.2974 -2.08241 0
M  V30 7296 N 684.532 5.7995 -0.252697 0
M  V30 7297 H 687.297 2.16085 -2.07671 0
M  V30 7298 H 684.858 1.06175 -1.22223 0
M  V30 7299 H 686.85 4.03005 -0.369964 0
M  V30 7300 H 685.42 3.12084 0.179507 0
M  V30 7301 H 684.64 3.19787 -2.305 0
M  V30 7302 H 685.928 4.3834 -2.58332 0
M  V30 7303 H 685.326 5.647 0.336141 0
M  V30 7304 H 683.883 6.518 0.00296813 0
M  V30 7305 N 687.317 1.12792 1.10072 0
M  V30 7306 C 688.566 0.880232 1.81479 0
M  V30 7307 C 688.879 -0.595575 1.86312 0
M  V30 7308 O 690.085 -0.959979 2.53962 0
M  V30 7309 C 688.541 1.52514 3.25987 0
M  V30 7310 C 688.149 3.036 3.29441 0
M  V30 7311 C 689.893 1.35788 4.02196 0
M  V30 7312 C 687.8 3.61007 4.68431 0
M  V30 7313 H 686.73 0.325654 0.680048 0
M  V30 7314 H 689.381 1.35485 1.23758 0
M  V30 7315 H 687.763 0.978188 3.83728 0
M  V30 7316 H 688.937 3.64819 2.81502 0
M  V30 7317 H 687.252 3.19765 2.66719 0
M  V30 7318 H 689.849 1.76096 5.0487 0
M  V30 7319 H 690.192 0.301972 4.15203 0
M  V30 7320 H 690.725 1.87426 3.50879 0
M  V30 7321 H 687.464 4.66375 4.60625 0
M  V30 7322 H 686.984 3.04564 5.16721 0
M  V30 7323 H 688.663 3.60289 5.37402 0
M  V30 7324 N 688.795 -1.27931 0.920396 0
M  V30 7325 C 690.02 -1.99343 0.572478 0
M  V30 7326 C 690.445 -1.68267 -0.840696 0
M  V30 7327 O 689.803 -0.918805 -1.56294 0
M  V30 7328 C 689.851 -3.51698 0.796284 0
M  V30 7329 O 688.955 -4.12157 -0.141602 0
M  V30 7330 H 688.296 -0.626065 0.221221 0
M  V30 7331 H 690.826 -1.62921 1.23765 0
M  V30 7332 H 690.836 -4.01793 0.708984 0
M  V30 7333 H 689.511 -3.73649 1.82644 0
M  V30 7334 H 688.088 -3.729 -0.005007 0
M  V30 7335 N 690.273 -0.685099 -1.4193 0
M  V30 7336 C 691.55 -0.140152 -1.95097 0
M  V30 7337 C 691.93 1.34745 -1.62502 0
M  V30 7338 O 691.278 2.08872 -0.926534 0
M  V30 7339 C 691.488 -0.420268 -3.4646 0
M  V30 7340 C 692.836 -0.342338 -4.23218 0
M  V30 7341 O 693.86 -0.354592 -3.54431 0
M  V30 7342 O 692.719 -0.293404 -5.45712 0
M  V30 7343 H 689.813 -0.00885998 -0.826953 0
M  V30 7344 H 692.359 -0.760539 -1.51703 0
M  V30 7345 H 691.131 -1.45037 -3.63428 0
M  V30 7346 H 690.754 0.231616 -3.96925 0
M  V30 7347 N 691.751 1.51645 -0.429126 0
M  V30 7348 C 693.162 1.86665 0.0359003 0
M  V30 7349 C 693.513 1.34677 1.42676 0
M  V30 7350 O 692.638 0.694195 2.04963 0
M  V30 7351 C 693.233 3.38724 0.0719221 0
M  V30 7352 C 691.792 3.7331 0.481336 0
M  V30 7353 C 690.939 2.75313 -0.331329 0
M  V30 7354 H 693.89 1.44987 -0.645333 0
M  V30 7355 H 693.911 3.7011 0.883118 0
M  V30 7356 H 693.423 3.76532 -0.940495 0
M  V30 7357 H 691.524 3.41088 1.49966 0
M  V30 7358 H 691.637 4.78631 0.211837 0
M  V30 7359 H 690.001 2.53839 0.209204 0
M  V30 7360 H 690.784 3.15963 -1.34247 0
M  V30 7361 N 693.229 0.160201 1.56784 0
M  V30 7362 C 694.645 -0.196089 1.58391 0
M  V30 7363 C 694.845 -1.63689 1.17508 0
M  V30 7364 O 693.901 -2.36613 0.881506 0
M  V30 7365 C 695.214 0.0746449 3.00607 0
M  V30 7366 C 696.762 0.0119762 3.12998 0
M  V30 7367 C 697.237 0.255551 4.57286 0
M  V30 7368 N 698.728 0.202938 4.62755 0
M  V30 7369 C 699.463 0.365731 5.72232 0
M  V30 7370 N 698.959 0.586972 6.90309 0
M  V30 7371 N 700.752 0.302411 5.61286 0
M  V30 7372 H 692.903 1.1008 1.81648 0
M  V30 7373 H 695.166 0.436779 0.841384 0
M  V30 7374 H 694.872 1.07231 3.34954 0
M  V30 7375 H 694.746 -0.638802 3.71751 0
M  V30 7376 H 697.133 -0.976254 2.78484 0
M  V30 7377 H 697.214 0.75796 2.44313 0
M  V30 7378 H 696.858 1.24094 4.92507 0
M  V30 7379 H 696.788 -0.510912 5.24116 0
M  V30 7380 H 699.279 0.0371328 3.77882 0
M  V30 7381 H 699.592 0.700941 7.69615 0
M  V30 7382 H 697.937 0.623453 6.92198 0
M  V30 7383 H 701.128 0.130238 4.67919 0
M  V30 7384 H 701.301 0.432712 6.46554 0
M  V30 7385 N 694.707 -1.5719 -0.113559 0
M  V30 7386 C 695.953 -1.85412 -0.821597 0
M  V30 7387 C 696.286 -0.746722 -1.7927 0
M  V30 7388 O 695.561 0.246971 -1.92926 0
M  V30 7389 C 695.844 -3.24233 -1.56669 0
M  V30 7390 C 695.697 -4.45578 -0.614823 0
M  V30 7391 C 697.016 -3.60697 -2.52161 0
M  V30 7392 H 694.135 -0.674406 -0.29723 0
M  V30 7393 H 696.777 -1.89807 -0.085694 0
M  V30 7394 H 694.927 -3.20617 -2.19401 0
M  V30 7395 H 696.599 -4.613 0.00407137 0
M  V30 7396 H 694.842 -4.33738 0.0732332 0
M  V30 7397 H 695.513 -5.39395 -1.17292 0
M  V30 7398 H 697.989 -3.65139 -1.99532 0
M  V30 7399 H 696.865 -4.58798 -3.01323 0
M  V30 7400 H 697.126 -2.88403 -3.35076 0
M  V30 7401 N 696.185 0.383891 -1.52853 0
M  V30 7402 C 697.596 0.961591 -1.60032 0
M  V30 7403 C 697.947 1.90819 -0.456333 0
M  V30 7404 O 697.072 2.12288 0.419873 0
M  V30 7405 C 697.667 1.75078 -2.90057 0
M  V30 7406 C 696.226 2.2781 -2.99632 0
M  V30 7407 C 695.373 1.08512 -2.55187 0
M  V30 7408 H 698.324 0.163269 -1.57858 0
M  V30 7409 H 698.345 2.61046 -2.7683 0
M  V30 7410 H 697.857 1.06157 -3.73299 0
M  V30 7411 H 695.958 3.00028 -2.20939 0
M  V30 7412 H 696.071 2.56947 -4.0437 0
M  V30 7413 H 694.435 1.44667 -2.09627 0
M  V30 7414 H 695.218 0.41118 -3.40829 0
M  V30 7415 N 697.663 1.43903 0.642637 0
M  V30 7416 C 698.573 1.52349 1.78401 0
M  V30 7417 C 699.589 0.409869 1.69104 0
M  V30 7418 O 700.765 0.665548 1.90085 0
M  V30 7419 C 697.83 1.45408 3.14734 0
M  V30 7420 C 696.891 2.67528 3.35749 0
M  V30 7421 C 696.124 2.60909 4.65577 0
M  V30 7422 O 696.347 1.6627 5.45628 0
M  V30 7423 O 695.281 3.5158 4.88544 0
M  V30 7424 H 699.107 2.48752 1.7423 0
M  V30 7425 H 696.692 1.26021 0.802439 0
M  V30 7426 H 698.574 1.44019 3.96026 0
M  V30 7427 H 697.249 0.521437 3.19473 0
M  V30 7428 H 696.156 2.74487 2.5418 0
M  V30 7429 H 697.489 3.598 3.35864 0
M  V30 7430 N 699.141 -0.881989 1.30609 0
M  V30 7431 C 700.39 -1.62878 1.18969 0
M  V30 7432 C 700.703 -1.93946 -0.253859 0
M  V30 7433 O 701.909 -2.67008 -0.491813 0
M  V30 7434 C 700.365 -2.93573 2.0819 0
M  V30 7435 C 699.973 -2.70034 3.57471 0
M  V30 7436 C 701.717 -3.71543 2.0532 0
M  V30 7437 C 699.624 -3.96563 4.38739 0
M  V30 7438 H 698.554 -0.611092 0.441682 0
M  V30 7439 H 701.205 -0.976201 1.55379 0
M  V30 7440 H 699.587 -3.6014 1.64666 0
M  V30 7441 H 700.761 -2.11949 4.09163 0
M  V30 7442 H 699.076 -2.05435 3.62195 0
M  V30 7443 H 701.673 -4.65386 2.63288 0
M  V30 7444 H 702.016 -4.03167 1.03739 0
M  V30 7445 H 702.549 -3.11842 2.46981 0
M  V30 7446 H 699.288 -3.70095 5.41027 0
M  V30 7447 H 698.808 -4.54142 3.9181 0
M  V30 7448 H 700.487 -4.64557 4.50329 0
M  V30 7449 N 700.619 -1.13374 -1.09472 0
M  V30 7450 C 702.035 -0.871846 -1.33682 0
M  V30 7451 C 702.235 0.492847 -1.9538 0
M  V30 7452 O 701.291 1.23946 -2.19985 0
M  V30 7453 C 702.604 -1.99608 -2.24893 0
M  V30 7454 C 704.152 -2.02812 -2.38404 0
M  V30 7455 C 704.627 -3.14497 -3.3295 0
M  V30 7456 N 706.118 -3.14004 -3.40523 0
M  V30 7457 C 706.853 -3.97061 -4.13679 0
M  V30 7458 N 706.349 -4.90131 -4.89636 0
M  V30 7459 N 708.142 -3.85162 -4.09398 0
M  V30 7460 H 700.293 -2.01288 -0.677995 0
M  V30 7461 H 702.556 -0.876492 -0.361201 0
M  V30 7462 H 702.262 -2.98 -1.86786 0
M  V30 7463 H 702.136 -1.90981 -3.25278 0
M  V30 7464 H 704.523 -1.05034 -2.75775 0
M  V30 7465 H 704.604 -2.15511 -1.37799 0
M  V30 7466 H 704.248 -4.12514 -2.96302 0
M  V30 7467 H 704.178 -2.99035 -4.33458 0
M  V30 7468 H 706.669 -2.46587 -2.86362 0
M  V30 7469 H 706.982 -5.49996 -5.42885 0
M  V30 7470 H 705.327 -4.94138 -4.88726 0
M  V30 7471 H 708.518 -3.11779 -3.49158 0
M  V30 7472 H 708.691 -4.5012 -4.6615 0
M  V30 7473 N 702.098 1.27442 -0.927168 0
M  V30 7474 C 703.03 2.25975 -0.383158 0
M  V30 7475 C 704.043 1.55382 0.485832 0
M  V30 7476 O 705.232 1.75986 0.298541 0
M  V30 7477 C 702.332 3.35629 0.469688 0
M  V30 7478 C 701.505 4.35747 -0.379886 0
M  V30 7479 C 700.564 5.24598 0.410227 0
M  V30 7480 O 699.59 5.68909 -0.181888 0
M  V30 7481 N 700.792 5.54737 1.71017 0
M  V30 7482 H 703.557 2.7329 -1.23015 0
M  V30 7483 H 701.118 1.41063 -0.794539 0
M  V30 7484 H 703.11 3.92015 1.00532 0
M  V30 7485 H 701.68 2.87919 1.21744 0
M  V30 7486 H 700.9 3.78634 -1.09682 0
M  V30 7487 H 702.188 4.99648 -0.960717 0
M  V30 7488 H 701.586 5.20594 2.21356 0
M  V30 7489 H 700.143 6.13824 2.19234 0
M  V30 7490 N 703.576 0.692616 1.41565 0
M  V30 7491 C 704.987 0.297478 1.84315 0
M  V30 7492 C 705.338 -1.16379 1.57957 0
M  V30 7493 O 704.463 -1.89303 1.0485 0
M  V30 7494 C 705.058 0.533136 3.34579 0
M  V30 7495 C 703.617 0.191944 3.7591 0
M  V30 7496 C 702.764 0.816873 2.64995 0
M  V30 7497 H 705.715 0.893488 1.31158 0
M  V30 7498 H 705.736 -0.209105 3.79925 0
M  V30 7499 H 705.248 1.59674 3.53731 0
M  V30 7500 H 703.349 -0.867512 3.6236 0
M  V30 7501 H 703.462 0.644902 4.7474 0
M  V30 7502 H 701.826 0.246715 2.53502 0
M  V30 7503 H 702.609 1.88429 2.86966 0
M  V30 7504 N 705.054 -1.51416 0.437162 0
M  V30 7505 C 706.303 -2.01275 -0.130865 0
M  V30 7506 C 706.616 -1.32593 -1.438 0
M  V30 7507 O 707.822 -1.7342 -2.08897 0
M  V30 7508 C 706.278 -3.5878 -0.283763 0
M  V30 7509 C 705.886 -4.36399 1.01293 0
M  V30 7510 C 707.63 -4.16786 -0.805569 0
M  V30 7511 C 705.537 -5.85608 0.825687 0
M  V30 7512 H 704.467 -0.752157 -0.0526818 0
M  V30 7513 H 707.118 -1.74524 0.566896 0
M  V30 7514 H 705.5 -3.81976 -1.04452 0
M  V30 7515 H 706.674 -4.24948 1.78201 0
M  V30 7516 H 704.989 -3.89843 1.46326 0
M  V30 7517 H 707.586 -5.25972 -0.962146 0
M  V30 7518 H 707.929 -3.75949 -1.78796 0
M  V30 7519 H 708.462 -3.97666 -0.103125 0
M  V30 7520 H 705.201 -6.30857 1.78045 0
M  V30 7521 H 704.721 -5.99723 0.0964029 0
M  V30 7522 H 706.4 -6.45226 0.478815 0
M  V30 7523 N 706.532 -0.168513 -1.56696 0
M  V30 7524 C 707.809 0.523367 -1.88468 0
M  V30 7525 C 708.189 1.81503 -1.07796 0
M  V30 7526 O 707.537 2.27859 -0.171045 0
M  V30 7527 C 707.747 0.767991 -3.40445 0
M  V30 7528 C 709.095 1.09924 -4.10124 0
M  V30 7529 O 710.119 0.856625 -3.45746 0
M  V30 7530 O 708.978 1.55681 -5.23856 0
M  V30 7531 H 706.072 0.269447 -0.781874 0
M  V30 7532 H 708.618 -0.206739 -1.68436 0
M  V30 7533 H 707.39 -0.145254 -3.9103 0
M  V30 7534 H 707.013 1.55151 -3.66079 0
M  V30 7535 N 708.01 1.57248 0.105221 0
M  V30 7536 C 708.958 2.02337 1.14728 0
M  V30 7537 C 709.952 0.922652 1.42069 0
M  V30 7538 O 711.158 1.10785 1.41869 0
M  V30 7539 H 707.533 0.644682 0.387155 0
M  V30 7540 H 709.504 2.89063 0.740607 0
M  V30 7541 C 708.253 2.45513 2.46209 0
M  V30 7542 H 707.576 3.29785 2.26013 0
M  V30 7543 H 709.016 2.80846 3.1765 0
M  V30 7544 C 707.475 1.3243 3.09781 0
M  V30 7545 O 708.005 0.647841 3.96442 0
M  V30 7546 N 706.211 1.07785 2.69872 0
M  V30 7547 H 705.758 1.62973 1.99493 0
M  V30 7548 H 705.716 0.323204 3.12734 0
M  V30 7549 N 709.488 -0.375779 1.53054 0
M  V30 7550 C 710.713 -1.14484 1.7294 0
M  V30 7551 C 711.138 -1.82572 0.452668 0
M  V30 7552 O 710.496 -1.71343 -0.592567 0
M  V30 7553 C 710.544 -2.15857 2.88857 0
M  V30 7554 O 709.648 -3.22725 2.56753 0
M  V30 7555 H 708.989 -0.332666 0.574656 0
M  V30 7556 H 711.519 -0.436025 1.999 0
M  V30 7557 H 711.529 -2.59631 3.14731 0
M  V30 7558 H 710.204 -1.65689 3.81471 0
M  V30 7559 H 708.781 -2.83996 2.41663 0
M  V30 7560 N 710.966 -1.44241 -0.634997 0
M  V30 7561 C 712.213 -1.46821 -1.39463 0
M  V30 7562 C 712.541 -0.0993362 -1.94246 0
M  V30 7563 O 711.796 0.898325 -1.73864 0
M  V30 7564 C 712.095 -2.47279 -2.58046 0
M  V30 7565 C 711.761 -3.92703 -2.21574 0
M  V30 7566 C 710.423 -4.32306 -2.1134 0
M  V30 7567 C 712.775 -4.84271 -1.92695 0
M  V30 7568 C 710.103 -5.61407 -1.70409 0
M  V30 7569 C 712.455 -6.13755 -1.53258 0
M  V30 7570 C 711.119 -6.52316 -1.41562 0
M  V30 7571 H 710.389 -0.537256 -0.51033 0
M  V30 7572 H 713.036 -1.77431 -0.720441 0
M  V30 7573 H 711.341 -2.10138 -3.3068 0
M  V30 7574 H 713.038 -2.46523 -3.16271 0
M  V30 7575 H 709.628 -3.61369 -2.30456 0
M  V30 7576 H 713.812 -4.54432 -1.99513 0
M  V30 7577 H 709.068 -5.90105 -1.59955 0
M  V30 7578 H 713.242 -6.84168 -1.29949 0
M  V30 7579 H 710.869 -7.52255 -1.09619 0
M  V30 7580 N 712.444 0.87505 -1.31075 0
M  V30 7581 C 713.721 1.60976 -1.11113 0
M  V30 7582 C 714.101 2.08409 0.336006 0
M  V30 7583 O 713.449 1.85858 1.32924 0
M  V30 7584 C 713.659 2.77166 -2.12085 0
M  V30 7585 C 715.007 3.47254 -2.44335 0
M  V30 7586 O 716.031 2.87367 -2.10472 0
M  V30 7587 O 714.89 4.55276 -3.02301 0
M  V30 7588 H 711.984 0.707982 -0.427424 0
M  V30 7589 H 714.53 0.920957 -1.42536 0
M  V30 7590 H 713.302 2.39494 -3.09449 0
M  V30 7591 H 712.925 3.53737 -1.81538 0
M  V30 7592 N 713.922 1.13953 1.08869 0
M  V30 7593 C 715.171 0.899431 1.80536 0
M  V30 7594 C 715.484 -0.575781 1.86933 0
M  V30 7595 O 716.69 -0.932988 2.54966 0
M  V30 7596 C 715.146 1.55963 3.24351 0
M  V30 7597 C 714.754 3.07077 3.26202 0
M  V30 7598 C 716.498 1.40046 4.00733 0
M  V30 7599 C 714.405 3.65955 4.64576 0
M  V30 7600 H 713.335 0.332849 0.676556 0
M  V30 7601 H 715.986 1.3679 1.22314 0
M  V30 7602 H 714.368 1.01883 3.82669 0
M  V30 7603 H 715.542 3.67785 2.77617 0
M  V30 7604 H 713.857 3.22576 2.63312 0
M  V30 7605 H 716.454 1.81441 5.02974 0
M  V30 7606 H 716.797 0.345993 4.1486 0
M  V30 7607 H 717.33 1.91137 3.48872 0
M  V30 7608 H 714.069 4.71234 4.55652 0
M  V30 7609 H 713.589 3.10027 5.13462 0
M  V30 7610 H 715.268 3.65968 5.33551 0
M  V30 7611 N 715.4 -1.26948 0.933913 0
M  V30 7612 C 716.332 -2.25768 0.395137 0
M  V30 7613 C 717.345 -1.55637 -0.477585 0
M  V30 7614 O 718.534 -1.76142 -0.289204 0
M  V30 7615 C 715.634 -3.35874 -0.451882 0
M  V30 7616 C 714.807 -4.3554 0.40299 0
M  V30 7617 C 713.866 -5.24809 -0.3824 0
M  V30 7618 O 712.892 -5.68805 0.212057 0
M  V30 7619 N 714.094 -5.55636 -1.68072 0
M  V30 7620 H 716.859 -2.72634 1.24463 0
M  V30 7621 H 714.42 -1.40639 0.802008 0
M  V30 7622 H 716.412 -3.92542 -0.984516 0
M  V30 7623 H 714.982 -2.8856 -1.20215 0
M  V30 7624 H 714.202 -3.78047 1.11688 0
M  V30 7625 H 715.49 -4.99131 0.987201 0
M  V30 7626 H 714.888 -5.2176 -2.18592 0
M  V30 7627 H 713.445 -6.14978 -2.15975 0
M  V30 7628 N 716.879 -0.700114 -1.41195 0
M  V30 7629 C 718.104 -0.240704 -2.05998 0
M  V30 7630 C 718.529 1.10313 -1.52357 0
M  V30 7631 O 717.887 1.69154 -0.652424 0
M  V30 7632 C 717.935 -0.213783 -3.59966 0
M  V30 7633 O 717.039 0.809933 -4.04368 0
M  V30 7634 H 716.38 -0.116471 -0.653705 0
M  V30 7635 H 718.91 -0.956251 -1.80878 0
M  V30 7636 H 718.92 -0.0461852 -4.07974 0
M  V30 7637 H 717.595 -1.19454 -3.98376 0
M  V30 7638 H 716.172 0.611319 -3.67855 0
M  V30 7639 N 718.357 1.51182 -0.445186 0
M  V30 7640 C 719.773 1.59299 -0.0978954 0
M  V30 7641 C 719.973 1.4555 1.39346 0
M  V30 7642 O 719.029 1.30073 2.16419 0
M  V30 7643 C 720.342 2.94133 -0.625005 0
M  V30 7644 C 721.89 3.07463 -0.586137 0
M  V30 7645 C 722.365 4.44832 -1.09035 0
M  V30 7646 N 723.856 4.51173 -1.04867 0
M  V30 7647 C 724.591 5.55804 -1.40959 0
M  V30 7648 N 724.087 6.67816 -1.84375 0
M  V30 7649 N 725.88 5.46205 -1.32726 0
M  V30 7650 H 718.031 1.58363 -1.41544 0
M  V30 7651 H 720.294 0.746946 -0.58376 0
M  V30 7652 H 720 3.09589 -1.66876 0
M  V30 7653 H 719.874 3.77161 -0.0542262 0
M  V30 7654 H 722.261 2.9167 0.448646 0
M  V30 7655 H 722.342 2.26255 -1.19341 0
M  V30 7656 H 721.986 4.61372 -2.12364 0
M  V30 7657 H 721.916 5.24591 -0.459539 0
M  V30 7658 H 724.407 3.70783 -0.729932 0
M  V30 7659 H 724.72 7.43683 -2.10131 0
M  V30 7660 H 723.065 6.69003 -1.88308 0
M  V30 7661 H 726.256 4.57583 -0.986678 0
M  V30 7662 H 726.429 6.27634 -1.61182 0
M  V30 7663 N 719.835 0.176821 1.56605 0
M  V30 7664 C 721.112 -0.513365 1.88743 0
M  V30 7665 C 721.492 -1.80929 1.08757 0
M  V30 7666 O 720.84 -2.27765 0.183127 0
M  V30 7667 C 721.05 -0.749925 3.40848 0
M  V30 7668 C 722.398 -1.07747 4.10701 0
M  V30 7669 O 723.422 -0.838277 3.46196 0
M  V30 7670 O 722.281 -1.52901 5.24675 0
M  V30 7671 H 719.375 -0.265296 0.783292 0
M  V30 7672 H 721.921 0.215669 1.68324 0
M  V30 7673 H 720.693 0.16599 3.90948 0
M  V30 7674 H 720.316 -1.53208 3.66897 0
M  V30 7675 N 721.313 -1.57302 -0.09688 0
M  V30 7676 C 722.553 -1.87823 -0.806334 0
M  V30 7677 C 722.917 -0.767593 -1.75989 0
M  V30 7678 O 724.118 -0.955173 -2.51257 0
M  V30 7679 C 722.389 -3.23585 -1.51749 0
M  V30 7680 S 723.948 -3.75795 -2.26547 0
M  V30 7681 H 720.766 -0.658281 -0.268676 0
M  V30 7682 H 723.368 -1.95397 -0.0635476 0
M  V30 7683 H 722.072 -4.0234 -0.809348 0
M  V30 7684 H 721.603 -3.19145 -2.30021 0
M  V30 7685 H 723.618 -3.49068 -3.52656 0
M  V30 7686 N 722.791 0.367657 -1.53252 0
M  V30 7687 C 724.04 1.10782 -1.68554 0
M  V30 7688 C 724.353 1.90523 -0.442765 0
M  V30 7689 O 725.559 2.6729 -0.47629 0
M  V30 7690 C 724.015 2.01863 -2.97959 0
M  V30 7691 C 723.623 1.27443 -4.29491 0
M  V30 7692 C 725.367 2.75883 -3.22628 0
M  V30 7693 C 723.274 2.17414 -5.49987 0
M  V30 7694 H 722.204 0.417272 -0.628013 0
M  V30 7695 H 724.855 0.368971 -1.79752 0
M  V30 7696 H 723.237 2.7947 -2.80558 0
M  V30 7697 H 724.411 0.549138 -4.57516 0
M  V30 7698 H 722.726 0.652935 -4.11249 0
M  V30 7699 H 725.323 3.43421 -4.09837 0
M  V30 7700 H 725.666 3.41138 -2.38601 0
M  V30 7701 H 726.199 2.0536 -3.40693 0
M  V30 7702 H 722.938 1.5674 -6.36485 0
M  V30 7703 H 722.458 2.87799 -5.26243 0
M  V30 7704 H 724.137 2.77019 -5.84696 0
M  V30 7705 N 724.269 1.44576 0.627338 0
M  V30 7706 C 725.494 1.51271 1.41887 0
M  V30 7707 C 725.919 0.139814 1.8758 0
M  V30 7708 O 725.277 -0.871746 1.58966 0
M  V30 7709 C 725.325 2.48529 2.61277 0
M  V30 7710 O 724.429 1.98944 3.61241 0
M  V30 7711 H 723.77 0.510668 0.424399 0
M  V30 7712 H 726.3 1.89746 0.765356 0
M  V30 7713 H 726.31 2.66689 3.08773 0
M  V30 7714 H 724.985 3.48249 2.27366 0
M  V30 7715 H 723.562 1.90568 3.20528 0
M  V30 7716 N 725.747 -0.868086 1.31537 0
M  V30 7717 C 726.694 -1.97548 1.19346 0
M  V30 7718 C 727.664 -1.65913 0.0787922 0
M  V30 7719 O 728.849 -1.89129 0.251985 0
M  V30 7720 C 725.989 -3.32922 0.908692 0
M  V30 7721 C 725.102 -3.77141 2.10687 0
M  V30 7722 C 724.237 -5.01241 1.75873 0
M  V30 7723 C 723.276 -5.37914 2.92088 0
M  V30 7724 N 722.413 -6.53192 2.57457 0
M  V30 7725 H 727.253 -2.07307 2.14074 0
M  V30 7726 H 724.79 -1.01483 1.06487 0
M  V30 7727 H 726.748 -4.10867 0.724138 0
M  V30 7728 H 725.378 -3.228 -0.0017611 0
M  V30 7729 H 724.43 -2.94961 2.40213 0
M  V30 7730 H 725.742 -4.00248 2.97663 0
M  V30 7731 H 724.896 -5.86858 1.53891 0
M  V30 7732 H 723.635 -4.80041 0.86091 0
M  V30 7733 H 722.64 -4.50814 3.14717 0
M  V30 7734 H 723.865 -5.61077 3.82582 0
M  V30 7735 H 721.811 -6.33536 1.702 0
M  V30 7736 H 721.728 -6.76252 3.37963 0
M  V30 7737 H 722.996 -7.41997 2.38873 0
M  V30 7738 N 727.225 -1.14528 -1.08264 0
M  V30 7739 C 728.172 -0.833556 -2.15222 0
M  V30 7740 C 729.142 0.209539 -1.64773 0
M  V30 7741 O 730.327 0.0791388 -1.90636 0
M  V30 7742 C 727.467 -0.318799 -3.43624 0
M  V30 7743 C 726.58 -1.42237 -4.07913 0
M  V30 7744 C 725.715 -0.864704 -5.24115 0
M  V30 7745 C 724.754 -1.94585 -5.80347 0
M  V30 7746 N 723.891 -1.40525 -6.87893 0
M  V30 7747 H 728.731 -1.74965 -2.41228 0
M  V30 7748 H 726.268 -0.873169 -1.18381 0
M  V30 7749 H 728.226 -0.00213088 -4.172 0
M  V30 7750 H 726.856 0.560397 -3.17898 0
M  V30 7751 H 725.908 -1.8554 -3.32083 0
M  V30 7752 H 727.22 -2.23901 -4.45724 0
M  V30 7753 H 726.374 -0.500025 -6.04636 0
M  V30 7754 H 725.113 -0.0171219 -4.87697 0
M  V30 7755 H 724.118 -2.31946 -4.98479 0
M  V30 7756 H 725.343 -2.79704 -6.18823 0
M  V30 7757 H 723.289 -0.579873 -6.53432 0
M  V30 7758 H 723.206 -2.15825 -7.24538 0
M  V30 7759 H 724.474 -1.06852 -7.72142 0
M  V30 7760 N 728.703 1.26451 -0.940633 0
M  V30 7761 C 729.633 2.28773 -0.467479 0
M  V30 7762 C 730.614 1.63218 0.478955 0
M  V30 7763 O 731.799 1.90427 0.380929 0
M  V30 7764 C 728.929 3.46259 0.268656 0
M  V30 7765 C 727.883 4.23898 -0.591171 0
M  V30 7766 C 727.209 5.33993 0.274891 0
M  V30 7767 C 728.509 4.87974 -1.86223 0
M  V30 7768 H 730.203 2.68601 -1.32265 0
M  V30 7769 H 727.749 1.29123 -0.637436 0
M  V30 7770 H 729.702 4.16951 0.610696 0
M  V30 7771 H 728.426 3.05383 1.15796 0
M  V30 7772 H 727.085 3.54969 -0.916098 0
M  V30 7773 H 726.733 4.89358 1.16353 0
M  V30 7774 H 726.433 5.86849 -0.297006 0
M  V30 7775 H 727.957 6.07523 0.612213 0
M  V30 7776 H 729.371 5.50883 -1.58747 0
M  V30 7777 H 727.768 5.50945 -2.37866 0
M  V30 7778 H 728.838 4.10945 -2.57394 0
M  V30 7779 N 730.181 0.707592 1.40822 0
M  V30 7780 C 731.091 0.0507246 2.34545 0
M  V30 7781 C 732.107 -0.752727 1.56876 0
M  V30 7782 O 733.283 -0.687524 1.89302 0
M  V30 7783 C 730.348 -0.865731 3.35717 0
M  V30 7784 C 729.409 -0.0531313 4.29267 0
M  V30 7785 C 728.642 -0.925939 5.25606 0
M  V30 7786 O 728.865 -2.16531 5.27703 0
M  V30 7787 O 727.799 -0.369194 6.00767 0
M  V30 7788 H 731.625 0.823587 2.9232 0
M  V30 7789 H 729.21 0.46801 1.4188 0
M  V30 7790 H 731.092 -1.39091 3.97783 0
M  V30 7791 H 729.767 -1.61788 2.80368 0
M  V30 7792 H 728.674 0.516931 3.70511 0
M  V30 7793 H 730.007 0.660617 4.87747 0
M  V30 7794 N 731.66 -1.50943 0.453197 0
M  V30 7795 C 733.076 -1.59245 0.106342 0
M  V30 7796 C 733.276 -1.46287 -1.38572 0
M  V30 7797 O 732.332 -1.31219 -2.15726 0
M  V30 7798 C 733.645 -2.93797 0.640595 0
M  V30 7799 C 735.193 -3.07148 0.602435 0
M  V30 7800 C 735.668 -4.44247 1.11393 0
M  V30 7801 N 737.159 -4.50611 1.07258 0
M  V30 7802 C 737.894 -5.55049 1.43905 0
M  V30 7803 N 737.39 -6.66828 1.87914 0
M  V30 7804 N 739.183 -5.45494 1.35621 0
M  V30 7805 H 731.334 -1.5761 1.42382 0
M  V30 7806 H 733.597 -0.74384 0.587713 0
M  V30 7807 H 733.303 -3.087 1.68515 0
M  V30 7808 H 733.177 -3.77127 0.0742272 0
M  V30 7809 H 735.564 -2.91903 -0.433171 0
M  V30 7810 H 735.645 -2.25619 1.20539 0
M  V30 7811 H 735.289 -4.60239 2.14808 0
M  V30 7812 H 735.219 -5.2434 0.487353 0
M  V30 7813 H 737.71 -3.70391 0.749585 0
M  V30 7814 H 738.023 -7.42558 2.14072 0
M  V30 7815 H 736.368 -6.67995 1.91853 0
M  V30 7816 H 739.559 -4.57053 1.01093 0
M  V30 7817 H 739.732 -6.2677 1.64508 0
M  V30 7818 N 733.138 -0.185124 -1.56509 0
M  V30 7819 C 734.068 0.735098 -2.21627 0
M  V30 7820 C 735.049 1.2288 -1.1762 0
M  V30 7821 O 736.234 1.27945 -1.46095 0
M  V30 7822 C 733.364 1.95889 -2.86783 0
M  V30 7823 C 732.318 1.6005 -3.96948 0
M  V30 7824 C 731.644 2.90009 -4.4922 0
M  V30 7825 C 732.944 0.818008 -5.15855 0
M  V30 7826 H 734.638 0.192274 -2.98782 0
M  V30 7827 H 732.184 0.0910393 -1.43712 0
M  V30 7828 H 734.137 2.60779 -3.31017 0
M  V30 7829 H 732.861 2.52608 -2.07018 0
M  V30 7830 H 731.52 0.975237 -3.5339 0
M  V30 7831 H 731.168 3.44797 -3.6623 0
M  V30 7832 H 730.868 2.66778 -5.23549 0
M  V30 7833 H 732.392 3.55904 -4.9615 0
M  V30 7834 H 733.806 1.36979 -5.56695 0
M  V30 7835 H 732.203 0.684207 -5.96187 0
M  V30 7836 H 733.273 -0.182939 -4.84555 0
M  V30 7837 N 734.616 1.57351 0.0885366 0
M  V30 7838 C 735.526 2.05858 1.12516 0
M  V30 7839 C 736.542 0.984758 1.43452 0
M  V30 7840 O 737.718 1.29836 1.53963 0
M  V30 7841 C 734.783 2.47882 2.42395 0
M  V30 7842 C 733.844 3.69487 2.18582 0
M  V30 7843 C 733.077 4.09497 3.42268 0
M  V30 7844 O 733.3 3.49536 4.50755 0
M  V30 7845 O 732.234 5.02406 3.31469 0
M  V30 7846 H 736.06 2.94467 0.743146 0
M  V30 7847 H 733.645 1.46326 0.301507 0
M  V30 7848 H 735.527 2.75509 3.18862 0
M  V30 7849 H 734.202 1.62408 2.8001 0
M  V30 7850 H 733.109 3.46967 1.39875 0
M  V30 7851 H 734.442 4.55761 1.85857 0
M  V30 7852 N 736.094 -0.359525 1.53444 0
M  V30 7853 C 737.319 -1.12644 1.74144 0
M  V30 7854 C 737.744 -1.82082 0.472007 0
M  V30 7855 O 737.102 -1.71962 -0.57436 0
M  V30 7856 C 737.15 -2.12781 2.9113 0
M  V30 7857 O 736.254 -3.19984 2.60162 0
M  V30 7858 H 735.595 -0.326553 0.578152 0
M  V30 7859 H 738.125 -0.414798 2.00351 0
M  V30 7860 H 738.135 -2.56278 3.17467 0
M  V30 7861 H 736.81 -1.61634 3.83207 0
M  V30 7862 H 735.387 -2.81417 2.44661 0
M  V30 7863 N 737.572 -1.44907 -0.619662 0
M  V30 7864 C 738.482 -1.55168 -1.75955 0
M  V30 7865 C 739.498 -0.43672 -1.6843 0
M  V30 7866 O 740.674 -0.695704 -1.89002 0
M  V30 7867 C 737.739 -1.50397 -3.12381 0
M  V30 7868 C 736.8 -2.72835 -3.31451 0
M  V30 7869 C 736.033 -2.68283 -4.61368 0
M  V30 7870 O 736.256 -1.74929 -5.42914 0
M  V30 7871 O 735.19 -3.59308 -4.82889 0
M  V30 7872 H 739.016 -2.51493 -1.7025 0
M  V30 7873 H 736.601 -1.27282 -0.782289 0
M  V30 7874 H 738.483 -1.50301 -3.93685 0
M  V30 7875 H 737.158 -0.572197 -3.18603 0
M  V30 7876 H 736.065 -2.78496 -2.49781 0
M  V30 7877 H 737.398 -3.65098 -3.30098 0
M  V30 7878 N 739.05 0.861098 -1.31996 0
M  V30 7879 C 740.327 1.59788 -1.12814 0
M  V30 7880 C 740.707 2.08753 0.313882 0
M  V30 7881 O 740.055 1.87258 1.30946 0
M  V30 7882 C 740.265 2.74901 -2.15012 0
M  V30 7883 C 741.613 3.44643 -2.48004 0
M  V30 7884 O 742.637 2.85119 -2.13508 0
M  V30 7885 O 741.496 4.52044 -3.07113 0
M  V30 7886 H 738.59 0.703408 -0.434909 0
M  V30 7887 H 741.136 0.905788 -1.43505 0
M  V30 7888 H 739.908 2.36198 -3.11971 0
M  V30 7889 H 739.531 3.51792 -1.85279 0
M  V30 7890 N 740.528 1.15101 1.07655 0
M  V30 7891 C 741.805 0.834578 1.76902 0
M  V30 7892 C 742.185 -0.670431 2.00171 0
M  V30 7893 O 741.533 -1.61378 1.6177 0
M  V30 7894 C 741.743 1.64191 3.07965 0
M  V30 7895 C 743.091 1.84615 3.82364 0
M  V30 7896 O 744.115 1.60941 3.17768 0
M  V30 7897 O 742.974 2.24244 4.98374 0
M  V30 7898 H 740.068 0.306608 0.768063 0
M  V30 7899 H 742.614 1.25663 1.14048 0
M  V30 7900 H 741.386 2.66386 2.86626 0
M  V30 7901 H 741.009 1.216 3.78549 0
M  V30 7902 N 742.006 -1.2595 0.947325 0
M  V30 7903 C 743.231 -1.98083 0.614633 0
M  V30 7904 C 743.656 -1.70013 -0.804815 0
M  V30 7905 O 743.014 -0.95175 -1.54309 0
M  V30 7906 C 743.062 -3.4993 0.870706 0
M  V30 7907 O 742.166 -4.12364 -0.0541451 0
M  V30 7908 H 741.507 -0.621232 0.234451 0
M  V30 7909 H 744.037 -1.60259 1.27193 0
M  V30 7910 H 744.047 -4.00198 0.794051 0
M  V30 7911 H 742.722 -3.69691 1.90529 0
M  V30 7912 H 741.299 -3.72826 0.0740917 0
M  V30 7913 N 743.484 -0.715051 -1.40445 0
M  V30 7914 C 744.414 -0.0768699 -2.33373 0
M  V30 7915 C 745.395 0.746109 -1.52863 0
M  V30 7916 O 746.58 0.695142 -1.81332 0
M  V30 7917 C 743.71 0.846014 -3.36838 0
M  V30 7918 C 742.664 0.128694 -4.27806 0
M  V30 7919 C 741.99 1.16726 -5.21804 0
M  V30 7920 C 743.29 -1.01679 -5.12307 0
M  V30 7921 H 744.984 -0.853061 -2.8699 0
M  V30 7922 H 742.53 -0.41167 -1.3799 0
M  V30 7923 H 744.483 1.30185 -4.00786 0
M  V30 7924 H 743.207 1.6541 -2.81615 0
M  V30 7925 H 741.866 -0.307314 -3.6531 0
M  V30 7926 H 741.514 1.96838 -4.62887 0
M  V30 7927 H 741.214 0.692188 -5.83509 0
M  V30 7928 H 742.738 1.62321 -5.88629 0
M  V30 7929 H 744.152 -0.640337 -5.69713 0
M  V30 7930 H 742.549 -1.4202 -5.83053 0
M  V30 7931 H 743.619 -1.84769 -4.48317 0
M  V30 7932 N 744.962 1.50701 -0.461195 0
M  V30 7933 C 746.21 2.01867 0.0970051 0
M  V30 7934 C 746.531 1.34591 1.41104 0
M  V30 7935 O 745.801 0.488041 1.89723 0
M  V30 7936 H 744.381 0.74599 0.0388392 0
M  V30 7937 H 747.043 1.85129 -0.609357 0
M  V30 7938 H 746.139 3.11051 0.255688 0
M  V30 7939 N 746.441 0.193421 1.56409 0
M  V30 7940 C 747.687 -0.43983 1.98588 0
M  V30 7941 C 748.042 -1.59353 1.07816 0
M  V30 7942 O 747.335 -1.9121 0.122226 0
M  V30 7943 C 747.529 -0.949718 3.44551 0
M  V30 7944 C 747.358 0.153045 4.49439 0
M  V30 7945 C 746.128 0.610119 5.01603 0
M  V30 7946 C 748.326 0.961397 5.05234 0
M  V30 7947 N 746.308 1.69088 5.90155 0
M  V30 7948 C 747.679 1.8916 5.90439 0
M  V30 7949 C 749.734 1.004 4.87672 0
M  V30 7950 C 748.437 2.86086 6.5996 0
M  V30 7951 C 750.463 1.96131 5.57931 0
M  V30 7952 C 749.825 2.87895 6.42881 0
M  V30 7953 H 745.924 -0.128415 0.771384 0
M  V30 7954 H 748.508 0.29873 1.92395 0
M  V30 7955 H 746.679 -1.65772 3.51246 0
M  V30 7956 H 748.411 -1.55344 3.73698 0
M  V30 7957 H 745.166 0.203771 4.73161 0
M  V30 7958 H 745.59 2.23241 6.39134 0
M  V30 7959 H 750.232 0.308536 4.21673 0
M  V30 7960 H 747.95 3.56609 7.25159 0
M  V30 7961 H 751.536 2.00066 5.46319 0
M  V30 7962 H 750.416 3.60763 6.9629 0
M  V30 7963 N 747.919 -1.57396 -0.0801906 0
M  V30 7964 C 749.167 -1.86467 -0.779384 0
M  V30 7965 C 749.488 -0.784243 -1.78535 0
M  V30 7966 O 748.758 0.187986 -1.94996 0
M  V30 7967 H 747.338 -0.68806 -0.29083 0
M  V30 7968 H 750 -1.94813 -0.0582749 0
M  V30 7969 H 749.096 -2.83701 -1.30078 0
M  V30 7970 N 749.397 0.351382 -1.53633 0
M  V30 7971 C 750.36 1.41403 -1.80383 0
M  V30 7972 C 751.36 1.45963 -0.674635 0
M  V30 7973 O 752.55 1.46476 -0.942895 0
M  V30 7974 C 749.682 2.80401 -1.93876 0
M  V30 7975 H 750.875 1.18951 -2.75301 0
M  V30 7976 H 748.428 0.58533 -1.44926 0
M  V30 7977 H 749.163 3.08147 -1.01074 0
M  V30 7978 H 748.948 2.78488 -2.7602 0
M  V30 7979 H 750.438 3.57329 -2.16116 0
M  V30 7980 N 750.875 1.45233 0.611969 0
M  V30 7981 C 752.286 1.4354 1.19387 0
M  V30 7982 C 752.637 0.160713 1.95541 0
M  V30 7983 O 751.762 -0.737954 2.03429 0
M  V30 7984 C 752.357 2.60045 2.17169 0
M  V30 7985 C 750.916 2.61486 2.70744 0
M  V30 7986 C 750.063 2.35708 1.46072 0
M  V30 7987 H 753.014 1.53536 0.401529 0
M  V30 7988 H 753.035 2.33893 3.00124 0
M  V30 7989 H 752.547 3.52803 1.61714 0
M  V30 7990 H 750.648 1.72721 3.30149 0
M  V30 7991 H 750.761 3.60572 3.15476 0
M  V30 7992 H 749.125 1.85178 1.74875 0
M  V30 7993 H 749.908 3.30606 0.924922 0
M  V30 7994 N 752.353 -0.854086 1.3245 0
M  V30 7995 C 753.63 -1.59188 1.1366 0
M  V30 7996 C 754.01 -2.08917 -0.302807 0
M  V30 7997 O 753.358 -1.8795 -1.29951 0
M  V30 7998 C 753.568 -2.73757 2.16467 0
M  V30 7999 C 754.916 -3.43323 2.49829 0
M  V30 8000 O 755.94 -2.83983 2.15017 0
M  V30 8001 O 754.799 -4.50409 3.09506 0
M  V30 8002 H 751.893 -0.701092 0.438633 0
M  V30 8003 H 754.439 -0.898165 1.43983 0
M  V30 8004 H 753.211 -2.3454 3.1322 0
M  V30 8005 H 752.834 -3.50804 1.87142 0
M  V30 8006 N 753.831 -1.1567 -1.07043 0
M  V30 8007 C 755.077 -0.944878 -1.80121 0
M  V30 8008 C 755.432 0.522239 -1.85177 0
M  V30 8009 O 754.725 1.38228 -1.32678 0
M  V30 8010 C 754.919 -1.49677 -3.24548 0
M  V30 8011 C 754.748 -3.01602 -3.33566 0
M  V30 8012 C 753.518 -3.70177 -3.43943 0
M  V30 8013 C 755.716 -3.99362 -3.24059 0
M  V30 8014 N 753.698 -5.09882 -3.41896 0
M  V30 8015 C 755.069 -5.25404 -3.29167 0
M  V30 8016 C 757.124 -3.91289 -3.07891 0
M  V30 8017 C 755.827 -6.44314 -3.19769 0
M  V30 8018 C 757.853 -5.09761 -2.99829 0
M  V30 8019 C 757.215 -6.34679 -3.05552 0
M  V30 8020 H 753.314 -0.399447 -0.672284 0
M  V30 8021 H 755.898 -1.4693 -1.27749 0
M  V30 8022 H 754.069 -0.998941 -3.75334 0
M  V30 8023 H 755.801 -1.22346 -3.85764 0
M  V30 8024 H 752.556 -3.2078 -3.48421 0
M  V30 8025 H 752.98 -5.82857 -3.44393 0
M  V30 8026 H 757.622 -2.95573 -3.02318 0
M  V30 8027 H 755.34 -7.4026 -3.24101 0
M  V30 8028 H 758.926 -5.05279 -2.88418 0
M  V30 8029 H 757.806 -7.24812 -2.99361 0
M  V30 8030 N 755.309 1.25446 -0.953992 0
M  V30 8031 C 756.534 1.97755 -0.625129 0
M  V30 8032 C 756.959 1.70437 0.795787 0
M  V30 8033 O 756.317 0.95992 1.53803 0
M  V30 8034 C 756.365 3.49463 -0.889251 0
M  V30 8035 O 755.469 4.12387 0.0322757 0
M  V30 8036 H 754.81 0.61998 -0.237742 0
M  V30 8037 H 757.34 1.59582 -1.28041 0
M  V30 8038 H 757.35 3.99772 -0.815263 0
M  V30 8039 H 756.025 3.68676 -1.92487 0
M  V30 8040 H 754.602 3.72782 -0.0938625 0
M  V30 8041 N 756.787 0.722489 1.40064 0
M  V30 8042 C 758.015 0.274838 2.05066 0
M  V30 8043 C 758.43 -1.08586 1.54449 0
M  V30 8044 O 757.787 -1.68375 0.704003 0
M  V30 8045 C 757.838 0.253673 3.60609 0
M  V30 8046 O 757.559 1.56064 4.0936 0
M  V30 8047 C 759.06 -0.211684 4.42794 0
M  V30 8048 H 756.28 0.12226 0.659768 0
M  V30 8049 H 758.824 0.982632 1.79345 0
M  V30 8050 H 756.979 -0.405137 3.85276 0
M  V30 8051 H 757.393 1.46576 5.03603 0
M  V30 8052 H 758.867 -0.175341 5.51721 0
M  V30 8053 H 759.344 -1.25493 4.2089 0
M  V30 8054 H 759.95 0.4171 4.2325 0
M  V30 8055 N 758.265 -1.50454 0.469181 0
M  V30 8056 C 759.175 -2.32248 -0.331349 0
M  V30 8057 C 760.191 -1.42548 -0.997807 0
M  V30 8058 O 761.367 -1.75602 -0.9862 0
M  V30 8059 C 758.432 -3.17171 -1.40012 0
M  V30 8060 C 757.493 -4.2269 -0.750463 0
M  V30 8061 C 756.726 -5.03554 -1.76831 0
M  V30 8062 O 756.949 -4.85469 -2.99459 0
M  V30 8063 O 755.883 -5.86767 -1.3412 0
M  V30 8064 H 759.709 -3.01821 0.337279 0
M  V30 8065 H 757.294 -1.47602 0.231066 0
M  V30 8066 H 759.176 -3.69871 -2.01924 0
M  V30 8067 H 757.851 -2.50328 -2.05226 0
M  V30 8068 H 756.758 -3.73986 -0.0924446 0
M  V30 8069 H 758.091 -4.91997 -0.14131 0
M  V30 8070 N 759.743 -0.201713 -1.56304 0
M  V30 8071 C 760.706 0.702811 -2.18159 0
M  V30 8072 C 761.706 1.13619 -1.13787 0
M  V30 8073 O 762.896 1.0482 -1.39134 0
M  V30 8074 C 760.028 1.96032 -2.78898 0
M  V30 8075 H 761.221 0.163836 -2.99452 0
M  V30 8076 H 758.774 0.04791 -1.56227 0
M  V30 8077 H 759.509 2.54165 -2.01421 0
M  V30 8078 H 759.294 1.65824 -3.55309 0
M  V30 8079 H 760.784 2.60519 -3.26373 0
M  V30 8080 N 761.222 1.57436 0.0718424 0
M  V30 8081 C 762.47 1.86878 0.769484 0
M  V30 8082 C 762.791 0.7937 1.78116 0
M  V30 8083 O 762.061 -0.177642 1.95093 0
M  V30 8084 H 760.641 0.689593 0.287177 0
M  V30 8085 H 763.303 1.94841 0.0479427 0
M  V30 8086 H 762.399 2.84387 1.28572 0
M  V30 8087 N 762.7 -0.34323 1.53817 0
M  V30 8088 C 763.947 -1.08344 1.71079 0
M  V30 8089 C 764.275 -1.88633 0.474133 0
M  V30 8090 O 763.53 -1.87984 -0.544116 0
M  V30 8091 C 763.829 -2.05195 2.92626 0
M  V30 8092 C 763.495 -1.41215 4.28216 0
M  V30 8093 C 762.157 -1.23495 4.65083 0
M  V30 8094 C 764.509 -0.951273 5.12445 0
M  V30 8095 C 761.837 -0.583065 5.83796 0
M  V30 8096 C 764.189 -0.313292 6.31824 0
M  V30 8097 C 762.853 -0.123779 6.67385 0
M  V30 8098 H 762.123 -0.396458 0.626021 0
M  V30 8099 H 764.77 -0.362689 1.88034 0
M  V30 8100 H 763.075 -2.83653 2.70275 0
M  V30 8101 H 764.772 -2.62462 3.03175 0
M  V30 8102 H 761.362 -1.56005 3.992 0
M  V30 8103 H 765.546 -1.07602 4.84495 0
M  V30 8104 H 760.802 -0.424854 6.09922 0
M  V30 8105 H 764.976 0.0519179 6.96381 0
M  V30 8106 H 762.603 0.383398 7.59233 0
M  V30 8107 N 764.178 -1.45556 -0.604258 0
M  V30 8108 C 765.403 -1.53509 -1.39462 0
M  V30 8109 C 765.828 -0.169638 -1.87333 0
M  V30 8110 O 765.186 0.846346 -1.60333 0
M  V30 8111 C 765.234 -2.52654 -2.5729 0
M  V30 8112 O 764.338 -2.04666 -3.5803 0
M  V30 8113 H 763.679 -0.517355 -0.416221 0
M  V30 8114 H 766.209 -1.90939 -0.735072 0
M  V30 8115 H 766.219 -2.71568 -3.04491 0
M  V30 8116 H 764.894 -3.51823 -2.21797 0
M  V30 8117 H 763.471 -1.95643 -3.17456 0
M  V30 8118 N 765.656 0.84705 -1.32902 0
M  V30 8119 C 767.072 1.13645 -1.12058 0
M  V30 8120 C 767.272 2.01281 0.093937 0
M  V30 8121 O 766.328 2.4026 0.776608 0
M  V30 8122 C 767.641 1.80644 -2.40392 0
M  V30 8123 C 769.189 1.93246 -2.46221 0
M  V30 8124 C 769.664 2.6366 -3.74496 0
M  V30 8125 N 771.155 2.71179 -3.75521 0
M  V30 8126 C 771.89 3.26332 -4.71482 0
M  V30 8127 N 771.386 3.82236 -5.77813 0
M  V30 8128 N 773.179 3.24507 -4.58968 0
M  V30 8129 H 765.33 0.263612 -2.10758 0
M  V30 8130 H 767.593 0.17944 -0.930863 0
M  V30 8131 H 767.299 1.23708 -3.29225 0
M  V30 8132 H 767.173 2.80736 -2.51926 0
M  V30 8133 H 769.56 2.49338 -1.57843 0
M  V30 8134 H 769.641 0.921272 -2.38634 0
M  V30 8135 H 769.285 2.08229 -4.63253 0
M  V30 8136 H 769.215 3.65234 -3.79357 0
M  V30 8137 H 771.706 2.31527 -2.9867 0
M  V30 8138 H 772.019 4.22499 -6.47082 0
M  V30 8139 H 770.364 3.80546 -5.81558 0
M  V30 8140 H 773.555 2.80085 -3.7506 0
M  V30 8141 H 773.728 3.67188 -5.33926 0
M  V30 8142 N 767.134 1.16236 1.06428 0
M  V30 8143 C 768.084 0.835994 2.12121 0
M  V30 8144 C 769.068 -0.183955 1.59845 0
M  V30 8145 O 770.26 0.0166741 1.76992 0
M  V30 8146 C 767.389 0.337333 3.41639 0
M  V30 8147 C 766.475 1.38798 4.00744 0
M  V30 8148 N 766.866 2.59799 4.3398 0
M  V30 8149 C 765.164 1.24292 4.28331 0
M  V30 8150 C 765.865 3.27213 4.80943 0
M  V30 8151 N 764.841 2.54594 4.80294 0
M  V30 8152 H 768.643 1.75615 2.35662 0
M  V30 8153 H 766.157 1.04921 1.23957 0
M  V30 8154 H 768.154 0.0851274 4.16813 0
M  V30 8155 H 766.814 -0.57677 3.19536 0
M  V30 8156 H 767.825 2.96867 4.24371 0
M  V30 8157 H 764.502 0.389464 4.15679 0
M  V30 8158 H 765.892 4.30492 5.15874 0
M  V30 8159 N 768.612 -1.24939 0.960631 0
M  V30 8160 C 769.852 -1.94565 0.626414 0
M  V30 8161 C 770.216 -1.73505 -0.822184 0
M  V30 8162 O 771.417 -2.37105 -1.26628 0
M  V30 8163 C 769.688 -3.43631 0.982462 0
M  V30 8164 S 771.247 -4.32138 0.761726 0
M  V30 8165 H 768.065 -0.672757 0.230043 0
M  V30 8166 H 770.667 -1.51464 1.23608 0
M  V30 8167 H 769.371 -3.56463 2.03377 0
M  V30 8168 H 768.902 -3.91719 0.363286 0
M  V30 8169 H 770.917 -4.94859 -0.364493 0
M  V30 8170 N 770.09 -0.729906 -1.39679 0
M  V30 8171 C 771.02 -0.101618 -2.33279 0
M  V30 8172 C 772.001 0.729854 -1.53646 0
M  V30 8173 O 773.186 0.67587 -1.82059 0
M  V30 8174 C 770.316 0.81024 -3.37716 0
M  V30 8175 C 769.27 0.0833126 -4.27919 0
M  V30 8176 C 768.596 1.11185 -5.23012 0
M  V30 8177 C 769.896 -1.07107 -5.112 0
M  V30 8178 H 771.59 -0.883452 -2.86069 0
M  V30 8179 H 769.136 -0.426283 -1.37546 0
M  V30 8180 H 771.089 1.25927 -4.02145 0
M  V30 8181 H 769.813 1.62413 -2.83354 0
M  V30 8182 H 768.472 -0.346043 -3.64963 0
M  V30 8183 H 768.12 1.91917 -4.64948 0
M  V30 8184 H 767.82 0.63026 -5.8421 0
M  V30 8185 H 769.344 1.56068 -5.90318 0
M  V30 8186 H 770.758 -0.700726 -5.69002 0
M  V30 8187 H 769.155 -1.48196 -5.81514 0
M  V30 8188 H 770.225 -1.89513 -4.46332 0
M  V30 8189 N 771.568 1.50203 -0.477153 0
M  V30 8190 C 772.796 2.0677 0.0732489 0
M  V30 8191 C 773.211 1.34033 1.32968 0
M  V30 8192 O 772.568 0.411412 1.77802 0
M  V30 8193 C 772.619 3.59751 0.35518 0
M  V30 8194 O 772.34 4.29747 -0.851425 0
M  V30 8195 C 773.841 4.3296 0.951877 0
M  V30 8196 H 771.061 0.670929 -0.00978923 0
M  V30 8197 H 773.605 1.93293 -0.667676 0
M  V30 8198 H 771.76 3.7301 1.04605 0
M  V30 8199 H 772.174 5.2106 -0.599708 0
M  V30 8200 H 773.648 5.40952 1.09888 0
M  V30 8201 H 774.125 3.93856 1.94356 0
M  V30 8202 H 774.731 4.24246 0.299208 0
M  V30 8203 N 773.046 0.209999 1.56195 0
M  V30 8204 C 774.271 -0.433064 2.02828 0
M  V30 8205 C 774.696 -1.5337 1.08901 0
M  V30 8206 O 774.054 -1.81144 0.0751132 0
M  V30 8207 C 774.102 -0.952635 3.47789 0
M  V30 8208 O 773.206 -2.0647 3.56993 0
M  V30 8209 H 772.547 -0.0994594 0.656509 0
M  V30 8210 H 775.077 0.32525 2.01998 0
M  V30 8211 H 775.087 -1.26542 3.8788 0
M  V30 8212 H 773.762 -0.147007 4.1564 0
M  V30 8213 H 772.339 -1.75942 3.28784 0
M  V30 8214 N 774.524 -1.57472 -0.0634922 0
M  V30 8215 C 775.773 -1.86837 -0.759928 0
M  V30 8216 C 776.086 -0.803823 -1.7832 0
M  V30 8217 O 777.292 -0.985578 -2.52979 0
M  V30 8218 C 775.748 -3.31448 -1.4025 0
M  V30 8219 C 775.356 -4.46052 -0.417368 0
M  V30 8220 C 777.1 -3.70003 -2.08082 0
M  V30 8221 C 775.007 -5.81707 -1.06633 0
M  V30 8222 H 773.937 -0.697009 -0.287567 0
M  V30 8223 H 776.588 -1.83495 -0.0133914 0
M  V30 8224 H 774.97 -3.29427 -2.19759 0
M  V30 8225 H 776.144 -4.5948 0.348503 0
M  V30 8226 H 774.459 -4.16104 0.156955 0
M  V30 8227 H 777.056 -4.68653 -2.57426 0
M  V30 8228 H 777.399 -3.00226 -2.88393 0
M  V30 8229 H 777.932 -3.7405 -1.35394 0
M  V30 8230 H 774.671 -6.54798 -0.303374 0
M  V30 8231 H 774.191 -5.72064 -1.80286 0
M  V30 8232 H 775.87 -6.27317 -1.58376 0
M  V30 8233 N 776.003 0.335068 -1.53997 0
M  V30 8234 C 777.233 1.0926 -1.75345 0
M  V30 8235 C 777.641 1.82568 -0.496545 0
M  V30 8236 O 776.984 1.75525 0.541897 0
M  V30 8237 C 777.046 2.14473 -2.88516 0
M  V30 8238 C 776.71 1.60665 -4.27827 0
M  V30 8239 C 777.707 1.05448 -5.09094 0
M  V30 8240 C 775.392 1.65255 -4.74337 0
M  V30 8241 C 777.386 0.555372 -6.34976 0
M  V30 8242 C 775.073 1.14956 -6.0019 0
M  V30 8243 C 776.071 0.601907 -6.80343 0
M  V30 8244 O 775.759 0.106445 -8.0383 0
M  V30 8245 H 775.491 0.331329 -0.589234 0
M  V30 8246 H 778.045 0.39042 -2.01655 0
M  V30 8247 H 776.275 2.88274 -2.5775 0
M  V30 8248 H 777.964 2.75857 -2.97755 0
M  V30 8249 H 778.73 1.01218 -4.74321 0
M  V30 8250 H 774.609 2.06822 -4.12002 0
M  V30 8251 H 778.153 0.127245 -6.97484 0
M  V30 8252 H 774.05 1.18891 -6.34457 0
M  V30 8253 H 774.818 0.222944 -8.18196 0
M  V30 8254 N 777.481 1.45874 0.596531 0
M  V30 8255 C 778.897 1.30524 0.918459 0
M  V30 8256 C 779.097 0.266429 1.99731 0
M  V30 8257 O 778.153 -0.335809 2.50257 0
M  V30 8258 C 779.466 2.68747 1.3489 0
M  V30 8259 C 781.014 2.7673 1.46251 0
M  V30 8260 C 781.489 4.15504 1.92667 0
M  V30 8261 N 782.98 4.17853 1.99883 0
M  V30 8262 C 783.715 5.22109 2.37044 0
M  V30 8263 N 783.211 6.36704 2.73094 0
M  V30 8264 N 785.004 5.09471 2.37479 0
M  V30 8265 H 777.155 2.12081 -0.116368 0
M  V30 8266 H 779.418 0.947941 0.0106033 0
M  V30 8267 H 779.124 3.46006 0.630288 0
M  V30 8268 H 778.998 2.97942 2.31323 0
M  V30 8269 H 781.385 1.99768 2.17202 0
M  V30 8270 H 781.466 2.51236 0.481054 0
M  V30 8271 H 781.11 4.92956 1.223 0
M  V30 8272 H 781.04 4.38396 2.91747 0
M  V30 8273 H 783.531 3.35163 1.74568 0
M  V30 8274 H 783.844 7.12041 3.00362 0
M  V30 8275 H 782.189 6.40087 2.70764 0
M  V30 8276 H 785.38 4.18987 2.08728 0
M  V30 8277 H 785.553 5.90837 2.66112 0
M  V30 8278 N 778.959 -0.83999 1.33349 0
M  V30 8279 C 780.37 -1.41139 1.22216 0
M  V30 8280 C 780.721 -1.95551 -0.159398 0
M  V30 8281 O 779.846 -1.88721 -1.05893 0
M  V30 8282 C 780.441 -2.56564 2.21269 0
M  V30 8283 C 779 -3.09661 2.13979 0
M  V30 8284 C 778.147 -1.82457 2.08818 0
M  V30 8285 H 781.098 -0.645853 1.44964 0
M  V30 8286 H 781.119 -3.34163 1.81976 0
M  V30 8287 H 780.631 -2.16932 3.21811 0
M  V30 8288 H 778.732 -3.53841 1.16736 0
M  V30 8289 H 778.845 -3.6991 3.04472 0
M  V30 8290 H 777.209 -2.0266 1.54276 0
M  V30 8291 H 777.992 -1.45022 3.11165 0
M  V30 8292 N 780.437 -1.16799 -1.0581 0
M  V30 8293 C 781.684 -0.952524 -1.78699 0
M  V30 8294 C 782.012 0.51931 -1.87439 0
M  V30 8295 O 781.267 1.40151 -1.36587 0
M  V30 8296 C 781.566 -1.53111 -3.22942 0
M  V30 8297 C 781.232 -3.0261 -3.34273 0
M  V30 8298 C 779.894 -3.43418 -3.37072 0
M  V30 8299 C 782.246 -3.98611 -3.35795 0
M  V30 8300 C 779.574 -4.78838 -3.39015 0
M  V30 8301 C 781.926 -5.33923 -3.39277 0
M  V30 8302 C 780.59 -5.74205 -3.40361 0
M  V30 8303 H 779.86 -0.348553 -0.653905 0
M  V30 8304 H 782.507 -1.45591 -1.244 0
M  V30 8305 H 780.812 -0.949286 -3.80126 0
M  V30 8306 H 782.509 -1.34002 -3.77948 0
M  V30 8307 H 779.099 -2.70075 -3.32803 0
M  V30 8308 H 783.283 -3.68146 -3.32839 0
M  V30 8309 H 778.539 -5.09369 -3.38161 0
M  V30 8310 H 782.713 -6.08094 -3.39403 0
M  V30 8311 H 780.34 -6.79117 -3.4162 0
M  V30 8312 N 781.915 1.24427 -0.967243 0
M  V30 8313 C 783.161 1.92772 -0.629812 0
M  V30 8314 C 783.494 1.75436 0.832827 0
M  V30 8315 O 782.769 1.10716 1.59913 0
M  V30 8316 C 783.052 3.45798 -1.00477 0
M  V30 8317 C 782.905 3.72304 -2.52407 0
M  V30 8318 C 784.224 4.36787 -0.538999 0
M  V30 8319 H 781.343 0.700099 -0.230282 0
M  V30 8320 H 783.985 1.46805 -1.20616 0
M  V30 8321 H 782.135 3.8508 -0.514336 0
M  V30 8322 H 783.807 3.42584 -3.08924 0
M  V30 8323 H 782.05 3.17472 -2.95625 0
M  V30 8324 H 782.721 4.7937 -2.73693 0
M  V30 8325 H 785.197 4.04877 -0.959874 0
M  V30 8326 H 784.073 5.4259 -0.829926 0
M  V30 8327 H 784.334 4.38527 0.560923 0
M  V30 8328 N 783.393 0.737304 1.3929 0
M  V30 8329 C 784.67 0.212464 1.94443 0
M  V30 8330 C 785.05 -1.28621 1.67391 0
M  V30 8331 O 784.398 -2.0529 1.00342 0
M  V30 8332 C 784.608 0.548565 3.44662 0
M  V30 8333 C 785.956 0.499177 4.21656 0
M  V30 8334 O 786.98 0.485892 3.5287 0
M  V30 8335 O 785.839 0.495739 5.44247 0
M  V30 8336 H 782.933 0.0395457 0.826054 0
M  V30 8337 H 785.479 0.816319 1.48776 0
M  V30 8338 H 784.251 1.58426 3.57795 0
M  V30 8339 H 783.874 -0.0841399 3.97511 0
M  V30 8340 N 784.871 -1.49948 0.485112 0
M  V30 8341 C 785.818 -2.28819 -0.301729 0
M  V30 8342 C 786.788 -1.34496 -0.974683 0
M  V30 8343 O 787.973 -1.63444 -0.984418 0
M  V30 8344 C 785.113 -3.16758 -1.36961 0
M  V30 8345 C 784.226 -4.26125 -0.710027 0
M  V30 8346 C 783.361 -5.01302 -1.75699 0
M  V30 8347 C 782.4 -6.02525 -1.07841 0
M  V30 8348 N 781.537 -6.70927 -2.06886 0
M  V30 8349 H 786.377 -2.95604 0.377127 0
M  V30 8350 H 783.914 -1.45764 0.197826 0
M  V30 8351 H 785.872 -3.66106 -2.00056 0
M  V30 8352 H 784.502 -2.51991 -2.01744 0
M  V30 8353 H 783.554 -3.80385 0.0338278 0
M  V30 8354 H 784.866 -4.98493 -0.175079 0
M  V30 8355 H 784.02 -5.54438 -2.46339 0
M  V30 8356 H 782.759 -4.28672 -2.32577 0
M  V30 8357 H 781.764 -5.48635 -0.357706 0
M  V30 8358 H 782.989 -6.77134 -0.516345 0
M  V30 8359 H 780.935 -6.01079 -2.62755 0
M  V30 8360 H 780.852 -7.39216 -1.58414 0
M  V30 8361 H 782.12 -7.28675 -2.76863 0
M  V30 8362 N 786.349 -0.21828 -1.56081 0
M  V30 8363 C 787.312 0.679633 -2.18892 0
M  V30 8364 C 788.312 1.12405 -1.14986 0
M  V30 8365 O 789.502 1.03339 -1.40238 0
M  V30 8366 C 786.634 1.93063 -2.80962 0
M  V30 8367 H 787.827 0.132066 -2.99609 0
M  V30 8368 H 785.38 0.0313374 -1.56269 0
M  V30 8369 H 786.115 2.52015 -2.04106 0
M  V30 8370 H 785.9 1.62046 -3.57048 0
M  V30 8371 H 787.39 2.57043 -3.29118 0
M  V30 8372 N 787.827 1.57504 0.0551401 0
M  V30 8373 C 788.757 2.07864 1.06372 0
M  V30 8374 C 789.738 0.975565 1.39344 0
M  V30 8375 O 790.923 1.24929 1.48682 0
M  V30 8376 C 788.053 2.53643 2.3724 0
M  V30 8377 C 787.007 3.67978 2.18578 0
M  V30 8378 C 786.333 3.9987 3.54976 0
M  V30 8379 C 787.633 4.97405 1.59329 0
M  V30 8380 H 789.327 2.92379 0.644595 0
M  V30 8381 H 786.873 1.40654 0.308619 0
M  V30 8382 H 788.826 2.8749 3.08103 0
M  V30 8383 H 787.55 1.66177 2.81163 0
M  V30 8384 H 786.209 3.3444 1.50152 0
M  V30 8385 H 785.857 3.0951 3.965 0
M  V30 8386 H 785.557 4.76867 3.43324 0
M  V30 8387 H 787.081 4.36228 4.27244 0
M  V30 8388 H 788.495 5.29375 2.20078 0
M  V30 8389 H 786.892 5.78837 1.58327 0
M  V30 8390 H 787.962 4.81697 0.55638 0
M  V30 8391 N 789.305 -0.326896 1.54172 0
M  V30 8392 C 790.252 -1.40216 1.83325 0
M  V30 8393 C 791.222 -1.51538 0.680107 0
M  V30 8394 O 792.407 -1.66811 0.926206 0
M  V30 8395 C 789.547 -2.76626 2.0633 0
M  V30 8396 C 788.66 -2.73963 3.34019 0
M  V30 8397 C 787.795 -4.02198 3.47002 0
M  V30 8398 C 786.834 -3.93828 4.68578 0
M  V30 8399 N 785.971 -5.13787 4.78506 0
M  V30 8400 H 790.811 -1.14656 2.7506 0
M  V30 8401 H 788.348 -0.555089 1.36225 0
M  V30 8402 H 790.306 -3.55922 2.17659 0
M  V30 8403 H 788.936 -3.00503 1.1789 0
M  V30 8404 H 787.988 -1.86677 3.31445 0
M  V30 8405 H 789.3 -2.6366 4.2342 0
M  V30 8406 H 788.454 -4.89923 3.57855 0
M  V30 8407 H 787.193 -4.15302 2.55687 0
M  V30 8408 H 786.198 -3.04487 4.57786 0
M  V30 8409 H 787.423 -3.82292 5.61275 0
M  V30 8410 H 785.369 -5.27403 3.90105 0
M  V30 8411 H 785.286 -5.05807 5.61868 0
M  V30 8412 H 786.554 -6.03236 4.93686 0
M  V30 8413 N 790.784 -1.46188 -0.588786 0
M  V30 8414 C 791.716 -1.52319 -1.71265 0
M  V30 8415 C 792.729 -0.412096 -1.57498 0
M  V30 8416 O 793.918 -0.680146 -1.65034 0
M  V30 8417 C 791.018 -1.38164 -3.09458 0
M  V30 8418 C 790.191 -2.63284 -3.49286 0
M  V30 8419 C 789.25 -2.43415 -4.66514 0
M  V30 8420 O 788.276 -3.17113 -4.72682 0
M  V30 8421 N 789.478 -1.49187 -5.61002 0
M  V30 8422 H 792.243 -2.49219 -1.66463 0
M  V30 8423 H 789.804 -1.42167 -0.774601 0
M  V30 8424 H 791.796 -1.22653 -3.85666 0
M  V30 8425 H 790.366 -0.494678 -3.08661 0
M  V30 8426 H 789.586 -2.93779 -2.62845 0
M  V30 8427 H 790.874 -3.46413 -3.7266 0
M  V30 8428 H 790.272 -0.884027 -5.5875 0
M  V30 8429 H 788.829 -1.39642 -6.36666 0
M  V30 8430 N 792.262 0.832906 -1.33792 0
M  V30 8431 C 793.195 1.94788 -1.18882 0
M  V30 8432 C 794.173 1.62389 -0.0828426 0
M  V30 8433 O 795.357 1.86886 -0.246175 0
M  V30 8434 C 792.484 3.28506 -0.824728 0
M  V30 8435 C 791.53 3.79872 -1.93905 0
M  V30 8436 S 792.363 4.00832 -3.55097 0
M  V30 8437 C 793.519 5.37492 -3.20708 0
M  V30 8438 H 793.752 2.07137 -2.13264 0
M  V30 8439 H 791.285 0.987362 -1.18704 0
M  V30 8440 H 793.243 4.05769 -0.621442 0
M  V30 8441 H 791.904 3.13939 0.100587 0
M  V30 8442 H 791.097 4.76647 -1.6378 0
M  V30 8443 H 790.699 3.09524 -2.09931 0
M  V30 8444 H 792.991 6.20544 -2.71903 0
M  V30 8445 H 793.934 5.72593 -4.16584 0
M  V30 8446 H 794.342 5.02529 -2.57148 0
M  V30 8447 N 793.74 1.17359 1.05189 0
M  V30 8448 C 794.988 0.960087 1.77839 0
M  V30 8449 C 795.309 -0.512554 1.88143 0
M  V30 8450 O 794.579 -1.3721 1.39822 0
M  V30 8451 H 793.159 0.352234 0.658741 0
M  V30 8452 H 795.821 1.47834 1.27008 0
M  V30 8453 H 794.917 1.38843 2.79516 0
M  V30 8454 N 795.218 -1.23913 0.973828 0
M  V30 8455 C 796.148 -2.27453 0.527969 0
M  V30 8456 C 797.129 -1.6443 -0.435513 0
M  V30 8457 O 798.314 -1.9137 -0.330306 0
M  V30 8458 C 795.444 -3.4685 -0.176757 0
M  V30 8459 C 794.398 -4.22181 0.703352 0
M  V30 8460 C 793.724 -5.34534 -0.133215 0
M  V30 8461 C 795.024 -4.82865 1.99096 0
M  V30 8462 H 796.718 -2.65 1.3934 0
M  V30 8463 H 794.264 -1.27388 0.671446 0
M  V30 8464 H 796.217 -4.18424 -0.499934 0
M  V30 8465 H 794.941 -3.08346 -1.07659 0
M  V30 8466 H 793.6 -3.52416 1.00989 0
M  V30 8467 H 793.248 -4.92271 -1.03338 0
M  V30 8468 H 792.948 -5.85855 0.452494 0
M  V30 8469 H 794.472 -6.08933 -0.450924 0
M  V30 8470 H 795.886 -5.46481 1.73297 0
M  V30 8471 H 794.283 -5.44444 2.52389 0
M  V30 8472 H 795.353 -4.03977 2.68199 0
M  V30 8473 N 796.696 -0.74468 -1.38897 0
M  V30 8474 C 798.112 -0.421302 -1.53939 0
M  V30 8475 C 798.312 1.06668 -1.70951 0
M  V30 8476 O 797.368 1.85278 -1.71547 0
M  V30 8477 C 798.681 -1.21278 -2.75159 0
M  V30 8478 C 800.229 -1.20196 -2.89001 0
M  V30 8479 C 800.704 -1.97621 -4.13171 0
M  V30 8480 N 802.195 -1.94836 -4.2023 0
M  V30 8481 C 802.93 -2.51545 -5.15279 0
M  V30 8482 N 802.426 -3.1693 -6.16058 0
M  V30 8483 N 804.219 -2.41524 -5.07565 0
M  V30 8484 H 796.37 -1.70914 -1.26103 0
M  V30 8485 H 798.633 -0.724058 -0.611919 0
M  V30 8486 H 798.339 -2.26609 -2.68963 0
M  V30 8487 H 798.213 -0.823677 -3.68097 0
M  V30 8488 H 800.6 -0.156742 -2.94683 0
M  V30 8489 H 800.681 -1.63051 -1.97099 0
M  V30 8490 H 800.325 -3.02149 -4.0825 0
M  V30 8491 H 800.255 -1.52166 -5.04136 0
M  V30 8492 H 802.746 -1.4721 -3.48048 0
M  V30 8493 H 803.059 -3.57644 -6.85062 0
M  V30 8494 H 801.404 -3.21023 -6.16417 0
M  V30 8495 H 804.595 -1.90077 -4.27771 0
M  V30 8496 H 804.768 -2.86016 -5.81462 0
M  V30 8497 N 798.174 1.49689 -0.493057 0
M  V30 8498 C 799.121 2.28976 0.28959 0
M  V30 8499 C 800.091 1.35011 0.967536 0
M  V30 8500 O 801.276 1.63964 0.975736 0
M  V30 8501 C 798.416 3.1748 1.35279 0
M  V30 8502 C 797.529 4.26496 0.687418 0
M  V30 8503 C 796.664 5.02226 1.73038 0
M  V30 8504 C 795.703 6.03089 1.04645 0
M  V30 8505 N 794.84 6.72014 2.03325 0
M  V30 8506 H 799.68 2.954 -0.392798 0
M  V30 8507 H 797.217 1.45657 -0.205554 0
M  V30 8508 H 799.175 3.67162 1.98111 0
M  V30 8509 H 797.805 2.53057 2.00405 0
M  V30 8510 H 796.857 3.80362 -0.0540001 0
M  V30 8511 H 798.169 4.98578 0.14864 0
M  V30 8512 H 797.323 5.55737 2.43395 0
M  V30 8513 H 796.062 4.29899 2.303 0
M  V30 8514 H 795.067 5.48817 0.328606 0
M  V30 8515 H 796.292 6.77398 0.480428 0
M  V30 8516 H 794.238 6.02464 2.59564 0
M  V30 8517 H 794.155 7.40046 1.54492 0
M  V30 8518 H 795.423 7.30133 2.72995 0
M  V30 8519 N 799.652 0.226554 1.55963 0
M  V30 8520 C 800.582 -0.676079 2.23498 0
M  V30 8521 C 801.563 -1.19718 1.20837 0
M  V30 8522 O 802.748 -1.24027 1.49436 0
M  V30 8523 C 799.878 -1.88217 2.91876 0
M  V30 8524 C 798.832 -1.4947 4.01052 0
M  V30 8525 C 798.158 -2.77997 4.56751 0
M  V30 8526 C 799.458 -0.680951 5.17842 0
M  V30 8527 H 801.152 -0.112989 2.99187 0
M  V30 8528 H 798.698 -0.0529046 1.43903 0
M  V30 8529 H 800.651 -2.51911 3.37815 0
M  V30 8530 H 799.375 -2.47031 2.13643 0
M  V30 8531 H 798.034 -0.881199 3.55852 0
M  V30 8532 H 797.682 -3.34966 3.75243 0
M  V30 8533 H 797.382 -2.52803 5.30438 0
M  V30 8534 H 798.906 -3.42625 5.05411 0
M  V30 8535 H 800.32 -1.22171 5.60131 0
M  V30 8536 H 798.717 -0.525898 5.97791 0
M  V30 8537 H 799.787 0.311346 4.83899 0
M  V30 8538 N 801.13 -1.57531 -0.0467866 0
M  V30 8539 C 802.379 -1.87632 -0.740069 0
M  V30 8540 C 802.692 -0.822691 -1.77457 0
M  V30 8541 O 803.898 -1.01235 -2.5192 0
M  V30 8542 C 802.354 -3.32917 -1.36727 0
M  V30 8543 C 801.962 -4.46469 -0.370035 0
M  V30 8544 C 803.706 -3.72189 -2.04146 0
M  V30 8545 C 801.613 -5.82806 -1.00457 0
M  V30 8546 H 800.543 -0.70002 -0.280158 0
M  V30 8547 H 803.194 -1.83499 0.00607151 0
M  V30 8548 H 801.576 -3.31739 -2.16252 0
M  V30 8549 H 802.75 -4.59085 0.397217 0
M  V30 8550 H 801.065 -4.15914 0.201079 0
M  V30 8551 H 803.662 -4.71357 -2.52441 0
M  V30 8552 H 804.005 -3.03268 -2.85192 0
M  V30 8553 H 804.538 -3.75465 -1.3142 0
M  V30 8554 H 801.277 -6.55083 -0.233907 0
M  V30 8555 H 800.797 -5.73944 -1.74209 0
M  V30 8556 H 802.476 -6.28961 -1.51713 0
M  V30 8557 N 802.608 0.318715 -1.54344 0
M  V30 8558 C 803.538 1.39751 -1.87061 0
M  V30 8559 C 804.519 1.53741 -0.727848 0
M  V30 8560 O 805.704 1.67541 -0.982016 0
M  V30 8561 C 802.834 2.76446 -2.10226 0
M  V30 8562 C 801.788 2.77239 -3.26071 0
M  V30 8563 C 801.114 4.17056 -3.34617 0
M  V30 8564 C 802.414 2.40555 -4.63606 0
M  V30 8565 H 804.108 1.12619 -2.77412 0
M  V30 8566 H 801.654 0.540318 -1.33479 0
M  V30 8567 H 803.607 3.51985 -2.31699 0
M  V30 8568 H 802.331 3.05066 -1.16629 0
M  V30 8569 H 800.99 2.04155 -3.04493 0
M  V30 8570 H 800.638 4.42824 -2.3857 0
M  V30 8571 H 800.338 4.18492 -4.12478 0
M  V30 8572 H 801.862 4.94401 -3.5833 0
M  V30 8573 H 803.276 3.05808 -4.84927 0
M  V30 8574 H 801.673 2.53234 -5.44052 0
M  V30 8575 H 802.743 1.35698 -4.65526 0
M  V30 8576 N 804.086 1.46499 0.581025 0
M  V30 8577 C 805.502 1.31491 0.904563 0
M  V30 8578 C 805.702 0.287598 1.99437 0
M  V30 8579 O 804.758 -0.309247 2.50599 0
M  V30 8580 C 806.071 2.70163 1.32032 0
M  V30 8581 C 807.619 2.78266 1.43308 0
M  V30 8582 C 808.094 4.17524 1.8825 0
M  V30 8583 N 809.585 4.19949 1.9544 0
M  V30 8584 C 810.32 5.24594 2.31493 0
M  V30 8585 N 809.816 6.39564 2.66326 0
M  V30 8586 N 811.609 5.11961 2.32062 0
M  V30 8587 H 803.76 2.11946 -0.138856 0
M  V30 8588 H 806.023 0.948 0.000548528 0
M  V30 8589 H 805.729 3.46655 0.593554 0
M  V30 8590 H 805.603 3.00379 2.2815 0
M  V30 8591 H 807.99 2.02061 2.15071 0
M  V30 8592 H 808.071 2.51732 0.45438 0
M  V30 8593 H 807.715 4.94225 1.17065 0
M  V30 8594 H 807.645 4.41466 2.87081 0
M  V30 8595 H 810.136 3.36996 1.71004 0
M  V30 8596 H 810.449 7.15187 2.92793 0
M  V30 8597 H 808.794 6.42923 2.6396 0
M  V30 8598 H 811.985 4.21177 2.04272 0
M  V30 8599 H 812.158 5.93626 2.5983 0
M  V30 8600 N 805.565 -0.825799 1.34232 0
M  V30 8601 C 806.495 -1.95151 1.28212 0
M  V30 8602 C 807.476 -1.69345 0.160123 0
M  V30 8603 O 808.661 -1.90983 0.352019 0
M  V30 8604 C 805.791 -3.31554 1.03388 0
M  V30 8605 C 804.745 -3.71793 2.12023 0
M  V30 8606 C 804.071 -5.06147 1.72392 0
M  V30 8607 C 805.371 -3.84193 3.53826 0
M  V30 8608 H 807.065 -2.00445 2.22401 0
M  V30 8609 H 804.611 -0.962996 1.07063 0
M  V30 8610 H 806.564 -4.09889 0.978225 0
M  V30 8611 H 805.288 -3.26551 0.0564142 0
M  V30 8612 H 803.947 -2.95731 2.16654 0
M  V30 8613 H 803.595 -4.97628 0.733137 0
M  V30 8614 H 803.295 -5.34041 2.451 0
M  V30 8615 H 804.819 -5.86943 1.68317 0
M  V30 8616 H 806.233 -4.52806 3.51624 0
M  V30 8617 H 804.63 -4.23538 4.2513 0
M  V30 8618 H 805.7 -2.86272 3.91377 0
M  V30 8619 N 807.043 -1.17915 -1.04565 0
M  V30 8620 C 807.993 -0.869634 -2.10764 0
M  V30 8621 C 808.977 0.158502 -1.60117 0
M  V30 8622 O 810.169 -0.04483 -1.76943 0
M  V30 8623 C 807.298 -0.391642 -3.41059 0
M  V30 8624 C 806.384 -1.45156 -3.98485 0
M  V30 8625 N 806.775 -2.6667 -4.29792 0
M  V30 8626 C 805.073 -1.3109 -4.263 0
M  V30 8627 C 805.774 -3.34823 -4.75677 0
M  V30 8628 N 804.75 -2.62203 -4.76183 0
M  V30 8629 H 808.552 -1.79342 -2.32838 0
M  V30 8630 H 806.066 -1.0688 -1.22272 0
M  V30 8631 H 808.063 -0.151428 -4.16625 0
M  V30 8632 H 806.723 0.525862 -3.20413 0
M  V30 8633 H 807.734 -3.0358 -4.19594 0
M  V30 8634 H 804.411 -0.455545 -4.15007 0
M  V30 8635 H 805.801 -4.38645 -5.0896 0
M  V30 8636 N 808.521 1.23394 -0.980386 0
M  V30 8637 C 809.468 2.24859 -0.520298 0
M  V30 8638 C 810.438 1.60144 0.440821 0
M  V30 8639 O 811.623 1.87593 0.348369 0
M  V30 8640 C 808.763 3.44675 0.171145 0
M  V30 8641 C 807.876 4.23947 -0.830233 0
M  V30 8642 C 807.011 5.31079 -0.113597 0
M  V30 8643 C 806.05 6.02058 -1.10419 0
M  V30 8644 N 805.187 7.00862 -0.416709 0
M  V30 8645 H 810.027 2.63579 -1.39032 0
M  V30 8646 H 807.564 1.29556 -0.696682 0
M  V30 8647 H 809.522 4.13024 0.588838 0
M  V30 8648 H 808.152 3.06755 1.00504 0
M  V30 8649 H 807.204 3.55016 -1.36631 0
M  V30 8650 H 808.516 4.72945 -1.58508 0
M  V30 8651 H 807.67 6.05622 0.36146 0
M  V30 8652 H 806.409 4.83022 0.673854 0
M  V30 8653 H 805.414 5.26307 -1.59 0
M  V30 8654 H 806.639 6.52203 -1.8923 0
M  V30 8655 H 804.585 6.55057 0.351535 0
M  V30 8656 H 804.502 7.47804 -1.11021 0
M  V30 8657 H 805.77 7.79492 0.0359606 0
M  V30 8658 N 809.999 0.752036 1.385 0
M  V30 8659 C 810.929 0.138718 2.33088 0
M  V30 8660 C 811.91 -0.705318 1.54788 0
M  V30 8661 O 813.095 -0.646821 1.83112 0
M  V30 8662 C 810.225 -0.75641 3.38963 0
M  V30 8663 C 809.179 -0.0152239 4.27997 0
M  V30 8664 C 808.505 -1.0285 5.24715 0
M  V30 8665 C 809.805 1.15226 5.09431 0
M  V30 8666 H 811.499 0.928852 2.84627 0
M  V30 8667 H 809.045 0.448111 1.3685 0
M  V30 8668 H 810.998 -1.19513 4.04097 0
M  V30 8669 H 809.722 -1.57885 2.85902 0
M  V30 8670 H 808.381 0.404061 3.64366 0
M  V30 8671 H 808.029 -1.84496 4.67943 0
M  V30 8672 H 807.729 -0.537238 5.85139 0
M  V30 8673 H 809.253 -1.46657 5.92726 0
M  V30 8674 H 810.667 0.791161 5.67815 0
M  V30 8675 H 809.064 1.57428 5.79082 0
M  V30 8676 H 810.134 1.9659 4.43261 0
M  V30 8677 N 811.477 -1.49425 0.500989 0
M  V30 8678 C 812.41 -2.25887 -0.324087 0
M  V30 8679 C 813.388 -1.30469 -0.970388 0
M  V30 8680 O 814.572 -1.59758 -1.00049 0
M  V30 8681 C 811.699 -3.05787 -1.45643 0
M  V30 8682 C 810.745 -4.16359 -0.924508 0
M  V30 8683 S 811.578 -5.35181 0.184707 0
M  V30 8684 C 812.734 -6.18636 -0.950806 0
M  V30 8685 H 812.967 -2.95519 0.324891 0
M  V30 8686 H 810.5 -1.51723 0.286289 0
M  V30 8687 H 812.458 -3.52405 -2.10525 0
M  V30 8688 H 811.119 -2.35624 -2.07703 0
M  V30 8689 H 810.312 -4.71781 -1.77311 0
M  V30 8690 H 809.914 -3.72331 -0.352907 0
M  V30 8691 H 812.206 -6.51581 -1.85603 0
M  V30 8692 H 813.149 -7.06761 -0.435212 0
M  V30 8693 H 813.557 -5.512 -1.21813 0
M  V30 8694 N 812.955 -0.234822 -1.55841 0
M  V30 8695 C 814.232 0.442961 -1.90518 0
M  V30 8696 C 814.612 1.76768 -1.15397 0
M  V30 8697 O 813.96 2.26928 -0.267534 0
M  V30 8698 C 814.17 0.622905 -3.43396 0
M  V30 8699 C 815.518 0.9243 -4.14417 0
M  V30 8700 O 816.542 0.709211 -3.49068 0
M  V30 8701 O 815.401 1.33323 -5.29988 0
M  V30 8702 H 812.495 0.236042 -0.792599 0
M  V30 8703 H 815.041 -0.277992 -1.67408 0
M  V30 8704 H 813.813 -0.310973 -3.90062 0
M  V30 8705 H 813.436 1.39485 -3.7233 0
M  V30 8706 N 814.433 1.57553 0.0384317 0
M  V30 8707 C 815.681 1.88468 0.729672 0
M  V30 8708 C 816.002 0.831302 1.76393 0
M  V30 8709 O 815.272 -0.13622 1.95426 0
M  V30 8710 H 813.852 0.695529 0.272485 0
M  V30 8711 H 816.514 1.94899 0.0066032 0
M  V30 8712 H 815.61 2.8705 1.22511 0
M  V30 8713 N 815.911 -0.310526 1.54511 0
M  V30 8714 C 817.136 -1.07046 1.7764 0
M  V30 8715 C 817.561 -1.80488 0.529696 0
M  V30 8716 O 816.919 -1.73702 -0.519361 0
M  V30 8717 C 816.967 -2.03411 2.97752 0
M  V30 8718 O 816.071 -3.11545 2.7021 0
M  V30 8719 H 815.412 -0.307994 0.588248 0
M  V30 8720 H 817.942 -0.350848 2.01569 0
M  V30 8721 H 817.952 -2.46048 3.2546 0
M  V30 8722 H 816.627 -1.49361 3.88155 0
M  V30 8723 H 815.204 -2.7349 2.53491 0
M  V30 8724 N 817.389 -1.46805 -0.573248 0
M  V30 8725 C 818.319 -1.60951 -1.69165 0
M  V30 8726 C 819.3 -0.45948 -1.63777 0
M  V30 8727 O 820.485 -0.68688 -1.81647 0
M  V30 8728 C 817.615 -1.60844 -3.07809 0
M  V30 8729 C 816.569 -2.74913 -3.28035 0
M  V30 8730 C 815.895 -2.59871 -4.67302 0
M  V30 8731 C 817.195 -4.16654 -3.14955 0
M  V30 8732 H 818.889 -2.54574 -1.57582 0
M  V30 8733 H 816.435 -1.22516 -0.756686 0
M  V30 8734 H 818.388 -1.69334 -3.85881 0
M  V30 8735 H 817.112 -0.637714 -3.20314 0
M  V30 8736 H 815.771 -2.65908 -2.52366 0
M  V30 8737 H 815.419 -1.60861 -4.76585 0
M  V30 8738 H 815.119 -3.36386 -4.81786 0
M  V30 8739 H 816.643 -2.70265 -5.4753 0
M  V30 8740 H 818.057 -4.26721 -3.82861 0
M  V30 8741 H 816.454 -4.93831 -3.40956 0
M  V30 8742 H 817.524 -4.36146 -2.11908 0
M  V30 8743 N 818.867 0.818669 -1.34668 0
M  V30 8744 C 819.799 1.93754 -1.22442 0
M  V30 8745 C 820.812 1.62103 -0.150501 0
M  V30 8746 O 822.001 1.73898 -0.402728 0
M  V30 8747 C 819.101 3.27806 -0.860031 0
M  V30 8748 C 818.274 3.8745 -2.02981 0
M  V30 8749 C 817.333 4.99887 -1.64314 0
M  V30 8750 O 816.359 5.17957 -2.36029 0
M  V30 8751 N 817.561 5.77795 -0.55976 0
M  V30 8752 H 820.326 2.04773 -2.18833 0
M  V30 8753 H 817.887 0.995472 -1.27679 0
M  V30 8754 H 819.879 4.00478 -0.583068 0
M  V30 8755 H 818.449 3.12597 0.0138253 0
M  V30 8756 H 817.669 3.07119 -2.47127 0
M  V30 8757 H 818.957 4.2403 -2.81204 0
M  V30 8758 H 818.355 5.65688 0.0363329 0
M  V30 8759 H 816.912 6.50899 -0.342541 0
M  V30 8760 N 820.346 1.18468 1.03938 0
M  V30 8761 C 821.762 0.934635 1.29371 0
M  V30 8762 C 821.962 -0.399067 1.97509 0
M  V30 8763 O 821.018 -1.13309 2.25648 0
M  V30 8764 C 822.331 2.10111 2.15114 0
M  V30 8765 C 823.879 2.13955 2.28456 0
M  V30 8766 C 824.354 3.30024 3.17566 0
M  V30 8767 N 825.845 3.29893 3.25153 0
M  V30 8768 C 826.58 4.16346 3.94263 0
M  V30 8769 N 826.076 5.12934 4.65693 0
M  V30 8770 N 827.869 4.04256 3.90556 0
M  V30 8771 H 820.02 2.04294 0.581185 0
M  V30 8772 H 822.283 0.892727 0.318971 0
M  V30 8773 H 821.989 3.06572 1.72355 0
M  V30 8774 H 821.863 2.06283 3.15796 0
M  V30 8775 H 824.25 1.18072 2.7045 0
M  V30 8776 H 824.331 2.2184 1.2736 0
M  V30 8777 H 823.975 4.26181 2.76283 0
M  V30 8778 H 823.905 3.19376 4.18697 0
M  V30 8779 H 826.396 2.59969 2.74271 0
M  V30 8780 H 826.709 5.75271 5.16026 0
M  V30 8781 H 825.054 5.16893 4.64593 0
M  V30 8782 H 828.245 3.28083 3.33885 0
M  V30 8783 H 828.418 4.71848 4.44144 0
M  V30 8784 N 821.824 -1.22873 0.986916 0
M  V30 8785 C 822.787 -2.2281 0.537442 0
M  V30 8786 C 823.787 -1.56331 -0.37646 0
M  V30 8787 O 824.977 -1.73376 -0.169247 0
M  V30 8788 C 822.109 -3.40195 -0.219082 0
M  V30 8789 H 823.302 -2.64089 1.42116 0
M  V30 8790 H 820.855 -1.35819 0.773488 0
M  V30 8791 H 821.59 -3.04381 -1.11905 0
M  V30 8792 H 821.375 -3.89657 0.437026 0
M  V30 8793 H 822.865 -4.14326 -0.521926 0
M  V30 8794 N 823.302 -0.75937 -1.38099 0
M  V30 8795 C 824.718 -0.437606 -1.53483 0
M  V30 8796 C 824.918 1.04849 -1.72072 0
M  V30 8797 O 823.974 1.83448 -1.73502 0
M  V30 8798 C 825.287 -1.24189 -2.73857 0
M  V30 8799 C 826.835 -1.23255 -2.8771 0
M  V30 8800 C 827.31 -2.01992 -4.11051 0
M  V30 8801 N 828.801 -1.99282 -4.1814 0
M  V30 8802 C 829.536 -2.56996 -5.12583 0
M  V30 8803 N 829.032 -3.23446 -6.12662 0
M  V30 8804 N 830.825 -2.46894 -5.04975 0
M  V30 8805 H 822.976 -1.72242 -1.24283 0
M  V30 8806 H 825.239 -0.730507 -0.604205 0
M  V30 8807 H 824.945 -2.29449 -2.66545 0
M  V30 8808 H 824.819 -0.862672 -3.67203 0
M  V30 8809 H 827.206 -0.187988 -2.94501 0
M  V30 8810 H 827.287 -1.65132 -1.95359 0
M  V30 8811 H 826.931 -3.06462 -4.05023 0
M  V30 8812 H 826.861 -1.57505 -5.02494 0
M  V30 8813 H 829.352 -1.50893 -3.46467 0
M  V30 8814 H 829.665 -3.6489 -6.81231 0
M  V30 8815 H 828.01 -3.27543 -6.12977 0
M  V30 8816 H 831.201 -1.94604 -4.25731 0
M  V30 8817 H 831.374 -2.92168 -5.78396 0
M  V30 8818 N 824.78 1.49157 -0.508906 0
M  V30 8819 C 826.029 2.0167 0.0346854 0
M  V30 8820 C 826.342 1.39302 1.37311 0
M  V30 8821 O 827.548 1.83189 2.00385 0
M  V30 8822 C 826.004 3.59725 0.112261 0
M  V30 8823 C 825.612 4.31069 -1.21999 0
M  V30 8824 C 827.356 4.20155 0.605798 0
M  V30 8825 C 825.263 5.81001 -1.10415 0
M  V30 8826 H 824.193 0.753814 0.0167355 0
M  V30 8827 H 826.844 1.7162 -0.649518 0
M  V30 8828 H 825.226 3.86525 0.861087 0
M  V30 8829 H 826.4 4.15962 -1.98273 0
M  V30 8830 H 824.715 3.82418 -1.64759 0
M  V30 8831 H 827.312 5.29964 0.710102 0
M  V30 8832 H 827.655 3.84051 1.60656 0
M  V30 8833 H 828.188 3.97705 -0.0867239 0
M  V30 8834 H 824.927 6.21643 -2.07941 0
M  V30 8835 H 824.447 5.9858 -0.382428 0
M  V30 8836 H 826.126 6.42207 -0.786116 0
M  V30 8837 N 826.258 0.243083 1.55714 0
M  V30 8838 C 827.221 -0.644723 2.19945 0
M  V30 8839 C 828.221 -1.10562 1.16759 0
M  V30 8840 O 829.411 -1.01095 1.41865 0
M  V30 8841 C 826.543 -1.88569 2.83997 0
M  V30 8842 H 827.736 -0.0843839 2.99781 0
M  V30 8843 H 825.289 -0.00647246 1.56299 0
M  V30 8844 H 826.024 -2.48736 2.08089 0
M  V30 8845 H 825.809 -1.56345 3.59581 0
M  V30 8846 H 827.299 -2.51774 3.33166 0
M  V30 8847 N 827.736 -1.57571 -0.0300757 0
M  V30 8848 C 828.666 -2.0953 -1.03051 0
M  V30 8849 C 829.647 -0.99761 -1.37774 0
M  V30 8850 O 830.832 -1.27279 -1.46676 0
M  V30 8851 C 827.962 -2.57385 -2.33174 0
M  V30 8852 C 826.916 -3.71409 -2.12696 0
M  V30 8853 C 826.242 -4.05467 -3.4857 0
M  V30 8854 C 827.542 -4.99877 -1.51396 0
M  V30 8855 H 829.236 -2.93367 -0.597999 0
M  V30 8856 H 826.782 -1.41127 -0.286203 0
M  V30 8857 H 828.735 -2.92355 -3.03491 0
M  V30 8858 H 827.459 -1.70629 -2.78484 0
M  V30 8859 H 826.118 -3.36786 -1.44813 0
M  V30 8860 H 825.766 -3.15779 -3.91526 0
M  V30 8861 H 825.466 -4.82269 -3.35694 0
M  V30 8862 H 826.99 -4.4297 -4.2025 0
M  V30 8863 H 828.404 -5.3281 -2.11629 0
M  V30 8864 H 826.801 -5.81283 -1.49098 0
M  V30 8865 H 827.871 -4.82522 -0.479676 0
M  V30 8866 N 829.214 0.302327 -1.54673 0
M  V30 8867 C 830.46 1.03924 -1.74149 0
M  V30 8868 C 830.793 1.86968 -0.525041 0
M  V30 8869 O 830.068 1.88538 0.477868 0
M  V30 8870 C 830.351 1.94633 -3.02969 0
M  V30 8871 C 830.204 1.14778 -4.34909 0
M  V30 8872 C 831.523 2.93826 -3.27649 0
M  V30 8873 H 828.642 0.376405 -0.633631 0
M  V30 8874 H 831.284 0.314007 -1.87387 0
M  V30 8875 H 829.434 2.56471 -2.91813 0
M  V30 8876 H 831.106 0.552363 -4.57981 0
M  V30 8877 H 829.349 0.450462 -4.31455 0
M  V30 8878 H 830.02 1.81495 -5.21309 0
M  V30 8879 H 832.496 2.42117 -3.38406 0
M  V30 8880 H 831.372 3.54462 -4.19104 0
M  V30 8881 H 831.633 3.67416 -2.45882 0
M  V30 8882 N 830.692 1.47107 0.565454 0
M  V30 8883 C 831.639 1.58974 1.6732 0
M  V30 8884 C 832.609 0.433146 1.60353 0
M  V30 8885 O 833.794 0.652141 1.79309 0
M  V30 8886 C 830.934 1.60224 3.05651 0
M  V30 8887 C 830.047 2.86741 3.23116 0
M  V30 8888 C 829.182 2.79381 4.51796 0
M  V30 8889 C 828.221 4.0076 4.62664 0
M  V30 8890 N 827.358 3.91685 5.8269 0
M  V30 8891 H 832.198 2.53588 1.56515 0
M  V30 8892 H 829.735 1.25791 0.762558 0
M  V30 8893 H 831.693 1.58933 3.85741 0
M  V30 8894 H 830.323 0.691285 3.15311 0
M  V30 8895 H 829.375 2.97936 2.36513 0
M  V30 8896 H 830.687 3.7665 3.27011 0
M  V30 8897 H 829.841 2.76293 5.40136 0
M  V30 8898 H 828.58 1.87142 4.50366 0
M  V30 8899 H 827.585 4.04162 3.72738 0
M  V30 8900 H 828.81 4.94117 4.6586 0
M  V30 8901 H 826.756 3.02243 5.82224 0
M  V30 8902 H 826.673 4.75264 5.87929 0
M  V30 8903 H 827.941 3.92599 6.73414 0
M  V30 8904 N 832.17 -0.811516 1.35101 0
M  V30 8905 C 833.118 -1.94449 1.27642 0
M  V30 8906 C 834.112 -1.68522 0.172287 0
M  V30 8907 O 835.318 -1.76799 0.337967 0
M  V30 8908 H 831.693 -0.638776 0.396824 0
M  V30 8909 H 833.664 -1.97861 2.23369 0
M  V30 8910 C 832.413 -3.31139 1.06029 0
M  V30 8911 H 831.736 -3.51644 1.90227 0
M  V30 8912 H 833.176 -4.10831 1.0485 0
M  V30 8913 C 831.635 -3.36072 -0.236039 0
M  V30 8914 O 832.165 -3.82292 -1.23353 0
M  V30 8915 N 830.371 -2.89314 -0.273107 0
M  V30 8916 H 829.918 -2.51893 0.539211 0
M  V30 8917 H 829.876 -2.92996 -1.1402 0
M  V30 8918 N 833.648 -1.19017 -1.03309 0
M  V30 8919 C 834.925 -0.899659 -1.73682 0
M  V30 8920 C 835.305 0.595677 -2.02521 0
M  V30 8921 O 834.653 1.55263 -1.67648 0
M  V30 8922 C 834.863 -1.75508 -3.01659 0
M  V30 8923 C 836.211 -1.98679 -3.75249 0
M  V30 8924 O 837.235 -1.72624 -3.11576 0
M  V30 8925 O 836.094 -2.42587 -4.89708 0
M  V30 8926 H 833.188 -0.334903 -0.756154 0
M  V30 8927 H 835.734 -1.29809 -1.09305 0
M  V30 8928 H 834.506 -2.7684 -2.76542 0
M  V30 8929 H 834.129 -1.35565 -3.73775 0
M  V30 8930 N 835.127 1.22348 -0.993418 0
M  V30 8931 C 836.543 1.43222 -0.704238 0
M  V30 8932 C 836.743 1.88009 0.724909 0
M  V30 8933 O 835.799 2.03429 1.49575 0
M  V30 8934 C 837.112 2.47328 -1.71025 0
M  V30 8935 C 838.66 2.61126 -1.72576 0
M  V30 8936 C 839.135 3.68453 -2.72041 0
M  V30 8937 N 840.626 3.75911 -2.70639 0
M  V30 8938 C 841.361 4.58551 -3.44266 0
M  V30 8939 N 840.857 5.45179 -4.27495 0
M  V30 8940 N 842.65 4.52866 -3.32969 0
M  V30 8941 H 834.801 0.915832 -1.91641 0
M  V30 8942 H 837.064 0.464283 -0.826526 0
M  V30 8943 H 836.77 2.21366 -2.73295 0
M  V30 8944 H 836.644 3.45939 -1.50353 0
M  V30 8945 H 839.031 2.86431 -0.710037 0
M  V30 8946 H 839.112 1.62787 -1.97317 0
M  V30 8947 H 838.756 3.43895 -3.73763 0
M  V30 8948 H 838.686 4.66362 -2.4457 0
M  V30 8949 H 841.177 3.14014 -2.10247 0
M  V30 8950 H 841.49 6.0526 -4.80499 0
M  V30 8951 H 839.835 5.44759 -4.31582 0
M  V30 8952 H 843.026 3.84215 -2.67389 0
M  V30 8953 H 843.199 5.17039 -3.90608 0
M  V30 8954 N 836.605 0.766683 1.37694 0
M  V30 8955 C 838.016 0.394761 1.82479 0
M  V30 8956 C 838.367 -1.07842 1.63904 0
M  V30 8957 O 837.492 -1.83479 1.14737 0
M  V30 8958 C 838.087 0.70974 3.31283 0
M  V30 8959 C 836.646 0.390936 3.74364 0
M  V30 8960 C 835.793 0.956192 2.60293 0
M  V30 8961 H 838.744 0.961756 1.26238 0
M  V30 8962 H 838.765 -0.00742144 3.80499 0
M  V30 8963 H 838.277 1.782 3.4477 0
M  V30 8964 H 836.378 -0.674213 3.66449 0
M  V30 8965 H 836.491 0.895645 4.70654 0
M  V30 8966 H 834.855 0.380744 2.51838 0
M  V30 8967 H 835.638 2.03375 2.76575 0
M  V30 8968 N 838.083 -1.48885 0.516809 0
M  V30 8969 C 839.329 -2.02788 -0.0220928 0
M  V30 8970 C 839.662 -1.39433 -1.35175 0
M  V30 8971 O 838.937 -0.535459 -1.86984 0
M  V30 8972 C 839.22 -3.59753 -0.158012 0
M  V30 8973 C 839.073 -4.33611 1.19588 0
M  V30 8974 C 840.392 -4.30984 -0.891133 0
M  V30 8975 H 837.511 -0.736971 -0.00655488 0
M  V30 8976 H 840.153 -1.77746 0.671287 0
M  V30 8977 H 838.303 -3.8122 -0.748568 0
M  V30 8978 H 839.975 -4.23598 1.82653 0
M  V30 8979 H 838.218 -3.95547 1.78116 0
M  V30 8980 H 838.889 -5.41846 1.05391 0
M  V30 8981 H 841.365 -4.14267 -0.39012 0
M  V30 8982 H 840.241 -5.40527 -0.955107 0
M  V30 8983 H 840.502 -3.97336 -1.93847 0
M  V30 8984 N 839.561 -0.251338 -1.55583 0
M  V30 8985 C 840.471 0.656978 -2.25213 0
M  V30 8986 C 841.487 1.18966 -1.26977 0
M  V30 8987 O 842.663 1.22499 -1.59862 0
M  V30 8988 C 839.728 1.83527 -2.94141 0
M  V30 8989 C 838.789 1.34162 -4.07798 0
M  V30 8990 C 838.022 2.46375 -4.73429 0
M  V30 8991 O 838.245 3.65205 -4.38157 0
M  V30 8992 O 837.179 2.15881 -5.61853 0
M  V30 8993 H 841.005 0.0936395 -3.03556 0
M  V30 8994 H 838.59 -0.0196638 -1.49387 0
M  V30 8995 H 840.472 2.52279 -3.3754 0
M  V30 8996 H 839.147 2.38614 -2.18735 0
M  V30 8997 H 838.054 0.621249 -3.68906 0
M  V30 8998 H 839.387 0.836779 -4.85035 0
M  V30 8999 N 841.039 1.57585 0.0217189 0
M  V30 9000 C 842.286 1.89606 0.711045 0
M  V30 9001 C 842.614 0.849535 1.74966 0
M  V30 9002 O 841.869 -0.14856 1.95135 0
M  V30 9003 C 842.168 3.28377 1.41079 0
M  V30 9004 C 841.834 4.48035 0.507454 0
M  V30 9005 C 840.496 4.80504 0.258672 0
M  V30 9006 C 842.848 5.21071 -0.115793 0
M  V30 9007 C 840.176 5.83393 -0.622013 0
M  V30 9008 C 842.528 6.24897 -0.984224 0
M  V30 9009 C 841.192 6.55836 -1.2424 0
M  V30 9010 H 840.462 0.693817 0.26019 0
M  V30 9011 H 843.109 1.91478 -0.0291424 0
M  V30 9012 H 841.414 3.22528 2.22448 0
M  V30 9013 H 843.111 3.50404 1.94982 0
M  V30 9014 H 839.701 4.22653 0.711516 0
M  V30 9015 H 843.885 4.96259 0.0634327 0
M  V30 9016 H 839.141 6.05736 -0.830267 0
M  V30 9017 H 843.315 6.8063 -1.47363 0
M  V30 9018 H 840.942 7.35383 -1.92653 0
M  V30 9019 N 842.517 -0.29412 1.54831 0
M  V30 9020 C 843.742 -1.05156 1.78765 0
M  V30 9021 C 844.167 -1.79916 0.548809 0
M  V30 9022 O 843.525 -1.74243 -0.500909 0
M  V30 9023 C 843.573 -2.00242 2.99893 0
M  V30 9024 O 842.677 -3.08662 2.73499 0
M  V30 9025 H 842.018 -0.301737 0.591482 0
M  V30 9026 H 844.548 -0.329449 2.0193 0
M  V30 9027 H 844.558 -2.42583 3.28051 0
M  V30 9028 H 843.233 -1.45235 3.89717 0
M  V30 9029 H 841.81 -2.70786 2.56377 0
M  V30 9030 N 843.995 -1.47404 -0.557645 0
M  V30 9031 C 844.905 -1.62491 -1.69216 0
M  V30 9032 C 845.921 -0.507764 -1.66426 0
M  V30 9033 O 847.097 -0.775241 -1.85882 0
M  V30 9034 C 844.162 -1.63511 -3.05721 0
M  V30 9035 C 843.223 -2.86648 -3.1958 0
M  V30 9036 C 842.456 -2.87609 -4.49574 0
M  V30 9037 O 842.679 -1.97799 -5.35006 0
M  V30 9038 O 841.613 -3.79465 -4.67215 0
M  V30 9039 H 845.439 -2.58487 -1.59431 0
M  V30 9040 H 843.024 -1.30485 -0.7276 0
M  V30 9041 H 844.906 -1.66863 -3.86956 0
M  V30 9042 H 843.581 -0.706812 -3.15889 0
M  V30 9043 H 842.488 -2.8884 -2.37744 0
M  V30 9044 H 843.821 -3.7877 -3.14316 0
M  V30 9045 N 845.473 0.80434 -1.35529 0
M  V30 9046 C 846.72 1.56154 -1.28927 0
M  V30 9047 C 847.048 1.94026 0.135682 0
M  V30 9048 O 846.303 1.61759 1.10148 0
M  V30 9049 C 846.602 2.85988 -2.14349 0
M  V30 9050 C 846.268 2.67323 -3.6311 0
M  V30 9051 C 844.93 2.61941 -4.03659 0
M  V30 9052 C 847.282 2.49699 -4.57493 0
M  V30 9053 C 844.61 2.3688 -5.36754 0
M  V30 9054 C 846.962 2.26168 -5.90788 0
M  V30 9055 C 845.626 2.19209 -6.30479 0
M  V30 9056 H 844.896 0.571407 -0.471779 0
M  V30 9057 H 847.543 0.929193 -1.67446 0
M  V30 9058 H 845.848 3.53612 -1.68718 0
M  V30 9059 H 847.545 3.43697 -2.06576 0
M  V30 9060 H 844.135 2.72361 -3.30934 0
M  V30 9061 H 848.319 2.52869 -4.27049 0
M  V30 9062 H 843.575 2.29964 -5.66504 0
M  V30 9063 H 847.749 2.11522 -6.63499 0
M  V30 9064 H 845.376 1.99553 -7.33541 0
M  V30 9065 N 846.951 1.19563 1.02676 0
M  V30 9066 C 848.362 1.00158 1.57561 0
M  V30 9067 C 848.713 -0.444922 1.91089 0
M  V30 9068 O 847.838 -1.32466 1.71119 0
M  V30 9069 C 848.433 1.81181 2.86284 0
M  V30 9070 C 846.992 1.66171 3.37734 0
M  V30 9071 C 846.139 1.7975 2.11152 0
M  V30 9072 H 849.09 1.33904 0.85179 0
M  V30 9073 H 849.111 1.30916 3.57269 0
M  V30 9074 H 848.623 2.86454 2.6185 0
M  V30 9075 H 846.724 0.634927 3.6715 0
M  V30 9076 H 846.837 2.46832 4.10622 0
M  V30 9077 H 845.201 1.22833 2.23123 0
M  V30 9078 H 845.984 2.86487 1.89157 0
M  V30 9079 N 848.429 -1.21819 0.999893 0
M  V30 9080 C 849.706 -1.86318 0.595384 0
M  V30 9081 C 850.086 -1.8965 -0.927143 0
M  V30 9082 O 849.434 -1.3921 -1.81199 0
M  V30 9083 C 849.644 -3.26837 1.22387 0
M  V30 9084 C 850.992 -4.03272 1.32878 0
M  V30 9085 O 852.016 -3.36129 1.1788 0
M  V30 9086 O 850.875 -5.23477 1.56952 0
M  V30 9087 H 847.969 -0.801638 0.203238 0
M  V30 9088 H 850.515 -1.29542 1.09622 0
M  V30 9089 H 849.287 -3.19084 2.26497 0
M  V30 9090 H 848.91 -3.91226 0.709069 0
M  V30 9091 N 849.908 -0.773975 -1.37286 0
M  V30 9092 C 851.319 -0.404433 -1.82267 0
M  V30 9093 C 851.67 1.06971 -1.64474 0
M  V30 9094 O 850.795 1.82867 -1.15708 0
M  V30 9095 C 851.39 -0.727298 -3.30902 0
M  V30 9096 C 849.949 -0.410784 -3.74152 0
M  V30 9097 C 849.096 -0.969983 -2.59782 0
M  V30 9098 H 852.047 -0.968437 -1.25726 0
M  V30 9099 H 852.068 -0.0127575 -3.80498 0
M  V30 9100 H 851.58 -1.80026 -3.4382 0
M  V30 9101 H 849.681 0.65477 -3.66802 0
M  V30 9102 H 849.794 -0.920592 -4.70172 0
M  V30 9103 H 848.158 -0.394094 -2.51633 0
M  V30 9104 H 848.941 -2.04839 -2.75492 0
M  V30 9105 N 851.386 1.48609 -0.524698 0
M  V30 9106 C 852.319 2.26374 0.288109 0
M  V30 9107 C 853.297 1.31997 0.949509 0
M  V30 9108 O 854.481 1.61329 0.974946 0
M  V30 9109 C 851.608 3.08065 1.4076 0
M  V30 9110 C 850.654 4.17777 0.858152 0
M  V30 9111 S 851.487 5.3482 -0.269827 0
M  V30 9112 C 852.643 6.2007 0.852266 0
M  V30 9113 H 852.876 2.94965 -0.371865 0
M  V30 9114 H 850.409 1.51248 -0.31039 0
M  V30 9115 H 852.367 3.5571 2.04892 0
M  V30 9116 H 851.028 2.38898 2.03928 0
M  V30 9117 H 850.221 4.74542 1.69783 0
M  V30 9118 H 849.823 3.72846 0.293627 0
M  V30 9119 H 852.115 6.54451 1.75213 0
M  V30 9120 H 853.058 7.07364 0.322717 0
M  V30 9121 H 853.466 5.53068 1.13029 0
M  V30 9122 N 852.864 0.259585 1.55447 0
M  V30 9123 C 854.11 -0.355207 2.00274 0
M  V30 9124 C 854.465 -1.54637 1.14477 0
M  V30 9125 O 853.758 -1.90519 0.203215 0
M  V30 9126 C 853.952 -0.802727 3.48269 0
M  V30 9127 C 853.781 0.34353 4.48386 0
M  V30 9128 C 852.551 0.822317 4.98564 0
M  V30 9129 C 854.749 1.17482 5.00702 0
M  V30 9130 N 852.731 1.93966 5.82452 0
M  V30 9131 C 854.102 2.14032 5.81885 0
M  V30 9132 C 856.157 1.20994 4.82975 0
M  V30 9133 C 854.86 3.1382 6.47232 0
M  V30 9134 C 856.886 2.19618 5.4911 0
M  V30 9135 C 856.248 3.14903 6.30092 0
M  V30 9136 H 852.347 -0.0955824 0.776137 0
M  V30 9137 H 854.931 0.380062 1.90954 0
M  V30 9138 H 853.102 -1.50726 3.57961 0
M  V30 9139 H 854.834 -1.39354 3.79951 0
M  V30 9140 H 851.589 0.404272 4.71871 0
M  V30 9141 H 852.013 2.50148 6.29091 0
M  V30 9142 H 856.655 0.487104 4.19985 0
M  V30 9143 H 854.373 3.87045 7.09381 0
M  V30 9144 H 857.959 2.23057 5.37342 0
M  V30 9145 H 856.839 3.8997 6.80362 0
M  V30 9146 N 854.342 -1.57594 -0.0133615 0
M  V30 9147 C 855.59 -1.89605 -0.699596 0
M  V30 9148 C 855.911 -0.85926 -1.75048 0
M  V30 9149 O 855.181 0.105112 -1.95618 0
M  V30 9150 H 853.761 -0.699776 -0.261385 0
M  V30 9151 H 856.423 -1.94885 0.0244044 0
M  V30 9152 H 855.519 -2.88962 -1.17928 0
M  V30 9153 N 855.82 0.285905 -1.54985 0
M  V30 9154 C 857.045 1.04207 -1.7932 0
M  V30 9155 C 857.47 1.79622 -0.558343 0
M  V30 9156 O 856.828 1.74506 0.491661 0
M  V30 9157 C 856.876 1.98648 -3.0095 0
M  V30 9158 O 855.98 3.07207 -2.75132 0
M  V30 9159 H 855.321 0.298596 -0.593074 0
M  V30 9160 H 857.851 0.318736 -2.02102 0
M  V30 9161 H 857.861 2.4084 -3.29333 0
M  V30 9162 H 856.536 1.43167 -3.90482 0
M  V30 9163 H 855.113 2.69423 -2.57809 0
M  V30 9164 N 857.298 1.47698 0.54982 0
M  V30 9165 C 858.575 1.45185 1.31075 0
M  V30 9166 C 858.955 0.152768 2.10547 0
M  V30 9167 O 858.303 -0.865706 2.11466 0
M  V30 9168 C 858.513 2.70192 2.20902 0
M  V30 9169 C 859.861 3.1771 2.81683 0
M  V30 9170 O 860.885 2.70971 2.312 0
M  V30 9171 O 859.744 3.98986 3.7346 0
M  V30 9172 H 856.838 0.57892 0.590577 0
M  V30 9173 H 859.384 1.59908 0.568112 0
M  V30 9174 H 858.156 3.56269 1.61828 0
M  V30 9175 H 857.779 2.58091 3.02448 0
M  V30 9176 N 858.776 -0.797141 1.35954 0
M  V30 9177 C 860.006 -1.5835 1.32698 0
M  V30 9178 C 860.414 -1.88959 -0.0955298 0
M  V30 9179 O 859.757 -1.49987 -1.06064 0
M  V30 9180 C 859.819 -2.93529 2.0756 0
M  V30 9181 C 859.483 -2.85688 3.56695 0
M  V30 9182 C 860.48 -2.58467 4.51099 0
M  V30 9183 C 858.165 -3.04508 3.99475 0
M  V30 9184 C 860.159 -2.50157 5.8626 0
M  V30 9185 C 857.846 -2.9582 5.34728 0
M  V30 9186 C 858.844 -2.68681 6.27933 0
M  V30 9187 O 858.532 -2.59973 7.60703 0
M  V30 9188 H 858.264 -0.49807 0.457059 0
M  V30 9189 H 860.818 -0.997889 1.79531 0
M  V30 9190 H 859.048 -3.54111 1.55378 0
M  V30 9191 H 860.737 -3.54744 1.9726 0
M  V30 9192 H 861.503 -2.43638 4.19363 0
M  V30 9193 H 857.382 -3.24641 3.27306 0
M  V30 9194 H 860.926 -2.28894 6.58979 0
M  V30 9195 H 856.823 -3.10211 5.66074 0
M  V30 9196 H 857.591 -2.75511 7.70737 0
M  V30 9197 N 860.254 -1.20106 -1.0204 0
M  V30 9198 C 861.5 -1.01039 -1.75838 0
M  V30 9199 C 861.833 0.456819 -1.88751 0
M  V30 9200 O 861.108 1.33919 -1.41053 0
M  V30 9201 C 861.391 -1.69009 -3.17975 0
M  V30 9202 C 861.244 -3.2315 -3.1288 0
M  V30 9203 C 862.563 -1.42005 -4.16561 0
M  V30 9204 H 859.682 -0.368465 -0.638281 0
M  V30 9205 H 862.324 -1.48066 -1.19064 0
M  V30 9206 H 860.474 -1.29026 -3.66449 0
M  V30 9207 H 862.146 -3.72402 -2.72239 0
M  V30 9208 H 860.389 -3.54253 -2.50374 0
M  V30 9209 H 861.06 -3.65862 -4.13339 0
M  V30 9210 H 863.536 -1.76685 -3.76725 0
M  V30 9211 H 862.412 -1.92101 -5.14187 0
M  V30 9212 H 862.673 -0.346884 -4.40737 0
M  V30 9213 N 861.732 1.21287 -1.00634 0
M  V30 9214 C 862.664 2.2308 -0.526094 0
M  V30 9215 C 863.677 1.58157 0.386031 0
M  V30 9216 O 864.866 1.77528 0.186016 0
M  V30 9217 C 861.966 3.37937 0.255289 0
M  V30 9218 C 861.139 4.32449 -0.656236 0
M  V30 9219 C 860.198 5.26145 0.0757714 0
M  V30 9220 O 859.224 5.66601 -0.543325 0
M  V30 9221 N 860.426 5.6449 1.35391 0
M  V30 9222 H 863.191 2.64913 -1.40147 0
M  V30 9223 H 860.752 1.35724 -0.882641 0
M  V30 9224 H 862.744 3.97614 0.753977 0
M  V30 9225 H 861.314 2.95078 1.03187 0
M  V30 9226 H 860.534 3.70892 -1.3354 0
M  V30 9227 H 861.822 4.92526 -1.27653 0
M  V30 9228 H 861.22 5.33617 1.878 0
M  V30 9229 H 859.777 6.26524 1.79753 0
M  V30 9230 N 863.21 0.781244 1.36873 0
M  V30 9231 C 864.14 0.188128 2.32741 0
M  V30 9232 C 865.121 -0.672326 1.56249 0
M  V30 9233 O 866.306 -0.607835 1.84442 0
M  V30 9234 C 863.436 -0.684341 3.40491 0
M  V30 9235 C 862.39 0.0755641 4.27933 0
M  V30 9236 C 861.716 -0.916968 5.26779 0
M  V30 9237 C 863.016 1.26006 5.06873 0
M  V30 9238 H 864.71 0.989016 2.82593 0
M  V30 9239 H 862.256 0.477038 1.35869 0
M  V30 9240 H 864.209 -1.10915 4.06541 0
M  V30 9241 H 862.933 -1.51785 2.89187 0
M  V30 9242 H 861.592 0.481258 3.63427 0
M  V30 9243 H 861.24 -1.74528 4.71751 0
M  V30 9244 H 860.94 -0.413 5.86147 0
M  V30 9245 H 862.464 -1.34052 5.95703 0
M  V30 9246 H 863.878 0.911425 5.66009 0
M  V30 9247 H 862.275 1.69676 5.75613 0
M  V30 9248 H 863.345 2.05948 4.38991 0
M  V30 9249 N 864.689 -1.48329 0.532571 0
M  V30 9250 C 865.914 -2.074 0.00147755 0
M  V30 9251 C 866.339 -1.38615 -1.27151 0
M  V30 9252 O 865.697 -0.452949 -1.75551 0
M  V30 9253 C 865.745 -3.60029 -0.202866 0
M  V30 9254 O 864.849 -3.92327 -1.27097 0
M  V30 9255 H 864.19 -0.662777 0.0402883 0
M  V30 9256 H 866.72 -1.90701 0.741224 0
M  V30 9257 H 866.73 -4.05783 -0.424722 0
M  V30 9258 H 865.405 -4.09496 0.727033 0
M  V30 9259 H 863.982 -3.58348 -1.03156 0
M  V30 9260 N 866.167 -0.267825 -1.55308 0
M  V30 9261 C 867.583 0.0865107 -1.59365 0
M  V30 9262 C 867.783 1.55205 -1.28505 0
M  V30 9263 O 866.839 2.29978 -1.04241 0
M  V30 9264 C 868.152 -0.28155 -2.99379 0
M  V30 9265 C 869.7 -0.227565 -3.12172 0
M  V30 9266 C 870.175 -0.569959 -4.5444 0
M  V30 9267 N 871.666 -0.521238 -4.60258 0
M  V30 9268 C 872.401 -0.759061 -5.68354 0
M  V30 9269 N 871.897 -1.06112 -6.84626 0
M  V30 9270 N 873.69 -0.688351 -5.57869 0
M  V30 9271 H 865.841 -1.22332 -1.73633 0
M  V30 9272 H 868.104 -0.493703 -0.809297 0
M  V30 9273 H 867.81 -1.3005 -3.26772 0
M  V30 9274 H 867.684 0.381192 -3.75269 0
M  V30 9275 H 870.071 0.782093 -2.84548 0
M  V30 9276 H 870.152 -0.924461 -2.38511 0
M  V30 9277 H 869.796 -1.57727 -4.82788 0
M  V30 9278 H 869.726 0.148646 -5.2639 0
M  V30 9279 H 872.217 -0.297359 -3.76728 0
M  V30 9280 H 872.53 -1.22945 -7.62958 0
M  V30 9281 H 870.875 -1.09881 -6.86259 0
M  V30 9282 H 874.066 -0.452268 -4.6591 0
M  V30 9283 H 874.239 -0.877081 -6.42037 0
M  V30 9284 N 867.645 1.57599 0.00500368 0
M  V30 9285 C 868.873 1.94626 0.702016 0
M  V30 9286 C 869.288 0.86953 1.67585 0
M  V30 9287 O 868.645 -0.15199 1.81866 0
M  V30 9288 C 868.696 3.31658 1.43824 0
M  V30 9289 O 868.417 4.35197 0.503467 0
M  V30 9290 C 869.918 3.83114 2.23021 0
M  V30 9291 H 867.138 0.641785 0.195841 0
M  V30 9292 H 869.682 2.04451 -0.0446287 0
M  V30 9293 H 867.837 3.23156 2.13655 0
M  V30 9294 H 868.251 5.1444 1.02235 0
M  V30 9295 H 869.725 4.81438 2.7004 0
M  V30 9296 H 870.202 3.15559 3.05482 0
M  V30 9297 H 870.808 3.94775 1.58216 0
M  V30 9298 N 869.123 -0.277682 1.55134 0
M  V30 9299 C 870.534 -0.849063 1.66276 0
M  V30 9300 C 870.885 -1.87223 0.5867 0
M  V30 9301 O 870.01 -2.14676 -0.272635 0
M  V30 9302 C 870.605 -1.54681 3.01429 0
M  V30 9303 C 869.164 -2.06628 3.14614 0
M  V30 9304 C 868.311 -0.906748 2.62056 0
M  V30 9305 H 871.262 -0.0541357 1.58608 0
M  V30 9306 H 871.283 -2.41356 2.94156 0
M  V30 9307 H 870.795 -0.80189 3.79725 0
M  V30 9308 H 868.896 -2.84095 2.41082 0
M  V30 9309 H 869.009 -2.2848 4.2111 0
M  V30 9310 H 867.373 -1.29882 2.19095 0
M  V30 9311 H 868.156 -0.175414 3.42852 0
M  V30 9312 N 870.601 -1.47988 -0.541979 0
M  V30 9313 C 872.012 -1.49073 -1.12402 0
M  V30 9314 C 872.363 -0.253825 -1.94551 0
M  V30 9315 O 871.488 0.640056 -2.06718 0
M  V30 9316 C 872.083 -2.7011 -2.04514 0
M  V30 9317 C 870.642 -2.74105 -2.5796 0
M  V30 9318 C 869.789 -2.42409 -1.3466 0
M  V30 9319 H 872.74 -1.55277 -0.327818 0
M  V30 9320 H 872.761 -2.47946 -2.88623 0
M  V30 9321 H 872.273 -3.60117 -1.44697 0
M  V30 9322 H 870.374 -1.88276 -3.21532 0
M  V30 9323 H 870.487 -3.75213 -2.97913 0
M  V30 9324 H 868.851 -1.9331 -1.65841 0
M  V30 9325 H 869.634 -3.34642 -0.766133 0
M  V30 9326 N 872.079 0.78992 -1.36375 0
M  V30 9327 C 873.304 1.58389 -1.33895 0
M  V30 9328 C 873.729 1.8794 0.0774934 0
M  V30 9329 O 873.087 1.4785 1.0493 0
M  V30 9330 C 873.135 2.88201 -2.16732 0
M  V30 9331 O 872.239 3.81778 -1.55946 0
M  V30 9332 H 871.58 0.480471 -0.458305 0
M  V30 9333 H 874.11 0.979119 -1.79651 0
M  V30 9334 H 874.12 3.37475 -2.29292 0
M  V30 9335 H 872.795 2.66019 -3.19698 0
M  V30 9336 H 871.372 3.40371 -1.52323 0
M  V30 9337 N 873.557 1.20646 1.01402 0
M  V30 9338 C 874.782 1.04462 1.79172 0
M  V30 9339 C 875.207 -0.401588 1.83763 0
M  V30 9340 O 874.565 -1.28934 1.27459 0
M  V30 9341 C 874.613 1.63583 3.21361 0
M  V30 9342 O 873.717 0.875198 4.03006 0
M  V30 9343 H 873.058 0.368235 0.552539 0
M  V30 9344 H 875.588 1.59994 1.27526 0
M  V30 9345 H 875.598 1.67426 3.72065 0
M  V30 9346 H 874.273 2.68835 3.17334 0
M  V30 9347 H 872.85 0.911172 3.61597 0
M  V30 9348 N 875.035 -1.20752 1.01276 0
M  V30 9349 C 875.945 -2.27079 0.589277 0
M  V30 9350 C 876.961 -1.6999 -0.371389 0
M  V30 9351 O 878.137 -2.00044 -0.233294 0
M  V30 9352 C 875.202 -3.4663 -0.0696715 0
M  V30 9353 C 874.263 -4.18962 0.936454 0
M  V30 9354 C 873.496 -5.32806 0.308856 0
M  V30 9355 O 873.719 -5.63376 -0.8924 0
M  V30 9356 O 872.653 -5.93131 1.02367 0
M  V30 9357 H 876.479 -2.6551 1.47438 0
M  V30 9358 H 874.064 -1.27297 0.782045 0
M  V30 9359 H 875.946 -4.19119 -0.437873 0
M  V30 9360 H 874.621 -3.10082 -0.929029 0
M  V30 9361 H 873.528 -3.48661 1.35595 0
M  V30 9362 H 874.861 -4.59441 1.76565 0
M  V30 9363 N 876.513 -0.788492 -1.36457 0
M  V30 9364 C 877.423 -0.187385 -2.3385 0
M  V30 9365 C 878.439 0.659984 -1.60998 0
M  V30 9366 O 879.615 0.575986 -1.92988 0
M  V30 9367 C 876.68 0.668525 -3.40194 0
M  V30 9368 C 875.741 -0.197234 -4.28847 0
M  V30 9369 C 874.974 0.61792 -5.30111 0
M  V30 9370 O 875.197 1.85396 -5.3943 0
M  V30 9371 O 874.131 0.0183016 -6.01897 0
M  V30 9372 H 877.957 -0.992617 -2.87021 0
M  V30 9373 H 875.542 -0.549934 -1.3891 0
M  V30 9374 H 877.424 1.15663 -4.05216 0
M  V30 9375 H 876.099 1.45166 -2.89324 0
M  V30 9376 H 875.006 -0.73207 -3.66867 0
M  V30 9377 H 876.339 -0.943863 -4.83065 0
M  V30 9378 N 877.991 1.48044 -0.54043 0
M  V30 9379 C 878.938 2.29781 0.216597 0
M  V30 9380 C 879.908 1.38021 0.924094 0
M  V30 9381 O 881.093 1.66985 0.923078 0
M  V30 9382 C 878.233 3.21623 1.2511 0
M  V30 9383 C 877.346 4.28467 0.551384 0
M  V30 9384 C 876.481 5.07477 1.56972 0
M  V30 9385 C 875.52 6.06113 0.854048 0
M  V30 9386 N 874.657 6.78143 1.81842 0
M  V30 9387 H 879.497 2.94001 -0.486578 0
M  V30 9388 H 877.034 1.44929 -0.251789 0
M  V30 9389 H 878.992 3.73279 1.8633 0
M  V30 9390 H 877.622 2.59305 1.92252 0
M  V30 9391 H 876.674 3.79997 -0.174982 0
M  V30 9392 H 877.986 4.98799 -0.0100542 0
M  V30 9393 H 877.14 5.63199 2.25592 0
M  V30 9394 H 875.879 4.37008 2.16507 0
M  V30 9395 H 874.884 5.49585 0.153838 0
M  V30 9396 H 876.109 6.78584 0.264675 0
M  V30 9397 H 874.055 6.10417 2.40265 0
M  V30 9398 H 873.972 7.44587 1.3087 0
M  V30 9399 H 875.24 7.38448 2.49628 0
M  V30 9400 N 879.47 0.276058 1.55163 0
M  V30 9401 C 880.71 -0.341634 2.01525 0
M  V30 9402 C 881.074 -1.52979 1.16023 0
M  V30 9403 O 882.275 -2.21718 1.51968 0
M  V30 9404 C 880.546 -0.713294 3.5021 0
M  V30 9405 S 882.105 -1.31739 4.18558 0
M  V30 9406 H 878.923 -0.1062 0.703024 0
M  V30 9407 H 881.525 0.398112 1.91404 0
M  V30 9408 H 880.229 0.160311 4.10087 0
M  V30 9409 H 879.76 -1.48448 3.64317 0
M  V30 9410 H 881.775 -2.60595 4.22261 0
M  V30 9411 N 880.948 -1.576 0.00335426 0
M  V30 9412 C 882.173 -1.95398 -0.695311 0
M  V30 9413 C 882.598 -0.878476 -1.66326 0
M  V30 9414 O 881.956 0.163086 -1.80565 0
M  V30 9415 C 882.004 -3.32293 -1.40049 0
M  V30 9416 O 881.108 -3.26834 -2.51502 0
M  V30 9417 H 880.449 -0.637796 -0.184694 0
M  V30 9418 H 882.979 -2.04519 0.057543 0
M  V30 9419 H 882.989 -3.67936 -1.76316 0
M  V30 9420 H 881.664 -4.10123 -0.690803 0
M  V30 9421 H 880.241 -3.02872 -2.17539 0
M  V30 9422 N 882.426 0.269451 -1.5528 0
M  V30 9423 C 883.389 1.31642 -1.87625 0
M  V30 9424 C 884.389 1.42182 -0.751058 0
M  V30 9425 O 885.579 1.41272 -1.01921 0
M  V30 9426 C 882.711 2.6973 -2.08467 0
M  V30 9427 H 883.904 1.0419 -2.81219 0
M  V30 9428 H 881.457 0.507685 -1.47825 0
M  V30 9429 H 882.192 3.02356 -1.17266 0
M  V30 9430 H 881.977 2.63465 -2.90394 0
M  V30 9431 H 883.467 3.4537 -2.34753 0
M  V30 9432 N 883.904 1.48273 0.534124 0
M  V30 9433 C 885.15 1.56311 1.29208 0
M  V30 9434 C 885.483 0.234481 1.92779 0
M  V30 9435 O 884.758 -0.759143 1.79073 0
M  V30 9436 C 885.041 2.69831 2.3846 0
M  V30 9437 C 884.894 4.12385 1.79608 0
M  V30 9438 C 886.213 2.79133 3.40254 0
M  V30 9439 H 883.332 0.56899 0.468422 0
M  V30 9440 H 885.974 1.80429 0.595438 0
M  V30 9441 H 884.124 2.49397 2.97881 0
M  V30 9442 H 885.796 4.44246 1.24269 0
M  V30 9443 H 884.039 4.19579 1.10162 0
M  V30 9444 H 884.71 4.87629 2.58693 0
M  V30 9445 H 887.186 2.97632 2.90783 0
M  V30 9446 H 886.062 3.60298 4.14097 0
M  V30 9447 H 886.323 1.87122 4.00547 0
M  V30 9448 N 885.382 -0.782676 1.36792 0
M  V30 9449 C 886.607 -1.57676 1.34733 0
M  V30 9450 C 887.032 -1.87979 -0.0675253 0
M  V30 9451 O 886.39 -1.48404 -1.04144 0
M  V30 9452 C 886.438 -2.87047 2.18257 0
M  V30 9453 O 885.542 -3.80946 1.57969 0
M  V30 9454 H 884.883 -0.478034 0.460846 0
M  V30 9455 H 887.413 -0.969578 1.80168 0
M  V30 9456 H 887.423 -3.36254 2.31079 0
M  V30 9457 H 886.098 -2.64319 3.21104 0
M  V30 9458 H 884.675 -3.39558 1.54126 0
M  V30 9459 N 886.86 -1.21182 -1.00761 0
M  V30 9460 C 888.106 -1.03903 -1.74859 0
M  V30 9461 C 888.461 0.423347 -1.87685 0
M  V30 9462 O 887.754 1.31001 -1.39819 0
M  V30 9463 C 887.948 -1.6667 -3.16158 0
M  V30 9464 C 887.777 -3.1886 -3.1711 0
M  V30 9465 C 886.547 -3.87888 -3.23838 0
M  V30 9466 C 888.745 -4.15978 -3.02434 0
M  V30 9467 N 886.727 -5.27289 -3.14388 0
M  V30 9468 C 888.098 -5.42114 -3.00854 0
M  V30 9469 C 890.153 -4.0706 -2.86717 0
M  V30 9470 C 888.856 -6.60358 -2.85166 0
M  V30 9471 C 890.882 -5.24938 -2.72386 0
M  V30 9472 C 890.244 -6.49983 -2.71479 0
M  V30 9473 H 886.343 -0.434522 -0.650165 0
M  V30 9474 H 888.927 -1.53495 -1.1978 0
M  V30 9475 H 887.098 -1.19649 -3.69511 0
M  V30 9476 H 888.83 -1.42622 -3.78736 0
M  V30 9477 H 885.585 -3.38798 -3.30927 0
M  V30 9478 H 886.009 -6.00293 -3.13013 0
M  V30 9479 H 890.651 -3.11183 -2.86226 0
M  V30 9480 H 888.369 -7.56399 -2.84405 0
M  V30 9481 H 891.955 -5.19857 -2.61228 0
M  V30 9482 H 890.835 -7.39662 -2.6052 0
M  V30 9483 N 888.338 1.20213 -1.01915 0
M  V30 9484 C 889.248 2.26763 -0.601311 0
M  V30 9485 C 890.264 1.70185 0.362369 0
M  V30 9486 O 891.44 2.00165 0.222682 0
M  V30 9487 C 888.505 3.46662 0.0512879 0
M  V30 9488 C 887.566 4.18459 -0.958659 0
M  V30 9489 C 886.799 5.32634 -0.337107 0
M  V30 9490 O 887.022 5.63841 0.86251 0
M  V30 9491 O 885.956 5.9258 -1.05511 0
M  V30 9492 H 889.782 2.64725 -1.48844 0
M  V30 9493 H 887.367 1.2688 -0.788784 0
M  V30 9494 H 889.249 4.19345 0.41564 0
M  V30 9495 H 887.924 3.1057 0.912572 0
M  V30 9496 H 886.831 3.47937 -1.37442 0
M  V30 9497 H 888.164 4.58498 -1.78999 0
M  V30 9498 N 889.816 0.795718 1.36037 0
M  V30 9499 C 890.726 0.199784 2.33748 0
M  V30 9500 C 891.742 -0.651436 1.61345 0
M  V30 9501 O 892.918 -0.565743 1.93291 0
M  V30 9502 C 889.983 -0.650475 3.40543 0
M  V30 9503 C 889.044 0.219974 4.28736 0
M  V30 9504 C 888.277 -0.589798 5.30431 0
M  V30 9505 O 888.5 -1.82532 5.40406 0
M  V30 9506 O 887.434 0.0136187 6.01898 0
M  V30 9507 H 891.26 1.00782 2.8649 0
M  V30 9508 H 888.845 0.557293 1.38617 0
M  V30 9509 H 890.727 -1.13512 4.05824 0
M  V30 9510 H 889.402 -1.4363 2.9009 0
M  V30 9511 H 888.309 0.751516 3.66474 0
M  V30 9512 H 889.642 0.969468 4.82558 0
M  V30 9513 N 891.294 -1.47756 0.548274 0
M  V30 9514 C 892.224 -2.32702 -0.19284 0
M  V30 9515 C 893.205 -1.43237 -0.917457 0
M  V30 9516 O 894.39 -1.72103 -0.89967 0
M  V30 9517 C 891.52 -3.24831 -1.22891 0
M  V30 9518 C 890.474 -4.23466 -0.621312 0
M  V30 9519 C 889.8 -5.04856 -1.76137 0
M  V30 9520 C 891.1 -5.20616 0.419055 0
M  V30 9521 H 892.794 -2.94914 0.516323 0
M  V30 9522 H 890.34 -1.41818 0.24975 0
M  V30 9523 H 892.293 -3.83094 -1.75547 0
M  V30 9524 H 891.017 -2.60656 -1.9679 0
M  V30 9525 H 889.676 -3.66416 -0.116123 0
M  V30 9526 H 889.324 -4.37091 -2.48918 0
M  V30 9527 H 889.024 -5.71629 -1.36065 0
M  V30 9528 H 890.548 -5.65976 -2.29136 0
M  V30 9529 H 891.962 -5.73296 -0.0211034 0
M  V30 9530 H 890.359 -5.95543 0.738163 0
M  V30 9531 H 891.429 -4.66638 1.31822 0
M  V30 9532 N 892.772 -0.284283 -1.55015 0
M  V30 9533 C 893.719 0.599194 -2.22886 0
M  V30 9534 C 894.689 1.14264 -1.20553 0
M  V30 9535 O 895.874 1.19025 -1.49123 0
M  V30 9536 C 893.014 1.77317 -2.96062 0
M  V30 9537 C 892.127 1.26271 -4.13134 0
M  V30 9538 C 891.262 2.39922 -4.73931 0
M  V30 9539 C 890.301 1.85925 -5.8318 0
M  V30 9540 N 889.438 2.93084 -6.38002 0
M  V30 9541 H 894.278 0.0137816 -2.97997 0
M  V30 9542 H 891.815 -0.00496503 -1.47099 0
M  V30 9543 H 893.773 2.46339 -3.36709 0
M  V30 9544 H 892.403 2.33047 -2.23358 0
M  V30 9545 H 891.455 0.465296 -3.77544 0
M  V30 9546 H 892.767 0.827284 -4.91892 0
M  V30 9547 H 891.921 3.1692 -5.17346 0
M  V30 9548 H 890.66 2.86784 -3.9447 0
M  V30 9549 H 889.665 1.07409 -5.39206 0
M  V30 9550 H 890.89 1.39987 -6.64515 0
M  V30 9551 H 888.836 3.3931 -5.61431 0
M  V30 9552 H 888.753 2.53986 -7.12058 0
M  V30 9553 H 890.021 3.7003 -6.86075 0
M  V30 9554 N 894.251 1.57596 -0.0117121 0
M  V30 9555 C 895.214 2.08089 0.960816 0
M  V30 9556 C 896.214 0.992519 1.26514 0
M  V30 9557 O 897.404 1.25475 1.20837 0
M  V30 9558 C 894.536 2.53217 2.28241 0
M  V30 9559 H 895.729 2.9529 0.523829 0
M  V30 9560 H 893.282 1.54508 0.235995 0
M  V30 9561 H 894.017 1.69294 2.76604 0
M  V30 9562 H 893.802 3.32714 2.0747 0
M  V30 9563 H 895.292 2.92568 2.97983 0
M  V30 9564 N 895.729 -0.261212 1.5542 0
M  V30 9565 C 896.662 -1.34906 1.84054 0
M  V30 9566 C 897.64 -1.47024 0.694466 0
M  V30 9567 O 898.824 -1.63463 0.938719 0
M  V30 9568 C 895.951 -2.7242 2.01259 0
M  V30 9569 C 894.997 -2.77526 3.23855 0
M  V30 9570 S 895.83 -2.35578 4.80898 0
M  V30 9571 C 896.986 -3.75045 5.01091 0
M  V30 9572 H 897.219 -1.10416 2.76035 0
M  V30 9573 H 894.752 -0.461461 1.47343 0
M  V30 9574 H 896.71 -3.51606 2.11857 0
M  V30 9575 H 895.371 -2.94155 1.10145 0
M  V30 9576 H 894.564 -3.78483 3.32816 0
M  V30 9577 H 894.166 -2.0637 3.11909 0
M  V30 9578 H 896.458 -4.7042 4.87556 0
M  V30 9579 H 897.401 -3.71027 6.03112 0
M  V30 9580 H 897.809 -3.66894 4.29009 0
M  V30 9581 N 897.207 -1.48554 -0.526253 0
M  V30 9582 C 898.484 -1.47252 -1.28748 0
M  V30 9583 C 898.864 -0.186245 -2.10277 0
M  V30 9584 O 898.212 0.831954 -2.12816 0
M  V30 9585 C 898.422 -2.73672 -2.16575 0
M  V30 9586 C 899.77 -3.22151 -2.76593 0
M  V30 9587 O 900.794 -2.74614 -2.2686 0
M  V30 9588 O 899.653 -4.04877 -3.67066 0
M  V30 9589 H 896.747 -0.588242 -0.581292 0
M  V30 9590 H 899.293 -1.60792 -0.5426 0
M  V30 9591 H 898.065 -3.58798 -1.56139 0
M  V30 9592 H 897.688 -2.6287 -2.98304 0
M  V30 9593 N 898.685 0.775411 -1.37205 0
M  V30 9594 C 899.615 1.90258 -1.35367 0
M  V30 9595 C 900.596 1.68634 -0.222864 0
M  V30 9596 O 901.781 1.89545 -0.422659 0
M  V30 9597 C 898.911 3.27488 -1.15623 0
M  V30 9598 C 897.865 3.63668 -2.25676 0
M  V30 9599 C 897.191 4.994 -1.91059 0
M  V30 9600 C 898.491 3.70797 -3.67841 0
M  V30 9601 H 900.185 1.92053 -2.29687 0
M  V30 9602 H 897.731 0.922597 -1.10563 0
M  V30 9603 H 899.684 4.05976 -1.12968 0
M  V30 9604 H 898.408 3.26117 -0.177573 0
M  V30 9605 H 897.067 2.87486 -2.2748 0
M  V30 9606 H 896.715 4.94565 -0.917324 0
M  V30 9607 H 896.415 5.24576 -2.64751 0
M  V30 9608 H 897.939 5.80291 -1.89985 0
M  V30 9609 H 899.353 4.39444 -3.68187 0
M  V30 9610 H 897.75 4.07468 -4.40556 0
M  V30 9611 H 898.82 2.71549 -4.01732 0
M  V30 9612 N 900.163 1.21714 1.00117 0
M  V30 9613 C 901.574 1.03477 1.55401 0
M  V30 9614 C 901.925 -0.40429 1.91989 0
M  V30 9615 O 901.05 -1.28807 1.7389 0
M  V30 9616 C 901.645 1.87213 2.82377 0
M  V30 9617 C 900.204 1.73297 3.34133 0
M  V30 9618 C 899.351 1.84189 2.07291 0
M  V30 9619 H 902.302 1.3568 0.823195 0
M  V30 9620 H 902.323 1.38465 3.54412 0
M  V30 9621 H 901.835 2.91944 2.55715 0
M  V30 9622 H 899.936 0.712662 3.65721 0
M  V30 9623 H 900.049 2.55486 4.05294 0
M  V30 9624 H 898.413 1.27538 2.20468 0
M  V30 9625 H 899.196 2.90435 1.83037 0
M  V30 9626 N 901.641 -1.19671 1.02551 0
M  V30 9627 C 902.866 -1.93774 0.739363 0
M  V30 9628 C 903.291 -1.74787 -0.695064 0
M  V30 9629 O 902.649 -1.04796 -1.47944 0
M  V30 9630 C 902.697 -3.43684 1.09149 0
M  V30 9631 O 901.801 -4.11874 0.208213 0
M  V30 9632 H 901.142 -0.605064 0.273484 0
M  V30 9633 H 903.672 -1.51846 1.37128 0
M  V30 9634 H 903.682 -3.94339 1.04695 0
M  V30 9635 H 902.357 -3.56826 2.13654 0
M  V30 9636 H 900.934 -3.716 0.311045 0
M  V30 9637 N 903.119 -0.802921 -1.35613 0
M  V30 9638 C 904.366 -0.381576 -1.98872 0
M  V30 9639 C 904.694 1.0503 -1.63704 0
M  V30 9640 O 903.949 1.7427 -0.890418 0
M  V30 9641 C 904.248 -0.507806 -3.53774 0
M  V30 9642 C 903.914 -1.90245 -4.088 0
M  V30 9643 C 902.576 -2.28401 -4.2354 0
M  V30 9644 C 904.928 -2.81504 -4.3864 0
M  V30 9645 C 902.256 -3.57192 -4.65436 0
M  V30 9646 C 904.608 -4.09737 -4.81973 0
M  V30 9647 C 903.272 -4.47897 -4.94919 0
M  V30 9648 H 902.542 -0.139629 -0.727726 0
M  V30 9649 H 905.189 -1.023 -1.61886 0
M  V30 9650 H 903.494 0.21708 -3.91198 0
M  V30 9651 H 905.191 -0.162625 -4.0067 0
M  V30 9652 H 901.781 -1.596 -3.97776 0
M  V30 9653 H 905.965 -2.53276 -4.26808 0
M  V30 9654 H 901.221 -3.86611 -4.73648 0
M  V30 9655 H 905.395 -4.80555 -5.04024 0
M  V30 9656 H 903.022 -5.47747 -5.27141 0
M  V30 9657 N 904.597 1.47463 -0.556102 0
M  V30 9658 C 905.507 2.33785 0.195378 0
M  V30 9659 C 906.523 1.48123 0.913 0
M  V30 9660 O 907.699 1.81053 0.882141 0
M  V30 9661 C 904.764 3.24795 1.21282 0
M  V30 9662 C 903.825 4.26346 0.502747 0
M  V30 9663 C 903.058 5.13007 1.47172 0
M  V30 9664 O 903.281 5.02103 2.70646 0
M  V30 9665 O 902.215 5.93588 0.996814 0
M  V30 9666 H 906.041 2.99341 -0.512676 0
M  V30 9667 H 903.626 1.46004 -0.31673 0
M  V30 9668 H 905.508 3.81015 1.80016 0
M  V30 9669 H 904.183 2.61868 1.90282 0
M  V30 9670 H 903.09 3.73889 -0.125757 0
M  V30 9671 H 904.423 4.91984 -0.145779 0
M  V30 9672 N 906.075 0.2925 1.54862 0
M  V30 9673 C 907.486 -0.201841 1.85606 0
M  V30 9674 C 907.837 -1.54093 1.21449 0
M  V30 9675 O 906.962 -2.10327 0.509079 0
M  V30 9676 C 907.557 -0.373011 3.3674 0
M  V30 9677 C 906.116 -0.811574 3.67547 0
M  V30 9678 C 905.263 0.0850583 2.7717 0
M  V30 9679 H 908.214 0.513774 1.50153 0
M  V30 9680 H 908.235 -1.20892 3.60785 0
M  V30 9681 H 907.747 0.601751 3.83407 0
M  V30 9682 H 905.848 -1.79719 3.26392 0
M  V30 9683 H 905.961 -0.636853 4.74848 0
M  V30 9684 H 904.325 -0.434224 2.50971 0
M  V30 9685 H 905.108 1.05602 3.26654 0
M  V30 9686 N 907.553 -1.57587 0.0200696 0
M  V30 9687 C 908.516 -2.08595 -0.949767 0
M  V30 9688 C 909.516 -0.999215 -1.25985 0
M  V30 9689 O 910.706 -1.26115 -1.2017 0
M  V30 9690 C 907.838 -2.54424 -2.26895 0
M  V30 9691 H 909.031 -2.95563 -0.508161 0
M  V30 9692 H 906.584 -1.54631 -0.227798 0
M  V30 9693 H 907.319 -1.70758 -2.75703 0
M  V30 9694 H 907.104 -3.3381 -2.05702 0
M  V30 9695 H 908.594 -2.94144 -2.96427 0
M  V30 9696 N 909.032 0.252966 -1.55557 0
M  V30 9697 C 910.279 0.981852 -1.77104 0
M  V30 9698 C 910.607 1.85547 -0.583305 0
M  V30 9699 O 909.862 1.90836 0.43359 0
M  V30 9700 C 910.161 1.87785 -3.04091 0
M  V30 9701 C 909.827 1.16009 -4.35721 0
M  V30 9702 C 908.489 0.961697 -4.71492 0
M  V30 9703 C 910.841 0.650884 -5.1712 0
M  V30 9704 C 908.169 0.241704 -5.86202 0
M  V30 9705 C 910.521 -0.0556124 -6.32576 0
M  V30 9706 C 909.185 -0.265536 -6.66972 0
M  V30 9707 H 908.455 0.359285 -0.64807 0
M  V30 9708 H 911.102 0.252443 -1.89829 0
M  V30 9709 H 909.407 2.67412 -2.86353 0
M  V30 9710 H 911.104 2.44339 -3.17961 0
M  V30 9711 H 907.694 1.32465 -4.07616 0
M  V30 9712 H 911.878 0.791719 -4.89944 0
M  V30 9713 H 907.134 0.0685292 -6.11362 0
M  V30 9714 H 911.308 -0.457839 -6.94893 0
M  V30 9715 H 908.935 -0.8254 -7.55706 0
M  V30 9716 N 910.51 1.48831 0.518367 0
M  V30 9717 C 911.44 1.67119 1.63075 0
M  V30 9718 C 912.421 0.519948 1.61958 0
M  V30 9719 O 913.606 0.753824 1.78972 0
M  V30 9720 C 910.736 1.72158 3.01627 0
M  V30 9721 C 909.69 2.86898 3.17606 0
M  V30 9722 C 909.016 2.77035 4.57335 0
M  V30 9723 C 910.316 4.28057 2.99274 0
M  V30 9724 H 912.01 2.60248 1.48025 0
M  V30 9725 H 909.556 1.2524 0.710694 0
M  V30 9726 H 911.509 1.83539 3.7933 0
M  V30 9727 H 910.233 0.756157 3.17726 0
M  V30 9728 H 908.892 2.75091 2.42323 0
M  V30 9729 H 908.54 1.78438 4.70286 0
M  V30 9730 H 908.24 3.54036 4.6897 0
M  V30 9731 H 909.764 2.904 5.37122 0
M  V30 9732 H 911.178 4.40636 3.6676 0
M  V30 9733 H 909.575 5.06145 3.22393 0
M  V30 9734 H 910.645 4.4371 1.95574 0
M  V30 9735 N 911.988 -0.768124 1.37614 0
M  V30 9736 C 913.234 -1.52907 1.33219 0
M  V30 9737 C 913.567 -1.94026 -0.0821218 0
M  V30 9738 O 912.842 -1.64345 -1.04023 0
M  V30 9739 C 913.125 -2.79164 2.27463 0
M  V30 9740 C 912.978 -2.44276 3.7769 0
M  V30 9741 C 914.297 -3.81115 2.20089 0
M  V30 9742 H 911.416 -0.554712 0.485246 0
M  V30 9743 H 914.058 -0.880911 1.68345 0
M  V30 9744 H 912.208 -3.34472 1.97639 0
M  V30 9745 H 913.88 -1.94855 4.18126 0
M  V30 9746 H 912.123 -1.76925 3.96081 0
M  V30 9747 H 912.794 -3.34544 4.39072 0
M  V30 9748 H 915.27 -3.35311 2.46386 0
M  V30 9749 H 914.146 -4.67174 2.88166 0
M  V30 9750 H 914.407 -4.25644 1.19498 0
M  V30 9751 N 913.466 -1.22244 -0.994698 0
M  V30 9752 C 914.396 -1.01513 -2.10279 0
M  V30 9753 C 915.377 0.0633365 -1.69982 0
M  V30 9754 O 916.562 -0.0985268 -1.9395 0
M  V30 9755 C 913.692 -0.59016 -3.42249 0
M  V30 9756 C 912.646 -1.61436 -3.96387 0
M  V30 9757 C 911.972 -1.04528 -5.24383 0
M  V30 9758 C 913.272 -3.00388 -4.27276 0
M  V30 9759 H 914.966 -1.94194 -2.2788 0
M  V30 9760 H 912.512 -0.935094 -1.09508 0
M  V30 9761 H 914.465 -0.432254 -4.19177 0
M  V30 9762 H 913.189 0.372308 -3.24471 0
M  V30 9763 H 911.848 -1.76001 -3.21589 0
M  V30 9764 H 911.496 -0.0742225 -5.02945 0
M  V30 9765 H 911.196 -1.72949 -5.61571 0
M  V30 9766 H 912.72 -0.898922 -6.03947 0
M  V30 9767 H 914.134 -2.89207 -4.95007 0
M  V30 9768 H 912.531 -3.65916 -4.75631 0
M  V30 9769 H 913.601 -3.50456 -3.35125 0
M  V30 9770 N 914.944 1.19125 -1.03184 0
M  V30 9771 C 916.184 1.90582 -0.738785 0
M  V30 9772 C 916.548 1.78004 0.719627 0
M  V30 9773 O 917.749 2.44084 1.12589 0
M  V30 9774 C 916.02 3.37319 -1.18114 0
M  V30 9775 S 917.579 4.26962 -1.01238 0
M  V30 9776 H 914.397 0.6582 -0.268875 0
M  V30 9777 H 916.999 1.43999 -1.32229 0
M  V30 9778 H 915.703 3.43999 -2.23814 0
M  V30 9779 H 915.234 3.88935 -0.591051 0
M  V30 9780 H 917.249 4.96143 0.0753558 0
M  V30 9781 N 916.422 0.810101 1.35185 0
M  V30 9782 C 917.838 0.494269 1.51754 0
M  V30 9783 C 918.038 -0.983907 1.75845 0
M  V30 9784 O 917.094 -1.76882 1.80191 0
M  V30 9785 C 918.407 1.34268 2.69059 0
M  V30 9786 C 919.955 1.33848 2.82938 0
M  V30 9787 C 920.43 2.17109 4.03271 0
M  V30 9788 N 921.921 2.14664 4.10456 0
M  V30 9789 C 922.656 2.75843 5.02691 0
M  V30 9790 N 922.152 3.45962 6.00235 0
M  V30 9791 N 923.945 2.65465 4.95464 0
M  V30 9792 H 916.096 1.76736 1.17805 0
M  V30 9793 H 918.359 0.752429 0.576676 0
M  V30 9794 H 918.065 2.39183 2.57845 0
M  V30 9795 H 917.939 0.998362 3.63748 0
M  V30 9796 H 920.326 0.29716 2.936 0
M  V30 9797 H 920.407 1.72269 1.89095 0
M  V30 9798 H 920.051 3.21283 3.93369 0
M  V30 9799 H 919.981 1.76046 4.96302 0
M  V30 9800 H 922.472 1.63648 3.40628 0
M  V30 9801 H 922.785 3.89922 6.67219 0
M  V30 9802 H 921.13 3.50067 6.00398 0
M  V30 9803 H 924.321 2.1027 4.18215 0
M  V30 9804 H 924.494 3.13433 5.67154 0
M  V30 9805 N 917.9 -1.47166 0.563914 0
M  V30 9806 C 919.146 -2.02756 0.0424338 0
M  V30 9807 C 919.479 -1.43662 -1.3067 0
M  V30 9808 O 918.754 -0.594676 -1.85186 0
M  V30 9809 C 919.037 -3.60074 -0.0434793 0
M  V30 9810 C 918.89 -4.29587 1.33323 0
M  V30 9811 C 920.209 -4.336 -0.753568 0
M  V30 9812 H 917.328 -0.736806 0.0168946 0
M  V30 9813 H 919.97 -1.75521 0.727496 0
M  V30 9814 H 918.12 -3.83409 -0.626906 0
M  V30 9815 H 919.792 -4.17573 1.96037 0
M  V30 9816 H 918.035 -3.8968 1.9061 0
M  V30 9817 H 918.706 -5.38218 1.22576 0
M  V30 9818 H 921.182 -4.15299 -0.258126 0
M  V30 9819 H 920.058 -5.43291 -0.782659 0
M  V30 9820 H 920.319 -4.03302 -1.81108 0
M  V30 9821 N 919.378 -0.300708 -1.54705 0
M  V30 9822 C 920.308 0.568675 -2.26469 0
M  V30 9823 C 921.289 1.13817 -1.26411 0
M  V30 9824 O 922.474 1.16756 -1.55183 0
M  V30 9825 C 919.604 1.74077 -3.00524 0
M  V30 9826 C 918.558 1.30165 -4.07727 0
M  V30 9827 C 917.884 2.55888 -4.69495 0
M  V30 9828 C 919.184 0.433106 -5.20501 0
M  V30 9829 H 920.878 -0.0298851 -2.99385 0
M  V30 9830 H 918.424 -0.0158135 -1.43991 0
M  V30 9831 H 920.377 2.35506 -3.49449 0
M  V30 9832 H 919.101 2.36556 -2.25186 0
M  V30 9833 H 917.76 0.710414 -3.59651 0
M  V30 9834 H 917.408 3.16681 -3.90797 0
M  V30 9835 H 917.108 2.27207 -5.41895 0
M  V30 9836 H 918.632 3.18121 -5.21183 0
M  V30 9837 H 920.046 0.95307 -5.65322 0
M  V30 9838 H 918.443 0.240085 -5.9962 0
M  V30 9839 H 919.513 -0.541866 -4.81863 0
M  V30 9840 N 920.856 1.57574 -0.0284266 0
M  V30 9841 C 921.786 2.1321 0.952039 0
M  V30 9842 C 922.767 1.04806 1.33977 0
M  V30 9843 O 923.952 1.32635 1.41851 0
M  V30 9844 C 921.082 2.65862 2.23461 0
M  V30 9845 C 920.036 3.79047 1.98765 0
M  V30 9846 C 919.362 4.18124 3.33281 0
M  V30 9847 C 920.662 5.05151 1.32739 0
M  V30 9848 H 922.356 2.95385 0.488705 0
M  V30 9849 H 919.902 1.42092 0.233628 0
M  V30 9850 H 921.855 3.03417 2.92431 0
M  V30 9851 H 920.579 1.80848 2.71959 0
M  V30 9852 H 919.238 3.41929 1.32213 0
M  V30 9853 H 918.886 3.30092 3.79537 0
M  V30 9854 H 918.586 4.94396 3.17563 0
M  V30 9855 H 920.11 4.58262 4.0352 0
M  V30 9856 H 921.524 5.40297 1.91708 0
M  V30 9857 H 919.921 5.86416 1.27421 0
M  V30 9858 H 920.991 4.83969 0.300261 0
M  V30 9859 N 922.334 -0.244713 1.55689 0
M  V30 9860 C 923.282 -1.32276 1.91326 0
M  V30 9861 C 924.276 -1.49714 0.792589 0
M  V30 9862 O 925.482 -1.51163 0.977227 0
M  V30 9863 H 921.857 -0.442979 0.607679 0
M  V30 9864 H 923.828 -0.99486 2.81327 0
M  V30 9865 C 922.577 -2.67077 2.22633 0
M  V30 9866 H 921.9 -2.54458 3.08368 0
M  V30 9867 H 923.34 -3.41378 2.5147 0
M  V30 9868 C 921.799 -3.20335 1.04342 0
M  V30 9869 O 922.329 -4.00633 0.292543 0
M  V30 9870 N 920.535 -2.78392 0.833457 0
M  V30 9871 H 920.082 -2.13202 1.44577 0
M  V30 9872 H 920.04 -3.1437 0.0436713 0
M  V30 9873 N 923.813 -1.49104 -0.510467 0
M  V30 9874 C 925.059 -1.58346 -1.26705 0
M  V30 9875 C 925.392 -0.265121 -1.92382 0
M  V30 9876 O 924.667 0.730558 -1.80258 0
M  V30 9877 C 924.95 -2.7359 -2.34137 0
M  V30 9878 C 924.803 -4.1519 -1.73024 0
M  V30 9879 C 926.122 -2.84511 -3.3577 0
M  V30 9880 H 923.241 -0.57637 -0.459311 0
M  V30 9881 H 925.883 -1.81353 -0.566658 0
M  V30 9882 H 924.033 -2.54105 -2.93876 0
M  V30 9883 H 925.705 -4.46167 -1.17186 0
M  V30 9884 H 923.948 -4.21279 -1.03473 0
M  V30 9885 H 924.619 -4.91683 -2.50903 0
M  V30 9886 H 927.095 -3.0222 -2.86011 0
M  V30 9887 H 925.971 -3.6684 -4.08313 0
M  V30 9888 H 926.232 -1.93471 -3.97519 0
M  V30 9889 N 925.291 0.760815 -1.38019 0
M  V30 9890 C 926.54 1.51506 -1.3315 0
M  V30 9891 C 926.853 1.95444 0.0782124 0
M  V30 9892 O 928.059 2.70352 0.249418 0
M  V30 9893 C 926.515 2.73636 -2.33776 0
M  V30 9894 C 926.123 2.36753 -3.80332 0
M  V30 9895 C 927.867 3.51548 -2.37937 0
M  V30 9896 C 925.774 3.55451 -4.72661 0
M  V30 9897 H 924.704 0.568844 -0.494907 0
M  V30 9898 H 927.355 0.832343 -1.63537 0
M  V30 9899 H 925.737 3.43852 -1.96422 0
M  V30 9900 H 926.911 1.7425 -4.26584 0
M  V30 9901 H 925.226 1.71991 -3.7922 0
M  V30 9902 H 927.823 4.39791 -3.04119 0
M  V30 9903 H 928.166 3.9219 -1.39617 0
M  V30 9904 H 928.699 2.88339 -2.74054 0
M  V30 9905 H 925.438 3.19882 -5.7215 0
M  V30 9906 H 924.958 4.17022 -4.31107 0
M  V30 9907 H 926.637 4.22125 -4.90326 0
M  V30 9908 N 926.769 1.22769 0.988202 0
M  V30 9909 C 927.719 0.969202 2.06375 0
M  V30 9910 C 928.703 -0.0819274 1.60691 0
M  V30 9911 O 929.895 0.129201 1.76528 0
M  V30 9912 C 927.024 0.553919 3.38802 0
M  V30 9913 C 926.11 1.64003 3.91106 0
M  V30 9914 N 926.501 2.86872 4.16579 0
M  V30 9915 C 924.799 1.5128 4.1956 0
M  V30 9916 C 925.5 3.57137 4.5916 0
M  V30 9917 N 924.476 2.84624 4.63131 0
M  V30 9918 H 928.278 1.90247 2.24017 0
M  V30 9919 H 925.792 1.12592 1.17033 0
M  V30 9920 H 927.789 0.350033 4.15428 0
M  V30 9921 H 926.449 -0.37239 3.22558 0
M  V30 9922 H 927.46 3.23254 4.04632 0
M  V30 9923 H 924.137 0.653032 4.12361 0
M  V30 9924 H 925.527 4.62428 4.87452 0
M  V30 9925 N 928.247 -1.18576 1.03814 0
M  V30 9926 C 929.157 -2.25778 0.637311 0
M  V30 9927 C 930.173 -1.7074 -0.335248 0
M  V30 9928 O 931.349 -2.00494 -0.19081 0
M  V30 9929 C 928.414 -3.467 0.00386953 0
M  V30 9930 C 927.475 -4.16881 1.02511 0
M  V30 9931 C 926.708 -5.32031 0.421802 0
M  V30 9932 O 926.931 -5.65142 -0.772699 0
M  V30 9933 O 925.865 -5.90826 1.14925 0
M  V30 9934 H 929.691 -2.62323 1.53037 0
M  V30 9935 H 927.276 -1.25609 0.80887 0
M  V30 9936 H 929.158 -4.19953 -0.348873 0
M  V30 9937 H 927.833 -3.11983 -0.863047 0
M  V30 9938 H 926.74 -3.45707 1.4296 0
M  V30 9939 H 928.073 -4.55592 1.86271 0
M  V30 9940 N 929.725 -0.817259 -1.34754 0
M  V30 9941 C 930.965 -0.408429 -2.00278 0
M  V30 9942 C 931.329 1.00818 -1.634 0
M  V30 9943 O 932.53 1.51959 -2.21725 0
M  V30 9944 C 930.801 -0.598219 -3.52358 0
M  V30 9945 S 932.36 -0.281395 -4.37897 0
M  V30 9946 H 929.178 -0.154587 -0.693991 0
M  V30 9947 H 931.78 -1.06184 -1.6415 0
M  V30 9948 H 930.484 -1.62901 -3.76685 0
M  V30 9949 H 930.015 0.0701299 -3.93337 0
M  V30 9950 H 932.03 0.907024 -4.8784 0
M  V30 9951 N 931.203 1.46865 -0.571711 0
M  V30 9952 C 932.133 2.3298 0.155795 0
M  V30 9953 C 933.114 1.44678 0.894553 0
M  V30 9954 O 934.299 1.73513 0.872176 0
M  V30 9955 C 931.429 3.26745 1.17708 0
M  V30 9956 C 930.383 4.24401 0.553863 0
M  V30 9957 C 929.709 5.07595 1.68083 0
M  V30 9958 C 931.009 5.19884 -0.501827 0
M  V30 9959 H 932.703 2.94056 -0.563176 0
M  V30 9960 H 930.249 1.41402 -0.27228 0
M  V30 9961 H 932.202 3.85838 1.6943 0
M  V30 9962 H 930.926 2.63753 1.92618 0
M  V30 9963 H 929.585 3.66554 0.057815 0
M  V30 9964 H 929.233 4.40996 2.41933 0
M  V30 9965 H 928.933 5.73722 1.26953 0
M  V30 9966 H 930.457 5.6955 2.20103 0
M  V30 9967 H 931.871 5.73257 -0.0701057 0
M  V30 9968 H 930.268 5.94293 -0.832815 0
M  V30 9969 H 931.338 4.64482 -1.39229 0
M  V30 9970 N 932.681 0.308908 1.54543 0
M  V30 9971 C 933.628 -0.563659 2.23811 0
M  V30 9972 C 934.598 -1.12332 1.22355 0
M  V30 9973 O 935.783 -1.16638 1.50997 0
M  V30 9974 C 932.923 -1.72585 2.98845 0
M  V30 9975 C 932.036 -1.19682 4.1509 0
M  V30 9976 C 931.171 -2.32351 4.77688 0
M  V30 9977 C 930.21 -1.76623 5.86064 0
M  V30 9978 N 929.347 -2.82896 6.42584 0
M  V30 9979 H 934.187 0.0336288 2.97981 0
M  V30 9980 H 931.724 0.0283666 1.47073 0
M  V30 9981 H 933.682 -2.40951 3.40586 0
M  V30 9982 H 932.312 -2.29464 2.27037 0
M  V30 9983 H 931.364 -0.405173 3.78236 0
M  V30 9984 H 932.676 -0.748923 4.93146 0
M  V30 9985 H 931.83 -3.0865 5.22322 0
M  V30 9986 H 930.569 -2.80472 3.98982 0
M  V30 9987 H 929.574 -0.988171 5.40847 0
M  V30 9988 H 930.799 -1.29398 6.66658 0
M  V30 9989 H 928.745 -3.30336 5.66758 0
M  V30 9990 H 928.662 -2.42626 7.16009 0
M  V30 9991 H 929.93 -3.59068 6.91875 0
M  V30 9992 N 934.159 -1.57557 0.0367827 0
M  V30 9993 C 935.089 -2.13712 -0.940719 0
M  V30 9994 C 936.07 -1.05515 -1.33419 0
M  V30 9995 O 937.255 -1.33385 -1.41146 0
M  V30 9996 C 934.385 -2.67043 -2.22048 0
M  V30 9997 C 933.339 -3.80096 -1.96752 0
M  V30 9998 C 932.665 -4.19886 -3.31059 0
M  V30 9999 C 933.965 -5.05848 -1.30058 0
M  V30 10000 H 935.659 -2.9564 -0.473033 0
M  V30 10001 H 933.205 -1.42214 -0.226089 0
M  V30 10002 H 935.158 -3.04964 -2.90818 0
M  V30 10003 H 933.882 -1.82287 -2.70996 0
M  V30 10004 H 932.541 -3.42625 -1.30398 0
M  V30 10005 H 932.189 -3.32101 -3.77781 0
M  V30 10006 H 931.889 -4.96073 -3.14937 0
M  V30 10007 H 933.413 -4.60395 -4.01084 0
M  V30 10008 H 934.827 -5.41306 -1.8884 0
M  V30 10009 H 933.224 -5.87084 -1.24309 0
M  V30 10010 H 934.294 -4.84122 -0.274591 0
M  V30 10011 N 935.637 0.236453 -1.55816 0
M  V30 10012 C 937.053 0.585465 -1.48474 0
M  V30 10013 C 937.253 1.8785 -0.72902 0
M  V30 10014 O 936.309 2.51131 -0.262614 0
M  V30 10015 C 937.622 0.678506 -2.92945 0
M  V30 10016 C 939.17 0.770135 -3.03378 0
M  V30 10017 C 939.645 0.894649 -4.49177 0
M  V30 10018 N 941.136 0.959253 -4.53158 0
M  V30 10019 C 941.871 1.07505 -5.63232 0
M  V30 10020 N 941.367 1.15572 -6.83092 0
M  V30 10021 N 943.16 1.10902 -5.51051 0
M  V30 10022 H 935.311 -0.612241 -2.03385 0
M  V30 10023 H 937.574 -0.212796 -0.923808 0
M  V30 10024 H 937.28 -0.201757 -3.51121 0
M  V30 10025 H 937.154 1.54703 -3.44016 0
M  V30 10026 H 939.541 1.64085 -2.45276 0
M  V30 10027 H 939.622 -0.123753 -2.555 0
M  V30 10028 H 939.266 0.0284537 -5.07892 0
M  V30 10029 H 939.196 1.80373 -4.94745 0
M  V30 10030 H 941.687 0.907827 -3.66834 0
M  V30 10031 H 942 1.24343 -7.62731 0
M  V30 10032 H 940.345 1.12511 -6.85833 0
M  V30 10033 H 943.536 1.04255 -4.56343 0
M  V30 10034 H 943.709 1.19581 -6.36871 0
M  V30 10035 N 937.115 1.49373 0.502552 0
M  V30 10036 C 938.045 1.68839 1.61294 0
M  V30 10037 C 939.026 0.537096 1.61398 0
M  V30 10038 O 940.211 0.772764 1.78163 0
M  V30 10039 C 937.341 1.75347 2.99784 0
M  V30 10040 C 936.295 2.90251 3.14545 0
M  V30 10041 C 935.621 2.8187 4.54371 0
M  V30 10042 C 936.921 4.31207 2.94717 0
M  V30 10043 H 938.615 2.61803 1.45257 0
M  V30 10044 H 936.161 1.25987 0.697371 0
M  V30 10045 H 938.114 1.87552 3.77362 0
M  V30 10046 H 936.838 0.789814 3.16906 0
M  V30 10047 H 935.497 2.77646 2.39392 0
M  V30 10048 H 935.145 1.83416 4.68367 0
M  V30 10049 H 934.845 3.5899 4.65188 0
M  V30 10050 H 936.369 2.96081 5.34012 0
M  V30 10051 H 937.783 4.44501 3.62065 0
M  V30 10052 H 936.18 5.09536 3.17007 0
M  V30 10053 H 937.25 4.45759 1.90857 0
M  V30 10054 N 938.594 -0.753485 1.38421 0
M  V30 10055 C 939.504 -1.89797 1.37892 0
M  V30 10056 C 940.52 -1.71797 0.276023 0
M  V30 10057 O 941.696 -1.94718 0.514464 0
M  V30 10058 C 938.761 -3.25166 1.20284 0
M  V30 10059 C 937.822 -3.55691 2.4038 0
M  V30 10060 C 937.055 -4.84601 2.23602 0
M  V30 10061 O 937.278 -5.56985 1.22979 0
M  V30 10062 O 936.212 -5.14605 3.12194 0
M  V30 10063 H 940.038 -1.93197 2.34326 0
M  V30 10064 H 937.623 -0.898775 1.19342 0
M  V30 10065 H 939.505 -4.06099 1.12525 0
M  V30 10066 H 938.18 -3.22577 0.269352 0
M  V30 10067 H 937.087 -2.74919 2.53714 0
M  V30 10068 H 938.42 -3.6304 3.32359 0
M  V30 10069 N 940.072 -1.23292 -0.981677 0
M  V30 10070 C 941.004 -0.970782 -2.07626 0
M  V30 10071 C 942.017 0.0547506 -1.62708 0
M  V30 10072 O 943.206 -0.180623 -1.77584 0
M  V30 10073 C 940.306 -0.44055 -3.36024 0
M  V30 10074 C 939.479 -1.52595 -4.09919 0
M  V30 10075 C 938.538 -1.00082 -5.16595 0
M  V30 10076 O 937.564 -1.68951 -5.43548 0
M  V30 10077 N 938.766 0.172017 -5.80245 0
M  V30 10078 H 941.531 -1.91316 -2.30691 0
M  V30 10079 H 939.092 -1.14133 -1.14828 0
M  V30 10080 H 941.084 -0.0743111 -4.04632 0
M  V30 10081 H 939.654 0.407211 -3.09936 0
M  V30 10082 H 938.874 -2.06501 -3.35784 0
M  V30 10083 H 940.162 -2.2559 -4.56055 0
M  V30 10084 H 939.56 0.748129 -5.60731 0
M  V30 10085 H 938.117 0.479532 -6.50034 0
M  V30 10086 N 941.55 1.18024 -1.04442 0
M  V30 10087 C 942.966 1.40107 -0.76435 0
M  V30 10088 C 943.166 1.90914 0.644516 0
M  V30 10089 O 942.222 2.0959 1.40813 0
M  V30 10090 C 943.535 2.39851 -1.81361 0
M  V30 10091 C 945.083 2.53571 -1.83496 0
M  V30 10092 C 945.558 3.56583 -2.87424 0
M  V30 10093 N 947.049 3.64094 -2.86339 0
M  V30 10094 C 947.784 4.43537 -3.63405 0
M  V30 10095 N 947.28 5.26557 -4.50233 0
M  V30 10096 N 949.073 4.38336 -3.51877 0
M  V30 10097 H 941.224 0.833726 -1.95353 0
M  V30 10098 H 943.487 0.42881 -0.845474 0
M  V30 10099 H 943.193 2.09576 -2.82438 0
M  V30 10100 H 943.067 3.39251 -1.6489 0
M  V30 10101 H 945.454 2.83161 -0.830883 0
M  V30 10102 H 945.535 1.54272 -2.04044 0
M  V30 10103 H 945.179 3.27733 -3.88012 0
M  V30 10104 H 945.109 4.55569 -2.6413 0
M  V30 10105 H 947.6 3.04814 -2.23376 0
M  V30 10106 H 947.913 5.84336 -5.05738 0
M  V30 10107 H 946.258 5.25964 -4.54298 0
M  V30 10108 H 949.449 3.72528 -2.83444 0
M  V30 10109 H 949.622 5.00007 -4.12186 0
M  V30 10110 N 943.028 0.824394 1.34319 0
M  V30 10111 C 944.439 0.471802 1.8064 0
M  V30 10112 C 944.79 -1.00793 1.6833 0
M  V30 10113 O 943.915 -1.78447 1.22416 0
M  V30 10114 C 944.51 0.849609 3.27974 0
M  V30 10115 C 943.069 0.549365 3.72369 0
M  V30 10116 C 942.216 1.06573 2.56003 0
M  V30 10117 H 945.167 1.01443 1.22045 0
M  V30 10118 H 945.188 0.153968 3.80188 0
M  V30 10119 H 944.7 1.92663 3.36902 0
M  V30 10120 H 942.801 -0.518182 3.68979 0
M  V30 10121 H 942.914 1.09446 4.66432 0
M  V30 10122 H 941.278 0.487214 2.49997 0
M  V30 10123 H 942.061 2.14923 2.677 0
M  V30 10124 N 944.506 -1.46559 0.579492 0
M  V30 10125 C 945.469 -2.28739 -0.145371 0
M  V30 10126 C 946.469 -1.38211 -0.821854 0
M  V30 10127 O 947.659 -1.6062 -0.674302 0
M  V30 10128 C 944.791 -3.18507 -1.21515 0
M  V30 10129 H 945.984 -2.94301 0.576786 0
M  V30 10130 H 943.537 -1.52616 0.337327 0
M  V30 10131 H 944.272 -2.57685 -1.96899 0
M  V30 10132 H 944.057 -3.85157 -0.734616 0
M  V30 10133 H 945.547 -3.80369 -1.72363 0
M  V30 10134 N 945.984 -0.3171 -1.54377 0
M  V30 10135 C 947.232 0.286842 -2.00054 0
M  V30 10136 C 947.553 1.53161 -1.20692 0
M  V30 10137 O 946.823 1.93479 -0.307045 0
M  V30 10138 H 945.403 0.108979 -0.739008 0
M  V30 10139 H 948.065 -0.432152 -1.90049 0
M  V30 10140 H 947.161 0.547729 -3.07256 0
M  V30 10141 N 947.462 1.57535 -0.0451378 0
M  V30 10142 C 948.372 2.14653 0.946646 0
M  V30 10143 C 949.388 1.10279 1.3459 0
M  V30 10144 O 950.564 1.42417 1.42405 0
M  V30 10145 C 947.629 2.67533 2.20515 0
M  V30 10146 C 946.69 3.86682 1.86481 0
M  V30 10147 C 945.923 4.37031 3.06332 0
M  V30 10148 O 946.146 3.86481 4.1951 0
M  V30 10149 O 945.08 5.28691 2.87697 0
M  V30 10150 H 948.906 2.99706 0.49091 0
M  V30 10151 H 946.491 1.48355 0.17641 0
M  V30 10152 H 948.373 3.01542 2.94365 0
M  V30 10153 H 947.048 1.85554 2.65238 0
M  V30 10154 H 945.955 3.57573 1.09966 0
M  V30 10155 H 947.288 4.69873 1.46562 0
M  V30 10156 N 948.94 -0.228186 1.55939 0
M  V30 10157 C 950.351 -0.795734 1.68893 0
M  V30 10158 C 950.702 -1.85261 0.645967 0
M  V30 10159 O 949.827 -2.15434 -0.2042 0
M  V30 10160 C 950.422 -1.45013 3.06197 0
M  V30 10161 C 948.981 -1.96514 3.21028 0
M  V30 10162 C 948.128 -0.822918 2.64808 0
M  V30 10163 H 951.079 -0.0036485 1.587 0
M  V30 10164 H 951.1 -2.31875 3.01685 0
M  V30 10165 H 950.612 -0.680678 3.82084 0
M  V30 10166 H 948.713 -2.76282 2.49998 0
M  V30 10167 H 948.826 -2.14967 4.28166 0
M  V30 10168 H 947.19 -1.22846 2.23116 0
M  V30 10169 H 947.973 -0.0662493 3.43236 0
M  V30 10170 N 950.418 -1.49637 -0.494624 0
M  V30 10171 C 951.643 -1.63431 -1.27691 0
M  V30 10172 C 952.068 -0.30813 -1.85559 0
M  V30 10173 O 951.426 0.725083 -1.66169 0
M  V30 10174 C 951.474 -2.71043 -2.3784 0
M  V30 10175 O 950.578 -2.3066 -3.41862 0
M  V30 10176 H 949.919 -0.546804 -0.376698 0
M  V30 10177 H 952.449 -1.95866 -0.591413 0
M  V30 10178 H 952.459 -2.93406 -2.83508 0
M  V30 10179 H 951.134 -3.67306 -1.95088 0
M  V30 10180 H 949.711 -2.18652 -3.02069 0
M  V30 10181 N 951.896 0.746133 -1.38819 0
M  V30 10182 C 952.826 1.87344 -1.39372 0
M  V30 10183 C 953.807 1.68123 -0.258583 0
M  V30 10184 O 954.992 1.88606 -0.462769 0
M  V30 10185 C 952.122 3.24962 -1.22543 0
M  V30 10186 C 951.076 3.58799 -2.33339 0
M  V30 10187 C 950.402 4.95235 -2.01609 0
M  V30 10188 C 951.702 3.62911 -3.75624 0
M  V30 10189 H 953.396 1.87138 -2.33709 0
M  V30 10190 H 950.942 0.898937 -1.12495 0
M  V30 10191 H 952.895 4.03488 -1.21554 0
M  V30 10192 H 951.619 3.25667 -0.246707 0
M  V30 10193 H 950.278 2.82596 -2.33527 0
M  V30 10194 H 949.926 4.92508 -1.02202 0
M  V30 10195 H 949.626 5.18843 -2.75819 0
M  V30 10196 H 951.15 5.76131 -2.02251 0
M  V30 10197 H 952.564 4.31535 -3.77426 0
M  V30 10198 H 950.961 3.98031 -4.491 0
M  V30 10199 H 952.031 2.62967 -4.07402 0
M  V30 10200 N 953.375 1.23811 0.975125 0
M  V30 10201 C 954.305 1.04846 2.08638 0
M  V30 10202 C 955.286 -0.0362859 1.70061 0
M  V30 10203 O 956.471 0.12937 1.93769 0
M  V30 10204 C 953.601 0.644534 3.41267 0
M  V30 10205 C 952.555 1.67722 3.93768 0
M  V30 10206 C 951.881 1.12857 5.22654 0
M  V30 10207 C 953.181 3.07147 4.22443 0
M  V30 10208 H 954.875 1.97795 2.24761 0
M  V30 10209 H 952.421 0.952397 1.08006 0
M  V30 10210 H 954.374 0.498887 4.18436 0
M  V30 10211 H 953.098 -0.320641 3.25022 0
M  V30 10212 H 951.757 1.81095 3.18748 0
M  V30 10213 H 951.405 0.154227 5.02764 0
M  V30 10214 H 951.105 1.81862 5.58749 0
M  V30 10215 H 952.629 0.994891 6.0244 0
M  V30 10216 H 954.043 2.97045 4.90344 0
M  V30 10217 H 952.44 3.73437 4.6975 0
M  V30 10218 H 953.51 3.55743 3.29507 0
M  V30 10219 N 954.853 -1.17469 1.05066 0
M  V30 10220 C 956.078 -1.92162 0.780298 0
M  V30 10221 C 956.503 -1.76222 -0.657832 0
M  V30 10222 O 955.861 -1.0791 -1.45688 0
M  V30 10223 C 955.909 -3.41292 1.16414 0
M  V30 10224 O 955.013 -4.1134 0.295531 0
M  V30 10225 H 954.354 -0.599127 0.286257 0
M  V30 10226 H 956.884 -1.48903 1.40318 0
M  V30 10227 H 956.894 -3.92029 1.13036 0
M  V30 10228 H 955.569 -3.52214 2.21175 0
M  V30 10229 H 954.146 -3.70857 0.389797 0
M  V30 10230 N 956.331 -0.831506 -1.3388 0
M  V30 10231 C 957.58 -0.420028 -1.97278 0
M  V30 10232 C 957.893 1.02441 -1.66629 0
M  V30 10233 O 959.099 1.54021 -2.23584 0
M  V30 10234 C 957.555 -0.700116 -3.53025 0
M  V30 10235 C 957.163 -2.15874 -3.92559 0
M  V30 10236 C 958.907 -0.355226 -4.23011 0
M  V30 10237 C 956.814 -2.38327 -5.41252 0
M  V30 10238 H 955.744 -0.153326 -0.738246 0
M  V30 10239 H 958.395 -1.01906 -1.52602 0
M  V30 10240 H 956.777 -0.0308044 -3.95988 0
M  V30 10241 H 957.951 -2.86792 -3.60675 0
M  V30 10242 H 956.266 -2.4659 -3.35533 0
M  V30 10243 H 958.863 -0.500701 -5.32351 0
M  V30 10244 H 959.206 0.70111 -4.10354 0
M  V30 10245 H 959.739 -0.979466 -3.85553 0
M  V30 10246 H 956.478 -3.42498 -5.58906 0
M  V30 10247 H 955.998 -1.71962 -5.74621 0
M  V30 10248 H 957.677 -2.21113 -6.08045 0
M  V30 10249 N 957.809 1.4625 -0.587256 0
M  V30 10250 C 958.756 2.30354 0.143384 0
M  V30 10251 C 959.726 1.40891 0.879716 0
M  V30 10252 O 960.911 1.69837 0.869486 0
M  V30 10253 C 958.051 3.25441 1.14815 0
M  V30 10254 C 957.164 4.30004 0.414792 0
M  V30 10255 C 956.299 5.12214 1.40748 0
M  V30 10256 C 955.338 6.08523 0.660786 0
M  V30 10257 N 954.475 6.83585 1.60176 0
M  V30 10258 H 959.315 2.92304 -0.579866 0
M  V30 10259 H 956.852 1.44055 -0.29777 0
M  V30 10260 H 958.81 3.79018 1.7436 0
M  V30 10261 H 957.44 2.6529 1.83906 0
M  V30 10262 H 956.492 3.79248 -0.295787 0
M  V30 10263 H 957.804 4.98515 -0.168738 0
M  V30 10264 H 956.958 5.70091 2.0756 0
M  V30 10265 H 955.697 4.43675 2.02494 0
M  V30 10266 H 954.702 5.49796 -0.0210864 0
M  V30 10267 H 955.927 6.79083 0.0486551 0
M  V30 10268 H 953.873 6.17752 2.20724 0
M  V30 10269 H 953.79 7.48373 1.07115 0
M  V30 10270 H 955.058 7.46016 2.26009 0
M  V30 10271 N 959.287 0.325282 1.54207 0
M  V30 10272 C 960.219 -0.57395 2.21897 0
M  V30 10273 C 961.232 -1.0785 1.21952 0
M  V30 10274 O 962.421 -0.991782 1.48411 0
M  V30 10275 C 959.521 -1.8005 2.87115 0
M  V30 10276 C 958.694 -1.43435 4.13213 0
M  V30 10277 C 957.753 -2.51862 4.62009 0
M  V30 10278 O 956.779 -2.15934 5.26651 0
M  V30 10279 N 957.981 -3.8282 4.36382 0
M  V30 10280 H 960.746 0.00566918 2.99699 0
M  V30 10281 H 958.307 0.148563 1.61217 0
M  V30 10282 H 960.299 -2.51981 3.16682 0
M  V30 10283 H 958.869 -2.28792 2.13009 0
M  V30 10284 H 958.089 -0.546598 3.90392 0
M  V30 10285 H 959.377 -1.16544 4.95273 0
M  V30 10286 H 958.775 -4.14807 3.84645 0
M  V30 10287 H 957.332 -4.50976 4.70599 0
M  V30 10288 N 960.765 -1.57509 0.0534917 0
M  V30 10289 C 961.695 -2.14698 -0.917999 0
M  V30 10290 C 962.676 -1.06924 -1.32292 0
M  V30 10291 O 963.861 -1.34875 -1.39723 0
M  V30 10292 C 960.991 -2.69383 -2.19203 0
M  V30 10293 C 959.945 -3.82161 -1.9271 0
M  V30 10294 C 959.271 -4.23373 -3.26587 0
M  V30 10295 C 960.571 -5.07199 -1.24686 0
M  V30 10296 H 962.265 -2.96125 -0.44165 0
M  V30 10297 H 959.811 -1.42446 -0.210993 0
M  V30 10298 H 961.764 -3.08031 -2.87567 0
M  V30 10299 H 960.488 -1.85151 -2.69048 0
M  V30 10300 H 959.147 -3.43989 -1.26757 0
M  V30 10301 H 958.795 -3.36089 -3.74237 0
M  V30 10302 H 958.495 -4.99385 -3.09658 0
M  V30 10303 H 960.019 -4.64623 -3.96178 0
M  V30 10304 H 961.433 -5.43279 -1.83088 0
M  V30 10305 H 959.83 -5.88369 -1.18076 0
M  V30 10306 H 960.9 -4.84386 -0.223227 0
M  V30 10307 N 962.243 0.219913 -1.56058 0
M  V30 10308 C 963.489 0.945463 -1.79412 0
M  V30 10309 C 963.822 1.83922 -0.62341 0
M  V30 10310 O 963.097 1.90806 0.377256 0
M  V30 10311 C 963.38 1.783 -3.1286 0
M  V30 10312 C 963.233 0.915626 -4.40382 0
M  V30 10313 C 964.552 2.76045 -3.42764 0
M  V30 10314 H 961.671 0.342288 -0.652693 0
M  V30 10315 H 964.313 0.214235 -1.88788 0
M  V30 10316 H 962.463 2.40642 -3.04998 0
M  V30 10317 H 964.135 0.30882 -4.60265 0
M  V30 10318 H 962.378 0.221124 -4.33236 0
M  V30 10319 H 963.049 1.53607 -5.30197 0
M  V30 10320 H 965.525 2.23838 -3.50764 0
M  V30 10321 H 964.401 3.31748 -4.37304 0
M  V30 10322 H 964.662 3.53866 -2.65012 0
M  V30 10323 N 963.721 1.49897 0.486681 0
M  V30 10324 C 965.137 1.36977 0.819109 0
M  V30 10325 C 965.337 0.41385 1.97204 0
M  V30 10326 O 964.393 -0.149249 2.52059 0
M  V30 10327 C 965.706 2.78013 1.14584 0
M  V30 10328 C 967.254 2.86816 1.25321 0
M  V30 10329 C 967.729 4.28651 1.61316 0
M  V30 10330 N 969.22 4.31528 1.68337 0
M  V30 10331 C 969.955 5.38254 1.97662 0
M  V30 10332 N 969.451 6.55207 2.25113 0
M  V30 10333 N 971.244 5.25683 1.99033 0
M  V30 10334 H 963.395 2.10634 -0.273364 0
M  V30 10335 H 965.658 0.946116 -0.0597418 0
M  V30 10336 H 965.364 3.49728 0.371892 0
M  V30 10337 H 965.238 3.1428 2.08585 0
M  V30 10338 H 967.625 2.15329 2.01785 0
M  V30 10339 H 967.706 2.54112 0.293368 0
M  V30 10340 H 967.35 5.00669 0.853968 0
M  V30 10341 H 967.28 4.5883 2.58424 0
M  V30 10342 H 969.771 3.47189 1.49226 0
M  V30 10343 H 970.084 7.32359 2.46717 0
M  V30 10344 H 968.429 6.58408 2.22538 0
M  V30 10345 H 971.62 4.33316 1.77074 0
M  V30 10346 H 971.793 6.08949 2.21552 0
M  V30 10347 N 965.199 -0.738761 1.39212 0
M  V30 10348 C 966.109 -1.88324 1.39897 0
M  V30 10349 C 967.125 -1.71494 0.294229 0
M  V30 10350 O 968.301 -1.94162 0.535087 0
M  V30 10351 C 965.366 -3.23871 1.23726 0
M  V30 10352 C 964.427 -3.53121 2.44139 0
M  V30 10353 C 963.66 -4.82202 2.2873 0
M  V30 10354 O 963.883 -5.55649 1.28879 0
M  V30 10355 O 962.817 -5.11265 3.17634 0
M  V30 10356 H 966.643 -1.90701 2.36362 0
M  V30 10357 H 964.228 -0.886067 1.20288 0
M  V30 10358 H 966.11 -4.04882 1.16826 0
M  V30 10359 H 964.785 -3.22274 0.303551 0
M  V30 10360 H 963.692 -2.72212 2.56615 0
M  V30 10361 H 965.025 -3.59495 3.36191 0
M  V30 10362 N 966.677 -1.24326 -0.968545 0
M  V30 10363 C 967.917 -1.09434 -1.72637 0
M  V30 10364 C 968.281 0.360781 -1.8858 0
M  V30 10365 O 969.482 0.631188 -2.61284 0
M  V30 10366 C 967.753 -1.81285 -3.08011 0
M  V30 10367 S 969.312 -1.82113 -3.99225 0
M  V30 10368 H 966.13 -0.391409 -0.593565 0
M  V30 10369 H 968.732 -1.57643 -1.15624 0
M  V30 10370 H 967.436 -2.86274 -2.94067 0
M  V30 10371 H 966.967 -1.33405 -3.7009 0
M  V30 10372 H 968.982 -0.888196 -4.88186 0
M  V30 10373 N 968.156 1.1691 -1.05688 0
M  V30 10374 C 969.103 2.21095 -0.662246 0
M  V30 10375 C 970.073 1.62623 0.338083 0
M  V30 10376 O 971.258 1.89428 0.228362 0
M  V30 10377 C 968.398 3.45066 -0.0484018 0
M  V30 10378 C 967.511 4.17809 -1.09817 0
M  V30 10379 C 966.646 5.29281 -0.451114 0
M  V30 10380 C 965.685 5.93817 -1.48484 0
M  V30 10381 N 964.822 6.96793 -0.861588 0
M  V30 10382 H 969.662 2.54204 -1.55513 0
M  V30 10383 H 967.199 1.24863 -0.777665 0
M  V30 10384 H 969.157 4.15932 0.324978 0
M  V30 10385 H 967.787 3.12526 0.807918 0
M  V30 10386 H 966.839 3.45608 -1.58932 0
M  V30 10387 H 968.151 4.61907 -1.88265 0
M  V30 10388 H 967.305 6.06695 -0.0244251 0
M  V30 10389 H 966.044 4.8633 0.365306 0
M  V30 10390 H 965.049 5.1513 -1.92149 0
M  V30 10391 H 966.274 6.38848 -2.30325 0
M  V30 10392 H 964.22 6.55967 -0.0657688 0
M  V30 10393 H 964.137 7.39229 -1.58354 0
M  V30 10394 H 965.405 7.78142 -0.45984 0
M  V30 10395 N 969.634 0.838594 1.33437 0
M  V30 10396 C 970.544 0.274048 2.32994 0
M  V30 10397 C 971.56 -0.599776 1.63336 0
M  V30 10398 O 972.736 -0.503963 1.94993 0
M  V30 10399 C 969.801 -0.541804 3.4244 0
M  V30 10400 C 968.862 0.356262 4.27819 0
M  V30 10401 C 968.095 -0.420747 5.32039 0
M  V30 10402 O 968.318 -1.65247 5.45939 0
M  V30 10403 O 967.252 0.205101 6.0155 0
M  V30 10404 H 971.078 1.09846 2.83139 0
M  V30 10405 H 968.663 0.601111 1.36774 0
M  V30 10406 H 970.545 -1.00544 4.0923 0
M  V30 10407 H 969.22 -1.34328 2.94513 0
M  V30 10408 H 968.127 0.867726 3.63897 0
M  V30 10409 H 969.46 1.1225 4.79229 0
M  V30 10410 N 971.112 -1.45937 0.595003 0
M  V30 10411 C 972.358 -2.0262 0.0854317 0
M  V30 10412 C 972.691 -1.46402 -1.27594 0
M  V30 10413 O 971.966 -0.633823 -1.83883 0
M  V30 10414 C 972.249 -3.60085 0.0329075 0
M  V30 10415 C 972.102 -4.26663 1.42405 0
M  V30 10416 C 973.421 -4.35101 -0.661426 0
M  V30 10417 H 970.54 -0.736282 0.0325196 0
M  V30 10418 H 973.182 -1.73938 0.764563 0
M  V30 10419 H 971.332 -3.84652 -0.545439 0
M  V30 10420 H 973.004 -4.13321 2.04851 0
M  V30 10421 H 971.247 -3.85549 1.98833 0
M  V30 10422 H 971.918 -5.35497 1.33965 0
M  V30 10423 H 974.394 -4.15753 -0.169977 0
M  V30 10424 H 973.27 -5.44829 -0.667243 0
M  V30 10425 H 973.531 -4.07053 -1.72513 0
M  V30 10426 N 972.59 -0.333456 -1.54032 0
M  V30 10427 C 973.52 0.52051 -2.27625 0
M  V30 10428 C 974.501 1.1111 -1.28797 0
M  V30 10429 O 975.686 1.13438 -1.57625 0
M  V30 10430 C 972.816 1.67663 -3.04149 0
M  V30 10431 C 971.77 1.21487 -4.10396 0
M  V30 10432 C 971.096 2.45872 -4.74817 0
M  V30 10433 C 972.396 0.322603 -5.21303 0
M  V30 10434 H 974.09 -0.0933823 -2.99254 0
M  V30 10435 H 971.636 -0.0463526 -1.43925 0
M  V30 10436 H 973.589 2.28041 -3.54366 0
M  V30 10437 H 972.313 2.31727 -2.30153 0
M  V30 10438 H 970.972 0.633966 -3.61077 0
M  V30 10439 H 970.62 3.0832 -3.97426 0
M  V30 10440 H 970.32 2.15662 -5.46593 0
M  V30 10441 H 971.844 3.06994 -5.27814 0
M  V30 10442 H 973.258 0.832942 -5.67217 0
M  V30 10443 H 971.655 0.112843 -5.99994 0
M  V30 10444 H 972.725 -0.643954 -4.80605 0
M  V30 10445 N 974.068 1.57479 -0.061844 0
M  V30 10446 C 975.015 2.12152 0.908862 0
M  V30 10447 C 975.985 1.03152 1.30188 0
M  V30 10448 O 977.17 1.3076 1.38948 0
M  V30 10449 C 974.31 2.6796 2.17465 0
M  V30 10450 C 973.423 3.91083 1.83517 0
M  V30 10451 C 972.558 4.35169 3.04633 0
M  V30 10452 C 971.597 5.50964 2.66655 0
M  V30 10453 N 970.734 5.90055 3.80499 0
M  V30 10454 H 975.574 2.94797 0.435743 0
M  V30 10455 H 973.111 1.45686 0.203445 0
M  V30 10456 H 975.069 2.98421 2.91548 0
M  V30 10457 H 973.699 1.88096 2.62335 0
M  V30 10458 H 972.751 3.67146 0.995381 0
M  V30 10459 H 974.063 4.75214 1.51569 0
M  V30 10460 H 973.217 4.67239 3.87005 0
M  V30 10461 H 971.956 3.49871 3.39767 0
M  V30 10462 H 970.961 5.18556 1.82703 0
M  V30 10463 H 972.186 6.37986 2.32702 0
M  V30 10464 H 970.132 5.07708 4.15414 0
M  V30 10465 H 970.049 6.68903 3.52285 0
M  V30 10466 H 971.317 6.26744 4.63479 0
M  V30 10467 N 975.546 -0.211634 1.56173 0
M  V30 10468 C 976.794 -0.932704 1.7929 0
M  V30 10469 C 977.115 -1.84472 0.632076 0
M  V30 10470 O 976.385 -1.92739 -0.350519 0
M  V30 10471 H 974.965 -0.347393 0.661307 0
M  V30 10472 H 977.627 -0.22111 1.93642 0
M  V30 10473 H 976.723 -1.53365 2.71819 0
M  V30 10474 N 977.024 -1.50153 -0.478725 0
M  V30 10475 C 978.272 -1.60443 -1.22892 0
M  V30 10476 C 978.593 -0.303276 -1.92627 0
M  V30 10477 O 977.863 0.678798 -1.83764 0
M  V30 10478 H 976.443 -0.591205 -0.456602 0
M  V30 10479 H 979.105 -1.86893 -0.552905 0
M  V30 10480 H 978.201 -2.41175 -1.98094 0
M  V30 10481 N 978.502 0.731368 -1.39602 0
M  V30 10482 C 979.432 1.85855 -1.41351 0
M  V30 10483 C 980.413 1.67839 -0.2764 0
M  V30 10484 O 981.598 1.88104 -0.482747 0
M  V30 10485 C 978.728 3.23644 -1.25983 0
M  V30 10486 C 977.682 3.56304 -2.37132 0
M  V30 10487 C 977.008 4.93069 -2.0685 0
M  V30 10488 C 978.308 3.58906 -3.79452 0
M  V30 10489 H 980.002 1.84648 -2.3568 0
M  V30 10490 H 977.548 0.886955 -1.13442 0
M  V30 10491 H 979.501 4.02176 -1.25826 0
M  V30 10492 H 978.225 3.25387 -0.281234 0
M  V30 10493 H 976.884 2.80104 -2.36511 0
M  V30 10494 H 976.532 4.91396 -1.0742 0
M  V30 10495 H 976.232 5.15888 -2.81306 0
M  V30 10496 H 977.756 5.73953 -2.0835 0
M  V30 10497 H 979.17 4.27508 -3.81982 0
M  V30 10498 H 977.567 3.93246 -4.53297 0
M  V30 10499 H 978.637 2.58631 -4.10168 0
M  V30 10500 N 979.98 1.24838 0.961938 0
M  V30 10501 C 980.91 1.07053 2.07514 0
M  V30 10502 C 981.891 -0.0182465 1.7009 0
M  V30 10503 O 983.076 0.149915 1.9362 0
M  V30 10504 C 980.206 0.680693 3.40564 0
M  V30 10505 C 979.16 1.71889 3.91967 0
M  V30 10506 C 978.486 1.18395 5.21428 0
M  V30 10507 C 979.786 3.1161 4.19161 0
M  V30 10508 H 981.48 2.00167 2.22651 0
M  V30 10509 H 979.026 0.963799 1.0699 0
M  V30 10510 H 980.979 0.54324 4.17884 0
M  V30 10511 H 979.703 -0.28615 3.25344 0
M  V30 10512 H 978.362 1.84465 3.16809 0
M  V30 10513 H 978.01 0.207543 5.02572 0
M  V30 10514 H 977.71 1.87778 5.56788 0
M  V30 10515 H 979.234 1.05873 6.01351 0
M  V30 10516 H 980.648 3.0223 4.87165 0
M  V30 10517 H 979.045 3.78398 4.65763 0
M  V30 10518 H 980.115 3.59218 3.25715 0
M  V30 10519 N 981.458 -1.16348 1.06306 0
M  V30 10520 C 982.391 -2.19667 0.618197 0
M  V30 10521 C 983.369 -1.58586 -0.359078 0
M  V30 10522 O 984.553 -1.86585 -0.268023 0
M  V30 10523 C 981.68 -3.3857 -0.0937091 0
M  V30 10524 C 980.726 -4.18139 0.840339 0
M  V30 10525 S 981.559 -4.81879 2.33565 0
M  V30 10526 C 982.715 -6.04161 1.63524 0
M  V30 10527 H 982.948 -2.57063 1.49352 0
M  V30 10528 H 980.481 -1.27141 0.876046 0
M  V30 10529 H 982.439 -4.07465 -0.498227 0
M  V30 10530 H 981.1 -2.9954 -0.94523 0
M  V30 10531 H 980.293 -5.03172 0.288781 0
M  V30 10532 H 979.895 -3.54739 1.18474 0
M  V30 10533 H 982.187 -6.70935 0.940904 0
M  V30 10534 H 983.13 -6.63866 2.46347 0
M  V30 10535 H 983.538 -5.53323 1.11778 0
M  V30 10536 N 982.937 -0.845659 -1.3299 0
M  V30 10537 C 983.884 -0.281761 -2.29074 0
M  V30 10538 C 984.854 0.606237 -1.54641 0
M  V30 10539 O 986.039 0.543063 -1.82908 0
M  V30 10540 C 983.179 0.531451 -3.40983 0
M  V30 10541 C 982.292 -0.381328 -4.30314 0
M  V30 10542 C 981.427 0.443643 -5.29344 0
M  V30 10543 C 980.466 -0.467101 -6.10315 0
M  V30 10544 N 979.603 0.320148 -7.0137 0
M  V30 10545 H 984.443 -1.10641 -2.76699 0
M  V30 10546 H 981.98 -0.55706 -1.36144 0
M  V30 10547 H 983.938 1.01848 -4.04577 0
M  V30 10548 H 982.568 1.32101 -2.94532 0
M  V30 10549 H 981.62 -0.986701 -3.6738 0
M  V30 10550 H 982.932 -1.08067 -4.86953 0
M  V30 10551 H 982.086 0.994212 -5.98498 0
M  V30 10552 H 980.825 1.17639 -4.73299 0
M  V30 10553 H 979.83 -1.02963 -5.40073 0
M  V30 10554 H 981.055 -1.19832 -6.68444 0
M  V30 10555 H 979.001 1.03615 -6.47765 0
M  V30 10556 H 978.918 -0.320338 -7.55321 0
M  V30 10557 H 980.186 0.852735 -7.74822 0
M  V30 10558 N 984.415 1.45619 -0.602734 0
M  V30 10559 C 985.347 2.28662 0.157012 0
M  V30 10560 C 986.36 1.39672 0.836396 0
M  V30 10561 O 987.549 1.64091 0.702599 0
M  V30 10562 C 984.649 3.1528 1.24306 0
M  V30 10563 C 983.822 4.32517 0.651731 0
M  V30 10564 C 982.881 5.00381 1.62804 0
M  V30 10565 O 981.907 5.57333 1.15624 0
M  V30 10566 N 983.109 4.99221 2.96241 0
M  V30 10567 H 985.874 2.94506 -0.555535 0
M  V30 10568 H 983.435 1.55753 -0.441881 0
M  V30 10569 H 985.427 3.57544 1.8959 0
M  V30 10570 H 983.997 2.51376 1.85819 0
M  V30 10571 H 983.217 3.93793 -0.17907 0
M  V30 10572 H 984.505 5.08249 0.236802 0
M  V30 10573 H 983.903 4.54232 3.37179 0
M  V30 10574 H 982.46 5.45364 3.56961 0
M  V30 10575 N 985.893 0.34162 1.53853 0
M  V30 10576 C 987.123 -0.256557 2.05001 0
M  V30 10577 C 987.531 -1.44916 1.21639 0
M  V30 10578 O 986.874 -1.8207 0.244138 0
M  V30 10579 C 986.936 -0.737109 3.51862 0
M  V30 10580 C 986.6 0.335584 4.55766 0
M  V30 10581 C 987.597 1.17765 5.06387 0
M  V30 10582 C 985.282 0.488958 4.99914 0
M  V30 10583 C 987.276 2.15865 5.99734 0
M  V30 10584 C 984.963 1.47336 5.93073 0
M  V30 10585 C 985.961 2.30666 6.4287 0
M  V30 10586 O 985.649 3.2743 7.34197 0
M  V30 10587 H 985.381 -0.0536867 0.673865 0
M  V30 10588 H 987.935 0.49123 1.99439 0
M  V30 10589 H 986.165 -1.53611 3.54881 0
M  V30 10590 H 987.854 -1.25562 3.85991 0
M  V30 10591 H 988.62 1.07023 4.73044 0
M  V30 10592 H 984.499 -0.149807 4.60757 0
M  V30 10593 H 988.043 2.80945 6.38526 0
M  V30 10594 H 983.94 1.58134 6.25831 0
M  V30 10595 H 984.708 3.22879 7.52125 0
M  V30 10596 N 987.371 -1.57444 0.0701946 0
M  V30 10597 C 988.601 -1.97467 -0.607476 0
M  V30 10598 C 989.009 -0.947232 -1.63781 0
M  V30 10599 O 988.352 0.074652 -1.83548 0
M  V30 10600 C 988.414 -3.33795 -1.33495 0
M  V30 10601 C 988.078 -4.54697 -0.458265 0
M  V30 10602 C 989.075 -5.19127 0.283488 0
M  V30 10603 C 986.76 -5.00833 -0.383612 0
M  V30 10604 C 988.754 -6.28043 1.08813 0
M  V30 10605 C 986.441 -6.09622 0.424705 0
M  V30 10606 C 987.439 -6.7309 1.15925 0
M  V30 10607 O 987.127 -7.79785 1.95423 0
M  V30 10608 H 986.859 -0.654405 -0.169501 0
M  V30 10609 H 989.413 -2.04931 0.138651 0
M  V30 10610 H 987.643 -3.22941 -2.12711 0
M  V30 10611 H 989.332 -3.58435 -1.9047 0
M  V30 10612 H 990.098 -4.84428 0.235397 0
M  V30 10613 H 985.977 -4.51211 -0.944968 0
M  V30 10614 H 989.521 -6.77513 1.66197 0
M  V30 10615 H 985.418 -6.43755 0.474366 0
M  V30 10616 H 986.186 -7.96655 1.87838 0
M  V30 10617 N 988.849 0.203349 -1.56283 0
M  V30 10618 C 989.781 1.27592 -1.90402 0
M  V30 10619 C 990.794 1.4213 -0.79391 0
M  V30 10620 O 991.983 1.42703 -1.07229 0
M  V30 10621 C 989.083 2.64919 -2.11356 0
M  V30 10622 C 988.256 2.72095 -3.42466 0
M  V30 10623 C 987.315 3.9056 -3.52631 0
M  V30 10624 O 986.341 3.78048 -4.25521 0
M  V30 10625 N 987.543 5.0566 -2.85111 0
M  V30 10626 H 990.308 0.986423 -2.83001 0
M  V30 10627 H 987.869 0.39331 -1.5705 0
M  V30 10628 H 989.861 3.42581 -2.15453 0
M  V30 10629 H 988.431 2.86391 -1.25295 0
M  V30 10630 H 987.651 1.8077 -3.50308 0
M  V30 10631 H 988.939 2.73874 -4.28801 0
M  V30 10632 H 988.337 5.18723 -2.25705 0
M  V30 10633 H 986.894 5.81299 -2.94847 0
M  V30 10634 N 990.327 1.50405 0.470755 0
M  V30 10635 C 991.574 1.61411 1.22281 0
M  V30 10636 C 991.902 0.314603 1.91939 0
M  V30 10637 O 991.157 -0.699531 1.82771 0
M  V30 10638 C 991.456 2.74426 2.28965 0
M  V30 10639 C 991.122 4.14896 1.76557 0
M  V30 10640 C 989.784 4.53116 1.61985 0
M  V30 10641 C 992.136 5.02686 1.3768 0
M  V30 10642 C 989.464 5.76868 1.0696 0
M  V30 10643 C 991.816 6.26985 0.840967 0
M  V30 10644 C 990.48 6.64008 0.68188 0
M  V30 10645 H 989.75 0.590645 0.447459 0
M  V30 10646 H 992.397 1.84339 0.518783 0
M  V30 10647 H 990.702 2.45588 3.05277 0
M  V30 10648 H 992.399 2.80146 2.86914 0
M  V30 10649 H 988.989 3.84743 1.88867 0
M  V30 10650 H 993.173 4.7379 1.47772 0
M  V30 10651 H 988.429 6.04227 0.933808 0
M  V30 10652 H 992.603 6.94372 0.531066 0
M  V30 10653 H 990.23 7.59778 0.25335 0
M  V30 10654 N 991.805 -0.723954 1.39988 0
M  V30 10655 C 992.738 -1.84725 1.33985 0
M  V30 10656 C 993.716 -1.61217 0.211623 0
M  V30 10657 O 994.9 -1.84338 0.393905 0
M  V30 10658 C 992.027 -3.20913 1.08317 0
M  V30 10659 C 991.073 -3.63262 2.23478 0
M  V30 10660 S 991.906 -3.71346 3.85827 0
M  V30 10661 C 993.062 -5.10307 3.62405 0
M  V30 10662 H 993.295 -1.89535 2.2905 0
M  V30 10663 H 990.828 -0.889911 1.26174 0
M  V30 10664 H 992.786 -3.99547 0.941921 0
M  V30 10665 H 991.447 -3.13745 0.149203 0
M  V30 10666 H 990.64 -4.62124 2.01139 0
M  V30 10667 H 990.242 -2.91863 2.33863 0
M  V30 10668 H 992.534 -5.96975 3.20354 0
M  V30 10669 H 993.477 -5.37679 4.60768 0
M  V30 10670 H 993.885 -4.80505 2.96269 0
M  V30 10671 N 993.283 -1.25346 -0.955304 0
M  V30 10672 C 994.213 -1.08152 -2.06943 0
M  V30 10673 C 995.194 0.00922598 -1.70097 0
M  V30 10674 O 996.379 -0.160181 -1.93538 0
M  V30 10675 C 993.509 -0.698745 -3.40198 0
M  V30 10676 C 992.463 -1.73965 -3.9105 0
M  V30 10677 C 991.789 -1.21158 -5.20792 0
M  V30 10678 C 993.089 -3.13829 -4.17503 0
M  V30 10679 H 994.783 -2.01345 -2.21586 0
M  V30 10680 H 992.329 -0.969459 -1.06478 0
M  V30 10681 H 994.282 -0.565394 -4.1759 0
M  V30 10682 H 993.006 0.268892 -3.25491 0
M  V30 10683 H 991.665 -1.86143 -3.15827 0
M  V30 10684 H 991.313 -0.234193 -5.02455 0
M  V30 10685 H 991.013 -1.90728 -5.55785 0
M  V30 10686 H 992.537 -1.09061 -6.00781 0
M  V30 10687 H 993.951 -3.04809 -4.85556 0
M  V30 10688 H 992.348 -3.80863 -4.63749 0
M  V30 10689 H 993.418 -3.6094 -3.23806 0
M  V30 10690 N 994.761 1.15782 -1.06922 0
M  V30 10691 C 995.693 2.19978 -0.643604 0
M  V30 10692 C 996.706 1.59981 0.301653 0
M  V30 10693 O 997.895 1.78265 0.0916508 0
M  V30 10694 C 994.995 3.38815 0.0757973 0
M  V30 10695 C 994.168 4.28363 -0.884545 0
M  V30 10696 C 993.227 5.25807 -0.203233 0
M  V30 10697 O 992.253 5.62924 -0.842904 0
M  V30 10698 N 993.455 5.70874 1.05279 0
M  V30 10699 H 996.22 2.57112 -1.53992 0
M  V30 10700 H 993.781 1.30855 -0.953344 0
M  V30 10701 H 995.773 4.01052 0.542151 0
M  V30 10702 H 994.343 3.00133 0.874 0
M  V30 10703 H 993.563 3.63292 -1.53012 0
M  V30 10704 H 994.851 4.85067 -1.53581 0
M  V30 10705 H 994.249 5.42822 1.5925 0
M  V30 10706 H 992.806 6.35171 1.46289 0
M  V30 10707 N 996.239 0.8527 1.3254 0
M  V30 10708 C 997.149 0.298744 2.3269 0
M  V30 10709 C 998.165 -0.582418 1.63963 0
M  V30 10710 O 999.341 -0.483253 1.95516 0
M  V30 10711 C 996.406 -0.505453 3.42996 0
M  V30 10712 C 995.467 0.401618 4.27417 0
M  V30 10713 C 994.7 -0.364294 5.32455 0
M  V30 10714 O 994.923 -1.59448 5.47661 0
M  V30 10715 O 993.857 0.268892 6.01299 0
M  V30 10716 H 997.683 1.12843 2.81958 0
M  V30 10717 H 995.268 0.615584 1.36128 0
M  V30 10718 H 997.15 -0.961974 4.10273 0
M  V30 10719 H 995.825 -1.31197 2.95921 0
M  V30 10720 H 994.732 0.906274 3.62957 0
M  V30 10721 H 996.065 1.17327 4.78012 0
M  V30 10722 N 997.718 -1.45297 0.610449 0
M  V30 10723 C 998.964 -2.02518 0.106917 0
M  V30 10724 C 999.297 -1.47747 -1.26034 0
M  V30 10725 O 998.572 -0.65329 -1.832 0
M  V30 10726 C 998.855 -3.6003 0.0710975 0
M  V30 10727 C 998.708 -4.25128 1.46922 0
M  V30 10728 C 1000.03 -4.35778 -0.61524 0
M  V30 10729 H 997.146 -0.735896 0.040327 0
M  V30 10730 H 999.788 -1.73117 0.782968 0
M  V30 10731 H 997.938 -3.85209 -0.504611 0
M  V30 10732 H 999.61 -4.11125 2.09223 0
M  V30 10733 H 997.853 -3.83418 2.02911 0
M  V30 10734 H 998.524 -5.34046 1.39637 0
M  V30 10735 H 1001 -4.1591 -0.125871 0
M  V30 10736 H 999.876 -5.45506 -0.609419 0
M  V30 10737 H 1000.14 -4.08859 -1.68186 0
M  V30 10738 N 999.196 -0.349774 -1.5367 0
M  V30 10739 C 1000.13 0.496338 -2.28164 0
M  V30 10740 C 1001.11 1.09737 -1.29968 0
M  V30 10741 O 1002.29 1.11759 -1.58819 0
M  V30 10742 C 999.422 1.64428 -3.0591 0
M  V30 10743 C 998.376 1.17127 -4.11661 0
M  V30 10744 C 997.702 2.40822 -4.77398 0
M  V30 10745 C 999.002 0.267293 -5.21616 0
M  V30 10746 H 1000.7 -0.125117 -2.99138 0
M  V30 10747 H 998.242 -0.0616152 -1.43868 0
M  V30 10748 H 1000.19 2.2427 -3.56765 0
M  V30 10749 H 998.919 2.29272 -2.32598 0
M  V30 10750 H 997.578 0.595634 -3.61729 0
M  V30 10751 H 997.226 3.04088 -4.00674 0
M  V30 10752 H 996.926 2.09852 -5.48849 0
M  V30 10753 H 998.45 3.01378 -5.3104 0
M  V30 10754 H 999.864 0.772734 -5.68068 0
M  V30 10755 H 998.261 0.0491991 -6.0008 0
M  V30 10756 H 999.331 -0.694892 -4.79895 0
M  V30 10757 N 1000.67 1.57404 -0.0785433 0
M  V30 10758 C 1001.58 2.16612 0.900902 0
M  V30 10759 C 1002.6 1.13109 1.32221 0
M  V30 10760 O 1003.78 1.45406 1.39352 0
M  V30 10761 C 1000.84 2.7215 2.14791 0
M  V30 10762 C 999.902 3.90551 1.78237 0
M  V30 10763 C 999.135 4.43431 2.96993 0
M  V30 10764 O 999.358 3.95292 4.11218 0
M  V30 10765 O 998.292 5.34674 2.76418 0
M  V30 10766 H 1002.12 3.0068 0.427227 0
M  V30 10767 H 999.703 1.48696 0.144902 0
M  V30 10768 H 1001.58 3.07718 2.87902 0
M  V30 10769 H 1000.26 1.91139 2.61243 0
M  V30 10770 H 999.167 3.59825 1.02357 0
M  V30 10771 H 1000.5 4.72876 1.36562 0
M  V30 10772 N 1002.15 -0.195058 1.56388 0
M  V30 10773 C 1003.43 -0.941335 1.71459 0
M  V30 10774 C 1003.81 -2.01375 0.633336 0
M  V30 10775 O 1003.16 -2.25715 -0.35567 0
M  V30 10776 C 1003.37 -1.52772 3.13786 0
M  V30 10777 C 1004.71 -2.00983 3.7402 0
M  V30 10778 O 1005.74 -1.62614 3.16915 0
M  V30 10779 O 1004.6 -2.71586 4.7424 0
M  V30 10780 H 1001.69 -0.441451 0.699321 0
M  V30 10781 H 1004.24 -0.184752 1.68691 0
M  V30 10782 H 1003.01 -0.754699 3.83953 0
M  V30 10783 H 1002.63 -2.34914 3.20782 0
M  V30 10784 N 1003.63 -1.50653 -0.462772 0
M  V30 10785 C 1004.56 -1.73056 -1.5676 0
M  V30 10786 C 1005.54 -0.579699 -1.59917 0
M  V30 10787 O 1006.73 -0.819729 -1.76051 0
M  V30 10788 C 1003.86 -1.83234 -2.9503 0
M  V30 10789 C 1002.81 -2.98488 -3.06739 0
M  V30 10790 C 1002.14 -2.93818 -4.46738 0
M  V30 10791 C 1003.44 -4.38869 -2.83181 0
M  V30 10792 H 1005.13 -2.65562 -1.38265 0
M  V30 10793 H 1002.68 -1.27792 -0.663722 0
M  V30 10794 H 1004.63 -1.97491 -3.72257 0
M  V30 10795 H 1003.35 -0.873558 -3.14701 0
M  V30 10796 H 1002.01 -2.83895 -2.31946 0
M  V30 10797 H 1001.66 -1.95769 -4.63339 0
M  V30 10798 H 1001.36 -3.71197 -4.55507 0
M  V30 10799 H 1002.88 -3.10135 -5.25974 0
M  V30 10800 H 1004.3 -4.53945 -3.50153 0
M  V30 10801 H 1002.69 -5.17762 -3.03386 0
M  V30 10802 H 1003.76 -4.50663 -1.78972 0
M  V30 10803 N 1005.11 0.71652 -1.4037 0
M  V30 10804 C 1006.02 1.86074 -1.42876 0
M  V30 10805 C 1007.03 1.71005 -0.321475 0
M  V30 10806 O 1008.21 1.93286 -0.565909 0
M  V30 10807 C 1005.28 3.21862 -1.28863 0
M  V30 10808 C 1004.34 3.49193 -2.49726 0
M  V30 10809 C 1003.57 4.78502 -2.36372 0
M  V30 10810 O 1003.79 5.53529 -1.37703 0
M  V30 10811 O 1002.73 5.06147 -3.25728 0
M  V30 10812 H 1006.55 1.86916 -2.39366 0
M  V30 10813 H 1004.14 0.866818 -1.21683 0
M  V30 10814 H 1006.02 4.02972 -1.23253 0
M  V30 10815 H 1004.69 3.2175 -0.354783 0
M  V30 10816 H 1003.6 2.68095 -2.60913 0
M  V30 10817 H 1004.93 3.54101 -3.41868 0
M  V30 10818 N 1006.59 1.25851 0.948643 0
M  V30 10819 C 1007.53 1.06759 2.04625 0
M  V30 10820 C 1008.5 -0.0251144 1.66081 0
M  V30 10821 O 1009.69 0.133221 1.90334 0
M  V30 10822 C 1006.83 0.698724 3.37952 0
M  V30 10823 C 1005.94 1.8669 3.89578 0
M  V30 10824 C 1005.08 1.44184 5.11258 0
M  V30 10825 C 1004.12 2.57878 5.55126 0
M  V30 10826 N 1003.25 2.16106 6.68014 0
M  V30 10827 H 1008.09 2.00691 2.20289 0
M  V30 10828 H 1005.63 0.999327 1.07944 0
M  V30 10829 H 1007.59 0.465788 4.14592 0
M  V30 10830 H 1006.22 -0.203618 3.22157 0
M  V30 10831 H 1005.27 2.21298 3.09405 0
M  V30 10832 H 1006.58 2.72051 4.18079 0
M  V30 10833 H 1005.74 1.16891 5.95333 0
M  V30 10834 H 1004.47 0.559035 4.84485 0
M  V30 10835 H 1003.48 2.85909 4.69612 0
M  V30 10836 H 1004.7 3.46747 5.83904 0
M  V30 10837 H 1002.65 1.3025 6.42939 0
M  V30 10838 H 1002.57 2.95012 6.96063 0
M  V30 10839 H 1003.84 1.92005 7.55483 0
M  V30 10840 N 1008.06 -1.15214 1.07534 0
M  V30 10841 C 1009.48 -1.67628 0.822045 0
M  V30 10842 C 1009.83 -1.8503 -0.652571 0
M  V30 10843 O 1008.95 -1.55497 -1.50498 0
M  V30 10844 C 1009.55 -3.04489 1.48566 0
M  V30 10845 C 1008.11 -3.53974 1.27983 0
M  V30 10846 C 1007.25 -2.29656 1.55414 0
M  V30 10847 H 1010.2 -0.994016 1.23713 0
M  V30 10848 H 1010.22 -3.69509 0.907916 0
M  V30 10849 H 1009.74 -2.91792 2.55888 0
M  V30 10850 H 1007.84 -3.71908 0.226906 0
M  V30 10851 H 1007.95 -4.35298 2.0013 0
M  V30 10852 H 1006.31 -2.35289 0.975251 0
M  V30 10853 H 1007.1 -2.19544 2.63923 0
M  V30 10854 N 1009.54 -0.859717 -1.32086 0
M  V30 10855 C 1010.82 -0.386665 -1.9174 0
M  V30 10856 C 1011.2 1.13028 -1.78292 0
M  V30 10857 O 1010.55 1.95422 -1.18417 0
M  V30 10858 C 1010.76 -0.856648 -3.38323 0
M  V30 10859 C 1012.11 -0.87678 -4.15449 0
M  V30 10860 O 1013.13 -0.80162 -3.47063 0
M  V30 10861 O 1011.99 -0.98373 -5.37573 0
M  V30 10862 H 1009.08 -0.113758 -0.819139 0
M  V30 10863 H 1011.63 -0.946952 -1.40822 0
M  V30 10864 H 1010.4 -1.89996 -3.42078 0
M  V30 10865 H 1010.02 -0.274095 -3.96654 0
M  V30 10866 N 1011.02 1.44971 -0.618145 0
M  V30 10867 C 1012.26 2.04044 -0.120625 0
M  V30 10868 C 1012.62 1.47472 1.22947 0
M  V30 10869 O 1013.83 1.97965 1.81834 0
M  V30 10870 C 1012.1 3.57279 -0.0930863 0
M  V30 10871 S 1013.66 4.37468 0.341705 0
M  V30 10872 H 1010.47 0.708891 -0.0547272 0
M  V30 10873 H 1013.08 1.77535 -0.818621 0
M  V30 10874 H 1011.78 3.95961 -1.07903 0
M  V30 10875 H 1011.31 3.88378 0.62657 0
M  V30 10876 H 1013.33 4.70073 1.58888 0
M  V30 10877 N 1012.5 0.357919 1.53482 0
M  V30 10878 C 1013.45 -0.507364 2.26999 0
M  V30 10879 C 1014.44 -1.08987 1.29685 0
M  V30 10880 O 1015.65 -1.03396 1.47341 0
M  V30 10881 H 1012.02 -0.182326 0.729562 0
M  V30 10882 H 1013.99 0.134547 2.98097 0
M  V30 10883 C 1012.74 -1.63911 3.06641 0
M  V30 10884 H 1012.06 -1.20017 3.81361 0
M  V30 10885 H 1013.5 -2.21943 3.61272 0
M  V30 10886 C 1011.96 -2.57697 2.17011 0
M  V30 10887 O 1012.49 -3.60318 1.77578 0
M  V30 10888 N 1010.7 -2.2671 1.818 0
M  V30 10889 H 1010.25 -1.43296 2.14065 0
M  V30 10890 H 1010.2 -2.89716 1.22115 0
M  V30 10891 N 1013.98 -1.5736 0.0868897 0
M  V30 10892 C 1015.23 -1.93229 -0.578387 0
M  V30 10893 C 1015.54 -0.970127 -1.69847 0
M  V30 10894 O 1016.74 -1.22222 -2.42434 0
M  V30 10895 C 1015.2 -3.43307 -1.0802 0
M  V30 10896 C 1014.81 -4.47999 0.00968135 0
M  V30 10897 C 1016.55 -3.88151 -1.71868 0
M  V30 10898 C 1014.46 -5.89223 -0.507029 0
M  V30 10899 H 1013.39 -0.721245 -0.219823 0
M  V30 10900 H 1016.04 -1.82787 0.161566 0
M  V30 10901 H 1014.42 -3.48873 -1.87359 0
M  V30 10902 H 1015.6 -4.54067 0.784865 0
M  V30 10903 H 1013.91 -4.12714 0.552845 0
M  V30 10904 H 1016.51 -4.91056 -2.11585 0
M  V30 10905 H 1016.85 -3.26347 -2.58464 0
M  V30 10906 H 1017.38 -3.85252 -0.991259 0
M  V30 10907 H 1014.12 -6.54708 0.322121 0
M  V30 10908 H 1013.64 -5.86643 -1.2494 0
M  V30 10909 H 1015.32 -6.39556 -0.978628 0
M  V30 10910 N 1015.45 0.186762 -1.56489 0
M  V30 10911 C 1016.73 0.932229 -1.71956 0
M  V30 10912 C 1017.11 2.01037 -0.644006 0
M  V30 10913 O 1016.46 2.259 0.343694 0
M  V30 10914 C 1016.67 1.51106 -3.14592 0
M  V30 10915 C 1018.02 1.98997 -3.75081 0
M  V30 10916 O 1019.04 1.60931 -3.17773 0
M  V30 10917 O 1017.9 2.69067 -4.75673 0
M  V30 10918 H 1014.99 0.437736 -0.701652 0
M  V30 10919 H 1017.54 0.175803 -1.68787 0
M  V30 10920 H 1016.31 0.734327 -3.84348 0
M  V30 10921 H 1015.94 2.33209 -3.22024 0
M  V30 10922 N 1016.93 1.50896 0.454776 0
M  V30 10923 C 1017.9 1.70377 1.53312 0
M  V30 10924 C 1018.9 0.57408 1.50203 0
M  V30 10925 O 1020.09 0.841374 1.52534 0
M  V30 10926 C 1017.22 1.74411 2.92905 0
M  V30 10927 H 1018.41 2.66599 1.37349 0
M  V30 10928 H 1015.96 1.40622 0.68228 0
M  V30 10929 H 1016.7 0.799408 3.14293 0
M  V30 10930 H 1016.48 2.56496 2.96568 0
M  V30 10931 H 1017.97 1.91382 3.71164 0
M  V30 10932 N 1018.41 -0.709066 1.40748 0
M  V30 10933 C 1019.66 -1.46901 1.39378 0
M  V30 10934 C 1019.99 -1.945 -0.0016993 0
M  V30 10935 O 1019.24 -1.68963 -0.987426 0
M  V30 10936 C 1019.54 -2.70543 2.33541 0
M  V30 10937 C 1019.21 -2.41674 3.80663 0
M  V30 10938 C 1017.87 -2.33511 4.20745 0
M  V30 10939 C 1020.22 -2.1759 4.73607 0
M  V30 10940 C 1017.55 -1.99342 5.51797 0
M  V30 10941 C 1019.9 -1.84933 6.04965 0
M  V30 10942 C 1018.56 -1.75256 6.44082 0
M  V30 10943 H 1017.83 -0.537549 0.510021 0
M  V30 10944 H 1020.48 -0.811635 1.7345 0
M  V30 10945 H 1018.79 -3.41149 1.92677 0
M  V30 10946 H 1020.48 -3.2865 2.29761 0
M  V30 10947 H 1017.07 -2.48917 3.4891 0
M  V30 10948 H 1021.26 -2.22849 4.43454 0
M  V30 10949 H 1016.51 -1.90392 5.81 0
M  V30 10950 H 1020.69 -1.65313 6.76494 0
M  V30 10951 H 1018.31 -1.48547 7.45545 0
M  V30 10952 N 1019.89 -1.26353 -0.941956 0
M  V30 10953 C 1020.8 -1.09618 -2.07415 0
M  V30 10954 C 1021.82 -0.0298963 -1.73974 0
M  V30 10955 O 1022.99 -0.233466 -2.00042 0
M  V30 10956 C 1020.06 -0.73013 -3.38925 0
M  V30 10957 C 1019.12 -1.87574 -3.86153 0
M  V30 10958 C 1018.35 -1.52706 -5.11387 0
M  V30 10959 O 1018.57 -0.428438 -5.68789 0
M  V30 10960 O 1017.51 -2.36154 -5.53638 0
M  V30 10961 H 1021.33 -2.04598 -2.2444 0
M  V30 10962 H 1018.92 -1.05407 -1.05876 0
M  V30 10963 H 1020.8 -0.538684 -4.17943 0
M  V30 10964 H 1019.48 0.190282 -3.2314 0
M  V30 10965 H 1018.38 -2.12214 -3.08084 0
M  V30 10966 H 1019.72 -2.77585 -4.06457 0
M  V30 10967 N 1021.37 1.14642 -1.08144 0
M  V30 10968 C 1022.28 2.23257 -0.720668 0
M  V30 10969 C 1023.29 1.71866 0.271648 0
M  V30 10970 O 1024.47 2.01064 0.116266 0
M  V30 10971 C 1021.53 3.46447 -0.132542 0
M  V30 10972 C 1020.6 4.12789 -1.17913 0
M  V30 10973 C 1019.83 5.30099 -0.618971 0
M  V30 10974 O 1020.05 5.6762 0.562418 0
M  V30 10975 O 1018.99 5.86154 -1.36774 0
M  V30 10976 H 1022.81 2.56463 -1.62667 0
M  V30 10977 H 1020.4 1.22521 -0.854932 0
M  V30 10978 H 1022.28 4.20959 0.19277 0
M  V30 10979 H 1020.95 3.14971 0.746662 0
M  V30 10980 H 1019.86 3.40163 -1.55693 0
M  V30 10981 H 1021.19 4.48365 -2.03051 0
M  V30 10982 N 1022.85 0.866709 1.31628 0
M  V30 10983 C 1024.12 0.396828 1.91532 0
M  V30 10984 C 1024.5 -1.12081 1.78889 0
M  V30 10985 O 1023.85 -1.94791 1.19452 0
M  V30 10986 C 1024.06 0.874578 3.37864 0
M  V30 10987 C 1025.41 0.8988 4.14978 0
M  V30 10988 O 1026.43 0.820014 3.46633 0
M  V30 10989 O 1025.29 1.01223 5.37044 0
M  V30 10990 H 1022.39 0.1181 0.818524 0
M  V30 10991 H 1024.93 0.954407 1.40318 0
M  V30 10992 H 1023.7 1.91807 3.41066 0
M  V30 10993 H 1023.33 0.295126 3.96503 0
M  V30 10994 N 1024.32 -1.44642 0.625825 0
M  V30 10995 C 1025.25 -2.33397 -0.0692188 0
M  V30 10996 C 1026.23 -1.47898 -0.840241 0
M  V30 10997 O 1027.42 -1.7663 -0.807176 0
M  V30 10998 C 1024.55 -3.30888 -1.055 0
M  V30 10999 C 1023.5 -4.26164 -0.395968 0
M  V30 11000 C 1022.83 -5.13483 -1.49128 0
M  V30 11001 C 1024.13 -5.17663 0.694433 0
M  V30 11002 H 1025.82 -2.91763 0.671925 0
M  V30 11003 H 1023.37 -1.40294 0.324573 0
M  V30 11004 H 1025.32 -3.91861 -1.54993 0
M  V30 11005 H 1024.05 -2.7072 -1.82696 0
M  V30 11006 H 1022.71 -3.66516 0.0782691 0
M  V30 11007 H 1022.35 -4.49672 -2.25399 0
M  V30 11008 H 1022.05 -5.78038 -1.05573 0
M  V30 11009 H 1023.58 -5.77327 -1.98813 0
M  V30 11010 H 1024.99 -5.72602 0.282818 0
M  V30 11011 H 1023.39 -5.90793 1.05281 0
M  V30 11012 H 1024.46 -4.58994 1.56372 0
M  V30 11013 N 1025.8 -0.366053 -1.5329 0
M  V30 11014 C 1026.75 0.496656 -2.22525 0
M  V30 11015 C 1027.74 1.0483 -1.22063 0
M  V30 11016 O 1028.93 0.978266 -1.47509 0
M  V30 11017 C 1026.06 1.63559 -3.01833 0
M  V30 11018 C 1025.14 1.0968 -4.09672 0
M  V30 11019 N 1025.53 0.28104 -5.05019 0
M  V30 11020 C 1023.83 1.37157 -4.24387 0
M  V30 11021 C 1024.53 -0.0140071 -5.81698 0
M  V30 11022 N 1023.51 0.583743 -5.40457 0
M  V30 11023 H 1027.31 -0.133408 -2.93597 0
M  V30 11024 H 1024.82 -0.174095 -1.61464 0
M  V30 11025 H 1026.82 2.26582 -3.49952 0
M  V30 11026 H 1025.48 2.26871 -2.32292 0
M  V30 11027 H 1026.49 -0.0797947 -5.17839 0
M  V30 11028 H 1023.17 2.00743 -3.66072 0
M  V30 11029 H 1024.56 -0.673508 -6.68516 0
M  V30 11030 N 1027.28 1.57312 -0.0952337 0
M  V30 11031 C 1028.23 2.14032 0.863657 0
M  V30 11032 C 1029.2 1.0589 1.27971 0
M  V30 11033 O 1030.38 1.33678 1.36143 0
M  V30 11034 C 1027.52 2.72513 2.11733 0
M  V30 11035 C 1026.63 3.94887 1.7518 0
M  V30 11036 C 1025.77 4.41533 2.95334 0
M  V30 11037 C 1024.81 5.56496 2.54908 0
M  V30 11038 N 1023.95 5.97993 3.67897 0
M  V30 11039 H 1028.79 2.95655 0.373115 0
M  V30 11040 H 1026.32 1.46085 0.172497 0
M  V30 11041 H 1028.28 3.04539 2.85153 0
M  V30 11042 H 1026.91 1.93618 2.58287 0
M  V30 11043 H 1025.96 3.69175 0.917279 0
M  V30 11044 H 1027.27 4.78322 1.41455 0
M  V30 11045 H 1026.43 4.75343 3.77007 0
M  V30 11046 H 1025.17 3.56999 3.3227 0
M  V30 11047 H 1024.17 5.22314 1.71662 0
M  V30 11048 H 1025.4 6.42779 2.19117 0
M  V30 11049 H 1023.34 5.16405 4.04551 0
M  V30 11050 H 1023.26 6.76225 3.38018 0
M  V30 11051 H 1024.53 6.36434 4.5008 0
M  V30 11052 N 1028.76 -0.17846 1.56586 0
M  V30 11053 C 1029.69 -1.2496 1.90946 0
M  V30 11054 C 1030.67 -1.43136 0.771424 0
M  V30 11055 O 1031.85 -1.58258 1.02405 0
M  V30 11056 C 1028.98 -2.61368 2.15417 0
M  V30 11057 C 1028.03 -2.59969 3.3811 0
M  V30 11058 S 1028.86 -2.09756 4.9271 0
M  V30 11059 C 1030.01 -3.47956 5.20267 0
M  V30 11060 H 1030.25 -0.956287 2.815 0
M  V30 11061 H 1027.78 -0.382709 1.49582 0
M  V30 11062 H 1029.74 -3.39882 2.30197 0
M  V30 11063 H 1028.4 -2.87903 1.25582 0
M  V30 11064 H 1027.59 -3.60309 3.52411 0
M  V30 11065 H 1027.19 -1.89547 3.2241 0
M  V30 11066 H 1029.49 -4.43914 5.11807 0
M  V30 11067 H 1030.43 -3.38536 6.21932 0
M  V30 11068 H 1030.84 -3.43637 4.47855 0
M  V30 11069 N 1030.24 -1.51135 -0.446768 0
M  V30 11070 C 1031.17 -1.74709 -1.54916 0
M  V30 11071 C 1032.15 -0.596628 -1.59293 0
M  V30 11072 O 1033.33 -0.838356 -1.75172 0
M  V30 11073 C 1030.46 -1.86353 -2.9307 0
M  V30 11074 C 1029.42 -3.01725 -3.03556 0
M  V30 11075 C 1028.74 -2.9854 -4.43597 0
M  V30 11076 C 1030.04 -4.41848 -2.7851 0
M  V30 11077 H 1031.74 -2.67014 -1.3544 0
M  V30 11078 H 1029.28 -1.28489 -0.650131 0
M  V30 11079 H 1031.23 -2.01428 -3.70141 0
M  V30 11080 H 1029.96 -0.906887 -3.13756 0
M  V30 11081 H 1028.62 -2.86339 -2.28922 0
M  V30 11082 H 1028.27 -2.00673 -4.61237 0
M  V30 11083 H 1027.97 -3.76008 -4.51544 0
M  V30 11084 H 1029.49 -3.15696 -5.22655 0
M  V30 11085 H 1030.9 -4.57633 -3.45319 0
M  V30 11086 H 1029.3 -5.2095 -2.97877 0
M  V30 11087 H 1030.37 -4.52536 -1.74182 0
M  V30 11088 N 1031.71 0.701592 -1.41122 0
M  V30 11089 C 1032.65 1.8257 -1.36907 0
M  V30 11090 C 1033.62 1.6086 -0.237245 0
M  V30 11091 O 1034.81 1.83688 -0.423182 0
M  V30 11092 C 1031.94 3.19149 -1.13408 0
M  V30 11093 C 1030.98 3.59661 -2.29229 0
M  V30 11094 S 1031.81 3.65161 -3.91685 0
M  V30 11095 C 1032.97 5.04477 -3.70478 0
M  V30 11096 H 1033.2 1.85867 -2.32036 0
M  V30 11097 H 1030.74 0.869726 -1.27574 0
M  V30 11098 H 1032.69 3.97998 -1.00537 0
M  V30 11099 H 1031.36 3.13468 -0.199099 0
M  V30 11100 H 1030.55 4.58866 -2.08466 0
M  V30 11101 H 1030.15 2.88105 -2.38477 0
M  V30 11102 H 1032.44 5.91803 -3.29811 0
M  V30 11103 H 1033.39 5.3028 -4.69264 0
M  V30 11104 H 1033.79 4.75731 -3.03876 0
M  V30 11105 N 1033.19 1.2685 0.935242 0
M  V30 11106 C 1034.44 1.12912 1.6846 0
M  V30 11107 C 1034.77 -0.325708 1.91449 0
M  V30 11108 O 1034.05 -1.23884 1.49944 0
M  V30 11109 C 1034.33 1.90513 3.05576 0
M  V30 11110 C 1034.18 3.43936 2.89876 0
M  V30 11111 C 1035.5 1.70363 4.05789 0
M  V30 11112 H 1032.62 0.411559 0.611382 0
M  V30 11113 H 1035.26 1.55917 1.08582 0
M  V30 11114 H 1033.41 1.53963 3.5669 0
M  V30 11115 H 1035.08 3.90272 2.45939 0
M  V30 11116 H 1033.33 3.70659 2.25376 0
M  V30 11117 H 1034 3.93467 3.87153 0
M  V30 11118 H 1036.47 2.02217 3.63659 0
M  V30 11119 H 1035.35 2.27066 4.99732 0
M  V30 11120 H 1035.61 0.649674 4.373 0
M  V30 11121 N 1034.67 -1.14067 1.0875 0
M  V30 11122 C 1035.9 -1.88767 0.839682 0
M  V30 11123 C 1036.31 -1.79024 -0.612119 0
M  V30 11124 O 1035.65 -1.14986 -1.43262 0
M  V30 11125 C 1035.71 -3.39333 1.18716 0
M  V30 11126 C 1035.38 -3.72858 2.64245 0
M  V30 11127 C 1036.37 -3.72683 3.62496 0
M  V30 11128 C 1034.06 -4.0273 3.0019 0
M  V30 11129 C 1036.05 -4.01909 4.9472 0
M  V30 11130 C 1033.74 -4.31618 4.32607 0
M  V30 11131 C 1034.74 -4.31192 5.29682 0
M  V30 11132 O 1034.43 -4.59377 6.59718 0
M  V30 11133 H 1034.16 -0.604665 0.302253 0
M  V30 11134 H 1036.71 -1.45364 1.45115 0
M  V30 11135 H 1034.94 -3.83205 0.518707 0
M  V30 11136 H 1036.63 -3.95346 0.919599 0
M  V30 11137 H 1037.4 -3.49688 3.3607 0
M  V30 11138 H 1033.28 -4.02213 2.25268 0
M  V30 11139 H 1036.82 -4.01491 5.70483 0
M  V30 11140 H 1032.72 -4.54083 4.58779 0
M  V30 11141 H 1033.49 -4.77078 6.65086 0
M  V30 11142 N 1036.15 -0.873678 -1.31166 0
M  V30 11143 C 1037.4 -0.486457 -1.9657 0
M  V30 11144 C 1037.72 0.962042 -1.69041 0
M  V30 11145 O 1036.98 1.69305 -0.981543 0
M  V30 11146 C 1037.28 -0.69462 -3.50585 0
M  V30 11147 C 1036.94 -2.11647 -3.98141 0
M  V30 11148 C 1035.61 -2.50531 -4.10838 0
M  V30 11149 C 1037.96 -3.0436 -4.23101 0
M  V30 11150 C 1035.29 -3.81361 -4.45848 0
M  V30 11151 C 1037.64 -4.34709 -4.59577 0
M  V30 11152 C 1036.3 -4.73502 -4.70481 0
M  V30 11153 H 1035.57 -0.178007 -0.719301 0
M  V30 11154 H 1038.22 -1.10737 -1.56235 0
M  V30 11155 H 1036.52 0.00940878 -3.91799 0
M  V30 11156 H 1038.22 -0.374782 -3.99245 0
M  V30 11157 H 1034.81 -1.8046 -3.88757 0
M  V30 11158 H 1038.99 -2.75544 -4.12782 0
M  V30 11159 H 1034.25 -4.11174 -4.52488 0
M  V30 11160 H 1038.42 -5.06596 -4.77842 0
M  V30 11161 H 1036.05 -5.74919 -4.97365 0
M  V30 11162 N 1037.63 1.44308 -0.633487 0
M  V30 11163 C 1038.9 1.95476 -0.0697262 0
M  V30 11164 C 1039.28 1.57539 1.40516 0
M  V30 11165 O 1038.63 0.850632 2.12077 0
M  V30 11166 C 1038.84 3.4775 -0.295093 0
M  V30 11167 C 1040.19 4.24177 -0.189542 0
M  V30 11168 O 1041.21 3.55479 -0.226586 0
M  V30 11169 O 1040.07 5.46415 -0.096479 0
M  V30 11170 H 1037.17 0.826734 0.0209582 0
M  V30 11171 H 1039.71 1.54347 -0.705354 0
M  V30 11172 H 1038.48 3.6842 -1.31841 0
M  V30 11173 H 1038.11 3.95832 0.37456 0
M  V30 11174 N 1039.1 0.374177 1.53094 0
M  V30 11175 C 1040.33 -0.213015 2.05499 0
M  V30 11176 C 1040.74 -1.42303 1.24686 0
M  V30 11177 O 1040.09 -1.81512 0.282702 0
M  V30 11178 C 1040.15 -0.662308 3.53346 0
M  V30 11179 C 1039.81 0.432183 4.54952 0
M  V30 11180 C 1040.81 1.2848 5.03775 0
M  V30 11181 C 1038.49 0.594887 4.98765 0
M  V30 11182 C 1040.49 2.28538 5.9502 0
M  V30 11183 C 1038.17 1.59882 5.89814 0
M  V30 11184 C 1039.17 2.4425 6.37833 0
M  V30 11185 O 1038.86 3.4293 7.27086 0
M  V30 11186 H 1038.59 -0.0393809 0.674852 0
M  V30 11187 H 1041.15 0.533423 1.98353 0
M  V30 11188 H 1039.38 -1.46049 3.5806 0
M  V30 11189 H 1041.07 -1.17347 3.88567 0
M  V30 11190 H 1041.83 1.17033 4.70668 0
M  V30 11191 H 1037.71 -0.0520401 4.60971 0
M  V30 11192 H 1041.25 2.94426 6.32423 0
M  V30 11193 H 1037.15 1.71373 6.22335 0
M  V30 11194 H 1037.92 3.3876 7.45107 0
M  V30 11195 N 1040.58 -1.57259 0.103575 0
M  V30 11196 C 1041.52 -2.10165 -0.889141 0
M  V30 11197 C 1042.49 -1.01426 -1.27089 0
M  V30 11198 O 1043.68 -1.2898 -1.37465 0
M  V30 11199 C 1040.8 -2.58564 -2.18774 0
M  V30 11200 C 1039.85 -3.79043 -1.95522 0
M  V30 11201 S 1040.68 -5.22213 -1.18551 0
M  V30 11202 C 1041.84 -5.73968 -2.49623 0
M  V30 11203 H 1042.07 -2.9404 -0.439083 0
M  V30 11204 H 1039.61 -1.54008 -0.10989 0
M  V30 11205 H 1041.56 -2.87106 -2.93395 0
M  V30 11206 H 1040.22 -1.749 -2.609 0
M  V30 11207 H 1039.42 -4.11004 -2.91705 0
M  V30 11208 H 1039.02 -3.51038 -1.29028 0
M  V30 11209 H 1041.31 -5.82752 -3.45553 0
M  V30 11210 H 1042.25 -6.72324 -2.22229 0
M  V30 11211 H 1042.66 -5.01946 -2.58284 0
M  V30 11212 N 1042.06 0.170153 -1.56679 0
M  V30 11213 C 1043.48 0.521966 -1.50823 0
M  V30 11214 C 1043.68 1.84589 -0.808037 0
M  V30 11215 O 1042.73 2.49791 -0.368891 0
M  V30 11216 C 1044.05 0.553648 -2.95559 0
M  V30 11217 C 1045.59 0.640769 -3.06371 0
M  V30 11218 C 1046.07 0.703332 -4.52567 0
M  V30 11219 N 1047.56 0.76619 -4.56819 0
M  V30 11220 C 1048.29 0.835192 -5.67285 0
M  V30 11221 N 1047.79 0.864957 -6.87379 0
M  V30 11222 N 1049.58 0.874302 -5.55259 0
M  V30 11223 H 1041.73 -0.697952 -2.00605 0
M  V30 11224 H 1044 -0.251787 -0.913952 0
M  V30 11225 H 1043.7 -0.350498 -3.49949 0
M  V30 11226 H 1043.58 1.39973 -3.50268 0
M  V30 11227 H 1045.96 1.53534 -2.52015 0
M  V30 11228 H 1046.05 -0.232008 -2.54746 0
M  V30 11229 H 1045.69 -0.186986 -5.07556 0
M  V30 11230 H 1045.62 1.59227 -5.0195 0
M  V30 11231 H 1048.11 0.751424 -3.70354 0
M  V30 11232 H 1048.42 0.918814 -7.67318 0
M  V30 11233 H 1046.77 0.833215 -6.89987 0
M  V30 11234 H 1049.96 0.848057 -4.60354 0
M  V30 11235 H 1050.13 0.924615 -6.4137 0
M  V30 11236 N 1043.54 1.5137 0.438746 0
M  V30 11237 C 1044.76 1.68058 1.21537 0
M  V30 11238 C 1045.19 0.376787 1.84288 0
M  V30 11239 O 1044.55 -0.662911 1.68746 0
M  V30 11240 C 1044.59 2.79684 2.27616 0
M  V30 11241 O 1043.7 2.43189 3.33066 0
M  V30 11242 H 1043.04 0.560408 0.356144 0
M  V30 11243 H 1045.57 1.97926 0.518311 0
M  V30 11244 H 1045.58 3.03726 2.72423 0
M  V30 11245 H 1044.25 3.74293 1.81321 0
M  V30 11246 H 1042.83 2.29713 2.93746 0
M  V30 11247 N 1045.02 -0.694098 1.41492 0
M  V30 11248 C 1046.26 -1.45493 1.42138 0
M  V30 11249 C 1046.62 -1.92376 0.0302688 0
M  V30 11250 O 1045.91 -1.66723 -0.944142 0
M  V30 11251 C 1046.1 -2.6805 2.36398 0
M  V30 11252 C 1045.93 -2.33157 3.84536 0
M  V30 11253 C 1044.7 -2.2345 4.53209 0
M  V30 11254 C 1046.9 -1.96037 4.75473 0
M  V30 11255 N 1044.88 -1.81457 5.8647 0
M  V30 11256 C 1046.25 -1.64814 5.97693 0
M  V30 11257 C 1048.31 -1.8286 4.63106 0
M  V30 11258 C 1047.01 -1.21738 7.08923 0
M  V30 11259 C 1049.04 -1.41188 5.74299 0
M  V30 11260 C 1048.4 -1.10877 6.95619 0
M  V30 11261 H 1044.5 -0.529635 0.575335 0
M  V30 11262 H 1047.08 -0.802901 1.77374 0
M  V30 11263 H 1045.25 -3.30972 2.03254 0
M  V30 11264 H 1046.99 -3.34531 2.27753 0
M  V30 11265 H 1043.74 -2.41894 4.07166 0
M  V30 11266 H 1044.17 -1.62938 6.571 0
M  V30 11267 H 1048.81 -2.04947 3.69806 0
M  V30 11268 H 1046.53 -0.983947 8.02087 0
M  V30 11269 H 1050.11 -1.3154 5.66735 0
M  V30 11270 H 1048.99 -0.791191 7.80199 0
M  V30 11271 N 1046.49 -1.27344 -0.928501 0
M  V30 11272 C 1047.74 -1.13019 -1.67061 0
M  V30 11273 C 1048.06 0.323614 -1.92904 0
M  V30 11274 O 1049.26 0.587752 -2.65062 0
M  V30 11275 C 1047.72 -1.97471 -3.00887 0
M  V30 11276 C 1047.33 -3.47504 -2.82746 0
M  V30 11277 C 1049.07 -1.91792 -3.78703 0
M  V30 11278 C 1046.98 -4.24158 -4.12122 0
M  V30 11279 H 1045.91 -0.419364 -0.626618 0
M  V30 11280 H 1048.56 -1.51759 -1.03158 0
M  V30 11281 H 1046.94 -1.51576 -3.65843 0
M  V30 11282 H 1048.11 -4.01256 -2.26562 0
M  V30 11283 H 1046.43 -3.54554 -2.18359 0
M  V30 11284 H 1049.03 -2.46339 -4.74575 0
M  V30 11285 H 1049.37 -0.891375 -4.06645 0
M  V30 11286 H 1049.9 -2.35578 -3.20543 0
M  V30 11287 H 1046.64 -5.27333 -3.89359 0
M  V30 11288 H 1046.16 -3.75183 -4.67972 0
M  V30 11289 H 1047.84 -4.33288 -4.80489 0
M  V30 11290 N 1047.97 1.13488 -1.09353 0
M  V30 11291 C 1048.9 2.18563 -0.69012 0
M  V30 11292 C 1049.92 1.60585 0.267651 0
M  V30 11293 O 1051.11 1.78419 0.0538176 0
M  V30 11294 C 1048.21 3.389 0.00391255 0
M  V30 11295 C 1047.38 4.2639 -0.975209 0
M  V30 11296 C 1046.44 5.25258 -0.314719 0
M  V30 11297 O 1045.46 5.6101 -0.962119 0
M  V30 11298 N 1046.67 5.72978 0.931458 0
M  V30 11299 H 1049.43 2.53788 -1.59411 0
M  V30 11300 H 1046.99 1.28803 -0.980886 0
M  V30 11301 H 1048.98 4.02112 0.45696 0
M  V30 11302 H 1047.55 3.0192 0.81014 0
M  V30 11303 H 1046.77 3.59964 -1.60684 0
M  V30 11304 H 1048.06 4.817 -1.63836 0
M  V30 11305 H 1047.46 5.46078 1.477 0
M  V30 11306 H 1046.02 6.38131 1.32784 0
M  V30 11307 N 1049.45 0.880621 1.30701 0
M  V30 11308 C 1050.38 0.288813 2.26365 0
M  V30 11309 C 1051.36 -0.588135 1.51591 0
M  V30 11310 O 1052.55 -0.539197 1.80624 0
M  V30 11311 C 1049.67 -0.590032 3.33521 0
M  V30 11312 C 1048.72 0.217003 4.25948 0
M  V30 11313 S 1049.55 1.60246 5.10961 0
M  V30 11314 C 1050.71 0.730023 6.21628 0
M  V30 11315 H 1050.94 1.09971 2.76213 0
M  V30 11316 H 1048.47 0.67978 1.3863 0
M  V30 11317 H 1050.43 -1.09136 3.95727 0
M  V30 11318 H 1049.09 -1.37498 2.82406 0
M  V30 11319 H 1048.29 -0.453481 5.01956 0
M  V30 11320 H 1047.89 0.650803 3.68294 0
M  V30 11321 H 1050.18 -0.0548644 6.77478 0
M  V30 11322 H 1051.12 1.46157 6.92852 0
M  V30 11323 H 1051.53 0.292854 5.6374 0
M  V30 11324 N 1050.93 -1.4397 0.641131 0
M  V30 11325 C 1051.86 -2.33458 -0.04446 0
M  V30 11326 C 1052.84 -1.48781 -0.824507 0
M  V30 11327 O 1054.03 -1.77477 -0.788397 0
M  V30 11328 C 1051.16 -3.31989 -1.01984 0
M  V30 11329 C 1050.11 -4.2656 -0.350745 0
M  V30 11330 C 1049.44 -5.15036 -1.43673 0
M  V30 11331 C 1050.74 -5.16897 0.749299 0
M  V30 11332 H 1052.43 -2.91034 0.702832 0
M  V30 11333 H 1049.98 -1.39942 0.339435 0
M  V30 11334 H 1051.93 -3.93483 -1.50828 0
M  V30 11335 H 1050.65 -2.72643 -1.79815 0
M  V30 11336 H 1049.31 -3.66413 0.117139 0
M  V30 11337 H 1048.96 -4.52037 -2.20617 0
M  V30 11338 H 1048.66 -5.79125 -0.994358 0
M  V30 11339 H 1050.18 -5.79403 -1.92678 0
M  V30 11340 H 1051.6 -5.7227 0.343534 0
M  V30 11341 H 1049.99 -5.89643 1.11541 0
M  V30 11342 H 1051.06 -4.5731 1.61232 0
M  V30 11343 N 1052.41 -0.382291 -1.52893 0
M  V30 11344 C 1053.34 0.491199 -2.23875 0
M  V30 11345 C 1054.35 1.03249 -1.25871 0
M  V30 11346 O 1055.54 0.936016 -1.5199 0
M  V30 11347 C 1052.64 1.6927 -2.936 0
M  V30 11348 C 1051.81 1.28 -4.18252 0
M  V30 11349 C 1050.87 2.34541 -4.71038 0
M  V30 11350 O 1049.9 1.96239 -5.34302 0
M  V30 11351 N 1051.1 3.6636 -4.50289 0
M  V30 11352 H 1053.87 -0.116897 -2.99472 0
M  V30 11353 H 1051.43 -0.208296 -1.60554 0
M  V30 11354 H 1053.42 2.40054 -3.25816 0
M  V30 11355 H 1051.99 2.20729 -2.21354 0
M  V30 11356 H 1051.21 0.40133 -3.92152 0
M  V30 11357 H 1052.5 0.98082 -4.99257 0
M  V30 11358 H 1051.9 4.00245 -3.99775 0
M  V30 11359 H 1050.45 4.332 -4.87013 0
M  V30 11360 N 1053.89 1.57202 -0.111913 0
M  V30 11361 C 1054.82 2.11995 0.871242 0
M  V30 11362 C 1055.83 1.06102 1.23475 0
M  V30 11363 O 1057.02 1.33497 1.18494 0
M  V30 11364 C 1054.12 2.59874 2.17528 0
M  V30 11365 C 1053.29 3.89788 1.98455 0
M  V30 11366 C 1052.35 4.23339 3.12523 0
M  V30 11367 O 1051.38 4.92277 2.85748 0
M  V30 11368 N 1052.58 3.80089 4.38762 0
M  V30 11369 H 1055.34 2.96976 0.403157 0
M  V30 11370 H 1052.91 1.61737 0.0727159 0
M  V30 11371 H 1054.9 2.79354 2.9282 0
M  V30 11372 H 1053.47 1.79812 2.55707 0
M  V30 11373 H 1052.69 3.79288 1.07396 0
M  V30 11374 H 1053.98 4.74748 1.83007 0
M  V30 11375 H 1053.37 3.24473 4.63394 0
M  V30 11376 H 1051.93 4.04691 5.10949 0
M  V30 11377 N 1055.36 -0.161842 1.56767 0
M  V30 11378 C 1056.29 -1.20226 2.0017 0
M  V30 11379 C 1057.27 -1.4564 0.878807 0
M  V30 11380 O 1058.46 -1.56813 1.14557 0
M  V30 11381 C 1055.59 -2.53897 2.36968 0
M  V30 11382 C 1054.54 -2.43033 3.52305 0
M  V30 11383 C 1053.87 -3.81281 3.74872 0
M  V30 11384 C 1055.17 -1.927 4.85453 0
M  V30 11385 H 1056.86 -0.84142 2.87333 0
M  V30 11386 H 1054.41 -0.403309 1.38237 0
M  V30 11387 H 1056.36 -3.26893 2.6593 0
M  V30 11388 H 1055.09 -2.91787 1.46724 0
M  V30 11389 H 1053.75 -1.7249 3.23485 0
M  V30 11390 H 1053.39 -4.1658 2.81904 0
M  V30 11391 H 1053.09 -3.74877 4.52483 0
M  V30 11392 H 1054.62 -4.55848 4.06245 0
M  V30 11393 H 1056.03 -2.55477 5.13229 0
M  V30 11394 H 1054.43 -1.97222 5.66766 0
M  V30 11395 H 1055.5 -0.881816 4.76814 0
M  V30 11396 N 1056.84 -1.516 -0.430713 0
M  V30 11397 C 1058.25 -1.57 -1.01035 0
M  V30 11398 C 1058.6 -0.397439 -1.92132 0
M  V30 11399 O 1057.73 0.484954 -2.10896 0
M  V30 11400 C 1058.32 -2.84536 -1.83915 0
M  V30 11401 C 1056.88 -2.92485 -2.36917 0
M  V30 11402 C 1056.03 -2.5173 -1.16308 0
M  V30 11403 H 1058.98 -1.57281 -0.211734 0
M  V30 11404 H 1059 -2.68672 -2.69435 0
M  V30 11405 H 1058.51 -3.69858 -1.17586 0
M  V30 11406 H 1056.61 -2.11608 -3.0668 0
M  V30 11407 H 1056.73 -3.96277 -2.6926 0
M  V30 11408 H 1055.09 -2.05079 -1.51045 0
M  V30 11409 H 1055.87 -3.39403 -0.515793 0
M  V30 11410 N 1058.32 0.686584 -1.41858 0
M  V30 11411 C 1059.25 1.81202 -1.40352 0
M  V30 11412 C 1060.26 1.5993 -0.304322 0
M  V30 11413 O 1061.45 1.69267 -0.566643 0
M  V30 11414 C 1058.55 3.18116 -1.16856 0
M  V30 11415 C 1057.73 3.66339 -2.38987 0
M  V30 11416 C 1056.79 4.8195 -2.11212 0
M  V30 11417 O 1055.81 4.93102 -2.84323 0
M  V30 11418 N 1057.01 5.69829 -1.10793 0
M  V30 11419 H 1059.78 1.82983 -2.37355 0
M  V30 11420 H 1057.34 0.869244 -1.36586 0
M  V30 11421 H 1059.33 3.93097 -0.962125 0
M  V30 11422 H 1057.9 3.11306 -0.284186 0
M  V30 11423 H 1057.12 2.82166 -2.75274 0
M  V30 11424 H 1058.41 3.95297 -3.2034 0
M  V30 11425 H 1057.81 5.63459 -0.503012 0
M  V30 11426 H 1056.36 6.44671 -0.961379 0
M  V30 11427 N 1059.8 1.27835 0.921735 0
M  V30 11428 C 1060.76 1.11108 2.00469 0
M  V30 11429 C 1061.76 0.053203 1.60712 0
M  V30 11430 O 1062.95 0.298308 1.71627 0
M  V30 11431 C 1060.08 0.694269 3.33755 0
M  V30 11432 H 1061.28 2.07279 2.16738 0
M  V30 11433 H 1058.83 1.10708 1.10333 0
M  V30 11434 H 1059.56 -0.268561 3.23186 0
M  V30 11435 H 1059.35 1.45836 3.6397 0
M  V30 11436 H 1060.84 0.59965 4.13272 0
M  V30 11437 N 1061.28 -1.12907 1.09954 0
M  V30 11438 C 1062.5 -1.88679 0.861099 0
M  V30 11439 C 1062.93 -1.78853 -0.582499 0
M  V30 11440 O 1062.28 -1.13992 -1.4098 0
M  V30 11441 C 1062.33 -3.36047 1.30785 0
M  V30 11442 O 1061.44 -4.09716 0.469728 0
M  V30 11443 H 1060.78 -0.586447 0.31141 0
M  V30 11444 H 1063.31 -1.42818 1.46507 0
M  V30 11445 H 1063.32 -3.86882 1.29562 0
M  V30 11446 H 1061.99 -3.42516 2.35914 0
M  V30 11447 H 1060.57 -3.6887 0.54674 0
M  V30 11448 N 1062.75 -0.88754 -1.30232 0
M  V30 11449 C 1063.7 -0.327649 -2.25633 0
M  V30 11450 C 1064.69 0.545362 -1.51376 0
M  V30 11451 O 1065.88 0.389366 -1.72664 0
M  V30 11452 C 1063.01 0.454546 -3.40277 0
M  V30 11453 C 1062.09 -0.432698 -4.21887 0
M  V30 11454 N 1062.49 -1.53434 -4.81966 0
M  V30 11455 C 1060.78 -0.228275 -4.45415 0
M  V30 11456 C 1061.48 -2.08292 -5.43129 0
M  V30 11457 N 1060.46 -1.37754 -5.25856 0
M  V30 11458 H 1064.26 -1.16937 -2.69635 0
M  V30 11459 H 1061.78 -0.737232 -1.44702 0
M  V30 11460 H 1063.77 0.87231 -4.07672 0
M  V30 11461 H 1062.43 1.29367 -2.97816 0
M  V30 11462 H 1063.44 -1.91717 -4.81108 0
M  V30 11463 H 1060.12 0.573475 -4.13543 0
M  V30 11464 H 1061.51 -3.00818 -6.00798 0
M  V30 11465 N 1064.23 1.43628 -0.648757 0
M  V30 11466 C 1065.46 2.06732 -0.166284 0
M  V30 11467 C 1065.88 1.48281 1.15734 0
M  V30 11468 O 1065.24 0.591018 1.71396 0
M  V30 11469 C 1065.29 3.60502 -0.0838732 0
M  V30 11470 O 1064.39 4.01186 0.955185 0
M  V30 11471 H 1063.73 0.657479 -0.0928285 0
M  V30 11472 H 1066.26 1.84208 -0.890421 0
M  V30 11473 H 1066.27 4.07875 0.100923 0
M  V30 11474 H 1064.95 4.02424 -1.05014 0
M  V30 11475 H 1063.53 3.65412 0.743537 0
M  V30 11476 N 1065.71 0.390394 1.52688 0
M  V30 11477 C 1066.64 -0.43567 2.294 0
M  V30 11478 C 1067.62 -1.06253 1.32832 0
M  V30 11479 O 1068.81 -1.07509 1.61726 0
M  V30 11480 C 1065.94 -1.56259 3.10162 0
M  V30 11481 C 1064.89 -1.06172 4.14622 0
M  V30 11482 C 1064.22 -2.2808 4.83615 0
M  V30 11483 C 1065.52 -0.128902 5.22141 0
M  V30 11484 H 1067.21 0.204384 2.98702 0
M  V30 11485 H 1064.76 0.0997377 1.43654 0
M  V30 11486 H 1066.71 -2.14732 3.62585 0
M  V30 11487 H 1065.43 -2.23025 2.38595 0
M  V30 11488 H 1064.09 -0.499518 3.63181 0
M  V30 11489 H 1063.74 -2.93358 4.08595 0
M  V30 11490 H 1063.44 -1.95227 5.5422 0
M  V30 11491 H 1064.96 -2.87193 5.38844 0
M  V30 11492 H 1066.38 -0.621849 5.69917 0
M  V30 11493 H 1064.78 0.109919 5.99999 0
M  V30 11494 H 1065.85 0.821884 4.77884 0
M  V30 11495 N 1067.19 -1.57141 0.120249 0
M  V30 11496 C 1068.14 -2.15379 -0.829497 0
M  V30 11497 C 1069.11 -1.07913 -1.2627 0
M  V30 11498 O 1070.29 -1.35827 -1.33999 0
M  V30 11499 C 1067.43 -2.75847 -2.0737 0
M  V30 11500 C 1066.54 -3.97624 -1.68875 0
M  V30 11501 C 1065.68 -4.46175 -2.88272 0
M  V30 11502 C 1064.72 -5.60481 -2.46023 0
M  V30 11503 N 1063.85 -6.0377 -3.58337 0
M  V30 11504 H 1068.69 -2.96211 -0.326031 0
M  V30 11505 H 1066.23 -1.46341 -0.149235 0
M  V30 11506 H 1068.19 -3.09037 -2.80272 0
M  V30 11507 H 1066.82 -1.97703 -2.55174 0
M  V30 11508 H 1065.87 -3.70588 -0.858431 0
M  V30 11509 H 1067.18 -4.80512 -1.33827 0
M  V30 11510 H 1066.34 -4.8128 -3.69397 0
M  V30 11511 H 1065.08 -3.6224 -3.26548 0
M  V30 11512 H 1064.08 -5.24979 -1.63331 0
M  V30 11513 H 1065.31 -6.46184 -2.08863 0
M  V30 11514 H 1063.25 -5.22776 -3.96284 0
M  V30 11515 H 1063.17 -6.81517 -3.27217 0
M  V30 11516 H 1064.44 -6.43514 -4.39898 0
M  V30 11517 N 1068.67 0.153526 -1.5685 0
M  V30 11518 C 1069.61 1.20896 -1.98713 0
M  V30 11519 C 1070.61 1.44839 -0.878529 0
M  V30 11520 O 1071.81 1.45208 -1.0637 0
M  V30 11521 H 1068.19 0.406797 -0.632472 0
M  V30 11522 H 1070.16 0.829145 -2.86649 0
M  V30 11523 C 1068.91 2.53642 -2.37825 0
M  V30 11524 H 1068.23 2.36047 -3.22679 0
M  V30 11525 H 1069.67 3.26136 -2.70946 0
M  V30 11526 C 1068.13 3.13706 -1.22841 0
M  V30 11527 O 1068.66 3.98246 -0.525626 0
M  V30 11528 N 1066.87 2.73059 -0.99435 0
M  V30 11529 H 1066.41 2.0441 -1.56761 0
M  V30 11530 H 1066.37 3.1358 -0.226883 0
M  V30 11531 N 1070.14 1.51827 0.422667 0
M  V30 11532 C 1071.07 1.77152 1.52117 0
M  V30 11533 C 1072.06 0.621895 1.58324 0
M  V30 11534 O 1073.24 0.866118 1.73816 0
M  V30 11535 C 1070.37 1.90991 2.90068 0
M  V30 11536 C 1069.32 3.06516 2.98717 0
M  V30 11537 C 1068.65 3.05559 4.38791 0
M  V30 11538 C 1069.95 4.46223 2.71445 0
M  V30 11539 H 1071.64 2.69135 1.31175 0
M  V30 11540 H 1069.19 1.29507 0.629607 0
M  V30 11541 H 1071.14 2.07291 3.6689 0
M  V30 11542 H 1069.87 0.956688 3.12274 0
M  V30 11543 H 1068.53 2.89945 2.24338 0
M  V30 11544 H 1068.17 2.07985 4.57986 0
M  V30 11545 H 1067.87 3.83144 4.45505 0
M  V30 11546 H 1069.4 3.23971 5.17566 0
M  V30 11547 H 1070.81 4.63069 3.37994 0
M  V30 11548 H 1069.21 5.25623 2.89552 0
M  V30 11549 H 1070.28 4.5525 1.6696 0
M  V30 11550 N 1071.62 -0.679052 1.4222 0
M  V30 11551 C 1072.55 -1.80481 1.48152 0
M  V30 11552 C 1073.53 -1.66698 0.338502 0
M  V30 11553 O 1074.72 -1.86183 0.552228 0
M  V30 11554 C 1071.85 -3.18746 1.37908 0
M  V30 11555 C 1070.8 -3.47258 2.50192 0
M  V30 11556 C 1070.13 -4.85052 2.25008 0
M  V30 11557 C 1071.43 -3.44576 3.92511 0
M  V30 11558 H 1073.12 -1.75774 2.42371 0
M  V30 11559 H 1070.67 -0.844241 1.16656 0
M  V30 11560 H 1072.62 -3.97229 1.40666 0
M  V30 11561 H 1071.35 -3.24119 0.401806 0
M  V30 11562 H 1070 -2.71133 2.46744 0
M  V30 11563 H 1069.65 -4.8707 1.25584 0
M  V30 11564 H 1069.35 -5.05092 3.00259 0
M  V30 11565 H 1070.88 -5.65825 2.29508 0
M  V30 11566 H 1072.29 -4.13036 3.97585 0
M  V30 11567 H 1070.69 -3.76151 4.67579 0
M  V30 11568 H 1071.76 -2.4323 4.19484 0
M  V30 11569 N 1073.1 -1.28322 -0.914942 0
M  V30 11570 C 1074.01 -1.13993 -2.05043 0
M  V30 11571 C 1075.03 -0.0667921 -1.73872 0
M  V30 11572 O 1076.2 -0.275845 -1.99502 0
M  V30 11573 C 1073.27 -0.801856 -3.373 0
M  V30 11574 C 1072.33 -1.95723 -3.82088 0
M  V30 11575 C 1071.56 -1.63519 -5.08033 0
M  V30 11576 O 1071.78 -0.54899 -5.67752 0
M  V30 11577 O 1070.72 -2.47844 -5.48504 0
M  V30 11578 H 1074.54 -2.09313 -2.2005 0
M  V30 11579 H 1072.13 -1.0763 -1.03616 0
M  V30 11580 H 1074.01 -0.627214 -4.16706 0
M  V30 11581 H 1072.69 0.121696 -3.23471 0
M  V30 11582 H 1071.59 -2.18702 -3.03514 0
M  V30 11583 H 1072.93 -2.86144 -4.00478 0
M  V30 11584 N 1074.58 1.12322 -1.10551 0
M  V30 11585 C 1075.49 2.21678 -0.767862 0
M  V30 11586 C 1076.5 1.72404 0.235132 0
M  V30 11587 O 1077.68 2.01266 0.0735912 0
M  V30 11588 C 1074.75 3.46087 -0.205999 0
M  V30 11589 C 1073.81 4.10195 -1.26642 0
M  V30 11590 C 1073.04 5.28666 -0.731274 0
M  V30 11591 O 1073.26 5.68686 0.44189 0
M  V30 11592 O 1072.2 5.83121 -1.49176 0
M  V30 11593 H 1076.02 2.52955 -1.6807 0
M  V30 11594 H 1073.61 1.2068 -0.880728 0
M  V30 11595 H 1075.49 4.21273 0.103435 0
M  V30 11596 H 1074.16 3.16484 0.679685 0
M  V30 11597 H 1073.07 3.36784 -1.62873 0
M  V30 11598 H 1074.4 4.43957 -2.12516 0
M  V30 11599 N 1076.06 0.894434 1.2976 0
M  V30 11600 C 1076.97 0.372622 2.31622 0
M  V30 11601 C 1077.98 -0.52996 1.65733 0
M  V30 11602 O 1079.16 -0.420807 1.96955 0
M  V30 11603 C 1076.22 -0.396076 3.4443 0
M  V30 11604 C 1075.28 0.537394 4.25923 0
M  V30 11605 C 1074.52 -0.194713 5.33345 0
M  V30 11606 O 1074.74 -1.41943 5.52457 0
M  V30 11607 O 1073.67 0.460055 6.00139 0
M  V30 11608 H 1077.5 1.21756 2.78225 0
M  V30 11609 H 1075.09 0.65858 1.34101 0
M  V30 11610 H 1076.97 -0.830962 4.13126 0
M  V30 11611 H 1075.64 -1.21716 2.99945 0
M  V30 11612 H 1074.55 1.02129 3.5989 0
M  V30 11613 H 1075.88 1.32475 4.74037 0
M  V30 11614 N 1077.53 -1.43282 0.656365 0
M  V30 11615 C 1078.78 -2.02603 0.179905 0
M  V30 11616 C 1079.14 -1.50875 -1.19393 0
M  V30 11617 O 1078.43 -0.6935 -1.78609 0
M  V30 11618 C 1078.62 -3.57148 0.134225 0
M  V30 11619 C 1078.45 -4.23872 1.50209 0
M  V30 11620 C 1077.22 -4.59812 2.09526 0
M  V30 11621 C 1079.42 -4.52674 2.44112 0
M  V30 11622 N 1077.4 -5.11624 3.39284 0
M  V30 11623 C 1078.77 -5.05839 3.58506 0
M  V30 11624 C 1080.83 -4.34645 2.42874 0
M  V30 11625 C 1079.53 -5.42872 4.71892 0
M  V30 11626 C 1081.56 -4.72742 3.55343 0
M  V30 11627 C 1080.92 -5.26043 4.68463 0
M  V30 11628 H 1077.02 -0.774177 0.110334 0
M  V30 11629 H 1079.6 -1.74413 0.865352 0
M  V30 11630 H 1077.77 -3.84896 -0.520575 0
M  V30 11631 H 1079.5 -4.03154 -0.3534 0
M  V30 11632 H 1076.26 -4.44958 1.62203 0
M  V30 11633 H 1076.68 -5.4198 4.05693 0
M  V30 11634 H 1081.33 -3.92708 1.56654 0
M  V30 11635 H 1079.04 -5.83752 5.58802 0
M  V30 11636 H 1082.63 -4.60485 3.55591 0
M  V30 11637 H 1081.51 -5.54975 5.54051 0
M  V30 11638 N 1079.01 -0.398486 -1.52479 0
M  V30 11639 C 1079.96 0.447001 -2.28264 0
M  V30 11640 C 1080.96 1.05511 -1.32529 0
M  V30 11641 O 1082.16 0.994528 -1.5003 0
M  V30 11642 H 1078.54 0.162919 -0.73414 0
M  V30 11643 H 1080.51 -0.213534 -2.97635 0
M  V30 11644 C 1079.26 1.55724 -3.10879 0
M  V30 11645 H 1078.58 1.09864 -3.84409 0
M  V30 11646 H 1080.02 2.12286 -3.67029 0
M  V30 11647 C 1078.48 2.51853 -2.23768 0
M  V30 11648 O 1079.01 3.55483 -1.87069 0
M  V30 11649 N 1077.21 2.2181 -1.87746 0
M  V30 11650 H 1076.76 1.3757 -2.17789 0
M  V30 11651 H 1076.72 2.86376 -1.29753 0
M  V30 11652 N 1080.49 1.57075 -0.12858 0
M  V30 11653 C 1081.74 1.9552 0.527087 0
M  V30 11654 C 1082.07 1.01243 1.66072 0
M  V30 11655 O 1081.32 0.0381076 1.95663 0
M  V30 11656 C 1081.62 3.40329 1.09138 0
M  V30 11657 C 1081.29 4.50832 0.0781039 0
M  V30 11658 C 1079.95 4.80782 -0.200493 0
M  V30 11659 C 1082.3 5.17595 -0.61192 0
M  V30 11660 C 1079.63 5.74809 -1.17524 0
M  V30 11661 C 1081.98 6.12671 -1.57536 0
M  V30 11662 C 1080.64 6.41008 -1.86184 0
M  V30 11663 H 1079.91 0.715458 0.192875 0
M  V30 11664 H 1082.56 1.90328 -0.211515 0
M  V30 11665 H 1080.87 3.42262 1.90694 0
M  V30 11666 H 1082.56 3.67393 1.60696 0
M  V30 11667 H 1079.15 4.2751 0.30543 0
M  V30 11668 H 1083.34 4.94605 -0.40986 0
M  V30 11669 H 1078.59 5.95065 -1.40384 0
M  V30 11670 H 1082.77 6.63486 -2.11565 0
M  V30 11671 H 1080.39 7.13673 -2.61868 0
M  V30 11672 N 1081.97 -0.145205 1.5693 0
M  V30 11673 C 1083.2 -0.872398 1.87608 0
M  V30 11674 C 1083.61 -1.74657 0.716975 0
M  V30 11675 O 1082.97 -1.79792 -0.3132 0
M  V30 11676 C 1083.02 -1.72762 3.17546 0
M  V30 11677 O 1082.74 -0.888681 4.28992 0
M  V30 11678 C 1084.24 -2.56224 3.61751 0
M  V30 11679 H 1081.46 -0.252166 0.621815 0
M  V30 11680 H 1084.01 -0.137456 2.04038 0
M  V30 11681 H 1082.16 -2.41561 3.02865 0
M  V30 11682 H 1082.58 -1.47601 5.03303 0
M  V30 11683 H 1084.05 -3.11804 4.55502 0
M  V30 11684 H 1084.53 -3.32347 2.87127 0
M  V30 11685 H 1085.13 -1.92714 3.79133 0
M  V30 11686 N 1083.45 -1.52049 -0.414609 0
M  V30 11687 C 1084.39 -1.74998 -1.5048 0
M  V30 11688 C 1085.36 -0.592251 -1.55182 0
M  V30 11689 O 1086.55 -0.829203 -1.7184 0
M  V30 11690 C 1083.69 -1.90157 -2.87983 0
M  V30 11691 C 1082.8 -3.17789 -2.92633 0
M  V30 11692 C 1081.94 -3.23411 -4.21401 0
M  V30 11693 C 1080.98 -4.45267 -4.20004 0
M  V30 11694 N 1080.11 -4.48312 -5.40334 0
M  V30 11695 H 1084.95 -2.68046 -1.30212 0
M  V30 11696 H 1082.49 -1.32824 -0.632154 0
M  V30 11697 H 1084.45 -1.96929 -3.67797 0
M  V30 11698 H 1083.08 -1.00496 -3.06758 0
M  V30 11699 H 1082.13 -3.20216 -2.05343 0
M  V30 11700 H 1083.44 -4.07634 -2.87465 0
M  V30 11701 H 1082.6 -3.29224 -5.09604 0
M  V30 11702 H 1081.34 -2.31495 -4.29257 0
M  V30 11703 H 1080.34 -4.39606 -3.30192 0
M  V30 11704 H 1081.57 -5.38472 -4.13793 0
M  V30 11705 H 1079.51 -3.59277 -5.48868 0
M  V30 11706 H 1079.43 -5.31994 -5.37139 0
M  V30 11707 H 1080.7 -4.58347 -6.30506 0
M  V30 11708 N 1084.93 0.6715 -1.42579 0
M  V30 11709 C 1085.84 1.81435 -1.48723 0
M  V30 11710 C 1086.85 1.69895 -0.375716 0
M  V30 11711 O 1088.03 1.91388 -0.627115 0
M  V30 11712 C 1085.09 3.17599 -1.39038 0
M  V30 11713 C 1084.15 3.41071 -2.60709 0
M  V30 11714 C 1083.39 4.7074 -2.51476 0
M  V30 11715 O 1083.61 5.48868 -1.55243 0
M  V30 11716 O 1082.54 4.95528 -3.41666 0
M  V30 11717 H 1086.37 1.79206 -2.45191 0
M  V30 11718 H 1083.95 0.827666 -1.24379 0
M  V30 11719 H 1085.84 3.98847 -1.3601 0
M  V30 11720 H 1084.51 3.20458 -0.456966 0
M  V30 11721 H 1083.42 2.59659 -2.69311 0
M  V30 11722 H 1084.75 3.43045 -3.5296 0
M  V30 11723 N 1086.4 1.28806 0.908124 0
M  V30 11724 C 1087.65 1.15663 1.65242 0
M  V30 11725 C 1087.97 -0.292883 1.93395 0
M  V30 11726 O 1089.17 -0.545509 2.65963 0
M  V30 11727 C 1087.63 2.02233 2.97707 0
M  V30 11728 C 1087.24 3.51958 2.77181 0
M  V30 11729 C 1088.98 1.97792 3.75604 0
M  V30 11730 C 1086.89 4.3066 4.05322 0
M  V30 11731 H 1085.82 0.42928 0.619867 0
M  V30 11732 H 1088.47 1.5338 1.00731 0
M  V30 11733 H 1086.85 1.57377 3.63385 0
M  V30 11734 H 1088.02 4.0481 2.20149 0
M  V30 11735 H 1086.34 3.57983 2.12691 0
M  V30 11736 H 1088.94 2.53858 4.70596 0
M  V30 11737 H 1089.28 0.955956 4.05175 0
M  V30 11738 H 1089.81 2.40648 3.16755 0
M  V30 11739 H 1086.55 5.3346 3.8092 0
M  V30 11740 H 1086.07 3.8258 4.61944 0
M  V30 11741 H 1087.75 4.40878 4.73535 0
M  V30 11742 N 1087.88 -1.11734 1.11145 0
M  V30 11743 C 1089.11 -1.87215 0.880811 0
M  V30 11744 C 1089.52 -1.80016 -0.569195 0
M  V30 11745 O 1088.88 -1.17926 -1.39283 0
M  V30 11746 C 1088.93 -3.36146 1.32998 0
M  V30 11747 O 1088.65 -3.43187 2.72313 0
M  V30 11748 C 1090.15 -4.28542 1.1343 0
M  V30 11749 H 1087.37 -0.592123 0.315645 0
M  V30 11750 H 1089.92 -1.41335 1.478 0
M  V30 11751 H 1088.07 -3.79542 0.776308 0
M  V30 11752 H 1088.49 -4.359 2.91705 0
M  V30 11753 H 1089.96 -5.31295 1.49764 0
M  V30 11754 H 1090.44 -4.39138 0.0735859 0
M  V30 11755 H 1091.04 -3.90935 1.67481 0
M  V30 11756 N 1089.36 -0.901303 -1.29284 0
M  V30 11757 C 1090.31 -0.351562 -2.25273 0
M  V30 11758 C 1091.29 0.529276 -1.51946 0
M  V30 11759 O 1092.49 0.371031 -1.73068 0
M  V30 11760 C 1089.61 0.41843 -3.4074 0
M  V30 11761 C 1088.7 -0.47742 -4.21404 0
M  V30 11762 N 1089.09 -1.58537 -4.80312 0
M  V30 11763 C 1087.39 -0.275504 -4.45148 0
M  V30 11764 C 1088.09 -2.14041 -5.40889 0
M  V30 11765 N 1087.07 -1.43324 -5.24365 0
M  V30 11766 H 1090.87 -1.1979 -2.68379 0
M  V30 11767 H 1088.38 -0.752538 -1.43912 0
M  V30 11768 H 1090.38 0.829022 -4.08574 0
M  V30 11769 H 1089.04 1.26201 -2.99171 0
M  V30 11770 H 1090.05 -1.96809 -4.79047 0
M  V30 11771 H 1086.73 0.529581 -4.14128 0
M  V30 11772 H 1088.12 -3.07173 -5.97574 0
M  V30 11773 N 1090.84 1.42931 -0.663954 0
M  V30 11774 C 1092.07 2.05729 -0.189532 0
M  V30 11775 C 1092.48 1.49914 1.15423 0
M  V30 11776 O 1091.82 0.629324 1.72584 0
M  V30 11777 C 1091.88 3.59482 -0.0354748 0
M  V30 11778 C 1091.54 4.37935 -1.30622 0
M  V30 11779 C 1092.54 4.69297 -2.23733 0
M  V30 11780 C 1090.23 4.77761 -1.5508 0
M  V30 11781 C 1092.22 5.39407 -3.39586 0
M  V30 11782 C 1089.91 5.47613 -2.71224 0
M  V30 11783 C 1090.91 5.7836 -3.63302 0
M  V30 11784 O 1090.59 6.46783 -4.77417 0
M  V30 11785 H 1090.33 0.669678 -0.0922342 0
M  V30 11786 H 1092.88 1.84243 -0.907943 0
M  V30 11787 H 1091.11 3.79584 0.738412 0
M  V30 11788 H 1092.8 4.03947 0.397679 0
M  V30 11789 H 1093.56 4.39038 -2.06084 0
M  V30 11790 H 1089.44 4.53229 -0.842863 0
M  V30 11791 H 1092.99 5.63323 -4.11476 0
M  V30 11792 H 1088.88 5.77289 -2.88804 0
M  V30 11793 H 1089.65 6.6527 -4.76821 0
M  V30 11794 N 1092.32 0.406567 1.52266 0
M  V30 11795 C 1093.56 -0.171391 2.00971 0
M  V30 11796 C 1093.88 -1.46443 1.29668 0
M  V30 11797 O 1095.08 -2.12348 1.69176 0
M  V30 11798 C 1093.54 -0.35599 3.58135 0
M  V30 11799 C 1093.15 0.924803 4.38351 0
M  V30 11800 C 1094.89 -0.889378 4.15079 0
M  V30 11801 C 1092.8 0.707534 5.87152 0
M  V30 11802 H 1091.73 -0.0678253 0.750943 0
M  V30 11803 H 1094.38 0.531619 1.7563 0
M  V30 11804 H 1092.76 -1.12127 3.79794 0
M  V30 11805 H 1093.94 1.69603 4.28452 0
M  V30 11806 H 1092.25 1.38442 3.92712 0
M  V30 11807 H 1094.85 -1.06792 5.23927 0
M  V30 11808 H 1095.19 -1.86334 3.7227 0
M  V30 11809 H 1095.72 -0.183224 3.97378 0
M  V30 11810 H 1092.46 1.65299 6.34316 0
M  V30 11811 H 1091.98 -0.024446 5.99795 0
M  V30 11812 H 1093.66 0.348721 6.4606 0
M  V30 11813 N 1093.79 -1.57004 0.136909 0
M  V30 11814 C 1095.21 -1.58082 -0.21958 0
M  V30 11815 C 1095.41 -1.15065 -1.65415 0
M  V30 11816 O 1094.47 -0.846284 -2.37896 0
M  V30 11817 C 1095.78 -3.00685 0.0300112 0
M  V30 11818 C 1097.33 -3.12981 -0.0344899 0
M  V30 11819 C 1097.8 -4.57615 0.187639 0
M  V30 11820 N 1099.29 -4.63005 0.134219 0
M  V30 11821 C 1100.03 -5.72712 0.280743 0
M  V30 11822 N 1099.52 -6.91104 0.48443 0
M  V30 11823 N 1101.32 -5.61673 0.219055 0
M  V30 11824 H 1093.47 -1.83262 1.07372 0
M  V30 11825 H 1095.73 -0.847776 0.424241 0
M  V30 11826 H 1095.44 -3.36509 1.02247 0
M  V30 11827 H 1095.31 -3.70762 -0.693918 0
M  V30 11828 H 1097.7 -2.77004 -1.01749 0
M  V30 11829 H 1097.78 -2.45411 0.721608 0
M  V30 11830 H 1097.42 -4.94295 1.16769 0
M  V30 11831 H 1097.35 -5.23299 -0.588661 0
M  V30 11832 H 1099.84 -3.77895 -0.0189681 0
M  V30 11833 H 1100.16 -7.7057 0.586613 0
M  V30 11834 H 1098.5 -6.93047 0.520627 0
M  V30 11835 H 1101.69 -4.68061 0.0607606 0
M  V30 11836 H 1101.87 -6.47125 0.336683 0
M  V30 11837 N 1095.27 0.136881 -1.57004 0
M  V30 11838 C 1096.52 0.8461 -1.83536 0
M  V30 11839 C 1096.84 1.81246 -0.71937 0
M  V30 11840 O 1096.11 1.94191 0.258161 0
M  V30 11841 H 1094.69 0.315446 -0.677128 0
M  V30 11842 H 1097.35 0.128469 -1.94476 0
M  V30 11843 H 1096.45 1.40221 -2.78827 0
M  V30 11844 N 1096.75 1.52266 0.40654 0
M  V30 11845 C 1098 1.66123 1.15097 0
M  V30 11846 C 1098.32 0.394836 1.90961 0
M  V30 11847 O 1097.59 -0.590349 1.86793 0
M  V30 11848 H 1096.17 0.612317 0.427875 0
M  V30 11849 H 1098.83 1.89318 0.463106 0
M  V30 11850 H 1097.93 2.50351 1.86361 0
M  V30 11851 N 1098.23 -0.663929 1.42933 0
M  V30 11852 C 1099.14 -1.80643 1.49683 0
M  V30 11853 C 1100.15 -1.69694 0.38472 0
M  V30 11854 O 1101.33 -1.91052 0.637256 0
M  V30 11855 C 1098.4 -3.16858 1.4072 0
M  V30 11856 C 1097.46 -3.39684 2.62514 0
M  V30 11857 C 1096.69 -4.69399 2.53969 0
M  V30 11858 O 1096.91 -5.48037 1.58152 0
M  V30 11859 O 1095.85 -4.93709 3.44289 0
M  V30 11860 H 1099.67 -1.77903 2.46138 0
M  V30 11861 H 1097.26 -0.821059 1.24816 0
M  V30 11862 H 1099.14 -3.9812 1.38124 0
M  V30 11863 H 1097.81 -3.20211 0.473954 0
M  V30 11864 H 1096.72 -2.58227 2.70684 0
M  V30 11865 H 1098.05 -3.41169 3.54774 0
M  V30 11866 N 1099.71 -1.29285 -0.901281 0
M  V30 11867 C 1100.67 -1.14283 -1.98676 0
M  V30 11868 C 1101.67 -0.0787641 -1.60607 0
M  V30 11869 O 1102.86 -0.325574 -1.71131 0
M  V30 11870 C 1099.99 -0.747279 -3.32609 0
M  V30 11871 H 1101.18 -2.10701 -2.13413 0
M  V30 11872 H 1098.74 -1.12449 -1.08558 0
M  V30 11873 H 1099.47 0.217111 -3.23572 0
M  V30 11874 H 1099.26 -1.51608 -3.61604 0
M  V30 11875 H 1100.75 -0.665322 -4.12266 0
M  V30 11876 N 1101.18 1.11143 -1.11736 0
M  V30 11877 C 1102.12 2.1705 -0.736325 0
M  V30 11878 C 1103.13 1.61116 0.233528 0
M  V30 11879 O 1104.32 1.78493 0.0159602 0
M  V30 11880 C 1101.42 3.38832 -0.067974 0
M  V30 11881 C 1100.59 4.24226 -1.06543 0
M  V30 11882 C 1099.65 5.24472 -0.426063 0
M  V30 11883 O 1098.68 5.58843 -1.0809 0
M  V30 11884 N 1099.88 5.74825 0.809711 0
M  V30 11885 H 1102.64 2.50349 -1.64758 0
M  V30 11886 H 1100.2 1.26693 -1.00799 0
M  V30 11887 H 1102.2 4.02991 0.371563 0
M  V30 11888 H 1100.77 3.0357 0.745917 0
M  V30 11889 H 1099.99 3.56475 -1.68283 0
M  V30 11890 H 1101.27 4.78117 -1.74016 0
M  V30 11891 H 1100.67 5.49088 1.36084 0
M  V30 11892 H 1099.23 6.40804 1.19218 0
M  V30 11893 N 1102.66 0.908147 1.28804 0
M  V30 11894 C 1103.63 0.397058 2.25735 0
M  V30 11895 C 1104.63 -0.473483 1.53671 0
M  V30 11896 O 1105.82 -0.277335 1.71978 0
M  V30 11897 C 1102.95 -0.431392 3.38159 0
M  V30 11898 H 1104.14 1.25323 2.72459 0
M  V30 11899 H 1101.69 0.687041 1.4039 0
M  V30 11900 H 1102.43 -1.3072 2.96787 0
M  V30 11901 H 1102.21 0.192502 3.91627 0
M  V30 11902 H 1103.7 -0.78 4.10251 0
M  V30 11903 N 1104.14 -1.42577 0.671525 0
M  V30 11904 C 1105.39 -2.01185 0.192051 0
M  V30 11905 C 1105.71 -1.53349 -1.20454 0
M  V30 11906 O 1104.98 -0.753781 -1.80817 0
M  V30 11907 H 1103.56 -0.743898 0.0680106 0
M  V30 11908 H 1106.22 -1.74539 0.8673 0
M  V30 11909 H 1105.32 -3.11516 0.190796 0
M  V30 11910 N 1105.62 -0.414636 -1.52048 0
M  V30 11911 C 1106.57 0.408141 -2.27163 0
M  V30 11912 C 1107.54 1.03636 -1.29803 0
M  V30 11913 O 1108.72 1.05959 -1.58674 0
M  V30 11914 C 1105.86 1.51588 -3.10024 0
M  V30 11915 C 1104.97 0.908034 -4.22349 0
M  V30 11916 C 1104.11 1.98893 -4.9256 0
M  V30 11917 C 1103.15 1.35831 -5.96839 0
M  V30 11918 N 1102.28 2.37958 -6.60545 0
M  V30 11919 H 1107.12 -0.238822 -2.97041 0
M  V30 11920 H 1104.66 -0.129614 -1.46528 0
M  V30 11921 H 1106.62 2.16916 -3.56375 0
M  V30 11922 H 1105.25 2.13279 -2.42305 0
M  V30 11923 H 1104.3 0.143652 -3.80129 0
M  V30 11924 H 1105.61 0.407426 -4.97133 0
M  V30 11925 H 1104.77 2.71935 -5.42343 0
M  V30 11926 H 1103.51 2.5232 -4.17356 0
M  V30 11927 H 1102.51 0.613246 -5.46369 0
M  V30 11928 H 1103.74 0.831655 -6.73988 0
M  V30 11929 H 1101.68 2.90508 -5.88167 0
M  V30 11930 H 1101.6 1.92725 -7.31022 0
M  V30 11931 H 1102.87 3.10553 -7.14966 0
M  V30 11932 N 1107.1 1.56929 -0.145233 0
M  V30 11933 C 1108.03 2.19685 0.791263 0
M  V30 11934 C 1109.01 1.14455 1.25833 0
M  V30 11935 O 1110.19 1.42791 1.31622 0
M  V30 11936 C 1107.32 2.81705 2.03124 0
M  V30 11937 C 1106.28 3.92746 1.70101 0
M  V30 11938 C 1105.6 4.41694 3.01347 0
M  V30 11939 C 1106.9 5.13606 0.949025 0
M  V30 11940 H 1108.6 2.98196 0.26825 0
M  V30 11941 H 1106.14 1.43434 0.127584 0
M  V30 11942 H 1108.1 3.24273 2.69119 0
M  V30 11943 H 1106.82 2.00523 2.57795 0
M  V30 11944 H 1105.48 3.50794 1.06486 0
M  V30 11945 H 1105.13 3.57336 3.54006 0
M  V30 11946 H 1104.83 5.1659 2.80016 0
M  V30 11947 H 1106.35 4.86931 3.68416 0
M  V30 11948 H 1107.76 5.53029 1.51102 0
M  V30 11949 H 1106.16 5.94252 0.835711 0
M  V30 11950 H 1107.23 4.84863 -0.0595631 0
M  V30 11951 N 1108.58 -0.128553 1.57075 0
M  V30 11952 C 1109.82 -0.83801 1.84347 0
M  V30 11953 C 1110.15 -1.80325 0.728906 0
M  V30 11954 O 1109.41 -1.93678 -0.280571 0
M  V30 11955 C 1109.7 -1.63027 3.18052 0
M  V30 11956 C 1109.37 -0.810171 4.43562 0
M  V30 11957 C 1108.03 -0.583984 4.77643 0
M  V30 11958 C 1110.38 -0.237896 5.20657 0
M  V30 11959 C 1107.71 0.224887 5.86269 0
M  V30 11960 C 1110.06 0.558114 6.30133 0
M  V30 11961 C 1108.73 0.794706 6.62752 0
M  V30 11962 H 1108 -0.30665 0.674572 0
M  V30 11963 H 1110.65 -0.100797 1.91235 0
M  V30 11964 H 1108.95 -2.43812 3.06697 0
M  V30 11965 H 1110.65 -2.183 3.36372 0
M  V30 11966 H 1107.24 -0.996547 4.16854 0
M  V30 11967 H 1111.42 -0.399881 4.94686 0
M  V30 11968 H 1106.68 0.417507 6.09973 0
M  V30 11969 H 1110.85 1.00859 6.89058 0
M  V30 11970 H 1108.48 1.42331 7.46757 0
M  V30 11971 N 1110.05 -1.5248 -0.398459 0
M  V30 11972 C 1111.29 -1.68744 -1.15346 0
M  V30 11973 C 1111.66 -0.413739 -1.87489 0
M  V30 11974 O 1112.86 -0.452624 -2.64962 0
M  V30 11975 C 1111.13 -2.8824 -2.11311 0
M  V30 11976 S 1112.69 -3.25043 -2.94775 0
M  V30 11977 H 1109.51 -0.594099 -0.390598 0
M  V30 11978 H 1112.11 -1.90502 -0.439228 0
M  V30 11979 H 1110.81 -3.79175 -1.57017 0
M  V30 11980 H 1110.34 -2.68787 -2.87258 0
M  V30 11981 H 1112.36 -2.74495 -4.13361 0
M  V30 11982 N 1111.53 0.65634 -1.43283 0
M  V30 11983 C 1112.81 1.41339 -1.35213 0
M  V30 11984 C 1113.19 2.111 0.00158494 0
M  V30 11985 O 1112.54 2.0457 1.018 0
M  V30 11986 C 1112.75 2.40066 -2.53317 0
M  V30 11987 C 1114.09 3.04159 -2.96264 0
M  V30 11988 O 1115.12 2.50393 -2.53341 0
M  V30 11989 O 1113.98 4.01633 -3.70612 0
M  V30 11990 H 1111.07 0.631325 -0.534189 0
M  V30 11991 H 1113.62 0.68351 -1.55326 0
M  V30 11992 H 1112.39 1.87444 -3.43483 0
M  V30 11993 H 1112.01 3.20509 -2.35287 0
M  V30 11994 N 1113.01 1.29761 0.894412 0
M  V30 11995 C 1114.26 1.17409 1.64006 0
M  V30 11996 C 1114.57 -0.272355 1.93695 0
M  V30 11997 O 1115.78 -0.517269 2.66527 0
M  V30 11998 C 1114.23 2.05379 2.95546 0
M  V30 11999 C 1113.84 3.54878 2.73433 0
M  V30 12000 C 1115.59 2.01765 3.73485 0
M  V30 12001 C 1113.49 4.34935 4.00731 0
M  V30 12002 H 1112.42 0.43583 0.615279 0
M  V30 12003 H 1115.07 1.5444 0.990983 0
M  V30 12004 H 1113.46 1.61222 3.61695 0
M  V30 12005 H 1114.63 4.07122 2.15844 0
M  V30 12006 H 1112.94 3.60218 2.08882 0
M  V30 12007 H 1115.54 2.58835 4.67877 0
M  V30 12008 H 1115.88 0.998876 4.04139 0
M  V30 12009 H 1116.42 2.43994 3.14184 0
M  V30 12010 H 1113.16 5.3747 3.75241 0
M  V30 12011 H 1112.68 3.87458 4.5786 0
M  V30 12012 H 1114.36 4.45875 4.68833 0
M  V30 12013 N 1114.49 -1.10549 1.12324 0
M  V30 12014 C 1115.45 -2.15039 0.793156 0
M  V30 12015 C 1116.45 -1.59651 -0.19192 0
M  V30 12016 O 1117.64 -1.74167 0.0337262 0
M  V30 12017 C 1114.77 -3.40433 0.17842 0
M  V30 12018 H 1115.97 -2.4575 1.71892 0
M  V30 12019 H 1113.52 -1.25892 0.926333 0
M  V30 12020 H 1114.25 -3.15338 -0.757122 0
M  V30 12021 H 1114.04 -3.81921 0.887645 0
M  V30 12022 H 1115.53 -4.17584 -0.0360724 0
M  V30 12023 N 1115.97 -0.914965 -1.28321 0
M  V30 12024 C 1117.21 -0.547665 -1.94538 0
M  V30 12025 C 1117.53 0.911834 -1.72368 0
M  V30 12026 O 1116.8 1.64481 -1.06408 0
M  V30 12027 H 1115.38 -0.199549 -0.719853 0
M  V30 12028 H 1118.05 -1.16459 -1.5628 0
M  V30 12029 H 1117.14 -0.743138 -3.03124 0
M  V30 12030 N 1117.44 1.42219 -0.679077 0
M  V30 12031 C 1118.38 2.28152 0.0468359 0
M  V30 12032 C 1119.35 1.41307 0.804433 0
M  V30 12033 O 1120.54 1.70744 0.798673 0
M  V30 12034 C 1117.67 3.21236 1.07355 0
M  V30 12035 C 1116.71 4.24515 0.411042 0
M  V30 12036 S 1117.54 5.28958 -0.834506 0
M  V30 12037 C 1118.7 6.25608 0.191029 0
M  V30 12038 H 1118.93 2.89371 -0.682045 0
M  V30 12039 H 1116.47 1.47112 -0.468767 0
M  V30 12040 H 1118.42 3.75402 1.66082 0
M  V30 12041 H 1117.09 2.59145 1.7749 0
M  V30 12042 H 1116.28 4.89849 1.1859 0
M  V30 12043 H 1115.88 3.73859 -0.102742 0
M  V30 12044 H 1118.17 6.69323 1.04944 0
M  V30 12045 H 1119.12 7.06806 -0.427959 0
M  V30 12046 H 1119.52 5.61926 0.538422 0
M  V30 12047 N 1118.92 0.422693 1.51826 0
M  V30 12048 C 1119.85 -0.386913 2.30272 0
M  V30 12049 C 1120.83 -1.03411 1.35056 0
M  V30 12050 O 1122.02 -1.04055 1.6397 0
M  V30 12051 C 1119.15 -1.49645 3.13407 0
M  V30 12052 C 1118.1 -0.973532 4.16781 0
M  V30 12053 C 1117.43 -2.1777 4.88344 0
M  V30 12054 C 1118.73 -0.0181194 5.22297 0
M  V30 12055 H 1120.42 0.267697 2.98201 0
M  V30 12056 H 1117.97 0.130186 1.4341 0
M  V30 12057 H 1119.92 -2.06993 3.67059 0
M  V30 12058 H 1118.64 -2.17914 2.43272 0
M  V30 12059 H 1117.3 -0.42237 3.64159 0
M  V30 12060 H 1116.95 -2.84625 4.14726 0
M  V30 12061 H 1116.65 -1.83427 5.58237 0
M  V30 12062 H 1118.18 -2.75699 5.44814 0
M  V30 12063 H 1119.59 -0.500822 5.71108 0
M  V30 12064 H 1117.99 0.237163 5.99631 0
M  V30 12065 H 1119.06 0.923065 4.76033 0
M  V30 12066 N 1120.4 -1.5685 0.153553 0
M  V30 12067 C 1121.33 -2.20101 -0.779601 0
M  V30 12068 C 1122.31 -1.15121 -1.25225 0
M  V30 12069 O 1123.5 -1.43487 -1.30862 0
M  V30 12070 C 1120.63 -2.82778 -2.01628 0
M  V30 12071 C 1119.58 -3.93643 -1.68015 0
M  V30 12072 C 1118.91 -4.43286 -2.99001 0
M  V30 12073 C 1120.21 -5.14102 -0.921774 0
M  V30 12074 H 1121.9 -2.98334 -0.252432 0
M  V30 12075 H 1119.45 -1.43499 -0.119975 0
M  V30 12076 H 1121.4 -3.25696 -2.67395 0
M  V30 12077 H 1120.12 -2.01887 -2.56728 0
M  V30 12078 H 1118.78 -3.51354 -1.04624 0
M  V30 12079 H 1118.43 -3.59208 -3.52106 0
M  V30 12080 H 1118.13 -5.18068 -2.77272 0
M  V30 12081 H 1119.65 -4.88878 -3.65828 0
M  V30 12082 H 1121.07 -5.53823 -1.48167 0
M  V30 12083 H 1119.46 -5.94687 -0.804185 0
M  V30 12084 H 1120.53 -4.84825 0.0852757 0
M  V30 12085 N 1121.88 0.120221 -1.57141 0
M  V30 12086 C 1122.82 1.14751 -2.00252 0
M  V30 12087 C 1123.79 1.41217 -0.874462 0
M  V30 12088 O 1124.98 1.53104 -1.13859 0
M  V30 12089 C 1122.12 2.46923 -2.41087 0
M  V30 12090 C 1121.23 2.27403 -3.67303 0
M  V30 12091 C 1120.37 3.52797 -3.97125 0
M  V30 12092 C 1119.41 3.28429 -5.16528 0
M  V30 12093 N 1118.54 4.46022 -5.42226 0
M  V30 12094 H 1123.38 0.772884 -2.87803 0
M  V30 12095 H 1120.92 0.370137 -1.42367 0
M  V30 12096 H 1122.88 3.24025 -2.62799 0
M  V30 12097 H 1121.51 2.82281 -1.5658 0
M  V30 12098 H 1120.56 1.41224 -3.53214 0
M  V30 12099 H 1121.87 2.05373 -4.54558 0
M  V30 12100 H 1121.03 4.38318 -4.19479 0
M  V30 12101 H 1119.77 3.77857 -3.08343 0
M  V30 12102 H 1118.77 2.41299 -4.94019 0
M  V30 12103 H 1120 3.0474 -6.06886 0
M  V30 12104 H 1117.94 4.71205 -4.56401 0
M  V30 12105 H 1117.86 4.27092 -6.23802 0
M  V30 12106 H 1119.13 5.3268 -5.69098 0
M  V30 12107 N 1123.36 1.52689 0.390367 0
M  V30 12108 C 1124.58 1.71839 1.16129 0
M  V30 12109 C 1125.01 0.435226 1.82996 0
M  V30 12110 O 1124.36 -0.60889 1.70769 0
M  V30 12111 C 1124.41 2.86784 2.18603 0
M  V30 12112 O 1123.52 2.53662 3.25161 0
M  V30 12113 H 1122.86 0.571455 0.338135 0
M  V30 12114 H 1125.39 1.99475 0.45508 0
M  V30 12115 H 1125.4 3.12239 2.62622 0
M  V30 12116 H 1124.07 3.79872 1.69322 0
M  V30 12117 H 1122.65 2.38942 2.86289 0
M  V30 12118 N 1124.83 -0.648732 1.43629 0
M  V30 12119 C 1126.06 -1.4362 1.48932 0
M  V30 12120 C 1126.48 -1.88487 0.108599 0
M  V30 12121 O 1125.83 -1.59768 -0.882066 0
M  V30 12122 C 1125.89 -2.66822 2.43903 0
M  V30 12123 O 1125.61 -2.2383 3.76606 0
M  V30 12124 C 1127.11 -3.60134 2.58493 0
M  V30 12125 H 1124.33 -0.441055 0.505679 0
M  V30 12126 H 1126.87 -0.794936 1.88417 0
M  V30 12127 H 1125.03 -3.27079 2.07601 0
M  V30 12128 H 1125.44 -3.03575 4.27718 0
M  V30 12129 H 1126.91 -4.43234 3.29011 0
M  V30 12130 H 1127.39 -4.07779 1.63134 0
M  V30 12131 H 1128 -3.05756 2.95624 0
M  V30 12132 N 1126.31 -1.30234 -0.887518 0
M  V30 12133 C 1127.56 -1.18675 -1.63587 0
M  V30 12134 C 1127.88 0.259342 -1.93268 0
M  V30 12135 O 1127.15 1.17523 -1.56733 0
M  V30 12136 H 1125.73 -0.436224 -0.606397 0
M  V30 12137 H 1128.39 -1.63326 -1.06351 0
M  V30 12138 H 1127.49 -1.74575 -2.58708 0
M  V30 12139 N 1127.79 1.09952 -1.12909 0
M  V30 12140 C 1129.02 1.8633 -0.910821 0
M  V30 12141 C 1129.44 1.80335 0.534874 0
M  V30 12142 O 1128.8 1.1769 1.37908 0
M  V30 12143 C 1128.85 3.32462 -1.39648 0
M  V30 12144 O 1127.95 4.08327 -0.578192 0
M  V30 12145 H 1127.29 0.577984 -0.32685 0
M  V30 12146 H 1129.82 1.38883 -1.50242 0
M  V30 12147 H 1129.83 3.83311 -1.39774 0
M  V30 12148 H 1128.51 3.36141 -2.44913 0
M  V30 12149 H 1127.08 3.67291 -0.644347 0
M  V30 12150 N 1129.27 0.921757 1.27833 0
M  V30 12151 C 1130.52 0.559078 1.94629 0
M  V30 12152 C 1130.84 -0.898641 1.72495 0
M  V30 12153 O 1130.1 -1.65546 1.0437 0
M  V30 12154 C 1130.4 0.824259 3.47765 0
M  V30 12155 C 1130.06 2.26278 3.90011 0
M  V30 12156 C 1128.73 2.65607 4.01256 0
M  V30 12157 C 1131.08 3.19853 4.11513 0
M  V30 12158 C 1128.41 3.97646 4.31387 0
M  V30 12159 C 1130.76 4.51467 4.43126 0
M  V30 12160 C 1129.42 4.90637 4.52583 0
M  V30 12161 H 1128.69 0.204581 0.712199 0
M  V30 12162 H 1131.34 1.1646 1.52018 0
M  V30 12163 H 1129.64 0.136011 3.91564 0
M  V30 12164 H 1131.34 0.522701 3.97579 0
M  V30 12165 H 1127.93 1.94765 3.81791 0
M  V30 12166 H 1132.11 2.90674 4.02271 0
M  V30 12167 H 1127.37 4.27685 4.36916 0
M  V30 12168 H 1131.54 5.23982 4.58711 0
M  V30 12169 H 1129.17 5.92982 4.75685 0
M  V30 12170 N 1130.75 -1.41857 0.686609 0
M  V30 12171 C 1131.68 -2.33481 0.0298353 0
M  V30 12172 C 1132.66 -1.51329 -0.776756 0
M  V30 12173 O 1133.84 -1.79895 -0.731535 0
M  V30 12174 C 1130.97 -3.35065 -0.913707 0
M  V30 12175 C 1129.93 -4.2746 -0.214861 0
M  V30 12176 C 1129.25 -5.19346 -1.27215 0
M  V30 12177 C 1130.55 -5.14252 0.913367 0
M  V30 12178 H 1132.25 -2.8865 0.795067 0
M  V30 12179 H 1129.79 -1.38792 0.383785 0
M  V30 12180 H 1131.75 -3.98082 -1.38234 0
M  V30 12181 H 1130.47 -2.78226 -1.7105 0
M  V30 12182 H 1129.13 -3.65855 0.233651 0
M  V30 12183 H 1128.78 -4.58827 -2.06124 0
M  V30 12184 H 1128.48 -5.81996 -0.80961 0
M  V30 12185 H 1130 -5.85239 -1.74147 0
M  V30 12186 H 1131.41 -5.70887 0.525424 0
M  V30 12187 H 1129.81 -5.85796 1.30244 0
M  V30 12188 H 1130.88 -4.51949 1.75699 0
M  V30 12189 N 1132.22 -0.430739 -1.51599 0
M  V30 12190 C 1133.13 0.390347 -2.3133 0
M  V30 12191 C 1134.15 1.03376 -1.39962 0
M  V30 12192 O 1135.33 1.03057 -1.73035 0
M  V30 12193 C 1132.39 1.48039 -3.13505 0
M  V30 12194 C 1131.45 0.857792 -4.20643 0
M  V30 12195 C 1130.69 1.89589 -4.9889 0
M  V30 12196 O 1130.91 3.11717 -4.77691 0
M  V30 12197 O 1129.84 1.49009 -5.83164 0
M  V30 12198 H 1133.67 -0.260358 -3.02582 0
M  V30 12199 H 1131.25 -0.193428 -1.48143 0
M  V30 12200 H 1133.14 2.11272 -3.64612 0
M  V30 12201 H 1131.81 2.1153 -2.45024 0
M  V30 12202 H 1130.72 0.187592 -3.73629 0
M  V30 12203 H 1132.05 0.266474 -4.91478 0
M  V30 12204 N 1133.7 1.56767 -0.161869 0
M  V30 12205 C 1134.95 1.96594 0.485496 0
M  V30 12206 C 1135.28 1.04743 1.63887 0
M  V30 12207 O 1134.53 0.079602 1.95538 0
M  V30 12208 C 1134.83 3.42567 1.01894 0
M  V30 12209 C 1134.5 4.50897 -0.0175419 0
M  V30 12210 C 1133.16 4.80249 -0.302429 0
M  V30 12211 C 1135.51 5.16181 -0.721572 0
M  V30 12212 C 1132.84 5.72187 -1.2969 0
M  V30 12213 C 1135.19 6.09191 -1.70496 0
M  V30 12214 C 1133.86 6.36915 -1.99739 0
M  V30 12215 H 1133.13 0.719388 0.177656 0
M  V30 12216 H 1135.77 1.89837 -0.251839 0
M  V30 12217 H 1134.08 3.4623 1.83391 0
M  V30 12218 H 1135.77 3.70719 1.52867 0
M  V30 12219 H 1132.36 4.28062 0.21468 0
M  V30 12220 H 1136.55 4.93624 -0.514681 0
M  V30 12221 H 1131.8 5.91953 -1.52974 0
M  V30 12222 H 1135.98 6.58849 -2.25591 0
M  V30 12223 H 1133.61 7.07958 -2.76948 0
M  V30 12224 N 1135.18 -0.111886 1.57202 0
M  V30 12225 C 1136.43 -0.816794 1.84859 0
M  V30 12226 C 1136.75 -1.80079 0.748113 0
M  V30 12227 O 1136.02 -1.94578 -0.227235 0
M  V30 12228 H 1134.6 -0.304633 0.682061 0
M  V30 12229 H 1137.26 -0.097513 1.94656 0
M  V30 12230 H 1136.36 -1.35768 2.81022 0
M  V30 12231 N 1136.66 -1.52894 -0.382264 0
M  V30 12232 C 1137.59 -1.81122 -1.47367 0
M  V30 12233 C 1138.57 -0.663653 -1.56619 0
M  V30 12234 O 1139.75 -0.911898 -1.71459 0
M  V30 12235 C 1136.88 -1.98615 -2.84902 0
M  V30 12236 C 1135.84 -3.14328 -2.90485 0
M  V30 12237 C 1135.16 -3.17086 -4.30535 0
M  V30 12238 C 1136.46 -4.53263 -2.59519 0
M  V30 12239 H 1138.16 -2.72518 -1.23993 0
M  V30 12240 H 1135.7 -1.3113 -0.595049 0
M  V30 12241 H 1137.66 -2.16946 -3.61265 0
M  V30 12242 H 1136.38 -1.03915 -3.09628 0
M  V30 12243 H 1135.04 -2.95791 -2.16572 0
M  V30 12244 H 1134.69 -2.20055 -4.52311 0
M  V30 12245 H 1134.39 -3.94821 -4.3519 0
M  V30 12246 H 1135.91 -3.3758 -5.08795 0
M  V30 12247 H 1137.33 -4.71867 -3.25598 0
M  V30 12248 H 1135.72 -5.33115 -2.75514 0
M  V30 12249 H 1136.79 -4.59516 -1.54831 0
M  V30 12250 N 1138.14 0.641106 -1.43971 0
M  V30 12251 C 1139.07 1.76645 -1.46046 0
M  V30 12252 C 1140.08 1.58881 -0.355049 0
M  V30 12253 O 1141.27 1.67379 -0.620207 0
M  V30 12254 C 1138.37 3.14237 -1.26918 0
M  V30 12255 C 1137.54 3.5855 -2.50521 0
M  V30 12256 C 1136.6 4.74986 -2.26438 0
M  V30 12257 O 1135.63 4.83807 -2.99866 0
M  V30 12258 N 1136.83 5.66016 -1.28866 0
M  V30 12259 H 1139.6 1.75339 -2.43056 0
M  V30 12260 H 1137.16 0.82535 -1.39282 0
M  V30 12261 H 1139.15 3.89837 -1.0867 0
M  V30 12262 H 1137.72 3.10244 -0.383082 0
M  V30 12263 H 1136.94 2.73265 -2.84112 0
M  V30 12264 H 1138.23 3.84906 -3.32754 0
M  V30 12265 H 1137.63 5.61574 -0.682018 0
M  V30 12266 H 1136.18 6.41286 -1.16599 0
M  V30 12267 N 1139.62 1.30703 0.880598 0
M  V30 12268 C 1140.53 1.19389 2.01949 0
M  V30 12269 C 1141.54 0.112868 1.73634 0
M  V30 12270 O 1142.72 0.328643 1.98701 0
M  V30 12271 C 1139.78 0.891004 3.35055 0
M  V30 12272 C 1138.84 2.05784 3.76764 0
M  V30 12273 C 1138.08 1.76931 5.03519 0
M  V30 12274 O 1138.3 0.699326 5.66097 0
M  V30 12275 O 1137.23 2.623 5.4174 0
M  V30 12276 H 1141.06 2.15073 2.14423 0
M  V30 12277 H 1138.64 1.10339 1.00726 0
M  V30 12278 H 1140.53 0.737476 4.14897 0
M  V30 12279 H 1139.2 -0.0358909 3.2368 0
M  V30 12280 H 1138.11 2.26672 2.97608 0
M  V30 12281 H 1139.44 2.96661 3.9275 0
M  V30 12282 N 1141.09 -1.09351 1.1349 0
M  V30 12283 C 1142.32 -1.85844 0.92069 0
M  V30 12284 C 1142.74 -1.80616 -0.525303 0
M  V30 12285 O 1142.1 -1.1842 -1.37282 0
M  V30 12286 C 1142.15 -3.31716 1.4141 0
M  V30 12287 O 1141.25 -4.08014 0.599838 0
M  V30 12288 H 1140.59 -0.576242 0.32991 0
M  V30 12289 H 1143.12 -1.38084 1.50976 0
M  V30 12290 H 1143.13 -3.82564 1.41805 0
M  V30 12291 H 1141.81 -3.34837 2.46692 0
M  V30 12292 H 1140.39 -3.66944 0.663816 0
M  V30 12293 N 1142.57 -0.928524 -1.27343 0
M  V30 12294 C 1143.81 -0.576696 -1.96096 0
M  V30 12295 C 1144.18 0.866074 -1.71357 0
M  V30 12296 O 1145.38 1.32621 -2.33805 0
M  V30 12297 C 1143.65 -0.894692 -3.4602 0
M  V30 12298 S 1145.21 -0.651503 -4.33936 0
M  V30 12299 H 1142.02 -0.212847 -0.678393 0
M  V30 12300 H 1144.63 -1.19714 -1.5456 0
M  V30 12301 H 1143.33 -1.94239 -3.61524 0
M  V30 12302 H 1142.86 -0.263478 -3.92517 0
M  V30 12303 H 1144.88 0.490314 -4.93772 0
M  V30 12304 N 1144.05 1.41491 -0.694123 0
M  V30 12305 C 1145.01 2.2917 -0.0368562 0
M  V30 12306 C 1146.01 1.44305 0.709426 0
M  V30 12307 O 1147.2 1.6547 0.544533 0
M  V30 12308 C 1144.33 3.27156 0.958201 0
M  V30 12309 H 1145.53 2.88787 -0.808829 0
M  V30 12310 H 1143.08 1.49453 -0.457538 0
M  V30 12311 H 1143.82 2.72516 1.75799 0
M  V30 12312 H 1143.6 3.89776 0.426227 0
M  V30 12313 H 1145.09 3.92863 1.41592 0
M  V30 12314 N 1145.53 0.438773 1.51369 0
M  V30 12315 C 1146.44 -0.378074 2.31534 0
M  V30 12316 C 1147.45 -1.02632 1.40508 0
M  V30 12317 O 1148.63 -1.02138 1.73579 0
M  V30 12318 C 1145.69 -1.46374 3.14286 0
M  V30 12319 C 1144.76 -0.835473 4.21092 0
M  V30 12320 C 1143.99 -1.86941 4.99889 0
M  V30 12321 O 1144.21 -3.0918 4.79337 0
M  V30 12322 O 1143.15 -1.45914 5.83946 0
M  V30 12323 H 1146.97 0.276401 3.0244 0
M  V30 12324 H 1144.56 0.201281 1.48038 0
M  V30 12325 H 1146.44 -2.09335 3.65728 0
M  V30 12326 H 1145.11 -2.10227 2.46143 0
M  V30 12327 H 1144.02 -0.167775 3.73724 0
M  V30 12328 H 1145.35 -0.240406 4.91613 0
M  V30 12329 N 1147.01 -1.56678 0.170181 0
M  V30 12330 C 1148.25 -1.96849 -0.475064 0
M  V30 12331 C 1148.58 -1.05611 -1.6333 0
M  V30 12332 O 1147.84 -0.0899708 -1.95493 0
M  V30 12333 C 1148.13 -3.43103 -1.00076 0
M  V30 12334 C 1147.8 -4.50881 0.0414538 0
M  V30 12335 C 1146.46 -4.80082 0.327894 0
M  V30 12336 C 1148.81 -5.15791 0.748936 0
M  V30 12337 C 1146.14 -5.71491 1.32722 0
M  V30 12338 C 1148.49 -6.08278 1.73724 0
M  V30 12339 C 1147.16 -6.35847 2.03114 0
M  V30 12340 H 1146.43 -0.72032 -0.173838 0
M  V30 12341 H 1149.08 -1.89701 0.261903 0
M  V30 12342 H 1147.38 -3.47197 -1.81553 0
M  V30 12343 H 1149.08 -3.71525 -1.50899 0
M  V30 12344 H 1145.67 -4.2817 -0.191976 0
M  V30 12345 H 1149.85 -4.93344 0.540852 0
M  V30 12346 H 1145.11 -5.91134 1.56112 0
M  V30 12347 H 1149.28 -6.57643 2.29082 0
M  V30 12348 H 1146.91 -7.06479 2.80698 0
M  V30 12349 N 1148.48 0.103547 -1.57259 0
M  V30 12350 C 1149.73 0.804704 -1.86805 0
M  V30 12351 C 1150.08 1.76756 -0.759942 0
M  V30 12352 O 1149.38 1.90106 0.238789 0
M  V30 12353 C 1149.57 1.57946 -3.20605 0
M  V30 12354 C 1149.4 0.693136 -4.44326 0
M  V30 12355 C 1148.17 0.342079 -5.04141 0
M  V30 12356 C 1150.37 0.00385713 -5.143 0
M  V30 12357 N 1148.35 -0.553293 -6.11402 0
M  V30 12358 C 1149.72 -0.74991 -6.15448 0
M  V30 12359 C 1151.78 -0.0709485 -4.97849 0
M  V30 12360 C 1150.48 -1.57148 -7.01924 0
M  V30 12361 C 1152.51 -0.879391 -5.84825 0
M  V30 12362 C 1151.87 -1.6213 -6.85488 0
M  V30 12363 H 1147.97 0.270899 -0.733579 0
M  V30 12364 H 1150.55 0.0676446 -1.94582 0
M  V30 12365 H 1148.72 2.28745 -3.13895 0
M  V30 12366 H 1150.45 2.22715 -3.37905 0
M  V30 12367 H 1147.21 0.687831 -4.68579 0
M  V30 12368 H 1147.63 -0.993284 -6.69674 0
M  V30 12369 H 1152.27 0.488299 -4.19971 0
M  V30 12370 H 1149.99 -2.14182 -7.79199 0
M  V30 12371 H 1153.58 -0.939834 -5.74159 0
M  V30 12372 H 1152.46 -2.2368 -7.51623 0
M  V30 12373 N 1149.96 1.53094 0.37415 0
M  V30 12374 C 1151.19 1.72758 1.13852 0
M  V30 12375 C 1151.6 0.452638 1.83294 0
M  V30 12376 O 1150.96 -0.573906 1.73241 0
M  V30 12377 C 1151.01 2.88724 2.17534 0
M  V30 12378 O 1150.73 4.11284 1.5092 0
M  V30 12379 C 1152.23 3.2019 3.06584 0
M  V30 12380 H 1149.45 0.578028 0.340771 0
M  V30 12381 H 1152 1.99805 0.435683 0
M  V30 12382 H 1150.15 2.64096 2.83429 0
M  V30 12383 H 1150.57 4.76162 2.19932 0
M  V30 12384 H 1152.04 4.04759 3.75332 0
M  V30 12385 H 1152.52 2.35193 3.70919 0
M  V30 12386 H 1153.12 3.46712 2.46315 0
M  V30 12387 N 1151.44 -0.633461 1.44309 0
M  V30 12388 C 1152.66 -1.42527 1.50668 0
M  V30 12389 C 1153.09 -1.87637 0.131861 0
M  V30 12390 O 1152.45 -1.58595 -0.878477 0
M  V30 12391 C 1152.5 -2.62328 2.47419 0
M  V30 12392 O 1151.6 -3.62081 1.97411 0
M  V30 12393 H 1150.94 -0.426559 0.508864 0
M  V30 12394 H 1153.47 -0.773392 1.8942 0
M  V30 12395 H 1153.48 -3.09901 2.65378 0
M  V30 12396 H 1152.16 -2.2884 3.47283 0
M  V30 12397 H 1150.73 -3.21333 1.89208 0
M  V30 12398 N 1152.92 -1.31168 -0.873655 0
M  V30 12399 C 1153.88 -1.18471 -1.96207 0
M  V30 12400 C 1154.88 -0.112814 -1.60404 0
M  V30 12401 O 1156.07 -0.3618 -1.70401 0
M  V30 12402 C 1153.2 -0.817662 -3.30949 0
M  V30 12403 H 1154.4 -2.1518 -2.08896 0
M  V30 12404 H 1151.95 -1.14727 -1.06149 0
M  V30 12405 H 1152.68 0.148428 -3.2396 0
M  V30 12406 H 1152.47 -1.59244 -3.58307 0
M  V30 12407 H 1153.96 -0.75262 -4.10762 0
M  V30 12408 N 1154.4 1.08748 -1.14068 0
M  V30 12409 C 1155.67 1.7769 -0.81766 0
M  V30 12410 C 1156.05 1.99522 0.689501 0
M  V30 12411 O 1155.4 1.60222 1.62914 0
M  V30 12412 C 1155.61 3.09517 -1.61245 0
M  V30 12413 C 1156.96 3.84108 -1.80958 0
M  V30 12414 O 1157.98 3.19289 -1.57902 0
M  V30 12415 O 1156.84 5.00491 -2.19479 0
M  V30 12416 H 1153.94 0.770953 -0.299265 0
M  V30 12417 H 1156.48 1.15242 -1.24569 0
M  V30 12418 H 1155.25 2.89155 -2.63638 0
M  V30 12419 H 1154.88 3.79692 -1.17982 0
M  V30 12420 N 1155.87 0.935264 1.26849 0
M  V30 12421 C 1157.15 0.497797 1.8916 0
M  V30 12422 C 1157.53 -1.02441 1.84578 0
M  V30 12423 O 1156.88 -1.88185 1.29609 0
M  V30 12424 C 1157.09 1.05244 3.32753 0
M  V30 12425 C 1158.44 1.11751 4.0963 0
M  V30 12426 O 1159.46 1.0026 3.41799 0
M  V30 12427 O 1158.32 1.29548 5.30923 0
M  V30 12428 H 1155.41 0.161322 0.811113 0
M  V30 12429 H 1157.96 1.02744 1.35062 0
M  V30 12430 H 1156.73 2.09617 3.30419 0
M  V30 12431 H 1156.36 0.504889 3.94381 0
M  V30 12432 N 1157.35 -1.41121 0.701616 0
M  V30 12433 C 1158.58 -2.05973 0.242896 0
M  V30 12434 C 1159 -1.52474 -1.10151 0
M  V30 12435 O 1158.36 -0.654224 -1.69085 0
M  V30 12436 C 1158.41 -3.59943 0.217614 0
M  V30 12437 O 1157.51 -4.04454 -0.805629 0
M  V30 12438 H 1156.85 -0.653581 0.117166 0
M  V30 12439 H 1159.38 -1.80777 0.958175 0
M  V30 12440 H 1159.39 -4.07969 0.0505267 0
M  V30 12441 H 1158.07 -3.98249 1.19877 0
M  V30 12442 H 1156.65 -3.6792 -0.607404 0
M  V30 12443 N 1158.83 -0.446794 -1.51134 0
M  V30 12444 C 1160.06 0.117242 -2.07068 0
M  V30 12445 C 1160.48 1.34877 -1.3111 0
M  V30 12446 O 1159.84 1.77856 -0.35172 0
M  V30 12447 C 1159.89 0.408616 -3.58277 0
M  V30 12448 O 1158.99 1.49345 -3.84408 0
M  V30 12449 H 1158.33 -0.00228458 -0.663996 0
M  V30 12450 H 1160.86 -0.63085 -1.94632 0
M  V30 12451 H 1160.87 0.656298 -4.02687 0
M  V30 12452 H 1159.55 -0.491444 -4.12986 0
M  V30 12453 H 1158.12 1.23499 -3.51856 0
M  V30 12454 N 1160.31 1.56586 -0.178487 0
M  V30 12455 C 1161.27 2.17091 0.73512 0
M  V30 12456 C 1162.27 1.12088 1.15295 0
M  V30 12457 O 1163.46 1.37563 1.06874 0
M  V30 12458 C 1160.59 2.75957 2.00151 0
M  V30 12459 H 1161.79 2.99176 0.208272 0
M  V30 12460 H 1159.34 1.56138 0.0710967 0
M  V30 12461 H 1160.07 1.97626 2.57127 0
M  V30 12462 H 1159.86 3.52809 1.7108 0
M  V30 12463 H 1161.35 3.2247 2.65335 0
M  V30 12464 N 1161.79 -0.095206 1.57312 0
M  V30 12465 C 1163.01 -0.81614 1.90667 0
M  V30 12466 C 1163.44 -1.71494 0.772746 0
M  V30 12467 O 1162.79 -1.79192 -0.275682 0
M  V30 12468 C 1162.84 -1.60555 3.22885 0
M  V30 12469 O 1161.95 -2.71448 3.10467 0
M  V30 12470 H 1161.29 -0.224217 0.624998 0
M  V30 12471 H 1163.82 -0.070464 2.04479 0
M  V30 12472 H 1163.83 -1.98979 3.5619 0
M  V30 12473 H 1162.5 -0.945918 4.05 0
M  V30 12474 H 1161.08 -2.36053 2.88675 0
M  V30 12475 N 1163.26 -1.53291 -0.366026 0
M  V30 12476 C 1164.54 -1.60055 -1.12436 0
M  V30 12477 C 1164.92 -0.407811 -2.07123 0
M  V30 12478 O 1164.27 0.601977 -2.20428 0
M  V30 12479 C 1164.48 -2.95062 -1.86385 0
M  V30 12480 C 1165.83 -3.49623 -2.40934 0
M  V30 12481 O 1166.85 -2.97088 -1.96512 0
M  V30 12482 O 1165.71 -4.41461 -3.2214 0
M  V30 12483 H 1162.8 -0.646476 -0.51575 0
M  V30 12484 H 1165.35 -1.65632 -0.369326 0
M  V30 12485 H 1164.12 -3.73312 -1.17277 0
M  V30 12486 H 1163.75 -2.92973 -2.68798 0
M  V30 12487 N 1164.74 0.6258 -1.44643 0
M  V30 12488 C 1165.65 1.76611 -1.5442 0
M  V30 12489 C 1166.67 1.68614 -0.429576 0
M  V30 12490 O 1167.84 1.89296 -0.687686 0
M  V30 12491 C 1164.91 3.13015 -1.49071 0
M  V30 12492 C 1163.97 3.32604 -2.71428 0
M  V30 12493 C 1163.2 4.62501 -2.66325 0
M  V30 12494 O 1163.43 5.43651 -1.72626 0
M  V30 12495 O 1162.36 4.84408 -3.57258 0
M  V30 12496 H 1166.19 1.71315 -2.50769 0
M  V30 12497 H 1163.77 0.787677 -1.26949 0
M  V30 12498 H 1165.65 3.94318 -1.48631 0
M  V30 12499 H 1164.33 3.18842 -0.558686 0
M  V30 12500 H 1163.24 2.50959 -2.77435 0
M  V30 12501 H 1164.57 3.31642 -3.63695 0
M  V30 12502 N 1166.22 1.31629 0.866686 0
M  V30 12503 C 1167.47 1.20861 1.61479 0
M  V30 12504 C 1167.78 -0.231208 1.94229 0
M  V30 12505 O 1168.99 -0.460618 2.67564 0
M  V30 12506 C 1167.44 2.11602 2.91123 0
M  V30 12507 C 1167.05 3.60598 2.65844 0
M  V30 12508 C 1168.8 2.09642 3.69121 0
M  V30 12509 C 1166.7 4.43337 3.91415 0
M  V30 12510 H 1165.63 0.448783 0.605896 0
M  V30 12511 H 1168.28 1.56507 0.958001 0
M  V30 12512 H 1166.67 1.68858 3.58194 0
M  V30 12513 H 1167.84 4.11609 2.07159 0
M  V30 12514 H 1166.16 3.64568 2.01194 0
M  V30 12515 H 1168.75 2.68701 4.62281 0
M  V30 12516 H 1169.1 1.08438 4.01929 0
M  V30 12517 H 1169.63 2.50603 3.08938 0
M  V30 12518 H 1166.37 5.45309 3.63756 0
M  V30 12519 H 1165.89 3.97083 4.49539 0
M  V30 12520 H 1167.57 4.5572 4.5927 0
M  V30 12521 N 1167.7 -1.08142 1.14644 0
M  V30 12522 C 1169.12 -1.32656 0.887388 0
M  V30 12523 C 1169.32 -1.95942 -0.470012 0
M  V30 12524 O 1168.37 -2.21417 -1.21371 0
M  V30 12525 C 1169.68 -2.22549 2.02219 0
M  V30 12526 C 1171.23 -2.36021 2.0558 0
M  V30 12527 C 1171.71 -3.29257 3.18361 0
M  V30 12528 N 1173.2 -3.36835 3.17957 0
M  V30 12529 C 1173.93 -4.09017 4.01862 0
M  V30 12530 N 1173.43 -4.83882 4.95812 0
M  V30 12531 N 1175.22 -4.04875 3.89913 0
M  V30 12532 H 1167.37 -0.654457 2.02066 0
M  V30 12533 H 1169.64 -0.350947 0.880648 0
M  V30 12534 H 1169.34 -1.83296 3.00159 0
M  V30 12535 H 1169.22 -3.23027 1.94765 0
M  V30 12536 H 1171.6 -2.74531 1.08245 0
M  V30 12537 H 1171.68 -1.35275 2.17105 0
M  V30 12538 H 1171.33 -2.91468 4.15944 0
M  V30 12539 H 1171.26 -4.29938 3.04074 0
M  V30 12540 H 1173.75 -2.83465 2.49912 0
M  V30 12541 H 1174.06 -5.3643 5.56294 0
M  V30 12542 H 1172.41 -4.82926 4.99808 0
M  V30 12543 H 1175.6 -3.45496 3.15833 0
M  V30 12544 H 1175.77 -4.60866 4.55529 0
M  V30 12545 N 1169.18 -0.941978 -1.26351 0
M  V30 12546 C 1170.59 -0.644413 -1.46012 0
M  V30 12547 C 1170.79 0.802031 -1.84851 0
M  V30 12548 O 1169.85 1.57859 -1.9707 0
M  V30 12549 C 1171.16 -1.60652 -2.54188 0
M  V30 12550 C 1172.71 -1.6163 -2.68038 0
M  V30 12551 C 1173.19 -2.56573 -3.79387 0
M  V30 12552 N 1174.68 -2.54863 -3.8678 0
M  V30 12553 C 1175.41 -3.2501 -4.72394 0
M  V30 12554 N 1174.91 -4.04586 -5.6239 0
M  V30 12555 N 1176.7 -3.13958 -4.66247 0
M  V30 12556 H 1168.85 -1.8769 -0.994293 0
M  V30 12557 H 1171.11 -0.806621 -0.498063 0
M  V30 12558 H 1170.82 -2.63907 -2.32478 0
M  V30 12559 H 1170.69 -1.3592 -3.5186 0
M  V30 12560 H 1173.08 -0.59099 -2.89122 0
M  V30 12561 H 1173.16 -1.90417 -1.70807 0
M  V30 12562 H 1172.81 -3.59223 -3.59056 0
M  V30 12563 H 1172.74 -2.25077 -4.76076 0
M  V30 12564 H 1175.23 -1.97082 -3.22439 0
M  V30 12565 H 1175.54 -4.55061 -6.24612 0
M  V30 12566 H 1173.89 -4.08687 -5.62139 0
M  V30 12567 H 1177.08 -2.51273 -3.94943 0
M  V30 12568 H 1177.25 -3.68894 -5.32749 0
M  V30 12569 N 1170.66 1.40747 -0.709091 0
M  V30 12570 C 1171.88 2.05841 -0.253816 0
M  V30 12571 C 1172.31 1.53056 1.09341 0
M  V30 12572 O 1171.66 0.663181 1.68735 0
M  V30 12573 C 1171.71 3.59822 -0.236699 0
M  V30 12574 O 1170.82 4.04876 0.784168 0
M  V30 12575 H 1170.16 0.65295 -0.120631 0
M  V30 12576 H 1172.69 1.80266 -0.967749 0
M  V30 12577 H 1172.7 4.07936 -0.0721616 0
M  V30 12578 H 1171.37 3.97608 -1.21988 0
M  V30 12579 H 1169.95 3.68237 0.587884 0
M  V30 12580 N 1172.13 0.454803 1.50895 0
M  V30 12581 C 1173.38 -0.105927 2.02523 0
M  V30 12582 C 1173.71 -1.40825 1.33724 0
M  V30 12583 O 1172.99 -1.89038 0.457683 0
M  V30 12584 C 1173.27 -0.306635 3.58792 0
M  V30 12585 C 1173.12 1.01556 4.38185 0
M  V30 12586 C 1174.44 -1.06858 4.2693 0
M  V30 12587 H 1171.56 -0.0370232 0.736069 0
M  V30 12588 H 1174.2 0.597215 1.8037 0
M  V30 12589 H 1172.35 -0.905563 3.77799 0
M  V30 12590 H 1174.03 1.64981 4.30789 0
M  V30 12591 H 1172.27 1.61608 4.02574 0
M  V30 12592 H 1172.94 0.828959 5.4574 0
M  V30 12593 H 1175.42 -0.561086 4.123 0
M  V30 12594 H 1174.29 -1.1778 5.36115 0
M  V30 12595 H 1174.55 -2.10111 3.8898 0
M  V30 12596 N 1173.61 -1.56489 0.186789 0
M  V30 12597 C 1174.86 -1.96517 -0.45433 0
M  V30 12598 C 1175.17 -1.07618 -1.63333 0
M  V30 12599 O 1176.38 -1.37392 -2.3417 0
M  V30 12600 C 1174.84 -3.49482 -0.859685 0
M  V30 12601 C 1174.44 -4.47031 0.294572 0
M  V30 12602 C 1176.19 -3.98296 -1.46835 0
M  V30 12603 C 1174.09 -5.91254 -0.131279 0
M  V30 12604 H 1173.02 -0.733765 -0.17351 0
M  V30 12605 H 1175.68 -1.8139 0.277485 0
M  V30 12606 H 1174.06 -3.60082 -1.64793 0
M  V30 12607 H 1175.23 -4.48156 1.07205 0
M  V30 12608 H 1173.55 -4.08362 0.814197 0
M  V30 12609 H 1176.14 -5.03518 -1.79928 0
M  V30 12610 H 1176.49 -3.42123 -2.37186 0
M  V30 12611 H 1177.02 -3.90776 -0.744247 0
M  V30 12612 H 1173.76 -6.51334 0.737839 0
M  V30 12613 H 1173.28 -5.93401 -0.873786 0
M  V30 12614 H 1174.96 -6.44485 -0.569913 0
M  V30 12615 N 1175.09 0.086862 -1.5736 0
M  V30 12616 C 1176 1.12297 -2.05977 0
M  V30 12617 C 1177.02 1.43347 -0.986284 0
M  V30 12618 O 1178.19 1.53825 -1.3 0
M  V30 12619 C 1175.26 2.42131 -2.4814 0
M  V30 12620 C 1174.32 2.18189 -3.69719 0
M  V30 12621 C 1173.55 3.41833 -4.09861 0
M  V30 12622 O 1173.77 4.50383 -3.50016 0
M  V30 12623 O 1172.71 3.30934 -5.02759 0
M  V30 12624 H 1176.53 0.740012 -2.94546 0
M  V30 12625 H 1174.12 0.29995 -1.46358 0
M  V30 12626 H 1176 3.18568 -2.75848 0
M  V30 12627 H 1174.68 2.79837 -1.62705 0
M  V30 12628 H 1173.58 1.39506 -3.47115 0
M  V30 12629 H 1174.92 1.85372 -4.55959 0
M  V30 12630 N 1176.57 1.53483 0.357892 0
M  V30 12631 C 1177.82 1.69256 1.09706 0
M  V30 12632 C 1178.13 0.454888 1.90237 0
M  V30 12633 O 1179.34 0.4933 2.66981 0
M  V30 12634 C 1177.79 2.99238 1.99961 0
M  V30 12635 C 1177.4 4.30293 1.24706 0
M  V30 12636 C 1179.14 3.24378 2.73823 0
M  V30 12637 C 1177.05 5.5136 2.13907 0
M  V30 12638 H 1175.98 0.630657 0.413265 0
M  V30 12639 H 1178.63 1.79983 0.357518 0
M  V30 12640 H 1177.01 2.82332 2.77677 0
M  V30 12641 H 1178.19 4.57857 0.519995 0
M  V30 12642 H 1176.5 4.11656 0.626736 0
M  V30 12643 H 1179.1 4.12015 3.40805 0
M  V30 12644 H 1179.44 2.40769 3.39612 0
M  V30 12645 H 1179.98 3.41994 2.03187 0
M  V30 12646 H 1176.71 6.3747 1.52684 0
M  V30 12647 H 1176.23 5.28065 2.84442 0
M  V30 12648 H 1177.91 5.86448 2.7329 0
M  V30 12649 N 1178.05 -0.61812 1.44973 0
M  V30 12650 C 1179.27 -1.40921 1.52171 0
M  V30 12651 C 1179.7 -1.87487 0.151755 0
M  V30 12652 O 1179.05 -1.59518 -0.861606 0
M  V30 12653 C 1179.1 -2.59689 2.50188 0
M  V30 12654 O 1178.21 -3.59967 2.0124 0
M  V30 12655 H 1177.55 -0.421138 0.51336 0
M  V30 12656 H 1180.08 -0.753258 1.90229 0
M  V30 12657 H 1180.09 -3.07069 2.6865 0
M  V30 12658 H 1178.76 -2.25144 3.4969 0
M  V30 12659 H 1177.34 -3.19308 1.92605 0
M  V30 12660 N 1179.52 -1.32087 -0.859693 0
M  V30 12661 C 1180.94 -1.10968 -1.14709 0
M  V30 12662 C 1181.14 0.113139 -2.01182 0
M  V30 12663 O 1180.2 0.799499 -2.39508 0
M  V30 12664 C 1181.51 -2.38657 -1.8293 0
M  V30 12665 C 1183.06 -2.44366 -1.95587 0
M  V30 12666 C 1183.53 -3.71963 -2.67222 0
M  V30 12667 N 1185.02 -3.72916 -2.7475 0
M  V30 12668 C 1185.76 -4.68346 -3.30816 0
M  V30 12669 N 1185.25 -5.74139 -3.87732 0
M  V30 12670 N 1187.05 -4.55851 -3.28872 0
M  V30 12671 H 1179.2 -2.10497 -0.283711 0
M  V30 12672 H 1181.46 -0.929108 -0.188315 0
M  V30 12673 H 1181.17 -3.2803 -1.26844 0
M  V30 12674 H 1181.04 -2.49236 -2.83128 0
M  V30 12675 H 1183.43 -1.55456 -2.50833 0
M  V30 12676 H 1183.51 -2.37744 -0.944001 0
M  V30 12677 H 1183.15 -4.61245 -2.1264 0
M  V30 12678 H 1183.08 -3.75855 -3.68837 0
M  V30 12679 H 1185.57 -2.96447 -2.34367 0
M  V30 12680 H 1185.89 -6.43021 -4.28654 0
M  V30 12681 H 1184.23 -5.779 -3.86078 0
M  V30 12682 H 1187.42 -3.72371 -2.83651 0
M  V30 12683 H 1187.6 -5.30398 -3.72266 0
M  V30 12684 N 1181 1.07532 -1.15215 0
M  V30 12685 C 1181.96 2.1286 -0.84989 0
M  V30 12686 C 1182.96 1.60103 0.149524 0
M  V30 12687 O 1184.15 1.74017 -0.0798918 0
M  V30 12688 C 1181.29 3.3984 -0.268617 0
M  V30 12689 H 1182.48 2.41106 -1.78347 0
M  V30 12690 H 1180.03 1.23392 -0.959386 0
M  V30 12691 H 1180.77 3.17235 0.67325 0
M  V30 12692 H 1180.55 3.79433 -0.988592 0
M  V30 12693 H 1182.04 4.17533 -0.0746554 0
M  V30 12694 N 1182.48 0.948665 1.2585 0
M  V30 12695 C 1183.41 0.482036 2.2847 0
M  V30 12696 C 1184.39 -0.468553 1.63519 0
M  V30 12697 O 1185.58 -0.368796 1.90666 0
M  V30 12698 C 1182.71 -0.246603 3.46423 0
M  V30 12699 C 1181.66 0.61815 4.23513 0
M  V30 12700 C 1180.99 -0.240884 5.34157 0
M  V30 12701 C 1182.29 1.89327 4.86778 0
M  V30 12702 H 1183.98 1.33973 2.67753 0
M  V30 12703 H 1181.53 0.645645 1.28715 0
M  V30 12704 H 1183.48 -0.584135 4.17332 0
M  V30 12705 H 1182.2 -1.13849 3.06114 0
M  V30 12706 H 1180.86 0.938682 3.54379 0
M  V30 12707 H 1180.51 -1.13235 4.90089 0
M  V30 12708 H 1180.21 0.334367 5.86648 0
M  V30 12709 H 1181.73 -0.573517 6.07901 0
M  V30 12710 H 1183.15 1.62252 5.49861 0
M  V30 12711 H 1181.55 2.41369 5.49419 0
M  V30 12712 H 1182.62 2.60006 4.09298 0
M  V30 12713 N 1183.96 -1.40369 0.716545 0
M  V30 12714 C 1184.91 -2.3071 0.0645944 0
M  V30 12715 C 1185.88 -1.48239 -0.749294 0
M  V30 12716 O 1187.06 -1.76975 -0.713045 0
M  V30 12717 C 1184.2 -3.34456 -0.850478 0
M  V30 12718 C 1183.31 -4.31992 -0.0259594 0
M  V30 12719 C 1182.45 -5.22806 -0.940599 0
M  V30 12720 C 1181.49 -6.12001 -0.110228 0
M  V30 12721 N 1180.62 -6.9523 -0.979796 0
M  V30 12722 H 1185.46 -2.85896 0.840682 0
M  V30 12723 H 1183 -1.40789 0.426258 0
M  V30 12724 H 1184.96 -3.93177 -1.39528 0
M  V30 12725 H 1183.59 -2.8077 -1.59274 0
M  V30 12726 H 1182.64 -3.75045 0.636036 0
M  V30 12727 H 1183.95 -4.94971 0.616883 0
M  V30 12728 H 1183.11 -5.86463 -1.5539 0
M  V30 12729 H 1181.85 -4.60104 -1.61726 0
M  V30 12730 H 1180.85 -5.47373 0.516001 0
M  V30 12731 H 1182.08 -6.76763 0.562944 0
M  V30 12732 H 1180.02 -6.35115 -1.64209 0
M  V30 12733 H 1179.94 -7.54978 -0.393012 0
M  V30 12734 H 1181.21 -7.63335 -1.57924 0
M  V30 12735 N 1185.44 -0.462799 -1.50652 0
M  V30 12736 C 1186.35 0.341191 -2.32106 0
M  V30 12737 C 1187.36 1.00384 -1.42123 0
M  V30 12738 O 1188.54 0.993635 -1.75182 0
M  V30 12739 C 1185.6 1.41356 -3.16575 0
M  V30 12740 C 1184.66 0.768375 -4.22368 0
M  V30 12741 C 1183.9 1.78964 -5.028 0
M  V30 12742 O 1184.12 3.01515 -4.84195 0
M  V30 12743 O 1183.05 1.36606 -5.86193 0
M  V30 12744 H 1186.88 -0.324482 -3.01962 0
M  V30 12745 H 1184.47 -0.224807 -1.47699 0
M  V30 12746 H 1186.35 2.0349 -3.69012 0
M  V30 12747 H 1185.02 2.06285 -2.49456 0
M  V30 12748 H 1183.93 0.108297 -3.73943 0
M  V30 12749 H 1185.26 0.162164 -4.91933 0
M  V30 12750 N 1186.91 1.56388 -0.195085 0
M  V30 12751 C 1187.84 2.22091 0.720971 0
M  V30 12752 C 1188.83 1.184 1.22128 0
M  V30 12753 O 1190.01 1.46907 1.27012 0
M  V30 12754 C 1187.14 2.88025 1.94059 0
M  V30 12755 C 1186.09 3.97959 1.5752 0
M  V30 12756 C 1185.42 4.51058 2.87143 0
M  V30 12757 C 1186.72 5.16365 0.785145 0
M  V30 12758 H 1188.41 2.98898 0.173245 0
M  V30 12759 H 1185.96 1.43767 0.0818868 0
M  V30 12760 H 1187.91 3.32671 2.58666 0
M  V30 12761 H 1186.64 2.08623 2.51285 0
M  V30 12762 H 1185.3 3.54004 0.952715 0
M  V30 12763 H 1184.94 3.68418 3.42458 0
M  V30 12764 H 1184.64 5.25237 2.63439 0
M  V30 12765 H 1186.17 4.98406 3.52738 0
M  V30 12766 H 1187.58 5.57556 1.33431 0
M  V30 12767 H 1185.98 5.9661 0.646231 0
M  V30 12768 H 1187.05 4.84428 -0.213789 0
M  V30 12769 N 1188.39 -0.0785156 1.57404 0
M  V30 12770 C 1189.64 -0.778938 1.86919 0
M  V30 12771 C 1189.97 -1.77915 0.785906 0
M  V30 12772 O 1189.22 -1.94473 -0.218811 0
M  V30 12773 C 1189.52 -1.52826 3.23078 0
M  V30 12774 C 1189.19 -0.668645 4.45915 0
M  V30 12775 C 1187.85 -0.43173 4.79259 0
M  V30 12776 C 1190.2 -0.0721327 5.2115 0
M  V30 12777 C 1187.53 0.41129 5.85257 0
M  V30 12778 C 1189.88 0.758303 6.28039 0
M  V30 12779 C 1188.55 1.00515 6.59889 0
M  V30 12780 H 1187.82 -0.285034 0.683986 0
M  V30 12781 H 1190.46 -0.039906 1.91458 0
M  V30 12782 H 1188.77 -2.33931 3.14299 0
M  V30 12783 H 1190.46 -2.07488 3.43147 0
M  V30 12784 H 1187.05 -0.863424 4.19813 0
M  V30 12785 H 1191.24 -0.242297 4.95708 0
M  V30 12786 H 1186.49 0.611354 6.08336 0
M  V30 12787 H 1190.67 1.2273 6.855 0
M  V30 12788 H 1188.3 1.66017 7.41851 0
M  V30 12789 N 1189.87 -1.5367 -0.349747 0
M  V30 12790 C 1190.82 -1.77604 -1.42972 0
M  V30 12791 C 1191.8 -0.631036 -1.48009 0
M  V30 12792 O 1193 -0.890228 -1.52983 0
M  V30 12793 C 1190.13 -1.98354 -2.80198 0
M  V30 12794 C 1189.21 -3.18901 -2.79576 0
M  V30 12795 N 1189.6 -4.40497 -2.48589 0
M  V30 12796 C 1187.9 -3.19945 -3.10727 0
M  V30 12797 C 1188.6 -5.22318 -2.56045 0
M  V30 12798 N 1187.58 -4.5889 -2.91412 0
M  V30 12799 H 1191.38 -2.69215 -1.17901 0
M  V30 12800 H 1188.89 -1.5251 -0.558062 0
M  V30 12801 H 1190.89 -2.13632 -3.58004 0
M  V30 12802 H 1189.55 -1.07981 -3.06219 0
M  V30 12803 H 1190.56 -4.67955 -2.21898 0
M  V30 12804 H 1187.24 -2.39519 -3.41961 0
M  V30 12805 H 1188.63 -6.29352 -2.35299 0
M  V30 12806 N 1191.35 0.610423 -1.45298 0
M  V30 12807 C 1192.26 1.74964 -1.56285 0
M  V30 12808 C 1193.27 1.68149 -0.447436 0
M  V30 12809 O 1194.45 1.88556 -0.707725 0
M  V30 12810 C 1191.52 3.11417 -1.52383 0
M  V30 12811 C 1190.58 3.29707 -2.7494 0
M  V30 12812 C 1189.81 4.5965 -2.71215 0
M  V30 12813 O 1190.03 5.41789 -1.78383 0
M  V30 12814 O 1188.97 4.80591 -3.62375 0
M  V30 12815 H 1192.79 1.68646 -2.52571 0
M  V30 12816 H 1190.38 0.774168 -1.27777 0
M  V30 12817 H 1192.26 3.9272 -1.52805 0
M  V30 12818 H 1190.93 3.18232 -0.592472 0
M  V30 12819 H 1189.84 2.48003 -2.80081 0
M  V30 12820 H 1191.17 3.27766 -3.67192 0
M  V30 12821 N 1192.83 1.32541 0.852676 0
M  V30 12822 C 1193.79 1.21578 1.94297 0
M  V30 12823 C 1194.79 0.138318 1.60204 0
M  V30 12824 O 1195.98 0.388864 1.69804 0
M  V30 12825 C 1193.11 0.870209 3.29606 0
M  V30 12826 H 1194.3 2.18476 2.05446 0
M  V30 12827 H 1191.86 1.16401 1.0431 0
M  V30 12828 H 1192.59 -0.0968698 3.24155 0
M  V30 12829 H 1192.38 1.64924 3.55728 0
M  V30 12830 H 1193.87 0.817874 4.09513 0
M  V30 12831 N 1194.3 -1.0692 1.15784 0
M  V30 12832 C 1195.72 -1.31707 0.901408 0
M  V30 12833 C 1195.92 -1.96429 -0.449203 0
M  V30 12834 O 1194.98 -2.22692 -1.19015 0
M  V30 12835 C 1196.29 -2.20391 2.04568 0
M  V30 12836 C 1197.84 -2.33827 2.08072 0
M  V30 12837 C 1198.31 -3.25862 3.21835 0
M  V30 12838 N 1199.8 -3.33444 3.21511 0
M  V30 12839 C 1200.54 -4.04731 4.06177 0
M  V30 12840 N 1200.03 -4.78596 5.00917 0
M  V30 12841 N 1201.83 -4.00717 3.94185 0
M  V30 12842 H 1193.98 -0.632989 2.02749 0
M  V30 12843 H 1196.24 -0.341587 0.88432 0
M  V30 12844 H 1195.95 -1.80102 3.02087 0
M  V30 12845 H 1195.82 -3.20943 1.9818 0
M  V30 12846 H 1198.21 -2.73367 1.11151 0
M  V30 12847 H 1198.29 -1.32964 2.18527 0
M  V30 12848 H 1197.93 -2.8704 4.19012 0
M  V30 12849 H 1197.86 -4.26689 3.08617 0
M  V30 12850 H 1200.35 -2.80798 2.52905 0
M  V30 12851 H 1200.67 -5.30499 5.61952 0
M  V30 12852 H 1199.01 -4.77598 5.04902 0
M  V30 12853 H 1202.2 -3.42126 3.1948 0
M  V30 12854 H 1202.38 -4.56008 4.60392 0
M  V30 12855 N 1195.78 -0.955326 -1.25345 0
M  V30 12856 C 1196.69 -0.482707 -2.2958 0
M  V30 12857 C 1197.71 0.450283 -1.68073 0
M  V30 12858 O 1198.88 0.326358 -1.98738 0
M  V30 12859 C 1195.95 0.231293 -3.45928 0
M  V30 12860 C 1195.01 -0.739995 -4.22874 0
M  V30 12861 C 1194.24 -0.0599748 -5.33666 0
M  V30 12862 O 1194.47 1.15423 -5.586 0
M  V30 12863 O 1193.4 -0.745865 -5.97261 0
M  V30 12864 H 1197.23 -1.34892 -2.72099 0
M  V30 12865 H 1194.81 -0.721812 -1.30806 0
M  V30 12866 H 1196.69 0.632908 -4.1662 0
M  V30 12867 H 1195.37 1.07267 -3.0541 0
M  V30 12868 H 1194.28 -1.19183 -3.54607 0
M  V30 12869 H 1195.61 -1.54941 -4.67177 0
M  V30 12870 N 1197.26 1.39987 -0.723979 0
M  V30 12871 C 1198.68 1.54547 -0.398403 0
M  V30 12872 C 1198.88 1.69348 1.09194 0
M  V30 12873 O 1197.93 1.68778 1.87804 0
M  V30 12874 C 1199.25 2.76929 -1.1718 0
M  V30 12875 C 1200.79 2.90754 -1.15893 0
M  V30 12876 C 1201.27 4.16059 -1.91465 0
M  V30 12877 N 1202.76 4.23076 -1.88576 0
M  V30 12878 C 1203.5 5.18957 -2.43867 0
M  V30 12879 N 1202.99 6.20695 -3.0775 0
M  V30 12880 N 1204.78 5.11095 -2.33962 0
M  V30 12881 H 1196.94 1.28626 -1.69024 0
M  V30 12882 H 1199.2 0.6226 -0.714894 0
M  V30 12883 H 1198.9 2.72298 -2.22591 0
M  V30 12884 H 1198.78 3.69279 -0.768941 0
M  V30 12885 H 1201.17 2.94884 -0.112978 0
M  V30 12886 H 1201.25 1.99498 -1.60107 0
M  V30 12887 H 1200.89 4.12691 -2.96055 0
M  V30 12888 H 1200.82 5.06339 -1.44665 0
M  V30 12889 H 1203.31 3.50195 -1.42027 0
M  V30 12890 H 1203.62 6.90296 -3.47435 0
M  V30 12891 H 1201.97 6.21114 -3.11837 0
M  V30 12892 H 1205.16 4.30546 -1.83706 0
M  V30 12893 H 1205.33 5.85644 -2.77353 0
M  V30 12894 N 1198.74 0.470782 1.50404 0
M  V30 12895 C 1199.7 -0.312227 2.27063 0
M  V30 12896 C 1200.7 -0.920709 1.31832 0
M  V30 12897 O 1201.89 -0.789937 1.5526 0
M  V30 12898 C 1199.02 -1.44477 3.0877 0
M  V30 12899 H 1200.22 0.36006 2.97731 0
M  V30 12900 H 1197.77 0.224837 1.54674 0
M  V30 12901 H 1198.51 -2.15212 2.42599 0
M  V30 12902 H 1198.29 -1.01426 3.78755 0
M  V30 12903 H 1199.78 -1.99713 3.66749 0
M  V30 12904 N 1200.22 -1.56282 0.203376 0
M  V30 12905 C 1201.44 -2.02643 -0.441658 0
M  V30 12906 C 1201.87 -1.0825 -1.5383 0
M  V30 12907 O 1201.23 -0.0674337 -1.81175 0
M  V30 12908 C 1201.27 -3.47382 -0.967369 0
M  V30 12909 O 1200.38 -3.56115 -2.07981 0
M  V30 12910 H 1199.72 -0.656081 -0.102242 0
M  V30 12911 H 1202.25 -2.02134 0.316684 0
M  V30 12912 H 1202.26 -3.8734 -1.28186 0
M  V30 12913 H 1200.93 -4.15574 -0.164625 0
M  V30 12914 H 1199.51 -3.28035 -1.77334 0
M  V30 12915 N 1201.7 0.070167 -1.57444 0
M  V30 12916 C 1202.64 1.08322 -2.03801 0
M  V30 12917 C 1203.61 1.38364 -0.918946 0
M  V30 12918 O 1204.8 1.49404 -1.18672 0
M  V30 12919 C 1201.94 2.39128 -2.48821 0
M  V30 12920 C 1201.05 2.15603 -3.74352 0
M  V30 12921 C 1200.19 3.39984 -4.08148 0
M  V30 12922 C 1199.22 3.1183 -5.26715 0
M  V30 12923 N 1198.36 4.28546 -5.56141 0
M  V30 12924 H 1203.2 0.680931 -2.90116 0
M  V30 12925 H 1200.74 0.324657 -1.43473 0
M  V30 12926 H 1202.7 3.15501 -2.72975 0
M  V30 12927 H 1201.33 2.77157 -1.65481 0
M  V30 12928 H 1200.38 1.29915 -3.57528 0
M  V30 12929 H 1201.69 1.90808 -4.60862 0
M  V30 12930 H 1200.84 4.2475 -4.33211 0
M  V30 12931 H 1199.58 3.67856 -3.20208 0
M  V30 12932 H 1198.59 2.2546 -5.01446 0
M  V30 12933 H 1199.81 2.85278 -6.16273 0
M  V30 12934 H 1197.76 4.56447 -4.71161 0
M  V30 12935 H 1197.68 4.0703 -6.37073 0
M  V30 12936 H 1198.94 5.14305 -5.85757 0
M  V30 12937 N 1203.17 1.53854 0.341593 0
M  V30 12938 C 1204.14 1.8128 1.40251 0
M  V30 12939 C 1205.14 0.683915 1.45531 0
M  V30 12940 O 1206.33 0.952202 1.45872 0
M  V30 12941 C 1203.46 1.95658 2.79161 0
M  V30 12942 H 1204.65 2.76053 1.17195 0
M  V30 12943 H 1202.2 1.45296 0.57609 0
M  V30 12944 H 1202.94 1.03034 3.07497 0
M  V30 12945 H 1202.72 2.77788 2.76724 0
M  V30 12946 H 1204.21 2.18387 3.55945 0
M  V30 12947 N 1204.65 -0.602709 1.4562 0
M  V30 12948 C 1205.58 -1.72374 1.5751 0
M  V30 12949 C 1206.56 -1.64669 0.426389 0
M  V30 12950 O 1207.75 -1.82994 0.650143 0
M  V30 12951 C 1204.88 -3.10987 1.5461 0
M  V30 12952 C 1203.83 -3.33507 2.68248 0
M  V30 12953 C 1203.16 -4.72443 2.50403 0
M  V30 12954 C 1204.46 -3.23285 4.10224 0
M  V30 12955 H 1206.15 -1.62679 2.51348 0
M  V30 12956 H 1203.7 -0.781217 1.20967 0
M  V30 12957 H 1205.65 -3.89214 1.61525 0
M  V30 12958 H 1204.37 -3.21533 0.573049 0
M  V30 12959 H 1203.03 -2.57672 2.60769 0
M  V30 12960 H 1202.68 -4.79729 1.51226 0
M  V30 12961 H 1202.38 -4.88466 3.26611 0
M  V30 12962 H 1203.91 -5.52864 2.59179 0
M  V30 12963 H 1205.32 -3.91381 4.1892 0
M  V30 12964 H 1203.72 -3.50837 4.86861 0
M  V30 12965 H 1204.79 -2.20652 4.31788 0
M  V30 12966 N 1206.13 -1.32992 -0.845635 0
M  V30 12967 C 1207.38 -1.2382 -1.59728 0
M  V30 12968 C 1207.7 0.197724 -1.93995 0
M  V30 12969 O 1206.97 1.12477 -1.60392 0
M  V30 12970 H 1205.55 -0.455296 -0.592212 0
M  V30 12971 H 1208.21 -1.66627 -1.01101 0
M  V30 12972 H 1207.31 -1.82717 -2.53023 0
M  V30 12973 N 1207.61 1.06304 -1.1635 0
M  V30 12974 C 1208.85 1.79101 -0.94494 0
M  V30 12975 C 1209.18 1.87217 0.527251 0
M  V30 12976 O 1208.44 1.35992 1.40729 0
M  V30 12977 C 1208.74 3.23589 -1.51741 0
M  V30 12978 C 1208.4 3.35552 -3.0119 0
M  V30 12979 C 1207.06 3.38525 -3.41986 0
M  V30 12980 C 1209.42 3.37482 -3.97184 0
M  V30 12981 C 1206.74 3.41042 -4.77396 0
M  V30 12982 C 1209.1 3.41537 -5.3248 0
M  V30 12983 C 1207.76 3.42792 -5.72757 0
M  V30 12984 H 1207.03 0.655377 -0.345778 0
M  V30 12985 H 1209.68 1.25017 -1.45062 0
M  V30 12986 H 1207.98 3.80525 -0.933164 0
M  V30 12987 H 1209.68 3.78512 -1.32399 0
M  V30 12988 H 1206.27 3.33944 -2.68662 0
M  V30 12989 H 1210.45 3.34397 -3.66732 0
M  V30 12990 H 1205.71 3.40317 -5.07931 0
M  V30 12991 H 1209.88 3.41977 -6.0665 0
M  V30 12992 H 1207.51 3.44495 -6.77663 0
M  V30 12993 N 1209.09 0.96196 1.24836 0
M  V30 12994 C 1210.05 0.492443 2.23847 0
M  V30 12995 C 1211.05 -0.40788 1.55541 0
M  V30 12996 O 1212.24 -0.204143 1.73 0
M  V30 12997 C 1209.37 -0.287578 3.39685 0
M  V30 12998 H 1210.56 1.36767 2.66899 0
M  V30 12999 H 1208.12 0.745967 1.3735 0
M  V30 13000 H 1208.85 -1.18015 3.02064 0
M  V30 13001 H 1208.64 0.358431 3.90458 0
M  V30 13002 H 1210.13 -0.605297 4.1319 0
M  V30 13003 N 1210.56 -1.39601 0.731392 0
M  V30 13004 C 1211.51 -2.30628 0.0890606 0
M  V30 13005 C 1212.48 -1.49025 -0.73353 0
M  V30 13006 O 1213.67 -1.77722 -0.694234 0
M  V30 13007 C 1210.81 -3.35339 -0.814956 0
M  V30 13008 C 1209.92 -4.31995 0.0198606 0
M  V30 13009 C 1209.05 -5.23774 -0.885095 0
M  V30 13010 C 1208.09 -6.12083 -0.045311 0
M  V30 13011 N 1207.23 -6.9623 -0.906002 0
M  V30 13012 H 1212.07 -2.84988 0.870958 0
M  V30 13013 H 1209.61 -1.40329 0.441166 0
M  V30 13014 H 1211.56 -3.94634 -1.3535 0
M  V30 13015 H 1210.19 -2.82443 -1.56287 0
M  V30 13016 H 1209.25 -3.74349 0.675778 0
M  V30 13017 H 1210.56 -4.94289 0.669346 0
M  V30 13018 H 1209.71 -5.88078 -1.49161 0
M  V30 13019 H 1208.45 -4.61794 -1.56837 0
M  V30 13020 H 1207.46 -5.46795 0.574028 0
M  V30 13021 H 1208.68 -6.76128 0.634692 0
M  V30 13022 H 1206.63 -6.36821 -1.57463 0
M  V30 13023 H 1206.54 -7.55352 -0.312914 0
M  V30 13024 H 1207.81 -7.64967 -1.49819 0
M  V30 13025 N 1212.04 -0.478751 -1.50152 0
M  V30 13026 C 1212.98 0.357584 -2.25381 0
M  V30 13027 C 1213.95 0.98965 -1.29014 0
M  V30 13028 O 1215.14 1.02409 -1.58255 0
M  V30 13029 C 1212.26 1.50167 -3.03591 0
M  V30 13030 C 1211.31 0.986215 -4.14941 0
M  V30 13031 S 1212.14 -0.105239 -5.35397 0
M  V30 13032 C 1213.3 1.04254 -6.17156 0
M  V30 13033 H 1213.53 -0.280985 -2.95969 0
M  V30 13034 H 1211.07 -0.263734 -1.52131 0
M  V30 13035 H 1213.02 2.15733 -3.49241 0
M  V30 13036 H 1211.68 2.11178 -2.32514 0
M  V30 13037 H 1210.88 1.84295 -4.69096 0
M  V30 13038 H 1210.48 0.408141 -3.71766 0
M  V30 13039 H 1212.77 1.95255 -6.48754 0
M  V30 13040 H 1213.71 0.540083 -7.06037 0
M  V30 13041 H 1214.12 1.29983 -5.49331 0
M  V30 13042 N 1213.52 1.56172 -0.211661 0
M  V30 13043 C 1214.45 2.22843 0.697375 0
M  V30 13044 C 1215.43 1.19689 1.20866 0
M  V30 13045 O 1216.62 1.48245 1.25447 0
M  V30 13046 C 1213.75 2.90067 1.90993 0
M  V30 13047 C 1212.7 3.99608 1.5329 0
M  V30 13048 C 1212.03 4.54078 2.82343 0
M  V30 13049 C 1213.33 5.17169 0.730333 0
M  V30 13050 H 1215.02 2.99065 0.141533 0
M  V30 13051 H 1212.57 1.43846 0.0666337 0
M  V30 13052 H 1214.52 3.35396 2.55123 0
M  V30 13053 H 1213.24 2.11276 2.49058 0
M  V30 13054 H 1211.9 3.54995 0.915115 0
M  V30 13055 H 1211.55 3.72029 3.38531 0
M  V30 13056 H 1211.25 5.28001 2.57853 0
M  V30 13057 H 1212.77 5.02119 3.47432 0
M  V30 13058 H 1214.19 5.5894 1.2751 0
M  V30 13059 H 1212.59 5.97262 0.582916 0
M  V30 13060 H 1213.66 4.84174 -0.265157 0
M  V30 13061 N 1215 -0.0618163 1.57479 0
M  V30 13062 C 1216.41 -0.416827 1.54061 0
M  V30 13063 C 1216.61 -1.78584 0.933277 0
M  V30 13064 O 1215.67 -2.46656 0.54009 0
M  V30 13065 C 1216.98 -0.348728 2.98671 0
M  V30 13066 C 1218.53 -0.428194 3.10057 0
M  V30 13067 C 1219.01 -0.389898 4.56337 0
M  V30 13068 N 1220.5 -0.449677 4.61012 0
M  V30 13069 C 1221.23 -0.442418 5.71691 0
M  V30 13070 N 1220.73 -0.389381 6.91705 0
M  V30 13071 N 1222.52 -0.489719 5.59963 0
M  V30 13072 H 1214.67 0.834487 1.9532 0
M  V30 13073 H 1216.94 0.314149 0.894435 0
M  V30 13074 H 1216.64 0.590738 3.46703 0
M  V30 13075 H 1216.52 -1.15511 3.59078 0
M  V30 13076 H 1218.9 -1.35808 2.61992 0
M  V30 13077 H 1218.98 0.406946 2.52542 0
M  V30 13078 H 1218.63 0.536186 5.05062 0
M  V30 13079 H 1218.56 -1.24271 5.11727 0
M  V30 13080 H 1221.05 -0.49451 3.74651 0
M  V30 13081 H 1221.36 -0.388042 7.71825 0
M  V30 13082 H 1219.71 -0.355918 6.94088 0
M  V30 13083 H 1222.9 -0.528915 4.65102 0
M  V30 13084 H 1223.07 -0.480592 6.46215 0
M  V30 13085 N 1216.48 -1.54033 -0.333429 0
M  V30 13086 C 1217.42 -1.82729 -1.40992 0
M  V30 13087 C 1218.39 -0.673677 -1.51825 0
M  V30 13088 O 1219.58 -0.919126 -1.67203 0
M  V30 13089 C 1216.72 -2.05155 -2.77498 0
M  V30 13090 C 1215.83 -3.32854 -2.75376 0
M  V30 13091 C 1214.97 -3.45294 -4.03665 0
M  V30 13092 C 1214.01 -4.66905 -3.95811 0
M  V30 13093 N 1213.14 -4.76323 -5.1581 0
M  V30 13094 H 1217.98 -2.74572 -1.15821 0
M  V30 13095 H 1215.52 -1.35988 -0.560859 0
M  V30 13096 H 1217.48 -2.16148 -3.56841 0
M  V30 13097 H 1216.11 -1.16615 -3.01 0
M  V30 13098 H 1215.16 -3.30651 -1.88081 0
M  V30 13099 H 1216.47 -4.22299 -2.65453 0
M  V30 13100 H 1215.63 -3.55775 -4.91436 0
M  V30 13101 H 1214.36 -2.53924 -4.16382 0
M  V30 13102 H 1213.37 -4.56491 -3.06425 0
M  V30 13103 H 1214.59 -5.59649 -3.84668 0
M  V30 13104 H 1212.54 -3.87866 -5.29052 0
M  V30 13105 H 1212.46 -5.59719 -5.08184 0
M  V30 13106 H 1213.73 -4.91125 -6.05324 0
M  V30 13107 N 1217.95 0.594978 -1.45938 0
M  V30 13108 C 1219.23 1.35477 -1.41086 0
M  V30 13109 C 1219.61 2.10917 -0.0879512 0
M  V30 13110 O 1218.96 2.08704 0.930323 0
M  V30 13111 C 1219.17 2.29106 -2.63271 0
M  V30 13112 C 1220.52 2.9132 -3.08898 0
M  V30 13113 O 1221.54 2.39423 -2.63733 0
M  V30 13114 O 1220.4 3.85553 -3.87313 0
M  V30 13115 H 1217.49 0.6081 -0.560485 0
M  V30 13116 H 1220.04 0.617016 -1.58085 0
M  V30 13117 H 1218.81 1.72707 -3.51124 0
M  V30 13118 H 1218.44 3.10241 -2.48669 0
M  V30 13119 N 1219.43 1.33438 0.838571 0
M  V30 13120 C 1220.36 1.26344 1.96365 0
M  V30 13121 C 1221.34 0.143956 1.6949 0
M  V30 13122 O 1222.53 0.333779 1.9131 0
M  V30 13123 C 1219.66 1.0022 3.32526 0
M  V30 13124 C 1218.61 2.08466 3.73799 0
M  V30 13125 C 1217.94 1.67555 5.07769 0
M  V30 13126 C 1219.24 3.50144 3.87552 0
M  V30 13127 H 1220.93 2.20478 2.02558 0
M  V30 13128 H 1218.48 1.06139 0.973168 0
M  V30 13129 H 1220.43 0.939068 4.10803 0
M  V30 13130 H 1219.16 0.0252514 3.2659 0
M  V30 13131 H 1217.81 2.13822 2.97785 0
M  V30 13132 H 1217.46 0.685619 4.98305 0
M  V30 13133 H 1217.16 2.39993 5.36356 0
M  V30 13134 H 1218.69 1.62708 5.88522 0
M  V30 13135 H 1220.1 3.47287 4.56141 0
M  V30 13136 H 1218.5 4.21069 4.27575 0
M  V30 13137 H 1219.57 3.88628 2.89994 0
M  V30 13138 N 1220.91 -1.05686 1.16912 0
M  V30 13139 C 1221.82 -2.16824 0.8958 0
M  V30 13140 C 1222.84 -1.73482 -0.134215 0
M  V30 13141 O 1224.01 -2.01352 0.0438776 0
M  V30 13142 C 1221.08 -3.44298 0.407427 0
M  V30 13143 C 1220.14 -4.02114 1.50342 0
M  V30 13144 C 1219.37 -5.23503 1.03826 0
M  V30 13145 O 1219.59 -5.70295 -0.109579 0
M  V30 13146 O 1218.53 -5.73432 1.8292 0
M  V30 13147 H 1222.35 -2.42725 1.82533 0
M  V30 13148 H 1219.94 -1.15339 0.949589 0
M  V30 13149 H 1221.82 -4.21159 0.142356 0
M  V30 13150 H 1220.5 -3.19908 -0.494009 0
M  V30 13151 H 1219.4 -3.26715 1.82231 0
M  V30 13152 H 1220.74 -4.30811 2.38039 0
M  V30 13153 N 1222.39 -0.968567 -1.24324 0
M  V30 13154 C 1223.64 -0.626519 -1.91723 0
M  V30 13155 C 1223.95 0.84225 -1.76538 0
M  V30 13156 O 1225.16 1.29486 -2.38633 0
M  V30 13157 C 1223.61 -1.06992 -3.43629 0
M  V30 13158 C 1223.22 -2.5622 -3.67499 0
M  V30 13159 C 1224.96 -0.801057 -4.16873 0
M  V30 13160 C 1222.87 -2.94288 -5.1298 0
M  V30 13161 H 1221.8 -0.23062 -0.717865 0
M  V30 13162 H 1224.45 -1.17489 -1.40956 0
M  V30 13163 H 1222.83 -0.44985 -3.93437 0
M  V30 13164 H 1224.01 -3.23364 -3.28287 0
M  V30 13165 H 1222.32 -2.80726 -3.07542 0
M  V30 13166 H 1224.92 -1.06147 -5.24058 0
M  V30 13167 H 1225.26 0.262742 -4.1547 0
M  V30 13168 H 1225.8 -1.38213 -3.73017 0
M  V30 13169 H 1222.54 -3.99743 -5.19506 0
M  V30 13170 H 1222.06 -2.31829 -5.53187 0
M  V30 13171 H 1223.73 -2.84242 -5.81219 0
M  V30 13172 N 1223.87 1.39211 -0.738786 0
M  V30 13173 C 1224.83 2.28937 -0.109746 0
M  V30 13174 C 1225.83 1.46488 0.663157 0
M  V30 13175 O 1227.02 1.67119 0.491614 0
M  V30 13176 C 1224.15 3.30039 0.853633 0
M  V30 13177 H 1225.34 2.86068 -0.900295 0
M  V30 13178 H 1222.9 1.47922 -0.504853 0
M  V30 13179 H 1223.63 2.77971 1.6704 0
M  V30 13180 H 1223.42 3.90935 0.302007 0
M  V30 13181 H 1224.91 3.97169 1.29022 0
M  V30 13182 N 1225.34 0.486708 1.49896 0
M  V30 13183 C 1226.31 -0.288126 2.27382 0
M  V30 13184 C 1227.31 -0.906675 1.32801 0
M  V30 13185 O 1228.5 -0.773425 1.56089 0
M  V30 13186 C 1225.63 -1.41194 3.10285 0
M  V30 13187 H 1226.82 0.391618 2.97332 0
M  V30 13188 H 1224.38 0.24123 1.54427 0
M  V30 13189 H 1225.11 -2.12627 2.44868 0
M  V30 13190 H 1224.9 -0.974033 3.79809 0
M  V30 13191 H 1226.39 -1.95812 3.68846 0
M  V30 13192 N 1226.82 -1.56058 0.219941 0
M  V30 13193 C 1227.73 -2.23844 -0.70222 0
M  V30 13194 C 1228.75 -1.24554 -1.215 0
M  V30 13195 O 1229.93 -1.57362 -1.25695 0
M  V30 13196 C 1226.99 -2.90384 -1.89416 0
M  V30 13197 C 1226.05 -4.05012 -1.42351 0
M  V30 13198 C 1225.28 -4.68369 -2.55863 0
M  V30 13199 O 1225.51 -4.3071 -3.73958 0
M  V30 13200 O 1224.44 -5.5739 -2.27157 0
M  V30 13201 H 1228.27 -3.03305 -0.15478 0
M  V30 13202 H 1225.85 -1.49396 -0.010438 0
M  V30 13203 H 1227.73 -3.32389 -2.59028 0
M  V30 13204 H 1226.41 -2.13883 -2.42973 0
M  V30 13205 H 1225.32 -3.67579 -0.695448 0
M  V30 13206 H 1226.65 -4.83251 -0.934332 0
M  V30 13207 N 1228.3 0.053464 -1.57509 0
M  V30 13208 C 1229.55 0.749102 -1.88135 0
M  V30 13209 C 1229.88 1.76642 -0.814111 0
M  V30 13210 O 1229.13 1.94796 0.187845 0
M  V30 13211 C 1229.43 1.47666 -3.25468 0
M  V30 13212 C 1229.1 0.597619 -4.46922 0
M  V30 13213 C 1227.76 0.355429 -4.79886 0
M  V30 13214 C 1230.11 -0.0107869 -5.21199 0
M  V30 13215 C 1227.44 -0.504347 -5.84528 0
M  V30 13216 C 1229.79 -0.858123 -6.26753 0
M  V30 13217 C 1228.45 -1.11001 -6.58206 0
M  V30 13218 H 1227.72 0.274116 -0.688434 0
M  V30 13219 H 1230.37 0.00944162 -1.91498 0
M  V30 13220 H 1228.68 2.28901 -3.1798 0
M  V30 13221 H 1230.37 2.02002 -3.46404 0
M  V30 13222 H 1226.96 0.796526 -4.21134 0
M  V30 13223 H 1231.15 0.163404 -4.96031 0
M  V30 13224 H 1226.4 -0.708057 -6.07286 0
M  V30 13225 H 1230.58 -1.3362 -6.83461 0
M  V30 13226 H 1228.2 -1.77798 -7.39116 0
M  V30 13227 N 1229.78 1.54207 0.325255 0
M  V30 13228 C 1231.2 1.44879 0.669492 0
M  V30 13229 C 1231.4 0.620298 1.91715 0
M  V30 13230 O 1230.45 0.118435 2.52222 0
M  V30 13231 C 1231.76 2.88581 0.845077 0
M  V30 13232 C 1233.31 2.98472 0.942527 0
M  V30 13233 C 1233.79 4.4332 1.15029 0
M  V30 13234 N 1235.28 4.46925 1.21707 0
M  V30 13235 C 1236.01 5.56155 1.39568 0
M  V30 13236 N 1235.51 6.75357 1.54483 0
M  V30 13237 N 1237.3 5.43799 1.42263 0
M  V30 13238 H 1229.45 2.06556 -0.494819 0
M  V30 13239 H 1231.72 0.934474 -0.159568 0
M  V30 13240 H 1231.42 3.517 -0.000442996 0
M  V30 13241 H 1231.3 3.34596 1.74141 0
M  V30 13242 H 1233.68 2.35481 1.77855 0
M  V30 13243 H 1233.76 2.5579 0.0226995 0
M  V30 13244 H 1233.41 5.06896 0.319127 0
M  V30 13245 H 1233.34 4.8361 2.08397 0
M  V30 13246 H 1235.83 3.61036 1.11632 0
M  V30 13247 H 1236.14 7.54363 1.67799 0
M  V30 13248 H 1234.49 6.78268 1.51584 0
M  V30 13249 H 1237.68 4.49627 1.30205 0
M  V30 13250 H 1237.85 6.28982 1.5584 0
M  V30 13251 N 1231.26 -0.58723 1.46251 0
M  V30 13252 C 1232.19 -1.70694 1.5933 0
M  V30 13253 C 1233.17 -1.64208 0.443831 0
M  V30 13254 O 1234.35 -1.82294 0.669516 0
M  V30 13255 C 1231.48 -3.0933 1.579 0
M  V30 13256 C 1230.44 -3.30643 2.7177 0
M  V30 13257 C 1229.76 -4.69761 2.554 0
M  V30 13258 C 1231.06 -3.18916 4.1363 0
M  V30 13259 H 1232.76 -1.60004 2.53059 0
M  V30 13260 H 1230.3 -0.768343 1.21789 0
M  V30 13261 H 1232.26 -3.87479 1.65644 0
M  V30 13262 H 1230.98 -3.20907 0.60712 0
M  V30 13263 H 1229.64 -2.54892 2.63488 0
M  V30 13264 H 1229.29 -4.78098 1.56306 0
M  V30 13265 H 1228.99 -4.84974 3.31774 0
M  V30 13266 H 1230.51 -5.50084 2.65028 0
M  V30 13267 H 1231.93 -3.86915 4.23048 0
M  V30 13268 H 1230.32 -3.45653 4.90555 0
M  V30 13269 H 1231.39 -2.1606 4.34104 0
M  V30 13270 N 1232.74 -1.33881 -0.831482 0
M  V30 13271 C 1233.96 -1.28961 -1.62431 0
M  V30 13272 C 1234.39 0.135249 -1.87613 0
M  V30 13273 O 1233.74 1.09426 -1.44553 0
M  V30 13274 C 1233.79 -2.07767 -2.94729 0
M  V30 13275 O 1232.9 -1.44133 -3.86393 0
M  V30 13276 H 1232.24 -0.443313 -0.494337 0
M  V30 13277 H 1234.77 -1.76555 -1.0339 0
M  V30 13278 H 1234.78 -2.18806 -3.44366 0
M  V30 13279 H 1233.45 -3.11367 -2.75724 0
M  V30 13280 H 1232.03 -1.41784 -3.44894 0
M  V30 13281 N 1234.21 1.05064 -1.1747 0
M  V30 13282 C 1235.18 2.1101 -0.89485 0
M  V30 13283 C 1236.18 1.60384 0.11553 0
M  V30 13284 O 1237.37 1.73808 -0.116785 0
M  V30 13285 C 1234.5 3.39194 -0.340642 0
M  V30 13286 H 1235.69 2.37269 -1.83421 0
M  V30 13287 H 1233.24 1.21329 -0.985343 0
M  V30 13288 H 1233.98 3.18591 0.605808 0
M  V30 13289 H 1233.76 3.77251 -1.06885 0
M  V30 13290 H 1235.25 4.17281 -0.163204 0
M  V30 13291 N 1235.69 0.975146 1.23809 0
M  V30 13292 C 1237.1 0.678873 1.7392 0
M  V30 13293 C 1237.45 -0.805133 1.78919 0
M  V30 13294 O 1236.58 -1.62984 1.42356 0
M  V30 13295 C 1237.17 1.22562 3.15854 0
M  V30 13296 C 1235.73 0.979096 3.63443 0
M  V30 13297 C 1234.88 1.35649 2.41857 0
M  V30 13298 H 1237.83 1.14961 1.09406 0
M  V30 13299 H 1237.85 0.595489 3.75811 0
M  V30 13300 H 1237.36 2.30571 3.12184 0
M  V30 13301 H 1235.46 -0.0851407 3.72503 0
M  V30 13302 H 1235.58 1.62998 4.5052 0
M  V30 13303 H 1233.94 0.774916 2.42626 0
M  V30 13304 H 1234.72 2.44624 2.40861 0
M  V30 13305 N 1237.17 -1.38817 0.746158 0
M  V30 13306 C 1238.42 -2.00577 0.299458 0
M  V30 13307 C 1238.75 -1.59087 -1.11378 0
M  V30 13308 O 1238.02 -0.824932 -1.7614 0
M  V30 13309 C 1238.31 -3.57713 0.413932 0
M  V30 13310 C 1238.16 -4.09189 1.86774 0
M  V30 13311 C 1239.48 -4.39659 -0.197082 0
M  V30 13312 H 1236.6 -0.728702 0.110285 0
M  V30 13313 H 1239.24 -1.64866 0.944408 0
M  V30 13314 H 1237.39 -3.88265 -0.135155 0
M  V30 13315 H 1239.06 -3.89311 2.47456 0
M  V30 13316 H 1237.3 -3.62333 2.38532 0
M  V30 13317 H 1237.98 -5.18305 1.89904 0
M  V30 13318 H 1240.45 -4.15216 0.271121 0
M  V30 13319 H 1239.33 -5.48832 -0.0867011 0
M  V30 13320 H 1239.59 -4.23028 -1.2845 0
M  V30 13321 N 1238.65 -0.49465 -1.49636 0
M  V30 13322 C 1240.06 -0.150217 -1.58892 0
M  V30 13323 C 1240.26 1.34485 -1.50053 0
M  V30 13324 O 1239.32 2.12026 -1.37118 0
M  V30 13325 C 1240.63 -0.721372 -2.91919 0
M  V30 13326 C 1242.18 -0.686908 -3.0537 0
M  V30 13327 C 1242.66 -1.23601 -4.41006 0
M  V30 13328 N 1244.15 -1.19644 -4.47481 0
M  V30 13329 C 1244.88 -1.59157 -5.50869 0
M  V30 13330 N 1244.38 -2.06232 -6.61393 0
M  V30 13331 N 1246.17 -1.50612 -5.41546 0
M  V30 13332 H 1238.32 -1.46675 -1.53624 0
M  V30 13333 H 1240.58 -0.608003 -0.727349 0
M  V30 13334 H 1240.29 -1.76964 -3.03935 0
M  V30 13335 H 1240.16 -0.178199 -3.76779 0
M  V30 13336 H 1242.55 0.352508 -2.92987 0
M  V30 13337 H 1242.63 -1.26716 -2.22209 0
M  V30 13338 H 1242.28 -2.27418 -4.5414 0
M  V30 13339 H 1242.21 -0.631765 -5.22797 0
M  V30 13340 H 1244.7 -0.851443 -3.68183 0
M  V30 13341 H 1245.01 -2.34469 -7.36372 0
M  V30 13342 H 1243.36 -2.10202 -6.6245 0
M  V30 13343 H 1246.55 -1.13659 -4.54092 0
M  V30 13344 H 1246.72 -1.8173 -6.21995 0
M  V30 13345 N 1240.13 1.55939 -0.228214 0
M  V30 13346 C 1241.4 1.90329 0.451033 0
M  V30 13347 C 1241.78 1.14646 1.77255 0
M  V30 13348 O 1241.13 0.257912 2.2704 0
M  V30 13349 C 1241.34 3.43129 0.637456 0
M  V30 13350 C 1242.69 4.14022 0.94186 0
M  V30 13351 O 1243.71 3.48764 0.724002 0
M  V30 13352 O 1242.57 5.29418 1.35568 0
M  V30 13353 H 1239.67 0.791591 0.2394 0
M  V30 13354 H 1242.21 1.67524 -0.270893 0
M  V30 13355 H 1240.98 3.90191 -0.294435 0
M  V30 13356 H 1240.61 3.71735 1.41062 0
M  V30 13357 N 1241.6 -0.0451101 1.57535 0
M  V30 13358 C 1242.53 -1.05046 2.08537 0
M  V30 13359 C 1243.52 -1.3872 0.984418 0
M  V30 13360 O 1244.7 -1.47884 1.25873 0
M  V30 13361 C 1241.83 -2.3562 2.55148 0
M  V30 13362 C 1240.78 -2.16231 3.69362 0
M  V30 13363 C 1240.11 -3.52423 4.02122 0
M  V30 13364 C 1241.41 -1.56159 4.98409 0
M  V30 13365 H 1243.1 -0.625965 2.92783 0
M  V30 13366 H 1240.65 -0.299657 1.40848 0
M  V30 13367 H 1242.6 -3.06266 2.89446 0
M  V30 13368 H 1241.33 -2.80099 1.67964 0
M  V30 13369 H 1239.99 -1.4802 3.35389 0
M  V30 13370 H 1239.63 -3.94522 3.12028 0
M  V30 13371 H 1239.33 -3.4028 4.79044 0
M  V30 13372 H 1240.86 -4.24458 4.38939 0
M  V30 13373 H 1242.27 -2.16703 5.30766 0
M  V30 13374 H 1240.67 -1.54638 5.79834 0
M  V30 13375 H 1241.74 -0.525698 4.82042 0
M  V30 13376 N 1243.08 -1.54377 -0.317073 0
M  V30 13377 C 1244.01 -1.8721 -1.39552 0
M  V30 13378 C 1244.99 -0.729483 -1.53664 0
M  V30 13379 O 1246.18 -0.983799 -1.67437 0
M  V30 13380 C 1243.31 -2.1052 -2.76222 0
M  V30 13381 C 1242.26 -3.26366 -2.76892 0
M  V30 13382 C 1241.59 -3.35061 -4.16699 0
M  V30 13383 C 1242.89 -4.63862 -2.40061 0
M  V30 13384 H 1244.58 -2.77532 -1.12323 0
M  V30 13385 H 1242.13 -1.33536 -0.538897 0
M  V30 13386 H 1244.08 -2.32073 -3.51739 0
M  V30 13387 H 1242.81 -1.16953 -3.04942 0
M  V30 13388 H 1241.46 -3.0471 -2.03831 0
M  V30 13389 H 1241.11 -2.39041 -4.4257 0
M  V30 13390 H 1240.81 -4.12923 -4.18053 0
M  V30 13391 H 1242.34 -3.58856 -4.94019 0
M  V30 13392 H 1243.75 -4.85252 -3.05292 0
M  V30 13393 H 1242.15 -5.44321 -2.52655 0
M  V30 13394 H 1243.22 -4.6567 -1.35202 0
M  V30 13395 N 1244.56 0.579466 -1.4656 0
M  V30 13396 C 1245.84 1.33973 -1.42515 0
M  V30 13397 C 1246.22 2.10812 -0.110317 0
M  V30 13398 O 1245.57 2.09679 0.908135 0
M  V30 13399 C 1245.78 2.26301 -2.65686 0
M  V30 13400 C 1247.12 2.88027 -3.1197 0
M  V30 13401 O 1248.15 2.36612 -2.66257 0
M  V30 13402 O 1247.01 3.81423 -3.9138 0
M  V30 13403 H 1244.1 0.602121 -0.566903 0
M  V30 13404 H 1246.65 0.600214 -1.58731 0
M  V30 13405 H 1245.42 1.68973 -3.52936 0
M  V30 13406 H 1245.04 3.07586 -2.51945 0
M  V30 13407 N 1246.04 1.3432 0.824371 0
M  V30 13408 C 1247.28 1.26783 1.58284 0
M  V30 13409 C 1247.62 -0.162282 1.93521 0
M  V30 13410 O 1246.89 -1.1073 1.59903 0
M  V30 13411 C 1247.18 2.15725 2.88331 0
M  V30 13412 C 1247.03 3.67266 2.59684 0
M  V30 13413 C 1248.35 2.04141 3.8989 0
M  V30 13414 H 1245.47 0.461893 0.574303 0
M  V30 13415 H 1248.11 1.64558 0.949769 0
M  V30 13416 H 1246.26 1.83639 3.42358 0
M  V30 13417 H 1247.93 4.09711 2.11978 0
M  V30 13418 H 1246.17 3.88426 1.93151 0
M  V30 13419 H 1246.84 4.24863 3.52414 0
M  V30 13420 H 1249.32 2.3231 3.45212 0
M  V30 13421 H 1248.2 2.68601 4.7869 0
M  V30 13422 H 1248.46 1.01795 4.30221 0
M  V30 13423 N 1247.52 -1.0444 1.18026 0
M  V30 13424 C 1248.45 -2.14297 0.927314 0
M  V30 13425 C 1249.43 -1.69575 -0.13357 0
M  V30 13426 O 1250.61 -1.94191 0.0182439 0
M  V30 13427 C 1247.74 -3.44397 0.448134 0
M  V30 13428 C 1246.7 -4.02723 1.44907 0
M  V30 13429 C 1246.02 -5.28257 0.827555 0
M  V30 13430 C 1247.32 -4.39331 2.82463 0
M  V30 13431 H 1249.02 -2.35715 1.84605 0
M  V30 13432 H 1246.56 -1.13281 0.889012 0
M  V30 13433 H 1248.52 -4.20606 0.258554 0
M  V30 13434 H 1247.24 -3.22654 -0.506159 0
M  V30 13435 H 1245.9 -3.28591 1.62552 0
M  V30 13436 H 1245.55 -5.02822 -0.13381 0
M  V30 13437 H 1245.25 -5.68242 1.49581 0
M  V30 13438 H 1246.77 -6.07147 0.64842 0
M  V30 13439 H 1248.18 -5.06543 2.68491 0
M  V30 13440 H 1246.58 -4.90355 3.45936 0
M  V30 13441 H 1247.65 -3.4933 3.36299 0
M  V30 13442 N 1248.99 -0.981699 -1.2329 0
M  V30 13443 C 1249.94 -0.52269 -2.24803 0
M  V30 13444 C 1250.91 0.439116 -1.6019 0
M  V30 13445 O 1252.1 0.346372 -1.8763 0
M  V30 13446 C 1249.24 0.167477 -3.44693 0
M  V30 13447 C 1248.35 -0.834744 -4.23858 0
M  V30 13448 C 1247.48 -0.119249 -5.31066 0
M  V30 13449 C 1246.52 -1.1106 -6.0194 0
M  V30 13450 N 1245.66 -0.424167 -7.00818 0
M  V30 13451 H 1250.5 -1.39312 -2.63431 0
M  V30 13452 H 1248.04 -0.698061 -1.29482 0
M  V30 13453 H 1250 0.584442 -4.13086 0
M  V30 13454 H 1248.63 1.00177 -3.06862 0
M  V30 13455 H 1247.68 -1.37009 -3.5487 0
M  V30 13456 H 1248.99 -1.59012 -4.72776 0
M  V30 13457 H 1248.14 0.355015 -6.0566 0
M  V30 13458 H 1246.88 0.668714 -4.83094 0
M  V30 13459 H 1245.89 -1.5956 -5.26138 0
M  V30 13460 H 1247.11 -1.89924 -6.52001 0
M  V30 13461 H 1245.06 0.344564 -6.55094 0
M  V30 13462 H 1244.98 -1.11817 -7.47685 0
M  V30 13463 H 1246.24 0.0276655 -7.79495 0
M  V30 13464 N 1250.47 1.3842 -0.753509 0
M  V30 13465 C 1251.7 2.04929 -0.319174 0
M  V30 13466 C 1252.12 1.56457 1.04416 0
M  V30 13467 O 1251.48 0.716527 1.6654 0
M  V30 13468 C 1251.53 3.58887 -0.351054 0
M  V30 13469 O 1250.63 4.07166 0.654963 0
M  V30 13470 H 1249.97 0.648782 -0.141343 0
M  V30 13471 H 1252.5 1.77096 -1.02461 0
M  V30 13472 H 1252.51 4.075 -0.201907 0
M  V30 13473 H 1251.19 3.93525 -1.34576 0
M  V30 13474 H 1249.77 3.69921 0.470435 0
M  V30 13475 N 1251.95 0.502579 1.49372 0
M  V30 13476 C 1252.9 -0.275004 2.29156 0
M  V30 13477 C 1253.87 -0.95892 1.35624 0
M  V30 13478 O 1255.05 -0.965276 1.64581 0
M  V30 13479 C 1252.19 -1.33255 3.18335 0
M  V30 13480 C 1251.31 -0.660248 4.26925 0
M  V30 13481 C 1250.44 -1.69837 5.03318 0
M  V30 13482 C 1249.48 -1.00802 6.03743 0
M  V30 13483 N 1248.62 -1.99042 6.73295 0
M  V30 13484 H 1253.46 0.411599 2.95144 0
M  V30 13485 H 1250.99 0.214824 1.45523 0
M  V30 13486 H 1252.95 -1.95769 3.68416 0
M  V30 13487 H 1251.58 -1.98789 2.54328 0
M  V30 13488 H 1250.63 0.0782181 3.8032 0
M  V30 13489 H 1251.95 -0.11689 4.98663 0
M  V30 13490 H 1251.1 -2.39852 5.57275 0
M  V30 13491 H 1249.84 -2.27558 4.31357 0
M  V30 13492 H 1248.84 -0.293654 5.49015 0
M  V30 13493 H 1250.07 -0.437285 6.77691 0
M  V30 13494 H 1248.01 -2.55722 6.04104 0
M  V30 13495 H 1247.93 -1.49776 7.41015 0
M  V30 13496 H 1249.2 -2.6834 7.31856 0
M  V30 13497 N 1253.43 -1.55816 0.23648 0
M  V30 13498 C 1254.36 -2.18248 -0.700024 0
M  V30 13499 C 1255.37 -1.15579 -1.14654 0
M  V30 13500 O 1256.56 -1.42491 -1.07511 0
M  V30 13501 C 1253.66 -2.76338 -1.9619 0
M  V30 13502 C 1252.84 -4.04325 -1.66853 0
M  V30 13503 C 1251.89 -4.46834 -2.77895 0
M  V30 13504 O 1250.92 -5.13427 -2.45725 0
M  V30 13505 N 1252.12 -4.13753 -4.07171 0
M  V30 13506 H 1254.89 -2.99241 -0.16589 0
M  V30 13507 H 1252.45 -1.61803 0.0560383 0
M  V30 13508 H 1254.44 -3.01739 -2.69695 0
M  V30 13509 H 1253.01 -1.99563 -2.4061 0
M  V30 13510 H 1252.23 -3.86623 -0.769164 0
M  V30 13511 H 1253.52 -4.8779 -1.44703 0
M  V30 13512 H 1252.92 -3.60271 -4.36144 0
M  V30 13513 H 1251.47 -4.44014 -4.77174 0
M  V30 13514 N 1254.91 0.036755 -1.57557 0
M  V30 13515 C 1256.14 0.740011 -1.92892 0
M  V30 13516 C 1256.54 1.69828 -0.833964 0
M  V30 13517 O 1255.89 1.82619 0.198974 0
M  V30 13518 C 1255.95 1.55827 -3.23972 0
M  V30 13519 C 1255.61 0.765613 -4.50541 0
M  V30 13520 C 1256.61 0.0692686 -5.19854 0
M  V30 13521 C 1254.3 0.722425 -4.97078 0
M  V30 13522 C 1256.29 -0.659649 -6.33977 0
M  V30 13523 C 1253.98 -0.0102431 -6.11099 0
M  V30 13524 C 1254.97 -0.700047 -6.79403 0
M  V30 13525 O 1254.66 -1.42084 -7.91244 0
M  V30 13526 H 1254.39 0.213496 -0.641401 0
M  V30 13527 H 1256.95 0.000665152 -2.054 0
M  V30 13528 H 1255.18 2.34125 -3.0777 0
M  V30 13529 H 1256.87 2.14343 -3.44691 0
M  V30 13530 H 1257.63 0.0937148 -4.84909 0
M  V30 13531 H 1253.51 1.24883 -4.43763 0
M  V30 13532 H 1257.06 -1.19861 -6.87226 0
M  V30 13533 H 1252.95 -0.0366395 -6.4549 0
M  V30 13534 H 1253.72 -1.33372 -8.07561 0
M  V30 13535 N 1256.39 1.54543 0.308881 0
M  V30 13536 C 1257.63 1.73706 1.04661 0
M  V30 13537 C 1257.96 0.517111 1.87189 0
M  V30 13538 O 1257.24 -0.485856 1.88334 0
M  V30 13539 C 1257.52 3.02141 1.95916 0
M  V30 13540 C 1257.38 4.34419 1.1662 0
M  V30 13541 C 1258.69 3.26401 2.95213 0
M  V30 13542 H 1255.81 0.63203 0.379087 0
M  V30 13543 H 1258.46 1.87253 0.321947 0
M  V30 13544 H 1256.61 2.90723 2.57706 0
M  V30 13545 H 1258.28 4.57743 0.571772 0
M  V30 13546 H 1256.52 4.3126 0.468747 0
M  V30 13547 H 1257.19 5.20535 1.83704 0
M  V30 13548 H 1259.67 3.37377 2.43549 0
M  V30 13549 H 1258.54 4.17597 3.56235 0
M  V30 13550 H 1258.8 2.44322 3.68455 0
M  V30 13551 N 1257.86 -0.571685 1.46866 0
M  V30 13552 C 1258.81 -1.67992 1.58263 0
M  V30 13553 C 1259.78 -1.60535 0.426345 0
M  V30 13554 O 1260.97 -1.79584 0.644534 0
M  V30 13555 C 1258.11 -3.06327 1.58927 0
M  V30 13556 C 1257.22 -3.24328 2.85369 0
M  V30 13557 C 1256.35 -4.52976 2.77464 0
M  V30 13558 C 1255.39 -4.64359 3.98795 0
M  V30 13559 N 1254.53 -5.84345 3.89211 0
M  V30 13560 H 1259.37 -1.57589 2.52922 0
M  V30 13561 H 1256.91 -0.767883 1.25467 0
M  V30 13562 H 1258.86 -3.86411 1.57296 0
M  V30 13563 H 1257.49 -3.15601 0.677912 0
M  V30 13564 H 1256.55 -2.37774 2.96931 0
M  V30 13565 H 1257.86 -3.28605 3.7526 0
M  V30 13566 H 1257.01 -5.41303 2.74001 0
M  V30 13567 H 1255.75 -4.51155 1.85231 0
M  V30 13568 H 1254.76 -3.74448 4.02578 0
M  V30 13569 H 1255.98 -4.6795 4.92137 0
M  V30 13570 H 1253.93 -5.835 2.99772 0
M  V30 13571 H 1253.84 -5.89938 4.72768 0
M  V30 13572 H 1255.11 -6.75072 3.89741 0
M  V30 13573 N 1259.34 -1.34755 -0.817236 0
M  V30 13574 C 1260.59 -1.2762 -1.5761 0
M  V30 13575 C 1260.92 0.152017 -1.93604 0
M  V30 13576 O 1260.2 1.09881 -1.60488 0
M  V30 13577 C 1260.48 -2.17251 -2.87183 0
M  V30 13578 C 1260.33 -3.68638 -2.57733 0
M  V30 13579 C 1261.65 -2.06206 -3.88802 0
M  V30 13580 H 1258.77 -0.464933 -0.571845 0
M  V30 13581 H 1261.41 -1.6506 -0.941028 0
M  V30 13582 H 1259.56 -1.85452 -3.41379 0
M  V30 13583 H 1261.23 -4.10829 -2.09802 0
M  V30 13584 H 1259.48 -3.89445 -1.91089 0
M  V30 13585 H 1260.15 -4.26726 -3.50156 0
M  V30 13586 H 1262.62 -2.34137 -3.43975 0
M  V30 13587 H 1261.5 -2.71136 -4.77259 0
M  V30 13588 H 1261.76 -1.04075 -4.29675 0
M  V30 13589 N 1260.82 1.03812 -1.18578 0
M  V30 13590 C 1261.75 2.11928 -0.872871 0
M  V30 13591 C 1262.76 1.62275 0.130592 0
M  V30 13592 O 1263.95 1.78233 -0.0975869 0
M  V30 13593 C 1261.05 3.37714 -0.283321 0
M  V30 13594 C 1260.23 4.16591 -1.33307 0
M  V30 13595 C 1259.29 5.20701 -0.758746 0
M  V30 13596 O 1258.31 5.50837 -1.43412 0
M  V30 13597 N 1259.51 5.78811 0.442505 0
M  V30 13598 H 1262.28 2.39364 -1.80346 0
M  V30 13599 H 1259.84 1.20027 -1.08652 0
M  V30 13600 H 1261.83 4.04538 0.114524 0
M  V30 13601 H 1260.4 3.07699 0.551347 0
M  V30 13602 H 1259.62 3.45051 -1.90613 0
M  V30 13603 H 1260.91 4.66082 -2.04071 0
M  V30 13604 H 1260.31 5.56631 1.00889 0
M  V30 13605 H 1258.86 6.47089 0.78224 0
M  V30 13606 N 1262.3 0.988223 1.22768 0
M  V30 13607 C 1263.55 0.656941 1.90702 0
M  V30 13608 C 1263.86 -0.814058 1.77855 0
M  V30 13609 O 1265.07 -1.25673 2.40663 0
M  V30 13610 C 1263.52 1.12445 3.41883 0
M  V30 13611 C 1263.13 2.62034 3.63376 0
M  V30 13612 C 1264.87 0.867277 4.15546 0
M  V30 13613 C 1262.78 3.02412 5.08233 0
M  V30 13614 H 1261.71 0.242012 0.714105 0
M  V30 13615 H 1264.36 1.19716 1.39069 0
M  V30 13616 H 1262.74 0.512386 3.92671 0
M  V30 13617 H 1263.92 3.28546 3.23101 0
M  V30 13618 H 1262.23 2.85583 3.03037 0
M  V30 13619 H 1264.83 1.14471 5.22303 0
M  V30 13620 H 1265.17 -0.196611 4.15835 0
M  V30 13621 H 1265.71 1.4413 3.70771 0
M  V30 13622 H 1262.44 4.07957 5.1308 0
M  V30 13623 H 1261.96 2.406 5.49429 0
M  V30 13624 H 1263.64 2.93452 5.76624 0
M  V30 13625 N 1263.78 -1.38018 0.760839 0
M  V30 13626 C 1265.19 -1.82645 0.387022 0
M  V30 13627 C 1265.54 -1.63445 -1.08536 0
M  V30 13628 O 1264.66 -1.13958 -1.83963 0
M  V30 13629 C 1265.26 -3.3158 0.69569 0
M  V30 13630 C 1263.82 -3.74527 0.375063 0
M  V30 13631 C 1262.96 -2.60696 0.94515 0
M  V30 13632 H 1265.91 -1.26644 0.956396 0
M  V30 13633 H 1265.94 -3.80493 -0.0235511 0
M  V30 13634 H 1265.45 -3.45522 1.76737 0
M  V30 13635 H 1263.55 -3.6616 -0.689741 0
M  V30 13636 H 1263.66 -4.71029 0.875685 0
M  V30 13637 H 1262.03 -2.51997 0.370065 0
M  V30 13638 H 1262.81 -2.77434 2.02201 0
M  V30 13639 N 1265.25 -0.510493 -1.49103 0
M  V30 13640 C 1266.5 0.0305831 -2.02077 0
M  V30 13641 C 1266.82 1.36602 -1.39157 0
M  V30 13642 O 1266.09 1.88016 -0.550154 0
M  V30 13643 H 1264.67 0.0142916 -0.746863 0
M  V30 13644 H 1267.33 -0.669895 -1.83026 0
M  V30 13645 H 1266.43 0.153283 -3.11723 0
M  V30 13646 N 1266.73 1.55688 -0.24474 0
M  V30 13647 C 1267.66 2.24272 0.64995 0
M  V30 13648 C 1268.64 1.22226 1.183 0
M  V30 13649 O 1269.83 1.50873 1.22274 0
M  V30 13650 C 1266.96 2.94053 1.84798 0
M  V30 13651 C 1265.91 4.02769 1.44779 0
M  V30 13652 C 1265.24 4.59965 2.72647 0
M  V30 13653 C 1266.54 5.18601 0.62047 0
M  V30 13654 H 1268.23 2.99298 0.0780654 0
M  V30 13655 H 1265.78 1.43955 0.0361069 0
M  V30 13656 H 1267.73 3.40732 2.47951 0
M  V30 13657 H 1266.45 2.16511 2.44521 0
M  V30 13658 H 1265.11 3.56856 0.839609 0
M  V30 13659 H 1264.76 3.79126 3.30564 0
M  V30 13660 H 1264.46 5.33352 2.46596 0
M  V30 13661 H 1265.99 5.09376 3.36703 0
M  V30 13662 H 1267.4 5.61519 1.15625 0
M  V30 13663 H 1265.8 5.98364 0.456097 0
M  V30 13664 H 1266.87 4.83503 -0.367798 0
M  V30 13665 N 1268.21 -0.0283989 1.57574 0
M  V30 13666 C 1269.12 -1.04575 2.10003 0
M  V30 13667 C 1270.14 -1.39588 1.03881 0
M  V30 13668 O 1271.31 -1.48894 1.35619 0
M  V30 13669 C 1268.38 -2.32755 2.56955 0
M  V30 13670 C 1267.44 -2.04317 3.77562 0
M  V30 13671 C 1266.67 -3.26385 4.22266 0
M  V30 13672 O 1266.89 -4.37082 3.66491 0
M  V30 13673 O 1265.83 -3.12046 5.14695 0
M  V30 13674 H 1269.65 -0.630183 2.9709 0
M  V30 13675 H 1267.24 -0.245423 1.4737 0
M  V30 13676 H 1269.12 -3.08111 2.87482 0
M  V30 13677 H 1267.8 -2.73605 1.72979 0
M  V30 13678 H 1266.7 -1.26527 3.52054 0
M  V30 13679 H 1268.04 -1.68321 4.62524 0
M  V30 13680 N 1269.69 -1.54705 -0.300681 0
M  V30 13681 C 1270.64 -1.86433 -1.39087 0
M  V30 13682 C 1271.63 -0.738101 -1.52474 0
M  V30 13683 O 1272.84 -0.922096 -1.54588 0
M  V30 13684 H 1269.21 -0.591314 -0.464599 0
M  V30 13685 H 1271.18 -2.77558 -1.09563 0
M  V30 13686 C 1269.93 -2.1286 -2.74929 0
M  V30 13687 H 1269.25 -2.98994 -2.6541 0
M  V30 13688 H 1270.69 -2.39 -3.50222 0
M  V30 13689 C 1269.15 -0.92726 -3.23888 0
M  V30 13690 O 1269.68 -0.147921 -4.01428 0
M  V30 13691 N 1267.89 -0.732553 -2.81215 0
M  V30 13692 H 1267.44 -1.36797 -2.18276 0
M  V30 13693 H 1267.39 0.0696902 -3.14323 0
M  V30 13694 N 1271.17 0.563888 -1.47167 0
M  V30 13695 C 1272.1 1.68137 -1.62025 0
M  V30 13696 C 1273.08 1.63481 -0.469899 0
M  V30 13697 O 1274.26 1.81206 -0.698432 0
M  V30 13698 C 1271.39 3.06779 -1.62801 0
M  V30 13699 C 1270.35 3.26278 -2.76996 0
M  V30 13700 C 1269.67 4.65638 -2.62841 0
M  V30 13701 C 1270.97 3.12295 -4.18651 0
M  V30 13702 H 1272.67 1.55958 -2.55573 0
M  V30 13703 H 1270.21 0.74887 -1.22996 0
M  V30 13704 H 1272.17 3.84795 -1.71787 0
M  V30 13705 H 1270.89 3.19901 -0.658097 0
M  V30 13706 H 1269.55 2.50668 -2.67509 0
M  V30 13707 H 1269.2 4.75551 -1.63892 0
M  V30 13708 H 1268.9 4.79635 -3.39447 0
M  V30 13709 H 1270.42 5.45798 -2.73746 0
M  V30 13710 H 1271.83 3.80136 -4.2915 0
M  V30 13711 H 1270.23 3.37805 -4.95992 0
M  V30 13712 H 1271.3 2.09126 -4.37486 0
M  V30 13713 N 1272.64 1.35187 0.810078 0
M  V30 13714 C 1273.58 1.23673 1.92971 0
M  V30 13715 C 1274.59 0.160819 1.62004 0
M  V30 13716 O 1275.78 0.413793 1.73638 0
M  V30 13717 C 1272.88 0.880887 3.27252 0
M  V30 13718 C 1272.05 2.05444 3.86149 0
M  V30 13719 C 1271.11 1.67494 4.98831 0
M  V30 13720 O 1270.14 2.39322 5.16443 0
M  V30 13721 N 1271.34 0.596539 5.77427 0
M  V30 13722 H 1274.1 2.20133 2.03376 0
M  V30 13723 H 1271.66 1.2831 0.987322 0
M  V30 13724 H 1273.66 0.608556 4.00098 0
M  V30 13725 H 1272.23 0.00607926 3.12599 0
M  V30 13726 H 1271.45 2.49077 3.05539 0
M  V30 13727 H 1272.73 2.83898 4.22231 0
M  V30 13728 H 1272.13 -0.000312591 5.657 0
M  V30 13729 H 1270.69 0.383979 6.50668 0
M  V30 13730 N 1274.12 -1.03182 1.19127 0
M  V30 13731 C 1275.06 -2.10977 0.869702 0
M  V30 13732 C 1276.03 -1.61687 -0.172032 0
M  V30 13733 O 1277.22 -1.88436 -0.0490025 0
M  V30 13734 C 1274.34 -3.37359 0.301049 0
M  V30 13735 C 1273.39 -4.05515 1.32137 0
M  V30 13736 S 1274.22 -4.51415 2.88071 0
M  V30 13737 C 1275.38 -5.81018 2.32741 0
M  V30 13738 H 1275.61 -2.37929 1.78261 0
M  V30 13739 H 1273.15 -1.16079 1.01809 0
M  V30 13740 H 1275.1 -4.10495 -0.0205205 0
M  V30 13741 H 1273.76 -3.08507 -0.590118 0
M  V30 13742 H 1272.96 -4.9639 0.872547 0
M  V30 13743 H 1272.56 -3.38536 1.58963 0
M  V30 13744 H 1274.85 -6.5542 1.71552 0
M  V30 13745 H 1275.79 -6.30677 3.21951 0
M  V30 13746 H 1276.2 -5.36549 1.75429 0
M  V30 13747 N 1275.6 -0.99472 -1.22242 0
M  V30 13748 C 1276.85 -0.671602 -1.91039 0
M  V30 13749 C 1277.18 0.796543 -1.77441 0
M  V30 13750 O 1276.43 1.59179 -1.13845 0
M  V30 13751 C 1276.73 -1.02561 -3.42368 0
M  V30 13752 C 1276.4 -2.48632 -3.76155 0
M  V30 13753 C 1275.06 -2.88549 -3.85088 0
M  V30 13754 C 1277.41 -3.43302 -3.92165 0
M  V30 13755 C 1274.74 -4.22121 -4.07469 0
M  V30 13756 C 1277.09 -4.76534 -4.1605 0
M  V30 13757 C 1275.75 -5.1619 -4.23207 0
M  V30 13758 H 1275.02 -0.245756 -0.69906 0
M  V30 13759 H 1277.67 -1.25125 -1.44969 0
M  V30 13760 H 1275.98 -0.364073 -3.90105 0
M  V30 13761 H 1277.67 -0.753612 -3.93855 0
M  V30 13762 H 1274.26 -2.16693 -3.69787 0
M  V30 13763 H 1278.45 -3.13633 -3.8464 0
M  V30 13764 H 1273.7 -4.52431 -4.11238 0
M  V30 13765 H 1277.88 -5.49835 -4.27381 0
M  V30 13766 H 1275.5 -6.19708 -4.40303 0
M  V30 13767 N 1277.08 1.37613 -0.768148 0
M  V30 13768 C 1278.32 2.00075 -0.331331 0
M  V30 13769 C 1278.66 1.60839 1.08833 0
M  V30 13770 O 1277.93 0.852849 1.74805 0
M  V30 13771 C 1278.22 3.57009 -0.470789 0
M  V30 13772 C 1278.07 4.06166 -1.9326 0
M  V30 13773 C 1279.39 4.39916 0.127111 0
M  V30 13774 H 1276.51 0.726855 -0.121864 0
M  V30 13775 H 1279.15 1.63343 -0.970518 0
M  V30 13776 H 1277.3 3.88431 0.0733688 0
M  V30 13777 H 1278.97 3.85325 -2.53618 0
M  V30 13778 H 1277.21 3.58492 -2.44266 0
M  V30 13779 H 1277.88 5.15219 -1.98125 0
M  V30 13780 H 1280.36 4.14732 -0.337144 0
M  V30 13781 H 1279.24 5.489 -0.000624226 0
M  V30 13782 H 1279.5 4.25018 1.21704 0
M  V30 13783 N 1278.56 0.518393 1.4883 0
M  V30 13784 C 1279.97 0.0749773 1.86549 0
M  V30 13785 C 1280.32 -1.34429 1.4291 0
M  V30 13786 O 1279.44 -2.00481 0.814648 0
M  V30 13787 C 1280.04 0.129289 3.38553 0
M  V30 13788 C 1278.6 -0.258871 3.75509 0
M  V30 13789 C 1277.74 0.494185 2.72861 0
M  V30 13790 H 1280.7 0.730266 1.409 0
M  V30 13791 H 1280.72 -0.661844 3.747 0
M  V30 13792 H 1280.23 1.16237 3.70285 0
M  V30 13793 H 1278.33 -1.29453 3.49389 0
M  V30 13794 H 1278.44 0.0726769 4.79045 0
M  V30 13795 H 1276.81 -0.0581428 2.54634 0
M  V30 13796 H 1277.59 1.52767 3.07436 0
M  V30 13797 N 1280.03 -1.55556 0.252993 0
M  V30 13798 C 1281.31 -1.91022 -0.420696 0
M  V30 13799 C 1281.69 -1.17452 -1.75409 0
M  V30 13800 O 1281.04 -0.294 -2.26601 0
M  V30 13801 C 1281.25 -3.441 -0.582787 0
M  V30 13802 C 1282.6 -4.15468 -0.875873 0
M  V30 13803 O 1283.62 -3.49872 -0.668425 0
M  V30 13804 O 1282.48 -5.31508 -1.27128 0
M  V30 13805 H 1279.57 -0.7953 -0.226776 0
M  V30 13806 H 1282.12 -1.67072 0.297511 0
M  V30 13807 H 1280.89 -3.89673 0.356474 0
M  V30 13808 H 1280.52 -3.73933 -1.3513 0
M  V30 13809 N 1281.51 0.0200419 -1.57587 0
M  V30 13810 C 1282.74 0.720556 -1.93947 0
M  V30 13811 C 1283.16 1.68407 -0.853499 0
M  V30 13812 O 1282.51 1.81713 0.169337 0
M  V30 13813 C 1282.56 1.46982 -3.3027 0
M  V30 13814 O 1282.28 0.544971 -4.34697 0
M  V30 13815 C 1283.79 2.26667 -3.80968 0
M  V30 13816 H 1281.01 0.201956 -0.639887 0
M  V30 13817 H 1283.55 -0.0251175 -2.04485 0
M  V30 13818 H 1281.7 2.16729 -3.21103 0
M  V30 13819 H 1282.12 1.07139 -5.13441 0
M  V30 13820 H 1283.59 2.74621 -4.78839 0
M  V30 13821 H 1284.07 3.0848 -3.12629 0
M  V30 13822 H 1284.68 1.61976 -3.93248 0
M  V30 13823 N 1282.99 1.54862 0.292472 0
M  V30 13824 C 1283.92 1.89406 1.36556 0
M  V30 13825 C 1284.9 0.753838 1.52484 0
M  V30 13826 O 1286.09 1.01031 1.6585 0
M  V30 13827 C 1283.22 2.14888 2.72838 0
M  V30 13828 C 1282.17 3.3073 2.71665 0
M  V30 13829 C 1281.5 3.41648 4.11316 0
M  V30 13830 C 1282.8 4.67622 2.32651 0
M  V30 13831 H 1284.49 2.79284 1.07894 0
M  V30 13832 H 1282.04 1.34377 0.517585 0
M  V30 13833 H 1283.99 2.3764 3.48002 0
M  V30 13834 H 1282.71 1.2179 3.03042 0
M  V30 13835 H 1281.37 3.07915 1.98958 0
M  V30 13836 H 1281.02 2.46051 4.38711 0
M  V30 13837 H 1280.72 4.19522 4.11431 0
M  V30 13838 H 1282.24 3.6667 4.88248 0
M  V30 13839 H 1283.66 4.90048 2.97533 0
M  V30 13840 H 1282.06 5.48272 2.43963 0
M  V30 13841 H 1283.13 4.67762 1.27777 0
M  V30 13842 N 1284.47 -0.556076 1.47464 0
M  V30 13843 C 1285.43 -1.64515 1.59586 0
M  V30 13844 C 1286.43 -1.53751 0.470881 0
M  V30 13845 O 1287.62 -1.57889 0.735979 0
M  V30 13846 C 1284.75 -3.0406 1.54143 0
M  V30 13847 H 1285.95 -1.55116 2.56669 0
M  V30 13848 H 1283.5 -0.776087 1.35671 0
M  V30 13849 H 1284.23 -3.18991 0.584395 0
M  V30 13850 H 1284.02 -3.13282 2.3579 0
M  V30 13851 H 1285.51 -3.8329 1.65766 0
M  V30 13852 N 1285.95 -1.35615 -0.802897 0
M  V30 13853 C 1286.86 -1.3096 -1.94645 0
M  V30 13854 C 1287.87 -0.213909 -1.7268 0
M  V30 13855 O 1289.05 -0.443932 -1.96446 0
M  V30 13856 C 1286.11 -1.08483 -3.2929 0
M  V30 13857 C 1285.18 -2.27401 -3.64126 0
M  V30 13858 C 1284.41 -2.05987 -4.92347 0
M  V30 13859 O 1284.63 -1.02819 -5.61057 0
M  V30 13860 O 1283.57 -2.93439 -5.25526 0
M  V30 13861 H 1287.39 -2.27209 -2.01519 0
M  V30 13862 H 1284.98 -1.16024 -0.941214 0
M  V30 13863 H 1286.86 -0.978118 -4.09891 0
M  V30 13864 H 1285.53 -0.152885 -3.23339 0
M  V30 13865 H 1284.44 -2.43638 -2.83886 0
M  V30 13866 H 1285.77 -3.19055 -3.74786 0
M  V30 13867 N 1287.43 1.02549 -1.19673 0
M  V30 13868 C 1288.34 2.14373 -0.952972 0
M  V30 13869 C 1289.35 1.73776 0.0881727 0
M  V30 13870 O 1290.53 2.01165 -0.0972471 0
M  V30 13871 C 1287.59 3.43096 -0.498569 0
M  V30 13872 C 1286.65 3.97987 -1.60951 0
M  V30 13873 C 1285.89 5.20567 -1.17669 0
M  V30 13874 O 1286.11 5.70385 -0.0416636 0
M  V30 13875 O 1285.04 5.6838 -1.98059 0
M  V30 13876 H 1288.87 2.378 -1.88904 0
M  V30 13877 H 1286.45 1.12781 -0.979836 0
M  V30 13878 H 1288.34 4.20634 -0.253968 0
M  V30 13879 H 1287.01 3.21105 0.409018 0
M  V30 13880 H 1285.92 3.21768 -1.90829 0
M  V30 13881 H 1287.25 4.24349 -2.49377 0
M  V30 13882 N 1288.9 1.00119 1.21713 0
M  V30 13883 C 1289.85 0.558388 2.23943 0
M  V30 13884 C 1290.82 -0.413576 1.60869 0
M  V30 13885 O 1292.01 -0.316478 1.88157 0
M  V30 13886 C 1289.15 -0.112618 3.44916 0
M  V30 13887 C 1288.26 0.902071 4.22477 0
M  V30 13888 C 1287.39 0.203722 5.30809 0
M  V30 13889 C 1286.43 1.20622 6.00097 0
M  V30 13890 N 1285.57 0.535607 7.00054 0
M  V30 13891 H 1290.41 1.43486 2.61182 0
M  V30 13892 H 1287.95 0.718572 1.28355 0
M  V30 13893 H 1289.9 -0.51865 4.13964 0
M  V30 13894 H 1288.53 -0.952827 3.08417 0
M  V30 13895 H 1287.59 1.42637 3.52645 0
M  V30 13896 H 1288.9 1.66513 4.70186 0
M  V30 13897 H 1288.05 -0.258614 6.06149 0
M  V30 13898 H 1286.79 -0.591773 4.84096 0
M  V30 13899 H 1285.8 1.6791 5.23532 0
M  V30 13900 H 1287.02 2.00273 6.48897 0
M  V30 13901 H 1284.97 -0.2403 6.5556 0
M  V30 13902 H 1284.88 1.23698 7.45812 0
M  V30 13903 H 1286.15 0.0963489 7.7944 0
M  V30 13904 N 1290.38 -1.37203 0.775435 0
M  V30 13905 C 1291.61 -2.04396 0.351737 0
M  V30 13906 C 1292.03 -1.58099 -1.01913 0
M  V30 13907 O 1291.39 -0.742932 -1.65379 0
M  V30 13908 C 1291.44 -3.58283 0.408105 0
M  V30 13909 O 1290.54 -4.08156 -0.590104 0
M  V30 13910 H 1289.88 -0.646451 0.151647 0
M  V30 13911 H 1292.41 -1.75443 1.05265 0
M  V30 13912 H 1292.42 -4.07127 0.266711 0
M  V30 13913 H 1291.1 -3.91335 1.40819 0
M  V30 13914 H 1289.67 -3.70622 -0.411524 0
M  V30 13915 N 1291.86 -0.526279 -1.48553 0
M  V30 13916 C 1293.11 0.0111473 -2.01697 0
M  V30 13917 C 1293.42 1.35675 -1.40895 0
M  V30 13918 O 1294.63 1.98233 -1.85515 0
M  V30 13919 C 1293.08 0.0702721 -3.59831 0
M  V30 13920 C 1292.69 -1.27022 -4.29616 0
M  V30 13921 C 1294.44 0.556722 -4.20834 0
M  V30 13922 C 1292.34 -1.17188 -5.79673 0
M  V30 13923 H 1291.27 0.00793697 -0.753958 0
M  V30 13924 H 1293.92 -0.669503 -1.70851 0
M  V30 13925 H 1292.31 0.81592 -3.87503 0
M  V30 13926 H 1293.48 -2.03114 -4.1362 0
M  V30 13927 H 1291.79 -1.69211 -3.80469 0
M  V30 13928 H 1294.39 0.648205 -5.30756 0
M  V30 13929 H 1294.73 1.56163 -3.859 0
M  V30 13930 H 1295.27 -0.133132 -3.97577 0
M  V30 13931 H 1292.01 -2.15182 -6.19174 0
M  V30 13932 H 1291.53 -0.452259 -5.98093 0
M  V30 13933 H 1293.21 -0.861011 -6.41245 0
M  V30 13934 N 1293.34 1.5542 -0.261239 0
M  V30 13935 C 1294.59 1.9846 0.360052 0
M  V30 13936 C 1294.9 1.15288 1.58013 0
M  V30 13937 O 1296.11 1.48408 2.27348 0
M  V30 13938 C 1294.56 3.53185 0.691964 0
M  V30 13939 C 1294.17 4.45116 -0.507521 0
M  V30 13940 C 1295.91 4.04848 1.27665 0
M  V30 13941 C 1293.82 5.91207 -0.150966 0
M  V30 13942 H 1292.75 0.741207 0.138303 0
M  V30 13943 H 1295.4 1.79859 -0.363712 0
M  V30 13944 H 1293.78 3.67535 1.47425 0
M  V30 13945 H 1294.96 4.42531 -1.28465 0
M  V30 13946 H 1293.27 4.04013 -1.0081 0
M  V30 13947 H 1295.87 5.11529 1.55699 0
M  V30 13948 H 1296.21 3.5305 2.20593 0
M  V30 13949 H 1296.75 3.93882 0.556955 0
M  V30 13950 H 1293.48 6.47072 -1.04776 0
M  V30 13951 H 1293 5.96894 0.589671 0
M  V30 13952 H 1294.68 6.4647 0.261772 0
M  V30 13953 N 1294.82 -0.0116844 1.57596 0
M  V30 13954 C 1295.75 -1.00599 2.10718 0
M  V30 13955 C 1296.73 -1.36601 1.01362 0
M  V30 13956 O 1297.91 -1.4518 1.28982 0
M  V30 13957 C 1295.04 -2.30155 2.60089 0
M  V30 13958 C 1294 -2.08347 3.73866 0
M  V30 13959 C 1293.32 -3.43814 4.09507 0
M  V30 13960 C 1294.62 -1.45552 5.01609 0
M  V30 13961 H 1296.32 -0.563721 2.94045 0
M  V30 13962 H 1293.86 -0.269714 1.41452 0
M  V30 13963 H 1295.81 -3.00058 2.95877 0
M  V30 13964 H 1294.54 -2.76473 1.73868 0
M  V30 13965 H 1293.2 -1.40872 3.38453 0
M  V30 13966 H 1292.85 -3.87814 3.20326 0
M  V30 13967 H 1292.55 -3.30043 4.86154 0
M  V30 13968 H 1294.07 -4.15052 4.47844 0
M  V30 13969 H 1295.48 -2.05396 5.35243 0
M  V30 13970 H 1293.88 -1.42304 5.82983 0
M  V30 13971 H 1294.95 -0.423331 4.83049 0
M  V30 13972 N 1296.29 -1.55015 -0.284256 0
M  V30 13973 C 1297.23 -1.83517 -1.3731 0
M  V30 13974 C 1298.24 -0.719009 -1.46062 0
M  V30 13975 O 1299.43 -0.996719 -1.4808 0
M  V30 13976 C 1296.53 -1.97309 -2.7554 0
M  V30 13977 C 1295.7 -3.2787 -2.89517 0
M  V30 13978 C 1294.76 -3.31868 -4.08351 0
M  V30 13979 O 1293.79 -4.05309 -3.99642 0
M  V30 13980 N 1294.99 -2.5846 -5.19787 0
M  V30 13981 H 1297.75 -2.77495 -1.1321 0
M  V30 13982 H 1295.31 -1.54795 -0.474359 0
M  V30 13983 H 1297.31 -1.97367 -3.53311 0
M  V30 13984 H 1295.88 -1.10249 -2.92513 0
M  V30 13985 H 1295.1 -3.40445 -1.98722 0
M  V30 13986 H 1296.38 -4.13996 -2.95779 0
M  V30 13987 H 1295.78 -1.98455 -5.29747 0
M  V30 13988 H 1294.34 -2.64253 -5.9583 0
M  V30 13989 N 1297.77 0.548248 -1.47757 0
M  V30 13990 C 1298.7 1.66409 -1.63799 0
M  V30 13991 C 1299.68 1.62973 -0.487211 0
M  V30 13992 O 1300.87 1.80455 -0.717612 0
M  V30 13993 C 1298 3.05035 -1.66046 0
M  V30 13994 C 1296.95 3.23322 -2.80441 0
M  V30 13995 C 1296.28 4.62824 -2.67765 0
M  V30 13996 C 1297.58 3.07837 -4.2194 0
M  V30 13997 H 1299.27 1.53239 -2.57212 0
M  V30 13998 H 1296.82 0.735783 -1.23783 0
M  V30 13999 H 1298.77 3.82951 -1.75859 0
M  V30 14000 H 1297.49 3.19185 -0.69199 0
M  V30 14001 H 1296.15 2.47816 -2.70153 0
M  V30 14002 H 1295.8 4.73786 -1.68927 0
M  V30 14003 H 1295.5 4.76007 -3.44515 0
M  V30 14004 H 1297.03 5.42864 -2.7952 0
M  V30 14005 H 1298.44 3.75563 -4.33157 0
M  V30 14006 H 1296.84 3.32525 -4.99547 0
M  V30 14007 H 1297.91 2.04474 -4.3968 0
M  V30 14008 N 1299.25 1.36039 0.795694 0
M  V30 14009 C 1300.18 1.32528 1.92246 0
M  V30 14010 C 1301.16 0.197805 1.68946 0
M  V30 14011 O 1302.35 0.394474 1.90151 0
M  V30 14012 C 1299.48 1.10748 3.29169 0
M  V30 14013 C 1298.43 2.20253 3.66978 0
M  V30 14014 C 1297.76 1.83624 5.02181 0
M  V30 14015 C 1299.06 3.62296 3.76216 0
M  V30 14016 H 1300.75 2.2681 1.95442 0
M  V30 14017 H 1298.3 1.09181 0.938908 0
M  V30 14018 H 1300.25 1.06929 4.07608 0
M  V30 14019 H 1298.97 0.129141 3.26345 0
M  V30 14020 H 1297.63 2.23187 2.90832 0
M  V30 14021 H 1297.28 0.843804 4.95872 0
M  V30 14022 H 1296.98 2.56935 5.28449 0
M  V30 14023 H 1298.5 1.81349 5.83048 0
M  V30 14024 H 1299.92 3.61623 4.44861 0
M  V30 14025 H 1298.31 4.34459 4.13963 0
M  V30 14026 H 1299.38 3.97657 2.77483 0
M  V30 14027 N 1300.73 -1.01913 1.20215 0
M  V30 14028 C 1301.68 -2.12516 0.945493 0
M  V30 14029 C 1302.67 -1.69091 -0.102243 0
M  V30 14030 O 1303.88 -1.79936 0.047888 0
M  V30 14031 H 1300.25 -0.694496 0.288409 0
M  V30 14032 H 1302.22 -2.31349 1.88468 0
M  V30 14033 C 1300.97 -3.43919 0.51137 0
M  V30 14034 H 1300.29 -3.77758 1.30916 0
M  V30 14035 H 1301.73 -4.22374 0.370981 0
M  V30 14036 C 1300.19 -3.27844 -0.775902 0
M  V30 14037 O 1300.72 -3.5734 -1.83496 0
M  V30 14038 N 1298.93 -2.81101 -0.73694 0
M  V30 14039 H 1298.48 -2.57296 0.125164 0
M  V30 14040 H 1298.43 -2.70726 -1.59859 0
M  V30 14041 N 1302.21 -1.00763 -1.2118 0
M  V30 14042 C 1303.17 -0.575183 -2.21865 0
M  V30 14043 C 1304.17 0.349871 -1.56948 0
M  V30 14044 O 1305.36 0.139795 -1.73638 0
M  V30 14045 C 1302.49 0.161308 -3.40518 0
M  V30 14046 H 1303.68 -1.46578 -2.61639 0
M  V30 14047 H 1301.24 -0.79643 -1.34487 0
M  V30 14048 H 1301.97 1.06723 -3.06236 0
M  V30 14049 H 1301.76 -0.503101 -3.88859 0
M  V30 14050 H 1303.25 0.451527 -4.15152 0
M  V30 14051 N 1303.68 1.3679 -0.7827 0
M  V30 14052 C 1304.65 2.28472 -0.182525 0
M  V30 14053 C 1305.65 1.48524 0.616217 0
M  V30 14054 O 1306.84 1.68599 0.438197 0
M  V30 14055 C 1303.97 3.32588 0.748202 0
M  V30 14056 H 1305.16 2.83059 -0.99085 0
M  V30 14057 H 1302.72 1.46241 -0.551658 0
M  V30 14058 H 1303.45 2.83145 1.58112 0
M  V30 14059 H 1303.24 3.91698 0.177481 0
M  V30 14060 H 1304.73 4.01073 1.16321 0
M  V30 14061 N 1305.16 0.53415 1.48272 0
M  V30 14062 C 1306.13 -0.215641 2.28183 0
M  V30 14063 C 1307.13 -0.863966 1.35618 0
M  V30 14064 O 1308.32 -0.723375 1.58471 0
M  V30 14065 C 1305.45 -1.31251 3.1462 0
M  V30 14066 H 1306.64 0.486014 2.95936 0
M  V30 14067 H 1304.19 0.290237 1.53582 0
M  V30 14068 H 1304.93 -2.04729 2.51508 0
M  V30 14069 H 1304.71 -0.852706 3.82716 0
M  V30 14070 H 1306.2 -1.83978 3.74889 0
M  V30 14071 N 1306.64 -1.55279 0.269478 0
M  V30 14072 C 1307.89 -1.99077 -0.348224 0
M  V30 14073 C 1308.21 -1.15925 -1.568 0
M  V30 14074 O 1307.48 -0.247404 -1.94331 0
M  V30 14075 H 1306.06 -0.735307 -0.131653 0
M  V30 14076 H 1308.72 -1.91288 0.373506 0
M  V30 14077 H 1307.82 -3.05427 -0.641953 0
M  V30 14078 N 1308.12 0.00332656 -1.576 0
M  V30 14079 C 1309.07 0.99581 -2.08212 0
M  V30 14080 C 1310.04 1.34342 -0.976804 0
M  V30 14081 O 1311.22 1.44236 -1.24902 0
M  V30 14082 C 1308.36 2.2836 -2.58739 0
M  V30 14083 C 1307.47 1.99531 -3.8316 0
M  V30 14084 C 1306.61 3.22367 -4.222 0
M  V30 14085 C 1305.65 2.89209 -5.39467 0
M  V30 14086 N 1304.78 4.04572 -5.73817 0
M  V30 14087 H 1309.62 0.55727 -2.92743 0
M  V30 14088 H 1307.16 0.263513 -1.4472 0
M  V30 14089 H 1309.12 3.03639 -2.86111 0
M  V30 14090 H 1307.75 2.69889 -1.77087 0
M  V30 14091 H 1306.8 1.14634 -3.62716 0
M  V30 14092 H 1308.11 1.71089 -4.6854 0
M  V30 14093 H 1307.27 4.05994 -4.50837 0
M  V30 14094 H 1306.01 3.53944 -3.35522 0
M  V30 14095 H 1305.01 2.03989 -5.10557 0
M  V30 14096 H 1306.24 2.58883 -6.27819 0
M  V30 14097 H 1304.18 4.36052 -4.90096 0
M  V30 14098 H 1304.1 3.79643 -6.53764 0
M  V30 14099 H 1305.37 4.88998 -6.07043 0
M  V30 14100 N 1309.6 1.55164 0.276031 0
M  V30 14101 C 1310.87 1.66338 1.02913 0
M  V30 14102 C 1311.25 0.527876 2.04393 0
M  V30 14103 O 1310.6 -0.472437 2.23563 0
M  V30 14104 C 1310.81 3.05427 1.68865 0
M  V30 14105 C 1312.16 3.63075 2.2014 0
M  V30 14106 O 1313.18 3.0804 1.78857 0
M  V30 14107 O 1312.04 4.59492 2.95854 0
M  V30 14108 H 1309.14 0.675446 0.477181 0
M  V30 14109 H 1311.68 1.67504 0.272129 0
M  V30 14110 H 1310.45 3.79514 0.953125 0
M  V30 14111 H 1310.08 3.08147 2.5126 0
M  V30 14112 N 1311.07 -0.540404 1.48045 0
M  V30 14113 C 1312.31 -1.30737 1.57121 0
M  V30 14114 C 1312.68 -1.90554 0.23518 0
M  V30 14115 O 1313.88 -2.68048 0.20087 0
M  V30 14116 C 1312.15 -2.37539 2.6704 0
M  V30 14117 S 1313.71 -3.241 2.95812 0
M  V30 14118 H 1310.53 -0.444856 0.554639 0
M  V30 14119 H 1313.13 -0.61683 1.85514 0
M  V30 14120 H 1311.83 -1.92057 3.62688 0
M  V30 14121 H 1311.36 -3.11313 2.40515 0
M  V30 14122 H 1313.38 -4.37393 2.34311 0
M  V30 14123 N 1312.55 -1.36459 -0.788468 0
M  V30 14124 C 1313.78 -1.34063 -1.58246 0
M  V30 14125 C 1314.2 0.0754933 -1.87948 0
M  V30 14126 O 1313.56 1.04772 -1.47961 0
M  V30 14127 C 1313.61 -2.17038 -2.8797 0
M  V30 14128 O 1312.71 -1.56353 -3.81612 0
M  V30 14129 H 1312.05 -0.458816 -0.479983 0
M  V30 14130 H 1314.58 -1.79755 -0.977207 0
M  V30 14131 H 1314.59 -2.29651 -3.3723 0
M  V30 14132 H 1313.27 -3.19981 -2.65678 0
M  V30 14133 H 1311.85 -1.52685 -3.40208 0
M  V30 14134 N 1314.03 1.01274 -1.20754 0
M  V30 14135 C 1314.98 2.09894 -0.959852 0
M  V30 14136 C 1315.95 1.65726 0.111351 0
M  V30 14137 O 1317.13 1.90769 -0.0341721 0
M  V30 14138 C 1314.27 3.41126 -0.52223 0
M  V30 14139 C 1313.39 3.98749 -1.66202 0
M  V30 14140 C 1312.52 5.18057 -1.17432 0
M  V30 14141 C 1311.56 5.67772 -2.28694 0
M  V30 14142 N 1310.7 6.78338 -1.81114 0
M  V30 14143 H 1315.54 2.30416 -1.88977 0
M  V30 14144 H 1313.07 1.12989 -0.941906 0
M  V30 14145 H 1315.03 4.16451 -0.249799 0
M  V30 14146 H 1313.66 3.20665 0.370688 0
M  V30 14147 H 1312.71 3.20483 -2.04927 0
M  V30 14148 H 1314.03 4.31646 -2.49967 0
M  V30 14149 H 1313.18 6.00601 -0.858086 0
M  V30 14150 H 1311.92 4.86735 -0.306614 0
M  V30 14151 H 1310.92 4.8383 -2.61129 0
M  V30 14152 H 1312.15 6.01127 -3.15948 0
M  V30 14153 H 1310.09 6.48837 -0.966761 0
M  V30 14154 H 1310.01 7.10448 -2.58457 0
M  V30 14155 H 1311.28 7.64437 -1.52502 0
M  V30 14156 N 1315.51 1.01404 1.20644 0
M  V30 14157 C 1316.79 0.617088 1.85611 0
M  V30 14158 C 1317.17 -0.904947 1.9072 0
M  V30 14159 O 1316.51 -1.79562 1.41315 0
M  V30 14160 C 1316.72 1.26193 3.25386 0
M  V30 14161 C 1318.07 1.37575 4.01694 0
M  V30 14162 O 1319.1 1.21795 3.34731 0
M  V30 14163 O 1317.96 1.6305 5.2161 0
M  V30 14164 H 1315.05 0.212579 0.799211 0
M  V30 14165 H 1317.6 1.11126 1.28254 0
M  V30 14166 H 1316.37 2.30206 3.16419 0
M  V30 14167 H 1315.99 0.754679 3.90372 0
M  V30 14168 N 1316.99 -1.36373 0.789944 0
M  V30 14169 C 1318.21 -2.04011 0.373396 0
M  V30 14170 C 1318.64 -1.59171 -1.00231 0
M  V30 14171 O 1318 -0.760431 -1.64582 0
M  V30 14172 C 1318.04 -3.5783 0.446083 0
M  V30 14173 O 1317.15 -4.08759 -0.54678 0
M  V30 14174 H 1316.49 -0.644807 0.158495 0
M  V30 14175 H 1319.02 -1.74317 1.0712 0
M  V30 14176 H 1319.03 -4.06822 0.309877 0
M  V30 14177 H 1317.7 -3.89819 1.44962 0
M  V30 14178 H 1316.28 -3.71038 -0.372192 0
M  V30 14179 N 1318.47 -0.542005 -1.47987 0
M  V30 14180 C 1319.74 0.0526494 -1.95529 0
M  V30 14181 C 1320.12 1.50092 -1.48444 0
M  V30 14182 O 1319.47 2.16981 -0.716347 0
M  V30 14183 C 1319.68 -0.0770524 -3.48915 0
M  V30 14184 C 1321.03 0.0760849 -4.24532 0
M  V30 14185 O 1322.05 -0.00384644 -3.562 0
M  V30 14186 O 1320.91 0.245406 -5.45949 0
M  V30 14187 H 1318.01 0.0726163 -0.823806 0
M  V30 14188 H 1320.55 -0.607454 -1.58455 0
M  V30 14189 H 1319.32 -1.08544 -3.75944 0
M  V30 14190 H 1318.95 0.621357 -3.92715 0
M  V30 14191 N 1319.94 1.55134 -0.277709 0
M  V30 14192 C 1321.22 1.91667 0.390253 0
M  V30 14193 C 1321.6 1.20228 1.73518 0
M  V30 14194 O 1320.95 0.330013 2.26104 0
M  V30 14195 C 1321.16 3.44983 0.52797 0
M  V30 14196 C 1322.51 4.16809 0.809665 0
M  V30 14197 O 1323.53 3.50891 0.612679 0
M  V30 14198 O 1322.39 5.33463 1.18656 0
M  V30 14199 H 1319.48 0.798807 0.214095 0
M  V30 14200 H 1322.03 1.66577 -0.324053 0
M  V30 14201 H 1320.8 3.89056 -0.418422 0
M  V30 14202 H 1320.42 3.76035 1.29164 0
M  V30 14203 N 1321.42 0.00503138 1.57599 0
M  V30 14204 C 1322.67 -0.679766 1.91068 0
M  V30 14205 C 1323 -1.73144 0.879486 0
M  V30 14206 O 1322.28 -1.94237 -0.101116 0
M  V30 14207 C 1322.56 -1.3183 3.35101 0
M  V30 14208 C 1322.41 -0.277833 4.48941 0
M  V30 14209 C 1323.73 -2.24308 3.78647 0
M  V30 14210 H 1320.85 -0.245646 0.694857 0
M  V30 14211 H 1323.49 0.057357 1.89913 0
M  V30 14212 H 1321.64 -1.94657 3.36216 0
M  V30 14213 H 1323.31 0.351136 4.59962 0
M  V30 14214 H 1321.56 0.399365 4.31958 0
M  V30 14215 H 1322.23 -0.763759 5.46691 0
M  V30 14216 H 1324.7 -1.71494 3.79116 0
M  V30 14217 H 1323.58 -2.6595 4.80169 0
M  V30 14218 H 1323.84 -3.12427 3.12797 0
M  V30 14219 N 1322.9 -1.55308 -0.267798 0
M  V30 14220 C 1323.83 -1.91555 -1.33525 0
M  V30 14221 C 1324.81 -0.778001 -1.51265 0
M  V30 14222 O 1326 -1.03657 -1.64222 0
M  V30 14223 C 1323.13 -2.19201 -2.69385 0
M  V30 14224 C 1322.08 -3.3501 -2.66369 0
M  V30 14225 C 1321.41 -3.48148 -4.05829 0
M  V30 14226 C 1322.71 -4.71265 -2.25182 0
M  V30 14227 H 1324.4 -2.80965 -1.03437 0
M  V30 14228 H 1321.95 -1.35183 -0.496141 0
M  V30 14229 H 1323.9 -2.43146 -3.44177 0
M  V30 14230 H 1322.62 -1.26596 -3.01067 0
M  V30 14231 H 1321.28 -3.11041 -1.94034 0
M  V30 14232 H 1320.93 -2.53 -4.34741 0
M  V30 14233 H 1320.63 -4.26014 -4.04704 0
M  V30 14234 H 1322.15 -3.74391 -4.82352 0
M  V30 14235 H 1323.57 -4.94719 -2.89699 0
M  V30 14236 H 1321.96 -5.52084 -2.3521 0
M  V30 14237 H 1323.03 -4.69735 -1.20319 0
M  V30 14238 N 1324.38 0.532545 -1.4833 0
M  V30 14239 C 1325.63 1.28498 -1.55471 0
M  V30 14240 C 1325.94 1.94214 -0.232412 0
M  V30 14241 O 1327.15 2.70889 -0.182044 0
M  V30 14242 C 1325.6 2.33144 -2.74175 0
M  V30 14243 C 1325.21 1.73508 -4.13036 0
M  V30 14244 C 1326.95 3.09413 -2.90627 0
M  V30 14245 C 1324.86 2.76079 -5.23005 0
M  V30 14246 H 1323.79 0.483253 -0.578777 0
M  V30 14247 H 1326.44 0.562744 -1.74658 0
M  V30 14248 H 1324.82 3.08391 -2.48417 0
M  V30 14249 H 1326 1.04466 -4.48802 0
M  V30 14250 H 1324.31 1.0974 -4.01679 0
M  V30 14251 H 1326.91 3.86056 -3.69953 0
M  V30 14252 H 1327.25 3.65118 -1.99987 0
M  V30 14253 H 1327.79 2.4128 -3.16274 0
M  V30 14254 H 1324.52 2.25197 -6.15602 0
M  V30 14255 H 1324.04 3.43456 -4.9173 0
M  V30 14256 H 1325.72 3.39113 -5.51009 0
M  V30 14257 N 1325.86 1.36875 0.78122 0
M  V30 14258 C 1327.13 1.22101 1.52809 0
M  V30 14259 C 1327.51 -0.189402 2.10249 0
M  V30 14260 O 1326.86 -1.19598 1.94701 0
M  V30 14261 C 1327.07 2.30953 2.61652 0
M  V30 14262 C 1328.42 2.68027 3.29313 0
M  V30 14263 O 1329.44 2.30058 2.71941 0
M  V30 14264 O 1328.3 3.33407 4.33015 0
M  V30 14265 H 1325.4 0.4759 0.676349 0
M  V30 14266 H 1327.94 1.48629 0.818998 0
M  V30 14267 H 1326.71 3.25443 2.17261 0
M  V30 14268 H 1326.34 2.05837 3.40172 0
M  V30 14269 N 1327.33 -1.00632 1.21289 0
M  V30 14270 C 1328.3 -2.07543 0.972548 0
M  V30 14271 C 1329.3 -1.60703 -0.0559244 0
M  V30 14272 O 1330.49 -1.73255 0.181213 0
M  V30 14273 C 1327.62 -3.37696 0.466297 0
M  V30 14274 H 1328.81 -2.30298 1.92101 0
M  V30 14275 H 1326.36 -1.17588 1.02969 0
M  V30 14276 H 1327.1 -3.2062 -0.487148 0
M  V30 14277 H 1326.88 -3.73024 1.20813 0
M  V30 14278 H 1328.37 -4.16388 0.317962 0
M  V30 14279 N 1328.81 -1.02043 -1.20104 0
M  V30 14280 C 1330.04 -0.730255 -1.93264 0
M  V30 14281 C 1330.45 0.71359 -1.75227 0
M  V30 14282 O 1329.79 1.49609 -1.06597 0
M  V30 14283 C 1329.85 -0.990978 -3.45572 0
M  V30 14284 C 1329.52 -2.4247 -3.87373 0
M  V30 14285 C 1330.52 -3.40569 -3.92822 0
M  V30 14286 C 1328.2 -2.76645 -4.19253 0
M  V30 14287 C 1330.19 -4.70904 -4.29568 0
M  V30 14288 C 1327.88 -4.07192 -4.55673 0
M  V30 14289 C 1328.88 -5.04132 -4.60804 0
M  V30 14290 O 1328.57 -6.32341 -4.96386 0
M  V30 14291 H 1328.3 -0.267146 -0.620974 0
M  V30 14292 H 1330.85 -1.36557 -1.53432 0
M  V30 14293 H 1329.08 -0.298508 -3.85546 0
M  V30 14294 H 1330.77 -0.691793 -3.99961 0
M  V30 14295 H 1331.54 -3.15503 -3.68352 0
M  V30 14296 H 1327.42 -2.01876 -4.14448 0
M  V30 14297 H 1330.96 -5.46566 -4.33487 0
M  V30 14298 H 1326.86 -4.32035 -4.796 0
M  V30 14299 H 1327.63 -6.36687 -5.14365 0
M  V30 14300 N 1330.29 1.35952 -0.797165 0
M  V30 14301 C 1331.22 2.32506 -0.215277 0
M  V30 14302 C 1332.2 1.57023 0.654046 0
M  V30 14303 O 1333.39 1.85139 0.586268 0
M  V30 14304 C 1330.52 3.41266 0.644557 0
M  V30 14305 C 1329.47 4.27816 -0.125501 0
M  V30 14306 C 1328.8 5.27813 0.855428 0
M  V30 14307 C 1330.1 5.05367 -1.31913 0
M  V30 14308 H 1331.79 2.8142 -1.02193 0
M  V30 14309 H 1329.34 1.35303 -0.492862 0
M  V30 14310 H 1331.29 4.07808 1.06163 0
M  V30 14311 H 1330.01 2.90938 1.484 0
M  V30 14312 H 1328.67 3.62841 -0.523639 0
M  V30 14313 H 1328.32 4.73755 1.69011 0
M  V30 14314 H 1328.02 5.86589 0.344566 0
M  V30 14315 H 1329.54 5.97227 1.2709 0
M  V30 14316 H 1330.96 5.64907 -0.977418 0
M  V30 14317 H 1329.36 5.73593 -1.76382 0
M  V30 14318 H 1330.43 4.36558 -2.11057 0
M  V30 14319 N 1331.77 0.549846 1.47697 0
M  V30 14320 C 1332.7 -0.190364 2.32723 0
M  V30 14321 C 1333.68 -0.915933 1.43334 0
M  V30 14322 O 1334.86 -0.897838 1.72199 0
M  V30 14323 C 1331.99 -1.22545 3.24961 0
M  V30 14324 C 1330.95 -0.616805 4.23532 0
M  V30 14325 C 1330.27 -1.75599 5.05044 0
M  V30 14326 C 1331.57 0.424595 5.20571 0
M  V30 14327 H 1333.27 0.519461 2.94859 0
M  V30 14328 H 1330.81 0.251259 1.41791 0
M  V30 14329 H 1332.77 -1.75139 3.83281 0
M  V30 14330 H 1331.49 -1.96512 2.60865 0
M  V30 14331 H 1330.15 -0.112224 3.66428 0
M  V30 14332 H 1329.8 -2.48453 4.37356 0
M  V30 14333 H 1329.5 -1.35456 5.71774 0
M  V30 14334 H 1331.02 -2.28533 5.6622 0
M  V30 14335 H 1332.44 -0.0150025 5.73298 0
M  V30 14336 H 1330.83 0.7445 5.95464 0
M  V30 14337 H 1331.9 1.32318 4.66497 0
M  V30 14338 N 1333.25 -1.54984 0.285932 0
M  V30 14339 C 1334.18 -2.25916 -0.590259 0
M  V30 14340 C 1335.16 -1.25319 -1.15018 0
M  V30 14341 O 1336.34 -1.54062 -1.18231 0
M  V30 14342 C 1333.47 -2.98849 -1.76936 0
M  V30 14343 C 1332.43 -4.06466 -1.3405 0
M  V30 14344 C 1331.75 -4.67032 -2.60356 0
M  V30 14345 C 1333.05 -5.20064 -0.482754 0
M  V30 14346 H 1334.75 -2.994 0.00131571 0
M  V30 14347 H 1332.29 -1.44 0.00207281 0
M  V30 14348 H 1334.25 -3.47186 -2.3883 0
M  V30 14349 H 1332.97 -2.22918 -2.38694 0
M  V30 14350 H 1331.63 -3.58957 -0.7447 0
M  V30 14351 H 1331.28 -3.87757 -3.20396 0
M  V30 14352 H 1330.98 -5.39703 -2.32368 0
M  V30 14353 H 1332.5 -5.18124 -3.23079 0
M  V30 14354 H 1333.91 -5.64387 -1.00697 0
M  V30 14355 H 1332.31 -5.99363 -0.297291 0
M  V30 14356 H 1333.38 -4.82358 0.495861 0
M  V30 14357 N 1334.72 -0.0133892 -1.57594 0
M  V30 14358 C 1335.95 0.679255 -1.95432 0
M  V30 14359 C 1336.37 1.66558 -0.889028 0
M  V30 14360 O 1335.72 1.82031 0.130755 0
M  V30 14361 C 1335.78 1.39943 -3.33314 0
M  V30 14362 O 1335.5 0.452643 -4.35755 0
M  V30 14363 C 1337 2.18535 -3.85691 0
M  V30 14364 H 1334.22 0.188337 -0.644026 0
M  V30 14365 H 1336.76 -0.0684861 -2.04385 0
M  V30 14366 H 1334.92 2.0987 -3.25628 0
M  V30 14367 H 1335.33 0.962243 -5.15598 0
M  V30 14368 H 1336.8 2.64403 -4.84557 0
M  V30 14369 H 1337.28 3.01779 -3.19102 0
M  V30 14370 H 1337.89 1.53598 -3.96595 0
M  V30 14371 N 1336.2 1.55448 0.259558 0
M  V30 14372 C 1337.15 1.89248 1.32113 0
M  V30 14373 C 1338.12 0.745348 1.48438 0
M  V30 14374 O 1339.3 0.997854 1.62627 0
M  V30 14375 C 1336.44 2.18161 2.67394 0
M  V30 14376 C 1335.56 3.45614 2.59182 0
M  V30 14377 C 1334.69 3.6416 3.86731 0
M  V30 14378 C 1333.73 4.85258 3.73084 0
M  V30 14379 N 1332.87 5.00391 4.92497 0
M  V30 14380 H 1337.71 2.79785 1.02589 0
M  V30 14381 H 1335.25 1.38509 0.495338 0
M  V30 14382 H 1337.2 2.32927 3.46122 0
M  V30 14383 H 1335.83 1.30843 2.95093 0
M  V30 14384 H 1334.89 3.39248 1.72091 0
M  V30 14385 H 1336.2 4.34483 2.45002 0
M  V30 14386 H 1335.35 3.78817 4.73902 0
M  V30 14387 H 1334.09 2.73501 4.03793 0
M  V30 14388 H 1333.1 4.70591 2.84296 0
M  V30 14389 H 1334.32 5.77365 3.57528 0
M  V30 14390 H 1332.27 4.12666 5.09944 0
M  V30 14391 H 1332.18 5.83328 4.809 0
M  V30 14392 H 1333.45 5.19446 5.81202 0
M  V30 14393 N 1337.68 -0.524672 1.4861 0
M  V30 14394 C 1338.63 -1.62504 1.59927 0
M  V30 14395 C 1339.61 -1.543 0.456094 0
M  V30 14396 O 1340.81 -1.62231 0.707818 0
M  V30 14397 C 1337.94 -3.01207 1.64709 0
M  V30 14398 C 1337.02 -3.14495 2.84523 0
M  V30 14399 N 1337.41 -2.97741 4.08882 0
M  V30 14400 C 1335.71 -3.45559 2.81967 0
M  V30 14401 C 1336.41 -3.14585 4.89297 0
M  V30 14402 N 1335.39 -3.424 4.22212 0
M  V30 14403 H 1339.19 -1.48168 2.53818 0
M  V30 14404 H 1336.7 -0.730258 1.45055 0
M  V30 14405 H 1338.7 -3.80257 1.7091 0
M  V30 14406 H 1337.36 -3.16631 0.719376 0
M  V30 14407 H 1338.37 -2.74395 4.39235 0
M  V30 14408 H 1335.05 -3.67307 1.98474 0
M  V30 14409 H 1336.44 -3.06324 5.98009 0
M  V30 14410 N 1339.16 -1.37287 -0.77395 0
M  V30 14411 C 1340.41 -1.32112 -1.5294 0
M  V30 14412 C 1340.73 0.0946137 -1.9477 0
M  V30 14413 O 1340 1.03817 -1.66129 0
M  V30 14414 H 1338.58 -0.486047 -0.567245 0
M  V30 14415 H 1341.24 -1.71752 -0.921263 0
M  V30 14416 H 1340.34 -1.95873 -2.42982 0
M  V30 14417 N 1340.64 0.999871 -1.21821 0
M  V30 14418 C 1341.91 1.71135 -0.947213 0
M  V30 14419 C 1342.29 2.04087 0.539601 0
M  V30 14420 O 1341.64 1.71866 1.5058 0
M  V30 14421 C 1341.85 2.96704 -1.8376 0
M  V30 14422 C 1343.2 3.69627 -2.08952 0
M  V30 14423 O 1344.22 3.06697 -1.81151 0
M  V30 14424 O 1343.08 4.82832 -2.55999 0
M  V30 14425 H 1340.18 0.746631 -0.355628 0
M  V30 14426 H 1342.72 1.05684 -1.32774 0
M  V30 14427 H 1341.49 2.68802 -2.84361 0
M  V30 14428 H 1341.12 3.69894 -1.45821 0
M  V30 14429 N 1342.11 1.02678 1.19562 0
M  V30 14430 C 1343.53 0.743467 1.41226 0
M  V30 14431 C 1343.73 -0.672786 1.89936 0
M  V30 14432 O 1342.79 -1.43908 2.07477 0
M  V30 14433 C 1344.1 1.77781 2.42517 0
M  V30 14434 C 1345.65 1.79711 2.56267 0
M  V30 14435 C 1346.12 2.82099 3.60811 0
M  V30 14436 N 1347.61 2.80902 3.68304 0
M  V30 14437 C 1348.35 3.5678 4.48882 0
M  V30 14438 N 1347.84 4.42367 5.33182 0
M  V30 14439 N 1349.64 3.45331 4.43512 0
M  V30 14440 H 1341.79 1.94094 0.862635 0
M  V30 14441 H 1344.05 0.839015 0.441313 0
M  V30 14442 H 1343.76 2.79295 2.13745 0
M  V30 14443 H 1343.63 1.59836 3.41661 0
M  V30 14444 H 1346.02 0.788756 2.84364 0
M  V30 14445 H 1346.1 2.01731 1.57284 0
M  V30 14446 H 1345.74 3.83104 3.33457 0
M  V30 14447 H 1345.67 2.57338 4.5944 0
M  V30 14448 H 1348.16 2.18826 3.08097 0
M  V30 14449 H 1348.48 4.97008 5.9178 0
M  V30 14450 H 1346.82 4.4644 5.3265 0
M  V30 14451 H 1350.01 2.77883 3.76695 0
M  V30 14452 H 1350.19 4.04718 5.06071 0
M  V30 14453 N 1343.59 -1.35528 0.804364 0
M  V30 14454 C 1344.56 -2.28153 0.21885 0
M  V30 14455 C 1345.56 -1.49486 -0.592511 0
M  V30 14456 O 1346.75 -1.69274 -0.411319 0
M  V30 14457 C 1343.88 -3.33736 -0.695195 0
M  V30 14458 H 1345.07 -2.81446 1.03576 0
M  V30 14459 H 1342.62 -1.45345 0.574854 0
M  V30 14460 H 1343.36 -2.85625 -1.53587 0
M  V30 14461 H 1343.14 -3.91931 -0.115143 0
M  V30 14462 H 1344.63 -4.02872 -1.09925 0
M  V30 14463 N 1345.07 -0.557671 -1.47404 0
M  V30 14464 C 1346.49 -0.217473 -1.58111 0
M  V30 14465 C 1346.69 1.28 -1.55622 0
M  V30 14466 O 1345.74 2.06019 -1.45988 0
M  V30 14467 C 1347.06 -0.844535 -2.88597 0
M  V30 14468 C 1348.6 -0.815807 -3.02181 0
M  V30 14469 C 1349.08 -1.42195 -4.35367 0
M  V30 14470 N 1350.57 -1.38515 -4.42004 0
M  V30 14471 C 1351.31 -1.82378 -5.43623 0
M  V30 14472 N 1350.8 -2.34098 -6.52051 0
M  V30 14473 N 1352.59 -1.73446 -5.34671 0
M  V30 14474 H 1344.75 -1.53058 -1.47265 0
M  V30 14475 H 1347.01 -0.638305 -0.700907 0
M  V30 14476 H 1346.71 -1.89696 -2.96156 0
M  V30 14477 H 1346.59 -0.337844 -3.75684 0
M  V30 14478 H 1348.98 0.227925 -2.94218 0
M  V30 14479 H 1349.06 -1.36026 -2.16635 0
M  V30 14480 H 1348.7 -2.46475 -4.44086 0
M  V30 14481 H 1348.63 -0.852932 -5.19647 0
M  V30 14482 H 1351.12 -1.00684 -3.64241 0
M  V30 14483 H 1351.43 -2.6549 -7.25765 0
M  V30 14484 H 1349.78 -2.38109 -6.52939 0
M  V30 14485 H 1352.97 -1.32816 -4.48862 0
M  V30 14486 H 1353.14 -2.07947 -6.13728 0
M  V30 14487 N 1346.55 1.54831 -0.294147 0
M  V30 14488 C 1347.83 1.92071 0.369902 0
M  V30 14489 C 1348.21 1.22061 1.72233 0
M  V30 14490 O 1347.55 0.353975 2.25742 0
M  V30 14491 C 1347.76 3.45524 0.49135 0
M  V30 14492 C 1349.11 4.17644 0.765411 0
M  V30 14493 O 1350.14 3.51521 0.575428 0
M  V30 14494 O 1349 5.34692 1.12992 0
M  V30 14495 H 1346.09 0.801033 0.20561 0
M  V30 14496 H 1348.64 1.66224 -0.341702 0
M  V30 14497 H 1347.41 3.88591 -0.459663 0
M  V30 14498 H 1347.03 3.77384 1.25169 0
M  V30 14499 N 1348.03 0.0217466 1.57585 0
M  V30 14500 C 1349.25 -0.67246 1.96196 0
M  V30 14501 C 1349.68 -1.6529 0.897827 0
M  V30 14502 O 1349.04 -1.80743 -0.142002 0
M  V30 14503 C 1349.08 -1.36162 3.33905 0
M  V30 14504 O 1348.19 -2.47671 3.29747 0
M  V30 14505 H 1347.53 -0.177238 0.639908 0
M  V30 14506 H 1350.06 0.0814073 2.04438 0
M  V30 14507 H 1350.07 -1.7201 3.69968 0
M  V30 14508 H 1348.74 -0.642893 4.10901 0
M  V30 14509 H 1347.32 -2.13989 3.0539 0
M  V30 14510 N 1349.51 -1.55583 -0.251311 0
M  V30 14511 C 1350.42 -1.93073 -1.33266 0
M  V30 14512 C 1351.43 -0.830612 -1.52895 0
M  V30 14513 O 1352.61 -1.13162 -1.66602 0
M  V30 14514 C 1349.67 -2.21396 -2.66805 0
M  V30 14515 C 1348.73 -3.44815 -2.55737 0
M  V30 14516 C 1347.97 -3.71777 -3.82907 0
M  V30 14517 O 1348.19 -3.00884 -4.84587 0
M  V30 14518 O 1347.12 -4.65305 -3.81805 0
M  V30 14519 H 1350.95 -2.85168 -1.04465 0
M  V30 14520 H 1348.53 -1.42408 -0.451693 0
M  V30 14521 H 1350.42 -2.4094 -3.45725 0
M  V30 14522 H 1349.09 -1.3248 -2.95348 0
M  V30 14523 H 1348 -3.30582 -1.75118 0
M  V30 14524 H 1349.33 -4.34019 -2.32139 0
M  V30 14525 N 1350.98 0.516783 -1.48886 0
M  V30 14526 C 1352.26 1.27808 -1.48069 0
M  V30 14527 C 1352.64 2.10154 -0.19963 0
M  V30 14528 O 1351.99 2.13342 0.818386 0
M  V30 14529 C 1352.2 2.14828 -2.75045 0
M  V30 14530 C 1353.55 2.74536 -3.23906 0
M  V30 14531 O 1354.57 2.25107 -2.76053 0
M  V30 14532 O 1353.43 3.6448 -4.07206 0
M  V30 14533 H 1350.52 0.577535 -0.591931 0
M  V30 14534 H 1353.07 0.532351 -1.61134 0
M  V30 14535 H 1351.84 1.53852 -3.59785 0
M  V30 14536 H 1351.46 2.96624 -2.64764 0
M  V30 14537 N 1352.46 1.37696 0.766659 0
M  V30 14538 C 1353.69 1.36564 1.56093 0
M  V30 14539 C 1354.11 -0.0455828 1.88045 0
M  V30 14540 O 1353.47 -1.02405 1.49609 0
M  V30 14541 C 1353.52 2.21592 2.84481 0
M  V30 14542 O 1352.62 1.62404 3.79076 0
M  V30 14543 H 1351.96 0.466394 0.472623 0
M  V30 14544 H 1354.49 1.81287 0.948486 0
M  V30 14545 H 1354.5 2.34987 3.33534 0
M  V30 14546 H 1353.18 3.24167 2.60554 0
M  V30 14547 H 1351.75 1.58078 3.37736 0
M  V30 14548 N 1353.94 -0.993397 1.22349 0
M  V30 14549 C 1355.19 -1.73635 1.05936 0
M  V30 14550 C 1355.54 -1.88166 -0.401414 0
M  V30 14551 O 1354.83 -1.41338 -1.2936 0
M  V30 14552 C 1355.03 -3.14191 1.70349 0
M  V30 14553 C 1354.86 -3.13367 3.22539 0
M  V30 14554 C 1353.63 -3.19289 3.91641 0
M  V30 14555 C 1355.82 -2.97559 4.1948 0
M  V30 14556 N 1353.81 -3.08213 5.30922 0
M  V30 14557 C 1355.18 -2.94506 5.45588 0
M  V30 14558 C 1357.23 -2.81947 4.10378 0
M  V30 14559 C 1355.94 -2.7744 6.63641 0
M  V30 14560 C 1357.96 -2.66241 5.28081 0
M  V30 14561 C 1357.32 -2.63875 6.53107 0
M  V30 14562 H 1353.42 -0.64505 0.44208 0
M  V30 14563 H 1356.01 -1.17981 1.54882 0
M  V30 14564 H 1354.18 -3.6809 1.23954 0
M  V30 14565 H 1355.91 -3.77046 1.47032 0
M  V30 14566 H 1352.66 -3.26951 3.42637 0
M  V30 14567 H 1353.09 -3.05986 6.03905 0
M  V30 14568 H 1357.73 -2.82574 3.14502 0
M  V30 14569 H 1355.45 -2.75558 7.59666 0
M  V30 14570 H 1359.03 -2.55144 5.2287 0
M  V30 14571 H 1357.91 -2.5187 7.42652 0
M  V30 14572 N 1355.42 -1.03311 -1.19015 0
M  V30 14573 C 1356.67 -0.730593 -1.88432 0
M  V30 14574 C 1356.99 0.743392 -1.80274 0
M  V30 14575 O 1356.26 1.5359 -1.21601 0
M  V30 14576 H 1354.84 -0.267253 -0.697556 0
M  V30 14577 H 1357.5 -1.30824 -1.44468 0
M  V30 14578 H 1356.59 -1.02867 -2.9466 0
M  V30 14579 N 1356.9 1.35099 -0.81154 0
M  V30 14580 C 1358.12 2.0286 -0.406855 0
M  V30 14581 C 1358.54 1.61147 0.98372 0
M  V30 14582 O 1357.9 0.811398 1.6347 0
M  V30 14583 C 1357.95 3.58214 -0.486305 0
M  V30 14584 O 1357.67 3.98412 -1.82206 0
M  V30 14585 C 1359.17 4.43236 -0.0750619 0
M  V30 14586 H 1356.39 0.650482 -0.164664 0
M  V30 14587 H 1358.93 1.72616 -1.09654 0
M  V30 14588 H 1357.09 3.87089 0.155177 0
M  V30 14589 H 1357.5 4.93072 -1.78831 0
M  V30 14590 H 1358.98 5.51701 -0.181759 0
M  V30 14591 H 1359.45 4.28123 0.980169 0
M  V30 14592 H 1360.06 4.19667 -0.689894 0
M  V30 14593 N 1358.37 0.56548 1.47106 0
M  V30 14594 C 1359.62 0.052857 2.03331 0
M  V30 14595 C 1359.97 -1.28594 1.43113 0
M  V30 14596 O 1359.27 -1.82596 0.580451 0
M  V30 14597 C 1359.46 -0.0893776 3.57288 0
M  V30 14598 C 1359.29 1.23408 4.32436 0
M  V30 14599 C 1358.06 1.80362 4.72015 0
M  V30 14600 C 1360.26 2.15326 4.67054 0
M  V30 14601 N 1358.24 3.06626 5.3184 0
M  V30 14602 C 1359.61 3.26172 5.27268 0
M  V30 14603 C 1361.67 2.15219 4.48983 0
M  V30 14604 C 1360.37 4.37021 5.71319 0
M  V30 14605 C 1362.4 3.25085 4.94038 0
M  V30 14606 C 1361.76 4.34651 5.54309 0
M  V30 14607 H 1357.86 0.0617057 0.779562 0
M  V30 14608 H 1360.44 0.754591 1.79483 0
M  V30 14609 H 1358.61 -0.760248 3.80887 0
M  V30 14610 H 1360.34 -0.604818 4.00155 0
M  V30 14611 H 1357.1 1.3406 4.5423 0
M  V30 14612 H 1357.52 3.71006 5.66289 0
M  V30 14613 H 1362.16 1.3179 4.01735 0
M  V30 14614 H 1359.88 5.21204 6.17553 0
M  V30 14615 H 1363.47 3.26099 4.8182 0
M  V30 14616 H 1362.35 5.18261 5.88536 0
M  V30 14617 N 1359.85 -1.54672 0.302354 0
M  V30 14618 C 1360.76 -2.27251 -0.582578 0
M  V30 14619 C 1361.78 -1.30819 -1.14727 0
M  V30 14620 O 1362.95 -1.63803 -1.17177 0
M  V30 14621 C 1360.02 -3.00016 -1.73757 0
M  V30 14622 C 1359.08 -4.11988 -1.20682 0
M  V30 14623 C 1358.31 -4.81273 -2.30676 0
M  V30 14624 O 1358.54 -4.49927 -3.50602 0
M  V30 14625 O 1357.47 -5.68647 -1.97291 0
M  V30 14626 H 1361.3 -3.03699 0.00621365 0
M  V30 14627 H 1358.88 -1.49242 0.0687684 0
M  V30 14628 H 1360.76 -3.45652 -2.41045 0
M  V30 14629 H 1359.44 -2.26462 -2.31294 0
M  V30 14630 H 1358.35 -3.70749 -0.499625 0
M  V30 14631 H 1359.68 -4.87524 -0.676858 0
M  V30 14632 N 1361.33 -0.0301034 -1.57571 0
M  V30 14633 C 1362.29 0.936465 -2.09196 0
M  V30 14634 C 1363.29 1.25347 -1.00722 0
M  V30 14635 O 1364.48 1.19364 -1.26877 0
M  V30 14636 C 1361.62 2.2527 -2.55864 0
M  V30 14637 H 1362.81 0.489332 -2.95881 0
M  V30 14638 H 1360.36 0.217948 -1.54773 0
M  V30 14639 H 1361.1 2.7461 -1.72511 0
M  V30 14640 H 1360.88 2.03573 -3.35113 0
M  V30 14641 H 1362.37 2.94549 -2.96025 0
M  V30 14642 N 1362.81 1.55714 0.243056 0
M  V30 14643 C 1363.74 1.87093 1.32396 0
M  V30 14644 C 1364.75 0.757482 1.44104 0
M  V30 14645 O 1365.94 1.03563 1.45386 0
M  V30 14646 C 1363.04 2.04546 2.70212 0
M  V30 14647 C 1362.22 3.3543 2.80723 0
M  V30 14648 C 1361.27 3.42578 3.99408 0
M  V30 14649 O 1360.3 4.15762 3.88755 0
M  V30 14650 N 1361.5 2.7215 5.12752 0
M  V30 14651 H 1364.27 2.80399 1.05813 0
M  V30 14652 H 1361.83 1.55998 0.433151 0
M  V30 14653 H 1363.82 2.06665 3.47954 0
M  V30 14654 H 1362.39 1.17966 2.89487 0
M  V30 14655 H 1361.61 3.45594 1.89626 0
M  V30 14656 H 1362.9 4.21692 2.84698 0
M  V30 14657 H 1362.3 2.1243 5.24299 0
M  V30 14658 H 1360.85 2.79957 5.88615 0
M  V30 14659 N 1364.29 -0.50888 1.49158 0
M  V30 14660 C 1365.7 -1.09054 1.51539 0
M  V30 14661 C 1366.05 -1.93938 0.297099 0
M  V30 14662 O 1365.17 -2.08092 -0.593849 0
M  V30 14663 C 1365.77 -1.98447 2.74599 0
M  V30 14664 C 1364.33 -2.5179 2.79783 0
M  V30 14665 C 1363.47 -1.29227 2.45348 0
M  V30 14666 H 1366.43 -0.293148 1.55969 0
M  V30 14667 H 1366.45 -2.83028 2.54314 0
M  V30 14668 H 1365.96 -1.3664 3.63251 0
M  V30 14669 H 1364.06 -3.17258 1.95392 0
M  V30 14670 H 1364.17 -2.89481 3.81756 0
M  V30 14671 H 1362.54 -1.61494 1.96957 0
M  V30 14672 H 1363.32 -0.6914 3.36266 0
M  V30 14673 N 1365.76 -1.381 -0.759346 0
M  V30 14674 C 1367.01 -1.3419 -1.52055 0
M  V30 14675 C 1367.34 0.0697657 -1.94075 0
M  V30 14676 O 1366.62 1.02975 -1.65004 0
M  V30 14677 C 1366.9 -2.29236 -2.7771 0
M  V30 14678 C 1366.75 -3.79237 -2.41866 0
M  V30 14679 C 1368.07 -2.22511 -3.79706 0
M  V30 14680 H 1365.19 -0.488768 -0.551611 0
M  V30 14681 H 1367.83 -1.68902 -0.870174 0
M  V30 14682 H 1365.98 -1.99764 -3.33206 0
M  V30 14683 H 1367.66 -4.19358 -1.92189 0
M  V30 14684 H 1365.9 -3.97199 -1.74399 0
M  V30 14685 H 1366.57 -4.41193 -3.31742 0
M  V30 14686 H 1369.05 -2.48516 -3.33735 0
M  V30 14687 H 1367.92 -2.91134 -4.6533 0
M  V30 14688 H 1368.18 -1.22206 -4.24874 0
M  V30 14689 N 1367.24 0.986894 -1.22875 0
M  V30 14690 C 1368.19 2.07811 -1.00416 0
M  V30 14691 C 1369.16 1.65925 0.0761734 0
M  V30 14692 O 1370.34 1.90654 -0.0746294 0
M  V30 14693 C 1367.48 3.39941 -0.594471 0
M  V30 14694 C 1366.6 3.95134 -1.74622 0
M  V30 14695 C 1365.73 5.1545 -1.28394 0
M  V30 14696 C 1364.77 5.62794 -2.40686 0
M  V30 14697 N 1363.91 6.74343 -1.95462 0
M  V30 14698 H 1368.75 2.26356 -1.93822 0
M  V30 14699 H 1366.29 1.10966 -0.965661 0
M  V30 14700 H 1368.24 4.15828 -0.338078 0
M  V30 14701 H 1366.87 3.21379 0.302587 0
M  V30 14702 H 1365.93 3.16064 -2.11679 0
M  V30 14703 H 1367.24 4.26247 -2.59066 0
M  V30 14704 H 1366.39 5.98646 -0.98529 0
M  V30 14705 H 1365.13 4.85975 -0.409789 0
M  V30 14706 H 1364.14 4.78182 -2.71333 0
M  V30 14707 H 1365.36 5.9429 -3.28627 0
M  V30 14708 H 1363.31 6.46641 -1.10417 0
M  V30 14709 H 1363.22 7.04806 -2.73469 0
M  V30 14710 H 1364.49 7.6103 -1.68683 0
M  V30 14711 N 1368.72 1.0394 1.18466 0
M  V30 14712 C 1369.97 0.743141 1.88694 0
M  V30 14713 C 1370.3 -0.727211 1.8007 0
M  V30 14714 O 1369.57 -1.53058 1.20014 0
M  V30 14715 C 1369.86 1.20829 3.39223 0
M  V30 14716 C 1369.71 2.74064 3.56664 0
M  V30 14717 C 1371.03 0.797348 4.32817 0
M  V30 14718 H 1368.15 0.271437 0.685194 0
M  V30 14719 H 1370.79 1.29119 1.39386 0
M  V30 14720 H 1368.94 0.742033 3.81348 0
M  V30 14721 H 1370.61 3.28717 3.2364 0
M  V30 14722 H 1368.86 3.1395 2.99362 0
M  V30 14723 H 1369.53 3.01668 4.62277 0
M  V30 14724 H 1372 1.19854 3.98465 0
M  V30 14725 H 1370.88 1.15057 5.36706 0
M  V30 14726 H 1371.14 -0.299601 4.41084 0
M  V30 14727 N 1370.2 -1.34667 0.818693 0
M  V30 14728 C 1371.44 -1.98708 0.405359 0
M  V30 14729 C 1371.78 -1.64767 -1.02788 0
M  V30 14730 O 1371.05 -0.91714 -1.71519 0
M  V30 14731 C 1371.34 -3.55016 0.602966 0
M  V30 14732 C 1371.19 -3.98713 2.08201 0
M  V30 14733 C 1372.51 -4.40085 0.0362489 0
M  V30 14734 H 1369.63 -0.721831 0.148756 0
M  V30 14735 H 1372.27 -1.59628 1.03047 0
M  V30 14736 H 1370.42 -3.88435 0.0708453 0
M  V30 14737 H 1372.09 -3.75647 2.67745 0
M  V30 14738 H 1370.33 -3.49179 2.57403 0
M  V30 14739 H 1371 -5.0751 2.17111 0
M  V30 14740 H 1373.48 -4.13195 0.490837 0
M  V30 14741 H 1372.36 -5.4852 0.204344 0
M  V30 14742 H 1372.62 -4.29243 -1.05845 0
M  V30 14743 N 1371.68 -0.573274 -1.46804 0
M  V30 14744 C 1373.09 -0.144162 -1.86143 0
M  V30 14745 C 1373.44 1.29033 -1.47801 0
M  V30 14746 O 1372.56 1.97319 -0.888494 0
M  V30 14747 C 1373.16 -0.254851 -3.3784 0
M  V30 14748 C 1371.72 0.119325 -3.76211 0
M  V30 14749 C 1370.86 -0.595115 -2.70839 0
M  V30 14750 H 1373.82 -0.782057 -1.38093 0
M  V30 14751 H 1373.84 0.522321 -3.76898 0
M  V30 14752 H 1373.35 -1.29899 -3.65715 0
M  V30 14753 H 1371.45 1.16396 -3.53953 0
M  V30 14754 H 1371.56 -0.250421 -4.78445 0
M  V30 14755 H 1369.93 -0.0364028 -2.54674 0
M  V30 14756 H 1370.71 -1.64072 -3.01555 0
M  V30 14757 N 1373.15 1.5451 -0.310553 0
M  V30 14758 C 1374.09 2.2134 0.595098 0
M  V30 14759 C 1375.1 1.20917 1.09009 0
M  V30 14760 O 1376.29 1.47458 1.0059 0
M  V30 14761 C 1373.39 2.85384 1.82782 0
M  V30 14762 C 1372.56 4.11826 1.47372 0
M  V30 14763 C 1371.62 4.59584 2.56259 0
M  V30 14764 O 1370.65 5.24567 2.20949 0
M  V30 14765 N 1371.85 4.32709 3.86967 0
M  V30 14766 H 1374.61 2.99691 0.0229291 0
M  V30 14767 H 1372.17 1.61351 -0.133173 0
M  V30 14768 H 1374.17 3.14263 2.54992 0
M  V30 14769 H 1372.74 2.10816 2.30815 0
M  V30 14770 H 1371.96 3.89853 0.583826 0
M  V30 14771 H 1373.24 4.94138 1.21265 0
M  V30 14772 H 1372.64 3.80669 4.18458 0
M  V30 14773 H 1371.2 4.66275 4.55446 0
M  V30 14774 N 1374.63 0.0384594 1.57553 0
M  V30 14775 C 1375.88 -0.639085 1.92467 0
M  V30 14776 C 1376.21 -1.71239 0.916014 0
M  V30 14777 O 1375.49 -1.94408 -0.0598928 0
M  V30 14778 C 1375.77 -1.24693 3.37822 0
M  V30 14779 C 1375.62 -0.182544 4.49429 0
M  V30 14780 C 1376.94 -2.16226 3.8332 0
M  V30 14781 H 1374.06 -0.230852 0.699912 0
M  V30 14782 H 1376.7 0.0976276 1.89749 0
M  V30 14783 H 1374.85 -1.87481 3.40269 0
M  V30 14784 H 1376.53 0.448622 4.59113 0
M  V30 14785 H 1374.77 0.4909 4.31013 0
M  V30 14786 H 1375.44 -0.647626 5.48188 0
M  V30 14787 H 1377.92 -1.63413 3.82669 0
M  V30 14788 H 1376.79 -2.55705 4.85702 0
M  V30 14789 H 1377.05 -3.05722 3.19353 0
M  V30 14790 N 1376.11 -1.55841 -0.234795 0
M  V30 14791 C 1377.02 -1.94476 -1.31211 0
M  V30 14792 C 1378.04 -0.846782 -1.52005 0
M  V30 14793 O 1379.21 -1.14922 -1.65393 0
M  V30 14794 C 1376.28 -2.24213 -2.64442 0
M  V30 14795 C 1375.34 -3.47508 -2.52065 0
M  V30 14796 C 1374.57 -3.75817 -3.78942 0
M  V30 14797 O 1374.8 -3.06007 -4.81369 0
M  V30 14798 O 1373.73 -4.69328 -3.76848 0
M  V30 14799 H 1377.56 -2.8626 -1.01434 0
M  V30 14800 H 1375.14 -1.42879 -0.436563 0
M  V30 14801 H 1377.02 -2.44594 -3.4315 0
M  V30 14802 H 1375.7 -1.35605 -2.93927 0
M  V30 14803 H 1374.6 -3.32421 -1.71602 0
M  V30 14804 H 1375.94 -4.36457 -2.27523 0
M  V30 14805 N 1377.59 0.500963 -1.49426 0
M  V30 14806 C 1378.82 1.27911 -1.62624 0
M  V30 14807 C 1379.23 1.86439 -0.297651 0
M  V30 14808 O 1378.59 1.67831 0.716879 0
M  V30 14809 C 1378.64 2.40934 -2.69505 0
M  V30 14810 O 1378.36 1.84811 -3.97211 0
M  V30 14811 C 1379.86 3.32305 -2.93408 0
M  V30 14812 H 1377.08 0.387951 -0.547481 0
M  V30 14813 H 1379.63 0.601372 -1.95458 0
M  V30 14814 H 1377.78 3.04537 -2.39449 0
M  V30 14815 H 1378.2 2.59011 -4.56085 0
M  V30 14816 H 1379.67 4.0789 -3.71927 0
M  V30 14817 H 1380.15 3.89301 -2.03325 0
M  V30 14818 H 1380.75 2.74467 -3.24881 0
M  V30 14819 N 1379.07 1.38501 0.752011 0
M  V30 14820 C 1380.31 1.34995 1.51341 0
M  V30 14821 C 1380.65 -0.0594724 1.94109 0
M  V30 14822 O 1379.92 -1.02098 1.65548 0
M  V30 14823 C 1380.2 2.30705 2.76491 0
M  V30 14824 C 1380.06 3.80515 2.39851 0
M  V30 14825 C 1381.38 2.24521 3.78521 0
M  V30 14826 H 1378.5 0.491687 0.549011 0
M  V30 14827 H 1381.14 1.69361 0.861205 0
M  V30 14828 H 1379.29 2.01529 3.32142 0
M  V30 14829 H 1380.96 4.20371 1.89962 0
M  V30 14830 H 1379.2 3.98119 1.7229 0
M  V30 14831 H 1379.87 4.42946 3.29397 0
M  V30 14832 H 1382.35 2.50282 3.32413 0
M  V30 14833 H 1381.23 2.93598 4.63779 0
M  V30 14834 H 1381.49 1.24457 4.2422 0
M  V30 14835 N 1380.55 -0.980364 1.23396 0
M  V30 14836 C 1381.82 -1.69607 0.974319 0
M  V30 14837 C 1382.2 -2.0492 -0.507064 0
M  V30 14838 O 1381.55 -1.74239 -1.47827 0
M  V30 14839 C 1381.76 -2.93743 1.88457 0
M  V30 14840 C 1383.11 -3.66256 2.14806 0
M  V30 14841 O 1384.13 -3.03776 1.86007 0
M  V30 14842 O 1382.99 -4.78698 2.63648 0
M  V30 14843 H 1380.09 -0.740878 0.367462 0
M  V30 14844 H 1382.63 -1.03558 1.34439 0
M  V30 14845 H 1381.4 -2.64244 2.88601 0
M  V30 14846 H 1381.03 -3.67528 1.51688 0
M  V30 14847 N 1382.02 -1.04567 -1.17913 0
M  V30 14848 C 1383.25 -0.772204 -1.9195 0
M  V30 14849 C 1383.67 0.671303 -1.76462 0
M  V30 14850 O 1383.02 1.45805 -1.0976 0
M  V30 14851 C 1383.07 -1.13539 -3.43207 0
M  V30 14852 O 1382.8 -2.52223 -3.58211 0
M  V30 14853 C 1384.3 -0.887146 -4.34332 0
M  V30 14854 H 1381.52 -0.281234 -0.609219 0
M  V30 14855 H 1384.06 -1.39467 -1.49563 0
M  V30 14856 H 1382.22 -0.557784 -3.83363 0
M  V30 14857 H 1382.63 -2.66275 -4.51882 0
M  V30 14858 H 1384.1 -1.19107 -5.38997 0
M  V30 14859 H 1384.58 0.1779 -4.3884 0
M  V30 14860 H 1385.19 -1.44829 -3.99881 0
M  V30 14861 N 1383.5 1.34231 -0.825823 0
M  V30 14862 C 1384.43 2.31997 -0.264546 0
M  V30 14863 C 1385.41 1.58375 0.620592 0
M  V30 14864 O 1386.6 1.86341 0.546865 0
M  V30 14865 C 1383.73 3.42557 0.572025 0
M  V30 14866 C 1382.68 4.27454 -0.216219 0
M  V30 14867 C 1382.01 5.29509 0.743279 0
M  V30 14868 C 1383.31 5.02456 -1.42603 0
M  V30 14869 H 1385 2.79189 -1.08139 0
M  V30 14870 H 1382.55 1.34227 -0.521451 0
M  V30 14871 H 1384.5 4.09968 0.974889 0
M  V30 14872 H 1383.22 2.94021 1.42195 0
M  V30 14873 H 1381.88 3.61649 -0.600485 0
M  V30 14874 H 1381.53 4.77234 1.58924 0
M  V30 14875 H 1381.23 5.87188 0.220064 0
M  V30 14876 H 1382.76 5.99789 1.14394 0
M  V30 14877 H 1384.17 5.62706 -1.09702 0
M  V30 14878 H 1382.57 5.69723 -1.88509 0
M  V30 14879 H 1383.64 4.31983 -2.2027 0
M  V30 14880 N 1384.98 0.581051 1.46498 0
M  V30 14881 C 1386.4 0.242599 1.57745 0
M  V30 14882 C 1386.6 -1.25508 1.57639 0
M  V30 14883 O 1385.65 -2.0367 1.49247 0
M  V30 14884 C 1386.96 0.890342 2.87217 0
M  V30 14885 C 1388.51 0.863778 3.00845 0
M  V30 14886 C 1388.99 1.49103 4.3305 0
M  V30 14887 N 1390.48 1.4553 4.39745 0
M  V30 14888 C 1391.21 1.91003 5.40653 0
M  V30 14889 N 1390.71 2.44442 6.48244 0
M  V30 14890 N 1392.5 1.8193 5.31844 0
M  V30 14891 H 1384.65 1.55382 1.44811 0
M  V30 14892 H 1386.92 0.649375 0.690664 0
M  V30 14893 H 1386.62 1.94383 2.93101 0
M  V30 14894 H 1386.5 0.397569 3.75099 0
M  V30 14895 H 1388.88 -0.181089 2.94544 0
M  V30 14896 H 1388.96 1.39455 2.14443 0
M  V30 14897 H 1388.61 2.53509 4.40109 0
M  V30 14898 H 1388.54 0.935496 5.18224 0
M  V30 14899 H 1391.03 1.06466 3.62593 0
M  V30 14900 H 1391.34 2.77002 7.2145 0
M  V30 14901 H 1389.69 2.48467 6.49068 0
M  V30 14902 H 1392.88 1.3994 4.46693 0
M  V30 14903 H 1393.05 2.17685 6.10342 0
M  V30 14904 N 1386.46 -1.54343 0.318742 0
M  V30 14905 C 1387.68 -2.05361 -0.290126 0
M  V30 14906 C 1388.11 -1.19362 -1.45376 0
M  V30 14907 O 1387.47 -0.201639 -1.80175 0
M  V30 14908 C 1387.51 -3.53601 -0.707025 0
M  V30 14909 O 1386.62 -3.70561 -1.80992 0
M  V30 14910 H 1385.96 -0.661858 -0.0532933 0
M  V30 14911 H 1388.49 -1.99228 0.46575 0
M  V30 14912 H 1388.5 -3.95782 -0.991005 0
M  V30 14913 H 1387.17 -4.1565 0.144091 0
M  V30 14914 H 1385.75 -3.40286 -1.52513 0
M  V30 14915 N 1387.94 -0.0468143 -1.5753 0
M  V30 14916 C 1388.87 0.96433 -2.06823 0
M  V30 14917 C 1389.85 1.30663 -0.967783 0
M  V30 14918 O 1391.03 1.42025 -1.2394 0
M  V30 14919 C 1388.16 2.27954 -2.50509 0
M  V30 14920 C 1387.2 2.0906 -3.71748 0
M  V30 14921 S 1388.04 1.373 -5.17599 0
M  V30 14922 C 1389.19 2.70153 -5.64596 0
M  V30 14923 H 1389.43 0.544801 -2.92266 0
M  V30 14924 H 1386.96 0.16534 -1.53512 0
M  V30 14925 H 1388.92 3.03555 -2.76342 0
M  V30 14926 H 1387.58 2.67036 -1.65381 0
M  V30 14927 H 1386.77 3.06333 -4.0022 0
M  V30 14928 H 1386.37 1.41599 -3.46158 0
M  V30 14929 H 1388.66 3.66337 -5.69915 0
M  V30 14930 H 1389.61 2.46322 -6.63876 0
M  V30 14931 H 1390.02 2.76212 -4.92308 0
M  V30 14932 N 1389.41 1.55964 0.226527 0
M  V30 14933 C 1390.35 1.88487 1.30405 0
M  V30 14934 C 1391.36 0.772723 1.43293 0
M  V30 14935 O 1392.55 1.05099 1.44279 0
M  V30 14936 C 1389.65 2.074 2.68027 0
M  V30 14937 C 1388.82 3.38389 2.77149 0
M  V30 14938 C 1387.88 3.46795 3.95752 0
M  V30 14939 O 1386.91 4.19862 3.84323 0
M  V30 14940 N 1388.11 2.77573 5.09836 0
M  V30 14941 H 1390.87 2.81506 1.02833 0
M  V30 14942 H 1388.43 1.56449 0.416581 0
M  V30 14943 H 1390.43 2.10344 3.45742 0
M  V30 14944 H 1389 1.2103 2.8822 0
M  V30 14945 H 1388.22 3.47586 1.8595 0
M  V30 14946 H 1389.5 4.24688 2.8021 0
M  V30 14947 H 1388.9 2.17979 5.22017 0
M  V30 14948 H 1387.46 2.86185 5.85612 0
M  V30 14949 N 1390.89 -0.493031 1.4969 0
M  V30 14950 C 1392.14 -1.24849 1.59814 0
M  V30 14951 C 1392.47 -1.92059 0.287555 0
M  V30 14952 O 1391.75 -1.81099 -0.709471 0
M  V30 14953 C 1392.03 -2.30929 2.76304 0
M  V30 14954 C 1391.88 -1.68167 4.17181 0
M  V30 14955 C 1393.2 -3.32427 2.8841 0
M  V30 14956 H 1390.32 -0.452553 0.581691 0
M  V30 14957 H 1392.96 -0.545455 1.82002 0
M  V30 14958 H 1391.11 -2.9089 2.57517 0
M  V30 14959 H 1392.78 -1.11971 4.47504 0
M  V30 14960 H 1391.03 -0.985496 4.22458 0
M  V30 14961 H 1391.7 -2.45148 4.94577 0
M  V30 14962 H 1394.17 -2.82464 3.05537 0
M  V30 14963 H 1393.05 -4.04004 3.71581 0
M  V30 14964 H 1393.31 -3.95234 1.98097 0
M  V30 14965 N 1392.37 -1.38898 -0.744656 0
M  V30 14966 C 1393.65 -1.2611 -1.49518 0
M  V30 14967 C 1394.03 0.133592 -2.10677 0
M  V30 14968 O 1393.38 1.14394 -1.97804 0
M  V30 14969 C 1393.59 -2.37809 -2.55437 0
M  V30 14970 C 1394.93 -2.76664 -3.22091 0
M  V30 14971 O 1395.96 -2.37187 -2.65746 0
M  V30 14972 O 1394.82 -3.44771 -4.24023 0
M  V30 14973 H 1391.91 -0.493664 -0.663494 0
M  V30 14974 H 1394.46 -1.50748 -0.779304 0
M  V30 14975 H 1393.23 -3.31089 -2.08556 0
M  V30 14976 H 1392.85 -2.14783 -3.34595 0
M  V30 14977 N 1393.85 0.973806 -1.23914 0
M  V30 14978 C 1394.8 2.08861 -1.02372 0
M  V30 14979 C 1395.79 1.69354 0.039415 0
M  V30 14980 O 1397 1.79635 -0.114637 0
M  V30 14981 H 1393.37 0.683313 -0.313986 0
M  V30 14982 H 1395.34 2.24195 -1.96924 0
M  V30 14983 C 1394.09 3.41784 -0.638661 0
M  V30 14984 H 1393.41 3.72639 -1.44846 0
M  V30 14985 H 1394.85 4.20706 -0.527487 0
M  V30 14986 C 1393.31 3.30497 0.65369 0
M  V30 14987 O 1393.84 3.63905 1.70107 0
M  V30 14988 N 1392.05 2.83642 0.632104 0
M  V30 14989 H 1391.6 2.56654 -0.220571 0
M  V30 14990 H 1391.55 2.76472 1.49701 0
M  V30 14991 N 1395.33 1.05191 1.17357 0
M  V30 14992 C 1396.26 0.673931 2.23563 0
M  V30 14993 C 1397.24 -0.328284 1.66902 0
M  V30 14994 O 1398.42 -0.205878 1.93106 0
M  V30 14995 C 1395.55 0.0478801 3.47267 0
M  V30 14996 C 1394.51 0.974855 4.1675 0
M  V30 14997 C 1393.83 0.212684 5.34277 0
M  V30 14998 C 1395.13 2.299 4.68981 0
M  V30 14999 H 1396.83 1.56183 2.55436 0
M  V30 15000 H 1394.37 0.752408 1.2278 0
M  V30 15001 H 1396.33 -0.228343 4.20781 0
M  V30 15002 H 1395.05 -0.874963 3.14662 0
M  V30 15003 H 1393.71 1.23564 3.45148 0
M  V30 15004 H 1393.36 -0.712924 4.97922 0
M  V30 15005 H 1393.06 0.830351 5.81703 0
M  V30 15006 H 1394.58 -0.056255 6.10574 0
M  V30 15007 H 1395.99 2.08269 5.34132 0
M  V30 15008 H 1394.39 2.87064 5.26986 0
M  V30 15009 H 1395.46 2.93759 3.8579 0
M  V30 15010 N 1396.8 -1.33791 0.83293 0
M  V30 15011 C 1397.73 -2.31853 0.276846 0
M  V30 15012 C 1398.72 -1.58702 -0.612184 0
M  V30 15013 O 1399.9 -1.86629 -0.536975 0
M  V30 15014 C 1397.03 -3.42855 -0.55385 0
M  V30 15015 C 1395.98 -4.27333 0.238884 0
M  V30 15016 C 1395.31 -5.29895 -0.715187 0
M  V30 15017 C 1396.61 -5.01692 1.45265 0
M  V30 15018 H 1398.3 -2.78611 1.09618 0
M  V30 15019 H 1395.85 -1.33949 0.528562 0
M  V30 15020 H 1397.8 -4.10479 -0.953133 0
M  V30 15021 H 1396.53 -2.94771 -1.40634 0
M  V30 15022 H 1395.19 -3.61325 0.619656 0
M  V30 15023 H 1394.83 -4.7807 -1.56391 0
M  V30 15024 H 1394.53 -5.87296 -0.188921 0
M  V30 15025 H 1396.06 -6.00387 -1.11211 0
M  V30 15026 H 1397.47 -5.62117 1.12685 0
M  V30 15027 H 1395.87 -5.68715 1.91528 0
M  V30 15028 H 1396.94 -4.30809 2.22558 0
M  V30 15029 N 1398.28 -0.588812 -1.46187 0
M  V30 15030 C 1399.21 0.128595 -2.33146 0
M  V30 15031 C 1400.19 0.877608 -1.45712 0
M  V30 15032 O 1401.38 0.851866 -1.74519 0
M  V30 15033 C 1398.51 1.13886 -3.28096 0
M  V30 15034 C 1397.46 0.504296 -4.25019 0
M  V30 15035 C 1396.79 1.62147 -5.09522 0
M  V30 15036 C 1398.09 -0.562466 -5.19263 0
M  V30 15037 H 1399.78 -0.597455 -2.93378 0
M  V30 15038 H 1397.33 -0.288764 -1.41075 0
M  V30 15039 H 1399.28 1.64916 -3.8779 0
M  V30 15040 H 1398.01 1.89527 -2.65983 0
M  V30 15041 H 1396.66 0.0150325 -3.66597 0
M  V30 15042 H 1396.31 2.36769 -4.4379 0
M  V30 15043 H 1396.01 1.20249 -5.75164 0
M  V30 15044 H 1397.54 2.13441 -5.7208 0
M  V30 15045 H 1398.95 -0.137003 -5.73136 0
M  V30 15046 H 1397.35 -0.902115 -5.93281 0
M  V30 15047 H 1398.42 -1.4464 -4.62825 0
M  V30 15048 N 1399.76 1.54172 -0.326923 0
M  V30 15049 C 1401.01 2.00926 0.275047 0
M  V30 15050 C 1401.34 1.21469 1.51522 0
M  V30 15051 O 1400.61 0.297871 1.92206 0
M  V30 15052 C 1400.9 3.54967 0.605833 0
M  V30 15053 C 1400.75 4.45147 -0.645279 0
M  V30 15054 C 1402.07 4.16489 1.42213 0
M  V30 15055 H 1399.19 0.730389 0.098495 0
M  V30 15056 H 1401.83 1.84735 -0.444168 0
M  V30 15057 H 1399.98 3.68895 1.21857 0
M  V30 15058 H 1401.65 4.43085 -1.2835 0
M  V30 15059 H 1399.9 4.14686 -1.27349 0
M  V30 15060 H 1400.57 5.50763 -0.36932 0
M  V30 15061 H 1403.04 4.06158 0.904172 0
M  V30 15062 H 1401.92 5.24377 1.62234 0
M  V30 15063 H 1402.18 3.70032 2.41928 0
M  V30 15064 N 1401.24 0.0551678 1.57503 0
M  V30 15065 C 1402.48 -0.618636 1.93134 0
M  V30 15066 C 1402.82 -1.70258 0.934125 0
M  V30 15067 O 1402.09 -1.9446 -0.0392699 0
M  V30 15068 C 1402.38 -1.21103 3.39126 0
M  V30 15069 C 1402.23 -0.134865 4.49598 0
M  V30 15070 C 1403.55 -2.12148 3.85592 0
M  V30 15071 H 1400.67 -0.223416 0.702321 0
M  V30 15072 H 1403.31 0.117748 1.89635 0
M  V30 15073 H 1401.46 -1.83862 3.42238 0
M  V30 15074 H 1403.13 0.497292 4.58612 0
M  V30 15075 H 1401.37 0.536587 4.30469 0
M  V30 15076 H 1402.04 -0.589447 5.48844 0
M  V30 15077 H 1404.52 -1.59346 3.8438 0
M  V30 15078 H 1403.4 -2.50539 4.88387 0
M  V30 15079 H 1403.66 -3.02318 3.22578 0
M  V30 15080 N 1402.72 -1.56081 -0.218252 0
M  V30 15081 C 1403.65 -1.87704 -1.29779 0
M  V30 15082 C 1404.63 -0.734747 -1.45053 0
M  V30 15083 O 1405.81 -0.98344 -1.60813 0
M  V30 15084 C 1402.94 -2.08695 -2.66766 0
M  V30 15085 C 1401.98 -3.31385 -2.68489 0
M  V30 15086 S 1402.82 -4.87212 -2.22227 0
M  V30 15087 C 1403.97 -5.11243 -3.61083 0
M  V30 15088 H 1404.21 -2.78975 -1.02762 0
M  V30 15089 H 1401.74 -1.48559 -0.420653 0
M  V30 15090 H 1403.7 -2.21472 -3.4563 0
M  V30 15091 H 1402.36 -1.18215 -2.91005 0
M  V30 15092 H 1401.55 -3.43127 -3.69161 0
M  V30 15093 H 1401.15 -3.17482 -1.9769 0
M  V30 15094 H 1403.45 -5.00344 -4.56796 0
M  V30 15095 H 1404.39 -6.13115 -3.54254 0
M  V30 15096 H 1404.8 -4.38964 -3.54924 0
M  V30 15097 N 1404.2 0.485086 -1.49949 0
M  V30 15098 C 1405.13 1.60191 -1.63926 0
M  V30 15099 C 1406.14 1.5423 -0.521256 0
M  V30 15100 O 1407.33 1.59872 -0.79392 0
M  V30 15101 C 1404.43 2.99035 -1.59472 0
M  V30 15102 C 1403.6 3.30014 -2.87071 0
M  V30 15103 C 1402.66 4.48345 -2.75451 0
M  V30 15104 O 1401.69 4.49342 -3.494 0
M  V30 15105 N 1402.89 5.49192 -1.88064 0
M  V30 15106 H 1405.65 1.48622 -2.60253 0
M  V30 15107 H 1403.22 0.673258 -1.47237 0
M  V30 15108 H 1405.21 3.76142 -1.4933 0
M  V30 15109 H 1403.78 3.04445 -0.709373 0
M  V30 15110 H 1403 2.41652 -3.11445 0
M  V30 15111 H 1404.29 3.47515 -3.71632 0
M  V30 15112 H 1403.68 5.51198 -1.2727 0
M  V30 15113 H 1402.24 6.25338 -1.83835 0
M  V30 15114 N 1405.67 1.39291 0.737279 0
M  V30 15115 C 1406.9 1.39844 1.53162 0
M  V30 15116 C 1407.32 -0.00568546 1.88099 0
M  V30 15117 O 1406.68 -0.992085 1.51748 0
M  V30 15118 C 1406.73 2.27577 2.79716 0
M  V30 15119 O 1405.83 1.70408 3.75546 0
M  V30 15120 H 1405.17 0.476314 0.462624 0
M  V30 15121 H 1407.7 1.83258 0.909819 0
M  V30 15122 H 1407.71 2.42009 3.28475 0
M  V30 15123 H 1406.39 3.29621 2.53619 0
M  V30 15124 H 1404.97 1.65206 3.34307 0
M  V30 15125 N 1407.15 -0.967221 1.24429 0
M  V30 15126 C 1408.11 -2.04344 1.03808 0
M  V30 15127 C 1409.11 -1.60799 -0.00476972 0
M  V30 15128 O 1410.3 -1.72591 0.236241 0
M  V30 15129 C 1407.44 -3.36041 0.573496 0
M  V30 15130 H 1408.63 -2.2407 1.9933 0
M  V30 15131 H 1406.18 -1.14253 1.06658 0
M  V30 15132 H 1406.92 -3.22008 -0.384898 0
M  V30 15133 H 1406.7 -3.68991 1.32619 0
M  V30 15134 H 1408.19 -4.15165 0.450272 0
M  V30 15135 N 1408.63 -1.05812 -1.16797 0
M  V30 15136 C 1409.58 -0.634669 -2.18988 0
M  V30 15137 C 1410.56 0.332122 -1.57435 0
M  V30 15138 O 1411.76 0.148346 -1.76377 0
M  V30 15139 C 1408.88 -0.0174742 -3.43296 0
M  V30 15140 C 1407.97 -1.00847 -4.11935 0
M  V30 15141 N 1408.36 -2.18223 -4.56303 0
M  V30 15142 C 1406.66 -0.838325 -4.3805 0
M  V30 15143 C 1407.36 -2.80967 -5.09345 0
M  V30 15144 N 1406.34 -2.08725 -5.01931 0
M  V30 15145 H 1410.14 -1.52888 -2.51003 0
M  V30 15146 H 1407.65 -0.929125 -1.33195 0
M  V30 15147 H 1409.65 0.303692 -4.15792 0
M  V30 15148 H 1408.31 0.872052 -3.1277 0
M  V30 15149 H 1409.32 -2.56025 -4.5019 0
M  V30 15150 H 1406 -0.000376066 -4.175 0
M  V30 15151 H 1407.39 -3.80541 -5.53749 0
M  V30 15152 N 1410.11 1.33347 -0.840014 0
M  V30 15153 C 1411.04 2.31703 -0.289138 0
M  V30 15154 C 1412.02 1.59024 0.603759 0
M  V30 15155 O 1413.2 1.86911 0.527071 0
M  V30 15156 C 1410.33 3.43144 0.53566 0
M  V30 15157 C 1409.29 4.272 -0.261544 0
M  V30 15158 C 1408.61 5.30267 0.687075 0
M  V30 15159 C 1409.91 5.00915 -1.47924 0
M  V30 15160 H 1411.61 2.78026 -1.11094 0
M  V30 15161 H 1409.15 1.33666 -0.535658 0
M  V30 15162 H 1411.11 4.10979 0.931351 0
M  V30 15163 H 1409.83 2.95512 1.39069 0
M  V30 15164 H 1408.49 3.60991 -0.638809 0
M  V30 15165 H 1408.14 4.78893 1.53853 0
M  V30 15166 H 1407.84 5.87388 0.157773 0
M  V30 15167 H 1409.36 6.00968 1.08026 0
M  V30 15168 H 1410.78 5.61511 -1.15664 0
M  V30 15169 H 1409.17 5.67692 -1.94541 0
M  V30 15170 H 1410.24 4.29622 -2.24839 0
M  V30 15171 N 1411.59 0.596556 1.45873 0
M  V30 15172 C 1412.81 0.0934926 2.06689 0
M  V30 15173 C 1413.23 -1.21743 1.44305 0
M  V30 15174 O 1412.59 -1.73912 0.553253 0
M  V30 15175 C 1412.64 -0.0643337 3.61443 0
M  V30 15176 O 1412.36 1.19472 4.21495 0
M  V30 15177 C 1413.86 -0.600141 4.39219 0
M  V30 15178 H 1411.08 0.0637846 0.667961 0
M  V30 15179 H 1413.62 0.821159 1.87289 0
M  V30 15180 H 1411.78 -0.742278 3.80222 0
M  V30 15181 H 1412.19 1.01735 5.14539 0
M  V30 15182 H 1413.67 -0.6597 5.48044 0
M  V30 15183 H 1414.14 -1.62009 4.08227 0
M  V30 15184 H 1414.75 0.0433915 4.25278 0
M  V30 15185 N 1413.06 -1.53996 0.335095 0
M  V30 15186 C 1414.31 -1.99952 -0.264954 0
M  V30 15187 C 1414.63 -1.22696 -1.52332 0
M  V30 15188 O 1415.83 -1.59086 -2.20009 0
M  V30 15189 C 1414.29 -3.56085 -0.522667 0
M  V30 15190 C 1413.9 -4.42188 0.719314 0
M  V30 15191 C 1415.64 -4.10478 -1.08204 0
M  V30 15192 C 1413.55 -5.89814 0.432867 0
M  V30 15193 H 1412.48 -0.746962 -0.102782 0
M  V30 15194 H 1415.13 -1.77919 0.449111 0
M  V30 15195 H 1413.51 -3.7415 -1.29722 0
M  V30 15196 H 1414.68 -4.35898 1.49432 0
M  V30 15197 H 1413 -3.98743 1.19972 0
M  V30 15198 H 1415.6 -5.18375 -1.31116 0
M  V30 15199 H 1415.94 -3.63173 -2.03497 0
M  V30 15200 H 1416.47 -3.96091 -0.368395 0
M  V30 15201 H 1413.21 -6.41336 1.35529 0
M  V30 15202 H 1412.73 -5.99028 -0.304214 0
M  V30 15203 H 1414.41 -6.46983 0.0469657 0
M  V30 15204 N 1414.54 -0.0635198 -1.57472 0
M  V30 15205 C 1415.47 0.93602 -2.09216 0
M  V30 15206 C 1416.49 1.2668 -1.02255 0
M  V30 15207 O 1417.68 1.22543 -1.2979 0
M  V30 15208 C 1414.78 2.25417 -2.53062 0
M  V30 15209 C 1413.95 2.10347 -3.83501 0
M  V30 15210 C 1413.01 3.25394 -4.13528 0
M  V30 15211 O 1412.03 3.00751 -4.83257 0
M  V30 15212 N 1413.24 4.50243 -3.66417 0
M  V30 15213 H 1416 0.494288 -2.95596 0
M  V30 15214 H 1413.56 0.122416 -1.61437 0
M  V30 15215 H 1415.55 3.01272 -2.70217 0
M  V30 15216 H 1414.12 2.61116 -1.71864 0
M  V30 15217 H 1413.34 1.19009 -3.75807 0
M  V30 15218 H 1414.63 1.97519 -4.68896 0
M  V30 15219 H 1414.03 4.73152 -3.1007 0
M  V30 15220 H 1412.59 5.23152 -3.88787 0
M  V30 15221 N 1416.02 1.56195 0.209972 0
M  V30 15222 C 1417.44 1.49446 0.56018 0
M  V30 15223 C 1417.64 0.760799 1.86585 0
M  V30 15224 O 1416.69 0.305201 2.50649 0
M  V30 15225 C 1418 2.94054 0.628687 0
M  V30 15226 C 1419.55 3.04641 0.718531 0
M  V30 15227 C 1420.03 4.50631 0.81828 0
M  V30 15228 N 1421.52 4.54721 0.8822 0
M  V30 15229 C 1422.25 5.64976 0.979292 0
M  V30 15230 N 1421.75 6.84955 1.03961 0
M  V30 15231 N 1423.54 5.52854 1.01533 0
M  V30 15232 H 1415.69 2.02316 -0.646674 0
M  V30 15233 H 1417.96 0.920063 -0.228446 0
M  V30 15234 H 1417.66 3.50728 -0.261324 0
M  V30 15235 H 1417.54 3.46592 1.48842 0
M  V30 15236 H 1419.92 2.48026 1.59898 0
M  V30 15237 H 1420 2.55254 -0.167102 0
M  V30 15238 H 1419.65 5.07867 -0.0577557 0
M  V30 15239 H 1419.58 4.97736 1.7195 0
M  V30 15240 H 1422.07 3.68322 0.845433 0
M  V30 15241 H 1422.38 7.64732 1.11379 0
M  V30 15242 H 1420.73 6.87643 1.00854 0
M  V30 15243 H 1423.92 4.58046 0.96494 0
M  V30 15244 H 1424.09 6.38809 1.08754 0
M  V30 15245 N 1417.5 -0.477127 1.50204 0
M  V30 15246 C 1418.44 -1.57587 1.68626 0
M  V30 15247 C 1419.41 -1.57499 0.527576 0
M  V30 15248 O 1420.6 -1.75121 0.757438 0
M  V30 15249 C 1417.74 -2.956 1.78086 0
M  V30 15250 C 1416.85 -3.05523 3.05417 0
M  V30 15251 C 1415.99 -4.34414 3.05709 0
M  V30 15252 C 1415.03 -4.38057 4.27519 0
M  V30 15253 N 1414.16 -5.5841 4.25585 0
M  V30 15254 H 1419 -1.41185 2.62433 0
M  V30 15255 H 1416.54 -0.686537 1.30096 0
M  V30 15256 H 1418.5 -3.75626 1.81552 0
M  V30 15257 H 1417.13 -3.10651 0.877251 0
M  V30 15258 H 1416.18 -2.18409 3.11451 0
M  V30 15259 H 1417.49 -3.04075 3.95398 0
M  V30 15260 H 1416.65 -5.22782 3.07871 0
M  V30 15261 H 1415.39 -4.38462 2.13548 0
M  V30 15262 H 1414.39 -3.48087 4.25577 0
M  V30 15263 H 1415.62 -4.35705 5.20901 0
M  V30 15264 H 1413.56 -5.63255 3.36274 0
M  V30 15265 H 1413.48 -5.58677 5.09328 0
M  V30 15266 H 1414.75 -6.4892 4.31884 0
M  V30 15267 N 1418.98 -1.3968 -0.729882 0
M  V30 15268 C 1419.94 -1.38577 -1.82562 0
M  V30 15269 C 1420.94 -0.281994 -1.58308 0
M  V30 15270 O 1422.13 -0.540165 -1.65614 0
M  V30 15271 C 1419.26 -1.16343 -3.20433 0
M  V30 15272 H 1420.45 -2.36086 -1.84942 0
M  V30 15273 H 1418.01 -1.25319 -0.934063 0
M  V30 15274 H 1418.74 -0.195372 -3.23711 0
M  V30 15275 H 1418.53 -1.96282 -3.39435 0
M  V30 15276 H 1420.02 -1.18325 -4.00486 0
M  V30 15277 N 1420.45 0.960609 -1.2494 0
M  V30 15278 C 1421.7 1.70448 -1.09333 0
M  V30 15279 C 1422.03 1.91012 0.366687 0
M  V30 15280 O 1421.28 1.4743 1.28697 0
M  V30 15281 C 1421.58 3.09564 -1.78619 0
M  V30 15282 C 1421.25 3.08819 -3.28545 0
M  V30 15283 C 1419.91 3.08323 -3.69446 0
M  V30 15284 C 1422.26 3.02606 -4.24357 0
M  V30 15285 C 1419.59 2.99356 -5.04582 0
M  V30 15286 C 1421.94 2.9518 -5.5951 0
M  V30 15287 C 1420.61 2.93017 -5.99748 0
M  V30 15288 H 1419.88 0.623714 -0.400078 0
M  V30 15289 H 1422.52 1.12273 -1.55136 0
M  V30 15290 H 1420.83 3.71247 -1.2523 0
M  V30 15291 H 1422.53 3.6593 -1.64001 0
M  V30 15292 H 1419.12 3.09974 -2.95997 0
M  V30 15293 H 1423.3 3.02113 -3.93753 0
M  V30 15294 H 1418.56 2.96046 -5.34946 0
M  V30 15295 H 1422.73 2.89333 -6.3345 0
M  V30 15296 H 1420.36 2.85824 -7.04421 0
M  V30 15297 N 1421.93 1.0643 1.16234 0
M  V30 15298 C 1422.86 0.634274 2.20249 0
M  V30 15299 C 1423.88 -0.308432 1.59852 0
M  V30 15300 O 1425.07 -0.0992067 1.78224 0
M  V30 15301 C 1422.17 -0.0901593 3.3878 0
M  V30 15302 C 1421.34 0.866379 4.28734 0
M  V30 15303 C 1420.4 0.180942 5.25889 0
M  V30 15304 O 1419.42 0.819034 5.63277 0
M  V30 15305 N 1420.63 -1.07698 5.70422 0
M  V30 15306 H 1423.39 1.52901 2.57762 0
M  V30 15307 H 1420.95 0.947789 1.31258 0
M  V30 15308 H 1422.94 -0.559147 4.00819 0
M  V30 15309 H 1421.51 -0.886715 2.9976 0
M  V30 15310 H 1420.73 1.51471 3.63937 0
M  V30 15311 H 1422.02 1.51524 4.85714 0
M  V30 15312 H 1421.42 -1.6155 5.42142 0
M  V30 15313 H 1419.98 -1.48981 6.34545 0
M  V30 15314 N 1423.41 -1.329 0.847073 0
M  V30 15315 C 1424.34 -2.27903 0.243522 0
M  V30 15316 C 1425.36 -1.52101 -0.58043 0
M  V30 15317 O 1426.54 -1.73818 -0.406158 0
M  V30 15318 C 1423.64 -3.32107 -0.675118 0
M  V30 15319 C 1422.82 -4.37258 0.111305 0
M  V30 15320 C 1421.88 -5.21085 -0.731933 0
M  V30 15321 O 1420.9 -5.68951 -0.168176 0
M  V30 15322 N 1422.1 -5.43175 -2.04794 0
M  V30 15323 H 1424.87 -2.80335 1.05983 0
M  V30 15324 H 1422.43 -1.4568 0.706322 0
M  V30 15325 H 1424.42 -3.85093 -1.2444 0
M  V30 15326 H 1422.99 -2.79891 -1.39212 0
M  V30 15327 H 1422.21 -3.8466 0.861991 0
M  V30 15328 H 1423.5 -5.04608 0.651756 0
M  V30 15329 H 1422.9 -5.06002 -2.5294 0
M  V30 15330 H 1421.46 -5.99186 -2.56552 0
M  V30 15331 N 1424.89 -0.604284 -1.45555 0
M  V30 15332 C 1426.11 -0.102634 -2.07146 0
M  V30 15333 C 1426.54 1.20239 -1.44652 0
M  V30 15334 O 1425.9 1.73133 -0.538033 0
M  V30 15335 C 1425.94 0.0270231 -3.6059 0
M  V30 15336 O 1425.05 1.0781 -3.98059 0
M  V30 15337 H 1424.39 -0.0725667 -0.660023 0
M  V30 15338 H 1426.92 -0.833355 -1.86859 0
M  V30 15339 H 1426.93 0.226299 -4.07372 0
M  V30 15340 H 1425.6 -0.925896 -4.05463 0
M  V30 15341 H 1424.18 0.855552 -3.62953 0
M  V30 15342 N 1426.37 1.53816 -0.343257 0
M  V30 15343 C 1427.62 2.0009 0.254346 0
M  V30 15344 C 1427.93 1.23502 1.51679 0
M  V30 15345 O 1429.13 1.60251 2.19162 0
M  V30 15346 C 1427.59 3.56357 0.503775 0
M  V30 15347 C 1427.2 4.418 -0.742754 0
M  V30 15348 C 1428.94 4.11046 1.06025 0
M  V30 15349 C 1426.85 5.89576 -0.46414 0
M  V30 15350 H 1425.78 0.747496 0.0988189 0
M  V30 15351 H 1428.43 1.77679 -0.45854 0
M  V30 15352 H 1426.81 3.74833 1.27736 0
M  V30 15353 H 1427.99 4.35099 -1.51742 0
M  V30 15354 H 1426.3 3.98101 -1.22085 0
M  V30 15355 H 1428.9 5.19063 1.28365 0
M  V30 15356 H 1429.24 3.64247 2.01568 0
M  V30 15357 H 1429.77 3.9628 0.347384 0
M  V30 15358 H 1426.51 6.40608 -1.38928 0
M  V30 15359 H 1426.03 5.99181 0.272441 0
M  V30 15360 H 1427.71 6.46949 -0.0812761 0
M  V30 15361 N 1427.84 0.0718701 1.57436 0
M  V30 15362 C 1428.75 -0.910077 2.16229 0
M  V30 15363 C 1429.77 -1.32699 1.12548 0
M  V30 15364 O 1430.95 -1.39967 1.44814 0
M  V30 15365 C 1428.01 -2.15942 2.71238 0
M  V30 15366 C 1427.07 -1.79891 3.89792 0
M  V30 15367 C 1426.31 -2.9887 4.42168 0
M  V30 15368 O 1426.53 -4.1289 3.93545 0
M  V30 15369 O 1425.46 -2.78682 5.33498 0
M  V30 15370 H 1429.29 -0.439969 3.00496 0
M  V30 15371 H 1426.87 -0.151204 1.48633 0
M  V30 15372 H 1428.76 -2.89204 3.06494 0
M  V30 15373 H 1427.43 -2.62051 1.90029 0
M  V30 15374 H 1426.34 -1.03881 3.59388 0
M  V30 15375 H 1427.67 -1.38566 4.72293 0
M  V30 15376 N 1429.32 -1.56304 -0.201686 0
M  V30 15377 C 1430.57 -1.79881 -0.921269 0
M  V30 15378 C 1430.89 -0.643809 -1.84065 0
M  V30 15379 O 1430.16 0.338239 -1.92958 0
M  V30 15380 H 1428.74 -0.663506 -0.343175 0
M  V30 15381 H 1431.4 -1.93779 -0.208775 0
M  V30 15382 H 1430.5 -2.7279 -1.51631 0
M  V30 15383 N 1430.8 0.469154 -1.50455 0
M  V30 15384 C 1431.73 1.57493 -1.7239 0
M  V30 15385 C 1432.71 1.60161 -0.572915 0
M  V30 15386 O 1433.9 1.76397 -0.812259 0
M  V30 15387 C 1431.03 2.95804 -1.81981 0
M  V30 15388 C 1429.98 3.08001 -2.97185 0
M  V30 15389 C 1429.31 4.4798 -2.91922 0
M  V30 15390 C 1430.61 2.85039 -4.37665 0
M  V30 15391 H 1432.3 1.39389 -2.64974 0
M  V30 15392 H 1429.85 0.669133 -1.27509 0
M  V30 15393 H 1431.8 3.73091 -1.95911 0
M  V30 15394 H 1430.52 3.15068 -0.86021 0
M  V30 15395 H 1429.18 2.33148 -2.82909 0
M  V30 15396 H 1428.83 4.64165 -1.93803 0
M  V30 15397 H 1428.53 4.57076 -3.69263 0
M  V30 15398 H 1430.05 5.27284 -3.07903 0
M  V30 15399 H 1431.47 3.52074 -4.52456 0
M  V30 15400 H 1429.87 3.05578 -5.16471 0
M  V30 15401 H 1430.94 1.8088 -4.499 0
M  V30 15402 N 1432.28 1.40065 0.722464 0
M  V30 15403 C 1433.21 1.34182 1.84582 0
M  V30 15404 C 1434.19 0.213339 1.61194 0
M  V30 15405 O 1435.37 0.395867 1.84296 0
M  V30 15406 C 1432.5 1.08658 3.20798 0
M  V30 15407 C 1431.55 2.23865 3.63024 0
M  V30 15408 S 1432.38 3.86221 3.70936 0
M  V30 15409 C 1433.54 3.62948 5.09921 0
M  V30 15410 H 1433.77 2.29251 1.89291 0
M  V30 15411 H 1431.3 1.26269 0.888568 0
M  V30 15412 H 1433.26 0.946172 3.99447 0
M  V30 15413 H 1431.92 0.152542 3.13729 0
M  V30 15414 H 1431.11 2.01631 4.6191 0
M  V30 15415 H 1430.72 2.34174 2.91614 0
M  V30 15416 H 1433.01 3.20989 5.96634 0
M  V30 15417 H 1433.95 4.6134 5.37188 0
M  V30 15418 H 1434.36 2.9678 4.8019 0
M  V30 15419 N 1433.76 -0.95397 1.25448 0
M  V30 15420 C 1434.99 -1.73331 1.12977 0
M  V30 15421 C 1435.4 -1.86131 -0.316364 0
M  V30 15422 O 1434.76 -1.35951 -1.21753 0
M  V30 15423 C 1434.81 -3.14675 1.77938 0
M  V30 15424 O 1434.53 -3.025 3.16899 0
M  V30 15425 C 1436.03 -4.08884 1.71256 0
M  V30 15426 H 1433.25 -0.543118 0.394036 0
M  V30 15427 H 1435.79 -1.19678 1.65823 0
M  V30 15428 H 1433.95 -3.6527 1.29062 0
M  V30 15429 H 1434.36 -3.91668 3.4885 0
M  V30 15430 H 1435.84 -5.05668 2.21368 0
M  V30 15431 H 1436.31 -4.33959 0.676476 0
M  V30 15432 H 1436.92 -3.64205 2.19624 0
M  V30 15433 N 1435.24 -1.07045 -1.15668 0
M  V30 15434 C 1436.17 -0.709413 -2.22463 0
M  V30 15435 C 1437.15 0.30169 -1.67403 0
M  V30 15436 O 1438.33 0.175131 -1.93409 0
M  V30 15437 C 1435.46 -0.103121 -3.47147 0
M  V30 15438 C 1434.42 -1.04103 -4.15146 0
M  V30 15439 C 1433.74 -0.297656 -5.33871 0
M  V30 15440 C 1435.04 -2.37332 -4.65264 0
M  V30 15441 H 1436.74 -1.60227 -2.52918 0
M  V30 15442 H 1434.28 -0.771846 -1.21567 0
M  V30 15443 H 1436.23 0.161371 -4.21091 0
M  V30 15444 H 1434.96 0.824792 -3.16014 0
M  V30 15445 H 1433.62 -1.2904 -3.43139 0
M  V30 15446 H 1433.27 0.633618 -4.98993 0
M  V30 15447 H 1432.97 -0.922789 -5.80309 0
M  V30 15448 H 1434.49 -0.0408892 -6.10586 0
M  V30 15449 H 1435.9 -2.1674 -5.30751 0
M  V30 15450 H 1434.3 -2.95412 -5.22352 0
M  V30 15451 H 1435.37 -2.99859 -3.81068 0
M  V30 15452 N 1436.71 1.32449 -0.85411 0
M  V30 15453 C 1437.95 1.99075 -0.463504 0
M  V30 15454 C 1438.32 1.66118 0.962739 0
M  V30 15455 O 1439.52 2.25831 1.45787 0
M  V30 15456 C 1437.79 3.50574 -0.695161 0
M  V30 15457 S 1439.35 4.36954 -0.402047 0
M  V30 15458 H 1436.17 0.689464 -0.173666 0
M  V30 15459 H 1438.77 1.61159 -1.1067 0
M  V30 15460 H 1437.47 3.72049 -1.73227 0
M  V30 15461 H 1437 3.93381 -0.0383675 0
M  V30 15462 H 1439.02 4.90155 0.772147 0
M  V30 15463 N 1438.19 0.611994 1.45232 0
M  V30 15464 C 1439.12 -0.142449 2.28757 0
M  V30 15465 C 1440.14 -0.827486 1.40202 0
M  V30 15466 O 1441.33 -0.692136 1.64535 0
M  V30 15467 C 1438.43 -1.22296 3.16065 0
M  V30 15468 C 1437.6 -0.624178 4.32924 0
M  V30 15469 C 1436.66 -1.59615 5.01408 0
M  V30 15470 O 1435.68 -1.12073 5.58058 0
M  V30 15471 N 1436.89 -2.93057 5.01097 0
M  V30 15472 H 1439.65 0.574276 2.94147 0
M  V30 15473 H 1437.21 0.451789 1.55469 0
M  V30 15474 H 1439.2 -1.87309 3.58744 0
M  V30 15475 H 1437.77 -1.84215 2.52554 0
M  V30 15476 H 1436.99 0.204141 3.93671 0
M  V30 15477 H 1438.28 -0.204435 5.08389 0
M  V30 15478 H 1437.68 -3.3428 4.5637 0
M  V30 15479 H 1436.24 -3.53481 5.47626 0
M  V30 15480 N 1439.67 -1.53632 0.351409 0
M  V30 15481 C 1440.58 -2.2899 -0.509985 0
M  V30 15482 C 1441.6 -1.34403 -1.10507 0
M  V30 15483 O 1442.77 -1.67448 -1.11906 0
M  V30 15484 C 1439.84 -3.05392 -1.64124 0
M  V30 15485 C 1438.9 -4.15619 -1.07514 0
M  V30 15486 C 1438.13 -4.88369 -2.15248 0
M  V30 15487 O 1438.35 -4.60854 -3.3611 0
M  V30 15488 O 1437.29 -5.74636 -1.79101 0
M  V30 15489 H 1441.11 -3.03526 0.10283 0
M  V30 15490 H 1438.7 -1.48947 0.116214 0
M  V30 15491 H 1440.58 -3.53146 -2.29926 0
M  V30 15492 H 1439.26 -2.33705 -2.23972 0
M  V30 15493 H 1438.16 -3.7215 -0.381421 0
M  V30 15494 H 1439.5 -4.8943 -0.521413 0
M  V30 15495 N 1441.15 -0.0802183 -1.57396 0
M  V30 15496 C 1442.08 0.913777 -2.10197 0
M  V30 15497 C 1443.09 1.25588 -1.03593 0
M  V30 15498 O 1444.28 1.21159 -1.31083 0
M  V30 15499 C 1441.38 2.2272 -2.55439 0
M  V30 15500 C 1440.55 2.06268 -3.8571 0
M  V30 15501 C 1439.61 3.20989 -4.16956 0
M  V30 15502 O 1438.64 2.95608 -4.8642 0
M  V30 15503 N 1439.84 4.46331 -3.71172 0
M  V30 15504 H 1442.61 0.462908 -2.96103 0
M  V30 15505 H 1440.17 0.105287 -1.61557 0
M  V30 15506 H 1442.16 2.98389 -2.73397 0
M  V30 15507 H 1440.73 2.59278 -1.74624 0
M  V30 15508 H 1439.95 1.15016 -3.77048 0
M  V30 15509 H 1441.24 1.92535 -4.70965 0
M  V30 15510 H 1440.64 4.69837 -3.15071 0
M  V30 15511 H 1439.19 5.18999 -3.94314 0
M  V30 15512 N 1442.63 1.56409 0.193394 0
M  V30 15513 C 1443.85 1.84837 0.929676 0
M  V30 15514 C 1444.27 0.662928 1.76779 0
M  V30 15515 O 1443.63 -0.368339 1.78744 0
M  V30 15516 C 1443.68 3.12083 1.82445 0
M  V30 15517 O 1443.4 4.26056 1.02018 0
M  V30 15518 C 1444.9 3.53701 2.67227 0
M  V30 15519 H 1442.12 0.613766 0.271168 0
M  V30 15520 H 1444.66 2.03518 0.200134 0
M  V30 15521 H 1442.82 2.95294 2.5076 0
M  V30 15522 H 1443.23 4.98526 1.63008 0
M  V30 15523 H 1444.71 4.45699 3.25663 0
M  V30 15524 H 1445.18 2.76771 3.41019 0
M  V30 15525 H 1445.79 3.73027 2.04281 0
M  V30 15526 N 1444.1 -0.461169 1.50702 0
M  V30 15527 C 1445.33 -1.24019 1.66235 0
M  V30 15528 C 1445.75 -1.84827 0.349388 0
M  V30 15529 O 1445.11 -1.67743 -0.687888 0
M  V30 15530 C 1445.16 -2.31743 2.76274 0
M  V30 15531 O 1444.26 -3.3664 2.38217 0
M  V30 15532 H 1443.6 -0.364424 0.55506 0
M  V30 15533 H 1446.13 -0.547636 1.97135 0
M  V30 15534 H 1446.14 -2.76902 2.99649 0
M  V30 15535 H 1444.82 -1.86858 3.7156 0
M  V30 15536 H 1443.4 -2.97123 2.25327 0
M  V30 15537 N 1445.58 -1.40446 -0.715026 0
M  V30 15538 C 1446.81 -1.42263 -1.50917 0
M  V30 15539 C 1447.23 -0.0242402 -1.88084 0
M  V30 15540 O 1446.59 0.967817 -1.53307 0
M  V30 15541 C 1446.64 -2.31998 -2.7606 0
M  V30 15542 O 1445.74 -1.76361 -3.72787 0
M  V30 15543 H 1445.08 -0.483614 -0.454988 0
M  V30 15544 H 1447.61 -1.84682 -0.880549 0
M  V30 15545 H 1447.62 -2.47204 -3.24583 0
M  V30 15546 H 1446.3 -3.33614 -2.48343 0
M  V30 15547 H 1444.87 -1.70504 -3.31636 0
M  V30 15548 N 1447.06 0.947303 -1.25952 0
M  V30 15549 C 1447.99 2.0487 -1.02767 0
M  V30 15550 C 1449 1.62797 0.00985984 0
M  V30 15551 O 1450.19 1.77018 -0.229527 0
M  V30 15552 C 1447.29 3.34682 -0.533048 0
M  V30 15553 C 1446.47 4.05555 -1.63841 0
M  V30 15554 C 1445.53 5.13638 -1.1429 0
M  V30 15555 O 1444.55 5.38682 -1.83876 0
M  V30 15556 N 1445.75 5.80499 0.0119377 0
M  V30 15557 H 1448.52 2.25327 -1.97605 0
M  V30 15558 H 1446.08 1.11636 -1.17256 0
M  V30 15559 H 1448.07 4.04273 -0.185868 0
M  V30 15560 H 1446.64 3.10941 0.321585 0
M  V30 15561 H 1445.86 3.29962 -2.15683 0
M  V30 15562 H 1447.15 4.49661 -2.38081 0
M  V30 15563 H 1446.55 5.62581 0.593212 0
M  V30 15564 H 1445.1 6.51109 0.30009 0
M  V30 15565 N 1448.54 1.07657 1.15099 0
M  V30 15566 C 1449.95 0.823828 1.67541 0
M  V30 15567 C 1450.3 -0.650601 1.85099 0
M  V30 15568 O 1449.43 -1.50333 1.55657 0
M  V30 15569 C 1450.02 1.4889 3.04331 0
M  V30 15570 C 1448.58 1.28359 3.53837 0
M  V30 15571 C 1447.73 1.55659 2.2949 0
M  V30 15572 H 1450.68 1.23819 0.992699 0
M  V30 15573 H 1450.7 0.911848 3.69412 0
M  V30 15574 H 1450.21 2.56199 2.9152 0
M  V30 15575 H 1448.31 0.230864 3.71884 0
M  V30 15576 H 1448.42 2.00593 4.35085 0
M  V30 15577 H 1446.79 0.977755 2.35185 0
M  V30 15578 H 1447.57 2.64157 2.19263 0
M  V30 15579 N 1450.02 -1.31994 0.861122 0
M  V30 15580 C 1451.26 -1.97317 0.468371 0
M  V30 15581 C 1451.6 -1.67954 -0.974941 0
M  V30 15582 O 1450.87 -0.971243 -1.68514 0
M  V30 15583 C 1451.15 -3.52918 0.715607 0
M  V30 15584 C 1451.01 -3.91888 2.20781 0
M  V30 15585 C 1452.33 -4.39747 0.17624 0
M  V30 15586 H 1449.44 -0.716733 0.171646 0
M  V30 15587 H 1452.09 -1.56269 1.08074 0
M  V30 15588 H 1450.24 -3.88013 0.194387 0
M  V30 15589 H 1451.91 -3.66938 2.7956 0
M  V30 15590 H 1450.15 -3.40813 2.68382 0
M  V30 15591 H 1450.82 -5.00346 2.33147 0
M  V30 15592 H 1453.3 -4.11424 0.622043 0
M  V30 15593 H 1452.17 -5.47592 0.378748 0
M  V30 15594 H 1452.44 -4.32393 -0.921358 0
M  V30 15595 N 1451.49 -0.619688 -1.44906 0
M  V30 15596 C 1452.74 -0.117147 -2.0136 0
M  V30 15597 C 1453.06 1.2644 -1.49239 0
M  V30 15598 O 1454.26 1.86034 -1.97747 0
M  V30 15599 C 1452.72 -0.15871 -3.5955 0
M  V30 15600 C 1452.33 -1.54086 -4.20668 0
M  V30 15601 C 1454.07 0.287961 -4.23522 0
M  V30 15602 C 1451.98 -1.53816 -5.71047 0
M  V30 15603 H 1450.91 -0.040028 -0.752937 0
M  V30 15604 H 1453.56 -0.776802 -1.66247 0
M  V30 15605 H 1451.94 0.56783 -3.91908 0
M  V30 15606 H 1453.11 -2.29007 -3.99865 0
M  V30 15607 H 1451.43 -1.93065 -3.68938 0
M  V30 15608 H 1454.03 0.309351 -5.33804 0
M  V30 15609 H 1454.37 1.31305 -3.9505 0
M  V30 15610 H 1454.9 -0.385707 -3.95926 0
M  V30 15611 H 1451.64 -2.54124 -6.04236 0
M  V30 15612 H 1451.16 -0.831708 -5.94006 0
M  V30 15613 H 1452.84 -1.26708 -6.34472 0
M  V30 15614 N 1452.97 1.53444 -0.359552 0
M  V30 15615 C 1453.94 2.24173 0.477412 0
M  V30 15616 C 1454.94 1.24747 1.01464 0
M  V30 15617 O 1456.13 1.49069 0.901343 0
M  V30 15618 C 1453.26 2.9738 1.66667 0
M  V30 15619 H 1454.45 2.99566 -0.141407 0
M  V30 15620 H 1452 1.55904 -0.111143 0
M  V30 15621 H 1452.74 2.26214 2.32374 0
M  V30 15622 H 1452.52 3.70325 1.28848 0
M  V30 15623 H 1454.01 3.51165 2.25994 0
M  V30 15624 N 1454.45 0.0885642 1.57351 0
M  V30 15625 C 1455.4 -0.872723 2.13664 0
M  V30 15626 C 1456.37 -1.28418 1.05347 0
M  V30 15627 O 1457.55 -1.36709 1.33099 0
M  V30 15628 C 1454.69 -2.12886 2.71613 0
M  V30 15629 C 1453.81 -1.76852 3.94141 0
M  V30 15630 C 1452.94 -2.97203 4.40277 0
M  V30 15631 C 1451.98 -2.57265 5.55411 0
M  V30 15632 N 1451.12 -3.70429 5.96428 0
M  V30 15633 H 1455.96 -0.385644 2.95494 0
M  V30 15634 H 1453.49 -0.178688 1.46011 0
M  V30 15635 H 1455.45 -2.86441 3.03327 0
M  V30 15636 H 1454.08 -2.59105 1.92521 0
M  V30 15637 H 1453.13 -0.932921 3.68783 0
M  V30 15638 H 1454.45 -1.43481 4.77718 0
M  V30 15639 H 1453.6 -3.79019 4.7374 0
M  V30 15640 H 1452.34 -3.3378 3.55587 0
M  V30 15641 H 1451.34 -1.73875 5.21582 0
M  V30 15642 H 1452.57 -2.21839 6.41844 0
M  V30 15643 H 1450.51 -4.06737 5.14686 0
M  V30 15644 H 1450.43 -3.40881 6.74786 0
M  V30 15645 H 1451.7 -4.52774 6.3452 0
M  V30 15646 N 1455.93 -1.56509 -0.185096 0
M  V30 15647 C 1456.89 -1.94468 -1.21305 0
M  V30 15648 C 1457.89 -0.826838 -1.37913 0
M  V30 15649 O 1459.08 -1.09411 -1.35554 0
M  V30 15650 C 1456.21 -2.22747 -2.58063 0
M  V30 15651 H 1457.41 -2.86442 -0.888323 0
M  V30 15652 H 1454.96 -1.50354 -0.427012 0
M  V30 15653 H 1455.69 -1.33443 -2.95573 0
M  V30 15654 H 1455.48 -3.04215 -2.47378 0
M  V30 15655 H 1456.97 -2.53084 -3.32172 0
M  V30 15656 N 1457.41 0.45317 -1.50944 0
M  V30 15657 C 1458.34 1.55655 -1.74051 0
M  V30 15658 C 1459.32 1.59545 -0.58987 0
M  V30 15659 O 1460.5 1.75526 -0.830922 0
M  V30 15660 C 1457.63 2.93857 -1.85109 0
M  V30 15661 C 1456.59 3.04832 -3.00435 0
M  V30 15662 C 1455.91 4.44858 -2.96657 0
M  V30 15663 C 1457.21 2.80381 -4.40663 0
M  V30 15664 H 1458.91 1.36571 -2.66437 0
M  V30 15665 H 1456.45 0.655572 -1.28212 0
M  V30 15666 H 1458.41 3.70992 -1.99857 0
M  V30 15667 H 1457.13 3.14138 -0.893579 0
M  V30 15668 H 1455.79 2.30134 -2.85366 0
M  V30 15669 H 1455.44 4.62083 -1.98716 0
M  V30 15670 H 1455.14 4.53134 -3.7409 0
M  V30 15671 H 1456.66 5.23989 -3.13478 0
M  V30 15672 H 1458.07 3.47255 -4.56165 0
M  V30 15673 H 1456.47 3.00083 -5.19683 0
M  V30 15674 H 1457.54 1.76099 -4.51793 0
M  V30 15675 N 1458.88 1.40823 0.707568 0
M  V30 15676 C 1459.82 1.37646 1.83265 0
M  V30 15677 C 1460.83 0.280547 1.60365 0
M  V30 15678 O 1462.02 0.541453 1.7009 0
M  V30 15679 C 1459.12 1.12121 3.19816 0
M  V30 15680 C 1458.29 2.33522 3.69846 0
M  V30 15681 C 1457.35 2.04035 4.85032 0
M  V30 15682 O 1456.38 2.76971 4.97268 0
M  V30 15683 N 1457.58 1.02322 5.71411 0
M  V30 15684 H 1460.34 2.34612 1.86486 0
M  V30 15685 H 1457.9 1.35281 0.889424 0
M  V30 15686 H 1459.9 0.903663 3.94482 0
M  V30 15687 H 1458.47 0.237941 3.11693 0
M  V30 15688 H 1457.69 2.71055 2.86221 0
M  V30 15689 H 1458.97 3.14436 4.00009 0
M  V30 15690 H 1458.37 0.419311 5.64144 0
M  V30 15691 H 1456.93 0.865571 6.46027 0
M  V30 15692 N 1460.36 -0.94061 1.26453 0
M  V30 15693 C 1461.29 -2.04322 1.03852 0
M  V30 15694 C 1462.31 -1.628 -0.00122618 0
M  V30 15695 O 1463.5 -1.76894 0.238911 0
M  V30 15696 C 1460.6 -3.34394 0.550789 0
M  V30 15697 C 1459.77 -4.0468 1.6599 0
M  V30 15698 C 1458.83 -5.13025 1.17012 0
M  V30 15699 O 1457.85 -5.37699 1.8673 0
M  V30 15700 N 1459.06 -5.80497 0.0188478 0
M  V30 15701 H 1461.82 -2.24276 1.98797 0
M  V30 15702 H 1459.38 -1.11013 1.17846 0
M  V30 15703 H 1461.37 -4.04169 0.207305 0
M  V30 15704 H 1459.94 -3.11108 -0.30509 0
M  V30 15705 H 1459.16 -3.28813 2.17429 0
M  V30 15706 H 1460.45 -4.48392 2.40463 0
M  V30 15707 H 1459.85 -5.62888 -0.563368 0
M  V30 15708 H 1458.41 -6.51259 -0.265556 0
M  V30 15709 N 1461.84 -1.08266 -1.14527 0
M  V30 15710 C 1462.77 -0.732968 -2.21698 0
M  V30 15711 C 1463.75 0.283917 -1.67714 0
M  V30 15712 O 1464.94 0.154607 -1.93584 0
M  V30 15713 C 1462.07 -0.139935 -3.47018 0
M  V30 15714 C 1461.02 -1.08501 -4.14019 0
M  V30 15715 C 1460.35 -0.354263 -5.33525 0
M  V30 15716 C 1461.65 -2.42254 -4.62721 0
M  V30 15717 H 1463.34 -1.629 -2.51205 0
M  V30 15718 H 1460.89 -0.784696 -1.20742 0
M  V30 15719 H 1462.84 0.1167 -4.21238 0
M  V30 15720 H 1461.56 0.791228 -3.16871 0
M  V30 15721 H 1460.22 -1.32672 -3.41751 0
M  V30 15722 H 1459.87 0.580658 -4.99637 0
M  V30 15723 H 1459.57 -0.984287 -5.79297 0
M  V30 15724 H 1461.09 -0.105648 -6.10509 0
M  V30 15725 H 1462.51 -2.22357 -5.28422 0
M  V30 15726 H 1460.91 -3.00935 -5.1919 0
M  V30 15727 H 1461.98 -3.03884 -3.77866 0
M  V30 15728 N 1463.32 1.31536 -0.86811 0
M  V30 15729 C 1464.27 2.28562 -0.320602 0
M  V30 15730 C 1465.24 1.55648 0.579902 0
M  V30 15731 O 1466.42 1.83804 0.51194 0
M  V30 15732 C 1463.56 3.41836 0.473499 0
M  V30 15733 C 1462.67 4.29604 -0.454311 0
M  V30 15734 C 1461.81 5.30021 0.353733 0
M  V30 15735 C 1460.85 6.09434 -0.570624 0
M  V30 15736 N 1459.99 7.01812 0.201058 0
M  V30 15737 H 1464.83 2.74782 -1.15322 0
M  V30 15738 H 1462.36 1.35179 -0.580088 0
M  V30 15739 H 1464.32 4.06248 0.949662 0
M  V30 15740 H 1462.95 2.96732 1.27083 0
M  V30 15741 H 1462 3.65653 -1.04892 0
M  V30 15742 H 1463.31 4.85048 -1.16316 0
M  V30 15743 H 1462.47 6.001 0.892484 0
M  V30 15744 H 1461.21 4.75228 1.09589 0
M  V30 15745 H 1460.21 5.38247 -1.12115 0
M  V30 15746 H 1461.44 6.66314 -1.3116 0
M  V30 15747 H 1459.38 6.49431 0.926058 0
M  V30 15748 H 1459.3 7.54668 -0.448494 0
M  V30 15749 H 1460.57 7.76157 0.7211 0
M  V30 15750 N 1464.8 0.627364 1.44575 0
M  V30 15751 C 1465.75 -0.0920488 2.32418 0
M  V30 15752 C 1466.74 -0.839633 1.47128 0
M  V30 15753 O 1467.95 -0.752958 1.63495 0
M  V30 15754 H 1464.32 -0.0485336 0.750432 0
M  V30 15755 H 1466.29 0.666959 2.90851 0
M  V30 15756 C 1465.04 -1.06262 3.31064 0
M  V30 15757 H 1464.36 -0.4968 3.96701 0
M  V30 15758 H 1465.8 -1.53556 3.95217 0
M  V30 15759 C 1464.26 -2.14601 2.59707 0
M  V30 15760 O 1464.79 -3.2263 2.39317 0
M  V30 15761 N 1463 -1.90431 2.19509 0
M  V30 15762 H 1462.55 -1.02584 2.36293 0
M  V30 15763 H 1462.5 -2.6312 1.72091 0
M  V30 15764 N 1466.28 -1.53251 0.367684 0
M  V30 15765 C 1467.55 -1.93617 -0.277842 0
M  V30 15766 C 1467.93 -1.3014 -1.66213 0
M  V30 15767 O 1467.28 -0.461277 -2.23796 0
M  V30 15768 C 1467.49 -3.47475 -0.325937 0
M  V30 15769 C 1468.84 -4.2082 -0.565276 0
M  V30 15770 O 1469.86 -3.53866 -0.407057 0
M  V30 15771 O 1468.72 -5.39474 -0.873522 0
M  V30 15772 H 1465.82 -0.80993 -0.167158 0
M  V30 15773 H 1468.36 -1.64405 0.420621 0
M  V30 15774 H 1467.13 -3.85955 0.644542 0
M  V30 15775 H 1466.76 -3.82926 -1.07021 0
M  V30 15776 N 1467.75 -0.0969077 -1.57302 0
M  V30 15777 C 1468.72 0.846895 -2.1298 0
M  V30 15778 C 1469.72 1.20962 -1.05947 0
M  V30 15779 O 1470.91 1.13876 -1.31826 0
M  V30 15780 C 1468.04 2.14215 -2.65188 0
M  V30 15781 H 1469.23 0.363398 -2.9769 0
M  V30 15782 H 1466.78 0.152107 -1.55558 0
M  V30 15783 H 1467.52 2.67046 -1.84002 0
M  V30 15784 H 1467.3 1.89176 -3.43445 0
M  V30 15785 H 1468.79 2.81728 -3.08252 0
M  V30 15786 N 1469.23 1.56605 0.176793 0
M  V30 15787 C 1470.16 1.99014 1.2213 0
M  V30 15788 C 1471.14 0.86487 1.46472 0
M  V30 15789 O 1472.33 1.13055 1.57899 0
M  V30 15790 C 1469.46 2.34534 2.56146 0
M  V30 15791 C 1468.41 3.4997 2.46384 0
M  V30 15792 C 1467.74 3.71217 3.8484 0
M  V30 15793 C 1469.04 4.83592 1.97323 0
M  V30 15794 H 1470.73 2.86517 0.8688 0
M  V30 15795 H 1468.28 1.37846 0.416481 0
M  V30 15796 H 1470.23 2.62799 3.29416 0
M  V30 15797 H 1468.95 1.43933 2.93174 0
M  V30 15798 H 1467.61 3.21824 1.75569 0
M  V30 15799 H 1467.26 2.77916 4.19251 0
M  V30 15800 H 1466.96 4.48885 3.79178 0
M  V30 15801 H 1468.49 4.01877 4.59704 0
M  V30 15802 H 1469.9 5.10768 2.60363 0
M  V30 15803 H 1468.3 5.64858 2.02622 0
M  V30 15804 H 1469.37 4.75951 0.927275 0
M  V30 15805 N 1470.71 -0.445159 1.51182 0
M  V30 15806 C 1471.62 -1.5651 1.74762 0
M  V30 15807 C 1472.64 -1.62134 0.631542 0
M  V30 15808 O 1473.81 -1.79522 0.912898 0
M  V30 15809 C 1470.88 -2.92552 1.86049 0
M  V30 15810 C 1469.94 -2.97108 3.0988 0
M  V30 15811 C 1469.17 -4.2666 3.2062 0
M  V30 15812 O 1469.39 -5.18608 2.37491 0
M  V30 15813 O 1468.33 -4.3734 4.13542 0
M  V30 15814 H 1472.15 -1.3953 2.6975 0
M  V30 15815 H 1469.74 -0.627363 1.3559 0
M  V30 15816 H 1471.62 -3.73304 1.95504 0
M  V30 15817 H 1470.3 -3.09676 0.94248 0
M  V30 15818 H 1469.2 -2.15338 3.05909 0
M  V30 15819 H 1470.54 -2.84927 4.01345 0
M  V30 15820 N 1472.19 -1.41197 -0.700089 0
M  V30 15821 C 1473.12 -1.45456 -1.8266 0
M  V30 15822 C 1474.1 -0.313719 -1.67182 0
M  V30 15823 O 1475.28 -0.524528 -1.86982 0
M  V30 15824 C 1472.41 -1.33161 -3.20758 0
M  V30 15825 C 1471.37 -2.4501 -3.50933 0
M  V30 15826 C 1470.69 -2.17782 -4.88339 0
M  V30 15827 C 1471.99 -3.87352 -3.50365 0
M  V30 15828 H 1473.69 -2.39735 -1.79353 0
M  V30 15829 H 1471.23 -1.1539 -0.861465 0
M  V30 15830 H 1473.19 -1.34754 -3.99274 0
M  V30 15831 H 1471.91 -0.353646 -3.2468 0
M  V30 15832 H 1470.57 -2.42692 -2.74766 0
M  V30 15833 H 1470.22 -1.1834 -4.88881 0
M  V30 15834 H 1469.92 -2.92728 -5.09494 0
M  V30 15835 H 1471.44 -2.21083 -5.6917 0
M  V30 15836 H 1472.86 -3.9141 -4.18893 0
M  V30 15837 H 1471.25 -4.61944 -3.83051 0
M  V30 15838 H 1472.32 -4.15827 -2.4943 0
M  V30 15839 N 1473.67 0.933891 -1.2695 0
M  V30 15840 C 1474.91 1.69554 -1.14153 0
M  V30 15841 C 1475.27 1.89503 0.308639 0
M  V30 15842 O 1476.47 2.62925 0.558894 0
M  V30 15843 C 1474.74 3.02894 -1.8971 0
M  V30 15844 S 1476.3 3.94051 -1.93053 0
M  V30 15845 H 1473.12 0.582546 -0.407629 0
M  V30 15846 H 1475.72 1.11233 -1.60772 0
M  V30 15847 H 1474.42 2.86061 -2.94274 0
M  V30 15848 H 1473.96 3.6627 -1.43561 0
M  V30 15849 H 1475.97 4.85551 -1.02249 0
M  V30 15850 N 1475.14 1.08871 1.13951 0
M  V30 15851 C 1476.09 0.71755 2.21255 0
M  V30 15852 C 1477.09 -0.278901 1.67088 0
M  V30 15853 O 1478.29 -0.140964 1.79447 0
M  V30 15854 H 1474.67 0.214032 0.720898 0
M  V30 15855 H 1476.64 1.63182 2.49828 0
M  V30 15856 C 1475.39 0.148098 3.47384 0
M  V30 15857 H 1474.71 0.906028 3.89398 0
M  V30 15858 H 1476.15 -0.0737451 4.23936 0
M  V30 15859 C 1474.61 -1.11524 3.17906 0
M  V30 15860 O 1475.14 -2.19937 3.3614 0
M  V30 15861 N 1473.34 -1.0275 2.71829 0
M  V30 15862 H 1472.89 -0.145193 2.5719 0
M  V30 15863 H 1472.85 -1.87353 2.5248 0
M  V30 15864 N 1476.62 -1.31073 0.875073 0
M  V30 15865 C 1478.04 -1.49162 0.567697 0
M  V30 15866 C 1478.24 -1.80435 -0.896969 0
M  V30 15867 O 1477.29 -1.88604 -1.67883 0
M  V30 15868 C 1478.61 -2.6219 1.47231 0
M  V30 15869 C 1480.15 -2.76072 1.47489 0
M  V30 15870 C 1480.63 -3.92202 2.36519 0
M  V30 15871 N 1482.12 -3.99497 2.34428 0
M  V30 15872 C 1482.86 -4.88639 3.00033 0
M  V30 15873 N 1482.35 -5.82647 3.74826 0
M  V30 15874 N 1484.14 -4.81926 2.89315 0
M  V30 15875 H 1476.3 -1.09045 1.82272 0
M  V30 15876 H 1478.56 -0.539291 0.77966 0
M  V30 15877 H 1478.26 -2.45872 2.51475 0
M  V30 15878 H 1478.14 -3.58446 1.17459 0
M  V30 15879 H 1480.53 -2.91801 0.440008 0
M  V30 15880 H 1480.61 -1.80468 1.81287 0
M  V30 15881 H 1480.25 -3.77231 3.40087 0
M  V30 15882 H 1480.18 -4.87125 2.00043 0
M  V30 15883 H 1482.67 -3.32241 1.80067 0
M  V30 15884 H 1482.98 -6.47406 4.22001 0
M  V30 15885 H 1481.33 -5.82609 3.78934 0
M  V30 15886 H 1484.52 -4.07462 2.30418 0
M  V30 15887 H 1484.69 -5.51192 3.40722 0
M  V30 15888 N 1478.1 -0.635022 -1.4424 0
M  V30 15889 C 1479.35 -0.138497 -2.01224 0
M  V30 15890 C 1479.66 1.2485 -1.50571 0
M  V30 15891 O 1480.87 1.83926 -1.99709 0
M  V30 15892 C 1479.32 -0.196836 -3.59361 0
M  V30 15893 C 1478.93 -1.58539 -4.1901 0
M  V30 15894 C 1480.68 0.243025 -4.23804 0
M  V30 15895 C 1478.58 -1.59864 -5.69384 0
M  V30 15896 H 1477.51 -0.0480117 -0.75247 0
M  V30 15897 H 1480.16 -0.794391 -1.65414 0
M  V30 15898 H 1478.55 0.526231 -3.92488 0
M  V30 15899 H 1479.72 -2.33236 -3.97414 0
M  V30 15900 H 1478.04 -1.96967 -3.66869 0
M  V30 15901 H 1480.63 0.252717 -5.34102 0
M  V30 15902 H 1480.98 1.27107 -3.96421 0
M  V30 15903 H 1481.51 -0.427678 -3.95494 0
M  V30 15904 H 1478.25 -2.60518 -6.01507 0
M  V30 15905 H 1477.77 -0.894664 -5.9309 0
M  V30 15906 H 1479.45 -1.3343 -6.33092 0
M  V30 15907 N 1479.58 1.53054 -0.375806 0
M  V30 15908 C 1480.8 2.06296 0.213708 0
M  V30 15909 C 1481.23 1.24675 1.40846 0
M  V30 15910 O 1480.59 0.268371 1.79303 0
M  V30 15911 C 1480.63 3.55981 0.575301 0
M  V30 15912 O 1479.74 3.77023 1.67115 0
M  V30 15913 H 1479.08 0.66338 0.0286922 0
M  V30 15914 H 1481.61 1.97362 -0.539371 0
M  V30 15915 H 1481.62 3.99187 0.843431 0
M  V30 15916 H 1480.29 4.14829 -0.298258 0
M  V30 15917 H 1478.87 3.45712 1.39778 0
M  V30 15918 N 1481.06 0.105248 1.57248 0
M  V30 15919 C 1482 -0.867443 2.1582 0
M  V30 15920 C 1483 -1.28508 1.10373 0
M  V30 15921 O 1484.2 -1.25842 1.287 0
M  V30 15922 H 1480.58 -0.2978 0.690521 0
M  V30 15923 H 1482.55 -0.348831 2.96354 0
M  V30 15924 C 1481.3 -2.11299 2.7613 0
M  V30 15925 H 1480.62 -1.80054 3.5696 0
M  V30 15926 H 1482.06 -2.77395 3.20668 0
M  V30 15927 C 1480.52 -2.89372 1.72527 0
M  V30 15928 O 1481.05 -3.84274 1.17032 0
M  V30 15929 N 1479.26 -2.53103 1.42784 0
M  V30 15930 H 1478.8 -1.75998 1.88102 0
M  V30 15931 H 1478.76 -3.05639 0.737035 0
M  V30 15932 N 1482.53 -1.56697 -0.168486 0
M  V30 15933 C 1483.5 -1.95744 -1.19235 0
M  V30 15934 C 1484.5 -0.841419 -1.37028 0
M  V30 15935 O 1485.69 -1.10842 -1.34386 0
M  V30 15936 C 1482.82 -2.25471 -2.55686 0
M  V30 15937 H 1484.01 -2.87368 -0.857892 0
M  V30 15938 H 1481.57 -1.50798 -0.411041 0
M  V30 15939 H 1482.3 -1.36571 -2.94141 0
M  V30 15940 H 1482.09 -3.06822 -2.44137 0
M  V30 15941 H 1483.58 -2.56593 -3.29469 0
M  V30 15942 N 1484.01 0.437135 -1.51416 0
M  V30 15943 C 1485.26 1.1835 -1.63328 0
M  V30 15944 C 1485.57 1.92343 -0.355455 0
M  V30 15945 O 1486.78 2.69183 -0.353951 0
M  V30 15946 C 1485.24 2.15235 -2.88447 0
M  V30 15947 C 1484.84 1.46889 -4.23235 0
M  V30 15948 C 1486.59 2.90303 -3.09716 0
M  V30 15949 C 1484.5 2.42259 -5.39504 0
M  V30 15950 H 1483.43 0.445467 -0.608338 0
M  V30 15951 H 1486.08 0.450528 -1.77883 0
M  V30 15952 H 1484.46 2.91968 -2.67527 0
M  V30 15953 H 1485.63 0.757128 -4.54537 0
M  V30 15954 H 1483.95 0.839725 -4.07845 0
M  V30 15955 H 1486.54 3.61747 -3.93756 0
M  V30 15956 H 1486.89 3.5166 -2.22802 0
M  V30 15957 H 1487.42 2.20677 -3.30978 0
M  V30 15958 H 1484.16 1.85591 -6.28678 0
M  V30 15959 H 1483.68 3.11488 -5.12577 0
M  V30 15960 H 1485.36 3.03384 -5.7146 0
M  V30 15961 N 1485.49 1.41566 0.692592 0
M  V30 15962 C 1486.77 1.31572 1.44735 0
M  V30 15963 C 1487.15 -0.0553081 2.11028 0
M  V30 15964 O 1486.5 -1.06974 2.01913 0
M  V30 15965 C 1486.71 2.47125 2.46435 0
M  V30 15966 C 1488.05 2.88427 3.11601 0
M  V30 15967 O 1489.08 2.46886 2.5676 0
M  V30 15968 O 1487.94 3.6027 4.10935 0
M  V30 15969 H 1485.03 0.517949 0.644715 0
M  V30 15970 H 1487.58 1.53536 0.722818 0
M  V30 15971 H 1486.35 3.38601 1.96124 0
M  V30 15972 H 1485.97 2.27054 3.26393 0
M  V30 15973 N 1486.97 -0.927146 1.27443 0
M  V30 15974 C 1488.38 -1.20319 1.0486 0
M  V30 15975 C 1488.58 -2.00323 -0.217491 0
M  V30 15976 O 1487.64 -2.35032 -0.922833 0
M  V30 15977 C 1488.95 -1.9508 2.28833 0
M  V30 15978 C 1490.5 -2.08016 2.33877 0
M  V30 15979 C 1490.98 -2.86183 3.5758 0
M  V30 15980 N 1492.47 -2.93751 3.58141 0
M  V30 15981 C 1493.2 -3.54698 4.5053 0
M  V30 15982 N 1492.7 -4.17032 5.53223 0
M  V30 15983 N 1494.49 -3.52107 4.38152 0
M  V30 15984 H 1486.64 -0.392671 2.08739 0
M  V30 15985 H 1488.91 -0.236323 0.918072 0
M  V30 15986 H 1488.61 -1.43712 3.20998 0
M  V30 15987 H 1488.49 -2.95692 2.34193 0
M  V30 15988 H 1490.87 -2.5857 1.42217 0
M  V30 15989 H 1490.95 -1.06622 2.3252 0
M  V30 15990 H 1490.6 -2.36312 4.49576 0
M  V30 15991 H 1490.53 -3.87863 3.56188 0
M  V30 15992 H 1493.02 -2.49449 2.83872 0
M  V30 15993 H 1493.33 -4.61477 6.19886 0
M  V30 15994 H 1491.68 -4.15576 5.57065 0
M  V30 15995 H 1494.87 -3.02611 3.57134 0
M  V30 15996 H 1495.04 -3.99315 5.10344 0
M  V30 15997 N 1488.45 -1.09474 -1.13372 0
M  V30 15998 C 1489.69 -0.832323 -1.84933 0
M  V30 15999 C 1490.03 0.640469 -1.83335 0
M  V30 16000 O 1489.3 1.47158 -1.2718 0
M  V30 16001 C 1489.58 -1.36876 -3.33072 0
M  V30 16002 C 1489.44 -2.90769 -3.43181 0
M  V30 16003 C 1490.76 -1.00294 -4.2852 0
M  V30 16004 H 1487.87 -0.30382 -0.671463 0
M  V30 16005 H 1490.52 -1.35622 -1.33066 0
M  V30 16006 H 1488.67 -0.923134 -3.77373 0
M  V30 16007 H 1490.34 -3.43784 -3.07588 0
M  V30 16008 H 1488.58 -3.27876 -2.84042 0
M  V30 16009 H 1489.25 -3.23381 -4.47358 0
M  V30 16010 H 1491.73 -1.38729 -3.92293 0
M  V30 16011 H 1490.6 -1.40533 -5.30605 0
M  V30 16012 H 1490.87 0.0888133 -4.42011 0
M  V30 16013 N 1489.92 1.30607 -0.882012 0
M  V30 16014 C 1491.2 1.91056 -0.419153 0
M  V30 16015 C 1491.58 1.80185 1.09985 0
M  V30 16016 O 1490.93 1.21717 1.93384 0
M  V30 16017 C 1491.14 3.3682 -0.913949 0
M  V30 16018 C 1492.49 4.13901 -0.947169 0
M  V30 16019 O 1493.51 3.45652 -0.860412 0
M  V30 16020 O 1492.37 5.35826 -1.07483 0
M  V30 16021 H 1489.46 0.81709 -0.127645 0
M  V30 16022 H 1492.01 1.39195 -0.970717 0
M  V30 16023 H 1490.78 3.38804 -1.95774 0
M  V30 16024 H 1490.41 3.96132 -0.34138 0
M  V30 16025 N 1491.4 0.642663 1.43901 0
M  V30 16026 C 1492.35 -0.0774542 2.27868 0
M  V30 16027 C 1493.34 -0.805028 1.39313 0
M  V30 16028 O 1494.53 -0.689234 1.63029 0
M  V30 16029 C 1491.66 -1.05046 3.26834 0
M  V30 16030 C 1490.74 -0.321911 4.22877 0
M  V30 16031 N 1491.13 0.655802 5.01531 0
M  V30 16032 C 1489.43 -0.5648 4.42409 0
M  V30 16033 C 1490.13 1.08729 5.71448 0
M  V30 16034 N 1489.11 0.423699 5.41946 0
M  V30 16035 H 1492.91 0.672951 2.86092 0
M  V30 16036 H 1490.43 0.469088 1.55478 0
M  V30 16037 H 1492.42 -1.58106 3.85756 0
M  V30 16038 H 1491.08 -1.80104 2.70171 0
M  V30 16039 H 1492.09 1.0341 5.07471 0
M  V30 16040 H 1488.77 -1.29736 3.96831 0
M  V30 16041 H 1490.16 1.89569 6.44603 0
M  V30 16042 N 1492.88 -1.52852 0.383918 0
M  V30 16043 C 1493.81 -2.22704 -0.497825 0
M  V30 16044 C 1494.79 -1.22573 -1.06839 0
M  V30 16045 O 1495.98 -1.51541 -1.12105 0
M  V30 16046 C 1493.1 -2.93606 -1.68858 0
M  V30 16047 C 1492.15 -4.07962 -1.24376 0
M  V30 16048 S 1492.98 -5.35007 -0.229773 0
M  V30 16049 C 1494.14 -6.09429 -1.42643 0
M  V30 16050 H 1494.37 -2.97147 0.0953535 0
M  V30 16051 H 1491.9 -1.53482 0.168084 0
M  V30 16052 H 1493.86 -3.35067 -2.3715 0
M  V30 16053 H 1492.52 -2.18853 -2.25304 0
M  V30 16054 H 1491.72 -4.56654 -2.13269 0
M  V30 16055 H 1491.32 -3.68486 -0.639823 0
M  V30 16056 H 1493.61 -6.35274 -2.35443 0
M  V30 16057 H 1494.55 -7.01278 -0.980541 0
M  V30 16058 H 1494.96 -5.40128 -1.6408 0
M  V30 16059 N 1494.36 -0.113586 -1.5719 0
M  V30 16060 C 1495.61 0.54572 -1.95008 0
M  V30 16061 C 1495.93 1.67031 -0.996541 0
M  V30 16062 O 1495.19 1.9569 -0.0194353 0
M  V30 16063 C 1495.49 1.1238 -3.39272 0
M  V30 16064 C 1495.15 0.12112 -4.50737 0
M  V30 16065 C 1493.82 -0.154607 -4.80952 0
M  V30 16066 C 1496.17 -0.562502 -5.18156 0
M  V30 16067 C 1493.5 -1.12033 -5.75904 0
M  V30 16068 C 1495.85 -1.51682 -6.14146 0
M  V30 16069 C 1494.51 -1.80059 -6.42756 0
M  V30 16070 H 1493.78 0.199693 -0.713585 0
M  V30 16071 H 1496.43 -0.193344 -1.90521 0
M  V30 16072 H 1494.73 1.93951 -3.40426 0
M  V30 16073 H 1496.43 1.64195 -3.65843 0
M  V30 16074 H 1493.02 0.34621 -4.27199 0
M  V30 16075 H 1497.21 -0.362645 -4.94973 0
M  V30 16076 H 1492.46 -1.34699 -5.96377 0
M  V30 16077 H 1496.64 -2.05225 -6.65474 0
M  V30 16078 H 1494.26 -2.55046 -7.16139 0
M  V30 16079 N 1495.84 1.56784 0.160173 0
M  V30 16080 C 1497.07 1.86767 0.89026 0
M  V30 16081 C 1497.48 0.700276 1.75333 0
M  V30 16082 O 1496.84 -0.330342 1.79485 0
M  V30 16083 C 1496.89 3.15883 1.75784 0
M  V30 16084 O 1496.61 4.28124 0.929575 0
M  V30 16085 C 1498.11 3.5929 2.59664 0
M  V30 16086 H 1495.33 0.61938 0.258088 0
M  V30 16087 H 1497.87 2.03897 0.156919 0
M  V30 16088 H 1496.03 3.00546 2.4444 0
M  V30 16089 H 1496.44 5.01872 1.52397 0
M  V30 16090 H 1497.92 4.52506 3.16136 0
M  V30 16091 H 1498.39 2.83943 3.35072 0
M  V30 16092 H 1499 3.77277 1.96323 0
M  V30 16093 N 1497.32 -0.429099 1.51646 0
M  V30 16094 C 1498.54 -1.20465 1.68828 0
M  V30 16095 C 1498.97 -1.84044 0.388514 0
M  V30 16096 O 1498.32 -1.69165 -0.652152 0
M  V30 16097 C 1498.37 -2.25831 2.81128 0
M  V30 16098 O 1497.48 -3.31511 2.45305 0
M  V30 16099 H 1496.82 -0.352568 0.562665 0
M  V30 16100 H 1499.35 -0.505698 1.98252 0
M  V30 16101 H 1499.36 -2.70484 3.05455 0
M  V30 16102 H 1498.03 -1.78934 3.7544 0
M  V30 16103 H 1496.61 -2.92277 2.31579 0
M  V30 16104 N 1498.79 -1.41931 -0.685074 0
M  V30 16105 C 1499.7 -1.46985 -1.82846 0
M  V30 16106 C 1500.72 -0.359487 -1.70246 0
M  V30 16107 O 1501.9 -0.608824 -1.91977 0
M  V30 16108 C 1498.96 -1.36001 -3.18912 0
M  V30 16109 C 1498.02 -2.57442 -3.43543 0
M  V30 16110 C 1497.25 -2.46972 -4.73118 0
M  V30 16111 O 1497.48 -1.49999 -5.50324 0
M  V30 16112 O 1496.41 -3.36922 -4.98766 0
M  V30 16113 H 1500.24 -2.4347 -1.81538 0
M  V30 16114 H 1497.82 -1.23583 -0.839497 0
M  V30 16115 H 1499.7 -1.32198 -4.00127 0
M  V30 16116 H 1498.38 -0.426366 -3.2088 0
M  V30 16117 H 1497.29 -2.66821 -2.62217 0
M  V30 16118 H 1498.62 -3.49671 -3.46398 0
M  V30 16119 N 1500.27 0.920374 -1.27933 0
M  V30 16120 C 1501.52 1.66883 -1.147 0
M  V30 16121 C 1501.85 1.92082 0.305732 0
M  V30 16122 O 1501.1 1.51449 1.23942 0
M  V30 16123 C 1501.4 3.03725 -1.88377 0
M  V30 16124 C 1501.07 2.9821 -3.38203 0
M  V30 16125 C 1499.73 2.96413 -3.79068 0
M  V30 16126 C 1502.08 2.88952 -4.3377 0
M  V30 16127 C 1499.41 2.83151 -5.13851 0
M  V30 16128 C 1501.76 2.77231 -5.68618 0
M  V30 16129 C 1500.42 2.73788 -6.08766 0
M  V30 16130 H 1499.69 0.61067 -0.419718 0
M  V30 16131 H 1502.34 1.0728 -1.58629 0
M  V30 16132 H 1500.65 3.67075 -1.36978 0
M  V30 16133 H 1502.34 3.60527 -1.7556 0
M  V30 16134 H 1498.93 3.004 -3.05709 0
M  V30 16135 H 1503.12 2.89433 -4.03165 0
M  V30 16136 H 1498.37 2.78877 -5.44093 0
M  V30 16137 H 1502.55 2.69034 -6.42335 0
M  V30 16138 H 1500.17 2.63268 -7.13158 0
M  V30 16139 N 1501.75 1.10074 1.1279 0
M  V30 16140 C 1503.03 0.753069 1.80522 0
M  V30 16141 C 1503.41 -0.760982 1.96907 0
M  V30 16142 O 1502.75 -1.68584 1.54245 0
M  V30 16143 C 1502.96 1.49982 3.15129 0
M  V30 16144 C 1504.31 1.66993 3.90382 0
M  V30 16145 O 1505.34 1.46289 3.24774 0
M  V30 16146 O 1504.2 2.01293 5.08078 0
M  V30 16147 H 1501.29 0.271277 0.781241 0
M  V30 16148 H 1503.84 1.20333 1.19658 0
M  V30 16149 H 1502.61 2.53043 2.98471 0
M  V30 16150 H 1502.23 1.04217 3.83699 0
M  V30 16151 N 1503.23 -1.30138 0.888926 0
M  V30 16152 C 1504.19 -2.26299 0.363504 0
M  V30 16153 C 1505.19 -1.52951 -0.496244 0
M  V30 16154 O 1506.38 -1.71548 -0.302834 0
M  V30 16155 C 1503.51 -3.37482 -0.481544 0
M  V30 16156 H 1504.71 -2.7429 1.21265 0
M  V30 16157 H 1502.26 -1.41395 0.666124 0
M  V30 16158 H 1502.99 -2.94814 -1.35112 0
M  V30 16159 H 1502.78 -3.9187 0.134344 0
M  V30 16160 H 1504.27 -4.09048 -0.840816 0
M  V30 16161 N 1504.71 -0.650285 -1.43559 0
M  V30 16162 C 1505.62 0.0438076 -2.34559 0
M  V30 16163 C 1506.63 0.815316 -1.53716 0
M  V30 16164 O 1507.81 0.76323 -1.86378 0
M  V30 16165 C 1504.87 1.00028 -3.31957 0
M  V30 16166 C 1503.93 0.226027 -4.28705 0
M  V30 16167 C 1503.17 1.13694 -5.21449 0
M  V30 16168 O 1503.39 2.37614 -5.18551 0
M  V30 16169 O 1502.32 0.610924 -5.98792 0
M  V30 16170 H 1506.15 -0.705152 -2.954 0
M  V30 16171 H 1503.73 -0.410471 -1.43651 0
M  V30 16172 H 1505.62 1.55004 -3.91857 0
M  V30 16173 H 1504.29 1.72952 -2.73623 0
M  V30 16174 H 1503.2 -0.367244 -3.72293 0
M  V30 16175 H 1504.53 -0.463582 -4.90012 0
M  V30 16176 N 1506.18 1.52647 -0.392018 0
M  V30 16177 C 1507.43 2.01912 0.18958 0
M  V30 16178 C 1507.76 1.27786 1.46234 0
M  V30 16179 O 1507.04 0.379124 1.90769 0
M  V30 16180 C 1507.32 3.57217 0.454734 0
M  V30 16181 C 1507.17 4.4201 -0.833501 0
M  V30 16182 C 1508.49 4.22146 1.24421 0
M  V30 16183 H 1505.61 0.733909 0.0674281 0
M  V30 16184 H 1508.25 1.82685 -0.52212 0
M  V30 16185 H 1506.4 3.73731 1.06101 0
M  V30 16186 H 1508.08 4.37242 -1.47027 0
M  V30 16187 H 1506.32 4.08912 -1.44823 0
M  V30 16188 H 1506.99 5.48701 -0.602585 0
M  V30 16189 H 1509.47 4.09627 0.731093 0
M  V30 16190 H 1508.34 5.30786 1.39848 0
M  V30 16191 H 1508.6 3.7996 2.26016 0
M  V30 16192 N 1507.66 0.121921 1.57128 0
M  V30 16193 C 1508.94 -0.579087 1.86831 0
M  V30 16194 C 1509.32 -1.84623 1.0236 0
M  V30 16195 O 1508.67 -2.28266 0.103326 0
M  V30 16196 C 1508.88 -0.86872 3.38015 0
M  V30 16197 C 1510.23 -1.22051 4.0668 0
M  V30 16198 O 1511.25 -0.958889 3.43051 0
M  V30 16199 O 1510.11 -1.71164 5.19004 0
M  V30 16200 H 1507.2 -0.292539 0.773531 0
M  V30 16201 H 1509.75 0.156644 1.68975 0
M  V30 16202 H 1508.52 0.0291056 3.91289 0
M  V30 16203 H 1508.14 -1.65951 3.61312 0
M  V30 16204 N 1509.14 -1.56867 -0.151857 0
M  V30 16205 C 1510.05 -2.01157 -1.20718 0
M  V30 16206 C 1511.07 -0.926166 -1.47303 0
M  V30 16207 O 1512.24 -1.23528 -1.59069 0
M  V30 16208 C 1509.31 -2.37915 -2.52185 0
M  V30 16209 C 1508.37 -3.60381 -2.3329 0
M  V30 16210 C 1507.6 -3.95376 -3.58488 0
M  V30 16211 O 1507.82 -3.31093 -4.64471 0
M  V30 16212 O 1506.76 -4.88645 -3.5144 0
M  V30 16213 H 1510.58 -2.91234 -0.861175 0
M  V30 16214 H 1508.17 -1.44993 -0.360213 0
M  V30 16215 H 1510.05 -2.6244 -3.29702 0
M  V30 16216 H 1508.73 -1.50995 -2.86325 0
M  V30 16217 H 1507.63 -3.4105 -1.5374 0
M  V30 16218 H 1508.97 -4.47903 -2.04067 0
M  V30 16219 N 1510.62 0.421051 -1.51871 0
M  V30 16220 C 1511.84 1.19568 -1.69465 0
M  V30 16221 C 1512.27 1.83835 -0.398269 0
M  V30 16222 O 1511.63 1.69508 0.643172 0
M  V30 16223 C 1511.67 2.24337 -2.82321 0
M  V30 16224 O 1510.78 3.30205 -2.47059 0
M  V30 16225 H 1510.12 0.349579 -0.564527 0
M  V30 16226 H 1512.65 0.495177 -1.98517 0
M  V30 16227 H 1512.66 2.6886 -3.06885 0
M  V30 16228 H 1511.33 1.76941 -3.76384 0
M  V30 16229 H 1509.91 2.91045 -2.33125 0
M  V30 16230 N 1512.1 1.42293 0.677538 0
M  V30 16231 C 1513.01 1.47953 1.82063 0
M  V30 16232 C 1514.02 0.36851 1.70053 0
M  V30 16233 O 1515.2 0.618996 1.91652 0
M  V30 16234 C 1512.26 1.3769 3.18186 0
M  V30 16235 C 1511.32 2.59261 3.42173 0
M  V30 16236 C 1510.56 2.49478 4.71801 0
M  V30 16237 O 1510.78 1.52915 5.49521 0
M  V30 16238 O 1509.71 3.39562 4.96972 0
M  V30 16239 H 1513.54 2.4443 1.80244 0
M  V30 16240 H 1511.13 1.24027 0.832932 0
M  V30 16241 H 1513.01 1.34319 3.9942 0
M  V30 16242 H 1511.68 0.443377 3.20649 0
M  V30 16243 H 1510.59 2.68207 2.60798 0
M  V30 16244 H 1511.92 3.51503 3.44538 0
M  V30 16245 N 1513.57 -0.913576 1.28419 0
M  V30 16246 C 1514.8 -1.70178 1.18551 0
M  V30 16247 C 1515.22 -1.864 -0.252307 0
M  V30 16248 O 1514.58 -1.37427 -1.18252 0
M  V30 16249 C 1514.63 -3.07145 1.8893 0
M  V30 16250 O 1513.73 -3.9465 1.19688 0
M  V30 16251 H 1513.08 -0.521092 0.411533 0
M  V30 16252 H 1515.61 -1.14228 1.69744 0
M  V30 16253 H 1515.62 -3.57375 1.96843 0
M  V30 16254 H 1514.29 -2.94655 2.93515 0
M  V30 16255 H 1512.87 -3.53085 1.19939 0
M  V30 16256 N 1515.05 -1.1067 -1.12204 0
M  V30 16257 C 1516.3 -0.85189 -1.8404 0
M  V30 16258 C 1516.63 0.620988 -1.84004 0
M  V30 16259 O 1515.91 1.45801 -1.28734 0
M  V30 16260 C 1516.19 -1.40401 -3.31602 0
M  V30 16261 C 1516.04 -2.94392 -3.40078 0
M  V30 16262 C 1517.36 -1.04834 -4.27432 0
M  V30 16263 H 1514.48 -0.310924 -0.668203 0
M  V30 16264 H 1517.12 -1.37026 -1.3162 0
M  V30 16265 H 1515.27 -0.963107 -3.76373 0
M  V30 16266 H 1516.94 -3.47027 -3.03924 0
M  V30 16267 H 1515.19 -3.3087 -2.80548 0
M  V30 16268 H 1515.86 -3.28107 -4.43903 0
M  V30 16269 H 1518.33 -1.42882 -3.90799 0
M  V30 16270 H 1517.21 -1.46153 -5.29085 0
M  V30 16271 H 1517.47 0.0419272 -4.4208 0
M  V30 16272 N 1516.53 1.29665 -0.895815 0
M  V30 16273 C 1517.76 1.99862 -0.535043 0
M  V30 16274 C 1518.17 1.67077 0.879245 0
M  V30 16275 O 1517.53 0.913717 1.57979 0
M  V30 16276 C 1517.58 3.54396 -0.713132 0
M  V30 16277 O 1517.3 3.86018 -2.07175 0
M  V30 16278 C 1518.8 4.41862 -0.356792 0
M  V30 16279 H 1516.02 0.638693 -0.205699 0
M  V30 16280 H 1518.57 1.65293 -1.20409 0
M  V30 16281 H 1516.72 3.87292 -0.0913116 0
M  V30 16282 H 1517.14 4.80701 -2.09827 0
M  V30 16283 H 1518.61 5.49428 -0.532252 0
M  V30 16284 H 1519.09 4.3349 0.705914 0
M  V30 16285 H 1519.69 4.1443 -0.95539 0
M  V30 16286 N 1518.01 0.657889 1.43212 0
M  V30 16287 C 1518.94 -0.0172114 2.33494 0
M  V30 16288 C 1519.92 -0.807087 1.49733 0
M  V30 16289 O 1521.1 -0.767631 1.78385 0
M  V30 16290 C 1518.23 -0.981029 3.33156 0
M  V30 16291 C 1517.19 -0.30094 4.26941 0
M  V30 16292 C 1516.51 -1.37653 5.16678 0
M  V30 16293 C 1517.81 0.809572 5.15988 0
M  V30 16294 H 1519.51 0.736749 2.90194 0
M  V30 16295 H 1517.05 0.355744 1.39537 0
M  V30 16296 H 1519.01 -1.46226 3.95216 0
M  V30 16297 H 1517.73 -1.76621 2.74723 0
M  V30 16298 H 1516.39 0.159893 3.66251 0
M  V30 16299 H 1516.04 -2.15326 4.54581 0
M  V30 16300 H 1515.74 -0.926704 5.80246 0
M  V30 16301 H 1517.26 -1.85903 5.81612 0
M  V30 16302 H 1518.68 0.410297 5.7183 0
M  V30 16303 H 1517.07 1.18415 5.88301 0
M  V30 16304 H 1518.14 1.66558 4.55397 0
M  V30 16305 N 1519.49 -1.52437 0.400108 0
M  V30 16306 C 1520.42 -2.24433 -0.465038 0
M  V30 16307 C 1521.43 -1.27067 -1.01773 0
M  V30 16308 O 1522.62 -1.53072 -0.918215 0
M  V30 16309 C 1519.72 -2.95555 -1.65832 0
M  V30 16310 C 1518.89 -4.19717 -1.2311 0
M  V30 16311 C 1517.95 -4.73743 -2.29028 0
M  V30 16312 O 1516.98 -5.36556 -1.8999 0
M  V30 16313 N 1518.18 -4.54534 -3.6108 0
M  V30 16314 H 1520.95 -2.99315 0.151839 0
M  V30 16315 H 1518.51 -1.603 0.227019 0
M  V30 16316 H 1520.5 -3.28595 -2.36235 0
M  V30 16317 H 1519.07 -2.23915 -2.18131 0
M  V30 16318 H 1518.29 -3.92593 -0.355537 0
M  V30 16319 H 1519.58 -5.00367 -0.922487 0
M  V30 16320 H 1518.97 -4.04419 -3.95552 0
M  V30 16321 H 1517.53 -4.92035 -4.27486 0
M  V30 16322 N 1520.96 -0.130252 -1.57061 0
M  V30 16323 C 1521.9 0.846442 -2.12998 0
M  V30 16324 C 1522.91 1.22229 -1.07536 0
M  V30 16325 O 1524.1 1.16928 -1.34871 0
M  V30 16326 C 1521.2 2.14481 -2.62395 0
M  V30 16327 C 1520.37 1.93892 -3.92077 0
M  V30 16328 C 1519.43 3.07562 -4.26957 0
M  V30 16329 O 1518.46 2.79983 -4.95578 0
M  V30 16330 N 1519.66 4.34297 -3.85184 0
M  V30 16331 H 1522.42 0.368471 -2.97426 0
M  V30 16332 H 1519.98 0.0538355 -1.6181 0
M  V30 16333 H 1521.98 2.8954 -2.82752 0
M  V30 16334 H 1520.55 2.53592 -1.82784 0
M  V30 16335 H 1519.77 1.02962 -3.80516 0
M  V30 16336 H 1521.05 1.77454 -4.76852 0
M  V30 16337 H 1520.45 4.59575 -3.29859 0
M  V30 16338 H 1519.01 5.06191 -4.10626 0
M  V30 16339 N 1522.44 1.56945 0.143535 0
M  V30 16340 C 1523.67 1.87429 0.869139 0
M  V30 16341 C 1524.08 0.716856 1.75094 0
M  V30 16342 O 1523.42 -0.322379 1.80849 0
M  V30 16343 C 1523.49 3.12657 1.77442 0
M  V30 16344 C 1523.15 4.44311 1.06943 0
M  V30 16345 C 1524.15 5.18187 0.421706 0
M  V30 16346 C 1521.83 4.91033 1.05791 0
M  V30 16347 C 1523.83 6.36992 -0.228127 0
M  V30 16348 C 1521.51 6.09761 0.404266 0
M  V30 16349 C 1522.51 6.82587 -0.237621 0
M  V30 16350 O 1522.2 7.99059 -0.880893 0
M  V30 16351 H 1521.93 0.625443 0.256508 0
M  V30 16352 H 1524.49 2.04922 0.139979 0
M  V30 16353 H 1522.72 2.91181 2.54461 0
M  V30 16354 H 1524.4 3.29359 2.37228 0
M  V30 16355 H 1525.17 4.83157 0.422395 0
M  V30 16356 H 1521.05 4.3427 1.54694 0
M  V30 16357 H 1524.59 6.93773 -0.729732 0
M  V30 16358 H 1520.49 6.44252 0.401256 0
M  V30 16359 H 1521.26 8.14747 -0.782907 0
M  V30 16360 N 1523.92 -0.412991 1.52093 0
M  V30 16361 C 1525.15 -1.1804 1.69558 0
M  V30 16362 C 1525.56 -1.84858 0.403007 0
M  V30 16363 O 1524.9 -1.72541 -0.630506 0
M  V30 16364 C 1524.96 -2.28876 2.7723 0
M  V30 16365 C 1524.63 -1.82226 4.19098 0
M  V30 16366 C 1525.63 -1.31216 5.03069 0
M  V30 16367 C 1523.31 -1.89177 4.65314 0
M  V30 16368 C 1525.3 -0.877743 6.31328 0
M  V30 16369 C 1522.99 -1.45347 5.93563 0
M  V30 16370 C 1523.99 -0.947302 6.76399 0
M  V30 16371 O 1523.68 -0.515315 8.02247 0
M  V30 16372 H 1523.41 -0.360882 0.571612 0
M  V30 16373 H 1525.96 -0.492521 1.99408 0
M  V30 16374 H 1524.19 -3.01015 2.42748 0
M  V30 16375 H 1525.88 -2.9065 2.83333 0
M  V30 16376 H 1526.65 -1.25221 4.68556 0
M  V30 16377 H 1522.53 -2.27518 4.00945 0
M  V30 16378 H 1526.07 -0.481977 6.95933 0
M  V30 16379 H 1521.97 -1.51019 6.27585 0
M  V30 16380 H 1522.74 -0.638973 8.16002 0
M  V30 16381 N 1525.4 -1.4265 -0.669982 0
M  V30 16382 C 1526.82 -1.25682 -0.983682 0
M  V30 16383 C 1527.02 -0.164456 -2.00828 0
M  V30 16384 O 1526.07 0.462711 -2.48224 0
M  V30 16385 C 1527.38 -2.61536 -1.4839 0
M  V30 16386 C 1528.93 -2.6893 -1.60143 0
M  V30 16387 C 1529.41 -4.05162 -2.1356 0
M  V30 16388 N 1530.9 -4.07141 -2.20886 0
M  V30 16389 C 1531.63 -5.09371 -2.63303 0
M  V30 16390 N 1531.13 -6.21983 -3.05137 0
M  V30 16391 N 1532.92 -4.96727 -2.63094 0
M  V30 16392 H 1525.07 -2.12398 0.0083059 0
M  V30 16393 H 1527.34 -0.946173 -0.058823 0
M  V30 16394 H 1527.04 -3.42351 -0.805527 0
M  V30 16395 H 1526.92 -2.85786 -2.46183 0
M  V30 16396 H 1529.3 -1.88457 -2.27085 0
M  V30 16397 H 1529.38 -2.48463 -0.608266 0
M  V30 16398 H 1529.03 -4.86094 -1.47224 0
M  V30 16399 H 1528.96 -4.22984 -3.13676 0
M  V30 16400 H 1531.45 -3.25846 -1.91396 0
M  V30 16401 H 1531.76 -6.95835 -3.36204 0
M  V30 16402 H 1530.11 -6.25481 -3.02983 0
M  V30 16403 H 1533.3 -4.07824 -2.29777 0
M  V30 16404 H 1533.47 -5.76531 -2.95831 0
M  V30 16405 N 1526.88 0.906753 -1.28902 0
M  V30 16406 C 1527.79 2.04313 -1.15296 0
M  V30 16407 C 1528.8 1.73826 -0.0778619 0
M  V30 16408 O 1529.98 1.99322 -0.288543 0
M  V30 16409 C 1527.04 3.36782 -0.823317 0
M  V30 16410 C 1526.11 3.80834 -1.98152 0
M  V30 16411 C 1525.34 5.06981 -1.66751 0
M  V30 16412 O 1525.56 5.67391 -0.58513 0
M  V30 16413 O 1524.5 5.46915 -2.51332 0
M  V30 16414 H 1528.32 2.18713 -2.10709 0
M  V30 16415 H 1525.91 1.02928 -1.08287 0
M  V30 16416 H 1527.79 4.16298 -0.653735 0
M  V30 16417 H 1526.46 3.23542 0.101097 0
M  V30 16418 H 1525.37 3.02115 -2.2063 0
M  V30 16419 H 1526.7 3.98648 -2.88688 0
M  V30 16420 N 1528.36 1.11264 1.11616 0
M  V30 16421 C 1529.32 0.7726 2.15786 0
M  V30 16422 C 1530.32 -0.207145 1.5946 0
M  V30 16423 O 1531.51 0.0171053 1.74192 0
M  V30 16424 C 1528.64 0.145927 3.40588 0
M  V30 16425 H 1529.83 1.69539 2.47379 0
M  V30 16426 H 1527.39 0.914278 1.2677 0
M  V30 16427 H 1528.12 -0.787178 3.14601 0
M  V30 16428 H 1527.91 0.851161 3.8275 0
M  V30 16429 H 1529.4 -0.0759176 4.17531 0
M  V30 16430 N 1529.83 -1.29188 0.902679 0
M  V30 16431 C 1530.77 -2.25842 0.327193 0
M  V30 16432 C 1531.74 -1.52567 -0.562321 0
M  V30 16433 O 1532.93 -1.81513 -0.508462 0
M  V30 16434 C 1530.06 -3.34475 -0.533338 0
M  V30 16435 C 1529.1 -4.25518 0.289268 0
M  V30 16436 S 1529.93 -5.08168 1.68896 0
M  V30 16437 C 1531.09 -6.20299 0.835428 0
M  V30 16438 H 1531.32 -2.74307 1.14644 0
M  V30 16439 H 1528.86 -1.37456 0.703212 0
M  V30 16440 H 1530.81 -3.97522 -1.02404 0
M  V30 16441 H 1529.48 -2.84699 -1.32685 0
M  V30 16442 H 1528.67 -5.02653 -0.368218 0
M  V30 16443 H 1528.27 -3.67136 0.71322 0
M  V30 16444 H 1530.56 -6.77473 0.0601329 0
M  V30 16445 H 1531.51 -6.90271 1.57896 0
M  V30 16446 H 1531.91 -5.63162 0.388497 0
M  V30 16447 N 1531.31 -0.665475 -1.42861 0
M  V30 16448 C 1532.56 -0.181149 -2.00885 0
M  V30 16449 C 1532.87 1.21629 -1.53186 0
M  V30 16450 O 1534.08 1.79648 -2.03565 0
M  V30 16451 C 1532.54 -0.273017 -3.58863 0
M  V30 16452 C 1532.14 -1.67392 -4.15553 0
M  V30 16453 C 1533.89 0.153075 -4.24224 0
M  V30 16454 C 1531.79 -1.71905 -5.65864 0
M  V30 16455 H 1530.72 -0.0639619 -0.751282 0
M  V30 16456 H 1533.38 -0.829299 -1.63691 0
M  V30 16457 H 1531.76 0.44286 -3.93516 0
M  V30 16458 H 1532.93 -2.41613 -3.92377 0
M  V30 16459 H 1531.25 -2.04704 -3.62609 0
M  V30 16460 H 1533.84 0.139369 -5.34518 0
M  V30 16461 H 1534.19 1.1867 -3.99028 0
M  V30 16462 H 1534.72 -0.511472 -3.94498 0
M  V30 16463 H 1531.46 -2.73218 -5.95846 0
M  V30 16464 H 1530.98 -1.02027 -5.91059 0
M  V30 16465 H 1532.66 -1.46829 -6.30119 0
M  V30 16466 N 1532.79 1.52222 -0.408187 0
M  V30 16467 C 1533.72 2.24676 0.453129 0
M  V30 16468 C 1534.73 1.27605 1.01098 0
M  V30 16469 O 1535.92 1.53557 0.910084 0
M  V30 16470 C 1533.02 2.96431 1.64262 0
M  V30 16471 C 1532.2 4.20364 1.20883 0
M  V30 16472 C 1531.26 4.74951 2.26512 0
M  V30 16473 O 1530.28 5.37556 1.87142 0
M  V30 16474 N 1531.48 4.56443 3.58665 0
M  V30 16475 H 1534.25 2.9923 -0.16771 0
M  V30 16476 H 1531.81 1.60178 -0.235517 0
M  V30 16477 H 1533.8 3.29844 2.3449 0
M  V30 16478 H 1532.37 2.25068 2.1694 0
M  V30 16479 H 1531.59 3.92776 0.334712 0
M  V30 16480 H 1532.88 5.0085 0.895939 0
M  V30 16481 H 1532.28 4.06511 3.93402 0
M  V30 16482 H 1530.83 4.94295 4.24871 0
M  V30 16483 N 1534.27 0.138579 1.5699 0
M  V30 16484 C 1535.52 -0.513611 1.95465 0
M  V30 16485 C 1535.84 -1.65952 1.02396 0
M  V30 16486 O 1535.11 -1.9572 0.0839001 0
M  V30 16487 H 1533.69 -0.192729 0.72171 0
M  V30 16488 H 1536.35 0.212107 1.93742 0
M  V30 16489 H 1535.44 -0.895313 2.98983 0
M  V30 16490 N 1535.75 -1.57019 -0.13521 0
M  V30 16491 C 1536.98 -1.87887 -0.859187 0
M  V30 16492 C 1537.38 -0.726131 -1.74711 0
M  V30 16493 O 1536.73 0.312784 -1.81018 0
M  V30 16494 C 1536.79 -3.13594 -1.75782 0
M  V30 16495 C 1536.45 -4.44872 -1.04586 0
M  V30 16496 C 1537.45 -5.18403 -0.39422 0
M  V30 16497 C 1535.13 -4.91587 -1.03185 0
M  V30 16498 C 1537.13 -6.36862 0.261905 0
M  V30 16499 C 1534.82 -6.09967 -0.371923 0
M  V30 16500 C 1535.81 -6.82451 0.273817 0
M  V30 16501 O 1535.5 -7.98581 0.923256 0
M  V30 16502 H 1535.23 -0.626795 -0.253188 0
M  V30 16503 H 1537.79 -2.04994 -0.129109 0
M  V30 16504 H 1536.02 -2.92527 -2.52913 0
M  V30 16505 H 1537.71 -3.30613 -2.35478 0
M  V30 16506 H 1538.47 -4.83374 -0.396766 0
M  V30 16507 H 1534.35 -4.35085 -1.52389 0
M  V30 16508 H 1537.9 -6.93376 0.766515 0
M  V30 16509 H 1533.79 -6.44455 -0.367084 0
M  V30 16510 H 1534.56 -8.1432 0.826104 0
M  V30 16511 N 1537.22 0.404919 -1.52309 0
M  V30 16512 C 1538.17 1.51412 -1.7657 0
M  V30 16513 C 1539.17 1.5713 -0.632983 0
M  V30 16514 O 1540.37 1.60486 -0.815121 0
M  V30 16515 H 1536.75 0.503636 -0.55844 0
M  V30 16516 H 1538.72 1.28137 -2.69488 0
M  V30 16517 C 1537.47 2.88733 -1.93722 0
M  V30 16518 H 1536.79 2.85078 -2.80304 0
M  V30 16519 H 1538.23 3.65626 -2.14695 0
M  V30 16520 C 1536.69 3.29431 -0.705444 0
M  V30 16521 O 1537.22 4.01506 0.124693 0
M  V30 16522 N 1535.43 2.85536 -0.540128 0
M  V30 16523 H 1534.97 2.27052 -1.21677 0
M  V30 16524 H 1534.93 3.13126 0.282723 0
M  V30 16525 N 1538.7 1.43003 0.662408 0
M  V30 16526 C 1539.95 1.44133 1.42239 0
M  V30 16527 C 1540.28 0.062249 1.944 0
M  V30 16528 O 1539.53 -0.931341 1.72118 0
M  V30 16529 C 1539.83 2.4231 2.62718 0
M  V30 16530 C 1539.5 3.88403 2.29028 0
M  V30 16531 C 1538.16 4.28194 2.19552 0
M  V30 16532 C 1540.51 4.80505 2.01902 0
M  V30 16533 C 1537.84 5.58052 1.81092 0
M  V30 16534 C 1540.19 6.10718 1.64943 0
M  V30 16535 C 1538.86 6.49496 1.53985 0
M  V30 16536 H 1538.13 0.527419 0.52049 0
M  V30 16537 H 1540.77 1.76024 0.75417 0
M  V30 16538 H 1539.08 2.03789 3.3463 0
M  V30 16539 H 1540.77 2.40442 3.20918 0
M  V30 16540 H 1537.36 3.56906 2.37311 0
M  V30 16541 H 1541.55 4.50542 2.08149 0
M  V30 16542 H 1536.8 5.86945 1.71187 0
M  V30 16543 H 1540.98 6.81564 1.42982 0
M  V30 16544 H 1538.61 7.50026 1.23954 0
M  V30 16545 N 1540.18 -0.899904 1.29381 0
M  V30 16546 C 1541.43 -1.64712 1.17109 0
M  V30 16547 C 1541.75 -1.93011 -0.277772 0
M  V30 16548 O 1541.02 -1.55604 -1.19013 0
M  V30 16549 H 1539.6 -0.610532 0.430418 0
M  V30 16550 H 1542.26 -1.07905 1.62304 0
M  V30 16551 H 1541.36 -2.60362 1.72098 0
M  V30 16552 N 1541.66 -1.11854 -1.11024 0
M  V30 16553 C 1542.91 -0.870073 -1.82855 0
M  V30 16554 C 1543.23 0.604215 -1.84877 0
M  V30 16555 O 1542.49 1.46232 -1.30056 0
M  V30 16556 C 1542.79 -1.3823 -3.29586 0
M  V30 16557 C 1542.45 -2.87057 -3.4772 0
M  V30 16558 C 1541.12 -3.27696 -3.52376 0
M  V30 16559 C 1543.47 -3.8289 -3.53617 0
M  V30 16560 C 1540.8 -4.62886 -3.60491 0
M  V30 16561 C 1543.15 -5.17902 -3.63263 0
M  V30 16562 C 1541.81 -5.58092 -3.66182 0
M  V30 16563 H 1541.08 -0.318382 -0.669114 0
M  V30 16564 H 1543.73 -1.39769 -1.30908 0
M  V30 16565 H 1542.03 -0.775018 -3.84058 0
M  V30 16566 H 1543.73 -1.16634 -3.83663 0
M  V30 16567 H 1540.32 -2.54623 -3.44768 0
M  V30 16568 H 1544.5 -3.52591 -3.49275 0
M  V30 16569 H 1539.76 -4.93425 -3.61029 0
M  V30 16570 H 1543.93 -5.9199 -3.6677 0
M  V30 16571 H 1541.56 -6.62838 -3.72222 0
M  V30 16572 N 1543.14 1.28707 -0.909517 0
M  V30 16573 C 1544.05 2.31171 -0.399628 0
M  V30 16574 C 1545.06 1.6634 0.510582 0
M  V30 16575 O 1546.24 1.97432 0.397792 0
M  V30 16576 C 1543.3 3.44869 0.355852 0
M  V30 16577 C 1542.36 4.25267 -0.587065 0
M  V30 16578 C 1541.6 5.33536 0.132456 0
M  V30 16579 O 1541.82 5.54075 1.35486 0
M  V30 16580 O 1540.75 5.99561 -0.530062 0
M  V30 16581 H 1544.58 2.76785 -1.24995 0
M  V30 16582 H 1542.17 1.33323 -0.674186 0
M  V30 16583 H 1544.05 4.14068 0.782692 0
M  V30 16584 H 1542.72 3.01345 1.18207 0
M  V30 16585 H 1541.63 3.58673 -1.06322 0
M  V30 16586 H 1542.96 4.72459 -1.37998 0
M  V30 16587 N 1544.61 0.673042 1.42506 0
M  V30 16588 C 1545.84 0.202628 2.05604 0
M  V30 16589 C 1546.25 -1.14466 1.50646 0
M  V30 16590 O 1545.6 -1.7218 0.6403 0
M  V30 16591 C 1545.66 0.0583637 3.59453 0
M  V30 16592 C 1545.32 1.33408 4.37094 0
M  V30 16593 C 1546.32 2.26717 4.67863 0
M  V30 16594 C 1544 1.58119 4.76764 0
M  V30 16595 C 1546 3.43014 5.37234 0
M  V30 16596 C 1543.68 2.74706 5.45875 0
M  V30 16597 C 1544.68 3.66978 5.76035 0
M  V30 16598 O 1544.37 4.81526 6.4373 0
M  V30 16599 H 1544.1 0.0964964 0.669077 0
M  V30 16600 H 1546.66 0.919656 1.83661 0
M  V30 16601 H 1544.89 -0.714227 3.80047 0
M  V30 16602 H 1546.58 -0.37195 4.04192 0
M  V30 16603 H 1547.34 2.08875 4.37717 0
M  V30 16604 H 1543.22 0.871705 4.52683 0
M  V30 16605 H 1546.76 4.15055 5.60692 0
M  V30 16606 H 1542.66 2.92474 5.75438 0
M  V30 16607 H 1543.43 4.81047 6.6222 0
M  V30 16608 N 1546.09 -1.52004 0.416254 0
M  V30 16609 C 1547.04 -2.24037 -0.423226 0
M  V30 16610 C 1548.03 -1.25444 -1.0076 0
M  V30 16611 O 1549.22 -1.50646 -0.92924 0
M  V30 16612 C 1546.35 -3.07048 -1.53547 0
M  V30 16613 C 1545.43 -4.13056 -0.961518 0
M  V30 16614 N 1545.82 -5.0567 -0.114849 0
M  V30 16615 C 1544.12 -4.28667 -1.2313 0
M  V30 16616 C 1544.82 -5.81338 0.205249 0
M  V30 16617 N 1543.8 -5.42084 -0.405736 0
M  V30 16618 H 1547.6 -2.93 0.229864 0
M  V30 16619 H 1545.12 -1.60804 0.227087 0
M  V30 16620 H 1547.11 -3.57212 -2.14954 0
M  V30 16621 H 1545.77 -2.39626 -2.19111 0
M  V30 16622 H 1546.78 -5.17296 0.250006 0
M  V30 16623 H 1543.46 -3.72474 -1.88599 0
M  V30 16624 H 1544.85 -6.6594 0.892938 0
M  V30 16625 N 1547.57 -0.146903 -1.56914 0
M  V30 16626 C 1548.52 0.792821 -2.16756 0
M  V30 16627 C 1549.49 1.2442 -1.1004 0
M  V30 16628 O 1550.67 1.31674 -1.38081 0
M  V30 16629 C 1547.81 2.02659 -2.79327 0
M  V30 16630 C 1546.93 1.62102 -4.00433 0
M  V30 16631 C 1546.06 2.80658 -4.51004 0
M  V30 16632 C 1545.1 2.36474 -5.64576 0
M  V30 16633 N 1544.24 3.48038 -6.09766 0
M  V30 16634 H 1549.08 0.275708 -2.96722 0
M  V30 16635 H 1546.61 0.124374 -1.46573 0
M  V30 16636 H 1548.57 2.74986 -3.13749 0
M  V30 16637 H 1547.2 2.51781 -2.02005 0
M  V30 16638 H 1546.25 0.795407 -3.71991 0
M  V30 16639 H 1547.57 1.25652 -4.82714 0
M  V30 16640 H 1546.72 3.61175 -4.87481 0
M  V30 16641 H 1545.46 3.20353 -3.6773 0
M  V30 16642 H 1544.46 1.54397 -5.27676 0
M  V30 16643 H 1545.69 1.97865 -6.49635 0
M  V30 16644 H 1543.63 3.87354 -5.29427 0
M  V30 16645 H 1543.55 3.15602 -6.86972 0
M  V30 16646 H 1544.82 4.28912 -6.50887 0
M  V30 16647 N 1549.05 1.57088 0.126881 0
M  V30 16648 C 1549.96 2.03053 1.17502 0
M  V30 16649 C 1550.97 0.949484 1.45811 0
M  V30 16650 O 1552.15 1.26043 1.57083 0
M  V30 16651 C 1549.22 2.41897 2.48368 0
M  V30 16652 C 1548.28 3.64047 2.27527 0
M  V30 16653 C 1547.51 4.01029 3.52153 0
M  V30 16654 O 1547.73 3.38441 4.59145 0
M  V30 16655 O 1546.67 4.94174 3.43622 0
M  V30 16656 H 1550.49 2.92568 0.814733 0
M  V30 16657 H 1548.08 1.45547 0.3371 0
M  V30 16658 H 1549.96 2.67652 3.25485 0
M  V30 16659 H 1548.63 1.55531 2.83887 0
M  V30 16660 H 1547.54 3.43452 1.48294 0
M  V30 16661 H 1548.87 4.51093 1.96916 0
M  V30 16662 N 1550.53 -0.396836 1.52522 0
M  V30 16663 C 1551.77 -1.14432 1.67431 0
M  V30 16664 C 1552.11 -1.89842 0.409115 0
M  V30 16665 O 1551.38 -1.85244 -0.592863 0
M  V30 16666 C 1551.66 -2.12889 2.90431 0
M  V30 16667 C 1551.52 -1.41295 4.27031 0
M  V30 16668 C 1552.84 -3.13412 3.08967 0
M  V30 16669 H 1549.95 -0.414643 0.609295 0
M  V30 16670 H 1552.6 -0.428604 1.85103 0
M  V30 16671 H 1550.75 -2.73924 2.75495 0
M  V30 16672 H 1552.42 -0.832848 4.53719 0
M  V30 16673 H 1550.66 -0.714834 4.2787 0
M  V30 16674 H 1551.33 -2.13198 5.09167 0
M  V30 16675 H 1553.81 -2.62462 3.22883 0
M  V30 16676 H 1552.68 -3.79555 3.96522 0
M  V30 16677 H 1552.95 -3.81836 2.22831 0
M  V30 16678 N 1552.01 -1.43353 -0.654814 0
M  V30 16679 C 1553.25 -1.451 -1.41682 0
M  V30 16680 C 1553.58 -0.0743864 -1.94057 0
M  V30 16681 O 1552.86 0.904515 -1.72188 0
M  V30 16682 C 1553.14 -2.49204 -2.59941 0
M  V30 16683 C 1553 -3.96134 -2.13069 0
M  V30 16684 C 1554.31 -2.50064 -3.62155 0
M  V30 16685 H 1551.43 -0.528339 -0.513836 0
M  V30 16686 H 1554.08 -1.74892 -0.742489 0
M  V30 16687 H 1552.23 -2.2393 -3.1747 0
M  V30 16688 H 1553.9 -4.32459 -1.60552 0
M  V30 16689 H 1552.14 -4.09042 -1.44455 0
M  V30 16690 H 1552.81 -4.64585 -2.98101 0
M  V30 16691 H 1555.29 -2.72587 -3.14382 0
M  V30 16692 H 1554.16 -3.24849 -4.42452 0
M  V30 16693 H 1554.42 -1.53385 -4.14639 0
M  V30 16694 N 1553.48 0.89303 -1.29857 0
M  V30 16695 C 1554.9 1.17496 -1.08013 0
M  V30 16696 C 1555.1 2.00829 0.164302 0
M  V30 16697 O 1554.16 2.37396 0.860194 0
M  V30 16698 C 1555.47 1.88944 -2.33924 0
M  V30 16699 C 1557.02 2.01742 -2.3931 0
M  V30 16700 C 1557.49 2.76601 -3.65042 0
M  V30 16701 N 1558.98 2.84152 -3.65803 0
M  V30 16702 C 1559.72 3.42628 -4.59776 0
M  V30 16703 N 1559.21 4.02218 -5.64086 0
M  V30 16704 N 1561.01 3.40366 -4.47334 0
M  V30 16705 H 1553.16 0.33719 -2.09706 0
M  V30 16706 H 1555.42 0.211899 -0.924014 0
M  V30 16707 H 1555.13 1.35151 -3.24695 0
M  V30 16708 H 1555 2.89379 -2.4195 0
M  V30 16709 H 1557.39 2.54708 -1.49022 0
M  V30 16710 H 1557.47 1.0042 -2.35265 0
M  V30 16711 H 1557.11 2.24309 -4.55684 0
M  V30 16712 H 1557.04 3.78283 -3.66346 0
M  V30 16713 H 1559.53 2.41835 -2.90386 0
M  V30 16714 H 1559.85 4.4488 -6.31903 0
M  V30 16715 H 1558.19 4.00661 -5.67887 0
M  V30 16716 H 1561.38 2.93035 -3.65031 0
M  V30 16717 H 1561.56 3.85644 -5.20752 0
M  V30 16718 N 1554.96 1.12442 1.10429 0
M  V30 16719 C 1555.89 0.814745 2.18824 0
M  V30 16720 C 1556.87 -0.221476 1.68652 0
M  V30 16721 O 1558.06 -0.0826537 1.94024 0
M  V30 16722 C 1555.19 0.268632 3.4626 0
M  V30 16723 C 1554.14 1.23792 4.09707 0
M  V30 16724 C 1553.47 0.552034 5.31843 0
M  V30 16725 C 1554.77 2.5926 4.53411 0
M  V30 16726 H 1556.46 1.72111 2.44986 0
M  V30 16727 H 1554.01 0.828968 1.17746 0
M  V30 16728 H 1555.96 0.0397207 4.21381 0
M  V30 16729 H 1554.68 -0.673079 3.19589 0
M  V30 16730 H 1553.34 1.45264 3.36592 0
M  V30 16731 H 1552.99 -0.394821 5.01448 0
M  V30 16732 H 1552.69 1.19861 5.75245 0
M  V30 16733 H 1554.22 0.332161 6.09696 0
M  V30 16734 H 1555.63 2.41816 5.19806 0
M  V30 16735 H 1554.03 3.19997 5.07663 0
M  V30 16736 H 1555.1 3.17699 3.66327 0
M  V30 16737 N 1556.44 -1.28223 0.91633 0
M  V30 16738 C 1557.37 -2.25482 0.351128 0
M  V30 16739 C 1558.35 -1.53155 -0.546108 0
M  V30 16740 O 1559.53 -1.82042 -0.489182 0
M  V30 16741 C 1556.66 -3.35021 -0.497832 0
M  V30 16742 C 1555.71 -4.25187 0.334384 0
M  V30 16743 S 1556.54 -5.06348 1.74276 0
M  V30 16744 C 1557.7 -6.19378 0.901172 0
M  V30 16745 H 1557.93 -2.73075 1.17547 0
M  V30 16746 H 1555.46 -1.36703 0.717752 0
M  V30 16747 H 1557.42 -3.98586 -0.98182 0
M  V30 16748 H 1556.08 -2.8609 -1.29658 0
M  V30 16749 H 1555.27 -5.03015 -0.314884 0
M  V30 16750 H 1554.88 -3.66359 0.75212 0
M  V30 16751 H 1557.17 -6.77371 0.131985 0
M  V30 16752 H 1558.11 -6.88558 1.65208 0
M  V30 16753 H 1558.52 -5.62718 0.448206 0
M  V30 16754 N 1557.92 -0.68059 -1.42147 0
M  V30 16755 C 1559.14 -0.212293 -2.06311 0
M  V30 16756 C 1559.57 1.12402 -1.50822 0
M  V30 16757 O 1558.93 1.70037 -0.629051 0
M  V30 16758 C 1558.97 -0.164156 -3.60226 0
M  V30 16759 O 1558.08 0.865582 -4.03214 0
M  V30 16760 H 1557.42 -0.107451 -0.655248 0
M  V30 16761 H 1559.95 -0.931233 -1.82179 0
M  V30 16762 H 1559.96 0.0100422 -4.07999 0
M  V30 16763 H 1558.63 -1.13952 -3.99985 0
M  V30 16764 H 1557.21 0.661955 -3.66978 0
M  V30 16765 N 1559.4 1.51781 -0.424309 0
M  V30 16766 C 1560.64 2.0157 0.146203 0
M  V30 16767 C 1560.96 1.3111 1.44344 0
M  V30 16768 O 1560.23 0.441631 1.90857 0
M  V30 16769 H 1558.81 0.744821 0.057019 0
M  V30 16770 H 1561.48 1.8656 -0.564031 0
M  V30 16771 H 1560.57 3.10335 0.331464 0
M  V30 16772 N 1560.87 0.155222 1.56834 0
M  V30 16773 C 1561.78 -0.794179 2.20749 0
M  V30 16774 C 1562.8 -1.26546 1.19424 0
M  V30 16775 O 1563.98 -1.32094 1.5203 0
M  V30 16776 C 1561.04 -2.01261 2.82303 0
M  V30 16777 C 1560.1 -1.58976 3.98779 0
M  V30 16778 C 1559.33 -2.75011 4.57389 0
M  V30 16779 O 1559.56 -3.91449 4.14879 0
M  V30 16780 O 1558.49 -2.50011 5.4752 0
M  V30 16781 H 1562.32 -0.280064 3.02406 0
M  V30 16782 H 1559.9 -0.0722048 1.49225 0
M  V30 16783 H 1561.78 -2.72551 3.21394 0
M  V30 16784 H 1560.46 -2.51609 2.03653 0
M  V30 16785 H 1559.37 -0.846848 3.64389 0
M  V30 16786 H 1560.7 -1.13336 4.78974 0
M  V30 16787 N 1562.35 -1.57153 -0.118549 0
M  V30 16788 C 1563.6 -1.84876 -0.826255 0
M  V30 16789 C 1563.93 -0.740373 -1.79858 0
M  V30 16790 O 1563.18 0.268233 -1.93853 0
M  V30 16791 C 1563.48 -3.19084 -1.60998 0
M  V30 16792 C 1563.15 -4.44069 -0.781911 0
M  V30 16793 C 1561.81 -4.78005 -0.553559 0
M  V30 16794 C 1564.16 -5.20798 -0.204739 0
M  V30 16795 C 1561.49 -5.86114 0.262212 0
M  V30 16796 C 1563.84 -6.29765 0.598225 0
M  V30 16797 C 1562.5 -6.62233 0.83689 0
M  V30 16798 H 1561.77 -0.676511 -0.302348 0
M  V30 16799 H 1564.42 -1.91295 -0.0886182 0
M  V30 16800 H 1562.73 -3.08243 -2.41854 0
M  V30 16801 H 1564.42 -3.37755 -2.16153 0
M  V30 16802 H 1561.01 -4.1748 -0.969984 0
M  V30 16803 H 1565.2 -4.94931 -0.368374 0
M  V30 16804 H 1560.45 -6.09695 0.456338 0
M  V30 16805 H 1564.63 -6.88401 1.05244 0
M  V30 16806 H 1562.25 -7.45835 1.47083 0
M  V30 16807 N 1563.83 0.388742 -1.5273 0
M  V30 16808 C 1565.25 0.728828 -1.41987 0
M  V30 16809 C 1565.45 1.94116 -0.540493 0
M  V30 16810 O 1564.5 2.52496 -0.0140397 0
M  V30 16811 C 1565.81 0.963683 -2.8484 0
M  V30 16812 C 1567.36 1.06514 -2.94319 0
M  V30 16813 C 1567.84 1.33262 -4.38184 0
M  V30 16814 N 1569.33 1.40083 -4.4151 0
M  V30 16815 C 1570.06 1.62446 -5.49908 0
M  V30 16816 N 1569.56 1.82277 -6.68391 0
M  V30 16817 N 1571.35 1.64627 -5.37452 0
M  V30 16818 H 1563.5 -0.408984 -2.08425 0
M  V30 16819 H 1565.77 -0.120791 -0.940273 0
M  V30 16820 H 1565.47 0.144986 -3.51401 0
M  V30 16821 H 1565.35 1.87828 -3.27109 0
M  V30 16822 H 1567.73 1.8744 -2.27926 0
M  V30 16823 H 1567.81 0.12845 -2.55477 0
M  V30 16824 H 1567.46 0.528457 -5.05143 0
M  V30 16825 H 1567.39 2.28216 -4.74579 0
M  V30 16826 H 1569.88 1.26465 -3.56111 0
M  V30 16827 H 1570.19 1.98848 -7.46779 0
M  V30 16828 H 1568.54 1.79501 -6.7142 0
M  V30 16829 H 1571.73 1.48686 -4.43858 0
M  V30 16830 H 1571.9 1.81715 -6.22 0
M  V30 16831 N 1565.31 1.43698 0.647203 0
M  V30 16832 C 1566.24 1.45295 1.77262 0
M  V30 16833 C 1567.25 0.34831 1.5903 0
M  V30 16834 O 1568.44 0.613106 1.6764 0
M  V30 16835 C 1565.54 1.25584 3.14773 0
M  V30 16836 C 1564.71 2.48998 3.59609 0
M  V30 16837 C 1563.77 2.24423 4.75942 0
M  V30 16838 O 1562.8 2.97813 4.85073 0
M  V30 16839 N 1564 1.26465 5.66557 0
M  V30 16840 H 1566.77 2.42311 1.76368 0
M  V30 16841 H 1564.33 1.38931 0.831247 0
M  V30 16842 H 1566.32 1.07016 3.90294 0
M  V30 16843 H 1564.89 0.369927 3.10403 0
M  V30 16844 H 1564.11 2.82951 2.74467 0
M  V30 16845 H 1565.4 3.31119 3.86313 0
M  V30 16846 H 1564.8 0.658206 5.61858 0
M  V30 16847 H 1563.35 1.13879 6.41775 0
M  V30 16848 N 1566.79 -0.886131 1.30328 0
M  V30 16849 C 1567.73 -1.99174 1.16612 0
M  V30 16850 C 1568.7 -1.66006 0.0559202 0
M  V30 16851 O 1569.89 -1.89458 0.225897 0
M  V30 16852 C 1567.03 -3.34142 0.862726 0
M  V30 16853 C 1566.14 -3.80008 2.05469 0
M  V30 16854 C 1565.28 -5.03617 1.68949 0
M  V30 16855 C 1564.32 -5.41888 2.84647 0
M  V30 16856 N 1563.45 -6.56678 2.48431 0
M  V30 16857 H 1568.29 -2.10238 2.11197 0
M  V30 16858 H 1565.83 -1.02941 1.05079 0
M  V30 16859 H 1567.79 -4.11826 0.667447 0
M  V30 16860 H 1566.42 -3.22767 -0.0462461 0
M  V30 16861 H 1565.47 -2.98243 2.36126 0
M  V30 16862 H 1566.78 -4.04312 2.92119 0
M  V30 16863 H 1565.94 -5.88923 1.45789 0
M  V30 16864 H 1564.67 -4.81182 0.794674 0
M  V30 16865 H 1563.68 -4.55109 3.08474 0
M  V30 16866 H 1564.9 -5.66296 3.74813 0
M  V30 16867 H 1562.85 -6.35821 1.61453 0
M  V30 16868 H 1562.77 -6.80846 3.28611 0
M  V30 16869 H 1564.04 -7.45219 2.28624 0
M  V30 16870 N 1568.26 -1.13026 -1.09832 0
M  V30 16871 C 1569.51 -0.884093 -1.81292 0
M  V30 16872 C 1569.83 0.591608 -1.86439 0
M  V30 16873 O 1571.03 0.954571 -2.54166 0
M  V30 16874 C 1569.49 -1.53207 -3.25662 0
M  V30 16875 C 1569.1 -3.043 -3.28794 0
M  V30 16876 C 1570.84 -1.36644 -4.01906 0
M  V30 16877 C 1568.75 -3.62003 -4.67662 0
M  V30 16878 H 1567.68 -0.327101 -0.679353 0
M  V30 16879 H 1570.33 -1.35748 -1.2347 0
M  V30 16880 H 1568.71 -0.986353 -3.83519 0
M  V30 16881 H 1569.88 -3.65418 -2.80725 0
M  V30 16882 H 1568.2 -3.20332 -2.66038 0
M  V30 16883 H 1570.8 -1.7717 -5.04495 0
M  V30 16884 H 1571.14 -0.310809 -4.15138 0
M  V30 16885 H 1571.67 -1.88172 -3.5048 0
M  V30 16886 H 1568.41 -4.67354 -4.59631 0
M  V30 16887 H 1567.93 -3.05663 -5.16072 0
M  V30 16888 H 1569.61 -3.61432 -5.36634 0
M  V30 16889 N 1569.74 1.27735 -0.923117 0
M  V30 16890 C 1570.99 1.94185 -0.56004 0
M  V30 16891 C 1571.31 1.72945 0.90084 0
M  V30 16892 O 1570.58 1.07453 1.63801 0
M  V30 16893 H 1569.16 0.718568 -0.204129 0
M  V30 16894 H 1571.82 1.55535 -1.17451 0
M  V30 16895 H 1570.92 3.02644 -0.762424 0
M  V30 16896 N 1571.22 0.688118 1.41784 0
M  V30 16897 C 1572.5 0.144304 1.95067 0
M  V30 16898 C 1572.88 -1.34399 1.62789 0
M  V30 16899 O 1572.23 -2.08675 0.930978 0
M  V30 16900 C 1572.44 0.427641 3.4637 0
M  V30 16901 C 1573.78 0.351345 4.23144 0
M  V30 16902 O 1574.81 0.362134 3.54354 0
M  V30 16903 O 1573.67 0.305018 5.45648 0
M  V30 16904 H 1570.76 0.01062 0.826932 0
M  V30 16905 H 1573.31 0.763766 1.51541 0
M  V30 16906 H 1572.08 1.4581 3.63119 0
M  V30 16907 H 1571.7 -0.223167 3.96973 0
M  V30 16908 N 1572.7 -1.51554 0.432352 0
M  V30 16909 C 1573.65 -2.27623 -0.381602 0
M  V30 16910 C 1574.62 -1.31003 -1.02114 0
M  V30 16911 O 1575.8 -1.59899 -1.041 0
M  V30 16912 C 1572.94 -3.11772 -1.47959 0
M  V30 16913 C 1572.05 -4.2338 -0.858682 0
M  V30 16914 C 1571.19 -4.94847 -1.93131 0
M  V30 16915 C 1570.23 -5.98383 -1.28856 0
M  V30 16916 N 1569.36 -6.63278 -2.30233 0
M  V30 16917 H 1574.2 -2.96743 0.273472 0
M  V30 16918 H 1571.74 -1.46367 0.146706 0
M  V30 16919 H 1573.7 -3.58882 -2.12742 0
M  V30 16920 H 1572.33 -2.44778 -2.10437 0
M  V30 16921 H 1571.38 -3.8027 -0.0992797 0
M  V30 16922 H 1572.69 -4.97575 -0.349381 0
M  V30 16923 H 1571.85 -5.4548 -2.65587 0
M  V30 16924 H 1570.59 -4.20272 -2.47432 0
M  V30 16925 H 1569.59 -5.47048 -0.549441 0
M  V30 16926 H 1570.82 -6.74913 -0.752941 0
M  V30 16927 H 1568.76 -5.91518 -2.83624 0
M  V30 16928 H 1568.68 -7.33221 -1.84181 0
M  V30 16929 H 1569.95 -7.18542 -3.02188 0
M  V30 16930 N 1574.18 -0.163538 -1.56749 0
M  V30 16931 C 1575.41 0.489178 -2.00725 0
M  V30 16932 C 1575.81 1.57869 -1.04279 0
M  V30 16933 O 1575.16 1.83668 -0.0344434 0
M  V30 16934 C 1575.22 1.13443 -3.41132 0
M  V30 16935 C 1574.88 0.187525 -4.56615 0
M  V30 16936 C 1575.88 -0.591169 -5.16528 0
M  V30 16937 C 1573.57 0.0856149 -5.02227 0
M  V30 16938 C 1575.56 -1.45905 -6.20476 0
M  V30 16939 C 1573.25 -0.785859 -6.06026 0
M  V30 16940 C 1574.24 -1.55678 -6.65021 0
M  V30 16941 O 1573.93 -2.41371 -7.66809 0
M  V30 16942 H 1573.66 0.130353 -0.663313 0
M  V30 16943 H 1576.22 -0.260065 -2.03747 0
M  V30 16944 H 1574.45 1.93165 -3.34999 0
M  V30 16945 H 1576.14 1.68856 -3.69111 0
M  V30 16946 H 1576.9 -0.522563 -4.82177 0
M  V30 16947 H 1572.78 0.675439 -4.56025 0
M  V30 16948 H 1576.33 -2.06125 -6.66452 0
M  V30 16949 H 1572.22 -0.855696 -6.39803 0
M  V30 16950 H 1572.99 -2.34801 -7.84099 0
M  V30 16951 N 1575.65 1.57214 0.110213 0
M  V30 16952 C 1576.9 1.84498 0.815059 0
M  V30 16953 C 1577.22 0.750531 1.80628 0
M  V30 16954 O 1578.42 0.910042 2.55794 0
M  V30 16955 C 1576.88 3.27138 1.50028 0
M  V30 16956 C 1576.49 4.44616 0.549603 0
M  V30 16957 C 1578.23 3.63662 2.18975 0
M  V30 16958 C 1576.14 5.78285 1.23855 0
M  V30 16959 H 1575.07 0.688165 0.308132 0
M  V30 16960 H 1577.72 1.83374 0.0678595 0
M  V30 16961 H 1576.1 3.22758 2.29441 0
M  V30 16962 H 1577.27 4.60312 -0.211944 0
M  V30 16963 H 1575.59 4.16387 -0.0333571 0
M  V30 16964 H 1578.19 4.60804 2.71226 0
M  V30 16965 H 1578.53 2.91532 2.97178 0
M  V30 16966 H 1579.06 3.69865 1.46439 0
M  V30 16967 H 1575.8 6.53608 0.497629 0
M  V30 16968 H 1575.32 5.66459 1.9719 0
M  V30 16969 H 1577 6.22338 1.76929 0
M  V30 16970 N 1577.13 -0.380637 1.52934 0
M  V30 16971 C 1578.36 -1.15033 1.72575 0
M  V30 16972 C 1578.78 -1.82715 0.446869 0
M  V30 16973 O 1578.14 -1.71154 -0.598004 0
M  V30 16974 C 1578.19 -2.16773 2.8817 0
M  V30 16975 O 1577.29 -3.23539 2.55727 0
M  V30 16976 H 1576.63 -0.334489 0.573597 0
M  V30 16977 H 1579.16 -0.442369 1.9976 0
M  V30 16978 H 1579.17 -2.60629 3.13905 0
M  V30 16979 H 1577.85 -1.669 3.80943 0
M  V30 16980 H 1576.43 -2.84761 2.4076 0
M  V30 16981 N 1578.61 -1.44039 -0.639573 0
M  V30 16982 C 1579.86 -1.46377 -1.39928 0
M  V30 16983 C 1580.19 -0.0931685 -1.94277 0
M  V30 16984 O 1579.44 0.903841 -1.73578 0
M  V30 16985 C 1579.74 -2.46459 -2.5883 0
M  V30 16986 C 1579.41 -3.91998 -2.2282 0
M  V30 16987 C 1578.07 -4.31633 -2.12712 0
M  V30 16988 C 1580.42 -4.83656 -1.94232 0
M  V30 16989 C 1577.75 -5.60863 -1.72191 0
M  V30 16990 C 1580.1 -6.13265 -1.55206 0
M  V30 16991 C 1578.76 -6.51863 -1.43633 0
M  V30 16992 H 1578.03 -0.535633 -0.512034 0
M  V30 16993 H 1580.68 -1.77202 -0.72607 0
M  V30 16994 H 1578.99 -2.09087 -3.31345 0
M  V30 16995 H 1580.68 -2.45518 -3.17052 0
M  V30 16996 H 1577.27 -3.60636 -2.31602 0
M  V30 16997 H 1581.46 -4.53796 -2.00955 0
M  V30 16998 H 1576.71 -5.89595 -1.61828 0
M  V30 16999 H 1580.89 -6.83752 -1.32121 0
M  V30 17000 H 1578.51 -7.51903 -1.12006 0
M  V30 17001 N 1580.09 0.879207 -1.30796 0
M  V30 17002 C 1581.05 1.96707 -1.17639 0
M  V30 17003 C 1582.05 1.6045 -0.106013 0
M  V30 17004 O 1583.24 1.70553 -0.354573 0
M  V30 17005 C 1580.37 3.31292 -0.803625 0
M  V30 17006 H 1581.57 2.09806 -2.14293 0
M  V30 17007 H 1579.12 1.06634 -1.14276 0
M  V30 17008 H 1579.85 3.23894 0.162159 0
M  V30 17009 H 1579.64 3.58979 -1.57723 0
M  V30 17010 H 1581.13 4.11077 -0.735201 0
M  V30 17011 N 1581.57 1.13606 1.09231 0
M  V30 17012 C 1582.98 0.87469 1.33497 0
M  V30 17013 C 1583.18 -0.488687 1.95484 0
M  V30 17014 O 1582.24 -1.23478 2.20249 0
M  V30 17015 C 1583.55 2.00086 2.24468 0
M  V30 17016 C 1585.1 2.03319 2.37972 0
M  V30 17017 C 1585.58 3.15205 3.3228 0
M  V30 17018 N 1587.07 3.14728 3.39854 0
M  V30 17019 C 1587.8 3.97941 4.12833 0
M  V30 17020 N 1587.3 4.91172 4.88591 0
M  V30 17021 N 1589.09 3.86032 4.08578 0
M  V30 17022 H 1581.24 2.01432 0.673709 0
M  V30 17023 H 1583.5 0.877259 0.359334 0
M  V30 17024 H 1583.21 2.98397 1.86151 0
M  V30 17025 H 1583.08 1.91673 3.24871 0
M  V30 17026 H 1585.47 1.0562 2.75551 0
M  V30 17027 H 1585.55 2.15804 1.3734 0
M  V30 17028 H 1585.2 4.13143 2.95423 0
M  V30 17029 H 1585.13 2.99957 4.3282 0
M  V30 17030 H 1587.62 2.47196 2.85837 0
M  V30 17031 H 1587.93 5.5115 5.41714 0
M  V30 17032 H 1586.28 4.95177 4.87673 0
M  V30 17033 H 1589.47 3.12522 3.48494 0
M  V30 17034 H 1589.64 4.51111 4.65191 0
M  V30 17035 N 1583.05 -1.27244 0.929878 0
M  V30 17036 C 1583.99 -2.26773 0.429287 0
M  V30 17037 C 1584.96 -1.58238 -0.50498 0
M  V30 17038 O 1586.15 -1.86037 -0.423661 0
M  V30 17039 C 1583.29 -3.43706 -0.309865 0
M  V30 17040 C 1582.4 -4.26948 0.658764 0
M  V30 17041 C 1581.54 -5.31105 -0.10045 0
M  V30 17042 C 1580.57 -6.06018 0.860743 0
M  V30 17043 N 1579.71 -7.01972 0.134015 0
M  V30 17044 H 1584.55 -2.68967 1.283 0
M  V30 17045 H 1582.09 -1.32257 0.643923 0
M  V30 17046 H 1584.05 -4.10316 -0.754754 0
M  V30 17047 H 1582.68 -3.02457 -1.1278 0
M  V30 17048 H 1581.73 -3.60232 1.22218 0
M  V30 17049 H 1583.04 -4.78946 1.39326 0
M  V30 17050 H 1582.19 -6.03674 -0.605153 0
M  V30 17051 H 1580.93 -4.79915 -0.867902 0
M  V30 17052 H 1579.94 -5.32285 1.37668 0
M  V30 17053 H 1581.16 -6.59297 1.62801 0
M  V30 17054 H 1579.11 -6.53109 -0.615152 0
M  V30 17055 H 1579.03 -7.51669 0.808045 0
M  V30 17056 H 1580.29 -7.78714 -0.349964 0
M  V30 17057 N 1584.52 -0.695628 -1.41417 0
M  V30 17058 C 1585.77 -0.235709 -2.0203 0
M  V30 17059 C 1586.12 1.15186 -1.5411 0
M  V30 17060 O 1585.42 1.76628 -0.742491 0
M  V30 17061 C 1585.61 -0.232664 -3.56642 0
M  V30 17062 C 1585.44 -1.61841 -4.19569 0
M  V30 17063 C 1584.21 -2.22126 -4.53859 0
M  V30 17064 C 1586.41 -2.56502 -4.4577 0
M  V30 17065 N 1584.39 -3.53264 -5.02073 0
M  V30 17066 C 1585.76 -3.72319 -4.9576 0
M  V30 17067 C 1587.82 -2.54768 -4.27782 0
M  V30 17068 C 1586.52 -4.86684 -5.29652 0
M  V30 17069 C 1588.55 -3.68245 -4.62763 0
M  V30 17070 C 1587.91 -4.82792 -5.12924 0
M  V30 17071 H 1584.01 -0.131642 -0.77084 0
M  V30 17072 H 1586.59 -0.913121 -1.7196 0
M  V30 17073 H 1584.76 0.414235 -3.86185 0
M  V30 17074 H 1586.49 0.242088 -4.03975 0
M  V30 17075 H 1583.25 -1.74412 -4.40315 0
M  V30 17076 H 1583.67 -4.20485 -5.30586 0
M  V30 17077 H 1588.31 -1.67424 -3.88238 0
M  V30 17078 H 1586.03 -5.74687 -5.6812 0
M  V30 17079 H 1589.62 -3.68155 -4.50504 0
M  V30 17080 H 1588.5 -5.69145 -5.39485 0
M  V30 17081 N 1586 1.51322 -0.440383 0
M  V30 17082 C 1586.93 2.24398 0.414827 0
M  V30 17083 C 1587.91 1.26454 1.02216 0
M  V30 17084 O 1589.1 1.55597 1.06404 0
M  V30 17085 C 1586.22 2.99671 1.57844 0
M  V30 17086 C 1585.27 4.12297 1.0915 0
M  V30 17087 S 1586.1 5.35491 0.0310506 0
M  V30 17088 C 1587.26 6.14303 1.19926 0
M  V30 17089 H 1587.49 2.96588 -0.205572 0
M  V30 17090 H 1585.02 1.52753 -0.224932 0
M  V30 17091 H 1586.98 3.43638 2.24551 0
M  V30 17092 H 1585.64 2.27065 2.17027 0
M  V30 17093 H 1584.84 4.64254 1.96173 0
M  V30 17094 H 1584.44 3.70607 0.502621 0
M  V30 17095 H 1586.73 6.43575 2.11703 0
M  V30 17096 H 1587.67 7.04434 0.719591 0
M  V30 17097 H 1588.08 5.45845 1.43921 0
M  V30 17098 N 1587.48 0.171848 1.5666 0
M  V30 17099 C 1588.43 -0.775125 2.19305 0
M  V30 17100 C 1589.42 -1.23711 1.15724 0
M  V30 17101 O 1590.63 -1.2027 1.33922 0
M  V30 17102 H 1587 -0.268245 0.70253 0
M  V30 17103 H 1588.97 -0.222823 2.97567 0
M  V30 17104 C 1587.72 -1.99397 2.84844 0
M  V30 17105 H 1587.05 -1.64752 3.64276 0
M  V30 17106 H 1588.49 -2.63545 3.32145 0
M  V30 17107 C 1586.94 -2.81794 1.84645 0
M  V30 17108 O 1587.47 -3.78964 1.33225 0
M  V30 17109 N 1585.68 -2.4682 1.5339 0
M  V30 17110 H 1585.23 -1.67862 1.95397 0
M  V30 17111 H 1585.19 -3.02238 0.866004 0
M  V30 17112 N 1588.96 -1.5727 -0.101874 0
M  V30 17113 C 1590.19 -1.89667 -0.81914 0
M  V30 17114 C 1590.6 -0.763027 -1.73132 0
M  V30 17115 O 1589.94 0.274317 -1.8164 0
M  V30 17116 C 1590 -3.17252 -1.6909 0
M  V30 17117 C 1589.66 -4.4699 -0.951257 0
M  V30 17118 C 1590.66 -5.19123 -0.28417 0
M  V30 17119 C 1588.35 -4.93665 -0.927349 0
M  V30 17120 C 1590.34 -6.36163 0.396934 0
M  V30 17121 C 1588.03 -6.10619 -0.242456 0
M  V30 17122 C 1589.03 -6.81717 0.418514 0
M  V30 17123 O 1588.71 -7.96443 1.09244 0
M  V30 17124 H 1588.45 -0.632024 -0.239836 0
M  V30 17125 H 1591 -2.05222 -0.0855979 0
M  V30 17126 H 1589.23 -2.97825 -2.46651 0
M  V30 17127 H 1590.92 -3.35533 -2.28413 0
M  V30 17128 H 1591.68 -4.84107 -0.294146 0
M  V30 17129 H 1587.56 -4.38219 -1.43126 0
M  V30 17130 H 1591.11 -6.91594 0.913417 0
M  V30 17131 H 1587 -6.45089 -0.230303 0
M  V30 17132 H 1587.77 -8.12385 0.998647 0
M  V30 17133 N 1590.44 0.372521 -1.53134 0
M  V30 17134 C 1591.68 1.11754 -1.6923 0
M  V30 17135 C 1592.01 1.89167 -0.439265 0
M  V30 17136 O 1591.29 1.86164 0.563317 0
M  V30 17137 C 1591.57 2.08242 -2.93781 0
M  V30 17138 C 1591.43 1.34484 -4.29225 0
M  V30 17139 C 1592.74 3.08457 -3.13914 0
M  V30 17140 H 1589.86 0.404898 -0.615814 0
M  V30 17141 H 1592.51 0.399101 -1.85761 0
M  V30 17142 H 1590.66 2.69507 -2.79818 0
M  V30 17143 H 1592.33 0.76056 -4.54987 0
M  V30 17144 H 1590.57 0.646673 -4.28953 0
M  V30 17145 H 1591.24 2.05071 -5.12494 0
M  V30 17146 H 1593.72 2.57292 -3.27017 0
M  V30 17147 H 1592.59 3.73198 -4.0251 0
M  V30 17148 H 1592.85 3.78243 -2.28878 0
M  V30 17149 N 1591.91 1.44376 0.631925 0
M  V30 17150 C 1592.84 1.54005 1.75512 0
M  V30 17151 C 1593.82 0.393126 1.65495 0
M  V30 17152 O 1595.01 0.613143 1.84267 0
M  V30 17153 C 1592.14 1.48313 3.14039 0
M  V30 17154 C 1591.09 2.61474 3.38844 0
M  V30 17155 C 1590.42 2.40834 4.77392 0
M  V30 17156 C 1591.72 4.03627 3.31485 0
M  V30 17157 H 1593.41 2.48019 1.6771 0
M  V30 17158 H 1590.96 1.19368 0.80543 0
M  V30 17159 H 1592.91 1.5365 3.9239 0
M  V30 17160 H 1591.64 0.508152 3.22623 0
M  V30 17161 H 1590.3 2.55525 2.62874 0
M  V30 17162 H 1589.94 1.4153 4.82678 0
M  V30 17163 H 1589.64 3.16703 4.94947 0
M  V30 17164 H 1591.17 2.47988 5.57974 0
M  V30 17165 H 1592.58 4.1095 3.99741 0
M  V30 17166 H 1590.98 4.79694 3.60574 0
M  V30 17167 H 1592.05 4.27255 2.29307 0
M  V30 17168 N 1593.39 -0.872258 1.31261 0
M  V30 17169 C 1594.62 -1.65795 1.23772 0
M  V30 17170 C 1595.03 -1.87766 -0.197351 0
M  V30 17171 O 1594.39 -1.43418 -1.1286 0
M  V30 17172 C 1594.44 -3.02722 1.9759 0
M  V30 17173 O 1594.16 -2.81734 3.35496 0
M  V30 17174 C 1595.66 -3.97165 1.96913 0
M  V30 17175 H 1592.88 -0.516959 0.427778 0
M  V30 17176 H 1595.43 -1.0889 1.73099 0
M  V30 17177 H 1593.58 -3.56322 1.5203 0
M  V30 17178 H 1594 -3.6869 3.73052 0
M  V30 17179 H 1595.47 -4.90566 2.53079 0
M  V30 17180 H 1595.95 -4.28778 0.951089 0
M  V30 17181 H 1596.55 -3.495 2.42342 0
M  V30 17182 N 1594.87 -1.14184 -1.08627 0
M  V30 17183 C 1595.82 -0.826718 -2.15486 0
M  V30 17184 C 1596.79 0.214769 -1.64706 0
M  V30 17185 O 1597.97 0.0851909 -1.9061 0
M  V30 17186 C 1595.11 -0.307888 -3.43724 0
M  V30 17187 C 1594.22 -1.40941 -4.08362 0
M  V30 17188 C 1593.36 -0.848059 -5.24387 0
M  V30 17189 C 1592.4 -1.92741 -5.80962 0
M  V30 17190 N 1591.54 -1.3834 -6.88336 0
M  V30 17191 H 1596.38 -1.74198 -2.41783 0
M  V30 17192 H 1593.91 -0.869406 -1.18658 0
M  V30 17193 H 1595.87 0.0111149 -4.17199 0
M  V30 17194 H 1594.5 0.570488 -3.17719 0
M  V30 17195 H 1593.55 -1.84485 -3.3267 0
M  V30 17196 H 1594.86 -2.22485 -4.46433 0
M  V30 17197 H 1594.02 -0.480826 -6.04792 0
M  V30 17198 H 1592.76 -0.00163783 -4.877 0
M  V30 17199 H 1591.76 -2.30362 -4.99213 0
M  V30 17200 H 1592.99 -2.77738 -6.19708 0
M  V30 17201 H 1590.93 -0.559124 -6.53613 0
M  V30 17202 H 1590.85 -2.13524 -7.2522 0
M  V30 17203 H 1592.12 -1.044 -7.72477 0
M  V30 17204 N 1596.35 1.26749 -0.936613 0
M  V30 17205 C 1597.59 1.95725 -0.58917 0
M  V30 17206 C 1597.95 1.71905 0.855145 0
M  V30 17207 O 1599.15 2.34645 1.3113 0
M  V30 17208 C 1597.42 3.45444 -0.916706 0
M  V30 17209 S 1598.98 4.33513 -0.67912 0
M  V30 17210 H 1595.8 0.677024 -0.217162 0
M  V30 17211 H 1598.4 1.53795 -1.20695 0
M  V30 17212 H 1597.11 3.60279 -1.96537 0
M  V30 17213 H 1596.64 3.92341 -0.288466 0
M  V30 17214 H 1598.65 4.94074 0.458864 0
M  V30 17215 N 1597.83 0.703118 1.41046 0
M  V30 17216 C 1598.74 0.0432777 2.3456 0
M  V30 17217 C 1599.75 -0.757704 1.56636 0
M  V30 17218 O 1600.93 -0.693531 1.89082 0
M  V30 17219 C 1597.99 -0.876385 3.35441 0
M  V30 17220 C 1597.05 -0.06676 4.29248 0
M  V30 17221 C 1596.29 -0.942622 5.2531 0
M  V30 17222 O 1596.51 -2.18205 5.27013 0
M  V30 17223 O 1595.44 -0.388266 6.00646 0
M  V30 17224 H 1599.27 0.814302 2.9258 0
M  V30 17225 H 1596.86 0.463503 1.42028 0
M  V30 17226 H 1598.74 -1.40353 3.9734 0
M  V30 17227 H 1597.41 -1.62677 2.79853 0
M  V30 17228 H 1596.32 0.505165 3.70674 0
M  V30 17229 H 1597.65 0.645128 4.87954 0
M  V30 17230 N 1599.3 -1.51086 0.448402 0
M  V30 17231 C 1600.53 -2.07081 -0.115038 0
M  V30 17232 C 1600.95 -1.31253 -1.34737 0
M  V30 17233 O 1600.31 -0.353613 -1.77818 0
M  V30 17234 C 1600.36 -3.58321 -0.404803 0
M  V30 17235 O 1599.46 -3.84567 -1.48936 0
M  V30 17236 H 1598.81 -0.663993 0.00299118 0
M  V30 17237 H 1601.34 -1.94564 0.632921 0
M  V30 17238 H 1601.35 -4.02756 -0.652013 0
M  V30 17239 H 1600.02 -4.12934 0.495838 0
M  V30 17240 H 1598.6 -3.51987 -1.23124 0
M  V30 17241 N 1600.78 -0.180154 -1.56567 0
M  V30 17242 C 1602.03 0.461606 -1.96758 0
M  V30 17243 C 1602.35 1.63179 -1.0676 0
M  V30 17244 O 1601.62 1.95429 -0.135762 0
M  V30 17245 H 1600.2 0.173526 -0.726566 0
M  V30 17246 H 1602.86 -0.2634 -1.93112 0
M  V30 17247 H 1601.96 0.815729 -3.01251 0
M  V30 17248 N 1602.26 1.57322 0.0935319 0
M  V30 17249 C 1603.68 1.5319 0.447781 0
M  V30 17250 C 1603.88 0.897107 1.80428 0
M  V30 17251 O 1602.93 0.490285 2.47694 0
M  V30 17252 C 1604.25 2.97908 0.408832 0
M  V30 17253 C 1605.79 3.09132 0.490576 0
M  V30 17254 C 1606.27 4.55459 0.481759 0
M  V30 17255 N 1607.76 4.60013 0.542468 0
M  V30 17256 C 1608.49 5.70683 0.557509 0
M  V30 17257 N 1607.99 6.9078 0.528664 0
M  V30 17258 N 1609.78 5.58862 0.602438 0
M  V30 17259 H 1601.93 1.96962 -0.794965 0
M  V30 17260 H 1604.2 0.900583 -0.296064 0
M  V30 17261 H 1603.9 3.47823 -0.520766 0
M  V30 17262 H 1603.78 3.56678 1.22722 0
M  V30 17263 H 1606.16 2.59203 1.41059 0
M  V30 17264 H 1606.25 2.53311 -0.355982 0
M  V30 17265 H 1605.89 5.0604 -0.43432 0
M  V30 17266 H 1605.82 5.09119 1.34555 0
M  V30 17267 H 1608.31 3.73578 0.569892 0
M  V30 17268 H 1608.62 7.70887 0.543467 0
M  V30 17269 H 1606.97 6.9323 0.495687 0
M  V30 17270 H 1610.16 4.63942 0.622514 0
M  V30 17271 H 1610.33 6.45116 0.610691 0
M  V30 17272 N 1603.74 -0.364395 1.53329 0
M  V30 17273 C 1604.99 -1.10473 1.69234 0
M  V30 17274 C 1605.31 -1.89799 0.447347 0
M  V30 17275 O 1604.58 -1.8835 -0.538612 0
M  V30 17276 H 1603.16 -0.410826 0.623884 0
M  V30 17277 H 1605.82 -0.410721 1.90523 0
M  V30 17278 H 1604.92 -1.79387 2.55396 0
M  V30 17279 N 1605.22 -1.44709 -0.62426 0
M  V30 17280 C 1606.44 -1.51348 -1.41072 0
M  V30 17281 C 1606.86 -0.140576 -1.88276 0
M  V30 17282 O 1606.22 0.854821 -1.61242 0
M  V30 17283 C 1606.27 -2.48396 -2.62643 0
M  V30 17284 O 1605.99 -3.8035 -2.17406 0
M  V30 17285 C 1607.49 -2.64568 -3.55694 0
M  V30 17286 H 1604.71 -0.513092 -0.432409 0
M  V30 17287 H 1607.25 -1.89739 -0.762841 0
M  V30 17288 H 1605.41 -2.13122 -3.23508 0
M  V30 17289 H 1605.82 -4.32809 -2.96272 0
M  V30 17290 H 1607.3 -3.36486 -4.37585 0
M  V30 17291 H 1607.77 -1.70031 -4.04952 0
M  V30 17292 H 1608.38 -3.00771 -3.00694 0
M  V30 17293 N 1606.69 0.865285 -1.31722 0
M  V30 17294 C 1608.11 1.15179 -1.10481 0
M  V30 17295 C 1608.31 2.01132 0.121667 0
M  V30 17296 O 1607.37 2.39167 0.809645 0
M  V30 17297 C 1608.68 1.8394 -2.3788 0
M  V30 17298 C 1610.23 1.96621 -2.43535 0
M  V30 17299 C 1610.7 2.68796 -3.70827 0
M  V30 17300 N 1612.19 2.76329 -3.71748 0
M  V30 17301 C 1612.93 3.32798 -4.6694 0
M  V30 17302 N 1612.42 3.90162 -5.7249 0
M  V30 17303 N 1614.22 3.30801 -4.54453 0
M  V30 17304 H 1606.37 0.292632 -2.10374 0
M  V30 17305 H 1608.63 0.192252 -0.928301 0
M  V30 17306 H 1608.34 1.28233 -3.27489 0
M  V30 17307 H 1608.21 2.84182 -2.48034 0
M  V30 17308 H 1610.6 2.5149 -1.54392 0
M  V30 17309 H 1610.68 0.954071 -2.37342 0
M  V30 17310 H 1610.32 2.14593 -4.60339 0
M  V30 17311 H 1610.25 3.70427 -3.74288 0
M  V30 17312 H 1612.74 2.35621 -2.95451 0
M  V30 17313 H 1613.06 4.31376 -6.41198 0
M  V30 17314 H 1611.4 3.88525 -5.76258 0
M  V30 17315 H 1614.59 2.85227 -3.71165 0
M  V30 17316 H 1614.77 3.74511 -5.28815 0
M  V30 17317 N 1608.17 1.14759 1.0802 0
M  V30 17318 C 1609.58 0.928711 1.61963 0
M  V30 17319 C 1609.93 -0.531568 1.88862 0
M  V30 17320 O 1609.06 -1.40129 1.64902 0
M  V30 17321 C 1609.65 1.67943 2.94246 0
M  V30 17322 C 1608.21 1.50602 3.44958 0
M  V30 17323 C 1607.36 1.69938 2.19126 0
M  V30 17324 H 1610.31 1.29882 0.911945 0
M  V30 17325 H 1610.33 1.14493 3.62866 0
M  V30 17326 H 1609.84 2.7422 2.74636 0
M  V30 17327 H 1607.95 0.466901 3.69663 0
M  V30 17328 H 1608.06 2.27857 4.21447 0
M  V30 17329 H 1606.42 1.12534 2.28491 0
M  V30 17330 H 1607.21 2.77566 2.0202 0
M  V30 17331 N 1609.65 -1.26251 0.943322 0
M  V30 17332 C 1611.07 -1.45943 0.645966 0
M  V30 17333 C 1611.27 -1.84936 -0.800064 0
M  V30 17334 O 1610.32 -1.97238 -1.57649 0
M  V30 17335 C 1611.64 -2.54017 1.60922 0
M  V30 17336 C 1613.18 -2.67866 1.61916 0
M  V30 17337 C 1613.66 -3.79113 2.56977 0
M  V30 17338 N 1615.15 -3.86509 2.55275 0
M  V30 17339 C 1615.88 -4.72048 3.25513 0
M  V30 17340 N 1615.38 -5.61959 4.05184 0
M  V30 17341 N 1617.17 -4.65913 3.14454 0
M  V30 17342 H 1609.32 -0.992295 1.87796 0
M  V30 17343 H 1611.59 -0.497204 0.80715 0
M  V30 17344 H 1611.29 -2.32197 2.64155 0
M  V30 17345 H 1611.17 -3.51715 1.36294 0
M  V30 17346 H 1613.55 -2.89059 0.594067 0
M  V30 17347 H 1613.64 -1.70604 1.90598 0
M  V30 17348 H 1613.28 -3.58673 3.59605 0
M  V30 17349 H 1613.21 -4.75836 2.25583 0
M  V30 17350 H 1615.7 -3.22229 1.97425 0
M  V30 17351 H 1616.01 -6.24127 4.55725 0
M  V30 17352 H 1614.36 -5.61704 4.09285 0
M  V30 17353 H 1617.55 -3.94675 2.51693 0
M  V30 17354 H 1617.72 -5.32356 3.69461 0
M  V30 17355 N 1611.13 -0.710588 -1.40671 0
M  V30 17356 C 1612.38 -0.257123 -2.01768 0
M  V30 17357 C 1612.73 1.13545 -1.55323 0
M  V30 17358 O 1612.02 1.75831 -0.761183 0
M  V30 17359 C 1612.22 -0.270478 -3.56375 0
M  V30 17360 C 1612.05 -1.66282 -4.17828 0
M  V30 17361 C 1610.82 -2.26928 -4.51478 0
M  V30 17362 C 1613.01 -2.61216 -4.43025 0
M  V30 17363 N 1611 -3.58569 -4.98298 0
M  V30 17364 C 1612.37 -3.77557 -4.91783 0
M  V30 17365 C 1614.42 -2.59291 -4.25056 0
M  V30 17366 C 1613.13 -4.92274 -5.24461 0
M  V30 17367 C 1615.15 -3.73132 -4.58831 0
M  V30 17368 C 1614.51 -4.88205 -5.07775 0
M  V30 17369 H 1610.61 -0.13981 -0.7694 0
M  V30 17370 H 1613.2 -0.931308 -1.70982 0
M  V30 17371 H 1611.37 0.373251 -3.86602 0
M  V30 17372 H 1613.1 0.199227 -4.04209 0
M  V30 17373 H 1609.85 -1.79072 -4.38441 0
M  V30 17374 H 1610.28 -4.26088 -5.26097 0
M  V30 17375 H 1614.92 -1.71533 -3.86441 0
M  V30 17376 H 1612.64 -5.80681 -5.61992 0
M  V30 17377 H 1616.22 -3.72912 -4.46573 0
M  V30 17378 H 1615.1 -5.74835 -5.33418 0
M  V30 17379 N 1612.61 1.50847 -0.456408 0
M  V30 17380 C 1613.57 2.26755 0.33388 0
M  V30 17381 C 1614.57 1.30947 0.933247 0
M  V30 17382 O 1615.76 1.54499 0.804716 0
M  V30 17383 C 1612.89 3.07378 1.47417 0
M  V30 17384 H 1614.09 2.98061 -0.331634 0
M  V30 17385 H 1611.64 1.54882 -0.210067 0
M  V30 17386 H 1612.37 2.40534 2.17518 0
M  V30 17387 H 1612.16 3.7777 1.05036 0
M  V30 17388 H 1613.65 3.64826 2.03204 0
M  V30 17389 N 1614.09 0.188454 1.56469 0
M  V30 17390 C 1615.31 -0.457846 2.01771 0
M  V30 17391 C 1615.73 -1.55646 1.06863 0
M  V30 17392 O 1615.09 -1.82356 0.0723619 0
M  V30 17393 C 1615.14 -1.02032 3.46802 0
M  V30 17394 O 1614.86 0.0344536 4.38086 0
M  V30 17395 C 1616.36 -1.74316 4.07589 0
M  V30 17396 H 1613.58 -0.115594 0.660968 0
M  V30 17397 H 1616.12 0.295213 2.02358 0
M  V30 17398 H 1614.28 -1.7238 3.46935 0
M  V30 17399 H 1614.69 -0.383254 5.23098 0
M  V30 17400 H 1616.17 -2.08912 5.1094 0
M  V30 17401 H 1616.64 -2.64445 3.50665 0
M  V30 17402 H 1617.25 -1.0857 4.11209 0
M  V30 17403 N 1615.56 -1.5737 -0.0851874 0
M  V30 17404 C 1616.5 -1.99462 -1.12905 0
M  V30 17405 C 1617.51 -0.898597 -1.35754 0
M  V30 17406 O 1618.7 -1.17662 -1.34231 0
M  V30 17407 C 1615.8 -2.30689 -2.48266 0
M  V30 17408 C 1614.97 -3.61967 -2.45557 0
M  V30 17409 C 1614.03 -3.81017 -3.62922 0
M  V30 17410 O 1613.06 -4.52759 -3.44961 0
M  V30 17411 N 1614.26 -3.22348 -4.82775 0
M  V30 17412 H 1617.02 -2.89621 -0.7707 0
M  V30 17413 H 1614.58 -1.59564 -0.274033 0
M  V30 17414 H 1616.58 -2.40618 -3.254 0
M  V30 17415 H 1615.15 -1.46488 -2.76152 0
M  V30 17416 H 1614.37 -3.62916 -1.539 0
M  V30 17417 H 1615.65 -4.48191 -2.40836 0
M  V30 17418 H 1615.05 -2.64093 -5.00271 0
M  V30 17419 H 1613.61 -3.37747 -5.57468 0
M  V30 17420 N 1617.04 0.356258 -1.53521 0
M  V30 17421 C 1618.29 1.09573 -1.69818 0
M  V30 17422 C 1618.61 1.89559 -0.457406 0
M  V30 17423 O 1617.88 1.88633 0.528616 0
M  V30 17424 H 1616.46 0.407512 -0.626054 0
M  V30 17425 H 1619.12 0.400612 -1.90738 0
M  V30 17426 H 1618.22 1.7803 -2.56343 0
M  V30 17427 N 1618.52 1.45038 0.616577 0
M  V30 17428 C 1619.77 1.48585 1.37582 0
M  V30 17429 C 1620.09 0.124065 1.94104 0
M  V30 17430 O 1619.35 -0.876112 1.74994 0
M  V30 17431 C 1619.65 2.50545 2.54876 0
M  V30 17432 C 1619.31 3.95493 2.16555 0
M  V30 17433 C 1617.98 4.34963 2.05818 0
M  V30 17434 C 1620.33 4.86685 1.86512 0
M  V30 17435 C 1617.66 5.63531 1.63246 0
M  V30 17436 C 1620.01 6.15657 1.4543 0
M  V30 17437 C 1618.67 6.54066 1.33244 0
M  V30 17438 H 1617.94 0.543711 0.503447 0
M  V30 17439 H 1620.59 1.78334 0.697787 0
M  V30 17440 H 1618.89 2.14332 3.27977 0
M  V30 17441 H 1620.59 2.50531 3.13106 0
M  V30 17442 H 1617.18 3.64275 2.25836 0
M  V30 17443 H 1621.37 4.56936 1.9371 0
M  V30 17444 H 1616.62 5.92094 1.52427 0
M  V30 17445 H 1620.8 6.85768 1.21226 0
M  V30 17446 H 1618.42 7.5359 1.0003 0
M  V30 17447 N 1620 -0.858287 1.32179 0
M  V30 17448 C 1621.27 -1.59548 1.13154 0
M  V30 17449 C 1621.65 -2.0882 -0.309439 0
M  V30 17450 O 1621 -1.87536 -1.30547 0
M  V30 17451 C 1621.21 -2.74443 2.15597 0
M  V30 17452 C 1622.56 -3.44115 2.48737 0
M  V30 17453 O 1623.58 -2.84664 2.14114 0
M  V30 17454 O 1622.44 -4.51389 3.08074 0
M  V30 17455 H 1619.54 -0.702481 0.436405 0
M  V30 17456 H 1622.08 -0.902731 1.43697 0
M  V30 17457 H 1620.86 -2.35533 3.12473 0
M  V30 17458 H 1620.48 -3.51397 1.86028 0
M  V30 17459 N 1621.48 -1.1533 -1.07409 0
M  V30 17460 C 1622.72 -0.927807 -1.79994 0
M  V30 17461 C 1623.05 0.545092 -1.86706 0
M  V30 17462 O 1622.31 1.4202 -1.34643 0
M  V30 17463 C 1622.6 -1.48646 -3.25022 0
M  V30 17464 C 1622.27 -2.97974 -3.38411 0
M  V30 17465 C 1620.93 -3.3874 -3.41773 0
M  V30 17466 C 1623.28 -3.93946 -3.41257 0
M  V30 17467 C 1620.61 -4.7412 -3.45582 0
M  V30 17468 C 1622.96 -5.29197 -3.46603 0
M  V30 17469 C 1621.63 -5.6946 -3.48241 0
M  V30 17470 H 1620.9 -0.339509 -0.658646 0
M  V30 17471 H 1623.55 -1.43863 -1.26395 0
M  V30 17472 H 1621.85 -0.89681 -3.81398 0
M  V30 17473 H 1623.55 -1.28781 -3.79759 0
M  V30 17474 H 1620.14 -2.65463 -3.36493 0
M  V30 17475 H 1624.32 -3.63525 -3.37881 0
M  V30 17476 H 1619.58 -5.04661 -3.45149 0
M  V30 17477 H 1623.75 -6.03359 -3.47751 0
M  V30 17478 H 1621.38 -6.74345 -3.50946 0
M  V30 17479 N 1622.95 1.25748 -0.950004 0
M  V30 17480 C 1623.88 2.28419 -0.484467 0
M  V30 17481 C 1624.86 1.63569 0.466813 0
M  V30 17482 O 1626.05 1.90705 0.366766 0
M  V30 17483 C 1623.18 3.46449 0.242916 0
M  V30 17484 C 1622.13 4.23447 -0.622657 0
M  V30 17485 C 1621.46 5.34182 0.235199 0
M  V30 17486 C 1622.76 4.86576 -1.89845 0
M  V30 17487 H 1624.45 2.6761 -1.34257 0
M  V30 17488 H 1622 1.28646 -0.647014 0
M  V30 17489 H 1623.95 4.17394 0.579693 0
M  V30 17490 H 1622.68 3.06235 1.13523 0
M  V30 17491 H 1621.34 3.54279 -0.942453 0
M  V30 17492 H 1620.98 4.90209 1.12713 0
M  V30 17493 H 1620.68 5.86612 -0.340609 0
M  V30 17494 H 1622.21 6.07961 0.567048 0
M  V30 17495 H 1623.62 5.49688 -1.62837 0
M  V30 17496 H 1622.02 5.49162 -2.41954 0
M  V30 17497 H 1623.09 4.09021 -2.60441 0
M  V30 17498 N 1624.43 0.718038 1.40292 0
M  V30 17499 C 1625.36 0.0276294 2.29183 0
M  V30 17500 C 1626.38 -0.721208 1.45954 0
M  V30 17501 O 1627.57 -0.568181 1.69216 0
M  V30 17502 C 1624.67 -0.985139 3.24266 0
M  V30 17503 C 1623.84 -0.301327 4.36361 0
M  V30 17504 C 1622.9 -1.21982 5.11866 0
M  V30 17505 O 1621.92 -0.70369 5.64833 0
M  V30 17506 N 1623.13 -2.55079 5.21455 0
M  V30 17507 H 1625.89 0.790884 2.89076 0
M  V30 17508 H 1623.45 0.565867 1.51689 0
M  V30 17509 H 1625.44 -1.60183 3.7165 0
M  V30 17510 H 1624.01 -1.64973 2.65523 0
M  V30 17511 H 1623.23 0.495594 3.91072 0
M  V30 17512 H 1624.52 0.173238 5.08505 0
M  V30 17513 H 1623.92 -2.99506 4.79909 0
M  V30 17514 H 1622.48 -3.11886 5.72338 0
M  V30 17515 N 1625.91 -1.50602 0.464402 0
M  V30 17516 C 1626.87 -2.26929 -0.32185 0
M  V30 17517 C 1627.87 -1.3144 -0.926289 0
M  V30 17518 O 1629.06 -1.54924 -0.796511 0
M  V30 17519 C 1626.2 -3.08155 -1.45785 0
M  V30 17520 H 1627.39 -2.97881 0.347436 0
M  V30 17521 H 1624.94 -1.54768 0.218278 0
M  V30 17522 H 1625.68 -2.41684 -2.16239 0
M  V30 17523 H 1625.46 -3.78321 -1.03031 0
M  V30 17524 H 1626.95 -3.65899 -2.01266 0
M  V30 17525 N 1627.39 -0.19675 -1.56367 0
M  V30 17526 C 1628.64 0.441807 -1.96802 0
M  V30 17527 C 1628.95 1.62645 -1.08656 0
M  V30 17528 O 1630.16 2.33291 -1.3888 0
M  V30 17529 C 1628.61 0.837415 -3.50022 0
M  V30 17530 C 1628.22 -0.323031 -4.46834 0
M  V30 17531 C 1629.96 1.44296 -3.99223 0
M  V30 17532 C 1627.87 0.0936285 -5.91326 0
M  V30 17533 H 1626.8 0.168834 -0.734854 0
M  V30 17534 H 1629.45 -0.289029 -1.81209 0
M  V30 17535 H 1627.83 1.62497 -3.61124 0
M  V30 17536 H 1629.01 -1.10056 -4.47464 0
M  V30 17537 H 1627.32 -0.840182 -4.07836 0
M  V30 17538 H 1629.92 1.76718 -5.04653 0
M  V30 17539 H 1630.26 2.35003 -3.43627 0
M  V30 17540 H 1630.8 0.71935 -3.91242 0
M  V30 17541 H 1627.54 -0.779297 -6.50851 0
M  V30 17542 H 1627.06 0.835984 -5.93946 0
M  V30 17543 H 1628.73 0.528864 -6.44835 0
M  V30 17544 N 1628.87 1.57413 0.0768405 0
M  V30 17545 C 1629.78 2.06688 1.10983 0
M  V30 17546 C 1630.79 0.995392 1.42716 0
M  V30 17547 O 1631.97 1.30977 1.52994 0
M  V30 17548 C 1629.03 2.49676 2.40546 0
M  V30 17549 C 1628.09 3.71101 2.1583 0
M  V30 17550 C 1627.33 4.1203 3.39216 0
M  V30 17551 O 1627.55 3.52877 4.48145 0
M  V30 17552 O 1626.48 5.04856 3.27726 0
M  V30 17553 H 1630.31 2.95012 0.721242 0
M  V30 17554 H 1627.9 1.46546 0.290624 0
M  V30 17555 H 1629.78 2.77871 3.16805 0
M  V30 17556 H 1628.45 1.64484 2.78795 0
M  V30 17557 H 1627.36 3.47996 1.37293 0
M  V30 17558 H 1628.69 4.5713 1.82465 0
M  V30 17559 N 1630.34 -0.348112 1.53707 0
M  V30 17560 C 1631.76 -0.923978 1.62233 0
M  V30 17561 C 1632.11 -1.89702 0.500744 0
M  V30 17562 O 1631.23 -2.1321 -0.370212 0
M  V30 17563 C 1631.83 -1.68261 2.94064 0
M  V30 17564 C 1630.39 -2.20755 3.04867 0
M  V30 17565 C 1629.53 -1.02526 2.5765 0
M  V30 17566 H 1632.48 -0.126381 1.58196 0
M  V30 17567 H 1632.5 -2.54514 2.82848 0
M  V30 17568 H 1632.02 -0.974155 3.75675 0
M  V30 17569 H 1630.12 -2.9479 2.27881 0
M  V30 17570 H 1630.23 -2.47439 4.10257 0
M  V30 17571 H 1628.59 -1.39735 2.12947 0
M  V30 17572 H 1629.38 -0.331521 3.41696 0
M  V30 17573 N 1631.82 -1.45363 -0.608876 0
M  V30 17574 C 1632.79 -1.53551 -1.70161 0
M  V30 17575 C 1633.79 -0.415146 -1.55349 0
M  V30 17576 O 1634.98 -0.67858 -1.6044 0
M  V30 17577 C 1632.11 -1.43081 -3.0942 0
M  V30 17578 H 1633.3 -2.5091 -1.64268 0
M  V30 17579 H 1630.85 -1.32785 -0.824493 0
M  V30 17580 H 1631.59 -0.469016 -3.20891 0
M  V30 17581 H 1631.37 -2.24343 -3.21579 0
M  V30 17582 H 1632.86 -1.51841 -3.89017 0
M  V30 17583 N 1633.3 0.851265 -1.32632 0
M  V30 17584 C 1634.55 1.60569 -1.23385 0
M  V30 17585 C 1634.88 1.93433 0.203484 0
M  V30 17586 O 1634.13 1.57806 1.1574 0
M  V30 17587 C 1634.43 2.93312 -2.04212 0
M  V30 17588 C 1634.1 2.79864 -3.53535 0
M  V30 17589 C 1632.76 2.75903 -3.94247 0
M  V30 17590 C 1635.11 2.65553 -4.48476 0
M  V30 17591 C 1632.44 2.55515 -5.28137 0
M  V30 17592 C 1634.79 2.467 -5.82514 0
M  V30 17593 C 1633.45 2.41134 -6.22423 0
M  V30 17594 H 1632.72 0.587563 -0.451498 0
M  V30 17595 H 1635.37 0.987209 -1.64093 0
M  V30 17596 H 1633.68 3.59298 -1.56243 0
M  V30 17597 H 1635.37 3.50714 -1.94424 0
M  V30 17598 H 1631.96 2.83773 -3.21202 0
M  V30 17599 H 1636.15 2.67655 -4.17941 0
M  V30 17600 H 1631.4 2.49644 -5.58111 0
M  V30 17601 H 1635.58 2.34607 -6.55692 0
M  V30 17602 H 1633.2 2.25095 -7.2611 0
M  V30 17603 N 1634.78 1.15898 1.06796 0
M  V30 17604 C 1636.03 0.931848 1.78884 0
M  V30 17605 C 1636.34 -0.54197 1.87942 0
M  V30 17606 O 1637.55 -0.886848 2.56607 0
M  V30 17607 C 1636 1.61788 3.21485 0
M  V30 17608 C 1635.61 3.12911 3.2061 0
M  V30 17609 C 1637.35 1.47252 3.98142 0
M  V30 17610 C 1635.26 3.74275 4.579 0
M  V30 17611 H 1634.19 0.344998 0.670442 0
M  V30 17612 H 1636.84 1.38974 1.19827 0
M  V30 17613 H 1635.22 1.08769 3.80769 0
M  V30 17614 H 1636.4 3.72732 2.70938 0
M  V30 17615 H 1634.71 3.27273 2.57451 0
M  V30 17616 H 1637.31 1.90484 4.9962 0
M  V30 17617 H 1637.65 0.420766 4.14168 0
M  V30 17618 H 1638.19 1.97398 3.45367 0
M  V30 17619 H 1634.93 4.79376 4.47078 0
M  V30 17620 H 1634.45 3.19238 5.07786 0
M  V30 17621 H 1636.12 3.75532 5.26863 0
M  V30 17622 N 1636.26 -1.25243 0.956659 0
M  V30 17623 C 1637.48 -1.97621 0.629337 0
M  V30 17624 C 1637.91 -1.70606 -0.792158 0
M  V30 17625 O 1637.26 -0.963192 -1.53598 0
M  V30 17626 C 1637.31 -3.49273 0.896687 0
M  V30 17627 O 1636.42 -4.12393 -0.0234986 0
M  V30 17628 H 1635.76 -0.619472 0.239061 0
M  V30 17629 H 1638.29 -1.5931 1.28381 0
M  V30 17630 H 1638.3 -3.99597 0.82377 0
M  V30 17631 H 1636.97 -3.68265 1.93271 0
M  V30 17632 H 1635.55 -3.72761 0.101796 0
M  V30 17633 N 1637.73 -0.725468 -1.3991 0
M  V30 17634 C 1638.7 -0.0878956 -2.29031 0
M  V30 17635 C 1639.7 0.677105 -1.45849 0
M  V30 17636 O 1640.89 0.507538 -1.66642 0
M  V30 17637 C 1638.02 0.885087 -3.2921 0
M  V30 17638 H 1639.21 -0.872957 -2.86914 0
M  V30 17639 H 1636.77 -0.490715 -1.48397 0
M  V30 17640 H 1637.5 1.69685 -2.76365 0
M  V30 17641 H 1637.29 0.339297 -3.90629 0
M  V30 17642 H 1638.78 1.32806 -3.9592 0
M  V30 17643 N 1639.21 1.50354 -0.472382 0
M  V30 17644 C 1640.14 2.3142 0.310995 0
M  V30 17645 C 1641.12 1.38383 0.989151 0
M  V30 17646 O 1642.31 1.67303 0.986074 0
M  V30 17647 C 1639.44 3.18157 1.3926 0
M  V30 17648 C 1638.39 4.19756 0.835977 0
M  V30 17649 C 1637.72 4.9524 2.01597 0
M  V30 17650 C 1639.02 5.22074 -0.15361 0
M  V30 17651 H 1640.71 2.97159 -0.365595 0
M  V30 17652 H 1638.26 1.42905 -0.177266 0
M  V30 17653 H 1640.21 3.73666 1.94813 0
M  V30 17654 H 1638.94 2.50305 2.09798 0
M  V30 17655 H 1637.59 3.65351 0.302414 0
M  V30 17656 H 1637.24 4.2386 2.70836 0
M  V30 17657 H 1636.94 5.63966 1.64974 0
M  V30 17658 H 1638.47 5.53584 2.57637 0
M  V30 17659 H 1639.88 5.72446 0.312783 0
M  V30 17660 H 1638.28 5.98527 -0.43418 0
M  V30 17661 H 1639.35 4.72741 -1.07908 0
M  V30 17662 N 1640.69 0.205039 1.56261 0
M  V30 17663 C 1642.1 -0.305792 1.84179 0
M  V30 17664 C 1642.45 -1.60672 1.126 0
M  V30 17665 O 1641.58 -2.12855 0.390118 0
M  V30 17666 C 1642.17 -0.561596 3.34113 0
M  V30 17667 C 1640.73 -1.01677 3.62407 0
M  V30 17668 C 1639.88 -0.0707844 2.7721 0
M  V30 17669 H 1642.83 0.428609 1.52803 0
M  V30 17670 H 1642.85 -1.40969 3.53423 0
M  V30 17671 H 1642.36 0.38541 3.86182 0
M  V30 17672 H 1640.46 -1.97771 3.1578 0
M  V30 17673 H 1640.58 -0.902607 4.70521 0
M  V30 17674 H 1638.94 -0.574529 2.48136 0
M  V30 17675 H 1639.72 0.870844 3.32071 0
M  V30 17676 N 1642.17 -1.57451 -0.0684915 0
M  V30 17677 C 1643.08 -2.07274 -1.09885 0
M  V30 17678 C 1644.1 -1.00295 -1.42186 0
M  V30 17679 O 1645.27 -1.31786 -1.52297 0
M  V30 17680 C 1642.34 -2.50949 -2.39219 0
M  V30 17681 C 1641.4 -3.7224 -2.13859 0
M  V30 17682 C 1640.63 -4.13823 -3.37026 0
M  V30 17683 O 1640.85 -3.55248 -4.46268 0
M  V30 17684 O 1639.79 -5.06587 -3.25044 0
M  V30 17685 H 1643.61 -2.9539 -0.705587 0
M  V30 17686 H 1641.2 -1.46698 -0.282849 0
M  V30 17687 H 1643.08 -2.79547 -3.15327 0
M  V30 17688 H 1641.76 -1.6596 -2.77919 0
M  V30 17689 H 1640.66 -3.4872 -1.35445 0
M  V30 17690 H 1642 -4.58091 -1.80038 0
M  V30 17691 N 1643.65 0.339955 -1.5389 0
M  V30 17692 C 1644.92 1.09703 -1.6194 0
M  V30 17693 C 1645.3 2.06401 -0.442907 0
M  V30 17694 O 1644.65 2.21418 0.564477 0
M  V30 17695 C 1644.86 1.8135 -2.98183 0
M  V30 17696 C 1646.21 2.34965 -3.53662 0
M  V30 17697 O 1647.23 1.91442 -3.00381 0
M  V30 17698 O 1646.09 3.14601 -4.46865 0
M  V30 17699 H 1643.19 0.504703 -0.655136 0
M  V30 17700 H 1645.73 0.34116 -1.66235 0
M  V30 17701 H 1644.51 1.10924 -3.75249 0
M  V30 17702 H 1644.13 2.63787 -2.97494 0
M  V30 17703 N 1645.13 1.45684 0.601159 0
M  V30 17704 C 1646.4 1.4051 1.36074 0
M  V30 17705 C 1646.78 0.0790095 2.10952 0
M  V30 17706 O 1646.13 -0.939162 2.08307 0
M  V30 17707 C 1646.34 2.62297 2.3022 0
M  V30 17708 C 1647.69 3.0766 2.92627 0
M  V30 17709 O 1648.71 2.62716 2.40539 0
M  V30 17710 O 1647.57 3.85675 3.87191 0
M  V30 17711 H 1644.67 0.557902 0.61047 0
M  V30 17712 H 1647.21 1.57822 0.623712 0
M  V30 17713 H 1645.98 3.50389 1.74194 0
M  V30 17714 H 1645.61 2.47351 3.11293 0
M  V30 17715 N 1646.6 -0.84422 1.33082 0
M  V30 17716 C 1647.85 -1.59912 1.24235 0
M  V30 17717 C 1648.18 -1.93538 -0.193223 0
M  V30 17718 O 1647.43 -1.58418 -1.14901 0
M  V30 17719 C 1647.73 -2.92225 2.05765 0
M  V30 17720 C 1647.4 -2.77985 3.55014 0
M  V30 17721 C 1646.06 -2.73809 3.95705 0
M  V30 17722 C 1648.41 -2.63171 4.49878 0
M  V30 17723 C 1645.74 -2.5271 5.29485 0
M  V30 17724 C 1648.09 -2.43607 5.83814 0
M  V30 17725 C 1646.76 -2.37829 6.23693 0
M  V30 17726 H 1646.03 -0.58516 0.454608 0
M  V30 17727 H 1648.67 -0.978493 1.64614 0
M  V30 17728 H 1646.98 -3.58465 1.58146 0
M  V30 17729 H 1648.68 -3.49678 1.96281 0
M  V30 17730 H 1645.27 -2.82065 3.22703 0
M  V30 17731 H 1649.45 -2.65435 4.19354 0
M  V30 17732 H 1644.71 -2.4668 5.59427 0
M  V30 17733 H 1648.88 -2.31126 6.56927 0
M  V30 17734 H 1646.51 -2.21241 7.27294 0
M  V30 17735 N 1648.08 -1.16463 -1.0618 0
M  V30 17736 C 1649.01 -0.895399 -2.1565 0
M  V30 17737 C 1649.99 0.158729 -1.69358 0
M  V30 17738 O 1651.18 0.010586 -1.94197 0
M  V30 17739 C 1648.31 -0.396959 -3.45024 0
M  V30 17740 C 1647.26 -1.38913 -4.0483 0
M  V30 17741 C 1646.59 -0.749043 -5.29427 0
M  V30 17742 C 1647.89 -2.7591 -4.43476 0
M  V30 17743 H 1649.58 -1.81085 -2.38429 0
M  V30 17744 H 1647.13 -0.872098 -1.14588 0
M  V30 17745 H 1649.08 -0.196086 -4.20944 0
M  V30 17746 H 1647.8 0.554002 -3.21867 0
M  V30 17747 H 1646.46 -1.57657 -3.30968 0
M  V30 17748 H 1646.11 0.208439 -5.02568 0
M  V30 17749 H 1645.81 -1.41128 -5.704 0
M  V30 17750 H 1647.34 -0.558217 -6.08043 0
M  V30 17751 H 1648.75 -2.60942 -5.10473 0
M  V30 17752 H 1647.15 -3.38618 -4.95437 0
M  V30 17753 H 1648.22 -3.31076 -3.54284 0
M  V30 17754 N 1649.56 1.24734 -0.963288 0
M  V30 17755 C 1650.78 1.97285 -0.639808 0
M  V30 17756 C 1651.21 1.71024 0.783099 0
M  V30 17757 O 1650.57 0.971324 1.53085 0
M  V30 17758 C 1650.62 3.48793 -0.915197 0
M  V30 17759 O 1649.72 4.124 0.00162805 0
M  V30 17760 H 1649.06 0.618196 -0.242343 0
M  V30 17761 H 1651.59 1.58627 -1.29224 0
M  V30 17762 H 1651.6 3.99155 -0.84495 0
M  V30 17763 H 1650.28 3.67235 -1.95221 0
M  V30 17764 H 1648.85 3.72702 -0.121563 0
M  V30 17765 N 1651.04 0.732878 1.39523 0
M  V30 17766 C 1651.97 0.106583 2.33257 0
M  V30 17767 C 1652.95 -0.726582 1.53801 0
M  V30 17768 O 1654.13 -0.671994 1.82203 0
M  V30 17769 C 1651.26 -0.803051 3.37888 0
M  V30 17770 C 1650.22 -0.0742048 4.27936 0
M  V30 17771 C 1649.54 -1.10071 5.23248 0
M  V30 17772 C 1650.84 1.08195 5.10971 0
M  V30 17773 H 1652.54 0.889539 2.8588 0
M  V30 17774 H 1650.08 0.429209 1.37455 0
M  V30 17775 H 1652.04 -1.25071 4.02412 0
M  V30 17776 H 1650.76 -1.6181 2.83699 0
M  V30 17777 H 1649.42 0.35381 3.64889 0
M  V30 17778 H 1649.07 -1.90927 4.65356 0
M  V30 17779 H 1648.77 -0.617825 5.84343 0
M  V30 17780 H 1650.29 -1.54812 5.90649 0
M  V30 17781 H 1651.71 0.712835 5.68851 0
M  V30 17782 H 1650.1 1.49433 5.81197 0
M  V30 17783 H 1651.17 1.90463 4.45928 0
M  V30 17784 N 1652.52 -1.50101 0.480349 0
M  V30 17785 C 1653.45 -2.26582 -0.345418 0
M  V30 17786 C 1654.46 -1.32283 -0.948947 0
M  V30 17787 O 1655.65 -1.57724 -0.835784 0
M  V30 17788 C 1652.75 -3.0393 -1.49932 0
M  V30 17789 C 1651.92 -4.25653 -1.00689 0
M  V30 17790 C 1650.98 -4.85217 -2.03594 0
M  V30 17791 O 1650.01 -5.45873 -1.61281 0
M  V30 17792 N 1651.21 -4.73035 -3.36479 0
M  V30 17793 H 1653.97 -2.98089 0.310285 0
M  V30 17794 H 1651.54 -1.58872 0.311671 0
M  V30 17795 H 1653.53 -3.40656 -2.18485 0
M  V30 17796 H 1652.1 -2.35162 -2.05955 0
M  V30 17797 H 1651.32 -3.93926 -0.146932 0
M  V30 17798 H 1652.61 -5.04554 -0.655957 0
M  V30 17799 H 1652 -4.24818 -3.73559 0
M  V30 17800 H 1650.56 -5.14004 -4.00804 0
M  V30 17801 N 1653.99 -0.213323 -1.5615 0
M  V30 17802 C 1654.96 0.686579 -2.18675 0
M  V30 17803 C 1655.96 1.1277 -1.14628 0
M  V30 17804 O 1657.15 1.03783 -1.39909 0
M  V30 17805 C 1654.28 1.93954 -2.80347 0
M  V30 17806 H 1655.47 0.141578 -2.99566 0
M  V30 17807 H 1653.02 0.0362987 -1.56258 0
M  V30 17808 H 1653.76 2.52661 -2.03304 0
M  V30 17809 H 1653.54 1.63179 -3.56532 0
M  V30 17810 H 1655.03 2.58087 -3.283 0
M  V30 17811 N 1655.47 1.57485 0.0601405 0
M  V30 17812 C 1656.4 2.07525 1.07031 0
M  V30 17813 C 1657.38 0.971136 1.39653 0
M  V30 17814 O 1658.57 1.24456 1.49078 0
M  V30 17815 C 1655.7 2.52888 2.38044 0
M  V30 17816 C 1654.65 3.67282 2.19745 0
M  V30 17817 C 1653.98 3.98741 3.56244 0
M  V30 17818 C 1655.28 4.96896 1.60908 0
M  V30 17819 H 1656.97 2.92173 0.653875 0
M  V30 17820 H 1654.52 1.40555 0.313083 0
M  V30 17821 H 1656.47 2.8651 3.09014 0
M  V30 17822 H 1655.2 1.65284 2.81689 0
M  V30 17823 H 1653.85 3.33961 1.51213 0
M  V30 17824 H 1653.5 3.08249 3.97481 0
M  V30 17825 H 1653.2 4.75775 3.44836 0
M  V30 17826 H 1654.73 4.34869 4.28627 0
M  V30 17827 H 1656.14 5.28674 2.21758 0
M  V30 17828 H 1654.54 5.78332 1.60164 0
M  V30 17829 H 1655.61 4.81518 0.571671 0
M  V30 17830 N 1656.95 -0.331789 1.54068 0
M  V30 17831 C 1657.88 -1.43156 1.77713 0
M  V30 17832 C 1658.86 -1.50036 0.626723 0
M  V30 17833 O 1660.05 -1.67573 0.863228 0
M  V30 17834 C 1657.17 -2.81311 1.88632 0
M  V30 17835 C 1656.22 -2.92 3.10867 0
M  V30 17836 S 1657.05 -2.57255 4.69659 0
M  V30 17837 C 1658.21 -3.97497 4.83474 0
M  V30 17838 H 1658.44 -1.22884 2.70715 0
M  V30 17839 H 1655.97 -0.528148 1.45086 0
M  V30 17840 H 1657.93 -3.60898 1.95608 0
M  V30 17841 H 1656.59 -2.9887 0.966212 0
M  V30 17842 H 1655.79 -3.93261 3.15217 0
M  V30 17843 H 1655.39 -2.20374 3.02177 0
M  V30 17844 H 1657.68 -4.92156 4.65605 0
M  V30 17845 H 1658.62 -3.98135 5.85572 0
M  V30 17846 H 1659.03 -3.86069 4.11838 0
M  V30 17847 N 1658.43 -1.46001 -0.593424 0
M  V30 17848 C 1659.38 -1.56106 -1.72434 0
M  V30 17849 C 1660.37 -0.430155 -1.63848 0
M  V30 17850 O 1661.58 -0.606618 -1.6947 0
M  V30 17851 H 1657.95 -0.490601 -0.569925 0
M  V30 17852 H 1659.92 -2.51214 -1.6104 0
M  V30 17853 C 1658.67 -1.55836 -3.10822 0
M  V30 17854 H 1657.99 -2.42189 -3.18095 0
M  V30 17855 H 1659.43 -1.66962 -3.89743 0
M  V30 17856 C 1657.89 -0.285146 -3.35691 0
M  V30 17857 O 1658.42 0.629115 -3.96743 0
M  V30 17858 N 1656.63 -0.176401 -2.90064 0
M  V30 17859 H 1656.18 -0.921281 -2.40562 0
M  V30 17860 H 1656.13 0.674636 -3.07077 0
M  V30 17861 N 1659.91 0.83715 -1.33527 0
M  V30 17862 C 1660.82 1.97915 -1.25964 0
M  V30 17863 C 1661.83 1.73169 -0.169894 0
M  V30 17864 O 1663.01 1.97513 -0.393793 0
M  V30 17865 C 1660.07 3.31945 -1.00068 0
M  V30 17866 C 1659.13 3.69795 -2.1806 0
M  V30 17867 C 1658.37 4.97429 -1.9339 0
M  V30 17868 O 1658.59 5.63492 -0.885069 0
M  V30 17869 O 1657.52 5.32823 -2.79969 0
M  V30 17870 H 1661.35 2.07236 -2.22007 0
M  V30 17871 H 1658.94 0.970437 -1.13591 0
M  V30 17872 H 1660.82 4.12248 -0.873487 0
M  V30 17873 H 1659.49 3.23623 -0.0705475 0
M  V30 17874 H 1658.4 2.89995 -2.36334 0
M  V30 17875 H 1659.73 3.82784 -3.09414 0
M  V30 17876 N 1661.38 1.17024 1.05561 0
M  V30 17877 C 1662.62 0.967099 1.80074 0
M  V30 17878 C 1662.99 -0.495724 1.8549 0
M  V30 17879 O 1664.19 -0.817816 2.56057 0
M  V30 17880 C 1662.46 1.5862 3.20273 0
M  V30 17881 S 1664.02 1.52873 4.11309 0
M  V30 17882 H 1660.84 0.347623 0.620225 0
M  V30 17883 H 1663.44 1.48902 1.26682 0
M  V30 17884 H 1662.14 2.64341 3.1393 0
M  V30 17885 H 1661.67 1.06392 3.7874 0
M  V30 17886 H 1663.69 0.534126 4.93317 0
M  V30 17887 N 1662.86 -1.24221 0.969889 0
M  V30 17888 C 1664.11 -1.91656 0.628559 0
M  V30 17889 C 1664.42 -1.76627 -0.840371 0
M  V30 17890 O 1665.63 -2.38771 -1.29232 0
M  V30 17891 C 1664.09 -3.43515 1.07357 0
M  V30 17892 C 1663.69 -3.67226 2.56611 0
M  V30 17893 C 1665.44 -4.16788 0.805493 0
M  V30 17894 C 1663.35 -5.12667 2.94834 0
M  V30 17895 H 1662.28 -0.717619 0.231384 0
M  V30 17896 H 1664.93 -1.40831 1.17639 0
M  V30 17897 H 1663.31 -3.93388 0.454037 0
M  V30 17898 H 1664.48 -3.27942 3.23713 0
M  V30 17899 H 1662.8 -3.07243 2.81053 0
M  V30 17900 H 1665.39 -5.23945 1.06705 0
M  V30 17901 H 1665.74 -4.15498 -0.258321 0
M  V30 17902 H 1666.27 -3.7287 1.3861 0
M  V30 17903 H 1663.01 -5.1908 4.00295 0
M  V30 17904 H 1662.53 -5.5294 2.32417 0
M  V30 17905 H 1664.21 -5.80916 2.8486 0
M  V30 17906 N 1664.34 -0.740267 -1.39132 0
M  V30 17907 C 1665.59 -0.289949 -2.00009 0
M  V30 17908 C 1665.91 1.12831 -1.59042 0
M  V30 17909 O 1665.18 1.76926 -0.841076 0
M  V30 17910 H 1663.76 -0.104213 -0.739695 0
M  V30 17911 H 1666.42 -0.951398 -1.70101 0
M  V30 17912 H 1665.52 -0.342509 -3.10215 0
M  V30 17913 N 1665.82 1.49844 -0.488302 0
M  V30 17914 C 1666.77 2.25802 0.315853 0
M  V30 17915 C 1667.75 1.30108 0.946606 0
M  V30 17916 O 1668.94 1.54908 0.856306 0
M  V30 17917 C 1666.07 3.14024 1.38723 0
M  V30 17918 C 1665.16 4.17174 0.763348 0
M  V30 17919 N 1665.55 5.05642 -0.126544 0
M  V30 17920 C 1663.85 4.34053 1.02537 0
M  V30 17921 C 1664.55 5.79696 -0.482379 0
M  V30 17922 N 1663.53 5.43402 0.146639 0
M  V30 17923 H 1667.33 2.91569 -0.369397 0
M  V30 17924 H 1664.84 1.59538 -0.30355 0
M  V30 17925 H 1666.84 3.67061 1.97666 0
M  V30 17926 H 1665.5 2.49807 2.07429 0
M  V30 17927 H 1666.51 5.15514 -0.49653 0
M  V30 17928 H 1663.19 3.81048 1.70613 0
M  V30 17929 H 1664.58 6.60921 -1.20965 0
M  V30 17930 N 1667.3 0.221601 1.56034 0
M  V30 17931 C 1668.54 -0.410695 1.98598 0
M  V30 17932 C 1668.88 -1.59412 1.10912 0
M  V30 17933 O 1668.15 -1.93783 0.166819 0
M  V30 17934 C 1668.43 -0.845199 3.50041 0
M  V30 17935 C 1668.29 0.341866 4.48499 0
M  V30 17936 C 1669.61 -1.70135 4.05884 0
M  V30 17937 H 1666.72 -0.147808 0.722026 0
M  V30 17938 H 1669.37 0.317846 1.87323 0
M  V30 17939 H 1667.52 -1.46597 3.5978 0
M  V30 17940 H 1669.19 0.980014 4.5077 0
M  V30 17941 H 1667.43 0.989294 4.22369 0
M  V30 17942 H 1668.1 -0.00509234 5.52 0
M  V30 17943 H 1670.58 -1.17757 3.9909 0
M  V30 17944 H 1669.45 -1.97427 5.12166 0
M  V30 17945 H 1669.72 -2.66469 3.5277 0
M  V30 17946 N 1668.77 -1.57515 -0.0517878 0
M  V30 17947 C 1670.02 -1.87396 -0.746022 0
M  V30 17948 C 1670.34 -0.817053 -1.77718 0
M  V30 17949 O 1671.54 -1.00435 -2.5224 0
M  V30 17950 C 1670 -3.32481 -1.37783 0
M  V30 17951 C 1669.61 -4.46349 -0.384208 0
M  V30 17952 C 1671.35 -3.71539 -2.05327 0
M  V30 17953 C 1669.26 -5.82484 -1.02307 0
M  V30 17954 H 1668.19 -0.699127 -0.282379 0
M  V30 17955 H 1670.84 -1.835 0.000245524 0
M  V30 17956 H 1669.22 -3.31051 -2.17304 0
M  V30 17957 H 1670.39 -4.59209 0.382639 0
M  V30 17958 H 1668.71 -4.15976 0.187873 0
M  V30 17959 H 1671.31 -4.70553 -2.53936 0
M  V30 17960 H 1671.65 -3.02361 -2.86153 0
M  V30 17961 H 1672.18 -3.75046 -1.32611 0
M  V30 17962 H 1668.92 -6.55005 -0.254704 0
M  V30 17963 H 1668.44 -5.73388 -1.7603 0
M  V30 17964 H 1670.12 -6.28476 -1.5371 0
M  V30 17965 N 1670.25 0.323614 -1.54242 0
M  V30 17966 C 1671.5 1.05947 -1.72104 0
M  V30 17967 C 1671.82 1.88547 -0.497512 0
M  V30 17968 O 1671.09 1.89712 0.488485 0
M  V30 17969 H 1669.67 0.394141 -0.634557 0
M  V30 17970 H 1672.33 0.360063 -1.91545 0
M  V30 17971 H 1671.43 1.72552 -2.60062 0
M  V30 17972 N 1671.73 1.46313 0.585673 0
M  V30 17973 C 1672.68 1.56653 1.69495 0
M  V30 17974 C 1673.65 0.411007 1.60935 0
M  V30 17975 O 1674.83 0.627369 1.80191 0
M  V30 17976 C 1671.97 1.55996 3.0783 0
M  V30 17977 C 1671.09 2.82261 3.27036 0
M  V30 17978 C 1670.22 2.73129 4.55603 0
M  V30 17979 C 1669.26 3.94346 4.68143 0
M  V30 17980 N 1668.4 3.83617 5.88032 0
M  V30 17981 H 1673.24 2.51407 1.59995 0
M  V30 17982 H 1670.77 1.24729 0.779821 0
M  V30 17983 H 1672.73 1.53602 3.87895 0
M  V30 17984 H 1671.36 0.647766 3.16234 0
M  V30 17985 H 1670.41 2.94648 2.40596 0
M  V30 17986 H 1671.73 3.72107 3.32171 0
M  V30 17987 H 1670.88 2.68823 5.43893 0
M  V30 17988 H 1669.62 1.80917 4.52902 0
M  V30 17989 H 1668.62 3.98987 3.78272 0
M  V30 17990 H 1669.85 4.8765 4.72625 0
M  V30 17991 H 1667.8 2.9419 5.86334 0
M  V30 17992 H 1667.71 4.67117 5.94422 0
M  V30 17993 H 1668.98 3.83281 6.7876 0
M  V30 17994 N 1673.21 -0.830057 1.33969 0
M  V30 17995 C 1674.62 -1.40227 1.23261 0
M  V30 17996 C 1674.97 -1.95664 -0.144862 0
M  V30 17997 O 1674.1 -1.89503 -1.04488 0
M  V30 17998 C 1674.69 -2.54913 2.2317 0
M  V30 17999 C 1673.25 -3.08062 2.16274 0
M  V30 18000 C 1672.4 -1.809 2.10168 0
M  V30 18001 H 1675.35 -0.635062 1.4544 0
M  V30 18002 H 1675.37 -3.32801 1.84455 0
M  V30 18003 H 1674.88 -2.14534 3.23414 0
M  V30 18004 H 1672.98 -3.52964 1.19362 0
M  V30 18005 H 1673.1 -3.67637 3.07213 0
M  V30 18006 H 1671.46 -2.01508 1.55778 0
M  V30 18007 H 1672.24 -1.42705 3.12234 0
M  V30 18008 N 1674.69 -1.17582 -1.04939 0
M  V30 18009 C 1675.64 -0.862938 -2.11039 0
M  V30 18010 C 1676.62 0.163585 -1.60066 0
M  V30 18011 O 1677.81 -0.0392119 -1.76957 0
M  V30 18012 C 1674.94 -0.380811 -3.41181 0
M  V30 18013 C 1674.03 -1.4389 -3.98944 0
M  V30 18014 N 1674.42 -2.65304 -4.30636 0
M  V30 18015 C 1672.72 -1.29736 -4.26714 0
M  V30 18016 C 1673.42 -3.33311 -4.76737 0
M  V30 18017 N 1672.39 -2.6069 -4.77013 0
M  V30 18018 H 1676.2 -1.78602 -2.33407 0
M  V30 18019 H 1673.71 -1.06491 -1.22611 0
M  V30 18020 H 1675.71 -0.1382 -4.16671 0
M  V30 18021 H 1674.37 0.536032 -3.20245 0
M  V30 18022 H 1675.38 -3.02247 -4.20556 0
M  V30 18023 H 1672.06 -0.442367 -4.1515 0
M  V30 18024 H 1673.45 -4.37026 -5.1035 0
M  V30 18025 N 1676.17 1.23705 -0.976463 0
M  V30 18026 C 1677.39 1.96595 -0.660697 0
M  V30 18027 C 1677.82 1.71845 0.764916 0
M  V30 18028 O 1677.17 0.987506 1.52046 0
M  V30 18029 C 1677.22 3.47803 -0.95214 0
M  V30 18030 O 1676.33 4.12378 -0.0421126 0
M  V30 18031 H 1675.67 0.615591 -0.248886 0
M  V30 18032 H 1678.2 1.57247 -1.30899 0
M  V30 18033 H 1678.21 3.98236 -0.887238 0
M  V30 18034 H 1676.88 3.65144 -1.99105 0
M  V30 18035 H 1675.46 3.72552 -0.161087 0
M  V30 18036 N 1677.64 0.747635 1.38738 0
M  V30 18037 C 1679.05 0.369576 1.83006 0
M  V30 18038 C 1679.41 -1.10091 1.62402 0
M  V30 18039 O 1678.53 -1.85042 1.12198 0
M  V30 18040 C 1679.13 0.664018 3.32229 0
M  V30 18041 C 1677.68 0.339308 3.74868 0
M  V30 18042 C 1676.83 0.920231 2.61586 0
M  V30 18043 H 1679.78 0.944268 1.27551 0
M  V30 18044 H 1679.8 -0.0598575 3.80453 0
M  V30 18045 H 1679.32 1.73432 3.47193 0
M  V30 18046 H 1677.42 -0.724649 3.65485 0
M  V30 18047 H 1677.53 0.830699 4.71843 0
M  V30 18048 H 1675.89 0.346002 2.52339 0
M  V30 18049 H 1676.68 1.99544 2.79351 0
M  V30 18050 N 1679.12 -1.49583 0.496242 0
M  V30 18051 C 1680.37 -2.02738 -0.050037 0
M  V30 18052 C 1680.7 -1.37556 -1.37083 0
M  V30 18053 O 1679.98 -0.50964 -1.87704 0
M  V30 18054 C 1680.26 -3.59501 -0.207575 0
M  V30 18055 C 1680.11 -4.35218 1.13601 0
M  V30 18056 C 1681.43 -4.29715 -0.950443 0
M  V30 18057 H 1678.55 -0.736811 -0.0167105 0
M  V30 18058 H 1681.19 -1.78654 0.646728 0
M  V30 18059 H 1679.34 -3.80152 -0.801033 0
M  V30 18060 H 1681.01 -4.26075 1.76798 0
M  V30 18061 H 1679.26 -3.97964 1.72648 0
M  V30 18062 H 1679.93 -5.43247 0.979142 0
M  V30 18063 H 1682.4 -4.1369 -0.447173 0
M  V30 18064 H 1681.28 -5.39159 -1.02951 0
M  V30 18065 H 1681.54 -3.94627 -1.99304 0
M  V30 18066 N 1680.6 -0.229873 -1.55915 0
M  V30 18067 C 1681.83 0.404189 -2.02914 0
M  V30 18068 C 1682.24 1.52758 -1.10952 0
M  V30 18069 O 1681.6 1.82101 -0.120685 0
M  V30 18070 C 1681.65 0.928016 -3.49385 0
M  V30 18071 O 1681.37 -0.150592 -4.37841 0
M  V30 18072 C 1682.87 1.63448 -4.12067 0
M  V30 18073 H 1680.09 0.0980294 -0.663801 0
M  V30 18074 H 1682.64 -0.34876 -2.01504 0
M  V30 18075 H 1680.79 1.63121 -3.51384 0
M  V30 18076 H 1681.21 0.244429 -5.2393 0
M  V30 18077 H 1682.68 1.95292 -5.16299 0
M  V30 18078 H 1683.16 2.55055 -3.57553 0
M  V30 18079 H 1683.76 0.976292 -4.13943 0
M  V30 18080 N 1682.08 1.5754 0.0434337 0
M  V30 18081 C 1683.33 1.88235 0.735652 0
M  V30 18082 C 1683.65 0.825698 1.76656 0
M  V30 18083 O 1682.92 -0.142424 1.95382 0
M  V30 18084 H 1681.5 0.694661 0.274692 0
M  V30 18085 H 1684.16 1.94896 0.0127911 0
M  V30 18086 H 1683.25 2.86659 1.23421 0
M  V30 18087 N 1683.56 -0.31543 1.54411 0
M  V30 18088 C 1684.49 -1.39353 1.87358 0
M  V30 18089 C 1685.47 -1.53586 0.731118 0
M  V30 18090 O 1686.65 -1.67332 0.98558 0
M  V30 18091 C 1683.78 -2.75998 2.10814 0
M  V30 18092 C 1682.74 -2.76545 3.2666 0
M  V30 18093 C 1682.06 -4.16343 3.35504 0
M  V30 18094 C 1683.36 -2.39567 4.64117 0
M  V30 18095 H 1685.06 -1.12028 2.77651 0
M  V30 18096 H 1682.6 -0.537476 1.33593 0
M  V30 18097 H 1684.55 -3.51491 2.32447 0
M  V30 18098 H 1683.28 -3.04817 1.17278 0
M  V30 18099 H 1681.94 -2.03507 3.04927 0
M  V30 18100 H 1681.59 -4.42316 2.39512 0
M  V30 18101 H 1681.29 -4.17613 4.13368 0
M  V30 18102 H 1682.81 -4.93637 3.59381 0
M  V30 18103 H 1684.22 -3.04775 4.85577 0
M  V30 18104 H 1682.62 -2.52075 5.4459 0
M  V30 18105 H 1683.69 -1.34707 4.65813 0
M  V30 18106 N 1685.03 -1.46622 -0.577906 0
M  V30 18107 C 1686.26 -1.55534 -1.35988 0
M  V30 18108 C 1686.67 -0.197065 -1.88171 0
M  V30 18109 O 1686.02 0.816609 -1.64551 0
M  V30 18110 C 1686.08 -2.5035 -2.58002 0
M  V30 18111 C 1685.74 -3.96491 -2.27253 0
M  V30 18112 C 1686.74 -4.85567 -1.85797 0
M  V30 18113 C 1684.42 -4.41662 -2.39249 0
M  V30 18114 C 1686.42 -6.17828 -1.56738 0
M  V30 18115 C 1684.1 -5.73956 -2.09803 0
M  V30 18116 C 1685.1 -6.6186 -1.68613 0
M  V30 18117 O 1684.79 -7.91698 -1.3953 0
M  V30 18118 H 1684.52 -0.528412 -0.421612 0
M  V30 18119 H 1687.08 -1.92774 -0.709038 0
M  V30 18120 H 1685.31 -2.08137 -3.25908 0
M  V30 18121 H 1687 -2.49616 -3.20073 0
M  V30 18122 H 1687.76 -4.51924 -1.76039 0
M  V30 18123 H 1683.64 -3.73462 -2.70272 0
M  V30 18124 H 1687.18 -6.86398 -1.24514 0
M  V30 18125 H 1683.08 -6.07147 -2.19187 0
M  V30 18126 H 1683.85 -8.04009 -1.53335 0
M  V30 18127 N 1686.51 0.822941 -1.34408 0
M  V30 18128 C 1687.44 1.94878 -1.28627 0
M  V30 18129 C 1688.42 1.6931 -0.163727 0
M  V30 18130 O 1689.61 1.90908 -0.356083 0
M  V30 18131 C 1686.74 3.31333 -1.04094 0
M  V30 18132 C 1685.69 3.71341 -2.12814 0
M  V30 18133 C 1685.02 5.05779 -1.73469 0
M  V30 18134 C 1686.32 3.83439 -3.54643 0
M  V30 18135 H 1688.01 1.99972 -2.22827 0
M  V30 18136 H 1685.56 0.960715 -1.07267 0
M  V30 18137 H 1687.51 4.0968 -0.986947 0
M  V30 18138 H 1686.24 3.26539 -0.0633642 0
M  V30 18139 H 1684.89 2.95269 -2.17282 0
M  V30 18140 H 1684.54 4.97471 -0.743727 0
M  V30 18141 H 1684.24 5.33518 -2.46236 0
M  V30 18142 H 1685.77 5.86583 -1.69566 0
M  V30 18143 H 1687.18 4.52057 -3.52587 0
M  V30 18144 H 1685.58 4.22632 -4.2603 0
M  V30 18145 H 1686.65 2.85439 -3.91986 0
M  V30 18146 N 1687.99 1.18137 1.04314 0
M  V30 18147 C 1688.95 0.908268 2.10436 0
M  V30 18148 C 1689.95 -0.105315 1.60455 0
M  V30 18149 O 1691.14 0.12785 1.7373 0
M  V30 18150 C 1688.28 0.362233 3.3897 0
M  V30 18151 H 1689.47 1.84928 2.36096 0
M  V30 18152 H 1687.02 0.993048 1.20699 0
M  V30 18153 H 1687.76 -0.58551 3.18971 0
M  V30 18154 H 1687.54 1.09285 3.76562 0
M  V30 18155 H 1689.03 0.18977 4.17169 0
M  V30 18156 N 1689.47 -1.23186 0.98301 0
M  V30 18157 C 1690.72 -1.90979 0.648851 0
M  V30 18158 C 1691.03 -1.77508 -0.82159 0
M  V30 18159 O 1692.24 -2.40128 -1.26692 0
M  V30 18160 C 1690.69 -3.42357 1.10995 0
M  V30 18161 C 1690.3 -3.64483 2.60492 0
M  V30 18162 C 1692.04 -4.1591 0.849653 0
M  V30 18163 C 1689.95 -5.09511 3.00255 0
M  V30 18164 H 1688.88 -0.715125 0.238983 0
M  V30 18165 H 1691.53 -1.39575 1.19126 0
M  V30 18166 H 1689.91 -3.92885 0.495735 0
M  V30 18167 H 1691.09 -3.24491 3.27173 0
M  V30 18168 H 1689.4 -3.04245 2.84296 0
M  V30 18169 H 1692 -5.22784 1.12256 0
M  V30 18170 H 1692.34 -4.15748 -0.214237 0
M  V30 18171 H 1692.88 -3.71379 1.42557 0
M  V30 18172 H 1689.62 -5.14805 4.05778 0
M  V30 18173 H 1689.14 -5.50443 2.38269 0
M  V30 18174 H 1690.81 -5.77862 2.91005 0
M  V30 18175 N 1690.95 -0.754982 -1.38339 0
M  V30 18176 C 1691.9 -0.103867 -2.27763 0
M  V30 18177 C 1692.88 0.691777 -1.4527 0
M  V30 18178 O 1694.07 0.557503 -1.67991 0
M  V30 18179 C 1691.2 0.787421 -3.34148 0
M  V30 18180 C 1690.29 -0.0151461 -4.24097 0
M  V30 18181 N 1690.68 -1.05227 -4.94733 0
M  V30 18182 C 1688.98 0.211452 -4.45498 0
M  V30 18183 C 1689.68 -1.53796 -5.61001 0
M  V30 18184 N 1688.65 -0.853018 -5.36866 0
M  V30 18185 H 1692.46 -0.898166 -2.7984 0
M  V30 18186 H 1689.97 -0.591155 -1.51258 0
M  V30 18187 H 1691.97 1.26952 -3.971 0
M  V30 18188 H 1690.63 1.58066 -2.83629 0
M  V30 18189 H 1691.64 -1.43409 -4.97649 0
M  V30 18190 H 1688.31 0.977919 -4.05885 0
M  V30 18191 H 1689.7 -2.40193 -6.27501 0
M  V30 18192 N 1692.42 1.49318 -0.504168 0
M  V30 18193 C 1693.84 1.58793 -0.160331 0
M  V30 18194 C 1694.04 1.50906 1.33527 0
M  V30 18195 O 1693.1 1.38466 2.11148 0
M  V30 18196 C 1694.41 2.91454 -0.739945 0
M  V30 18197 C 1695.96 3.04926 -0.706338 0
M  V30 18198 C 1696.43 4.4021 -1.26407 0
M  V30 18199 N 1697.92 4.46711 -1.22491 0
M  V30 18200 C 1698.66 5.49844 -1.62661 0
M  V30 18201 N 1698.15 6.60066 -2.10439 0
M  V30 18202 N 1699.95 5.40576 -1.54058 0
M  V30 18203 H 1692.1 1.52687 -1.4765 0
M  V30 18204 H 1694.36 0.723463 -0.612622 0
M  V30 18205 H 1694.07 3.02802 -1.78896 0
M  V30 18206 H 1693.94 3.76658 -0.202187 0
M  V30 18207 H 1696.33 2.93206 0.333845 0
M  V30 18208 H 1696.41 2.21398 -1.28128 0
M  V30 18209 H 1696.05 4.52683 -2.30305 0
M  V30 18210 H 1695.98 5.22384 -0.665041 0
M  V30 18211 H 1698.47 3.67634 -0.874869 0
M  V30 18212 H 1698.79 7.34865 -2.39153 0
M  V30 18213 H 1697.13 6.61098 -2.14415 0
M  V30 18214 H 1700.32 4.53359 -1.16548 0
M  V30 18215 H 1700.5 6.20826 -1.85687 0
M  V30 18216 N 1693.9 0.238138 1.5579 0
M  V30 18217 C 1694.85 -0.681413 2.22395 0
M  V30 18218 C 1695.84 -1.18691 1.20867 0
M  V30 18219 O 1697.05 -1.14482 1.38903 0
M  V30 18220 H 1693.43 -0.238207 0.713275 0
M  V30 18221 H 1695.4 -0.0964141 2.98244 0
M  V30 18222 C 1694.15 -1.87137 2.93045 0
M  V30 18223 H 1693.47 -1.49153 3.70936 0
M  V30 18224 H 1694.91 -2.4922 3.43024 0
M  V30 18225 C 1693.37 -2.73709 1.9643 0
M  V30 18226 O 1693.9 -3.72973 1.49178 0
M  V30 18227 N 1692.1 -2.40092 1.6372 0
M  V30 18228 H 1691.65 -1.59423 2.02341 0
M  V30 18229 H 1691.61 -2.98293 0.993414 0
M  V30 18230 N 1695.38 -1.57561 -0.0350783 0
M  V30 18231 C 1696.61 -1.93644 -0.742753 0
M  V30 18232 C 1697.03 -0.837655 -1.68419 0
M  V30 18233 O 1696.39 0.207069 -1.80114 0
M  V30 18234 C 1696.44 -3.28779 -1.48111 0
M  V30 18235 O 1695.54 -3.20604 -2.59398 0
M  V30 18236 H 1694.88 -0.633103 -0.200192 0
M  V30 18237 H 1697.41 -2.04599 0.00765271 0
M  V30 18238 H 1697.42 -3.63527 -1.85236 0
M  V30 18239 H 1696.1 -4.08316 -0.790608 0
M  V30 18240 H 1694.67 -2.97477 -2.2486 0
M  V30 18241 N 1696.86 0.307236 -1.54576 0
M  V30 18242 C 1698.27 0.88064 -1.64626 0
M  V30 18243 C 1698.62 1.88308 -0.550865 0
M  V30 18244 O 1697.75 2.14116 0.313553 0
M  V30 18245 C 1698.34 1.60405 -2.98422 0
M  V30 18246 C 1696.9 2.12595 -3.10613 0
M  V30 18247 C 1696.05 0.956593 -2.60278 0
M  V30 18248 H 1699 0.0843939 -1.58475 0
M  V30 18249 H 1699.02 2.46925 -2.89496 0
M  V30 18250 H 1698.53 0.874209 -3.78126 0
M  V30 18251 H 1696.63 2.88644 -2.35617 0
M  V30 18252 H 1696.74 2.36475 -4.16673 0
M  V30 18253 H 1695.11 1.3404 -2.16576 0
M  V30 18254 H 1695.89 0.24081 -3.42454 0
M  V30 18255 N 1698.34 1.46926 0.570122 0
M  V30 18256 C 1699.75 1.32159 0.894766 0
M  V30 18257 C 1699.95 0.302411 1.99218 0
M  V30 18258 O 1699.01 -0.290615 2.50822 0
M  V30 18259 C 1700.32 2.71136 1.30021 0
M  V30 18260 C 1701.87 2.79323 1.41236 0
M  V30 18261 C 1702.34 4.18911 1.85142 0
M  V30 18262 N 1703.84 4.2139 1.92314 0
M  V30 18263 C 1704.57 5.263 2.27588 0
M  V30 18264 N 1704.07 6.41526 2.61565 0
M  V30 18265 N 1705.86 5.13671 2.28251 0
M  V30 18266 H 1698.01 2.11837 -0.154603 0
M  V30 18267 H 1700.27 0.947978 -0.00649658 0
M  V30 18268 H 1699.98 3.47087 0.567775 0
M  V30 18269 H 1699.85 3.02066 2.25911 0
M  V30 18270 H 1702.24 2.03653 2.13564 0
M  V30 18271 H 1702.32 2.52063 0.43566 0
M  V30 18272 H 1701.97 4.95081 1.13389 0
M  V30 18273 H 1701.9 4.43587 2.83792 0
M  V30 18274 H 1704.39 3.38257 1.68495 0
M  V30 18275 H 1704.7 7.17343 2.8747 0
M  V30 18276 H 1703.04 6.44867 2.59175 0
M  V30 18277 H 1706.24 4.22684 2.01137 0
M  V30 18278 H 1706.41 5.95541 2.55412 0
M  V30 18279 N 1699.82 -0.815801 1.34842 0
M  V30 18280 C 1701.23 -1.38911 1.24742 0
M  V30 18281 C 1701.58 -1.95807 -0.124101 0
M  V30 18282 O 1700.7 -1.906 -1.02472 0
M  V30 18283 C 1701.3 -2.52532 2.25861 0
M  V30 18284 C 1699.86 -3.05751 2.1953 0
M  V30 18285 C 1699 -1.78661 2.12075 0
M  V30 18286 H 1701.95 -0.619601 1.46105 0
M  V30 18287 H 1701.98 -3.30826 1.87974 0
M  V30 18288 H 1701.49 -2.11092 3.25671 0
M  V30 18289 H 1699.59 -3.51678 1.23099 0
M  V30 18290 H 1699.7 -3.64358 3.11095 0
M  V30 18291 H 1698.07 -1.99844 1.57907 0
M  V30 18292 H 1698.85 -1.39385 3.1373 0
M  V30 18293 N 1701.29 -1.18689 -1.03686 0
M  V30 18294 C 1702.23 -0.860751 -2.11344 0
M  V30 18295 C 1703.2 0.178884 -1.61613 0
M  V30 18296 O 1704.39 0.05699 -1.88414 0
M  V30 18297 C 1701.52 -0.286745 -3.37484 0
M  V30 18298 C 1700.56 -1.30417 -4.06071 0
M  V30 18299 S 1701.39 -2.86155 -4.52632 0
M  V30 18300 C 1702.55 -2.30276 -5.82 0
M  V30 18301 H 1702.78 -1.77251 -2.38683 0
M  V30 18302 H 1700.32 -1.01316 -1.16509 0
M  V30 18303 H 1702.27 0.0379216 -4.10482 0
M  V30 18304 H 1700.94 0.60319 -3.08254 0
M  V30 18305 H 1700.13 -0.851497 -4.96755 0
M  V30 18306 H 1699.73 -1.57527 -3.39207 0
M  V30 18307 H 1702.02 -1.68773 -6.56142 0
M  V30 18308 H 1702.97 -3.19275 -6.32036 0
M  V30 18309 H 1703.37 -1.73153 -5.37288 0
M  V30 18310 N 1702.77 1.22662 -0.989529 0
M  V30 18311 C 1703.72 2.24466 -0.536994 0
M  V30 18312 C 1704.69 1.60467 0.428907 0
M  V30 18313 O 1705.87 1.87846 0.334418 0
M  V30 18314 C 1703.01 3.44793 0.145526 0
M  V30 18315 C 1702.13 4.23318 -0.861716 0
M  V30 18316 C 1701.26 5.30979 -0.153062 0
M  V30 18317 C 1700.3 6.01221 -1.1489 0
M  V30 18318 N 1699.44 7.00533 -0.468782 0
M  V30 18319 H 1704.28 2.62539 -1.40987 0
M  V30 18320 H 1701.81 1.29035 -0.706291 0
M  V30 18321 H 1703.77 4.1345 0.558128 0
M  V30 18322 H 1702.4 3.07494 0.982213 0
M  V30 18323 H 1701.45 3.5399 -1.39266 0
M  V30 18324 H 1702.77 4.71753 -1.62019 0
M  V30 18325 H 1701.92 6.05874 0.316443 0
M  V30 18326 H 1700.66 4.8351 0.63794 0
M  V30 18327 H 1699.66 5.25111 -1.62907 0
M  V30 18328 H 1700.89 6.50779 -1.94072 0
M  V30 18329 H 1698.84 6.55301 0.302844 0
M  V30 18330 H 1698.75 7.46958 -1.16576 0
M  V30 18331 H 1700.02 7.79497 -0.0219686 0
M  V30 18332 N 1704.25 0.762308 1.37937 0
M  V30 18333 C 1705.5 0.322846 2.00214 0
M  V30 18334 C 1705.83 -1.09513 1.60376 0
M  V30 18335 O 1705.1 -1.75165 0.845432 0
M  V30 18336 C 1705.39 0.455651 3.57206 0
M  V30 18337 C 1705.24 1.91537 4.06981 0
M  V30 18338 C 1706.56 -0.145758 4.39859 0
M  V30 18339 H 1703.68 0.118781 0.727365 0
M  V30 18340 H 1706.32 0.963585 1.63753 0
M  V30 18341 H 1704.47 -0.0898341 3.88396 0
M  V30 18342 H 1706.14 2.51983 3.86397 0
M  V30 18343 H 1704.38 2.42744 3.59524 0
M  V30 18344 H 1705.06 1.9594 5.16054 0
M  V30 18345 H 1707.53 0.31956 4.14871 0
M  V30 18346 H 1706.41 -0.0226441 5.48895 0
M  V30 18347 H 1706.67 -1.23504 4.24499 0
M  V30 18348 N 1705.73 -1.49049 0.51208 0
M  V30 18349 C 1707.14 -1.86579 0.0670687 0
M  V30 18350 C 1707.49 -1.42339 -1.35034 0
M  V30 18351 O 1706.61 -0.806142 -2.00824 0
M  V30 18352 C 1707.21 -3.38605 0.114936 0
M  V30 18353 C 1705.77 -3.75396 -0.274787 0
M  V30 18354 C 1704.92 -2.73068 0.482613 0
M  V30 18355 H 1707.87 -1.41208 0.724287 0
M  V30 18356 H 1707.89 -3.74416 -0.677722 0
M  V30 18357 H 1707.4 -3.70774 1.14666 0
M  V30 18358 H 1705.5 -3.48837 -1.30933 0
M  V30 18359 H 1705.61 -4.79071 0.0523691 0
M  V30 18360 H 1703.98 -2.54607 -0.0689364 0
M  V30 18361 H 1704.76 -3.08081 1.51463 0
M  V30 18362 N 1707.21 -0.246397 -1.55662 0
M  V30 18363 C 1708.62 0.108465 -1.59231 0
M  V30 18364 C 1708.82 1.56961 -1.26354 0
M  V30 18365 O 1707.88 2.31393 -1.01062 0
M  V30 18366 C 1709.19 -0.240265 -2.99739 0
M  V30 18367 C 1710.74 -0.184523 -3.12456 0
M  V30 18368 C 1711.21 -0.507279 -4.55182 0
M  V30 18369 N 1712.7 -0.457761 -4.60933 0
M  V30 18370 C 1713.44 -0.680664 -5.69346 0
M  V30 18371 N 1712.94 -0.966667 -6.86023 0
M  V30 18372 N 1714.73 -0.611405 -5.58765 0
M  V30 18373 H 1706.88 -1.19928 -1.75303 0
M  V30 18374 H 1709.14 -0.482503 -0.816024 0
M  V30 18375 H 1708.85 -1.25535 -3.28533 0
M  V30 18376 H 1708.72 0.432872 -3.74708 0
M  V30 18377 H 1711.11 0.821232 -2.83443 0
M  V30 18378 H 1711.19 -0.891504 -2.39762 0
M  V30 18379 H 1710.83 -1.51059 -4.84916 0
M  V30 18380 H 1710.76 0.221174 -5.26135 0
M  V30 18381 H 1713.26 -0.245414 -3.77102 0
M  V30 18382 H 1713.57 -1.12419 -7.6458 0
M  V30 18383 H 1711.91 -1.00413 -6.87708 0
M  V30 18384 H 1715.1 -0.388018 -4.66489 0
M  V30 18385 H 1715.28 -0.788519 -6.43185 0
M  V30 18386 N 1708.68 1.57577 0.026722 0
M  V30 18387 C 1709.92 1.91228 0.721878 0
M  V30 18388 C 1710.29 0.845216 1.72395 0
M  V30 18389 O 1711.49 1.06613 2.46753 0
M  V30 18390 C 1709.76 3.30022 1.37186 0
M  V30 18391 S 1711.32 3.85512 2.09585 0
M  V30 18392 H 1708.14 0.669595 0.23909 0
M  V30 18393 H 1710.74 1.95486 -0.0235447 0
M  V30 18394 H 1709.44 4.05546 0.629344 0
M  V30 18395 H 1708.97 3.29074 2.15578 0
M  V30 18396 H 1710.99 3.64429 3.36758 0
M  V30 18397 N 1710.16 -0.299034 1.54737 0
M  V30 18398 C 1711.11 -1.37055 1.82208 0
M  V30 18399 C 1712.1 -1.45855 0.679357 0
M  V30 18400 O 1713.29 -1.49974 0.940044 0
M  V30 18401 C 1710.42 -2.73525 2.07459 0
M  V30 18402 C 1709.5 -2.6894 3.27921 0
M  V30 18403 N 1709.89 -2.33972 4.48432 0
M  V30 18404 C 1708.19 -3.0004 3.29988 0
M  V30 18405 C 1708.89 -2.38734 5.30454 0
M  V30 18406 N 1707.87 -2.76167 4.68223 0
M  V30 18407 H 1711.67 -1.08986 2.72945 0
M  V30 18408 H 1709.18 -0.507618 1.54263 0
M  V30 18409 H 1711.18 -3.50787 2.25287 0
M  V30 18410 H 1709.84 -3.02503 1.1799 0
M  V30 18411 H 1710.85 -2.06392 4.74998 0
M  V30 18412 H 1707.53 -3.33901 2.50632 0
M  V30 18413 H 1708.92 -2.1448 6.36748 0
M  V30 18414 N 1711.64 -1.47227 -0.562322 0
M  V30 18415 C 1712.86 -1.5744 -1.35008 0
M  V30 18416 C 1713.29 -0.223223 -1.86771 0
M  V30 18417 O 1712.65 0.800078 -1.62691 0
M  V30 18418 C 1712.7 -2.5992 -2.49948 0
M  V30 18419 O 1711.8 -2.14836 -3.52022 0
M  V30 18420 H 1711.14 -0.529064 -0.401232 0
M  V30 18421 H 1713.67 -1.92966 -0.680084 0
M  V30 18422 H 1713.68 -2.80177 -2.96588 0
M  V30 18423 H 1712.36 -3.58031 -2.11629 0
M  V30 18424 H 1710.93 -2.04655 -3.11722 0
M  V30 18425 N 1713.12 0.808639 -1.35273 0
M  V30 18426 C 1714.39 1.55238 -1.18998 0
M  V30 18427 C 1714.77 2.09824 0.231723 0
M  V30 18428 O 1714.12 1.92252 1.23497 0
M  V30 18429 C 1714.33 2.66252 -2.25634 0
M  V30 18430 C 1715.68 3.34646 -2.61338 0
M  V30 18431 O 1716.7 2.76521 -2.24532 0
M  V30 18432 O 1715.56 4.39644 -3.24615 0
M  V30 18433 H 1712.66 0.6858 -0.462176 0
M  V30 18434 H 1715.2 0.848777 -1.46949 0
M  V30 18435 H 1713.98 2.23774 -3.21 0
M  V30 18436 H 1713.6 3.4425 -1.98941 0
M  V30 18437 N 1714.6 1.19237 1.03055 0
M  V30 18438 C 1716.01 0.996569 1.57878 0
M  V30 18439 C 1716.36 -0.450987 1.90946 0
M  V30 18440 O 1715.48 -1.33009 1.70697 0
M  V30 18441 C 1716.08 1.80272 2.86858 0
M  V30 18442 C 1714.64 1.65097 3.3826 0
M  V30 18443 C 1713.78 1.79079 2.11721 0
M  V30 18444 H 1716.74 1.33633 0.856037 0
M  V30 18445 H 1716.76 1.29781 3.57683 0
M  V30 18446 H 1716.27 2.85621 2.62759 0
M  V30 18447 H 1714.37 0.623267 3.6735 0
M  V30 18448 H 1714.48 2.45527 4.11404 0
M  V30 18449 H 1712.85 1.22124 2.23512 0
M  V30 18450 H 1713.63 2.85885 1.90065 0
M  V30 18451 N 1716.07 -1.22136 0.99602 0
M  V30 18452 C 1717.49 -1.72743 0.708295 0
M  V30 18453 C 1717.84 -1.8026 -0.774649 0
M  V30 18454 O 1716.96 -1.45102 -1.60544 0
M  V30 18455 C 1717.56 -3.13729 1.27905 0
M  V30 18456 C 1716.12 -3.61729 1.04064 0
M  V30 18457 C 1715.26 -2.39519 1.39735 0
M  V30 18458 H 1718.21 -1.07439 1.16801 0
M  V30 18459 H 1718.23 -3.74746 0.65919 0
M  V30 18460 H 1717.75 -3.08225 2.35836 0
M  V30 18461 H 1715.85 -3.72594 -0.0219029 0
M  V30 18462 H 1715.96 -4.47689 1.70621 0
M  V30 18463 H 1714.32 -2.41275 0.815986 0
M  V30 18464 H 1715.11 -2.36675 2.48677 0
M  V30 18465 N 1717.55 -0.769612 -1.37531 0
M  V30 18466 C 1718.5 -0.142211 -2.32165 0
M  V30 18467 C 1719.49 0.687376 -1.54827 0
M  V30 18468 O 1720.7 0.584677 -1.7024 0
M  V30 18469 H 1717.08 -0.0271998 -0.751508 0
M  V30 18470 H 1719.05 -0.956148 -2.82667 0
M  V30 18471 C 1717.8 0.72421 -3.40074 0
M  V30 18472 H 1717.12 0.0952318 -3.99687 0
M  V30 18473 H 1718.56 1.13021 -4.08659 0
M  V30 18474 C 1717.02 1.87388 -2.79977 0
M  V30 18475 O 1717.55 2.96921 -2.70557 0
M  V30 18476 N 1715.75 1.67384 -2.37552 0
M  V30 18477 H 1715.3 0.782941 -2.45414 0
M  V30 18478 H 1715.26 2.44474 -1.97686 0
M  V30 18479 N 1719.03 1.48775 -0.519977 0
M  V30 18480 C 1720.44 1.86541 -0.0769625 0
M  V30 18481 C 1720.79 1.43053 1.34277 0
M  V30 18482 O 1719.92 0.816781 2.00394 0
M  V30 18483 C 1720.51 3.38539 -0.132891 0
M  V30 18484 C 1719.07 3.75536 0.254875 0
M  V30 18485 C 1718.22 2.72808 -0.497088 0
M  V30 18486 H 1721.17 1.40822 -0.731765 0
M  V30 18487 H 1721.19 3.7477 0.657856 0
M  V30 18488 H 1720.7 3.70161 -1.1663 0
M  V30 18489 H 1718.8 3.49527 1.29081 0
M  V30 18490 H 1718.92 4.79037 -0.0777747 0
M  V30 18491 H 1717.28 2.5464 0.0554331 0
M  V30 18492 H 1718.06 3.07274 -1.53094 0
M  V30 18493 N 1720.51 0.254649 1.55529 0
M  V30 18494 C 1721.46 -0.655705 2.18368 0
M  V30 18495 C 1722.44 -1.13353 1.14192 0
M  V30 18496 O 1723.63 -1.08201 1.40077 0
M  V30 18497 C 1720.76 -1.84883 2.89263 0
M  V30 18498 C 1719.85 -1.38914 4.00704 0
M  V30 18499 N 1720.24 -0.6442 5.01681 0
M  V30 18500 C 1718.54 -1.67379 4.13401 0
M  V30 18501 C 1719.24 -0.405172 5.80287 0
M  V30 18502 N 1718.22 -0.971651 5.34846 0
M  V30 18503 H 1722.02 -0.0784898 2.93795 0
M  V30 18504 H 1719.53 0.0573 1.62299 0
M  V30 18505 H 1721.53 -2.51209 3.32716 0
M  V30 18506 H 1720.19 -2.43019 2.15341 0
M  V30 18507 H 1721.2 -0.293541 5.17067 0
M  V30 18508 H 1717.88 -2.26599 3.50656 0
M  V30 18509 H 1719.27 0.190059 6.71631 0
M  V30 18510 N 1721.99 -1.57589 -0.0183649 0
M  V30 18511 C 1722.92 -2.1029 -1.01492 0
M  V30 18512 C 1723.9 -1.00782 -1.37029 0
M  V30 18513 O 1725.08 -1.28365 -1.45726 0
M  V30 18514 C 1722.21 -2.59111 -2.31255 0
M  V30 18515 C 1721.17 -3.72979 -2.0993 0
M  V30 18516 C 1720.49 -4.08046 -3.45547 0
M  V30 18517 C 1721.79 -5.00988 -1.47677 0
M  V30 18518 H 1723.49 -2.93804 -0.57618 0
M  V30 18519 H 1721.03 -1.41336 -0.275708 0
M  V30 18520 H 1722.99 -2.94602 -3.0131 0
M  V30 18521 H 1721.71 -1.72694 -2.77208 0
M  V30 18522 H 1720.37 -3.37853 -1.42306 0
M  V30 18523 H 1720.02 -3.1868 -3.89169 0
M  V30 18524 H 1719.72 -4.8475 -3.32101 0
M  V30 18525 H 1721.24 -4.46081 -4.16947 0
M  V30 18526 H 1722.65 -5.34368 -2.07663 0
M  V30 18527 H 1721.05 -5.82375 -1.44774 0
M  V30 18528 H 1722.12 -4.82865 -0.443804 0
M  V30 18529 N 1723.46 0.290824 -1.54893 0
M  V30 18530 C 1724.71 1.02244 -1.73865 0
M  V30 18531 C 1725.03 1.88079 -0.537166 0
M  V30 18532 O 1726.23 2.64584 -0.608908 0
M  V30 18533 C 1724.69 1.86762 -3.07649 0
M  V30 18534 C 1724.3 1.0588 -4.35308 0
M  V30 18535 C 1726.04 2.59461 -3.35976 0
M  V30 18536 C 1723.95 1.89734 -5.60138 0
M  V30 18537 H 1722.88 0.385455 -0.648028 0
M  V30 18538 H 1725.53 0.27893 -1.81368 0
M  V30 18539 H 1723.91 2.6514 -2.94137 0
M  V30 18540 H 1725.08 0.320443 -4.59684 0
M  V30 18541 H 1723.4 0.447169 -4.13992 0
M  V30 18542 H 1726 3.22569 -4.26442 0
M  V30 18543 H 1726.34 3.28823 -2.55306 0
M  V30 18544 H 1726.87 1.88126 -3.50505 0
M  V30 18545 H 1723.61 1.24825 -6.43505 0
M  V30 18546 H 1723.13 2.61215 -5.39932 0
M  V30 18547 H 1724.81 2.47535 -5.97775 0
M  V30 18548 N 1724.94 1.47523 0.554506 0
M  V30 18549 C 1726.19 1.53546 1.30791 0
M  V30 18550 C 1726.5 0.203555 1.94538 0
M  V30 18551 O 1727.71 0.14181 2.71129 0
M  V30 18552 C 1726.17 2.70684 2.37188 0
M  V30 18553 C 1725.77 4.10415 1.7962 0
M  V30 18554 C 1727.52 2.86002 3.13693 0
M  V30 18555 C 1725.43 5.18849 2.83813 0
M  V30 18556 H 1724.36 0.571539 0.491792 0
M  V30 18557 H 1727.01 1.73803 0.58861 0
M  V30 18558 H 1725.39 2.43812 3.12045 0
M  V30 18559 H 1726.56 4.47202 1.11117 0
M  V30 18560 H 1724.88 4.00006 1.15691 0
M  V30 18561 H 1727.47 3.64181 3.91505 0
M  V30 18562 H 1727.82 1.94545 3.68046 0
M  V30 18563 H 1728.35 3.12657 2.45948 0
M  V30 18564 H 1725.09 6.12192 2.34311 0
M  V30 18565 H 1724.61 4.86577 3.50718 0
M  V30 18566 H 1726.29 5.45915 3.47255 0
M  V30 18567 N 1726.42 -0.801453 1.357 0
M  V30 18568 C 1727.83 -1.37581 1.26208 0
M  V30 18569 C 1728.18 -1.95928 -0.103326 0
M  V30 18570 O 1727.31 -1.91676 -1.00445 0
M  V30 18571 C 1727.9 -2.50122 2.28527 0
M  V30 18572 C 1726.46 -3.03405 2.2276 0
M  V30 18573 C 1725.61 -1.76401 2.13958 0
M  V30 18574 H 1728.56 -0.60407 1.46754 0
M  V30 18575 H 1728.58 -3.28814 1.91472 0
M  V30 18576 H 1728.09 -2.07626 3.27892 0
M  V30 18577 H 1726.19 -3.50352 1.26822 0
M  V30 18578 H 1726.31 -3.61038 3.14942 0
M  V30 18579 H 1724.67 -1.98158 1.60017 0
M  V30 18580 H 1725.45 -1.3605 3.15191 0
M  V30 18581 N 1727.9 -1.19782 -1.02421 0
M  V30 18582 C 1729.13 -1.02871 -1.79514 0
M  V30 18583 C 1729.54 0.422387 -1.84014 0
M  V30 18584 O 1728.9 1.29335 -1.28758 0
M  V30 18585 C 1728.95 -1.59634 -3.24344 0
M  V30 18586 O 1728.67 -2.99064 -3.20144 0
M  V30 18587 C 1730.17 -1.47571 -4.18016 0
M  V30 18588 H 1727.39 -0.362301 -0.564782 0
M  V30 18589 H 1729.94 -1.58701 -1.28974 0
M  V30 18590 H 1728.09 -1.07942 -3.72058 0
M  V30 18591 H 1728.5 -3.25859 -4.10994 0
M  V30 18592 H 1729.98 -1.92061 -5.1751 0
M  V30 18593 H 1730.46 -0.426967 -4.3712 0
M  V30 18594 H 1731.06 -1.98417 -3.76179 0
M  V30 18595 N 1729.38 1.21606 -1.00248 0
M  V30 18596 C 1730.79 1.72365 -0.717446 0
M  V30 18597 C 1731.14 1.80668 0.765078 0
M  V30 18598 O 1730.26 1.45951 1.59772 0
M  V30 18599 C 1730.86 3.13046 -1.29567 0
M  V30 18600 C 1729.42 3.61172 -1.05981 0
M  V30 18601 C 1728.57 2.38775 -1.41003 0
M  V30 18602 H 1731.52 1.06818 -1.17369 0
M  V30 18603 H 1731.54 3.74392 -0.679054 0
M  V30 18604 H 1731.05 3.0697 -2.37467 0
M  V30 18605 H 1729.15 3.726 0.00214307 0
M  V30 18606 H 1729.26 4.46778 -1.72993 0
M  V30 18607 H 1727.63 2.40839 -0.82877 0
M  V30 18608 H 1728.41 2.35352 -2.49928 0
M  V30 18609 N 1730.86 0.776895 1.37121 0
M  V30 18610 C 1731.77 0.167552 2.34001 0
M  V30 18611 C 1732.78 -0.673609 1.60432 0
M  V30 18612 O 1733.96 -0.592327 1.92493 0
M  V30 18613 C 1731.02 -0.697343 3.39615 0
M  V30 18614 C 1730.08 0.160869 4.28998 0
M  V30 18615 C 1729.32 -0.662841 5.29568 0
M  V30 18616 O 1729.54 -1.89962 5.37839 0
M  V30 18617 O 1728.47 -0.0693304 6.0186 0
M  V30 18618 H 1732.3 0.968247 2.87852 0
M  V30 18619 H 1729.88 0.538137 1.39372 0
M  V30 18620 H 1731.77 -1.19094 4.04221 0
M  V30 18621 H 1730.44 -1.47614 2.88083 0
M  V30 18622 H 1729.35 0.700941 3.67475 0
M  V30 18623 H 1730.68 0.902875 4.83848 0
M  V30 18624 N 1732.33 -1.48497 0.527859 0
M  V30 18625 C 1733.58 -2.02099 -0.00699772 0
M  V30 18626 C 1733.9 -1.40742 -1.34969 0
M  V30 18627 O 1733.17 -0.572059 -1.87361 0
M  V30 18628 H 1731.75 -0.746979 -0.00557445 0
M  V30 18629 H 1734.41 -1.82231 0.691209 0
M  V30 18630 H 1733.51 -3.11881 -0.116893 0
M  V30 18631 N 1733.81 -0.262893 -1.55392 0
M  V30 18632 C 1735.06 0.357366 -1.99322 0
M  V30 18633 C 1735.39 1.56772 -1.15121 0
M  V30 18634 O 1734.64 1.94614 -0.205867 0
M  V30 18635 C 1734.94 0.795313 -3.48439 0
M  V30 18636 C 1734.61 -0.309047 -4.4984 0
M  V30 18637 C 1733.27 -0.612317 -4.77288 0
M  V30 18638 C 1735.62 -1.05382 -5.10435 0
M  V30 18639 C 1732.95 -1.66415 -5.62604 0
M  V30 18640 C 1735.3 -2.09528 -5.96892 0
M  V30 18641 C 1733.96 -2.40503 -6.22667 0
M  V30 18642 H 1733.23 0.13077 -0.72937 0
M  V30 18643 H 1735.88 -0.374057 -1.87811 0
M  V30 18644 H 1734.19 1.60621 -3.57363 0
M  V30 18645 H 1735.88 1.28577 -3.79828 0
M  V30 18646 H 1732.47 -0.0625469 -4.28554 0
M  V30 18647 H 1736.66 -0.832773 -4.89263 0
M  V30 18648 H 1731.91 -1.90929 -5.80824 0
M  V30 18649 H 1736.09 -2.67719 -6.42884 0
M  V30 18650 H 1733.71 -3.22143 -6.88569 0
M  V30 18651 N 1735.29 1.57597 0.0100073 0
M  V30 18652 C 1736.51 1.94801 0.711852 0
M  V30 18653 C 1736.94 0.864343 1.67065 0
M  V30 18654 O 1736.3 -0.178388 1.8042 0
M  V30 18655 C 1736.35 3.31094 1.42862 0
M  V30 18656 O 1735.45 3.2469 2.54264 0
M  V30 18657 H 1734.79 0.636207 0.190095 0
M  V30 18658 H 1737.32 2.04561 -0.0402016 0
M  V30 18659 H 1737.33 3.66428 1.79429 0
M  V30 18660 H 1736.01 4.09522 0.725549 0
M  V30 18661 H 1734.58 3.01017 2.20099 0
M  V30 18662 N 1736.77 -0.282606 1.55045 0
M  V30 18663 C 1738 -1.03395 1.79212 0
M  V30 18664 C 1738.41 -1.80283 0.560652 0
M  V30 18665 O 1737.77 -1.76343 -0.470049 0
M  V30 18666 C 1737.82 -2.0001 3.01128 0
M  V30 18667 O 1737.54 -1.26238 4.19518 0
M  V30 18668 C 1739.04 -2.87035 3.37825 0
M  V30 18669 H 1736.26 -0.305855 0.597238 0
M  V30 18670 H 1738.8 -0.3163 2.02039 0
M  V30 18671 H 1736.96 -2.67251 2.80456 0
M  V30 18672 H 1737.37 -1.91277 4.88378 0
M  V30 18673 H 1738.85 -3.50642 4.26327 0
M  V30 18674 H 1739.32 -3.56303 2.56798 0
M  V30 18675 H 1739.93 -2.25298 3.60723 0
M  V30 18676 N 1738.25 -1.47815 -0.546675 0
M  V30 18677 C 1739.66 -1.33566 -0.873628 0
M  V30 18678 C 1739.86 -0.334067 -1.98711 0
M  V30 18679 O 1738.92 0.250675 -2.51253 0
M  V30 18680 C 1740.23 -2.73171 -1.25691 0
M  V30 18681 C 1741.78 -2.81535 -1.36774 0
M  V30 18682 C 1742.25 -4.21804 -1.78454 0
M  V30 18683 N 1743.74 -4.24396 -1.85586 0
M  V30 18684 C 1744.48 -5.29854 -2.19186 0
M  V30 18685 N 1743.98 -6.45606 -2.51326 0
M  V30 18686 N 1745.77 -5.17237 -2.2005 0
M  V30 18687 H 1737.92 -2.11564 0.188285 0
M  V30 18688 H 1740.18 -0.947754 0.0215773 0
M  V30 18689 H 1739.89 -3.47946 -0.512485 0
M  V30 18690 H 1739.76 -3.05622 -2.21077 0
M  V30 18691 H 1742.15 -2.07025 -2.10297 0
M  V30 18692 H 1742.23 -2.52724 -0.395504 0
M  V30 18693 H 1741.87 -4.96823 -1.05498 0
M  V30 18694 H 1741.8 -4.48046 -2.76699 0
M  V30 18695 H 1744.3 -3.40895 -1.63092 0
M  V30 18696 H 1744.61 -7.21825 -2.76022 0
M  V30 18697 H 1742.95 -6.48909 -2.48883 0
M  V30 18698 H 1746.14 -4.2583 -1.94387 0
M  V30 18699 H 1746.32 -5.99529 -2.45905 0
M  V30 18700 N 1739.72 0.794246 -1.36123 0
M  V30 18701 C 1740.95 1.58813 -1.33391 0
M  V30 18702 C 1741.37 1.87915 0.0834599 0
M  V30 18703 O 1740.73 1.47516 1.05398 0
M  V30 18704 C 1740.78 2.88887 -2.15816 0
M  V30 18705 O 1739.88 3.82271 -1.54734 0
M  V30 18706 H 1739.22 0.481924 -0.456777 0
M  V30 18707 H 1741.75 0.984818 -1.79339 0
M  V30 18708 H 1741.76 3.38201 -2.2822 0
M  V30 18709 H 1740.44 2.67032 -3.18852 0
M  V30 18710 H 1739.02 3.40852 -1.51242 0
M  V30 18711 N 1741.2 1.20323 1.01785 0
M  V30 18712 C 1742.13 0.894265 2.09948 0
M  V30 18713 C 1743.11 -0.15315 1.61877 0
M  V30 18714 O 1744.3 -0.0270078 1.88481 0
M  V30 18715 C 1741.42 0.3404 3.36985 0
M  V30 18716 C 1740.47 1.36861 4.03945 0
M  V30 18717 S 1741.3 2.9332 4.48022 0
M  V30 18718 C 1742.46 2.39506 5.78263 0
M  V30 18719 H 1742.69 1.81026 2.35833 0
M  V30 18720 H 1740.22 1.03157 1.14883 0
M  V30 18721 H 1742.18 0.0273874 4.10491 0
M  V30 18722 H 1740.84 -0.554073 3.09174 0
M  V30 18723 H 1740.04 0.930418 4.95337 0
M  V30 18724 H 1739.64 1.62903 3.36658 0
M  V30 18725 H 1741.93 1.7919 6.53374 0
M  V30 18726 H 1742.87 3.2929 6.26876 0
M  V30 18727 H 1743.28 1.81678 5.34465 0
M  V30 18728 N 1742.68 -1.21073 1.00892 0
M  V30 18729 C 1744.09 -1.71982 0.726576 0
M  V30 18730 C 1744.44 -1.81071 -0.755486 0
M  V30 18731 O 1743.57 -1.46797 -1.58996 0
M  V30 18732 C 1744.16 -3.12354 1.31226 0
M  V30 18733 C 1742.72 -3.60605 1.07895 0
M  V30 18734 C 1741.87 -2.38024 1.42267 0
M  V30 18735 H 1744.82 -1.06195 1.17934 0
M  V30 18736 H 1744.84 -3.74026 0.6989 0
M  V30 18737 H 1744.35 -3.05707 2.39092 0
M  V30 18738 H 1742.45 -3.72596 0.0176168 0
M  V30 18739 H 1742.57 -4.45854 1.7536 0
M  V30 18740 H 1740.93 -2.40396 0.841531 0
M  V30 18741 H 1741.71 -2.34024 2.51173 0
M  V30 18742 N 1744.16 -0.784156 -1.36707 0
M  V30 18743 C 1745.38 -0.364744 -2.04168 0
M  V30 18744 C 1745.81 1.00905 -1.58745 0
M  V30 18745 O 1745.17 1.64903 -0.753447 0
M  V30 18746 C 1745.21 -0.43091 -3.58016 0
M  V30 18747 O 1744.32 0.564103 -4.08524 0
M  V30 18748 H 1743.66 -0.15576 -0.645473 0
M  V30 18749 H 1746.19 -1.0638 -1.74769 0
M  V30 18750 H 1746.2 -0.292629 -4.06949 0
M  V30 18751 H 1744.87 -1.43308 -3.9043 0
M  V30 18752 H 1743.45 0.387917 -3.70877 0
M  V30 18753 N 1745.64 1.48215 -0.535727 0
M  V30 18754 C 1746.91 1.95505 0.0609376 0
M  V30 18755 C 1747.29 1.47806 1.5072 0
M  V30 18756 O 1746.64 0.707142 2.17283 0
M  V30 18757 C 1746.85 3.48944 -0.0622609 0
M  V30 18758 C 1748.2 4.24496 0.0940805 0
M  V30 18759 O 1749.22 3.56198 0.0112532 0
M  V30 18760 O 1748.08 5.4584 0.268547 0
M  V30 18761 H 1745.18 0.82349 0.0761079 0
M  V30 18762 H 1747.72 1.58711 -0.600732 0
M  V30 18763 H 1746.49 3.76401 -1.06949 0
M  V30 18764 H 1746.12 3.92448 0.637999 0
M  V30 18765 N 1747.11 0.27113 1.5525 0
M  V30 18766 C 1748.08 -0.604946 2.21072 0
M  V30 18767 C 1749.08 -1.08438 1.18735 0
M  V30 18768 O 1750.27 -0.985192 1.43665 0
M  V30 18769 C 1747.4 -1.83416 2.87353 0
M  V30 18770 H 1748.59 -0.0302981 2.99885 0
M  V30 18771 H 1746.15 0.0217204 1.56285 0
M  V30 18772 H 1746.88 -2.44942 2.12542 0
M  V30 18773 H 1746.67 -1.49834 3.62343 0
M  V30 18774 H 1748.16 -2.45724 3.37653 0
M  V30 18775 N 1748.59 -1.576 -0.00164943 0
M  V30 18776 C 1750.01 -1.5554 -0.357706 0
M  V30 18777 C 1750.21 -1.00078 -1.74891 0
M  V30 18778 O 1749.26 -0.633864 -2.44414 0
M  V30 18779 C 1750.58 -2.99785 -0.234448 0
M  V30 18780 C 1752.13 -3.11466 -0.309509 0
M  V30 18781 C 1752.6 -4.57493 -0.215394 0
M  V30 18782 N 1754.09 -4.62393 -0.273345 0
M  V30 18783 C 1754.83 -5.72963 -0.223836 0
M  V30 18784 N 1754.32 -6.92687 -0.12502 0
M  V30 18785 N 1756.12 -5.61424 -0.27558 0
M  V30 18786 H 1748.27 -1.91992 0.908448 0
M  V30 18787 H 1750.53 -0.88179 0.348067 0
M  V30 18788 H 1750.24 -3.44195 0.722671 0
M  V30 18789 H 1750.11 -3.63226 -1.01718 0
M  V30 18790 H 1752.5 -2.66986 -1.25707 0
M  V30 18791 H 1752.58 -2.50805 0.503064 0
M  V30 18792 H 1752.22 -5.02647 0.728617 0
M  V30 18793 H 1752.15 -5.16098 -1.04643 0
M  V30 18794 H 1754.64 -3.76265 -0.351116 0
M  V30 18795 H 1754.96 -7.72744 -0.0930938 0
M  V30 18796 H 1753.3 -6.94941 -0.0906712 0
M  V30 18797 H 1756.49 -4.66782 -0.350963 0
M  V30 18798 H 1756.66 -6.47579 -0.233531 0
M  V30 18799 N 1750.07 0.274379 -1.55193 0
M  V30 18800 C 1751.3 1.02871 -1.8009 0
M  V30 18801 C 1751.72 1.79202 -0.571676 0
M  V30 18802 O 1751.08 1.74867 0.478679 0
M  V30 18803 C 1751.13 1.96406 -3.02418 0
M  V30 18804 O 1750.23 3.05154 -2.77408 0
M  V30 18805 H 1749.57 0.294181 -0.595276 0
M  V30 18806 H 1752.1 0.303708 -2.02333 0
M  V30 18807 H 1752.11 2.38385 -3.31114 0
M  V30 18808 H 1750.79 1.40261 -3.91535 0
M  V30 18809 H 1749.36 2.675 -2.59805 0
M  V30 18810 N 1751.55 1.48103 0.538828 0
M  V30 18811 C 1752.5 1.58369 1.64023 0
M  V30 18812 C 1753.48 0.44135 1.54729 0
M  V30 18813 O 1754.67 0.692305 1.62899 0
M  V30 18814 C 1751.8 1.61827 3.02765 0
M  V30 18815 C 1750.89 2.81509 3.17196 0
M  V30 18816 N 1751.28 4.06022 3.01629 0
M  V30 18817 C 1749.58 2.78656 3.48234 0
M  V30 18818 C 1750.28 4.86272 3.1924 0
M  V30 18819 N 1749.26 4.18926 3.46413 0
M  V30 18820 H 1753.06 2.52392 1.50583 0
M  V30 18821 H 1750.57 1.44352 0.744066 0
M  V30 18822 H 1752.57 1.67274 3.8187 0
M  V30 18823 H 1751.23 0.68913 3.17303 0
M  V30 18824 H 1752.24 4.36597 2.78574 0
M  V30 18825 H 1748.92 1.9496 3.69184 0
M  V30 18826 H 1750.31 5.95059 3.12017 0
M  V30 18827 N 1753.03 -0.787016 1.36542 0
M  V30 18828 C 1754.27 -1.54194 1.30647 0
M  V30 18829 C 1754.6 -1.94671 -0.113195 0
M  V30 18830 O 1753.87 -1.65131 -1.05397 0
M  V30 18831 H 1752.45 -0.571857 0.480613 0
M  V30 18832 H 1755.11 -0.93761 1.70865 0
M  V30 18833 H 1754.2 -2.4484 1.93545 0
M  V30 18834 N 1754.5 -1.20861 -1.01145 0
M  V30 18835 C 1755.73 -1.04843 -1.78949 0
M  V30 18836 C 1756.15 0.397676 -1.83848 0
M  V30 18837 O 1755.51 1.28663 -1.27733 0
M  V30 18838 C 1755.56 -1.64267 -3.21012 0
M  V30 18839 O 1754.66 -0.883773 -4.02819 0
M  V30 18840 H 1754.01 -0.36941 -0.551754 0
M  V30 18841 H 1756.54 -1.60266 -1.27185 0
M  V30 18842 H 1756.55 -1.68218 -3.71708 0
M  V30 18843 H 1755.22 -2.69509 -3.16761 0
M  V30 18844 H 1753.8 -0.918866 -3.61402 0
M  V30 18845 N 1755.98 1.20536 -1.01532 0
M  V30 18846 C 1757.39 1.71594 -0.735687 0
M  V30 18847 C 1757.74 1.81469 0.745873 0
M  V30 18848 O 1756.87 1.47638 1.58215 0
M  V30 18849 C 1757.46 3.11654 -1.3288 0
M  V30 18850 C 1756.02 3.60027 -1.09806 0
M  V30 18851 C 1755.17 2.37266 -1.43528 0
M  V30 18852 H 1758.12 1.05568 -1.18495 0
M  V30 18853 H 1758.14 3.7365 -0.718725 0
M  V30 18854 H 1757.65 3.04434 -2.4071 0
M  V30 18855 H 1755.76 3.72581 -0.0373763 0
M  V30 18856 H 1755.87 4.44918 -1.77722 0
M  V30 18857 H 1754.23 2.39947 -0.854268 0
M  V30 18858 H 1755.02 2.32688 -2.5241 0
M  V30 18859 N 1757.46 0.791395 1.36289 0
M  V30 18860 C 1758.42 0.197069 2.28351 0
M  V30 18861 C 1759.42 -0.606748 1.48913 0
M  V30 18862 O 1760.61 -0.427453 1.68874 0
M  V30 18863 C 1757.75 -0.727009 3.33058 0
M  V30 18864 H 1758.94 1.00885 2.82422 0
M  V30 18865 H 1756.49 0.560959 1.45887 0
M  V30 18866 H 1757.23 -1.56306 2.84146 0
M  V30 18867 H 1757.01 -0.152537 3.91803 0
M  V30 18868 H 1758.5 -1.13765 4.01805 0
M  V30 18869 N 1758.94 -1.47929 0.54358 0
M  V30 18870 C 1759.9 -2.28316 -0.201107 0
M  V30 18871 C 1760.9 -1.36165 -0.855313 0
M  V30 18872 O 1762.09 -1.58928 -0.71327 0
M  V30 18873 C 1759.22 -3.1545 -1.29245 0
M  V30 18874 H 1760.42 -2.9562 0.504848 0
M  V30 18875 H 1757.97 -1.53394 0.300011 0
M  V30 18876 H 1758.71 -2.52807 -2.03124 0
M  V30 18877 H 1758.49 -3.83251 -0.82832 0
M  V30 18878 H 1759.98 -3.76053 -1.81587 0
M  V30 18879 N 1760.42 -0.27936 -1.55104 0
M  V30 18880 C 1761.38 0.593214 -2.2139 0
M  V30 18881 C 1762.38 1.07807 -1.19308 0
M  V30 18882 O 1763.57 0.97756 -1.44185 0
M  V30 18883 C 1760.7 1.81889 -2.88321 0
M  V30 18884 H 1761.9 0.0143941 -2.99897 0
M  V30 18885 H 1759.45 -0.0300083 -1.56271 0
M  V30 18886 H 1760.18 2.43811 -2.13838 0
M  V30 18887 H 1759.97 1.4791 -3.63132 0
M  V30 18888 H 1761.46 2.4393 -3.38951 0
M  V30 18889 N 1761.9 1.57599 -0.0067085 0
M  V30 18890 C 1762.86 2.07783 0.967417 0
M  V30 18891 C 1763.86 0.988498 1.26828 0
M  V30 18892 O 1765.05 1.25091 1.21235 0
M  V30 18893 C 1762.18 2.52491 2.29044 0
M  V30 18894 H 1763.37 2.95122 0.533201 0
M  V30 18895 H 1760.93 1.54432 0.2409 0
M  V30 18896 H 1761.66 1.68415 2.77141 0
M  V30 18897 H 1761.45 3.32054 2.08525 0
M  V30 18898 H 1762.94 2.9162 2.98911 0
M  V30 18899 N 1763.37 -0.266145 1.55336 0
M  V30 18900 C 1764.34 -1.31242 1.87904 0
M  V30 18901 C 1765.34 -1.42022 0.754083 0
M  V30 18902 O 1766.53 -1.41054 1.02222 0
M  V30 18903 C 1763.66 -2.69285 2.09041 0
M  V30 18904 H 1764.85 -1.03592 2.81441 0
M  V30 18905 H 1762.4 -0.504537 1.47933 0
M  V30 18906 H 1763.14 -3.02106 1.17909 0
M  V30 18907 H 1762.92 -2.62846 2.90954 0
M  V30 18908 H 1764.41 -3.4487 2.35488 0
M  V30 18909 N 1764.85 -1.48386 -0.530967 0
M  V30 18910 C 1765.81 -1.62355 -1.61782 0
M  V30 18911 C 1766.81 -0.496909 -1.5293 0
M  V30 18912 O 1768 -0.762672 -1.56617 0
M  V30 18913 C 1765.14 -1.59282 -3.014 0
M  V30 18914 H 1766.33 -2.59265 -1.50737 0
M  V30 18915 H 1763.88 -1.36969 -0.752948 0
M  V30 18916 H 1764.62 -0.638453 -3.17953 0
M  V30 18917 H 1764.4 -2.41073 -3.09235 0
M  V30 18918 H 1765.89 -1.72248 -3.80421 0
M  V30 18919 N 1766.33 0.779763 -1.36958 0
M  V30 18920 C 1767.29 1.87439 -1.31906 0
M  V30 18921 C 1768.29 1.59222 -0.224739 0
M  V30 18922 O 1769.48 1.67453 -0.480109 0
M  V30 18923 C 1766.61 3.24419 -1.04716 0
M  V30 18924 H 1767.81 1.93333 -2.29265 0
M  V30 18925 H 1765.36 0.978634 -1.21871 0
M  V30 18926 H 1766.1 3.24205 -0.0785442 0
M  V30 18927 H 1765.88 3.4629 -1.83917 0
M  V30 18928 H 1767.37 4.04491 -1.0381 0
M  V30 18929 N 1767.81 1.21396 1.00503 0
M  V30 18930 C 1768.77 0.974756 2.07439 0
M  V30 18931 C 1769.77 -0.0542142 1.60709 0
M  V30 18932 O 1770.96 0.183056 1.73236 0
M  V30 18933 C 1768.09 0.46989 3.37646 0
M  V30 18934 H 1769.29 1.92346 2.30094 0
M  V30 18935 H 1766.84 1.03095 1.17479 0
M  V30 18936 H 1767.57 -0.483735 3.20672 0
M  V30 18937 H 1767.36 1.2121 3.72895 0
M  V30 18938 H 1768.85 0.322393 4.16354 0
M  V30 18939 N 1769.29 -1.19996 1.0217 0
M  V30 18940 C 1770.25 -2.21179 0.601036 0
M  V30 18941 C 1771.25 -1.57345 -0.331531 0
M  V30 18942 O 1772.44 -1.73789 -0.119521 0
M  V30 18943 C 1769.57 -3.40683 -0.121557 0
M  V30 18944 H 1770.76 -2.5991 1.49622 0
M  V30 18945 H 1768.32 -1.33548 0.812071 0
M  V30 18946 H 1769.05 -3.07461 -1.03142 0
M  V30 18947 H 1768.84 -3.88245 0.548448 0
M  V30 18948 H 1770.33 -4.1565 -0.403046 0
M  V30 18949 N 1770.76 -0.798611 -1.35867 0
M  V30 18950 C 1771.73 -0.209177 -2.28243 0
M  V30 18951 C 1772.73 0.598842 -1.49233 0
M  V30 18952 O 1773.92 0.418491 -1.69098 0
M  V30 18953 C 1771.05 0.709336 -3.33438 0
M  V30 18954 H 1772.24 -1.02382 -2.81883 0
M  V30 18955 H 1769.79 -0.568687 -1.45587 0
M  V30 18956 H 1770.53 1.54797 -2.84971 0
M  V30 18957 H 1770.31 0.131756 -3.91879 0
M  V30 18958 H 1771.8 1.11632 -4.02403 0
M  V30 18959 N 1772.24 1.47639 -0.551417 0
M  V30 18960 C 1773.49 2.02784 -0.0252425 0
M  V30 18961 C 1773.82 1.42549 1.31884 0
M  V30 18962 O 1773.1 0.578954 1.85684 0
M  V30 18963 C 1773.38 3.60024 0.0740051 0
M  V30 18964 C 1773.23 4.30702 -1.29676 0
M  V30 18965 C 1774.55 4.32946 0.790302 0
M  V30 18966 H 1771.67 0.736923 -0.0106473 0
M  V30 18967 H 1774.31 1.76131 -0.712589 0
M  V30 18968 H 1772.46 3.82863 0.65939 0
M  V30 18969 H 1774.13 4.1922 -1.9249 0
M  V30 18970 H 1772.38 3.91282 -1.87299 0
M  V30 18971 H 1773.05 5.39238 -1.18009 0
M  V30 18972 H 1775.52 4.15065 0.293326 0
M  V30 18973 H 1774.4 5.42608 0.828692 0
M  V30 18974 H 1774.66 4.01752 1.84521 0
M  V30 18975 N 1773.72 0.287581 1.54954 0
M  V30 18976 C 1774.68 -0.581465 2.21702 0
M  V30 18977 C 1775.68 -1.07172 1.19878 0
M  V30 18978 O 1776.87 -0.969899 1.44702 0
M  V30 18979 C 1774.01 -1.80358 2.89282 0
M  V30 18980 H 1775.2 0.00151035 2.999 0
M  V30 18981 H 1772.75 0.0382953 1.56253 0
M  V30 18982 H 1773.49 -2.42674 2.15128 0
M  V30 18983 H 1773.27 -1.45983 3.63911 0
M  V30 18984 H 1774.76 -2.42129 3.4024 0
M  V30 18985 N 1775.2 -1.57593 0.0150662 0
M  V30 18986 C 1776.16 -2.08293 -0.956385 0
M  V30 18987 C 1777.16 -0.99521 -1.26302 0
M  V30 18988 O 1778.35 -1.25732 -1.2057 0
M  V30 18989 C 1775.48 -2.53702 -2.27701 0
M  V30 18990 H 1776.68 -2.95401 -0.517543 0
M  V30 18991 H 1774.23 -1.54558 -0.232706 0
M  V30 18992 H 1774.96 -1.69882 -2.76244 0
M  V30 18993 H 1774.75 -3.33155 -2.06761 0
M  V30 18994 H 1776.24 -2.93201 -2.9736 0
M  V30 18995 N 1776.68 0.257904 -1.55475 0
M  V30 18996 C 1777.9 1.00955 -1.81171 0
M  V30 18997 C 1778.33 1.78586 -0.590651 0
M  V30 18998 O 1777.68 1.75365 0.460105 0
M  V30 18999 C 1777.73 1.93188 -3.04485 0
M  V30 19000 O 1776.84 3.02194 -2.80628 0
M  V30 19001 H 1776.18 0.28785 -0.598363 0
M  V30 19002 H 1778.71 0.28223 -2.02644 0
M  V30 19003 H 1778.72 2.3486 -3.33624 0
M  V30 19004 H 1777.39 1.361 -3.93001 0
M  V30 19005 H 1775.97 2.64729 -2.62627 0
M  V30 19006 N 1778.15 1.48666 0.52309 0
M  V30 19007 C 1779.57 1.34939 0.852268 0
M  V30 19008 C 1779.77 0.365638 1.98155 0
M  V30 19009 O 1778.83 -0.210671 2.5162 0
M  V30 19010 C 1780.14 2.75136 1.21329 0
M  V30 19011 C 1781.69 2.83675 1.32278 0
M  V30 19012 C 1782.16 4.24589 1.71721 0
M  V30 19013 N 1783.65 4.27295 1.78811 0
M  V30 19014 C 1784.39 5.33274 2.10729 0
M  V30 19015 N 1783.88 6.49523 2.41023 0
M  V30 19016 N 1785.68 5.20673 2.11793 0
M  V30 19017 H 1777.83 2.11237 -0.221919 0
M  V30 19018 H 1780.09 0.947291 -0.0366525 0
M  V30 19019 H 1779.8 3.48717 0.457065 0
M  V30 19020 H 1779.67 3.091 2.16187 0
M  V30 19021 H 1782.06 2.10345 2.06976 0
M  V30 19022 H 1782.14 2.53321 0.355248 0
M  V30 19023 H 1781.78 4.98438 0.975805 0
M  V30 19024 H 1781.71 4.52391 2.69536 0
M  V30 19025 H 1784.2 3.43447 1.57648 0
M  V30 19026 H 1784.52 7.26125 2.64503 0
M  V30 19027 H 1782.86 6.52786 2.38528 0
M  V30 19028 H 1786.05 4.28869 1.87588 0
M  V30 19029 H 1786.23 6.03365 2.36336 0
M  V30 19030 N 1779.63 -0.772489 1.37369 0
M  V30 19031 C 1781.04 -1.34873 1.29098 0
M  V30 19032 C 1781.39 -1.96103 -0.0617433 0
M  V30 19033 O 1780.52 -1.93764 -0.963562 0
M  V30 19034 C 1781.11 -2.45218 2.33781 0
M  V30 19035 C 1779.67 -2.98612 2.29146 0
M  V30 19036 C 1778.82 -1.71823 2.17651 0
M  V30 19037 H 1781.77 -0.572805 1.48002 0
M  V30 19038 H 1781.79 -3.24679 1.98404 0
M  V30 19039 H 1781.3 -2.00624 3.32222 0
M  V30 19040 H 1779.41 -3.47583 1.34225 0
M  V30 19041 H 1779.52 -3.54276 3.22529 0
M  V30 19042 H 1777.88 -1.94719 1.64185 0
M  V30 19043 H 1778.67 -1.29334 3.18006 0
M  V30 19044 N 1781.11 -1.21927 -0.998575 0
M  V30 19045 C 1782.34 -1.06735 -1.77827 0
M  V30 19046 C 1782.76 0.378154 -1.8426 0
M  V30 19047 O 1782.12 1.27301 -1.2909 0
M  V30 19048 C 1782.17 -1.67662 -3.19252 0
M  V30 19049 O 1781.27 -0.926448 -4.01859 0
M  V30 19050 H 1780.61 -0.375241 -0.547805 0
M  V30 19051 H 1783.14 -1.61605 -1.25478 0
M  V30 19052 H 1783.15 -1.72151 -3.69903 0
M  V30 19053 H 1781.83 -2.72854 -3.13885 0
M  V30 19054 H 1780.4 -0.957145 -3.60407 0
M  V30 19055 N 1782.59 1.19452 -1.02805 0
M  V30 19056 C 1784 1.70804 -0.753845 0
M  V30 19057 C 1784.35 1.8225 0.726584 0
M  V30 19058 O 1783.48 1.49307 1.56641 0
M  V30 19059 C 1784.07 3.10227 -1.36178 0
M  V30 19060 C 1782.63 3.58842 -1.13618 0
M  V30 19061 C 1781.78 2.3573 -1.46036 0
M  V30 19062 H 1784.73 1.04305 -1.19608 0
M  V30 19063 H 1784.75 3.72867 -0.758315 0
M  V30 19064 H 1784.26 3.01864 -2.43925 0
M  V30 19065 H 1782.36 3.72521 -0.0768914 0
M  V30 19066 H 1782.47 4.43008 -1.82431 0
M  V30 19067 H 1780.84 2.39027 -0.879669 0
M  V30 19068 H 1781.62 2.29998 -2.54864 0
M  V30 19069 N 1784.07 0.805805 1.35442 0
M  V30 19070 C 1785.29 0.397179 2.03561 0
M  V30 19071 C 1785.72 -0.983665 1.6033 0
M  V30 19072 O 1785.07 -1.63683 0.779586 0
M  V30 19073 C 1785.12 0.487813 3.57285 0
M  V30 19074 O 1784.23 -0.499039 4.09369 0
M  V30 19075 H 1783.57 0.166009 0.642913 0
M  V30 19076 H 1786.1 1.09147 1.73055 0
M  V30 19077 H 1786.11 0.357334 4.06432 0
M  V30 19078 H 1784.78 1.49501 3.88101 0
M  V30 19079 H 1783.36 -0.328864 3.71447 0
M  V30 19080 N 1785.54 -1.47344 0.559239 0
M  V30 19081 C 1786.79 -2.02068 0.035872 0
M  V30 19082 C 1787.11 -1.43573 -1.31953 0
M  V30 19083 O 1786.38 -0.611672 -1.86106 0
M  V30 19084 H 1784.96 -0.746929 0.0102713 0
M  V30 19085 H 1787.63 -1.80724 0.729707 0
M  V30 19086 H 1786.72 -3.12059 -0.0507123 0
M  V30 19087 N 1787.02 -0.295795 -1.54799 0
M  V30 19088 C 1788.27 0.314384 -1.9964 0
M  V30 19089 C 1788.59 1.5481 -1.1857 0
M  V30 19090 O 1787.86 1.93884 -0.280353 0
M  V30 19091 H 1786.44 0.119153 -0.737436 0
M  V30 19092 H 1789.1 -0.40592 -1.90626 0
M  V30 19093 H 1788.2 0.59002 -3.06472 0
M  V30 19094 N 1788.5 1.57583 -0.0234236 0
M  V30 19095 C 1789.78 1.82844 0.694787 0
M  V30 19096 C 1790.16 0.906142 1.90663 0
M  V30 19097 O 1789.51 -0.039621 2.28466 0
M  V30 19098 C 1789.72 3.31921 1.07839 0
M  V30 19099 C 1791.06 3.98252 1.47243 0
M  V30 19100 O 1792.09 3.36383 1.17154 0
M  V30 19101 O 1790.95 5.07284 2.03285 0
M  V30 19102 H 1788.04 0.753723 0.340339 0
M  V30 19103 H 1790.59 1.69624 -0.0506703 0
M  V30 19104 H 1789.36 3.90705 0.215641 0
M  V30 19105 H 1788.98 3.50227 1.8822 0
M  V30 19106 N 1789.98 -0.249655 1.5561 0
M  V30 19107 C 1791.2 -0.999931 1.81703 0
M  V30 19108 C 1791.63 -1.7827 0.600113 0
M  V30 19109 O 1790.99 -1.75606 -0.450799 0
M  V30 19110 C 1791.04 -1.9157 3.05505 0
M  V30 19111 O 1790.14 -3.00702 2.82227 0
M  V30 19112 H 1789.48 -0.284673 0.599881 0
M  V30 19113 H 1792.01 -0.27148 2.02791 0
M  V30 19114 H 1792.02 -2.33088 3.34864 0
M  V30 19115 H 1790.7 -1.34014 3.93717 0
M  V30 19116 H 1789.27 -2.63332 2.64027 0
M  V30 19117 N 1791.46 -1.48941 -0.515198 0
M  V30 19118 C 1792.7 -1.57943 -1.27207 0
M  V30 19119 C 1793.04 -0.259011 -1.92465 0
M  V30 19120 O 1792.31 0.736277 -1.80026 0
M  V30 19121 C 1792.59 -2.72846 -2.35005 0
M  V30 19122 C 1792.45 -4.14639 -1.74341 0
M  V30 19123 C 1793.77 -2.83444 -3.36672 0
M  V30 19124 H 1790.89 -0.574909 -0.461138 0
M  V30 19125 H 1793.53 -1.81172 -0.572413 0
M  V30 19126 H 1791.68 -2.5317 -2.94681 0
M  V30 19127 H 1793.35 -4.45793 -1.18602 0
M  V30 19128 H 1791.59 -4.20948 -1.0481 0
M  V30 19129 H 1792.26 -4.90883 -2.52463 0
M  V30 19130 H 1794.74 -3.01311 -2.86969 0
M  V30 19131 H 1793.62 -3.65542 -4.09475 0
M  V30 19132 H 1793.88 -1.92208 -3.98131 0
M  V30 19133 N 1792.94 0.765193 -1.37777 0
M  V30 19134 C 1793.87 1.89247 -1.36777 0
M  V30 19135 C 1794.85 1.68463 -0.235389 0
M  V30 19136 O 1796.03 1.89225 -0.436733 0
M  V30 19137 C 1793.16 3.2662 -1.18053 0
M  V30 19138 C 1792.12 3.61981 -2.28372 0
M  V30 19139 C 1791.44 4.97967 -1.94765 0
M  V30 19140 C 1792.74 3.68053 -3.70587 0
M  V30 19141 H 1794.44 1.90341 -2.31108 0
M  V30 19142 H 1791.98 0.914355 -1.11245 0
M  V30 19143 H 1793.93 4.05125 -1.15982 0
M  V30 19144 H 1792.66 3.25976 -0.201803 0
M  V30 19145 H 1791.32 2.85788 -2.2961 0
M  V30 19146 H 1790.97 4.93869 -0.954052 0
M  V30 19147 H 1790.67 5.22594 -2.68642 0
M  V30 19148 H 1792.19 5.78864 -1.94292 0
M  V30 19149 H 1793.6 4.36696 -3.71443 0
M  V30 19150 H 1792 4.04183 -4.43572 0
M  V30 19151 H 1793.07 2.68556 -4.03739 0
M  V30 19152 N 1794.41 1.22455 0.992094 0
M  V30 19153 C 1795.82 1.04629 1.54627 0
M  V30 19154 C 1796.18 -0.390011 1.92285 0
M  V30 19155 O 1795.3 -1.27511 1.74842 0
M  V30 19156 C 1795.9 1.89306 2.80978 0
M  V30 19157 C 1794.45 1.75775 3.32836 0
M  V30 19158 C 1793.6 1.85724 2.05917 0
M  V30 19159 H 1796.55 1.36288 0.813089 0
M  V30 19160 H 1796.57 1.41095 3.53373 0
M  V30 19161 H 1796.09 2.93836 2.53539 0
M  V30 19162 H 1794.19 0.739821 3.65181 0
M  V30 19163 H 1794.3 2.58491 4.03385 0
M  V30 19164 H 1792.66 1.29173 2.19514 0
M  V30 19165 H 1793.45 2.91787 1.80874 0
M  V30 19166 N 1795.89 -1.18905 1.03437 0
M  V30 19167 C 1796.84 -2.22318 0.619933 0
M  V30 19168 C 1797.81 -1.61948 -0.369056 0
M  V30 19169 O 1798.99 -1.88958 -0.26447 0
M  V30 19170 C 1796.13 -3.45096 -0.0174579 0
M  V30 19171 C 1795.25 -4.19829 1.01823 0
M  V30 19172 C 1794.38 -5.30046 0.350026 0
M  V30 19173 C 1793.42 -5.96543 1.37125 0
M  V30 19174 N 1792.56 -6.98311 0.728458 0
M  V30 19175 H 1797.4 -2.57125 1.50634 0
M  V30 19176 H 1794.93 -1.26324 0.753695 0
M  V30 19177 H 1796.89 -4.15236 -0.404294 0
M  V30 19178 H 1795.52 -3.10927 -0.867412 0
M  V30 19179 H 1794.57 -3.48578 1.52308 0
M  V30 19180 H 1795.89 -4.65415 1.79416 0
M  V30 19181 H 1795.04 -6.06631 -0.0913585 0
M  V30 19182 H 1793.78 -4.85544 -0.458049 0
M  V30 19183 H 1792.78 -5.18703 1.82284 0
M  V30 19184 H 1794.01 -6.43127 2.18091 0
M  V30 19185 H 1791.96 -6.55973 -0.0594251 0
M  V30 19186 H 1791.87 -7.42117 1.44218 0
M  V30 19187 H 1793.14 -7.78878 0.311259 0
M  V30 19188 N 1797.37 -0.812977 -1.35013 0
M  V30 19189 C 1798.59 -0.407969 -2.03348 0
M  V30 19190 C 1799.02 0.975148 -1.60849 0
M  V30 19191 O 1798.38 1.63267 -0.788256 0
M  V30 19192 C 1798.43 -0.506754 -3.57022 0
M  V30 19193 O 1797.53 0.477322 -4.09628 0
M  V30 19194 H 1796.87 -0.169416 -0.642023 0
M  V30 19195 H 1799.4 -1.10064 -1.72474 0
M  V30 19196 H 1799.41 -0.378883 -4.06237 0
M  V30 19197 H 1798.09 -1.51557 -3.87302 0
M  V30 19198 H 1796.66 0.309161 -3.71616 0
M  V30 19199 N 1798.85 1.47045 -0.567045 0
M  V30 19200 C 1800.1 2.01651 -0.044479 0
M  V30 19201 C 1800.41 1.44583 1.31738 0
M  V30 19202 O 1801.62 1.90911 1.93042 0
M  V30 19203 C 1800.07 3.59888 -0.0289854 0
M  V30 19204 C 1799.68 4.25949 -1.38821 0
M  V30 19205 C 1801.42 4.22209 0.440457 0
M  V30 19206 C 1799.33 5.76221 -1.33129 0
M  V30 19207 H 1798.26 0.75389 -0.012858 0
M  V30 19208 H 1800.91 1.68939 -0.716363 0
M  V30 19209 H 1799.29 3.89606 0.708747 0
M  V30 19210 H 1800.47 4.07861 -2.14443 0
M  V30 19211 H 1798.78 3.75658 -1.79639 0
M  V30 19212 H 1801.38 5.32342 0.501592 0
M  V30 19213 H 1801.72 3.9006 1.45461 0
M  V30 19214 H 1802.26 3.97059 -0.242721 0
M  V30 19215 H 1798.99 6.13005 -2.32175 0
M  V30 19216 H 1798.51 5.96618 -0.617023 0
M  V30 19217 H 1800.19 6.38627 -1.03752 0
M  V30 19218 N 1800.33 0.304 1.5464 0
M  V30 19219 C 1801.55 -0.309709 2.05075 0
M  V30 19220 C 1801.98 -1.46509 1.1797 0
M  V30 19221 O 1801.33 -1.80359 0.184437 0
M  V30 19222 C 1801.38 -0.740734 3.5291 0
M  V30 19223 O 1800.49 -1.8452 3.68817 0
M  V30 19224 H 1799.83 -0.0596065 0.661319 0
M  V30 19225 H 1802.36 0.446718 1.99664 0
M  V30 19226 H 1802.37 -1.02873 3.94818 0
M  V30 19227 H 1801.04 0.104422 4.15769 0
M  V30 19228 H 1799.62 -1.55753 3.38815 0
M  V30 19229 N 1801.8 -1.57568 0.0317802 0
M  V30 19230 C 1803.03 -1.9662 -0.659953 0
M  V30 19231 C 1803.45 -0.908334 -1.64715 0
M  V30 19232 O 1802.81 0.130491 -1.8083 0
M  V30 19233 C 1802.86 -3.34765 -1.34033 0
M  V30 19234 O 1801.96 -3.31317 -2.45566 0
M  V30 19235 H 1801.3 -0.641024 -0.17316 0
M  V30 19236 H 1803.83 -2.04382 0.0944231 0
M  V30 19237 H 1803.84 -3.71056 -1.69651 0
M  V30 19238 H 1802.52 -4.11302 -0.616716 0
M  V30 19239 H 1801.1 -3.06746 -2.1204 0
M  V30 19240 N 1803.28 0.241399 -1.5574 0
M  V30 19241 C 1804.25 1.28236 -1.89969 0
M  V30 19242 C 1805.25 1.40804 -0.776582 0
M  V30 19243 O 1806.44 1.3941 -1.04453 0
M  V30 19244 C 1803.57 2.65926 -2.13299 0
M  V30 19245 H 1804.76 0.991011 -2.83053 0
M  V30 19246 H 1802.31 0.480939 -1.48717 0
M  V30 19247 H 1803.05 3.00192 -1.22701 0
M  V30 19248 H 1802.83 2.58184 -2.95099 0
M  V30 19249 H 1804.32 3.4108 -2.40944 0
M  V30 19250 N 1804.76 1.49212 0.507292 0
M  V30 19251 C 1805.71 1.61812 1.60626 0
M  V30 19252 C 1806.69 0.474071 1.53758 0
M  V30 19253 O 1807.89 0.726703 1.61394 0
M  V30 19254 C 1805.02 1.68213 2.99265 0
M  V30 19255 C 1804.1 2.88174 3.11153 0
M  V30 19256 N 1804.49 4.12328 2.92949 0
M  V30 19257 C 1802.79 2.8598 3.42245 0
M  V30 19258 C 1803.49 4.92935 3.08853 0
M  V30 19259 N 1802.47 4.2618 3.37449 0
M  V30 19260 H 1806.27 2.5553 1.45196 0
M  V30 19261 H 1803.78 1.45898 0.71328 0
M  V30 19262 H 1805.78 1.75336 3.78236 0
M  V30 19263 H 1804.44 0.756279 3.1577 0
M  V30 19264 H 1805.45 4.42408 2.6925 0
M  V30 19265 H 1802.13 2.02748 3.64965 0
M  V30 19266 H 1803.52 6.01543 2.99324 0
M  V30 19267 N 1806.24 -0.757876 1.38181 0
M  V30 19268 C 1807.52 -1.50715 1.24677 0
M  V30 19269 C 1807.9 -2.1054 -0.153689 0
M  V30 19270 O 1807.24 -1.96703 -1.16276 0
M  V30 19271 C 1807.45 -2.57695 2.3536 0
M  V30 19272 C 1808.8 -3.24716 2.73578 0
M  V30 19273 O 1809.83 -2.67997 2.3464 0
M  V30 19274 O 1808.68 -4.27294 3.40709 0
M  V30 19275 H 1805.78 -0.668175 0.487311 0
M  V30 19276 H 1808.32 -0.793653 1.49997 0
M  V30 19277 H 1807.1 -2.11706 3.29084 0
M  V30 19278 H 1806.72 -3.36629 2.11581 0
M  V30 19279 N 1807.72 -1.22979 -0.985586 0
M  V30 19280 C 1808.94 -1.0853 -1.7615 0
M  V30 19281 C 1809.36 0.36363 -1.85265 0
M  V30 19282 O 1808.72 1.25173 -1.32808 0
M  V30 19283 C 1808.77 -1.69872 -3.19101 0
M  V30 19284 O 1808.49 -3.09098 -3.10467 0
M  V30 19285 C 1809.99 -1.60795 -4.1311 0
M  V30 19286 H 1807.21 -0.380086 -0.55297 0
M  V30 19287 H 1809.75 -1.62724 -1.2386 0
M  V30 19288 H 1807.91 -1.19724 -3.68436 0
M  V30 19289 H 1808.32 -3.38769 -4.00419 0
M  V30 19290 H 1809.8 -2.08428 -5.11138 0
M  V30 19291 H 1810.27 -0.565817 -4.3554 0
M  V30 19292 H 1810.88 -2.10284 -3.69676 0
M  V30 19293 N 1809.19 1.18355 -1.04066 0
M  V30 19294 C 1810.61 1.40349 -0.759898 0
M  V30 19295 C 1810.81 1.90709 0.650574 0
M  V30 19296 O 1809.87 2.09142 1.41477 0
M  V30 19297 C 1811.18 2.40426 -1.80599 0
M  V30 19298 C 1812.73 2.54153 -1.8269 0
M  V30 19299 C 1813.2 3.57494 -2.8629 0
M  V30 19300 N 1814.69 3.65001 -2.85181 0
M  V30 19301 C 1815.43 4.44688 -3.61995 0
M  V30 19302 N 1814.92 5.27984 -4.48559 0
M  V30 19303 N 1816.72 4.39451 -3.50484 0
M  V30 19304 H 1808.87 0.839924 -1.95087 0
M  V30 19305 H 1811.13 0.431492 -0.844108 0
M  V30 19306 H 1810.84 2.10471 -2.81771 0
M  V30 19307 H 1810.71 3.39773 -1.63812 0
M  V30 19308 H 1813.1 2.83424 -0.821889 0
M  V30 19309 H 1813.18 1.54919 -2.03553 0
M  V30 19310 H 1812.82 3.28963 -3.8697 0
M  V30 19311 H 1812.75 4.56405 -2.62682 0
M  V30 19312 H 1815.24 3.05522 -2.22407 0
M  V30 19313 H 1815.56 5.85939 -5.0388 0
M  V30 19314 H 1813.9 5.27404 -4.52626 0
M  V30 19315 H 1817.09 3.73426 -2.8226 0
M  V30 19316 H 1817.27 5.01313 -4.10596 0
M  V30 19317 N 1810.67 0.820125 1.3458 0
M  V30 19318 C 1811.92 0.406067 1.97979 0
M  V30 19319 C 1812.24 -1.03366 1.65349 0
M  V30 19320 O 1811.51 -1.71721 0.942798 0
M  V30 19321 H 1810.09 0.147162 0.732361 0
M  V30 19322 H 1812.75 1.04895 1.64265 0
M  V30 19323 H 1811.85 0.52279 3.0769 0
M  V30 19324 N 1812.15 -1.46743 0.574835 0
M  V30 19325 C 1813.38 -2.07311 0.0608779 0
M  V30 19326 C 1813.8 -1.422 -1.23129 0
M  V30 19327 O 1813.16 -0.503042 -1.74181 0
M  V30 19328 C 1813.21 -3.60462 -0.0996676 0
M  V30 19329 O 1812.31 -3.95806 -1.15808 0
M  V30 19330 H 1811.65 -0.661351 0.0592542 0
M  V30 19331 H 1814.18 -1.885 0.795538 0
M  V30 19332 H 1814.19 -4.06833 -0.308329 0
M  V30 19333 H 1812.87 -4.07246 0.844018 0
M  V30 19334 H 1811.44 -3.61155 -0.928504 0
M  V30 19335 N 1813.63 -0.312197 -1.54477 0
M  V30 19336 C 1814.85 0.298829 -2.05236 0
M  V30 19337 C 1815.28 1.45881 -1.18745 0
M  V30 19338 O 1814.64 1.80259 -0.193999 0
M  V30 19339 C 1814.68 0.722008 -3.53298 0
M  V30 19340 O 1813.79 1.82562 -3.6979 0
M  V30 19341 H 1813.13 0.0560985 -0.661626 0
M  V30 19342 H 1815.66 -0.4573 -1.99424 0
M  V30 19343 H 1815.67 1.00777 -3.95358 0
M  V30 19344 H 1814.34 -0.12647 -4.15708 0
M  V30 19345 H 1812.92 1.53954 -3.39636 0
M  V30 19346 N 1815.11 1.57549 -0.040136 0
M  V30 19347 C 1816.35 1.92535 0.637037 0
M  V30 19348 C 1816.69 0.917836 1.71141 0
M  V30 19349 O 1815.96 -0.057824 1.94414 0
M  V30 19350 C 1816.24 3.37955 1.24333 0
M  V30 19351 C 1816.1 4.49449 0.177761 0
M  V30 19352 C 1817.42 3.8355 2.15818 0
M  V30 19353 H 1814.53 0.700157 0.230107 0
M  V30 19354 H 1817.18 1.89739 -0.0996468 0
M  V30 19355 H 1815.33 3.40468 1.87119 0
M  V30 19356 H 1817 4.59065 -0.453507 0
M  V30 19357 H 1815.24 4.30961 -0.495486 0
M  V30 19358 H 1815.91 5.48256 0.641792 0
M  V30 19359 H 1818.39 3.82842 1.63006 0
M  V30 19360 H 1817.26 4.85974 2.55188 0
M  V30 19361 H 1817.53 3.19678 3.05382 0
M  V30 19362 N 1816.58 -0.233136 1.55866 0
M  V30 19363 C 1818 -0.801092 1.6864 0
M  V30 19364 C 1818.35 -1.85465 0.640081 0
M  V30 19365 O 1817.47 -2.15368 -0.211038 0
M  V30 19366 C 1818.07 -1.45984 3.05735 0
M  V30 19367 C 1816.63 -1.97533 3.20403 0
M  V30 19368 C 1815.77 -0.831321 2.64546 0
M  V30 19369 H 1818.72 -0.00868708 1.58698 0
M  V30 19370 H 1818.74 -2.32832 3.00948 0
M  V30 19371 H 1818.26 -0.692805 3.81866 0
M  V30 19372 H 1816.36 -2.77074 2.4912 0
M  V30 19373 H 1816.47 -2.16326 4.27481 0
M  V30 19374 H 1814.83 -1.23554 2.22725 0
M  V30 19375 H 1815.62 -0.0771465 3.43213 0
M  V30 19376 N 1818.06 -1.49479 -0.499372 0
M  V30 19377 C 1818.97 -1.69006 -1.62709 0
M  V30 19378 C 1819.99 -0.572681 -1.64306 0
M  V30 19379 O 1821.17 -0.847586 -1.82696 0
M  V30 19380 C 1818.23 -1.75382 -2.99069 0
M  V30 19381 C 1817.29 -2.98968 -3.08086 0
M  V30 19382 C 1816.52 -3.0503 -4.37941 0
M  V30 19383 O 1816.75 -2.18641 -5.26832 0
M  V30 19384 O 1815.68 -3.97507 -4.51964 0
M  V30 19385 H 1819.51 -2.64544 -1.49164 0
M  V30 19386 H 1817.09 -1.3324 -0.675836 0
M  V30 19387 H 1818.97 -1.81919 -3.8011 0
M  V30 19388 H 1817.65 -0.830226 -3.12872 0
M  V30 19389 H 1816.56 -2.97947 -2.26227 0
M  V30 19390 H 1817.89 -3.90812 -2.9921 0
M  V30 19391 N 1819.54 0.750537 -1.38581 0
M  V30 19392 C 1820.49 1.88571 -1.36176 0
M  V30 19393 C 1821.48 1.67587 -0.247175 0
M  V30 19394 O 1822.69 1.75118 -0.416377 0
M  V30 19395 H 1819.06 0.620468 -0.424881 0
M  V30 19396 H 1821.04 1.87716 -2.3196 0
M  V30 19397 C 1819.78 3.26088 -1.20673 0
M  V30 19398 H 1819.11 3.42822 -2.05701 0
M  V30 19399 H 1820.55 4.05754 -1.23044 0
M  V30 19400 C 1819.01 3.3679 0.0861189 0
M  V30 19401 O 1819.54 3.87407 1.06203 0
M  V30 19402 N 1817.74 2.90243 0.143977 0
M  V30 19403 H 1817.29 2.49242 -0.650869 0
M  V30 19404 H 1817.25 2.97784 1.00857 0
M  V30 19405 N 1821.02 1.235 0.979051 0
M  V30 19406 C 1822.3 0.976124 1.69503 0
M  V30 19407 C 1822.68 -0.504883 2.04974 0
M  V30 19408 O 1822.02 -1.47642 1.74397 0
M  V30 19409 C 1822.23 1.8877 2.93542 0
M  V30 19410 C 1823.58 2.15196 3.66027 0
M  V30 19411 O 1824.61 1.8633 3.03578 0
M  V30 19412 O 1823.47 2.64157 4.78417 0
M  V30 19413 H 1820.56 0.36825 0.740487 0
M  V30 19414 H 1823.11 1.34549 1.03415 0
M  V30 19415 H 1821.88 2.88882 2.63937 0
M  V30 19416 H 1821.5 1.52079 3.67366 0
M  V30 19417 N 1822.5 -1.17802 1.04693 0
M  V30 19418 C 1823.91 -1.39944 0.76733 0
M  V30 19419 C 1824.11 -1.91051 -0.640451 0
M  V30 19420 O 1823.17 -2.09889 -1.40366 0
M  V30 19421 C 1824.48 -2.39465 1.81871 0
M  V30 19422 C 1826.03 -2.5318 1.84035 0
M  V30 19423 C 1826.51 -3.55971 2.88182 0
M  V30 19424 N 1828 -3.63484 2.87113 0
M  V30 19425 C 1828.73 -4.42762 3.64348 0
M  V30 19426 N 1828.23 -5.25597 4.51353 0
M  V30 19427 N 1830.02 -4.37586 3.52809 0
M  V30 19428 H 1822.17 -0.829567 1.9553 0
M  V30 19429 H 1824.43 -0.427009 0.846385 0
M  V30 19430 H 1824.14 -2.08974 2.82883 0
M  V30 19431 H 1824.01 -3.38899 1.65612 0
M  V30 19432 H 1826.4 -2.82984 0.836908 0
M  V30 19433 H 1826.48 -1.53837 2.04371 0
M  V30 19434 H 1826.13 -3.26906 3.88709 0
M  V30 19435 H 1826.06 -4.55006 2.65099 0
M  V30 19436 H 1828.55 -3.04338 2.24024 0
M  V30 19437 H 1828.86 -5.83258 5.06981 0
M  V30 19438 H 1827.21 -5.24996 4.55417 0
M  V30 19439 H 1830.4 -3.71924 2.84236 0
M  V30 19440 H 1830.57 -4.99128 4.13249 0
M  V30 19441 N 1823.98 -0.827251 -1.34143 0
M  V30 19442 C 1824.91 -0.267015 -2.31968 0
M  V30 19443 C 1825.89 0.618906 -1.58441 0
M  V30 19444 O 1827.07 0.544882 -1.86399 0
M  V30 19445 C 1824.2 0.568379 -3.42617 0
M  V30 19446 C 1823.16 -0.220767 -4.2743 0
M  V30 19447 C 1822.48 0.737643 -5.29587 0
M  V30 19448 C 1823.78 -1.43137 -5.02304 0
M  V30 19449 H 1825.48 -1.08436 -2.79073 0
M  V30 19450 H 1823.02 -0.522879 -1.34171 0
M  V30 19451 H 1824.97 0.970525 -4.10072 0
M  V30 19452 H 1823.7 1.41882 -2.94172 0
M  V30 19453 H 1822.36 -0.604333 -3.61585 0
M  V30 19454 H 1822.01 1.58416 -4.77403 0
M  V30 19455 H 1821.71 0.213815 -5.87211 0
M  V30 19456 H 1823.23 1.13755 -5.9991 0
M  V30 19457 H 1824.64 -1.10301 -5.62589 0
M  V30 19458 H 1823.04 -1.89115 -5.69522 0
M  V30 19459 H 1824.11 -2.2073 -4.31748 0
M  V30 19460 N 1825.45 1.46436 -0.582609 0
M  V30 19461 C 1826.42 2.28769 0.140502 0
M  V30 19462 C 1827.42 1.38385 0.818911 0
M  V30 19463 O 1828.61 1.60763 0.670882 0
M  V30 19464 C 1825.74 3.18765 1.20836 0
M  V30 19465 H 1826.93 2.94178 -0.583049 0
M  V30 19466 H 1824.48 1.52544 -0.340575 0
M  V30 19467 H 1825.22 2.58103 1.9635 0
M  V30 19468 H 1825 3.85312 0.726417 0
M  V30 19469 H 1826.49 3.80735 1.71553 0
M  V30 19470 N 1826.93 0.320385 1.54309 0
M  V30 19471 C 1828.16 -0.28794 2.05391 0
M  V30 19472 C 1828.58 -1.45249 1.19517 0
M  V30 19473 O 1827.94 -1.80154 0.203556 0
M  V30 19474 C 1827.99 -0.703261 3.53676 0
M  V30 19475 O 1827.09 -1.80598 3.70753 0
M  V30 19476 H 1826.43 -0.052589 0.661914 0
M  V30 19477 H 1828.96 0.46787 1.99179 0
M  V30 19478 H 1828.97 -0.986793 3.95887 0
M  V30 19479 H 1827.65 0.148514 4.15635 0
M  V30 19480 H 1826.22 -1.5215 3.40448 0
M  V30 19481 N 1828.41 -1.57525 0.0484906 0
M  V30 19482 C 1829.66 -1.91761 -0.625335 0
M  V30 19483 C 1829.97 -0.928421 -1.72162 0
M  V30 19484 O 1831.18 -1.16273 -2.45342 0
M  V30 19485 C 1829.63 -3.40571 -1.1636 0
M  V30 19486 C 1829.24 -4.47889 -0.0995687 0
M  V30 19487 C 1830.99 -3.83845 -1.81282 0
M  V30 19488 C 1828.89 -5.87811 -0.650563 0
M  V30 19489 H 1827.82 -0.71567 -0.237346 0
M  V30 19490 H 1830.47 -1.83127 0.116944 0
M  V30 19491 H 1828.86 -3.44201 -1.95811 0
M  V30 19492 H 1830.03 -4.55846 0.673904 0
M  V30 19493 H 1828.34 -4.13939 0.452038 0
M  V30 19494 H 1830.94 -4.8575 -2.23497 0
M  V30 19495 H 1831.28 -3.19947 -2.66345 0
M  V30 19496 H 1831.82 -3.8272 -1.08491 0
M  V30 19497 H 1828.56 -6.55299 0.162371 0
M  V30 19498 H 1828.08 -5.83422 -1.39208 0
M  V30 19499 H 1829.76 -6.36979 -1.1343 0
M  V30 19500 N 1829.89 0.224867 -1.55988 0
M  V30 19501 C 1830.85 1.26214 -1.91318 0
M  V30 19502 C 1831.85 1.39973 -0.791472 0
M  V30 19503 O 1833.04 1.38295 -1.05926 0
M  V30 19504 C 1830.17 2.63648 -2.16107 0
M  V30 19505 H 1831.37 0.960933 -2.84088 0
M  V30 19506 H 1828.92 0.465138 -1.49218 0
M  V30 19507 H 1829.65 2.98873 -1.25878 0
M  V30 19508 H 1829.44 2.5504 -2.97821 0
M  V30 19509 H 1830.93 3.38505 -2.44548 0
M  V30 19510 N 1831.37 1.49742 0.491438 0
M  V30 19511 C 1832.33 1.66587 1.57421 0
M  V30 19512 C 1833.33 0.537281 1.51558 0
M  V30 19513 O 1834.52 0.803928 1.5454 0
M  V30 19514 C 1831.65 1.67217 2.97071 0
M  V30 19515 H 1832.84 2.63171 1.4381 0
M  V30 19516 H 1830.4 1.38917 0.716368 0
M  V30 19517 H 1831.13 0.722529 3.16149 0
M  V30 19518 H 1830.92 2.49187 3.02734 0
M  V30 19519 H 1832.41 1.82274 3.75721 0
M  V30 19520 N 1832.84 -0.743177 1.38977 0
M  V30 19521 C 1833.75 -1.88767 1.39299 0
M  V30 19522 C 1834.77 -1.71587 0.288782 0
M  V30 19523 O 1835.95 -1.94331 0.52892 0
M  V30 19524 C 1833.01 -3.24263 1.22697 0
M  V30 19525 C 1832.07 -3.53895 2.43017 0
M  V30 19526 C 1831.31 -4.82925 2.27198 0
M  V30 19527 O 1831.53 -5.56056 1.27114 0
M  V30 19528 O 1830.46 -5.12271 3.16009 0
M  V30 19529 H 1834.29 -1.9145 2.35755 0
M  V30 19530 H 1831.87 -0.889881 1.20006 0
M  V30 19531 H 1833.76 -4.05251 1.1554 0
M  V30 19532 H 1832.43 -3.22368 0.293317 0
M  V30 19533 H 1831.34 -2.73026 2.5575 0
M  V30 19534 H 1832.67 -3.6056 3.35048 0
M  V30 19535 N 1834.32 -1.24018 -0.972487 0
M  V30 19536 C 1835.25 -1.0529 -2.08414 0
M  V30 19537 C 1836.23 0.0326663 -1.70069 0
M  V30 19538 O 1837.42 -0.133494 -1.93741 0
M  V30 19539 C 1834.55 -0.651796 -3.41129 0
M  V30 19540 C 1833.5 -1.68559 -3.9341 0
M  V30 19541 C 1832.83 -1.1397 -5.22413 0
M  V30 19542 C 1834.13 -3.08046 -4.21788 0
M  V30 19543 H 1835.82 -1.98272 -2.2434 0
M  V30 19544 H 1833.37 -0.954694 -1.07804 0
M  V30 19545 H 1835.32 -0.507792 -4.18329 0
M  V30 19546 H 1834.05 0.313722 -3.2509 0
M  V30 19547 H 1832.7 -1.81773 -3.18362 0
M  V30 19548 H 1832.35 -0.164928 -5.0273 0
M  V30 19549 H 1832.05 -1.83051 -5.5836 0
M  V30 19550 H 1833.58 -1.00771 -6.02227 0
M  V30 19551 H 1834.99 -2.98088 -4.8971 0
M  V30 19552 H 1833.39 -3.74436 -4.68954 0
M  V30 19553 H 1834.46 -3.56444 -3.28749 0
M  V30 19554 N 1835.8 1.17245 -1.05316 0
M  V30 19555 C 1836.73 2.20844 -0.613228 0
M  V30 19556 C 1837.75 1.5955 0.323671 0
M  V30 19557 O 1838.93 1.78121 0.116209 0
M  V30 19558 C 1836.03 3.38679 0.122482 0
M  V30 19559 C 1835.21 4.29541 -0.825429 0
M  V30 19560 C 1834.27 5.26038 -0.130752 0
M  V30 19561 O 1833.29 5.64032 -0.765248 0
M  V30 19562 N 1834.49 5.69369 1.13136 0
M  V30 19563 H 1837.26 2.5921 -1.50434 0
M  V30 19564 H 1834.82 1.32156 -0.935221 0
M  V30 19565 H 1836.81 4.00267 0.597368 0
M  V30 19566 H 1835.38 2.989 0.915278 0
M  V30 19567 H 1834.6 3.65366 -1.47991 0
M  V30 19568 H 1835.89 4.87138 -1.46882 0
M  V30 19569 H 1835.29 5.40576 1.66716 0
M  V30 19570 H 1833.85 6.33095 1.55029 0
M  V30 19571 N 1837.28 0.834353 1.33702 0
M  V30 19572 C 1838.53 0.427887 1.97928 0
M  V30 19573 C 1838.85 -1.0118 1.66111 0
M  V30 19574 O 1838.11 -1.72144 0.930848 0
M  V30 19575 C 1838.41 0.590236 3.52493 0
M  V30 19576 C 1838.07 1.99735 4.04249 0
M  V30 19577 C 1836.74 2.38224 4.18094 0
M  V30 19578 C 1839.09 2.91665 4.3195 0
M  V30 19579 C 1836.42 3.67957 4.56973 0
M  V30 19580 C 1838.77 4.20874 4.72279 0
M  V30 19581 C 1837.43 4.59326 4.8433 0
M  V30 19582 H 1836.7 0.156575 0.724269 0
M  V30 19583 H 1839.35 1.06051 1.59454 0
M  V30 19584 H 1837.65 -0.125718 3.91598 0
M  V30 19585 H 1839.35 0.256094 4.00181 0
M  V30 19586 H 1835.94 1.6884 3.93943 0
M  V30 19587 H 1840.12 2.63168 4.20781 0
M  V30 19588 H 1835.38 3.9756 4.64495 0
M  V30 19589 H 1839.55 4.92187 4.92671 0
M  V30 19590 H 1837.18 5.59901 5.14213 0
M  V30 19591 N 1838.76 -1.46125 0.590367 0
M  V30 19592 C 1840.17 -1.57588 0.252639 0
M  V30 19593 C 1840.37 -1.58435 -1.24502 0
M  V30 19594 O 1839.43 -1.50541 -2.02716 0
M  V30 19595 C 1840.74 -2.86644 0.908612 0
M  V30 19596 C 1842.29 -3.00289 0.882917 0
M  V30 19597 C 1842.76 -4.32092 1.51858 0
M  V30 19598 N 1844.26 -4.38809 1.48327 0
M  V30 19599 C 1844.99 -5.39426 1.94442 0
M  V30 19600 N 1844.49 -6.46674 2.48565 0
M  V30 19601 N 1846.28 -5.30675 1.85313 0
M  V30 19602 H 1838.43 -1.43819 1.56301 0
M  V30 19603 H 1840.69 -0.686515 0.653759 0
M  V30 19604 H 1840.4 -2.91857 1.96246 0
M  V30 19605 H 1840.27 -3.74838 0.421445 0
M  V30 19606 H 1842.66 -2.94653 -0.16233 0
M  V30 19607 H 1842.74 -2.13551 1.40818 0
M  V30 19608 H 1842.39 -4.38486 2.56306 0
M  V30 19609 H 1842.32 -5.17618 0.968474 0
M  V30 19610 H 1844.81 -3.61907 1.08772 0
M  V30 19611 H 1845.12 -7.19671 2.8159 0
M  V30 19612 H 1843.46 -6.47473 2.52595 0
M  V30 19613 H 1846.66 -4.45793 1.42782 0
M  V30 19614 H 1846.83 -6.08943 2.21567 0
M  V30 19615 N 1840.23 -0.328564 -1.54137 0
M  V30 19616 C 1841.46 0.277044 -2.05541 0
M  V30 19617 C 1841.88 1.44613 -1.20285 0
M  V30 19618 O 1841.24 1.80043 -0.213107 0
M  V30 19619 C 1841.29 0.684495 -3.54044 0
M  V30 19620 O 1840.39 1.78629 -3.71706 0
M  V30 19621 H 1839.74 0.049078 -0.662184 0
M  V30 19622 H 1842.27 -0.478426 -1.98928 0
M  V30 19623 H 1842.28 0.965784 -3.96405 0
M  V30 19624 H 1840.95 -0.170554 -4.1555 0
M  V30 19625 H 1839.53 1.50343 -3.4125 0
M  V30 19626 N 1841.71 1.57497 -0.0568439 0
M  V30 19627 C 1842.64 2.14892 0.913427 0
M  V30 19628 C 1843.62 1.07205 1.32065 0
M  V30 19629 O 1844.81 1.35172 1.39435 0
M  V30 19630 C 1841.94 2.69849 2.18629 0
M  V30 19631 C 1840.89 3.8257 1.91896 0
M  V30 19632 C 1840.22 4.24068 3.25685 0
M  V30 19633 C 1841.52 5.07463 1.23606 0
M  V30 19634 H 1843.21 2.96218 0.435347 0
M  V30 19635 H 1840.76 1.4249 0.20796 0
M  V30 19636 H 1842.71 3.08643 2.86911 0
M  V30 19637 H 1841.44 1.85723 2.68653 0
M  V30 19638 H 1840.09 3.44258 1.26024 0
M  V30 19639 H 1839.74 3.36884 3.73521 0
M  V30 19640 H 1839.44 5.00043 3.08594 0
M  V30 19641 H 1840.97 4.65466 3.95189 0
M  V30 19642 H 1842.38 5.43667 1.81931 0
M  V30 19643 H 1840.78 5.88619 1.16823 0
M  V30 19644 H 1841.85 4.84432 0.212918 0
M  V30 19645 N 1843.19 -0.216591 1.56105 0
M  V30 19646 C 1844.42 -0.961164 1.83784 0
M  V30 19647 C 1844.84 -1.76957 0.637792 0
M  V30 19648 O 1844.2 -1.76523 -0.413449 0
M  V30 19649 C 1844.25 -1.85047 3.095 0
M  V30 19650 O 1843.35 -2.94648 2.88542 0
M  V30 19651 H 1842.69 -0.271885 0.605784 0
M  V30 19652 H 1845.22 -0.228404 2.03321 0
M  V30 19653 H 1845.23 -2.25932 3.39733 0
M  V30 19654 H 1843.91 -1.25633 3.96471 0
M  V30 19655 H 1842.48 -2.57673 2.69554 0
M  V30 19656 N 1844.67 -1.5 -0.48349 0
M  V30 19657 C 1846.08 -1.37151 -0.816192 0
M  V30 19658 C 1846.28 -0.418047 -1.97116 0
M  V30 19659 O 1845.34 0.143884 -2.5209 0
M  V30 19660 C 1846.65 -2.78256 -1.13992 0
M  V30 19661 C 1848.2 -2.87082 -1.2471 0
M  V30 19662 C 1848.68 -4.28993 -1.60403 0
M  V30 19663 N 1850.17 -4.31886 -1.67419 0
M  V30 19664 C 1850.9 -5.38673 -1.96516 0
M  V30 19665 N 1850.4 -6.55685 -2.23718 0
M  V30 19666 N 1852.19 -5.26105 -1.97914 0
M  V30 19667 H 1844.34 -2.10575 0.277847 0
M  V30 19668 H 1846.61 -0.945986 0.0617554 0
M  V30 19669 H 1846.31 -3.49807 -0.364448 0
M  V30 19670 H 1846.19 -3.14724 -2.07916 0
M  V30 19671 H 1848.57 -2.15758 -2.01327 0
M  V30 19672 H 1848.65 -2.54174 -0.287959 0
M  V30 19673 H 1848.3 -5.0085 -0.84331 0
M  V30 19674 H 1848.23 -4.59379 -2.57447 0
M  V30 19675 H 1850.72 -3.47506 -1.48487 0
M  V30 19676 H 1851.03 -7.32883 -2.45158 0
M  V30 19677 H 1849.38 -6.58881 -2.21136 0
M  V30 19678 H 1852.57 -4.33692 -1.76151 0
M  V30 19679 H 1852.74 -6.09419 -2.20256 0
M  V30 19680 N 1846.15 0.735796 -1.39369 0
M  V30 19681 C 1847.1 1.8409 -1.34517 0
M  V30 19682 C 1848.08 1.59302 -0.226184 0
M  V30 19683 O 1849.27 1.70819 -0.46365 0
M  V30 19684 C 1846.4 3.22008 -1.19019 0
M  V30 19685 C 1845.49 3.52628 -2.35615 0
M  V30 19686 N 1845.88 3.54189 -3.61087 0
M  V30 19687 C 1844.18 3.82986 -2.28555 0
M  V30 19688 C 1844.88 3.82581 -4.38185 0
M  V30 19689 N 1843.85 4.00315 -3.67762 0
M  V30 19690 H 1847.66 1.83601 -2.29495 0
M  V30 19691 H 1845.17 0.934 -1.32854 0
M  V30 19692 H 1847.17 4.01117 -1.13626 0
M  V30 19693 H 1845.83 3.23737 -0.249907 0
M  V30 19694 H 1846.84 3.3552 -3.94521 0
M  V30 19695 H 1843.51 3.92325 -1.42784 0
M  V30 19696 H 1844.9 3.90263 -5.46941 0
M  V30 19697 N 1847.63 1.24532 0.965897 0
M  V30 19698 C 1848.85 1.11412 1.74934 0
M  V30 19699 C 1849.28 -0.329168 1.85197 0
M  V30 19700 O 1848.63 -1.23833 1.3242 0
M  V30 19701 C 1848.68 1.76068 3.14694 0
M  V30 19702 O 1847.79 1.03267 3.99261 0
M  V30 19703 H 1847.13 0.389633 0.537663 0
M  V30 19704 H 1849.66 1.64875 1.2115 0
M  V30 19705 H 1849.67 1.81897 3.65209 0
M  V30 19706 H 1848.34 2.8108 3.0654 0
M  V30 19707 H 1846.92 1.05236 3.57743 0
M  V30 19708 N 1849.1 -1.16685 1.05936 0
M  V30 19709 C 1850.33 -1.91576 0.794558 0
M  V30 19710 C 1850.75 -1.76706 -0.644718 0
M  V30 19711 O 1850.11 -1.0899 -1.44882 0
M  V30 19712 C 1850.16 -3.40417 1.18947 0
M  V30 19713 O 1849.26 -4.11109 0.326091 0
M  V30 19714 H 1848.6 -0.596983 0.290702 0
M  V30 19715 H 1851.13 -1.47856 1.4142 0
M  V30 19716 H 1851.14 -3.91178 1.15947 0
M  V30 19717 H 1849.82 -3.5056 2.23786 0
M  V30 19718 H 1848.4 -3.70557 0.417347 0
M  V30 19719 N 1850.58 -0.841432 -1.33258 0
M  V30 19720 C 1851.99 -0.494767 -1.80025 0
M  V30 19721 C 1852.34 0.986416 -1.696 0
M  V30 19722 O 1851.47 1.76874 -1.24678 0
M  V30 19723 C 1852.06 -0.891306 -3.26866 0
M  V30 19724 C 1850.62 -0.59674 -3.7164 0
M  V30 19725 C 1849.77 -1.09825 -2.54625 0
M  V30 19726 H 1852.72 -1.02989 -1.20743 0
M  V30 19727 H 1852.74 -0.202371 -3.79961 0
M  V30 19728 H 1852.25 -1.96937 -3.34421 0
M  V30 19729 H 1850.35 0.471153 -3.69609 0
M  V30 19730 H 1850.47 -1.15377 -4.65 0
M  V30 19731 H 1848.83 -0.519011 -2.49356 0
M  V30 19732 H 1849.61 -2.18314 -2.64941 0
M  V30 19733 N 1852.06 1.4581 -0.598108 0
M  V30 19734 C 1853.29 2.06679 -0.0956921 0
M  V30 19735 C 1853.7 1.44435 1.2159 0
M  V30 19736 O 1853.06 0.555104 1.73853 0
M  V30 19737 C 1853.11 3.61449 0.0604873 0
M  V30 19738 O 1852.83 4.21368 -1.1992 0
M  V30 19739 C 1854.33 4.39282 0.595466 0
M  V30 19740 H 1851.55 0.667893 -0.0644954 0
M  V30 19741 H 1854.1 1.87202 -0.823151 0
M  V30 19742 H 1852.25 3.80301 0.738231 0
M  V30 19743 H 1852.67 5.1443 -1.02282 0
M  V30 19744 H 1854.14 5.48114 0.653868 0
M  V30 19745 H 1854.62 4.084 1.61575 0
M  V30 19746 H 1855.22 4.25273 -0.0479171 0
M  V30 19747 N 1853.54 0.336733 1.53961 0
M  V30 19748 C 1854.45 -0.531812 2.28493 0
M  V30 19749 C 1855.46 -1.11784 1.33343 0
M  V30 19750 O 1856.64 -1.13499 1.66373 0
M  V30 19751 C 1853.7 -1.67031 3.03812 0
M  V30 19752 C 1852.77 -1.11475 4.14574 0
M  V30 19753 C 1852 -2.19898 4.86292 0
M  V30 19754 O 1852.22 -3.40492 4.57625 0
M  V30 19755 O 1851.16 -1.84576 5.72901 0
M  V30 19756 H 1854.98 0.0738624 3.0361 0
M  V30 19757 H 1852.57 0.101996 1.49051 0
M  V30 19758 H 1854.45 -2.33286 3.50936 0
M  V30 19759 H 1853.12 -2.26192 2.31558 0
M  V30 19760 H 1852.03 -0.416915 3.7177 0
M  V30 19761 H 1853.36 -0.568092 4.88911 0
M  V30 19762 N 1855.02 -1.57465 0.0651956 0
M  V30 19763 C 1855.93 -2.15841 -0.919235 0
M  V30 19764 C 1856.94 -1.11984 -1.33175 0
M  V30 19765 O 1858.12 -1.44219 -1.4058 0
M  V30 19766 C 1855.18 -2.7032 -2.1709 0
M  V30 19767 C 1854.24 -3.89026 -1.81542 0
M  V30 19768 C 1853.48 -4.40897 -3.00742 0
M  V30 19769 O 1853.7 -3.91792 -4.14555 0
M  V30 19770 O 1852.63 -5.32312 -2.80941 0
M  V30 19771 H 1856.46 -3.00307 -0.452704 0
M  V30 19772 H 1854.04 -1.48567 -0.157504 0
M  V30 19773 H 1855.93 -3.05266 -2.90501 0
M  V30 19774 H 1854.6 -1.88917 -2.62854 0
M  V30 19775 H 1853.51 -3.58944 -1.05404 0
M  V30 19776 H 1854.84 -4.71701 -1.40567 0
M  V30 19777 N 1856.49 0.20831 -1.56217 0
M  V30 19778 C 1857.91 0.55859 -1.49506 0
M  V30 19779 C 1858.11 1.86504 -0.762784 0
M  V30 19780 O 1857.17 2.50616 -0.307868 0
M  V30 19781 C 1858.48 0.625557 -2.94121 0
M  V30 19782 C 1860.03 0.715289 -3.04717 0
M  V30 19783 C 1860.5 0.813485 -4.50718 0
M  V30 19784 N 1861.99 0.87736 -4.54815 0
M  V30 19785 C 1862.73 0.973279 -5.65079 0
M  V30 19786 N 1862.22 1.03232 -6.85066 0
M  V30 19787 N 1864.02 1.00944 -5.52962 0
M  V30 19788 H 1856.17 -0.648826 -2.02247 0
M  V30 19789 H 1858.43 -0.229425 -0.91982 0
M  V30 19790 H 1858.14 -0.265056 -3.507 0
M  V30 19791 H 1858.01 1.48473 -3.4675 0
M  V30 19792 H 1860.4 1.59634 -2.48196 0
M  V30 19793 H 1860.48 -0.169818 -2.55236 0
M  V30 19794 H 1860.12 -0.0631602 -5.07861 0
M  V30 19795 H 1860.05 1.7142 -4.97918 0
M  V30 19796 H 1862.54 0.841513 -3.68411 0
M  V30 19797 H 1862.86 1.10566 -7.6485 0
M  V30 19798 H 1861.2 1.00122 -6.8775 0
M  V30 19799 H 1864.39 0.960065 -4.58149 0
M  V30 19800 H 1864.57 1.08074 -6.38924 0
M  V30 19801 N 1857.97 1.50255 0.475528 0
M  V30 19802 C 1859.25 1.51537 1.23676 0
M  V30 19803 C 1859.63 0.257508 2.09524 0
M  V30 19804 O 1858.98 -0.759242 2.15517 0
M  V30 19805 C 1859.19 2.80865 2.07162 0
M  V30 19806 C 1860.53 3.31353 2.655 0
M  V30 19807 O 1861.56 2.82156 2.17408 0
M  V30 19808 O 1860.42 4.17102 3.53112 0
M  V30 19809 H 1857.51 0.607633 0.560991 0
M  V30 19810 H 1860.06 1.62541 0.487712 0
M  V30 19811 H 1858.83 3.63891 1.43871 0
M  V30 19812 H 1858.45 2.72844 2.89209 0
M  V30 19813 N 1859.45 -0.728395 1.39758 0
M  V30 19814 C 1860.36 -1.87279 1.41293 0
M  V30 19815 C 1861.38 -1.71271 0.306965 0
M  V30 19816 O 1862.55 -1.93759 0.549502 0
M  V30 19817 C 1859.62 -3.22943 1.2613 0
M  V30 19818 C 1858.68 -3.51297 2.46756 0
M  V30 19819 C 1857.91 -4.80489 2.32307 0
M  V30 19820 O 1858.13 -5.54676 1.33005 0
M  V30 19821 O 1857.07 -5.08891 3.21425 0
M  V30 19822 H 1860.89 -1.88939 2.37773 0
M  V30 19823 H 1858.48 -0.877103 1.20943 0
M  V30 19824 H 1860.36 -4.04003 1.19832 0
M  V30 19825 H 1859.04 -3.22039 0.327492 0
M  V30 19826 H 1857.94 -2.70298 2.58631 0
M  V30 19827 H 1859.28 -3.56986 3.38853 0
M  V30 19828 N 1860.93 -1.25042 -0.959279 0
M  V30 19829 C 1862.34 -1.08692 -1.51799 0
M  V30 19830 C 1862.69 0.338893 -1.93251 0
M  V30 19831 O 1861.81 1.22831 -1.78162 0
M  V30 19832 C 1862.41 -1.9669 -2.7586 0
M  V30 19833 C 1860.97 -1.84538 -3.28059 0
M  V30 19834 C 1860.12 -1.91119 -2.0092 0
M  V30 19835 H 1863.07 -1.38396 -0.776669 0
M  V30 19836 H 1863.09 -1.50414 -3.49508 0
M  V30 19837 H 1862.6 -3.00455 -2.45659 0
M  V30 19838 H 1860.7 -0.836383 -3.63091 0
M  V30 19839 H 1860.81 -2.69095 -3.96389 0
M  V30 19840 H 1859.18 -1.34948 -2.16012 0
M  V30 19841 H 1859.96 -2.9648 -1.73074 0
M  V30 19842 N 1862.41 1.16121 -1.06553 0
M  V30 19843 C 1863.37 2.18796 -0.682711 0
M  V30 19844 C 1864.37 1.58467 0.272905 0
M  V30 19845 O 1865.56 1.74113 0.0549379 0
M  V30 19846 C 1862.69 3.409 -0.00496866 0
M  V30 19847 H 1863.88 2.54178 -1.59165 0
M  V30 19848 H 1861.44 1.30442 -0.861077 0
M  V30 19849 H 1862.17 3.11077 0.916593 0
M  V30 19850 H 1861.96 3.85942 -0.692165 0
M  V30 19851 H 1863.45 4.1686 0.248503 0
M  V30 19852 N 1863.88 0.848487 1.3281 0
M  V30 19853 C 1865.11 0.461973 2.01369 0
M  V30 19854 C 1865.52 -0.944176 1.63957 0
M  V30 19855 O 1864.87 -1.62659 0.853677 0
M  V30 19856 C 1864.93 0.514163 3.55804 0
M  V30 19857 C 1864.59 1.87812 4.16624 0
M  V30 19858 C 1865.59 2.84271 4.353 0
M  V30 19859 C 1863.27 2.17358 4.52836 0
M  V30 19860 C 1865.27 4.08433 4.89348 0
M  V30 19861 C 1862.95 3.41774 5.0659 0
M  V30 19862 C 1863.95 4.37128 5.24793 0
M  V30 19863 O 1863.64 5.59342 5.774 0
M  V30 19864 H 1863.37 0.180645 0.651416 0
M  V30 19865 H 1865.93 1.14535 1.70502 0
M  V30 19866 H 1864.16 -0.226037 3.86039 0
M  V30 19867 H 1865.85 0.14412 4.05644 0
M  V30 19868 H 1866.61 2.62747 4.07663 0
M  V30 19869 H 1862.49 1.43927 4.37957 0
M  V30 19870 H 1866.03 4.82869 5.03471 0
M  V30 19871 H 1861.93 3.63151 5.33659 0
M  V30 19872 H 1862.7 5.61215 5.95802 0
M  V30 19873 N 1865.36 -1.4549 0.605832 0
M  V30 19874 C 1866.77 -1.85775 0.18559 0
M  V30 19875 C 1867.12 -1.50638 -1.25708 0
M  V30 19876 O 1866.25 -0.932227 -1.95291 0
M  V30 19877 C 1866.84 -3.37189 0.330043 0
M  V30 19878 C 1865.4 -3.76383 -0.0354934 0
M  V30 19879 C 1864.55 -2.69446 0.655297 0
M  V30 19880 H 1867.5 -1.36316 0.812624 0
M  V30 19881 H 1867.52 -3.77968 -0.438236 0
M  V30 19882 H 1867.03 -3.62731 1.38014 0
M  V30 19883 H 1865.14 -3.56458 -1.08483 0
M  V30 19884 H 1865.25 -4.77769 0.356935 0
M  V30 19885 H 1863.61 -2.5453 0.0931235 0
M  V30 19886 H 1864.4 -2.97825 1.70749 0
M  V30 19887 N 1866.84 -0.344893 -1.5378 0
M  V30 19888 C 1868.26 0.00698009 -1.59598 0
M  V30 19889 C 1868.46 1.48608 -1.36081 0
M  V30 19890 O 1867.51 2.24498 -1.15573 0
M  V30 19891 C 1868.83 -0.430402 -2.97604 0
M  V30 19892 C 1870.37 -0.38286 -3.1065 0
M  V30 19893 C 1870.85 -0.795731 -4.51035 0
M  V30 19894 N 1872.34 -0.74997 -4.57088 0
M  V30 19895 C 1873.07 -1.04137 -5.63864 0
M  V30 19896 N 1872.57 -1.401 -6.78487 0
M  V30 19897 N 1874.36 -0.965521 -5.53746 0
M  V30 19898 H 1866.51 -1.30834 -1.67321 0
M  V30 19899 H 1868.78 -0.533422 -0.783686 0
M  V30 19900 H 1868.48 -1.46174 -3.19884 0
M  V30 19901 H 1868.36 0.193696 -3.76702 0
M  V30 19902 H 1870.74 0.639311 -2.88092 0
M  V30 19903 H 1870.83 -1.04218 -2.33607 0
M  V30 19904 H 1870.47 -1.81592 -4.74328 0
M  V30 19905 H 1870.4 -0.113876 -5.26477 0
M  V30 19906 H 1872.89 -0.48474 -3.74778 0
M  V30 19907 H 1873.2 -1.60815 -7.55882 0
M  V30 19908 H 1871.55 -1.43946 -6.7993 0
M  V30 19909 H 1874.74 -0.683902 -4.63077 0
M  V30 19910 H 1874.91 -1.19596 -6.36868 0
M  V30 19911 N 1868.32 1.57428 -0.0735454 0
M  V30 19912 C 1869.57 1.93174 0.593996 0
M  V30 19913 C 1869.89 0.954462 1.70044 0
M  V30 19914 O 1869.16 0.00289765 1.959 0
M  V30 19915 H 1867.74 0.713123 0.222407 0
M  V30 19916 H 1870.4 1.94454 -0.131813 0
M  V30 19917 H 1869.5 2.95025 1.01818 0
M  V30 19918 N 1869.8 -0.200022 1.56326 0
M  V30 19919 C 1871.07 -0.946774 1.71159 0
M  V30 19920 C 1871.45 -2.01576 0.626939 0
M  V30 19921 O 1870.8 -2.25601 -0.362834 0
M  V30 19922 C 1871.01 -1.53767 3.13299 0
M  V30 19923 C 1872.36 -2.02169 3.7338 0
M  V30 19924 O 1873.38 -1.6362 3.16397 0
M  V30 19925 O 1872.24 -2.7309 4.73375 0
M  V30 19926 H 1869.34 -0.443669 0.697916 0
M  V30 19927 H 1871.88 -0.190107 1.68632 0
M  V30 19928 H 1870.65 -0.766886 3.83712 0
M  V30 19929 H 1870.28 -2.35931 3.20035 0
M  V30 19930 N 1871.27 -1.50505 -0.467553 0
M  V30 19931 C 1872.5 -1.65708 -1.24722 0
M  V30 19932 C 1872.92 -0.34155 -1.84973 0
M  V30 19933 O 1872.28 0.694993 -1.6745 0
M  V30 19934 C 1872.33 -2.75289 -2.32912 0
M  V30 19935 O 1871.43 -2.36788 -3.37646 0
M  V30 19936 H 1870.78 -0.55351 -0.366774 0
M  V30 19937 H 1873.31 -1.96901 -0.555988 0
M  V30 19938 H 1873.32 -2.98472 -2.7817 0
M  V30 19939 H 1871.99 -3.70765 -1.88431 0
M  V30 19940 H 1870.57 -2.24065 -2.98076 0
M  V30 19941 N 1872.75 0.720973 -1.40142 0
M  V30 19942 C 1873.98 1.51519 -1.41622 0
M  V30 19943 C 1874.4 1.88093 -0.0162669 0
M  V30 19944 O 1873.76 1.52895 0.974307 0
M  V30 19945 C 1873.81 2.77041 -2.30826 0
M  V30 19946 O 1872.91 3.73532 -1.74779 0
M  V30 19947 H 1872.25 0.457034 -0.481681 0
M  V30 19948 H 1874.78 0.88837 -1.84307 0
M  V30 19949 H 1874.79 3.25628 -2.45826 0
M  V30 19950 H 1873.47 2.49755 -3.32558 0
M  V30 19951 H 1872.05 3.32356 -1.69097 0
M  V30 19952 N 1874.23 1.25549 0.952634 0
M  V30 19953 C 1875.48 1.10198 1.69413 0
M  V30 19954 C 1875.8 -0.357345 1.91698 0
M  V30 19955 O 1875.07 -1.25345 1.5055 0
M  V30 19956 H 1873.65 0.404804 0.627808 0
M  V30 19957 H 1876.31 1.57703 1.14524 0
M  V30 19958 H 1875.41 1.61185 2.67256 0
M  V30 19959 N 1875.71 -1.15554 1.07168 0
M  V30 19960 C 1876.93 -1.90723 0.814832 0
M  V30 19961 C 1877.36 -1.7738 -0.62594 0
M  V30 19962 O 1876.72 -1.10521 -1.43718 0
M  V30 19963 C 1876.76 -3.39137 1.22551 0
M  V30 19964 O 1875.87 -4.1074 0.369677 0
M  V30 19965 H 1875.21 -0.593866 0.297017 0
M  V30 19966 H 1877.74 -1.46348 1.42981 0
M  V30 19967 H 1877.75 -3.89926 1.20089 0
M  V30 19968 H 1876.42 -3.48167 2.27492 0
M  V30 19969 H 1875 -3.70094 0.456626 0
M  V30 19970 N 1877.19 -0.855519 -1.32358 0
M  V30 19971 C 1878.42 -0.473331 -2.01413 0
M  V30 19972 C 1878.83 0.930206 -1.64294 0
M  V30 19973 O 1878.19 1.60714 -0.864705 0
M  V30 19974 C 1878.24 -0.603815 -3.56422 0
M  V30 19975 O 1877.96 -1.95207 -3.92207 0
M  V30 19976 C 1879.46 -0.220748 -4.4275 0
M  V30 19977 H 1876.68 -0.185962 -0.644716 0
M  V30 19978 H 1879.22 -1.1527 -1.68918 0
M  V30 19979 H 1877.38 0.0278263 -3.8739 0
M  V30 19980 H 1877.79 -1.94946 -4.86925 0
M  V30 19981 H 1879.27 -0.363048 -5.50805 0
M  V30 19982 H 1879.74 0.838881 -4.31114 0
M  V30 19983 H 1880.35 -0.827498 -4.17172 0
M  V30 19984 N 1878.67 1.45167 -0.61354 0
M  V30 19985 C 1880.08 1.57166 -0.277678 0
M  V30 19986 C 1880.28 1.60395 1.21965 0
M  V30 19987 O 1879.34 1.53747 2.00295 0
M  V30 19988 C 1880.65 2.85162 -0.9541 0
M  V30 19989 C 1882.2 2.98847 -0.930579 0
M  V30 19990 C 1882.67 4.29621 -1.58712 0
M  V30 19991 N 1884.16 4.36394 -1.55289 0
M  V30 19992 C 1884.9 5.36264 -2.02999 0
M  V30 19993 N 1884.4 6.42638 -2.58821 0
M  V30 19994 N 1886.19 5.27659 -1.93732 0
M  V30 19995 H 1878.34 1.41314 -1.58569 0
M  V30 19996 H 1880.6 0.676027 -0.664598 0
M  V30 19997 H 1880.31 2.88698 -2.00864 0
M  V30 19998 H 1880.18 3.7412 -0.481025 0
M  V30 19999 H 1882.57 2.94874 0.115433 0
M  V30 20000 H 1882.65 2.11283 -1.44198 0
M  V30 20001 H 1882.29 4.34352 -2.6325 0
M  V30 20002 H 1882.22 5.16011 -1.0507 0
M  V30 20003 H 1884.72 3.60131 -1.14516 0
M  V30 20004 H 1885.03 7.151 -2.93004 0
M  V30 20005 H 1883.37 6.43372 -2.62863 0
M  V30 20006 H 1886.56 4.43465 -1.49856 0
M  V30 20007 H 1886.74 6.05341 -2.31227 0
M  V30 20008 N 1880.14 0.353044 1.53595 0
M  V30 20009 C 1881.56 0.0014839 1.596 0
M  V30 20010 C 1881.76 -1.47884 1.36867 0
M  V30 20011 O 1880.82 -2.23881 1.16762 0
M  V30 20012 C 1882.13 0.446178 2.97371 0
M  V30 20013 C 1883.68 0.399329 3.10442 0
M  V30 20014 C 1884.15 0.819639 4.50606 0
M  V30 20015 N 1885.64 0.7742 4.56684 0
M  V30 20016 C 1886.38 1.07126 5.63304 0
M  V30 20017 N 1885.87 1.43696 6.77734 0
M  V30 20018 N 1887.67 0.994874 5.53226 0
M  V30 20019 H 1879.82 1.31719 1.66625 0
M  V30 20020 H 1882.08 0.537571 0.780847 0
M  V30 20021 H 1881.79 1.47869 3.19105 0
M  V30 20022 H 1881.66 -0.173715 3.768 0
M  V30 20023 H 1884.05 -0.624023 2.88427 0
M  V30 20024 H 1884.13 1.05455 2.33051 0
M  V30 20025 H 1883.77 1.84105 4.73358 0
M  V30 20026 H 1883.7 0.141795 5.26409 0
M  V30 20027 H 1886.19 0.504609 3.74516 0
M  V30 20028 H 1886.51 1.64822 7.55019 0
M  V30 20029 H 1884.85 1.4755 6.79157 0
M  V30 20030 H 1888.04 0.70845 4.62708 0
M  V30 20031 H 1888.22 1.22972 6.36225 0
M  V30 20032 N 1881.62 -1.57387 0.0818932 0
M  V30 20033 C 1882.85 -1.9862 -0.597066 0
M  V30 20034 C 1883.27 -0.960277 -1.61741 0
M  V30 20035 O 1882.63 0.0728948 -1.81153 0
M  V30 20036 C 1882.68 -3.3886 -1.23315 0
M  V30 20037 O 1881.78 -3.38962 -2.34901 0
M  V30 20038 H 1881.12 -0.646208 -0.152679 0
M  V30 20039 H 1883.65 -2.03978 0.159398 0
M  V30 20040 H 1883.66 -3.76266 -1.5776 0
M  V30 20041 H 1882.34 -4.13056 -0.485551 0
M  V30 20042 H 1880.91 -3.13337 -2.02174 0
M  V30 20043 N 1883.1 0.191729 -1.56429 0
M  V30 20044 C 1884.35 0.908377 -1.81989 0
M  V30 20045 C 1884.7 1.80746 -0.659444 0
M  V30 20046 O 1883.99 1.88464 0.345209 0
M  V30 20047 C 1884.19 1.75708 -3.11226 0
M  V30 20048 C 1884.02 0.941655 -4.39731 0
M  V30 20049 C 1882.79 0.624755 -5.01423 0
M  V30 20050 C 1884.98 0.292774 -5.13466 0
M  V30 20051 N 1882.97 -0.208946 -6.13544 0
M  V30 20052 C 1884.34 -0.402979 -6.18689 0
M  V30 20053 C 1886.39 0.208846 -4.97462 0
M  V30 20054 C 1885.1 -1.17467 -7.09644 0
M  V30 20055 C 1887.12 -0.549459 -5.88842 0
M  V30 20056 C 1886.48 -1.23365 -6.93513 0
M  V30 20057 H 1882.58 0.311682 -0.717202 0
M  V30 20058 H 1885.17 0.17685 -1.93895 0
M  V30 20059 H 1883.34 2.46018 -3.00549 0
M  V30 20060 H 1885.07 2.41346 -3.2486 0
M  V30 20061 H 1881.82 0.949982 -4.63974 0
M  V30 20062 H 1882.25 -0.615506 -6.74196 0
M  V30 20063 H 1886.89 0.723459 -4.16564 0
M  V30 20064 H 1884.61 -1.7007 -7.90001 0
M  V30 20065 H 1888.19 -0.615799 -5.78532 0
M  V30 20066 H 1887.07 -1.81102 -7.63002 0
M  V30 20067 N 1884.58 1.50751 0.459565 0
M  V30 20068 C 1885.49 1.7326 1.58171 0
M  V30 20069 C 1886.5 0.616042 1.6273 0
M  V30 20070 O 1887.68 0.895726 1.80385 0
M  V30 20071 C 1884.74 1.83249 2.94314 0
M  V30 20072 C 1883.81 3.07031 3.00051 0
M  V30 20073 C 1883.04 3.16534 4.297 0
M  V30 20074 O 1883.26 2.32532 5.2085 0
M  V30 20075 O 1882.2 4.0935 4.41266 0
M  V30 20076 H 1886.02 2.68406 1.42098 0
M  V30 20077 H 1883.61 1.34985 0.640273 0
M  V30 20078 H 1885.49 1.91933 3.75153 0
M  V30 20079 H 1884.16 0.912887 3.10561 0
M  V30 20080 H 1883.07 3.0384 2.18248 0
M  V30 20081 H 1884.4 3.98608 2.88743 0
M  V30 20082 N 1886.06 -0.713531 1.40522 0
M  V30 20083 C 1886.99 -1.8404 1.43707 0
M  V30 20084 C 1887.97 -1.67474 0.297751 0
M  V30 20085 O 1889.15 -1.87474 0.506662 0
M  V30 20086 C 1886.28 -3.22014 1.30094 0
M  V30 20087 C 1885.24 -3.53255 2.4165 0
M  V30 20088 C 1884.56 -4.90395 2.13113 0
M  V30 20089 C 1885.86 -3.54045 3.83991 0
M  V30 20090 H 1887.56 -1.81632 2.38013 0
M  V30 20091 H 1885.1 -0.872437 1.14562 0
M  V30 20092 H 1887.05 -4.00541 1.30938 0
M  V30 20093 H 1885.78 -3.25002 0.322648 0
M  V30 20094 H 1884.44 -2.77069 2.40059 0
M  V30 20095 H 1884.09 -4.89988 1.13669 0
M  V30 20096 H 1883.79 -5.12264 2.87853 0
M  V30 20097 H 1885.31 -5.71254 2.15642 0
M  V30 20098 H 1886.72 -4.22609 3.87395 0
M  V30 20099 H 1885.12 -3.87441 4.58268 0
M  V30 20100 H 1886.19 -2.53387 4.13428 0
M  V30 20101 N 1887.53 -1.26053 -0.945962 0
M  V30 20102 C 1888.95 -1.03062 -1.21862 0
M  V30 20103 C 1889.15 0.247205 -1.99978 0
M  V30 20104 O 1888.21 0.957622 -2.33636 0
M  V30 20105 C 1889.52 -2.25912 -1.98455 0
M  V30 20106 C 1891.07 -2.30763 -2.11465 0
M  V30 20107 C 1891.54 -3.53292 -2.91459 0
M  V30 20108 N 1893.03 -3.53741 -2.99035 0
M  V30 20109 C 1893.77 -4.45215 -3.61347 0
M  V30 20110 N 1893.26 -5.46971 -4.25199 0
M  V30 20111 N 1895.06 -4.32877 -3.58572 0
M  V30 20112 H 1887.21 -2.08133 -0.423615 0
M  V30 20113 H 1889.47 -0.914462 -0.249926 0
M  V30 20114 H 1889.18 -3.18829 -1.48462 0
M  V30 20115 H 1889.05 -2.29777 -2.99136 0
M  V30 20116 H 1891.44 -1.38363 -2.60653 0
M  V30 20117 H 1891.52 -2.30911 -1.10062 0
M  V30 20118 H 1891.16 -4.46019 -2.4296 0
M  V30 20119 H 1891.09 -3.50391 -3.93108 0
M  V30 20120 H 1893.58 -2.80138 -2.53636 0
M  V30 20121 H 1893.9 -6.12967 -4.70629 0
M  V30 20122 H 1892.24 -5.50834 -4.238 0
M  V30 20123 H 1895.43 -3.52602 -3.07879 0
M  V30 20124 H 1895.61 -5.0436 -4.06847 0
M  V30 20125 N 1889.01 1.14984 -1.07779 0
M  V30 20126 C 1890.24 1.89747 -0.824844 0
M  V30 20127 C 1890.65 1.78246 0.622385 0
M  V30 20128 O 1890.01 1.13739 1.42723 0
M  V30 20129 C 1890.06 3.39946 -1.2296 0
M  V30 20130 O 1889.78 3.5112 -2.62005 0
M  V30 20131 C 1891.28 4.31721 -1.00658 0
M  V30 20132 H 1888.5 0.601232 -0.297928 0
M  V30 20133 H 1891.05 1.4566 -1.43539 0
M  V30 20134 H 1889.2 3.81679 -0.663292 0
M  V30 20135 H 1889.62 4.44367 -2.78636 0
M  V30 20136 H 1891.09 5.35507 -1.33925 0
M  V30 20137 H 1891.57 4.39163 0.0568131 0
M  V30 20138 H 1892.17 3.95735 -1.55801 0
M  V30 20139 N 1890.49 0.862526 1.31902 0
M  V30 20140 C 1891.42 0.328423 2.31179 0
M  V30 20141 C 1892.4 -0.57668 1.60026 0
M  V30 20142 O 1893.59 -0.49527 1.87778 0
M  V30 20143 C 1890.72 -0.47734 3.44004 0
M  V30 20144 C 1889.67 0.334015 4.26695 0
M  V30 20145 C 1889 -0.596973 5.31357 0
M  V30 20146 C 1890.3 1.56405 4.98332 0
M  V30 20147 H 1891.99 1.15797 2.761 0
M  V30 20148 H 1889.54 0.558268 1.32738 0
M  V30 20149 H 1891.49 -0.861461 4.12501 0
M  V30 20150 H 1890.21 -1.34033 2.9783 0
M  V30 20151 H 1888.87 0.699989 3.59855 0
M  V30 20152 H 1888.52 -1.45703 4.81435 0
M  V30 20153 H 1888.22 -0.0580517 5.87571 0
M  V30 20154 H 1889.74 -0.978099 6.02715 0
M  V30 20155 H 1891.16 1.25178 5.59467 0
M  V30 20156 H 1889.55 2.04149 5.64308 0
M  V30 20157 H 1890.62 2.32099 4.25744 0
M  V30 20158 N 1891.97 -1.4484 0.62123 0
M  V30 20159 C 1893.22 -2.01347 0.11929 0
M  V30 20160 C 1893.53 -1.49373 -1.26282 0
M  V30 20161 O 1894.74 -1.97945 -1.85823 0
M  V30 20162 C 1893.19 -3.59533 0.162536 0
M  V30 20163 C 1892.8 -4.20504 1.54534 0
M  V30 20164 C 1894.54 -4.23553 -0.283454 0
M  V30 20165 C 1892.45 -5.70883 1.54423 0
M  V30 20166 H 1891.38 -0.752894 0.0408293 0
M  V30 20167 H 1894.03 -1.66164 0.778571 0
M  V30 20168 H 1892.41 -3.91968 -0.563659 0
M  V30 20169 H 1893.59 -3.99621 2.29433 0
M  V30 20170 H 1891.9 -3.68732 1.93457 0
M  V30 20171 H 1894.5 -5.33837 -0.303671 0
M  V30 20172 H 1894.84 -3.9519 -1.30884 0
M  V30 20173 H 1895.38 -3.95884 0.38992 0
M  V30 20174 H 1892.12 -6.03965 2.54767 0
M  V30 20175 H 1891.64 -5.93917 0.838029 0
M  V30 20176 H 1893.31 -6.34336 1.27383 0
M  V30 20177 N 1893.45 -0.361184 -1.53405 0
M  V30 20178 C 1894.67 0.233383 -2.06083 0
M  V30 20179 C 1895.1 1.42029 -1.23326 0
M  V30 20180 O 1894.45 1.79551 -0.251249 0
M  V30 20181 C 1894.5 0.609243 -3.55416 0
M  V30 20182 O 1893.61 1.70705 -3.75411 0
M  V30 20183 H 1892.95 0.035021 -0.663076 0
M  V30 20184 H 1895.48 -0.520514 -1.97868 0
M  V30 20185 H 1895.49 0.881483 -3.98364 0
M  V30 20186 H 1894.16 -0.25866 -4.15095 0
M  V30 20187 H 1892.74 1.4307 -3.44362 0
M  V30 20188 N 1894.92 1.57341 -0.0902386 0
M  V30 20189 C 1895.86 2.10775 0.900374 0
M  V30 20190 C 1896.87 1.0439 1.24926 0
M  V30 20191 O 1898.06 1.31851 1.20322 0
M  V30 20192 C 1895.16 2.56852 2.21089 0
M  V30 20193 C 1894.33 3.87016 2.03808 0
M  V30 20194 C 1893.39 4.18991 3.18328 0
M  V30 20195 O 1892.42 4.88292 2.92505 0
M  V30 20196 N 1893.62 3.74006 4.43959 0
M  V30 20197 H 1896.38 2.96392 0.444045 0
M  V30 20198 H 1893.94 1.61621 0.0949979 0
M  V30 20199 H 1895.94 2.75292 2.96642 0
M  V30 20200 H 1894.51 1.76271 2.58161 0
M  V30 20201 H 1893.73 3.77772 1.12613 0
M  V30 20202 H 1895.01 4.72181 1.89532 0
M  V30 20203 H 1894.41 3.18056 4.67821 0
M  V30 20204 H 1892.97 3.97611 5.16477 0
M  V30 20205 N 1896.4 -0.183431 1.56529 0
M  V30 20206 C 1897.63 -0.921964 1.85781 0
M  V30 20207 C 1898.05 -1.75564 0.675184 0
M  V30 20208 O 1897.41 -1.7736 -0.375913 0
M  V30 20209 C 1897.46 -1.7844 3.13355 0
M  V30 20210 O 1896.56 -2.88461 2.94727 0
M  V30 20211 H 1895.9 -0.258974 0.611415 0
M  V30 20212 H 1898.43 -0.185225 2.0376 0
M  V30 20213 H 1898.44 -2.18675 3.44449 0
M  V30 20214 H 1897.12 -1.17195 3.99047 0
M  V30 20215 H 1895.7 -2.51897 2.74959 0
M  V30 20216 N 1897.88 -1.50992 -0.451564 0
M  V30 20217 C 1898.83 -1.71277 -1.54703 0
M  V30 20218 C 1899.8 -0.554233 -1.56581 0
M  V30 20219 O 1900.98 -0.787053 -1.73811 0
M  V30 20220 C 1898.12 -1.83078 -2.92535 0
M  V30 20221 C 1897.24 -3.10559 -3.00295 0
M  V30 20222 C 1896.37 -3.13039 -4.29162 0
M  V30 20223 C 1895.41 -4.34893 -4.30737 0
M  V30 20224 N 1894.55 -4.35002 -5.51106 0
M  V30 20225 H 1899.39 -2.64791 -1.3671 0
M  V30 20226 H 1896.92 -1.31243 -0.664356 0
M  V30 20227 H 1898.88 -1.87901 -3.7249 0
M  V30 20228 H 1897.51 -0.929851 -3.09117 0
M  V30 20229 H 1896.56 -3.15113 -2.13091 0
M  V30 20230 H 1897.88 -4.00503 -2.9732 0
M  V30 20231 H 1897.03 -3.167 -5.17481 0
M  V30 20232 H 1895.77 -2.20959 -4.34774 0
M  V30 20233 H 1894.77 -4.31423 -3.40814 0
M  V30 20234 H 1896 -5.28221 -4.26801 0
M  V30 20235 H 1893.94 -3.45785 -5.57466 0
M  V30 20236 H 1893.86 -5.18738 -5.49952 0
M  V30 20237 H 1895.13 -4.42836 -6.41496 0
M  V30 20238 N 1899.36 0.706069 -1.40899 0
M  V30 20239 C 1900.64 1.45984 -1.30185 0
M  V30 20240 C 1901.02 2.10965 0.0754423 0
M  V30 20241 O 1900.36 2.00883 1.08896 0
M  V30 20242 C 1900.57 2.48782 -2.44762 0
M  V30 20243 C 1901.92 3.14339 -2.85441 0
M  V30 20244 O 1902.95 2.59104 -2.44425 0
M  V30 20245 O 1901.8 4.14354 -3.56333 0
M  V30 20246 H 1898.9 0.649628 -0.511774 0
M  V30 20247 H 1901.44 0.737436 -1.5284 0
M  V30 20248 H 1900.22 1.99346 -3.36715 0
M  V30 20249 H 1899.84 3.28545 -2.23929 0
M  V30 20250 N 1900.84 1.26553 0.939264 0
M  V30 20251 C 1902.06 1.14993 1.72001 0
M  V30 20252 C 1902.48 -0.29462 1.86487 0
M  V30 20253 O 1901.84 -1.20158 1.37362 0
M  V30 20254 C 1901.89 1.81598 3.12577 0
M  V30 20255 O 1901.61 3.20408 2.98781 0
M  V30 20256 C 1903.11 1.76017 4.06858 0
M  V30 20257 H 1900.33 0.400347 0.538482 0
M  V30 20258 H 1902.87 1.67209 1.17735 0
M  V30 20259 H 1901.03 1.33316 3.63739 0
M  V30 20260 H 1901.44 3.53397 3.8757 0
M  V30 20261 H 1902.92 2.27255 5.0305 0
M  V30 20262 H 1903.39 0.727075 4.3314 0
M  V30 20263 H 1904 2.2386 3.61617 0
M  V30 20264 N 1902.31 -1.14411 1.08387 0
M  V30 20265 C 1903.28 -2.17682 0.717433 0
M  V30 20266 C 1904.28 -1.58881 -0.24766 0
M  V30 20267 O 1905.47 -1.74179 -0.027231 0
M  V30 20268 C 1902.6 -3.40849 0.0592022 0
M  V30 20269 H 1903.79 -2.51614 1.63188 0
M  V30 20270 H 1901.35 -1.29056 0.88172 0
M  V30 20271 H 1902.08 -3.12496 -0.866987 0
M  V30 20272 H 1901.87 -3.84792 0.753477 0
M  V30 20273 H 1903.36 -4.17203 -0.182152 0
M  V30 20274 N 1903.79 -0.869509 -1.31443 0
M  V30 20275 C 1905.02 -0.493849 -2.01435 0
M  V30 20276 C 1905.44 0.906049 -1.6484 0
M  V30 20277 O 1904.8 1.59777 -0.856794 0
M  V30 20278 C 1904.85 -0.657723 -3.54551 0
M  V30 20279 O 1903.95 0.303155 -4.11284 0
M  V30 20280 H 1903.29 -0.196494 -0.63426 0
M  V30 20281 H 1905.82 -1.1728 -1.6765 0
M  V30 20282 H 1905.83 -0.550841 -4.04264 0
M  V30 20283 H 1904.51 -1.67848 -3.80526 0
M  V30 20284 H 1903.09 0.151268 -3.72593 0
M  V30 20285 N 1905.27 1.44508 -0.628902 0
M  V30 20286 C 1906.22 2.3067 0.0773497 0
M  V30 20287 C 1907.19 1.43353 0.839003 0
M  V30 20288 O 1908.37 1.72258 0.820487 0
M  V30 20289 C 1905.51 3.28596 1.05447 0
M  V30 20290 C 1904.63 4.31016 0.291465 0
M  V30 20291 C 1903.76 5.16035 1.2602 0
M  V30 20292 C 1902.8 6.10166 0.486229 0
M  V30 20293 N 1901.94 6.87892 1.40532 0
M  V30 20294 H 1906.78 2.90523 -0.663346 0
M  V30 20295 H 1904.31 1.43143 -0.338906 0
M  V30 20296 H 1906.27 3.83856 1.63433 0
M  V30 20297 H 1904.9 2.70448 1.76232 0
M  V30 20298 H 1903.95 3.78246 -0.404285 0
M  V30 20299 H 1905.27 4.97827 -0.311447 0
M  V30 20300 H 1904.42 5.75802 1.91147 0
M  V30 20301 H 1903.16 4.49293 1.89704 0
M  V30 20302 H 1902.16 5.4951 -0.178543 0
M  V30 20303 H 1903.39 6.78943 -0.145859 0
M  V30 20304 H 1901.33 6.2382 2.0294 0
M  V30 20305 H 1901.25 7.51134 0.856369 0
M  V30 20306 H 1902.52 7.52183 2.04549 0
M  V30 20307 N 1906.75 0.369315 1.53212 0
M  V30 20308 C 1907.68 -0.467242 2.28777 0
M  V30 20309 C 1908.66 -1.08073 1.31355 0
M  V30 20310 O 1909.85 -1.09728 1.60229 0
M  V30 20311 C 1906.98 -1.60519 3.07979 0
M  V30 20312 C 1905.93 -1.11876 4.1312 0
M  V30 20313 C 1905.26 -2.34723 4.80426 0
M  V30 20314 C 1906.56 -0.200846 5.21914 0
M  V30 20315 H 1908.25 0.163201 2.98955 0
M  V30 20316 H 1905.8 0.0799312 1.43778 0
M  V30 20317 H 1907.75 -2.19708 3.59592 0
M  V30 20318 H 1906.47 -2.26292 2.35499 0
M  V30 20319 H 1905.13 -0.549521 3.62458 0
M  V30 20320 H 1904.78 -2.98961 4.04514 0
M  V30 20321 H 1904.48 -2.02846 5.51477 0
M  V30 20322 H 1906 -2.94592 5.34835 0
M  V30 20323 H 1907.42 -0.700331 5.69006 0
M  V30 20324 H 1905.81 0.0272222 6.00094 0
M  V30 20325 H 1906.88 0.755948 4.78971 0
M  V30 20326 N 1908.23 -1.57291 0.0985816 0
M  V30 20327 C 1909.48 -1.94094 -0.563189 0
M  V30 20328 C 1909.8 -0.981394 -1.68504 0
M  V30 20329 O 1909.07 -0.0340632 -1.9587 0
M  V30 20330 H 1907.65 -0.716571 -0.211033 0
M  V30 20331 H 1910.31 -1.94219 0.162732 0
M  V30 20332 H 1909.4 -2.96607 -0.971113 0
M  V30 20333 N 1909.71 0.175127 -1.56624 0
M  V30 20334 C 1911.12 0.737951 -1.71497 0
M  V30 20335 C 1911.47 1.82962 -0.708475 0
M  V30 20336 O 1910.59 2.16003 0.13096 0
M  V30 20337 C 1911.19 1.34536 -3.10943 0
M  V30 20338 C 1909.75 1.85505 -3.27513 0
M  V30 20339 C 1908.89 0.732564 -2.67449 0
M  V30 20340 H 1911.84 -0.0502185 -1.58621 0
M  V30 20341 H 1911.87 2.21502 -3.09382 0
M  V30 20342 H 1911.38 0.5506 -3.84174 0
M  V30 20343 H 1909.48 2.67637 -2.59232 0
M  V30 20344 H 1909.59 2.00311 -4.35215 0
M  V30 20345 H 1907.96 1.15203 -2.27157 0
M  V30 20346 H 1908.74 -0.050288 -3.43263 0
M  V30 20347 N 1911.18 1.5123 0.44355 0
M  V30 20348 C 1912.43 1.62825 1.19041 0
M  V30 20349 C 1912.75 0.347298 1.92492 0
M  V30 20350 O 1913.95 0.342537 2.69331 0
M  V30 20351 C 1912.41 2.87532 2.16456 0
M  V30 20352 C 1912.02 4.22608 1.48682 0
M  V30 20353 C 1913.76 3.08483 2.91614 0
M  V30 20354 C 1911.67 5.38472 2.44544 0
M  V30 20355 H 1910.6 0.606444 0.448041 0
M  V30 20356 H 1913.25 1.77691 0.458065 0
M  V30 20357 H 1911.63 2.66287 2.931 0
M  V30 20358 H 1912.8 4.54212 0.776389 0
M  V30 20359 H 1911.12 4.07485 0.857007 0
M  V30 20360 H 1913.72 3.92219 3.63413 0
M  V30 20361 H 1914.06 2.2131 3.52601 0
M  V30 20362 H 1914.59 3.30039 2.22078 0
M  V30 20363 H 1911.33 6.27886 1.88255 0
M  V30 20364 H 1910.85 5.11252 3.13658 0
M  V30 20365 H 1912.53 5.70169 3.05804 0
M  V30 20366 N 1912.66 -0.698586 1.41271 0
M  V30 20367 C 1913.57 -1.8424 1.45234 0
M  V30 20368 C 1914.59 -1.70581 0.343225 0
M  V30 20369 O 1915.76 -1.9255 0.590477 0
M  V30 20370 C 1912.83 -3.20195 1.32951 0
M  V30 20371 C 1911.89 -3.45984 2.54152 0
M  V30 20372 C 1911.12 -4.75453 2.42446 0
M  V30 20373 O 1911.35 -5.5173 1.44741 0
M  V30 20374 O 1910.28 -5.01958 3.32147 0
M  V30 20375 H 1914.11 -1.83853 2.41727 0
M  V30 20376 H 1911.69 -0.851252 1.22776 0
M  V30 20377 H 1913.57 -4.0137 1.28374 0
M  V30 20378 H 1912.25 -3.21272 0.395728 0
M  V30 20379 H 1911.15 -2.64751 2.64306 0
M  V30 20380 H 1912.49 -3.49718 3.46349 0
M  V30 20381 N 1914.14 -1.27049 -0.93254 0
M  V30 20382 C 1915.1 -1.09404 -2.01404 0
M  V30 20383 C 1916.1 -0.0395757 -1.60751 0
M  V30 20384 O 1917.29 -0.283746 -1.71874 0
M  V30 20385 C 1914.42 -0.665948 -3.34332 0
M  V30 20386 H 1915.62 -2.05434 -2.18488 0
M  V30 20387 H 1913.17 -1.09768 -1.11268 0
M  V30 20388 H 1913.91 0.295952 -3.22947 0
M  V30 20389 H 1913.69 -1.42745 -3.65194 0
M  V30 20390 H 1915.18 -0.564591 -4.13766 0
M  V30 20391 N 1915.62 1.13835 -1.08993 0
M  V30 20392 C 1916.87 1.84361 -0.818161 0
M  V30 20393 C 1917.18 1.84185 0.658437 0
M  V30 20394 O 1918.39 2.50559 1.04558 0
M  V30 20395 C 1916.84 3.30973 -1.41367 0
M  V30 20396 C 1916.45 3.3955 -2.92249 0
M  V30 20397 C 1918.19 4.06571 -1.22066 0
M  V30 20398 C 1916.1 4.80408 -3.44908 0
M  V30 20399 H 1915.03 0.690704 -0.302397 0
M  V30 20400 H 1917.68 1.28283 -1.31208 0
M  V30 20401 H 1916.06 3.86826 -0.84745 0
M  V30 20402 H 1917.24 2.93716 -3.5506 0
M  V30 20403 H 1915.55 2.77413 -3.10533 0
M  V30 20404 H 1918.15 5.10554 -1.58868 0
M  V30 20405 H 1918.49 4.15989 -0.160946 0
M  V30 20406 H 1919.03 3.57036 -1.75415 0
M  V30 20407 H 1915.76 4.76181 -4.5048 0
M  V30 20408 H 1915.28 5.26756 -2.86859 0
M  V30 20409 H 1916.96 5.49315 -3.4185 0
M  V30 20410 N 1917.1 0.876467 1.3098 0
M  V30 20411 C 1918.03 0.294228 2.27304 0
M  V30 20412 C 1919.04 -0.546404 1.53357 0
M  V30 20413 O 1920.23 -0.367339 1.74679 0
M  V30 20414 C 1917.33 -0.600972 3.33529 0
M  V30 20415 C 1916.5 0.208678 4.36902 0
M  V30 20416 C 1915.56 -0.615677 5.22586 0
M  V30 20417 O 1914.59 -0.0413981 5.69185 0
M  V30 20418 N 1915.79 -1.92644 5.47603 0
M  V30 20419 H 1918.55 1.12201 2.77905 0
M  V30 20420 H 1916.12 0.738597 1.44071 0
M  V30 20421 H 1918.11 -1.15831 3.8777 0
M  V30 20422 H 1916.68 -1.32943 2.82922 0
M  V30 20423 H 1915.9 0.947462 3.82644 0
M  V30 20424 H 1917.19 0.763998 5.03031 0
M  V30 20425 H 1916.58 -2.41605 5.11511 0
M  V30 20426 H 1915.14 -2.43141 6.04752 0
M  V30 20427 N 1918.57 -1.44173 0.636557 0
M  V30 20428 C 1919.52 -2.30708 -0.0651156 0
M  V30 20429 C 1920.49 -1.43795 -0.831389 0
M  V30 20430 O 1921.68 -1.7269 -0.81134 0
M  V30 20431 C 1918.82 -3.2915 -1.03703 0
M  V30 20432 C 1917.93 -4.31164 -0.268603 0
M  V30 20433 C 1917.06 -5.16696 -1.23282 0
M  V30 20434 C 1916.1 -6.10415 -0.453864 0
M  V30 20435 N 1915.24 -6.88628 -1.36881 0
M  V30 20436 H 1920.08 -2.90167 0.678744 0
M  V30 20437 H 1917.62 -1.42961 0.346492 0
M  V30 20438 H 1919.57 -3.84717 -1.61395 0
M  V30 20439 H 1918.2 -2.71379 -1.74795 0
M  V30 20440 H 1917.26 -3.78026 0.424338 0
M  V30 20441 H 1918.57 -4.97655 0.337844 0
M  V30 20442 H 1917.72 -5.76807 -1.88091 0
M  V30 20443 H 1916.46 -4.50292 -1.87318 0
M  V30 20444 H 1915.47 -5.49408 0.207683 0
M  V30 20445 H 1916.69 -6.78856 0.181863 0
M  V30 20446 H 1914.64 -6.24887 -1.99629 0
M  V30 20447 H 1914.55 -7.51578 -0.816523 0
M  V30 20448 H 1915.82 -7.53258 -2.00558 0
M  V30 20449 N 1920.05 -0.377435 -1.53014 0
M  V30 20450 C 1921.28 0.211512 -2.06319 0
M  V30 20451 C 1921.7 1.40713 -1.24825 0
M  V30 20452 O 1921.06 1.79274 -0.270279 0
M  V30 20453 C 1921.11 0.571512 -3.56042 0
M  V30 20454 O 1920.21 1.66713 -3.77201 0
M  V30 20455 H 1919.55 0.0279862 -0.66341 0
M  V30 20456 H 1922.08 -0.541471 -1.97305 0
M  V30 20457 H 1922.09 0.839182 -3.99277 0
M  V30 20458 H 1920.77 -0.302672 -4.14797 0
M  V30 20459 H 1919.34 1.3941 -3.4586 0
M  V30 20460 N 1921.53 1.57237 -0.106922 0
M  V30 20461 C 1922.78 1.95064 0.554803 0
M  V30 20462 C 1923.11 0.989597 1.67095 0
M  V30 20463 O 1922.38 0.0246857 1.94484 0
M  V30 20464 C 1922.67 3.42924 1.09887 0
M  V30 20465 C 1922.52 4.49798 -0.0130257 0
M  V30 20466 C 1923.84 3.92358 1.99356 0
M  V30 20467 H 1920.96 0.709287 0.200204 0
M  V30 20468 H 1923.6 1.89145 -0.180032 0
M  V30 20469 H 1921.75 3.48098 1.7251 0
M  V30 20470 H 1923.42 4.56729 -0.647804 0
M  V30 20471 H 1921.67 4.28472 -0.677825 0
M  V30 20472 H 1922.34 5.50485 0.40868 0
M  V30 20473 H 1924.81 3.89411 1.46622 0
M  V30 20474 H 1923.69 4.9636 2.34346 0
M  V30 20475 H 1923.95 3.32343 2.91549 0
M  V30 20476 N 1923.01 -0.166818 1.56715 0
M  V30 20477 C 1924.42 -0.518754 1.50934 0
M  V30 20478 C 1924.62 -1.84416 0.811964 0
M  V30 20479 O 1923.68 -2.49712 0.374207 0
M  V30 20480 C 1924.99 -0.547356 2.95676 0
M  V30 20481 C 1926.54 -0.634247 3.06507 0
M  V30 20482 C 1927.02 -0.693699 4.52716 0
M  V30 20483 N 1928.51 -0.756466 4.56981 0
M  V30 20484 C 1929.24 -0.823116 5.67461 0
M  V30 20485 N 1928.74 -0.850325 6.87562 0
M  V30 20486 N 1930.53 -0.862482 5.55444 0
M  V30 20487 H 1922.68 0.70222 2.00456 0
M  V30 20488 H 1924.95 0.253731 0.913414 0
M  V30 20489 H 1924.65 0.357945 3.49874 0
M  V30 20490 H 1924.53 -1.39227 3.50565 0
M  V30 20491 H 1926.91 -1.52997 2.52341 0
M  V30 20492 H 1926.99 0.23743 2.54696 0
M  V30 20493 H 1926.64 0.197788 5.07515 0
M  V30 20494 H 1926.57 -1.58158 5.02288 0
M  V30 20495 H 1929.06 -0.74354 3.70513 0
M  V30 20496 H 1929.37 -0.902481 7.67512 0
M  V30 20497 H 1927.72 -0.818528 6.90163 0
M  V30 20498 H 1930.91 -0.838257 4.60533 0
M  V30 20499 H 1931.08 -0.910962 6.41565 0
M  V30 20500 N 1924.49 -1.51463 -0.435524 0
M  V30 20501 C 1925.42 -1.75856 -1.53613 0
M  V30 20502 C 1926.4 -0.608449 -1.58846 0
M  V30 20503 O 1927.58 -0.85135 -1.74544 0
M  V30 20504 C 1924.71 -1.88525 -2.91677 0
M  V30 20505 C 1923.67 -3.03972 -3.01305 0
M  V30 20506 C 1922.99 -3.01828 -4.41366 0
M  V30 20507 C 1924.29 -4.43905 -2.75219 0
M  V30 20508 H 1925.99 -2.68013 -1.33452 0
M  V30 20509 H 1923.53 -1.28968 -0.640564 0
M  V30 20510 H 1925.49 -2.04173 -3.68634 0
M  V30 20511 H 1924.21 -0.930179 -3.13074 0
M  V30 20512 H 1922.87 -2.88033 -2.26788 0
M  V30 20513 H 1922.52 -2.04095 -4.59733 0
M  V30 20514 H 1922.22 -3.79353 -4.48737 0
M  V30 20515 H 1923.74 -3.19572 -5.20294 0
M  V30 20516 H 1925.15 -4.60187 -3.41908 0
M  V30 20517 H 1923.55 -5.2315 -2.93998 0
M  V30 20518 H 1924.62 -4.53818 -1.70814 0
M  V30 20519 N 1925.96 0.691085 -1.4164 0
M  V30 20520 C 1927.21 1.45114 -1.41238 0
M  V30 20521 C 1927.54 1.94486 -0.0230695 0
M  V30 20522 O 1926.79 1.70206 0.96583 0
M  V30 20523 C 1927.09 2.67547 -2.36967 0
M  V30 20524 C 1926.76 2.36807 -3.8371 0
M  V30 20525 C 1925.42 2.28134 -4.23684 0
M  V30 20526 C 1927.77 2.11542 -4.7634 0
M  V30 20527 C 1925.1 1.92299 -5.54291 0
M  V30 20528 C 1927.45 1.77214 -6.07271 0
M  V30 20529 C 1926.12 1.6704 -6.46262 0
M  V30 20530 H 1925.39 0.531011 -0.516825 0
M  V30 20531 H 1928.03 0.789481 -1.74469 0
M  V30 20532 H 1926.34 3.38668 -1.97006 0
M  V30 20533 H 1928.04 3.25697 -2.33928 0
M  V30 20534 H 1924.63 2.44453 -3.52052 0
M  V30 20535 H 1928.81 2.17184 -4.46256 0
M  V30 20536 H 1924.07 1.82978 -5.83377 0
M  V30 20537 H 1928.24 1.56685 -6.78545 0
M  V30 20538 H 1925.87 1.3904 -7.47377 0
M  V30 20539 N 1927.44 1.27542 0.925789 0
M  V30 20540 C 1928.35 1.1225 2.06002 0
M  V30 20541 C 1929.37 0.0520487 1.73922 0
M  V30 20542 O 1930.54 0.258921 1.99729 0
M  V30 20543 C 1927.61 0.773231 3.37967 0
M  V30 20544 C 1926.67 1.92476 3.83733 0
M  V30 20545 C 1925.9 1.59206 5.09401 0
M  V30 20546 O 1926.13 0.500836 5.68197 0
M  V30 20547 O 1925.06 2.43185 5.50586 0
M  V30 20548 H 1928.89 2.07439 2.21817 0
M  V30 20549 H 1926.47 1.06747 1.04525 0
M  V30 20550 H 1928.35 0.591863 4.17223 0
M  V30 20551 H 1927.03 -0.149116 3.23356 0
M  V30 20552 H 1925.94 2.1612 3.05357 0
M  V30 20553 H 1927.27 2.82738 4.02889 0
M  V30 20554 N 1928.92 -1.13255 1.09595 0
M  V30 20555 C 1929.83 -2.22321 0.74904 0
M  V30 20556 C 1930.85 -1.72198 -0.24974 0
M  V30 20557 O 1932.02 -2.01196 -0.090652 0
M  V30 20558 C 1929.09 -3.4625 0.17665 0
M  V30 20559 C 1928.15 -4.11254 1.2316 0
M  V30 20560 C 1927.38 -5.29267 0.686427 0
M  V30 20561 O 1927.6 -5.68291 -0.490088 0
M  V30 20562 O 1926.54 -5.84365 1.44227 0
M  V30 20563 H 1930.36 -2.5437 1.6592 0
M  V30 20564 H 1927.95 -1.21422 0.870465 0
M  V30 20565 H 1929.83 -4.2117 -0.139147 0
M  V30 20566 H 1928.51 -3.15896 -0.706492 0
M  V30 20567 H 1927.41 -3.38152 1.60012 0
M  V30 20568 H 1928.75 -4.45743 2.08745 0
M  V30 20569 N 1930.4 -0.883401 -1.30514 0
M  V30 20570 C 1931.35 -0.347254 -2.28173 0
M  V30 20571 C 1932.32 0.561698 -1.56314 0
M  V30 20572 O 1933.5 0.490454 -1.84389 0
M  V30 20573 C 1930.64 0.433573 -3.42366 0
M  V30 20574 C 1929.75 -0.504417 -4.29045 0
M  V30 20575 C 1928.89 0.291853 -5.30398 0
M  V30 20576 C 1927.93 -0.641708 -6.08727 0
M  V30 20577 N 1927.06 0.119139 -7.01999 0
M  V30 20578 H 1931.9 -1.1852 -2.73417 0
M  V30 20579 H 1929.44 -0.595824 -1.34493 0
M  V30 20580 H 1931.4 0.902186 -4.07328 0
M  V30 20581 H 1930.03 1.23611 -2.98195 0
M  V30 20582 H 1929.08 -1.09152 -3.64404 0
M  V30 20583 H 1930.39 -1.21969 -4.83658 0
M  V30 20584 H 1929.55 0.822389 -6.011 0
M  V30 20585 H 1928.29 1.04035 -4.76475 0
M  V30 20586 H 1927.29 -1.18389 -5.36902 0
M  V30 20587 H 1928.52 -1.38927 -6.64738 0
M  V30 20588 H 1926.46 0.850204 -6.50467 0
M  V30 20589 H 1926.38 -0.536537 -7.54094 0
M  V30 20590 H 1927.65 0.63047 -7.76946 0
M  V30 20591 N 1931.88 1.43833 -0.644194 0
M  V30 20592 C 1933.29 1.56542 -0.310952 0
M  V30 20593 C 1933.49 1.62946 1.18536 0
M  V30 20594 O 1932.55 1.57961 1.96989 0
M  V30 20595 C 1933.86 2.83074 -1.01437 0
M  V30 20596 C 1935.41 2.96805 -0.993759 0
M  V30 20597 C 1935.88 4.26158 -1.6779 0
M  V30 20598 N 1937.38 4.33002 -1.64511 0
M  V30 20599 C 1938.11 5.31837 -2.14328 0
M  V30 20600 N 1937.61 6.37003 -2.72394 0
M  V30 20601 N 1939.4 5.23431 -2.04881 0
M  V30 20602 H 1931.55 1.37919 -1.61531 0
M  V30 20603 H 1933.81 0.661778 -0.678789 0
M  V30 20604 H 1933.52 2.84372 -2.06943 0
M  V30 20605 H 1933.39 3.73016 -0.560273 0
M  V30 20606 H 1935.78 2.95053 0.0528599 0
M  V30 20607 H 1935.86 2.08177 -1.48647 0
M  V30 20608 H 1935.51 4.28671 -2.72404 0
M  V30 20609 H 1935.44 5.13667 -1.15992 0
M  V30 20610 H 1937.93 3.57621 -1.22129 0
M  V30 20611 H 1938.24 7.08724 -3.08107 0
M  V30 20612 H 1936.58 6.37652 -2.76451 0
M  V30 20613 H 1939.78 4.40186 -1.59229 0
M  V30 20614 H 1939.95 6.00301 -2.44015 0
M  V30 20615 N 1933.35 0.385544 1.52811 0
M  V30 20616 C 1934.58 -0.197738 2.05652 0
M  V30 20617 C 1934.99 -1.41373 1.2574 0
M  V30 20618 O 1934.34 -1.81297 0.296184 0
M  V30 20619 C 1934.4 -0.636031 3.53829 0
M  V30 20620 C 1934.06 0.465981 4.54618 0
M  V30 20621 C 1935.06 1.3222 5.02806 0
M  V30 20622 C 1932.74 0.631936 4.98309 0
M  V30 20623 C 1934.74 2.32954 5.93305 0
M  V30 20624 C 1932.42 1.64261 5.8861 0
M  V30 20625 C 1933.42 2.48983 6.36 0
M  V30 20626 O 1933.11 3.48324 7.24518 0
M  V30 20627 H 1932.84 -0.0343646 0.675126 0
M  V30 20628 H 1935.4 0.548149 1.97951 0
M  V30 20629 H 1933.63 -1.43384 3.59135 0
M  V30 20630 H 1935.32 -1.14456 3.89429 0
M  V30 20631 H 1936.08 1.20528 4.69785 0
M  V30 20632 H 1931.96 -0.0177815 4.60997 0
M  V30 20633 H 1935.5 2.99118 6.30218 0
M  V30 20634 H 1931.4 1.75993 6.21045 0
M  V30 20635 H 1932.17 3.44288 7.42569 0
M  V30 20636 N 1934.83 -1.57178 0.115259 0
M  V30 20637 C 1936.25 -1.57765 -0.241345 0
M  V30 20638 C 1936.45 -1.12775 -1.66985 0
M  V30 20639 O 1935.5 -0.813419 -2.39039 0
M  V30 20640 C 1936.82 -3.00698 -0.0114291 0
M  V30 20641 C 1938.37 -3.12904 -0.0776187 0
M  V30 20642 C 1938.84 -4.57831 0.124557 0
M  V30 20643 N 1940.33 -4.63146 0.0703998 0
M  V30 20644 C 1941.07 -5.73045 0.20179 0
M  V30 20645 N 1940.56 -6.91706 0.389143 0
M  V30 20646 N 1942.36 -5.61922 0.141629 0
M  V30 20647 H 1934.51 -1.84725 1.04836 0
M  V30 20648 H 1936.77 -0.853542 0.412517 0
M  V30 20649 H 1936.48 -3.37886 0.975995 0
M  V30 20650 H 1936.35 -3.69771 -0.744947 0
M  V30 20651 H 1938.74 -2.75575 -1.05556 0
M  V30 20652 H 1938.82 -2.46382 0.687719 0
M  V30 20653 H 1938.46 -4.95857 1.09946 0
M  V30 20654 H 1938.39 -5.22439 -0.660721 0
M  V30 20655 H 1940.88 -3.77833 -0.0710442 0
M  V30 20656 H 1941.2 -7.71306 0.480365 0
M  V30 20657 H 1939.54 -6.93699 0.425069 0
M  V30 20658 H 1942.73 -4.681 -0.00374873 0
M  V30 20659 H 1942.9 -6.47527 0.24747 0
M  V30 20660 N 1936.31 0.158505 -1.56801 0
M  V30 20661 C 1937.22 1.2157 -2.00644 0
M  V30 20662 C 1938.24 1.47694 -0.919914 0
M  V30 20663 O 1939.41 1.59591 -1.22853 0
M  V30 20664 C 1936.48 2.53191 -2.36844 0
M  V30 20665 C 1935.54 2.34816 -3.59389 0
M  V30 20666 C 1934.77 3.60161 -3.93853 0
M  V30 20667 O 1935 4.65871 -3.29121 0
M  V30 20668 O 1933.93 3.53508 -4.8715 0
M  V30 20669 H 1937.76 0.873512 -2.90867 0
M  V30 20670 H 1935.34 0.366356 -1.44839 0
M  V30 20671 H 1937.22 3.30812 -2.6104 0
M  V30 20672 H 1935.9 2.86963 -1.4978 0
M  V30 20673 H 1934.8 1.55184 -3.40395 0
M  V30 20674 H 1936.14 2.05964 -4.47034 0
M  V30 20675 N 1937.79 1.51692 0.427485 0
M  V30 20676 C 1938.72 1.68413 1.53988 0
M  V30 20677 C 1939.7 0.531673 1.53662 0
M  V30 20678 O 1940.88 0.756748 1.72643 0
M  V30 20679 C 1938.01 1.70671 2.92556 0
M  V30 20680 C 1937.06 2.91998 3.10868 0
M  V30 20681 S 1937.89 4.52653 2.86122 0
M  V30 20682 C 1939.05 4.5767 4.26953 0
M  V30 20683 H 1939.28 2.62501 1.39573 0
M  V30 20684 H 1936.81 1.41499 0.617842 0
M  V30 20685 H 1938.77 1.72657 3.72424 0
M  V30 20686 H 1937.43 0.777425 3.04327 0
M  V30 20687 H 1936.62 2.90008 4.12203 0
M  V30 20688 H 1936.23 2.87805 2.38839 0
M  V30 20689 H 1938.52 4.33917 5.20309 0
M  V30 20690 H 1939.46 5.59529 4.33974 0
M  V30 20691 H 1939.87 3.8689 4.11067 0
M  V30 20692 N 1939.27 -0.683564 1.42004 0
M  V30 20693 C 1940.68 -0.99563 1.24737 0
M  V30 20694 C 1940.88 -2.00976 0.145285 0
M  V30 20695 O 1939.94 -2.47771 -0.486376 0
M  V30 20696 C 1941.25 -1.50879 2.60108 0
M  V30 20697 C 1942.8 -1.62701 2.6739 0
M  V30 20698 C 1943.28 -2.17416 4.03106 0
M  V30 20699 N 1944.77 -2.24761 4.05015 0
M  V30 20700 C 1945.5 -2.68151 5.06836 0
M  V30 20701 N 1945 -3.11059 6.19043 0
M  V30 20702 N 1946.79 -2.67822 4.94194 0
M  V30 20703 H 1938.94 -0.011962 2.12397 0
M  V30 20704 H 1941.2 -0.0678489 0.945569 0
M  V30 20705 H 1940.91 -0.838159 3.41567 0
M  V30 20706 H 1940.78 -2.48899 2.83424 0
M  V30 20707 H 1943.17 -2.28873 1.86282 0
M  V30 20708 H 1943.25 -0.631947 2.47871 0
M  V30 20709 H 1942.9 -1.51856 4.84667 0
M  V30 20710 H 1942.83 -3.17698 4.19971 0
M  V30 20711 H 1945.32 -1.94497 3.24005 0
M  V30 20712 H 1945.63 -3.42828 6.92596 0
M  V30 20713 H 1943.98 -3.08937 6.22561 0
M  V30 20714 H 1947.17 -2.33658 4.05613 0
M  V30 20715 H 1947.34 -3.01318 5.73682 0
M  V30 20716 N 1940.75 -1.28031 -0.919012 0
M  V30 20717 C 1942.16 -1.05624 -1.19649 0
M  V30 20718 C 1942.36 0.204731 -2.00457 0
M  V30 20719 O 1941.42 0.907849 -2.35615 0
M  V30 20720 C 1942.73 -2.3007 -1.93619 0
M  V30 20721 C 1944.28 -2.35196 -2.06523 0
M  V30 20722 C 1944.75 -3.59395 -2.839 0
M  V30 20723 N 1946.24 -3.60004 -2.91464 0
M  V30 20724 C 1946.98 -4.52779 -3.51822 0
M  V30 20725 N 1946.48 -5.55868 -4.13501 0
M  V30 20726 N 1948.27 -4.40385 -3.4931 0
M  V30 20727 H 1940.42 -2.08985 -0.379372 0
M  V30 20728 H 1942.68 -0.919558 -0.230473 0
M  V30 20729 H 1942.39 -3.21907 -1.41665 0
M  V30 20730 H 1942.26 -2.36071 -2.94195 0
M  V30 20731 H 1944.65 -1.4386 -2.57659 0
M  V30 20732 H 1944.73 -2.33194 -1.0514 0
M  V30 20733 H 1944.37 -4.51072 -2.33445 0
M  V30 20734 H 1944.3 -3.58651 -3.85587 0
M  V30 20735 H 1946.8 -2.85455 -2.47637 0
M  V30 20736 H 1947.11 -6.22812 -4.57521 0
M  V30 20737 H 1945.45 -5.597 -4.12021 0
M  V30 20738 H 1948.64 -3.59053 -3.0033 0
M  V30 20739 H 1948.82 -5.12877 -3.96057 0
M  V30 20740 N 1942.22 1.12672 -1.10194 0
M  V30 20741 C 1943.17 2.18326 -0.748496 0
M  V30 20742 C 1944.14 1.63824 0.274007 0
M  V30 20743 O 1945.33 1.90179 0.153852 0
M  V30 20744 C 1942.47 3.4461 -0.183772 0
M  V30 20745 C 1941.58 4.13178 -1.26127 0
M  V30 20746 C 1940.71 5.27103 -0.658462 0
M  V30 20747 C 1939.75 5.87533 -1.71672 0
M  V30 20748 N 1938.89 6.92876 -1.13435 0
M  V30 20749 H 1943.73 2.47906 -1.65369 0
M  V30 20750 H 1941.27 1.21715 -0.826064 0
M  V30 20751 H 1943.22 4.16887 0.161511 0
M  V30 20752 H 1941.85 3.15456 0.684657 0
M  V30 20753 H 1940.91 3.39105 -1.72372 0
M  V30 20754 H 1942.22 4.54163 -2.06246 0
M  V30 20755 H 1941.37 6.06132 -0.26248 0
M  V30 20756 H 1940.11 4.87389 0.174183 0
M  V30 20757 H 1939.12 5.07193 -2.12215 0
M  V30 20758 H 1940.34 6.29318 -2.55217 0
M  V30 20759 H 1938.29 6.55204 -0.323127 0
M  V30 20760 H 1938.2 7.32446 -1.8724 0
M  V30 20761 H 1939.47 7.75739 -0.764838 0
M  V30 20762 N 1943.7 0.89031 1.30043 0
M  V30 20763 C 1944.65 0.35066 2.29942 0
M  V30 20764 C 1945.64 -0.545188 1.60387 0
M  V30 20765 O 1946.85 -0.42903 1.74812 0
M  V30 20766 H 1943.22 0.0947502 0.746007 0
M  V30 20767 H 1945.2 1.20676 2.7291 0
M  V30 20768 C 1943.94 -0.415088 3.45213 0
M  V30 20769 H 1943.27 0.265007 3.98921 0
M  V30 20770 H 1944.71 -0.757694 4.17175 0
M  V30 20771 C 1943.17 -1.6142 2.95711 0
M  V30 20772 O 1943.7 -2.71355 2.96191 0
M  V30 20773 N 1941.9 -1.45317 2.51657 0
M  V30 20774 H 1941.45 -0.558807 2.51466 0
M  V30 20775 H 1941.41 -2.25683 2.18894 0
M  V30 20776 N 1945.18 -1.43489 0.651812 0
M  V30 20777 C 1946.43 -2.01049 0.161972 0
M  V30 20778 C 1946.74 -1.52018 -1.23085 0
M  V30 20779 O 1947.95 -2.01842 -1.81583 0
M  V30 20780 C 1946.4 -3.59107 0.238761 0
M  V30 20781 C 1946.01 -4.17131 1.63419 0
M  V30 20782 C 1947.76 -4.24059 -0.193548 0
M  V30 20783 C 1945.66 -5.67479 1.66498 0
M  V30 20784 H 1944.59 -0.751858 0.0567901 0
M  V30 20785 H 1947.24 -1.64475 0.813641 0
M  V30 20786 H 1945.63 -3.93075 -0.48039 0
M  V30 20787 H 1946.8 -3.94665 2.37858 0
M  V30 20788 H 1945.11 -3.64546 2.01235 0
M  V30 20789 H 1947.71 -5.34361 -0.190368 0
M  V30 20790 H 1948.05 -3.97877 -1.22472 0
M  V30 20791 H 1948.59 -3.94968 0.473805 0
M  V30 20792 H 1945.33 -5.98426 2.6752 0
M  V30 20793 H 1944.85 -5.92006 0.963819 0
M  V30 20794 H 1946.53 -6.31492 1.40809 0
M  V30 20795 N 1946.66 -0.393643 -1.52605 0
M  V30 20796 C 1947.91 0.188423 -2.00818 0
M  V30 20797 C 1948.22 1.47537 -1.28422 0
M  V30 20798 O 1949.43 2.13775 -1.6737 0
M  V30 20799 C 1947.88 0.386341 -3.5782 0
M  V30 20800 C 1947.49 -0.887606 -4.39119 0
M  V30 20801 C 1949.23 0.924537 -4.1431 0
M  V30 20802 C 1947.14 -0.657729 -5.87731 0
M  V30 20803 H 1946.07 0.0741894 -0.750341 0
M  V30 20804 H 1948.72 -0.516709 -1.76075 0
M  V30 20805 H 1947.1 1.15343 -3.7883 0
M  V30 20806 H 1948.28 -1.65965 -4.29875 0
M  V30 20807 H 1946.59 -1.35107 -3.93872 0
M  V30 20808 H 1949.19 1.1123 -5.23003 0
M  V30 20809 H 1949.53 1.89484 -3.70677 0
M  V30 20810 H 1950.07 0.216908 -3.97208 0
M  V30 20811 H 1946.8 -1.59915 -6.35694 0
M  V30 20812 H 1946.32 0.0752963 -5.99753 0
M  V30 20813 H 1948 -0.293935 -6.46332 0
M  V30 20814 N 1948.14 1.57115 -0.123593 0
M  V30 20815 C 1949.38 1.94966 0.532239 0
M  V30 20816 C 1949.7 1.00808 1.66922 0
M  V30 20817 O 1948.97 0.0652202 1.95791 0
M  V30 20818 H 1947.55 0.719838 0.199607 0
M  V30 20819 H 1950.22 1.93936 -0.19361 0
M  V30 20820 H 1949.31 2.98115 0.923802 0
M  V30 20821 N 1949.61 -0.150187 1.56883 0
M  V30 20822 C 1950.55 -1.21056 1.94623 0
M  V30 20823 C 1951.56 -1.39353 0.841694 0
M  V30 20824 O 1952.75 -1.38981 1.12011 0
M  V30 20825 C 1949.85 -2.57592 2.20226 0
M  V30 20826 C 1949.02 -2.60315 3.51504 0
M  V30 20827 C 1948.08 -3.78367 3.65684 0
M  V30 20828 O 1947.11 -3.63388 4.38107 0
M  V30 20829 N 1948.31 -4.95691 3.0211 0
M  V30 20830 H 1951.07 -0.8898 2.86186 0
M  V30 20831 H 1948.63 -0.339778 1.58294 0
M  V30 20832 H 1950.63 -3.35071 2.26957 0
M  V30 20833 H 1949.2 -2.81973 1.34943 0
M  V30 20834 H 1948.42 -1.68776 3.56242 0
M  V30 20835 H 1949.7 -2.59163 4.3785 0
M  V30 20836 H 1949.1 -5.10764 2.43181 0
M  V30 20837 H 1947.66 -5.70957 3.14407 0
M  V30 20838 N 1951.09 -1.51916 -0.419434 0
M  V30 20839 C 1952.34 -1.65714 -1.16905 0
M  V30 20840 C 1952.67 -0.380888 -1.90428 0
M  V30 20841 O 1951.95 0.620297 -1.84344 0
M  V30 20842 C 1952.23 -2.87239 -2.17177 0
M  V30 20843 C 1952.08 -4.24887 -1.47619 0
M  V30 20844 C 1953.4 -3.04281 -3.17964 0
M  V30 20845 H 1950.52 -0.603072 -0.423643 0
M  V30 20846 H 1953.16 -1.84446 -0.456035 0
M  V30 20847 H 1951.31 -2.71398 -2.77984 0
M  V30 20848 H 1952.98 -4.52433 -0.900112 0
M  V30 20849 H 1951.23 -4.26761 -0.778273 0
M  V30 20850 H 1951.9 -5.05945 -2.20733 0
M  V30 20851 H 1954.37 -3.18951 -2.67226 0
M  V30 20852 H 1953.25 -3.90843 -3.85399 0
M  V30 20853 H 1953.51 -2.17138 -3.85102 0
M  V30 20854 N 1952.57 0.676023 -1.42365 0
M  V30 20855 C 1953.81 1.44811 -1.44253 0
M  V30 20856 C 1954.17 1.91917 -0.0565699 0
M  V30 20857 O 1955.38 2.68754 0.0498119 0
M  V30 20858 C 1953.65 2.61392 -2.4374 0
M  V30 20859 S 1955.21 3.50257 -2.6432 0
M  V30 20860 H 1952.02 0.494609 -0.510767 0
M  V30 20861 H 1954.63 0.787035 -1.78958 0
M  V30 20862 H 1953.33 2.25022 -3.4321 0
M  V30 20863 H 1952.86 3.32373 -2.10456 0
M  V30 20864 H 1954.88 4.57326 -1.92529 0
M  V30 20865 N 1954.05 1.28517 0.912209 0
M  V30 20866 C 1955.33 1.0646 1.6409 0
M  V30 20867 C 1955.71 -0.395521 2.07362 0
M  V30 20868 O 1955.05 -1.3819 1.81978 0
M  V30 20869 C 1955.26 2.04064 2.83123 0
M  V30 20870 C 1956.61 2.34295 3.54106 0
M  V30 20871 O 1957.64 2.0216 2.93274 0
M  V30 20872 O 1956.49 2.89146 4.63742 0
M  V30 20873 H 1953.59 0.406984 0.719926 0
M  V30 20874 H 1956.13 1.39841 0.961378 0
M  V30 20875 H 1954.91 3.02467 2.48253 0
M  V30 20876 H 1954.53 1.71338 3.58788 0
M  V30 20877 N 1955.53 -1.12086 1.1079 0
M  V30 20878 C 1956.75 -1.87493 0.874862 0
M  V30 20879 C 1957.17 -1.79834 -0.574907 0
M  V30 20880 O 1956.53 -1.17483 -1.39657 0
M  V30 20881 C 1956.58 -3.36566 1.3193 0
M  V30 20882 O 1956.3 -3.4405 2.71222 0
M  V30 20883 C 1957.8 -4.289 1.12069 0
M  V30 20884 H 1955.02 -0.593122 0.313764 0
M  V30 20885 H 1957.56 -1.41803 1.4735 0
M  V30 20886 H 1955.72 -3.79787 0.764254 0
M  V30 20887 H 1956.13 -4.36824 2.90319 0
M  V30 20888 H 1957.61 -5.31768 1.48076 0
M  V30 20889 H 1958.08 -4.3916 0.0596432 0
M  V30 20890 H 1958.69 -3.91465 1.66238 0
M  V30 20891 N 1957 -0.897194 -1.29569 0
M  V30 20892 C 1958.42 -0.570676 -1.77764 0
M  V30 20893 C 1958.77 0.913595 -1.73631 0
M  V30 20894 O 1957.89 1.71426 -1.32068 0
M  V30 20895 C 1958.49 -1.02914 -3.22791 0
M  V30 20896 C 1957.05 -0.753828 -3.68774 0
M  V30 20897 C 1956.19 -1.20525 -2.49738 0
M  V30 20898 H 1959.14 -1.08018 -1.16266 0
M  V30 20899 H 1959.16 -0.363343 -3.78761 0
M  V30 20900 H 1958.68 -2.10944 -3.25767 0
M  V30 20901 H 1956.78 0.313965 -3.71275 0
M  V30 20902 H 1956.89 -1.34995 -4.59688 0
M  V30 20903 H 1955.25 -0.624304 -2.4693 0
M  V30 20904 H 1956.04 -2.29355 -2.55443 0
M  V30 20905 N 1958.48 1.43142 -0.659413 0
M  V30 20906 C 1959.43 2.30783 0.0284037 0
M  V30 20907 C 1960.4 1.451 0.808407 0
M  V30 20908 O 1961.58 1.73959 0.783764 0
M  V30 20909 C 1958.72 3.30758 0.984529 0
M  V30 20910 C 1957.84 4.31537 0.199975 0
M  V30 20911 C 1956.97 5.18592 1.15046 0
M  V30 20912 C 1956.01 6.1106 0.356695 0
M  V30 20913 N 1955.15 6.90718 1.25909 0
M  V30 20914 H 1959.99 2.89051 -0.724821 0
M  V30 20915 H 1957.53 1.42392 -0.369192 0
M  V30 20916 H 1959.48 3.87236 1.55254 0
M  V30 20917 H 1958.11 2.74125 1.70456 0
M  V30 20918 H 1957.17 3.77303 -0.484425 0
M  V30 20919 H 1958.48 4.97054 -0.416974 0
M  V30 20920 H 1957.63 5.79727 1.7889 0
M  V30 20921 H 1956.37 4.53215 1.80131 0
M  V30 20922 H 1955.38 5.49008 -0.295063 0
M  V30 20923 H 1956.6 6.78481 -0.28984 0
M  V30 20924 H 1954.55 6.27984 1.89662 0
M  V30 20925 H 1954.46 7.52782 0.69685 0
M  V30 20926 H 1955.73 7.56353 1.88549 0
M  V30 20927 N 1959.96 0.40173 1.52394 0
M  V30 20928 C 1961.19 -0.178662 2.06629 0
M  V30 20929 C 1961.61 -1.3871 1.27048 0
M  V30 20930 O 1960.97 -1.78821 0.298765 0
M  V30 20931 C 1961.02 -0.514797 3.56906 0
M  V30 20932 O 1960.12 -1.60691 3.79805 0
M  V30 20933 H 1959.46 -0.0174284 0.663771 0
M  V30 20934 H 1961.99 0.572792 1.96419 0
M  V30 20935 H 1962 -0.775554 4.00561 0
M  V30 20936 H 1960.68 0.368624 4.14263 0
M  V30 20937 H 1959.25 -1.3389 3.48034 0
M  V30 20938 N 1961.44 -1.57047 0.131923 0
M  V30 20939 C 1962.67 -1.99699 -0.52952 0
M  V30 20940 C 1963.08 -1.01077 -1.59938 0
M  V30 20941 O 1962.42 0.00256808 -1.837 0
M  V30 20942 C 1962.48 -3.38777 -1.20293 0
M  V30 20943 C 1962.15 -4.56145 -0.279483 0
M  V30 20944 C 1963.14 -5.17614 0.486981 0
M  V30 20945 C 1960.83 -5.01953 -0.186784 0
M  V30 20946 C 1962.82 -6.2329 1.33375 0
M  V30 20947 C 1960.51 -6.07486 0.6636 0
M  V30 20948 C 1961.51 -6.68023 1.42248 0
M  V30 20949 O 1961.19 -7.71516 2.25873 0
M  V30 20950 H 1960.93 -0.660552 -0.143691 0
M  V30 20951 H 1963.48 -2.0423 0.218962 0
M  V30 20952 H 1961.71 -3.31039 -1.99875 0
M  V30 20953 H 1963.4 -3.65634 -1.76258 0
M  V30 20954 H 1964.17 -4.83132 0.425311 0
M  V30 20955 H 1960.04 -4.54572 -0.76718 0
M  V30 20956 H 1963.59 -6.7047 1.92655 0
M  V30 20957 H 1959.49 -6.41397 0.726617 0
M  V30 20958 H 1960.25 -7.8867 2.18955 0
M  V30 20959 N 1962.92 0.141865 -1.5696 0
M  V30 20960 C 1964.19 0.882597 -1.74555 0
M  V30 20961 C 1964.57 1.9911 -0.701321 0
M  V30 20962 O 1963.92 2.26792 0.278854 0
M  V30 20963 C 1964.13 1.42034 -3.18791 0
M  V30 20964 C 1965.48 1.88172 -3.80626 0
M  V30 20965 O 1966.5 1.51764 -3.22252 0
M  V30 20966 O 1965.36 2.55333 -4.83185 0
M  V30 20967 H 1962.46 0.417461 -0.713902 0
M  V30 20968 H 1965 0.127389 -1.69221 0
M  V30 20969 H 1963.77 0.623945 -3.86293 0
M  V30 20970 H 1963.4 2.2389 -3.28571 0
M  V30 20971 N 1964.39 1.52136 0.411372 0
M  V30 20972 C 1965.34 1.75927 1.52159 0
M  V30 20973 C 1966.34 0.626317 1.57396 0
M  V30 20974 O 1967.54 0.808311 1.6083 0
M  V30 20975 H 1963.92 0.5563 0.505998 0
M  V30 20976 H 1965.89 2.68942 1.29278 0
M  V30 20977 C 1964.64 1.92496 2.89552 0
M  V30 20978 H 1963.96 2.79093 2.86264 0
M  V30 20979 H 1965.4 2.13143 3.66532 0
M  V30 20980 C 1963.86 0.691473 3.29728 0
M  V30 20981 O 1964.39 -0.141712 4.0145 0
M  V30 20982 N 1962.6 0.528019 2.85763 0
M  V30 20983 H 1962.14 1.20713 2.27565 0
M  V30 20984 H 1962.1 -0.295994 3.13004 0
M  V30 20985 N 1965.87 -0.668464 1.42721 0
M  V30 20986 C 1967.12 -1.43061 1.43741 0
M  V30 20987 C 1967.45 -1.9412 0.0558656 0
M  V30 20988 O 1966.73 -1.71317 -0.920904 0
M  V30 20989 C 1967.01 -2.62307 2.46712 0
M  V30 20990 C 1966.86 -2.16839 3.94082 0
M  V30 20991 C 1968.18 -3.64525 2.46596 0
M  V30 20992 H 1965.3 -0.518854 0.523412 0
M  V30 20993 H 1967.94 -0.759144 1.74175 0
M  V30 20994 H 1966.09 -3.19593 2.20891 0
M  V30 20995 H 1967.77 -1.64672 4.30907 0
M  V30 20996 H 1966.01 -1.48352 4.07645 0
M  V30 20997 H 1966.68 -3.02521 4.6172 0
M  V30 20998 H 1969.16 -3.16968 2.69574 0
M  V30 20999 H 1968.03 -4.45532 3.20613 0
M  V30 21000 H 1968.29 -4.16084 1.49421 0
M  V30 21001 N 1967.35 -1.28999 -0.905381 0
M  V30 21002 C 1968.28 -1.07966 -2.01044 0
M  V30 21003 C 1969.26 0.00678474 -1.62599 0
M  V30 21004 O 1970.45 -0.142798 -1.87958 0
M  V30 21005 C 1967.57 -0.642417 -3.32552 0
M  V30 21006 C 1966.62 -1.72673 -3.89982 0
M  V30 21007 S 1967.45 -3.32466 -4.19794 0
M  V30 21008 C 1968.61 -2.90596 -5.54351 0
M  V30 21009 H 1968.84 -2.01523 -2.18576 0
M  V30 21010 H 1966.37 -1.13081 -1.05128 0
M  V30 21011 H 1968.33 -0.396855 -4.08577 0
M  V30 21012 H 1966.99 0.273463 -3.12907 0
M  V30 21013 H 1966.19 -1.37261 -4.84949 0
M  V30 21014 H 1965.79 -1.92552 -3.20624 0
M  V30 21015 H 1968.08 -2.37288 -6.34587 0
M  V30 21016 H 1969.02 -3.84392 -5.94683 0
M  V30 21017 H 1969.43 -2.2906 -5.15938 0
M  V30 21018 N 1968.83 1.11497 -1.11383 0
M  V30 21019 C 1969.78 2.15632 -0.740724 0
M  V30 21020 C 1970.76 1.58867 0.254939 0
M  V30 21021 O 1971.96 1.76891 0.0621432 0
M  V30 21022 C 1969.08 3.42802 -0.184893 0
M  V30 21023 C 1968.17 4.06526 -1.20819 0
M  V30 21024 N 1968.56 4.45116 -2.40219 0
M  V30 21025 C 1966.86 4.3344 -1.05098 0
M  V30 21026 C 1967.56 4.95035 -3.05476 0
M  V30 21027 N 1966.54 4.91153 -2.32958 0
M  V30 21028 H 1970.34 2.43247 -1.64949 0
M  V30 21029 H 1967.85 1.28505 -0.992984 0
M  V30 21030 H 1969.85 4.16779 0.100531 0
M  V30 21031 H 1968.51 3.16652 0.718463 0
M  V30 21032 H 1969.52 4.37167 -2.77678 0
M  V30 21033 H 1966.2 4.17001 -0.204008 0
M  V30 21034 H 1967.59 5.34529 -4.07097 0
M  V30 21035 N 1970.31 0.904053 1.29092 0
M  V30 21036 C 1971.55 0.532992 1.95671 0
M  V30 21037 C 1971.89 -0.919194 1.71069 0
M  V30 21038 O 1971.16 -1.6523 1.02612 0
M  V30 21039 C 1971.44 0.831252 3.50374 0
M  V30 21040 C 1971.3 2.33546 3.84417 0
M  V30 21041 C 1972.62 0.320724 4.3893 0
M  V30 21042 H 1969.74 0.195117 0.710703 0
M  V30 21043 H 1972.38 1.13153 1.52632 0
M  V30 21044 H 1970.53 0.321853 3.87165 0
M  V30 21045 H 1972.2 2.91473 3.57549 0
M  V30 21046 H 1970.44 2.79442 3.31805 0
M  V30 21047 H 1971.11 2.49471 4.9241 0
M  V30 21048 H 1973.59 0.756974 4.09157 0
M  V30 21049 H 1972.47 0.55858 5.4605 0
M  V30 21050 H 1972.73 -0.778699 4.35188 0
M  V30 21051 N 1971.79 -1.4279 0.666995 0
M  V30 21052 C 1973.03 -2.01245 0.185662 0
M  V30 21053 C 1973.35 -1.52966 -1.2094 0
M  V30 21054 O 1972.62 -0.748036 -1.81056 0
M  V30 21055 H 1971.2 -0.74411 0.0656484 0
M  V30 21056 H 1973.87 -1.74814 0.861754 0
M  V30 21057 H 1972.96 -3.11575 0.180905 0
M  V30 21058 N 1973.26 -0.409806 -1.52179 0
M  V30 21059 C 1974.19 0.406421 -2.29936 0
M  V30 21060 C 1975.17 1.04553 -1.34174 0
M  V30 21061 O 1976.36 1.05441 -1.63082 0
M  V30 21062 C 1973.49 1.52297 -3.12127 0
M  V30 21063 C 1972.44 1.00883 -4.15941 0
M  V30 21064 C 1971.77 2.21903 -4.8648 0
M  V30 21065 C 1973.07 0.0623996 -5.22263 0
M  V30 21066 H 1974.76 -0.242406 -2.98417 0
M  V30 21067 H 1972.31 -0.118023 -1.43516 0
M  V30 21068 H 1974.26 2.10097 -3.65291 0
M  V30 21069 H 1972.99 2.19968 -2.41416 0
M  V30 21070 H 1971.65 0.453228 -3.63788 0
M  V30 21071 H 1971.29 2.88131 -4.12298 0
M  V30 21072 H 1970.99 1.88153 -5.56662 0
M  V30 21073 H 1972.52 2.80308 -5.42457 0
M  V30 21074 H 1973.93 0.549223 -5.70663 0
M  V30 21075 H 1972.33 -0.186317 -5.99811 0
M  V30 21076 H 1973.4 -0.882673 -4.76799 0
M  V30 21077 N 1974.74 1.56975 -0.14025 0
M  V30 21078 C 1976.16 1.58129 0.216215 0
M  V30 21079 C 1976.36 1.15417 1.6517 0
M  V30 21080 O 1975.41 0.851345 2.37715 0
M  V30 21081 C 1976.73 3.00678 -0.0364108 0
M  V30 21082 C 1978.27 3.12988 0.0278286 0
M  V30 21083 C 1978.75 4.57574 -0.197378 0
M  V30 21084 N 1980.24 4.62976 -0.144073 0
M  V30 21085 C 1980.98 5.72651 -0.292931 0
M  V30 21086 N 1980.47 6.91 -0.499138 0
M  V30 21087 N 1982.26 5.61625 -0.231008 0
M  V30 21088 H 1974.42 1.83033 -1.07762 0
M  V30 21089 H 1976.68 0.846871 -0.426044 0
M  V30 21090 H 1976.38 3.36291 -1.02963 0
M  V30 21091 H 1976.26 3.70909 0.686026 0
M  V30 21092 H 1978.65 2.7722 1.01159 0
M  V30 21093 H 1978.73 2.45257 -0.726829 0
M  V30 21094 H 1978.37 4.94045 -1.17821 0
M  V30 21095 H 1978.3 5.23424 0.577522 0
M  V30 21096 H 1980.79 3.77898 0.0109252 0
M  V30 21097 H 1981.1 7.70444 -0.603012 0
M  V30 21098 H 1979.45 6.92935 -0.535376 0
M  V30 21099 H 1982.64 4.68047 -0.0707224 0
M  V30 21100 H 1982.81 6.47052 -0.350455 0
M  V30 21101 N 1976.22 -0.133539 1.57033 0
M  V30 21102 C 1977.17 -1.16445 1.99272 0
M  V30 21103 C 1978.14 -1.41954 0.862458 0
M  V30 21104 O 1979.32 -1.54063 1.12557 0
M  V30 21105 C 1976.46 -2.48958 2.38985 0
M  V30 21106 C 1975.57 -2.30509 3.65362 0
M  V30 21107 C 1974.71 -3.56151 3.94119 0
M  V30 21108 C 1973.75 -3.32796 5.13725 0
M  V30 21109 N 1972.89 -4.50603 5.38425 0
M  V30 21110 H 1977.73 -0.797257 2.87137 0
M  V30 21111 H 1975.26 -0.382194 1.42048 0
M  V30 21112 H 1977.22 -3.26242 2.60043 0
M  V30 21113 H 1975.85 -2.83599 1.54181 0
M  V30 21114 H 1974.9 -1.44214 3.52004 0
M  V30 21115 H 1976.21 -2.0922 4.52801 0
M  V30 21116 H 1975.37 -4.41858 4.15748 0
M  V30 21117 H 1974.11 -3.80458 3.05128 0
M  V30 21118 H 1973.11 -2.45478 4.91956 0
M  V30 21119 H 1974.34 -3.09875 6.0428 0
M  V30 21120 H 1972.28 -4.75058 4.5239 0
M  V30 21121 H 1972.2 -4.32365 6.20158 0
M  V30 21122 H 1973.47 -5.37486 5.64561 0
M  V30 21123 N 1977.7 -1.52352 -0.403298 0
M  V30 21124 C 1978.94 -1.66944 -1.15141 0
M  V30 21125 C 1979.28 -0.401064 -1.90013 0
M  V30 21126 O 1978.55 0.60071 -1.84991 0
M  V30 21127 C 1978.83 -2.89526 -2.14118 0
M  V30 21128 C 1978.69 -4.26428 -1.43104 0
M  V30 21129 C 1980.01 -3.07636 -3.14719 0
M  V30 21130 H 1977.13 -0.607531 -0.417223 0
M  V30 21131 H 1979.77 -1.84919 -0.436447 0
M  V30 21132 H 1977.92 -2.74332 -2.7509 0
M  V30 21133 H 1979.59 -4.53362 -0.852075 0
M  V30 21134 H 1977.83 -4.27563 -0.732965 0
M  V30 21135 H 1978.5 -5.08258 -2.15355 0
M  V30 21136 H 1980.98 -3.21767 -2.63828 0
M  V30 21137 H 1979.86 -3.94909 -3.81232 0
M  V30 21138 H 1980.12 -2.2121 -3.82777 0
M  V30 21139 N 1979.18 0.660885 -1.43074 0
M  V30 21140 C 1980.4 1.44878 -1.47709 0
M  V30 21141 C 1980.82 1.88573 -0.092615 0
M  V30 21142 O 1980.18 1.59015 0.89558 0
M  V30 21143 C 1980.23 2.6888 -2.41632 0
M  V30 21144 O 1979.95 2.27015 -3.74694 0
M  V30 21145 C 1981.45 3.62312 -2.5543 0
M  V30 21146 H 1978.67 0.445326 -0.501922 0
M  V30 21147 H 1981.21 0.810882 -1.87736 0
M  V30 21148 H 1979.37 3.28827 -2.0482 0
M  V30 21149 H 1979.78 3.07191 -4.25128 0
M  V30 21150 H 1981.26 4.46007 -3.25241 0
M  V30 21151 H 1981.73 4.09148 -1.59671 0
M  V30 21152 H 1982.34 3.08251 -2.93021 0
M  V30 21153 N 1980.65 1.29477 0.898527 0
M  V30 21154 C 1981.9 1.17516 1.64913 0
M  V30 21155 C 1982.23 -0.273086 1.92573 0
M  V30 21156 O 1981.48 -1.21353 1.53531 0
M  V30 21157 C 1981.78 1.93505 3.00484 0
M  V30 21158 C 1981.45 3.43216 2.92427 0
M  V30 21159 C 1980.11 3.84044 2.89937 0
M  V30 21160 C 1982.46 4.38611 2.81548 0
M  V30 21161 C 1979.79 5.18582 2.74389 0
M  V30 21162 C 1982.14 5.73241 2.67539 0
M  V30 21163 C 1980.81 6.13326 2.63416 0
M  V30 21164 H 1980.08 0.430023 0.603458 0
M  V30 21165 H 1982.72 1.60427 1.04572 0
M  V30 21166 H 1981.03 1.43189 3.64698 0
M  V30 21167 H 1982.73 1.81654 3.57495 0
M  V30 21168 H 1979.32 3.10763 2.95168 0
M  V30 21169 H 1983.5 4.0802 2.82548 0
M  V30 21170 H 1978.76 5.48748 2.69602 0
M  V30 21171 H 1982.93 6.46808 2.58093 0
M  V30 21172 H 1980.56 7.17523 2.51126 0
M  V30 21173 N 1982.13 -1.10905 1.11972 0
M  V30 21174 C 1983.08 -2.17107 0.783135 0
M  V30 21175 C 1984.05 -1.6424 -0.24791 0
M  V30 21176 O 1985.23 -1.90399 -0.123577 0
M  V30 21177 C 1982.37 -3.44274 0.238574 0
M  V30 21178 C 1981.49 -4.11119 1.32685 0
M  V30 21179 C 1980.62 -5.25989 0.742236 0
M  V30 21180 C 1979.66 -5.84728 1.80997 0
M  V30 21181 N 1978.8 -6.90983 1.24444 0
M  V30 21182 H 1983.64 -2.45243 1.69292 0
M  V30 21183 H 1981.18 -1.20386 0.845323 0
M  V30 21184 H 1983.13 -4.17091 -0.0951679 0
M  V30 21185 H 1981.76 -3.16505 -0.634384 0
M  V30 21186 H 1980.82 -3.3632 1.77745 0
M  V30 21187 H 1982.13 -4.50824 2.13445 0
M  V30 21188 H 1981.28 -6.05638 0.358877 0
M  V30 21189 H 1980.02 -4.87604 -0.096622 0
M  V30 21190 H 1979.03 -5.03753 2.20258 0
M  V30 21191 H 1980.25 -6.25178 2.65196 0
M  V30 21192 H 1978.2 -6.54607 0.427323 0
M  V30 21193 H 1978.11 -7.29374 1.98869 0
M  V30 21194 H 1979.38 -7.74424 0.888154 0
M  V30 21195 N 1983.61 -0.910886 -1.2861 0
M  V30 21196 C 1984.86 -0.552803 -1.95744 0
M  V30 21197 C 1985.21 0.893164 -1.70412 0
M  V30 21198 O 1984.5 1.62635 -1.01294 0
M  V30 21199 C 1984.7 -0.794745 -3.48452 0
M  V30 21200 C 1984.53 -2.26268 -3.8863 0
M  V30 21201 C 1983.3 -2.91225 -4.12936 0
M  V30 21202 C 1985.5 -3.23885 -3.99503 0
M  V30 21203 N 1983.48 -4.28345 -4.39766 0
M  V30 21204 C 1984.85 -4.46159 -4.30513 0
M  V30 21205 C 1986.9 -3.19323 -3.82017 0
M  V30 21206 C 1985.61 -5.64449 -4.45859 0
M  V30 21207 C 1987.63 -4.36908 -3.98579 0
M  V30 21208 C 1986.99 -5.57956 -4.29959 0
M  V30 21209 H 1983.09 -0.252102 -0.740249 0
M  V30 21210 H 1985.68 -1.17402 -1.55322 0
M  V30 21211 H 1983.85 -0.20282 -3.8787 0
M  V30 21212 H 1985.58 -0.400978 -4.02709 0
M  V30 21213 H 1982.34 -2.41967 -4.07123 0
M  V30 21214 H 1982.76 -4.99234 -4.57269 0
M  V30 21215 H 1987.4 -2.26818 -3.5681 0
M  V30 21216 H 1985.12 -6.57435 -4.69898 0
M  V30 21217 H 1988.71 -4.34877 -3.86488 0
M  V30 21218 H 1987.59 -6.47426 -4.42503 0
M  V30 21219 N 1985.09 1.42434 -0.674558 0
M  V30 21220 C 1986.02 2.2916 0.0428589 0
M  V30 21221 C 1987.03 1.43667 0.765749 0
M  V30 21222 O 1988.22 1.67388 0.619947 0
M  V30 21223 C 1985.32 3.21083 1.08439 0
M  V30 21224 C 1984.5 4.35228 0.435368 0
M  V30 21225 C 1983.55 5.07873 1.37665 0
M  V30 21226 O 1982.58 5.62402 0.877047 0
M  V30 21227 N 1983.78 5.13364 2.70994 0
M  V30 21228 H 1986.55 2.91372 -0.701618 0
M  V30 21229 H 1984.11 1.53357 -0.518954 0
M  V30 21230 H 1986.1 3.66548 1.71535 0
M  V30 21231 H 1984.67 2.60324 1.7306 0
M  V30 21232 H 1983.89 3.92411 -0.375103 0
M  V30 21233 H 1985.18 5.08797 -0.0167882 0
M  V30 21234 H 1984.58 4.70472 3.14122 0
M  V30 21235 H 1983.13 5.62476 3.29338 0
M  V30 21236 N 1986.57 0.417871 1.51959 0
M  V30 21237 C 1987.98 0.0691743 1.5945 0
M  V30 21238 C 1988.18 -1.41946 1.43016 0
M  V30 21239 O 1987.24 -2.18728 1.26152 0
M  V30 21240 C 1988.55 0.571902 2.95211 0
M  V30 21241 C 1990.1 0.530639 3.08469 0
M  V30 21242 C 1990.57 1.01002 4.46724 0
M  V30 21243 N 1992.07 0.967199 4.5299 0
M  V30 21244 C 1992.8 1.30921 5.58254 0
M  V30 21245 N 1992.3 1.72311 6.7103 0
M  V30 21246 N 1994.09 1.22862 5.48508 0
M  V30 21247 H 1986.24 1.38668 1.60888 0
M  V30 21248 H 1988.5 0.570206 0.757344 0
M  V30 21249 H 1988.21 1.6127 3.12546 0
M  V30 21250 H 1988.08 -0.0137455 3.77197 0
M  V30 21251 H 1990.47 -0.50113 2.90814 0
M  V30 21252 H 1990.55 1.15245 2.28369 0
M  V30 21253 H 1990.2 2.04016 4.65124 0
M  V30 21254 H 1990.13 0.364935 5.25334 0
M  V30 21255 H 1992.62 0.663 3.72039 0
M  V30 21256 H 1992.93 1.96696 7.47349 0
M  V30 21257 H 1991.27 1.76222 6.72288 0
M  V30 21258 H 1994.47 0.904063 4.59287 0
M  V30 21259 H 1994.64 1.49846 6.30437 0
M  V30 21260 N 1988.04 -1.56898 0.148573 0
M  V30 21261 C 1989.29 -1.95788 -0.501154 0
M  V30 21262 C 1989.61 -1.03451 -1.65297 0
M  V30 21263 O 1988.88 -0.0963607 -1.95663 0
M  V30 21264 H 1987.46 -0.722922 -0.188129 0
M  V30 21265 H 1990.13 -1.93603 0.224439 0
M  V30 21266 H 1989.22 -2.99547 -0.876258 0
M  V30 21267 N 1989.52 0.125209 -1.57102 0
M  V30 21268 C 1990.47 1.17292 -2.00861 0
M  V30 21269 C 1991.46 1.4323 -0.904511 0
M  V30 21270 O 1992.67 1.43266 -1.08972 0
M  V30 21271 H 1989.05 0.395322 -0.639706 0
M  V30 21272 H 1991.02 0.777307 -2.88098 0
M  V30 21273 C 1989.77 2.49311 -2.42362 0
M  V30 21274 H 1989.09 2.30188 -3.26884 0
M  V30 21275 H 1990.53 3.21196 -2.76784 0
M  V30 21276 C 1988.99 3.1144 -1.2848 0
M  V30 21277 O 1989.52 3.97233 -0.597373 0
M  V30 21278 N 1987.72 2.71221 -1.04344 0
M  V30 21279 H 1987.27 2.0155 -1.60423 0
M  V30 21280 H 1987.23 3.1312 -0.283408 0
M  V30 21281 N 1991 1.52564 0.395213 0
M  V30 21282 C 1991.95 1.769 1.48239 0
M  V30 21283 C 1992.92 0.611965 1.54416 0
M  V30 21284 O 1994.1 0.851019 1.7077 0
M  V30 21285 C 1991.24 1.93809 2.85538 0
M  V30 21286 C 1990.36 3.2149 2.88562 0
M  V30 21287 C 1989.49 3.28751 4.17248 0
M  V30 21288 C 1988.53 4.5058 4.143 0
M  V30 21289 N 1987.67 4.55156 5.34581 0
M  V30 21290 H 1992.51 2.69683 1.26788 0
M  V30 21291 H 1990.04 1.33618 0.615189 0
M  V30 21292 H 1992 2.01597 3.6526 0
M  V30 21293 H 1990.63 1.04394 3.05453 0
M  V30 21294 H 1989.68 3.22805 2.01249 0
M  V30 21295 H 1991 4.11262 2.82251 0
M  V30 21296 H 1990.15 3.35687 5.0537 0
M  V30 21297 H 1988.89 2.36943 4.26274 0
M  V30 21298 H 1987.89 4.43775 3.24567 0
M  V30 21299 H 1989.12 5.43698 4.06902 0
M  V30 21300 H 1987.06 3.66237 5.44248 0
M  V30 21301 H 1986.98 5.38791 5.30321 0
M  V30 21302 H 1988.25 4.6634 6.24618 0
M  V30 21303 N 1992.48 -0.653289 1.43422 0
M  V30 21304 C 1993.73 -1.40905 1.44322 0
M  V30 21305 C 1994.04 -1.95471 0.0711388 0
M  V30 21306 O 1995.25 -2.71467 -0.0424133 0
M  V30 21307 C 1993.7 -2.55001 2.53973 0
M  V30 21308 C 1993.31 -2.07043 3.97287 0
M  V30 21309 C 1995.05 -3.32369 2.64067 0
M  V30 21310 C 1992.96 -3.18351 4.98404 0
M  V30 21311 H 1991.89 -0.529424 0.536867 0
M  V30 21312 H 1994.54 -0.705139 1.69411 0
M  V30 21313 H 1992.92 -3.27863 2.22085 0
M  V30 21314 H 1994.1 -1.41193 4.38635 0
M  V30 21315 H 1992.41 -1.42555 3.91238 0
M  V30 21316 H 1995.01 -4.15305 3.36788 0
M  V30 21317 H 1995.35 -3.80394 1.69134 0
M  V30 21318 H 1995.89 -2.66588 2.95255 0
M  V30 21319 H 1992.63 -2.75294 5.94889 0
M  V30 21320 H 1992.15 -3.82913 4.61669 0
M  V30 21321 H 1993.82 -3.83483 5.21104 0
M  V30 21322 N 1993.96 -1.29952 -0.891648 0
M  V30 21323 C 1995.2 -1.18155 -1.63963 0
M  V30 21324 C 1995.53 0.265477 -1.93184 0
M  V30 21325 O 1994.8 1.1802 -1.56359 0
M  V30 21326 H 1993.38 -0.434297 -0.607779 0
M  V30 21327 H 1996.04 -1.62988 -1.06869 0
M  V30 21328 H 1995.13 -1.73753 -2.59261 0
M  V30 21329 N 1995.44 1.1031 -1.12559 0
M  V30 21330 C 1996.35 2.20257 -0.807721 0
M  V30 21331 C 1997.36 1.728 0.203997 0
M  V30 21332 O 1998.54 2.01365 0.0372766 0
M  V30 21333 C 1995.6 3.4566 -0.26839 0
M  V30 21334 C 1994.66 4.07844 -1.3402 0
M  V30 21335 C 1993.9 5.27261 -0.826511 0
M  V30 21336 O 1994.12 5.6939 0.339244 0
M  V30 21337 O 1993.05 5.80335 -1.5967 0
M  V30 21338 H 1996.88 2.49882 -1.72606 0
M  V30 21339 H 1994.46 1.19071 -0.902352 0
M  V30 21340 H 1996.35 4.21391 0.0274321 0
M  V30 21341 H 1995.02 3.17658 0.622489 0
M  V30 21342 H 1993.93 3.33791 -1.68921 0
M  V30 21343 H 1995.26 4.40051 -2.20489 0
M  V30 21344 N 1996.91 0.917694 1.28125 0
M  V30 21345 C 1998.16 0.551804 1.94421 0
M  V30 21346 C 1998.48 -0.908163 1.72561 0
M  V30 21347 O 1997.75 -1.64255 1.06758 0
M  V30 21348 H 1996.33 0.201081 0.719427 0
M  V30 21349 H 1998.99 1.16791 1.56032 0
M  V30 21350 H 1998.09 0.749587 3.02965 0
M  V30 21351 N 1998.39 -1.42074 0.682102 0
M  V30 21352 C 1999.32 -2.29179 -0.0307054 0
M  V30 21353 C 2000.34 -1.44071 -0.758119 0
M  V30 21354 O 2001.53 -1.67715 -0.611062 0
M  V30 21355 C 1998.63 -3.21654 -1.06734 0
M  V30 21356 C 1997.8 -4.35453 -0.41228 0
M  V30 21357 C 1996.86 -5.08596 -1.34969 0
M  V30 21358 O 1995.88 -5.6286 -0.847209 0
M  V30 21359 N 1997.09 -5.14794 -2.68267 0
M  V30 21360 H 1999.85 -2.90995 0.71706 0
M  V30 21361 H 1997.41 -1.5308 0.52708 0
M  V30 21362 H 1999.4 -3.67453 -1.69589 0
M  V30 21363 H 1997.97 -2.61239 -1.71677 0
M  V30 21364 H 1997.19 -3.92207 0.395908 0
M  V30 21365 H 1998.48 -5.08781 0.0437707 0
M  V30 21366 H 1997.88 -4.72131 -3.11623 0
M  V30 21367 H 1996.44 -5.64215 -3.26351 0
M  V30 21368 N 1999.87 -0.425924 -1.51735 0
M  V30 21369 C 2001.1 0.143143 -2.06104 0
M  V30 21370 C 2001.51 1.37989 -1.29444 0
M  V30 21371 O 2000.85 1.80448 -0.344147 0
M  V30 21372 C 2000.91 0.541996 -3.55391 0
M  V30 21373 C 2000.58 -0.586352 -4.53223 0
M  V30 21374 C 2001.57 -1.45505 -4.99124 0
M  V30 21375 C 1999.26 -0.763832 -4.96458 0
M  V30 21376 C 2001.25 -2.48602 -5.86921 0
M  V30 21377 C 1998.94 -1.79809 -5.84048 0
M  V30 21378 C 1999.94 -2.65758 -6.29175 0
M  V30 21379 O 1999.63 -3.67411 -7.15028 0
M  V30 21380 H 1999.36 0.0164528 -0.6758 0
M  V30 21381 H 2001.91 -0.60044 -1.96428 0
M  V30 21382 H 2000.14 1.33811 -3.6281 0
M  V30 21383 H 2001.83 1.0409 -3.92326 0
M  V30 21384 H 2002.6 -1.32941 -4.66424 0
M  V30 21385 H 1998.48 -0.10445 -4.60882 0
M  V30 21386 H 2002.02 -3.15721 -6.22066 0
M  V30 21387 H 1997.92 -1.92397 -6.1616 0
M  V30 21388 H 1998.68 -3.63855 -7.33179 0
M  V30 21389 N 2001.35 1.56817 -0.156891 0
M  V30 21390 C 2002.6 1.96051 0.490764 0
M  V30 21391 C 2002.92 1.04326 1.64746 0
M  V30 21392 O 2002.19 0.106736 1.95609 0
M  V30 21393 H 2000.77 0.72391 0.184293 0
M  V30 21394 H 2003.43 1.93482 -0.234704 0
M  V30 21395 H 2002.52 3.00007 0.86036 0
M  V30 21396 N 2002.83 -0.116876 1.57166 0
M  V30 21397 C 2003.77 -1.14325 2.00496 0
M  V30 21398 C 2004.74 -1.41031 0.877465 0
M  V30 21399 O 2005.93 -1.52861 1.14185 0
M  V30 21400 C 2003.07 -2.46409 2.41612 0
M  V30 21401 C 2002.18 -2.26621 3.67787 0
M  V30 21402 C 2001.32 -3.51951 3.97875 0
M  V30 21403 C 2000.35 -3.27329 5.17225 0
M  V30 21404 N 1999.49 -4.44867 5.43174 0
M  V30 21405 H 2004.33 -0.766757 2.87967 0
M  V30 21406 H 2001.87 -0.367106 1.42446 0
M  V30 21407 H 2003.83 -3.23465 2.63488 0
M  V30 21408 H 2002.46 -2.81947 1.5718 0
M  V30 21409 H 2001.51 -1.40472 3.53513 0
M  V30 21410 H 2002.82 -2.04405 4.54994 0
M  V30 21411 H 2001.97 -4.37424 4.20411 0
M  V30 21412 H 2000.71 -3.772 3.09147 0
M  V30 21413 H 1999.72 -2.40247 4.94532 0
M  V30 21414 H 2000.94 -3.03448 6.07533 0
M  V30 21415 H 1998.89 -4.70233 4.57403 0
M  V30 21416 H 1998.81 -4.25764 6.24709 0
M  V30 21417 H 2000.07 -5.31468 5.7023 0
M  V30 21418 N 2004.3 -1.52772 -0.387116 0
M  V30 21419 C 2005.55 -1.68156 -1.13364 0
M  V30 21420 C 2005.88 -0.421195 -1.89577 0
M  V30 21421 O 2005.16 0.581056 -1.85618 0
M  V30 21422 C 2005.44 -2.91781 -2.11036 0
M  V30 21423 C 2005.29 -4.27922 -1.38573 0
M  V30 21424 C 2006.61 -3.10957 -3.11438 0
M  V30 21425 H 2003.73 -0.611922 -0.410755 0
M  V30 21426 H 2006.37 -1.85372 -0.416809 0
M  V30 21427 H 2004.52 -2.77234 -2.72165 0
M  V30 21428 H 2006.2 -4.54241 -0.803941 0
M  V30 21429 H 2004.44 -4.28316 -0.687576 0
M  V30 21430 H 2005.11 -5.10514 -2.09952 0
M  V30 21431 H 2007.59 -3.24547 -2.604 0
M  V30 21432 H 2006.46 -3.9893 -3.77022 0
M  V30 21433 H 2006.72 -2.25258 -3.80409 0
M  V30 21434 N 2005.78 0.645673 -1.43767 0
M  V30 21435 C 2007.01 1.43095 -1.49021 0
M  V30 21436 C 2007.42 1.88885 -0.109072 0
M  V30 21437 O 2006.76 1.60563 0.89248 0
M  V30 21438 C 2006.82 2.694 -2.38042 0
M  V30 21439 C 2006.49 2.45501 -3.85458 0
M  V30 21440 C 2007.49 2.08245 -4.76372 0
M  V30 21441 C 2005.17 2.59592 -4.3002 0
M  V30 21442 C 2007.16 1.85388 -6.09844 0
M  V30 21443 C 2004.85 2.36349 -5.63544 0
M  V30 21444 C 2005.85 1.99304 -6.53274 0
M  V30 21445 O 2005.54 1.7631 -7.84328 0
M  V30 21446 H 2005.27 0.445803 -0.508169 0
M  V30 21447 H 2007.82 0.798192 -1.89257 0
M  V30 21448 H 2006.05 3.35262 -1.92707 0
M  V30 21449 H 2007.74 3.31369 -2.34413 0
M  V30 21450 H 2008.51 1.96929 -4.4322 0
M  V30 21451 H 2004.39 2.87399 -3.60448 0
M  V30 21452 H 2007.93 1.56397 -6.79842 0
M  V30 21453 H 2003.83 2.4727 -5.96261 0
M  V30 21454 H 2004.6 1.90674 -7.95981 0
M  V30 21455 N 2007.26 1.30423 0.884744 0
M  V30 21456 C 2008.49 1.22184 1.66969 0
M  V30 21457 C 2008.9 -0.215259 1.87569 0
M  V30 21458 O 2008.26 -1.14224 1.42335 0
M  V30 21459 C 2008.31 1.94692 3.04593 0
M  V30 21460 O 2008.03 3.32792 2.84923 0
M  V30 21461 C 2009.53 1.93114 3.99026 0
M  V30 21462 H 2006.75 0.422826 0.521018 0
M  V30 21463 H 2009.3 1.72052 1.10537 0
M  V30 21464 H 2007.45 1.48623 3.57757 0
M  V30 21465 H 2007.87 3.69517 3.72233 0
M  V30 21466 H 2009.34 2.48386 4.92959 0
M  V30 21467 H 2009.82 0.91013 4.29666 0
M  V30 21468 H 2010.42 2.38996 3.51797 0
M  V30 21469 N 2008.74 -1.09711 1.13142 0
M  V30 21470 C 2009.98 -1.83443 0.901552 0
M  V30 21471 C 2010.34 -1.83582 -0.562273 0
M  V30 21472 O 2011.54 -2.52942 -0.909595 0
M  V30 21473 C 2009.81 -3.25783 1.4697 0
M  V30 21474 S 2011.37 -4.16553 1.37946 0
M  V30 21475 H 2008.19 -0.632354 0.325037 0
M  V30 21476 H 2010.79 -1.31968 1.44238 0
M  V30 21477 H 2009.5 -3.23256 2.52851 0
M  V30 21478 H 2009.03 -3.8233 0.926688 0
M  V30 21479 H 2011.04 -4.94922 0.355933 0
M  V30 21480 N 2010.22 -0.924476 -1.27637 0
M  V30 21481 C 2011.47 -0.559056 -1.93797 0
M  V30 21482 C 2011.78 0.903501 -1.73483 0
M  V30 21483 O 2012.98 1.37756 -2.33956 0
M  V30 21484 C 2011.44 -0.949035 -3.47162 0
M  V30 21485 C 2011.05 -2.43205 -3.76238 0
M  V30 21486 C 2012.79 -0.654714 -4.19421 0
M  V30 21487 C 2010.7 -2.7616 -5.22962 0
M  V30 21488 H 2009.63 -0.205363 -0.725494 0
M  V30 21489 H 2012.28 -1.12485 -1.4498 0
M  V30 21490 H 2010.66 -0.311922 -3.9477 0
M  V30 21491 H 2011.84 -3.1168 -3.39399 0
M  V30 21492 H 2010.15 -2.69794 -3.17176 0
M  V30 21493 H 2012.75 -0.877465 -5.27451 0
M  V30 21494 H 2013.09 0.407944 -4.14296 0
M  V30 21495 H 2013.62 -1.25078 -3.77625 0
M  V30 21496 H 2010.36 -3.81322 -5.33173 0
M  V30 21497 H 2009.88 -2.12332 -5.60959 0
M  V30 21498 H 2011.56 -2.63732 -5.90808 0
M  V30 21499 N 2011.69 1.41711 -0.689627 0
M  V30 21500 C 2012.92 2.06171 -0.225425 0
M  V30 21501 C 2013.34 1.51535 1.11439 0
M  V30 21502 O 2012.7 0.639865 1.69633 0
M  V30 21503 C 2012.75 3.60114 -0.187089 0
M  V30 21504 O 2011.85 4.03757 0.83989 0
M  V30 21505 H 2011.2 0.654551 -0.111621 0
M  V30 21506 H 2013.73 1.81582 -0.942814 0
M  V30 21507 H 2013.74 4.07997 -0.0159369 0
M  V30 21508 H 2012.41 3.99251 -1.16497 0
M  V30 21509 H 2010.99 3.67392 0.638575 0
M  V30 21510 N 2013.17 0.433965 1.51507 0
M  V30 21511 C 2014.42 -0.133827 2.02358 0
M  V30 21512 C 2014.75 -1.42654 1.3177 0
M  V30 21513 O 2014.03 -1.89651 0.431588 0
M  V30 21514 C 2014.31 -0.356052 3.58335 0
M  V30 21515 C 2014.16 0.955077 4.39543 0
M  V30 21516 C 2015.48 -1.12732 4.25417 0
M  V30 21517 H 2012.6 -0.0471634 0.735489 0
M  V30 21518 H 2015.24 0.572301 1.81176 0
M  V30 21519 H 2013.39 -0.957541 3.76515 0
M  V30 21520 H 2015.06 1.59029 4.33021 0
M  V30 21521 H 2013.31 1.56044 4.04762 0
M  V30 21522 H 2013.98 0.753671 5.46831 0
M  V30 21523 H 2016.45 -0.617852 4.11487 0
M  V30 21524 H 2015.33 -1.25157 5.34441 0
M  V30 21525 H 2015.59 -2.15452 3.86048 0
M  V30 21526 N 2014.65 -1.56732 0.165206 0
M  V30 21527 C 2015.93 -1.88357 -0.527344 0
M  V30 21528 C 2016.31 -1.07412 -1.8173 0
M  V30 21529 O 2015.66 -0.166236 -2.27895 0
M  V30 21530 C 2015.87 -3.40282 -0.775175 0
M  V30 21531 C 2017.21 -4.09891 -1.10789 0
M  V30 21532 O 2018.24 -3.45565 -0.863921 0
M  V30 21533 O 2017.1 -5.23527 -1.56787 0
M  V30 21534 H 2014.19 -0.781304 -0.271096 0
M  V30 21535 H 2016.74 -1.68479 0.203183 0
M  V30 21536 H 2015.51 -3.9106 0.137 0
M  V30 21537 H 2015.13 -3.65751 -1.55924 0
M  V30 21538 N 2016.13 0.10854 -1.57226 0
M  V30 21539 C 2017.36 0.828374 -1.89593 0
M  V30 21540 C 2017.77 1.72936 -0.757543 0
M  V30 21541 O 2017.13 1.80474 0.271152 0
M  V30 21542 C 2017.18 1.65304 -3.21492 0
M  V30 21543 O 2016.9 0.788315 -4.30949 0
M  V30 21544 C 2018.4 2.47711 -3.67633 0
M  V30 21545 H 2015.62 0.237584 -0.627531 0
M  V30 21546 H 2018.17 0.0897975 -2.04303 0
M  V30 21547 H 2016.32 2.34426 -3.0842 0
M  V30 21548 H 2016.73 1.35814 -5.06611 0
M  V30 21549 H 2018.21 3.01088 -4.62655 0
M  V30 21550 H 2018.69 3.25555 -2.94806 0
M  V30 21551 H 2019.29 1.83812 -3.83527 0
M  V30 21552 N 2017.61 1.52975 0.379009 0
M  V30 21553 C 2018.85 1.68172 1.12082 0
M  V30 21554 C 2019.18 0.429215 1.90218 0
M  V30 21555 O 2018.45 -0.556561 1.87828 0
M  V30 21556 H 2017.03 0.619935 0.416761 0
M  V30 21557 H 2019.69 1.90123 0.428883 0
M  V30 21558 H 2018.78 2.53672 1.81815 0
M  V30 21559 N 2019.08 -0.63804 1.44107 0
M  V30 21560 C 2019.99 -1.77914 1.52917 0
M  V30 21561 C 2021.01 -1.68972 0.415266 0
M  V30 21562 O 2022.19 -1.89872 0.671613 0
M  V30 21563 C 2019.25 -3.14268 1.46412 0
M  V30 21564 C 2018.31 -3.34893 2.68598 0
M  V30 21565 C 2017.55 -4.64742 2.62394 0
M  V30 21566 O 2017.77 -5.45095 1.68011 0
M  V30 21567 O 2016.7 -4.87419 3.53138 0
M  V30 21568 H 2020.53 -1.73435 2.49307 0
M  V30 21569 H 2018.11 -0.798412 1.26276 0
M  V30 21570 H 2020 -3.95564 1.45282 0
M  V30 21571 H 2018.67 -3.19304 0.531634 0
M  V30 21572 H 2017.58 -2.53302 2.75297 0
M  V30 21573 H 2018.91 -3.34714 3.6087 0
M  V30 21574 N 2020.56 -1.3089 -0.877815 0
M  V30 21575 C 2021.49 -1.20459 -2.0003 0
M  V30 21576 C 2022.47 -0.0935765 -1.69842 0
M  V30 21577 O 2023.66 -0.276838 -1.92217 0
M  V30 21578 C 2020.79 -0.903041 -3.35354 0
M  V30 21579 C 2019.74 -1.97277 -3.79823 0
M  V30 21580 C 2019.07 -1.52407 -5.12519 0
M  V30 21581 C 2020.37 -3.38484 -3.97776 0
M  V30 21582 H 2022.06 -2.14367 -2.09014 0
M  V30 21583 H 2019.61 -1.03203 -1.00425 0
M  V30 21584 H 2021.56 -0.816699 -4.1341 0
M  V30 21585 H 2020.29 0.0717143 -3.26521 0
M  V30 21586 H 2018.94 -2.04887 -3.04001 0
M  V30 21587 H 2018.59 -0.537386 -5.00121 0
M  V30 21588 H 2018.29 -2.23964 -5.43244 0
M  V30 21589 H 2019.82 -1.45165 -5.93093 0
M  V30 21590 H 2021.23 -3.33593 -4.6625 0
M  V30 21591 H 2019.63 -4.0819 -4.39887 0
M  V30 21592 H 2020.7 -3.79847 -3.01403 0
M  V30 21593 N 2022.04 1.0911 -1.13723 0
M  V30 21594 C 2022.97 2.15129 -0.761226 0
M  V30 21595 C 2023.95 1.60603 0.254079 0
M  V30 21596 O 2025.14 1.87943 0.14482 0
M  V30 21597 C 2022.26 3.38454 -0.129002 0
M  V30 21598 C 2021.31 4.11713 -1.11332 0
M  V30 21599 S 2022.14 4.65488 -2.64729 0
M  V30 21600 C 2023.3 5.92108 -2.02876 0
M  V30 21601 H 2023.53 2.46691 -1.65924 0
M  V30 21602 H 2021.06 1.21109 -0.957709 0
M  V30 21603 H 2023.02 4.09859 0.229363 0
M  V30 21604 H 2021.68 3.05104 0.746329 0
M  V30 21605 H 2020.88 5.00186 -0.618842 0
M  V30 21606 H 2020.48 3.46186 -1.41532 0
M  V30 21607 H 2022.77 6.633 -1.37981 0
M  V30 21608 H 2023.71 6.46241 -2.89444 0
M  V30 21609 H 2024.12 5.4478 -1.479 0
M  V30 21610 N 2023.52 0.931232 1.27145 0
M  V30 21611 C 2024.48 0.43771 2.24982 0
M  V30 21612 C 2025.48 -0.445689 1.545 0
M  V30 21613 O 2026.67 -0.24627 1.7245 0
M  V30 21614 C 2023.8 -0.370327 3.38883 0
M  V30 21615 H 2025 1.30217 2.70154 0
M  V30 21616 H 2022.55 0.712252 1.39128 0
M  V30 21617 H 2023.28 -1.25346 2.99097 0
M  V30 21618 H 2023.07 0.263109 3.91216 0
M  V30 21619 H 2024.56 -0.705876 4.11591 0
M  V30 21620 N 2025 -1.41343 0.697132 0
M  V30 21621 C 2025.93 -2.28193 -0.017778 0
M  V30 21622 C 2026.91 -1.4232 -0.786373 0
M  V30 21623 O 2028.09 -1.71747 -0.776865 0
M  V30 21624 C 2025.22 -3.22577 -1.03256 0
M  V30 21625 C 2024.27 -4.25004 -0.356949 0
M  V30 21626 S 2025.1 -5.27852 0.901798 0
M  V30 21627 C 2026.25 -6.25801 -0.111346 0
M  V30 21628 H 2026.49 -2.88479 0.718839 0
M  V30 21629 H 2024.02 -1.46503 0.487463 0
M  V30 21630 H 2025.98 -3.77487 -1.61288 0
M  V30 21631 H 2024.64 -2.61384 -1.74176 0
M  V30 21632 H 2023.83 -4.9132 -1.12343 0
M  V30 21633 H 2023.43 -3.73698 0.150343 0
M  V30 21634 H 2025.73 -6.70605 -0.964122 0
M  V30 21635 H 2026.67 -7.06203 0.517933 0
M  V30 21636 H 2027.08 -5.62566 -0.466819 0
M  V30 21637 N 2026.48 -0.441993 -1.51275 0
M  V30 21638 C 2027.42 0.367101 -2.27862 0
M  V30 21639 C 2028.39 1.01278 -1.31651 0
M  V30 21640 O 2029.58 1.0308 -1.60559 0
M  V30 21641 C 2026.72 1.45971 -3.12708 0
M  V30 21642 C 2025.83 0.831707 -4.23918 0
M  V30 21643 C 2024.97 1.89976 -4.96067 0
M  V30 21644 C 2024 1.25043 -5.99192 0
M  V30 21645 N 2023.14 2.26005 -6.6473 0
M  V30 21646 H 2027.98 -0.292361 -2.96562 0
M  V30 21647 H 2025.52 -0.156023 -1.4627 0
M  V30 21648 H 2027.48 2.10453 -3.6023 0
M  V30 21649 H 2026.11 2.08874 -2.46113 0
M  V30 21650 H 2025.16 0.0750644 -3.80326 0
M  V30 21651 H 2026.47 0.317691 -4.97787 0
M  V30 21652 H 2025.62 2.62108 -5.4716 0
M  V30 21653 H 2024.36 2.44751 -4.21839 0
M  V30 21654 H 2023.37 0.514597 -5.47386 0
M  V30 21655 H 2024.59 0.709951 -6.75379 0
M  V30 21656 H 2022.54 2.79852 -5.93312 0
M  V30 21657 H 2022.46 1.79508 -7.34379 0
M  V30 21658 H 2023.72 2.97607 -7.20452 0
M  V30 21659 N 2027.95 1.56642 -0.173515 0
M  V30 21660 C 2028.86 2.2166 0.768363 0
M  V30 21661 C 2029.88 1.20892 1.25144 0
M  V30 21662 O 2031.06 1.53561 1.30311 0
M  V30 21663 C 2028.12 2.84632 1.97953 0
M  V30 21664 C 2027.18 4.00608 1.54312 0
M  V30 21665 C 2026.41 4.60567 2.69655 0
M  V30 21666 O 2026.64 4.19419 3.8658 0
M  V30 21667 O 2025.57 5.50401 2.43604 0
M  V30 21668 H 2029.4 3.02712 0.244753 0
M  V30 21669 H 2026.98 1.493 0.0547846 0
M  V30 21670 H 2028.86 3.24553 2.68782 0
M  V30 21671 H 2027.54 2.06575 2.49215 0
M  V30 21672 H 2026.45 3.65352 0.804264 0
M  V30 21673 H 2027.78 4.80264 1.07738 0
M  V30 21674 N 2029.43 -0.1002 1.57281 0
M  V30 21675 C 2030.68 -0.803295 1.85014 0
M  V30 21676 C 2030.99 -1.80146 0.762017 0
M  V30 21677 O 2032.2 -2.55209 0.926311 0
M  V30 21678 C 2030.66 -1.47942 3.28087 0
M  V30 21679 C 2030.26 -0.521281 4.44957 0
M  V30 21680 C 2032.01 -2.16654 3.65049 0
M  V30 21681 C 2029.91 -1.20171 5.79062 0
M  V30 21682 H 2028.84 -0.303744 0.690113 0
M  V30 21683 H 2031.5 -0.0561819 1.83414 0
M  V30 21684 H 2029.88 -2.27382 3.24212 0
M  V30 21685 H 2031.05 0.241249 4.60168 0
M  V30 21686 H 2029.37 0.0598694 4.16357 0
M  V30 21687 H 2031.96 -2.68286 4.62522 0
M  V30 21688 H 2032.31 -2.95316 2.93418 0
M  V30 21689 H 2032.84 -1.44081 3.7079 0
M  V30 21690 H 2029.58 -0.456001 6.53912 0
M  V30 21691 H 2029.1 -1.93579 5.67704 0
M  V30 21692 H 2030.78 -1.72963 6.23452 0
M  V30 21693 N 2030.91 -1.53174 -0.370891 0
M  V30 21694 C 2032.33 -1.42828 -0.712207 0
M  V30 21695 C 2032.53 -0.563111 -1.93472 0
M  V30 21696 O 2031.58 -0.0435062 -2.52463 0
M  V30 21697 C 2032.89 -2.85945 -0.930375 0
M  V30 21698 C 2034.44 -2.95542 -1.03072 0
M  V30 21699 C 2034.92 -4.39709 -1.28139 0
M  V30 21700 N 2036.41 -4.43115 -1.34921 0
M  V30 21701 C 2037.14 -5.51766 -1.56017 0
M  V30 21702 N 2036.64 -6.70473 -1.74464 0
M  V30 21703 N 2038.43 -5.39336 -1.58344 0
M  V30 21704 H 2030.58 -2.07934 0.433281 0
M  V30 21705 H 2032.85 -0.938799 0.131756 0
M  V30 21706 H 2032.55 -3.51546 -0.103966 0
M  V30 21707 H 2032.43 -3.29279 -1.83997 0
M  V30 21708 H 2034.81 -2.30098 -1.84768 0
M  V30 21709 H 2034.89 -2.5561 -0.0986256 0
M  V30 21710 H 2034.54 -5.05726 -0.469468 0
M  V30 21711 H 2034.47 -4.7721 -2.22662 0
M  V30 21712 H 2036.96 -3.57563 -1.223 0
M  V30 21713 H 2037.27 -7.49049 -1.90119 0
M  V30 21714 H 2035.62 -6.73469 -1.71653 0
M  V30 21715 H 2038.81 -4.45563 -1.43496 0
M  V30 21716 H 2038.98 -6.24078 -1.74443 0
M  V30 21717 N 2032.39 0.630389 -1.44443 0
M  V30 21718 C 2033.63 1.38993 -1.47265 0
M  V30 21719 C 2033.96 1.94213 -0.105537 0
M  V30 21720 O 2033.22 1.7415 0.89277 0
M  V30 21721 C 2033.52 2.57255 -2.48102 0
M  V30 21722 C 2033.18 2.20319 -3.93408 0
M  V30 21723 C 2031.84 2.09959 -4.32979 0
M  V30 21724 C 2034.2 1.91148 -4.84883 0
M  V30 21725 C 2031.52 1.68616 -5.61948 0
M  V30 21726 C 2033.88 1.51298 -6.14241 0
M  V30 21727 C 2032.54 1.39479 -6.52765 0
M  V30 21728 H 2031.81 0.508613 -0.538882 0
M  V30 21729 H 2034.46 0.714772 -1.77661 0
M  V30 21730 H 2032.76 3.30007 -2.11193 0
M  V30 21731 H 2034.46 3.15483 -2.47531 0
M  V30 21732 H 2031.05 2.29301 -3.62103 0
M  V30 21733 H 2035.23 1.98061 -4.55066 0
M  V30 21734 H 2030.49 1.5807 -5.90613 0
M  V30 21735 H 2034.66 1.27764 -6.8458 0
M  V30 21736 H 2032.29 1.07216 -7.52601 0
M  V30 21737 N 2033.87 1.31354 0.870861 0
M  V30 21738 C 2034.8 1.14748 1.98408 0
M  V30 21739 C 2035.81 0.0868023 1.62568 0
M  V30 21740 O 2037 0.334209 1.75343 0
M  V30 21741 C 2034.1 0.730792 3.30927 0
M  V30 21742 C 2033.27 1.87628 3.95113 0
M  V30 21743 C 2032.33 1.44581 5.05948 0
M  V30 21744 O 2031.36 2.15531 5.26816 0
M  V30 21745 N 2032.56 0.332698 5.79546 0
M  V30 21746 H 2035.32 2.10633 2.13199 0
M  V30 21747 H 2032.89 1.23676 1.04479 0
M  V30 21748 H 2034.88 0.425538 4.02457 0
M  V30 21749 H 2033.45 -0.136426 3.12302 0
M  V30 21750 H 2032.67 2.3489 3.16576 0
M  V30 21751 H 2033.96 2.64356 4.34734 0
M  V30 21752 H 2033.35 -0.258188 5.65111 0
M  V30 21753 H 2031.91 0.0869715 6.51742 0
M  V30 21754 N 2035.34 -1.08505 1.143 0
M  V30 21755 C 2036.75 -1.62355 0.921836 0
M  V30 21756 C 2037.11 -1.88635 -0.539569 0
M  V30 21757 O 2036.23 -1.64307 -1.40827 0
M  V30 21758 C 2036.83 -2.94955 1.66694 0
M  V30 21759 C 2035.38 -3.45593 1.49139 0
M  V30 21760 C 2034.53 -2.19845 1.69008 0
M  V30 21761 H 2037.48 -0.917442 1.29494 0
M  V30 21762 H 2037.5 -3.63348 1.12954 0
M  V30 21763 H 2037.02 -2.75796 2.73053 0
M  V30 21764 H 2035.12 -3.69858 0.451226 0
M  V30 21765 H 2035.23 -4.2241 2.26068 0
M  V30 21766 H 2033.59 -2.28966 1.11565 0
M  V30 21767 H 2034.38 -2.03194 2.76707 0
M  V30 21768 N 2036.82 -0.937962 -1.26649 0
M  V30 21769 C 2037.77 -0.435759 -2.28482 0
M  V30 21770 C 2038.76 0.485286 -1.623 0
M  V30 21771 O 2039.97 0.363854 -1.76284 0
M  V30 21772 H 2036.34 -0.122373 -0.741976 0
M  V30 21773 H 2038.32 -1.30722 -2.68243 0
M  V30 21774 C 2037.06 0.286679 -3.46516 0
M  V30 21775 H 2036.39 -0.412881 -3.97662 0
M  V30 21776 H 2037.83 0.602341 -4.197 0
M  V30 21777 C 2036.29 1.50334 -3.01499 0
M  V30 21778 O 2036.82 2.60176 -3.06058 0
M  V30 21779 N 2035.02 1.35877 -2.56877 0
M  V30 21780 H 2034.57 0.465092 -2.53367 0
M  V30 21781 H 2034.53 2.17403 -2.27119 0
M  V30 21782 N 2038.3 1.40971 -0.704618 0
M  V30 21783 C 2039.58 1.94885 -0.167059 0
M  V30 21784 C 2039.96 1.64346 1.3249 0
M  V30 21785 O 2039.3 0.955268 2.07574 0
M  V30 21786 C 2039.51 3.45847 -0.468035 0
M  V30 21787 C 2040.86 4.22705 -0.400704 0
M  V30 21788 O 2041.89 3.53908 -0.403464 0
M  V30 21789 O 2040.75 5.45255 -0.368676 0
M  V30 21790 H 2037.84 0.826752 -0.0202699 0
M  V30 21791 H 2040.39 1.50639 -0.7814 0
M  V30 21792 H 2039.16 3.61392 -1.50038 0
M  V30 21793 H 2038.78 3.97207 0.176823 0
M  V30 21794 N 2039.78 0.45001 1.51039 0
M  V30 21795 C 2040.73 -0.373216 2.24925 0
M  V30 21796 C 2041.71 -0.979411 1.27657 0
M  V30 21797 O 2042.9 -0.895452 1.52678 0
M  V30 21798 C 2040.03 -1.46669 3.10392 0
M  V30 21799 C 2039.12 -0.869269 4.15096 0
M  V30 21800 N 2039.51 -0.00218012 5.058 0
M  V30 21801 C 2037.81 -1.1355 4.31303 0
M  V30 21802 C 2038.51 0.334694 5.80736 0
M  V30 21803 N 2037.49 -0.284884 5.42853 0
M  V30 21804 H 2041.29 0.295074 2.92415 0
M  V30 21805 H 2038.8 0.262851 1.60259 0
M  V30 21806 H 2040.8 -2.06943 3.61912 0
M  V30 21807 H 2039.46 -2.13719 2.44447 0
M  V30 21808 H 2040.47 0.365173 5.16611 0
M  V30 21809 H 2037.15 -1.80255 3.76582 0
M  V30 21810 H 2038.54 1.04106 6.63786 0
M  V30 21811 N 2041.26 -1.56548 0.18182 0
M  V30 21812 C 2042.2 -2.18468 -0.744342 0
M  V30 21813 C 2043.17 -1.12785 -1.21938 0
M  V30 21814 O 2044.36 -1.4098 -1.28566 0
M  V30 21815 C 2041.5 -2.83772 -1.96386 0
M  V30 21816 C 2040.61 -4.03945 -1.53142 0
M  V30 21817 C 2039.75 -4.57144 -2.70542 0
M  V30 21818 C 2038.79 -5.69704 -2.23839 0
M  V30 21819 N 2037.92 -6.17367 -3.34369 0
M  V30 21820 H 2042.76 -2.97262 -0.209544 0
M  V30 21821 H 2040.3 -1.46814 -0.0916937 0
M  V30 21822 H 2042.26 -3.19797 -2.67929 0
M  V30 21823 H 2040.89 -2.07564 -2.47219 0
M  V30 21824 H 2039.94 -3.73671 -0.712347 0
M  V30 21825 H 2041.25 -4.85393 -1.14868 0
M  V30 21826 H 2040.41 -4.95405 -3.50226 0
M  V30 21827 H 2039.14 -3.74775 -3.12082 0
M  V30 21828 H 2038.15 -5.30984 -1.42604 0
M  V30 21829 H 2039.37 -6.53882 -1.83345 0
M  V30 21830 H 2037.32 -5.37924 -3.75465 0
M  V30 21831 H 2037.24 -6.93832 -3.00221 0
M  V30 21832 H 2038.51 -6.6028 -4.14307 0
M  V30 21833 N 2042.73 0.0918577 -1.57332 0
M  V30 21834 C 2043.96 0.808218 -1.90461 0
M  V30 21835 C 2044.38 1.72122 -0.775843 0
M  V30 21836 O 2043.73 1.80752 0.251995 0
M  V30 21837 C 2043.79 1.61885 -3.23227 0
M  V30 21838 O 2043.51 0.742563 -4.31761 0
M  V30 21839 C 2045.01 2.43798 -3.7024 0
M  V30 21840 H 2042.23 0.230915 -0.630015 0
M  V30 21841 H 2044.77 0.0681235 -2.04387 0
M  V30 21842 H 2042.93 2.31142 -3.1089 0
M  V30 21843 H 2043.34 1.30433 -5.08023 0
M  V30 21844 H 2044.81 2.96164 -4.65823 0
M  V30 21845 H 2045.29 3.2241 -2.98242 0
M  V30 21846 H 2045.9 1.79734 -3.85455 0
M  V30 21847 N 2044.21 1.53368 0.362763 0
M  V30 21848 C 2045.46 1.68906 1.10243 0
M  V30 21849 C 2045.77 0.448846 1.90381 0
M  V30 21850 O 2046.98 0.484821 2.67136 0
M  V30 21851 C 2045.44 2.98602 2.0091 0
M  V30 21852 C 2045.04 4.29895 1.26071 0
M  V30 21853 C 2046.79 3.23507 2.74852 0
M  V30 21854 C 2044.7 5.50678 2.15657 0
M  V30 21855 H 2043.63 0.629342 0.415265 0
M  V30 21856 H 2046.28 1.79869 0.363231 0
M  V30 21857 H 2044.66 2.81449 2.78572 0
M  V30 21858 H 2045.83 4.57689 0.534529 0
M  V30 21859 H 2044.15 4.11455 0.639803 0
M  V30 21860 H 2046.74 4.10931 3.42111 0
M  V30 21861 H 2047.09 2.39689 3.40374 0
M  V30 21862 H 2047.62 3.41347 2.04271 0
M  V30 21863 H 2044.36 6.36982 1.54707 0
M  V30 21864 H 2043.88 5.27159 2.86117 0
M  V30 21865 H 2045.56 5.85578 2.75151 0
M  V30 21866 N 2045.69 -0.62272 1.44776 0
M  V30 21867 C 2046.64 -1.73427 1.52288 0
M  V30 21868 C 2047.61 -1.61928 0.369917 0
M  V30 21869 O 2048.79 -1.81729 0.581308 0
M  V30 21870 C 2045.93 -3.117 1.48112 0
M  V30 21871 C 2045.05 -3.34114 2.73847 0
M  V30 21872 C 2044.18 -4.62407 2.61445 0
M  V30 21873 C 2043.22 -4.78027 3.82304 0
M  V30 21874 N 2042.36 -5.97605 3.68528 0
M  V30 21875 H 2047.2 -1.66341 2.47254 0
M  V30 21876 H 2044.73 -0.811311 1.22704 0
M  V30 21877 H 2046.69 -3.91678 1.4368 0
M  V30 21878 H 2045.32 -3.1778 0.567076 0
M  V30 21879 H 2044.37 -2.48017 2.8843 0
M  V30 21880 H 2045.69 -3.41533 3.63533 0
M  V30 21881 H 2044.84 -5.50558 2.54894 0
M  V30 21882 H 2043.58 -4.5736 1.69333 0
M  V30 21883 H 2042.58 -3.88303 3.89231 0
M  V30 21884 H 2043.81 -4.84883 4.75464 0
M  V30 21885 H 2041.75 -5.93631 2.79173 0
M  V30 21886 H 2041.67 -6.06118 4.51838 0
M  V30 21887 H 2042.94 -6.88295 3.65883 0
M  V30 21888 N 2047.17 -1.31814 -0.863883 0
M  V30 21889 C 2048.08 -1.21951 -2.00412 0
M  V30 21890 C 2049.09 -0.13497 -1.73476 0
M  V30 21891 O 2050.27 -0.35392 -1.98266 0
M  V30 21892 C 2047.34 -0.933599 -3.33893 0
M  V30 21893 C 2046.4 -2.10565 -3.74113 0
M  V30 21894 C 2045.63 -1.83329 -5.01225 0
M  V30 21895 O 2045.85 -0.77136 -5.6516 0
M  V30 21896 O 2044.79 -2.69178 -5.38356 0
M  V30 21897 H 2048.61 -2.17786 -2.11667 0
M  V30 21898 H 2046.2 -1.11613 -0.993126 0
M  V30 21899 H 2048.08 -0.790251 -4.13924 0
M  V30 21900 H 2046.75 -0.00533113 -3.237 0
M  V30 21901 H 2045.66 -2.30443 -2.94698 0
M  V30 21902 H 2046.99 -3.01639 -3.88941 0
M  V30 21903 N 2048.65 1.07897 -1.14873 0
M  V30 21904 C 2049.87 1.84117 -0.943847 0
M  V30 21905 C 2050.29 1.81844 0.507767 0
M  V30 21906 O 2049.65 1.22585 1.352 0
M  V30 21907 C 2049.7 3.31438 -1.4433 0
M  V30 21908 O 2049.42 3.33746 -2.83805 0
M  V30 21909 C 2050.92 4.24445 -1.2791 0
M  V30 21910 H 2048.14 0.581068 -0.335561 0
M  V30 21911 H 2050.68 1.36237 -1.52512 0
M  V30 21912 H 2048.84 3.76689 -0.904683 0
M  V30 21913 H 2049.25 4.25748 -3.06332 0
M  V30 21914 H 2050.73 5.25906 -1.67711 0
M  V30 21915 H 2051.2 4.38636 -0.222593 0
M  V30 21916 H 2051.81 3.85025 -1.80653 0
M  V30 21917 N 2050.12 0.944665 1.2615 0
M  V30 21918 C 2051.09 0.461547 2.24505 0
M  V30 21919 C 2052.09 -0.429277 1.54964 0
M  V30 21920 O 2053.28 -0.227965 1.72702 0
M  V30 21921 C 2050.41 -0.334363 3.39256 0
M  V30 21922 H 2051.6 1.33075 2.68758 0
M  V30 21923 H 2049.16 0.726968 1.38365 0
M  V30 21924 H 2049.89 -1.22167 3.00409 0
M  V30 21925 H 2049.68 0.304588 3.90915 0
M  V30 21926 H 2051.17 -0.662181 4.12317 0
M  V30 21927 N 2051.6 -1.40596 0.712085 0
M  V30 21928 C 2052.88 -1.94794 0.177392 0
M  V30 21929 C 2053.26 -1.65047 -1.31616 0
M  V30 21930 O 2052.61 -0.966262 -2.07064 0
M  V30 21931 C 2052.82 -3.45594 0.486369 0
M  V30 21932 C 2054.17 -4.22487 0.423115 0
M  V30 21933 O 2055.19 -3.53689 0.422227 0
M  V30 21934 O 2054.05 -5.45052 0.397587 0
M  V30 21935 H 2051.14 -0.826632 0.0246541 0
M  V30 21936 H 2053.69 -1.50223 0.789377 0
M  V30 21937 H 2052.46 -3.60591 1.51953 0
M  V30 21938 H 2052.08 -3.97295 -0.155756 0
M  V30 21939 N 2053.08 -0.458013 -1.50798 0
M  V30 21940 C 2053.99 0.348558 -2.31996 0
M  V30 21941 C 2055.01 1.00835 -1.41804 0
M  V30 21942 O 2056.18 0.999192 -1.74866 0
M  V30 21943 C 2053.25 1.4236 -3.16124 0
M  V30 21944 C 2052.31 0.781781 -4.22122 0
M  V30 21945 C 2051.54 1.8056 -5.02229 0
M  V30 21946 O 2051.76 3.0305 -4.83236 0
M  V30 21947 O 2050.7 1.38466 -5.85757 0
M  V30 21948 H 2054.52 -0.314893 -3.02063 0
M  V30 21949 H 2052.11 -0.220117 -1.4777 0
M  V30 21950 H 2053.99 2.04661 -3.68364 0
M  V30 21951 H 2052.67 2.07076 -2.488 0
M  V30 21952 H 2051.57 0.120169 -3.73907 0
M  V30 21953 H 2052.91 0.177782 -4.91879 0
M  V30 21954 N 2054.56 1.56449 -0.190119 0
M  V30 21955 C 2055.49 2.21861 0.728019 0
M  V30 21956 C 2056.47 1.18012 1.22504 0
M  V30 21957 O 2057.66 1.46503 1.27478 0
M  V30 21958 C 2054.79 2.87407 1.94973 0
M  V30 21959 C 2053.74 3.97457 1.58782 0
M  V30 21960 C 2053.07 4.50144 2.88573 0
M  V30 21961 C 2054.37 5.16113 0.801535 0
M  V30 21962 H 2056.06 2.98842 0.182734 0
M  V30 21963 H 2053.61 1.4374 0.0864508 0
M  V30 21964 H 2055.56 3.31848 2.59721 0
M  V30 21965 H 2054.28 2.07824 2.51946 0
M  V30 21966 H 2052.94 3.537 0.96395 0
M  V30 21967 H 2052.59 3.67328 3.43626 0
M  V30 21968 H 2052.29 5.24398 2.65105 0
M  V30 21969 H 2053.81 4.97283 3.54318 0
M  V30 21970 H 2055.23 5.5713 1.35201 0
M  V30 21971 H 2053.62 5.96402 0.66517 0
M  V30 21972 H 2054.69 4.84494 -0.198407 0
M  V30 21973 N 2056.04 -0.0835127 1.57379 0
M  V30 21974 C 2056.98 -1.10046 2.02875 0
M  V30 21975 C 2057.95 -1.39138 0.907183 0
M  V30 21976 O 2059.14 -1.50405 1.17401 0
M  V30 21977 C 2056.28 -2.41229 2.46784 0
M  V30 21978 C 2055.39 -2.18769 3.72511 0
M  V30 21979 C 2054.53 -3.43432 4.05251 0
M  V30 21980 C 2053.57 -3.16284 5.24052 0
M  V30 21981 N 2052.7 -4.33246 5.52488 0
M  V30 21982 H 2057.54 -0.705503 2.89528 0
M  V30 21983 H 2055.08 -0.336809 1.43192 0
M  V30 21984 H 2057.04 -3.17803 2.7029 0
M  V30 21985 H 2055.67 -2.7855 1.63125 0
M  V30 21986 H 2054.72 -1.32942 3.56414 0
M  V30 21987 H 2056.03 -1.94708 4.59228 0
M  V30 21988 H 2055.19 -4.28408 4.29595 0
M  V30 21989 H 2053.93 -3.70558 3.17078 0
M  V30 21990 H 2052.93 -2.29703 4.99516 0
M  V30 21991 H 2054.16 -2.90493 6.13833 0
M  V30 21992 H 2052.1 -4.60425 4.67274 0
M  V30 21993 H 2052.02 -4.12417 6.336 0
M  V30 21994 H 2053.29 -5.19253 5.81375 0
M  V30 21995 N 2057.52 -1.53558 -0.354624 0
M  V30 21996 C 2058.76 -1.69489 -1.09346 0
M  V30 21997 C 2059.08 -0.458936 -1.9014 0
M  V30 21998 O 2060.28 -0.498981 -2.66875 0
M  V30 21999 C 2058.74 -2.99663 -1.99324 0
M  V30 22000 C 2058.35 -4.30558 -1.2379 0
M  V30 22001 C 2060.09 -3.2496 -2.73132 0
M  V30 22002 C 2058 -5.51814 -2.12733 0
M  V30 22003 H 2056.93 -0.631535 -0.411922 0
M  V30 22004 H 2059.58 -1.80059 -0.353687 0
M  V30 22005 H 2057.96 -2.82922 -2.77076 0
M  V30 22006 H 2059.14 -4.57966 -0.51025 0
M  V30 22007 H 2057.45 -4.11789 -0.617973 0
M  V30 22008 H 2060.05 -4.12739 -3.39927 0
M  V30 22009 H 2060.39 -2.41491 -3.39099 0
M  V30 22010 H 2060.92 -3.42426 -2.02458 0
M  V30 22011 H 2057.66 -6.37793 -1.51327 0
M  V30 22012 H 2057.18 -5.28669 -2.83317 0
M  V30 22013 H 2058.86 -5.87028 -2.72041 0
M  V30 22014 N 2058.99 0.615033 -1.45104 0
M  V30 22015 C 2060.24 1.37424 -1.48731 0
M  V30 22016 C 2060.57 1.94091 -0.12613 0
M  V30 22017 O 2059.82 1.75087 0.874249 0
M  V30 22018 C 2060.12 2.54609 -2.50816 0
M  V30 22019 C 2059.79 2.16134 -3.95723 0
M  V30 22020 C 2058.45 2.05355 -4.35181 0
M  V30 22021 C 2060.8 1.85994 -4.86883 0
M  V30 22022 C 2058.13 1.62647 -5.63705 0
M  V30 22023 C 2060.48 1.44774 -6.15811 0
M  V30 22024 C 2059.15 1.32548 -6.54207 0
M  V30 22025 H 2058.42 0.502868 -0.544247 0
M  V30 22026 H 2061.06 0.695889 -1.78409 0
M  V30 22027 H 2059.37 3.27749 -2.14681 0
M  V30 22028 H 2061.07 3.12839 -2.50864 0
M  V30 22029 H 2057.66 2.25448 -3.64515 0
M  V30 22030 H 2061.84 1.93224 -4.57141 0
M  V30 22031 H 2057.1 1.51797 -5.92256 0
M  V30 22032 H 2061.27 1.20496 -6.85896 0
M  V30 22033 H 2058.9 0.992281 -7.53696 0
M  V30 22034 N 2060.47 1.3227 0.85688 0
M  V30 22035 C 2061.38 1.23012 1.99763 0
M  V30 22036 C 2062.4 0.144168 1.73402 0
M  V30 22037 O 2063.57 0.364429 1.98075 0
M  V30 22038 C 2060.64 0.951293 3.33394 0
M  V30 22039 C 2059.7 2.12547 3.72991 0
M  V30 22040 C 2058.93 1.85984 5.00245 0
M  V30 22041 O 2059.16 0.801321 5.64743 0
M  V30 22042 O 2058.09 2.72029 5.36921 0
M  V30 22043 H 2061.92 2.18906 2.10509 0
M  V30 22044 H 2059.5 1.12138 0.987193 0
M  V30 22045 H 2061.38 0.812192 4.13499 0
M  V30 22046 H 2060.06 0.0224976 3.23692 0
M  V30 22047 H 2058.96 2.32003 2.93471 0
M  V30 22048 H 2060.3 3.03697 3.87336 0
M  V30 22049 N 2061.95 -1.07287 1.15444 0
M  V30 22050 C 2063.2 -1.7954 0.927885 0
M  V30 22051 C 2063.52 -1.87189 -0.546373 0
M  V30 22052 O 2062.79 -1.37326 -1.39708 0
M  V30 22053 H 2061.37 -0.664981 0.340307 0
M  V30 22054 H 2064.03 -1.29652 1.45521 0
M  V30 22055 H 2063.13 -2.81972 1.33784 0
M  V30 22056 N 2063.43 -0.951342 -1.25647 0
M  V30 22057 C 2064.68 -0.600038 -1.92568 0
M  V30 22058 C 2064.99 0.866499 -1.7536 0
M  V30 22059 O 2066.2 1.32762 -2.36826 0
M  V30 22060 C 2064.65 -1.02246 -3.45071 0
M  V30 22061 C 2064.26 -2.51131 -3.70995 0
M  V30 22062 C 2066 -0.743532 -4.17938 0
M  V30 22063 C 2063.91 -2.87191 -5.16987 0
M  V30 22064 H 2062.84 -0.220706 -0.720975 0
M  V30 22065 H 2065.49 -1.15535 -1.42562 0
M  V30 22066 H 2063.87 -0.395588 -3.94019 0
M  V30 22067 H 2065.05 -3.18809 -3.32712 0
M  V30 22068 H 2063.36 -2.76461 -3.11381 0
M  V30 22069 H 2065.96 -0.989148 -5.25471 0
M  V30 22070 H 2066.3 0.319973 -4.15069 0
M  V30 22071 H 2066.84 -1.3306 -3.74887 0
M  V30 22072 H 2063.57 -3.92545 -5.24965 0
M  V30 22073 H 2063.09 -2.24183 -5.56329 0
M  V30 22074 H 2064.77 -2.76205 -5.85081 0
M  V30 22075 N 2064.91 1.40216 -0.719531 0
M  V30 22076 C 2065.85 2.30695 -0.0695046 0
M  V30 22077 C 2066.82 1.48398 0.746138 0
M  V30 22078 O 2068.01 1.77127 0.709277 0
M  V30 22079 C 2065.15 3.34636 0.843357 0
M  V30 22080 C 2064.26 4.31997 0.0167651 0
M  V30 22081 C 2063.4 5.23005 0.929469 0
M  V30 22082 C 2062.43 6.12023 0.0972024 0
M  V30 22083 N 2061.57 6.95437 0.964997 0
M  V30 22084 H 2066.41 2.85716 -0.846765 0
M  V30 22085 H 2063.95 1.40698 -0.429253 0
M  V30 22086 H 2065.91 3.93473 1.38691 0
M  V30 22087 H 2064.54 2.81108 1.58676 0
M  V30 22088 H 2063.59 3.74909 -0.644016 0
M  V30 22089 H 2064.9 4.94838 -0.627416 0
M  V30 22090 H 2064.05 5.86792 1.54141 0
M  V30 22091 H 2062.79 4.60447 1.60746 0
M  V30 22092 H 2061.8 5.47262 -0.52765 0
M  V30 22093 H 2063.02 6.76641 -0.577347 0
M  V30 22094 H 2060.97 6.35463 1.62857 0
M  V30 22095 H 2060.89 7.5506 0.376943 0
M  V30 22096 H 2062.15 7.63669 1.56299 0
M  V30 22097 N 2066.38 0.466004 1.50553 0
M  V30 22098 C 2067.33 -0.349338 2.25308 0
M  V30 22099 C 2068.32 -0.965816 1.28689 0
M  V30 22100 O 2069.51 -0.879208 1.53619 0
M  V30 22101 C 2066.64 -1.43369 3.1193 0
M  V30 22102 C 2065.72 -0.825194 4.15994 0
M  V30 22103 N 2066.12 0.0514669 5.05774 0
M  V30 22104 C 2064.41 -1.08969 4.32483 0
M  V30 22105 C 2065.11 0.39627 5.80349 0
M  V30 22106 N 2064.09 -0.227292 5.43125 0
M  V30 22107 H 2067.89 0.326072 2.92086 0
M  V30 22108 H 2065.41 0.279833 1.59971 0
M  V30 22109 H 2067.4 -2.03093 3.64086 0
M  V30 22110 H 2066.06 -2.11114 2.467 0
M  V30 22111 H 2067.07 0.419946 5.16195 0
M  V30 22112 H 2063.75 -1.76251 3.78473 0
M  V30 22113 H 2065.14 1.1114 6.62644 0
M  V30 22114 N 2067.86 -1.56346 0.198413 0
M  V30 22115 C 2069.27 -1.84047 -0.313597 0
M  V30 22116 C 2069.62 -1.11918 -1.61148 0
M  V30 22117 O 2068.75 -0.381091 -2.13018 0
M  V30 22118 C 2069.34 -3.33872 -0.575755 0
M  V30 22119 C 2067.9 -3.61973 -1.03213 0
M  V30 22120 C 2067.05 -2.77177 -0.0825349 0
M  V30 22121 H 2070 -1.52983 0.422128 0
M  V30 22122 H 2070.02 -3.52823 -1.42466 0
M  V30 22123 H 2069.53 -3.86341 0.369036 0
M  V30 22124 H 2067.63 -3.14939 -1.99108 0
M  V30 22125 H 2067.75 -4.70134 -0.922545 0
M  V30 22126 H 2066.11 -2.4789 -0.585043 0
M  V30 22127 H 2066.89 -3.32437 0.856759 0
M  V30 22128 N 2069.34 0.0751653 -1.57421 0
M  V30 22129 C 2070.29 1.10843 -2.04491 0
M  V30 22130 C 2071.28 1.4028 -0.94962 0
M  V30 22131 O 2072.49 1.39727 -1.13474 0
M  V30 22132 H 2068.86 0.37477 -0.651959 0
M  V30 22133 H 2070.83 0.685258 -2.90425 0
M  V30 22134 C 2069.58 2.41474 -2.50171 0
M  V30 22135 H 2068.91 2.19672 -3.34042 0
M  V30 22136 H 2070.35 3.12227 -2.86863 0
M  V30 22137 C 2068.81 3.07194 -1.38323 0
M  V30 22138 O 2069.34 3.95132 -0.723447 0
M  V30 22139 N 2067.54 2.67764 -1.1292 0
M  V30 22140 H 2067.09 1.96344 -1.66754 0
M  V30 22141 H 2067.05 3.1206 -0.382881 0
M  V30 22142 N 2070.82 1.53744 0.346476 0
M  V30 22143 C 2071.75 1.84512 1.43099 0
M  V30 22144 C 2072.73 0.700026 1.55028 0
M  V30 22145 O 2073.91 0.951666 1.69284 0
M  V30 22146 C 2071.04 2.0521 2.80189 0
M  V30 22147 C 2070 3.21022 2.8307 0
M  V30 22148 C 2069.32 3.27048 4.23018 0
M  V30 22149 C 2070.62 4.59196 2.4887 0
M  V30 22150 H 2072.32 2.75338 1.17599 0
M  V30 22151 H 2069.86 1.32483 0.564283 0
M  V30 22152 H 2071.82 2.25318 3.56103 0
M  V30 22153 H 2070.54 1.11113 3.07118 0
M  V30 22154 H 2069.2 3.00765 2.09609 0
M  V30 22155 H 2068.85 2.30551 4.47052 0
M  V30 22156 H 2068.55 4.0487 4.25857 0
M  V30 22157 H 2070.07 3.49363 5.00777 0
M  V30 22158 H 2071.49 4.79338 3.14496 0
M  V30 22159 H 2069.88 5.39401 2.62996 0
M  V30 22160 H 2070.95 4.63005 1.44064 0
M  V30 22161 N 2072.3 -0.607329 1.45428 0
M  V30 22162 C 2073.54 -1.36835 1.49679 0
M  V30 22163 C 2073.88 -1.93708 0.138148 0
M  V30 22164 O 2073.15 -1.75069 -0.847414 0
M  V30 22165 C 2073.43 -2.51607 2.57616 0
M  V30 22166 C 2073.29 -1.99929 4.02925 0
M  V30 22167 C 2074.61 -3.53738 2.61835 0
M  V30 22168 H 2071.72 -0.496187 0.544947 0
M  V30 22169 H 2074.37 -0.684587 1.77238 0
M  V30 22170 H 2072.52 -3.09936 2.34247 0
M  V30 22171 H 2074.19 -1.46247 4.37504 0
M  V30 22172 H 2072.43 -1.30929 4.1357 0
M  V30 22173 H 2073.1 -2.82666 4.74135 0
M  V30 22174 H 2075.58 -3.0525 2.82775 0
M  V30 22175 H 2074.45 -4.31533 3.39221 0
M  V30 22176 H 2074.72 -4.09372 1.66935 0
M  V30 22177 N 2073.77 -1.32722 -0.849853 0
M  V30 22178 C 2075.19 -1.11818 -1.13882 0
M  V30 22179 C 2075.39 0.0981854 -2.01261 0
M  V30 22180 O 2074.45 0.781678 -2.40096 0
M  V30 22181 C 2075.76 -2.4001 -1.81151 0
M  V30 22182 C 2077.31 -2.45813 -1.93765 0
M  V30 22183 C 2077.78 -3.73939 -2.6445 0
M  V30 22184 N 2079.27 -3.74948 -2.71971 0
M  V30 22185 C 2080.01 -4.70792 -3.27326 0
M  V30 22186 N 2079.5 -5.77005 -3.83454 0
M  V30 22187 N 2081.3 -4.58282 -3.25475 0
M  V30 22188 H 2073.45 -2.10702 -0.26806 0
M  V30 22189 H 2075.71 -0.930482 -0.181405 0
M  V30 22190 H 2075.42 -3.28963 -1.24403 0
M  V30 22191 H 2075.29 -2.51333 -2.81267 0
M  V30 22192 H 2077.68 -1.57316 -2.49671 0
M  V30 22193 H 2077.76 -2.38439 -0.926307 0
M  V30 22194 H 2077.4 -4.62812 -2.09206 0
M  V30 22195 H 2077.33 -3.78586 -3.66034 0
M  V30 22196 H 2079.82 -2.9818 -2.32157 0
M  V30 22197 H 2080.14 -6.46188 -4.23864 0
M  V30 22198 H 2078.48 -5.80753 -3.81773 0
M  V30 22199 H 2081.67 -3.74468 -2.80876 0
M  V30 22200 H 2081.85 -5.3315 -3.68314 0
M  V30 22201 N 2075.25 1.06673 -1.16011 0
M  V30 22202 C 2076.48 1.8284 -0.961925 0
M  V30 22203 C 2076.89 1.8266 0.49314 0
M  V30 22204 O 2076.23 1.24152 1.35395 0
M  V30 22205 C 2076.3 3.30797 -1.4076 0
M  V30 22206 C 2075.96 3.54686 -2.88178 0
M  V30 22207 C 2076.96 3.48054 -3.86205 0
M  V30 22208 C 2074.64 3.82131 -3.26008 0
M  V30 22209 C 2076.64 3.68527 -5.20064 0
M  V30 22210 C 2074.32 4.02254 -4.60038 0
M  V30 22211 C 2075.32 3.95449 -5.56875 0
M  V30 22212 O 2075.01 4.15027 -6.88482 0
M  V30 22213 H 2074.74 0.583493 -0.341338 0
M  V30 22214 H 2077.29 1.35513 -1.54355 0
M  V30 22215 H 2075.52 3.78968 -0.769428 0
M  V30 22216 H 2077.21 3.88447 -1.17743 0
M  V30 22217 H 2077.98 3.26846 -3.58325 0
M  V30 22218 H 2073.86 3.86539 -2.51214 0
M  V30 22219 H 2077.4 3.63131 -5.95636 0
M  V30 22220 H 2073.3 4.22951 -4.8763 0
M  V30 22221 H 2074.07 4.32337 -6.95002 0
M  V30 22222 N 2076.73 0.957992 1.25141 0
M  V30 22223 C 2077.98 0.614592 1.92948 0
M  V30 22224 C 2078.31 -0.848868 1.74999 0
M  V30 22225 O 2077.56 -1.62488 1.09069 0
M  V30 22226 C 2077.86 0.923523 3.45262 0
M  V30 22227 C 2077.53 2.37356 3.83371 0
M  V30 22228 C 2076.19 2.7699 3.93484 0
M  V30 22229 C 2078.54 3.31508 4.02184 0
M  V30 22230 C 2075.87 4.09838 4.19821 0
M  V30 22231 C 2078.22 4.63973 4.30014 0
M  V30 22232 C 2076.88 5.03398 4.38345 0
M  V30 22233 H 2076.15 0.224895 0.706048 0
M  V30 22234 H 2078.8 1.20766 1.4862 0
M  V30 22235 H 2077.11 0.248102 3.91014 0
M  V30 22236 H 2078.8 0.636357 3.95919 0
M  V30 22237 H 2075.39 2.05619 3.76057 0
M  V30 22238 H 2079.58 3.02076 3.93781 0
M  V30 22239 H 2074.83 4.40023 4.24488 0
M  V30 22240 H 2079.01 5.36905 4.43516 0
M  V30 22241 H 2076.63 6.06363 4.58506 0
M  V30 22242 N 2078.21 -1.39832 0.726957 0
M  V30 22243 C 2079.46 -2.00277 0.27085 0
M  V30 22244 C 2079.78 -1.57958 -1.14343 0
M  V30 22245 O 2079.05 -0.824155 -1.7772 0
M  V30 22246 H 2077.63 -0.740656 0.0971496 0
M  V30 22247 H 2080.29 -1.71001 0.935123 0
M  V30 22248 H 2079.39 -3.10528 0.312892 0
M  V30 22249 N 2079.69 -0.473982 -1.50304 0
M  V30 22250 C 2080.93 0.0801282 -2.02642 0
M  V30 22251 C 2081.27 1.3911 -1.35506 0
M  V30 22252 O 2080.54 1.8844 -0.481719 0
M  V30 22253 C 2080.82 0.26092 -3.59153 0
M  V30 22254 C 2080.68 -1.07128 -4.36857 0
M  V30 22255 C 2082 1.01413 -4.28256 0
M  V30 22256 H 2079.11 0.0276467 -0.736481 0
M  V30 22257 H 2081.76 -0.620135 -1.79595 0
M  V30 22258 H 2079.91 0.857378 -3.78921 0
M  V30 22259 H 2081.58 -1.70454 -4.28653 0
M  V30 22260 H 2079.82 -1.66721 -4.00483 0
M  V30 22261 H 2080.49 -0.898389 -5.4464 0
M  V30 22262 H 2082.97 0.508536 -4.12981 0
M  V30 22263 H 2081.84 1.10943 -5.37571 0
M  V30 22264 H 2082.11 2.05141 -3.91624 0
M  V30 22265 N 2081.16 1.56239 -0.206702 0
M  V30 22266 C 2082.07 2.2324 0.721172 0
M  V30 22267 C 2083.09 1.2352 1.22552 0
M  V30 22268 O 2084.27 1.56291 1.27025 0
M  V30 22269 C 2081.33 2.88767 1.91871 0
M  V30 22270 C 2080.39 4.03791 1.45779 0
M  V30 22271 C 2079.63 4.66183 2.59825 0
M  V30 22272 O 2079.85 4.27524 3.77597 0
M  V30 22273 O 2078.78 5.55444 2.31874 0
M  V30 22274 H 2082.61 3.03163 0.180488 0
M  V30 22275 H 2080.19 1.49382 0.0231036 0
M  V30 22276 H 2082.08 3.30181 2.61837 0
M  V30 22277 H 2080.75 2.11815 2.44777 0
M  V30 22278 H 2079.66 3.66976 0.726587 0
M  V30 22279 H 2080.99 4.82441 0.975269 0
M  V30 22280 N 2082.64 -0.0668159 1.57458 0
M  V30 22281 C 2083.57 -1.0791 2.07069 0
M  V30 22282 C 2084.55 -1.40063 0.965207 0
M  V30 22283 O 2085.74 -1.49604 1.23823 0
M  V30 22284 C 2082.87 -2.39113 2.51877 0
M  V30 22285 C 2081.82 -2.213 3.66347 0
M  V30 22286 C 2081.15 -3.57931 3.97227 0
M  V30 22287 C 2082.45 -1.63013 4.9621 0
M  V30 22288 H 2084.14 -0.666254 2.91893 0
M  V30 22289 H 2081.69 -0.319039 1.40421 0
M  V30 22290 H 2083.64 -3.10226 2.85198 0
M  V30 22291 H 2082.37 -2.82387 1.64088 0
M  V30 22292 H 2081.02 -1.52628 3.33317 0
M  V30 22293 H 2080.67 -3.98784 3.06562 0
M  V30 22294 H 2080.37 -3.4685 4.74309 0
M  V30 22295 H 2081.9 -4.30467 4.33048 0
M  V30 22296 H 2083.31 -2.23997 5.27729 0
M  V30 22297 H 2081.71 -1.62614 5.77648 0
M  V30 22298 H 2082.78 -0.592078 4.81272 0
M  V30 22299 N 2084.12 -1.53926 -0.338317 0
M  V30 22300 C 2085.07 -1.78661 -1.41648 0
M  V30 22301 C 2086.06 -0.642018 -1.47536 0
M  V30 22302 O 2087.25 -0.901572 -1.52318 0
M  V30 22303 C 2084.38 -2.0043 -2.78716 0
M  V30 22304 C 2083.46 -3.2097 -2.77198 0
M  V30 22305 N 2083.85 -4.42332 -2.45308 0
M  V30 22306 C 2082.15 -3.22245 -3.08341 0
M  V30 22307 C 2082.85 -5.24206 -2.52156 0
M  V30 22308 N 2081.83 -4.61043 -2.87994 0
M  V30 22309 H 2085.63 -2.70083 -1.15897 0
M  V30 22310 H 2083.14 -1.52921 -0.546712 0
M  V30 22311 H 2085.14 -2.16287 -3.56407 0
M  V30 22312 H 2083.8 -1.10254 -3.05408 0
M  V30 22313 H 2084.81 -4.69591 -2.18414 0
M  V30 22314 H 2081.49 -2.42053 -3.40171 0
M  V30 22315 H 2082.88 -6.31083 -2.30615 0
M  V30 22316 N 2085.6 0.599608 -1.45748 0
M  V30 22317 C 2087.02 0.921212 -1.3033 0
M  V30 22318 C 2087.22 1.99787 -0.262213 0
M  V30 22319 O 2086.27 2.50186 0.34109 0
M  V30 22320 C 2087.58 1.35457 -2.68462 0
M  V30 22321 C 2089.13 1.46835 -2.76421 0
M  V30 22322 C 2089.61 1.93544 -4.15096 0
M  V30 22323 N 2091.1 2.00765 -4.1743 0
M  V30 22324 C 2091.83 2.38145 -5.21608 0
M  V30 22325 N 2091.33 2.74437 -6.36126 0
M  V30 22326 N 2093.12 2.38554 -5.08968 0
M  V30 22327 H 2085.27 -0.111892 -2.12105 0
M  V30 22328 H 2087.54 0.0126042 -0.947916 0
M  V30 22329 H 2087.24 0.63759 -3.45872 0
M  V30 22330 H 2087.12 2.31951 -2.97453 0
M  V30 22331 H 2089.5 2.17623 -1.99309 0
M  V30 22332 H 2089.58 0.486356 -2.51134 0
M  V30 22333 H 2089.23 1.2334 -4.92696 0
M  V30 22334 H 2089.16 2.92672 -4.3778 0
M  V30 22335 H 2091.65 1.75275 -3.34794 0
M  V30 22336 H 2091.96 3.01865 -7.11405 0
M  V30 22337 H 2090.31 2.72115 -6.39514 0
M  V30 22338 H 2093.5 2.09612 -4.18546 0
M  V30 22339 H 2093.67 2.67359 -5.90274 0
M  V30 22340 N 2087.08 1.33171 0.842803 0
M  V30 22341 C 2087.99 1.25124 1.98447 0
M  V30 22342 C 2089 0.162551 1.73239 0
M  V30 22343 O 2090.18 0.385417 1.97678 0
M  V30 22344 C 2087.24 0.9866 3.32366 0
M  V30 22345 C 2086.31 2.16491 3.70716 0
M  V30 22346 C 2085.54 1.9128 4.98245 0
M  V30 22347 O 2085.76 0.861174 5.63862 0
M  V30 22348 O 2084.7 2.77708 5.34005 0
M  V30 22349 H 2088.52 2.21126 2.08175 0
M  V30 22350 H 2086.11 1.13178 0.975243 0
M  V30 22351 H 2087.99 0.856003 4.12614 0
M  V30 22352 H 2086.66 0.0568283 3.2365 0
M  V30 22353 H 2085.57 2.35103 2.90994 0
M  V30 22354 H 2086.9 3.07788 3.84093 0
M  V30 22355 N 2088.56 -1.06056 1.16576 0
M  V30 22356 C 2089.47 -2.17107 0.888912 0
M  V30 22357 C 2090.48 -1.73438 -0.139723 0
M  V30 22358 O 2091.66 -2.01365 0.0374846 0
M  V30 22359 C 2088.72 -3.44425 0.396494 0
M  V30 22360 C 2087.78 -4.02589 1.49065 0
M  V30 22361 C 2087.02 -5.2383 1.02163 0
M  V30 22362 O 2087.24 -5.70257 -0.127684 0
M  V30 22363 O 2086.17 -5.7401 1.81098 0
M  V30 22364 H 2090 -2.43304 1.81761 0
M  V30 22365 H 2087.58 -1.1564 0.945923 0
M  V30 22366 H 2089.47 -4.21203 0.128983 0
M  V30 22367 H 2088.14 -3.1975 -0.504164 0
M  V30 22368 H 2087.05 -3.27292 1.81193 0
M  V30 22369 H 2088.38 -4.31565 2.3667 0
M  V30 22370 N 2090.03 -0.964615 -1.24631 0
M  V30 22371 C 2090.97 -0.436956 -2.23978 0
M  V30 22372 C 2091.94 0.487238 -1.55128 0
M  V30 22373 O 2093.13 0.419325 -1.83777 0
M  V30 22374 C 2090.26 0.369565 -3.36678 0
M  V30 22375 C 2089.3 -0.496467 -4.23601 0
M  V30 22376 S 2090.13 -1.9348 -4.99325 0
M  V30 22377 C 2091.29 -1.13698 -6.15486 0
M  V30 22378 H 2091.52 -1.27886 -2.68388 0
M  V30 22379 H 2089.06 -0.769419 -1.33863 0
M  V30 22380 H 2091.01 0.828933 -4.02043 0
M  V30 22381 H 2089.68 1.18641 -2.90832 0
M  V30 22382 H 2088.87 0.122614 -5.03851 0
M  V30 22383 H 2088.47 -0.891439 -3.63221 0
M  V30 22384 H 2090.76 -0.390494 -6.76374 0
M  V30 22385 H 2091.71 -1.91375 -6.81749 0
M  V30 22386 H 2092.11 -0.662712 -5.60596 0
M  V30 22387 N 2091.51 1.39445 -0.734362 0
M  V30 22388 C 2092.74 2.04529 -0.291826 0
M  V30 22389 C 2093.15 1.5548 1.07808 0
M  V30 22390 O 2092.49 0.714553 1.69233 0
M  V30 22391 C 2092.55 3.58859 -0.214586 0
M  V30 22392 C 2092.22 4.30881 -1.52285 0
M  V30 22393 C 2093.22 4.57563 -2.46843 0
M  V30 22394 C 2090.9 4.69438 -1.78698 0
M  V30 22395 C 2092.89 5.21813 -3.66047 0
M  V30 22396 C 2090.58 5.33416 -2.98179 0
M  V30 22397 C 2091.58 5.59535 -3.91675 0
M  V30 22398 O 2091.27 6.22186 -5.09058 0
M  V30 22399 H 2091 0.664249 -0.125494 0
M  V30 22400 H 2093.55 1.79489 -0.998637 0
M  V30 22401 H 2091.78 3.82793 0.54832 0
M  V30 22402 H 2093.47 4.05427 0.195869 0
M  V30 22403 H 2094.24 4.28222 -2.27708 0
M  V30 22404 H 2090.12 4.48466 -1.06769 0
M  V30 22405 H 2093.66 5.42116 -4.3904 0
M  V30 22406 H 2089.56 5.62179 -3.17215 0
M  V30 22407 H 2090.33 6.4068 -5.09383 0
M  V30 22408 N 2092.99 0.481946 1.5005 0
M  V30 22409 C 2094.24 -0.0710199 2.01575 0
M  V30 22410 C 2094.55 -1.39798 1.36806 0
M  V30 22411 O 2095.76 -2.03653 1.79549 0
M  V30 22412 C 2094.21 -0.177064 3.59464 0
M  V30 22413 C 2093.82 1.14212 4.33197 0
M  V30 22414 C 2095.57 -0.681409 4.18995 0
M  V30 22415 C 2093.47 0.999274 5.82897 0
M  V30 22416 H 2092.4 -0.0303162 0.75339 0
M  V30 22417 H 2095.05 0.618487 1.72763 0
M  V30 22418 H 2093.44 -0.930598 3.8491 0
M  V30 22419 H 2094.61 1.90745 4.19467 0
M  V30 22420 H 2092.92 1.57841 3.85325 0
M  V30 22421 H 2095.52 -0.805484 5.28598 0
M  V30 22422 H 2095.86 -1.6755 3.81094 0
M  V30 22423 H 2096.4 0.015045 3.97797 0
M  V30 22424 H 2093.14 1.96706 6.2529 0
M  V30 22425 H 2092.66 0.274505 5.99172 0
M  V30 22426 H 2094.34 0.670265 6.43519 0
M  V30 22427 N 2094.47 -1.56127 0.214985 0
M  V30 22428 C 2095.71 -1.98129 -0.41849 0
M  V30 22429 C 2096.04 -1.10246 -1.60238 0
M  V30 22430 O 2095.3 -0.145925 -1.95155 0
M  V30 22431 C 2095.6 -3.45828 -0.902084 0
M  V30 22432 C 2095.26 -4.50577 0.170573 0
M  V30 22433 C 2093.92 -4.78945 0.465258 0
M  V30 22434 C 2096.28 -5.13434 0.896355 0
M  V30 22435 C 2093.6 -5.67455 1.49036 0
M  V30 22436 C 2095.96 -6.03053 1.91074 0
M  V30 22437 C 2094.62 -6.29768 2.21242 0
M  V30 22438 H 2093.89 -0.725004 -0.153136 0
M  V30 22439 H 2096.54 -1.88873 0.316127 0
M  V30 22440 H 2094.84 -3.52255 -1.71534 0
M  V30 22441 H 2096.54 -3.75694 -1.40196 0
M  V30 22442 H 2093.13 -4.28544 -0.0692657 0
M  V30 22443 H 2097.31 -4.91593 0.681928 0
M  V30 22444 H 2092.57 -5.8642 1.72978 0
M  V30 22445 H 2096.74 -6.50812 2.47824 0
M  V30 22446 H 2094.37 -6.9815 3.00817 0
M  V30 22447 N 2095.95 0.0584645 -1.57492 0
M  V30 22448 C 2096.88 1.10026 -1.99924 0
M  V30 22449 C 2097.86 1.36832 -0.878387 0
M  V30 22450 O 2099.04 1.49983 -1.14181 0
M  V30 22451 C 2096.17 2.4417 -2.34731 0
M  V30 22452 C 2095.21 2.33413 -3.5696 0
M  V30 22453 S 2096.05 1.71551 -5.07278 0
M  V30 22454 C 2097.2 3.07245 -5.45299 0
M  V30 22455 H 2097.44 0.738715 -2.87976 0
M  V30 22456 H 2094.97 0.267463 -1.52066 0
M  V30 22457 H 2096.93 3.21327 -2.55458 0
M  V30 22458 H 2095.59 2.77481 -1.47183 0
M  V30 22459 H 2094.78 3.3237 -3.78875 0
M  V30 22460 H 2094.38 1.64394 -3.35932 0
M  V30 22461 H 2096.67 4.0357 -5.44185 0
M  V30 22462 H 2097.62 2.90096 -6.45949 0
M  V30 22463 H 2098.03 3.08464 -4.72768 0
M  V30 22464 N 2097.42 1.54103 0.330149 0
M  V30 22465 C 2098.33 1.86042 1.42918 0
M  V30 22466 C 2099.35 0.75174 1.56923 0
M  V30 22467 O 2100.53 1.04538 1.72145 0
M  V30 22468 C 2097.59 2.07533 2.77724 0
M  V30 22469 C 2096.65 3.31356 2.7295 0
M  V30 22470 C 2095.88 3.51812 4.01328 0
M  V30 22471 O 2096.11 2.75838 4.99269 0
M  V30 22472 O 2095.04 4.45275 4.04986 0
M  V30 22473 H 2098.87 2.79483 1.18839 0
M  V30 22474 H 2096.45 1.39925 0.523569 0
M  V30 22475 H 2098.33 2.23037 3.57537 0
M  V30 22476 H 2097.01 1.1728 3.01707 0
M  V30 22477 H 2095.92 3.21243 1.91712 0
M  V30 22478 H 2097.25 4.21645 2.53922 0
M  V30 22479 N 2098.9 -0.59187 1.46064 0
M  V30 22480 C 2100.13 -1.37466 1.54229 0
M  V30 22481 C 2100.54 -1.8835 0.1791 0
M  V30 22482 O 2099.88 -1.63765 -0.832274 0
M  V30 22483 C 2099.95 -2.60379 2.47877 0
M  V30 22484 C 2099.61 -2.31026 3.94305 0
M  V30 22485 C 2100.61 -1.90422 4.83772 0
M  V30 22486 C 2098.29 -2.43453 4.39359 0
M  V30 22487 C 2100.29 -1.62626 6.16305 0
M  V30 22488 C 2097.97 -2.15271 5.71928 0
M  V30 22489 C 2098.97 -1.74921 6.60221 0
M  V30 22490 O 2098.66 -1.47079 7.90331 0
M  V30 22491 H 2098.39 -0.426635 0.524365 0
M  V30 22492 H 2100.94 -0.7274 1.92089 0
M  V30 22493 H 2099.17 -3.27879 2.05018 0
M  V30 22494 H 2100.86 -3.2244 2.4655 0
M  V30 22495 H 2101.63 -1.80343 4.50224 0
M  V30 22496 H 2097.51 -2.73823 3.70866 0
M  V30 22497 H 2101.05 -1.31058 6.85179 0
M  V30 22498 H 2096.95 -2.2497 6.05028 0
M  V30 22499 H 2097.72 -1.61 8.02509 0
M  V30 22500 N 2100.38 -1.33616 -0.835729 0
M  V30 22501 C 2101.62 -1.26586 -1.60484 0
M  V30 22502 C 2101.98 0.165184 -1.91288 0
M  V30 22503 O 2103.19 0.359488 -2.66385 0
M  V30 22504 C 2101.46 -2.11961 -2.87762 0
M  V30 22505 S 2103.02 -2.22154 -3.78409 0
M  V30 22506 H 2099.83 -0.450304 -0.550225 0
M  V30 22507 H 2102.44 -1.68685 -0.98821 0
M  V30 22508 H 2101.14 -3.14963 -2.63109 0
M  V30 22509 H 2100.67 -1.70712 -3.54431 0
M  V30 22510 H 2102.69 -1.38491 -4.76482 0
M  V30 22511 N 2101.86 1.05436 -1.17136 0
M  V30 22512 C 2103.14 1.75275 -0.868216 0
M  V30 22513 C 2103.52 2.01415 0.632074 0
M  V30 22514 O 2102.86 1.64823 1.58258 0
M  V30 22515 C 2103.07 3.04772 -1.70044 0
M  V30 22516 C 2104.42 3.78768 -1.91885 0
M  V30 22517 O 2105.45 3.14636 -1.66982 0
M  V30 22518 O 2104.3 4.94 -2.33723 0
M  V30 22519 H 2101.4 0.762066 -0.321223 0
M  V30 22520 H 2103.94 1.11627 -1.27818 0
M  V30 22521 H 2102.72 2.81485 -2.71812 0
M  V30 22522 H 2102.34 3.76157 -1.28808 0
M  V30 22523 N 2103.34 0.971211 1.24118 0
M  V30 22524 C 2104.25 0.511904 2.28947 0
M  V30 22525 C 2105.26 -0.428843 1.68633 0
M  V30 22526 O 2106.44 -0.301023 1.99138 0
M  V30 22527 C 2103.5 -0.187222 3.46194 0
M  V30 22528 C 2102.56 0.793786 4.21898 0
M  V30 22529 C 2101.8 0.12793 5.33547 0
M  V30 22530 O 2102.02 -1.08301 5.60024 0
M  V30 22531 O 2100.95 0.821863 5.96263 0
M  V30 22532 H 2104.78 1.38346 2.70359 0
M  V30 22533 H 2102.37 0.738411 1.29876 0
M  V30 22534 H 2104.25 -0.579802 4.17392 0
M  V30 22535 H 2102.92 -1.03369 3.06752 0
M  V30 22536 H 2101.83 1.23689 3.53061 0
M  V30 22537 H 2103.16 1.60877 4.65166 0
M  V30 22538 N 2104.81 -1.39054 0.741747 0
M  V30 22539 C 2106.06 -1.99978 0.292077 0
M  V30 22540 C 2106.38 -1.59162 -1.12662 0
M  V30 22541 O 2105.65 -0.842958 -1.76836 0
M  V30 22542 H 2104.23 -0.739584 0.105 0
M  V30 22543 H 2106.9 -1.7 0.953207 0
M  V30 22544 H 2105.99 -3.10178 0.34581 0
M  V30 22545 N 2106.29 -0.489897 -1.49792 0
M  V30 22546 C 2107.52 0.0556798 -2.06825 0
M  V30 22547 C 2107.94 1.31825 -1.35158 0
M  V30 22548 O 2107.29 1.77446 -0.426503 0
M  V30 22549 C 2107.34 0.324604 -3.6004 0
M  V30 22550 O 2107.06 -0.887904 -4.29008 0
M  V30 22551 C 2108.57 0.91506 -4.33753 0
M  V30 22552 H 2105.79 -0.0154889 -0.670821 0
M  V30 22553 H 2108.33 -0.684073 -1.92719 0
M  V30 22554 H 2106.48 1.01432 -3.73885 0
M  V30 22555 H 2106.9 -0.643954 -5.20532 0
M  V30 22556 H 2108.37 1.05288 -5.41866 0
M  V30 22557 H 2108.85 1.91003 -3.95493 0
M  V30 22558 H 2109.46 0.263155 -4.24485 0
M  V30 22559 N 2107.77 1.56011 -0.223262 0
M  V30 22560 C 2108.7 2.23355 0.680795 0
M  V30 22561 C 2109.68 1.20584 1.19973 0
M  V30 22562 O 2110.87 1.49174 1.24342 0
M  V30 22563 C 2108 2.91478 1.88833 0
M  V30 22564 C 2106.95 4.00736 1.50316 0
M  V30 22565 C 2106.28 4.56164 2.7896 0
M  V30 22566 C 2107.58 5.17697 0.69188 0
M  V30 22567 H 2109.27 2.99162 0.119304 0
M  V30 22568 H 2106.82 1.43891 0.055942 0
M  V30 22569 H 2108.77 3.37282 2.52623 0
M  V30 22570 H 2107.49 2.13121 2.47481 0
M  V30 22571 H 2106.15 3.55665 0.888708 0
M  V30 22572 H 2105.8 3.74535 3.35757 0
M  V30 22573 H 2105.5 5.29903 2.53922 0
M  V30 22574 H 2107.02 5.04687 3.43691 0
M  V30 22575 H 2108.44 5.59872 1.23353 0
M  V30 22576 H 2106.84 5.97679 0.538515 0
M  V30 22577 H 2107.91 4.83964 -0.301131 0
M  V30 22578 N 2109.25 -0.0501116 1.5752 0
M  V30 22579 C 2110.16 -1.07459 2.08542 0
M  V30 22580 C 2111.17 -1.41006 1.01947 0
M  V30 22581 O 2112.35 -1.50749 1.33555 0
M  V30 22582 C 2109.42 -2.36274 2.53723 0
M  V30 22583 C 2108.48 -2.095 3.74711 0
M  V30 22584 C 2107.71 -3.32174 4.17728 0
M  V30 22585 O 2107.93 -4.42091 3.60432 0
M  V30 22586 O 2106.87 -3.1911 5.10346 0
M  V30 22587 H 2110.69 -0.671065 2.96193 0
M  V30 22588 H 2108.28 -0.265709 1.47018 0
M  V30 22589 H 2110.16 -3.12043 2.83208 0
M  V30 22590 H 2108.83 -2.75963 1.69192 0
M  V30 22591 H 2107.74 -1.31366 3.50277 0
M  V30 22592 H 2109.07 -1.74679 4.60161 0
M  V30 22593 N 2110.73 -1.54276 -0.321972 0
M  V30 22594 C 2111.64 -1.86797 -1.41929 0
M  V30 22595 C 2112.65 -0.760051 -1.56522 0
M  V30 22596 O 2113.83 -1.0545 -1.71588 0
M  V30 22597 C 2110.89 -2.09003 -2.7662 0
M  V30 22598 C 2109.95 -3.32799 -2.71189 0
M  V30 22599 C 2109.19 -3.53936 -3.99456 0
M  V30 22600 O 2109.41 -2.78482 -4.97799 0
M  V30 22601 O 2108.34 -4.47417 -4.02619 0
M  V30 22602 H 2112.17 -2.8011 -1.17355 0
M  V30 22603 H 2109.76 -1.40201 -0.516141 0
M  V30 22604 H 2111.64 -2.2493 -3.56349 0
M  V30 22605 H 2110.31 -1.18879 -3.01081 0
M  V30 22606 H 2109.22 -3.22256 -1.90006 0
M  V30 22607 H 2110.55 -4.22986 -2.51683 0
M  V30 22608 N 2112.2 0.584116 -1.46376 0
M  V30 22609 C 2113.45 1.34437 -1.51837 0
M  V30 22610 C 2113.78 1.93464 -0.168948 0
M  V30 22611 O 2113.06 1.76395 0.819455 0
M  V30 22612 C 2113.34 2.47477 -2.61586 0
M  V30 22613 C 2113.19 1.93494 -4.06054 0
M  V30 22614 C 2114.51 3.49527 -2.6743 0
M  V30 22615 H 2111.63 0.487455 -0.552772 0
M  V30 22616 H 2114.27 0.656303 -1.78305 0
M  V30 22617 H 2112.42 3.0617 -2.39148 0
M  V30 22618 H 2114.1 1.39268 -4.39775 0
M  V30 22619 H 2112.34 1.24333 -4.15601 0
M  V30 22620 H 2113.01 2.75087 -4.78572 0
M  V30 22621 H 2115.49 3.00712 -2.87596 0
M  V30 22622 H 2114.36 4.26082 -3.46043 0
M  V30 22623 H 2114.62 4.06664 -1.73426 0
M  V30 22624 N 2113.68 1.34058 0.828631 0
M  V30 22625 C 2114.91 1.29306 1.62156 0
M  V30 22626 C 2115.33 -0.131256 1.87641 0
M  V30 22627 O 2114.69 -1.09118 1.44786 0
M  V30 22628 C 2114.74 2.08394 2.94286 0
M  V30 22629 O 2113.84 1.44955 3.86085 0
M  V30 22630 H 2113.18 0.444364 0.493393 0
M  V30 22631 H 2115.71 1.76775 1.03014 0
M  V30 22632 H 2115.72 2.19539 3.43899 0
M  V30 22633 H 2114.4 3.11953 2.7506 0
M  V30 22634 H 2112.98 1.42518 3.44591 0
M  V30 22635 N 2115.16 -1.04814 1.17694 0
M  V30 22636 C 2116.58 -1.3006 0.925018 0
M  V30 22637 C 2116.78 -1.97207 -0.4137 0
M  V30 22638 O 2115.83 -2.24802 -1.14979 0
M  V30 22639 C 2117.15 -2.16666 2.0851 0
M  V30 22640 C 2118.69 -2.30036 2.12256 0
M  V30 22641 C 2119.17 -3.20004 3.27661 0
M  V30 22642 N 2120.66 -3.2759 3.27473 0
M  V30 22643 C 2121.4 -3.97339 4.13412 0
M  V30 22644 N 2120.89 -4.69483 5.09468 0
M  V30 22645 N 2122.68 -3.93542 4.01349 0
M  V30 22646 H 2114.84 -0.596316 2.03857 0
M  V30 22647 H 2117.1 -0.325581 0.890338 0
M  V30 22648 H 2116.8 -1.74624 3.05286 0
M  V30 22649 H 2116.68 -3.17317 2.03936 0
M  V30 22650 H 2119.07 -2.71318 1.16063 0
M  V30 22651 H 2119.15 -1.29001 2.2089 0
M  V30 22652 H 2118.79 -2.79435 4.24121 0
M  V30 22653 H 2118.72 -4.21053 3.16263 0
M  V30 22654 H 2121.21 -2.76191 2.57928 0
M  V30 22655 H 2121.52 -5.20277 5.7143 0
M  V30 22656 H 2119.87 -4.68413 5.13434 0
M  V30 22657 H 2123.06 -3.36308 3.25599 0
M  V30 22658 H 2123.23 -4.4763 4.68542 0
M  V30 22659 N 2116.64 -0.977779 -1.23601 0
M  V30 22660 C 2117.57 -0.535228 -2.27283 0
M  V30 22661 C 2118.55 0.430261 -1.64568 0
M  V30 22662 O 2119.74 0.324195 -1.91475 0
M  V30 22663 C 2116.87 0.165683 -3.46905 0
M  V30 22664 C 2115.82 -0.716827 -4.21954 0
M  V30 22665 C 2115.15 0.116149 -5.34574 0
M  V30 22666 C 2116.45 -2.00636 -4.82227 0
M  V30 22667 H 2118.14 -1.40185 -2.64553 0
M  V30 22668 H 2115.69 -0.67551 -1.27173 0
M  V30 22669 H 2117.64 0.486573 -4.18581 0
M  V30 22670 H 2116.36 1.06674 -3.08688 0
M  V30 22671 H 2115.02 -1.02114 -3.52091 0
M  V30 22672 H 2114.67 1.01766 -4.92598 0
M  V30 22673 H 2114.37 -0.471195 -5.85708 0
M  V30 22674 H 2115.89 0.431481 -6.09074 0
M  V30 22675 H 2117.31 -1.75041 -5.45925 0
M  V30 22676 H 2115.7 -2.54126 -5.43636 0
M  V30 22677 H 2116.77 -2.69488 -4.03118 0
M  V30 22678 N 2118.12 1.38658 -0.749111 0
M  V30 22679 C 2119.37 1.99821 -0.302678 0
M  V30 22680 C 2119.69 1.59757 1.11816 0
M  V30 22681 O 2118.96 0.852324 1.76387 0
M  V30 22682 H 2117.54 0.739016 -0.108921 0
M  V30 22683 H 2120.2 1.69492 -0.962209 0
M  V30 22684 H 2119.29 3.09991 -0.362255 0
M  V30 22685 N 2119.6 0.497834 1.49531 0
M  V30 22686 C 2120.53 -0.271671 2.31914 0
M  V30 22687 C 2121.51 -0.965521 1.40042 0
M  V30 22688 O 2122.69 -0.957536 1.68952 0
M  V30 22689 C 2119.82 -1.3384 3.20475 0
M  V30 22690 C 2118.78 -0.76461 4.21115 0
M  V30 22691 C 2118.1 -1.93162 4.98591 0
M  V30 22692 C 2119.4 0.242201 5.21738 0
M  V30 22693 H 2121.1 0.415979 2.96496 0
M  V30 22694 H 2118.64 0.201496 1.42583 0
M  V30 22695 H 2120.59 -1.88442 3.76918 0
M  V30 22696 H 2119.32 -2.05519 2.5383 0
M  V30 22697 H 2117.98 -0.240359 3.65811 0
M  V30 22698 H 2117.63 -2.63602 4.28396 0
M  V30 22699 H 2117.33 -1.55378 5.66685 0
M  V30 22700 H 2118.85 -2.48204 5.57877 0
M  V30 22701 H 2120.26 -0.215575 5.72895 0
M  V30 22702 H 2118.66 0.535707 5.97704 0
M  V30 22703 H 2119.73 1.15916 4.70841 0
M  V30 22704 N 2121.07 -1.5589 0.231532 0
M  V30 22705 C 2122.01 -2.18025 -0.70695 0
M  V30 22706 C 2123.02 -1.15214 -1.1502 0
M  V30 22707 O 2124.21 -1.42149 -1.07963 0
M  V30 22708 C 2121.31 -2.75714 -1.97066 0
M  V30 22709 C 2120.48 -4.03794 -1.68135 0
M  V30 22710 C 2119.54 -4.4595 -2.79312 0
M  V30 22711 O 2118.57 -5.12645 -2.47354 0
M  V30 22712 N 2119.77 -4.12459 -4.08483 0
M  V30 22713 H 2122.53 -2.99186 -0.175389 0
M  V30 22714 H 2120.09 -1.6182 0.0509009 0
M  V30 22715 H 2122.09 -3.00882 -2.70652 0
M  V30 22716 H 2120.66 -1.98799 -2.41242 0
M  V30 22717 H 2119.88 -3.86377 -0.781436 0
M  V30 22718 H 2121.16 -4.87328 -1.46251 0
M  V30 22719 H 2120.56 -3.58884 -4.37286 0
M  V30 22720 H 2119.12 -4.42496 -4.78581 0
M  V30 22721 N 2122.55 0.0417572 -1.57545 0
M  V30 22722 C 2123.46 1.06351 -2.09109 0
M  V30 22723 C 2124.48 1.40464 -1.02694 0
M  V30 22724 O 2125.65 1.50038 -1.34352 0
M  V30 22725 C 2122.72 2.34925 -2.54973 0
M  V30 22726 C 2121.78 2.0751 -3.75816 0
M  V30 22727 C 2121.01 3.29954 -4.19483 0
M  V30 22728 O 2121.24 4.40174 -3.62772 0
M  V30 22729 O 2120.17 3.16399 -5.12031 0
M  V30 22730 H 2124 0.655348 -2.96545 0
M  V30 22731 H 2121.58 0.257909 -1.47157 0
M  V30 22732 H 2123.46 3.10537 -2.84859 0
M  V30 22733 H 2122.14 2.75062 -1.70653 0
M  V30 22734 H 2121.04 1.29507 -3.50968 0
M  V30 22735 H 2122.38 1.72237 -4.61081 0
M  V30 22736 N 2124.03 1.54445 0.313786 0
M  V30 22737 C 2124.98 1.80892 1.38787 0
M  V30 22738 C 2125.96 0.665408 1.46496 0
M  V30 22739 O 2127.16 0.92569 1.50864 0
M  V30 22740 C 2124.28 2.04839 2.75492 0
M  V30 22741 C 2123.37 3.25339 2.72057 0
M  V30 22742 N 2123.76 4.46179 2.3824 0
M  V30 22743 C 2122.06 3.2711 3.03175 0
M  V30 22744 C 2122.76 5.28152 2.43784 0
M  V30 22745 N 2121.74 4.65566 2.80622 0
M  V30 22746 H 2125.54 2.71893 1.11586 0
M  V30 22747 H 2123.05 1.53771 0.522315 0
M  V30 22748 H 2125.05 2.2193 3.52921 0
M  V30 22749 H 2123.71 1.15098 3.03616 0
M  V30 22750 H 2124.72 4.73006 2.10915 0
M  V30 22751 H 2121.4 2.47434 3.36277 0
M  V30 22752 H 2122.79 6.34672 2.20546 0
M  V30 22753 N 2125.51 -0.576345 1.46683 0
M  V30 22754 C 2126.75 -1.3363 1.52548 0
M  V30 22755 C 2127.09 -1.93371 0.179205 0
M  V30 22756 O 2126.36 -1.76827 -0.810088 0
M  V30 22757 C 2126.64 -2.46086 2.62895 0
M  V30 22758 C 2126.5 -1.91338 4.07075 0
M  V30 22759 C 2127.82 -3.48104 2.6928 0
M  V30 22760 H 2124.94 -0.484517 0.555349 0
M  V30 22761 H 2127.58 -0.646838 1.78651 0
M  V30 22762 H 2125.73 -3.04898 2.40769 0
M  V30 22763 H 2127.4 -1.36934 4.40507 0
M  V30 22764 H 2125.64 -1.22127 4.16254 0
M  V30 22765 H 2126.31 -2.72545 4.80024 0
M  V30 22766 H 2128.79 -2.99183 2.89187 0
M  V30 22767 H 2127.67 -4.2424 3.48298 0
M  V30 22768 H 2127.93 -4.05739 1.7558 0
M  V30 22769 N 2126.99 -1.34495 -0.82151 0
M  V30 22770 C 2128.23 -1.26273 -1.57284 0
M  V30 22771 C 2128.55 0.165151 -1.94902 0
M  V30 22772 O 2129.75 0.369538 -2.68973 0
M  V30 22773 C 2128.21 -2.21361 -2.83773 0
M  V30 22774 C 2127.82 -3.69414 -2.53451 0
M  V30 22775 C 2129.56 -2.2205 -3.61793 0
M  V30 22776 C 2127.47 -4.56367 -3.76142 0
M  V30 22777 H 2126.4 -0.46909 -0.590314 0
M  V30 22778 H 2129.05 -1.59669 -0.904328 0
M  V30 22779 H 2127.43 -1.80918 -3.52256 0
M  V30 22780 H 2128.61 -4.18403 -1.93069 0
M  V30 22781 H 2126.92 -3.71187 -1.88704 0
M  V30 22782 H 2129.52 -2.84237 -4.52895 0
M  V30 22783 H 2129.86 -1.22017 -3.98017 0
M  V30 22784 H 2130.39 -2.60945 -3.00254 0
M  V30 22785 H 2127.13 -5.57341 -3.45038 0
M  V30 22786 H 2126.65 -4.12112 -4.35802 0
M  V30 22787 H 2128.33 -4.71045 -4.43537 0
M  V30 22788 N 2128.46 1.04188 -1.18248 0
M  V30 22789 C 2129.88 1.29568 -0.931902 0
M  V30 22790 C 2130.08 1.97424 0.403235 0
M  V30 22791 O 2129.14 2.25409 1.13785 0
M  V30 22792 C 2130.45 2.15557 -2.09656 0
M  V30 22793 C 2132 2.28907 -2.13473 0
M  V30 22794 C 2132.47 3.18262 -3.29353 0
M  V30 22795 N 2133.96 3.25849 -3.29206 0
M  V30 22796 C 2134.7 3.95141 -4.15513 0
M  V30 22797 N 2134.19 4.66775 -5.1195 0
M  V30 22798 N 2135.99 3.91408 -4.03431 0
M  V30 22799 H 2128.14 0.585496 -2.04171 0
M  V30 22800 H 2130.4 0.320854 -0.892052 0
M  V30 22801 H 2130.11 1.73002 -3.06208 0
M  V30 22802 H 2129.98 3.16231 -2.05616 0
M  V30 22803 H 2132.37 2.70698 -1.175 0
M  V30 22804 H 2132.45 1.27828 -2.21571 0
M  V30 22805 H 2132.09 2.77182 -4.25597 0
M  V30 22806 H 2132.02 4.1937 -3.18491 0
M  V30 22807 H 2134.51 2.74819 -2.59389 0
M  V30 22808 H 2134.83 5.17239 -5.74181 0
M  V30 22809 H 2133.17 4.65683 -5.15911 0
M  V30 22810 H 2136.36 3.34577 -3.27377 0
M  V30 22811 H 2136.54 4.45139 -4.70909 0
M  V30 22812 N 2129.94 0.98432 1.23081 0
M  V30 22813 C 2130.87 0.547274 2.26996 0
M  V30 22814 C 2131.85 -0.421528 1.64794 0
M  V30 22815 O 2133.04 -0.314036 1.91644 0
M  V30 22816 C 2130.17 -0.147283 3.46988 0
M  V30 22817 C 2129.12 0.739194 4.21568 0
M  V30 22818 C 2128.45 -0.0877981 5.34628 0
M  V30 22819 C 2129.75 2.03191 4.81156 0
M  V30 22820 H 2131.44 1.41586 2.63806 0
M  V30 22821 H 2128.99 0.682245 1.26813 0
M  V30 22822 H 2130.94 -0.464368 4.18834 0
M  V30 22823 H 2129.67 -1.05035 3.09249 0
M  V30 22824 H 2128.32 1.03979 3.51545 0
M  V30 22825 H 2127.97 -0.99152 4.93131 0
M  V30 22826 H 2127.67 0.50225 5.8545 0
M  V30 22827 H 2129.2 -0.399175 6.09294 0
M  V30 22828 H 2130.61 1.77933 5.44989 0
M  V30 22829 H 2129.01 2.57006 5.4228 0
M  V30 22830 H 2130.08 2.71622 4.01684 0
M  V30 22831 N 2131.42 -1.38259 0.756453 0
M  V30 22832 C 2132.65 -2.04038 0.324328 0
M  V30 22833 C 2133.06 -1.57176 -1.05321 0
M  V30 22834 O 2132.4 -0.741386 -1.68075 0
M  V30 22835 C 2132.46 -3.58472 0.271651 0
M  V30 22836 C 2132.13 -4.28403 1.59121 0
M  V30 22837 C 2133.12 -4.53578 2.54092 0
M  V30 22838 C 2130.81 -4.66536 1.86143 0
M  V30 22839 C 2132.8 -5.15923 3.74302 0
M  V30 22840 C 2130.49 -5.28605 3.06627 0
M  V30 22841 C 2131.49 -5.53233 4.00527 0
M  V30 22842 O 2131.18 -6.14009 5.18892 0
M  V30 22843 H 2130.91 -0.662169 0.136046 0
M  V30 22844 H 2133.46 -1.77878 1.02707 0
M  V30 22845 H 2131.69 -3.83617 -0.487352 0
M  V30 22846 H 2133.38 -4.05687 -0.131344 0
M  V30 22847 H 2134.15 -4.24545 2.34492 0
M  V30 22848 H 2130.03 -4.4671 1.1389 0
M  V30 22849 H 2133.57 -5.35063 4.47609 0
M  V30 22850 H 2129.47 -5.57061 3.26119 0
M  V30 22851 H 2130.24 -6.32495 5.19512 0
M  V30 22852 N 2132.9 -0.505757 -1.49264 0
M  V30 22853 C 2134.12 0.0358953 -2.07369 0
M  V30 22854 C 2134.55 1.29628 -1.36302 0
M  V30 22855 O 2133.91 1.76338 -0.421242 0
M  V30 22856 C 2133.95 0.267709 -3.59605 0
M  V30 22857 O 2133.06 1.34146 -3.89973 0
M  V30 22858 H 2132.4 -0.0283388 -0.663395 0
M  V30 22859 H 2134.93 -0.70674 -1.92006 0
M  V30 22860 H 2134.94 0.497774 -4.04952 0
M  V30 22861 H 2133.61 -0.653126 -4.1074 0
M  V30 22862 H 2132.19 1.09597 -3.56431 0
M  V30 22863 N 2134.38 1.55765 -0.239796 0
M  V30 22864 C 2135.32 2.2108 0.662746 0
M  V30 22865 C 2136.29 1.17233 1.17668 0
M  V30 22866 O 2137.48 1.45655 1.23245 0
M  V30 22867 C 2134.62 2.90865 1.85719 0
M  V30 22868 C 2133.73 4.0935 1.38044 0
M  V30 22869 C 2132.87 4.6687 2.53389 0
M  V30 22870 C 2131.91 5.77619 2.02541 0
M  V30 22871 N 2131.04 6.29351 3.11225 0
M  V30 22872 H 2135.88 2.97835 0.0990722 0
M  V30 22873 H 2133.42 1.47053 0.0371415 0
M  V30 22874 H 2135.38 3.2952 2.55875 0
M  V30 22875 H 2134.01 2.16596 2.39345 0
M  V30 22876 H 2133.06 3.76057 0.573171 0
M  V30 22877 H 2134.37 4.89322 0.96774 0
M  V30 22878 H 2133.53 5.08062 3.31598 0
M  V30 22879 H 2132.26 3.861 2.97957 0
M  V30 22880 H 2131.27 5.35911 1.22799 0
M  V30 22881 H 2132.49 6.60236 1.5895 0
M  V30 22882 H 2130.44 5.51488 3.55241 0
M  V30 22883 H 2130.36 7.04497 2.74263 0
M  V30 22884 H 2131.63 6.75202 3.89516 0
M  V30 22885 N 2135.85 -0.0334016 1.57565 0
M  V30 22886 C 2136.79 -1.06286 2.03066 0
M  V30 22887 C 2137.8 -1.32726 0.942744 0
M  V30 22888 O 2138.99 -1.3029 1.22012 0
M  V30 22889 C 2136.09 -2.40547 2.38727 0
M  V30 22890 C 2135.26 -2.33524 3.69845 0
M  V30 22891 C 2134.32 -3.50199 3.92743 0
M  V30 22892 O 2133.35 -3.29889 4.63856 0
M  V30 22893 N 2134.55 -4.71916 3.38047 0
M  V30 22894 H 2137.31 -0.675062 2.91998 0
M  V30 22895 H 2134.87 -0.221423 1.60379 0
M  V30 22896 H 2136.87 -3.17313 2.51186 0
M  V30 22897 H 2135.44 -2.71187 1.55488 0
M  V30 22898 H 2134.66 -1.41885 3.6778 0
M  V30 22899 H 2135.94 -2.2597 4.55867 0
M  V30 22900 H 2135.34 -4.91318 2.80398 0
M  V30 22901 H 2133.9 -5.46062 3.55893 0
M  V30 22902 N 2137.33 -1.54609 -0.305591 0
M  V30 22903 C 2138.58 -1.72882 -1.03898 0
M  V30 22904 C 2138.89 -0.519195 -1.88583 0
M  V30 22905 O 2140.1 -0.583633 -2.65153 0
M  V30 22906 C 2138.56 -3.05853 -1.89689 0
M  V30 22907 C 2138.16 -4.34278 -1.10029 0
M  V30 22908 C 2139.91 -3.33485 -2.62656 0
M  V30 22909 C 2137.82 -5.58302 -1.9507 0
M  V30 22910 H 2136.75 -0.64432 -0.391621 0
M  V30 22911 H 2139.4 -1.81093 -0.296223 0
M  V30 22912 H 2137.78 -2.91594 -2.67935 0
M  V30 22913 H 2138.95 -4.59358 -0.364293 0
M  V30 22914 H 2137.27 -4.13546 -0.486653 0
M  V30 22915 H 2139.86 -4.23345 -3.26624 0
M  V30 22916 H 2140.21 -2.52157 -3.31244 0
M  V30 22917 H 2140.74 -3.48694 -1.91462 0
M  V30 22918 H 2137.48 -6.42285 -1.3096 0
M  V30 22919 H 2137 -5.37415 -2.66355 0
M  V30 22920 H 2138.68 -5.95386 -2.53228 0
M  V30 22921 N 2138.81 0.568558 -1.46987 0
M  V30 22922 C 2140.04 1.35191 -1.56624 0
M  V30 22923 C 2140.45 1.87602 -0.212353 0
M  V30 22924 O 2139.81 1.64388 0.792639 0
M  V30 22925 C 2139.86 2.52969 -2.58242 0
M  V30 22926 O 2139.58 2.02726 -3.88373 0
M  V30 22927 C 2141.08 3.45334 -2.77955 0
M  V30 22928 H 2138.3 0.412505 -0.529227 0
M  V30 22929 H 2140.85 0.689847 -1.92513 0
M  V30 22930 H 2139 3.15136 -2.25318 0
M  V30 22931 H 2139.42 2.79532 -4.43804 0
M  V30 22932 H 2140.89 4.2442 -3.52947 0
M  V30 22933 H 2141.37 3.98165 -1.85368 0
M  V30 22934 H 2141.97 2.88992 -3.12032 0
M  V30 22935 N 2140.29 1.34929 0.814366 0
M  V30 22936 C 2141.54 1.27105 1.56612 0
M  V30 22937 C 2141.85 -0.154812 1.94986 0
M  V30 22938 O 2143.06 -0.355268 2.69166 0
M  V30 22939 C 2141.51 2.22863 2.82595 0
M  V30 22940 C 2141.12 3.70753 2.51489 0
M  V30 22941 C 2142.86 2.23965 3.6061 0
M  V30 22942 C 2140.77 4.58355 3.73717 0
M  V30 22943 H 2139.7 0.472214 0.587818 0
M  V30 22944 H 2142.35 1.60146 0.895848 0
M  V30 22945 H 2140.73 1.82784 3.51292 0
M  V30 22946 H 2141.91 4.19421 1.90848 0
M  V30 22947 H 2140.22 3.72182 1.86733 0
M  V30 22948 H 2142.82 2.86634 4.51381 0
M  V30 22949 H 2143.16 1.24126 3.97364 0
M  V30 22950 H 2143.7 2.62533 2.98866 0
M  V30 22951 H 2140.44 5.59163 3.42077 0
M  V30 22952 H 2139.96 4.14418 4.3361 0
M  V30 22953 H 2141.63 4.73391 4.41033 0
M  V30 22954 N 2141.77 -1.0356 1.18799 0
M  V30 22955 C 2142.73 -2.09853 0.921649 0
M  V30 22956 C 2143.73 -1.60519 -0.095096 0
M  V30 22957 O 2144.92 -1.73645 0.138909 0
M  V30 22958 C 2142.05 -3.38733 0.383809 0
M  V30 22959 H 2143.24 -2.34914 1.86428 0
M  V30 22960 H 2140.8 -1.20064 1.00071 0
M  V30 22961 H 2141.53 -3.19337 -0.565188 0
M  V30 22962 H 2141.32 -3.75859 1.11681 0
M  V30 22963 H 2142.81 -4.17039 0.216329 0
M  V30 22964 N 2143.25 -0.990834 -1.22557 0
M  V30 22965 C 2144.49 -0.660998 -1.90562 0
M  V30 22966 C 2144.81 0.810271 -1.78028 0
M  V30 22967 O 2146.01 1.2516 -2.4093 0
M  V30 22968 C 2144.47 -1.13172 -3.41643 0
M  V30 22969 C 2144.08 -2.62807 -3.62817 0
M  V30 22970 C 2145.82 -0.876119 -4.15361 0
M  V30 22971 C 2143.73 -3.03493 -5.07588 0
M  V30 22972 H 2142.66 -0.243531 -0.713589 0
M  V30 22973 H 2145.31 -1.20012 -1.38814 0
M  V30 22974 H 2143.69 -0.520742 -3.92561 0
M  V30 22975 H 2144.87 -3.29233 -3.22401 0
M  V30 22976 H 2143.18 -2.86227 -3.02428 0
M  V30 22977 H 2145.78 -1.15582 -5.22058 0
M  V30 22978 H 2146.12 0.187761 -4.15876 0
M  V30 22979 H 2146.65 -1.44919 -3.70464 0
M  V30 22980 H 2143.39 -4.09048 -5.12211 0
M  V30 22981 H 2142.91 -2.41769 -5.48915 0
M  V30 22982 H 2144.59 -2.94679 -5.75998 0
M  V30 22983 N 2144.72 1.37856 -0.763775 0
M  V30 22984 C 2145.67 2.32223 -0.132368 0
M  V30 22985 C 2146.67 1.54535 0.693933 0
M  V30 22986 O 2147.87 1.6999 0.591889 0
M  V30 22987 H 2144.25 0.751616 -0.0240139 0
M  V30 22988 H 2146.22 2.83069 -0.944157 0
M  V30 22989 C 2144.97 3.39764 0.73862 0
M  V30 22990 H 2144.29 3.99643 0.112174 0
M  V30 22991 H 2145.73 4.08176 1.14753 0
M  V30 22992 C 2144.19 2.7918 1.88573 0
M  V30 22993 O 2144.72 2.69296 2.98065 0
M  V30 22994 N 2142.92 2.3684 1.6839 0
M  V30 22995 H 2142.47 2.45079 0.793337 0
M  V30 22996 H 2142.43 1.96648 2.4531 0
M  V30 22997 N 2146.2 0.513665 1.48994 0
M  V30 22998 C 2147.45 -0.0263732 2.02783 0
M  V30 22999 C 2147.78 -1.35469 1.39147 0
M  V30 23000 O 2147.06 -1.87097 0.531511 0
M  V30 23001 C 2147.34 -0.165605 3.59719 0
M  V30 23002 C 2147.19 1.18673 4.33863 0
M  V30 23003 C 2148.51 -0.900228 4.30794 0
M  V30 23004 H 2145.63 -0.00811043 0.736955 0
M  V30 23005 H 2148.27 0.667534 1.77888 0
M  V30 23006 H 2146.42 -0.756613 3.81061 0
M  V30 23007 H 2148.09 1.81759 4.23983 0
M  V30 23008 H 2146.34 1.77281 3.95922 0
M  V30 23009 H 2147.01 1.04247 5.42067 0
M  V30 23010 H 2149.48 -0.398863 4.14184 0
M  V30 23011 H 2148.36 -0.966514 5.40324 0
M  V30 23012 H 2148.62 -1.94685 3.96926 0
M  V30 23013 N 2147.68 -1.55636 0.248053 0
M  V30 23014 C 2148.61 -2.2441 -0.645175 0
M  V30 23015 C 2149.59 -1.22477 -1.18039 0
M  V30 23016 O 2150.78 -1.51133 -1.21953 0
M  V30 23017 C 2147.91 -2.94446 -1.84171 0
M  V30 23018 C 2146.86 -4.03076 -1.43922 0
M  V30 23019 C 2146.19 -4.60544 -2.71668 0
M  V30 23020 C 2147.49 -5.18732 -0.609431 0
M  V30 23021 H 2149.18 -2.99314 -0.0716951 0
M  V30 23022 H 2146.73 -1.43962 -0.033043 0
M  V30 23023 H 2148.68 -3.41259 -2.47225 0
M  V30 23024 H 2147.4 -2.17031 -2.44059 0
M  V30 23025 H 2146.06 -3.57034 -0.832012 0
M  V30 23026 H 2145.71 -3.79829 -3.29756 0
M  V30 23027 H 2145.41 -5.33876 -2.4546 0
M  V30 23028 H 2146.93 -5.10091 -3.35618 0
M  V30 23029 H 2148.35 -5.61764 -1.1443 0
M  V30 23030 H 2146.74 -5.9846 -0.443361 0
M  V30 23031 H 2147.81 -4.83424 0.378087 0
M  V30 23032 N 2149.16 0.0250451 -1.5758 0
M  V30 23033 C 2150.11 1.03236 -2.03289 0
M  V30 23034 C 2151.09 1.31798 -0.922936 0
M  V30 23035 O 2152.28 1.31315 -1.18681 0
M  V30 23036 C 2149.41 2.33225 -2.51915 0
M  V30 23037 C 2148.5 2.07736 -3.69739 0
M  V30 23038 N 2148.89 1.52319 -4.8232 0
M  V30 23039 C 2147.19 2.38001 -3.77189 0
M  V30 23040 C 2147.89 1.42727 -5.63918 0
M  V30 23041 N 2146.86 1.90424 -5.09156 0
M  V30 23042 H 2150.67 0.597974 -2.87752 0
M  V30 23043 H 2148.18 0.231268 -1.60745 0
M  V30 23044 H 2150.18 3.06202 -2.82923 0
M  V30 23045 H 2148.84 2.77339 -1.68859 0
M  V30 23046 H 2149.85 1.20535 -5.03678 0
M  V30 23047 H 2146.53 2.85162 -3.04941 0
M  V30 23048 H 2147.92 1.00336 -6.64366 0
M  V30 23049 N 2150.64 1.54769 0.297388 0
M  V30 23050 C 2151.55 1.89032 1.38939 0
M  V30 23051 C 2152.56 0.784856 1.55293 0
M  V30 23052 O 2153.74 1.08166 1.69888 0
M  V30 23053 C 2150.8 2.13378 2.7326 0
M  V30 23054 C 2149.86 3.37071 2.6586 0
M  V30 23055 C 2149.1 3.60246 3.93775 0
M  V30 23056 O 2149.32 2.86366 4.93306 0
M  V30 23057 O 2148.25 4.53765 3.9545 0
M  V30 23058 H 2152.08 2.81941 1.12884 0
M  V30 23059 H 2149.66 1.41004 0.493771 0
M  V30 23060 H 2151.55 2.30571 3.52725 0
M  V30 23061 H 2150.22 1.23654 2.99151 0
M  V30 23062 H 2149.13 3.25238 1.84855 0
M  V30 23063 H 2150.46 4.26936 2.44921 0
M  V30 23064 N 2152.11 -0.560755 1.47286 0
M  V30 23065 C 2153.06 -1.66355 1.55916 0
M  V30 23066 C 2154.05 -1.55367 0.418332 0
M  V30 23067 O 2155.24 -1.63909 0.668047 0
M  V30 23068 C 2152.37 -3.05134 1.57315 0
M  V30 23069 C 2151.45 -3.2134 2.7677 0
M  V30 23070 N 2151.85 -3.07623 4.01499 0
M  V30 23071 C 2150.14 -3.52332 2.73456 0
M  V30 23072 C 2150.84 -3.26423 4.8148 0
M  V30 23073 N 2149.82 -3.52594 4.13737 0
M  V30 23074 H 2153.62 -1.54314 2.50129 0
M  V30 23075 H 2151.14 -0.765413 1.43231 0
M  V30 23076 H 2153.13 -3.84312 1.61587 0
M  V30 23077 H 2151.79 -3.18291 0.64195 0
M  V30 23078 H 2152.8 -2.85025 4.32413 0
M  V30 23079 H 2149.48 -3.72037 1.89458 0
M  V30 23080 H 2150.87 -3.20816 5.90362 0
M  V30 23081 N 2153.59 -1.35359 -0.807199 0
M  V30 23082 C 2154.84 -1.28344 -1.56116 0
M  V30 23083 C 2155.16 0.142081 -1.94482 0
M  V30 23084 O 2154.43 1.07837 -1.63548 0
M  V30 23085 H 2153.01 -0.47207 -0.578929 0
M  V30 23086 H 2155.67 -1.69454 -0.962872 0
M  V30 23087 H 2154.77 -1.89889 -2.47686 0
M  V30 23088 N 2155.07 1.02928 -1.19346 0
M  V30 23089 C 2156.32 1.75724 -0.990157 0
M  V30 23090 C 2156.63 1.89622 0.479885 0
M  V30 23091 O 2157.84 2.59384 0.802002 0
M  V30 23092 C 2156.29 3.15992 -1.7227 0
M  V30 23093 C 2155.9 3.10149 -3.23283 0
M  V30 23094 C 2157.65 3.93086 -1.60262 0
M  V30 23095 C 2155.55 4.45347 -3.89128 0
M  V30 23096 H 2154.48 0.658737 -0.366854 0
M  V30 23097 H 2157.13 1.15193 -1.42838 0
M  V30 23098 H 2155.52 3.76987 -1.21229 0
M  V30 23099 H 2156.69 2.58537 -3.81438 0
M  V30 23100 H 2155 2.46552 -3.35561 0
M  V30 23101 H 2157.6 4.93087 -2.06807 0
M  V30 23102 H 2157.94 4.12561 -0.556708 0
M  V30 23103 H 2158.48 3.38691 -2.08647 0
M  V30 23104 H 2155.22 4.31076 -4.93816 0
M  V30 23105 H 2154.74 4.97016 -3.35761 0
M  V30 23106 H 2156.42 5.14231 -3.92652 0
M  V30 23107 N 2156.55 0.997319 1.2203 0
M  V30 23108 C 2157.79 0.676667 1.91178 0
M  V30 23109 C 2158.13 -0.789768 1.77416 0
M  V30 23110 O 2157.4 -1.57163 1.14586 0
M  V30 23111 C 2157.68 1.08886 3.43243 0
M  V30 23112 C 2157.54 2.61418 3.66034 0
M  V30 23113 C 2158.86 0.645428 4.35342 0
M  V30 23114 H 2155.98 0.247298 0.694271 0
M  V30 23115 H 2158.62 1.24163 1.43818 0
M  V30 23116 H 2156.77 0.608155 3.8371 0
M  V30 23117 H 2158.44 3.17192 3.34943 0
M  V30 23118 H 2156.68 3.03284 3.10163 0
M  V30 23119 H 2157.35 2.8531 4.72549 0
M  V30 23120 H 2159.83 1.05839 4.02414 0
M  V30 23121 H 2158.71 0.962088 5.40403 0
M  V30 23122 H 2158.97 -0.453741 4.39765 0
M  V30 23123 N 2158.03 -1.37449 0.771075 0
M  V30 23124 C 2158.98 -2.27627 0.130441 0
M  V30 23125 C 2159.96 -1.46067 -0.674776 0
M  V30 23126 O 2161.15 -1.6863 -0.53786 0
M  V30 23127 C 2158.28 -3.35044 -0.748371 0
M  V30 23128 C 2157.37 -4.24051 0.0646391 0
M  V30 23129 N 2157.76 -4.93471 1.10994 0
M  V30 23130 C 2156.06 -4.45715 -0.159446 0
M  V30 23131 C 2156.76 -5.59168 1.60332 0
M  V30 23132 N 2155.73 -5.35833 0.915614 0
M  V30 23133 H 2159.54 -2.78772 0.930764 0
M  V30 23134 H 2157.05 -1.50558 0.608767 0
M  V30 23135 H 2159.05 -3.98555 -1.22309 0
M  V30 23136 H 2157.71 -2.85454 -1.54745 0
M  V30 23137 H 2158.72 -4.95941 1.49207 0
M  V30 23138 H 2155.39 -4.06999 -0.930484 0
M  V30 23139 H 2156.78 -6.24655 2.475 0
M  V30 23140 N 2159.5 -0.52156 -1.4872 0
M  V30 23141 C 2160.92 -0.178852 -1.58595 0
M  V30 23142 C 2161.12 1.31757 -1.52455 0
M  V30 23143 O 2160.18 2.09518 -1.4092 0
M  V30 23144 C 2161.49 -0.773908 -2.9057 0
M  V30 23145 C 2163.04 -0.741876 -3.04081 0
M  V30 23146 C 2163.51 -1.31536 -4.38705 0
M  V30 23147 N 2165 -1.27696 -4.45251 0
M  V30 23148 C 2165.74 -1.69067 -5.47909 0
M  V30 23149 N 2165.23 -2.18128 -6.57565 0
M  V30 23150 N 2167.03 -1.60356 -5.38742 0
M  V30 23151 H 2159.18 -1.49422 -1.50953 0
M  V30 23152 H 2161.44 -0.621023 -0.716264 0
M  V30 23153 H 2161.15 -1.82417 -3.00694 0
M  V30 23154 H 2161.02 -0.246131 -3.76396 0
M  V30 23155 H 2163.41 0.299604 -2.93575 0
M  V30 23156 H 2163.49 -1.30703 -2.19887 0
M  V30 23157 H 2163.13 -2.35572 -4.49964 0
M  V30 23158 H 2163.06 -0.72596 -5.21572 0
M  V30 23159 H 2165.55 -0.917714 -3.66588 0
M  V30 23160 H 2165.87 -2.47712 -7.32023 0
M  V30 23161 H 2164.21 -2.22116 -6.58551 0
M  V30 23162 H 2167.4 -1.21831 -4.51968 0
M  V30 23163 H 2167.58 -1.92919 -6.18616 0
M  V30 23164 N 2160.98 1.55502 -0.256304 0
M  V30 23165 C 2162.26 1.91111 0.41663 0
M  V30 23166 C 2162.64 1.17825 1.75159 0
M  V30 23167 O 2161.99 0.298822 2.26538 0
M  V30 23168 C 2162.2 3.44223 0.575462 0
M  V30 23169 C 2163.55 4.15653 0.867028 0
M  V30 23170 O 2164.57 3.50014 0.660977 0
M  V30 23171 O 2163.43 5.31777 1.25997 0
M  V30 23172 H 2160.52 0.795781 0.225083 0
M  V30 23173 H 2163.07 1.67008 -0.301066 0
M  V30 23174 H 2161.84 3.89596 -0.364767 0
M  V30 23175 H 2161.46 3.74219 1.34334 0
M  V30 23176 N 2162.46 -0.0166879 1.57591 0
M  V30 23177 C 2163.71 -0.704094 1.89012 0
M  V30 23178 C 2164.02 -1.75854 0.856437 0
M  V30 23179 O 2165.23 -2.4994 1.06029 0
M  V30 23180 C 2163.68 -1.30343 3.35468 0
M  V30 23181 C 2163.29 -0.284687 4.47095 0
M  V30 23182 C 2165.04 -1.96999 3.76021 0
M  V30 23183 C 2162.94 -0.893068 5.84618 0
M  V30 23184 H 2161.87 -0.266736 0.705243 0
M  V30 23185 H 2164.52 0.0411208 1.83454 0
M  V30 23186 H 2162.91 -2.09876 3.3581 0
M  V30 23187 H 2164.08 0.484835 4.58242 0
M  V30 23188 H 2162.4 0.280487 4.15454 0
M  V30 23189 H 2164.99 -2.43392 4.76093 0
M  V30 23190 H 2165.34 -2.79347 3.0866 0
M  V30 23191 H 2165.87 -1.24224 3.77906 0
M  V30 23192 H 2162.61 -0.108736 6.5541 0
M  V30 23193 H 2162.13 -1.63214 5.77167 0
M  V30 23194 H 2163.81 -1.39672 6.31744 0
M  V30 23195 N 2163.94 -1.54924 -0.289176 0
M  V30 23196 C 2164.89 -1.86692 -1.35701 0
M  V30 23197 C 2165.86 -0.716885 -1.49833 0
M  V30 23198 O 2167.04 -0.966637 -1.64502 0
M  V30 23199 C 2164.18 -2.13019 -2.71509 0
M  V30 23200 C 2163.29 -3.40605 -2.6573 0
M  V30 23201 C 2162.43 -3.56714 -3.9361 0
M  V30 23202 C 2161.47 -4.78049 -3.82276 0
M  V30 23203 N 2160.6 -4.90901 -5.01957 0
M  V30 23204 H 2165.44 -2.77776 -1.07909 0
M  V30 23205 H 2162.98 -1.37539 -0.52168 0
M  V30 23206 H 2164.94 -2.2628 -3.50504 0
M  V30 23207 H 2163.57 -1.25188 -2.97536 0
M  V30 23208 H 2162.62 -3.35902 -1.78533 0
M  V30 23209 H 2163.93 -4.29728 -2.53249 0
M  V30 23210 H 2163.09 -3.69704 -4.81045 0
M  V30 23211 H 2161.83 -2.65745 -4.08939 0
M  V30 23212 H 2160.83 -4.6508 -2.93225 0
M  V30 23213 H 2162.06 -5.70437 -3.68482 0
M  V30 23214 H 2160 -4.02859 -5.17726 0
M  V30 23215 H 2159.92 -5.74044 -4.91945 0
M  V30 23216 H 2161.19 -5.0826 -5.91009 0
M  V30 23217 N 2165.42 0.552936 -1.47582 0
M  V30 23218 C 2166.66 1.30733 -1.54121 0
M  V30 23219 C 2166.99 1.93899 -0.206934 0
M  V30 23220 O 2166.26 1.80154 0.769505 0
M  V30 23221 H 2164.84 0.485489 -0.567723 0
M  V30 23222 H 2167.5 0.645327 -1.83906 0
M  V30 23223 H 2166.59 2.09863 -2.31006 0
M  V30 23224 N 2166.89 1.35785 0.800009 0
M  V30 23225 C 2167.86 1.29109 1.89377 0
M  V30 23226 C 2168.86 0.201077 1.59538 0
M  V30 23227 O 2170.05 0.455197 1.68148 0
M  V30 23228 C 2167.18 0.99888 3.25937 0
M  V30 23229 H 2168.37 2.2637 1.96715 0
M  V30 23230 H 2165.93 1.20404 0.996618 0
M  V30 23231 H 2166.66 0.0304071 3.24286 0
M  V30 23232 H 2166.45 1.78756 3.48982 0
M  V30 23233 H 2167.94 0.977941 4.05988 0
M  V30 23234 N 2168.37 -1.02294 1.19891 0
M  V30 23235 C 2169.32 -2.12815 0.938741 0
M  V30 23236 C 2170.31 -1.69058 -0.107611 0
M  V30 23237 O 2171.52 -1.79951 0.042175 0
M  V30 23238 H 2167.9 -0.695408 0.286203 0
M  V30 23239 H 2169.87 -2.31946 1.87732 0
M  V30 23240 C 2168.62 -3.4408 0.500448 0
M  V30 23241 H 2167.94 -3.78172 1.29716 0
M  V30 23242 H 2169.38 -4.2249 0.357569 0
M  V30 23243 C 2167.84 -3.27596 -0.786307 0
M  V30 23244 O 2168.37 -3.56756 -1.84629 0
M  V30 23245 N 2166.57 -2.80865 -0.745861 0
M  V30 23246 H 2166.12 -2.57334 0.116994 0
M  V30 23247 H 2166.08 -2.70217 -1.60718 0
M  V30 23248 N 2169.85 -1.00378 -1.21499 0
M  V30 23249 C 2171.1 -0.681173 -1.8985 0
M  V30 23250 C 2171.41 0.791343 -1.78877 0
M  V30 23251 O 2172.62 1.22598 -2.42244 0
M  V30 23252 C 2171.07 -1.1679 -3.40424 0
M  V30 23253 C 2170.68 -2.6664 -3.6001 0
M  V30 23254 C 2172.43 -0.920124 -4.14408 0
M  V30 23255 C 2170.33 -3.0886 -5.04341 0
M  V30 23256 H 2169.26 -0.251086 -0.710965 0
M  V30 23257 H 2171.91 -1.21478 -1.37533 0
M  V30 23258 H 2170.3 -0.562349 -3.91987 0
M  V30 23259 H 2171.47 -3.32634 -3.18891 0
M  V30 23260 H 2169.79 -2.89419 -2.99376 0
M  V30 23261 H 2172.38 -1.21113 -5.20803 0
M  V30 23262 H 2172.73 0.143641 -4.16052 0
M  V30 23263 H 2173.26 -1.4884 -3.68906 0
M  V30 23264 H 2170 -4.14458 -5.07844 0
M  V30 23265 H 2169.52 -2.47577 -5.4632 0
M  V30 23266 H 2171.2 -3.00772 -5.7284 0
M  V30 23267 N 2171.33 1.37038 -0.778354 0
M  V30 23268 C 2172.58 1.99528 -0.345678 0
M  V30 23269 C 2172.9 1.61785 1.07962 0
M  V30 23270 O 2172.16 0.85887 1.75846 0
M  V30 23271 C 2172.46 3.54632 -0.443975 0
M  V30 23272 C 2172.12 4.12162 -1.82848 0
M  V30 23273 C 2170.79 4.27587 -2.20732 0
M  V30 23274 C 2173.14 4.43641 -2.73555 0
M  V30 23275 C 2170.47 4.71797 -3.48747 0
M  V30 23276 C 2172.82 4.89278 -4.00986 0
M  V30 23277 C 2171.48 5.02909 -4.38906 0
M  V30 23278 H 2170.75 0.730124 -0.126493 0
M  V30 23279 H 2173.4 1.63703 -0.993664 0
M  V30 23280 H 2171.7 3.90743 0.287537 0
M  V30 23281 H 2173.4 4.00898 -0.0903991 0
M  V30 23282 H 2169.99 4.00588 -1.52406 0
M  V30 23283 H 2174.17 4.31303 -2.45544 0
M  V30 23284 H 2169.43 4.80537 -3.78013 0
M  V30 23285 H 2173.6 5.12601 -4.71394 0
M  V30 23286 H 2171.23 5.36926 -5.38159 0
M  V30 23287 N 2172.81 0.529439 1.48441 0
M  V30 23288 C 2173.74 -0.222417 2.32438 0
M  V30 23289 C 2174.72 -0.935598 1.42058 0
M  V30 23290 O 2175.9 -0.921483 1.70945 0
M  V30 23291 C 2173.03 -1.27012 3.23242 0
M  V30 23292 C 2171.99 -0.675114 4.22642 0
M  V30 23293 C 2171.31 -1.82543 5.02576 0
M  V30 23294 C 2172.61 0.352815 5.21107 0
M  V30 23295 H 2174.31 0.478777 2.95547 0
M  V30 23296 H 2171.85 0.231695 1.42124 0
M  V30 23297 H 2173.81 -1.80405 3.80831 0
M  V30 23298 H 2172.53 -2.00089 2.58132 0
M  V30 23299 H 2171.19 -0.162711 3.66239 0
M  V30 23300 H 2170.84 -2.54456 4.33891 0
M  V30 23301 H 2170.54 -1.43323 5.69853 0
M  V30 23302 H 2172.06 -2.36315 5.63017 0
M  V30 23303 H 2173.48 -0.0940075 5.73223 0
M  V30 23304 H 2171.87 0.662368 5.96433 0
M  V30 23305 H 2172.94 1.25877 4.68277 0
M  V30 23306 N 2174.29 -1.55364 0.264547 0
M  V30 23307 C 2175.51 -2.03764 -0.358889 0
M  V30 23308 C 2175.93 -1.14327 -1.50249 0
M  V30 23309 O 2175.29 -0.161219 -1.81787 0
M  V30 23310 C 2175.34 -3.51366 -0.849959 0
M  V30 23311 O 2175.06 -4.37397 0.248086 0
M  V30 23312 C 2176.56 -4.15606 -1.54229 0
M  V30 23313 H 2173.78 -0.66582 -0.0832187 0
M  V30 23314 H 2176.32 -2.00677 0.39356 0
M  V30 23315 H 2174.48 -3.5493 -1.55253 0
M  V30 23316 H 2174.89 -5.24345 -0.127661 0
M  V30 23317 H 2176.37 -5.20522 -1.83742 0
M  V30 23318 H 2176.84 -3.63145 -2.47027 0
M  V30 23319 H 2177.45 -4.16015 -0.883843 0
M  V30 23320 N 2175.76 0.00833021 -1.57598 0
M  V30 23321 C 2176.99 0.709778 -1.94877 0
M  V30 23322 C 2177.41 1.66973 -0.866121 0
M  V30 23323 O 2176.77 1.80439 0.176468 0
M  V30 23324 C 2176.82 1.42509 -3.31245 0
M  V30 23325 O 2175.92 2.53918 -3.2496 0
M  V30 23326 H 2175.26 0.189418 -0.636409 0
M  V30 23327 H 2177.79 -0.0423784 -2.04556 0
M  V30 23328 H 2177.8 1.79039 -3.66618 0
M  V30 23329 H 2176.48 0.72119 -4.09599 0
M  V30 23330 H 2175.06 2.19778 -3.01251 0
M  V30 23331 N 2177.24 1.55075 0.280956 0
M  V30 23332 C 2178.47 1.79652 1.03634 0
M  V30 23333 C 2178.89 0.564074 1.79443 0
M  V30 23334 O 2178.25 -0.486088 1.74662 0
M  V30 23335 C 2178.3 3.01583 1.97687 0
M  V30 23336 O 2177.4 2.76111 3.06327 0
M  V30 23337 H 2176.74 0.594024 0.296701 0
M  V30 23338 H 2179.27 2.02203 0.312282 0
M  V30 23339 H 2179.28 3.301 2.39787 0
M  V30 23340 H 2177.96 3.90937 1.41919 0
M  V30 23341 H 2176.53 2.58668 2.68598 0
M  V30 23342 N 2178.72 -0.545102 1.47873 0
M  V30 23343 C 2179.97 -1.29914 1.54812 0
M  V30 23344 C 2180.29 -1.93786 0.217214 0
M  V30 23345 O 2179.56 -1.80559 -0.759941 0
M  V30 23346 H 2178.14 -0.482471 0.57029 0
M  V30 23347 H 2180.8 -0.635565 1.84246 0
M  V30 23348 H 2179.9 -2.08635 2.32116 0
M  V30 23349 N 2180.2 -1.36208 -0.792797 0
M  V30 23350 C 2181.13 -1.32936 -1.91964 0
M  V30 23351 C 2182.11 -0.2014 -1.68903 0
M  V30 23352 O 2183.29 -0.39852 -1.90067 0
M  V30 23353 C 2180.42 -1.11449 -3.28932 0
M  V30 23354 C 2179.38 -2.21033 -3.66508 0
M  V30 23355 C 2178.7 -1.84693 -5.01789 0
M  V30 23356 C 2180 -3.63096 -3.75444 0
M  V30 23357 H 2181.7 -2.27226 -1.94958 0
M  V30 23358 H 2179.24 -1.09381 -0.936582 0
M  V30 23359 H 2181.2 -1.07796 -4.07379 0
M  V30 23360 H 2179.92 -0.136086 -3.26316 0
M  V30 23361 H 2178.58 -2.23806 -2.90356 0
M  V30 23362 H 2178.23 -0.854356 -4.95691 0
M  V30 23363 H 2177.93 -2.58059 -5.27901 0
M  V30 23364 H 2179.45 -1.8259 -5.82661 0
M  V30 23365 H 2180.87 -3.62569 -4.44091 0
M  V30 23366 H 2179.26 -4.35339 -4.13037 0
M  V30 23367 H 2180.33 -3.98247 -2.76636 0
M  V30 23368 N 2181.68 1.01656 -1.20431 0
M  V30 23369 C 2182.92 1.74663 -1.00874 0
M  V30 23370 C 2183.24 1.9012 0.459746 0
M  V30 23371 O 2184.44 2.6022 0.774445 0
M  V30 23372 C 2182.9 3.14147 -1.75612 0
M  V30 23373 C 2182.51 3.06703 -3.26554 0
M  V30 23374 C 2184.25 3.91364 -1.64422 0
M  V30 23375 C 2182.16 4.41194 -3.93829 0
M  V30 23376 H 2181.09 0.654809 -0.37382 0
M  V30 23377 H 2183.74 1.13672 -1.44052 0
M  V30 23378 H 2182.12 3.7568 -1.25221 0
M  V30 23379 H 2183.3 2.54477 -3.84159 0
M  V30 23380 H 2181.61 2.42979 -3.38157 0
M  V30 23381 H 2184.21 4.90866 -2.12026 0
M  V30 23382 H 2184.55 4.11947 -0.600434 0
M  V30 23383 H 2185.08 3.36459 -2.12227 0
M  V30 23384 H 2181.82 4.25814 -4.9836 0
M  V30 23385 H 2181.34 4.93427 -3.41013 0
M  V30 23386 H 2183.02 5.10038 -3.98084 0
M  V30 23387 N 2183.15 1.01021 1.20965 0
M  V30 23388 C 2184.1 0.575015 2.23522 0
M  V30 23389 C 2185.07 -0.401609 1.61172 0
M  V30 23390 O 2186.26 -0.302487 1.88387 0
M  V30 23391 C 2183.4 -0.0869827 3.4499 0
M  V30 23392 C 2182.51 0.933442 4.21795 0
M  V30 23393 C 2181.64 0.243164 5.30643 0
M  V30 23394 C 2180.68 1.25078 5.99184 0
M  V30 23395 N 2179.82 0.587617 6.99637 0
M  V30 23396 H 2184.66 1.45423 2.60108 0
M  V30 23397 H 2182.2 0.728091 1.27817 0
M  V30 23398 H 2184.15 -0.487872 4.14338 0
M  V30 23399 H 2182.78 -0.929881 3.09117 0
M  V30 23400 H 2181.84 1.45254 3.51576 0
M  V30 23401 H 2183.15 1.70003 4.68936 0
M  V30 23402 H 2182.3 -0.213561 6.06324 0
M  V30 23403 H 2181.04 -0.555781 4.84523 0
M  V30 23404 H 2180.05 1.71796 5.2227 0
M  V30 23405 H 2181.27 2.0509 6.47391 0
M  V30 23406 H 2179.22 -0.191575 6.5572 0
M  V30 23407 H 2179.13 1.29237 7.44872 0
M  V30 23408 H 2180.4 0.154271 7.79347 0
M  V30 23409 N 2184.63 -1.36623 0.78561 0
M  V30 23410 C 2185.56 -2.3268 0.195557 0
M  V30 23411 C 2186.54 -1.56463 -0.667335 0
M  V30 23412 O 2187.73 -1.84636 -0.601943 0
M  V30 23413 C 2184.86 -3.40708 -0.673467 0
M  V30 23414 C 2183.81 -4.27907 0.0892255 0
M  V30 23415 C 2183.14 -5.27069 -0.900146 0
M  V30 23416 C 2184.44 -5.06468 1.27624 0
M  V30 23417 H 2186.13 -2.82276 0.998033 0
M  V30 23418 H 2183.68 -1.35716 0.481373 0
M  V30 23419 H 2185.63 -4.06893 -1.09617 0
M  V30 23420 H 2184.35 -2.8967 -1.50861 0
M  V30 23421 H 2183.01 -3.63272 0.492858 0
M  V30 23422 H 2182.66 -4.72306 -1.73022 0
M  V30 23423 H 2182.36 -5.86276 -0.394285 0
M  V30 23424 H 2183.89 -5.96128 -1.32149 0
M  V30 23425 H 2185.3 -5.65715 0.92949 0
M  V30 23426 H 2183.7 -5.75068 1.71513 0
M  V30 23427 H 2184.77 -4.38332 2.07349 0
M  V30 23428 N 2186.11 -0.537304 -1.48158 0
M  V30 23429 C 2187.36 -0.00587084 -2.02099 0
M  V30 23430 C 2187.68 1.3407 -1.41599 0
M  V30 23431 O 2186.95 1.86993 -0.583977 0
M  V30 23432 H 2185.53 0.000818022 -0.747 0
M  V30 23433 H 2188.19 -0.702798 -1.81788 0
M  V30 23434 H 2187.29 0.0970321 -3.11949 0
M  V30 23435 N 2187.59 1.55221 -0.272782 0
M  V30 23436 C 2188.87 1.91543 0.396336 0
M  V30 23437 C 2189.25 1.19676 1.73899 0
M  V30 23438 O 2188.59 0.322832 2.26208 0
M  V30 23439 C 2188.8 3.44814 0.53892 0
M  V30 23440 C 2190.15 4.1655 0.822894 0
M  V30 23441 O 2191.18 3.50695 0.623816 0
M  V30 23442 O 2190.03 5.33084 1.2035 0
M  V30 23443 H 2187.13 0.798123 0.21663 0
M  V30 23444 H 2189.67 1.66679 -0.318762 0
M  V30 23445 H 2188.45 3.89187 -0.406068 0
M  V30 23446 H 2188.07 3.75623 1.30358 0
M  V30 23447 N 2189.07 2.77022e-05 1.576 0
M  V30 23448 C 2190.31 -0.684815 1.90569 0
M  V30 23449 C 2190.64 -1.73777 0.873597 0
M  V30 23450 O 2189.9 -1.95322 -0.12162 0
M  V30 23451 C 2190.2 -1.36534 3.30292 0
M  V30 23452 C 2189.86 -0.445583 4.48693 0
M  V30 23453 C 2188.52 -0.192344 4.80815 0
M  V30 23454 C 2190.88 0.187683 5.20862 0
M  V30 23455 C 2188.2 0.702454 5.8248 0
M  V30 23456 C 2190.56 1.07036 6.23479 0
M  V30 23457 C 2189.22 1.33277 6.54059 0
M  V30 23458 H 2188.49 -0.250591 0.697341 0
M  V30 23459 H 2191.14 0.0555609 1.91419 0
M  V30 23460 H 2189.44 -2.17977 3.25566 0
M  V30 23461 H 2191.14 -1.90129 3.53061 0
M  V30 23462 H 2187.73 -0.653128 4.23594 0
M  V30 23463 H 2191.91 0.00505024 4.963 0
M  V30 23464 H 2187.17 0.913771 6.04533 0
M  V30 23465 H 2191.34 1.56741 6.78532 0
M  V30 23466 H 2188.97 2.02782 7.32655 0
M  V30 23467 N 2190.54 -1.55222 -0.272728 0
M  V30 23468 C 2191.79 -1.75494 -1.00231 0
M  V30 23469 C 2192.11 -0.559233 -1.86809 0
M  V30 23470 O 2191.38 0.425848 -1.91215 0
M  V30 23471 H 2189.96 -0.647172 -0.373065 0
M  V30 23472 H 2192.63 -1.92625 -0.296893 0
M  V30 23473 H 2191.72 -2.65594 -1.63909 0
M  V30 23474 N 2192.02 0.537252 -1.4816 0
M  V30 23475 C 2193.26 1.30403 -1.57399 0
M  V30 23476 C 2193.63 1.90504 -0.239236 0
M  V30 23477 O 2194.83 2.68005 -0.206575 0
M  V30 23478 C 2193.1 2.3697 -2.67545 0
M  V30 23479 S 2194.66 3.23469 -2.96501 0
M  V30 23480 H 2191.48 0.443674 -0.555584 0
M  V30 23481 H 2194.08 0.61288 -1.85645 0
M  V30 23482 H 2192.78 1.91285 -3.63096 0
M  V30 23483 H 2192.31 3.10801 -2.41177 0
M  V30 23484 H 2194.33 4.36893 -2.35242 0
M  V30 23485 N 2193.5 1.36626 0.785562 0
M  V30 23486 C 2194.73 1.344 1.57961 0
M  V30 23487 C 2195.15 -0.071493 1.87964 0
M  V30 23488 O 2194.51 -1.04457 1.48184 0
M  V30 23489 C 2194.56 2.17651 2.87507 0
M  V30 23490 O 2193.66 1.57165 3.81278 0
M  V30 23491 H 2193 0.459836 0.479006 0
M  V30 23492 H 2195.53 1.79962 0.973379 0
M  V30 23493 H 2195.54 2.30368 3.36741 0
M  V30 23494 H 2194.22 3.20546 2.64997 0
M  V30 23495 H 2192.79 1.53409 3.39883 0
M  V30 23496 N 2194.98 -1.01016 1.20969 0
M  V30 23497 C 2196.22 -1.74973 1.02529 0
M  V30 23498 C 2196.56 -1.89132 -0.440767 0
M  V30 23499 O 2195.83 -1.42186 -1.32715 0
M  V30 23500 C 2196.12 -3.16527 1.71705 0
M  V30 23501 C 2195.97 -3.10124 3.25797 0
M  V30 23502 C 2197.29 -4.15339 1.45539 0
M  V30 23503 H 2194.41 -0.635128 0.373874 0
M  V30 23504 H 2197.05 -1.17802 1.49073 0
M  V30 23505 H 2195.2 -3.65339 1.32135 0
M  V30 23506 H 2196.87 -2.69066 3.74702 0
M  V30 23507 H 2195.11 -2.47356 3.56367 0
M  V30 23508 H 2195.78 -4.10216 3.6936 0
M  V30 23509 H 2198.26 -3.7521 1.79879 0
M  V30 23510 H 2197.14 -5.12537 1.96462 0
M  V30 23511 H 2197.4 -4.40426 0.384315 0
M  V30 23512 N 2196.46 -1.01661 -1.20428 0
M  V30 23513 C 2197.4 -0.586861 -2.23214 0
M  V30 23514 C 2198.37 0.393056 -1.61382 0
M  V30 23515 O 2199.56 0.292492 -1.88545 0
M  V30 23516 C 2196.7 0.0686858 -3.45032 0
M  V30 23517 C 2195.81 -0.955798 -4.21294 0
M  V30 23518 C 2194.95 -0.271301 -5.30507 0
M  V30 23519 C 2193.99 -1.28254 -5.98513 0
M  V30 23520 N 2193.12 -0.624713 -6.99315 0
M  V30 23521 H 2197.96 -1.468 -2.59333 0
M  V30 23522 H 2195.5 -0.734859 -1.27429 0
M  V30 23523 H 2197.46 0.465892 -4.14591 0
M  V30 23524 H 2196.09 0.913474 -3.09605 0
M  V30 23525 H 2195.14 -1.47116 -3.508 0
M  V30 23526 H 2196.45 -1.72487 -4.68027 0
M  V30 23527 H 2195.61 0.181403 -6.06429 0
M  V30 23528 H 2194.34 0.530078 -4.84811 0
M  V30 23529 H 2193.35 -1.74563 -5.21352 0
M  V30 23530 H 2194.57 -2.0852 -6.46294 0
M  V30 23531 H 2192.52 0.156798 -6.55813 0
M  V30 23532 H 2192.44 -1.33185 -7.44176 0
M  V30 23533 H 2193.71 -0.195599 -7.79255 0
M  V30 23534 N 2197.93 1.36205 -0.792844 0
M  V30 23535 C 2198.86 2.32573 -0.207894 0
M  V30 23536 C 2199.85 1.56815 0.659028 0
M  V30 23537 O 2201.03 1.84952 0.592143 0
M  V30 23538 C 2198.16 3.4106 0.655389 0
M  V30 23539 C 2197.11 4.27854 -0.111917 0
M  V30 23540 C 2196.44 5.27539 0.872181 0
M  V30 23541 C 2197.74 5.05784 -1.30308 0
M  V30 23542 H 2199.43 2.81743 -1.01299 0
M  V30 23543 H 2196.98 1.35459 -0.488564 0
M  V30 23544 H 2198.93 4.07469 1.07457 0
M  V30 23545 H 2197.66 2.90466 1.49323 0
M  V30 23546 H 2196.32 3.63005 -0.512116 0
M  V30 23547 H 2195.96 4.73217 1.70514 0
M  V30 23548 H 2195.66 5.86477 0.363188 0
M  V30 23549 H 2197.19 5.96821 1.28986 0
M  V30 23550 H 2198.6 5.65214 -0.959478 0
M  V30 23551 H 2197 5.7415 -1.7456 0
M  V30 23552 H 2198.07 4.37226 -2.0967 0
M  V30 23553 N 2199.41 0.545154 1.47871 0
M  V30 23554 C 2200.36 -0.20926 2.29849 0
M  V30 23555 C 2201.33 -0.919683 1.38315 0
M  V30 23556 O 2202.51 -0.917743 1.67279 0
M  V30 23557 C 2199.65 -1.24083 3.22021 0
M  V30 23558 C 2198.77 -0.537702 4.28641 0
M  V30 23559 C 2197.9 -1.55351 5.07976 0
M  V30 23560 C 2196.94 -0.834694 6.06382 0
M  V30 23561 N 2196.08 -1.79676 6.7872 0
M  V30 23562 H 2200.92 0.495962 2.93844 0
M  V30 23563 H 2198.46 0.256415 1.44848 0
M  V30 23564 H 2200.41 -1.85137 3.73872 0
M  V30 23565 H 2199.04 -1.91424 2.59917 0
M  V30 23566 H 2198.1 0.187112 3.7994 0
M  V30 23567 H 2199.41 0.0259783 4.98793 0
M  V30 23568 H 2198.56 -2.23793 5.63916 0
M  V30 23569 H 2197.3 -2.1511 4.37697 0
M  V30 23570 H 2196.31 -0.136291 5.49631 0
M  V30 23571 H 2197.53 -0.24301 6.78665 0
M  V30 23572 H 2195.48 -2.38315 6.11181 0
M  V30 23573 H 2195.39 -1.28492 7.45001 0
M  V30 23574 H 2196.66 -2.47269 7.39242 0
M  V30 23575 N 2200.89 -1.55074 0.28101 0
M  V30 23576 C 2201.84 -2.2419 -0.619824 0
M  V30 23577 C 2202.83 -1.24094 -1.15313 0
M  V30 23578 O 2204.04 -1.42007 -1.10608 0
M  V30 23579 H 2200.41 -0.719573 -0.218446 0
M  V30 23580 H 2202.38 -2.98397 -0.0141306 0
M  V30 23581 C 2201.13 -2.98094 -1.78984 0
M  V30 23582 H 2200.46 -3.74908 -1.38867 0
M  V30 23583 H 2201.9 -3.49766 -2.39666 0
M  V30 23584 C 2200.36 -2.03904 -2.68188 0
M  V30 23585 O 2200.89 -1.59407 -3.68717 0
M  V30 23586 N 2199.09 -1.70279 -2.35485 0
M  V30 23587 H 2198.64 -2.06661 -1.53783 0
M  V30 23588 H 2198.6 -1.0753 -2.9544 0
M  V30 23589 N 2202.37 -0.00838561 -1.57598 0
M  V30 23590 C 2203.32 0.998471 -2.10079 0
M  V30 23591 C 2204.31 1.35049 -1.02264 0
M  V30 23592 O 2205.52 1.33515 -1.20721 0
M  V30 23593 H 2201.89 0.339685 -0.670909 0
M  V30 23594 H 2203.86 0.530346 -2.93649 0
M  V30 23595 C 2202.61 2.27874 -2.62619 0
M  V30 23596 H 2201.94 2.01656 -3.45217 0
M  V30 23597 H 2203.38 2.96582 -3.0301 0
M  V30 23598 C 2201.83 2.9943 -1.54412 0
M  V30 23599 O 2202.36 3.90741 -0.931881 0
M  V30 23600 N 2200.57 2.61402 -1.26955 0
M  V30 23601 H 2200.12 1.87229 -1.76927 0
M  V30 23602 H 2200.08 3.09592 -0.547759 0
M  V30 23603 N 2203.85 1.55365 0.264492 0
M  V30 23604 C 2204.81 1.88044 1.31042 0
M  V30 23605 C 2205.81 0.755594 1.41942 0
M  V30 23606 O 2207 1.02372 1.40946 0
M  V30 23607 C 2204.13 2.09327 2.69063 0
M  V30 23608 H 2205.33 2.81551 1.03292 0
M  V30 23609 H 2202.88 1.47986 0.502963 0
M  V30 23610 H 2203.61 1.18231 3.0198 0
M  V30 23611 H 2203.4 2.91234 2.62536 0
M  V30 23612 H 2204.89 2.35854 3.44619 0
M  V30 23613 N 2205.33 -0.529387 1.48443 0
M  V30 23614 C 2206.26 -1.64986 1.59098 0
M  V30 23615 C 2207.27 -1.55709 0.47524 0
M  V30 23616 O 2208.46 -1.62159 0.746109 0
M  V30 23617 C 2205.56 -3.03638 1.50524 0
M  V30 23618 C 2204.73 -3.3839 2.77148 0
M  V30 23619 C 2203.79 -4.56325 2.6202 0
M  V30 23620 O 2202.82 -4.59516 3.35907 0
M  V30 23621 N 2204.02 -5.54533 1.71677 0
M  V30 23622 H 2206.78 -1.56283 2.55726 0
M  V30 23623 H 2204.35 -0.716672 1.45174 0
M  V30 23624 H 2206.34 -3.80409 1.38098 0
M  V30 23625 H 2204.91 -3.06417 0.618681 0
M  V30 23626 H 2204.13 -2.50791 3.04134 0
M  V30 23627 H 2205.42 -3.58395 3.61152 0
M  V30 23628 H 2204.81 -5.54733 1.10851 0
M  V30 23629 H 2203.37 -6.3052 1.65189 0
M  V30 23630 N 2206.8 -1.37041 -0.778305 0
M  V30 23631 C 2208.03 -1.35066 -1.56731 0
M  V30 23632 C 2208.45 0.0655266 -1.88686 0
M  V30 23633 O 2207.8 1.02552 -1.50962 0
M  V30 23634 C 2207.85 -2.18281 -2.88159 0
M  V30 23635 O 2207.58 -3.54381 -2.57577 0
M  V30 23636 C 2209.08 -2.24212 -3.82418 0
M  V30 23637 H 2206.3 -0.462891 -0.48577 0
M  V30 23638 H 2208.84 -1.80292 -0.965154 0
M  V30 23639 H 2207 -1.76582 -3.44815 0
M  V30 23640 H 2207.41 -3.97928 -3.41692 0
M  V30 23641 H 2208.88 -2.86774 -4.71662 0
M  V30 23642 H 2209.36 -1.24869 -4.21075 0
M  V30 23643 H 2209.97 -2.66196 -3.31693 0
M  V30 23644 N 2208.28 1.00373 -1.21503 0
M  V30 23645 C 2209.21 2.0889 -0.918706 0
M  V30 23646 C 2210.19 1.62045 0.134248 0
M  V30 23647 O 2211.38 1.88499 0.00500942 0
M  V30 23648 C 2208.5 3.36565 -0.379704 0
M  V30 23649 C 2207.55 4.0232 -1.41566 0
M  V30 23650 S 2208.38 4.44568 -2.98528 0
M  V30 23651 C 2209.54 5.75428 -2.46238 0
M  V30 23652 H 2209.77 2.33704 -1.83766 0
M  V30 23653 H 2207.3 1.13671 -1.04491 0
M  V30 23654 H 2209.26 4.10431 -0.0752917 0
M  V30 23655 H 2207.92 3.098 0.517954 0
M  V30 23656 H 2207.12 4.94218 -0.988163 0
M  V30 23657 H 2206.72 3.34734 -1.66821 0
M  V30 23658 H 2209.01 6.51238 -1.86803 0
M  V30 23659 H 2209.95 6.22991 -3.36583 0
M  V30 23660 H 2210.36 5.32309 -1.87904 0
M  V30 23661 N 2209.76 1.02298 1.19887 0
M  V30 23662 C 2211.17 0.746598 1.71122 0
M  V30 23663 C 2211.52 -0.734303 1.81941 0
M  V30 23664 O 2210.65 -1.57272 1.48642 0
M  V30 23665 C 2211.24 1.34862 3.10802 0
M  V30 23666 C 2209.8 1.12096 3.59321 0
M  V30 23667 C 2208.95 1.45035 2.36347 0
M  V30 23668 H 2211.9 1.19165 1.04811 0
M  V30 23669 H 2211.92 0.742503 3.73185 0
M  V30 23670 H 2211.43 2.42643 3.02896 0
M  V30 23671 H 2209.53 0.0610992 3.7255 0
M  V30 23672 H 2209.65 1.80551 4.43777 0
M  V30 23673 H 2208.01 0.869529 2.39398 0
M  V30 23674 H 2208.79 2.53887 2.31076 0
M  V30 23675 N 2211.24 -1.35782 0.800057 0
M  V30 23676 C 2212.49 -1.9856 0.376632 0
M  V30 23677 C 2212.81 -1.63797 -1.0581 0
M  V30 23678 O 2212.08 -0.917202 -1.73102 0
M  V30 23679 H 2210.66 -0.734465 0.136274 0
M  V30 23680 H 2213.32 -1.65804 1.02445 0
M  V30 23681 H 2212.41 -3.08432 0.477056 0
M  V30 23682 N 2212.72 -0.552988 -1.4758 0
M  V30 23683 C 2213.63 0.200312 -2.33743 0
M  V30 23684 C 2214.64 0.916125 -1.4793 0
M  V30 23685 O 2215.82 0.885961 -1.80867 0
M  V30 23686 C 2212.88 1.21968 -3.24538 0
M  V30 23687 C 2211.94 0.511745 -4.26239 0
M  V30 23688 C 2211.18 1.48254 -5.12695 0
M  V30 23689 O 2211.4 2.71705 -5.0153 0
M  V30 23690 O 2210.33 1.00934 -5.93377 0
M  V30 23691 H 2214.16 -0.506356 -2.99449 0
M  V30 23692 H 2211.74 -0.313647 -1.46071 0
M  V30 23693 H 2213.63 1.8082 -3.80634 0
M  V30 23694 H 2212.3 1.90834 -2.61465 0
M  V30 23695 H 2211.21 -0.117865 -3.73914 0
M  V30 23696 H 2212.54 -0.135394 -4.92014 0
M  V30 23697 N 2214.19 1.54923 -0.28923 0
M  V30 23698 C 2215.44 2.00196 0.323963 0
M  V30 23699 C 2215.77 1.17738 1.54439 0
M  V30 23700 O 2215.05 0.250912 1.92875 0
M  V30 23701 C 2215.33 3.53384 0.692214 0
M  V30 23702 C 2215.18 4.46589 -0.536535 0
M  V30 23703 C 2216.5 4.12898 1.52327 0
M  V30 23704 H 2213.62 0.72777 0.116277 0
M  V30 23705 H 2216.26 1.85764 -0.398987 0
M  V30 23706 H 2214.41 3.65813 1.30816 0
M  V30 23707 H 2216.09 4.46083 -1.17507 0
M  V30 23708 H 2214.33 4.17668 -1.17199 0
M  V30 23709 H 2215 5.515 -0.234903 0
M  V30 23710 H 2217.48 4.03832 1.00295 0
M  V30 23711 H 2216.35 5.20265 1.74973 0
M  V30 23712 H 2216.61 3.64022 2.50879 0
M  V30 23713 N 2215.67 0.0167433 1.57591 0
M  V30 23714 C 2216.62 -0.987316 2.10606 0
M  V30 23715 C 2217.61 -1.34505 1.02979 0
M  V30 23716 O 2218.82 -1.32873 1.21428 0
M  V30 23717 H 2215.19 -0.336122 0.672701 0
M  V30 23718 H 2217.17 -0.514766 2.93926 0
M  V30 23719 C 2215.91 -2.26478 2.63824 0
M  V30 23720 H 2215.24 -1.99823 3.46282 0
M  V30 23721 H 2216.68 -2.94971 3.04578 0
M  V30 23722 C 2215.14 -2.98607 1.55998 0
M  V30 23723 O 2215.67 -3.90242 0.95259 0
M  V30 23724 N 2213.87 -2.60725 1.28339 0
M  V30 23725 H 2213.42 -1.86288 1.77918 0
M  V30 23726 H 2213.38 -3.09297 0.564169 0
M  V30 23727 N 2217.15 -1.55503 -0.256249 0
M  V30 23728 C 2218.38 -1.81278 -1.00762 0
M  V30 23729 C 2218.8 -0.592551 -1.78523 0
M  V30 23730 O 2218.16 0.458239 -1.75413 0
M  V30 23731 C 2218.21 -3.0469 -1.92864 0
M  V30 23732 O 2217.31 -2.8095 -3.01896 0
M  V30 23733 H 2216.65 -0.598669 -0.287213 0
M  V30 23734 H 2219.18 -2.02674 -0.280074 0
M  V30 23735 H 2219.19 -3.33873 -2.34505 0
M  V30 23736 H 2217.87 -3.93145 -1.35682 0
M  V30 23737 H 2216.44 -2.62909 -2.64449 0
M  V30 23738 N 2218.63 0.521507 -1.48721 0
M  V30 23739 C 2219.86 1.3014 -1.60846 0
M  V30 23740 C 2220.27 1.86831 -0.271929 0
M  V30 23741 O 2219.63 1.66827 0.739939 0
M  V30 23742 C 2219.68 2.44625 -2.6616 0
M  V30 23743 O 2219.4 1.90268 -3.94626 0
M  V30 23744 C 2220.9 3.36317 -2.88801 0
M  V30 23745 H 2218.12 0.395459 -0.542082 0
M  V30 23746 H 2220.67 0.628251 -1.94611 0
M  V30 23747 H 2218.82 3.07808 -2.3523 0
M  V30 23748 H 2219.23 2.65271 -4.52472 0
M  V30 23749 H 2220.71 4.12976 -3.66271 0
M  V30 23750 H 2221.19 3.92066 -1.97941 0
M  V30 23751 H 2221.79 2.78919 -3.21068 0
M  V30 23752 N 2220.11 1.37452 0.771027 0
M  V30 23753 C 2221.04 1.35974 1.89825 0
M  V30 23754 C 2222.02 0.228246 1.68562 0
M  V30 23755 O 2223.2 0.428708 1.89409 0
M  V30 23756 C 2220.33 1.16668 3.27118 0
M  V30 23757 C 2219.29 2.26836 3.62946 0
M  V30 23758 C 2218.61 1.92652 4.98788 0
M  V30 23759 C 2219.91 3.69023 3.6962 0
M  V30 23760 H 2221.61 2.30299 1.91319 0
M  V30 23761 H 2219.15 1.10857 0.919062 0
M  V30 23762 H 2221.11 1.14263 4.05613 0
M  V30 23763 H 2219.83 0.187983 3.26059 0
M  V30 23764 H 2218.49 2.28397 2.86759 0
M  V30 23765 H 2218.14 0.933108 4.94269 0
M  V30 23766 H 2217.84 2.66425 5.23729 0
M  V30 23767 H 2219.36 1.91836 5.79682 0
M  V30 23768 H 2220.77 3.69588 4.38266 0
M  V30 23769 H 2219.17 4.41855 4.06059 0
M  V30 23770 H 2220.24 4.02597 2.70266 0
M  V30 23771 N 2221.58 -0.997276 1.22033 0
M  V30 23772 C 2222.83 -1.73276 1.04019 0
M  V30 23773 C 2223.15 -1.90285 -0.426222 0
M  V30 23774 O 2222.42 -1.45933 -1.30691 0
M  V30 23775 H 2221 -0.641993 0.381908 0
M  V30 23776 H 2223.67 -1.20135 1.53472 0
M  V30 23777 H 2222.76 -2.72893 1.51446 0
M  V30 23778 N 2223.06 -1.02932 -1.19343 0
M  V30 23779 C 2224.29 -0.745678 -1.92995 0
M  V30 23780 C 2224.71 0.695558 -1.7552 0
M  V30 23781 O 2224.06 1.47304 -1.0774 0
M  V30 23782 C 2224.11 -1.08798 -3.44739 0
M  V30 23783 O 2223.83 -2.47262 -3.61653 0
M  V30 23784 C 2225.34 -0.827206 -4.35514 0
M  V30 23785 H 2222.56 -0.272812 -0.613037 0
M  V30 23786 H 2225.1 -1.37393 -1.51471 0
M  V30 23787 H 2223.25 -0.504899 -3.84096 0
M  V30 23788 H 2223.67 -2.60023 -4.55509 0
M  V30 23789 H 2225.14 -1.11668 -5.40587 0
M  V30 23790 H 2225.62 0.238359 -4.38553 0
M  V30 23791 H 2226.23 -1.39304 -4.01839 0
M  V30 23792 N 2224.54 1.35356 -0.807246 0
M  V30 23793 C 2225.5 2.28106 -0.223706 0
M  V30 23794 C 2226.5 1.49611 0.589328 0
M  V30 23795 O 2227.69 1.69362 0.407716 0
M  V30 23796 C 2224.83 3.33883 0.688091 0
M  V30 23797 H 2226.02 2.81225 -1.04174 0
M  V30 23798 H 2223.57 1.45222 -0.577946 0
M  V30 23799 H 2224.31 2.85951 1.52979 0
M  V30 23800 H 2224.09 3.91955 0.106801 0
M  V30 23801 H 2225.58 4.03105 1.09068 0
M  V30 23802 N 2226.02 0.560807 1.47284 0
M  V30 23803 C 2226.98 -0.174448 2.28535 0
M  V30 23804 C 2227.98 -0.839364 1.37154 0
M  V30 23805 O 2229.17 -0.694673 1.5975 0
M  V30 23806 C 2226.3 -1.25555 3.16936 0
M  V30 23807 H 2227.5 0.539313 2.95011 0
M  V30 23808 H 2225.05 0.317892 1.53033 0
M  V30 23809 H 2225.78 -2.0016 2.5516 0
M  V30 23810 H 2225.57 -0.783537 3.84192 0
M  V30 23811 H 2227.06 -1.77186 3.78146 0
M  V30 23812 N 2227.5 -1.54768 0.297442 0
M  V30 23813 C 2228.73 -2.04183 -0.315129 0
M  V30 23814 C 2229.13 -1.17441 -1.48338 0
M  V30 23815 O 2228.48 -0.191923 -1.82695 0
M  V30 23816 C 2228.54 -3.49608 -0.837521 0
M  V30 23817 C 2228.2 -4.5654 0.204992 0
M  V30 23818 C 2229.2 -5.0955 1.03222 0
M  V30 23819 C 2226.89 -5.01109 0.345666 0
M  V30 23820 C 2228.88 -6.05667 1.98611 0
M  V30 23821 C 2226.57 -5.97047 1.303 0
M  V30 23822 C 2227.56 -6.49209 2.1217 0
M  V30 23823 O 2227.25 -7.43268 3.06281 0
M  V30 23824 H 2226.98 -0.672052 -0.0729528 0
M  V30 23825 H 2229.54 -2.00764 0.433942 0
M  V30 23826 H 2227.77 -3.50339 -1.63706 0
M  V30 23827 H 2229.46 -3.82239 -1.36559 0
M  V30 23828 H 2230.22 -4.75914 0.934395 0
M  V30 23829 H 2226.1 -4.60139 -0.281629 0
M  V30 23830 H 2229.65 -6.46306 2.62553 0
M  V30 23831 H 2225.54 -6.301 1.40156 0
M  V30 23832 H 2226.31 -7.61058 3.01219 0
M  V30 23833 N 2228.97 -0.0251005 -1.5758 0
M  V30 23834 C 2229.91 0.992741 -2.05475 0
M  V30 23835 C 2230.89 1.31984 -0.949684 0
M  V30 23836 O 2232.07 1.4372 -1.21971 0
M  V30 23837 C 2229.2 2.31384 -2.47344 0
M  V30 23838 C 2228.24 2.14163 -3.68831 0
M  V30 23839 S 2229.08 1.4442 -5.15658 0
M  V30 23840 C 2230.23 2.77908 -5.60819 0
M  V30 23841 H 2230.46 0.585027 -2.91487 0
M  V30 23842 H 2228 0.18648 -1.5327 0
M  V30 23843 H 2229.96 3.07334 -2.72132 0
M  V30 23844 H 2228.62 2.69289 -1.61685 0
M  V30 23845 H 2227.81 3.11819 -3.95961 0
M  V30 23846 H 2227.41 1.46356 -3.44174 0
M  V30 23847 H 2229.7 3.74156 -5.64813 0
M  V30 23848 H 2230.65 2.55448 -6.60418 0
M  V30 23849 H 2231.05 2.8297 -4.88455 0
M  V30 23850 N 2230.45 1.55637 0.247999 0
M  V30 23851 C 2231.42 1.89423 1.29041 0
M  V30 23852 C 2232.42 0.770606 1.41132 0
M  V30 23853 O 2233.61 1.03861 1.39852 0
M  V30 23854 C 2230.74 2.12169 2.66828 0
M  V30 23855 H 2231.93 2.8263 1.003 0
M  V30 23856 H 2229.48 1.48512 0.487239 0
M  V30 23857 H 2230.22 1.21427 3.00709 0
M  V30 23858 H 2230 2.94002 2.59433 0
M  V30 23859 H 2231.49 2.39496 3.42098 0
M  V30 23860 N 2231.93 -0.513613 1.48996 0
M  V30 23861 C 2233.34 -1.09534 1.51192 0
M  V30 23862 C 2233.69 -1.94031 0.29094 0
M  V30 23863 O 2232.82 -2.07903 -0.600453 0
M  V30 23864 C 2233.41 -1.99317 2.73967 0
M  V30 23865 C 2231.97 -2.52677 2.78983 0
M  V30 23866 C 2231.12 -1.30005 2.44937 0
M  V30 23867 H 2234.07 -0.298098 1.55875 0
M  V30 23868 H 2234.09 -2.83834 2.53414 0
M  V30 23869 H 2233.6 -1.37792 3.62815 0
M  V30 23870 H 2231.7 -3.17877 1.94383 0
M  V30 23871 H 2231.82 -2.90692 3.80835 0
M  V30 23872 H 2230.18 -1.62118 1.96443 0
M  V30 23873 H 2230.96 -0.702072 3.36044 0
M  V30 23874 N 2233.41 -1.37859 -0.763727 0
M  V30 23875 C 2234.32 -1.36481 -1.90814 0
M  V30 23876 C 2235.34 -0.263278 -1.71997 0
M  V30 23877 O 2236.51 -0.500013 -1.95094 0
M  V30 23878 C 2233.58 -1.1787 -3.26048 0
M  V30 23879 C 2232.64 -2.37736 -3.57463 0
M  V30 23880 C 2231.87 -2.20003 -4.86245 0
M  V30 23881 O 2232.09 -1.18846 -5.57882 0
M  V30 23882 O 2231.03 -3.0837 -5.16906 0
M  V30 23883 H 2234.85 -2.32887 -1.94929 0
M  V30 23884 H 2232.44 -1.18672 -0.907598 0
M  V30 23885 H 2234.32 -1.09511 -4.06922 0
M  V30 23886 H 2233 -0.245429 -3.22768 0
M  V30 23887 H 2231.9 -2.51668 -2.76792 0
M  V30 23888 H 2233.24 -3.29658 -3.65494 0
M  V30 23889 N 2234.89 0.990791 -1.22561 0
M  V30 23890 C 2236.13 1.7332 -1.053 0
M  V30 23891 C 2236.47 1.89809 0.410622 0
M  V30 23892 O 2235.74 1.44279 1.30437 0
M  V30 23893 C 2236.02 3.13756 -1.76719 0
M  V30 23894 C 2235.88 3.04901 -3.30689 0
M  V30 23895 C 2237.2 4.12971 -1.52128 0
M  V30 23896 H 2234.32 0.629099 -0.383931 0
M  V30 23897 H 2236.96 1.15416 -1.50928 0
M  V30 23898 H 2235.11 3.63191 -1.3793 0
M  V30 23899 H 2236.78 2.6307 -3.78935 0
M  V30 23900 H 2235.02 2.41655 -3.60257 0
M  V30 23901 H 2235.69 4.04287 -3.7584 0
M  V30 23902 H 2238.17 3.72301 -1.85826 0
M  V30 23903 H 2237.05 5.09346 -2.04591 0
M  V30 23904 H 2237.31 4.39759 -0.454334 0
M  V30 23905 N 2236.37 1.03564 1.18795 0
M  V30 23906 C 2237.61 0.731269 1.87977 0
M  V30 23907 C 2237.93 -0.743639 1.80913 0
M  V30 23908 O 2239.13 -1.16132 2.45409 0
M  V30 23909 C 2237.59 1.25774 3.37207 0
M  V30 23910 C 2237.2 2.76092 3.52814 0
M  V30 23911 C 2238.94 1.02967 4.11823 0
M  V30 23912 C 2236.85 3.22123 4.95975 0
M  V30 23913 H 2235.78 0.269848 0.704058 0
M  V30 23914 H 2238.43 1.25081 1.34264 0
M  V30 23915 H 2236.81 0.66608 3.90358 0
M  V30 23916 H 2237.99 3.40972 3.09959 0
M  V30 23917 H 2236.3 2.97254 2.91597 0
M  V30 23918 H 2238.9 1.34878 5.17409 0
M  V30 23919 H 2239.24 -0.0332814 4.16287 0
M  V30 23920 H 2239.77 1.58569 3.6483 0
M  V30 23921 H 2236.51 4.27777 4.96676 0
M  V30 23922 H 2236.03 2.61975 5.39564 0
M  V30 23923 H 2237.71 3.15854 5.64664 0
M  V30 23924 N 2237.84 -1.34926 0.814413 0
M  V30 23925 C 2239.07 -2.02773 0.411172 0
M  V30 23926 C 2239.49 -1.61356 -0.980288 0
M  V30 23927 O 2238.84 -0.814876 -1.63297 0
M  V30 23928 C 2238.89 -3.5811 0.493928 0
M  V30 23929 O 2238.62 -3.98024 1.83054 0
M  V30 23930 C 2240.12 -4.43219 0.0844953 0
M  V30 23931 H 2237.34 -0.65013 0.166048 0
M  V30 23932 H 2239.88 -1.72382 1.10021 0
M  V30 23933 H 2238.04 -3.87121 -0.146938 0
M  V30 23934 H 2238.45 -4.9269 1.7988 0
M  V30 23935 H 2239.92 -5.51661 0.193501 0
M  V30 23936 H 2240.4 -4.28331 -0.971054 0
M  V30 23937 H 2241.01 -4.19519 0.698824 0
M  V30 23938 N 2239.32 -0.56861 -1.46985 0
M  V30 23939 C 2240.74 -0.229217 -1.57945 0
M  V30 23940 C 2240.94 1.2684 -1.56569 0
M  V30 23941 O 2239.99 2.04928 -1.47515 0
M  V30 23942 C 2241.31 -0.865959 -2.87961 0
M  V30 23943 C 2242.85 -0.838241 -3.01567 0
M  V30 23944 C 2243.33 -1.45426 -4.34298 0
M  V30 23945 N 2244.82 -1.41796 -4.40963 0
M  V30 23946 C 2245.56 -1.86413 -5.42253 0
M  V30 23947 N 2245.05 -2.38937 -6.50293 0
M  V30 23948 N 2246.84 -1.77414 -5.33367 0
M  V30 23949 H 2239 -1.54148 -1.46123 0
M  V30 23950 H 2241.26 -0.643496 -0.696144 0
M  V30 23951 H 2240.96 -1.91891 -2.94738 0
M  V30 23952 H 2240.84 -0.365753 -3.75423 0
M  V30 23953 H 2243.23 0.206054 -2.9438 0
M  V30 23954 H 2243.31 -1.37632 -2.15618 0
M  V30 23955 H 2242.95 -2.49768 -4.42242 0
M  V30 23956 H 2242.88 -0.891527 -5.18998 0
M  V30 23957 H 2245.37 -1.03388 -3.63482 0
M  V30 23958 H 2245.68 -2.70876 -7.23772 0
M  V30 23959 H 2244.03 -2.42955 -6.51151 0
M  V30 23960 H 2247.22 -1.36148 -4.47863 0
M  V30 23961 H 2247.39 -2.12503 -6.12166 0
M  V30 23962 N 2240.8 1.54608 -0.305646 0
M  V30 23963 C 2241.76 2.22365 0.555551 0
M  V30 23964 C 2242.76 1.21121 1.05766 0
M  V30 23965 O 2243.95 1.45824 0.952946 0
M  V30 23966 C 2241.08 2.91367 1.76969 0
M  V30 23967 H 2242.28 2.99878 -0.0365099 0
M  V30 23968 H 2239.83 1.56198 -0.0565281 0
M  V30 23969 H 2240.57 2.17945 2.40147 0
M  V30 23970 H 2240.35 3.6559 1.41726 0
M  V30 23971 H 2241.84 3.43043 2.38142 0
M  V30 23972 N 2242.28 0.033457 1.57564 0
M  V30 23973 C 2243.22 -0.946944 2.10479 0
M  V30 23974 C 2244.19 -1.32025 1.00789 0
M  V30 23975 O 2245.38 -1.41282 1.28235 0
M  V30 23976 C 2242.52 -2.22259 2.63998 0
M  V30 23977 C 2241.63 -1.90534 3.87712 0
M  V30 23978 C 2240.77 -3.12425 4.29609 0
M  V30 23979 C 2239.81 -2.7654 5.4607 0
M  V30 23980 N 2238.94 -3.9107 5.83103 0
M  V30 23981 H 2243.78 -0.488794 2.93964 0
M  V30 23982 H 2241.32 -0.229664 1.45296 0
M  V30 23983 H 2243.28 -2.96878 2.93119 0
M  V30 23984 H 2241.91 -2.65682 1.83338 0
M  V30 23985 H 2240.96 -1.06138 3.65293 0
M  V30 23986 H 2242.27 -1.60107 4.72406 0
M  V30 23987 H 2241.43 -3.95361 4.60189 0
M  V30 23988 H 2240.17 -3.46017 3.43691 0
M  V30 23989 H 2239.17 -1.92017 5.15179 0
M  V30 23990 H 2240.4 -2.4416 6.3369 0
M  V30 23991 H 2238.34 -4.24495 5.0014 0
M  V30 23992 H 2238.26 -3.64282 6.62446 0
M  V30 23993 H 2239.53 -4.74697 6.1829 0
M  V30 23994 N 2243.76 -1.55766 -0.239741 0
M  V30 23995 C 2245 -1.77581 -0.96486 0
M  V30 23996 C 2245.32 -0.598732 -1.85581 0
M  V30 23997 O 2244.59 0.385193 -1.92076 0
M  V30 23998 H 2243.17 -0.65494 -0.359253 0
M  V30 23999 H 2245.84 -1.93212 -0.255967 0
M  V30 24000 H 2244.93 -2.69011 -1.58238 0
M  V30 24001 N 2245.23 0.505704 -1.49266 0
M  V30 24002 C 2246.14 1.63424 -1.68315 0
M  V30 24003 C 2247.16 1.64547 -0.56571 0
M  V30 24004 O 2248.34 1.83054 -0.839833 0
M  V30 24005 C 2245.4 2.9981 -1.74112 0
M  V30 24006 C 2244.46 3.0935 -2.97659 0
M  V30 24007 C 2243.69 4.3923 -3.03171 0
M  V30 24008 O 2243.92 5.27755 -2.16405 0
M  V30 24009 O 2242.85 4.53645 -3.95588 0
M  V30 24010 H 2246.68 1.50284 -2.6391 0
M  V30 24011 H 2244.26 0.681478 -1.32952 0
M  V30 24012 H 2246.14 3.80877 -1.80306 0
M  V30 24013 H 2244.82 3.13221 -0.816956 0
M  V30 24014 H 2243.73 2.27488 -2.96985 0
M  V30 24015 H 2245.06 3.00864 -3.8954 0
M  V30 24016 N 2246.71 1.38262 0.756405 0
M  V30 24017 C 2247.96 1.34049 1.51245 0
M  V30 24018 C 2248.28 -0.069803 1.94875 0
M  V30 24019 O 2247.55 -1.01693 1.67438 0
M  V30 24020 H 2246.13 0.493232 0.561009 0
M  V30 24021 H 2248.79 1.72911 0.899317 0
M  V30 24022 H 2247.89 1.98951 2.40468 0
M  V30 24023 N 2248.19 -0.984277 1.23084 0
M  V30 24024 C 2249.14 -2.06064 0.975786 0
M  V30 24025 C 2250.12 -1.60717 -0.0767969 0
M  V30 24026 O 2251.32 -1.76486 0.134836 0
M  V30 24027 C 2248.45 -3.38623 0.564733 0
M  V30 24028 C 2247.53 -3.9058 1.65251 0
M  V30 24029 N 2247.92 -4.15661 2.88201 0
M  V30 24030 C 2246.22 -4.19074 1.52619 0
M  V30 24031 C 2246.92 -4.58018 3.58601 0
M  V30 24032 N 2245.9 -4.6222 2.86101 0
M  V30 24033 H 2249.7 -2.23408 1.90961 0
M  V30 24034 H 2247.21 -1.16673 1.12965 0
M  V30 24035 H 2249.21 -4.15314 0.363293 0
M  V30 24036 H 2247.87 -3.22675 -0.36209 0
M  V30 24037 H 2248.88 -4.03598 3.24544 0
M  V30 24038 H 2245.56 -4.12151 0.666193 0
M  V30 24039 H 2246.95 -4.85974 4.63982 0
M  V30 24040 N 2249.67 -1.04192 -1.18244 0
M  V30 24041 C 2250.92 -0.744576 -1.87884 0
M  V30 24042 C 2251.24 0.729975 -1.80821 0
M  V30 24043 O 2250.51 1.52682 -1.22739 0
M  V30 24044 H 2249.09 -0.27243 -0.695551 0
M  V30 24045 H 2251.75 -1.31894 -1.43492 0
M  V30 24046 H 2250.85 -1.05054 -2.93888 0
M  V30 24047 N 2251.15 1.34492 -0.821557 0
M  V30 24048 C 2252.56 1.51328 -0.507143 0
M  V30 24049 C 2252.76 1.76675 0.968932 0
M  V30 24050 O 2251.82 1.81688 1.75345 0
M  V30 24051 C 2253.13 2.67908 -1.36549 0
M  V30 24052 C 2254.68 2.8179 -1.36247 0
M  V30 24053 C 2255.15 4.01412 -2.20527 0
M  V30 24054 N 2256.65 4.08617 -2.18143 0
M  V30 24055 C 2257.38 5.0033 -2.80103 0
M  V30 24056 N 2256.88 5.97274 -3.51049 0
M  V30 24057 N 2258.67 4.93191 -2.69665 0
M  V30 24058 H 2250.82 1.16299 -1.77731 0
M  V30 24059 H 2253.08 0.570263 -0.757301 0
M  V30 24060 H 2252.79 2.55804 -2.41365 0
M  V30 24061 H 2252.66 3.62887 -1.02923 0
M  V30 24062 H 2255.05 2.93337 -0.322093 0
M  V30 24063 H 2255.13 1.87625 -1.73869 0
M  V30 24064 H 2254.78 3.90626 -3.24614 0
M  V30 24065 H 2254.71 4.94788 -1.80256 0
M  V30 24066 H 2257.2 3.39226 -1.66536 0
M  V30 24067 H 2257.51 6.63882 -3.95576 0
M  V30 24068 H 2255.85 5.97402 -3.55155 0
M  V30 24069 H 2259.05 4.16414 -2.13816 0
M  V30 24070 H 2259.22 5.64471 -3.1824 0
M  V30 24071 N 2252.62 0.576397 1.46681 0
M  V30 24072 C 2253.59 -0.150199 2.28707 0
M  V30 24073 C 2254.59 -0.82477 1.38037 0
M  V30 24074 O 2255.78 -0.677691 1.60477 0
M  V30 24075 C 2252.91 -1.22187 3.1825 0
M  V30 24076 H 2254.1 0.570573 2.94422 0
M  V30 24077 H 2251.66 0.334105 1.52687 0
M  V30 24078 H 2252.39 -1.97442 2.57269 0
M  V30 24079 H 2252.18 -0.742744 3.85001 0
M  V30 24080 H 2253.67 -1.73166 3.80004 0
M  V30 24081 N 2254.1 -1.54444 0.313841 0
M  V30 24082 C 2255.07 -2.22657 -0.543751 0
M  V30 24083 C 2256.07 -1.2168 -1.05122 0
M  V30 24084 O 2257.26 -1.46327 -0.945199 0
M  V30 24085 C 2254.39 -2.92301 -1.75422 0
M  V30 24086 H 2255.58 -2.99854 0.0524126 0
M  V30 24087 H 2253.13 -1.56166 0.0648109 0
M  V30 24088 H 2253.87 -2.19216 -2.38987 0
M  V30 24089 H 2253.65 -3.66337 -1.39785 0
M  V30 24090 H 2255.14 -3.44301 -2.36319 0
M  V30 24091 N 2255.58 -0.0418125 -1.57545 0
M  V30 24092 C 2256.86 0.673401 -1.83643 0
M  V30 24093 C 2257.24 1.89592 -0.928331 0
M  V30 24094 O 2256.59 2.28496 0.0129553 0
M  V30 24095 C 2256.8 1.03958 -3.33157 0
M  V30 24096 C 2258.14 1.42585 -3.99943 0
M  V30 24097 O 2259.17 1.1322 -3.37727 0
M  V30 24098 O 2258.03 1.97351 -5.09622 0
M  V30 24099 H 2255.12 0.331519 -0.757644 0
M  V30 24100 H 2257.67 -0.0704628 -1.69554 0
M  V30 24101 H 2256.44 0.170029 -3.9093 0
M  V30 24102 H 2256.06 1.8412 -3.524 0
M  V30 24103 N 2257.06 1.55891 0.231477 0
M  V30 24104 C 2258.31 1.77642 0.955315 0
M  V30 24105 C 2258.62 0.608579 1.85892 0
M  V30 24106 O 2259.83 0.709476 2.62066 0
M  V30 24107 C 2258.28 3.14555 1.74881 0
M  V30 24108 C 2257.89 4.39033 0.891838 0
M  V30 24109 C 2259.63 3.45637 2.46445 0
M  V30 24110 C 2257.54 5.66974 1.68211 0
M  V30 24111 H 2256.47 0.662271 0.360434 0
M  V30 24112 H 2259.12 1.823 0.209484 0
M  V30 24113 H 2257.5 3.04045 2.53717 0
M  V30 24114 H 2258.68 4.60573 0.144712 0
M  V30 24115 H 2256.99 4.15397 0.28879 0
M  V30 24116 H 2259.59 4.38447 3.06053 0
M  V30 24117 H 2259.93 2.67674 3.18836 0
M  V30 24118 H 2260.47 3.57431 1.74607 0
M  V30 24119 H 2257.21 6.47802 1.00166 0
M  V30 24120 H 2256.73 5.49511 2.40411 0
M  V30 24121 H 2258.4 6.0679 2.24533 0
M  V30 24122 N 2258.54 -0.497781 1.49532 0
M  V30 24123 C 2259.78 -1.25086 1.6039 0
M  V30 24124 C 2260.14 -1.90227 0.288362 0
M  V30 24125 O 2259.43 -1.77893 -0.711675 0
M  V30 24126 C 2259.62 -2.33873 2.70256 0
M  V30 24127 C 2259.45 -1.794 4.12366 0
M  V30 24128 C 2258.22 -1.60558 4.79113 0
M  V30 24129 C 2260.42 -1.30403 4.97493 0
M  V30 24130 N 2258.4 -1.01049 6.05527 0
M  V30 24131 C 2259.77 -0.830487 6.14413 0
M  V30 24132 C 2261.83 -1.19007 4.83469 0
M  V30 24133 C 2260.53 -0.254244 7.18851 0
M  V30 24134 C 2262.56 -0.627789 5.88058 0
M  V30 24135 C 2261.92 -0.164487 7.04208 0
M  V30 24136 H 2258.02 -0.447568 0.641254 0
M  V30 24137 H 2260.6 -0.557408 1.8655 0
M  V30 24138 H 2258.77 -3.00675 2.45863 0
M  V30 24139 H 2260.51 -3.00912 2.70618 0
M  V30 24140 H 2257.26 -1.85019 4.35964 0
M  V30 24141 H 2257.69 -0.732118 6.7303 0
M  V30 24142 H 2262.33 -1.53424 3.93981 0
M  V30 24143 H 2260.05 0.102194 8.08035 0
M  V30 24144 H 2263.63 -0.542342 5.79267 0
M  V30 24145 H 2262.51 0.263807 7.83756 0
M  V30 24146 N 2260.01 -1.38661 -0.749062 0
M  V30 24147 C 2261.24 -1.3854 -1.54342 0
M  V30 24148 C 2261.66 0.0216325 -1.88088 0
M  V30 24149 O 2261.02 1.00491 -1.50901 0
M  V30 24150 C 2261.07 -2.25197 -2.81636 0
M  V30 24151 O 2260.17 -1.67218 -3.76977 0
M  V30 24152 H 2259.52 -0.472375 -0.466646 0
M  V30 24153 H 2262.05 -1.8248 -0.925323 0
M  V30 24154 H 2262.06 -2.39215 -3.30515 0
M  V30 24155 H 2260.73 -3.27459 -2.56405 0
M  V30 24156 H 2259.31 -1.62366 -3.35696 0
M  V30 24157 N 2261.49 0.977736 -1.23605 0
M  V30 24158 C 2262.42 2.08858 -1.04405 0
M  V30 24159 C 2263.4 1.70053 0.0398754 0
M  V30 24160 O 2264.59 1.93795 -0.12528 0
M  V30 24161 C 2261.72 3.41402 -0.637329 0
M  V30 24162 C 2260.67 3.94121 -1.6689 0
M  V30 24163 C 2260 5.22891 -1.11754 0
M  V30 24164 C 2261.3 4.2309 -3.06255 0
M  V30 24165 H 2262.99 2.25178 -1.9732 0
M  V30 24166 H 2260.54 1.08207 -0.950115 0
M  V30 24167 H 2262.49 4.18541 -0.490054 0
M  V30 24168 H 2261.22 3.24954 0.3275 0
M  V30 24169 H 2259.88 3.1913 -1.80421 0
M  V30 24170 H 2259.52 5.02795 -0.143615 0
M  V30 24171 H 2259.22 5.59131 -1.80682 0
M  V30 24172 H 2260.75 6.02649 -0.982173 0
M  V30 24173 H 2262.16 4.9097 -2.9601 0
M  V30 24174 H 2260.56 4.70537 -3.72445 0
M  V30 24175 H 2261.63 3.30257 -3.55047 0
M  V30 24176 N 2262.97 1.04818 1.1769 0
M  V30 24177 C 2264.22 0.75453 1.87487 0
M  V30 24178 C 2264.54 -0.720375 1.81206 0
M  V30 24179 O 2263.81 -1.52029 1.23547 0
M  V30 24180 H 2262.39 0.276114 0.694096 0
M  V30 24181 H 2265.05 1.32653 1.4279 0
M  V30 24182 H 2264.15 1.06611 2.93326 0
M  V30 24183 N 2264.45 -1.34055 0.828678 0
M  V30 24184 C 2265.69 -1.99924 0.425429 0
M  V30 24185 C 2266.05 -1.64251 -0.994265 0
M  V30 24186 O 2267.25 -2.23008 -1.5007 0
M  V30 24187 C 2265.53 -3.51837 0.628133 0
M  V30 24188 S 2267.08 -4.37642 0.318588 0
M  V30 24189 H 2263.9 -0.692653 0.160477 0
M  V30 24190 H 2266.5 -1.63242 1.07575 0
M  V30 24191 H 2265.21 -3.75287 1.66095 0
M  V30 24192 H 2264.74 -3.93383 -0.0367107 0
M  V30 24193 H 2266.75 -4.88593 -0.865546 0
M  V30 24194 N 2265.93 -0.584167 -1.46374 0
M  V30 24195 C 2267.17 -0.0704072 -2.02678 0
M  V30 24196 C 2267.51 1.28676 -1.45452 0
M  V30 24197 O 2266.78 1.84348 -0.620172 0
M  V30 24198 C 2267.06 -0.00621004 -3.60099 0
M  V30 24199 C 2266.92 -1.39238 -4.27707 0
M  V30 24200 C 2268.24 0.693666 -4.34599 0
M  V30 24201 H 2265.36 -0.0270599 -0.736503 0
M  V30 24202 H 2268 -0.751646 -1.745 0
M  V30 24203 H 2266.15 0.573942 -3.84237 0
M  V30 24204 H 2267.82 -2.01781 -4.14828 0
M  V30 24205 H 2266.06 -1.95969 -3.87013 0
M  V30 24206 H 2266.73 -1.29991 -5.36476 0
M  V30 24207 H 2269.21 0.200796 -4.15615 0
M  V30 24208 H 2268.09 0.707618 -5.4432 0
M  V30 24209 H 2268.35 1.75526 -4.05762 0
M  V30 24210 N 2267.41 1.54275 -0.322027 0
M  V30 24211 C 2268.65 2.00838 0.281425 0
M  V30 24212 C 2268.98 1.20987 1.51907 0
M  V30 24213 O 2268.26 0.291767 1.92299 0
M  V30 24214 C 2268.54 3.54773 0.6171 0
M  V30 24215 C 2268.4 4.4535 -0.631143 0
M  V30 24216 C 2269.71 4.16036 1.43535 0
M  V30 24217 H 2266.83 0.730072 0.100813 0
M  V30 24218 H 2269.48 1.84875 -0.4383 0
M  V30 24219 H 2267.63 3.68506 1.23027 0
M  V30 24220 H 2269.3 4.4349 -1.26942 0
M  V30 24221 H 2267.54 4.15088 -1.26032 0
M  V30 24222 H 2268.21 5.50878 -0.351832 0
M  V30 24223 H 2270.69 4.05868 0.917063 0
M  V30 24224 H 2269.56 5.23859 1.63898 0
M  V30 24225 H 2269.82 3.69262 2.43101 0
M  V30 24226 N 2268.88 0.0501669 1.5752 0
M  V30 24227 C 2270.13 -0.623294 1.91828 0
M  V30 24228 C 2270.45 -1.72063 0.930252 0
M  V30 24229 O 2271.65 -2.45218 1.16534 0
M  V30 24230 C 2270.11 -1.15997 3.40694 0
M  V30 24231 C 2269.72 -0.0948023 4.479 0
M  V30 24232 C 2271.46 -1.80874 3.84038 0
M  V30 24233 C 2269.37 -0.644307 5.8788 0
M  V30 24234 H 2268.3 -0.236584 0.715922 0
M  V30 24235 H 2270.95 0.118893 1.83114 0
M  V30 24236 H 2269.33 -1.95444 3.44409 0
M  V30 24237 H 2270.5 0.678755 4.55774 0
M  V30 24238 H 2268.82 0.456443 4.13891 0
M  V30 24239 H 2271.42 -2.2298 4.85988 0
M  V30 24240 H 2271.76 -2.66005 3.2023 0
M  V30 24241 H 2272.29 -1.08084 3.82835 0
M  V30 24242 H 2269.03 0.169344 6.55281 0
M  V30 24243 H 2268.55 -1.38587 5.8357 0
M  V30 24244 H 2270.23 -1.12752 6.371 0
M  V30 24245 N 2270.36 -1.56011 -0.223207 0
M  V30 24246 C 2271.27 -1.95445 -1.29762 0
M  V30 24247 C 2272.29 -0.858055 -1.51372 0
M  V30 24248 O 2273.46 -1.16148 -1.64534 0
M  V30 24249 C 2270.53 -2.26172 -2.62768 0
M  V30 24250 C 2269.59 -3.49371 -2.49476 0
M  V30 24251 C 2268.82 -3.78623 -3.76139 0
M  V30 24252 O 2269.05 -3.09576 -4.79081 0
M  V30 24253 O 2267.98 -4.72116 -3.7335 0
M  V30 24254 H 2271.81 -2.87006 -0.993039 0
M  V30 24255 H 2269.39 -1.432 -0.425933 0
M  V30 24256 H 2271.27 -2.47137 -3.41323 0
M  V30 24257 H 2269.95 -1.37786 -2.92911 0
M  V30 24258 H 2268.85 -3.33687 -1.69127 0
M  V30 24259 H 2270.19 -4.38135 -2.24273 0
M  V30 24260 N 2271.84 0.489844 -1.49794 0
M  V30 24261 C 2272.77 1.60821 -1.61901 0
M  V30 24262 C 2273.75 1.55729 -0.467678 0
M  V30 24263 O 2274.93 1.75624 -0.684713 0
M  V30 24264 C 2272.06 2.99363 -1.58428 0
M  V30 24265 C 2271.11 3.22677 -2.78894 0
M  V30 24266 S 2271.94 3.04594 -4.40435 0
M  V30 24267 C 2273.1 4.45512 -4.39624 0
M  V30 24268 H 2273.33 1.50308 -2.56505 0
M  V30 24269 H 2270.86 0.675824 -1.38824 0
M  V30 24270 H 2272.82 3.79245 -1.57109 0
M  V30 24271 H 2271.48 3.07281 -0.65092 0
M  V30 24272 H 2270.67 4.23843 -2.72715 0
M  V30 24273 H 2270.28 2.50536 -2.77683 0
M  V30 24274 H 2272.57 5.37807 -4.12031 0
M  V30 24275 H 2273.51 4.56739 -5.41105 0
M  V30 24276 H 2273.92 4.26714 -3.69561 0
M  V30 24277 N 2273.32 1.39056 0.741698 0
M  V30 24278 C 2274.56 1.36116 1.50334 0
M  V30 24279 C 2274.9 -0.0450455 1.94148 0
M  V30 24280 O 2274.17 -1.00865 1.66302 0
M  V30 24281 C 2274.45 2.32754 2.74768 0
M  V30 24282 C 2274.31 3.82287 2.37017 0
M  V30 24283 C 2275.63 2.27328 3.76842 0
M  V30 24284 H 2272.75 0.495753 0.545342 0
M  V30 24285 H 2275.39 1.69997 0.848595 0
M  V30 24286 H 2273.54 2.03991 3.30635 0
M  V30 24287 H 2275.21 4.21771 1.86833 0
M  V30 24288 H 2273.45 3.99388 1.69327 0
M  V30 24289 H 2274.12 4.45382 3.26097 0
M  V30 24290 H 2276.6 2.52745 3.30543 0
M  V30 24291 H 2275.48 2.97037 4.61585 0
M  V30 24292 H 2275.74 1.27606 4.23284 0
M  V30 24293 N 2274.8 -0.971167 1.24121 0
M  V30 24294 C 2276.02 -1.74872 1.10578 0
M  V30 24295 C 2276.44 -1.85677 -0.341984 0
M  V30 24296 O 2275.8 -1.3426 -1.23615 0
M  V30 24297 C 2275.85 -3.17097 1.73585 0
M  V30 24298 O 2275.57 -3.06839 3.127 0
M  V30 24299 C 2277.07 -4.11205 1.65605 0
M  V30 24300 H 2274.29 -0.548496 0.386513 0
M  V30 24301 H 2276.83 -1.21952 1.64158 0
M  V30 24302 H 2274.99 -3.67014 1.24015 0
M  V30 24303 H 2275.4 -3.96439 3.43419 0
M  V30 24304 H 2276.88 -5.08671 2.14379 0
M  V30 24305 H 2277.35 -4.3485 0.616608 0
M  V30 24306 H 2277.96 -3.67197 2.14584 0
M  V30 24307 N 2276.27 -1.05441 -1.17133 0
M  V30 24308 C 2277.52 -0.764462 -1.87084 0
M  V30 24309 C 2277.84 0.710755 -1.81585 0
M  V30 24310 O 2277.11 1.51372 -1.24352 0
M  V30 24311 H 2275.69 -0.279791 -0.692622 0
M  V30 24312 H 2278.36 -1.33409 -1.42085 0
M  V30 24313 H 2277.45 -1.08165 -2.92757 0
M  V30 24314 N 2277.75 1.33613 -0.835776 0
M  V30 24315 C 2278.7 2.29276 -0.26477 0
M  V30 24316 C 2279.67 1.54188 0.617685 0
M  V30 24317 O 2280.85 1.82501 0.556609 0
M  V30 24318 C 2277.99 3.4058 0.556717 0
M  V30 24319 C 2277.11 4.30585 -0.349415 0
M  V30 24320 C 2276.24 5.29001 0.482876 0
M  V30 24321 C 2275.28 6.10645 -0.42184 0
M  V30 24322 N 2274.42 7.01113 0.372139 0
M  V30 24323 H 2279.26 2.77512 -1.08586 0
M  V30 24324 H 2276.8 1.36553 -0.546951 0
M  V30 24325 H 2278.75 4.03811 1.04845 0
M  V30 24326 H 2277.38 2.93545 1.34281 0
M  V30 24327 H 2276.44 3.68102 -0.959437 0
M  V30 24328 H 2277.75 4.87741 -1.04454 0
M  V30 24329 H 2276.9 5.97745 1.03856 0
M  V30 24330 H 2275.64 4.72414 1.21145 0
M  V30 24331 H 2274.65 5.40821 -0.989559 0
M  V30 24332 H 2275.87 6.69314 -1.14873 0
M  V30 24333 H 2273.82 6.46979 1.08415 0
M  V30 24334 H 2273.73 7.55538 -0.26433 0
M  V30 24335 H 2275 7.74168 0.910157 0
M  V30 24336 N 2279.23 0.591922 1.46062 0
M  V30 24337 C 2280.65 0.254316 1.57561 0
M  V30 24338 C 2280.85 -1.24333 1.58567 0
M  V30 24339 O 2279.9 -2.02556 1.50756 0
M  V30 24340 C 2281.22 0.911662 2.86547 0
M  V30 24341 C 2282.76 0.886112 3.00195 0
M  V30 24342 C 2283.24 1.52317 4.3193 0
M  V30 24343 N 2284.73 1.48794 4.38651 0
M  V30 24344 C 2285.46 1.95016 5.39218 0
M  V30 24345 N 2284.96 2.49253 6.46409 0
M  V30 24346 N 2286.75 1.85877 5.30477 0
M  V30 24347 H 2278.9 1.56454 1.43652 0
M  V30 24348 H 2281.17 0.65449 0.685819 0
M  V30 24349 H 2280.87 1.96556 2.91648 0
M  V30 24350 H 2280.75 0.425434 3.74793 0
M  V30 24351 H 2283.13 -0.159195 2.9467 0
M  V30 24352 H 2283.22 1.41045 2.13401 0
M  V30 24353 H 2282.86 2.56773 4.38213 0
M  V30 24354 H 2282.79 0.973982 5.17514 0
M  V30 24355 H 2285.28 1.09157 3.61792 0
M  V30 24356 H 2285.59 2.82356 7.19371 0
M  V30 24357 H 2283.94 2.53283 6.47204 0
M  V30 24358 H 2287.13 1.43256 4.4564 0
M  V30 24359 H 2287.3 2.22215 6.08707 0
M  V30 24360 N 2280.71 -1.54102 0.330204 0
M  V30 24361 C 2282.12 -1.86043 -0.156487 0
M  V30 24362 C 2282.47 -1.25173 -1.51083 0
M  V30 24363 O 2281.6 -0.560254 -2.09022 0
M  V30 24364 C 2282.19 -3.3755 -0.290725 0
M  V30 24365 C 2280.75 -3.69418 -0.72164 0
M  V30 24366 C 2279.9 -2.76879 0.152671 0
M  V30 24367 H 2282.85 -1.48855 0.550263 0
M  V30 24368 H 2282.87 -3.63627 -1.12051 0
M  V30 24369 H 2282.38 -3.81824 0.695135 0
M  V30 24370 H 2280.48 -3.30681 -1.71701 0
M  V30 24371 H 2280.59 -4.76261 -0.520785 0
M  V30 24372 H 2278.96 -2.51956 -0.37285 0
M  V30 24373 H 2279.74 -3.2398 1.13542 0
M  V30 24374 N 2282.19 -0.0585199 -1.57491 0
M  V30 24375 C 2283.43 0.608583 -1.94082 0
M  V30 24376 C 2283.79 1.68016 -0.937467 0
M  V30 24377 O 2283.08 1.91553 0.0422697 0
M  V30 24378 C 2283.27 1.24182 -3.35132 0
M  V30 24379 C 2283.1 0.233108 -4.49095 0
M  V30 24380 C 2281.87 -0.177528 -5.04988 0
M  V30 24381 C 2284.07 -0.524395 -5.1162 0
M  V30 24382 N 2282.05 -1.17833 -6.02485 0
M  V30 24383 C 2283.42 -1.37806 -6.04491 0
M  V30 24384 C 2285.48 -0.581909 -4.94488 0
M  V30 24385 C 2284.18 -2.28411 -6.82071 0
M  V30 24386 C 2286.21 -1.47541 -5.727 0
M  V30 24387 C 2285.57 -2.31678 -6.6521 0
M  V30 24388 H 2281.67 0.194121 -0.757523 0
M  V30 24389 H 2284.25 -0.132567 -1.94248 0
M  V30 24390 H 2282.42 1.95296 -3.35729 0
M  V30 24391 H 2284.16 1.86832 -3.58993 0
M  V30 24392 H 2280.91 0.202921 -4.73165 0
M  V30 24393 H 2281.34 -1.67585 -6.5593 0
M  V30 24394 H 2285.98 0.0543687 -4.22765 0
M  V30 24395 H 2283.7 -2.9308 -7.5308 0
M  V30 24396 H 2287.28 -1.52458 -5.61469 0
M  V30 24397 H 2286.16 -2.99696 -7.24674 0
M  V30 24398 N 2283.66 1.56128 0.21493 0
M  V30 24399 C 2284.61 1.89353 1.27002 0
M  V30 24400 C 2285.6 0.757227 1.41968 0
M  V30 24401 O 2286.79 1.01976 1.44672 0
M  V30 24402 C 2283.92 2.21945 2.61907 0
M  V30 24403 C 2283.01 3.41983 2.50816 0
M  V30 24404 N 2283.4 4.60427 2.09382 0
M  V30 24405 C 2281.69 3.45728 2.81759 0
M  V30 24406 C 2282.4 5.42586 2.09702 0
M  V30 24407 N 2281.37 4.82471 2.50446 0
M  V30 24408 H 2285.17 2.78439 0.940685 0
M  V30 24409 H 2282.69 1.56782 0.423465 0
M  V30 24410 H 2284.68 2.43925 3.38092 0
M  V30 24411 H 2283.34 1.34174 2.95681 0
M  V30 24412 H 2284.36 4.85462 1.80407 0
M  V30 24413 H 2281.03 2.68319 3.19861 0
M  V30 24414 H 2282.42 6.47414 1.79737 0
M  V30 24415 N 2285.14 -0.481893 1.50052 0
M  V30 24416 C 2286.05 -1.60725 1.70893 0
M  V30 24417 C 2287.07 -1.63626 0.591817 0
M  V30 24418 O 2288.24 -1.81695 0.868849 0
M  V30 24419 C 2285.31 -2.97002 1.7886 0
M  V30 24420 C 2284.37 -3.04576 3.02543 0
M  V30 24421 C 2283.6 -4.34352 3.1012 0
M  V30 24422 O 2283.83 -5.24245 2.24774 0
M  V30 24423 O 2282.76 -4.47294 4.02755 0
M  V30 24424 H 2286.59 -1.46067 2.66267 0
M  V30 24425 H 2284.17 -0.660241 1.34019 0
M  V30 24426 H 2286.05 -3.77961 1.86343 0
M  V30 24427 H 2284.73 -3.11882 0.866683 0
M  V30 24428 H 2283.64 -2.22734 3.00567 0
M  V30 24429 H 2284.97 -2.94629 3.94277 0
M  V30 24430 N 2286.62 -1.39448 -0.734313 0
M  V30 24431 C 2287.85 -1.39781 -1.52134 0
M  V30 24432 C 2288.26 0.00925986 -1.89198 0
M  V30 24433 O 2287.6 0.991141 -1.54668 0
M  V30 24434 C 2287.66 -2.20729 -2.83758 0
M  V30 24435 C 2287.33 -3.69352 -2.69125 0
M  V30 24436 C 2288.32 -4.62417 -2.37627 0
M  V30 24437 C 2286.01 -4.12945 -2.85974 0
M  V30 24438 C 2288 -5.97058 -2.23161 0
M  V30 24439 C 2285.69 -5.47662 -2.71127 0
M  V30 24440 C 2286.69 -6.39532 -2.39766 0
M  V30 24441 O 2286.38 -7.71767 -2.25012 0
M  V30 24442 H 2286.11 -0.479297 -0.476708 0
M  V30 24443 H 2288.66 -1.83895 -0.91498 0
M  V30 24444 H 2286.89 -1.71365 -3.46657 0
M  V30 24445 H 2288.58 -2.13232 -3.45379 0
M  V30 24446 H 2289.35 -4.30038 -2.2426 0
M  V30 24447 H 2285.23 -3.4177 -3.09377 0
M  V30 24448 H 2288.77 -6.68732 -1.98605 0
M  V30 24449 H 2284.67 -5.79631 -2.84073 0
M  V30 24450 H 2285.44 -7.82499 -2.40077 0
M  V30 24451 N 2288.1 0.964571 -1.24635 0
M  V30 24452 C 2289.01 2.09357 -1.05863 0
M  V30 24453 C 2290.02 1.74 0.00145797 0
M  V30 24454 O 2291.2 2.0043 -0.197381 0
M  V30 24455 C 2288.27 3.40185 -0.668938 0
M  V30 24456 C 2287.33 3.89471 -1.80585 0
M  V30 24457 C 2286.56 5.14056 -1.43466 0
M  V30 24458 O 2286.78 5.69468 -0.325875 0
M  V30 24459 O 2285.72 5.57803 -2.26139 0
M  V30 24460 H 2289.54 2.28091 -2.0052 0
M  V30 24461 H 2287.13 1.07758 -1.03482 0
M  V30 24462 H 2289.01 4.18846 -0.463285 0
M  V30 24463 H 2287.68 3.22745 0.24848 0
M  V30 24464 H 2286.59 3.11858 -2.06628 0
M  V30 24465 H 2287.92 4.11393 -2.70216 0
M  V30 24466 N 2289.58 1.0606 1.16572 0
M  V30 24467 C 2290.53 0.639329 2.18853 0
M  V30 24468 C 2291.51 -0.328771 1.57505 0
M  V30 24469 O 2292.7 -0.144592 1.76408 0
M  V30 24470 C 2289.83 0.0247806 3.43291 0
M  V30 24471 C 2288.92 1.01723 4.1172 0
M  V30 24472 N 2289.31 2.19194 4.55837 0
M  V30 24473 C 2287.61 0.847646 4.37871 0
M  V30 24474 C 2288.31 2.82051 5.08746 0
M  V30 24475 N 2287.28 2.09793 5.01486 0
M  V30 24476 H 2291.09 1.53422 2.50677 0
M  V30 24477 H 2288.6 0.931958 1.32997 0
M  V30 24478 H 2290.6 -0.294842 4.15856 0
M  V30 24479 H 2289.26 -0.865393 3.12955 0
M  V30 24480 H 2290.27 2.56983 4.49645 0
M  V30 24481 H 2286.94 0.00926187 4.17499 0
M  V30 24482 H 2288.33 3.81719 5.52938 0
M  V30 24483 N 2291.06 -1.33168 0.84285 0
M  V30 24484 C 2292 -2.31056 0.267536 0
M  V30 24485 C 2293 -1.58318 -0.602654 0
M  V30 24486 O 2294.2 -1.73152 -0.491773 0
M  V30 24487 H 2290.58 -0.748938 0.0677944 0
M  V30 24488 H 2292.55 -2.77083 1.10759 0
M  V30 24489 C 2291.3 -3.43493 -0.539271 0
M  V30 24490 H 2290.62 -3.99617 0.12102 0
M  V30 24491 H 2292.06 -4.14172 -0.907597 0
M  V30 24492 C 2290.52 -2.897 -1.71976 0
M  V30 24493 O 2291.05 -2.86216 -2.81857 0
M  V30 24494 N 2289.26 -2.46255 -1.54295 0
M  V30 24495 H 2288.8 -2.49288 -0.649099 0
M  V30 24496 H 2288.76 -2.10616 -2.33427 0
M  V30 24497 N 2292.53 -0.599659 -1.45746 0
M  V30 24498 C 2293.78 -0.091764 -2.02292 0
M  V30 24499 C 2294.11 1.27469 -1.46908 0
M  V30 24500 O 2293.36 1.85259 -0.630684 0
M  V30 24501 C 2293.66 0.00596476 -3.574 0
M  V30 24502 C 2293.33 -1.29511 -4.319 0
M  V30 24503 C 2291.99 -1.65152 -4.51971 0
M  V30 24504 C 2294.34 -2.15533 -4.74547 0
M  V30 24505 C 2291.67 -2.86583 -5.11944 0
M  V30 24506 C 2294.02 -3.36206 -5.35862 0
M  V30 24507 C 2292.69 -3.72109 -5.54158 0
M  V30 24508 H 2291.96 -0.0335788 -0.740239 0
M  V30 24509 H 2294.6 -0.779691 -1.74909 0
M  V30 24510 H 2292.91 0.777115 -3.84016 0
M  V30 24511 H 2294.61 0.414968 -3.98847 0
M  V30 24512 H 2291.2 -1.00768 -4.16586 0
M  V30 24513 H 2295.38 -1.89298 -4.58781 0
M  V30 24514 H 2290.64 -3.14516 -5.24299 0
M  V30 24515 H 2294.81 -4.03119 -5.67863 0
M  V30 24516 H 2292.44 -4.6629 -6.00398 0
M  V30 24517 N 2294.01 1.53925 -0.338371 0
M  V30 24518 C 2294.94 2.22377 0.555078 0
M  V30 24519 C 2295.96 1.22864 1.0681 0
M  V30 24520 O 2297.15 1.49249 0.979137 0
M  V30 24521 C 2294.25 2.88635 1.77604 0
M  V30 24522 C 2293.42 4.14417 1.3992 0
M  V30 24523 C 2292.48 4.64132 2.47928 0
M  V30 24524 O 2291.5 5.28466 2.11452 0
M  V30 24525 N 2292.71 4.39618 3.79099 0
M  V30 24526 H 2295.47 2.99684 -0.0311305 0
M  V30 24527 H 2293.03 1.61085 -0.162254 0
M  V30 24528 H 2295.02 3.18811 2.49282 0
M  V30 24529 H 2293.59 2.14945 2.26975 0
M  V30 24530 H 2292.81 3.90842 0.513412 0
M  V30 24531 H 2294.1 4.96245 1.12332 0
M  V30 24532 H 2293.5 3.88155 4.11524 0
M  V30 24533 H 2292.06 4.74414 4.46962 0
M  V30 24534 N 2295.49 0.0668712 1.57458 0
M  V30 24535 C 2296.74 -0.602913 1.92478 0
M  V30 24536 C 2297.05 -1.71067 0.948449 0
M  V30 24537 O 2298.26 -2.43968 1.19129 0
M  V30 24538 C 2296.71 -1.12377 3.41905 0
M  V30 24539 C 2296.32 -0.0472913 4.47975 0
M  V30 24540 C 2298.07 -1.7679 3.85934 0
M  V30 24541 C 2295.97 -0.581919 5.8853 0
M  V30 24542 H 2294.9 -0.228977 0.718391 0
M  V30 24543 H 2297.55 0.138308 1.82978 0
M  V30 24544 H 2295.94 -1.91781 3.46462 0
M  V30 24545 H 2297.11 0.727058 4.55028 0
M  V30 24546 H 2295.42 0.500316 4.13383 0
M  V30 24547 H 2298.02 -2.17813 4.88325 0
M  V30 24548 H 2298.36 -2.62593 3.23033 0
M  V30 24549 H 2298.9 -1.04017 3.8396 0
M  V30 24550 H 2295.64 0.238836 6.55065 0
M  V30 24551 H 2295.16 -1.3239 5.85007 0
M  V30 24552 H 2296.84 -1.05988 6.3826 0
M  V30 24553 N 2296.97 -1.56239 -0.206647 0
M  V30 24554 C 2297.9 -1.88663 -1.2838 0
M  V30 24555 C 2298.88 -0.745506 -1.44502 0
M  V30 24556 O 2300.06 -0.995364 -1.60077 0
M  V30 24557 C 2297.19 -2.10672 -2.65208 0
M  V30 24558 C 2296.24 -3.33371 -2.66019 0
M  V30 24559 S 2297.07 -4.8885 -2.186 0
M  V30 24560 C 2298.22 -5.13913 -3.57274 0
M  V30 24561 H 2298.46 -2.79731 -1.00686 0
M  V30 24562 H 2295.99 -1.48868 -0.409601 0
M  V30 24563 H 2297.95 -2.24035 -3.43975 0
M  V30 24564 H 2296.61 -1.20374 -2.90119 0
M  V30 24565 H 2295.8 -3.45861 -3.66601 0
M  V30 24566 H 2295.4 -3.18942 -1.95326 0
M  V30 24567 H 2297.7 -5.03725 -4.53065 0
M  V30 24568 H 2298.64 -6.1573 -3.49688 0
M  V30 24569 H 2299.05 -4.4159 -3.51652 0
M  V30 24570 N 2298.45 0.473929 -1.50305 0
M  V30 24571 C 2299.68 1.24775 -1.64665 0
M  V30 24572 C 2300.08 1.86332 -0.328207 0
M  V30 24573 O 2299.43 1.69861 0.699506 0
M  V30 24574 C 2299.49 2.39858 -2.67784 0
M  V30 24575 C 2299.15 1.98962 -4.11416 0
M  V30 24576 C 2300.15 1.51376 -4.97374 0
M  V30 24577 C 2297.83 2.07769 -4.57315 0
M  V30 24578 C 2299.83 1.13137 -6.27279 0
M  V30 24579 C 2297.52 1.69141 -5.87226 0
M  V30 24580 C 2298.51 1.21903 -6.72033 0
M  V30 24581 O 2298.2 0.838097 -7.99519 0
M  V30 24582 H 2297.93 0.383617 -0.556609 0
M  V30 24583 H 2300.49 0.572457 -1.97261 0
M  V30 24584 H 2298.72 3.1055 -2.30424 0
M  V30 24585 H 2300.41 3.01829 -2.71393 0
M  V30 24586 H 2301.17 1.43996 -4.63131 0
M  V30 24587 H 2297.05 2.43486 -3.91453 0
M  V30 24588 H 2300.6 0.761955 -6.93426 0
M  V30 24589 H 2296.49 1.7618 -6.20992 0
M  V30 24590 H 2297.26 0.967196 -8.12765 0
M  V30 24591 N 2299.92 1.39835 0.726907 0
M  V30 24592 C 2300.87 1.392 1.84097 0
M  V30 24593 C 2301.84 0.250531 1.642 0
M  V30 24594 O 2303.03 0.446879 1.85493 0
M  V30 24595 C 2300.17 1.24925 3.21695 0
M  V30 24596 C 2299.28 2.48684 3.53242 0
M  V30 24597 C 2298.41 2.26936 4.80285 0
M  V30 24598 C 2297.45 3.46329 5.047 0
M  V30 24599 N 2296.59 3.23847 6.22951 0
M  V30 24600 H 2301.43 2.3443 1.83974 0
M  V30 24601 H 2298.97 1.16443 0.898856 0
M  V30 24602 H 2300.92 1.14658 4.01135 0
M  V30 24603 H 2299.55 0.33321 3.21076 0
M  V30 24604 H 2298.61 2.69524 2.68442 0
M  V30 24605 H 2299.92 3.37589 3.67199 0
M  V30 24606 H 2299.07 2.13957 5.67721 0
M  V30 24607 H 2297.81 1.35439 4.68516 0
M  V30 24608 H 2296.82 3.59798 4.15723 0
M  V30 24609 H 2298.04 4.38738 5.18349 0
M  V30 24610 H 2295.99 2.35022 6.12455 0
M  V30 24611 H 2295.9 4.06311 6.37532 0
M  V30 24612 H 2297.17 3.14578 7.13205 0
M  V30 24613 N 2301.4 -0.957948 1.25144 0
M  V30 24614 C 2302.65 -1.70467 1.09858 0
M  V30 24615 C 2302.98 -1.90831 -0.360153 0
M  V30 24616 O 2302.26 -1.47687 -1.26565 0
M  V30 24617 C 2302.54 -3.0896 1.84975 0
M  V30 24618 C 2302.39 -2.96026 3.38657 0
M  V30 24619 C 2303.71 -4.08793 1.63024 0
M  V30 24620 H 2300.83 -0.618699 0.400476 0
M  V30 24621 H 2303.47 -1.11373 1.53935 0
M  V30 24622 H 2301.62 -3.59406 1.47511 0
M  V30 24623 H 2303.29 -2.52931 3.85777 0
M  V30 24624 H 2301.54 -2.32018 3.66538 0
M  V30 24625 H 2302.21 -3.94181 3.86427 0
M  V30 24626 H 2304.68 -3.67243 1.95631 0
M  V30 24627 H 2303.56 -5.03743 2.18024 0
M  V30 24628 H 2303.82 -4.384 0.570769 0
M  V30 24629 N 2302.88 -1.06677 -1.16008 0
M  V30 24630 C 2304.13 -0.784262 -1.86263 0
M  V30 24631 C 2304.45 0.691456 -1.82329 0
M  V30 24632 O 2303.72 1.50045 -1.2595 0
M  V30 24633 H 2302.3 -0.287122 -0.689616 0
M  V30 24634 H 2304.96 -1.34908 -1.40662 0
M  V30 24635 H 2304.06 -1.11264 -2.91593 0
M  V30 24636 N 2304.36 1.32719 -0.8499 0
M  V30 24637 C 2305.29 2.26977 -0.235943 0
M  V30 24638 C 2306.27 1.50178 0.623329 0
M  V30 24639 O 2307.45 1.79317 0.581175 0
M  V30 24640 C 2304.58 3.32054 0.667654 0
M  V30 24641 C 2303.63 4.26338 -0.117605 0
M  V30 24642 S 2304.46 5.1456 -1.48286 0
M  V30 24643 C 2305.61 6.23162 -0.58485 0
M  V30 24644 H 2305.85 2.78703 -1.035 0
M  V30 24645 H 2303.38 1.40178 -0.647264 0
M  V30 24646 H 2305.34 3.93074 1.18336 0
M  V30 24647 H 2304 2.79122 1.44047 0
M  V30 24648 H 2303.19 5.00762 0.570422 0
M  V30 24649 H 2302.79 3.69712 -0.564733 0
M  V30 24650 H 2305.09 6.77166 0.212849 0
M  V30 24651 H 2306.03 6.96072 -1.29959 0
M  V30 24652 H 2306.44 5.6427 -0.161301 0
M  V30 24653 N 2305.84 0.60738 1.45426 0
M  V30 24654 C 2307.08 0.102288 2.01841 0
M  V30 24655 C 2307.41 -1.27162 1.47834 0
M  V30 24656 O 2306.68 -1.83994 0.672529 0
M  V30 24657 H 2305.26 0.0348232 0.746188 0
M  V30 24658 H 2307.92 0.788731 1.78228 0
M  V30 24659 H 2307.01 0.0519134 3.12057 0
M  V30 24660 N 2307.31 -1.53743 0.34653 0
M  V30 24661 C 2308.26 -2.21875 -0.524914 0
M  V30 24662 C 2309.25 -1.2072 -1.06374 0
M  V30 24663 O 2310.44 -1.46253 -0.996946 0
M  V30 24664 C 2307.57 -2.99729 -1.67384 0
M  V30 24665 C 2306.66 -4.08244 -1.14881 0
M  V30 24666 N 2307.05 -5.0462 -0.34524 0
M  V30 24667 C 2305.34 -4.22608 -1.42542 0
M  V30 24668 C 2306.05 -5.81669 -0.0599684 0
M  V30 24669 N 2305.02 -5.39671 -0.652425 0
M  V30 24670 H 2308.82 -2.93743 0.0960607 0
M  V30 24671 H 2306.34 -1.61672 0.153548 0
M  V30 24672 H 2308.33 -3.47042 -2.31014 0
M  V30 24673 H 2306.99 -2.29388 -2.29807 0
M  V30 24674 H 2308.01 -5.17898 0.0139349 0
M  V30 24675 H 2304.68 -3.63489 -2.05382 0
M  V30 24676 H 2306.07 -6.69318 0.588439 0
M  V30 24677 N 2308.79 -0.0752207 -1.5742 0
M  V30 24678 C 2309.74 0.890806 -2.12916 0
M  V30 24679 C 2310.71 1.29307 -1.04254 0
M  V30 24680 O 2311.89 1.37832 -1.31935 0
M  V30 24681 C 2309.03 2.15181 -2.69798 0
M  V30 24682 C 2308.15 1.80188 -3.92628 0
M  V30 24683 C 2307.28 3.00925 -4.37741 0
M  V30 24684 C 2306.32 2.61965 -5.5321 0
M  V30 24685 N 2305.46 3.75472 -5.93266 0
M  V30 24686 H 2310.3 0.410683 -2.95157 0
M  V30 24687 H 2307.84 0.191061 -1.45854 0
M  V30 24688 H 2309.79 2.89003 -3.00888 0
M  V30 24689 H 2308.42 2.60728 -1.90318 0
M  V30 24690 H 2307.48 0.964153 -3.67979 0
M  V30 24691 H 2308.79 1.47526 -4.76485 0
M  V30 24692 H 2307.94 3.83021 -4.7051 0
M  V30 24693 H 2306.68 3.36783 -3.52745 0
M  V30 24694 H 2305.69 1.7829 -5.20089 0
M  V30 24695 H 2306.91 2.27273 -6.3994 0
M  V30 24696 H 2304.86 4.11085 -5.11219 0
M  V30 24697 H 2304.77 3.4659 -6.71872 0
M  V30 24698 H 2306.04 4.58137 -6.30659 0
M  V30 24699 N 2310.27 1.56347 0.198358 0
M  V30 24700 C 2311.68 1.70382 0.763328 0
M  V30 24701 C 2312.03 0.681236 1.83994 0
M  V30 24702 O 2311.16 -0.163012 2.15785 0
M  V30 24703 C 2311.75 3.08911 1.39137 0
M  V30 24704 C 2310.31 3.24723 1.90347 0
M  V30 24705 C 2309.46 2.66332 0.772187 0
M  V30 24706 H 2312.41 1.58678 -0.0266656 0
M  V30 24707 H 2312.43 3.06059 2.2607 0
M  V30 24708 H 2311.94 3.83315 0.607571 0
M  V30 24709 H 2310.04 2.5523 2.71456 0
M  V30 24710 H 2310.16 4.32194 2.0675 0
M  V30 24711 H 2308.52 2.25422 1.18562 0
M  V30 24712 H 2309.3 3.433 0.000675217 0
M  V30 24713 N 2311.75 -0.465951 1.50554 0
M  V30 24714 C 2313.16 -1.04669 1.54601 0
M  V30 24715 C 2313.51 -1.93007 0.352522 0
M  V30 24716 O 2312.64 -2.09708 -0.534007 0
M  V30 24717 C 2313.23 -1.905 2.8017 0
M  V30 24718 C 2311.79 -2.43673 2.8688 0
M  V30 24719 C 2310.94 -1.22147 2.48949 0
M  V30 24720 H 2313.89 -0.248357 1.56745 0
M  V30 24721 H 2313.91 -2.75628 2.62315 0
M  V30 24722 H 2313.42 -1.2618 3.67015 0
M  V30 24723 H 2311.52 -3.11532 2.04398 0
M  V30 24724 H 2311.63 -2.78429 3.8989 0
M  V30 24725 H 2310 -1.55786 2.01501 0
M  V30 24726 H 2310.78 -0.594807 3.38108 0
M  V30 24727 N 2313.23 -1.40218 -0.719481 0
M  V30 24728 C 2314.48 -1.37592 -1.47484 0
M  V30 24729 C 2314.79 0.0201224 -1.9559 0
M  V30 24730 O 2315.99 0.169002 -2.70973 0
M  V30 24731 C 2314.45 -2.41801 -2.66571 0
M  V30 24732 C 2314.06 -3.87196 -2.25351 0
M  V30 24733 C 2315.8 -2.48275 -3.44325 0
M  V30 24734 C 2313.71 -4.83011 -3.41254 0
M  V30 24735 H 2312.64 -0.511585 -0.553892 0
M  V30 24736 H 2315.29 -1.65937 -0.783398 0
M  V30 24737 H 2313.67 -2.06549 -3.37866 0
M  V30 24738 H 2314.85 -4.31571 -1.61501 0
M  V30 24739 H 2313.16 -3.84162 -1.60651 0
M  V30 24740 H 2315.76 -3.17048 -4.30563 0
M  V30 24741 H 2316.1 -1.51205 -3.8787 0
M  V30 24742 H 2316.63 -2.82498 -2.80071 0
M  V30 24743 H 2313.37 -5.814 -3.02745 0
M  V30 24744 H 2312.89 -4.43304 -4.04032 0
M  V30 24745 H 2314.57 -5.02648 -4.07374 0
M  V30 24746 N 2314.7 0.951297 -1.25651 0
M  V30 24747 C 2316.12 1.51104 -1.09656 0
M  V30 24748 C 2316.47 1.93463 0.326581 0
M  V30 24749 O 2315.59 1.7894 1.21694 0
M  V30 24750 C 2316.19 2.74602 -1.98442 0
M  V30 24751 C 2314.75 3.26877 -1.86623 0
M  V30 24752 C 2313.89 1.99699 -1.92394 0
M  V30 24753 H 2316.84 0.767841 -1.38888 0
M  V30 24754 H 2316.86 3.48543 -1.52636 0
M  V30 24755 H 2316.38 2.43741 -3.02013 0
M  V30 24756 H 2314.48 3.62552 -0.859485 0
M  V30 24757 H 2314.59 3.94668 -2.71614 0
M  V30 24758 H 2312.95 2.15148 -1.36321 0
M  V30 24759 H 2313.74 1.71183 -2.97576 0
M  V30 24760 N 2316.18 1.07291 1.1544 0
M  V30 24761 C 2317.09 0.704096 2.23785 0
M  V30 24762 C 2318.11 -0.284383 1.7166 0
M  V30 24763 O 2319.28 -0.13117 2.00972 0
M  V30 24764 C 2316.35 0.106853 3.46535 0
M  V30 24765 C 2315.41 1.14849 4.13652 0
M  V30 24766 C 2314.64 0.579653 5.30543 0
M  V30 24767 O 2314.87 -0.604485 5.67188 0
M  V30 24768 O 2313.8 1.32424 5.87152 0
M  V30 24769 H 2317.63 1.60761 2.57662 0
M  V30 24770 H 2315.21 0.845825 1.23151 0
M  V30 24771 H 2317.09 -0.223974 4.20804 0
M  V30 24772 H 2315.77 -0.769994 3.14409 0
M  V30 24773 H 2314.68 1.53166 3.41308 0
M  V30 24774 H 2316.01 1.99722 4.49858 0
M  V30 24775 N 2317.66 -1.32267 0.856927 0
M  V30 24776 C 2319.08 -1.4993 0.547087 0
M  V30 24777 C 2319.28 -1.79182 -0.92175 0
M  V30 24778 O 2318.33 -1.86273 -1.70466 0
M  V30 24779 C 2319.65 -2.64194 1.43604 0
M  V30 24780 C 2321.19 -2.78079 1.4367 0
M  V30 24781 C 2321.67 -3.95424 2.31092 0
M  V30 24782 N 2323.16 -4.0269 2.289 0
M  V30 24783 C 2323.89 -4.92727 2.9327 0
M  V30 24784 N 2323.39 -5.87757 3.66761 0
M  V30 24785 N 2325.18 -4.85868 2.82646 0
M  V30 24786 H 2317.33 -1.11546 1.80752 0
M  V30 24787 H 2319.6 -0.549984 0.772154 0
M  V30 24788 H 2319.3 -2.49315 2.48063 0
M  V30 24789 H 2319.18 -3.6003 1.12508 0
M  V30 24790 H 2321.56 -2.9238 0.399753 0
M  V30 24791 H 2321.65 -1.82949 1.78783 0
M  V30 24792 H 2321.29 -3.81882 3.34856 0
M  V30 24793 H 2321.22 -4.89835 1.93311 0
M  V30 24794 H 2323.71 -3.34691 1.75471 0
M  V30 24795 H 2324.02 -6.53161 4.13039 0
M  V30 24796 H 2322.37 -5.87776 3.70869 0
M  V30 24797 H 2325.56 -4.10598 2.24781 0
M  V30 24798 H 2325.73 -5.55835 3.33094 0
M  V30 24799 N 2319.14 -0.615084 -1.45102 0
M  V30 24800 C 2320.07 0.0865209 -2.3334 0
M  V30 24801 C 2321.05 0.851183 -1.47271 0
M  V30 24802 O 2322.23 0.82025 -1.76027 0
M  V30 24803 C 2319.36 1.0795 -3.30097 0
M  V30 24804 C 2318.32 0.427553 -4.25859 0
M  V30 24805 C 2317.64 1.52931 -5.12363 0
M  V30 24806 C 2318.94 -0.656035 -5.18164 0
M  V30 24807 H 2320.64 -0.650275 -2.92253 0
M  V30 24808 H 2318.18 -0.314163 -1.40531 0
M  V30 24809 H 2320.14 1.57894 -3.90701 0
M  V30 24810 H 2318.86 1.84699 -2.69359 0
M  V30 24811 H 2317.52 -0.0510936 -3.66564 0
M  V30 24812 H 2317.17 2.28726 -4.47988 0
M  V30 24813 H 2316.87 1.09855 -5.7724 0
M  V30 24814 H 2318.39 2.03087 -5.75837 0
M  V30 24815 H 2319.81 -0.240358 -5.72796 0
M  V30 24816 H 2318.2 -1.00898 -5.91557 0
M  V30 24817 H 2319.27 -1.52965 -4.60141 0
M  V30 24818 N 2320.62 1.53557 -0.354678 0
M  V30 24819 C 2321.84 2.05982 0.242117 0
M  V30 24820 C 2322.27 1.22723 1.42551 0
M  V30 24821 O 2321.63 0.243635 1.79656 0
M  V30 24822 C 2321.67 3.55155 0.624304 0
M  V30 24823 O 2320.78 3.74684 1.72295 0
M  V30 24824 H 2320.12 0.662921 0.0378315 0
M  V30 24825 H 2322.65 1.98087 -0.512121 0
M  V30 24826 H 2322.66 3.97987 0.898363 0
M  V30 24827 H 2321.33 4.15201 -0.241062 0
M  V30 24828 H 2319.91 3.43753 1.44529 0
M  V30 24829 N 2322.1 0.083568 1.57378 0
M  V30 24830 C 2323.51 -0.447326 1.81262 0
M  V30 24831 C 2323.86 -1.689 0.998361 0
M  V30 24832 O 2322.98 -2.15234 0.22432 0
M  V30 24833 C 2323.58 -0.818328 3.28769 0
M  V30 24834 C 2322.14 -1.29402 3.53457 0
M  V30 24835 C 2321.28 -0.284976 2.75832 0
M  V30 24836 H 2324.23 0.309142 1.5566 0
M  V30 24837 H 2324.26 -1.67881 3.41462 0
M  V30 24838 H 2323.77 0.0855701 3.88006 0
M  V30 24839 H 2321.87 -2.21602 2.99538 0
M  V30 24840 H 2321.98 -1.26382 4.6213 0
M  V30 24841 H 2320.35 -0.764725 2.42949 0
M  V30 24842 H 2321.13 0.6114 3.37812 0
M  V30 24843 N 2323.57 -1.5645 -0.190064 0
M  V30 24844 C 2324.48 -1.98154 -1.25587 0
M  V30 24845 C 2325.5 -0.88997 -1.49518 0
M  V30 24846 O 2326.68 -1.19612 -1.62034 0
M  V30 24847 C 2323.74 -2.31695 -2.57912 0
M  V30 24848 C 2322.8 -3.54585 -2.42009 0
M  V30 24849 C 2322.03 -3.86516 -3.68023 0
M  V30 24850 O 2322.26 -3.19668 -4.72407 0
M  V30 24851 O 2321.19 -4.79929 -3.63251 0
M  V30 24852 H 2325.02 -2.89048 -0.931938 0
M  V30 24853 H 2322.6 -1.44071 -0.395463 0
M  V30 24854 H 2324.48 -2.54321 -3.36004 0
M  V30 24855 H 2323.16 -1.43968 -2.89922 0
M  V30 24856 H 2322.07 -3.37199 -1.62011 0
M  V30 24857 H 2323.4 -4.42794 -2.14929 0
M  V30 24858 N 2325.05 0.45796 -1.50799 0
M  V30 24859 C 2326.3 1.20667 -1.62123 0
M  V30 24860 C 2326.62 1.9219 -0.329827 0
M  V30 24861 O 2325.89 1.84683 0.653376 0
M  V30 24862 H 2324.47 0.448401 -0.597449 0
M  V30 24863 H 2327.13 0.527063 -1.87638 0
M  V30 24864 H 2326.23 1.94747 -2.43885 0
M  V30 24865 N 2326.53 1.40598 0.712035 0
M  V30 24866 C 2327.48 1.41145 1.82611 0
M  V30 24867 C 2328.45 0.267932 1.63925 0
M  V30 24868 O 2329.63 0.466527 1.85009 0
M  V30 24869 C 2326.77 1.2833 3.20352 0
M  V30 24870 C 2325.88 2.52417 3.50585 0
M  V30 24871 C 2325.02 2.32017 4.77851 0
M  V30 24872 C 2324.06 3.51663 5.00999 0
M  V30 24873 N 2323.2 3.30436 6.19481 0
M  V30 24874 H 2328.04 2.36368 1.81478 0
M  V30 24875 H 2325.57 1.1739 0.886455 0
M  V30 24876 H 2327.53 1.18906 3.99897 0
M  V30 24877 H 2326.16 0.367245 3.20704 0
M  V30 24878 H 2325.21 2.72356 2.65568 0
M  V30 24879 H 2326.52 3.41464 3.63598 0
M  V30 24880 H 2325.68 2.19966 5.6542 0
M  V30 24881 H 2324.42 1.40401 4.67054 0
M  V30 24882 H 2323.42 3.64187 4.11884 0
M  V30 24883 H 2324.65 4.44211 5.13666 0
M  V30 24884 H 2322.59 2.41505 6.09927 0
M  V30 24885 H 2322.51 4.1305 6.33187 0
M  V30 24886 H 2323.78 3.22125 7.09828 0
M  V30 24887 N 2328.01 -0.94462 1.26153 0
M  V30 24888 C 2329.28 -1.66746 1.0225 0
M  V30 24889 C 2329.66 -2.06288 -0.448165 0
M  V30 24890 O 2329.01 -1.78402 -1.42776 0
M  V30 24891 C 2329.22 -2.88225 1.96793 0
M  V30 24892 C 2330.57 -3.59954 2.25208 0
M  V30 24893 O 2331.59 -2.98324 1.94631 0
M  V30 24894 O 2330.45 -4.70951 2.7725 0
M  V30 24895 H 2327.55 -0.73005 0.38853 0
M  V30 24896 H 2330.09 -0.996656 1.37349 0
M  V30 24897 H 2328.87 -2.5587 2.96051 0
M  V30 24898 H 2328.49 -3.63033 1.62152 0
M  V30 24899 N 2329.49 -1.07901 -1.1487 0
M  V30 24900 C 2330.73 -0.805565 -1.85787 0
M  V30 24901 C 2331.06 0.668529 -1.8265 0
M  V30 24902 O 2330.32 1.50693 -1.24861 0
M  V30 24903 C 2330.61 -1.26614 -3.34221 0
M  V30 24904 C 2330.28 -2.74716 -3.5755 0
M  V30 24905 C 2328.94 -3.15166 -3.63626 0
M  V30 24906 C 2331.29 -3.70283 -3.66797 0
M  V30 24907 C 2328.62 -4.4999 -3.76465 0
M  V30 24908 C 2330.97 -5.04875 -3.81161 0
M  V30 24909 C 2329.64 -5.44939 -3.85484 0
M  V30 24910 H 2328.91 -0.294777 -0.679844 0
M  V30 24911 H 2331.56 -1.35103 -1.35718 0
M  V30 24912 H 2329.86 -0.640171 -3.86535 0
M  V30 24913 H 2331.56 -1.03139 -3.87509 0
M  V30 24914 H 2328.15 -2.42405 -3.53466 0
M  V30 24915 H 2332.33 -3.40155 -3.61398 0
M  V30 24916 H 2327.59 -4.80491 -3.78072 0
M  V30 24917 H 2331.76 -5.78796 -3.87258 0
M  V30 24918 H 2329.39 -6.49409 -3.95185 0
M  V30 24919 N 2330.96 1.31811 -0.863929 0
M  V30 24920 C 2331.89 2.31144 -0.330883 0
M  V30 24921 C 2332.87 1.60088 0.574977 0
M  V30 24922 O 2334.06 1.87831 0.493271 0
M  V30 24923 C 2331.19 3.44055 0.473679 0
M  V30 24924 C 2330.14 4.26659 -0.338556 0
M  V30 24925 C 2329.47 5.3142 0.591318 0
M  V30 24926 C 2330.77 4.98165 -1.56935 0
M  V30 24927 H 2332.46 2.75977 -1.16091 0
M  V30 24928 H 2330.01 1.32678 -0.559681 0
M  V30 24929 H 2331.96 4.12592 0.857071 0
M  V30 24930 H 2330.69 2.97973 1.33716 0
M  V30 24931 H 2329.35 3.5978 -0.703818 0
M  V30 24932 H 2328.99 4.8159 1.4519 0
M  V30 24933 H 2328.69 5.87577 0.0517989 0
M  V30 24934 H 2330.22 6.02819 0.971685 0
M  V30 24935 H 2331.63 5.59333 -1.25774 0
M  V30 24936 H 2330.03 5.6409 -2.04749 0
M  V30 24937 H 2331.1 4.25497 -2.32552 0
M  V30 24938 N 2332.44 0.62277 1.44773 0
M  V30 24939 C 2333.67 0.129004 2.06998 0
M  V30 24940 C 2334.09 -1.18387 1.46172 0
M  V30 24941 O 2333.45 -1.72433 0.560037 0
M  V30 24942 C 2333.5 0.0188985 3.60595 0
M  V30 24943 O 2332.6 -1.02732 3.99399 0
M  V30 24944 H 2331.94 0.0809659 0.659045 0
M  V30 24945 H 2334.47 0.857083 1.85783 0
M  V30 24946 H 2334.48 -0.174404 4.07627 0
M  V30 24947 H 2333.16 0.977455 4.04251 0
M  V30 24948 H 2331.73 -0.809262 3.64013 0
M  V30 24949 N 2333.92 -1.53367 0.362817 0
M  V30 24950 C 2334.87 -2.2242 -0.501352 0
M  V30 24951 C 2335.85 -1.21842 -1.05088 0
M  V30 24952 O 2337.05 -1.47302 -0.981378 0
M  V30 24953 C 2334.17 -3.01487 -1.64196 0
M  V30 24954 C 2333.26 -4.09439 -1.10545 0
M  V30 24955 N 2333.65 -5.04958 -0.291699 0
M  V30 24956 C 2331.95 -4.24096 -1.38052 0
M  V30 24957 C 2332.65 -5.817 0.0017288 0
M  V30 24958 N 2331.63 -5.40332 -0.595149 0
M  V30 24959 H 2335.43 -2.93625 0.127211 0
M  V30 24960 H 2332.94 -1.61501 0.170687 0
M  V30 24961 H 2334.94 -3.49473 -2.2732 0
M  V30 24962 H 2333.6 -2.31813 -2.27361 0
M  V30 24963 H 2334.61 -5.17854 0.0688642 0
M  V30 24964 H 2331.29 -3.65647 -2.01515 0
M  V30 24965 H 2332.68 -6.68657 0.659396 0
M  V30 24966 N 2335.4 -0.091913 -1.57332 0
M  V30 24967 C 2336.64 0.575954 -1.96118 0
M  V30 24968 C 2337 1.65547 -0.972528 0
M  V30 24969 O 2338.2 2.38032 -1.24877 0
M  V30 24970 C 2336.47 1.11967 -3.39409 0
M  V30 24971 S 2338.03 1.79985 -4.00189 0
M  V30 24972 H 2334.85 0.188033 -0.685686 0
M  V30 24973 H 2337.45 -0.170559 -1.94755 0
M  V30 24974 H 2336.16 0.322433 -4.09131 0
M  V30 24975 H 2335.69 1.90208 -3.44361 0
M  V30 24976 H 2337.7 3.08385 -3.88733 0
M  V30 24977 N 2336.88 1.56548 0.181765 0
M  V30 24978 C 2337.81 1.98625 1.22761 0
M  V30 24979 C 2338.79 0.860215 1.46746 0
M  V30 24980 O 2339.97 1.12553 1.58257 0
M  V30 24981 C 2337.1 2.3372 2.5689 0
M  V30 24982 C 2336.06 3.49186 2.47494 0
M  V30 24983 C 2335.38 3.69993 3.86017 0
M  V30 24984 C 2336.68 4.82963 1.98857 0
M  V30 24985 H 2338.38 2.8624 0.877892 0
M  V30 24986 H 2335.92 1.37713 0.420856 0
M  V30 24987 H 2337.88 2.61752 3.30248 0
M  V30 24988 H 2336.6 1.43002 2.93629 0
M  V30 24989 H 2335.26 3.21265 1.7659 0
M  V30 24990 H 2334.91 2.76584 4.20132 0
M  V30 24991 H 2334.61 4.47679 3.80601 0
M  V30 24992 H 2336.13 4.00415 4.60977 0
M  V30 24993 H 2337.54 5.09939 2.61983 0
M  V30 24994 H 2335.94 5.64212 2.04414 0
M  V30 24995 H 2337.01 4.75654 0.942381 0
M  V30 24996 N 2338.35 -0.449957 1.5104 0
M  V30 24997 C 2339.26 -1.57064 1.74264 0
M  V30 24998 C 2340.28 -1.62334 0.626391 0
M  V30 24999 O 2341.46 -1.79811 0.907194 0
M  V30 25000 C 2338.52 -2.93141 1.8512 0
M  V30 25001 C 2337.58 -2.9809 3.08935 0
M  V30 25002 C 2336.82 -4.27676 3.19263 0
M  V30 25003 O 2337.04 -5.19359 2.35844 0
M  V30 25004 O 2335.97 -4.38651 4.12152 0
M  V30 25005 H 2339.8 -1.40386 2.69305 0
M  V30 25006 H 2337.38 -0.631665 1.3539 0
M  V30 25007 H 2339.27 -3.73923 1.94318 0
M  V30 25008 H 2337.94 -3.09973 0.932643 0
M  V30 25009 H 2336.85 -2.16309 3.05224 0
M  V30 25010 H 2338.18 -2.86199 4.00438 0
M  V30 25011 N 2339.83 -1.40974 -0.704569 0
M  V30 25012 C 2341.06 -1.4338 -1.49856 0
M  V30 25013 C 2341.48 -0.0382171 -1.88061 0
M  V30 25014 O 2340.84 0.956398 -1.54022 0
M  V30 25015 C 2340.89 -2.34043 -2.74329 0
M  V30 25016 O 2339.99 -1.79127 -3.71466 0
M  V30 25017 H 2339.33 -0.486982 -0.451381 0
M  V30 25018 H 2341.86 -1.85331 -0.8668 0
M  V30 25019 H 2341.87 -2.49609 -3.22737 0
M  V30 25020 H 2340.55 -3.35451 -2.45857 0
M  V30 25021 H 2339.13 -1.72964 -3.3036 0
M  V30 25022 N 2341.31 0.937917 -1.26653 0
M  V30 25023 C 2342.59 1.66202 -1.03132 0
M  V30 25024 C 2342.97 2.06523 0.437219 0
M  V30 25025 O 2342.32 1.79156 1.41828 0
M  V30 25026 C 2342.53 2.87177 -1.98319 0
M  V30 25027 C 2343.87 3.58754 -2.27113 0
M  V30 25028 O 2344.9 2.97287 -1.96211 0
M  V30 25029 O 2343.76 4.69474 -2.79744 0
M  V30 25030 H 2340.85 0.727979 -0.392396 0
M  V30 25031 H 2343.4 0.989358 -1.37876 0
M  V30 25032 H 2342.17 2.54296 -2.97404 0
M  V30 25033 H 2341.79 3.62167 -1.64075 0
M  V30 25034 N 2342.79 1.08509 1.14296 0
M  V30 25035 C 2344.2 0.836257 1.66924 0
M  V30 25036 C 2344.55 -0.636828 1.85577 0
M  V30 25037 O 2343.68 -1.49172 1.5677 0
M  V30 25038 C 2344.27 1.51147 3.03216 0
M  V30 25039 C 2342.83 1.30985 3.52874 0
M  V30 25040 C 2341.98 1.5736 2.28327 0
M  V30 25041 H 2344.93 1.24553 0.983469 0
M  V30 25042 H 2344.95 0.939276 3.68725 0
M  V30 25043 H 2344.46 2.58358 2.89608 0
M  V30 25044 H 2342.56 0.258494 3.71702 0
M  V30 25045 H 2342.67 2.03821 4.33582 0
M  V30 25046 H 2341.04 0.995206 2.34452 0
M  V30 25047 H 2341.82 2.65779 2.17294 0
M  V30 25048 N 2344.27 -1.31351 0.870907 0
M  V30 25049 C 2345.21 -2.28494 0.325465 0
M  V30 25050 C 2346.18 -1.55771 -0.576588 0
M  V30 25051 O 2347.37 -1.83912 -0.508026 0
M  V30 25052 C 2344.51 -3.41936 -0.466223 0
M  V30 25053 C 2343.62 -4.29507 0.463454 0
M  V30 25054 C 2342.76 -5.30095 -0.342451 0
M  V30 25055 C 2341.8 -6.09312 0.583593 0
M  V30 25056 N 2340.93 -7.01853 -0.18612 0
M  V30 25057 H 2345.77 -2.74536 1.15906 0
M  V30 25058 H 2343.31 -1.35055 0.582963 0
M  V30 25059 H 2345.27 -4.06449 -0.941013 0
M  V30 25060 H 2343.9 -2.97002 -1.26451 0
M  V30 25061 H 2342.95 -3.65429 1.05669 0
M  V30 25062 H 2344.26 -4.848 1.17349 0
M  V30 25063 H 2343.42 -6.00288 -0.87971 0
M  V30 25064 H 2342.15 -4.7546 -1.08577 0
M  V30 25065 H 2341.16 -5.38008 1.1326 0
M  V30 25066 H 2342.38 -6.66033 1.32578 0
M  V30 25067 H 2340.33 -6.49626 -0.912234 0
M  V30 25068 H 2340.25 -7.54571 0.464555 0
M  V30 25069 H 2341.52 -7.76309 -0.70458 0
M  V30 25070 N 2345.74 -0.630439 -1.44441 0
M  V30 25071 C 2346.68 0.124207 -2.27862 0
M  V30 25072 C 2347.66 0.851907 -1.38497 0
M  V30 25073 O 2348.84 0.856136 -1.67936 0
M  V30 25074 C 2345.97 1.18191 -3.17409 0
M  V30 25075 C 2345.01 0.554817 -4.22876 0
M  V30 25076 S 2345.85 -0.654583 -5.31484 0
M  V30 25077 C 2347 0.40315 -6.246 0
M  V30 25078 H 2347.23 -0.583486 -2.91518 0
M  V30 25079 H 2344.77 -0.418591 -1.48618 0
M  V30 25080 H 2346.73 1.78722 -3.69552 0
M  V30 25081 H 2345.39 1.86179 -2.52974 0
M  V30 25082 H 2344.58 1.3514 -4.85544 0
M  V30 25083 H 2344.18 0.0241448 -3.73992 0
M  V30 25084 H 2346.47 1.2759 -6.65377 0
M  V30 25085 H 2347.42 -0.187937 -7.07851 0
M  V30 25086 H 2347.82 0.728739 -5.59776 0
M  V30 25087 N 2347.22 1.53172 -0.370945 0
M  V30 25088 C 2348.64 1.59587 -0.0201098 0
M  V30 25089 C 2348.84 1.38583 1.46277 0
M  V30 25090 O 2347.89 1.19367 2.22504 0
M  V30 25091 C 2349.21 2.9683 -0.480852 0
M  V30 25092 C 2350.76 3.09955 -0.435532 0
M  V30 25093 C 2351.23 4.49619 -0.872171 0
M  V30 25094 N 2352.72 4.55749 -0.827444 0
M  V30 25095 C 2353.46 5.62016 -1.13692 0
M  V30 25096 N 2352.95 6.76011 -1.51595 0
M  V30 25097 N 2354.75 5.52027 -1.05937 0
M  V30 25098 H 2346.9 1.65076 -1.33655 0
M  V30 25099 H 2349.16 0.77452 -0.546647 0
M  V30 25100 H 2348.87 3.17357 -1.51583 0
M  V30 25101 H 2348.74 3.76977 0.129729 0
M  V30 25102 H 2351.13 2.89135 0.59032 0
M  V30 25103 H 2351.21 2.31805 -1.08168 0
M  V30 25104 H 2350.85 4.71177 -1.89616 0
M  V30 25105 H 2350.78 5.26208 -0.20322 0
M  V30 25106 H 2353.27 3.73901 -0.548282 0
M  V30 25107 H 2353.59 7.53044 -1.73622 0
M  V30 25108 H 2351.93 6.77389 -1.55466 0
M  V30 25109 H 2355.12 4.6185 -0.762402 0
M  V30 25110 H 2355.29 6.34746 -1.30389 0
M  V30 25111 N 2348.7 0.100255 1.57281 0
M  V30 25112 C 2349.95 -0.556912 1.95627 0
M  V30 25113 C 2350.3 -1.65471 0.981684 0
M  V30 25114 O 2349.59 -1.91598 0.00853215 0
M  V30 25115 C 2349.79 -1.15253 3.38307 0
M  V30 25116 C 2349.62 -0.113956 4.49556 0
M  V30 25117 C 2348.39 0.311354 5.0434 0
M  V30 25118 C 2350.59 0.659858 5.10049 0
M  V30 25119 N 2348.57 1.33766 5.99149 0
M  V30 25120 C 2349.94 1.53785 6.00625 0
M  V30 25121 C 2351.99 0.71281 4.92771 0
M  V30 25122 C 2350.7 2.46414 6.75775 0
M  V30 25123 C 2352.72 1.62673 5.68587 0
M  V30 25124 C 2352.08 2.49234 6.58834 0
M  V30 25125 H 2348.18 -0.173968 0.762403 0
M  V30 25126 H 2350.77 0.184022 1.93828 0
M  V30 25127 H 2348.94 -1.86326 3.40789 0
M  V30 25128 H 2350.67 -1.77248 3.6382 0
M  V30 25129 H 2347.43 -0.077398 4.73537 0
M  V30 25130 H 2347.85 1.84917 6.51256 0
M  V30 25131 H 2352.49 0.0577391 4.22761 0
M  V30 25132 H 2350.21 3.12944 7.45045 0
M  V30 25133 H 2353.8 1.6729 5.5723 0
M  V30 25134 H 2352.68 3.18804 7.16473 0
M  V30 25135 N 2350.18 -1.56643 -0.17346 0
M  V30 25136 C 2351.41 -1.86006 -0.906062 0
M  V30 25137 C 2351.82 -0.685386 -1.7592 0
M  V30 25138 O 2351.18 0.345547 -1.79199 0
M  V30 25139 C 2351.23 -3.14381 -1.78456 0
M  V30 25140 O 2350.95 -4.27321 -0.965839 0
M  V30 25141 C 2352.45 -3.57076 -2.62701 0
M  V30 25142 H 2349.67 -0.61717 -0.26333 0
M  V30 25143 H 2352.22 -2.03757 -0.1742 0
M  V30 25144 H 2350.37 -2.98463 -2.46979 0
M  V30 25145 H 2350.79 -5.00562 -1.56646 0
M  V30 25146 H 2352.26 -4.4981 -3.19961 0
M  V30 25147 H 2352.74 -2.81092 -3.37467 0
M  V30 25148 H 2353.34 -3.75599 -1.99514 0
M  V30 25149 N 2351.66 0.44194 -1.51277 0
M  V30 25150 C 2352.62 1.51859 -1.71673 0
M  V30 25151 C 2353.62 1.4971 -0.58682 0
M  V30 25152 O 2354.81 1.51813 -0.854303 0
M  V30 25153 C 2351.94 2.91413 -1.76894 0
M  V30 25154 H 2353.14 1.3508 -2.67756 0
M  V30 25155 H 2350.69 0.670308 -1.41197 0
M  V30 25156 H 2351.42 3.13602 -0.826081 0
M  V30 25157 H 2351.21 2.94378 -2.59006 0
M  V30 25158 H 2352.7 3.69525 -1.94528 0
M  V30 25159 N 2353.14 1.41345 0.697083 0
M  V30 25160 C 2354.36 1.44173 1.49093 0
M  V30 25161 C 2354.79 0.0481899 1.88038 0
M  V30 25162 O 2354.14 -0.948216 1.54527 0
M  V30 25163 C 2354.19 2.35495 2.73084 0
M  V30 25164 O 2353.3 1.81094 3.70511 0
M  V30 25165 H 2352.64 0.489369 0.448792 0
M  V30 25166 H 2355.17 1.85789 0.856959 0
M  V30 25167 H 2355.18 2.51317 3.21409 0
M  V30 25168 H 2353.85 3.3675 2.44075 0
M  V30 25169 H 2352.43 1.74714 3.29438 0
M  V30 25170 N 2354.61 -0.931187 1.27148 0
M  V30 25171 C 2355.55 -2.03544 1.05368 0
M  V30 25172 C 2356.56 -1.62796 0.0108724 0
M  V30 25173 O 2357.75 -1.76711 0.252051 0
M  V30 25174 C 2354.85 -3.33976 0.575625 0
M  V30 25175 C 2354.02 -4.03436 1.68992 0
M  V30 25176 C 2353.08 -5.12141 1.20822 0
M  V30 25177 O 2352.11 -5.36297 1.90721 0
M  V30 25178 N 2353.31 -5.80467 0.0619871 0
M  V30 25179 H 2356.07 -2.22793 2.00458 0
M  V30 25180 H 2353.63 -1.10134 1.18668 0
M  V30 25181 H 2355.63 -4.04003 0.237335 0
M  V30 25182 H 2354.2 -3.11326 -0.281961 0
M  V30 25183 H 2353.42 -3.27188 2.19867 0
M  V30 25184 H 2354.7 -4.46592 2.43788 0
M  V30 25185 H 2354.1 -5.63291 -0.521522 0
M  V30 25186 H 2352.66 -6.51438 -0.21715 0
M  V30 25187 N 2356.09 -1.09114 -1.13719 0
M  V30 25188 C 2357.02 -0.749423 -2.21147 0
M  V30 25189 C 2358 0.271446 -1.6792 0
M  V30 25190 O 2359.19 0.140217 -1.93693 0
M  V30 25191 C 2356.32 -0.16572 -3.46904 0
M  V30 25192 C 2355.27 -1.11574 -4.13201 0
M  V30 25193 C 2354.6 -0.393903 -5.33247 0
M  V30 25194 C 2355.9 -2.45686 -4.60908 0
M  V30 25195 H 2357.59 -1.64763 -2.49987 0
M  V30 25196 H 2355.14 -0.793647 -1.20155 0
M  V30 25197 H 2357.09 0.0853919 -4.21313 0
M  V30 25198 H 2355.81 0.767658 -3.1745 0
M  V30 25199 H 2354.47 -1.35208 -3.40756 0
M  V30 25200 H 2354.12 0.543511 -5.00055 0
M  V30 25201 H 2353.82 -1.02731 -5.7855 0
M  V30 25202 H 2355.35 -0.151015 -6.10413 0
M  V30 25203 H 2356.76 -2.26278 -5.26755 0
M  V30 25204 H 2355.16 -3.04785 -5.16939 0
M  V30 25205 H 2356.23 -3.06684 -3.75597 0
M  V30 25206 N 2357.57 1.30887 -0.877861 0
M  V30 25207 C 2358.5 2.3078 -0.355381 0
M  V30 25208 C 2359.48 1.60688 0.557965 0
M  V30 25209 O 2360.67 1.88344 0.473322 0
M  V30 25210 C 2357.8 3.44538 0.437161 0
M  V30 25211 C 2356.75 4.26276 -0.38379 0
M  V30 25212 C 2356.08 5.32018 0.534921 0
M  V30 25213 C 2357.38 4.96473 -1.6221 0
M  V30 25214 H 2359.07 2.7473 -1.19012 0
M  V30 25215 H 2356.62 1.32077 -0.573722 0
M  V30 25216 H 2358.57 4.13478 0.813261 0
M  V30 25217 H 2357.29 2.99374 1.30548 0
M  V30 25218 H 2355.95 3.59014 -0.741938 0
M  V30 25219 H 2355.6 4.83103 1.40074 0
M  V30 25220 H 2355.3 5.87599 -0.0105244 0
M  V30 25221 H 2356.82 6.03816 0.907693 0
M  V30 25222 H 2358.24 5.57968 -1.31699 0
M  V30 25223 H 2356.63 5.61887 -2.10721 0
M  V30 25224 H 2357.7 4.23006 -2.37052 0
M  V30 25225 N 2359.05 0.638091 1.44105 0
M  V30 25226 C 2360.32 0.0759664 1.95452 0
M  V30 25227 C 2360.7 -1.40012 1.57987 0
M  V30 25228 O 2360.05 -2.11804 0.857398 0
M  V30 25229 C 2360.26 0.306193 3.47654 0
M  V30 25230 C 2361.61 0.203083 4.24114 0
M  V30 25231 O 2362.63 0.237933 3.55404 0
M  V30 25232 O 2361.49 0.113923 5.46381 0
M  V30 25233 H 2358.59 -0.0183187 0.826797 0
M  V30 25234 H 2361.13 0.710278 1.54121 0
M  V30 25235 H 2359.91 1.33016 3.67998 0
M  V30 25236 H 2359.53 -0.361921 3.95949 0
M  V30 25237 N 2360.53 -1.52973 0.379063 0
M  V30 25238 C 2361.48 -2.22939 -0.477733 0
M  V30 25239 C 2362.46 -1.22949 -1.03789 0
M  V30 25240 O 2363.65 -1.48335 -0.965699 0
M  V30 25241 C 2360.78 -3.03212 -1.60989 0
M  V30 25242 C 2359.87 -4.10589 -1.06196 0
M  V30 25243 N 2360.26 -5.05239 -0.238125 0
M  V30 25244 C 2358.56 -4.25537 -1.33546 0
M  V30 25245 C 2359.26 -5.81665 0.0634258 0
M  V30 25246 N 2358.23 -5.40933 -0.537806 0
M  V30 25247 H 2362.03 -2.93473 0.158346 0
M  V30 25248 H 2359.55 -1.6131 0.187807 0
M  V30 25249 H 2361.55 -3.51864 -2.23601 0
M  V30 25250 H 2360.21 -2.34211 -2.24889 0
M  V30 25251 H 2361.22 -5.17752 0.123786 0
M  V30 25252 H 2357.89 -3.67764 -1.97626 0
M  V30 25253 H 2359.28 -6.6792 0.730279 0
M  V30 25254 N 2362 -0.108595 -1.57225 0
M  V30 25255 C 2363.23 0.563268 -1.99605 0
M  V30 25256 C 2363.65 1.60088 -0.987591 0
M  V30 25257 O 2363.01 1.81251 0.0421369 0
M  V30 25258 C 2363.06 1.17546 -3.40904 0
M  V30 25259 O 2362.16 2.29114 -3.429 0
M  V30 25260 H 2361.5 0.141689 -0.648707 0
M  V30 25261 H 2364.03 -0.193996 -2.03678 0
M  V30 25262 H 2364.04 1.51351 -3.78889 0
M  V30 25263 H 2362.72 0.415372 -4.13821 0
M  V30 25264 H 2361.3 1.96827 -3.16723 0
M  V30 25265 N 2363.48 1.56732 0.16515 0
M  V30 25266 C 2364.73 1.82342 0.880775 0
M  V30 25267 C 2365.06 0.686653 1.81976 0
M  V30 25268 O 2364.31 -0.325663 1.92971 0
M  V30 25269 C 2364.61 3.14163 1.704 0
M  V30 25270 C 2364.28 4.41552 0.913397 0
M  V30 25271 C 2362.94 4.76151 0.69522 0
M  V30 25272 C 2365.29 5.1996 0.359257 0
M  V30 25273 C 2362.62 5.86634 -0.0880978 0
M  V30 25274 C 2364.97 6.31263 -0.411004 0
M  V30 25275 C 2363.63 6.64425 -0.639925 0
M  V30 25276 H 2362.9 0.667237 0.322299 0
M  V30 25277 H 2365.55 1.90947 0.145369 0
M  V30 25278 H 2363.86 3.00928 2.50898 0
M  V30 25279 H 2365.55 3.3119 2.26085 0
M  V30 25280 H 2362.14 4.14416 1.09349 0
M  V30 25281 H 2366.33 4.93619 0.515141 0
M  V30 25282 H 2361.58 6.10781 -0.275137 0
M  V30 25283 H 2365.76 6.91222 -0.847615 0
M  V30 25284 H 2363.38 7.49873 -1.24877 0
M  V30 25285 N 2364.96 -0.433911 1.51509 0
M  V30 25286 C 2366.21 -1.18481 1.64591 0
M  V30 25287 C 2366.54 -1.90783 0.362699 0
M  V30 25288 O 2365.81 -1.83743 -0.637859 0
M  V30 25289 C 2366.1 -2.19908 2.85153 0
M  V30 25290 C 2365.95 -1.51667 4.23459 0
M  V30 25291 C 2367.27 -3.20853 3.01233 0
M  V30 25292 H 2364.39 -0.429378 0.599002 0
M  V30 25293 H 2367.03 -0.473615 1.84002 0
M  V30 25294 H 2365.18 -2.80561 2.68733 0
M  V30 25295 H 2366.85 -0.943243 4.51554 0
M  V30 25296 H 2365.1 -0.81896 4.25999 0
M  V30 25297 H 2365.77 -2.25551 5.03816 0
M  V30 25298 H 2368.24 -2.70257 3.16386 0
M  V30 25299 H 2367.12 -3.89111 3.87148 0
M  V30 25300 H 2367.38 -3.87156 2.13454 0
M  V30 25301 N 2366.44 -1.41713 -0.689577 0
M  V30 25302 C 2367.39 -1.44033 -1.80342 0
M  V30 25303 C 2368.36 -0.293977 -1.63478 0
M  V30 25304 O 2369.54 -0.495902 -1.84243 0
M  V30 25305 C 2366.68 -1.3341 -3.1827 0
M  V30 25306 C 2365.79 -2.57963 -3.46525 0
M  V30 25307 C 2364.93 -2.3959 -4.74099 0
M  V30 25308 C 2363.97 -3.59589 -4.95341 0
M  V30 25309 N 2363.1 -3.4025 -6.14145 0
M  V30 25310 H 2367.94 -2.39225 -1.77694 0
M  V30 25311 H 2365.48 -1.18785 -0.867667 0
M  V30 25312 H 2367.44 -1.25253 -3.97954 0
M  V30 25313 H 2366.07 -0.41822 -3.20079 0
M  V30 25314 H 2365.12 -2.76546 -2.61202 0
M  V30 25315 H 2366.43 -3.47206 -3.5812 0
M  V30 25316 H 2365.59 -2.28934 -5.61849 0
M  V30 25317 H 2364.33 -1.47813 -4.64761 0
M  V30 25318 H 2363.33 -3.70693 -4.06038 0
M  V30 25319 H 2364.56 -4.52327 -5.06534 0
M  V30 25320 H 2362.5 -2.51177 -6.06008 0
M  V30 25321 H 2362.42 -4.23072 -6.26535 0
M  V30 25322 H 2363.69 -3.33377 -7.04613 0
M  V30 25323 N 2367.92 0.924431 -1.2764 0
M  V30 25324 C 2369.16 1.67495 -1.14339 0
M  V30 25325 C 2369.5 1.91719 0.309431 0
M  V30 25326 O 2368.77 1.50991 1.22605 0
M  V30 25327 C 2369.05 3.03947 -1.93102 0
M  V30 25328 C 2368.91 2.86943 -3.46386 0
M  V30 25329 C 2370.23 4.04327 -1.73805 0
M  V30 25330 H 2367.34 0.607864 -0.416738 0
M  V30 25331 H 2369.99 1.07253 -1.56834 0
M  V30 25332 H 2368.14 3.55369 -1.56988 0
M  V30 25333 H 2369.81 2.42614 -3.92347 0
M  V30 25334 H 2368.05 2.22219 -3.72561 0
M  V30 25335 H 2368.72 3.83797 -3.96742 0
M  V30 25336 H 2371.2 3.61927 -2.05299 0
M  V30 25337 H 2370.07 4.97785 -2.31303 0
M  V30 25338 H 2370.34 4.36733 -0.686802 0
M  V30 25339 N 2369.39 1.09715 1.13139 0
M  V30 25340 C 2370.63 0.844716 1.86129 0
M  V30 25341 C 2371 -0.618459 1.81767 0
M  V30 25342 O 2372.2 -0.986946 2.50026 0
M  V30 25343 C 2370.47 1.36883 3.30148 0
M  V30 25344 S 2372.03 1.25071 4.20598 0
M  V30 25345 H 2368.85 0.305438 0.64205 0
M  V30 25346 H 2371.45 1.40112 1.36341 0
M  V30 25347 H 2370.15 2.42791 3.30878 0
M  V30 25348 H 2369.68 0.808681 3.84999 0
M  V30 25349 H 2371.7 0.203574 4.95782 0
M  V30 25350 N 2370.87 -1.30419 0.88479 0
M  V30 25351 C 2372.1 -2.00309 0.51808 0
M  V30 25352 C 2372.52 -1.66326 -0.893378 0
M  V30 25353 O 2371.87 -0.90029 -1.58748 0
M  V30 25354 C 2371.92 -3.54988 0.68306 0
M  V30 25355 O 2371.64 -3.87761 2.03895 0
M  V30 25356 C 2373.15 -4.42148 0.319317 0
M  V30 25357 H 2370.37 -0.640414 0.200277 0
M  V30 25358 H 2372.91 -1.66308 1.19004 0
M  V30 25359 H 2371.06 -3.87356 0.0584733 0
M  V30 25360 H 2371.48 -4.82462 2.05744 0
M  V30 25361 H 2372.95 -5.49859 0.485652 0
M  V30 25362 H 2373.43 -4.32876 -0.74264 0
M  V30 25363 H 2374.04 -4.15225 0.92022 0
M  V30 25364 N 2372.35 -0.645724 -1.43764 0
M  V30 25365 C 2373.63 -0.0863307 -1.95409 0
M  V30 25366 C 2374.01 1.39172 -1.58727 0
M  V30 25367 O 2373.36 2.11346 -0.868619 0
M  V30 25368 C 2373.57 -0.324626 -3.47487 0
M  V30 25369 C 2374.91 -0.225572 -4.24 0
M  V30 25370 O 2375.94 -0.256778 -3.55273 0
M  V30 25371 O 2374.8 -0.142897 -5.46313 0
M  V30 25372 H 2371.89 0.0139337 -0.826883 0
M  V30 25373 H 2374.44 -0.718442 -1.53742 0
M  V30 25374 H 2373.21 -1.34966 -3.67287 0
M  V30 25375 H 2372.83 0.340918 -3.96136 0
M  V30 25376 N 2373.83 1.5277 -0.38717 0
M  V30 25377 C 2374.74 2.30118 0.456401 0
M  V30 25378 C 2375.75 1.36946 1.0734 0
M  V30 25379 O 2376.93 1.70015 1.07968 0
M  V30 25380 C 2374 3.09139 1.56952 0
M  V30 25381 C 2373.06 4.18015 0.977842 0
M  V30 25382 C 2372.29 4.93259 2.03791 0
M  V30 25383 O 2372.51 4.68573 3.25263 0
M  V30 25384 O 2371.45 5.7866 1.6564 0
M  V30 25385 H 2375.27 3.03203 -0.173643 0
M  V30 25386 H 2372.86 1.48636 -0.150945 0
M  V30 25387 H 2374.74 3.58416 2.21621 0
M  V30 25388 H 2373.41 2.38869 2.18456 0
M  V30 25389 H 2372.32 3.72939 0.29446 0
M  V30 25390 H 2373.65 4.90514 0.407042 0
M  V30 25391 N 2375.31 0.116931 1.57166 0
M  V30 25392 C 2376.22 -0.847774 2.18746 0
M  V30 25393 C 2377.23 -1.29421 1.16302 0
M  V30 25394 O 2378.41 -1.35762 1.48763 0
M  V30 25395 C 2375.47 -2.08085 2.77311 0
M  V30 25396 C 2374.53 -1.68654 3.94784 0
M  V30 25397 C 2373.77 -2.86083 4.50546 0
M  V30 25398 O 2373.99 -4.01449 4.05209 0
M  V30 25399 O 2372.92 -2.63288 5.41261 0
M  V30 25400 H 2376.75 -0.353725 3.01633 0
M  V30 25401 H 2374.34 -0.108573 1.49005 0
M  V30 25402 H 2376.22 -2.80307 3.14652 0
M  V30 25403 H 2374.89 -2.56501 1.97457 0
M  V30 25404 H 2373.8 -0.935454 3.62215 0
M  V30 25405 H 2375.13 -1.24982 4.76068 0
M  V30 25406 O 2376.82 -1.61484 -0.0225129 0
M  V30 25407 H 2377.51 -1.82744 -0.642202 0
M  V30 END ATOM
M  V30 BEGIN BOND
M  V30 END BOND
M  V30 END CTAB
M  END
$$$$
