drugbank_target|P83794 Cytochrome b6-f complex iron-sulfur subunit (DB04646; DB08453)
 OpenBabel12092120223D

  0  0  0     0  0            999 V3000
M  V30 BEGIN CTAB
M  V30 COUNTS 2712 2746 0 0 0
M  V30 BEGIN ATOM
M  V30 1 H -0.908 1.98254 -0.117106 0
M  V30 2 N 0 1.576 0 0
M  V30 3 C 0.933 2.03868 1.02534 0
M  V30 4 C 1.911 0.928543 1.3348 0
M  V30 5 O 3.095 1.19667 1.45644 0
M  V30 6 C 0.222 2.43627 2.35294 0
M  V30 7 C -0.732 3.65373 2.2001 0
M  V30 8 S 0.101 5.13292 1.52614 0
M  V30 9 C 1.257 5.56322 2.86805 0
M  V30 10 H 1.49 2.90518 0.631377 0
M  V30 11 H -0.977 1.52953 0.210867 0
M  V30 12 H 0.981 2.67203 3.11629 0
M  V30 13 H -0.358 1.57376 2.7183 0
M  V30 14 H -1.165 3.90944 3.18086 0
M  V30 15 H -1.563 3.418 1.51819 0
M  V30 16 H 0.729 5.58782 3.83104 0
M  V30 17 H 1.672 6.56266 2.65933 0
M  V30 18 H 2.08 4.83886 2.90714 0
M  V30 19 N 1.4781 -0.272755 1.55222 0
M  V30 20 C 2.4411 -1.32041 1.87344 0
M  V30 21 C 3.4411 -1.42342 0.74803 0
M  V30 22 O 4.6311 -1.41488 1.0162 0
M  V30 23 C 1.7631 -2.70173 2.07893 0
M  V30 24 H 2.9561 -1.04789 2.80997 0
M  V30 25 H 0.5091 -0.51083 1.47717 0
M  V30 26 H 1.2441 -3.02605 1.16622 0
M  V30 27 H 1.0291 -2.64082 2.89833 0
M  V30 28 H 2.5191 -3.45869 2.34017 0
M  V30 29 N 2.9562 -1.48159 -0.537278 0
M  V30 30 C 3.8882 -1.58218 -1.65831 0
M  V30 31 C 4.9012 -0.466948 -1.5596 0
M  V30 32 O 6.0902 -0.73747 -1.62553 0
M  V30 33 C 3.1902 -1.48906 -3.04434 0
M  V30 34 C 2.3632 -2.75343 -3.3986 0
M  V30 35 C 1.4222 -2.59588 -4.57712 0
M  V30 36 O 0.4482 -3.33457 -4.61297 0
M  V30 37 N 1.6502 -1.68724 -5.55439 0
M  V30 38 H 4.4152 -2.54891 -1.57641 0
M  V30 39 H 1.9762 -1.4479 -0.724386 0
M  V30 40 H 3.9682 -1.36072 -3.81139 0
M  V30 41 H 2.5382 -0.602368 -3.06741 0
M  V30 42 H 1.7582 -3.02795 -2.52406 0
M  V30 43 H 3.0462 -3.5924 -3.60311 0
M  V30 44 H 2.4442 -1.07898 -5.55315 0
M  V30 45 H 1.0012 -1.61832 -6.3139 0
M  V30 46 N 4.4343 0.785586 -1.36625 0
M  V30 47 C 5.6813 1.54362 -1.31067 0
M  V30 48 C 6.0093 1.94195 0.10893 0
M  V30 49 O 5.2643 1.63262 1.07908 0
M  V30 50 C 5.5633 2.83007 -2.1827 0
M  V30 51 C 5.2293 2.62294 -3.6676 0
M  V30 52 C 3.8913 2.56353 -4.0723 0
M  V30 53 C 6.2433 2.43371 -4.6089 0
M  V30 54 C 3.5713 2.29461 -5.39967 0
M  V30 55 C 5.9233 2.18005 -5.93849 0
M  V30 56 C 4.5873 2.105 -6.3344 0
M  V30 57 H 3.8573 0.564851 -0.479609 0
M  V30 58 H 6.5043 0.906028 -1.68711 0
M  V30 59 H 4.8093 3.51253 -1.73576 0
M  V30 60 H 6.5063 3.40817 -2.11292 0
M  V30 61 H 3.0963 2.67774 -3.34656 0
M  V30 62 H 7.2803 2.46959 -4.30494 0
M  V30 63 H 2.5363 2.22135 -5.69619 0
M  V30 64 H 6.7103 2.02359 -6.66351 0
M  V30 65 H 4.3373 1.89425 -7.36222 0
M  V30 66 N 5.9124 1.20967 1.01018 0
M  V30 67 C 7.1404 1.04956 1.78303 0
M  V30 68 C 7.5554 -0.400915 1.84494 0
M  V30 69 O 6.9124 -1.27826 1.30257 0
M  V30 70 C 6.9634 1.63403 3.22462 0
M  V30 71 O 6.6844 3.02775 3.16637 0
M  V30 72 C 8.1854 1.52432 4.16268 0
M  V30 73 H 5.4054 0.368858 0.560522 0
M  V30 74 H 7.9494 1.60193 1.27116 0
M  V30 75 H 6.1044 1.1227 3.70775 0
M  V30 76 H 6.5184 3.30626 4.07169 0
M  V30 77 H 7.9924 1.98078 5.15237 0
M  V30 78 H 8.4694 0.477875 4.36592 0
M  V30 79 H 9.0754 2.02787 3.73841 0
M  V30 80 N 7.3905 -1.2043 1.01659 0
M  V30 81 C 8.3005 -2.2689 0.596484 0
M  V30 82 C 9.3165 -1.70107 -0.36599 0
M  V30 83 O 10.4925 -2.00117 -0.226942 0
M  V30 84 C 7.5575 -3.4665 -0.0586659 0
M  V30 85 C 6.6185 -4.18662 0.949751 0
M  V30 86 C 5.8515 -5.32705 0.32577 0
M  V30 87 O 6.0745 -5.63656 -0.874509 0
M  V30 88 O 5.0085 -5.92803 1.04249 0
M  V30 89 H 8.8345 -2.65041 1.4828 0
M  V30 90 H 6.4195 -1.27048 0.786082 0
M  V30 91 H 8.3015 -4.19256 -0.424564 0
M  V30 92 H 6.9765 -3.10375 -0.91918 0
M  V30 93 H 5.8835 -3.48229 1.36702 0
M  V30 94 H 7.2165 -4.58878 1.78023 0
M  V30 95 N 8.8686 -0.792821 -1.36206 0
M  V30 96 C 10.0936 -0.377701 -2.03932 0
M  V30 97 C 10.5186 0.998947 -1.59382 0
M  V30 98 O 9.8766 1.64421 -0.763903 0
M  V30 99 C 9.9246 -0.453635 -3.57735 0
M  V30 100 O 9.0286 0.538151 -4.08874 0
M  V30 101 H 8.3696 -0.159855 -0.644471 0
M  V30 102 H 10.8996 -1.07488 -1.7409 0
M  V30 103 H 10.9096 -0.318464 -4.06755 0
M  V30 104 H 9.5846 -1.45784 -3.89512 0
M  V30 105 H 8.1616 0.364359 -3.71116 0
M  V30 106 N 10.3467 1.47872 -0.545128 0
M  V30 107 C 11.2797 2.2675 0.256885 0
M  V30 108 C 12.2577 1.33293 0.931228 0
M  V30 109 O 13.4417 1.62657 0.95262 0
M  V30 110 C 10.5687 3.09976 1.36501 0
M  V30 111 C 9.6147 4.1892 0.800496 0
M  V30 112 S 10.4477 5.34397 -0.343505 0
M  V30 113 C 11.6037 6.21186 0.766733 0
M  V30 114 H 11.8367 2.94425 -0.412479 0
M  V30 115 H 9.3697 1.50806 -0.331204 0
M  V30 116 H 11.3277 3.585 1.9997 0
M  V30 117 H 9.9887 2.41686 2.00616 0
M  V30 118 H 9.1817 4.76836 1.63227 0
M  V30 119 H 8.7837 3.73215 0.242217 0
M  V30 120 H 11.0757 6.56804 1.66178 0
M  V30 121 H 12.0187 7.07742 0.225204 0
M  V30 122 H 12.4267 5.54574 1.05396 0
M  V30 123 N 11.8248 0.280983 1.55075 0
M  V30 124 C 13.1018 -0.386207 1.91749 0
M  V30 125 C 13.4818 -1.73264 1.20594 0
M  V30 126 O 12.8298 -2.26034 0.334784 0
M  V30 127 C 13.0398 -0.520687 3.45094 0
M  V30 128 C 14.3878 -0.800865 4.16979 0
M  V30 129 O 15.4118 -0.605271 3.5102 0
M  V30 130 O 14.2708 -1.1753 5.33712 0
M  V30 131 H 11.3648 -0.212408 0.799257 0
M  V30 132 H 13.9108 0.327568 1.66509 0
M  V30 133 H 12.6828 0.426633 3.88967 0
M  V30 134 H 12.3058 -1.2837 3.76307 0
M  V30 135 N 13.3029 -1.57598 0.00835791 0
M  V30 136 C 14.5489 -1.91211 -0.675732 0
M  V30 137 C 14.8819 -0.883139 -1.72958 0
M  V30 138 O 14.1569 0.097016 -1.94258 0
M  V30 139 C 14.4399 -3.35379 -1.31123 0
M  V30 140 C 14.2929 -4.48999 -0.268356 0
M  V30 141 C 15.6119 -3.7912 -2.23508 0
M  V30 142 H 12.7309 -0.695374 -0.244179 0
M  V30 143 H 15.3729 -1.89901 0.0613655 0
M  V30 144 H 13.5229 -3.36626 -1.93946 0
M  V30 145 H 15.1949 -4.59887 0.360844 0
M  V30 146 H 13.4379 -4.31873 0.408482 0
M  V30 147 H 14.1089 -5.46851 -0.752218 0
M  V30 148 H 16.5849 -3.79477 -1.70693 0
M  V30 149 H 15.4609 -4.80729 -2.64936 0
M  V30 150 H 15.7219 -3.13455 -3.11766 0
M  V30 151 N 14.781 0.264519 -1.55364 0
M  V30 152 C 16.192 0.834936 -1.6699 0
M  V30 153 C 16.543 1.86718 -0.602552 0
M  V30 154 O 15.668 2.14899 0.254425 0
M  V30 155 C 16.263 1.5212 -3.02729 0
M  V30 156 C 14.822 2.03954 -3.16354 0
M  V30 157 C 13.969 0.884498 -2.62815 0
M  V30 158 H 16.92 0.0406869 -1.58648 0
M  V30 159 H 16.941 2.38853 -2.96191 0
M  V30 160 H 16.453 0.769668 -3.80392 0
M  V30 161 H 14.554 2.82041 -2.43482 0
M  V30 162 H 14.667 2.24902 -4.23032 0
M  V30 163 H 13.031 1.2802 -2.20188 0
M  V30 164 H 13.814 0.14634 -3.42988 0
M  V30 165 N 16.2591 1.48442 0.529413 0
M  V30 166 C 17.5361 1.46978 1.29062 0
M  V30 167 C 17.9161 0.181769 2.10316 0
M  V30 168 O 17.2641 -0.836481 2.12639 0
M  V30 169 C 17.4741 2.7321 2.17157 0
M  V30 170 C 18.8221 3.21562 2.77278 0
M  V30 171 O 19.8461 2.74131 2.27444 0
M  V30 172 O 18.7051 4.04094 3.67927 0
M  V30 173 H 15.7991 0.587003 0.582543 0
M  V30 174 H 18.3451 1.60676 0.546021 0
M  V30 175 H 17.1171 3.58465 1.56903 0
M  V30 176 H 16.7401 2.62235 2.98862 0
M  V30 177 N 17.7372 -0.778329 1.37039 0
M  V30 178 C 18.6702 -1.8984 1.26633 0
M  V30 179 C 19.6482 -1.61923 0.148197 0
M  V30 180 O 20.8322 -1.85742 0.321265 0
M  V30 181 C 17.9592 -3.24916 0.956403 0
M  V30 182 C 17.0052 -3.71752 2.09051 0
M  V30 183 S 17.8382 -3.86201 3.70957 0
M  V30 184 C 18.9942 -5.24135 3.42101 0
M  V30 185 H 19.2272 -1.98377 2.21436 0
M  V30 186 H 16.7602 -0.938738 1.22585 0
M  V30 187 H 18.7182 -4.02936 0.784409 0
M  V30 188 H 17.3792 -3.14089 0.0259713 0
M  V30 189 H 16.5722 -4.69661 1.8285 0
M  V30 190 H 16.1742 -3.00815 2.2223 0
M  V30 191 H 18.4662 -6.09086 2.96682 0
M  V30 192 H 19.4092 -5.55346 4.39314 0
M  V30 193 H 19.8172 -4.91761 2.77185 0
M  V30 194 N 19.2153 -1.21501 -1.00376 0
M  V30 195 C 20.4633 -1.03095 -1.73827 0
M  V30 196 C 20.7843 0.436341 -1.90055 0
M  V30 197 O 20.0543 1.31466 -1.45236 0
M  V30 198 H 18.6343 -0.378487 -0.644016 0
M  V30 199 H 21.2963 -1.52831 -1.20949 0
M  V30 200 H 20.3923 -1.49991 -2.73695 0
M  V30 201 N 20.6934 1.19889 -1.02296 0
M  V30 202 C 22.1094 1.41462 -0.738954 0
M  V30 203 C 22.3094 1.89721 0.678846 0
M  V30 204 O 21.3654 2.07016 1.4457 0
M  V30 205 C 22.6784 2.43083 -1.77005 0
M  V30 206 C 24.2264 2.5684 -1.78892 0
M  V30 207 C 24.7014 3.61709 -2.80945 0
M  V30 208 N 26.1924 3.69199 -2.79725 0
M  V30 209 C 26.9274 4.50019 -3.55345 0
M  V30 210 N 26.4234 5.34592 -4.40662 0
M  V30 211 N 28.2164 4.44612 -3.43914 0
M  V30 212 H 20.3674 0.868827 -1.93817 0
M  V30 213 H 22.6304 0.44399 -0.837602 0
M  V30 214 H 22.3364 2.14636 -2.78612 0
M  V30 215 H 22.2104 3.4217 -1.58744 0
M  V30 216 H 24.5974 2.84614 -0.779674 0
M  V30 217 H 24.6784 1.57927 -2.01228 0
M  V30 218 H 24.3224 3.34678 -3.82038 0
M  V30 219 H 24.2524 4.60259 -2.5587 0
M  V30 220 H 26.7434 3.08794 -2.17842 0
M  V30 221 H 27.0564 5.93363 -4.95116 0
M  V30 222 H 25.4014 5.34073 -4.44737 0
M  V30 223 H 28.5924 3.7758 -2.76679 0
M  V30 224 H 28.7654 5.0736 -4.031 0
M  V30 225 N 22.1715 0.800033 1.35784 0
M  V30 226 C 23.5875 0.482977 1.52117 0
M  V30 227 C 23.7875 -0.996948 1.75109 0
M  V30 228 O 22.8435 -1.78216 1.78872 0
M  V30 229 C 24.1565 1.32264 2.70049 0
M  V30 230 C 25.7045 1.31742 2.83924 0
M  V30 231 C 26.1795 2.14106 4.04874 0
M  V30 232 N 27.6705 2.11607 4.12039 0
M  V30 233 C 28.4055 2.72099 5.04727 0
M  V30 234 N 27.9015 3.41492 6.02789 0
M  V30 235 N 29.6945 2.61776 4.97423 0
M  V30 236 H 21.8455 1.75856 1.19115 0
M  V30 237 H 24.1085 0.748122 0.582252 0
M  V30 238 H 23.8145 2.37261 2.59616 0
M  V30 239 H 23.6885 0.971303 3.6448 0
M  V30 240 H 26.0755 0.275333 2.93813 0
M  V30 241 H 26.1565 1.70859 1.9037 0
M  V30 242 H 25.8005 3.18351 3.95746 0
M  V30 243 H 25.7305 1.72353 4.97596 0
M  V30 244 H 28.2215 1.61112 3.41835 0
M  V30 245 H 28.5345 3.84953 6.70098 0
M  V30 246 H 26.8795 3.45596 6.02983 0
M  V30 247 H 30.0705 2.07157 4.19766 0
M  V30 248 H 30.2435 3.0921 5.69468 0
M  V30 249 N 23.6496 -1.47581 0.552962 0
M  V30 250 C 24.5816 -2.27997 -0.234533 0
M  V30 251 C 25.5946 -1.36753 -0.883321 0
M  V30 252 O 26.7836 -1.61612 -0.757889 0
M  V30 253 C 23.8836 -3.10879 -1.34935 0
M  V30 254 C 23.0566 -4.30056 -0.798158 0
M  V30 255 C 22.1156 -4.94567 -1.79694 0
M  V30 256 O 21.1416 -5.53087 -1.34474 0
M  V30 257 N 22.3436 -4.88878 -3.13015 0
M  V30 258 H 25.1086 -2.96222 0.455255 0
M  V30 259 H 22.6696 -1.57163 0.388761 0
M  V30 260 H 24.6616 -3.50903 -2.01616 0
M  V30 261 H 23.2316 -2.44924 -1.94244 0
M  V30 262 H 22.4516 -3.94174 0.0453079 0
M  V30 263 H 23.7396 -5.07152 -0.409173 0
M  V30 264 H 23.1376 -4.42526 -3.52402 0
M  V30 265 H 21.6946 -5.32934 -3.75266 0
M  V30 266 N 25.1277 -0.289203 -1.54924 0
M  V30 267 C 26.3747 0.323519 -1.99899 0
M  V30 268 C 26.7027 1.54797 -1.17762 0
M  V30 269 O 25.9577 1.94237 -0.238835 0
M  V30 270 C 26.2567 0.736119 -3.49737 0
M  V30 271 C 25.9227 -0.385276 -4.49251 0
M  V30 272 C 24.5847 -0.693156 -4.76181 0
M  V30 273 C 26.9367 -1.14021 -5.08575 0
M  V30 274 C 24.2647 -1.7593 -5.59701 0
M  V30 275 C 26.6167 -2.19619 -5.93254 0
M  V30 276 C 25.2807 -2.51026 -6.185 0
M  V30 277 H 24.5507 0.118384 -0.731482 0
M  V30 278 H 27.1977 -0.405847 -1.8715 0
M  V30 279 H 25.5027 1.54539 -3.60035 0
M  V30 280 H 27.1997 1.22118 -3.81953 0
M  V30 281 H 23.7897 -0.135202 -4.28387 0
M  V30 282 H 27.9737 -0.915611 -4.87781 0
M  V30 283 H 23.2297 -2.0075 -5.77503 0
M  V30 284 H 27.4037 -2.78581 -6.38252 0
M  V30 285 H 25.0307 -3.33772 -6.83008 0
M  V30 286 N 26.6058 1.57591 -0.0167156 0
M  V30 287 C 27.5388 2.04944 1.00366 0
M  V30 288 C 28.5168 0.942648 1.32487 0
M  V30 289 O 29.7008 1.21205 1.44367 0
M  V30 290 C 26.8278 2.46109 2.32697 0
M  V30 291 C 25.8738 3.67686 2.16123 0
M  V30 292 S 26.7068 5.14882 1.47161 0
M  V30 293 C 27.8628 5.59332 2.80888 0
M  V30 294 H 28.0958 2.91172 0.600528 0
M  V30 295 H 25.6288 1.53168 0.194632 0
M  V30 296 H 27.5868 2.70493 3.08778 0
M  V30 297 H 26.2478 1.6025 2.70146 0
M  V30 298 H 25.4408 3.94296 3.13922 0
M  V30 299 H 25.0428 3.43391 1.48185 0
M  V30 300 H 27.3348 5.62814 3.77156 0
M  V30 301 H 28.2778 6.5905 2.58958 0
M  V30 302 H 28.6858 4.86942 2.85565 0
M  V30 303 N 28.0839 -0.256276 1.55502 0
M  V30 304 C 29.0319 -1.33694 1.90338 0
M  V30 305 C 30.0259 -1.50299 0.781441 0
M  V30 306 O 31.2319 -1.51885 0.965966 0
M  V30 307 H 27.6069 -0.447483 0.60437 0
M  V30 308 H 29.5779 -1.01574 2.8058 0
M  V30 309 C 28.3269 -2.68724 2.20642 0
M  V30 310 H 27.6499 -2.56743 3.06469 0
M  V30 311 H 29.0899 -3.43237 2.48926 0
M  V30 312 C 27.5489 -3.21101 1.01959 0
M  V30 313 O 28.0789 -4.0084 0.262762 0
M  V30 314 N 26.2849 -2.79003 0.812746 0
M  V30 315 H 25.8319 -2.14271 1.42989 0
M  V30 316 H 25.7899 -3.14393 0.0203076 0
M  V30 317 N 29.562 -1.4872 -0.521534 0
M  V30 318 C 30.492 -1.66771 -1.63431 0
M  V30 319 C 31.473 -0.516499 -1.62069 0
M  V30 320 O 32.658 -0.750013 -1.79132 0
M  V30 321 C 29.788 -1.71515 -3.01993 0
M  V30 322 C 28.742 -2.86222 -3.18216 0
M  V30 323 C 28.068 -2.76061 -4.57924 0
M  V30 324 C 29.368 -4.27419 -3.00184 0
M  V30 325 H 31.062 -2.59932 -1.48579 0
M  V30 326 H 28.608 -1.25089 -0.713358 0
M  V30 327 H 30.561 -1.82731 -3.7972 0
M  V30 328 H 29.285 -0.749393 -3.17886 0
M  V30 329 H 27.944 -2.74575 -2.42908 0
M  V30 330 H 27.592 -1.77437 -4.70665 0
M  V30 331 H 27.292 -3.53037 -4.69722 0
M  V30 332 H 28.816 -2.89256 -5.37739 0
M  V30 333 H 30.23 -4.39855 -3.67697 0
M  V30 334 H 28.627 -5.05458 -3.2347 0
M  V30 335 H 29.697 -4.43293 -1.96518 0
M  V30 336 N 31.0401 0.771051 -1.3745 0
M  V30 337 C 31.9701 1.89827 -1.3597 0
M  V30 338 C 32.9511 1.68562 -0.228216 0
M  V30 339 O 34.1361 1.8941 -0.428675 0
M  V30 340 C 31.2661 3.2712 -1.16662 0
M  V30 341 C 30.2201 3.6295 -2.2683 0
M  V30 342 C 29.5461 4.98791 -1.92644 0
M  V30 343 C 30.8461 3.69627 -3.69017 0
M  V30 344 H 32.5401 1.91323 -2.30295 0
M  V30 345 H 30.0861 0.919082 -1.10855 0
M  V30 346 H 32.0391 4.05615 -1.14256 0
M  V30 347 H 30.7631 3.26059 -0.187926 0
M  V30 348 H 29.4221 2.86763 -2.28392 0
M  V30 349 H 29.0701 4.94271 -0.933021 0
M  V30 350 H 28.7701 5.23733 -2.66416 0
M  V30 351 H 30.2941 5.79685 -1.91826 0
M  V30 352 H 31.7081 4.38273 -3.69581 0
M  V30 353 H 30.1051 4.06067 -4.41848 0
M  V30 354 H 31.1751 2.70273 -4.02592 0
M  V30 355 N 32.5182 1.22032 0.997298 0
M  V30 356 C 33.4812 0.987909 2.06816 0
M  V30 357 C 34.4812 -0.0440084 1.6074 0
M  V30 358 O 35.6712 0.194053 1.73116 0
M  V30 359 C 32.8032 0.49132 3.37341 0
M  V30 360 H 33.9962 1.93803 2.28868 0
M  V30 361 H 31.5492 1.03838 1.16822 0
M  V30 362 H 32.2842 -0.463364 3.20973 0
M  V30 363 H 32.0692 1.23575 3.72118 0
M  V30 364 H 33.5592 0.348824 4.16141 0
M  V30 365 N 33.9963 -1.19345 1.0293 0
M  V30 366 C 35.2433 -1.89038 0.726008 0
M  V30 367 C 35.5713 -1.79649 -0.745427 0
M  V30 368 O 34.8263 -1.18354 -1.55855 0
M  V30 369 C 35.1253 -3.39292 1.12319 0
M  V30 370 C 34.7913 -3.68885 2.59297 0
M  V30 371 C 33.4533 -3.76671 2.99453 0
M  V30 372 C 35.8053 -3.82178 3.54386 0
M  V30 373 C 33.1333 -3.9522 4.33611 0
M  V30 374 C 35.4853 -4.0224 4.88248 0
M  V30 375 C 34.1493 -4.08259 5.28092 0
M  V30 376 H 33.4193 -0.691739 0.265665 0
M  V30 377 H 36.0663 -1.41328 1.29223 0
M  V30 378 H 34.3713 -3.88903 0.475584 0
M  V30 379 H 36.0683 -3.91536 0.866037 0
M  V30 380 H 32.6583 -3.63433 2.27189 0
M  V30 381 H 36.8423 -3.75505 3.24514 0
M  V30 382 H 32.0983 -3.98119 4.64016 0
M  V30 383 H 36.2723 -4.11468 5.61843 0
M  V30 384 H 33.8993 -4.22384 6.32057 0
M  V30 385 N 35.4744 -0.807222 -1.35358 0
M  V30 386 C 36.7224 -0.387122 -1.98358 0
M  V30 387 C 37.0434 1.04942 -1.64354 0
M  V30 388 O 36.3134 1.72615 -0.926339 0
M  V30 389 H 34.8934 -0.140154 -0.733734 0
M  V30 390 H 37.5554 -1.0332 -1.6526 0
M  V30 391 H 36.6514 -0.493352 -3.08176 0
M  V30 392 N 36.9525 1.47285 -0.560781 0
M  V30 393 C 38.1805 2.06855 -0.0430262 0
M  V30 394 C 38.5955 1.41291 1.25229 0
M  V30 395 O 37.9525 0.510648 1.7521 0
M  V30 396 C 38.0035 3.61178 0.152518 0
M  V30 397 O 37.7245 4.24285 -1.0915 0
M  V30 398 C 39.2255 4.37624 0.707145 0
M  V30 399 H 36.4455 0.669319 -0.0474652 0
M  V30 400 H 38.9895 1.89237 -0.77521 0
M  V30 401 H 37.1445 3.78298 0.834843 0
M  V30 402 H 37.5585 5.16868 -0.891482 0
M  V30 403 H 39.0325 5.46271 0.793244 0
M  V30 404 H 39.5095 4.04152 1.71923 0
M  V30 405 H 40.1155 4.25257 0.0604027 0
M  V30 406 N 38.4306 0.297415 1.54768 0
M  V30 407 C 39.6766 -0.313376 2.00364 0
M  V30 408 C 40.0096 -1.53815 1.18553 0
M  V30 409 O 39.2846 -1.92739 0.261103 0
M  V30 410 C 39.5676 -0.673525 3.53745 0
M  V30 411 C 39.4206 0.560133 4.46299 0
M  V30 412 C 40.7396 -1.50143 4.13697 0
M  V30 413 H 37.8586 -0.112428 0.728374 0
M  V30 414 H 40.5006 0.4088 1.8555 0
M  V30 415 H 38.6506 -1.28881 3.665 0
M  V30 416 H 40.3226 1.19863 4.45455 0
M  V30 417 H 38.5656 1.19405 4.17043 0
M  V30 418 H 39.2366 0.26405 5.51368 0
M  V30 419 H 41.7126 -0.981588 4.04356 0
M  V30 420 H 40.5886 -1.72221 5.21182 0
M  V30 421 H 40.8496 -2.48952 3.65343 0
M  V30 422 N 39.9087 -1.5758 0.0250728 0
M  V30 423 C 41.1367 -1.9593 -0.664747 0
M  V30 424 C 41.5517 -0.901352 -1.65895 0
M  V30 425 O 40.9087 0.117255 -1.82123 0
M  V30 426 C 40.9597 -3.34342 -1.37468 0
M  V30 427 O 40.6807 -4.36079 -0.420324 0
M  V30 428 C 42.1817 -3.873 -2.1567 0
M  V30 429 H 39.4017 -0.645405 -0.183557 0
M  V30 430 H 41.9457 -2.04329 0.0836372 0
M  V30 431 H 40.1007 -3.27175 -2.0745 0
M  V30 432 H 40.5147 -5.16297 -0.923991 0
M  V30 433 H 41.9887 -4.86504 -2.60803 0
M  V30 434 H 42.4657 -3.21331 -2.99405 0
M  V30 435 H 43.0717 -3.97723 -1.50654 0
M  V30 436 N 41.3868 0.248026 -1.55636 0
M  V30 437 C 42.6348 0.974295 -1.77065 0
M  V30 438 C 42.9558 1.85897 -0.588849 0
M  V30 439 O 42.2258 1.91868 0.395407 0
M  V30 440 H 40.8058 0.362733 -0.653019 0
M  V30 441 H 43.4678 0.266244 -1.93073 0
M  V30 442 H 42.5638 1.59667 -2.68166 0
M  V30 443 N 42.8649 1.48995 0.513639 0
M  V30 444 C 44.1109 1.58076 1.27042 0
M  V30 445 C 44.4439 0.261026 1.92438 0
M  V30 446 O 43.7189 -0.734393 1.80103 0
M  V30 447 C 44.0019 2.73091 2.34719 0
M  V30 448 C 43.8549 4.14821 1.73907 0
M  V30 449 C 45.1739 2.83796 3.36375 0
M  V30 450 H 42.2929 0.575391 0.460536 0
M  V30 451 H 44.9349 1.81232 0.570516 0
M  V30 452 H 43.0849 2.53479 2.94416 0
M  V30 453 H 44.7569 4.45917 1.18135 0
M  V30 454 H 42.9999 4.21058 1.0437 0
M  V30 455 H 43.6709 4.91147 2.51949 0
M  V30 456 H 46.1469 3.01611 2.86653 0
M  V30 457 H 45.0229 3.65971 4.09093 0
M  V30 458 H 45.2839 1.92624 3.9793 0
M  V30 459 N 44.343 -0.763751 1.37857 0
M  V30 460 C 45.306 -1.85889 1.34081 0
M  V30 461 C 46.306 -1.58949 0.243277 0
M  V30 462 O 47.496 -1.66882 0.499589 0
M  V30 463 C 44.628 -3.23176 1.08489 0
M  V30 464 H 45.821 -1.90648 2.31502 0
M  V30 465 H 43.374 -0.964367 1.23003 0
M  V30 466 H 44.109 -3.24091 0.116318 0
M  V30 467 H 43.894 -3.44124 1.8794 0
M  V30 468 H 45.384 -4.03254 1.08517 0
M  V30 469 N 45.8211 -1.22559 -0.990812 0
M  V30 470 C 46.7511 -1.0218 -2.09956 0
M  V30 471 C 47.7321 0.0579394 -1.70001 0
M  V30 472 O 48.9171 -0.104684 -1.93918 0
M  V30 473 C 46.0471 -0.601023 -3.4206 0
M  V30 474 C 45.0011 -1.62694 -3.95872 0
M  V30 475 C 44.3271 -1.06193 -5.24049 0
M  V30 476 C 45.6271 -3.01743 -4.2632 0
M  V30 477 H 47.3211 -1.94916 -2.27262 0
M  V30 478 H 44.8671 -0.938566 -1.09211 0
M  V30 479 H 46.8201 -0.445561 -4.19038 0
M  V30 480 H 45.5441 0.362005 -3.24588 0
M  V30 481 H 44.2031 -1.77021 -3.21028 0
M  V30 482 H 43.8511 -0.0901903 -5.02919 0
M  V30 483 H 43.5511 -1.74732 -5.61019 0
M  V30 484 H 45.0751 -0.918092 -6.03658 0
M  V30 485 H 46.4891 -2.90777 -4.94087 0
M  V30 486 H 44.8861 -3.67425 -4.74467 0
M  V30 487 H 45.9561 -3.51518 -3.34011 0
M  V30 488 N 47.2992 1.18797 -1.03562 0
M  V30 489 C 48.5472 1.88278 -0.734569 0
M  V30 490 C 48.8682 1.8043 0.739586 0
M  V30 491 O 48.1382 1.21925 1.53333 0
M  V30 492 H 46.7182 0.696991 -0.268725 0
M  V30 493 H 49.3802 1.44192 -1.31129 0
M  V30 494 H 48.4762 2.94443 -1.03489 0
M  V30 495 N 48.7773 0.814389 1.34928 0
M  V30 496 C 49.7403 0.235759 2.27984 0
M  V30 497 C 50.7403 -0.581412 1.49921 0
M  V30 498 O 51.9303 -0.398758 1.69575 0
M  V30 499 C 49.0623 -0.670433 3.34242 0
M  V30 500 H 50.2553 1.05659 2.80671 0
M  V30 501 H 47.8083 0.585614 1.44915 0
M  V30 502 H 48.5433 -1.51466 2.86755 0
M  V30 503 H 48.3283 -0.0860822 3.92005 0
M  V30 504 H 49.8183 -1.06935 4.03676 0
M  V30 505 N 50.2554 -1.46986 0.568584 0
M  V30 506 C 51.1854 -2.32946 -0.160753 0
M  V30 507 C 52.1664 -1.44487 -0.897631 0
M  V30 508 O 53.3514 -1.73327 -0.875867 0
M  V30 509 C 50.4814 -3.26494 -1.18403 0
M  V30 510 C 49.4354 -4.24282 -0.562895 0
M  V30 511 C 48.7614 -5.07236 -1.69163 0
M  V30 512 C 50.0614 -5.19989 0.490761 0
M  V30 513 H 51.7554 -2.94175 0.556916 0
M  V30 514 H 49.3014 -1.4146 0.26927 0
M  V30 515 H 51.2544 -3.85477 -1.70251 0
M  V30 516 H 49.9784 -2.63343 -1.93179 0
M  V30 517 H 48.6374 -3.66541 -0.0656164 0
M  V30 518 H 48.2854 -4.4048 -2.42871 0
M  V30 519 H 47.9854 -5.7345 -1.28174 0
M  V30 520 H 49.5094 -5.6908 -2.21314 0
M  V30 521 H 50.9234 -5.73271 0.0579047 0
M  V30 522 H 49.3204 -5.94469 0.820165 0
M  V30 523 H 50.3904 -4.64777 1.3824 0
M  V30 524 N 51.7335 -0.305618 -1.54608 0
M  V30 525 C 52.9635 0.304333 -2.04346 0
M  V30 526 C 53.3715 1.47715 -1.18224 0
M  V30 527 O 52.7145 1.82591 -0.201577 0
M  V30 528 C 52.7765 0.819031 -3.50046 0
M  V30 529 C 52.4405 -0.22912 -4.56425 0
M  V30 530 C 53.4375 -1.05914 -5.08997 0
M  V30 531 C 51.1225 -0.372148 -5.0092 0
M  V30 532 C 53.1165 -2.01809 -6.04609 0
M  V30 533 C 50.8035 -1.33454 -5.9635 0
M  V30 534 C 51.8015 -2.15599 -6.48079 0
M  V30 535 O 51.4895 -3.10205 -7.41639 0
M  V30 536 H 51.2215 0.0693996 -0.672428 0
M  V30 537 H 53.7755 -0.444548 -2.00532 0
M  V30 538 H 52.0055 1.61852 -3.51199 0
M  V30 539 H 53.6945 1.34537 -3.82955 0
M  V30 540 H 54.4605 -0.959538 -4.75413 0
M  V30 541 H 50.3395 0.257304 -4.60281 0
M  V30 542 H 53.8835 -2.65966 -6.44909 0
M  V30 543 H 49.7805 -1.43485 -6.29351 0
M  V30 544 H 50.5485 -3.05237 -7.59455 0
M  V30 545 N 53.2116 1.57565 -0.0334293 0
M  V30 546 C 54.6226 1.79746 0.504798 0
M  V30 547 C 54.9736 0.944091 1.71992 0
M  V30 548 O 54.0986 0.155694 2.15839 0
M  V30 549 C 54.6936 3.25997 0.922567 0
M  V30 550 C 53.2526 3.49159 1.40588 0
M  V30 551 C 52.3996 2.74785 0.372633 0
M  V30 552 H 55.3506 1.56565 -0.259436 0
M  V30 553 H 55.3716 3.35945 1.78666 0
M  V30 554 H 54.8836 3.88081 0.0379825 0
M  V30 555 H 52.9846 2.92332 2.31025 0
M  V30 556 H 53.0976 4.57873 1.41028 0
M  V30 557 H 51.4616 2.40391 0.841672 0
M  V30 558 H 52.2446 3.39587 -0.503559 0
M  V30 559 N 54.6897 -0.239769 1.55765 0
M  V30 560 C 55.6197 -1.30052 1.9393 0
M  V30 561 C 56.6007 -1.49839 0.805132 0
M  V30 562 O 57.7857 -1.62328 1.06599 0
M  V30 563 C 54.9157 -2.65391 2.2402 0
M  V30 564 C 53.8697 -2.60289 3.39755 0
M  V30 565 C 53.1957 -3.99489 3.55405 0
M  V30 566 C 54.4957 -2.16654 4.75246 0
M  V30 567 H 56.1897 -0.983573 2.82783 0
M  V30 568 H 53.7357 -0.471701 1.36055 0
M  V30 569 H 55.6887 -3.3974 2.49308 0
M  V30 570 H 54.4127 -2.98736 1.32 0
M  V30 571 H 53.0717 -1.88398 3.14487 0
M  V30 572 H 52.7197 -4.30112 2.60793 0
M  V30 573 H 52.4197 -3.96962 4.33238 0
M  V30 574 H 53.9437 -4.75528 3.83022 0
M  V30 575 H 55.3577 -2.80737 4.99859 0
M  V30 576 H 53.7547 -2.25223 5.56232 0
M  V30 577 H 54.8247 -1.11835 4.71827 0
M  V30 578 N 56.1678 -1.49265 -0.50573 0
M  V30 579 C 57.4138 -1.58748 -1.26202 0
M  V30 580 C 57.7468 -0.271227 -1.92297 0
M  V30 581 O 57.0218 0.724831 -1.80489 0
M  V30 582 C 57.3048 -2.74332 -2.33268 0
M  V30 583 C 57.1578 -4.15737 -1.71705 0
M  V30 584 C 58.4768 -2.85576 -3.34865 0
M  V30 585 H 55.5958 -0.577826 -0.457478 0
M  V30 586 H 58.2378 -1.81532 -0.560897 0
M  V30 587 H 56.3878 -2.55036 -2.93068 0
M  V30 588 H 58.0598 -4.46537 -1.15769 0
M  V30 589 H 56.3028 -4.21605 -1.02135 0
M  V30 590 H 56.9738 -4.92477 -2.49341 0
M  V30 591 H 59.4498 -3.03127 -2.8505 0
M  V30 592 H 58.3258 -3.68135 -4.07146 0
M  V30 593 H 58.5868 -1.94732 -3.96903 0
M  V30 594 N 57.6459 0.756429 -1.3826 0
M  V30 595 C 58.5929 1.87011 -1.35261 0
M  V30 596 C 59.5629 1.64695 -0.215616 0
M  V30 597 O 60.7479 1.864 -0.407399 0
M  V30 598 C 57.8879 3.24275 -1.18068 0
M  V30 599 C 57.0009 3.58442 -2.41129 0
M  V30 600 C 56.1359 4.84994 -2.16689 0
M  V30 601 C 55.1749 5.11939 -3.35537 0
M  V30 602 N 54.3119 6.29685 -3.10549 0
M  V30 603 H 59.1519 1.8891 -2.30472 0
M  V30 604 H 56.6889 0.923373 -1.14509 0
M  V30 605 H 58.6469 4.03479 -1.06116 0
M  V30 606 H 57.2769 3.21711 -0.264973 0
M  V30 607 H 56.3289 2.74103 -2.63764 0
M  V30 608 H 57.6409 3.74283 -3.29717 0
M  V30 609 H 56.7949 5.72135 -2.01857 0
M  V30 610 H 55.5339 4.71286 -1.25462 0
M  V30 611 H 54.5389 4.23268 -3.50891 0
M  V30 612 H 55.7639 5.27546 -4.27635 0
M  V30 613 H 53.7099 6.17306 -2.21967 0
M  V30 614 H 53.6269 6.46014 -3.92686 0
M  V30 615 H 54.8949 7.19722 -2.99367 0
M  V30 616 N 59.124 1.23083 0.984299 0
M  V30 617 C 60.354 1.08556 1.75781 0
M  V30 618 C 60.762 -0.366171 1.85623 0
M  V30 619 O 60.105 -1.26524 1.33182 0
M  V30 620 C 60.167 1.63208 3.20318 0
M  V30 621 C 59.831 3.11922 3.33997 0
M  V30 622 C 60.828 4.09259 3.2063 0
M  V30 623 C 58.513 3.51552 3.58771 0
M  V30 624 C 60.507 5.4421 3.31835 0
M  V30 625 C 58.194 4.86649 3.69616 0
M  V30 626 C 59.192 5.82787 3.56157 0
M  V30 627 O 58.88 7.15431 3.66626 0
M  V30 628 H 58.612 0.380713 0.5586 0
M  V30 629 H 61.166 1.63321 1.2456 0
M  V30 630 H 59.396 1.0286 3.72769 0
M  V30 631 H 61.085 1.44216 3.79416 0
M  V30 632 H 61.851 3.79984 3.01392 0
M  V30 633 H 57.73 2.77239 3.6832 0
M  V30 634 H 61.274 6.1923 3.21247 0
M  V30 635 H 57.171 5.15601 3.88363 0
M  V30 636 H 57.939 7.23127 3.83445 0
M  V30 637 N 60.6021 -1.18246 1.0419 0
M  V30 638 C 61.8491 -1.88257 0.746017 0
M  V30 639 C 62.1771 -1.80429 -0.726331 0
M  V30 640 O 61.4321 -1.2 -1.54591 0
M  V30 641 C 61.7311 -3.38082 1.15911 0
M  V30 642 C 61.3971 -3.66114 2.63195 0
M  V30 643 C 60.0591 -3.73474 3.03432 0
M  V30 644 C 62.4111 -3.78398 3.5842 0
M  V30 645 C 59.7391 -3.90599 4.37778 0
M  V30 646 C 62.0911 -3.97039 4.92487 0
M  V30 647 C 60.7551 -4.02635 5.32392 0
M  V30 648 H 60.0251 -0.688883 0.272987 0
M  V30 649 H 62.6721 -1.3995 1.30715 0
M  V30 650 H 60.9771 -3.88377 0.516806 0
M  V30 651 H 62.6741 -3.90596 0.907516 0
M  V30 652 H 59.2641 -3.61003 2.3103 0
M  V30 653 H 63.4481 -3.72042 3.28479 0
M  V30 654 H 58.7041 -3.93175 4.68213 0
M  V30 655 H 62.8781 -4.05486 5.66175 0
M  V30 656 H 60.5051 -4.15657 6.36501 0
M  V30 657 N 62.0802 -0.821533 -1.34494 0
M  V30 658 C 63.3292 -0.405355 -1.97585 0
M  V30 659 C 63.6422 1.03677 -1.65863 0
M  V30 660 O 64.8482 1.55679 -2.22433 0
M  V30 661 C 63.3042 -0.673861 -3.53535 0
M  V30 662 C 62.9122 -2.12951 -3.94152 0
M  V30 663 C 64.6562 -0.32378 -4.23263 0
M  V30 664 C 62.5632 -2.34298 -5.43009 0
M  V30 665 H 61.4932 -0.147836 -0.739365 0
M  V30 666 H 64.1442 -1.00769 -1.53355 0
M  V30 667 H 62.5262 -0.00137554 -3.96 0
M  V30 668 H 63.7002 -2.84104 -3.62797 0
M  V30 669 H 62.0152 -2.44089 -3.37356 0
M  V30 670 H 64.6122 -0.461126 -5.32708 0
M  V30 671 H 64.9552 0.731586 -4.09821 0
M  V30 672 H 65.4882 -0.950786 -3.8627 0
M  V30 673 H 62.2272 -3.38335 -5.61435 0
M  V30 674 H 61.7472 -1.67687 -5.75883 0
M  V30 675 H 63.4262 -2.16588 -6.09671 0
M  V30 676 N 63.5583 1.46682 -0.576371 0
M  V30 677 C 64.9693 1.86112 -0.148091 0
M  V30 678 C 65.3203 1.48073 1.2872 0
M  V30 679 O 64.4453 0.892656 1.97131 0
M  V30 680 C 65.0403 3.37786 -0.261982 0
M  V30 681 C 63.5993 3.76235 0.111384 0
M  V30 682 C 62.7463 2.70713 -0.60083 0
M  V30 683 H 65.6973 1.37927 -0.78497 0
M  V30 684 H 65.7183 3.77007 0.514364 0
M  V30 685 H 65.2303 3.6544 -1.30671 0
M  V30 686 H 63.3313 3.54198 1.15649 0
M  V30 687 H 63.4443 4.78391 -0.26052 0
M  V30 688 H 61.8083 2.54666 -0.0417783 0
M  V30 689 H 62.5913 3.01208 -1.64708 0
M  V30 690 N 65.0364 0.313813 1.54444 0
M  V30 691 C 66.4474 -0.176243 1.85866 0
M  V30 692 C 66.7984 -1.52405 1.23561 0
M  V30 693 O 65.9234 -2.09605 0.538016 0
M  V30 694 C 66.5184 -0.32657 3.37222 0
M  V30 695 C 65.0774 -0.760846 3.6863 0
M  V30 696 C 64.2244 0.123247 2.77026 0
M  V30 697 H 67.1754 0.534418 1.49431 0
M  V30 698 H 67.1964 -1.15908 3.62416 0
M  V30 699 H 66.7084 0.654531 3.82541 0
M  V30 700 H 64.8094 -1.75204 3.28838 0
M  V30 701 H 64.9224 -0.571353 4.75681 0
M  V30 702 H 63.2864 -0.399597 2.51546 0
M  V30 703 H 64.0694 1.10094 3.25168 0
M  V30 704 N 66.5145 -1.57545 0.0417849 0
M  V30 705 C 67.7395 -1.97035 -0.647455 0
M  V30 706 C 68.1645 -0.918775 -1.64135 0
M  V30 707 O 67.5225 0.119006 -1.80909 0
M  V30 708 C 67.5705 -3.35609 -1.31905 0
M  V30 709 O 66.6745 -3.3287 -2.43457 0
M  V30 710 H 66.0155 -0.64211 -0.169086 0
M  V30 711 H 68.5455 -2.04318 0.107399 0
M  V30 712 H 68.5555 -3.72126 -1.67291 0
M  V30 713 H 67.2305 -4.11685 -0.590586 0
M  V30 714 H 65.8075 -3.08087 -2.10088 0
M  V30 715 N 67.9926 0.231505 -1.5589 0
M  V30 716 C 69.2406 0.955461 -1.78088 0
M  V30 717 C 69.5616 1.85262 -0.608533 0
M  V30 718 O 68.8316 1.92277 0.375035 0
M  V30 719 H 67.4116 0.355787 -0.656829 0
M  V30 720 H 70.0736 0.245751 -1.93344 0
M  V30 721 H 69.1696 1.56814 -2.69844 0
M  V30 722 N 69.4707 1.49531 0.497807 0
M  V30 723 C 70.7187 1.58865 1.24926 0
M  V30 724 C 71.0397 0.278721 1.92998 0
M  V30 725 O 70.3097 -0.702144 1.82885 0
M  V30 726 H 68.8897 0.585343 0.464094 0
M  V30 727 H 71.5517 1.86174 0.57666 0
M  V30 728 H 70.6477 2.38633 2.01149 0
M  V30 729 N 70.9488 -0.749086 1.3866 0
M  V30 730 C 71.9118 -1.84457 1.36045 0
M  V30 731 C 72.9118 -1.58682 0.260122 0
M  V30 732 O 74.1018 -1.66343 0.517261 0
M  V30 733 C 71.2338 -3.22008 1.11911 0
M  V30 734 H 72.4268 -1.88182 2.33512 0
M  V30 735 H 69.9798 -0.951266 1.24019 0
M  V30 736 H 70.7148 -3.2395 0.150686 0
M  V30 737 H 70.4998 -3.42111 1.91579 0
M  V30 738 H 71.9898 -4.0208 1.12788 0
M  V30 739 N 72.4269 -1.23603 -0.977757 0
M  V30 740 C 73.6729 -1.07129 -1.72195 0
M  V30 741 C 74.0059 0.390501 -1.90233 0
M  V30 742 O 73.2809 1.28902 -1.45653 0
M  V30 743 C 73.5639 -1.80031 -3.11867 0
M  V30 744 C 73.4169 -3.33899 -3.01383 0
M  V30 745 C 74.7359 -1.56492 -4.11337 0
M  V30 746 H 71.8549 -0.390571 -0.624999 0
M  V30 747 H 74.4969 -1.52142 -1.13811 0
M  V30 748 H 72.6469 -1.41768 -3.6171 0
M  V30 749 H 74.3189 -3.81699 -2.59043 0
M  V30 750 H 72.5619 -3.62796 -2.37827 0
M  V30 751 H 73.2329 -3.801 -4.00285 0
M  V30 752 H 75.7089 -1.89757 -3.70313 0
M  V30 753 H 74.5849 -2.09973 -5.07151 0
M  V30 754 H 74.8459 -0.500874 -4.39254 0
M  V30 755 N 73.905 1.17692 -1.04816 0
M  V30 756 C 75.153 1.87488 -0.754497 0
M  V30 757 C 75.474 1.81205 0.720407 0
M  V30 758 O 74.744 1.23544 1.52032 0
M  V30 759 H 73.324 0.694101 -0.276102 0
M  V30 760 H 75.986 1.42793 -1.32651 0
M  V30 761 H 75.082 2.93328 -1.06606 0
M  V30 762 N 75.3831 0.828654 1.34056 0
M  V30 763 C 76.6311 0.41863 1.97717 0
M  V30 764 C 76.9521 -1.02314 1.66002 0
M  V30 765 O 76.2221 -1.71119 0.953683 0
M  V30 766 H 74.8021 0.151809 0.731412 0
M  V30 767 H 77.4641 1.05936 1.63596 0
M  V30 768 H 76.5601 0.542318 3.07352 0
M  V30 769 N 76.8612 -1.46375 0.584142 0
M  V30 770 C 78.1092 -2.01978 0.0701287 0
M  V30 771 C 78.4302 -1.4579 -1.295 0
M  V30 772 O 77.7002 -0.64314 -1.85042 0
M  V30 773 H 76.2802 -0.746648 0.0229345 0
M  V30 774 H 78.9422 -1.79461 0.760245 0
M  V30 775 H 78.0382 -3.121 0.0022064 0
M  V30 776 N 78.3393 -0.321999 -1.54275 0
M  V30 777 C 79.5673 0.283052 -2.04955 0
M  V30 778 C 79.9823 1.45904 -1.19823 0
M  V30 779 O 79.3393 1.81063 -0.228545 0
M  V30 780 C 79.3903 0.719028 -3.54277 0
M  V30 781 O 79.1113 -0.410175 -4.36176 0
M  V30 782 C 80.6123 1.38705 -4.21041 0
M  V30 783 H 77.8323 0.0584616 -0.668448 0
M  V30 784 H 80.3763 -0.467734 -1.99079 0
M  V30 785 H 78.5313 1.41979 -3.60445 0
M  V30 786 H 78.9453 -0.0669416 -5.24457 0
M  V30 787 H 80.4193 1.64306 -5.2698 0
M  V30 788 H 80.8963 2.33385 -3.72059 0
M  V30 789 H 81.5023 0.728906 -4.19007 0
M  V30 790 N 79.8174 1.5752 -0.0501392 0
M  V30 791 C 81.0454 1.96963 0.633492 0
M  V30 792 C 81.4604 0.927631 1.6444 0
M  V30 793 O 80.8174 -0.0882665 1.82286 0
M  V30 794 C 80.8684 3.36487 1.32132 0
M  V30 795 O 80.5894 4.36693 0.350894 0
M  V30 796 C 82.0904 3.90682 2.09481 0
M  V30 797 H 79.3104 0.648244 0.173266 0
M  V30 798 H 81.8544 2.0417 -0.116134 0
M  V30 799 H 80.0094 3.30434 2.02218 0
M  V30 800 H 80.4234 5.17702 0.841735 0
M  V30 801 H 81.8974 4.90591 2.5303 0
M  V30 802 H 82.3744 3.26053 2.94255 0
M  V30 803 H 82.9804 4.00069 1.44307 0
M  V30 804 N 81.2955 -0.223234 1.56011 0
M  V30 805 C 82.2585 -1.26014 1.9145 0
M  V30 806 C 83.2585 -1.3989 0.792937 0
M  V30 807 O 84.4485 -1.38184 1.0607 0
M  V30 808 C 81.5805 -2.63422 2.16383 0
M  V30 809 H 82.7735 -0.95796 2.84189 0
M  V30 810 H 80.3265 -0.463576 1.49267 0
M  V30 811 H 81.0615 -2.98741 1.2619 0
M  V30 812 H 80.8465 -2.54728 2.98088 0
M  V30 813 H 82.3365 -3.38249 2.44903 0
M  V30 814 N 82.7736 -1.49793 -0.48987 0
M  V30 815 C 83.7206 -1.67281 -1.59014 0
M  V30 816 C 84.6906 -0.514177 -1.57941 0
M  V30 817 O 85.8756 -0.742533 -1.75759 0
M  V30 818 C 83.0156 -1.75569 -2.97102 0
M  V30 819 C 82.1286 -3.0281 -3.08107 0
M  V30 820 C 81.2636 -3.02008 -4.36995 0
M  V30 821 C 80.3026 -4.23782 -4.41673 0
M  V30 822 N 79.4396 -4.20826 -5.62005 0
M  V30 823 H 84.2796 -2.61224 -1.43409 0
M  V30 824 H 81.8166 -1.29508 -0.697565 0
M  V30 825 H 83.7746 -1.78354 -3.77155 0
M  V30 826 H 82.4046 -0.850827 -3.11385 0
M  V30 827 H 81.4566 -3.09584 -2.21047 0
M  V30 828 H 82.7686 -3.92801 -3.07423 0
M  V30 829 H 81.9226 -3.03418 -5.25378 0
M  V30 830 H 80.6616 -2.09815 -4.4026 0
M  V30 831 H 79.6666 -4.22604 -3.5169 0
M  V30 832 H 80.8916 -5.17181 -4.40115 0
M  V30 833 H 78.8376 -3.31476 -5.66091 0
M  V30 834 H 78.7546 -5.04564 -5.62984 0
M  V30 835 H 80.0226 -4.26355 -6.52565 0
M  V30 836 N 84.2517 0.741722 -1.39055 0
M  V30 837 C 85.5287 1.49252 -1.26425 0
M  V30 838 C 85.9087 2.10705 0.129144 0
M  V30 839 O 85.2567 1.98045 1.13976 0
M  V30 840 C 85.4667 2.54934 -2.38347 0
M  V30 841 C 86.8147 3.21506 -2.77343 0
M  V30 842 O 87.8387 2.65245 -2.37747 0
M  V30 843 O 86.6977 4.23294 -3.45665 0
M  V30 844 H 83.7917 0.662451 -0.495064 0
M  V30 845 H 86.3377 0.776121 -1.50912 0
M  V30 846 H 85.1097 2.07857 -3.31529 0
M  V30 847 H 84.7327 3.34141 -2.15489 0
M  V30 848 N 85.7298 1.2412 0.971189 0
M  V30 849 C 86.6768 1.0305 2.06517 0
M  V30 850 C 87.6468 -0.0550666 1.66009 0
M  V30 851 O 88.8318 0.0988688 1.90544 0
M  V30 852 C 85.9718 0.637653 3.39158 0
M  V30 853 C 85.0848 1.79633 3.92882 0
M  V30 854 C 84.2198 1.34939 5.13775 0
M  V30 855 C 83.2588 2.47823 5.59687 0
M  V30 856 N 82.3958 2.04022 6.71803 0
M  V30 857 H 87.2358 1.96685 2.23873 0
M  V30 858 H 84.7728 0.979694 1.09729 0
M  V30 859 H 86.7308 0.390931 4.15364 0
M  V30 860 H 85.3608 -0.261693 3.21737 0
M  V30 861 H 84.4128 2.15681 3.13346 0
M  V30 862 H 85.7248 2.64466 4.22918 0
M  V30 863 H 84.8788 1.06134 5.97345 0
M  V30 864 H 83.6178 0.471557 4.85415 0
M  V30 865 H 82.6228 2.77392 4.74693 0
M  V30 866 H 83.8478 3.36158 5.90063 0
M  V30 867 H 81.7938 1.18632 6.45184 0
M  V30 868 H 81.7108 2.82409 7.01271 0
M  V30 869 H 82.9788 1.78347 7.58823 0
M  V30 870 N 87.2079 -1.17134 1.05439 0
M  V30 871 C 88.1379 -2.2342 0.678649 0
M  V30 872 C 89.1189 -1.66971 -0.32476 0
M  V30 873 O 90.3039 -1.93149 -0.201802 0
M  V30 874 C 87.4339 -3.47256 0.0552099 0
M  V30 875 C 86.3879 -4.16543 0.98365 0
M  V30 876 C 85.7139 -5.34231 0.223961 0
M  V30 877 C 87.0139 -4.68495 2.3089 0
M  V30 878 H 88.7079 -2.55105 1.56722 0
M  V30 879 H 86.2539 -1.2262 0.754998 0
M  V30 880 H 88.2069 -4.20828 -0.21946 0
M  V30 881 H 86.9309 -3.14846 -0.868319 0
M  V30 882 H 85.5899 -3.44887 1.24293 0
M  V30 883 H 85.2379 -4.98071 -0.702412 0
M  V30 884 H 84.9379 -5.81527 0.842627 0
M  V30 885 H 86.4619 -6.10585 -0.0433671 0
M  V30 886 H 87.8759 -5.33691 2.09396 0
M  V30 887 H 86.2729 -5.26379 2.88176 0
M  V30 888 H 87.3429 -3.85169 2.94572 0
M  V30 889 N 88.686 -0.835752 -1.33615 0
M  V30 890 C 89.934 -0.429109 -1.97492 0
M  V30 891 C 90.255 1.01433 -1.66543 0
M  V30 892 O 89.525 1.70611 -0.962744 0
M  V30 893 H 88.105 -0.155686 -0.730596 0
M  V30 894 H 90.767 -1.06802 -1.63031 0
M  V30 895 H 89.863 -0.55861 -3.0706 0
M  V30 896 N 90.1641 1.46063 -0.591896 0
M  V30 897 C 91.1121 2.32124 0.148739 0
M  V30 898 C 92.1061 1.45035 0.875286 0
M  V30 899 O 93.3121 1.61609 0.792632 0
M  V30 900 H 89.6871 0.749024 0.066832 0
M  V30 901 H 91.6581 2.92392 -0.595783 0
M  V30 902 C 90.4071 3.28373 1.1431 0
M  V30 903 H 89.7301 3.95371 0.59346 0
M  V30 904 H 91.1701 3.91352 1.63155 0
M  V30 905 C 89.6291 2.54393 2.20875 0
M  V30 906 O 90.1591 2.31373 3.28374 0
M  V30 907 N 88.3651 2.14797 1.95731 0
M  V30 908 H 87.9121 2.33719 1.08319 0
M  V30 909 H 87.8701 1.65619 2.67241 0
M  V30 910 N 91.6422 0.330177 1.54103 0
M  V30 911 C 92.5902 -0.548226 2.26047 0
M  V30 912 C 93.5842 -1.11309 1.27698 0
M  V30 913 O 94.7902 -1.06036 1.45452 0
M  V30 914 H 91.1652 -0.195456 0.726155 0
M  V30 915 H 93.1362 0.0807567 2.98291 0
M  V30 916 C 91.8852 -1.69415 3.03634 0
M  V30 917 H 91.2082 -1.26876 3.79134 0
M  V30 918 H 92.6482 -2.28423 3.5721 0
M  V30 919 C 91.1072 -2.61569 2.12328 0
M  V30 920 O 91.6372 -3.63462 1.7105 0
M  V30 921 N 89.8432 -2.29952 1.77681 0
M  V30 922 H 89.3902 -1.47134 2.11446 0
M  V30 923 H 89.3482 -2.91871 1.16869 0
M  V30 924 N 93.1203 -1.57491 0.0584922 0
M  V30 925 C 94.3663 -1.93264 -0.614558 0
M  V30 926 C 94.6993 -0.937717 -1.7006 0
M  V30 927 O 93.9743 0.0351652 -1.94468 0
M  V30 928 C 94.2573 -3.3938 -1.20386 0
M  V30 929 C 94.1103 -4.49625 -0.125375 0
M  V30 930 C 95.4293 -3.86039 -2.11334 0
M  V30 931 H 92.5483 -0.702791 -0.221933 0
M  V30 932 H 95.1903 -1.8961 0.12175 0
M  V30 933 H 93.3403 -3.42626 -1.83139 0
M  V30 934 H 95.0123 -4.58506 0.506971 0
M  V30 935 H 93.2553 -4.30354 0.545672 0
M  V30 936 H 93.9263 -5.48967 -0.577861 0
M  V30 937 H 96.4023 -3.84716 -1.58534 0
M  V30 938 H 95.2783 -4.88914 -2.49507 0
M  V30 939 H 95.5393 -3.23215 -3.01636 0
M  V30 940 N 94.5984 0.214957 -1.56127 0
M  V30 941 C 95.5454 1.26642 -1.92952 0
M  V30 942 C 96.5154 1.46244 -0.78753 0
M  V30 943 O 97.7004 1.59704 -1.04399 0
M  V30 944 C 94.8404 2.6104 -2.25726 0
M  V30 945 C 93.9534 2.49183 -3.52891 0
M  V30 946 C 93.0884 3.76149 -3.7508 0
M  V30 947 C 92.1274 3.59041 -4.95738 0
M  V30 948 N 91.2644 4.77972 -5.14283 0
M  V30 949 H 96.1044 0.945384 -2.82607 0
M  V30 950 H 93.6414 0.455489 -1.3987 0
M  V30 951 H 95.5994 3.39313 -2.42739 0
M  V30 952 H 94.2294 2.91227 -1.39236 0
M  V30 953 H 93.2814 1.6231 -3.44034 0
M  V30 954 H 94.5934 2.32466 -4.41318 0
M  V30 955 H 93.7474 4.62865 -3.92226 0
M  V30 956 H 92.4864 3.95799 -2.84947 0
M  V30 957 H 91.4914 2.7071 -4.78535 0
M  V30 958 H 92.7164 3.40856 -5.87362 0
M  V30 959 H 90.6624 4.97923 -4.27093 0
M  V30 960 H 90.5794 4.64006 -5.96853 0
M  V30 961 H 91.8474 5.66096 -5.35869 0
M  V30 962 N 96.0765 1.50051 0.48192 0
M  V30 963 C 97.3225 1.60736 1.2366 0
M  V30 964 C 97.6555 0.301786 1.91841 0
M  V30 965 O 96.9305 -0.696025 1.8162 0
M  V30 966 C 97.2135 2.78009 2.28874 0
M  V30 967 C 97.0665 4.18416 1.65069 0
M  V30 968 C 98.3855 2.90867 3.30279 0
M  V30 969 H 95.5045 0.585031 0.448228 0
M  V30 970 H 98.1465 1.82402 0.531946 0
M  V30 971 H 96.2965 2.59667 2.88973 0
M  V30 972 H 97.9685 4.48322 1.0865 0
M  V30 973 H 96.2115 4.23177 0.954148 0
M  V30 974 H 96.8825 4.96381 2.41474 0
M  V30 975 H 99.3585 3.07623 2.80191 0
M  V30 976 H 98.2345 3.74566 4.01238 0
M  V30 977 H 98.4955 2.01021 3.93755 0
M  V30 978 N 97.5546 -0.734337 1.39446 0
M  V30 979 C 98.7796 -1.52866 1.40167 0
M  V30 980 C 99.2046 -1.881 -0.00171513 0
M  V30 981 O 98.5626 -1.51957 -0.988879 0
M  V30 982 C 98.6106 -2.79235 2.28167 0
M  V30 983 O 97.7146 -3.75185 1.71201 0
M  V30 984 H 97.0556 -0.461618 0.477289 0
M  V30 985 H 99.5856 -0.905949 1.8345 0
M  V30 986 H 99.5956 -3.27963 2.42702 0
M  V30 987 H 98.2706 -2.52923 3.30156 0
M  V30 988 H 96.8476 -3.33958 1.65912 0
M  V30 989 N 99.0327 -1.24633 -0.964593 0
M  V30 990 C 99.9797 -1.04144 -2.05968 0
M  V30 991 C 100.95 0.046262 -1.66036 0
M  V30 992 O 102.135 -0.108972 -1.90489 0
M  V30 993 C 99.2747 -0.65563 -3.38815 0
M  V30 994 C 98.3877 -1.81714 -3.91923 0
M  V30 995 C 97.5227 -1.37662 -5.13052 0
M  V30 996 C 96.5617 -2.50788 -5.58365 0
M  V30 997 N 95.6987 -2.07582 -6.70712 0
M  V30 998 H 100.539 -1.9787 -2.22827 0
M  V30 999 H 98.0757 -0.9855 -1.09208 0
M  V30 1000 H 100.034 -0.412954 -4.15151 0
M  V30 1001 H 98.6637 0.244627 -3.21872 0
M  V30 1002 H 97.7157 -2.1734 -3.12198 0
M  V30 1003 H 99.0277 -2.66705 -4.21509 0
M  V30 1004 H 98.1817 -1.093 -5.96773 0
M  V30 1005 H 96.9207 -0.497293 -4.85158 0
M  V30 1006 H 95.9257 -2.79906 -4.73215 0
M  V30 1007 H 97.1507 -3.39283 -5.88272 0
M  V30 1008 H 95.0967 -1.22051 -6.44546 0
M  V30 1009 H 95.0137 -2.86125 -6.99763 0
M  V30 1010 H 96.2817 -1.82369 -7.57867 0
M  V30 1011 N 100.511 1.16574 -1.06058 0
M  V30 1012 C 101.758 1.87047 -0.775873 0
M  V30 1013 C 102.086 1.81562 0.697534 0
M  V30 1014 O 101.341 1.22445 1.52662 0
M  V30 1015 C 101.64 3.36195 -1.21275 0
M  V30 1016 C 101.306 3.6188 -2.68986 0
M  V30 1017 C 99.9678 3.68599 -3.09335 0
M  V30 1018 C 102.32 3.72648 -3.64394 0
M  V30 1019 C 99.6478 3.83584 -4.43937 0
M  V30 1020 C 102 3.89154 -4.98741 0
M  V30 1021 C 100.664 3.94114 -5.3873 0
M  V30 1022 H 99.9338 0.684452 -0.283912 0
M  V30 1023 H 102.581 1.37853 -1.32925 0
M  V30 1024 H 100.886 3.87505 -0.578528 0
M  V30 1025 H 102.583 3.89103 -0.969542 0
M  V30 1026 H 99.1728 3.57281 -2.36744 0
M  V30 1027 H 103.357 3.66769 -3.34356 0
M  V30 1028 H 98.6128 3.85677 -4.74409 0
M  V30 1029 H 102.787 3.96427 -5.72554 0
M  V30 1030 H 100.414 4.05478 -6.43033 0
M  V30 1031 N 101.989 0.842826 1.3317 0
M  V30 1032 C 102.919 0.294028 2.31641 0
M  V30 1033 C 103.9 -0.600401 1.59151 0
M  V30 1034 O 105.085 -0.523124 1.87022 0
M  V30 1035 C 102.215 -0.528416 3.43257 0
M  V30 1036 C 101.169 0.27056 4.27144 0
M  V30 1037 C 100.495 -0.675881 5.30411 0
M  V30 1038 C 101.795 1.48981 5.00602 0
M  V30 1039 H 103.489 1.11681 2.77791 0
M  V30 1040 H 101.035 0.538478 1.33553 0
M  V30 1041 H 102.988 -0.922674 4.11175 0
M  V30 1042 H 101.712 -1.38445 2.95805 0
M  V30 1043 H 100.371 0.646427 3.60856 0
M  V30 1044 H 100.019 -1.52842 4.79216 0
M  V30 1045 H 99.7189 -0.145374 5.8742 0
M  V30 1046 H 101.243 -1.06757 6.01195 0
M  V30 1047 H 102.657 1.16849 5.61266 0
M  V30 1048 H 101.054 1.95739 5.6728 0
M  V30 1049 H 102.124 2.25746 4.29147 0
M  V30 1050 N 103.467 -1.45747 0.599634 0
M  V30 1051 C 104.377 -2.34262 -0.125888 0
M  V30 1052 C 105.393 -1.50768 -0.868625 0
M  V30 1053 O 106.569 -1.83592 -0.828003 0
M  V30 1054 C 103.634 -3.28252 -1.11587 0
M  V30 1055 C 102.695 -4.27651 -0.375956 0
M  V30 1056 C 101.928 -5.1715 -1.31877 0
M  V30 1057 O 102.151 -5.09916 -2.55621 0
M  V30 1058 O 101.085 -5.96286 -0.820157 0
M  V30 1059 H 104.911 -2.97688 0.601315 0
M  V30 1060 H 102.496 -1.44999 0.359934 0
M  V30 1061 H 104.378 -3.86191 -1.68626 0
M  V30 1062 H 103.053 -2.67401 -1.82424 0
M  V30 1063 H 101.96 -3.7335 0.236698 0
M  V30 1064 H 103.293 -4.91334 0.29177 0
M  V30 1065 N 104.945 -0.338344 -1.53925 0
M  V30 1066 C 106.17 0.263987 -2.05713 0
M  V30 1067 C 106.595 1.43847 -1.21201 0
M  V30 1068 O 105.953 1.79904 -0.224535 0
M  V30 1069 C 106.001 0.662 -3.54471 0
M  V30 1070 O 105.105 1.76265 -3.72833 0
M  V30 1071 H 104.446 0.0448722 -0.662482 0
M  V30 1072 H 106.976 -0.491048 -1.9862 0
M  V30 1073 H 106.986 0.940594 -3.9701 0
M  V30 1074 H 105.661 -0.196937 -4.15433 0
M  V30 1075 H 104.238 1.48173 -3.42198 0
M  V30 1076 N 106.423 1.57458 -0.0668435 0
M  V30 1077 C 107.373 2.0896 0.912119 0
M  V30 1078 C 108.357 0.998186 1.26195 0
M  V30 1079 O 109.549 1.26133 1.24175 0
M  V30 1080 C 106.678 2.6508 2.18145 0
M  V30 1081 C 105.764 3.81218 1.85832 0
M  V30 1082 N 106.155 4.90378 1.23948 0
M  V30 1083 C 104.453 3.9042 2.15612 0
M  V30 1084 C 105.154 5.71279 1.09616 0
M  V30 1085 N 104.13 5.19389 1.60423 0
M  V30 1086 H 107.932 2.90749 0.42924 0
M  V30 1087 H 105.446 1.6182 0.137184 0
M  V30 1088 H 107.443 3.0029 2.89192 0
M  V30 1089 H 106.103 1.84736 2.67025 0
M  V30 1090 H 107.114 5.09847 0.909731 0
M  V30 1091 H 103.791 3.21043 2.66903 0
M  V30 1092 H 105.181 6.69085 0.614425 0
M  V30 1093 N 107.901 -0.206675 1.56239 0
M  V30 1094 C 108.849 -1.27571 1.94495 0
M  V30 1095 C 109.843 -1.47737 0.828862 0
M  V30 1096 O 111.049 -1.48735 1.0138 0
M  V30 1097 H 107.424 -0.428029 0.6183 0
M  V30 1098 H 109.395 -0.925961 2.8367 0
M  V30 1099 C 108.144 -2.61568 2.29079 0
M  V30 1100 H 107.467 -2.46863 3.14482 0
M  V30 1101 H 108.907 -3.35144 2.5972 0
M  V30 1102 C 107.366 -3.17695 1.12123 0
M  V30 1103 O 107.896 -3.99801 0.390153 0
M  V30 1104 N 106.102 -2.76276 0.901097 0
M  V30 1105 H 105.649 -2.09613 1.49733 0
M  V30 1106 H 105.607 -3.1417 0.120319 0
M  V30 1107 N 109.379 -1.50304 -0.473955 0
M  V30 1108 C 110.342 -1.6841 -1.55469 0
M  V30 1109 C 111.342 -0.554905 -1.50922 0
M  V30 1110 O 112.532 -0.821882 -1.53593 0
M  V30 1111 C 109.664 -1.70667 -2.95102 0
M  V30 1112 H 110.857 -2.64828 -1.40733 0
M  V30 1113 H 108.41 -1.39742 -0.700132 0
M  V30 1114 H 109.145 -0.75932 -3.15285 0
M  V30 1115 H 108.93 -2.52698 -2.9981 0
M  V30 1116 H 110.42 -1.8664 -3.73571 0
M  V30 1117 N 110.857 0.726932 -1.39834 0
M  V30 1118 C 112.105 1.4837 -1.37225 0
M  V30 1119 C 112.426 1.94979 0.0284857 0
M  V30 1120 O 111.696 1.69555 0.981213 0
M  V30 1121 H 110.276 0.55043 -0.505011 0
M  V30 1122 H 112.938 0.862468 -1.74778 0
M  V30 1123 H 112.034 2.36198 -2.04003 0
M  V30 1124 N 112.336 1.25143 0.95797 0
M  V30 1125 C 113.613 1.00472 1.67823 0
M  V30 1126 C 113.993 -0.470056 2.058 0
M  V30 1127 O 113.341 -1.44663 1.76875 0
M  V30 1128 C 113.551 1.9372 2.90299 0
M  V30 1129 C 114.899 2.21371 3.62326 0
M  V30 1130 O 115.923 1.91451 3.00375 0
M  V30 1131 O 114.782 2.72231 4.7387 0
M  V30 1132 H 111.876 0.380752 0.734137 0
M  V30 1133 H 114.422 1.36283 1.01119 0
M  V30 1134 H 113.194 2.93316 2.59001 0
M  V30 1135 H 112.817 1.58286 3.64735 0
M  V30 1136 N 113.814 -1.1601 1.06675 0
M  V30 1137 C 115.23 -1.38622 0.790948 0
M  V30 1138 C 115.43 -1.92109 -0.607965 0
M  V30 1139 O 114.486 -2.12239 -1.36787 0
M  V30 1140 C 115.799 -2.36347 1.85905 0
M  V30 1141 C 117.347 -2.50023 1.88301 0
M  V30 1142 C 117.822 -3.51033 2.94176 0
M  V30 1143 N 119.313 -3.58563 2.93235 0
M  V30 1144 C 120.048 -4.36521 3.71803 0
M  V30 1145 N 119.544 -5.17869 4.602 0
M  V30 1146 N 121.337 -4.31541 3.60178 0
M  V30 1147 H 113.488 -0.796294 1.96908 0
M  V30 1148 H 115.751 -0.412597 0.853503 0
M  V30 1149 H 115.457 -2.04147 2.86386 0
M  V30 1150 H 115.331 -3.36042 1.71334 0
M  V30 1151 H 117.718 -2.81524 0.884769 0
M  V30 1152 H 117.799 -1.5035 2.06951 0
M  V30 1153 H 117.443 -3.20268 3.94196 0
M  V30 1154 H 117.373 -4.50445 2.72776 0
M  V30 1155 H 119.864 -3.00496 2.29152 0
M  V30 1156 H 120.177 -5.74578 5.16797 0
M  V30 1157 H 118.522 -5.17199 4.64253 0
M  V30 1158 H 121.713 -3.67051 2.90502 0
M  V30 1159 H 121.886 -4.9205 4.21653 0
M  V30 1160 N 115.292 -0.849877 -1.32721 0
M  V30 1161 C 116.538 -0.451591 -1.97708 0
M  V30 1162 C 116.871 0.989175 -1.6712 0
M  V30 1163 O 116.146 1.69334 -0.956891 0
M  V30 1164 C 116.429 -0.685598 -3.53513 0
M  V30 1165 C 116.282 -2.17444 -3.93749 0
M  V30 1166 C 117.601 -0.138874 -4.39881 0
M  V30 1167 H 114.72 -0.16555 -0.718166 0
M  V30 1168 H 117.362 -1.06742 -1.57182 0
M  V30 1169 H 115.512 -0.161416 -3.88165 0
M  V30 1170 H 117.184 -2.76433 -3.693 0
M  V30 1171 H 115.427 -2.65476 -3.43081 0
M  V30 1172 H 116.098 -2.28888 -5.02309 0
M  V30 1173 H 118.574 -0.587068 -4.11938 0
M  V30 1174 H 117.45 -0.332213 -5.47894 0
M  V30 1175 H 117.711 0.95806 -4.31594 0
M  V30 1176 N 116.77 1.45427 -0.607355 0
M  V30 1177 C 117.7 2.3329 0.0989352 0
M  V30 1178 C 118.681 1.46816 0.859007 0
M  V30 1179 O 119.866 1.75588 0.829604 0
M  V30 1180 C 116.996 3.29518 1.09705 0
M  V30 1181 C 115.95 4.25626 0.450206 0
M  V30 1182 C 115.276 5.11542 1.55655 0
M  V30 1183 C 116.576 5.18505 -0.628455 0
M  V30 1184 H 118.27 2.92595 -0.634716 0
M  V30 1185 H 115.816 1.40696 -0.306681 0
M  V30 1186 H 117.769 3.89855 1.59971 0
M  V30 1187 H 116.493 2.68372 1.86129 0
M  V30 1188 H 115.152 3.66586 -0.0315886 0
M  V30 1189 H 114.8 4.46765 2.31107 0
M  V30 1190 H 114.5 5.76647 1.12925 0
M  V30 1191 H 116.024 5.74748 2.06148 0
M  V30 1192 H 117.438 5.72916 -0.209877 0
M  V30 1193 H 115.835 5.92085 -0.977489 0
M  V30 1194 H 116.905 4.60948 -1.50514 0
M  V30 1195 N 118.248 0.346503 1.53744 0
M  V30 1196 C 119.494 -0.249473 2.0126 0
M  V30 1197 C 119.827 -1.49965 1.23386 0
M  V30 1198 O 119.102 -1.91811 0.32229 0
M  V30 1199 C 119.385 -0.560643 3.55709 0
M  V30 1200 C 119.238 0.701836 4.44291 0
M  V30 1201 C 120.557 -1.36905 4.18264 0
M  V30 1202 H 117.676 -0.0891987 0.731582 0
M  V30 1203 H 120.318 0.467624 1.84156 0
M  V30 1204 H 118.468 -1.17156 3.70414 0
M  V30 1205 H 120.14 1.33974 4.41417 0
M  V30 1206 H 118.383 1.32612 4.13033 0
M  V30 1207 H 119.054 0.43933 5.50249 0
M  V30 1208 H 121.53 -0.852448 4.07275 0
M  V30 1209 H 120.406 -1.55553 5.26398 0
M  V30 1210 H 120.667 -2.37203 3.73078 0
M  V30 1211 N 119.726 -1.57421 0.075193 0
M  V30 1212 C 120.658 -2.09904 -0.920483 0
M  V30 1213 C 121.671 -1.03191 -1.25918 0
M  V30 1214 O 122.86 -1.30695 -1.21577 0
M  V30 1215 C 119.96 -2.54726 -2.23534 0
M  V30 1216 C 119.133 -3.8505 -2.07498 0
M  V30 1217 C 118.192 -4.15929 -3.22319 0
M  V30 1218 O 117.218 -4.85474 -2.9716 0
M  V30 1219 N 118.42 -3.69745 -4.47514 0
M  V30 1220 H 121.185 -2.95954 -0.472359 0
M  V30 1221 H 118.746 -1.61523 -0.110444 0
M  V30 1222 H 120.738 -2.72443 -2.9926 0
M  V30 1223 H 119.308 -1.73795 -2.59835 0
M  V30 1224 H 118.528 -3.76679 -1.16219 0
M  V30 1225 H 119.816 -4.70348 -1.94038 0
M  V30 1226 H 119.214 -3.13569 -4.7084 0
M  V30 1227 H 117.771 -3.92655 -5.20255 0
M  V30 1228 N 121.204 0.198386 -1.56346 0
M  V30 1229 C 122.452 0.91747 -1.80075 0
M  V30 1230 C 122.773 1.83929 -0.647692 0
M  V30 1231 O 122.043 1.93029 0.334166 0
M  V30 1232 H 120.623 0.341774 -0.664228 0
M  V30 1233 H 123.285 0.204684 -1.93822 0
M  V30 1234 H 122.381 1.51055 -2.7311 0
M  V30 1235 N 122.682 1.50554 0.465978 0
M  V30 1236 C 123.612 1.72722 1.57128 0
M  V30 1237 C 124.593 0.576294 1.6004 0
M  V30 1238 O 125.778 0.81598 1.76225 0
M  V30 1239 C 122.908 1.82605 2.95419 0
M  V30 1240 C 121.862 2.97835 3.07373 0
M  V30 1241 C 121.188 2.92867 4.47363 0
M  V30 1242 C 122.488 4.38265 2.84114 0
M  V30 1243 H 124.182 2.65267 1.38829 0
M  V30 1244 H 121.728 1.2765 0.666441 0
M  V30 1245 H 123.681 1.96698 3.72677 0
M  V30 1246 H 122.405 0.866858 3.14886 0
M  V30 1247 H 121.064 2.83401 2.3255 0
M  V30 1248 H 120.712 1.94783 4.63755 0
M  V30 1249 H 120.412 3.70227 4.56296 0
M  V30 1250 H 121.936 3.09015 5.26633 0
M  V30 1251 H 123.35 4.53198 3.51118 0
M  V30 1252 H 121.747 5.17115 3.04487 0
M  V30 1253 H 122.817 4.50281 1.7993 0
M  V30 1254 N 124.16 -0.719506 1.40217 0
M  V30 1255 C 125.107 -1.83359 1.40172 0
M  V30 1256 C 126.077 -1.64065 0.259206 0
M  V30 1257 O 127.262 -1.85254 0.456677 0
M  V30 1258 C 124.402 -3.2103 1.26624 0
M  V30 1259 C 123.515 -3.51923 2.50548 0
M  V30 1260 C 122.65 -4.79079 2.29471 0
M  V30 1261 C 121.689 -5.02863 3.48992 0
M  V30 1262 N 120.826 -6.2123 3.27135 0
M  V30 1263 H 125.666 -1.82733 2.35399 0
M  V30 1264 H 123.203 -0.892688 1.16917 0
M  V30 1265 H 125.161 -4.00524 1.16776 0
M  V30 1266 H 123.791 -3.20895 0.350176 0
M  V30 1267 H 122.843 -2.67014 2.70939 0
M  V30 1268 H 124.155 -3.6541 3.39525 0
M  V30 1269 H 123.309 -5.66582 2.16955 0
M  V30 1270 H 122.048 -4.67794 1.37913 0
M  V30 1271 H 121.053 -4.13816 3.6199 0
M  V30 1272 H 122.278 -5.16023 4.41472 0
M  V30 1273 H 120.224 -6.11204 2.38256 0
M  V30 1274 H 120.141 -6.35375 4.09675 0
M  V30 1275 H 121.409 -7.11532 3.18344 0
M  V30 1276 N 125.638 -1.25649 -0.95132 0
M  V30 1277 C 126.886 -1.10375 -1.69298 0
M  V30 1278 C 127.207 0.355339 -1.91735 0
M  V30 1279 O 126.477 1.25188 -1.50681 0
M  V30 1280 H 125.057 -0.405461 -0.627384 0
M  V30 1281 H 127.719 -1.57823 -1.14358 0
M  V30 1282 H 126.815 -1.61465 -2.67087 0
M  V30 1283 N 127.117 1.15442 -1.07289 0
M  V30 1284 C 128.394 1.82306 -0.708792 0
M  V30 1285 C 128.774 1.94991 0.808807 0
M  V30 1286 O 128.122 1.50085 1.72298 0
M  V30 1287 C 128.332 3.18695 -1.42247 0
M  V30 1288 C 129.68 3.94341 -1.57417 0
M  V30 1289 O 130.704 3.28247 -1.38319 0
M  V30 1290 O 129.563 5.12839 -1.88834 0
M  V30 1291 H 126.657 0.787628 -0.252132 0
M  V30 1292 H 129.203 1.22559 -1.17377 0
M  V30 1293 H 127.975 3.04557 -2.45684 0
M  V30 1294 H 127.598 3.86128 -0.948223 0
M  V30 1295 N 128.595 0.856903 1.32268 0
M  V30 1296 C 130.006 0.515711 1.79436 0
M  V30 1297 C 130.357 -0.966586 1.70738 0
M  V30 1298 O 129.482 -1.75409 1.26731 0
M  V30 1299 C 130.077 0.929335 3.25805 0
M  V30 1300 C 128.636 0.640006 3.70919 0
M  V30 1301 C 127.783 1.12784 2.53328 0
M  V30 1302 H 130.734 1.04389 1.19535 0
M  V30 1303 H 130.755 0.246633 3.797 0
M  V30 1304 H 130.267 2.00821 3.32103 0
M  V30 1305 H 128.368 -0.428051 3.70133 0
M  V30 1306 H 128.481 1.20788 4.63624 0
M  V30 1307 H 126.845 0.548033 2.48734 0
M  V30 1308 H 127.628 2.21387 2.62379 0
M  V30 1309 N 130.073 -1.45103 0.615059 0
M  V30 1310 C 131.301 -2.06553 0.11977 0
M  V30 1311 C 131.716 -1.45842 -1.19898 0
M  V30 1312 O 131.073 -0.575325 -1.73194 0
M  V30 1313 C 131.124 -3.61495 -0.018364 0
M  V30 1314 O 130.845 -4.19942 1.24822 0
M  V30 1315 C 132.346 -4.39947 -0.544237 0
M  V30 1316 H 129.566 -0.667096 0.0722739 0
M  V30 1317 H 132.11 -1.8623 0.84491 0
M  V30 1318 H 130.265 -3.81135 -0.693865 0
M  V30 1319 H 130.679 -5.13204 1.0827 0
M  V30 1320 H 132.153 -5.48838 -0.589953 0
M  V30 1321 H 132.63 -4.10255 -1.56805 0
M  V30 1322 H 133.236 -4.25188 0.0974703 0
M  V30 1323 N 131.551 -0.354651 -1.53558 0
M  V30 1324 C 132.781 0.239167 -2.05211 0
M  V30 1325 C 133.189 1.43879 -1.22863 0
M  V30 1326 O 132.532 1.81857 -0.259565 0
M  V30 1327 C 132.594 0.707251 -3.52474 0
M  V30 1328 C 132.258 -0.374212 -4.55465 0
M  V30 1329 C 133.255 -1.22054 -5.0537 0
M  V30 1330 C 130.94 -0.531323 -4.99482 0
M  V30 1331 C 132.934 -2.20942 -5.97882 0
M  V30 1332 C 130.621 -1.52358 -5.91802 0
M  V30 1333 C 131.619 -2.36108 -6.40892 0
M  V30 1334 O 131.307 -3.33643 -7.31394 0
M  V30 1335 H 131.039 0.0479716 -0.674296 0
M  V30 1336 H 133.593 -0.508121 -1.99016 0
M  V30 1337 H 131.823 1.50596 -3.56171 0
M  V30 1338 H 133.512 1.22285 -3.87042 0
M  V30 1339 H 134.278 -1.1103 -4.7212 0
M  V30 1340 H 130.157 0.110738 -4.60867 0
M  V30 1341 H 133.701 -2.86348 -6.36121 0
M  V30 1342 H 129.598 -1.63434 -6.24467 0
M  V30 1343 H 130.366 -3.29244 -7.4936 0
M  V30 1344 N 133.029 1.57378 -0.0835403 0
M  V30 1345 C 134.278 1.93106 0.582498 0
M  V30 1346 C 134.591 0.96651 1.70053 0
M  V30 1347 O 135.797 1.21705 2.42693 0
M  V30 1348 C 134.253 3.43076 1.08751 0
M  V30 1349 C 133.861 4.48 -0.000146404 0
M  V30 1350 C 135.605 3.87785 1.72694 0
M  V30 1351 C 133.512 5.89113 0.519568 0
M  V30 1352 H 132.442 0.720775 0.221358 0
M  V30 1353 H 135.093 1.82821 -0.157675 0
M  V30 1354 H 133.475 3.48474 1.88101 0
M  V30 1355 H 134.649 4.54233 -0.775199 0
M  V30 1356 H 132.964 4.1283 -0.54406 0
M  V30 1357 H 135.561 4.90604 2.1263 0
M  V30 1358 H 135.904 3.25796 2.59158 0
M  V30 1359 H 136.437 3.8504 0.999457 0
M  V30 1360 H 133.176 6.54775 -0.308186 0
M  V30 1361 H 132.696 5.86376 1.26188 0
M  V30 1362 H 134.375 6.39346 0.992237 0
M  V30 1363 N 134.507 -0.190092 1.56449 0
M  V30 1364 C 135.753 -0.911052 1.81184 0
M  V30 1365 C 136.086 -1.82699 0.658396 0
M  V30 1366 O 135.361 -1.91491 -0.340775 0
M  V30 1367 C 135.644 -1.72297 3.16205 0
M  V30 1368 C 135.497 -0.831419 4.42049 0
M  V30 1369 C 136.816 -2.69454 3.47969 0
M  V30 1370 H 133.935 -0.32977 0.659106 0
M  V30 1371 H 136.577 -0.178169 1.89163 0
M  V30 1372 H 134.727 -2.34778 3.09534 0
M  V30 1373 H 136.399 -0.220929 4.60771 0
M  V30 1374 H 134.642 -0.138406 4.33579 0
M  V30 1375 H 135.313 -1.43461 5.33032 0
M  V30 1376 H 137.789 -2.17104 3.54972 0
M  V30 1377 H 136.665 -3.23342 4.43555 0
M  V30 1378 H 136.926 -3.48744 2.71717 0
M  V30 1379 N 135.985 -1.50799 -0.457987 0
M  V30 1380 C 137.231 -1.62683 -1.21088 0
M  V30 1381 C 137.564 -0.332268 -1.91336 0
M  V30 1382 O 136.839 0.667043 -1.82704 0
M  V30 1383 C 137.122 -2.81615 -2.24422 0
M  V30 1384 C 136.975 -4.20989 -1.58392 0
M  V30 1385 C 138.294 -2.96085 -3.2561 0
M  V30 1386 H 135.413 -0.592087 -0.438864 0
M  V30 1387 H 138.055 -1.83225 -0.50286 0
M  V30 1388 H 136.205 -2.64231 -2.84806 0
M  V30 1389 H 137.877 -4.49994 -1.01504 0
M  V30 1390 H 136.12 -4.24641 -0.886704 0
M  V30 1391 H 136.791 -5.0016 -2.33547 0
M  V30 1392 H 139.267 -3.12042 -2.75262 0
M  V30 1393 H 138.143 -3.80902 -3.95228 0
M  V30 1394 H 138.404 -2.0726 -3.90507 0
M  V30 1395 N 137.463 0.71206 -1.40597 0
M  V30 1396 C 138.373 1.8562 -1.43466 0
M  V30 1397 C 139.389 1.70902 -0.326902 0
M  V30 1398 O 140.565 1.93105 -0.572043 0
M  V30 1399 C 137.63 3.21451 -1.29884 0
M  V30 1400 C 136.691 3.48398 -2.50833 0
M  V30 1401 C 135.924 4.77749 -2.3789 0
M  V30 1402 O 136.147 5.53089 -1.39459 0
M  V30 1403 O 135.081 5.05111 -3.27333 0
M  V30 1404 H 138.907 1.86155 -2.39958 0
M  V30 1405 H 136.492 0.86295 -1.21957 0
M  V30 1406 H 138.374 4.02579 -1.24531 0
M  V30 1407 H 137.049 3.21636 -0.364997 0
M  V30 1408 H 135.956 2.67265 -2.61763 0
M  V30 1409 H 137.289 3.53014 -3.4299 0
M  V30 1410 N 138.941 1.26152 0.944643 0
M  V30 1411 C 140.166 1.14363 1.7302 0
M  V30 1412 C 140.591 -0.29772 1.85729 0
M  V30 1413 O 139.949 -1.2157 1.34501 0
M  V30 1414 C 139.997 1.81378 3.11664 0
M  V30 1415 O 139.101 1.10022 3.97453 0
M  V30 1416 H 138.442 0.398694 0.53098 0
M  V30 1417 H 140.972 1.66906 1.18337 0
M  V30 1418 H 140.982 1.88064 3.62072 0
M  V30 1419 H 139.657 2.86237 3.0173 0
M  V30 1420 H 138.234 1.11287 3.55907 0
M  V30 1421 N 140.419 -1.14872 1.07899 0
M  V30 1422 C 141.366 -2.19791 0.704319 0
M  V30 1423 C 142.336 -1.63238 -0.306987 0
M  V30 1424 O 143.521 -1.8983 -0.192171 0
M  V30 1425 C 140.661 -3.44911 0.114244 0
M  V30 1426 C 139.774 -4.15637 1.1777 0
M  V30 1427 C 138.909 -5.28324 0.552037 0
M  V30 1428 C 137.948 -5.90875 1.59789 0
M  V30 1429 N 137.085 -6.95022 0.994404 0
M  V30 1430 H 141.925 -2.5119 1.60336 0
M  V30 1431 H 139.462 -1.23356 0.801352 0
M  V30 1432 H 141.42 -4.16477 -0.245544 0
M  V30 1433 H 140.05 -3.14011 -0.74813 0
M  V30 1434 H 139.102 -3.42512 1.65499 0
M  V30 1435 H 140.414 -4.5823 1.97046 0
M  V30 1436 H 139.568 -6.06538 0.1402 0
M  V30 1437 H 138.307 -4.86939 -0.272431 0
M  V30 1438 H 137.312 -5.11369 2.01945 0
M  V30 1439 H 138.537 -6.34337 2.42474 0
M  V30 1440 H 136.483 -6.55722 0.190939 0
M  V30 1441 H 136.4 -7.36073 1.72432 0
M  V30 1442 H 137.668 -7.77123 0.608253 0
M  V30 1443 N 141.898 -0.863906 -1.31812 0
M  V30 1444 C 142.808 -0.318461 -2.32428 0
M  V30 1445 C 143.824 0.568496 -1.64451 0
M  V30 1446 O 145 0.46666 -1.95919 0
M  V30 1447 C 142.065 0.476355 -3.43412 0
M  V30 1448 C 141.126 -0.43784 -4.27061 0
M  V30 1449 C 140.359 0.319138 -5.32745 0
M  V30 1450 O 140.582 1.54799 -5.48993 0
M  V30 1451 O 139.516 -0.319861 -6.01049 0
M  V30 1452 H 143.342 -1.15229 -2.80991 0
M  V30 1453 H 140.927 -0.627103 -1.35602 0
M  V30 1454 H 142.809 0.927156 -4.11074 0
M  V30 1455 H 141.484 1.28683 -2.97022 0
M  V30 1456 H 140.391 -0.937013 -3.62175 0
M  V30 1457 H 141.724 -1.21375 -4.77 0
M  V30 1458 N 143.376 1.44774 -0.622745 0
M  V30 1459 C 144.339 2.29069 0.0774015 0
M  V30 1460 C 145.339 1.4059 0.780461 0
M  V30 1461 O 146.529 1.62551 0.626322 0
M  V30 1462 C 143.661 3.21974 1.12006 0
M  V30 1463 H 144.854 2.92459 -0.663901 0
M  V30 1464 H 142.407 1.51548 -0.382486 0
M  V30 1465 H 143.142 2.63417 1.89162 0
M  V30 1466 H 142.927 3.87168 0.619951 0
M  V30 1467 H 144.417 3.85318 1.60995 0
M  V30 1468 N 144.854 0.36279 1.53368 0
M  V30 1469 C 146.103 -0.22888 2.00397 0
M  V30 1470 C 146.416 -1.50096 1.25421 0
M  V30 1471 O 147.622 -2.17106 1.63025 0
M  V30 1472 C 146.078 -0.458417 3.56969 0
M  V30 1473 C 145.686 0.798877 4.4082 0
M  V30 1474 C 147.43 -1.00789 4.12361 0
M  V30 1475 C 145.337 0.539078 5.88938 0
M  V30 1476 H 144.267 -0.089305 0.748693 0
M  V30 1477 H 146.918 0.481099 1.77081 0
M  V30 1478 H 145.3 -1.22959 3.76427 0
M  V30 1479 H 146.474 1.57262 4.33134 0
M  V30 1480 H 144.789 1.27137 3.96516 0
M  V30 1481 H 147.386 -1.21754 5.20653 0
M  V30 1482 H 147.729 -1.9692 3.66781 0
M  V30 1483 H 148.262 -0.296961 3.9669 0
M  V30 1484 H 145.001 1.47064 6.3879 0
M  V30 1485 H 144.521 -0.196222 5.99479 0
M  V30 1486 H 146.2 0.163542 6.46793 0
M  V30 1487 N 146.332 -1.57332 0.0918853 0
M  V30 1488 C 147.748 -1.57389 -0.264766 0
M  V30 1489 C 147.948 -1.10281 -1.68643 0
M  V30 1490 O 147.004 -0.777801 -2.40222 0
M  V30 1491 C 148.317 -3.00648 -0.0561195 0
M  V30 1492 C 149.865 -3.12754 -0.124116 0
M  V30 1493 C 150.34 -4.57965 0.0564972 0
M  V30 1494 N 151.831 -4.632 0.00155611 0
M  V30 1495 C 152.566 -5.73281 0.116598 0
M  V30 1496 N 152.062 -6.92208 0.286294 0
M  V30 1497 N 153.855 -5.6207 0.0580973 0
M  V30 1498 H 146.006 -1.86262 1.02079 0
M  V30 1499 H 148.269 -0.859579 0.399786 0
M  V30 1500 H 147.975 -3.393 0.925669 0
M  V30 1501 H 147.849 -3.68623 -0.799823 0
M  V30 1502 H 150.236 -2.73976 -1.09641 0
M  V30 1503 H 150.317 -2.47377 0.651024 0
M  V30 1504 H 149.961 -4.97436 1.02564 0
M  V30 1505 H 149.891 -5.21399 -0.738297 0
M  V30 1506 H 152.382 -3.77686 -0.127192 0
M  V30 1507 H 152.695 -7.71934 0.365676 0
M  V30 1508 H 151.04 -6.94254 0.32192 0
M  V30 1509 H 154.231 -4.68043 -0.0733204 0
M  V30 1510 H 154.404 -6.47824 0.151203 0
M  V30 1511 N 147.81 0.181792 -1.56548 0
M  V30 1512 C 149.087 0.926765 -1.72251 0
M  V30 1513 C 149.467 2.00831 -0.650386 0
M  V30 1514 O 148.815 2.26008 0.336521 0
M  V30 1515 C 149.025 1.50106 -3.1507 0
M  V30 1516 C 150.373 1.97805 -3.75711 0
M  V30 1517 O 151.397 1.59922 -3.18282 0
M  V30 1518 O 150.256 2.67555 -4.76525 0
M  V30 1519 H 147.35 0.435506 -0.703039 0
M  V30 1520 H 149.896 0.170443 -1.68842 0
M  V30 1521 H 148.668 0.72212 -3.84579 0
M  V30 1522 H 148.291 2.32186 -3.22763 0
M  V30 1523 N 149.288 1.51039 0.449983 0
M  V30 1524 C 150.518 1.66627 1.22143 0
M  V30 1525 C 150.926 0.357776 1.85786 0
M  V30 1526 O 150.269 -0.672424 1.70951 0
M  V30 1527 C 150.331 2.71562 2.35573 0
M  V30 1528 C 149.995 4.14526 1.92399 0
M  V30 1529 C 150.992 4.99717 1.43453 0
M  V30 1530 C 148.677 4.60559 2.00475 0
M  V30 1531 C 150.671 6.28998 1.03155 0
M  V30 1532 C 148.358 5.8984 1.59788 0
M  V30 1533 C 149.356 6.73886 1.11208 0
M  V30 1534 O 149.044 8.0075 0.710935 0
M  V30 1535 H 148.776 0.562635 0.374724 0
M  V30 1536 H 151.33 1.98146 0.541036 0
M  V30 1537 H 149.56 2.3533 3.06849 0
M  V30 1538 H 151.249 2.76156 2.97478 0
M  V30 1539 H 152.015 4.65361 1.36618 0
M  V30 1540 H 147.894 3.95273 2.37235 0
M  V30 1541 H 151.438 6.9455 0.651663 0
M  V30 1542 H 147.335 6.23713 1.66289 0
M  V30 1543 H 148.103 8.142 0.837913 0
M  V30 1544 N 150.766 -0.704594 1.40972 0
M  V30 1545 C 152.014 -1.46169 1.39568 0
M  V30 1546 C 152.335 -1.95 0.00253745 0
M  V30 1547 O 151.605 -1.71095 -0.954114 0
M  V30 1548 H 150.185 -0.542326 0.513704 0
M  V30 1549 H 152.847 -0.834553 1.76128 0
M  V30 1550 H 151.943 -2.32922 2.07735 0
M  V30 1551 N 152.244 -1.26651 -0.937939 0
M  V30 1552 C 153.493 -1.11775 -1.67897 0
M  V30 1553 C 153.806 0.33794 -1.92659 0
M  V30 1554 O 155.012 0.607434 -2.64618 0
M  V30 1555 C 153.468 -1.9523 -3.02346 0
M  V30 1556 C 153.076 -3.45393 -2.8532 0
M  V30 1557 C 154.82 -1.88972 -3.80118 0
M  V30 1558 C 152.727 -4.21083 -4.15263 0
M  V30 1559 H 151.657 -0.414696 -0.629717 0
M  V30 1560 H 154.308 -1.50988 -1.04283 0
M  V30 1561 H 152.69 -1.48853 -3.66959 0
M  V30 1562 H 153.864 -3.99561 -2.29537 0
M  V30 1563 H 152.179 -3.52921 -2.20988 0
M  V30 1564 H 154.776 -2.42805 -4.76392 0
M  V30 1565 H 155.119 -0.86113 -4.07296 0
M  V30 1566 H 155.652 -2.33189 -3.22285 0
M  V30 1567 H 152.391 -5.24425 -3.93267 0
M  V30 1568 H 151.911 -3.71695 -4.70747 0
M  V30 1569 H 153.59 -4.29706 -4.83696 0
M  V30 1570 N 153.722 1.14298 -1.08507 0
M  V30 1571 C 154.67 2.21483 -0.710483 0
M  V30 1572 C 155.664 1.66998 0.284234 0
M  V30 1573 O 156.87 1.79401 0.146692 0
M  V30 1574 H 153.245 0.721578 -0.211729 0
M  V30 1575 H 155.216 2.50348 -1.62384 0
M  V30 1576 C 153.965 3.4743 -0.137007 0
M  V30 1577 H 153.288 3.89686 -0.893592 0
M  V30 1578 H 154.728 4.2391 0.0872789 0
M  V30 1579 C 153.187 3.17548 1.12538 0
M  V30 1580 O 153.717 3.35437 2.21009 0
M  V30 1581 N 151.923 2.71499 1.03617 0
M  V30 1582 H 151.47 2.57143 0.153403 0
M  V30 1583 H 151.428 2.51881 1.88158 0
M  V30 1584 N 155.201 0.870884 1.31352 0
M  V30 1585 C 156.164 0.332243 2.26779 0
M  V30 1586 C 157.164 -0.517302 1.52252 0
M  V30 1587 O 158.354 -0.326477 1.71113 0
M  V30 1588 C 155.486 -0.528066 3.36785 0
M  V30 1589 H 156.679 1.17469 2.75937 0
M  V30 1590 H 154.232 0.64655 1.423 0
M  V30 1591 H 154.967 -1.39167 2.92922 0
M  V30 1592 H 154.752 0.0802582 3.92018 0
M  V30 1593 H 156.242 -0.897179 4.07849 0
M  V30 1594 N 156.679 -1.44442 0.630414 0
M  V30 1595 C 157.925 -2.02351 0.134816 0
M  V30 1596 C 158.258 -1.4947 -1.23986 0
M  V30 1597 O 157.533 -0.678475 -1.82283 0
M  V30 1598 C 157.816 -3.59898 0.120707 0
M  V30 1599 C 157.669 -4.23063 1.52767 0
M  V30 1600 C 158.988 -4.36585 -0.555127 0
M  V30 1601 H 156.107 -0.73527 0.0504646 0
M  V30 1602 H 158.749 -1.72022 0.806751 0
M  V30 1603 H 156.899 -3.85868 -0.451477 0
M  V30 1604 H 158.571 -4.08202 2.14869 0
M  V30 1605 H 156.814 -3.80586 2.08175 0
M  V30 1606 H 157.485 -5.32071 1.46984 0
M  V30 1607 H 159.961 -4.16044 -0.0685429 0
M  V30 1608 H 158.837 -5.46294 -0.534185 0
M  V30 1609 H 159.098 -4.11138 -1.62535 0
M  V30 1610 N 158.157 -0.370918 -1.53173 0
M  V30 1611 C 159.397 0.217106 -2.03244 0
M  V30 1612 C 159.761 1.45558 -1.25207 0
M  V30 1613 O 160.962 2.11957 -1.65311 0
M  V30 1614 C 159.233 0.496664 -3.53932 0
M  V30 1615 S 160.792 1.0576 -4.25864 0
M  V30 1616 H 157.61 0.0627827 -0.708223 0
M  V30 1617 H 160.212 -0.515019 -1.88594 0
M  V30 1618 H 158.916 -0.412096 -4.08326 0
M  V30 1619 H 158.447 1.25772 -3.72753 0
M  V30 1620 H 160.462 2.34145 -4.37482 0
M  V30 1621 N 159.635 1.57281 -0.100228 0
M  V30 1622 C 160.863 1.98879 0.570509 0
M  V30 1623 C 161.278 0.979476 1.61405 0
M  V30 1624 O 160.635 -0.0302288 1.82475 0
M  V30 1625 C 160.686 3.4052 1.2136 0
M  V30 1626 O 160.407 4.37588 0.211786 0
M  V30 1627 C 161.908 3.97149 1.96945 0
M  V30 1628 H 159.128 0.653428 0.152555 0
M  V30 1629 H 161.672 2.03697 -0.18103 0
M  V30 1630 H 159.827 3.367 1.91603 0
M  V30 1631 H 160.241 5.20118 0.676607 0
M  V30 1632 H 161.715 4.98393 2.37294 0
M  V30 1633 H 162.192 3.3525 2.83733 0
M  V30 1634 H 162.798 4.04458 1.31506 0
M  V30 1635 N 161.113 -0.173488 1.56642 0
M  V30 1636 C 162.063 -1.21941 1.92651 0
M  V30 1637 C 163.047 -1.39912 0.794577 0
M  V30 1638 O 164.239 -1.41919 1.05773 0
M  V30 1639 C 161.368 -2.55935 2.28806 0
M  V30 1640 C 160.454 -2.41667 3.48508 0
M  V30 1641 N 160.845 -1.9711 4.65813 0
M  V30 1642 C 159.143 -2.72499 3.53072 0
M  V30 1643 C 159.844 -1.95253 5.47952 0
M  V30 1644 N 158.82 -2.37575 4.88937 0
M  V30 1645 H 162.622 -0.866581 2.80834 0
M  V30 1646 H 160.136 -0.381776 1.57849 0
M  V30 1647 H 162.133 -3.31511 2.52797 0
M  V30 1648 H 160.793 -2.92022 1.41961 0
M  V30 1649 H 161.804 -1.67481 4.90072 0
M  V30 1650 H 158.481 -3.12639 2.767 0
M  V30 1651 H 159.871 -1.6252 6.51948 0
M  V30 1652 N 162.591 -1.51276 -0.441967 0
M  V30 1653 C 163.521 -1.752 -1.54361 0
M  V30 1654 C 164.502 -0.601682 -1.59103 0
M  V30 1655 O 165.687 -0.843913 -1.74905 0
M  V30 1656 C 162.817 -1.87282 -2.92477 0
M  V30 1657 C 161.771 -3.02687 -3.02596 0
M  V30 1658 C 161.097 -2.99947 -4.42647 0
M  V30 1659 C 162.397 -4.4273 -2.77106 0
M  V30 1660 H 164.091 -2.67442 -1.34592 0
M  V30 1661 H 161.637 -1.28694 -0.646048 0
M  V30 1662 H 163.59 -2.02602 -3.695 0
M  V30 1663 H 162.314 -0.916844 -3.13467 0
M  V30 1664 H 160.973 -2.87065 -2.28012 0
M  V30 1665 H 160.621 -2.02136 -4.60597 0
M  V30 1666 H 160.321 -3.77439 -4.50348 0
M  V30 1667 H 161.845 -3.17354 -5.2165 0
M  V30 1668 H 163.259 -4.58727 -3.43864 0
M  V30 1669 H 161.656 -5.21893 -2.96222 0
M  V30 1670 H 162.726 -4.53087 -1.72744 0
M  V30 1671 N 164.069 0.697108 -1.41344 0
M  V30 1672 C 165.317 1.45426 -1.40341 0
M  V30 1673 C 165.638 1.94996 -0.0128787 0
M  V30 1674 O 164.908 1.71599 0.945027 0
M  V30 1675 H 163.488 0.539594 -0.516573 0
M  V30 1676 H 166.15 0.825201 -1.76569 0
M  V30 1677 H 165.246 2.31817 -2.08967 0
M  V30 1678 N 165.547 1.27147 0.931209 0
M  V30 1679 C 166.787 1.14511 1.69312 0
M  V30 1680 C 167.151 -0.304638 1.89568 0
M  V30 1681 O 168.352 -0.553343 2.63043 0
M  V30 1682 C 166.623 1.90349 3.02493 0
M  V30 1683 S 168.182 1.93884 3.93642 0
M  V30 1684 H 165 0.408858 0.581684 0
M  V30 1685 H 167.602 1.61006 1.10893 0
M  V30 1686 H 166.306 2.94877 2.85439 0
M  V30 1687 H 165.837 1.44333 3.65966 0
M  V30 1688 H 167.852 1.03273 4.85334 0
M  V30 1689 N 167.025 -1.13721 1.09112 0
M  V30 1690 C 168.271 -1.85198 0.826414 0
M  V30 1691 C 168.604 -1.83129 -0.646319 0
M  V30 1692 O 167.879 -1.2671 -1.47563 0
M  V30 1693 C 168.162 -3.33507 1.35812 0
M  V30 1694 C 168.015 -3.44108 2.89672 0
M  V30 1695 C 169.334 -4.28838 0.989256 0
M  V30 1696 H 166.453 -0.67243 0.301675 0
M  V30 1697 H 169.095 -1.33499 1.35197 0
M  V30 1698 H 167.245 -3.77666 0.911082 0
M  V30 1699 H 168.917 -3.08684 3.428 0
M  V30 1700 H 167.16 -2.85087 3.26967 0
M  V30 1701 H 167.831 -4.48388 3.21951 0
M  V30 1702 H 170.307 -3.92734 1.37475 0
M  V30 1703 H 169.183 -5.31051 1.38838 0
M  V30 1704 H 169.444 -4.4198 -0.102924 0
M  V30 1705 N 168.503 -0.877838 -1.30888 0
M  V30 1706 C 169.749 -0.493426 -1.96706 0
M  V30 1707 C 170.082 0.953504 -1.6918 0
M  V30 1708 O 169.357 1.67266 -0.992594 0
M  V30 1709 C 169.64 -0.760429 -3.51979 0
M  V30 1710 C 169.493 -2.25747 -3.89048 0
M  V30 1711 C 170.812 -0.232148 -4.39487 0
M  V30 1712 H 167.931 -0.180746 -0.714493 0
M  V30 1713 H 170.573 -1.10052 -1.54882 0
M  V30 1714 H 168.723 -0.243715 -3.87735 0
M  V30 1715 H 170.395 -2.84204 -3.63354 0
M  V30 1716 H 168.638 -2.72694 -3.37373 0
M  V30 1717 H 169.309 -2.39491 -4.97341 0
M  V30 1718 H 171.785 -0.674314 -4.106 0
M  V30 1719 H 170.661 -0.448355 -5.47066 0
M  V30 1720 H 170.922 0.866297 -4.33529 0
M  V30 1721 N 169.982 1.44106 -0.638065 0
M  V30 1722 C 171.393 1.85316 -0.226894 0
M  V30 1723 C 171.744 1.53399 1.22324 0
M  V30 1724 O 170.869 0.975463 1.93167 0
M  V30 1725 C 171.464 3.3637 -0.405013 0
M  V30 1726 C 170.023 3.76369 -0.0482902 0
M  V30 1727 C 169.17 2.67921 -0.715108 0
M  V30 1728 H 172.121 1.34474 -0.842764 0
M  V30 1729 H 172.142 3.7885 0.354 0
M  V30 1730 H 171.654 3.59569 -1.46053 0
M  V30 1731 H 169.755 3.58784 1.00522 0
M  V30 1732 H 169.868 4.76856 -0.463187 0
M  V30 1733 H 168.232 2.54259 -0.149753 0
M  V30 1734 H 169.015 2.93951 -1.77335 0
M  V30 1735 N 171.46 0.379036 1.52974 0
M  V30 1736 C 172.706 -0.199244 2.02422 0
M  V30 1737 C 173.061 -1.4532 1.26095 0
M  V30 1738 O 172.354 -1.88377 0.34996 0
M  V30 1739 C 172.548 -0.53096 3.53434 0
M  V30 1740 C 172.377 0.689298 4.44386 0
M  V30 1741 C 171.147 1.20546 4.9071 0
M  V30 1742 C 173.345 1.55856 4.90116 0
M  V30 1743 N 171.327 2.38434 5.65705 0
M  V30 1744 C 172.698 2.58396 5.63588 0
M  V30 1745 C 174.753 1.57986 4.7217 0
M  V30 1746 C 173.456 3.62939 6.21022 0
M  V30 1747 C 175.482 2.6143 5.30479 0
M  V30 1748 C 174.844 3.62693 6.03849 0
M  V30 1749 H 170.943 -0.0352671 0.781204 0
M  V30 1750 H 173.527 0.526614 1.87443 0
M  V30 1751 H 171.698 -1.22588 3.68547 0
M  V30 1752 H 173.43 -1.0955 3.89591 0
M  V30 1753 H 170.185 0.768022 4.67331 0
M  V30 1754 H 170.609 2.98055 6.07859 0
M  V30 1755 H 175.251 0.810475 4.14959 0
M  V30 1756 H 172.969 4.40751 6.77321 0
M  V30 1757 H 176.555 2.63949 5.18481 0
M  V30 1758 H 175.435 4.41424 6.48163 0
M  V30 1759 N 172.938 -1.57226 0.108567 0
M  V30 1760 C 173.886 -2.16002 -0.862885 0
M  V30 1761 C 174.88 -1.10644 -1.28274 0
M  V30 1762 O 176.086 -1.28966 -1.2557 0
M  V30 1763 H 172.461 -0.691148 -0.296342 0
M  V30 1764 H 174.432 -2.96427 -0.342575 0
M  V30 1765 C 173.181 -2.76576 -2.10716 0
M  V30 1766 H 172.504 -3.5734 -1.793 0
M  V30 1767 H 173.944 -3.21253 -2.76717 0
M  V30 1768 C 172.403 -1.73137 -2.89007 0
M  V30 1769 O 172.933 -1.17842 -3.84026 0
M  V30 1770 N 171.139 -1.43317 -2.52801 0
M  V30 1771 H 170.686 -1.88473 -1.75601 0
M  V30 1772 H 170.644 -0.743485 -3.05483 0
M  V30 1773 N 174.416 0.165178 -1.56732 0
M  V30 1774 C 175.379 1.18822 -1.95995 0
M  V30 1775 C 176.379 1.3685 -0.84431 0
M  V30 1776 O 177.569 1.34152 -1.11126 0
M  V30 1777 C 174.701 2.5521 -2.26011 0
M  V30 1778 H 175.894 0.851825 -2.87548 0
M  V30 1779 H 173.447 0.407857 -1.50885 0
M  V30 1780 H 174.182 2.93852 -1.37191 0
M  V30 1781 H 173.967 2.43489 -3.07336 0
M  V30 1782 H 175.457 3.28927 -2.57288 0
M  V30 1783 N 175.894 1.51508 0.433938 0
M  V30 1784 C 176.857 1.72473 1.50949 0
M  V30 1785 C 177.857 0.594725 1.49398 0
M  V30 1786 O 179.047 0.862315 1.5136 0
M  V30 1787 C 176.179 1.78431 2.90474 0
M  V30 1788 H 177.372 2.68467 1.33662 0
M  V30 1789 H 174.925 1.41549 0.662836 0
M  V30 1790 H 175.66 0.842645 3.13161 0
M  V30 1791 H 175.445 2.60558 2.93005 0
M  V30 1792 H 176.935 1.96479 3.68491 0
M  V30 1793 N 177.372 -0.689602 1.41712 0
M  V30 1794 C 178.282 -1.83314 1.46401 0
M  V30 1795 C 179.298 -1.7036 0.35405 0
M  V30 1796 O 180.474 -1.92171 0.602692 0
M  V30 1797 C 177.539 -3.19344 1.34982 0
M  V30 1798 C 176.6 -3.44363 2.56344 0
M  V30 1799 C 175.833 -4.73904 2.45461 0
M  V30 1800 O 176.056 -5.508 1.48241 0
M  V30 1801 O 174.99 -4.99839 3.35328 0
M  V30 1802 H 178.816 -1.82314 2.42889 0
M  V30 1803 H 176.401 -0.843438 1.23315 0
M  V30 1804 H 178.283 -4.00547 1.3092 0
M  V30 1805 H 176.958 -3.21014 0.41612 0
M  V30 1806 H 175.865 -2.63067 2.65982 0
M  V30 1807 H 177.198 -3.47512 3.48563 0
M  V30 1808 N 178.85 -1.27639 -0.924453 0
M  V30 1809 C 179.798 -1.10485 -2.04685 0
M  V30 1810 C 180.792 -0.0270421 -1.69378 0
M  V30 1811 O 181.998 -0.185008 -1.79047 0
M  V30 1812 H 178.373 -0.340546 -0.670472 0
M  V30 1813 H 180.344 -2.05566 -2.16298 0
M  V30 1814 C 179.093 -0.772229 -3.39016 0
M  V30 1815 H 178.416 -1.59351 -3.66671 0
M  V30 1816 H 179.856 -0.692097 -4.18313 0
M  V30 1817 C 178.315 0.523554 -3.32807 0
M  V30 1818 O 178.845 1.55702 -3.70297 0
M  V30 1819 N 177.051 0.520363 -2.85903 0
M  V30 1820 H 176.598 -0.32107 -2.55591 0
M  V30 1821 H 176.556 1.38742 -2.82131 0
M  V30 1822 N 180.328 1.1314 -1.09713 0
M  V30 1823 C 181.275 2.18642 -0.739196 0
M  V30 1824 C 182.245 1.63706 0.280978 0
M  V30 1825 O 183.43 1.90111 0.161946 0
M  V30 1826 C 180.57 3.44685 -0.169102 0
M  V30 1827 C 179.683 4.13711 -1.24367 0
M  V30 1828 C 178.818 5.27379 -0.636019 0
M  V30 1829 C 177.857 5.88259 -1.69169 0
M  V30 1830 N 176.994 6.93352 -1.10485 0
M  V30 1831 H 181.834 2.48607 -1.64312 0
M  V30 1832 H 179.371 1.22066 -0.820875 0
M  V30 1833 H 181.329 4.16815 0.179256 0
M  V30 1834 H 179.959 3.15161 0.698079 0
M  V30 1835 H 179.011 3.39835 -1.70927 0
M  V30 1836 H 180.323 4.55037 -2.04311 0
M  V30 1837 H 179.477 6.06238 -0.236677 0
M  V30 1838 H 178.216 4.8731 0.194928 0
M  V30 1839 H 177.221 5.08092 -2.10055 0
M  V30 1840 H 178.446 6.30399 -2.52536 0
M  V30 1841 H 176.392 6.55335 -0.295234 0
M  V30 1842 H 176.309 7.33236 -1.84121 0
M  V30 1843 H 177.577 7.76057 -0.73181 0
M  V30 1844 N 181.806 0.884767 1.30421 0
M  V30 1845 C 183.053 0.503105 1.96151 0
M  V30 1846 C 183.381 -0.947676 1.69851 0
M  V30 1847 O 182.636 -1.68467 0.995861 0
M  V30 1848 C 182.935 0.724318 3.49983 0
M  V30 1849 C 182.601 2.15015 3.96332 0
M  V30 1850 C 181.263 2.54005 4.08699 0
M  V30 1851 C 183.615 3.07936 4.20505 0
M  V30 1852 C 180.943 3.85128 4.42599 0
M  V30 1853 C 183.295 4.3859 4.55874 0
M  V30 1854 C 181.959 4.77474 4.66449 0
M  V30 1855 H 181.229 0.184099 0.717766 0
M  V30 1856 H 183.876 1.12058 1.55291 0
M  V30 1857 H 182.181 0.0238086 3.91793 0
M  V30 1858 H 183.878 0.408617 3.98913 0
M  V30 1859 H 180.468 1.8375 3.87213 0
M  V30 1860 H 184.652 2.79033 4.10431 0
M  V30 1861 H 179.908 4.14996 4.48986 0
M  V30 1862 H 184.082 5.10629 4.7353 0
M  V30 1863 H 181.709 5.79115 4.92473 0
M  V30 1864 N 183.284 -1.43765 0.645699 0
M  V30 1865 C 184.231 -2.30745 -0.0504648 0
M  V30 1866 C 185.201 -1.4432 -0.822241 0
M  V30 1867 O 186.386 -1.73202 -0.800358 0
M  V30 1868 C 183.526 -3.29802 -1.0161 0
M  V30 1869 C 182.639 -4.31326 -0.241219 0
M  V30 1870 C 181.774 -5.17469 -1.19998 0
M  V30 1871 C 180.813 -6.10691 -0.415094 0
M  V30 1872 N 179.95 -6.89483 -1.32506 0
M  V30 1873 H 184.79 -2.8973 0.697155 0
M  V30 1874 H 182.327 -1.42738 0.355563 0
M  V30 1875 H 184.285 -3.85734 -1.58949 0
M  V30 1876 H 182.915 -2.72483 -1.73069 0
M  V30 1877 H 181.967 -3.77749 0.448334 0
M  V30 1878 H 183.279 -4.9743 0.369437 0
M  V30 1879 H 182.433 -5.7799 -1.84424 0
M  V30 1880 H 181.172 -4.51473 -1.84455 0
M  V30 1881 H 180.177 -5.49265 0.242565 0
M  V30 1882 H 181.402 -6.78727 0.224966 0
M  V30 1883 H 179.348 -6.26142 -1.95657 0
M  V30 1884 H 179.265 -7.52081 -0.768783 0
M  V30 1885 H 180.533 -7.54516 -1.9577 0
M  V30 1886 N 184.763 -0.387143 -1.52771 0
M  V30 1887 C 186.003 0.195537 -2.03463 0
M  V30 1888 C 186.367 1.44222 -1.26744 0
M  V30 1889 O 187.568 2.10192 -1.67549 0
M  V30 1890 C 185.839 0.459097 -3.54439 0
M  V30 1891 S 187.398 1.01237 -4.26962 0
M  V30 1892 H 184.216 0.0552675 -0.708849 0
M  V30 1893 H 186.818 -0.534992 -1.88037 0
M  V30 1894 H 185.522 -0.455382 -4.07866 0
M  V30 1895 H 185.053 1.21811 -3.74066 0
M  V30 1896 H 187.068 2.29492 -4.39941 0
M  V30 1897 N 186.241 1.57166 -0.116904 0
M  V30 1898 C 187.652 1.82169 0.408809 0
M  V30 1899 C 188.003 1.03393 1.66746 0
M  V30 1900 O 187.128 0.269886 2.1471 0
M  V30 1901 C 187.723 3.30429 0.748466 0
M  V30 1902 C 186.282 3.5612 1.21882 0
M  V30 1903 C 185.429 2.76374 0.226452 0
M  V30 1904 H 188.38 1.5497 -0.342063 0
M  V30 1905 H 188.401 3.44943 1.60607 0
M  V30 1906 H 187.913 3.87737 -0.167784 0
M  V30 1907 H 186.014 3.04168 2.15204 0
M  V30 1908 H 186.127 4.64705 1.16559 0
M  V30 1909 H 184.491 2.44515 0.713063 0
M  V30 1910 H 185.274 3.3644 -0.682859 0
M  V30 1911 N 187.719 -0.156864 1.56817 0
M  V30 1912 C 188.959 -0.877453 1.84608 0
M  V30 1913 C 189.323 -1.78791 0.699845 0
M  V30 1914 O 190.524 -2.5472 0.858553 0
M  V30 1915 C 188.795 -1.63992 3.17555 0
M  V30 1916 S 190.354 -2.40729 3.66872 0
M  V30 1917 H 187.172 -0.293612 0.647544 0
M  V30 1918 H 189.774 -0.138099 1.95012 0
M  V30 1919 H 188.478 -0.962363 3.98957 0
M  V30 1920 H 188.009 -2.42038 3.10131 0
M  V30 1921 H 190.024 -3.65725 3.3535 0
M  V30 1922 N 189.197 -1.51736 -0.425897 0
M  V30 1923 C 190.147 -1.70258 -1.51645 0
M  V30 1924 C 191.131 -0.556488 -1.5097 0
M  V30 1925 O 192.323 -0.812879 -1.5723 0
M  V30 1926 C 189.452 -1.84143 -2.89735 0
M  V30 1927 C 188.538 -3.04572 -2.95122 0
M  V30 1928 N 188.929 -4.2756 -2.70233 0
M  V30 1929 C 187.227 -3.04061 -3.26286 0
M  V30 1930 C 187.928 -5.08908 -2.81757 0
M  V30 1931 N 186.904 -4.43797 -3.13919 0
M  V30 1932 H 190.706 -2.63004 -1.31172 0
M  V30 1933 H 188.22 -1.4954 -0.633375 0
M  V30 1934 H 190.217 -1.95525 -3.68206 0
M  V30 1935 H 188.877 -0.925857 -3.1122 0
M  V30 1936 H 189.888 -4.56315 -2.44943 0
M  V30 1937 H 186.565 -2.22179 -3.53473 0
M  V30 1938 H 187.955 -6.16843 -2.66372 0
M  V30 1939 N 190.675 0.682077 -1.42076 0
M  V30 1940 C 191.923 1.4393 -1.41876 0
M  V30 1941 C 192.244 1.94971 -0.0335599 0
M  V30 1942 O 191.514 1.72591 0.926773 0
M  V30 1943 H 190.094 0.534085 -0.522267 0
M  V30 1944 H 192.756 0.806427 -1.77434 0
M  V30 1945 H 191.852 2.29588 -2.11414 0
M  V30 1946 N 192.153 1.28127 0.917671 0
M  V30 1947 C 193.378 1.18007 1.70555 0
M  V30 1948 C 193.803 -0.258257 1.86319 0
M  V30 1949 O 193.161 -1.1869 1.37049 0
M  V30 1950 C 193.209 1.87948 3.07746 0
M  V30 1951 O 192.313 1.18427 3.9503 0
M  V30 1952 H 191.654 0.409867 0.522403 0
M  V30 1953 H 194.184 1.69379 1.1477 0
M  V30 1954 H 194.194 1.95701 3.58001 0
M  V30 1955 H 192.869 2.92573 2.95591 0
M  V30 1956 H 191.446 1.18811 3.53466 0
M  V30 1957 N 193.631 -1.12557 1.10312 0
M  V30 1958 C 194.563 -2.17971 0.708625 0
M  V30 1959 C 195.576 -1.60806 -0.254027 0
M  V30 1960 O 196.765 -1.78458 -0.0386891 0
M  V30 1961 C 193.865 -3.38891 0.0248198 0
M  V30 1962 C 193.038 -4.25548 1.01132 0
M  V30 1963 C 192.097 -5.24972 0.35924 0
M  V30 1964 O 191.123 -5.60174 1.00965 0
M  V30 1965 N 192.325 -5.73747 -0.882847 0
M  V30 1966 H 195.09 -2.52427 1.61557 0
M  V30 1967 H 192.651 -1.27967 0.991771 0
M  V30 1968 H 194.643 -4.02485 -0.422852 0
M  V30 1969 H 193.213 -3.02596 -0.784514 0
M  V30 1970 H 192.433 -3.58589 1.6373 0
M  V30 1971 H 193.721 -4.80294 1.67914 0
M  V30 1972 H 193.119 -5.4731 -1.43065 0
M  V30 1973 H 191.676 -6.39234 -1.27369 0
M  V30 1974 N 195.109 -0.891671 -1.2995 0
M  V30 1975 C 196.339 -0.527893 -1.99742 0
M  V30 1976 C 196.747 0.88979 -1.66971 0
M  V30 1977 O 196.09 1.59766 -0.906667 0
M  V30 1978 C 196.152 -0.630804 -3.53922 0
M  V30 1979 C 195.816 -2.01401 -4.10228 0
M  V30 1980 C 196.813 -2.98422 -4.25724 0
M  V30 1981 C 194.498 -2.32121 -4.45449 0
M  V30 1982 C 196.492 -4.24293 -4.75662 0
M  V30 1983 C 194.179 -3.58237 -4.95086 0
M  V30 1984 C 195.177 -4.54137 -5.10146 0
M  V30 1985 O 194.865 -5.78014 -5.58708 0
M  V30 1986 H 194.597 -0.201953 -0.645129 0
M  V30 1987 H 197.151 -1.20076 -1.66646 0
M  V30 1988 H 195.381 0.0990616 -3.86573 0
M  V30 1989 H 197.07 -0.277338 -4.04951 0
M  V30 1990 H 197.836 -2.76001 -3.98809 0
M  V30 1991 H 193.715 -1.5824 -4.32991 0
M  V30 1992 H 197.259 -4.99153 -4.87332 0
M  V30 1993 H 193.156 -3.80491 -5.21437 0
M  V30 1994 H 193.924 -5.8049 -5.77039 0
M  V30 1995 N 196.587 1.43421 -0.653314 0
M  V30 1996 C 197.864 1.95361 -0.0966581 0
M  V30 1997 C 198.244 1.59461 1.38331 0
M  V30 1998 O 197.592 0.879777 2.10884 0
M  V30 1999 C 197.802 3.47311 -0.342988 0
M  V30 2000 C 199.15 4.23875 -0.24798 0
M  V30 2001 O 200.174 3.55133 -0.275553 0
M  V30 2002 O 199.033 5.4623 -0.171771 0
M  V30 2003 H 196.127 0.826945 0.00956291 0
M  V30 2004 H 198.673 1.5336 -0.726558 0
M  V30 2005 H 197.445 3.66569 -1.36906 0
M  V30 2006 H 197.068 3.9631 0.319975 0
M  V30 2007 N 198.065 0.39524 1.52563 0
M  V30 2008 C 198.975 -0.444232 2.30356 0
M  V30 2009 C 199.991 -1.06615 1.37511 0
M  V30 2010 O 201.167 -1.07067 1.70583 0
M  V30 2011 C 198.232 -1.55315 3.09964 0
M  V30 2012 C 197.293 -0.955734 4.18526 0
M  V30 2013 C 196.526 -2.01181 4.9433 0
M  V30 2014 O 196.749 -3.22781 4.70285 0
M  V30 2015 O 195.683 -1.62579 5.79527 0
M  V30 2016 H 199.509 0.189667 3.03107 0
M  V30 2017 H 197.094 0.1588 1.48554 0
M  V30 2018 H 198.976 -2.19724 3.59582 0
M  V30 2019 H 197.651 -2.17191 2.4002 0
M  V30 2020 H 196.558 -0.274743 3.7309 0
M  V30 2021 H 197.891 -0.381109 4.90722 0
M  V30 2022 N 199.544 -1.57102 0.125237 0
M  V30 2023 C 200.772 -1.99761 -0.538797 0
M  V30 2024 C 201.187 -1.00503 -1.59827 0
M  V30 2025 O 200.544 0.00119474 -1.825 0
M  V30 2026 C 200.595 -3.42408 -1.15927 0
M  V30 2027 O 200.316 -4.37869 -0.142143 0
M  V30 2028 C 201.817 -4.00232 -1.90602 0
M  V30 2029 H 199.037 -0.655772 -0.14214 0
M  V30 2030 H 201.581 -2.03383 0.213413 0
M  V30 2031 H 199.736 -3.39706 -1.86223 0
M  V30 2032 H 200.15 -5.21128 -0.593775 0
M  V30 2033 H 201.624 -5.02105 -2.29335 0
M  V30 2034 H 202.101 -3.39721 -2.78363 0
M  V30 2035 H 202.707 -4.06499 -1.25055 0
M  V30 2036 N 201.022 0.148545 -1.56898 0
M  V30 2037 C 202.27 0.859717 -1.82902 0
M  V30 2038 C 202.591 1.81775 -0.70588 0
M  V30 2039 O 201.861 1.93994 0.272586 0
M  V30 2040 H 200.441 0.320469 -0.674766 0
M  V30 2041 H 203.103 0.142918 -1.94375 0
M  V30 2042 H 202.199 1.4229 -2.77777 0
M  V30 2043 N 202.5 1.5196 0.417844 0
M  V30 2044 C 203.447 1.74678 1.50852 0
M  V30 2045 C 204.417 0.588947 1.55308 0
M  V30 2046 O 205.602 0.825544 1.72016 0
M  V30 2047 C 202.742 1.89544 2.88387 0
M  V30 2048 C 201.855 3.17166 2.93309 0
M  V30 2049 C 200.99 3.22513 4.22088 0
M  V30 2050 C 200.029 4.44372 4.20951 0
M  V30 2051 N 199.166 4.47161 5.41287 0
M  V30 2052 H 204.006 2.67768 1.30783 0
M  V30 2053 H 201.543 1.32689 0.63498 0
M  V30 2054 H 203.501 1.96146 3.68216 0
M  V30 2055 H 202.131 0.998424 3.06971 0
M  V30 2056 H 201.183 3.19778 2.06024 0
M  V30 2057 H 202.495 4.07021 2.88332 0
M  V30 2058 H 201.649 3.28139 5.10303 0
M  V30 2059 H 200.388 2.30581 4.29748 0
M  V30 2060 H 199.393 4.38902 3.31127 0
M  V30 2061 H 200.618 5.3759 4.14938 0
M  V30 2062 H 198.564 3.58108 5.49632 0
M  V30 2063 H 198.481 5.3085 5.3827 0
M  V30 2064 H 199.749 4.57005 6.3148 0
M  V30 2065 N 203.978 -0.674533 1.42435 0
M  V30 2066 C 205.224 -1.43671 1.43131 0
M  V30 2067 C 205.557 -1.94142 0.0476021 0
M  V30 2068 O 204.832 -1.70924 -0.928188 0
M  V30 2069 C 205.115 -2.63355 2.45594 0
M  V30 2070 C 204.968 -2.18514 3.93156 0
M  V30 2071 C 206.287 -3.65571 2.45043 0
M  V30 2072 H 203.406 -0.521077 0.521198 0
M  V30 2073 H 206.048 -0.766551 1.7385 0
M  V30 2074 H 204.198 -3.2053 2.19528 0
M  V30 2075 H 205.87 -1.66504 4.30202 0
M  V30 2076 H 204.113 -1.50086 4.07009 0
M  V30 2077 H 204.784 -3.04484 4.60428 0
M  V30 2078 H 207.26 -3.18113 2.68223 0
M  V30 2079 H 206.136 -4.46893 3.18713 0
M  V30 2080 H 206.397 -4.16716 1.47649 0
M  V30 2081 N 205.456 -1.28612 -0.910864 0
M  V30 2082 C 206.705 -1.15311 -1.65488 0
M  V30 2083 C 207.018 0.296999 -1.93332 0
M  V30 2084 O 208.224 0.551168 -2.65847 0
M  V30 2085 C 206.68 -2.01599 -2.98137 0
M  V30 2086 C 206.288 -3.51367 -2.7793 0
M  V30 2087 C 208.032 -1.96993 -3.76024 0
M  V30 2088 C 205.939 -4.29797 -4.06237 0
M  V30 2089 H 204.869 -0.42796 -0.620779 0
M  V30 2090 H 207.52 -1.53166 -1.01057 0
M  V30 2091 H 205.902 -1.56603 -3.63719 0
M  V30 2092 H 207.076 -4.0434 -2.21011 0
M  V30 2093 H 205.391 -3.57529 -2.13452 0
M  V30 2094 H 207.988 -2.52856 -4.71135 0
M  V30 2095 H 208.331 -0.94733 -4.05378 0
M  V30 2096 H 208.864 -2.39973 -3.17266 0
M  V30 2097 H 205.603 -5.32648 -3.82055 0
M  V30 2098 H 205.123 -3.81596 -4.62757 0
M  V30 2099 H 206.802 -4.39869 -4.74473 0
M  V30 2100 N 206.934 1.1197 -1.10907 0
M  V30 2101 C 208.35 1.35591 -0.841852 0
M  V30 2102 C 208.55 1.94233 0.536246 0
M  V30 2103 O 207.606 2.1717 1.28816 0
M  V30 2104 C 208.919 2.29284 -1.94549 0
M  V30 2105 C 210.467 2.42862 -1.97451 0
M  V30 2106 C 210.942 3.39873 -3.07002 0
M  V30 2107 N 212.433 3.47433 -3.06341 0
M  V30 2108 C 213.168 4.22421 -3.87748 0
M  V30 2109 N 212.664 5.00432 -4.79103 0
M  V30 2110 N 214.457 4.17876 -3.75946 0
M  V30 2111 H 206.608 0.722664 -1.99728 0
M  V30 2112 H 208.871 0.380635 -0.868229 0
M  V30 2113 H 208.577 1.93378 -2.93765 0
M  V30 2114 H 208.451 3.29452 -1.83688 0
M  V30 2115 H 210.838 2.78046 -0.988645 0
M  V30 2116 H 210.919 1.42566 -2.12388 0
M  V30 2117 H 210.563 3.05417 -4.05811 0
M  V30 2118 H 210.493 4.40011 -2.89306 0
M  V30 2119 H 212.984 2.91784 -2.40147 0
M  V30 2120 H 213.297 5.55002 -5.37766 0
M  V30 2121 H 211.642 4.99612 -4.83128 0
M  V30 2122 H 214.833 3.56016 -3.03924 0
M  V30 2123 H 215.006 4.76061 -4.39624 0
M  V30 2124 N 208.412 0.89855 1.29475 0
M  V30 2125 C 209.66 0.522847 1.9522 0
M  V30 2126 C 209.981 -0.93371 1.71192 0
M  V30 2127 O 209.251 -1.65823 1.04305 0
M  V30 2128 H 207.831 0.190366 0.722336 0
M  V30 2129 H 210.493 1.14459 1.5775 0
M  V30 2130 H 209.589 0.704476 3.04045 0
M  V30 2131 N 209.89 -1.43072 0.660911 0
M  V30 2132 C 211.301 -1.84932 0.256348 0
M  V30 2133 C 211.652 -1.55325 -1.19868 0
M  V30 2134 O 210.777 -1.00607 -1.91591 0
M  V30 2135 C 211.372 -3.35684 0.458475 0
M  V30 2136 C 209.931 -3.76245 0.108161 0
M  V30 2137 C 209.078 -2.66749 0.757641 0
M  V30 2138 H 212.029 -1.33116 0.864051 0
M  V30 2139 H 212.05 -3.79365 -0.293683 0
M  V30 2140 H 211.562 -3.572 1.51755 0
M  V30 2141 H 209.663 -3.60338 -0.948014 0
M  V30 2142 H 209.776 -4.76058 0.538992 0
M  V30 2143 H 208.14 -2.53989 0.190185 0
M  V30 2144 H 208.923 -2.91092 1.81989 0
M  V30 2145 N 211.368 -0.403325 -1.52352 0
M  V30 2146 C 212.331 0.413051 -2.25447 0
M  V30 2147 C 213.331 0.978513 -1.276 0
M  V30 2148 O 214.521 0.858305 -1.51587 0
M  V30 2149 C 211.653 1.58087 -3.02029 0
M  V30 2150 H 212.846 -0.227094 -2.99039 0
M  V30 2151 H 210.399 -0.155722 -1.55522 0
M  V30 2152 H 211.134 2.25804 -2.32772 0
M  V30 2153 H 210.919 1.18195 -3.73861 0
M  V30 2154 H 212.409 2.1585 -3.57489 0
M  V30 2155 N 212.846 1.57033 -0.133567 0
M  V30 2156 C 214.257 1.82593 0.389464 0
M  V30 2157 C 214.608 1.05156 1.6564 0
M  V30 2158 O 213.733 0.292644 2.14412 0
M  V30 2159 C 214.328 3.31204 0.713377 0
M  V30 2160 C 212.887 3.57393 1.18098 0
M  V30 2161 C 212.034 2.76598 0.197126 0
M  V30 2162 H 214.985 1.54598 -0.358481 0
M  V30 2163 H 215.006 3.46627 1.56939 0
M  V30 2164 H 214.518 3.87537 -0.2089 0
M  V30 2165 H 212.619 3.06433 2.11966 0
M  V30 2166 H 212.732 4.65915 1.11624 0
M  V30 2167 H 211.096 2.45257 0.687088 0
M  V30 2168 H 211.879 3.35697 -0.718504 0
M  V30 2169 N 214.325 -0.140222 1.56975 0
M  V30 2170 C 215.255 -1.17456 2.01808 0
M  V30 2171 C 216.236 -1.44415 0.898794 0
M  V30 2172 O 217.421 -1.5522 1.16707 0
M  V30 2173 C 214.551 -2.50607 2.40444 0
M  V30 2174 C 213.505 -2.38155 3.55621 0
M  V30 2175 C 212.831 -3.76078 3.80091 0
M  V30 2176 C 214.131 -1.85991 4.88062 0
M  V30 2177 H 215.825 -0.801743 2.88466 0
M  V30 2178 H 213.371 -0.38422 1.38779 0
M  V30 2179 H 215.324 -3.23197 2.7041 0
M  V30 2180 H 214.048 -2.89737 1.50732 0
M  V30 2181 H 212.707 -1.68016 3.25832 0
M  V30 2182 H 212.355 -4.12656 2.87618 0
M  V30 2183 H 212.055 -3.68606 4.57606 0
M  V30 2184 H 213.579 -4.50206 4.12488 0
M  V30 2185 H 214.993 -2.4838 5.16701 0
M  V30 2186 H 213.39 -1.89393 5.6943 0
M  V30 2187 H 214.46 -0.816023 4.77984 0
M  V30 2188 N 215.803 -1.52179 -0.40978 0
M  V30 2189 C 217.028 -1.70347 -1.18308 0
M  V30 2190 C 217.453 -0.411887 -1.83535 0
M  V30 2191 O 216.811 0.630587 -1.6998 0
M  V30 2192 C 216.859 -2.83977 -2.22238 0
M  V30 2193 O 215.963 -2.495 -3.28365 0
M  V30 2194 H 215.304 -0.567103 -0.345384 0
M  V30 2195 H 217.834 -1.98879 -0.480445 0
M  V30 2196 H 217.844 -3.0887 -2.66577 0
M  V30 2197 H 216.519 -3.77685 -1.74146 0
M  V30 2198 H 215.096 -2.35277 -2.89308 0
M  V30 2199 N 217.281 0.66697 -1.42791 0
M  V30 2200 C 218.211 1.79218 -1.49677 0
M  V30 2201 C 219.192 1.66405 -0.352623 0
M  V30 2202 O 220.377 1.85708 -0.567993 0
M  V30 2203 C 217.507 3.17565 -1.40605 0
M  V30 2204 C 216.461 3.45124 -2.53127 0
M  V30 2205 C 215.787 4.83127 -2.29112 0
M  V30 2206 C 217.087 3.41236 -3.95418 0
M  V30 2207 H 218.781 1.73713 -2.43853 0
M  V30 2208 H 216.327 0.83432 -1.17367 0
M  V30 2209 H 218.28 3.96022 -1.44029 0
M  V30 2210 H 217.004 3.23767 -0.429271 0
M  V30 2211 H 215.663 2.69031 -2.49034 0
M  V30 2212 H 215.311 4.85988 -1.29709 0
M  V30 2213 H 215.011 5.02528 -3.04531 0
M  V30 2214 H 216.535 5.63859 -2.34297 0
M  V30 2215 H 217.949 4.09651 -4.01073 0
M  V30 2216 H 216.346 3.72173 -4.70752 0
M  V30 2217 H 217.416 2.39665 -4.21532 0
M  V30 2218 N 218.759 1.29093 0.90403 0
M  V30 2219 C 219.722 1.1386 1.98919 0
M  V30 2220 C 220.722 0.0753457 1.60623 0
M  V30 2221 O 221.912 0.321931 1.71199 0
M  V30 2222 C 219.044 0.740198 3.32767 0
M  V30 2223 H 220.237 2.10246 2.13861 0
M  V30 2224 H 217.79 1.12218 1.08797 0
M  V30 2225 H 218.525 -0.223997 3.23525 0
M  V30 2226 H 218.31 1.50838 3.61926 0
M  V30 2227 H 219.8 0.656546 4.12407 0
M  V30 2228 N 220.237 -1.11381 1.11499 0
M  V30 2229 C 221.167 -2.19509 0.796125 0
M  V30 2230 C 222.148 -1.68458 -0.235796 0
M  V30 2231 O 223.333 -1.93947 -0.0991344 0
M  V30 2232 C 220.463 -3.46475 0.239205 0
M  V30 2233 C 219.417 -4.10744 1.20307 0
M  V30 2234 C 218.743 -5.32293 0.50683 0
M  V30 2235 C 220.043 -4.55597 2.55399 0
M  V30 2236 H 221.737 -2.46439 1.70024 0
M  V30 2237 H 219.283 -1.18446 0.818935 0
M  V30 2238 H 221.236 -4.214 0.00392006 0
M  V30 2239 H 219.96 -3.19006 -0.700206 0
M  V30 2240 H 218.619 -3.37813 1.42399 0
M  V30 2241 H 218.267 -5.01095 -0.437408 0
M  V30 2242 H 217.967 -5.76243 1.1497 0
M  V30 2243 H 219.491 -6.09956 0.280351 0
M  V30 2244 H 220.905 -5.21841 2.37391 0
M  V30 2245 H 219.302 -5.10363 3.15673 0
M  V30 2246 H 220.372 -3.69013 3.14575 0
M  V30 2247 N 221.715 -0.905404 -1.28997 0
M  V30 2248 C 222.955 -0.541232 -1.97104 0
M  V30 2249 C 223.319 0.896841 -1.69767 0
M  V30 2250 O 224.52 1.36817 -2.31375 0
M  V30 2251 C 222.791 -0.832134 -3.47578 0
M  V30 2252 S 224.35 -0.573127 -4.35041 0
M  V30 2253 H 221.168 -0.200576 -0.682122 0
M  V30 2254 H 223.77 -1.16906 -1.56694 0
M  V30 2255 H 222.474 -1.87687 -3.64968 0
M  V30 2256 H 222.005 -0.192636 -3.92928 0
M  V30 2257 H 224.02 0.579297 -4.92807 0
M  V30 2258 N 223.193 1.4272 -0.668489 0
M  V30 2259 C 224.143 2.27971 0.0363806 0
M  V30 2260 C 225.127 1.40741 0.779794 0
M  V30 2261 O 226.319 1.64245 0.659745 0
M  V30 2262 C 223.448 3.28673 0.991398 0
M  V30 2263 C 222.534 4.23388 0.245658 0
M  V30 2264 N 222.925 5.00267 -0.746069 0
M  V30 2265 C 221.223 4.43355 0.484988 0
M  V30 2266 C 221.924 5.69396 -1.19009 0
M  V30 2267 N 220.9 5.41095 -0.521287 0
M  V30 2268 H 224.702 2.84833 -0.724394 0
M  V30 2269 H 222.216 1.54607 -0.497028 0
M  V30 2270 H 224.213 3.88543 1.51129 0
M  V30 2271 H 222.873 2.73373 1.75207 0
M  V30 2272 H 223.884 5.05525 -1.12537 0
M  V30 2273 H 220.561 3.99104 1.22565 0
M  V30 2274 H 221.951 6.41083 -2.01153 0
M  V30 2275 N 224.671 0.411399 1.52136 0
M  V30 2276 C 225.634 -0.401089 2.25663 0
M  V30 2277 C 226.634 -0.971732 1.28117 0
M  V30 2278 O 227.824 -0.850254 1.52041 0
M  V30 2279 C 224.956 -1.56483 3.02863 0
M  V30 2280 H 226.149 0.24295 2.98914 0
M  V30 2281 H 223.702 0.163968 1.55438 0
M  V30 2282 H 224.437 -2.24567 2.33967 0
M  V30 2283 H 224.222 -1.16211 3.74483 0
M  V30 2284 H 225.712 -2.13951 3.58629 0
M  V30 2285 N 226.149 -1.5696 0.141893 0
M  V30 2286 C 227.377 -2.00322 -0.517579 0
M  V30 2287 C 227.792 -1.02193 -1.58752 0
M  V30 2288 O 227.149 -0.0181619 -1.82491 0
M  V30 2289 C 227.2 -3.43618 -1.12289 0
M  V30 2290 O 226.921 -4.37995 -0.0956929 0
M  V30 2291 C 228.422 -4.02231 -1.86347 0
M  V30 2292 H 225.642 -0.657243 -0.135177 0
M  V30 2293 H 228.186 -2.03146 0.234973 0
M  V30 2294 H 226.341 -3.41662 -1.82609 0
M  V30 2295 H 226.755 -5.21729 -0.538469 0
M  V30 2296 H 228.229 -5.04509 -2.23997 0
M  V30 2297 H 228.706 -3.42655 -2.74744 0
M  V30 2298 H 229.312 -4.07802 -1.20737 0
M  V30 2299 N 227.627 0.131896 -1.57047 0
M  V30 2300 C 228.873 0.843179 -1.84441 0
M  V30 2301 C 229.206 1.80129 -0.725749 0
M  V30 2302 O 228.481 1.92624 0.269469 0
M  V30 2303 C 228.764 1.60442 -3.22382 0
M  V30 2304 C 228.617 0.666782 -4.4483 0
M  V30 2305 C 229.936 2.56354 -3.5773 0
M  V30 2306 H 227.055 0.305081 -0.670891 0
M  V30 2307 H 229.697 0.107839 -1.89694 0
M  V30 2308 H 227.847 2.23128 -3.18035 0
M  V30 2309 H 229.519 0.0497646 -4.61273 0
M  V30 2310 H 227.762 -0.022609 -4.33794 0
M  V30 2311 H 228.433 1.23579 -5.37989 0
M  V30 2312 H 230.909 2.0378 -3.62785 0
M  V30 2313 H 229.785 3.06657 -4.5525 0
M  V30 2314 H 230.046 3.38419 -2.84473 0
M  V30 2315 N 229.106 1.52395 0.401703 0
M  V30 2316 C 230.038 1.72505 1.50912 0
M  V30 2317 C 231.051 0.605468 1.51122 0
M  V30 2318 O 232.24 0.880828 1.55254 0
M  V30 2319 C 229.34 1.75711 2.89791 0
M  V30 2320 C 228.513 3.04824 3.1369 0
M  V30 2321 C 227.572 2.99743 4.32482 0
M  V30 2322 O 226.598 3.73635 4.29402 0
M  V30 2323 N 227.8 2.18047 5.37992 0
M  V30 2324 H 230.565 2.68049 1.34052 0
M  V30 2325 H 228.126 1.50724 0.591084 0
M  V30 2326 H 230.118 1.69834 3.6734 0
M  V30 2327 H 228.688 0.876092 3.00072 0
M  V30 2328 H 227.908 3.2429 2.24119 0
M  V30 2329 H 229.196 3.90221 3.26504 0
M  V30 2330 H 228.594 1.57456 5.43345 0
M  V30 2331 H 227.151 2.18021 6.14256 0
M  V30 2332 N 230.584 -0.659388 1.43143 0
M  V30 2333 C 231.861 -1.41627 1.34912 0
M  V30 2334 C 232.241 -2.11099 -0.00607785 0
M  V30 2335 O 231.589 -2.04353 -1.02236 0
M  V30 2336 C 231.799 -2.40604 2.52805 0
M  V30 2337 C 233.147 -3.04789 2.95616 0
M  V30 2338 O 234.171 -2.50932 2.52807 0
M  V30 2339 O 233.03 -4.02421 3.69756 0
M  V30 2340 H 230.124 -0.63246 0.532844 0
M  V30 2341 H 232.67 -0.686814 1.5518 0
M  V30 2342 H 231.442 -1.88174 3.43083 0
M  V30 2343 H 231.065 -3.21009 2.34604 0
M  V30 2344 N 232.062 -1.29571 -0.897171 0
M  V30 2345 C 233.339 -1.08365 -1.62839 0
M  V30 2346 C 233.719 0.371331 -2.07808 0
M  V30 2347 O 233.067 1.3606 -1.83576 0
M  V30 2348 C 233.277 -2.0735 -2.80726 0
M  V30 2349 C 234.625 -2.38406 -3.51351 0
M  V30 2350 O 235.649 -2.05564 -2.90898 0
M  V30 2351 O 234.508 -2.9453 -4.60341 0
M  V30 2352 H 231.602 -0.415345 -0.715134 0
M  V30 2353 H 234.148 -1.40952 -0.945018 0
M  V30 2354 H 232.92 -3.05339 -2.44711 0
M  V30 2355 H 232.543 -1.75507 -3.56767 0
M  V30 2356 N 233.54 1.10788 -1.12088 0
M  V30 2357 C 234.488 2.19111 -0.780587 0
M  V30 2358 C 235.482 1.67818 0.230961 0
M  V30 2359 O 236.688 1.79777 0.0895427 0
M  V30 2360 H 233.063 0.714477 -0.234578 0
M  V30 2361 H 235.034 2.45055 -1.70266 0
M  V30 2362 C 233.783 3.46818 -0.24747 0
M  V30 2363 H 233.106 3.86646 -1.01712 0
M  V30 2364 H 234.546 4.23973 -0.0476291 0
M  V30 2365 C 233.005 3.20968 1.02378 0
M  V30 2366 O 233.535 3.42298 2.10226 0
M  V30 2367 N 231.741 2.74658 0.949271 0
M  V30 2368 H 231.288 2.57501 0.0715173 0
M  V30 2369 H 231.246 2.57739 1.80049 0
M  V30 2370 N 235.018 0.912232 1.28515 0
M  V30 2371 C 236.267 0.540504 1.94323 0
M  V30 2372 C 236.58 -0.920044 1.72611 0
M  V30 2373 O 237.786 -1.39986 2.32629 0
M  V30 2374 C 236.242 0.915803 3.48053 0
M  V30 2375 C 235.85 2.39598 3.78546 0
M  V30 2376 C 237.594 0.614588 4.20027 0
M  V30 2377 C 235.501 2.71148 5.25578 0
M  V30 2378 H 234.431 0.198418 0.727424 0
M  V30 2379 H 237.082 1.11094 1.46049 0
M  V30 2380 H 235.464 0.274168 3.9505 0
M  V30 2381 H 236.638 3.08422 3.42364 0
M  V30 2382 H 234.953 2.66749 3.1974 0
M  V30 2383 H 237.55 0.827002 5.28266 0
M  V30 2384 H 237.893 -0.447531 4.13887 0
M  V30 2385 H 238.426 1.21462 3.78803 0
M  V30 2386 H 235.165 3.76207 5.36794 0
M  V30 2387 H 234.685 2.0696 5.62963 0
M  V30 2388 H 236.364 2.58072 5.93302 0
M  V30 2389 N 236.496 -1.42363 0.676048 0
M  V30 2390 C 237.742 -2.0182 0.199125 0
M  V30 2391 C 238.075 -1.53339 -1.19168 0
M  V30 2392 O 237.35 -0.736124 -1.80032 0
M  V30 2393 C 237.633 -3.59331 0.235144 0
M  V30 2394 C 237.486 -4.17989 1.66149 0
M  V30 2395 C 238.805 -4.3813 -0.41595 0
M  V30 2396 H 235.924 -0.733293 0.0738311 0
M  V30 2397 H 238.566 -1.69368 0.86107 0
M  V30 2398 H 236.716 -3.87109 -0.328487 0
M  V30 2399 H 238.388 -4.0116 2.27747 0
M  V30 2400 H 236.631 -3.7377 2.20178 0
M  V30 2401 H 237.302 -5.27126 1.63837 0
M  V30 2402 H 239.778 -4.16051 0.0638529 0
M  V30 2403 H 238.654 -5.47717 -0.360115 0
M  V30 2404 H 238.915 -4.16101 -1.49373 0
M  V30 2405 N 237.974 -0.419461 -1.51915 0
M  V30 2406 C 238.904 0.391813 -2.30189 0
M  V30 2407 C 239.885 1.03699 -1.34836 0
M  V30 2408 O 241.07 1.04403 -1.63748 0
M  V30 2409 C 238.2 1.50312 -3.13087 0
M  V30 2410 C 237.154 0.9824 -4.16573 0
M  V30 2411 C 236.48 2.18809 -4.8788 0
M  V30 2412 C 237.78 0.0292356 -5.22292 0
M  V30 2413 H 239.474 -0.26135 -2.98257 0
M  V30 2414 H 237.02 -0.127134 -1.43438 0
M  V30 2415 H 238.973 2.07773 -3.66617 0
M  V30 2416 H 237.697 2.18431 -2.42807 0
M  V30 2417 H 236.356 0.430119 -3.64068 0
M  V30 2418 H 236.004 2.85507 -4.14119 0
M  V30 2419 H 235.704 1.84615 -5.57845 0
M  V30 2420 H 237.228 2.76858 -5.44226 0
M  V30 2421 H 238.642 0.512976 -5.71 0
M  V30 2422 H 237.039 -0.2244 -5.9968 0
M  V30 2423 H 238.109 -0.912931 -4.76228 0
M  V30 2424 N 239.452 1.56882 -0.150215 0
M  V30 2425 C 240.68 2.00593 0.506948 0
M  V30 2426 C 241.095 1.03033 1.58208 0
M  V30 2427 O 240.452 0.0278396 1.82479 0
M  V30 2428 C 240.503 3.44209 1.10465 0
M  V30 2429 O 240.224 4.3804 0.0724636 0
M  V30 2430 C 241.725 4.03214 1.84211 0
M  V30 2431 H 238.945 0.65795 0.13169 0
M  V30 2432 H 241.489 2.03018 -0.245743 0
M  V30 2433 H 239.644 3.42625 1.80795 0
M  V30 2434 H 240.058 5.22007 0.510793 0
M  V30 2435 H 241.532 5.0569 2.21318 0
M  V30 2436 H 242.009 3.44107 2.72923 0
M  V30 2437 H 242.615 4.08437 1.18572 0
M  V30 2438 N 240.93 -0.123565 1.57115 0
M  V30 2439 C 242.341 -0.681198 1.73829 0
M  V30 2440 C 242.692 -1.80535 0.768214 0
M  V30 2441 O 241.817 -2.16317 -0.0599103 0
M  V30 2442 C 242.412 -1.24246 3.15196 0
M  V30 2443 C 240.971 -1.74643 3.33432 0
M  V30 2444 C 240.118 -0.644284 2.69711 0
M  V30 2445 H 243.069 0.102315 1.5837 0
M  V30 2446 H 243.09 -2.11216 3.16493 0
M  V30 2447 H 242.602 -0.424062 3.85776 0
M  V30 2448 H 240.703 -2.58974 2.67886 0
M  V30 2449 H 240.816 -1.85902 4.41562 0
M  V30 2450 H 239.18 -1.07676 2.3082 0
M  V30 2451 H 239.963 0.163058 3.42913 0
M  V30 2452 N 242.408 -1.52605 -0.393616 0
M  V30 2453 C 243.654 -1.68624 -1.13743 0
M  V30 2454 C 244.009 -0.418687 -1.87789 0
M  V30 2455 O 243.302 0.58747 -1.82371 0
M  V30 2456 C 243.496 -2.85721 -2.14705 0
M  V30 2457 C 243.325 -4.23742 -1.50575 0
M  V30 2458 C 242.095 -4.89033 -1.2718 0
M  V30 2459 C 244.293 -5.05293 -0.958311 0
M  V30 2460 N 242.275 -6.11048 -0.591058 0
M  V30 2461 C 243.646 -6.18673 -0.405367 0
M  V30 2462 C 245.701 -4.90517 -0.854274 0
M  V30 2463 C 244.404 -7.18895 0.241434 0
M  V30 2464 C 246.43 -5.90986 -0.221301 0
M  V30 2465 C 245.792 -7.03669 0.320894 0
M  V30 2466 H 241.891 -0.670556 -0.402342 0
M  V30 2467 H 244.475 -1.89946 -0.427607 0
M  V30 2468 H 242.646 -2.65987 -2.83029 0
M  V30 2469 H 244.378 -2.90699 -2.8156 0
M  V30 2470 H 241.133 -4.47672 -1.54554 0
M  V30 2471 H 241.557 -6.76474 -0.266862 0
M  V30 2472 H 246.199 -4.03612 -1.25926 0
M  V30 2473 H 243.917 -8.05413 0.658448 0
M  V30 2474 H 247.503 -5.81626 -0.142111 0
M  V30 2475 H 246.383 -7.80078 0.802956 0
M  V30 2476 N 243.887 0.651787 -1.4349 0
M  V30 2477 C 245.115 1.43937 -1.48626 0
M  V30 2478 C 245.53 1.8851 -0.104587 0
M  V30 2479 O 244.887 1.5958 0.885464 0
M  V30 2480 C 244.938 2.6734 -2.43334 0
M  V30 2481 O 244.659 2.24631 -3.76128 0
M  V30 2482 C 246.16 3.60683 -2.57726 0
M  V30 2483 H 243.38 0.44213 -0.504739 0
M  V30 2484 H 245.924 0.798944 -1.88248 0
M  V30 2485 H 244.079 3.2752 -2.06904 0
M  V30 2486 H 244.493 3.04485 -4.2707 0
M  V30 2487 H 245.967 4.43933 -3.28067 0
M  V30 2488 H 246.444 4.08126 -1.62265 0
M  V30 2489 H 247.05 3.06384 -2.94973 0
M  V30 2490 N 245.365 1.30045 0.890287 0
M  V30 2491 C 246.275 1.17885 2.02831 0
M  V30 2492 C 247.291 0.0999609 1.73713 0
M  V30 2493 O 248.467 0.313867 1.98939 0
M  V30 2494 C 245.532 0.866079 3.35708 0
M  V30 2495 C 244.593 2.02979 3.78283 0
M  V30 2496 C 243.826 1.73184 5.0482 0
M  V30 2497 O 244.049 0.657237 5.66601 0
M  V30 2498 O 242.983 2.58267 5.43674 0
M  V30 2499 H 246.809 2.13474 2.16015 0
M  V30 2500 H 244.394 1.09587 1.01543 0
M  V30 2501 H 246.276 0.706623 4.15433 0
M  V30 2502 H 244.951 -0.0599443 3.23644 0
M  V30 2503 H 243.858 2.24454 2.99285 0
M  V30 2504 H 245.191 2.93734 3.94944 0
M  V30 2505 N 246.843 -1.10192 1.12674 0
M  V30 2506 C 248.071 -1.85983 0.906527 0
M  V30 2507 C 248.486 -1.80783 -0.544333 0
M  V30 2508 O 247.843 -1.19834 -1.37645 0
M  V30 2509 C 247.894 -3.34281 1.37618 0
M  V30 2510 O 247.615 -3.39401 2.77017 0
M  V30 2511 C 249.116 -4.26938 1.19325 0
M  V30 2512 H 246.336 -0.587716 0.323775 0
M  V30 2513 H 248.88 -1.39284 1.49734 0
M  V30 2514 H 247.035 -3.78436 0.828539 0
M  V30 2515 H 247.449 -4.31838 2.97684 0
M  V30 2516 H 248.923 -5.29181 1.57071 0
M  V30 2517 H 249.4 -4.38995 0.134097 0
M  V30 2518 H 250.006 -3.8859 1.72852 0
M  V30 2519 N 248.321 -0.919034 -1.28029 0
M  V30 2520 C 249.598 -0.473668 -1.89778 0
M  V30 2521 C 249.978 1.04783 -1.83259 0
M  V30 2522 O 249.326 1.8982 -1.27202 0
M  V30 2523 C 249.536 -1.00998 -3.34066 0
M  V30 2524 C 250.884 -1.06525 -4.1102 0
M  V30 2525 O 251.908 -0.958996 -3.43048 0
M  V30 2526 O 250.767 -1.22776 -5.3253 0
M  V30 2527 H 247.861 -0.15098 -0.813101 0
M  V30 2528 H 250.407 -1.01016 -1.36359 0
M  V30 2529 H 249.179 -2.05392 -3.33061 0
M  V30 2530 H 248.802 -0.454626 -3.94992 0
M  V30 2531 N 249.799 1.42003 -0.683588 0
M  V30 2532 C 251.046 2.01413 -0.209514 0
M  V30 2533 C 251.374 1.54088 1.1869 0
M  V30 2534 O 250.629 0.737591 1.81268 0
M  V30 2535 C 250.928 3.56827 -0.202357 0
M  V30 2536 C 250.594 4.23617 -1.54464 0
M  V30 2537 C 249.256 4.41577 -1.91215 0
M  V30 2538 C 251.608 4.61178 -2.42826 0
M  V30 2539 C 248.936 4.9437 -3.15935 0
M  V30 2540 C 251.288 5.15355 -3.66867 0
M  V30 2541 C 249.952 5.31528 -4.03776 0
M  V30 2542 H 249.222 0.737023 -0.0766668 0
M  V30 2543 H 251.869 1.70067 -0.880312 0
M  V30 2544 H 250.174 3.87892 0.551969 0
M  V30 2545 H 251.871 4.00588 0.181793 0
M  V30 2546 H 248.461 4.10004 -1.24877 0
M  V30 2547 H 252.645 4.46968 -2.15717 0
M  V30 2548 H 247.901 5.05076 -3.44541 0
M  V30 2549 H 252.075 5.43402 -4.35531 0
M  V30 2550 H 249.702 5.72199 -5.00492 0
M  V30 2551 N 251.277 0.427512 1.51691 0
M  V30 2552 C 252.693 0.0792977 1.59403 0
M  V30 2553 C 252.893 -1.41035 1.43914 0
M  V30 2554 O 251.949 -2.17922 1.27539 0
M  V30 2555 C 253.262 0.590636 2.94842 0
M  V30 2556 C 254.81 0.550215 3.08126 0
M  V30 2557 C 255.285 1.03836 4.46074 0
M  V30 2558 N 256.776 0.995943 4.52366 0
M  V30 2559 C 257.511 1.34463 5.57411 0
M  V30 2560 N 257.007 1.76569 6.69922 0
M  V30 2561 N 258.8 1.26343 5.47717 0
M  V30 2562 H 250.951 1.39687 1.60004 0
M  V30 2563 H 253.214 0.575003 0.753708 0
M  V30 2564 H 252.92 1.63251 3.11516 0
M  V30 2565 H 252.794 0.0102061 3.77199 0
M  V30 2566 H 255.181 -0.482654 2.91126 0
M  V30 2567 H 255.262 1.16693 2.27632 0
M  V30 2568 H 254.906 2.06965 4.63819 0
M  V30 2569 H 254.836 0.398286 5.25092 0
M  V30 2570 H 257.327 0.68661 3.7161 0
M  V30 2571 H 257.64 2.01438 7.46085 0
M  V30 2572 H 255.985 1.80488 6.71155 0
M  V30 2573 H 259.176 0.933209 4.58703 0
M  V30 2574 H 259.349 1.53846 6.29472 0
M  V30 2575 N 252.755 -1.56801 0.158532 0
M  V30 2576 C 253.983 -2.00859 -0.496303 0
M  V30 2577 C 254.398 -1.03871 -1.57659 0
M  V30 2578 O 253.755 -0.0375165 -1.82461 0
M  V30 2579 C 253.806 -3.4479 -1.08638 0
M  V30 2580 O 253.527 -4.38072 -0.0492322 0
M  V30 2581 C 255.028 -4.04185 -1.8207 0
M  V30 2582 H 252.248 -0.65864 -0.128199 0
M  V30 2583 H 254.792 -2.02885 0.256506 0
M  V30 2584 H 252.947 -3.43579 -1.78975 0
M  V30 2585 H 253.361 -5.2227 -0.483102 0
M  V30 2586 H 254.835 -5.06857 -2.18633 0
M  V30 2587 H 255.312 -3.45549 -2.71095 0
M  V30 2588 H 255.918 -4.0906 -1.16405 0
M  V30 2589 N 254.233 0.115231 -1.57178 0
M  V30 2590 C 255.481 0.820727 -1.84685 0
M  V30 2591 C 255.802 1.80237 -0.744279 0
M  V30 2592 O 255.072 1.94529 0.231375 0
M  V30 2593 H 253.652 0.306084 -0.681411 0
M  V30 2594 H 256.314 0.101656 -1.94635 0
M  V30 2595 H 255.41 1.36366 -2.80733 0
M  V30 2596 N 255.711 1.52812 0.385517 0
M  V30 2597 C 256.621 1.80766 1.49535 0
M  V30 2598 C 257.637 0.694651 1.59532 0
M  V30 2599 O 258.813 0.982611 1.75803 0
M  V30 2600 C 255.878 1.97381 2.85029 0
M  V30 2601 C 254.939 3.21295 2.84724 0
M  V30 2602 C 254.172 3.37108 4.13756 0
M  V30 2603 O 254.395 2.5765 5.08893 0
M  V30 2604 O 253.329 4.30378 4.20783 0
M  V30 2605 H 257.155 2.75015 1.28842 0
M  V30 2606 H 254.74 1.37946 0.573697 0
M  V30 2607 H 256.622 2.09996 3.65349 0
M  V30 2608 H 255.297 1.06322 3.05741 0
M  V30 2609 H 254.204 3.1412 2.03174 0
M  V30 2610 H 255.537 4.12212 2.68965 0
M  V30 2611 N 257.189 -0.644168 1.43834 0
M  V30 2612 C 258.136 -1.75671 1.49694 0
M  V30 2613 C 259.106 -1.6246 0.345809 0
M  V30 2614 O 260.291 -1.82573 0.554234 0
M  V30 2615 C 257.431 -3.13867 1.43463 0
M  V30 2616 C 256.544 -3.38147 2.6885 0
M  V30 2617 C 255.679 -4.66241 2.54544 0
M  V30 2618 C 254.718 -4.83657 3.75157 0
M  V30 2619 N 253.855 -6.03016 3.59605 0
M  V30 2620 H 258.695 -1.69998 2.44754 0
M  V30 2621 H 256.232 -0.829458 1.21484 0
M  V30 2622 H 258.19 -3.9377 1.37843 0
M  V30 2623 H 256.82 -3.18588 0.519783 0
M  V30 2624 H 255.872 -2.52276 2.84712 0
M  V30 2625 H 257.184 -3.46899 3.58417 0
M  V30 2626 H 256.338 -5.54285 2.46683 0
M  V30 2627 H 255.077 -4.59826 1.62516 0
M  V30 2628 H 254.082 -3.94046 3.83416 0
M  V30 2629 H 255.307 -4.91896 4.68204 0
M  V30 2630 H 253.253 -5.97715 2.7032 0
M  V30 2631 H 253.17 -6.12766 4.42779 0
M  V30 2632 H 254.438 -6.93657 3.55613 0
M  V30 2633 N 258.668 -1.30515 -0.883378 0
M  V30 2634 C 260.079 -1.17509 -1.45081 0
M  V30 2635 C 260.43 0.223605 -1.94922 0
M  V30 2636 O 259.555 1.12041 -1.85137 0
M  V30 2637 C 260.15 -2.12715 -2.63701 0
M  V30 2638 C 258.709 -2.03682 -3.16529 0
M  V30 2639 C 257.856 -2.02706 -1.89224 0
M  V30 2640 H 260.807 -1.42762 -0.693165 0
M  V30 2641 H 260.828 -1.70891 -3.39965 0
M  V30 2642 H 260.34 -3.14505 -2.27395 0
M  V30 2643 H 258.441 -1.05039 -3.57488 0
M  V30 2644 H 258.554 -2.92146 -3.7972 0
M  V30 2645 H 256.918 -1.4753 -2.07622 0
M  V30 2646 H 257.701 -3.06229 -1.55174 0
M  V30 2647 N 260.146 1.09593 -1.13257 0
M  V30 2648 C 261.392 1.82181 -0.904521 0
M  V30 2649 C 261.747 1.83967 0.563358 0
M  V30 2650 O 261.04 1.29566 1.41149 0
M  V30 2651 C 261.234 3.27802 -1.42411 0
M  V30 2652 C 261.063 3.40201 -2.94097 0
M  V30 2653 C 259.833 3.52104 -3.62424 0
M  V30 2654 C 262.031 3.32875 -3.92044 0
M  V30 2655 N 260.013 3.53169 -5.0214 0
M  V30 2656 C 261.384 3.40789 -5.17941 0
M  V30 2657 C 263.439 3.16531 -3.84334 0
M  V30 2658 C 262.142 3.34042 -6.37031 0
M  V30 2659 C 264.168 3.11109 -5.02956 0
M  V30 2660 C 263.53 3.19614 -6.27715 0
M  V30 2661 H 259.629 0.681015 -0.384373 0
M  V30 2662 H 262.213 1.3099 -1.44048 0
M  V30 2663 H 260.384 3.77466 -0.915086 0
M  V30 2664 H 262.116 3.88393 -1.13722 0
M  V30 2665 H 258.871 3.5548 -3.12939 0
M  V30 2666 H 259.295 3.57291 -5.75041 0
M  V30 2667 H 263.937 3.08827 -2.88766 0
M  V30 2668 H 261.655 3.4051 -7.32857 0
M  V30 2669 H 265.241 2.99601 -4.98729 0
M  V30 2670 H 264.121 3.15432 -7.17964 0
M  V30 2671 N 261.624 0.925811 1.2754 0
M  V30 2672 C 262.87 0.575575 1.95086 0
M  V30 2673 C 263.225 -0.873246 1.71441 0
M  V30 2674 O 262.518 -1.61443 1.03183 0
M  V30 2675 C 262.712 0.835296 3.47502 0
M  V30 2676 C 262.541 2.30781 3.85967 0
M  V30 2677 C 261.311 2.96017 4.09514 0
M  V30 2678 C 263.509 3.28519 3.95702 0
M  V30 2679 N 261.491 4.3344 4.34744 0
M  V30 2680 C 262.862 4.51146 4.25285 0
M  V30 2681 C 264.917 3.23753 3.7827 0
M  V30 2682 C 263.62 5.69606 4.39251 0
M  V30 2683 C 265.646 4.41523 3.9346 0
M  V30 2684 C 265.008 5.62928 4.23428 0
M  V30 2685 H 261.107 0.260711 0.737261 0
M  V30 2686 H 263.691 1.19204 1.53943 0
M  V30 2687 H 261.862 0.248005 3.87607 0
M  V30 2688 H 263.594 0.447878 4.02214 0
M  V30 2689 H 260.349 2.46695 4.04275 0
M  V30 2690 H 260.773 5.04528 4.5142 0
M  V30 2691 H 265.415 2.3096 3.54143 0
M  V30 2692 H 263.133 6.62866 4.62205 0
M  V30 2693 H 266.719 4.39351 3.81394 0
M  V30 2694 H 265.599 6.52538 4.34929 0
M  V30 2695 N 263.102 -1.41638 0.69111 0
M  V30 2696 C 264.348 -2.01598 0.220519 0
M  V30 2697 C 264.681 -1.54594 -1.17535 0
M  V30 2698 O 263.956 -0.755177 -1.79241 0
M  V30 2699 C 264.239 -3.59062 0.273243 0
M  V30 2700 C 264.092 -4.16203 1.70573 0
M  V30 2701 C 265.411 -4.38546 -0.369457 0
M  V30 2702 H 262.53 -0.732468 0.0816045 0
M  V30 2703 H 265.172 -1.68445 0.878986 0
M  V30 2704 H 263.322 -3.87435 -0.287411 0
M  V30 2705 H 264.994 -3.98722 2.31989 0
M  V30 2706 H 263.237 -3.71414 2.2413 0
M  V30 2707 H 263.908 -5.25358 1.69419 0
M  V30 2708 H 266.384 -4.1596 0.107977 0
M  V30 2709 H 265.26 -5.48069 -0.302002 0
M  V30 2710 H 265.521 -4.17662 -1.44951 0
M  V30 2711 O 264.619 -0.577603 -1.50818 0
M  V30 2712 H 265.31 -0.0808444 -1.93531 0
M  V30 END ATOM
M  V30 BEGIN BOND
M  V30 END BOND
M  V30 END CTAB
M  END
$$$$
