drugbank_target|P12318 Low affinity immunoglobulin gamma Fc region receptor II-a (DB00002; DB00005; DB00028; DB00054; DB00087; DB00111; DB00112; DB06607; DB11767)
 OpenBabel12092120043D

  0  0  0     0  0            999 V3000
M  V30 BEGIN CTAB
M  V30 COUNTS 4882 4942 0 0 0
M  V30 BEGIN ATOM
M  V30 1 H -0.908 1.98254 -0.117106 0
M  V30 2 N 0 1.576 0 0
M  V30 3 C 0.933 2.03868 1.02534 0
M  V30 4 C 1.911 0.928543 1.3348 0
M  V30 5 O 3.095 1.19667 1.45644 0
M  V30 6 C 0.222 2.43627 2.35294 0
M  V30 7 C -0.732 3.65373 2.2001 0
M  V30 8 S 0.101 5.13292 1.52614 0
M  V30 9 C 1.257 5.56322 2.86805 0
M  V30 10 H 1.49 2.90518 0.631377 0
M  V30 11 H -0.977 1.52953 0.210867 0
M  V30 12 H 0.981 2.67203 3.11629 0
M  V30 13 H -0.358 1.57376 2.7183 0
M  V30 14 H -1.165 3.90944 3.18086 0
M  V30 15 H -1.563 3.418 1.51819 0
M  V30 16 H 0.729 5.58782 3.83104 0
M  V30 17 H 1.672 6.56266 2.65933 0
M  V30 18 H 2.08 4.83886 2.90714 0
M  V30 19 N 1.4781 -0.272755 1.55222 0
M  V30 20 C 2.7061 -1.02255 1.79865 0
M  V30 21 C 3.1211 -1.79924 0.572088 0
M  V30 22 O 2.4781 -1.76638 -0.458842 0
M  V30 23 C 2.5291 -1.98094 3.02392 0
M  V30 24 O 2.2501 -1.23572 4.20311 0
M  V30 25 C 3.7511 -2.84884 3.39641 0
M  V30 26 H 0.9711 -0.302057 0.599168 0
M  V30 27 H 3.5151 -0.303465 2.02236 0
M  V30 28 H 1.6701 -2.65465 2.82147 0
M  V30 29 H 2.0841 -1.88172 4.89583 0
M  V30 30 H 3.5581 -3.47927 4.28545 0
M  V30 31 H 4.0351 -3.54665 2.59055 0
M  V30 32 H 4.6411 -2.23003 3.62146 0
M  V30 33 N 2.9562 -1.48159 -0.537278 0
M  V30 34 C 3.8892 -1.567 -1.65893 0
M  V30 35 C 4.8672 -0.41787 -1.57139 0
M  V30 36 O 6.0512 -0.628461 -1.77715 0
M  V30 37 C 3.1782 -1.48818 -3.04255 0
M  V30 38 C 2.2242 -2.68482 -3.31391 0
M  V30 39 S 3.0572 -4.30516 -3.1846 0
M  V30 40 C 4.2132 -4.2522 -4.59281 0
M  V30 41 H 4.4462 -2.5159 -1.58397 0
M  V30 42 H 1.9792 -1.36602 -0.719672 0
M  V30 43 H 3.9372 -1.44958 -3.84054 0
M  V30 44 H 2.5982 -0.552777 -3.09198 0
M  V30 45 H 1.7912 -2.59085 -4.32309 0
M  V30 46 H 1.3932 -2.69567 -2.59248 0
M  V30 47 H 3.6852 -3.94703 -5.5065 0
M  V30 48 H 4.6282 -5.26292 -4.73732 0
M  V30 49 H 5.0362 -3.55791 -4.38261 0
M  V30 50 N 4.4343 0.785586 -1.36625 0
M  V30 51 C 5.3443 1.92964 -1.33425 0
M  V30 52 C 6.3603 1.72394 -0.235851 0
M  V30 53 O 7.5363 1.95866 -0.468878 0
M  V30 54 C 4.6013 3.27884 -1.12662 0
M  V30 55 C 3.6623 3.61204 -2.32013 0
M  V30 56 C 2.8953 4.89687 -2.12231 0
M  V30 57 O 3.1183 5.59704 -1.09945 0
M  V30 58 O 2.0523 5.21752 -3.00098 0
M  V30 59 H 5.8783 1.98613 -2.29753 0
M  V30 60 H 3.4633 0.926384 -1.17211 0
M  V30 61 H 5.3453 4.08614 -1.03016 0
M  V30 62 H 4.0203 3.23118 -0.193991 0
M  V30 63 H 2.9273 2.80765 -2.47228 0
M  V30 64 H 4.2603 3.70698 -3.23796 0
M  V30 65 N 5.9124 1.20967 1.01018 0
M  V30 66 C 7.1404 1.04956 1.78303 0
M  V30 67 C 7.5554 -0.400915 1.84494 0
M  V30 68 O 6.9124 -1.27826 1.30257 0
M  V30 69 C 6.9634 1.63403 3.22462 0
M  V30 70 O 6.6844 3.02775 3.16637 0
M  V30 71 C 8.1854 1.52432 4.16268 0
M  V30 72 H 5.4054 0.368858 0.560522 0
M  V30 73 H 7.9494 1.60193 1.27116 0
M  V30 74 H 6.1044 1.1227 3.70775 0
M  V30 75 H 6.5184 3.30626 4.07169 0
M  V30 76 H 7.9924 1.98078 5.15237 0
M  V30 77 H 8.4694 0.477875 4.36592 0
M  V30 78 H 9.0754 2.02787 3.73841 0
M  V30 79 N 7.3905 -1.2043 1.01659 0
M  V30 80 C 8.3225 -2.22626 0.544988 0
M  V30 81 C 9.3355 -1.58479 -0.372609 0
M  V30 82 O 10.5245 -1.77679 -0.170958 0
M  V30 83 C 7.6245 -3.38141 -0.22663 0
M  V30 84 C 6.7975 -4.31877 0.692876 0
M  V30 85 C 5.8565 -5.26191 -0.0311616 0
M  V30 86 O 4.8825 -5.6612 0.591343 0
M  V30 87 N 6.0845 -5.65618 -1.30601 0
M  V30 88 H 8.8495 -2.63716 1.42388 0
M  V30 89 H 6.4105 -1.34971 0.894116 0
M  V30 90 H 8.4025 -3.98239 -0.72024 0
M  V30 91 H 6.9725 -2.95943 -1.00681 0
M  V30 92 H 6.1925 -3.69746 1.36679 0
M  V30 93 H 7.4805 -4.91426 1.31824 0
M  V30 94 H 6.8785 -5.3519 -1.83269 0
M  V30 95 H 5.4355 -6.28025 -1.74435 0
M  V30 96 N 8.8686 -0.792821 -1.36206 0
M  V30 97 C 9.8016 -0.139422 -2.27774 0
M  V30 98 C 10.7796 0.68649 -1.47398 0
M  V30 99 O 11.9636 0.656738 -1.7669 0
M  V30 100 C 9.0906 0.807947 -3.28922 0
M  V30 101 C 8.1366 0.0633999 -4.26453 0
M  V30 102 S 8.9696 -1.26319 -5.20388 0
M  V30 103 C 10.1256 -0.31991 -6.25082 0
M  V30 104 H 10.3586 -0.915809 -2.82843 0
M  V30 105 H 7.8916 -0.587203 -1.42798 0
M  V30 106 H 9.8496 1.34908 -3.87699 0
M  V30 107 H 8.5106 1.55761 -2.72759 0
M  V30 108 H 7.7036 0.782386 -4.9789 0
M  V30 109 H 7.3056 -0.407352 -3.71775 0
M  V30 110 H 9.5976 0.499985 -6.75653 0
M  V30 111 H 10.5406 -1.00307 -7.00959 0
M  V30 112 H 10.9486 0.0782694 -5.64446 0
M  V30 113 N 10.3467 1.47872 -0.545128 0
M  V30 114 C 11.5717 2.07391 -0.0190611 0
M  V30 115 C 11.9967 1.39688 1.25971 0
M  V30 116 O 11.3547 0.467816 1.7516 0
M  V30 117 C 11.4027 3.60188 0.172335 0
M  V30 118 O 10.5067 3.9339 1.23766 0
M  V30 119 H 9.8477 0.662411 -0.0459059 0
M  V30 120 H 12.3777 1.90066 -0.757365 0
M  V30 121 H 12.3877 4.06129 0.390305 0
M  V30 122 H 11.0627 4.08865 -0.761725 0
M  V30 123 H 9.6397 3.5921 1.00114 0
M  V30 124 N 11.8248 0.280983 1.55075 0
M  V30 125 C 12.7568 -0.637268 2.20163 0
M  V30 126 C 13.7698 -1.11298 1.18813 0
M  V30 127 O 14.9588 -1.03388 1.4551 0
M  V30 128 C 12.0588 -1.88199 2.81841 0
M  V30 129 C 11.2318 -1.55211 4.08936 0
M  V30 130 C 10.2908 -2.64991 4.54606 0
M  V30 131 O 9.3168 -2.30929 5.2025 0
M  V30 132 N 10.5188 -3.95161 4.25238 0
M  V30 133 H 13.2838 -0.0801694 2.99593 0
M  V30 134 H 10.8448 0.102329 1.61576 0
M  V30 135 H 12.8368 -2.60948 3.09335 0
M  V30 136 H 11.4068 -2.34799 2.06369 0
M  V30 137 H 10.6268 -0.658185 3.88666 0
M  V30 138 H 11.9148 -1.30681 4.91732 0
M  V30 139 H 11.3128 -4.25653 3.72607 0
M  V30 140 H 9.8698 -4.6427 4.5749 0
M  V30 141 N 13.3029 -1.57598 0.00835791 0
M  V30 142 C 14.2509 -2.10078 -0.998508 0
M  V30 143 C 15.2449 -1.02262 -1.35051 0
M  V30 144 O 16.4509 -1.20719 -1.33518 0
M  V30 145 H 12.8259 -0.670903 -0.339696 0
M  V30 146 H 14.7969 -2.93648 -0.530398 0
M  V30 147 C 13.5459 -2.62615 -2.27879 0
M  V30 148 H 12.8689 -3.45213 -2.01662 0
M  V30 149 H 14.3089 -3.03004 -2.96588 0
M  V30 150 C 12.7679 -1.54407 -2.99433 0
M  V30 151 O 13.2979 -0.931812 -3.90743 0
M  V30 152 N 11.5039 -1.2695 -2.61404 0
M  V30 153 H 11.0509 -1.76924 -1.87232 0
M  V30 154 H 11.0089 -0.547704 -3.09593 0
M  V30 155 N 14.781 0.264519 -1.55364 0
M  V30 156 C 16.027 0.99646 -1.76631 0
M  V30 157 C 16.36 1.85632 -0.570478 0
M  V30 158 O 15.635 1.89647 0.43175 0
M  V30 159 C 15.918 1.87187 -3.07625 0
M  V30 160 C 15.771 1.04138 -4.37579 0
M  V30 161 C 17.09 2.85749 -3.34717 0
M  V30 162 H 14.209 0.360841 -0.642622 0
M  V30 163 H 16.851 0.268218 -1.88097 0
M  V30 164 H 15.001 2.49279 -2.9798 0
M  V30 165 H 16.673 0.440517 -4.59192 0
M  V30 166 H 14.916 0.345115 -4.32425 0
M  V30 167 H 15.587 1.68729 -5.2558 0
M  V30 168 H 18.063 2.33793 -3.4421 0
M  V30 169 H 16.939 3.44136 -4.27623 0
M  V30 170 H 17.2 3.61311 -2.54768 0
M  V30 171 N 16.2591 1.48442 0.529413 0
M  V30 172 C 17.4991 1.58086 1.29569 0
M  V30 173 C 17.8631 0.249302 1.90375 0
M  V30 174 O 19.0641 0.220738 2.67892 0
M  V30 175 C 17.3351 2.68793 2.35552 0
M  V30 176 S 18.8941 2.98207 3.21898 0
M  V30 177 H 15.7121 0.557922 0.440732 0
M  V30 178 H 18.3141 1.85966 0.603059 0
M  V30 179 H 17.0181 3.64102 1.89363 0
M  V30 180 H 16.5491 2.42817 3.09522 0
M  V30 181 H 18.5641 2.37548 4.35644 0
M  V30 182 N 17.7372 -0.778329 1.37039 0
M  V30 183 C 19.1482 -1.35421 1.28523 0
M  V30 184 C 19.4992 -1.96075 -0.0700901 0
M  V30 185 O 18.6242 -1.93352 -0.971801 0
M  V30 186 C 19.2192 -2.46211 2.32735 0
M  V30 187 C 17.7782 -2.99585 2.27873 0
M  V30 188 C 16.9252 -1.72748 2.16918 0
M  V30 189 H 19.8762 -0.5791 1.47757 0
M  V30 190 H 19.8972 -3.2552 1.9702 0
M  V30 191 H 19.4092 -2.02036 3.31365 0
M  V30 192 H 17.5102 -3.48152 1.32745 0
M  V30 193 H 17.6232 -3.55646 3.21018 0
M  V30 194 H 15.9872 -1.95416 1.63354 0
M  V30 195 H 16.7702 -1.30686 3.17452 0
M  V30 196 N 19.2153 -1.21501 -1.00376 0
M  V30 197 C 20.6313 -0.972629 -1.26539 0
M  V30 198 C 20.8313 0.340257 -1.98606 0
M  V30 199 O 19.8873 1.06561 -2.28913 0
M  V30 200 C 21.2003 -2.16404 -2.08781 0
M  V30 201 C 22.7483 -2.20643 -2.22004 0
M  V30 202 C 23.2233 -3.39306 -3.07629 0
M  V30 203 N 24.7143 -3.39401 -3.15217 0
M  V30 204 C 25.4493 -4.27867 -3.81729 0
M  V30 205 N 24.9453 -5.26533 -4.5026 0
M  V30 206 N 26.7383 -4.15672 -3.78382 0
M  V30 207 H 18.8893 -2.05929 -0.520281 0
M  V30 208 H 21.1523 -0.901803 -0.292328 0
M  V30 209 H 20.8583 -3.11554 -1.63178 0
M  V30 210 H 20.7323 -2.15567 -3.09533 0
M  V30 211 H 23.1193 -1.26048 -2.66825 0
M  V30 212 H 23.2003 -2.25523 -1.20718 0
M  V30 213 H 22.8443 -4.34195 -2.63509 0
M  V30 214 H 22.7743 -3.31665 -4.09031 0
M  V30 215 H 25.2653 -2.67997 -2.66432 0
M  V30 216 H 25.5783 -5.90337 -4.98721 0
M  V30 217 H 23.9233 -5.30457 -4.49044 0
M  V30 218 H 27.1143 -3.3785 -3.23998 0
M  V30 219 H 27.2873 -4.84825 -4.2994 0
M  V30 220 N 20.6934 1.19889 -1.02296 0
M  V30 221 C 21.6414 2.24938 -0.592081 0
M  V30 222 C 22.6354 1.65257 0.372357 0
M  V30 223 O 23.8414 1.78371 0.241583 0
M  V30 224 H 20.2164 0.731787 -0.173182 0
M  V30 225 H 22.1874 2.58603 -1.48885 0
M  V30 226 C 20.9364 3.47668 0.047351 0
M  V30 227 H 20.2594 3.93875 -0.685772 0
M  V30 228 H 21.6994 4.22852 0.311862 0
M  V30 229 C 20.1584 3.11136 1.29212 0
M  V30 230 O 20.6884 3.2325 2.38479 0
M  V30 231 N 18.8944 2.65625 1.17863 0
M  V30 232 H 18.4414 2.55968 0.289493 0
M  V30 233 H 18.3994 2.41553 2.01245 0
M  V30 234 N 22.1715 0.800033 1.35784 0
M  V30 235 C 23.1015 0.220184 2.3246 0
M  V30 236 C 24.0825 -0.65073 1.57161 0
M  V30 237 O 25.2675 -0.582359 1.85263 0
M  V30 238 C 22.3975 -0.637353 3.41402 0
M  V30 239 C 21.3515 0.134531 4.27789 0
M  V30 240 C 20.6775 -0.844285 5.27992 0
M  V30 241 C 21.9775 1.32979 5.05088 0
M  V30 242 H 23.6715 1.02787 2.81203 0
M  V30 243 H 21.2175 0.495717 1.35199 0
M  V30 244 H 23.1705 -1.05302 4.08031 0
M  V30 245 H 21.8945 -1.47785 2.91251 0
M  V30 246 H 20.5535 0.531296 3.6273 0
M  V30 247 H 20.2015 -1.68011 4.74111 0
M  V30 248 H 19.9015 -0.332184 5.8666 0
M  V30 249 H 21.4255 -1.2583 5.97494 0
M  V30 250 H 22.8395 0.98934 5.64699 0
M  V30 251 H 21.2365 1.77593 5.7322 0
M  V30 252 H 22.3065 2.11978 4.36111 0
M  V30 253 N 23.6496 -1.47581 0.552962 0
M  V30 254 C 24.8956 -2.03369 0.0355807 0
M  V30 255 C 25.2506 -1.42016 -1.29805 0
M  V30 256 O 24.5436 -0.564917 -1.83083 0
M  V30 257 C 24.7376 -3.57199 -0.119728 0
M  V30 258 C 24.5666 -4.33468 1.1973 0
M  V30 259 C 23.3366 -4.7353 1.76345 0
M  V30 260 C 25.5346 -4.68866 2.11351 0
M  V30 261 N 23.5166 -5.34426 3.02097 0
M  V30 262 C 24.8876 -5.3002 3.21681 0
M  V30 263 C 26.9426 -4.50795 2.11397 0
M  V30 264 C 25.6456 -5.75011 4.32151 0
M  V30 265 C 27.6716 -4.96782 3.20876 0
M  V30 266 C 27.0336 -5.57981 4.29926 0
M  V30 267 H 23.1326 -0.780058 0.0550806 0
M  V30 268 H 25.7166 -1.80117 0.739315 0
M  V30 269 H 23.8876 -3.80227 -0.792579 0
M  V30 270 H 25.6196 -3.99627 -0.638792 0
M  V30 271 H 22.3746 -4.55352 1.30196 0
M  V30 272 H 22.7986 -5.69421 3.66182 0
M  V30 273 H 27.4406 -4.0284 1.28372 0
M  V30 274 H 25.1586 -6.21959 5.15938 0
M  V30 275 H 28.7446 -4.84573 3.21994 0
M  V30 276 H 27.6246 -5.92918 5.13243 0
M  V30 277 N 25.1277 -0.289203 -1.54924 0
M  V30 278 C 26.0577 0.58549 -2.2604 0
M  V30 279 C 27.0387 1.14753 -1.25562 0
M  V30 280 O 28.2237 1.17906 -1.54311 0
M  V30 281 C 25.3537 1.76305 -2.99222 0
M  V30 282 C 24.3077 1.33191 -4.06748 0
M  V30 283 C 23.6337 2.5937 -4.6758 0
M  V30 284 C 24.9337 0.471775 -5.20165 0
M  V30 285 H 26.6277 -0.00763532 -2.99399 0
M  V30 286 H 24.1737 -0.00511229 -1.43999 0
M  V30 287 H 26.1267 2.38097 -3.47689 0
M  V30 288 H 24.8507 2.38223 -2.23422 0
M  V30 289 H 23.5097 0.737121 -3.59113 0
M  V30 290 H 23.1577 3.19576 -3.88433 0
M  V30 291 H 22.8577 2.31228 -5.40192 0
M  V30 292 H 24.3817 3.21985 -5.18804 0
M  V30 293 H 25.7957 0.995056 -5.64599 0
M  V30 294 H 24.1927 0.284639 -5.99425 0
M  V30 295 H 25.2627 -0.506041 -4.82252 0
M  V30 296 N 26.6058 1.57591 -0.0167156 0
M  V30 297 C 27.5358 2.12496 0.967858 0
M  V30 298 C 28.5168 1.03807 1.34752 0
M  V30 299 O 29.7018 1.31577 1.42833 0
M  V30 300 C 26.8318 2.64194 2.25431 0
M  V30 301 C 25.7858 3.77559 2.01576 0
M  V30 302 C 25.1118 4.15636 3.36379 0
M  V30 303 C 26.4118 5.04151 1.36489 0
M  V30 304 H 28.1058 2.95013 0.510643 0
M  V30 305 H 25.6518 1.41915 0.244181 0
M  V30 306 H 27.6048 3.01236 2.94678 0
M  V30 307 H 26.3288 1.78821 2.73296 0
M  V30 308 H 24.9878 3.40937 1.34751 0
M  V30 309 H 24.6358 3.27263 3.81979 0
M  V30 310 H 24.3358 4.92022 3.21229 0
M  V30 311 H 25.8598 4.5525 4.06915 0
M  V30 312 H 27.2738 5.38857 1.95718 0
M  V30 313 H 25.6708 5.85453 1.31776 0
M  V30 314 H 26.7408 4.83733 0.336219 0
M  V30 315 N 28.0839 -0.256276 1.55502 0
M  V30 316 C 29.0159 -1.33981 1.85962 0
M  V30 317 C 30.0289 -1.44743 0.745212 0
M  V30 318 O 31.2179 -1.4626 1.02324 0
M  V30 319 C 28.3179 -2.7194 2.02242 0
M  V30 320 C 27.4909 -2.83562 3.33033 0
M  V30 321 C 26.5499 -4.02304 3.39172 0
M  V30 322 O 25.5759 -3.92273 4.12444 0
M  V30 323 N 26.7779 -5.15045 2.67784 0
M  V30 324 H 29.5429 -1.08191 2.7949 0
M  V30 325 H 27.1039 -0.446388 1.55624 0
M  V30 326 H 29.0959 -3.49697 2.03701 0
M  V30 327 H 27.6659 -2.90479 1.15502 0
M  V30 328 H 26.8859 -1.92555 3.43971 0
M  V30 329 H 28.1739 -2.88271 4.19258 0
M  V30 330 H 27.5719 -5.26085 2.07968 0
M  V30 331 H 26.1289 -5.90972 2.74947 0
M  V30 332 N 29.562 -1.4872 -0.521534 0
M  V30 333 C 30.973 -1.50607 -1.10337 0
M  V30 334 C 31.324 -0.280612 -1.94183 0
M  V30 335 O 30.449 0.611507 -2.0758 0
M  V30 336 C 31.044 -2.72903 -2.00772 0
M  V30 337 C 29.603 -2.77634 -2.54158 0
M  V30 338 C 28.75 -2.44241 -1.31307 0
M  V30 339 H 31.701 -1.55714 -0.306388 0
M  V30 340 H 31.722 -2.519 -2.85178 0
M  V30 341 H 31.234 -3.62077 -1.39721 0
M  V30 342 H 29.335 -1.92689 -3.18907 0
M  V30 343 H 29.448 -3.79283 -2.92714 0
M  V30 344 H 27.812 -1.95577 -1.63161 0
M  V30 345 H 28.595 -3.35666 -0.719943 0
M  V30 346 N 31.0401 0.771051 -1.3745 0
M  V30 347 C 31.9701 1.89827 -1.3597 0
M  V30 348 C 32.9511 1.68562 -0.228216 0
M  V30 349 O 34.1361 1.8941 -0.428675 0
M  V30 350 C 31.2661 3.2712 -1.16662 0
M  V30 351 C 30.2201 3.6295 -2.2683 0
M  V30 352 C 29.5461 4.98791 -1.92644 0
M  V30 353 C 30.8461 3.69627 -3.69017 0
M  V30 354 H 32.5401 1.91323 -2.30295 0
M  V30 355 H 30.0861 0.919082 -1.10855 0
M  V30 356 H 32.0391 4.05615 -1.14256 0
M  V30 357 H 30.7631 3.26059 -0.187926 0
M  V30 358 H 29.4221 2.86763 -2.28392 0
M  V30 359 H 29.0701 4.94271 -0.933021 0
M  V30 360 H 28.7701 5.23733 -2.66416 0
M  V30 361 H 30.2941 5.79685 -1.91826 0
M  V30 362 H 31.7081 4.38273 -3.69581 0
M  V30 363 H 30.1051 4.06067 -4.41848 0
M  V30 364 H 31.1751 2.70273 -4.02592 0
M  V30 365 N 32.5182 1.22032 0.997298 0
M  V30 366 C 33.7462 1.06841 1.7718 0
M  V30 367 C 34.1612 -0.381325 1.84909 0
M  V30 368 O 33.5182 -1.26437 1.31605 0
M  V30 369 C 33.5692 1.66814 3.20711 0
M  V30 370 O 33.2902 3.06116 3.13408 0
M  V30 371 C 34.7912 1.56838 4.14628 0
M  V30 372 H 32.0112 0.374782 0.556578 0
M  V30 373 H 34.5552 1.61532 1.2541 0
M  V30 374 H 32.7102 1.16196 3.69564 0
M  V30 375 H 33.1242 3.34926 4.0364 0
M  V30 376 H 34.5982 2.03532 5.13107 0
M  V30 377 H 35.0752 0.524155 4.36061 0
M  V30 378 H 35.6812 2.06741 3.7167 0
M  V30 379 N 33.9963 -1.19345 1.0293 0
M  V30 380 C 35.2423 -1.89318 0.727083 0
M  V30 381 C 35.5753 -1.79446 -0.742483 0
M  V30 382 O 34.8503 -1.1871 -1.54072 0
M  V30 383 C 35.1333 -3.40238 1.17942 0
M  V30 384 C 34.9863 -3.58979 2.71024 0
M  V30 385 C 36.3053 -4.33479 0.760548 0
M  V30 386 H 33.4243 -0.687475 0.265606 0
M  V30 387 H 36.0663 -1.40477 1.2793 0
M  V30 388 H 34.2163 -3.81964 0.709608 0
M  V30 389 H 35.8883 -3.26421 3.25955 0
M  V30 390 H 34.1313 -3.02018 3.11396 0
M  V30 391 H 34.8023 -4.64823 2.9773 0
M  V30 392 H 37.2783 -3.99469 1.16464 0
M  V30 393 H 36.1543 -5.37664 1.10493 0
M  V30 394 H 36.4153 -4.40813 -0.337063 0
M  V30 395 N 35.4744 -0.807222 -1.35358 0
M  V30 396 C 36.4044 -0.232509 -2.3234 0
M  V30 397 C 37.3854 0.642386 -1.57504 0
M  V30 398 O 38.5704 0.572526 -1.85569 0
M  V30 399 C 35.7004 0.619238 -3.41735 0
M  V30 400 C 34.6544 -0.157215 -4.27711 0
M  V30 401 C 33.9804 0.816273 -5.28433 0
M  V30 402 C 35.2804 -1.35656 -5.04376 0
M  V30 403 H 36.9744 -1.04276 -2.80654 0
M  V30 404 H 34.5204 -0.50288 -1.34934 0
M  V30 405 H 36.4734 1.03137 -4.08584 0
M  V30 406 H 35.1974 1.46239 -2.92031 0
M  V30 407 H 33.8564 -0.550525 -3.62443 0
M  V30 408 H 33.5044 1.65494 -4.74996 0
M  V30 409 H 33.2044 0.301067 -5.86828 0
M  V30 410 H 34.7284 1.22659 -5.98153 0
M  V30 411 H 36.1424 -1.01927 -5.64166 0
M  V30 412 H 34.5394 -1.8063 -5.7227 0
M  V30 413 H 35.6094 -2.14288 -4.34981 0
M  V30 414 N 36.9525 1.47285 -0.560781 0
M  V30 415 C 37.8825 2.32857 0.173105 0
M  V30 416 C 38.8635 1.44009 0.905281 0
M  V30 417 O 40.0485 1.7286 0.885046 0
M  V30 418 C 37.1785 3.25861 1.20133 0
M  V30 419 C 36.1325 4.23978 0.585388 0
M  V30 420 C 35.4585 5.06332 1.7185 0
M  V30 421 C 36.7585 5.20242 -0.463178 0
M  V30 422 H 38.4525 2.94466 -0.541307 0
M  V30 423 H 35.9985 1.41601 -0.261764 0
M  V30 424 H 37.9515 3.84569 1.72293 0
M  V30 425 H 36.6755 2.62315 1.94573 0
M  V30 426 H 35.3345 3.66501 0.085054 0
M  V30 427 H 34.9825 4.39186 2.45203 0
M  V30 428 H 34.6825 5.72762 1.31213 0
M  V30 429 H 36.2065 5.67899 2.24329 0
M  V30 430 H 37.6205 5.73293 -0.027502 0
M  V30 431 H 36.0175 5.94896 -0.788627 0
M  V30 432 H 37.0875 4.65504 -1.35773 0
M  V30 433 N 38.4306 0.297415 1.54768 0
M  V30 434 C 39.3606 -0.573494 2.26348 0
M  V30 435 C 40.3416 -1.14085 1.26169 0
M  V30 436 O 41.5266 -1.17086 1.54934 0
M  V30 437 C 38.6566 -1.74716 3.00153 0
M  V30 438 C 37.6106 -1.31032 4.07449 0
M  V30 439 C 36.9366 -2.56887 4.68949 0
M  V30 440 C 38.2366 -0.444183 5.20408 0
M  V30 441 H 39.9306 0.0235131 2.99391 0
M  V30 442 H 37.4766 0.0127488 1.43994 0
M  V30 443 H 39.4296 -2.3625 3.48947 0
M  V30 444 H 38.1536 -2.37035 2.24682 0
M  V30 445 H 36.8126 -0.718066 3.59499 0
M  V30 446 H 36.4606 -3.17512 3.90122 0
M  V30 447 H 36.1606 -2.2836 5.41411 0
M  V30 448 H 37.6846 -3.19229 5.20505 0
M  V30 449 H 39.0986 -0.9651 5.65118 0
M  V30 450 H 37.4956 -0.252846 5.99567 0
M  V30 451 H 38.5656 0.531609 4.81977 0
M  V30 452 N 39.9087 -1.5758 0.0250728 0
M  V30 453 C 40.8387 -2.13007 -0.956575 0
M  V30 454 C 41.8197 -1.0452 -1.342 0
M  V30 455 O 43.0047 -1.32332 -1.42133 0
M  V30 456 C 40.1347 -2.65386 -2.24026 0
M  V30 457 C 39.0887 -3.78623 -1.99571 0
M  V30 458 C 38.4147 -4.17414 -3.3417 0
M  V30 459 C 39.7147 -5.04867 -1.33814 0
M  V30 460 H 41.4087 -2.9528 -0.494991 0
M  V30 461 H 38.9547 -1.42042 -0.236651 0
M  V30 462 H 40.9077 -3.02794 -2.93076 0
M  V30 463 H 39.6317 -1.80268 -2.72343 0
M  V30 464 H 38.2907 -3.41646 -1.32941 0
M  V30 465 H 37.9387 -3.29284 -3.80238 0
M  V30 466 H 37.6387 -4.93719 -3.18615 0
M  V30 467 H 39.1627 -4.57402 -4.04495 0
M  V30 468 H 40.5767 -5.39888 -1.92857 0
M  V30 469 H 38.9737 -5.86144 -1.28669 0
M  V30 470 H 40.0437 -4.83904 -0.310561 0
M  V30 471 N 41.3868 0.248026 -1.55636 0
M  V30 472 C 42.3498 1.29044 -1.89421 0
M  V30 473 C 43.3498 1.41134 -0.770581 0
M  V30 474 O 44.5398 1.39854 -1.03858 0
M  V30 475 C 41.6718 2.66831 -2.12165 0
M  V30 476 H 42.8648 1.00305 -2.82629 0
M  V30 477 H 40.4178 0.487265 -1.48511 0
M  V30 478 H 41.1528 3.00711 -1.21422 0
M  V30 479 H 40.9378 2.59438 -2.93997 0
M  V30 480 H 42.4278 3.42103 -2.3949 0
M  V30 481 N 42.8649 1.48995 0.513639 0
M  V30 482 C 44.0899 1.61792 1.29762 0
M  V30 483 C 44.5149 0.284475 1.85936 0
M  V30 484 O 43.8729 -0.746185 1.65232 0
M  V30 485 C 43.9209 2.67993 2.41272 0
M  V30 486 O 43.0249 2.26287 3.44772 0
M  V30 487 H 42.3659 0.541963 0.38363 0
M  V30 488 H 44.8959 1.95097 0.616307 0
M  V30 489 H 44.9059 2.89772 2.87221 0
M  V30 490 H 43.5809 3.64791 1.9975 0
M  V30 491 H 42.1579 2.14788 3.04829 0
M  V30 492 N 44.343 -0.763751 1.37857 0
M  V30 493 C 45.306 -1.85889 1.34081 0
M  V30 494 C 46.306 -1.58949 0.243277 0
M  V30 495 O 47.496 -1.66882 0.499589 0
M  V30 496 C 44.628 -3.23176 1.08489 0
M  V30 497 H 45.821 -1.90648 2.31502 0
M  V30 498 H 43.374 -0.964367 1.23003 0
M  V30 499 H 44.109 -3.24091 0.116318 0
M  V30 500 H 43.894 -3.44124 1.8794 0
M  V30 501 H 45.384 -4.03254 1.08517 0
M  V30 502 N 45.8211 -1.22559 -0.990812 0
M  V30 503 C 47.0981 -0.959875 -1.70428 0
M  V30 504 C 47.4781 0.524455 -2.04481 0
M  V30 505 O 46.8261 1.49302 -1.72977 0
M  V30 506 C 47.0361 -1.85955 -2.95333 0
M  V30 507 C 48.3841 -2.11687 -3.68068 0
M  V30 508 O 49.4081 -1.8342 -3.05345 0
M  V30 509 O 48.2671 -2.59572 -4.80921 0
M  V30 510 H 45.3611 -0.361154 -0.743974 0
M  V30 511 H 47.9071 -1.33554 -1.04697 0
M  V30 512 H 46.6791 -2.86346 -2.66687 0
M  V30 513 H 46.3021 -1.4856 -3.68803 0
M  V30 514 N 47.2992 1.18797 -1.03562 0
M  V30 515 C 48.5242 1.9314 -0.755764 0
M  V30 516 C 48.9492 1.7537 0.68022 0
M  V30 517 O 48.3072 1.06046 1.47051 0
M  V30 518 C 48.3552 3.42747 -1.12058 0
M  V30 519 O 47.4592 4.11683 -0.243124 0
M  V30 520 H 46.8002 0.602724 -0.278604 0
M  V30 521 H 49.3302 1.50678 -1.3841 0
M  V30 522 H 49.3402 3.93437 -1.08035 0
M  V30 523 H 48.0152 3.55002 -2.16672 0
M  V30 524 H 46.5922 3.71323 -0.342539 0
M  V30 525 N 48.7773 0.814389 1.34928 0
M  V30 526 C 49.7093 0.187834 2.28429 0
M  V30 527 C 50.7223 -0.617374 1.5064 0
M  V30 528 O 51.9113 -0.448454 1.72775 0
M  V30 529 C 49.0113 -0.755962 3.30361 0
M  V30 530 C 48.1843 0.00456686 4.374 0
M  V30 531 C 47.2433 -0.858876 5.19143 0
M  V30 532 O 46.2693 -0.306968 5.68372 0
M  V30 533 N 47.4713 -2.17988 5.38016 0
M  V30 534 H 50.2363 0.991105 2.82838 0
M  V30 535 H 47.7973 0.670561 1.4736 0
M  V30 536 H 49.7893 -1.338 3.81942 0
M  V30 537 H 48.3593 -1.46001 2.7641 0
M  V30 538 H 47.5793 0.767865 3.86649 0
M  V30 539 H 48.8673 0.528422 5.06049 0
M  V30 540 H 48.2653 -2.65212 4.99679 0
M  V30 541 H 46.8223 -2.71098 5.92747 0
M  V30 542 N 50.2554 -1.46986 0.568584 0
M  V30 543 C 51.2184 -2.28624 -0.162366 0
M  V30 544 C 52.2184 -1.37596 -0.832103 0
M  V30 545 O 53.4084 -1.60115 -0.68622 0
M  V30 546 C 50.5404 -3.17596 -1.23878 0
M  V30 547 H 51.7334 -2.94722 0.554899 0
M  V30 548 H 49.2864 -1.52863 0.325976 0
M  V30 549 H 50.0214 -2.56214 -1.98808 0
M  V30 550 H 49.8064 -3.846 -0.763219 0
M  V30 551 H 51.2964 -3.79078 -1.75185 0
M  V30 552 N 51.7335 -0.305618 -1.54608 0
M  V30 553 C 52.6965 0.555591 -2.22364 0
M  V30 554 C 53.6965 1.05768 -1.21119 0
M  V30 555 O 54.8865 0.952972 -1.45822 0
M  V30 556 C 52.0185 1.76974 -2.91364 0
M  V30 557 H 53.2115 -0.0364572 -2.99878 0
M  V30 558 H 50.7645 -0.0565007 -1.56198 0
M  V30 559 H 51.4995 2.40151 -2.17941 0
M  V30 560 H 51.2845 1.41732 -3.65588 0
M  V30 561 H 52.7745 2.38148 -3.43038 0
M  V30 562 N 53.2116 1.57565 -0.0334293 0
M  V30 563 C 54.1746 2.09393 0.932048 0
M  V30 564 C 55.1746 1.00986 1.25134 0
M  V30 565 O 56.3646 1.27129 1.19096 0
M  V30 566 C 53.4966 2.56338 2.2473 0
M  V30 567 H 54.6896 2.95984 0.483085 0
M  V30 568 H 52.2426 1.54819 0.21468 0
M  V30 569 H 52.9776 1.7309 2.74245 0
M  V30 570 H 52.7626 3.35542 2.02865 0
M  V30 571 H 54.2526 2.96646 2.93923 0
M  V30 572 N 54.6897 -0.239769 1.55765 0
M  V30 573 C 56.1007 -0.808263 1.68297 0
M  V30 574 C 56.4517 -1.85736 0.632181 0
M  V30 575 O 55.5767 -2.15277 -0.220204 0
M  V30 576 C 56.1717 -1.47284 3.05111 0
M  V30 577 C 54.7307 -1.98895 3.19559 0
M  V30 578 C 53.8777 -0.842575 2.64189 0
M  V30 579 H 56.8287 -0.0154422 1.58692 0
M  V30 580 H 56.8497 -2.34111 2.99954 0
M  V30 581 H 56.3617 -0.709053 3.81568 0
M  V30 582 H 54.4627 -2.78132 2.47938 0
M  V30 583 H 54.5757 -2.18143 4.26556 0
M  V30 584 H 52.9397 -1.24501 2.22197 0
M  V30 585 H 53.7227 -0.0917552 3.43177 0
M  V30 586 N 56.1678 -1.49265 -0.50573 0
M  V30 587 C 57.5788 -1.51769 -1.08734 0
M  V30 588 C 57.9298 -0.301192 -1.93874 0
M  V30 589 O 57.0548 0.589456 -2.08217 0
M  V30 590 C 57.6498 -2.75017 -1.97867 0
M  V30 591 C 56.2088 -2.80314 -2.51199 0
M  V30 592 C 55.3558 -2.4562 -1.28709 0
M  V30 593 H 58.3068 -1.56031 -0.289855 0
M  V30 594 H 58.3278 -2.5491 -2.82491 0
M  V30 595 H 57.8398 -3.63539 -1.35873 0
M  V30 596 H 55.9408 -1.96061 -3.16845 0
M  V30 597 H 56.0538 -3.82366 -2.88675 0
M  V30 598 H 54.4178 -1.97297 -1.61078 0
M  V30 599 H 55.2008 -3.36411 -0.6843 0
M  V30 600 N 57.6459 0.756429 -1.3826 0
M  V30 601 C 58.5929 1.87011 -1.35261 0
M  V30 602 C 59.5629 1.64695 -0.215616 0
M  V30 603 O 60.7479 1.864 -0.407399 0
M  V30 604 C 57.8879 3.24275 -1.18068 0
M  V30 605 C 57.0009 3.58442 -2.41129 0
M  V30 606 C 56.1359 4.84994 -2.16689 0
M  V30 607 C 55.1749 5.11939 -3.35537 0
M  V30 608 N 54.3119 6.29685 -3.10549 0
M  V30 609 H 59.1519 1.8891 -2.30472 0
M  V30 610 H 56.6889 0.923373 -1.14509 0
M  V30 611 H 58.6469 4.03479 -1.06116 0
M  V30 612 H 57.2769 3.21711 -0.264973 0
M  V30 613 H 56.3289 2.74103 -2.63764 0
M  V30 614 H 57.6409 3.74283 -3.29717 0
M  V30 615 H 56.7949 5.72135 -2.01857 0
M  V30 616 H 55.5339 4.71286 -1.25462 0
M  V30 617 H 54.5389 4.23268 -3.50891 0
M  V30 618 H 55.7639 5.27546 -4.27635 0
M  V30 619 H 53.7099 6.17306 -2.21967 0
M  V30 620 H 53.6269 6.46014 -3.92686 0
M  V30 621 H 54.8949 7.19722 -2.99367 0
M  V30 622 N 59.124 1.23083 0.984299 0
M  V30 623 C 60.087 1.00979 2.05757 0
M  V30 624 C 61.087 -0.0269573 1.60777 0
M  V30 625 O 62.277 0.212403 1.729 0
M  V30 626 C 59.409 0.527072 3.36801 0
M  V30 627 H 60.602 1.9622 2.26799 0
M  V30 628 H 58.155 1.05072 1.15714 0
M  V30 629 H 58.89 -0.429294 3.21446 0
M  V30 630 H 58.675 1.27515 3.70786 0
M  V30 631 H 60.165 0.392942 4.15747 0
M  V30 632 N 60.6021 -1.18246 1.0419 0
M  V30 633 C 61.8481 -1.88536 0.747122 0
M  V30 634 C 62.1811 -1.80223 -0.723409 0
M  V30 635 O 61.4561 -1.20337 -1.52804 0
M  V30 636 C 61.7391 -3.38968 1.21544 0
M  V30 637 C 61.5921 -3.56084 2.74816 0
M  V30 638 C 62.9111 -4.32648 0.806482 0
M  V30 639 H 60.0301 -0.684619 0.272883 0
M  V30 640 H 62.6721 -1.39113 1.29413 0
M  V30 641 H 60.8221 -3.8119 0.750081 0
M  V30 642 H 62.4941 -3.22946 3.29399 0
M  V30 643 H 60.7371 -2.98699 3.14582 0
M  V30 644 H 61.4081 -4.61639 3.02644 0
M  V30 645 H 63.8841 -3.98211 1.20695 0
M  V30 646 H 62.7601 -5.36462 1.1619 0
M  V30 647 H 63.0211 -4.41146 -0.29029 0
M  V30 648 N 62.0802 -0.821533 -1.34494 0
M  V30 649 C 63.0102 -0.257138 -2.3208 0
M  V30 650 C 63.9912 0.625645 -1.58176 0
M  V30 651 O 65.1762 0.552811 -1.86166 0
M  V30 652 C 62.3062 0.582958 -3.42372 0
M  V30 653 C 61.2602 -0.202571 -4.2752 0
M  V30 654 C 60.5862 0.760179 -5.29269 0
M  V30 655 C 61.8862 -1.40998 -5.02908 0
M  V30 656 H 63.5802 -1.07247 -2.79532 0
M  V30 657 H 61.1262 -0.517163 -1.34393 0
M  V30 658 H 63.0792 0.987972 -4.09655 0
M  V30 659 H 61.8032 1.43133 -2.93565 0
M  V30 660 H 60.4622 -0.588936 -3.61838 0
M  V30 661 H 60.1102 1.60447 -4.76724 0
M  V30 662 H 59.8102 0.238809 -5.87115 0
M  V30 663 H 61.3342 1.16308 -5.9942 0
M  V30 664 H 62.7482 -1.07905 -5.63054 0
M  V30 665 H 61.1452 -1.86689 -5.70322 0
M  V30 666 H 62.2152 -2.1889 -4.32684 0
M  V30 667 N 63.5583 1.46682 -0.576371 0
M  V30 668 C 64.5053 2.30241 0.160499 0
M  V30 669 C 65.4753 1.40233 0.890162 0
M  V30 670 O 66.6603 1.69186 0.882084 0
M  V30 671 C 63.8003 3.24578 1.1723 0
M  V30 672 C 62.9133 4.29684 0.446736 0
M  V30 673 C 62.0483 5.11154 1.44551 0
M  V30 674 C 61.0873 6.08015 0.70599 0
M  V30 675 N 60.2243 6.82376 1.65251 0
M  V30 676 H 65.0643 2.92727 -0.558127 0
M  V30 677 H 62.6013 1.44272 -0.287056 0
M  V30 678 H 64.5593 3.77711 1.77172 0
M  V30 679 H 63.1893 2.63916 1.85872 0
M  V30 680 H 62.2413 3.79458 -0.267594 0
M  V30 681 H 63.5533 4.98626 -0.131686 0
M  V30 682 H 62.7073 5.68533 2.11791 0
M  V30 683 H 61.4463 4.42158 2.05786 0
M  V30 684 H 60.4513 5.49796 0.0197725 0
M  V30 685 H 61.6763 6.79028 0.09912 0
M  V30 686 H 59.6223 6.16094 2.25308 0
M  V30 687 H 59.5393 7.47556 1.12673 0
M  V30 688 H 60.8073 7.44316 2.31546 0
M  V30 689 N 65.0364 0.313813 1.54444 0
M  V30 690 C 65.9664 -0.549454 2.26943 0
M  V30 691 C 66.9474 -1.12741 1.27372 0
M  V30 692 O 68.1324 -1.15436 1.56167 0
M  V30 693 C 65.2624 -1.71523 3.01989 0
M  V30 694 C 64.2164 -1.26703 4.08816 0
M  V30 695 C 63.5424 -2.51898 4.71647 0
M  V30 696 C 64.8424 -0.388962 5.2085 0
M  V30 697 H 66.5364 0.0552661 2.99349 0
M  V30 698 H 64.0824 0.0280207 1.43973 0
M  V30 699 H 66.0354 -2.32535 3.51433 0
M  V30 700 H 64.7594 -2.34639 2.27183 0
M  V30 701 H 63.4184 -0.679896 3.6024 0
M  V30 702 H 63.0664 -3.13356 3.93468 0
M  V30 703 H 62.7664 -2.22605 5.43802 0
M  V30 704 H 64.2904 -3.1369 5.23861 0
M  V30 705 H 65.7044 -0.905107 5.6611 0
M  V30 706 H 64.1014 -0.18924 5.99802 0
M  V30 707 H 65.1714 0.582699 4.81386 0
M  V30 708 N 66.5145 -1.57545 0.0417849 0
M  V30 709 C 67.4245 -2.14451 -0.951213 0
M  V30 710 C 68.4405 -1.09992 -1.34825 0
M  V30 711 O 69.6165 -1.42114 -1.42708 0
M  V30 712 C 66.6815 -2.67063 -2.21084 0
M  V30 713 C 65.7425 -3.86284 -1.87304 0
M  V30 714 C 64.9755 -4.36378 -3.07261 0
M  V30 715 O 65.1985 -3.85587 -4.20332 0
M  V30 716 O 64.1325 -5.28077 -2.88822 0
M  V30 717 H 67.9585 -2.99601 -0.497287 0
M  V30 718 H 65.5435 -1.48317 -0.179567 0
M  V30 719 H 67.4255 -3.00914 -2.95006 0
M  V30 720 H 66.1005 -1.84989 -2.65633 0
M  V30 721 H 65.0075 -3.57338 -1.10727 0
M  V30 722 H 66.3405 -4.6956 -1.47562 0
M  V30 723 N 67.9926 0.231505 -1.5589 0
M  V30 724 C 69.4036 0.799327 -1.68724 0
M  V30 725 C 69.7546 1.85398 -0.642022 0
M  V30 726 O 68.8796 2.1539 0.208784 0
M  V30 727 C 69.4746 1.45664 -3.05888 0
M  V30 728 C 68.0336 1.97197 -3.20609 0
M  V30 729 C 67.1806 0.828552 -2.64632 0
M  V30 730 H 70.1316 0.00702616 -1.58698 0
M  V30 731 H 70.1526 2.32517 -3.01191 0
M  V30 732 H 69.6646 0.688808 -3.81939 0
M  V30 733 H 67.7656 2.76813 -2.4941 0
M  V30 734 H 67.8786 2.15878 -4.27707 0
M  V30 735 H 66.2426 1.23321 -2.22854 0
M  V30 736 H 67.0256 0.0735544 -3.43221 0
M  V30 737 N 69.4707 1.49531 0.497807 0
M  V30 738 C 70.8817 1.52344 1.07927 0
M  V30 739 C 71.2327 0.311469 1.93712 0
M  V30 740 O 70.3577 -0.578405 2.08527 0
M  V30 741 C 70.9527 2.76062 1.96405 0
M  V30 742 C 69.5117 2.81643 2.49709 0
M  V30 743 C 68.6587 2.46299 1.27404 0
M  V30 744 H 71.6097 1.56182 0.281576 0
M  V30 745 H 71.6307 2.56405 2.81135 0
M  V30 746 H 71.1427 3.64254 1.33943 0
M  V30 747 H 69.2437 1.97739 3.15801 0
M  V30 748 H 69.3567 3.83891 2.86643 0
M  V30 749 H 67.7207 1.98148 1.60029 0
M  V30 750 H 68.5037 3.36769 0.66645 0
M  V30 751 N 70.9488 -0.749086 1.3866 0
M  V30 752 C 72.1948 -1.50959 1.36319 0
M  V30 753 C 72.5498 -1.92347 -0.0452451 0
M  V30 754 O 71.8428 -1.6289 -1.00884 0
M  V30 755 C 72.0368 -2.7712 2.25697 0
M  V30 756 C 71.8658 -2.48067 3.7509 0
M  V30 757 C 70.6358 -2.41062 4.44091 0
M  V30 758 C 72.8338 -2.14544 4.67414 0
M  V30 759 N 70.8158 -2.04331 5.78897 0
M  V30 760 C 72.1868 -1.88141 5.90765 0
M  V30 761 C 74.2418 -2.00892 4.55573 0
M  V30 762 C 72.9448 -1.49463 7.036 0
M  V30 763 C 74.9708 -1.63616 5.68317 0
M  V30 764 C 74.3328 -1.38088 6.90732 0
M  V30 765 H 70.4318 -0.551804 0.554108 0
M  V30 766 H 73.0158 -0.871886 1.74087 0
M  V30 767 H 71.1868 -3.38693 1.9011 0
M  V30 768 H 72.9188 -3.4321 2.1445 0
M  V30 769 H 69.6738 -2.57685 3.9736 0
M  V30 770 H 70.0978 -1.88598 6.502 0
M  V30 771 H 74.7398 -2.19301 3.61479 0
M  V30 772 H 72.4578 -1.29794 7.97608 0
M  V30 773 H 76.0438 -1.53678 5.61137 0
M  V30 774 H 74.9238 -1.09674 7.76493 0
M  V30 775 N 72.4269 -1.23603 -0.977757 0
M  V30 776 C 73.6759 -1.06377 -1.71368 0
M  V30 777 C 73.9889 0.399062 -1.91486 0
M  V30 778 O 75.1949 0.691312 -2.62551 0
M  V30 779 C 73.6509 -1.85512 -3.08404 0
M  V30 780 C 73.2589 -3.36141 -2.96164 0
M  V30 781 C 75.0029 -1.76783 -3.85938 0
M  V30 782 C 72.9099 -4.07659 -4.28449 0
M  V30 783 H 71.8399 -0.394452 -0.642591 0
M  V30 784 H 74.4909 -1.47594 -1.09034 0
M  V30 785 H 72.8729 -1.37103 -3.71509 0
M  V30 786 H 74.0469 -3.92056 -2.42133 0
M  V30 787 H 72.3619 -3.45712 -2.32104 0
M  V30 788 H 74.9589 -2.27526 -4.83876 0
M  V30 789 H 75.3019 -0.731116 -4.0983 0
M  V30 790 H 75.8349 -2.22818 -3.2954 0
M  V30 791 H 72.5739 -5.11648 -4.09752 0
M  V30 792 H 72.0939 -3.5653 -4.82334 0
M  V30 793 H 73.7729 -4.141 -4.97122 0
M  V30 794 N 73.905 1.17692 -1.04816 0
M  V30 795 C 74.853 2.23632 -0.63966 0
M  V30 796 C 75.847 1.6601 0.337219 0
M  V30 797 O 77.053 1.78844 0.203693 0
M  V30 798 H 73.428 0.727949 -0.188665 0
M  V30 799 H 75.399 2.55387 -1.54337 0
M  V30 800 C 74.148 3.4769 -0.0264051 0
M  V30 801 H 73.471 3.92331 -0.769164 0
M  V30 802 H 74.911 4.23418 0.222098 0
M  V30 803 C 73.37 3.13807 1.22584 0
M  V30 804 O 73.9 3.28236 2.31569 0
M  V30 805 N 72.106 2.68065 1.12202 0
M  V30 806 H 71.653 2.56525 0.235133 0
M  V30 807 H 71.611 2.45767 1.96076 0
M  V30 808 N 75.3831 0.828654 1.34056 0
M  V30 809 C 76.6291 0.42008 1.98402 0
M  V30 810 C 76.9621 -1.01564 1.65525 0
M  V30 811 O 76.2371 -1.70834 0.929831 0
M  V30 812 C 76.5201 0.62927 3.54559 0
M  V30 813 C 76.3731 2.11152 3.97159 0
M  V30 814 C 77.6921 0.0688756 4.40046 0
M  V30 815 H 74.8111 0.154104 0.720709 0
M  V30 816 H 77.4531 1.04228 1.5886 0
M  V30 817 H 75.6031 0.0996418 3.88372 0
M  V30 818 H 77.2751 2.70522 3.73651 0
M  V30 819 H 75.5181 2.59985 3.47261 0
M  V30 820 H 76.1891 2.20868 5.05887 0
M  V30 821 H 78.6651 0.521458 4.1282 0
M  V30 822 H 77.5411 0.245006 5.48353 0
M  V30 823 H 77.8021 -1.0266 4.30015 0
M  V30 824 N 76.8612 -1.46375 0.584142 0
M  V30 825 C 77.7912 -2.33103 -0.136037 0
M  V30 826 C 78.7722 -1.45431 -0.882255 0
M  V30 827 O 79.9572 -1.74246 -0.857434 0
M  V30 828 C 77.0872 -3.27731 -1.14933 0
M  V30 829 C 76.0412 -4.24855 -0.517862 0
M  V30 830 C 75.3672 -5.09001 -1.63773 0
M  V30 831 C 76.6672 -5.19439 0.545886 0
M  V30 832 H 78.3612 -2.93568 0.588086 0
M  V30 833 H 75.9072 -1.41166 0.284259 0
M  V30 834 H 77.8602 -3.87261 -1.66153 0
M  V30 835 H 76.5842 -2.65377 -1.90375 0
M  V30 836 H 75.2432 -3.6659 -0.0267361 0
M  V30 837 H 74.8912 -4.43031 -2.38185 0
M  V30 838 H 74.5912 -5.74777 -1.22085 0
M  V30 839 H 76.1152 -5.71396 -2.15266 0
M  V30 840 H 77.5292 -5.73177 0.118704 0
M  V30 841 H 75.9262 -5.93566 0.88317 0
M  V30 842 H 76.9962 -4.63285 1.43162 0
M  V30 843 N 78.3393 -0.321999 -1.54275 0
M  V30 844 C 79.2713 0.578671 -2.21775 0
M  V30 845 C 80.2843 1.08109 -1.21722 0
M  V30 846 O 81.4733 0.994938 -1.482 0
M  V30 847 C 78.5733 1.80661 -2.86731 0
M  V30 848 C 77.7463 1.44314 -4.12907 0
M  V30 849 C 76.8053 2.52845 -4.61472 0
M  V30 850 O 75.8313 2.17054 -5.2619 0
M  V30 851 N 77.0333 3.83748 -4.35566 0
M  V30 852 H 79.7983 0.000709447 -2.997 0
M  V30 853 H 77.3593 -0.145132 -1.61248 0
M  V30 854 H 79.3513 2.52655 -3.16145 0
M  V30 855 H 77.9213 2.29245 -2.12521 0
M  V30 856 H 77.1413 0.554906 -3.90275 0
M  V30 857 H 78.4293 1.17598 -4.95023 0
M  V30 858 H 77.8273 4.15625 -3.83761 0
M  V30 859 H 76.3843 4.51977 -4.69638 0
M  V30 860 N 79.8174 1.5752 -0.0501392 0
M  V30 861 C 80.7274 2.14952 0.939827 0
M  V30 862 C 81.7434 1.10706 1.34239 0
M  V30 863 O 82.9194 1.42869 1.41952 0
M  V30 864 C 79.9844 2.68232 2.19665 0
M  V30 865 C 79.0454 3.87272 1.85253 0
M  V30 866 C 78.2784 4.38002 3.04943 0
M  V30 867 O 78.5014 3.87811 4.18281 0
M  V30 868 O 77.4354 5.29602 2.86017 0
M  V30 869 H 81.2614 2.9986 0.481392 0
M  V30 870 H 78.8464 1.4841 0.171699 0
M  V30 871 H 80.7284 3.02475 2.93406 0
M  V30 872 H 79.4034 1.86395 2.64648 0
M  V30 873 H 78.3104 3.5792 1.0883 0
M  V30 874 H 79.6434 4.70336 1.4507 0
M  V30 875 N 81.2955 -0.223234 1.56011 0
M  V30 876 C 82.5725 -0.972108 1.69733 0
M  V30 877 C 82.9525 -2.02485 0.59691 0
M  V30 878 O 82.3005 -2.25037 -0.396324 0
M  V30 879 C 82.5105 -1.58407 3.10979 0
M  V30 880 C 83.8585 -2.07696 3.70334 0
M  V30 881 O 84.8825 -1.68304 3.1393 0
M  V30 882 O 83.7415 -2.80096 4.69264 0
M  V30 883 H 80.8355 -0.453993 0.691245 0
M  V30 884 H 83.3815 -0.215149 1.68331 0
M  V30 885 H 82.1535 -0.823831 3.82529 0
M  V30 886 H 81.7765 -2.40661 3.16493 0
M  V30 887 N 82.7736 -1.49793 -0.48987 0
M  V30 888 C 83.9986 -1.63836 -1.27172 0
M  V30 889 C 84.4236 -0.31402 -1.8546 0
M  V30 890 O 83.7816 0.719803 -1.66399 0
M  V30 891 C 83.8296 -2.71797 -2.36978 0
M  V30 892 O 82.9336 -2.31744 -3.41128 0
M  V30 893 H 82.2746 -0.547997 -0.37496 0
M  V30 894 H 84.8046 -1.96053 -0.585191 0
M  V30 895 H 84.8146 -2.94305 -2.82575 0
M  V30 896 H 83.4896 -3.67923 -1.93921 0
M  V30 897 H 82.0666 -2.1961 -3.01373 0
M  V30 898 N 84.2517 0.741722 -1.39055 0
M  V30 899 C 85.4977 1.50336 -1.36113 0
M  V30 900 C 85.8307 1.94148 0.0450796 0
M  V30 901 O 85.1057 1.66301 1.00868 0
M  V30 902 C 85.3887 2.74773 -2.32749 0
M  V30 903 C 85.2417 2.37023 -3.82283 0
M  V30 904 C 86.5607 3.76846 -2.27322 0
M  V30 905 H 83.6797 0.545351 -0.495743 0
M  V30 906 H 86.3217 0.848624 -1.69995 0
M  V30 907 H 84.4717 3.30639 -2.03986 0
M  V30 908 H 86.1437 1.8684 -4.21768 0
M  V30 909 H 84.3867 1.69334 -3.99385 0
M  V30 910 H 85.0577 3.26104 -4.45376 0
M  V30 911 H 87.5337 3.30548 -2.5274 0
M  V30 912 H 86.4097 4.6159 -2.97028 0
M  V30 913 H 86.6707 4.23286 -1.27599 0
M  V30 914 N 85.7298 1.2412 0.971189 0
M  V30 915 C 86.9578 1.10575 1.74874 0
M  V30 916 C 87.3728 -0.342017 1.85676 0
M  V30 917 O 86.7298 -1.23617 1.34258 0
M  V30 918 C 86.7808 1.73579 3.171 0
M  V30 919 O 86.5018 3.12695 3.06844 0
M  V30 920 C 88.0028 1.65598 4.11208 0
M  V30 921 H 85.2228 0.386504 0.548503 0
M  V30 922 H 87.7668 1.64156 1.21955 0
M  V30 923 H 85.9218 1.24009 3.67016 0
M  V30 924 H 86.3358 3.43412 3.96445 0
M  V30 925 H 87.8098 2.1437 5.08674 0
M  V30 926 H 88.2868 0.616532 4.34851 0
M  V30 927 H 88.8928 2.14578 3.67201 0
M  V30 928 N 87.2079 -1.17134 1.05439 0
M  V30 929 C 88.1379 -2.2342 0.678649 0
M  V30 930 C 89.1189 -1.66971 -0.32476 0
M  V30 931 O 90.3039 -1.93149 -0.201802 0
M  V30 932 C 87.4339 -3.47256 0.0552099 0
M  V30 933 C 86.3879 -4.16543 0.98365 0
M  V30 934 C 85.7139 -5.34231 0.223961 0
M  V30 935 C 87.0139 -4.68495 2.3089 0
M  V30 936 H 88.7079 -2.55105 1.56722 0
M  V30 937 H 86.2539 -1.2262 0.754998 0
M  V30 938 H 88.2069 -4.20828 -0.21946 0
M  V30 939 H 86.9309 -3.14846 -0.868319 0
M  V30 940 H 85.5899 -3.44887 1.24293 0
M  V30 941 H 85.2379 -4.98071 -0.702412 0
M  V30 942 H 84.9379 -5.81527 0.842627 0
M  V30 943 H 86.4619 -6.10585 -0.0433671 0
M  V30 944 H 87.8759 -5.33691 2.09396 0
M  V30 945 H 86.2729 -5.26379 2.88176 0
M  V30 946 H 87.3429 -3.85169 2.94572 0
M  V30 947 N 88.686 -0.835752 -1.33615 0
M  V30 948 C 89.914 -0.443344 -2.02094 0
M  V30 949 C 90.329 0.954522 -1.62894 0
M  V30 950 O 89.686 1.61982 -0.840723 0
M  V30 951 C 89.737 -0.550775 -3.5728 0
M  V30 952 O 89.458 -1.89356 -3.95065 0
M  V30 953 C 90.959 -0.154919 -4.43029 0
M  V30 954 H 88.179 -0.176359 -0.647409 0
M  V30 955 H 90.723 -1.12746 -1.70612 0
M  V30 956 H 88.878 0.0853997 -3.87306 0
M  V30 957 H 89.292 -1.87687 -4.89769 0
M  V30 958 H 90.766 -0.281144 -5.51284 0
M  V30 959 H 91.243 0.902863 -4.2982 0
M  V30 960 H 91.849 -0.765404 -4.18356 0
M  V30 961 N 90.1641 1.46063 -0.591896 0
M  V30 962 C 91.4041 2.04228 -0.0838014 0
M  V30 963 C 91.7681 1.45231 1.25587 0
M  V30 964 O 92.9691 1.94653 1.85375 0
M  V30 965 C 91.2401 3.57389 -0.0286282 0
M  V30 966 S 92.7991 4.3678 0.420557 0
M  V30 967 H 89.6171 0.709762 -0.0419319 0
M  V30 968 H 92.2191 1.78983 -0.786465 0
M  V30 969 H 90.9231 3.97843 -1.00743 0
M  V30 970 H 90.4541 3.87185 0.69652 0
M  V30 971 H 92.4691 4.67131 1.67341 0
M  V30 972 N 91.6422 0.330177 1.54103 0
M  V30 973 C 92.5742 -0.566902 2.22079 0
M  V30 974 C 93.5872 -1.07462 1.22294 0
M  V30 975 O 94.7762 -0.987065 1.48726 0
M  V30 976 C 91.8762 -1.79138 2.87685 0
M  V30 977 C 91.0492 -1.42123 4.13666 0
M  V30 978 C 90.1082 -2.50394 4.62806 0
M  V30 979 O 89.1342 -2.14261 5.27334 0
M  V30 980 N 90.3362 -3.81433 4.37595 0
M  V30 981 H 93.1012 0.0151844 2.99696 0
M  V30 982 H 90.6622 0.153681 1.61169 0
M  V30 983 H 92.6542 -2.50975 3.1748 0
M  V30 984 H 91.2242 -2.28115 2.13734 0
M  V30 985 H 90.4442 -0.534201 3.90564 0
M  V30 986 H 91.7322 -1.14971 4.9564 0
M  V30 987 H 91.1302 -4.13584 3.8596 0
M  V30 988 H 89.6872 -4.4948 4.72029 0
M  V30 989 N 93.1203 -1.57491 0.0584922 0
M  V30 990 C 94.3683 -1.92597 -0.612436 0
M  V30 991 C 94.6893 -0.938162 -1.70949 0
M  V30 992 O 93.9593 0.0158301 -1.95894 0
M  V30 993 H 92.5393 -0.710964 -0.229214 0
M  V30 994 H 95.2013 -1.94571 0.113218 0
M  V30 995 H 94.2973 -2.94038 -1.04633 0
M  V30 996 N 94.5984 0.214957 -1.56127 0
M  V30 997 C 95.5614 1.24997 -1.92116 0
M  V30 998 C 96.5614 1.39467 -0.800344 0
M  V30 999 O 97.7514 1.37619 -1.06802 0
M  V30 1000 C 94.8834 2.62271 -2.17777 0
M  V30 1001 H 96.0764 0.942875 -2.84693 0
M  V30 1002 H 93.6294 0.455654 -1.49511 0
M  V30 1003 H 94.3644 2.98068 -1.27773 0
M  V30 1004 H 94.1494 2.53143 -2.99434 0
M  V30 1005 H 95.6394 3.36946 -2.46693 0
M  V30 1006 N 96.0765 1.50051 0.48192 0
M  V30 1007 C 97.4925 1.37237 0.814756 0
M  V30 1008 C 97.6925 0.420109 1.97072 0
M  V30 1009 O 96.7485 -0.141246 2.52105 0
M  V30 1010 C 98.0615 2.78375 1.13701 0
M  V30 1011 C 99.6095 2.87213 1.2441 0
M  V30 1012 C 100.084 4.29161 1.59954 0
M  V30 1013 N 101.575 4.32061 1.66967 0
M  V30 1014 C 102.31 5.38879 1.95952 0
M  V30 1015 N 101.806 6.55918 2.23031 0
M  V30 1016 N 103.599 5.26312 1.97363 0
M  V30 1017 H 95.7505 2.10546 -0.28005 0
M  V30 1018 H 98.0135 0.945921 -0.0627454 0
M  V30 1019 H 97.7195 3.49845 0.360787 0
M  V30 1020 H 97.5935 3.14941 2.07586 0
M  V30 1021 H 99.9805 2.15969 2.01101 0
M  V30 1022 H 100.061 2.54204 0.285299 0
M  V30 1023 H 99.7055 5.00938 0.838067 0
M  V30 1024 H 99.6355 4.59648 2.56966 0
M  V30 1025 H 102.126 3.47661 1.48123 0
M  V30 1026 H 102.439 7.33139 2.44391 0
M  V30 1027 H 100.784 6.59112 2.20447 0
M  V30 1028 H 103.975 4.33876 1.75697 0
M  V30 1029 H 104.148 6.09649 2.19618 0
M  V30 1030 N 97.5546 -0.734337 1.39446 0
M  V30 1031 C 98.7796 -1.52866 1.40167 0
M  V30 1032 C 99.2046 -1.881 -0.00171513 0
M  V30 1033 O 98.5626 -1.51957 -0.988879 0
M  V30 1034 C 98.6106 -2.79235 2.28167 0
M  V30 1035 O 97.7146 -3.75185 1.71201 0
M  V30 1036 H 97.0556 -0.461618 0.477289 0
M  V30 1037 H 99.5856 -0.905949 1.8345 0
M  V30 1038 H 99.5956 -3.27963 2.42702 0
M  V30 1039 H 98.2706 -2.52923 3.30156 0
M  V30 1040 H 96.8476 -3.33958 1.65912 0
M  V30 1041 N 99.0327 -1.24633 -0.964593 0
M  V30 1042 C 100.444 -1.08045 -1.5226 0
M  V30 1043 C 100.795 0.347116 -1.93105 0
M  V30 1044 O 99.9197 1.23588 -1.77637 0
M  V30 1045 C 100.515 -1.95514 -2.76695 0
M  V30 1046 C 99.0737 -1.8314 -3.28841 0
M  V30 1047 C 98.2207 -1.90262 -2.01732 0
M  V30 1048 H 101.172 -1.38064 -0.782553 0
M  V30 1049 H 101.193 -1.48925 -3.50145 0
M  V30 1050 H 100.705 -2.99407 -2.46936 0
M  V30 1051 H 98.8057 -0.82092 -3.63444 0
M  V30 1052 H 98.9187 -2.67406 -3.97531 0
M  V30 1053 H 97.2827 -1.34027 -2.16584 0
M  V30 1054 H 98.0657 -2.9574 -1.74334 0
M  V30 1055 N 100.511 1.16574 -1.06058 0
M  V30 1056 C 101.421 2.2452 -0.680282 0
M  V30 1057 C 102.437 1.71348 0.302604 0
M  V30 1058 O 103.613 2.00822 0.152513 0
M  V30 1059 C 100.678 3.46629 -0.0700315 0
M  V30 1060 C 99.7388 4.14849 -1.10448 0
M  V30 1061 C 98.9718 5.31129 -0.523256 0
M  V30 1062 O 99.1948 5.66514 0.664709 0
M  V30 1063 O 98.1288 5.88526 -1.26179 0
M  V30 1064 H 101.955 2.59355 -1.58015 0
M  V30 1065 H 99.5398 1.24043 -0.832694 0
M  V30 1066 H 101.422 4.20543 0.268667 0
M  V30 1067 H 100.097 3.13573 0.803353 0
M  V30 1068 H 99.0038 3.42916 -1.49532 0
M  V30 1069 H 100.337 4.51954 -1.94931 0
M  V30 1070 N 101.989 0.842826 1.3317 0
M  V30 1071 C 103.214 0.453129 2.02389 0
M  V30 1072 C 103.639 -0.939105 1.6298 0
M  V30 1073 O 102.997 -1.61472 0.8244 0
M  V30 1074 C 103.045 0.586094 3.55805 0
M  V30 1075 O 102.149 -0.386029 4.10589 0
M  V30 1076 H 101.49 0.183664 0.638094 0
M  V30 1077 H 104.02 1.13875 1.69981 0
M  V30 1078 H 104.03 0.469209 4.05293 0
M  V30 1079 H 102.705 1.6014 3.83833 0
M  V30 1080 H 101.282 -0.226371 3.72212 0
M  V30 1081 N 103.467 -1.45747 0.599634 0
M  V30 1082 C 104.744 -1.95585 0.0240846 0
M  V30 1083 C 105.124 -1.54217 -1.44154 0
M  V30 1084 O 104.472 -0.800903 -2.14004 0
M  V30 1085 C 104.682 -3.48344 0.21385 0
M  V30 1086 C 106.03 -4.24504 0.0904902 0
M  V30 1087 O 107.054 -3.55911 0.143558 0
M  V30 1088 O 105.913 -5.46491 -0.0310766 0
M  V30 1089 H 103.007 -0.82602 -0.0402478 0
M  V30 1090 H 105.553 -1.55951 0.669139 0
M  V30 1091 H 104.325 -3.71397 1.23206 0
M  V30 1092 H 103.948 -3.9485 -0.466842 0
M  V30 1093 N 104.945 -0.338344 -1.53925 0
M  V30 1094 C 106.17 0.263987 -2.05713 0
M  V30 1095 C 106.595 1.43847 -1.21201 0
M  V30 1096 O 105.953 1.79904 -0.224535 0
M  V30 1097 C 106.001 0.662 -3.54471 0
M  V30 1098 O 105.105 1.76265 -3.72833 0
M  V30 1099 H 104.446 0.0448722 -0.662482 0
M  V30 1100 H 106.976 -0.491048 -1.9862 0
M  V30 1101 H 106.986 0.940594 -3.9701 0
M  V30 1102 H 105.661 -0.196937 -4.15433 0
M  V30 1103 H 104.238 1.48173 -3.42198 0
M  V30 1104 N 106.423 1.57458 -0.0668435 0
M  V30 1105 C 107.672 1.92477 0.602947 0
M  V30 1106 C 107.985 0.948419 1.71068 0
M  V30 1107 O 109.191 1.19124 2.43971 0
M  V30 1108 C 107.647 3.41903 1.12383 0
M  V30 1109 C 107.255 4.47975 0.04737 0
M  V30 1110 C 108.999 3.85931 1.76797 0
M  V30 1111 C 106.906 5.88529 0.582022 0
M  V30 1112 H 105.836 0.718387 0.22899 0
M  V30 1113 H 108.487 1.82978 -0.138276 0
M  V30 1114 H 106.869 3.46459 1.91787 0
M  V30 1115 H 108.043 4.55029 -0.726978 0
M  V30 1116 H 106.358 4.13384 -0.500243 0
M  V30 1117 H 108.955 4.88322 2.17821 0
M  V30 1118 H 109.298 3.23029 2.62599 0
M  V30 1119 H 109.831 3.83958 1.04024 0
M  V30 1120 H 106.57 6.55065 -0.238721 0
M  V30 1121 H 106.09 5.85004 1.324 0
M  V30 1122 H 107.769 6.38258 1.05999 0
M  V30 1123 N 107.901 -0.206675 1.56239 0
M  V30 1124 C 108.833 -1.27997 1.9013 0
M  V30 1125 C 109.846 -1.42299 0.790883 0
M  V30 1126 O 111.035 -1.42931 1.06925 0
M  V30 1127 C 108.135 -2.65368 2.10792 0
M  V30 1128 C 107.308 -2.72824 3.41886 0
M  V30 1129 C 106.367 -3.9131 3.51799 0
M  V30 1130 O 105.393 -3.78953 4.24716 0
M  V30 1131 N 106.595 -5.06265 2.84035 0
M  V30 1132 H 109.36 -0.992444 2.82791 0
M  V30 1133 H 106.921 -0.396652 1.56966 0
M  V30 1134 H 108.913 -3.43039 2.14724 0
M  V30 1135 H 107.483 -2.86657 1.24685 0
M  V30 1136 H 106.703 -1.81515 3.49923 0
M  V30 1137 H 107.991 -2.74786 4.28217 0
M  V30 1138 H 107.389 -5.19203 2.246 0
M  V30 1139 H 105.946 -5.81925 2.93609 0
M  V30 1140 N 109.379 -1.50304 -0.473955 0
M  V30 1141 C 110.625 -1.62358 -1.22521 0
M  V30 1142 C 110.98 -0.318555 -1.89745 0
M  V30 1143 O 110.273 0.683315 -1.79001 0
M  V30 1144 C 110.467 -2.73938 -2.29549 0
M  V30 1145 C 110.296 -4.15165 -1.72825 0
M  V30 1146 C 109.066 -4.81604 -1.52924 0
M  V30 1147 C 111.264 -4.99503 -1.22481 0
M  V30 1148 N 109.246 -6.07056 -0.91413 0
M  V30 1149 C 110.617 -6.15655 -0.732743 0
M  V30 1150 C 112.672 -4.85299 -1.11308 0
M  V30 1151 C 111.375 -7.19164 -0.139976 0
M  V30 1152 C 113.401 -5.88982 -0.534258 0
M  V30 1153 C 112.763 -7.0438 -0.0525562 0
M  V30 1154 H 108.862 -0.648286 -0.437321 0
M  V30 1155 H 111.446 -1.87413 -0.527692 0
M  V30 1156 H 109.617 -2.50611 -2.9673 0
M  V30 1157 H 111.349 -2.75366 -2.96573 0
M  V30 1158 H 108.104 -4.3885 -1.78067 0
M  V30 1159 H 108.528 -6.74108 -0.625071 0
M  V30 1160 H 113.17 -3.96369 -1.47144 0
M  V30 1161 H 110.888 -8.07771 0.230591 0
M  V30 1162 H 114.474 -5.80055 -0.450219 0
M  V30 1163 H 113.354 -7.83238 0.388324 0
M  V30 1164 N 110.857 0.726932 -1.39834 0
M  V30 1165 C 112.104 1.48664 -1.37496 0
M  V30 1166 C 112.432 1.94482 0.0264678 0
M  V30 1167 O 111.687 1.67692 1.00886 0
M  V30 1168 C 111.986 2.73495 -2.30077 0
M  V30 1169 C 111.652 2.46502 -3.77555 0
M  V30 1170 C 110.314 2.3885 -4.17737 0
M  V30 1171 C 112.666 2.23604 -4.70798 0
M  V30 1172 C 109.994 2.06352 -5.49214 0
M  V30 1173 C 112.346 1.92622 -6.02561 0
M  V30 1174 C 111.01 1.83444 -6.41798 0
M  V30 1175 H 110.28 0.544001 -0.503135 0
M  V30 1176 H 112.927 0.833657 -1.72402 0
M  V30 1177 H 111.232 3.43575 -1.88317 0
M  V30 1178 H 112.929 3.31549 -2.25558 0
M  V30 1179 H 109.519 2.5334 -3.45712 0
M  V30 1180 H 113.703 2.28479 -4.40581 0
M  V30 1181 H 108.959 1.97776 -5.78528 0
M  V30 1182 H 113.133 1.73914 -6.74334 0
M  V30 1183 H 110.76 1.58029 -7.43593 0
M  V30 1184 N 112.336 1.25143 0.95797 0
M  V30 1185 C 113.286 1.01924 2.0395 0
M  V30 1186 C 114.27 -0.0427175 1.60843 0
M  V30 1187 O 115.462 0.17221 1.7616 0
M  V30 1188 C 112.591 0.636373 3.3735 0
M  V30 1189 C 111.677 1.73492 3.8699 0
M  V30 1190 N 112.068 2.96945 4.0946 0
M  V30 1191 C 110.366 1.61467 4.15746 0
M  V30 1192 C 111.067 3.68228 4.50315 0
M  V30 1193 N 110.043 2.95833 4.56053 0
M  V30 1194 H 113.845 1.95653 2.19311 0
M  V30 1195 H 111.359 1.15413 1.14253 0
M  V30 1196 H 113.356 0.451233 4.14451 0
M  V30 1197 H 112.016 -0.293621 3.2337 0
M  V30 1198 H 113.027 3.33025 3.96629 0
M  V30 1199 H 109.704 0.753394 4.10646 0
M  V30 1200 H 111.094 4.74178 4.76031 0
M  V30 1201 N 113.814 -1.1601 1.06675 0
M  V30 1202 C 114.762 -2.22586 0.675157 0
M  V30 1203 C 115.756 -1.66525 -0.310766 0
M  V30 1204 O 116.962 -1.79145 -0.175215 0
M  V30 1205 H 113.337 -0.724855 0.200223 0
M  V30 1206 H 115.308 -2.52899 1.58381 0
M  V30 1207 C 114.057 -3.47604 0.0817162 0
M  V30 1208 H 113.38 -3.91058 0.831484 0
M  V30 1209 H 114.82 -4.23718 -0.154708 0
M  V30 1210 C 113.279 -3.15718 -1.17576 0
M  V30 1211 O 113.809 -3.31878 -2.26318 0
M  V30 1212 N 112.015 -2.69816 -1.07923 0
M  V30 1213 H 111.562 -2.56866 -0.194293 0
M  V30 1214 H 111.52 -2.48855 -1.92141 0
M  V30 1215 N 115.292 -0.849877 -1.32721 0
M  V30 1216 C 116.54 -0.450032 -1.97026 0
M  V30 1217 C 116.861 0.996604 -1.67609 0
M  V30 1218 O 116.131 1.6958 -0.980786 0
M  V30 1219 H 114.711 -0.163426 -0.728904 0
M  V30 1220 H 117.373 -1.08526 -1.6189 0
M  V30 1221 H 116.469 -0.591146 -3.0645 0
M  V30 1222 N 116.77 1.45427 -0.607355 0
M  V30 1223 C 117.718 2.32269 0.12411 0
M  V30 1224 C 118.712 1.45955 0.859854 0
M  V30 1225 O 119.918 1.6244 0.775447 0
M  V30 1226 H 116.293 0.749691 0.0588839 0
M  V30 1227 H 118.264 2.91743 -0.626762 0
M  V30 1228 C 117.013 3.29567 1.1082 0
M  V30 1229 H 116.336 3.95978 0.551492 0
M  V30 1230 H 117.776 3.93061 1.58995 0
M  V30 1231 C 116.235 2.56722 2.18164 0
M  V30 1232 O 116.765 2.34842 3.25902 0
M  V30 1233 N 114.971 2.16861 1.93442 0
M  V30 1234 H 114.518 2.34855 1.05834 0
M  V30 1235 H 114.476 1.68444 2.65469 0
M  V30 1236 N 118.248 0.346503 1.53744 0
M  V30 1237 C 119.178 -0.501193 2.28058 0
M  V30 1238 C 120.159 -1.10014 1.29734 0
M  V30 1239 O 121.344 -1.12097 1.58581 0
M  V30 1240 C 118.474 -1.65078 3.05559 0
M  V30 1241 C 117.428 -1.18003 4.11411 0
M  V30 1242 C 116.754 -2.41837 4.76884 0
M  V30 1243 C 118.054 -0.278394 5.21558 0
M  V30 1244 H 119.748 0.11875 2.99164 0
M  V30 1245 H 117.294 0.0585531 1.43881 0
M  V30 1246 H 119.247 -2.25028 3.56287 0
M  V30 1247 H 117.971 -2.29767 2.32109 0
M  V30 1248 H 116.63 -0.603331 3.61601 0
M  V30 1249 H 116.278 -3.0494 4.00026 0
M  V30 1250 H 115.978 -2.1102 5.48402 0
M  V30 1251 H 117.502 -3.02508 5.30397 0
M  V30 1252 H 118.916 -0.784823 5.67903 0
M  V30 1253 H 117.313 -0.0619707 6.00068 0
M  V30 1254 H 118.383 0.684677 4.80042 0
M  V30 1255 N 119.726 -1.57421 0.075193 0
M  V30 1256 C 120.975 -1.92794 -0.592731 0
M  V30 1257 C 121.288 -0.957478 -1.70563 0
M  V30 1258 O 122.494 -1.20417 -2.43335 0
M  V30 1259 C 120.95 -3.42495 -1.10569 0
M  V30 1260 C 120.558 -4.47994 -0.0236121 0
M  V30 1261 C 122.302 -3.86864 -1.74748 0
M  V30 1262 C 120.209 -5.88829 -0.550803 0
M  V30 1263 H 119.139 -0.719591 -0.225177 0
M  V30 1264 H 121.79 -1.82902 0.147978 0
M  V30 1265 H 120.172 -3.47471 -1.89947 0
M  V30 1266 H 121.346 -4.54637 0.751099 0
M  V30 1267 H 119.661 -4.13113 0.522159 0
M  V30 1268 H 122.258 -4.8947 -2.15229 0
M  V30 1269 H 122.601 -3.24417 -2.60882 0
M  V30 1270 H 123.134 -3.84504 -1.01986 0
M  V30 1271 H 119.873 -6.54929 0.273457 0
M  V30 1272 H 119.393 -5.85698 -1.29296 0
M  V30 1273 H 121.072 -6.38811 -1.02613 0
M  V30 1274 N 121.204 0.198386 -1.56346 0
M  V30 1275 C 122.615 0.763358 -1.70381 0
M  V30 1276 C 122.966 1.83995 -0.681203 0
M  V30 1277 O 122.091 2.15785 0.16305 0
M  V30 1278 C 122.686 1.39143 -3.08909 0
M  V30 1279 C 121.245 1.90352 -3.2472 0
M  V30 1280 C 120.392 0.772233 -2.6633 0
M  V30 1281 H 123.343 -0.0266377 -1.58678 0
M  V30 1282 H 123.364 2.26076 -3.06055 0
M  V30 1283 H 122.876 0.607638 -3.83314 0
M  V30 1284 H 120.977 2.71461 -2.55225 0
M  V30 1285 H 121.09 2.06757 -4.3219 0
M  V30 1286 H 119.454 1.18566 -2.2542 0
M  V30 1287 H 120.237 0.00073556 -3.433 0
M  V30 1288 N 122.682 1.50554 0.465978 0
M  V30 1289 C 123.91 1.65563 1.24083 0
M  V30 1290 C 124.325 0.341051 1.85694 0
M  V30 1291 O 123.682 -0.677543 1.69457 0
M  V30 1292 C 123.733 2.75051 2.34583 0
M  V30 1293 O 123.454 4.01413 1.75497 0
M  V30 1294 C 124.955 3.01078 3.25372 0
M  V30 1295 H 122.175 0.55638 0.375077 0
M  V30 1296 H 124.719 1.96807 0.555624 0
M  V30 1297 H 122.874 2.46486 2.9887 0
M  V30 1298 H 123.288 4.62002 2.48303 0
M  V30 1299 H 124.762 3.81339 3.99105 0
M  V30 1300 H 125.239 2.12349 3.84453 0
M  V30 1301 H 125.845 3.31194 2.66816 0
M  V30 1302 N 124.16 -0.719506 1.40217 0
M  V30 1303 C 125.11 -1.8251 1.36653 0
M  V30 1304 C 126.094 -1.59028 0.244732 0
M  V30 1305 O 127.286 -1.70268 0.483524 0
M  V30 1306 C 124.415 -3.20599 1.22763 0
M  V30 1307 C 123.501 -3.49858 2.39708 0
M  V30 1308 N 123.892 -3.49957 3.6519 0
M  V30 1309 C 122.19 -3.80297 2.33002 0
M  V30 1310 C 122.891 -3.77449 4.42614 0
M  V30 1311 N 121.867 -3.96002 3.72402 0
M  V30 1312 H 125.669 -1.80914 2.31619 0
M  V30 1313 H 123.183 -0.918455 1.33933 0
M  V30 1314 H 125.18 -3.99766 1.18292 0
M  V30 1315 H 123.84 -3.23424 0.287614 0
M  V30 1316 H 124.851 -3.309 3.98404 0
M  V30 1317 H 121.528 -3.90635 1.47346 0
M  V30 1318 H 122.918 -3.83863 5.51451 0
M  V30 1319 N 125.638 -1.25649 -0.95132 0
M  V30 1320 C 126.866 -1.13343 -1.73092 0
M  V30 1321 C 127.281 0.312434 -1.86197 0
M  V30 1322 O 126.638 1.21465 -1.36207 0
M  V30 1323 C 126.689 -1.78602 -3.14299 0
M  V30 1324 O 126.41 -3.17537 -3.01831 0
M  V30 1325 C 127.911 -1.72119 -4.08522 0
M  V30 1326 H 125.131 -0.395181 -0.542285 0
M  V30 1327 H 127.675 -1.66076 -1.19328 0
M  V30 1328 H 125.83 -1.29832 -3.64996 0
M  V30 1329 H 126.244 -3.49676 -3.90931 0
M  V30 1330 H 127.718 -2.22435 -5.052 0
M  V30 1331 H 128.195 -0.685635 -4.33815 0
M  V30 1332 H 128.801 -2.20393 -3.63741 0
M  V30 1333 N 127.117 1.15442 -1.07289 0
M  V30 1334 C 128.049 2.19773 -0.650585 0
M  V30 1335 C 129.062 1.60076 0.296572 0
M  V30 1336 O 130.251 1.78293 0.0859905 0
M  V30 1337 C 127.351 3.38838 0.0650398 0
M  V30 1338 C 126.524 4.2808 -0.898141 0
M  V30 1339 C 125.583 5.2574 -0.219926 0
M  V30 1340 O 124.609 5.62654 -0.860773 0
M  V30 1341 N 125.811 5.71205 1.03466 0
M  V30 1342 H 128.576 2.56622 -1.54808 0
M  V30 1343 H 126.137 1.30551 -0.957494 0
M  V30 1344 H 128.129 4.01222 0.529415 0
M  V30 1345 H 126.699 3.00409 0.864466 0
M  V30 1346 H 125.919 3.62804 -1.54165 0
M  V30 1347 H 127.207 4.84577 -1.5512 0
M  V30 1348 H 126.605 5.43325 1.57526 0
M  V30 1349 H 125.162 6.35633 1.44272 0
M  V30 1350 N 128.595 0.856903 1.32268 0
M  V30 1351 C 130.006 0.515711 1.79436 0
M  V30 1352 C 130.357 -0.966586 1.70738 0
M  V30 1353 O 129.482 -1.75409 1.26731 0
M  V30 1354 C 130.077 0.929335 3.25805 0
M  V30 1355 C 128.636 0.640006 3.70919 0
M  V30 1356 C 127.783 1.12784 2.53328 0
M  V30 1357 H 130.734 1.04389 1.19535 0
M  V30 1358 H 130.755 0.246633 3.797 0
M  V30 1359 H 130.267 2.00821 3.32103 0
M  V30 1360 H 128.368 -0.428051 3.70133 0
M  V30 1361 H 128.481 1.20788 4.63624 0
M  V30 1362 H 126.845 0.548033 2.48734 0
M  V30 1363 H 127.628 2.21387 2.62379 0
M  V30 1364 N 130.073 -1.45103 0.615059 0
M  V30 1365 C 131.298 -2.07064 0.117988 0
M  V30 1366 C 131.723 -1.4554 -1.19163 0
M  V30 1367 O 131.081 -0.550855 -1.72729 0
M  V30 1368 C 131.129 -3.606 -0.000288387 0
M  V30 1369 O 130.233 -3.98847 -1.04856 0
M  V30 1370 H 129.574 -0.659467 0.0774581 0
M  V30 1371 H 132.104 -1.86236 0.847186 0
M  V30 1372 H 132.114 -4.07529 -0.196091 0
M  V30 1373 H 130.789 -4.04765 0.955932 0
M  V30 1374 H 129.366 -3.63577 -0.828619 0
M  V30 1375 N 131.551 -0.354651 -1.53558 0
M  V30 1376 C 132.781 0.239167 -2.05211 0
M  V30 1377 C 133.189 1.43879 -1.22863 0
M  V30 1378 O 132.532 1.81857 -0.259565 0
M  V30 1379 C 132.594 0.707251 -3.52474 0
M  V30 1380 C 132.258 -0.374212 -4.55465 0
M  V30 1381 C 133.255 -1.22054 -5.0537 0
M  V30 1382 C 130.94 -0.531323 -4.99482 0
M  V30 1383 C 132.934 -2.20942 -5.97882 0
M  V30 1384 C 130.621 -1.52358 -5.91802 0
M  V30 1385 C 131.619 -2.36108 -6.40892 0
M  V30 1386 O 131.307 -3.33643 -7.31394 0
M  V30 1387 H 131.039 0.0479716 -0.674296 0
M  V30 1388 H 133.593 -0.508121 -1.99016 0
M  V30 1389 H 131.823 1.50596 -3.56171 0
M  V30 1390 H 133.512 1.22285 -3.87042 0
M  V30 1391 H 134.278 -1.1103 -4.7212 0
M  V30 1392 H 130.157 0.110738 -4.60867 0
M  V30 1393 H 133.701 -2.86348 -6.36121 0
M  V30 1394 H 129.598 -1.63434 -6.24467 0
M  V30 1395 H 130.366 -3.29244 -7.4936 0
M  V30 1396 N 133.029 1.57378 -0.0835403 0
M  V30 1397 C 134.445 1.57246 0.273109 0
M  V30 1398 C 134.645 1.09385 1.69225 0
M  V30 1399 O 133.701 0.765051 2.40631 0
M  V30 1400 C 135.014 3.00614 0.0720628 0
M  V30 1401 C 136.562 3.12684 0.1407 0
M  V30 1402 C 137.037 4.57989 -0.0322094 0
M  V30 1403 N 138.528 4.63194 0.0230085 0
M  V30 1404 C 139.263 5.73335 -0.0861941 0
M  V30 1405 N 138.759 6.9235 -0.24958 0
M  V30 1406 N 140.552 5.62093 -0.0282886 0
M  V30 1407 H 132.703 1.86801 -1.0109 0
M  V30 1408 H 134.966 0.861687 -0.395222 0
M  V30 1409 H 134.672 3.39786 -0.907662 0
M  V30 1410 H 134.546 3.68193 0.81936 0
M  V30 1411 H 136.933 2.73391 1.11092 0
M  V30 1412 H 137.014 2.47719 -0.637896 0
M  V30 1413 H 136.658 4.97973 -0.999247 0
M  V30 1414 H 136.588 5.21 0.765937 0
M  V30 1415 H 139.079 3.77613 0.14722 0
M  V30 1416 H 139.392 7.72117 -0.324733 0
M  V30 1417 H 137.737 6.94415 -0.285097 0
M  V30 1418 H 140.928 4.67997 0.0981408 0
M  V30 1419 H 141.101 6.47895 -0.116845 0
M  V30 1420 N 134.507 -0.190092 1.56449 0
M  V30 1421 C 135.754 -0.909705 1.80916 0
M  V30 1422 C 136.082 -1.83047 0.657583 0
M  V30 1423 O 135.337 -1.92428 -0.356356 0
M  V30 1424 C 135.636 -1.75382 3.1141 0
M  V30 1425 C 135.302 -0.983606 4.40041 0
M  V30 1426 C 133.964 -0.770967 4.74984 0
M  V30 1427 C 136.316 -0.442024 5.19322 0
M  V30 1428 C 133.644 -0.0053448 5.867 0
M  V30 1429 C 135.996 0.310412 6.31838 0
M  V30 1430 C 134.66 0.534023 6.6536 0
M  V30 1431 H 133.93 -0.332885 0.662019 0
M  V30 1432 H 136.577 -0.175762 1.90692 0
M  V30 1433 H 134.882 -2.55659 2.96893 0
M  V30 1434 H 136.579 -2.31331 3.27547 0
M  V30 1435 H 133.169 -1.15936 4.12622 0
M  V30 1436 H 137.353 -0.593693 4.92736 0
M  V30 1437 H 132.609 0.177825 6.11141 0
M  V30 1438 H 136.783 0.737419 6.92485 0
M  V30 1439 H 134.41 1.12918 7.51767 0
M  V30 1440 N 135.985 -1.50799 -0.457987 0
M  V30 1441 C 136.932 -1.70617 -1.5543 0
M  V30 1442 C 137.902 -0.547562 -1.56815 0
M  V30 1443 O 139.087 -0.779647 -1.74144 0
M  V30 1444 C 136.227 -1.81831 -2.93311 0
M  V30 1445 C 135.34 -3.09278 -3.01615 0
M  V30 1446 C 134.475 -3.11209 -4.30491 0
M  V30 1447 C 133.514 -4.33055 -4.32585 0
M  V30 1448 N 132.651 -4.32652 -5.52952 0
M  V30 1449 H 137.491 -2.64207 -1.37836 0
M  V30 1450 H 135.028 -1.30959 -0.669937 0
M  V30 1451 H 136.986 -1.86314 -3.73287 0
M  V30 1452 H 135.616 -0.916685 -3.0951 0
M  V30 1453 H 134.668 -3.14203 -2.1443 0
M  V30 1454 H 135.98 -3.99233 -2.99022 0
M  V30 1455 H 135.134 -3.14494 -5.18824 0
M  V30 1456 H 133.873 -2.19106 -4.35711 0
M  V30 1457 H 132.878 -4.29969 -3.42647 0
M  V30 1458 H 134.103 -5.264 -4.29046 0
M  V30 1459 H 132.049 -3.43409 -5.58933 0
M  V30 1460 H 131.966 -5.16392 -5.52155 0
M  V30 1461 H 133.234 -4.40101 -6.43375 0
M  V30 1462 N 137.463 0.71206 -1.40597 0
M  V30 1463 C 138.426 1.80785 -1.40888 0
M  V30 1464 C 139.426 1.57937 -0.302103 0
M  V30 1465 O 140.616 1.64913 -0.561182 0
M  V30 1466 C 137.748 3.18927 -1.20409 0
M  V30 1467 H 138.941 1.81924 -2.38419 0
M  V30 1468 H 136.494 0.91805 -1.26497 0
M  V30 1469 H 137.229 3.23436 -0.236522 0
M  V30 1470 H 137.014 3.36911 -2.00582 0
M  V30 1471 H 138.504 3.98949 -1.23408 0
M  V30 1472 N 138.941 1.26152 0.944643 0
M  V30 1473 C 139.889 1.07215 2.06417 0
M  V30 1474 C 140.883 9.2007e-05 1.694 0
M  V30 1475 O 142.089 0.1565 1.79318 0
M  V30 1476 H 138.464 0.329837 0.675805 0
M  V30 1477 H 140.435 2.02099 2.19541 0
M  V30 1478 C 139.184 0.718197 3.40202 0
M  V30 1479 H 138.507 1.53497 3.69159 0
M  V30 1480 H 139.947 0.625459 4.19361 0
M  V30 1481 C 138.406 -0.576435 3.31932 0
M  V30 1482 O 138.936 -1.61574 3.67773 0
M  V30 1483 N 137.142 -0.565781 2.85039 0
M  V30 1484 H 136.689 0.280367 2.5607 0
M  V30 1485 H 136.647 -1.43213 2.79888 0
M  V30 1486 N 140.419 -1.14872 1.07899 0
M  V30 1487 C 141.367 -2.21857 0.698727 0
M  V30 1488 C 142.361 -1.66845 -0.293086 0
M  V30 1489 O 143.567 -1.79321 -0.156204 0
M  V30 1490 H 139.942 -0.722691 0.207899 0
M  V30 1491 H 141.913 -2.51205 1.61054 0
M  V30 1492 C 140.662 -3.47498 0.11858 0
M  V30 1493 H 139.985 -3.90154 0.872914 0
M  V30 1494 H 141.425 -4.23858 -0.109759 0
M  V30 1495 C 139.884 -3.16947 -1.1422 0
M  V30 1496 O 140.414 -3.3426 -2.22785 0
M  V30 1497 N 138.62 -2.70946 -1.05055 0
M  V30 1498 H 138.167 -2.57058 -0.167038 0
M  V30 1499 H 138.125 -2.50879 -1.89491 0
M  V30 1500 N 141.898 -0.863906 -1.31812 0
M  V30 1501 C 142.846 -0.30422 -2.30602 0
M  V30 1502 C 143.84 0.577419 -1.59255 0
M  V30 1503 O 145.046 0.464194 -1.73912 0
M  V30 1504 H 141.421 -0.0796877 -0.747766 0
M  V30 1505 H 143.392 -1.15148 -2.75288 0
M  V30 1506 C 142.141 0.484617 -3.44306 0
M  V30 1507 H 141.464 -0.18451 -3.99374 0
M  V30 1508 H 142.904 0.841664 -4.15562 0
M  V30 1509 C 141.363 1.6735 -2.92396 0
M  V30 1510 O 141.893 2.77273 -2.90659 0
M  V30 1511 N 140.099 1.50362 -2.48676 0
M  V30 1512 H 139.646 0.609402 -2.50288 0
M  V30 1513 H 139.604 2.30051 -2.14299 0
M  V30 1514 N 143.376 1.44774 -0.622745 0
M  V30 1515 C 144.653 1.95522 -0.0551974 0
M  V30 1516 C 145.033 1.5649 1.41683 0
M  V30 1517 O 144.381 0.834848 2.12703 0
M  V30 1518 C 144.591 3.4796 -0.269242 0
M  V30 1519 C 145.939 4.24306 -0.158014 0
M  V30 1520 O 146.963 3.55637 -0.200162 0
M  V30 1521 O 145.822 5.46471 -0.0558693 0
M  V30 1522 H 142.916 0.826556 0.0271015 0
M  V30 1523 H 145.462 1.54866 -0.693864 0
M  V30 1524 H 144.234 3.6939 -1.29099 0
M  V30 1525 H 143.857 3.95543 0.403966 0
M  V30 1526 N 144.854 0.36279 1.53368 0
M  V30 1527 C 146.079 -0.231226 2.06107 0
M  V30 1528 C 146.504 -1.419 1.23474 0
M  V30 1529 O 145.862 -1.79524 0.253128 0
M  V30 1530 C 145.91 -0.605523 3.5548 0
M  V30 1531 O 145.014 -1.70312 3.7559 0
M  V30 1532 H 144.355 -0.034327 0.663112 0
M  V30 1533 H 146.885 0.522584 1.97814 0
M  V30 1534 H 146.895 -0.877314 3.98456 0
M  V30 1535 H 145.57 0.263004 4.15068 0
M  V30 1536 H 144.147 -1.4271 3.44512 0
M  V30 1537 N 146.332 -1.57332 0.0918853 0
M  V30 1538 C 147.58 -1.93853 -0.571446 0
M  V30 1539 C 147.901 -0.974212 -1.6892 0
M  V30 1540 O 147.171 -0.0257254 -1.95883 0
M  V30 1541 H 145.751 -0.715666 -0.214082 0
M  V30 1542 H 148.413 -1.94287 0.154464 0
M  V30 1543 H 147.509 -2.96191 -0.983729 0
M  V30 1544 N 147.81 0.181792 -1.56548 0
M  V30 1545 C 148.72 1.24538 -1.98815 0
M  V30 1546 C 149.736 1.49045 -0.897861 0
M  V30 1547 O 150.912 1.61399 -1.20467 0
M  V30 1548 C 147.977 2.56683 -2.33055 0
M  V30 1549 C 147.038 2.40131 -3.55859 0
M  V30 1550 C 146.271 3.65975 -3.88456 0
M  V30 1551 O 146.494 4.70711 -3.22161 0
M  V30 1552 O 145.428 3.6071 -4.81842 0
M  V30 1553 H 149.254 0.916647 -2.89536 0
M  V30 1554 H 146.839 0.387842 -1.44278 0
M  V30 1555 H 148.721 3.34655 -2.56094 0
M  V30 1556 H 147.396 2.89157 -1.45498 0
M  V30 1557 H 146.303 1.60226 -3.38051 0
M  V30 1558 H 147.636 2.12585 -4.43924 0
M  V30 1559 N 149.288 1.51039 0.449983 0
M  V30 1560 C 150.518 1.66627 1.22143 0
M  V30 1561 C 150.926 0.357776 1.85786 0
M  V30 1562 O 150.269 -0.672424 1.70951 0
M  V30 1563 C 150.331 2.71562 2.35573 0
M  V30 1564 C 149.995 4.14526 1.92399 0
M  V30 1565 C 150.992 4.99717 1.43453 0
M  V30 1566 C 148.677 4.60559 2.00475 0
M  V30 1567 C 150.671 6.28998 1.03155 0
M  V30 1568 C 148.358 5.8984 1.59788 0
M  V30 1569 C 149.356 6.73886 1.11208 0
M  V30 1570 O 149.044 8.0075 0.710935 0
M  V30 1571 H 148.776 0.562635 0.374724 0
M  V30 1572 H 151.33 1.98146 0.541036 0
M  V30 1573 H 149.56 2.3533 3.06849 0
M  V30 1574 H 151.249 2.76156 2.97478 0
M  V30 1575 H 152.015 4.65361 1.36618 0
M  V30 1576 H 147.894 3.95273 2.37235 0
M  V30 1577 H 151.438 6.9455 0.651663 0
M  V30 1578 H 147.335 6.23713 1.66289 0
M  V30 1579 H 148.103 8.142 0.837913 0
M  V30 1580 N 150.766 -0.704594 1.40972 0
M  V30 1581 C 151.994 -1.49354 1.43182 0
M  V30 1582 C 152.409 -1.88768 0.0345508 0
M  V30 1583 O 151.766 -1.56184 -0.944081 0
M  V30 1584 C 151.817 -2.76187 2.33244 0
M  V30 1585 O 151.538 -2.38436 3.67532 0
M  V30 1586 C 153.039 -3.7 2.44162 0
M  V30 1587 H 150.259 -0.460559 0.487982 0
M  V30 1588 H 152.803 -0.868261 1.85153 0
M  V30 1589 H 150.958 -3.34974 1.94606 0
M  V30 1590 H 151.372 -3.20126 4.15475 0
M  V30 1591 H 152.846 -4.55803 3.11364 0
M  V30 1592 H 153.323 -4.13867 1.47006 0
M  V30 1593 H 153.929 -3.17121 2.83398 0
M  V30 1594 N 152.244 -1.26651 -0.937939 0
M  V30 1595 C 153.484 -1.13611 -1.69917 0
M  V30 1596 C 153.848 0.314687 -1.89404 0
M  V30 1597 O 155.049 0.567285 -2.62746 0
M  V30 1598 C 153.32 -1.88742 -3.03498 0
M  V30 1599 S 154.879 -1.91794 -3.94665 0
M  V30 1600 H 151.697 -0.405767 -0.583844 0
M  V30 1601 H 154.299 -1.60416 -1.11745 0
M  V30 1602 H 153.003 -2.9336 -2.86999 0
M  V30 1603 H 152.534 -1.42391 -3.66727 0
M  V30 1604 H 154.549 -1.00698 -4.85875 0
M  V30 1605 N 153.722 1.14298 -1.08507 0
M  V30 1606 C 154.654 2.1907 -0.673859 0
M  V30 1607 C 155.667 1.60381 0.279577 0
M  V30 1608 O 156.856 1.78374 0.0670754 0
M  V30 1609 C 153.956 3.38888 0.0290979 0
M  V30 1610 C 153.129 4.27103 -0.943494 0
M  V30 1611 C 152.188 5.25477 -0.275676 0
M  V30 1612 O 151.214 5.61709 -0.920401 0
M  V30 1613 N 152.416 5.7227 0.974013 0
M  V30 1614 H 155.181 2.54965 -1.57521 0
M  V30 1615 H 152.742 1.29528 -0.971287 0
M  V30 1616 H 154.734 4.01761 0.48683 0
M  V30 1617 H 153.304 3.01309 0.832555 0
M  V30 1618 H 152.524 3.61149 -1.58004 0
M  V30 1619 H 153.812 4.82905 -1.60251 0
M  V30 1620 H 153.21 5.44965 1.51755 0
M  V30 1621 H 151.767 6.37127 1.37522 0
M  V30 1622 N 155.201 0.870884 1.31352 0
M  V30 1623 C 156.429 0.49677 2.00848 0
M  V30 1624 C 156.844 -0.910998 1.65367 0
M  V30 1625 O 156.201 -1.59696 0.883374 0
M  V30 1626 C 156.252 0.645308 3.55694 0
M  V30 1627 O 155.973 1.99764 3.89905 0
M  V30 1628 C 157.474 0.272326 4.42463 0
M  V30 1629 H 154.694 0.193462 0.642506 0
M  V30 1630 H 157.238 1.1723 1.67563 0
M  V30 1631 H 155.393 0.0173176 3.87396 0
M  V30 1632 H 155.807 2.00607 4.84621 0
M  V30 1633 H 157.281 0.427208 5.50344 0
M  V30 1634 H 157.758 -0.788587 4.32062 0
M  V30 1635 H 158.364 0.876054 4.1618 0
M  V30 1636 N 156.679 -1.44442 0.630414 0
M  V30 1637 C 157.927 -2.01653 0.134351 0
M  V30 1638 C 158.248 -1.49836 -1.24796 0
M  V30 1639 O 157.518 -0.701684 -1.82902 0
M  V30 1640 H 156.098 -0.74554 0.0466769 0
M  V30 1641 H 158.76 -1.76952 0.816955 0
M  V30 1642 H 157.856 -3.11935 0.101498 0
M  V30 1643 N 158.157 -0.370918 -1.53173 0
M  V30 1644 C 159.089 0.507823 -2.23503 0
M  V30 1645 C 160.102 1.04182 -1.251 0
M  V30 1646 O 161.291 0.947286 -1.5129 0
M  V30 1647 C 158.391 1.71447 -2.92334 0
M  V30 1648 C 157.564 1.31105 -4.17289 0
M  V30 1649 C 156.623 2.38035 -4.69282 0
M  V30 1650 O 155.649 2.00204 -5.32829 0
M  V30 1651 N 156.851 3.69697 -4.47554 0
M  V30 1652 H 159.616 -0.0946382 -2.99551 0
M  V30 1653 H 157.177 -0.196358 -1.60705 0
M  V30 1654 H 159.169 2.42469 -3.24023 0
M  V30 1655 H 157.739 2.22368 -2.19707 0
M  V30 1656 H 156.959 0.430462 -3.91843 0
M  V30 1657 H 158.247 1.0179 -4.98514 0
M  V30 1658 H 157.645 4.03205 -3.9679 0
M  V30 1659 H 156.202 4.36807 -4.8378 0
M  V30 1660 N 159.635 1.57281 -0.100228 0
M  V30 1661 C 160.863 1.98879 0.570509 0
M  V30 1662 C 161.278 0.979476 1.61405 0
M  V30 1663 O 160.635 -0.0302288 1.82475 0
M  V30 1664 C 160.686 3.4052 1.2136 0
M  V30 1665 O 160.407 4.37588 0.211786 0
M  V30 1666 C 161.908 3.97149 1.96945 0
M  V30 1667 H 159.128 0.653428 0.152555 0
M  V30 1668 H 161.672 2.03697 -0.18103 0
M  V30 1669 H 159.827 3.367 1.91603 0
M  V30 1670 H 160.241 5.20118 0.676607 0
M  V30 1671 H 161.715 4.98393 2.37294 0
M  V30 1672 H 162.192 3.3525 2.83733 0
M  V30 1673 H 162.798 4.04458 1.31506 0
M  V30 1674 N 161.113 -0.173488 1.56642 0
M  V30 1675 C 162.338 -0.910149 1.86363 0
M  V30 1676 C 162.763 -1.75132 0.686318 0
M  V30 1677 O 162.121 -1.77595 -0.364643 0
M  V30 1678 C 162.169 -1.76447 3.14482 0
M  V30 1679 O 161.273 -2.86584 2.96553 0
M  V30 1680 H 160.614 -0.255086 0.613047 0
M  V30 1681 H 163.144 -0.172283 2.03873 0
M  V30 1682 H 163.154 -2.16483 3.45831 0
M  V30 1683 H 161.829 -1.14658 3.99783 0
M  V30 1684 H 160.406 -2.50146 2.76553 0
M  V30 1685 N 162.591 -1.51276 -0.441967 0
M  V30 1686 C 163.521 -1.752 -1.54361 0
M  V30 1687 C 164.502 -0.601682 -1.59103 0
M  V30 1688 O 165.687 -0.843913 -1.74905 0
M  V30 1689 C 162.817 -1.87282 -2.92477 0
M  V30 1690 C 161.771 -3.02687 -3.02596 0
M  V30 1691 C 161.097 -2.99947 -4.42647 0
M  V30 1692 C 162.397 -4.4273 -2.77106 0
M  V30 1693 H 164.091 -2.67442 -1.34592 0
M  V30 1694 H 161.637 -1.28694 -0.646048 0
M  V30 1695 H 163.59 -2.02602 -3.695 0
M  V30 1696 H 162.314 -0.916844 -3.13467 0
M  V30 1697 H 160.973 -2.87065 -2.28012 0
M  V30 1698 H 160.621 -2.02136 -4.60597 0
M  V30 1699 H 160.321 -3.77439 -4.50348 0
M  V30 1700 H 161.845 -3.17354 -5.2165 0
M  V30 1701 H 163.259 -4.58727 -3.43864 0
M  V30 1702 H 161.656 -5.21893 -2.96222 0
M  V30 1703 H 162.726 -4.53087 -1.72744 0
M  V30 1704 N 164.069 0.697108 -1.41344 0
M  V30 1705 C 165.294 1.49096 -1.44171 0
M  V30 1706 C 165.719 1.88038 -0.0481568 0
M  V30 1707 O 165.077 1.54525 0.948243 0
M  V30 1708 C 165.125 2.73088 -2.3549 0
M  V30 1709 O 164.229 3.70514 -1.81088 0
M  V30 1710 H 163.57 0.448801 -0.489361 0
M  V30 1711 H 166.1 0.856992 -1.85787 0
M  V30 1712 H 166.11 3.21413 -2.51312 0
M  V30 1713 H 164.785 2.44081 -3.36745 0
M  V30 1714 H 163.362 3.29441 -1.74708 0
M  V30 1715 N 165.547 1.27147 0.931209 0
M  V30 1716 C 166.824 1.0401 1.65654 0
M  V30 1717 C 167.204 -0.426297 2.06751 0
M  V30 1718 O 166.552 -1.40879 1.79904 0
M  V30 1719 C 166.762 1.99834 2.86125 0
M  V30 1720 C 168.11 2.29007 3.57549 0
M  V30 1721 O 169.134 1.97779 2.96246 0
M  V30 1722 O 167.993 2.82222 4.67989 0
M  V30 1723 H 165.087 0.396239 0.725895 0
M  V30 1724 H 167.633 1.38397 0.982056 0
M  V30 1725 H 166.405 2.98744 2.52721 0
M  V30 1726 H 166.028 1.65987 3.61295 0
M  V30 1727 N 167.025 -1.13721 1.09112 0
M  V30 1728 C 168.436 -1.6648 0.845068 0
M  V30 1729 C 168.787 -1.85911 -0.62701 0
M  V30 1730 O 167.912 -1.57556 -1.48341 0
M  V30 1731 C 168.507 -3.02413 1.52748 0
M  V30 1732 C 167.066 -3.52176 1.32849 0
M  V30 1733 C 166.213 -2.27492 1.58564 0
M  V30 1734 H 169.164 -0.976872 1.25072 0
M  V30 1735 H 169.185 -3.68223 0.958752 0
M  V30 1736 H 168.697 -2.88238 2.59885 0
M  V30 1737 H 166.798 -3.7156 0.278137 0
M  V30 1738 H 166.911 -4.32499 2.0611 0
M  V30 1739 H 165.275 -2.33923 1.00758 0
M  V30 1740 H 166.058 -2.15886 2.66924 0
M  V30 1741 N 168.503 -0.877838 -1.30888 0
M  V30 1742 C 169.749 -0.493426 -1.96706 0
M  V30 1743 C 170.082 0.953504 -1.6918 0
M  V30 1744 O 169.357 1.67266 -0.992594 0
M  V30 1745 C 169.64 -0.760429 -3.51979 0
M  V30 1746 C 169.493 -2.25747 -3.89048 0
M  V30 1747 C 170.812 -0.232148 -4.39487 0
M  V30 1748 H 167.931 -0.180746 -0.714493 0
M  V30 1749 H 170.573 -1.10052 -1.54882 0
M  V30 1750 H 168.723 -0.243715 -3.87735 0
M  V30 1751 H 170.395 -2.84204 -3.63354 0
M  V30 1752 H 168.638 -2.72694 -3.37373 0
M  V30 1753 H 169.309 -2.39491 -4.97341 0
M  V30 1754 H 171.785 -0.674314 -4.106 0
M  V30 1755 H 170.661 -0.448355 -5.47066 0
M  V30 1756 H 170.922 0.866297 -4.33529 0
M  V30 1757 N 169.982 1.44106 -0.638065 0
M  V30 1758 C 170.932 2.27843 0.0847285 0
M  V30 1759 C 171.916 1.39055 0.809471 0
M  V30 1760 O 173.108 1.62808 0.694435 0
M  V30 1761 C 170.237 3.26497 1.06089 0
M  V30 1762 C 169.323 4.22772 0.33541 0
M  V30 1763 N 169.714 5.01737 -0.639787 0
M  V30 1764 C 168.012 4.42227 0.578921 0
M  V30 1765 C 168.713 5.71792 -1.06904 0
M  V30 1766 N 167.689 5.42079 -0.406395 0
M  V30 1767 H 171.491 2.86305 -0.663814 0
M  V30 1768 H 169.005 1.55627 -0.464122 0
M  V30 1769 H 171.002 3.8525 1.59337 0
M  V30 1770 H 169.662 2.69595 1.80966 0
M  V30 1771 H 170.673 5.07799 -1.01789 0
M  V30 1772 H 167.35 3.96415 1.31003 0
M  V30 1773 H 168.74 6.45205 -1.8751 0
M  V30 1774 N 171.46 0.379036 1.52974 0
M  V30 1775 C 172.39 -0.452706 2.29069 0
M  V30 1776 C 173.371 -1.07237 1.32039 0
M  V30 1777 O 174.556 -1.08708 1.60923 0
M  V30 1778 C 171.686 -1.5856 3.08992 0
M  V30 1779 C 170.64 -1.0925 4.13822 0
M  V30 1780 C 169.966 -2.31668 4.81907 0
M  V30 1781 C 171.266 -0.167702 5.22031 0
M  V30 1782 H 172.96 0.182181 2.98845 0
M  V30 1783 H 170.506 0.0890592 1.43724 0
M  V30 1784 H 172.459 -2.1742 3.6098 0
M  V30 1785 H 171.183 -2.24792 2.36931 0
M  V30 1786 H 169.842 -0.526494 3.628 0
M  V30 1787 H 169.49 -2.96386 4.06404 0
M  V30 1788 H 169.19 -1.9934 5.52754 0
M  V30 1789 H 170.714 -2.91189 5.36695 0
M  V30 1790 H 172.128 -0.664186 5.6944 0
M  V30 1791 H 170.525 0.0653265 6.00064 0
M  V30 1792 H 171.595 0.786347 4.78482 0
M  V30 1793 N 172.938 -1.57226 0.108567 0
M  V30 1794 C 174.166 -1.99179 -0.559954 0
M  V30 1795 C 174.581 -0.988022 -1.60884 0
M  V30 1796 O 173.938 0.0205512 -1.82488 0
M  V30 1797 C 173.989 -3.41159 -1.19552 0
M  V30 1798 O 173.71 -4.37694 -0.188577 0
M  V30 1799 C 175.211 -3.98188 -1.94837 0
M  V30 1800 H 172.431 -0.654228 -0.149088 0
M  V30 1801 H 174.975 -2.03598 0.19183 0
M  V30 1802 H 173.13 -3.37711 -1.89815 0
M  V30 1803 H 173.544 -5.20469 -0.649014 0
M  V30 1804 H 175.018 -4.99644 -2.34648 0
M  V30 1805 H 175.495 -3.3675 -2.81951 0
M  V30 1806 H 176.101 -4.0515 -1.2936 0
M  V30 1807 N 174.416 0.165178 -1.56732 0
M  V30 1808 C 175.662 0.882112 -1.82611 0
M  V30 1809 C 175.995 1.81628 -0.687378 0
M  V30 1810 O 175.27 1.92009 0.310267 0
M  V30 1811 C 175.553 1.67245 -3.18906 0
M  V30 1812 C 175.406 0.760987 -4.43316 0
M  V30 1813 C 176.725 2.63884 -3.52212 0
M  V30 1814 H 173.844 0.319242 -0.664269 0
M  V30 1815 H 176.486 0.148052 -1.89422 0
M  V30 1816 H 174.636 2.29824 -3.1323 0
M  V30 1817 H 176.308 0.147596 -4.61064 0
M  V30 1818 H 174.551 0.0694102 -4.33744 0
M  V30 1819 H 175.222 1.34962 -5.35247 0
M  V30 1820 H 177.698 2.11429 -3.58381 0
M  V30 1821 H 176.574 3.16245 -4.48643 0
M  V30 1822 H 176.835 3.44377 -2.77231 0
M  V30 1823 N 175.894 1.51508 0.433938 0
M  V30 1824 C 176.824 1.76016 1.53429 0
M  V30 1825 C 177.805 0.610112 1.58782 0
M  V30 1826 O 178.99 0.853177 1.74455 0
M  V30 1827 C 176.12 1.88831 2.9148 0
M  V30 1828 C 175.074 3.04288 3.00987 0
M  V30 1829 C 174.4 3.0229 4.4105 0
M  V30 1830 C 175.7 4.44193 2.74754 0
M  V30 1831 H 177.394 2.68152 1.33171 0
M  V30 1832 H 174.94 1.29035 0.639214 0
M  V30 1833 H 176.893 2.04559 3.6842 0
M  V30 1834 H 175.617 0.933455 3.12976 0
M  V30 1835 H 174.276 2.8827 2.26486 0
M  V30 1836 H 173.924 2.04576 4.59519 0
M  V30 1837 H 173.624 3.79822 4.4834 0
M  V30 1838 H 175.148 3.20116 5.1996 0
M  V30 1839 H 176.562 4.60544 3.41426 0
M  V30 1840 H 174.959 5.23457 2.9345 0
M  V30 1841 H 176.029 4.53996 1.70339 0
M  V30 1842 N 177.372 -0.689602 1.41712 0
M  V30 1843 C 178.597 -1.48329 1.44959 0
M  V30 1844 C 179.022 -1.8801 0.0581283 0
M  V30 1845 O 178.38 -1.55026 -0.940035 0
M  V30 1846 C 178.428 -2.71835 2.36935 0
M  V30 1847 O 177.532 -3.69549 1.8305 0
M  V30 1848 H 176.873 -0.446199 0.491734 0
M  V30 1849 H 179.403 -0.847127 1.86239 0
M  V30 1850 H 179.413 -3.20076 2.53013 0
M  V30 1851 H 178.088 -2.42291 3.38035 0
M  V30 1852 H 176.665 -3.2851 1.76452 0
M  V30 1853 N 178.85 -1.27639 -0.924453 0
M  V30 1854 C 179.76 -1.12466 -2.05885 0
M  V30 1855 C 180.776 -0.053869 -1.73917 0
M  V30 1856 O 181.952 -0.261012 -1.99702 0
M  V30 1857 C 179.017 -0.776768 -3.37886 0
M  V30 1858 C 178.078 -1.92878 -3.83532 0
M  V30 1859 C 177.311 -1.59739 -5.09234 0
M  V30 1860 O 177.534 -0.506782 -5.68144 0
M  V30 1861 O 176.468 -2.43761 -5.50331 0
M  V30 1862 H 180.294 -2.07671 -2.21599 0
M  V30 1863 H 177.879 -1.06857 -1.04413 0
M  V30 1864 H 179.761 -0.596229 -4.17161 0
M  V30 1865 H 178.436 0.145732 -3.23372 0
M  V30 1866 H 177.343 -2.1644 -3.0513 0
M  V30 1867 H 178.676 -2.8316 -4.02593 0
M  V30 1868 N 180.328 1.1314 -1.09713 0
M  V30 1869 C 181.574 1.84967 -0.846104 0
M  V30 1870 C 181.929 1.82082 0.621601 0
M  V30 1871 O 181.222 1.2501 1.452 0
M  V30 1872 C 181.416 3.32167 -1.3191 0
M  V30 1873 C 181.245 3.49386 -2.83125 0
M  V30 1874 C 180.015 3.63456 -3.51038 0
M  V30 1875 C 182.213 3.45179 -3.81256 0
M  V30 1876 N 180.195 3.68966 -4.9065 0
M  V30 1877 C 181.566 3.57094 -5.06837 0
M  V30 1878 C 183.621 3.28598 -3.74069 0
M  V30 1879 C 182.324 3.5414 -6.26081 0
M  V30 1880 C 184.35 3.26953 -4.92804 0
M  V30 1881 C 183.712 3.39422 -6.17229 0
M  V30 1882 H 179.811 0.692899 -0.362512 0
M  V30 1883 H 182.395 1.35506 -1.39808 0
M  V30 1884 H 180.566 3.80186 -0.794535 0
M  V30 1885 H 182.298 3.91815 -1.01308 0
M  V30 1886 H 179.053 3.65256 -3.01471 0
M  V30 1887 H 179.477 3.75404 -5.63383 0
M  V30 1888 H 184.119 3.17858 -2.78794 0
M  V30 1889 H 181.837 3.63653 -7.21653 0
M  V30 1890 H 185.423 3.15316 -4.88945 0
M  V30 1891 H 184.303 3.38114 -7.07565 0
M  V30 1892 N 181.806 0.884767 1.30421 0
M  V30 1893 C 182.736 0.367574 2.30589 0
M  V30 1894 C 183.717 -0.549464 1.60981 0
M  V30 1895 O 184.902 -0.46336 1.88591 0
M  V30 1896 C 182.032 -0.418944 3.44764 0
M  V30 1897 C 180.986 0.406316 4.26067 0
M  V30 1898 C 180.312 -0.506793 5.32293 0
M  V30 1899 C 181.612 1.64832 4.95608 0
M  V30 1900 H 183.306 1.20462 2.74097 0
M  V30 1901 H 180.852 0.580695 1.31772 0
M  V30 1902 H 182.805 -0.791395 4.13902 0
M  V30 1903 H 181.529 -1.28964 3.0006 0
M  V30 1904 H 180.188 0.760903 3.58617 0
M  V30 1905 H 179.836 -1.37519 4.83836 0
M  V30 1906 H 179.536 0.0415828 5.87585 0
M  V30 1907 H 181.06 -0.875764 6.04287 0
M  V30 1908 H 182.474 1.34646 5.57264 0
M  V30 1909 H 180.871 2.13688 5.60765 0
M  V30 1910 H 181.941 2.39284 4.21748 0
M  V30 1911 N 183.284 -1.43765 0.645699 0
M  V30 1912 C 184.53 -2.02197 0.156271 0
M  V30 1913 C 184.863 -1.50776 -1.22393 0
M  V30 1914 O 184.138 -0.697771 -1.81553 0
M  V30 1915 C 184.421 -3.59749 0.158872 0
M  V30 1916 C 184.274 -4.21419 1.57245 0
M  V30 1917 C 185.593 -4.37149 -0.50879 0
M  V30 1918 H 182.712 -0.734694 0.0582602 0
M  V30 1919 H 185.354 -1.71157 0.824951 0
M  V30 1920 H 183.504 -3.86325 -0.410525 0
M  V30 1921 H 185.176 -4.059 2.19186 0
M  V30 1922 H 183.419 -3.78356 2.122 0
M  V30 1923 H 184.09 -5.30482 1.52619 0
M  V30 1924 H 186.566 -4.16093 -0.024412 0
M  V30 1925 H 185.442 -5.4683 -0.476213 0
M  V30 1926 H 185.703 -4.12839 -1.58165 0
M  V30 1927 N 184.763 -0.387143 -1.52771 0
M  V30 1928 C 185.693 0.440551 -2.29306 0
M  V30 1929 C 186.674 1.06535 -1.32606 0
M  V30 1930 O 187.859 1.07853 -1.61497 0
M  V30 1931 C 184.989 1.56919 -3.09829 0
M  V30 1932 C 183.943 1.07054 -4.14395 0
M  V30 1933 C 183.269 2.29109 -4.83129 0
M  V30 1934 C 184.569 0.140015 -5.22112 0
M  V30 1935 H 186.263 -0.198026 -2.98744 0
M  V30 1936 H 183.809 -0.09668 -1.43675 0
M  V30 1937 H 185.762 2.15503 -3.62128 0
M  V30 1938 H 184.486 2.23532 -2.3812 0
M  V30 1939 H 183.145 0.507247 -3.63074 0
M  V30 1940 H 182.793 2.94227 -4.0797 0
M  V30 1941 H 182.493 1.96406 -5.53804 0
M  V30 1942 H 184.017 2.88339 -5.38231 0
M  V30 1943 H 185.431 0.633978 -5.69784 0
M  V30 1944 H 183.828 -0.0971485 -6.00021 0
M  V30 1945 H 184.898 -0.811711 -4.78058 0
M  V30 1946 N 186.241 1.57166 -0.116904 0
M  V30 1947 C 187.173 2.12271 0.864507 0
M  V30 1948 C 188.186 1.06494 1.23138 0
M  V30 1949 O 189.375 1.33873 1.18069 0
M  V30 1950 C 186.475 2.60564 2.16702 0
M  V30 1951 C 185.648 3.90416 1.97216 0
M  V30 1952 C 184.707 4.24329 3.11178 0
M  V30 1953 O 183.733 4.93182 2.84184 0
M  V30 1954 N 184.935 3.8148 4.37554 0
M  V30 1955 H 187.7 2.97102 0.393726 0
M  V30 1956 H 185.261 1.61759 0.0675805 0
M  V30 1957 H 187.253 2.80282 2.91932 0
M  V30 1958 H 185.823 1.80623 2.55135 0
M  V30 1959 H 185.043 3.79627 1.06192 0
M  V30 1960 H 186.331 4.75327 1.81499 0
M  V30 1961 H 185.729 3.25943 4.62361 0
M  V30 1962 H 184.286 4.06311 5.09661 0
M  V30 1963 N 187.719 -0.156864 1.56817 0
M  V30 1964 C 188.947 -0.886316 1.86955 0
M  V30 1965 C 189.362 -1.75185 0.703975 0
M  V30 1966 O 188.719 -1.79555 -0.326552 0
M  V30 1967 C 188.77 -1.75117 3.16253 0
M  V30 1968 O 188.491 -0.920537 4.2832 0
M  V30 1969 C 189.992 -2.58905 3.59837 0
M  V30 1970 H 187.212 -0.25678 0.619923 0
M  V30 1971 H 189.756 -0.152615 2.0393 0
M  V30 1972 H 187.911 -2.43805 3.01062 0
M  V30 1973 H 188.325 -1.51337 5.02192 0
M  V30 1974 H 189.799 -3.1518 4.53172 0
M  V30 1975 H 190.276 -3.34472 2.84649 0
M  V30 1976 H 190.882 -1.95526 3.7769 0
M  V30 1977 N 189.197 -1.51736 -0.425897 0
M  V30 1978 C 190.608 -1.5732 -1.00536 0
M  V30 1979 C 190.959 -0.403537 -1.92005 0
M  V30 1980 O 190.084 0.478256 -2.11049 0
M  V30 1981 C 190.679 -2.85119 -1.8301 0
M  V30 1982 C 189.238 -2.93236 -2.35987 0
M  V30 1983 C 188.385 -2.52098 -1.15508 0
M  V30 1984 H 191.336 -1.57348 -0.206739 0
M  V30 1985 H 191.357 -2.69526 -2.68581 0
M  V30 1986 H 190.869 -3.7023 -1.16411 0
M  V30 1987 H 188.97 -2.12581 -3.06007 0
M  V30 1988 H 189.083 -3.9713 -2.68001 0
M  V30 1989 H 187.447 -2.05558 -1.50393 0
M  V30 1990 H 188.23 -3.39565 -0.505014 0
M  V30 1991 N 190.675 0.682077 -1.42076 0
M  V30 1992 C 191.625 1.78823 -1.41444 0
M  V30 1993 C 192.609 1.58323 -0.28681 0
M  V30 1994 O 193.801 1.68926 -0.528498 0
M  V30 1995 C 190.93 3.17232 -1.3122 0
M  V30 1996 C 190.016 3.4338 -2.489 0
M  V30 1997 N 190.407 3.40152 -3.7434 0
M  V30 1998 C 188.705 3.73986 -2.43003 0
M  V30 1999 C 189.406 3.65581 -4.52466 0
M  V30 2000 N 188.382 3.85989 -3.8277 0
M  V30 2001 H 192.184 1.7471 -2.36334 0
M  V30 2002 H 189.698 0.882622 -1.36321 0
M  V30 2003 H 191.695 3.96489 -1.2885 0
M  V30 2004 H 190.355 3.22547 -0.373263 0
M  V30 2005 H 191.366 3.20221 -4.07037 0
M  V30 2006 H 188.043 3.86591 -1.57651 0
M  V30 2007 H 189.433 3.69108 -5.61435 0
M  V30 2008 N 192.153 1.28127 0.917671 0
M  V30 2009 C 193.083 1.14248 2.03641 0
M  V30 2010 C 194.064 0.0412748 1.7005 0
M  V30 2011 O 195.249 0.217566 1.92977 0
M  V30 2012 C 192.379 0.799431 3.37974 0
M  V30 2013 C 191.333 1.85497 3.85713 0
M  V30 2014 C 190.659 1.36565 5.16966 0
M  V30 2015 C 191.959 3.26085 4.08002 0
M  V30 2016 H 193.653 2.07835 2.15511 0
M  V30 2017 H 191.199 1.00064 1.03553 0
M  V30 2018 H 193.152 0.689114 4.15727 0
M  V30 2019 H 191.876 -0.172145 3.26146 0
M  V30 2020 H 190.535 1.95437 3.10161 0
M  V30 2021 H 190.183 0.383253 5.01538 0
M  V30 2022 H 189.883 2.07143 5.49878 0
M  V30 2023 H 191.407 1.26848 5.97279 0
M  V30 2024 H 192.821 3.19089 4.76293 0
M  V30 2025 H 191.218 3.94462 4.52238 0
M  V30 2026 H 192.288 3.70394 3.12948 0
M  V30 2027 N 193.631 -1.12557 1.10312 0
M  V30 2028 C 194.541 -2.21841 0.763142 0
M  V30 2029 C 195.557 -1.72354 -0.238801 0
M  V30 2030 O 196.733 -2.01249 -0.0778746 0
M  V30 2031 C 193.798 -3.46131 0.198632 0
M  V30 2032 C 192.859 -4.10464 1.25769 0
M  V30 2033 C 192.092 -5.28821 0.72002 0
M  V30 2034 O 192.315 -5.6859 -0.453993 0
M  V30 2035 O 191.249 -5.83437 1.47935 0
M  V30 2036 H 195.075 -2.53312 1.67532 0
M  V30 2037 H 192.66 -1.20867 0.878157 0
M  V30 2038 H 194.542 -4.2125 -0.112401 0
M  V30 2039 H 193.217 -3.16338 -0.686419 0
M  V30 2040 H 192.124 -3.3713 1.62156 0
M  V30 2041 H 193.457 -4.44408 2.11571 0
M  V30 2042 N 195.109 -0.891671 -1.2995 0
M  V30 2043 C 196.356 -0.513501 -1.95881 0
M  V30 2044 C 196.684 0.938655 -1.70351 0
M  V30 2045 O 195.939 1.67936 -1.00478 0
M  V30 2046 C 196.238 -0.742868 -3.49594 0
M  V30 2047 C 195.904 -2.17114 -3.95186 0
M  V30 2048 C 194.566 -2.56169 -4.07346 0
M  V30 2049 C 196.918 -3.10162 -4.18866 0
M  V30 2050 C 194.246 -3.87469 -4.4055 0
M  V30 2051 C 196.598 -4.41001 -4.53542 0
M  V30 2052 C 195.262 -4.79941 -4.63911 0
M  V30 2053 H 194.532 -0.187903 -0.71678 0
M  V30 2054 H 197.179 -1.1288 -1.54694 0
M  V30 2055 H 195.484 -0.044586 -3.91775 0
M  V30 2056 H 197.181 -0.429767 -3.9869 0
M  V30 2057 H 193.771 -1.85801 -3.86233 0
M  V30 2058 H 197.955 -2.81206 -4.08946 0
M  V30 2059 H 193.211 -4.17371 -4.46779 0
M  V30 2060 H 197.385 -5.13133 -4.70815 0
M  V30 2061 H 195.012 -5.81719 -4.89395 0
M  V30 2062 N 196.587 1.43421 -0.653314 0
M  V30 2063 C 197.519 2.29071 0.0769134 0
M  V30 2064 C 198.532 1.42513 0.787017 0
M  V30 2065 O 199.721 1.66449 0.644757 0
M  V30 2066 C 196.821 3.19436 1.13199 0
M  V30 2067 C 195.994 4.34533 0.500006 0
M  V30 2068 C 195.053 5.05771 1.45198 0
M  V30 2069 O 194.079 5.61037 0.960538 0
M  V30 2070 N 195.281 5.0928 2.78594 0
M  V30 2071 H 198.046 2.92382 -0.658235 0
M  V30 2072 H 195.607 1.54112 -0.496104 0
M  V30 2073 H 197.599 3.63958 1.76964 0
M  V30 2074 H 196.169 2.57724 1.7691 0
M  V30 2075 H 195.389 3.92925 -0.316738 0
M  V30 2076 H 196.677 5.08766 0.0588345 0
M  V30 2077 H 196.075 4.65751 3.2108 0
M  V30 2078 H 194.632 5.57519 3.37662 0
M  V30 2079 N 198.065 0.39524 1.52563 0
M  V30 2080 C 198.975 -0.444232 2.30356 0
M  V30 2081 C 199.991 -1.06615 1.37511 0
M  V30 2082 O 201.167 -1.07067 1.70583 0
M  V30 2083 C 198.232 -1.55315 3.09964 0
M  V30 2084 C 197.293 -0.955734 4.18526 0
M  V30 2085 C 196.526 -2.01181 4.9433 0
M  V30 2086 O 196.749 -3.22781 4.70285 0
M  V30 2087 O 195.683 -1.62579 5.79527 0
M  V30 2088 H 199.509 0.189667 3.03107 0
M  V30 2089 H 197.094 0.1588 1.48554 0
M  V30 2090 H 198.976 -2.19724 3.59582 0
M  V30 2091 H 197.651 -2.17191 2.4002 0
M  V30 2092 H 196.558 -0.274743 3.7309 0
M  V30 2093 H 197.891 -0.381109 4.90722 0
M  V30 2094 N 199.544 -1.57102 0.125237 0
M  V30 2095 C 200.792 -1.95021 -0.530198 0
M  V30 2096 C 201.113 -1.00982 -1.66816 0
M  V30 2097 O 200.383 -0.0672693 -1.95784 0
M  V30 2098 H 198.963 -0.720046 -0.198853 0
M  V30 2099 H 201.625 -1.93916 0.19564 0
M  V30 2100 H 200.721 -2.98211 -0.920681 0
M  V30 2101 N 201.022 0.148545 -1.56898 0
M  V30 2102 C 201.932 1.20293 -2.01412 0
M  V30 2103 C 202.948 1.47107 -0.929273 0
M  V30 2104 O 204.124 1.58807 -1.23863 0
M  V30 2105 C 201.189 2.51682 -2.38447 0
M  V30 2106 C 200.25 2.32529 -3.60872 0
M  V30 2107 C 199.483 3.57653 -3.96132 0
M  V30 2108 O 199.706 4.63771 -3.32073 0
M  V30 2109 O 198.64 3.50408 -4.89385 0
M  V30 2110 H 202.466 0.855025 -2.91416 0
M  V30 2111 H 200.051 0.357151 -1.45068 0
M  V30 2112 H 201.933 3.29147 -2.63135 0
M  V30 2113 H 200.608 2.86006 -1.51599 0
M  V30 2114 H 199.515 1.53019 -3.41373 0
M  V30 2115 H 200.848 2.03121 -4.48333 0
M  V30 2116 N 202.5 1.5196 0.417844 0
M  V30 2117 C 203.728 1.69426 1.18753 0
M  V30 2118 C 204.143 0.399955 1.84515 0
M  V30 2119 O 203.5 -0.623288 1.71527 0
M  V30 2120 C 203.551 2.82375 2.25714 0
M  V30 2121 O 203.272 4.06793 1.62638 0
M  V30 2122 C 204.773 3.11277 3.15628 0
M  V30 2123 H 201.993 0.568031 0.357186 0
M  V30 2124 H 204.537 1.98475 0.49273 0
M  V30 2125 H 202.692 2.5587 2.90877 0
M  V30 2126 H 203.106 4.69667 2.3348 0
M  V30 2127 H 204.58 3.93843 3.86771 0
M  V30 2128 H 205.057 2.24473 3.77503 0
M  V30 2129 H 205.663 3.39515 2.56144 0
M  V30 2130 N 203.978 -0.674533 1.42435 0
M  V30 2131 C 205.227 -1.43034 1.42212 0
M  V30 2132 C 205.54 -1.95555 0.0420788 0
M  V30 2133 O 206.746 -2.71374 -0.0827558 0
M  V30 2134 C 205.202 -2.58748 2.50155 0
M  V30 2135 C 204.81 -2.12925 3.94166 0
M  V30 2136 C 206.554 -3.36257 2.59098 0
M  V30 2137 C 204.461 -3.25723 4.93618 0
M  V30 2138 H 203.391 -0.537345 0.528939 0
M  V30 2139 H 206.042 -0.73024 1.68344 0
M  V30 2140 H 204.424 -3.31128 2.17188 0
M  V30 2141 H 205.598 -1.47697 4.36488 0
M  V30 2142 H 203.913 -1.48354 3.89076 0
M  V30 2143 H 206.51 -4.20264 3.30578 0
M  V30 2144 H 206.853 -3.82866 1.63461 0
M  V30 2145 H 207.386 -2.70947 2.9126 0
M  V30 2146 H 204.125 -2.84105 5.90732 0
M  V30 2147 H 203.645 -3.89732 4.55926 0
M  V30 2148 H 205.324 -3.91186 5.15347 0
M  V30 2149 N 205.456 -1.28612 -0.910864 0
M  V30 2150 C 206.389 -1.07109 -2.01502 0
M  V30 2151 C 207.367 0.013706 -1.62594 0
M  V30 2152 O 208.551 -0.134796 -1.88017 0
M  V30 2153 C 205.678 -0.628255 -3.32822 0
M  V30 2154 C 204.724 -1.71012 -3.90714 0
M  V30 2155 S 205.557 -3.30676 -4.21205 0
M  V30 2156 C 206.713 -2.88234 -5.55583 0
M  V30 2157 H 206.946 -2.00591 -2.19432 0
M  V30 2158 H 204.479 -1.12633 -1.05609 0
M  V30 2159 H 206.437 -0.37946 -4.08742 0
M  V30 2160 H 205.098 0.28678 -3.12788 0
M  V30 2161 H 204.291 -1.35195 -4.85529 0
M  V30 2162 H 203.893 -1.91186 -3.21441 0
M  V30 2163 H 206.185 -2.34584 -6.35591 0
M  V30 2164 H 207.128 -3.81857 -5.96314 0
M  V30 2165 H 207.536 -2.26862 -5.16908 0
M  V30 2166 N 206.934 1.1197 -1.10907 0
M  V30 2167 C 207.864 2.19928 -0.784473 0
M  V30 2168 C 208.845 1.6833 0.244726 0
M  V30 2169 O 210.03 1.93892 0.109418 0
M  V30 2170 C 207.16 3.46597 -0.220827 0
M  V30 2171 C 206.114 4.11376 -1.18127 0
M  V30 2172 C 205.44 5.32554 -0.478594 0
M  V30 2173 C 206.74 4.56945 -2.52979 0
M  V30 2174 H 208.434 2.47337 -1.68715 0
M  V30 2175 H 205.98 1.18879 -0.812642 0
M  V30 2176 H 207.933 4.21396 0.0184278 0
M  V30 2177 H 206.657 3.1863 0.717113 0
M  V30 2178 H 205.316 3.38564 -1.40606 0
M  V30 2179 H 204.964 5.00856 0.463976 0
M  V30 2180 H 204.664 5.76844 -1.11912 0
M  V30 2181 H 206.188 6.10096 -0.248 0
M  V30 2182 H 207.602 5.23093 -2.3462 0
M  V30 2183 H 205.999 5.1203 -3.12962 0
M  V30 2184 H 207.069 3.70676 -3.12614 0
M  V30 2185 N 208.412 0.89855 1.29475 0
M  V30 2186 C 209.828 0.594483 1.48115 0
M  V30 2187 C 210.028 -0.86431 1.82022 0
M  V30 2188 O 209.084 -1.64457 1.91599 0
M  V30 2189 C 210.397 1.51932 2.59494 0
M  V30 2190 C 211.945 1.5244 2.7337 0
M  V30 2191 C 212.42 2.43548 3.87877 0
M  V30 2192 N 213.911 2.41589 3.95208 0
M  V30 2193 C 214.646 3.08789 4.83153 0
M  V30 2194 N 214.142 3.85265 5.75798 0
M  V30 2195 N 215.935 2.97952 4.76635 0
M  V30 2196 H 208.086 1.84207 1.05742 0
M  V30 2197 H 210.349 0.789251 0.525154 0
M  V30 2198 H 210.055 2.55865 2.41301 0
M  V30 2199 H 209.929 1.23899 3.56271 0
M  V30 2200 H 212.316 0.492518 2.90961 0
M  V30 2201 H 212.397 1.8451 1.77172 0
M  V30 2202 H 212.041 3.46829 3.71041 0
M  V30 2203 H 211.971 2.08788 4.83441 0
M  V30 2204 H 214.462 1.86025 3.28943 0
M  V30 2205 H 214.775 4.33598 6.39697 0
M  V30 2206 H 213.12 3.89371 5.75687 0
M  V30 2207 H 216.311 2.37723 4.03244 0
M  V30 2208 H 216.484 3.50599 5.44962 0
M  V30 2209 N 209.89 -1.43072 0.660911 0
M  V30 2210 C 211.13 -2.03596 0.181146 0
M  V30 2211 C 211.494 -1.51057 -1.18515 0
M  V30 2212 O 212.695 -2.03275 -1.75877 0
M  V30 2213 C 210.966 -3.56845 0.19911 0
M  V30 2214 S 212.525 -4.38289 -0.211684 0
M  V30 2215 H 209.343 -0.706954 0.0757479 0
M  V30 2216 H 211.945 -1.75027 0.870965 0
M  V30 2217 H 210.649 -3.92583 1.1961 0
M  V30 2218 H 210.18 -3.90067 -0.510996 0
M  V30 2219 H 212.195 -4.74583 -1.44863 0
M  V30 2220 N 211.368 -0.403325 -1.52352 0
M  V30 2221 C 212.318 0.442244 -2.2367 0
M  V30 2222 C 213.302 1.01823 -1.24583 0
M  V30 2223 O 214.494 0.942005 -1.49851 0
M  V30 2224 C 211.623 1.5615 -3.05732 0
M  V30 2225 C 210.709 0.996575 -4.12225 0
M  V30 2226 N 211.1 0.157804 -5.05554 0
M  V30 2227 C 209.398 1.26767 -4.27605 0
M  V30 2228 C 210.099 -0.155853 -5.81491 0
M  V30 2229 N 209.075 0.451775 -5.41719 0
M  V30 2230 H 212.877 -0.204964 -2.93184 0
M  V30 2231 H 210.391 -0.213418 -1.60992 0
M  V30 2232 H 212.388 2.17981 -3.55373 0
M  V30 2233 H 211.048 2.21139 -2.37755 0
M  V30 2234 H 212.059 -0.206049 -5.1749 0
M  V30 2235 H 208.736 1.91757 -3.70858 0
M  V30 2236 H 210.126 -0.836329 -6.66675 0
M  V30 2237 N 212.846 1.57033 -0.133567 0
M  V30 2238 C 214.071 2.00475 0.531477 0
M  V30 2239 C 214.496 1.01291 1.58499 0
M  V30 2240 O 213.854 -0.0133279 1.81295 0
M  V30 2241 C 213.902 3.42729 1.12113 0
M  V30 2242 O 213.006 3.46498 2.23636 0
M  V30 2243 H 212.347 0.650876 0.131362 0
M  V30 2244 H 214.877 2.03344 -0.22634 0
M  V30 2245 H 214.887 3.81246 1.4531 0
M  V30 2246 H 213.562 4.14428 0.349557 0
M  V30 2247 H 212.139 3.19811 1.91769 0
M  V30 2248 N 214.325 -0.140222 1.56975 0
M  V30 2249 C 215.571 -0.848084 1.84876 0
M  V30 2250 C 215.926 -1.78481 0.718481 0
M  V30 2251 O 215.219 -1.89497 -0.283093 0
M  V30 2252 C 215.413 -1.65386 3.16832 0
M  V30 2253 C 215.242 -0.79665 4.42587 0
M  V30 2254 C 214.012 -0.459648 5.03205 0
M  V30 2255 C 216.21 -0.12389 5.14151 0
M  V30 2256 N 214.192 0.410446 6.12526 0
M  V30 2257 C 215.563 0.606064 6.17031 0
M  V30 2258 C 217.618 -0.0452654 4.97879 0
M  V30 2259 C 216.321 1.40723 7.054 0
M  V30 2260 C 218.347 0.742658 5.86718 0
M  V30 2261 C 217.709 1.46087 6.89085 0
M  V30 2262 H 213.808 -0.287946 0.727056 0
M  V30 2263 H 216.392 -0.11304 1.94372 0
M  V30 2264 H 214.563 -2.36009 3.08471 0
M  V30 2265 H 216.295 -2.30541 3.32615 0
M  V30 2266 H 213.05 -0.797006 4.66846 0
M  V30 2267 H 213.474 0.836716 6.7181 0
M  V30 2268 H 218.116 -0.586184 4.18717 0
M  V30 2269 H 215.834 1.95938 7.83986 0
M  V30 2270 H 219.42 0.805574 5.76196 0
M  V30 2271 H 218.3 2.06077 7.56639 0
M  V30 2272 N 215.803 -1.52179 -0.40978 0
M  V30 2273 C 216.75 -1.75475 -1.49924 0
M  V30 2274 C 217.72 -0.597175 -1.54994 0
M  V30 2275 O 218.905 -0.834655 -1.71575 0
M  V30 2276 C 216.045 -1.9107 -2.87378 0
M  V30 2277 C 215.158 -3.18717 -2.91622 0
M  V30 2278 C 214.293 -3.24747 -4.20372 0
M  V30 2279 C 213.332 -4.46598 -4.18588 0
M  V30 2280 N 212.469 -4.50025 -5.38908 0
M  V30 2281 H 217.309 -2.68458 -1.29361 0
M  V30 2282 H 214.846 -1.33024 -0.627934 0
M  V30 2283 H 216.804 -1.98096 -3.6717 0
M  V30 2284 H 215.434 -1.01469 -3.06437 0
M  V30 2285 H 214.486 -3.20866 -2.04326 0
M  V30 2286 H 215.798 -4.08544 -2.86169 0
M  V30 2287 H 214.952 -3.30841 -5.08556 0
M  V30 2288 H 213.691 -2.32857 -4.28519 0
M  V30 2289 H 212.696 -4.40652 -3.28794 0
M  V30 2290 H 213.921 -5.39783 -4.12081 0
M  V30 2291 H 211.867 -3.61017 -5.47725 0
M  V30 2292 H 211.784 -5.33697 -5.35447 0
M  V30 2293 H 213.052 -4.60347 -6.29048 0
M  V30 2294 N 217.281 0.66697 -1.42791 0
M  V30 2295 C 218.558 1.4234 -1.34159 0
M  V30 2296 C 218.938 2.11093 0.0172729 0
M  V30 2297 O 218.286 2.03808 1.03318 0
M  V30 2298 C 218.496 2.41942 -2.51526 0
M  V30 2299 C 219.844 3.06353 -2.93995 0
M  V30 2300 O 220.868 2.52269 -2.51473 0
M  V30 2301 O 219.727 4.04376 -3.67617 0
M  V30 2302 H 216.821 0.635277 -0.529483 0
M  V30 2303 H 219.367 0.695034 -1.54814 0
M  V30 2304 H 218.139 1.89991 -3.42081 0
M  V30 2305 H 217.762 3.22249 -2.32898 0
M  V30 2306 N 218.759 1.29093 0.90403 0
M  V30 2307 C 219.706 1.13853 2.00764 0
M  V30 2308 C 220.676 0.0330084 1.66067 0
M  V30 2309 O 221.861 0.199733 1.89752 0
M  V30 2310 C 219.001 0.816537 3.35301 0
M  V30 2311 C 218.114 2.00206 3.82807 0
M  V30 2312 C 217.249 1.61983 5.059 0
M  V30 2313 C 216.288 2.77143 5.45764 0
M  V30 2314 N 215.425 2.39346 6.60044 0
M  V30 2315 H 220.265 2.08276 2.13132 0
M  V30 2316 H 217.802 1.03648 1.04381 0
M  V30 2317 H 219.76 0.610557 4.12708 0
M  V30 2318 H 218.39 -0.090779 3.22672 0
M  V30 2319 H 217.442 2.31988 3.01473 0
M  V30 2320 H 218.754 2.86512 4.08304 0
M  V30 2321 H 217.908 1.37649 5.90879 0
M  V30 2322 H 216.647 0.728202 4.82233 0
M  V30 2323 H 215.652 3.02165 4.59322 0
M  V30 2324 H 216.877 3.66964 5.71414 0
M  V30 2325 H 214.823 1.52665 6.37989 0
M  V30 2326 H 214.74 3.19185 6.85315 0
M  V30 2327 H 216.008 2.1832 7.48303 0
M  V30 2328 N 220.237 -1.11381 1.11499 0
M  V30 2329 C 221.648 -1.6465 0.880191 0
M  V30 2330 C 221.999 -1.87199 -0.587434 0
M  V30 2331 O 221.124 -1.60667 -1.44966 0
M  V30 2332 C 221.719 -2.99105 1.59128 0
M  V30 2333 C 220.278 -3.49279 1.40289 0
M  V30 2334 C 219.425 -2.24077 1.63354 0
M  V30 2335 H 222.376 -0.950123 1.27116 0
M  V30 2336 H 222.397 -3.66107 1.03664 0
M  V30 2337 H 221.909 -2.82661 2.65941 0
M  V30 2338 H 220.01 -3.70887 0.356888 0
M  V30 2339 H 220.123 -4.2803 2.15238 0
M  V30 2340 H 218.487 -2.31733 1.05698 0
M  V30 2341 H 219.27 -2.10175 2.71443 0
M  V30 2342 N 221.715 -0.905404 -1.28997 0
M  V30 2343 C 222.645 -0.404212 -2.29975 0
M  V30 2344 C 223.626 0.523784 -1.61835 0
M  V30 2345 O 224.811 0.433298 -1.89304 0
M  V30 2346 C 221.941 0.364042 -3.45387 0
M  V30 2347 C 220.895 -0.474048 -4.25367 0
M  V30 2348 C 220.221 0.422045 -5.33032 0
M  V30 2349 C 221.521 -1.72696 -4.92923 0
M  V30 2350 H 223.215 -1.24807 -2.72146 0
M  V30 2351 H 220.761 -0.601585 -1.30832 0
M  V30 2352 H 222.714 0.725447 -4.15109 0
M  V30 2353 H 221.438 1.24174 -3.02074 0
M  V30 2354 H 220.097 -0.81786 -3.57361 0
M  V30 2355 H 219.745 1.29804 -4.85963 0
M  V30 2356 H 219.445 -0.135057 -5.87445 0
M  V30 2357 H 220.969 0.779517 -6.05604 0
M  V30 2358 H 222.383 -1.43495 -5.55051 0
M  V30 2359 H 220.78 -2.22582 -5.57295 0
M  V30 2360 H 221.85 -2.45964 -4.17887 0
M  V30 2361 N 223.193 1.4272 -0.668489 0
M  V30 2362 C 224.439 2.01923 -0.188419 0
M  V30 2363 C 224.772 1.52704 1.19979 0
M  V30 2364 O 224.047 0.726566 1.8042 0
M  V30 2365 C 224.33 3.59451 -0.216085 0
M  V30 2366 C 224.183 4.18864 -1.6393 0
M  V30 2367 C 225.502 4.37903 0.439179 0
M  V30 2368 H 222.621 0.733674 -0.0699412 0
M  V30 2369 H 225.263 1.69822 -0.852076 0
M  V30 2370 H 223.413 3.86929 0.349012 0
M  V30 2371 H 225.085 4.02362 -2.25616 0
M  V30 2372 H 223.328 3.74933 -2.18193 0
M  V30 2373 H 223.999 5.27987 -1.61039 0
M  V30 2374 H 226.475 4.16079 -0.0417878 0
M  V30 2375 H 225.351 5.47519 0.389157 0
M  V30 2376 H 225.612 4.15303 1.51577 0
M  V30 2377 N 224.671 0.411399 1.52136 0
M  V30 2378 C 225.618 -0.412975 2.27075 0
M  V30 2379 C 226.588 -1.03912 1.29582 0
M  V30 2380 O 227.773 -1.06296 1.58448 0
M  V30 2381 C 224.913 -1.52247 3.09701 0
M  V30 2382 C 224.026 -0.917021 4.22155 0
M  V30 2383 C 223.161 -1.9994 4.92135 0
M  V30 2384 C 222.2 -1.37101 5.96548 0
M  V30 2385 N 221.337 -2.39364 6.60038 0
M  V30 2386 H 226.177 0.232499 2.97092 0
M  V30 2387 H 223.714 0.126496 1.46555 0
M  V30 2388 H 225.672 -2.17674 3.55913 0
M  V30 2389 H 224.302 -2.13794 2.41851 0
M  V30 2390 H 223.354 -0.151742 3.80097 0
M  V30 2391 H 224.666 -0.418006 4.97045 0
M  V30 2392 H 223.82 -2.73088 5.41763 0
M  V30 2393 H 222.559 -2.53208 4.16818 0
M  V30 2394 H 221.564 -0.624873 5.46237 0
M  V30 2395 H 222.789 -0.845998 6.7381 0
M  V30 2396 H 220.735 -2.91759 5.87548 0
M  V30 2397 H 220.652 -1.9428 7.3061 0
M  V30 2398 H 221.92 -3.12074 7.14304 0
M  V30 2399 N 226.149 -1.5696 0.141893 0
M  V30 2400 C 227.395 -1.9625 -0.511248 0
M  V30 2401 C 227.728 -1.02654 -1.64851 0
M  V30 2402 O 227.003 -0.0679676 -1.94381 0
M  V30 2403 C 227.286 -3.45285 -1.02227 0
M  V30 2404 C 227.139 -4.49658 0.113138 0
M  V30 2405 C 228.458 -3.96698 -1.90574 0
M  V30 2406 H 225.577 -0.713567 -0.184367 0
M  V30 2407 H 228.219 -1.88698 0.222087 0
M  V30 2408 H 226.369 -3.51852 -1.64719 0
M  V30 2409 H 228.041 -4.55174 0.749302 0
M  V30 2410 H 226.284 -4.26857 0.773026 0
M  V30 2411 H 226.955 -5.51258 -0.286053 0
M  V30 2412 H 229.431 -3.92578 -1.37918 0
M  V30 2413 H 228.307 -5.01453 -2.2324 0
M  V30 2414 H 228.568 -3.3875 -2.84079 0
M  V30 2415 N 227.627 0.131896 -1.57047 0
M  V30 2416 C 228.855 0.856461 -1.88341 0
M  V30 2417 C 229.27 1.74042 -0.731757 0
M  V30 2418 O 228.627 1.80051 0.297945 0
M  V30 2419 C 228.678 1.70064 -3.18999 0
M  V30 2420 O 228.399 0.852278 -4.2973 0
M  V30 2421 C 229.9 2.53148 -3.63911 0
M  V30 2422 H 227.12 0.246885 -0.62393 0
M  V30 2423 H 229.664 0.120152 -2.04147 0
M  V30 2424 H 227.819 2.38984 -3.04902 0
M  V30 2425 H 228.233 1.43329 -5.04537 0
M  V30 2426 H 229.707 3.07931 -4.58129 0
M  V30 2427 H 230.184 3.29901 -2.89935 0
M  V30 2428 H 230.79 1.89492 -3.80753 0
M  V30 2429 N 229.106 1.52395 0.401703 0
M  V30 2430 C 230.353 1.66817 1.14796 0
M  V30 2431 C 230.681 0.401772 1.90305 0
M  V30 2432 O 229.936 -0.615487 1.85769 0
M  V30 2433 C 230.235 2.84578 2.16217 0
M  V30 2434 C 229.901 4.22513 1.5746 0
M  V30 2435 C 228.563 4.60029 1.41161 0
M  V30 2436 C 230.915 5.0844 1.14622 0
M  V30 2437 C 228.243 5.81144 0.80552 0
M  V30 2438 C 230.595 6.30167 0.55428 0
M  V30 2439 C 229.259 6.66426 0.378482 0
M  V30 2440 H 228.529 0.610428 0.420069 0
M  V30 2441 H 231.176 1.86512 0.434212 0
M  V30 2442 H 229.481 2.59248 2.93764 0
M  V30 2443 H 231.178 2.92933 2.73845 0
M  V30 2444 H 227.768 3.92953 1.71132 0
M  V30 2445 H 231.952 4.80034 1.26021 0
M  V30 2446 H 227.208 6.07855 0.657399 0
M  V30 2447 H 231.382 6.96071 0.213983 0
M  V30 2448 H 229.009 7.60143 -0.0932606 0
M  V30 2449 N 230.584 -0.659388 1.43143 0
M  V30 2450 C 231.831 -1.41935 1.44433 0
M  V30 2451 C 232.159 -1.94387 0.0663522 0
M  V30 2452 O 231.414 -1.72314 -0.927706 0
M  V30 2453 C 231.713 -2.62206 2.42864 0
M  V30 2454 C 231.379 -2.28208 3.88886 0
M  V30 2455 C 230.041 -2.18647 4.28657 0
M  V30 2456 C 232.393 -2.00887 4.8093 0
M  V30 2457 C 229.721 -1.79914 5.58433 0
M  V30 2458 C 232.073 -1.63653 6.11065 0
M  V30 2459 C 230.737 -1.52614 6.49819 0
M  V30 2460 H 230.007 -0.519376 0.528517 0
M  V30 2461 H 232.654 -0.750453 1.76183 0
M  V30 2462 H 230.959 -3.34199 2.04495 0
M  V30 2463 H 232.656 -3.2041 2.41119 0
M  V30 2464 H 229.246 -2.36557 3.57406 0
M  V30 2465 H 233.43 -2.07198 4.5098 0
M  V30 2466 H 228.686 -1.69948 5.87305 0
M  V30 2467 H 232.86 -1.41543 6.81864 0
M  V30 2468 H 230.487 -1.22371 7.50286 0
M  V30 2469 N 232.062 -1.29571 -0.897171 0
M  V30 2470 C 232.994 -1.10724 -2.00681 0
M  V30 2471 C 234.007 -0.0540026 -1.6271 0
M  V30 2472 O 235.196 -0.298783 -1.75982 0
M  V30 2473 C 232.296 -0.663912 -3.32333 0
M  V30 2474 C 231.469 -1.79622 -3.98816 0
M  V30 2475 C 230.528 -1.34349 -5.0876 0
M  V30 2476 O 229.554 -2.04864 -5.31055 0
M  V30 2477 N 230.756 -0.215764 -5.80099 0
M  V30 2478 H 233.521 -2.06291 -2.17403 0
M  V30 2479 H 231.082 -1.21544 -1.06951 0
M  V30 2480 H 233.074 -0.344295 -4.03233 0
M  V30 2481 H 231.644 0.199375 -3.11964 0
M  V30 2482 H 230.864 -2.28459 -3.21248 0
M  V30 2483 H 232.152 -2.55535 -4.39976 0
M  V30 2484 H 231.55 0.372091 -5.64475 0
M  V30 2485 H 230.107 0.0444707 -6.51785 0
M  V30 2486 N 233.54 1.10788 -1.12088 0
M  V30 2487 C 234.488 2.19111 -0.780587 0
M  V30 2488 C 235.482 1.67818 0.230961 0
M  V30 2489 O 236.688 1.79777 0.0895427 0
M  V30 2490 H 233.063 0.714477 -0.234578 0
M  V30 2491 H 235.034 2.45055 -1.70266 0
M  V30 2492 C 233.783 3.46818 -0.24747 0
M  V30 2493 H 233.106 3.86646 -1.01712 0
M  V30 2494 H 234.546 4.23973 -0.0476291 0
M  V30 2495 C 233.005 3.20968 1.02378 0
M  V30 2496 O 233.535 3.42298 2.10226 0
M  V30 2497 N 231.741 2.74658 0.949271 0
M  V30 2498 H 231.288 2.57501 0.0715173 0
M  V30 2499 H 231.246 2.57739 1.80049 0
M  V30 2500 N 235.018 0.912232 1.28515 0
M  V30 2501 C 236.266 0.543523 1.94654 0
M  V30 2502 C 236.587 -0.9155 1.72173 0
M  V30 2503 O 235.857 -1.64708 1.06058 0
M  V30 2504 H 234.437 0.198017 0.720277 0
M  V30 2505 H 237.099 1.16126 1.56527 0
M  V30 2506 H 236.195 0.736684 3.03281 0
M  V30 2507 N 236.496 -1.42363 0.676048 0
M  V30 2508 C 237.443 -2.308 -0.00150904 0
M  V30 2509 C 238.413 -1.46032 -0.791444 0
M  V30 2510 O 239.598 -1.74861 -0.76344 0
M  V30 2511 C 236.738 -3.31883 -0.945919 0
M  V30 2512 C 235.851 -4.31741 -0.149675 0
M  V30 2513 C 234.986 -5.19898 -1.08995 0
M  V30 2514 C 234.025 -6.11434 -0.285465 0
M  V30 2515 N 233.162 -6.92138 -1.17851 0
M  V30 2516 H 238.002 -2.88187 0.758455 0
M  V30 2517 H 235.539 -1.41952 0.38576 0
M  V30 2518 H 237.497 -3.89019 -1.50731 0
M  V30 2519 H 236.127 -2.76093 -1.6725 0
M  V30 2520 H 235.179 -3.76713 0.528359 0
M  V30 2521 H 236.491 -4.96534 0.474866 0
M  V30 2522 H 235.645 -5.81772 -1.72123 0
M  V30 2523 H 234.384 -4.55284 -1.74837 0
M  V30 2524 H 233.389 -5.48627 0.359018 0
M  V30 2525 H 234.614 -6.78097 0.368883 0
M  V30 2526 H 232.56 -6.30152 -1.82332 0
M  V30 2527 H 232.477 -7.53542 -0.609082 0
M  V30 2528 H 233.745 -7.58499 -1.79722 0
M  V30 2529 N 237.974 -0.419461 -1.51915 0
M  V30 2530 C 239.199 0.154572 -2.06823 0
M  V30 2531 C 239.624 1.3722 -1.28656 0
M  V30 2532 O 238.982 1.78461 -0.319583 0
M  V30 2533 C 239.03 0.473172 -3.57482 0
M  V30 2534 O 238.134 1.56255 -3.81652 0
M  V30 2535 H 237.475 0.0096924 -0.663929 0
M  V30 2536 H 240.005 -0.595642 -1.95738 0
M  V30 2537 H 240.015 0.728825 -4.01438 0
M  V30 2538 H 238.69 -0.416873 -4.13805 0
M  V30 2539 H 237.267 1.29825 -3.49571 0
M  V30 2540 N 239.452 1.56882 -0.150215 0
M  V30 2541 C 240.384 2.14057 0.819286 0
M  V30 2542 C 241.397 1.09082 1.20851 0
M  V30 2543 O 242.586 1.36347 1.15203 0
M  V30 2544 C 239.686 2.65102 2.11127 0
M  V30 2545 C 238.859 3.94511 1.88891 0
M  V30 2546 C 237.918 4.30834 3.02107 0
M  V30 2547 O 236.944 4.99099 2.73659 0
M  V30 2548 N 238.146 3.90676 4.29363 0
M  V30 2549 H 240.911 2.97871 0.330618 0
M  V30 2550 H 238.472 1.61866 0.0332538 0
M  V30 2551 H 240.464 2.86411 2.85921 0
M  V30 2552 H 239.034 1.85994 2.51247 0
M  V30 2553 H 238.254 3.81795 0.981152 0
M  V30 2554 H 239.542 4.7907 1.71376 0
M  V30 2555 H 238.94 3.35677 4.55343 0
M  V30 2556 H 237.497 4.1703 5.00928 0
M  V30 2557 N 240.93 -0.123565 1.57115 0
M  V30 2558 C 241.877 -1.15177 2.00007 0
M  V30 2559 C 242.847 -1.41403 0.871454 0
M  V30 2560 O 244.032 -1.53346 1.13533 0
M  V30 2561 C 241.172 -2.47436 2.40561 0
M  V30 2562 C 240.285 -2.28184 3.66819 0
M  V30 2563 C 239.42 -3.53641 3.96373 0
M  V30 2564 C 238.459 -3.29528 5.15827 0
M  V30 2565 N 237.596 -4.47175 5.41275 0
M  V30 2566 H 242.436 -0.779008 2.87638 0
M  V30 2567 H 239.973 -0.373166 1.42288 0
M  V30 2568 H 241.931 -3.24584 2.62109 0
M  V30 2569 H 240.561 -2.82614 1.55978 0
M  V30 2570 H 239.613 -1.41976 3.52912 0
M  V30 2571 H 240.925 -2.0634 4.5412 0
M  V30 2572 H 240.079 -4.39209 4.18545 0
M  V30 2573 H 238.818 -3.78512 3.07538 0
M  V30 2574 H 237.823 -2.42349 4.93505 0
M  V30 2575 H 239.048 -3.06031 6.06236 0
M  V30 2576 H 236.994 -4.72175 4.55397 0
M  V30 2577 H 236.911 -4.28419 6.22891 0
M  V30 2578 H 238.179 -5.3389 5.67963 0
M  V30 2579 N 242.408 -1.52605 -0.393616 0
M  V30 2580 C 243.655 -1.67424 -1.1391 0
M  V30 2581 C 243.983 -0.411859 -1.90089 0
M  V30 2582 O 243.238 0.605626 -1.86093 0
M  V30 2583 C 243.537 -2.85721 -2.14705 0
M  V30 2584 C 243.203 -4.23342 -1.55218 0
M  V30 2585 C 241.865 -4.60771 -1.3872 0
M  V30 2586 C 244.217 -5.09041 -1.11924 0
M  V30 2587 C 241.545 -5.81563 -0.774689 0
M  V30 2588 C 243.897 -6.30452 -0.520853 0
M  V30 2589 C 242.561 -6.66617 -0.343134 0
M  V30 2590 H 241.831 -0.612648 -0.416826 0
M  V30 2591 H 244.478 -1.8674 -0.424315 0
M  V30 2592 H 242.783 -2.60803 -2.92385 0
M  V30 2593 H 244.48 -2.94382 -2.72288 0
M  V30 2594 H 241.07 -3.93855 -1.69045 0
M  V30 2595 H 245.254 -4.80695 -1.23473 0
M  V30 2596 H 240.51 -6.08196 -0.625154 0
M  V30 2597 H 244.684 -6.96175 -0.177065 0
M  V30 2598 H 242.311 -7.60083 0.133571 0
M  V30 2599 N 243.887 0.651787 -1.4349 0
M  V30 2600 C 245.112 1.44434 -1.48841 0
M  V30 2601 C 245.537 1.8779 -0.107955 0
M  V30 2602 O 244.895 1.57464 0.898602 0
M  V30 2603 C 244.943 2.65458 -2.44059 0
M  V30 2604 O 244.047 3.64566 -1.92784 0
M  V30 2605 H 243.388 0.433005 -0.503391 0
M  V30 2606 H 245.918 0.797451 -1.88419 0
M  V30 2607 H 245.928 3.13255 -2.6141 0
M  V30 2608 H 244.603 2.33244 -3.4434 0
M  V30 2609 H 243.18 3.23716 -1.851 0
M  V30 2610 N 245.365 1.30045 0.890287 0
M  V30 2611 C 246.315 1.12592 1.9826 0
M  V30 2612 C 247.299 0.0426021 1.60844 0
M  V30 2613 O 248.491 0.265346 1.75 0
M  V30 2614 C 245.62 0.814301 3.33503 0
M  V30 2615 C 244.706 1.93761 3.7725 0
M  V30 2616 N 245.097 3.18232 3.93143 0
M  V30 2617 C 243.395 1.83277 4.06602 0
M  V30 2618 C 244.096 3.9158 4.30163 0
M  V30 2619 N 243.072 3.19591 4.3973 0
M  V30 2620 H 246.874 2.07003 2.08631 0
M  V30 2621 H 244.388 1.21307 1.07974 0
M  V30 2622 H 246.385 0.67029 4.11476 0
M  V30 2623 H 245.045 -0.121797 3.24471 0
M  V30 2624 H 246.056 3.53581 3.78419 0
M  V30 2625 H 242.733 0.97001 4.06075 0
M  V30 2626 H 244.123 4.98744 4.50226 0
M  V30 2627 N 246.843 -1.10192 1.12674 0
M  V30 2628 C 247.773 -2.18652 0.819362 0
M  V30 2629 C 248.754 -1.68698 -0.217915 0
M  V30 2630 O 249.939 -1.94041 -0.0785581 0
M  V30 2631 C 247.069 -3.46202 0.27594 0
M  V30 2632 C 246.023 -4.09444 1.24656 0
M  V30 2633 C 245.349 -5.31725 0.563258 0
M  V30 2634 C 246.649 -4.52863 2.60217 0
M  V30 2635 H 248.343 -2.44622 1.72628 0
M  V30 2636 H 245.889 -1.17571 0.831451 0
M  V30 2637 H 247.842 -4.21372 0.0486149 0
M  V30 2638 H 246.566 -3.1973 -0.666331 0
M  V30 2639 H 245.225 -3.36284 1.45974 0
M  V30 2640 H 244.873 -5.0153 -0.384235 0
M  V30 2641 H 244.573 -5.74991 1.21075 0
M  V30 2642 H 246.097 -6.09624 0.34503 0
M  V30 2643 H 247.511 -5.19294 2.42913 0
M  V30 2644 H 245.908 -5.06986 3.21068 0
M  V30 2645 H 246.978 -3.65656 3.18471 0
M  V30 2646 N 248.321 -0.919034 -1.28029 0
M  V30 2647 C 249.598 -0.473668 -1.89778 0
M  V30 2648 C 249.978 1.04783 -1.83259 0
M  V30 2649 O 249.326 1.8982 -1.27202 0
M  V30 2650 C 249.536 -1.00998 -3.34066 0
M  V30 2651 C 250.884 -1.06525 -4.1102 0
M  V30 2652 O 251.908 -0.958996 -3.43048 0
M  V30 2653 O 250.767 -1.22776 -5.3253 0
M  V30 2654 H 247.861 -0.15098 -0.813101 0
M  V30 2655 H 250.407 -1.01016 -1.36359 0
M  V30 2656 H 249.179 -2.05392 -3.33061 0
M  V30 2657 H 248.802 -0.454626 -3.94992 0
M  V30 2658 N 249.799 1.42003 -0.683588 0
M  V30 2659 C 251.21 1.84501 -0.285736 0
M  V30 2660 C 251.561 1.57213 1.17382 0
M  V30 2661 O 250.686 1.03642 1.89966 0
M  V30 2662 C 251.281 3.34912 -0.511821 0
M  V30 2663 C 249.84 3.76025 -0.168005 0
M  V30 2664 C 248.987 2.6551 -0.799983 0
M  V30 2665 H 251.938 1.31724 -0.885119 0
M  V30 2666 H 251.959 3.79784 0.233292 0
M  V30 2667 H 251.471 3.54741 -1.57418 0
M  V30 2668 H 249.572 3.61801 0.890567 0
M  V30 2669 H 249.685 4.75141 -0.614661 0
M  V30 2670 H 248.049 2.53654 -0.230568 0
M  V30 2671 H 248.832 2.8816 -1.86597 0
M  V30 2672 N 251.277 0.427512 1.51691 0
M  V30 2673 C 252.505 -0.141191 2.06418 0
M  V30 2674 C 252.92 -1.37303 1.29589 0
M  V30 2675 O 252.277 -1.79059 0.352732 0
M  V30 2676 C 252.328 -0.473266 3.58389 0
M  V30 2677 O 252.049 0.709673 4.32314 0
M  V30 2678 C 253.55 -1.09371 4.29596 0
M  V30 2679 H 250.77 -0.0122747 0.670888 0
M  V30 2680 H 253.314 0.603764 1.95384 0
M  V30 2681 H 251.469 -1.16812 3.69369 0
M  V30 2682 H 251.883 0.42807 5.2275 0
M  V30 2683 H 253.357 -1.27613 5.37046 0
M  V30 2684 H 253.834 -2.072 3.87253 0
M  V30 2685 H 254.44 -0.43853 4.23033 0
M  V30 2686 N 252.755 -1.56801 0.158532 0
M  V30 2687 C 254.002 -1.9649 -0.489679 0
M  V30 2688 C 254.33 -1.04394 -1.6411 0
M  V30 2689 O 253.585 -0.0754401 -1.95555 0
M  V30 2690 C 253.884 -3.4235 -1.02623 0
M  V30 2691 C 253.55 -4.50899 0.00794526 0
M  V30 2692 C 252.212 -4.80312 0.292207 0
M  V30 2693 C 254.564 -5.16333 0.710584 0
M  V30 2694 C 251.892 -5.72461 1.28472 0
M  V30 2695 C 254.244 -6.09553 1.69199 0
M  V30 2696 C 252.908 -6.37339 1.98383 0
M  V30 2697 H 252.178 -0.719009 -0.179186 0
M  V30 2698 H 254.825 -1.8989 0.247798 0
M  V30 2699 H 253.13 -3.45838 -1.84128 0
M  V30 2700 H 254.827 -3.70393 -1.53656 0
M  V30 2701 H 251.417 -4.28015 -0.22379 0
M  V30 2702 H 255.601 -4.93732 0.504174 0
M  V30 2703 H 250.857 -5.92278 1.51714 0
M  V30 2704 H 255.031 -6.59327 2.24189 0
M  V30 2705 H 252.658 -7.08546 2.7544 0
M  V30 2706 N 254.233 0.115231 -1.57178 0
M  V30 2707 C 255.458 0.840354 -1.89612 0
M  V30 2708 C 255.883 1.72464 -0.750845 0
M  V30 2709 O 255.241 1.78826 0.298478 0
M  V30 2710 C 255.289 1.64654 -3.20814 0
M  V30 2711 O 254.393 2.7538 -3.06985 0
M  V30 2712 H 253.734 0.232158 -0.622092 0
M  V30 2713 H 256.264 0.0964977 -2.04372 0
M  V30 2714 H 256.274 2.03499 -3.53627 0
M  V30 2715 H 254.949 0.997416 -4.03763 0
M  V30 2716 H 253.526 2.3971 -2.85646 0
M  V30 2717 N 255.711 1.52812 0.385517 0
M  V30 2718 C 256.96 1.67249 1.12741 0
M  V30 2719 C 257.273 0.4205 1.91027 0
M  V30 2720 O 258.479 0.445064 2.67827 0
M  V30 2721 C 256.935 2.95583 2.05326 0
M  V30 2722 C 256.543 4.27974 1.32447 0
M  V30 2723 C 258.287 3.19386 2.7963 0
M  V30 2724 C 256.194 5.47412 2.23818 0
M  V30 2725 H 255.124 0.6231 0.424573 0
M  V30 2726 H 257.775 1.79309 0.389924 0
M  V30 2727 H 256.157 2.77277 2.82725 0
M  V30 2728 H 257.331 4.56844 0.602495 0
M  V30 2729 H 255.646 4.10459 0.700885 0
M  V30 2730 H 258.243 4.05801 3.48181 0
M  V30 2731 H 258.586 2.34604 3.43899 0
M  V30 2732 H 259.119 3.38274 2.09322 0
M  V30 2733 H 255.858 6.34612 1.64157 0
M  V30 2734 H 255.378 5.22849 2.93921 0
M  V30 2735 H 257.057 5.81423 2.83824 0
M  V30 2736 N 257.189 -0.644168 1.43834 0
M  V30 2737 C 258.6 -1.22554 1.40845 0
M  V30 2738 C 258.951 -1.9585 0.117115 0
M  V30 2739 O 258.076 -2.01734 -0.783086 0
M  V30 2740 C 258.671 -2.22907 2.55143 0
M  V30 2741 C 257.23 -2.76501 2.5539 0
M  V30 2742 C 256.377 -1.51287 2.32396 0
M  V30 2743 H 259.328 -0.43563 1.52604 0
M  V30 2744 H 259.349 -3.05259 2.2715 0
M  V30 2745 H 258.861 -1.69533 3.49114 0
M  V30 2746 H 256.962 -3.33914 1.65324 0
M  V30 2747 H 257.075 -3.23429 3.53455 0
M  V30 2748 H 255.439 -1.78957 1.81236 0
M  V30 2749 H 256.222 -0.998336 3.28463 0
M  V30 2750 N 258.668 -1.30515 -0.883378 0
M  V30 2751 C 259.6 -1.12846 -1.99496 0
M  V30 2752 C 260.613 -0.0712571 -1.62644 0
M  V30 2753 O 261.802 -0.317432 -1.75655 0
M  V30 2754 C 258.902 -0.699123 -3.3161 0
M  V30 2755 C 258.075 -1.83842 -3.96889 0
M  V30 2756 C 257.134 -1.39737 -5.07307 0
M  V30 2757 O 256.16 -2.10485 -5.28852 0
M  V30 2758 N 257.362 -0.277279 -5.79837 0
M  V30 2759 H 260.127 -2.08585 -2.15203 0
M  V30 2760 H 257.688 -1.22672 -1.05656 0
M  V30 2761 H 259.68 -0.387044 -4.02845 0
M  V30 2762 H 258.25 0.166276 -3.12157 0
M  V30 2763 H 257.47 -2.31853 -3.18807 0
M  V30 2764 H 258.758 -2.60187 -4.37241 0
M  V30 2765 H 258.156 0.3122 -5.64838 0
M  V30 2766 H 256.713 -0.0246623 -6.51795 0
M  V30 2767 N 260.146 1.09593 -1.13257 0
M  V30 2768 C 261.109 2.14359 -0.811358 0
M  V30 2769 C 262.109 1.59808 0.178377 0
M  V30 2770 O 263.299 1.74132 -0.0484911 0
M  V30 2771 C 260.431 3.40269 -0.207276 0
M  V30 2772 H 261.624 2.44284 -1.73969 0
M  V30 2773 H 259.177 1.25102 -0.936973 0
M  V30 2774 H 259.912 3.15969 0.73036 0
M  V30 2775 H 259.697 3.81154 -0.919992 0
M  V30 2776 H 261.187 4.176 0.000667944 0
M  V30 2777 N 261.624 0.925811 1.2754 0
M  V30 2778 C 262.572 0.413897 2.28888 0
M  V30 2779 C 263.566 -0.500779 1.61829 0
M  V30 2780 O 264.772 -0.38069 1.75928 0
M  V30 2781 H 261.147 0.115274 0.743112 0
M  V30 2782 H 263.118 1.28151 2.69481 0
M  V30 2783 C 261.867 -0.319792 3.46226 0
M  V30 2784 H 261.19 0.374846 3.98039 0
M  V30 2785 H 262.63 -0.642435 4.19105 0
M  V30 2786 C 261.089 -1.53209 3.00048 0
M  V30 2787 O 261.619 -2.6309 3.03557 0
M  V30 2788 N 259.825 -1.38326 2.55566 0
M  V30 2789 H 259.372 -0.489292 2.5291 0
M  V30 2790 H 259.33 -2.19564 2.25031 0
M  V30 2791 N 263.102 -1.41638 0.69111 0
M  V30 2792 C 264.052 -2.28 -0.000107832 0
M  V30 2793 C 265.036 -1.41964 -0.757304 0
M  V30 2794 O 266.228 -1.65274 -0.633532 0
M  V30 2795 C 263.357 -3.30209 -0.938983 0
M  V30 2796 C 262.443 -4.23725 -0.17827 0
M  V30 2797 N 262.834 -4.99017 0.825563 0
M  V30 2798 C 261.132 -4.44071 -0.414392 0
M  V30 2799 C 261.833 -5.67431 1.28052 0
M  V30 2800 N 260.809 -5.40197 0.607304 0
M  V30 2801 H 264.611 -2.83644 0.769617 0
M  V30 2802 H 262.125 -1.53797 0.521562 0
M  V30 2803 H 264.122 -3.90898 -1.44929 0
M  V30 2804 H 262.782 -2.76126 -1.70836 0
M  V30 2805 H 263.793 -5.03671 1.20566 0
M  V30 2806 H 260.47 -4.01004 -1.162 0
M  V30 2807 H 261.86 -6.37801 2.11327 0
M  V30 2808 N 264.58 -0.43555 -1.51462 0
M  V30 2809 C 265.805 0.132627 -2.06976 0
M  V30 2810 C 266.23 1.35848 -1.30104 0
M  V30 2811 O 265.588 1.78112 -0.338493 0
M  V30 2812 C 265.636 0.43523 -3.57964 0
M  V30 2813 O 264.74 1.52198 -3.83288 0
M  V30 2814 H 264.081 0.00265 -0.663995 0
M  V30 2815 H 266.611 -0.616369 -1.95095 0
M  V30 2816 H 266.621 0.686206 -4.02188 0
M  V30 2817 H 265.296 -0.460739 -4.1334 0
M  V30 2818 H 263.873 1.2611 -3.50928 0
M  V30 2819 N 266.058 1.56714 -0.166846 0
M  V30 2820 C 267.008 2.14338 0.777382 0
M  V30 2821 C 267.992 1.07642 1.19591 0
M  V30 2822 O 269.184 1.33775 1.15902 0
M  V30 2823 C 266.313 2.78417 2.00846 0
M  V30 2824 C 265.399 3.92264 1.61212 0
M  V30 2825 N 265.79 4.97268 0.925104 0
M  V30 2826 C 264.088 4.03342 1.90346 0
M  V30 2827 C 264.789 5.77093 0.730627 0
M  V30 2828 N 263.765 5.2854 1.27067 0
M  V30 2829 H 267.567 2.9289 0.243466 0
M  V30 2830 H 265.081 1.62364 0.0339954 0
M  V30 2831 H 267.078 3.18073 2.69509 0
M  V30 2832 H 265.738 2.01344 2.54736 0
M  V30 2833 H 266.749 5.14601 0.583646 0
M  V30 2834 H 263.426 3.37368 2.45946 0
M  V30 2835 H 264.816 6.71638 0.187668 0
M  V30 2836 N 267.536 -0.106894 1.57237 0
M  V30 2837 C 268.761 -0.830287 1.90055 0
M  V30 2838 C 269.186 -1.72064 0.75998 0
M  V30 2839 O 268.544 -1.78982 -0.288991 0
M  V30 2840 C 268.592 -1.6295 3.21683 0
M  V30 2841 O 267.696 -2.73748 3.08441 0
M  V30 2842 H 267.037 -0.228855 0.623315 0
M  V30 2843 H 269.567 -0.085658 2.04421 0
M  V30 2844 H 269.577 -2.01621 3.54701 0
M  V30 2845 H 268.252 -0.975989 4.04286 0
M  V30 2846 H 266.829 -2.38192 2.86913 0
M  V30 2847 N 269.014 -1.53014 -0.377408 0
M  V30 2848 C 270.262 -1.6829 -1.11906 0
M  V30 2849 C 270.583 -0.431206 -1.90173 0
M  V30 2850 O 269.853 0.554595 -1.87886 0
M  V30 2851 H 268.433 -0.620371 -0.416112 0
M  V30 2852 H 271.095 -1.90167 -0.426893 0
M  V30 2853 H 270.191 -2.53862 -1.8155 0
M  V30 2854 N 270.492 0.636531 -1.44174 0
M  V30 2855 C 271.769 1.39463 -1.37148 0
M  V30 2856 C 272.149 2.11082 -0.027507 0
M  V30 2857 O 271.497 2.05954 0.989716 0
M  V30 2858 C 271.707 2.36552 -2.56601 0
M  V30 2859 C 273.055 3.00048 -3.00427 0
M  V30 2860 O 274.079 2.46878 -2.56767 0
M  V30 2861 O 272.938 3.96488 -3.76111 0
M  V30 2862 H 270.032 0.623903 -0.542839 0
M  V30 2863 H 272.578 0.662039 -1.56253 0
M  V30 2864 H 271.35 1.82692 -3.46034 0
M  V30 2865 H 270.973 3.17236 -2.39681 0
M  V30 2866 N 271.97 1.30982 0.876444 0
M  V30 2867 C 273.2 1.23063 1.65949 0
M  V30 2868 C 273.608 -0.207537 1.88058 0
M  V30 2869 O 272.951 -1.14781 1.43426 0
M  V30 2870 C 273.013 1.89768 3.05333 0
M  V30 2871 C 272.677 3.39106 3.0636 0
M  V30 2872 C 273.674 4.3496 2.84791 0
M  V30 2873 C 271.359 3.80693 3.27686 0
M  V30 2874 C 273.353 5.70375 2.84519 0
M  V30 2875 C 271.04 5.16223 3.27043 0
M  V30 2876 C 272.038 6.10875 3.05485 0
M  V30 2877 O 271.726 7.43928 3.04674 0
M  V30 2878 H 271.458 0.426685 0.524324 0
M  V30 2879 H 274.012 1.7329 1.10271 0
M  V30 2880 H 272.242 1.34082 3.6271 0
M  V30 2881 H 273.931 1.75853 3.65829 0
M  V30 2882 H 274.697 4.0416 2.68103 0
M  V30 2883 H 270.576 3.07457 3.43499 0
M  V30 2884 H 274.12 6.44228 2.67611 0
M  V30 2885 H 270.017 5.4666 3.43269 0
M  V30 2886 H 270.785 7.53022 3.2078 0
M  V30 2887 N 273.449 -1.08991 1.13837 0
M  V30 2888 C 274.399 -2.1393 0.788535 0
M  V30 2889 C 275.383 -1.59396 -0.219516 0
M  V30 2890 O 276.575 -1.76985 -0.0227557 0
M  V30 2891 C 273.704 -3.42305 0.261147 0
M  V30 2892 C 272.79 -4.03736 1.29837 0
M  V30 2893 N 273.181 -4.39659 2.50067 0
M  V30 2894 C 271.479 -4.30993 1.1472 0
M  V30 2895 C 272.18 -4.88113 3.16419 0
M  V30 2896 N 271.156 -4.85846 2.43832 0
M  V30 2897 H 274.958 -2.39516 1.70322 0
M  V30 2898 H 272.472 -1.26263 1.02134 0
M  V30 2899 H 274.469 -4.16899 -0.0077405 0
M  V30 2900 H 273.129 -3.18172 -0.647805 0
M  V30 2901 H 274.14 -4.30878 2.8734 0
M  V30 2902 H 270.817 -4.16444 0.296773 0
M  V30 2903 H 272.207 -5.25336 4.18894 0
M  V30 2904 N 274.927 -0.932562 -1.27047 0
M  V30 2905 C 276.167 -0.582919 -1.95912 0
M  V30 2906 C 276.531 0.860629 -1.71631 0
M  V30 2907 O 277.732 1.31878 -2.34225 0
M  V30 2908 C 276.003 -0.905673 -3.45734 0
M  V30 2909 S 277.562 -0.665277 -4.33727 0
M  V30 2910 H 274.38 -0.215 -0.677714 0
M  V30 2911 H 276.982 -1.20204 -1.54179 0
M  V30 2912 H 275.686 -1.95386 -3.60905 0
M  V30 2913 H 275.217 -0.275939 -3.92431 0
M  V30 2914 H 277.232 0.474635 -4.93925 0
M  V30 2915 N 276.405 1.4127 -0.698611 0
M  V30 2916 C 277.633 2.05503 -0.239992 0
M  V30 2917 C 278.048 1.52584 1.11191 0
M  V30 2918 O 277.405 0.675323 1.69545 0
M  V30 2919 C 277.456 3.60987 -0.192429 0
M  V30 2920 O 277.177 4.1195 -1.49094 0
M  V30 2921 C 278.678 4.42371 0.28681 0
M  V30 2922 H 275.898 0.661748 -0.111045 0
M  V30 2923 H 278.442 1.80987 -0.95205 0
M  V30 2924 H 276.597 3.84533 0.470472 0
M  V30 2925 H 277.011 5.06018 -1.38007 0
M  V30 2926 H 278.485 5.51344 0.26896 0
M  V30 2927 H 278.962 4.18699 1.32619 0
M  V30 2928 H 279.568 4.23897 -0.345201 0
M  V30 2929 N 277.883 0.443576 1.51229 0
M  V30 2930 C 279.131 -0.120557 2.0174 0
M  V30 2931 C 279.452 -1.42665 1.32935 0
M  V30 2932 O 278.722 -1.9028 0.465866 0
M  V30 2933 H 277.302 -0.0475426 0.745486 0
M  V30 2934 H 279.964 0.587711 1.85828 0
M  V30 2935 H 279.06 -0.291972 3.10731 0
M  V30 2936 N 279.361 -1.56624 0.175154 0
M  V30 2937 C 280.309 -2.19468 -0.770495 0
M  V30 2938 C 281.303 -1.15985 -1.23466 0
M  V30 2939 O 282.509 -1.34176 -1.19987 0
M  V30 2940 H 278.884 -0.703095 -0.266761 0
M  V30 2941 H 280.855 -2.97613 -0.216542 0
M  V30 2942 C 279.604 -2.85264 -1.98796 0
M  V30 2943 H 278.927 -3.64623 -1.63983 0
M  V30 2944 H 280.367 -3.327 -2.62843 0
M  V30 2945 C 278.826 -1.85239 -2.81404 0
M  V30 2946 O 279.356 -1.34024 -3.78682 0
M  V30 2947 N 277.562 -1.53911 -2.46495 0
M  V30 2948 H 277.109 -1.95751 -1.67449 0
M  V30 2949 H 277.067 -0.872382 -3.02054 0
M  V30 2950 N 280.839 0.0985539 -1.57292 0
M  V30 2951 C 282.088 0.801358 -1.85098 0
M  V30 2952 C 282.401 1.80066 -0.763902 0
M  V30 2953 O 283.607 2.55112 -0.928981 0
M  V30 2954 C 282.063 1.47599 -3.28242 0
M  V30 2955 C 281.671 0.516624 -4.45011 0
M  V30 2956 C 283.415 2.16272 -3.65276 0
M  V30 2957 C 281.322 1.19564 -5.79188 0
M  V30 2958 H 280.252 0.303022 -0.69043 0
M  V30 2959 H 282.903 0.0542623 -1.8342 0
M  V30 2960 H 281.285 2.27042 -3.2445 0
M  V30 2961 H 282.459 -0.246065 -4.60143 0
M  V30 2962 H 280.774 -0.064227 -4.1635 0
M  V30 2963 H 283.371 2.67802 -4.62803 0
M  V30 2964 H 283.714 2.95009 -2.93727 0
M  V30 2965 H 284.247 1.43693 -3.70941 0
M  V30 2966 H 280.986 0.449157 -6.53959 0
M  V30 2967 H 280.506 1.92984 -5.67906 0
M  V30 2968 H 282.185 1.7231 -6.23633 0
M  V30 2969 N 282.317 1.53212 0.369288 0
M  V30 2970 C 283.565 1.68881 1.11012 0
M  V30 2971 C 283.886 0.441285 1.89941 0
M  V30 2972 O 283.156 -0.544623 1.88177 0
M  V30 2973 H 281.736 0.622569 0.412816 0
M  V30 2974 H 284.398 1.90391 0.416802 0
M  V30 2975 H 283.494 2.54822 1.80201 0
M  V30 2976 N 283.795 -0.628877 1.44509 0
M  V30 2977 C 285.025 -1.41349 1.50678 0
M  V30 2978 C 285.433 -1.88745 0.131075 0
M  V30 2979 O 284.776 -1.61592 -0.87371 0
M  V30 2980 C 284.838 -2.66608 2.41165 0
M  V30 2981 C 284.502 -2.40993 3.88293 0
M  V30 2982 C 285.499 -2.0268 4.78766 0
M  V30 2983 C 283.184 -2.54563 4.33016 0
M  V30 2984 C 285.178 -1.78269 6.11963 0
M  V30 2985 C 282.865 -2.29766 5.6626 0
M  V30 2986 C 283.863 -1.91678 6.55552 0
M  V30 2987 O 283.551 -1.67158 7.86329 0
M  V30 2988 H 283.283 -0.439851 0.51333 0
M  V30 2989 H 285.837 -0.776084 1.90174 0
M  V30 2990 H 284.067 -3.32994 1.96601 0
M  V30 2991 H 285.756 -3.28615 2.38259 0
M  V30 2992 H 286.522 -1.91751 4.45485 0
M  V30 2993 H 282.401 -2.83179 3.63773 0
M  V30 2994 H 285.945 -1.48465 6.81619 0
M  V30 2995 H 281.842 -2.40306 5.99102 0
M  V30 2996 H 282.61 -1.81386 7.98149 0
M  V30 2997 N 285.273 -1.31445 -0.869486 0
M  V30 2998 C 286.501 -1.24122 -1.65534 0
M  V30 2999 C 286.916 0.193387 -1.87807 0
M  V30 3000 O 286.273 1.12557 -1.43656 0
M  V30 3001 C 286.324 -1.98229 -3.02304 0
M  V30 3002 O 286.045 -3.3609 -2.81026 0
M  V30 3003 C 287.546 -1.97751 -3.96749 0
M  V30 3004 H 284.766 -0.428868 -0.516055 0
M  V30 3005 H 287.31 -1.73328 -1.08525 0
M  V30 3006 H 285.465 -1.52782 -3.56001 0
M  V30 3007 H 285.879 -3.7383 -3.67902 0
M  V30 3008 H 287.353 -2.54114 -4.90031 0
M  V30 3009 H 287.83 -0.960137 -4.28577 0
M  V30 3010 H 288.436 -2.43079 -3.48988 0
M  V30 3011 N 286.751 1.08385 -1.14413 0
M  V30 3012 C 287.681 2.17321 -0.854044 0
M  V30 3013 C 288.662 1.69024 0.191049 0
M  V30 3014 O 289.847 1.94141 0.0476779 0
M  V30 3015 C 286.977 3.45719 -0.330983 0
M  V30 3016 C 285.931 4.07409 -1.31155 0
M  V30 3017 C 285.257 5.30762 -0.64778 0
M  V30 3018 C 286.557 4.48665 -2.67388 0
M  V30 3019 H 288.251 2.41845 -1.76498 0
M  V30 3020 H 285.797 1.16233 -0.850051 0
M  V30 3021 H 287.75 4.21241 -0.115645 0
M  V30 3022 H 286.474 3.2075 0.615381 0
M  V30 3023 H 285.133 3.33919 -1.51306 0
M  V30 3024 H 284.781 5.02078 0.304398 0
M  V30 3025 H 284.481 5.72992 -1.30207 0
M  V30 3026 H 286.005 6.08998 -0.441972 0
M  V30 3027 H 287.419 5.15364 -2.51143 0
M  V30 3028 H 285.816 5.01814 -3.29093 0
M  V30 3029 H 286.886 3.60543 -3.24248 0
M  V30 3030 N 288.23 0.939286 1.26551 0
M  V30 3031 C 289.477 0.585847 1.9384 0
M  V30 3032 C 289.805 -0.874784 1.73718 0
M  V30 3033 O 289.06 -1.64092 1.06642 0
M  V30 3034 C 289.359 0.872106 3.46596 0
M  V30 3035 C 289.025 2.31632 3.86856 0
M  V30 3036 C 287.687 2.71111 3.97558 0
M  V30 3037 C 290.039 3.25494 4.07066 0
M  V30 3038 C 287.367 4.03553 4.25866 0
M  V30 3039 C 289.719 4.57531 4.36862 0
M  V30 3040 C 288.383 4.96828 4.45778 0
M  V30 3041 H 287.653 0.214377 0.709312 0
M  V30 3042 H 290.3 1.18544 1.50398 0
M  V30 3043 H 288.605 0.18996 3.91339 0
M  V30 3044 H 290.302 0.577442 3.96821 0
M  V30 3045 H 286.892 2.00008 3.79071 0
M  V30 3046 H 291.076 2.9619 3.98227 0
M  V30 3047 H 286.332 4.33665 4.30981 0
M  V30 3048 H 290.506 5.30254 4.51446 0
M  V30 3049 H 288.133 5.99482 4.67468 0
M  V30 3050 N 289.708 -1.40897 0.706093 0
M  V30 3051 C 290.933 -2.05895 0.249435 0
M  V30 3052 C 291.358 -1.52823 -1.09666 0
M  V30 3053 O 290.716 -0.659589 -1.68876 0
M  V30 3054 C 290.764 -3.59872 0.22904 0
M  V30 3055 O 289.868 -4.04708 -0.792784 0
M  V30 3056 H 289.209 -0.653206 0.119241 0
M  V30 3057 H 291.739 -1.80471 0.96391 0
M  V30 3058 H 291.749 -4.07951 0.0634791 0
M  V30 3059 H 290.424 -3.97866 1.21141 0
M  V30 3060 H 289.001 -3.68111 -0.59572 0
M  V30 3061 N 291.186 -0.45159 -1.50991 0
M  V30 3062 C 292.411 0.110667 -2.07105 0
M  V30 3063 C 292.836 1.3446 -1.31538 0
M  V30 3064 O 292.194 1.77743 -0.357365 0
M  V30 3065 C 292.242 0.397238 -3.58405 0
M  V30 3066 O 291.346 1.48124 -3.84881 0
M  V30 3067 H 290.687 -0.00439271 -0.663985 0
M  V30 3068 H 293.217 -0.637026 -1.9443 0
M  V30 3069 H 293.227 0.64351 -4.02893 0
M  V30 3070 H 291.902 -0.504553 -4.12828 0
M  V30 3071 H 290.479 1.22381 -3.52246 0
M  V30 3072 N 292.664 1.56529 -0.183458 0
M  V30 3073 C 293.611 2.18546 0.742055 0
M  V30 3074 C 294.581 1.12912 1.2182 0
M  V30 3075 O 295.766 1.41115 1.28418 0
M  V30 3076 C 292.906 2.83977 1.96089 0
M  V30 3077 C 292.019 4.04105 1.52719 0
M  V30 3078 C 291.154 4.57427 2.70063 0
M  V30 3079 C 290.193 5.69938 2.23243 0
M  V30 3080 N 289.33 6.17717 3.33722 0
M  V30 3081 H 294.17 2.97284 0.206432 0
M  V30 3082 H 291.707 1.46823 0.0901571 0
M  V30 3083 H 293.665 3.20077 2.67594 0
M  V30 3084 H 292.295 2.07822 2.47002 0
M  V30 3085 H 291.347 3.73745 0.708436 0
M  V30 3086 H 292.659 4.85513 1.1436 0
M  V30 3087 H 291.813 4.95772 3.49708 0
M  V30 3088 H 290.552 3.75101 3.11689 0
M  V30 3089 H 289.557 5.31133 1.42048 0
M  V30 3090 H 290.782 6.54073 1.82661 0
M  V30 3091 H 288.728 5.38317 3.74902 0
M  V30 3092 H 288.645 6.94146 2.99495 0
M  V30 3093 H 289.913 6.60713 4.13616 0
M  V30 3094 N 294.142 -0.090211 1.57342 0
M  V30 3095 C 295.553 -0.644173 1.75235 0
M  V30 3096 C 295.904 -1.78865 0.806335 0
M  V30 3097 O 295.029 -2.16395 -0.0140128 0
M  V30 3098 C 295.624 -1.17532 3.1776 0
M  V30 3099 C 294.183 -1.67531 3.37061 0
M  V30 3100 C 293.33 -0.58693 2.71017 0
M  V30 3101 H 296.281 0.135884 1.58117 0
M  V30 3102 H 296.302 -2.04455 3.20902 0
M  V30 3103 H 295.814 -0.342138 3.86589 0
M  V30 3104 H 293.915 -2.53234 2.73319 0
M  V30 3105 H 294.028 -1.76493 4.45406 0
M  V30 3106 H 292.392 -1.02756 2.33052 0
M  V30 3107 H 293.175 0.235758 3.4249 0
M  V30 3108 N 295.62 -1.53406 -0.361157 0
M  V30 3109 C 296.866 -1.70054 -1.10496 0
M  V30 3110 C 297.199 -0.453278 -1.88836 0
M  V30 3111 O 296.474 0.5495 -1.86576 0
M  V30 3112 C 296.757 -2.95317 -2.06058 0
M  V30 3113 C 296.61 -4.3021 -1.31298 0
M  V30 3114 C 297.929 -3.16193 -3.06121 0
M  V30 3115 H 295.048 -0.618799 -0.400321 0
M  V30 3116 H 297.69 -1.86052 -0.385318 0
M  V30 3117 H 295.84 -2.81809 -2.67425 0
M  V30 3118 H 297.512 -4.55538 -0.726807 0
M  V30 3119 H 295.755 -4.29421 -0.614853 0
M  V30 3120 H 296.426 -5.14 -2.01265 0
M  V30 3121 H 298.902 -3.28916 -2.5486 0
M  V30 3122 H 297.778 -4.05266 -3.70204 0
M  V30 3123 H 298.039 -2.31676 -3.76535 0
M  V30 3124 N 297.098 0.621204 -1.44841 0
M  V30 3125 C 298.326 1.40752 -1.51646 0
M  V30 3126 C 298.741 1.88246 -0.144549 0
M  V30 3127 O 298.098 1.61422 0.851416 0
M  V30 3128 C 298.149 2.62119 -2.4895 0
M  V30 3129 O 297.87 2.16602 -3.80808 0
M  V30 3130 C 299.371 3.55135 -2.65319 0
M  V30 3131 H 296.591 0.431325 -0.514004 0
M  V30 3132 H 299.135 0.758835 -1.899 0
M  V30 3133 H 297.29 3.23058 -2.13805 0
M  V30 3134 H 297.704 2.95358 -4.33433 0
M  V30 3135 H 299.178 4.36874 -3.37409 0
M  V30 3136 H 299.655 4.04592 -1.70886 0
M  V30 3137 H 300.261 3.00058 -3.01405 0
M  V30 3138 N 298.576 1.31904 0.862503 0
M  V30 3139 C 299.825 1.21373 1.61094 0
M  V30 3140 C 300.138 -0.22504 1.94301 0
M  V30 3141 O 301.344 -0.452121 2.67709 0
M  V30 3142 C 299.8 2.12525 2.9045 0
M  V30 3143 C 299.408 3.61441 2.64697 0
M  V30 3144 C 301.152 2.10813 3.68454 0
M  V30 3145 C 299.059 4.44578 3.90006 0
M  V30 3146 H 297.989 0.450705 0.604468 0
M  V30 3147 H 300.64 1.56811 0.953027 0
M  V30 3148 H 299.022 1.69994 3.57656 0
M  V30 3149 H 300.196 4.12264 2.05851 0
M  V30 3150 H 298.511 3.65205 2.00036 0
M  V30 3151 H 301.108 2.70167 4.61426 0
M  V30 3152 H 301.451 1.09713 4.01583 0
M  V30 3153 H 301.984 2.51583 3.08141 0
M  V30 3154 H 298.723 5.46461 3.62023 0
M  V30 3155 H 298.243 3.98508 4.48276 0
M  V30 3156 H 299.922 4.57176 4.5782 0
M  V30 3157 N 300.054 -1.07777 1.14986 0
M  V30 3158 C 301.282 -1.84018 0.945773 0
M  V30 3159 C 301.697 -1.81897 -0.505863 0
M  V30 3160 O 301.054 -1.22726 -1.35072 0
M  V30 3161 C 301.105 -3.31287 1.44677 0
M  V30 3162 O 300.826 -3.33449 2.84154 0
M  V30 3163 C 302.327 -4.24311 1.28355 0
M  V30 3164 H 299.547 -0.580716 0.336169 0
M  V30 3165 H 302.091 -1.36077 1.52654 0
M  V30 3166 H 300.246 -3.76594 0.908625 0
M  V30 3167 H 300.66 -4.25427 3.06777 0
M  V30 3168 H 302.134 -5.2573 1.68261 0
M  V30 3169 H 302.611 -4.38612 0.227184 0
M  V30 3170 H 303.217 -3.84836 1.81056 0
M  V30 3171 N 301.532 -0.945985 -1.26051 0
M  V30 3172 C 302.778 -0.597002 -1.93814 0
M  V30 3173 C 303.111 0.862484 -1.73997 0
M  V30 3174 O 302.386 1.61769 -1.07986 0
M  V30 3175 C 302.669 -0.945937 -3.47454 0
M  V30 3176 C 302.522 -2.46052 -3.76535 0
M  V30 3177 C 303.841 -0.464785 -4.37639 0
M  V30 3178 H 300.96 -0.218366 -0.703907 0
M  V30 3179 H 303.602 -1.18107 -1.48831 0
M  V30 3180 H 301.752 -0.448902 -3.85898 0
M  V30 3181 H 303.424 -3.03065 -3.47778 0
M  V30 3182 H 301.667 -2.90194 -3.22444 0
M  V30 3183 H 302.338 -2.65517 -4.83947 0
M  V30 3184 H 304.814 -0.891016 -4.06448 0
M  V30 3185 H 303.69 -0.737712 -5.4392 0
M  V30 3186 H 303.951 0.635274 -4.37512 0
M  V30 3187 N 303.011 1.40521 -0.713556 0
M  V30 3188 C 303.943 2.29191 -0.0203126 0
M  V30 3189 C 304.956 1.45723 0.725864 0
M  V30 3190 O 306.145 1.69033 0.573581 0
M  V30 3191 C 303.245 3.2395 0.995486 0
M  V30 3192 C 302.418 4.36262 0.315256 0
M  V30 3193 C 301.477 5.11474 1.23616 0
M  V30 3194 O 300.503 5.64606 0.721719 0
M  V30 3195 N 301.705 5.20638 2.56743 0
M  V30 3196 H 304.47 2.89327 -0.781652 0
M  V30 3197 H 302.031 1.51869 -0.561022 0
M  V30 3198 H 304.023 3.71137 1.61368 0
M  V30 3199 H 302.593 2.64995 1.6582 0
M  V30 3200 H 301.813 3.91228 -0.483106 0
M  V30 3201 H 303.101 5.08558 -0.157004 0
M  V30 3202 H 302.499 4.7895 3.01037 0
M  V30 3203 H 301.056 5.71339 3.13712 0
M  V30 3204 N 304.489 0.459591 1.5075 0
M  V30 3205 C 305.735 -0.0994966 2.02556 0
M  V30 3206 C 306.068 -1.40399 1.3417 0
M  V30 3207 O 305.343 -1.88892 0.463683 0
M  V30 3208 C 305.626 -0.295242 3.58888 0
M  V30 3209 C 305.479 1.02947 4.37861 0
M  V30 3210 C 306.798 -1.05502 4.27267 0
M  V30 3211 H 303.917 -0.034686 0.736183 0
M  V30 3212 H 306.559 0.602938 1.8018 0
M  V30 3213 H 304.709 -0.893563 3.78084 0
M  V30 3214 H 306.381 1.66348 4.30263 0
M  V30 3215 H 304.624 1.62885 4.02058 0
M  V30 3216 H 305.295 0.846281 5.45474 0
M  V30 3217 H 307.771 -0.547993 4.12476 0
M  V30 3218 H 306.647 -1.16077 5.36486 0
M  V30 3219 H 306.908 -2.08875 3.89645 0
M  V30 3220 N 305.967 -1.56429 0.191757 0
M  V30 3221 C 307.378 -1.83912 -0.321428 0
M  V30 3222 C 307.729 -1.11231 -1.61623 0
M  V30 3223 O 306.854 -0.37202 -2.13178 0
M  V30 3224 C 307.449 -3.33624 -0.589961 0
M  V30 3225 C 306.008 -3.6153 -1.04753 0
M  V30 3226 C 305.155 -2.7714 -0.0943327 0
M  V30 3227 H 308.106 -1.53161 0.415612 0
M  V30 3228 H 308.127 -3.52213 -1.43966 0
M  V30 3229 H 307.639 -3.86495 0.352588 0
M  V30 3230 H 305.74 -3.14089 -2.00447 0
M  V30 3231 H 305.853 -4.69737 -0.942549 0
M  V30 3232 H 304.217 -2.47638 -0.595589 0
M  V30 3233 H 305 -3.32799 0.842601 0
M  V30 3234 N 307.445 0.0818655 -1.57387 0
M  V30 3235 C 308.67 0.799946 -1.91352 0
M  V30 3236 C 309.095 1.70833 -0.787258 0
M  V30 3237 O 308.453 1.79419 0.26048 0
M  V30 3238 C 308.501 1.57812 -3.24234 0
M  V30 3239 O 307.605 2.68806 -3.12757 0
M  V30 3240 H 306.946 0.21891 -0.626877 0
M  V30 3241 H 309.476 0.0531256 -2.04531 0
M  V30 3242 H 309.486 1.95952 -3.57864 0
M  V30 3243 H 308.161 0.911548 -4.05788 0
M  V30 3244 H 306.738 2.33597 -2.90666 0
M  V30 3245 N 308.923 1.53595 0.353017 0
M  V30 3246 C 309.856 1.7572 1.45594 0
M  V30 3247 C 310.834 0.605961 1.50887 0
M  V30 3248 O 312.018 0.840023 1.68748 0
M  V30 3249 C 309.145 1.84732 2.83887 0
M  V30 3250 C 308.191 3.06808 2.96262 0
M  V30 3251 S 309.024 4.66065 2.63711 0
M  V30 3252 C 310.18 4.77943 4.04131 0
M  V30 3253 H 310.413 2.68994 1.26608 0
M  V30 3254 H 307.946 1.44343 0.548117 0
M  V30 3255 H 309.904 1.9061 3.63563 0
M  V30 3256 H 308.565 0.92488 3.00175 0
M  V30 3257 H 307.758 3.09761 3.97573 0
M  V30 3258 H 307.36 2.99108 2.24523 0
M  V30 3259 H 309.652 4.5877 4.98534 0
M  V30 3260 H 310.595 5.80022 4.06177 0
M  V30 3261 H 311.003 4.06472 3.91715 0
M  V30 3262 N 310.401 -0.613514 1.45168 0
M  V30 3263 C 311.649 -1.36997 1.48581 0
M  V30 3264 C 311.97 -1.94589 0.126545 0
M  V30 3265 O 311.24 -1.76816 -0.843372 0
M  V30 3266 H 309.82 -0.508558 0.547154 0
M  V30 3267 H 312.482 -0.720853 1.81079 0
M  V30 3268 H 311.578 -2.1924 2.22127 0
M  V30 3269 N 311.879 -1.3236 -0.855495 0
M  V30 3270 C 313.104 -1.2601 -1.64731 0
M  V30 3271 C 313.529 0.169068 -1.87339 0
M  V30 3272 O 312.887 1.12016 -1.42556 0
M  V30 3273 C 312.935 -2.02417 -2.98429 0
M  V30 3274 O 312.039 -1.3714 -3.8893 0
M  V30 3275 H 311.38 -0.434325 -0.502253 0
M  V30 3276 H 313.91 -1.74661 -1.06558 0
M  V30 3277 H 313.92 -2.12559 -3.48257 0
M  V30 3278 H 312.595 -3.06343 -2.81295 0
M  V30 3279 H 311.172 -1.3554 -3.47395 0
M  V30 3280 N 313.357 1.07166 -1.15556 0
M  V30 3281 C 314.582 1.84053 -0.955988 0
M  V30 3282 C 315.007 1.81586 0.490739 0
M  V30 3283 O 314.365 1.21018 1.34997 0
M  V30 3284 C 314.413 3.28957 -1.47714 0
M  V30 3285 O 313.517 4.06795 -0.677593 0
M  V30 3286 H 312.858 0.569842 -0.340847 0
M  V30 3287 H 315.388 1.35178 -1.53584 0
M  V30 3288 H 315.398 3.79788 -1.4908 0
M  V30 3289 H 314.073 3.30068 -2.53037 0
M  V30 3290 H 312.65 3.6561 -0.733721 0
M  V30 3291 N 314.835 0.952656 1.25548 0
M  V30 3292 C 316.06 0.623025 1.97821 0
M  V30 3293 C 316.485 -0.7976 1.70352 0
M  V30 3294 O 315.843 -1.53905 0.958283 0
M  V30 3295 C 315.891 0.885532 3.49558 0
M  V30 3296 O 314.995 -0.0366641 4.12384 0
M  V30 3297 H 314.336 0.237082 0.620232 0
M  V30 3298 H 316.866 1.27871 1.59719 0
M  V30 3299 H 316.876 0.811009 3.99858 0
M  V30 3300 H 315.551 1.92094 3.6888 0
M  V30 3301 H 314.128 0.0898954 3.72792 0
M  V30 3302 N 316.313 -1.40141 0.720998 0
M  V30 3303 C 317.724 -1.83678 0.334553 0
M  V30 3304 C 318.075 -1.6027 -1.13173 0
M  V30 3305 O 317.2 -1.08643 -1.87152 0
M  V30 3306 C 317.795 -3.33437 0.600437 0
M  V30 3307 C 316.354 -3.75447 0.267642 0
M  V30 3308 C 315.501 -2.63296 0.870097 0
M  V30 3309 H 318.452 -1.29331 0.919732 0
M  V30 3310 H 318.473 -3.80269 -0.132517 0
M  V30 3311 H 317.985 -3.50442 1.66768 0
M  V30 3312 H 316.086 -3.64035 -0.794329 0
M  V30 3313 H 316.199 -4.73344 0.74042 0
M  V30 3314 H 314.563 -2.52954 0.297739 0
M  V30 3315 H 315.346 -2.83112 1.94172 0
M  V30 3316 N 317.792 -0.46758 -1.50504 0
M  V30 3317 C 318.725 0.374324 -2.25109 0
M  V30 3318 C 319.703 0.99921 -1.28275 0
M  V30 3319 O 320.887 1.03583 -1.57489 0
M  V30 3320 C 318.014 1.52419 -3.02467 0
M  V30 3321 C 317.06 1.01702 -4.14197 0
M  V30 3322 S 317.893 -0.0654477 -5.3546 0
M  V30 3323 C 319.049 1.08837 -6.16365 0
M  V30 3324 H 319.282 -0.258983 -2.9617 0
M  V30 3325 H 316.815 -0.252421 -1.52323 0
M  V30 3326 H 318.773 2.18322 -3.47628 0
M  V30 3327 H 317.434 2.129 -2.30938 0
M  V30 3328 H 316.627 1.87776 -4.67714 0
M  V30 3329 H 316.229 0.435757 -3.71453 0
M  V30 3330 H 318.521 2.00071 -6.47285 0
M  V30 3331 H 319.464 0.592538 -7.05616 0
M  V30 3332 H 319.872 1.34061 -5.4835 0
M  V30 3333 N 319.27 1.56325 -0.20005 0
M  V30 3334 C 320.518 1.97329 0.436547 0
M  V30 3335 C 320.839 1.08826 1.61808 0
M  V30 3336 O 320.109 0.160604 1.95241 0
M  V30 3337 H 318.689 0.728714 0.164272 0
M  V30 3338 H 321.351 1.92761 -0.287937 0
M  V30 3339 H 320.447 3.02264 0.777353 0
M  V30 3340 N 320.748 -0.0735177 1.57428 0
M  V30 3341 C 321.997 -0.771809 1.86349 0
M  V30 3342 C 322.31 -1.78828 0.792452 0
M  V30 3343 O 323.516 -2.53602 0.96945 0
M  V30 3344 C 321.972 -1.42358 3.30548 0
M  V30 3345 C 321.58 -0.445761 4.45777 0
M  V30 3346 C 323.324 -2.10434 3.6867 0
M  V30 3347 C 321.231 -1.10335 5.81016 0
M  V30 3348 H 320.161 -0.291999 0.695164 0
M  V30 3349 H 322.812 -0.0250749 1.83483 0
M  V30 3350 H 321.194 -2.21852 3.28021 0
M  V30 3351 H 322.368 0.319239 4.59693 0
M  V30 3352 H 320.683 0.130457 4.16196 0
M  V30 3353 H 323.28 -2.60405 4.67004 0
M  V30 3354 H 323.623 -2.90298 2.98383 0
M  V30 3355 H 324.156 -1.37773 3.7318 0
M  V30 3356 H 320.895 -0.345061 6.54591 0
M  V30 3357 H 320.415 -1.83925 5.70904 0
M  V30 3358 H 322.094 -1.62367 6.26295 0
M  V30 3359 N 322.226 -1.5378 -0.344866 0
M  V30 3360 C 323.475 -1.7018 -1.08267 0
M  V30 3361 C 323.788 -0.471 -1.89845 0
M  V30 3362 O 324.994 -0.515917 -2.66553 0
M  V30 3363 C 323.45 -3.00923 -1.97417 0
M  V30 3364 C 323.058 -4.31335 -1.21053 0
M  V30 3365 C 324.802 -3.26688 -2.71063 0
M  V30 3366 C 322.709 -5.53153 -2.09225 0
M  V30 3367 H 321.639 -0.634138 -0.407903 0
M  V30 3368 H 324.29 -1.8028 -0.342246 0
M  V30 3369 H 322.672 -2.84676 -2.75274 0
M  V30 3370 H 323.846 -4.58281 -0.481159 0
M  V30 3371 H 322.161 -4.12173 -0.591813 0
M  V30 3372 H 324.758 -4.1489 -3.37299 0
M  V30 3373 H 325.101 -2.43639 -3.37558 0
M  V30 3374 H 325.634 -3.43705 -2.0028 0
M  V30 3375 H 322.373 -6.38741 -1.47274 0
M  V30 3376 H 321.893 -5.30458 -2.79955 0
M  V30 3377 H 323.572 -5.88744 -2.68308 0
M  V30 3378 N 323.704 0.605807 -1.45491 0
M  V30 3379 C 324.95 1.36679 -1.49823 0
M  V30 3380 C 325.283 1.93693 -0.140175 0
M  V30 3381 O 324.558 1.75158 0.845581 0
M  V30 3382 C 324.841 2.51337 -2.57879 0
M  V30 3383 C 324.694 1.99508 -4.03134 0
M  V30 3384 C 326.013 3.53463 -2.62205 0
M  V30 3385 H 323.132 0.495617 -0.545466 0
M  V30 3386 H 325.774 0.682732 -1.7731 0
M  V30 3387 H 323.924 3.09691 -2.34571 0
M  V30 3388 H 325.596 1.45789 -4.37656 0
M  V30 3389 H 323.839 1.30496 -4.13707 0
M  V30 3390 H 324.51 2.82169 -4.74431 0
M  V30 3391 H 326.986 3.04953 -2.83095 0
M  V30 3392 H 325.862 4.31178 -3.39672 0
M  V30 3393 H 326.123 4.09197 -1.67363 0
M  V30 3394 N 325.182 1.32811 0.848464 0
M  V30 3395 C 326.145 1.22194 1.9391 0
M  V30 3396 C 327.145 0.143404 1.60159 0
M  V30 3397 O 328.335 0.394253 1.6968 0
M  V30 3398 C 325.467 0.88067 3.29328 0
M  V30 3399 H 326.66 2.19127 2.04752 0
M  V30 3400 H 324.213 1.16731 1.0394 0
M  V30 3401 H 324.948 -0.0865776 3.24184 0
M  V30 3402 H 324.733 1.66052 3.55203 0
M  V30 3403 H 326.223 0.830871 4.09251 0
M  V30 3404 N 326.66 -1.06551 1.16123 0
M  V30 3405 C 327.906 -1.79567 0.94252 0
M  V30 3406 C 328.239 -1.86869 -0.528547 0
M  V30 3407 O 327.514 -1.35838 -1.39206 0
M  V30 3408 C 327.797 -3.24195 1.56747 0
M  V30 3409 C 327.65 -3.24989 3.10969 0
M  V30 3410 C 328.969 -4.21678 1.25998 0
M  V30 3411 H 326.088 -0.651883 0.343828 0
M  V30 3412 H 328.73 -1.2463 1.43413 0
M  V30 3413 H 326.88 -3.71107 1.14942 0
M  V30 3414 H 328.552 -2.86258 3.61737 0
M  V30 3415 H 326.795 -2.63716 3.44436 0
M  V30 3416 H 327.466 -4.27005 3.49815 0
M  V30 3417 H 329.942 -3.83196 1.62174 0
M  V30 3418 H 328.818 -5.21146 1.7233 0
M  V30 3419 H 329.079 -4.4174 0.178367 0
M  V30 3420 N 328.138 -0.959301 -1.25041 0
M  V30 3421 C 329.384 -0.617525 -1.9317 0
M  V30 3422 C 329.717 0.843981 -1.74902 0
M  V30 3423 O 328.992 1.60615 -1.09696 0
M  V30 3424 C 329.275 -0.982736 -3.46431 0
M  V30 3425 C 329.128 -2.50032 -3.73904 0
M  V30 3426 C 330.447 -0.511176 -4.37121 0
M  V30 3427 H 327.566 -0.22582 -0.701552 0
M  V30 3428 H 330.208 -1.19679 -1.4757 0
M  V30 3429 H 328.358 -0.489806 -3.854 0
M  V30 3430 H 330.03 -3.06737 -3.44544 0
M  V30 3431 H 328.273 -2.93598 -3.19348 0
M  V30 3432 H 328.944 -2.70635 -4.81103 0
M  V30 3433 H 331.42 -0.934075 -4.0548 0
M  V30 3434 H 330.296 -0.795361 -5.43107 0
M  V30 3435 H 330.557 0.588834 -4.38161 0
M  V30 3436 N 329.616 1.39756 -0.72842 0
M  V30 3437 C 330.865 1.99879 -0.270407 0
M  V30 3438 C 331.178 1.58449 1.14688 0
M  V30 3439 O 332.384 2.11362 1.70407 0
M  V30 3440 C 330.84 3.57292 -0.43252 0
M  V30 3441 C 330.448 4.07688 -1.85727 0
M  V30 3442 C 332.192 4.24485 -0.0359507 0
M  V30 3443 C 330.099 5.5765 -1.96928 0
M  V30 3444 H 329.029 0.747689 -0.0973472 0
M  V30 3445 H 331.68 1.59837 -0.901355 0
M  V30 3446 H 330.062 3.95097 0.267219 0
M  V30 3447 H 331.236 3.81231 -2.58843 0
M  V30 3448 H 329.551 3.53135 -2.20646 0
M  V30 3449 H 332.148 5.34609 -0.0987484 0
M  V30 3450 H 332.491 4.03915 1.00787 0
M  V30 3451 H 333.024 3.9183 -0.686604 0
M  V30 3452 H 329.763 5.8309 -2.99476 0
M  V30 3453 H 329.283 5.8593 -1.28241 0
M  V30 3454 H 330.962 6.22957 -1.74737 0
M  V30 3455 N 331.094 0.475555 1.50254 0
M  V30 3456 C 332.057 -0.305016 2.27161 0
M  V30 3457 C 333.057 -0.916519 1.32123 0
M  V30 3458 O 334.247 -0.785003 1.5551 0
M  V30 3459 C 331.379 -1.43496 3.09227 0
M  V30 3460 H 332.572 0.369511 2.97615 0
M  V30 3461 H 330.125 0.229747 1.54602 0
M  V30 3462 H 330.86 -2.14441 2.43281 0
M  V30 3463 H 330.645 -1.00223 3.79075 0
M  V30 3464 H 332.135 -1.98548 3.67381 0
M  V30 3465 N 332.573 -1.56217 0.208337 0
M  V30 3466 C 333.801 -2.02337 -0.43215 0
M  V30 3467 C 334.216 -1.08834 -1.54275 0
M  V30 3468 O 333.573 -0.0955462 -1.8225 0
M  V30 3469 C 333.624 -3.48072 -0.976138 0
M  V30 3470 O 333.345 -4.38007 0.0901621 0
M  V30 3471 C 334.846 -4.09773 -1.69119 0
M  V30 3472 H 332.066 -0.662385 -0.10718 0
M  V30 3473 H 334.61 -2.01966 0.320923 0
M  V30 3474 H 332.765 -3.49099 -1.67954 0
M  V30 3475 H 333.179 -5.23543 -0.316701 0
M  V30 3476 H 334.653 -5.13556 -2.02397 0
M  V30 3477 H 335.13 -3.53999 -2.59964 0
M  V30 3478 H 335.736 -4.12556 -1.03332 0
M  V30 3479 N 334.051 0.0651679 -1.57465 0
M  V30 3480 C 335.014 1.06117 -2.03155 0
M  V30 3481 C 336.014 1.31204 -0.929632 0
M  V30 3482 O 337.204 1.26813 -1.19432 0
M  V30 3483 C 334.336 2.4032 -2.41783 0
M  V30 3484 H 335.529 0.667231 -2.92383 0
M  V30 3485 H 333.082 0.311075 -1.53173 0
M  V30 3486 H 333.817 2.84532 -1.55601 0
M  V30 3487 H 333.602 2.23451 -3.22199 0
M  V30 3488 H 335.092 3.11898 -2.77685 0
M  V30 3489 N 335.529 1.53961 0.336706 0
M  V30 3490 C 336.775 1.7179 1.07777 0
M  V30 3491 C 337.108 0.483263 1.88091 0
M  V30 3492 O 336.383 -0.519747 1.87427 0
M  V30 3493 C 336.666 2.98558 2.01334 0
M  V30 3494 C 336.519 4.32245 1.24437 0
M  V30 3495 C 337.838 3.21023 3.01052 0
M  V30 3496 H 334.957 0.625089 0.390426 0
M  V30 3497 H 337.599 1.86641 0.35567 0
M  V30 3498 H 335.749 2.86028 2.62908 0
M  V30 3499 H 337.421 4.56637 0.654243 0
M  V30 3500 H 335.664 4.30344 0.546458 0
M  V30 3501 H 336.335 5.17137 1.93063 0
M  V30 3502 H 338.811 3.32929 2.49595 0
M  V30 3503 H 337.687 4.11104 3.6371 0
M  V30 3504 H 337.948 2.37637 3.72802 0
M  V30 3505 N 337.007 -0.598083 1.45811 0
M  V30 3506 C 337.97 -1.69018 1.54808 0
M  V30 3507 C 338.97 -1.55037 0.426652 0
M  V30 3508 O 340.16 -1.59932 0.690456 0
M  V30 3509 C 337.292 -3.0835 1.45371 0
M  V30 3510 H 338.485 -1.62403 2.52121 0
M  V30 3511 H 336.038 -0.814626 1.33392 0
M  V30 3512 H 336.773 -3.20534 0.492793 0
M  V30 3513 H 336.558 -3.19907 2.26721 0
M  V30 3514 H 338.048 -3.8788 1.54721 0
M  V30 3515 N 338.485 -1.33259 -0.841409 0
M  V30 3516 C 339.448 -1.23221 -1.9326 0
M  V30 3517 C 340.448 -0.151895 -1.60081 0
M  V30 3518 O 341.638 -0.403246 -1.69468 0
M  V30 3519 C 338.77 -0.898123 -3.28856 0
M  V30 3520 H 339.963 -2.2021 -2.03587 0
M  V30 3521 H 337.516 -1.17281 -1.03319 0
M  V30 3522 H 338.251 0.0693841 -3.24226 0
M  V30 3523 H 338.036 -1.67934 -3.54317 0
M  V30 3524 H 339.526 -0.852563 -4.08805 0
M  V30 3525 N 339.963 1.05934 -1.16686 0
M  V30 3526 C 341.212 1.78188 -0.945085 0
M  V30 3527 C 341.525 1.88338 0.528021 0
M  V30 3528 O 342.731 2.57258 0.867799 0
M  V30 3529 C 341.187 3.20277 -1.64167 0
M  V30 3530 C 340.795 3.18281 -3.15279 0
M  V30 3531 C 342.539 3.97039 -1.502 0
M  V30 3532 C 340.446 4.55112 -3.7766 0
M  V30 3533 H 339.376 0.667866 -0.349959 0
M  V30 3534 H 342.027 1.18794 -1.39858 0
M  V30 3535 H 340.409 3.79952 -1.11589 0
M  V30 3536 H 341.583 2.68167 -3.74731 0
M  V30 3537 H 339.898 2.55018 -3.29173 0
M  V30 3538 H 342.495 4.98194 -1.94183 0
M  V30 3539 H 342.838 4.13845 -0.451461 0
M  V30 3540 H 343.371 3.43894 -1.99954 0
M  V30 3541 H 340.11 4.43512 -4.82677 0
M  V30 3542 H 339.63 5.05406 -3.22994 0
M  V30 3543 H 341.309 5.24064 -3.79428 0
M  V30 3544 N 341.441 0.965919 1.2453 0
M  V30 3545 C 342.687 0.62776 1.92839 0
M  V30 3546 C 343.02 -0.834694 1.75347 0
M  V30 3547 O 342.295 -1.60031 1.10546 0
M  V30 3548 C 342.578 1.00109 3.45905 0
M  V30 3549 C 342.431 2.52011 3.72573 0
M  V30 3550 C 343.75 0.53435 4.36844 0
M  V30 3551 H 340.869 0.229537 0.700344 0
M  V30 3552 H 343.511 1.2046 1.46933 0
M  V30 3553 H 341.661 0.510238 3.85135 0
M  V30 3554 H 343.333 3.08559 3.42912 0
M  V30 3555 H 341.576 2.95287 3.17786 0
M  V30 3556 H 342.247 2.73183 4.79661 0
M  V30 3557 H 344.723 0.955565 4.04979 0
M  V30 3558 H 343.599 0.824152 5.42678 0
M  V30 3559 H 343.86 -0.565589 4.38467 0
M  V30 3560 N 342.919 -1.39368 0.735821 0
M  V30 3561 C 343.882 -2.2896 0.104874 0
M  V30 3562 C 344.882 -1.46347 -0.666274 0
M  V30 3563 O 346.072 -1.67014 -0.49517 0
M  V30 3564 C 343.204 -3.29857 -0.860656 0
M  V30 3565 H 344.397 -2.86259 0.894205 0
M  V30 3566 H 341.95 -1.48029 0.501704 0
M  V30 3567 H 342.685 -2.77615 -1.67631 0
M  V30 3568 H 342.47 -3.9087 -0.310327 0
M  V30 3569 H 343.96 -3.96893 -1.29867 0
M  V30 3570 N 344.397 -0.483516 -1.5 0
M  V30 3571 C 345.36 0.292965 -2.2732 0
M  V30 3572 C 346.36 0.909499 -1.32608 0
M  V30 3573 O 347.55 0.776745 -1.55924 0
M  V30 3574 C 344.682 1.41854 -3.09984 0
M  V30 3575 H 345.875 -0.385289 -2.97415 0
M  V30 3576 H 343.428 -0.237942 -1.54478 0
M  V30 3577 H 344.163 2.13148 -2.44414 0
M  V30 3578 H 343.948 0.982114 -3.79601 0
M  V30 3579 H 345.438 1.96597 -3.68429 0
M  V30 3580 N 345.875 1.56104 -0.216619 0
M  V30 3581 C 347.121 1.98466 0.417033 0
M  V30 3582 C 347.454 1.10403 1.59765 0
M  V30 3583 O 346.729 0.160632 1.93836 0
M  V30 3584 C 347.012 3.49769 0.85637 0
M  V30 3585 C 346.865 4.48606 -0.327546 0
M  V30 3586 C 348.184 4.05339 1.7143 0
M  V30 3587 H 345.303 0.721551 0.150112 0
M  V30 3588 H 347.945 1.87423 -0.311864 0
M  V30 3589 H 346.095 3.5931 1.47745 0
M  V30 3590 H 347.767 4.5108 -0.965618 0
M  V30 3591 H 346.01 4.22682 -0.975805 0
M  V30 3592 H 346.681 5.51995 0.0227149 0
M  V30 3593 H 349.157 3.98712 1.19031 0
M  V30 3594 H 348.033 5.11533 1.99061 0
M  V30 3595 H 348.294 3.51918 2.67593 0
M  V30 3596 N 347.353 -0.0568162 1.57498 0
M  V30 3597 C 348.599 -0.75422 1.88253 0
M  V30 3598 C 348.932 -1.76461 0.810865 0
M  V30 3599 O 348.207 -1.93691 -0.177259 0
M  V30 3600 C 348.49 -1.44878 3.2967 0
M  V30 3601 C 348.343 -0.453789 4.47505 0
M  V30 3602 C 349.662 -2.38994 3.69554 0
M  V30 3603 H 346.781 -0.272724 0.684683 0
M  V30 3604 H 349.423 -0.0172113 1.89992 0
M  V30 3605 H 347.573 -2.077 3.28318 0
M  V30 3606 H 349.245 0.170371 4.60985 0
M  V30 3607 H 347.488 0.229552 4.33192 0
M  V30 3608 H 348.159 -0.977699 5.43273 0
M  V30 3609 H 350.635 -1.86239 3.72095 0
M  V30 3610 H 349.511 -2.84587 4.69363 0
M  V30 3611 H 349.772 -3.24461 3.00296 0
M  V30 3612 N 348.832 -1.54138 -0.328536 0
M  V30 3613 C 349.795 -1.82462 -1.38709 0
M  V30 3614 C 350.795 -0.696229 -1.44946 0
M  V30 3615 O 351.985 -0.964535 -1.4506 0
M  V30 3616 C 349.117 -1.98018 -2.77492 0
M  V30 3617 H 350.31 -2.77037 -1.14851 0
M  V30 3618 H 347.863 -1.45779 -0.563751 0
M  V30 3619 H 348.598 -1.05637 -3.06613 0
M  V30 3620 H 348.383 -2.80124 -2.74359 0
M  V30 3621 H 349.873 -2.21396 -3.54081 0
M  V30 3622 N 350.31 0.590341 -1.46126 0
M  V30 3623 C 351.24 1.71032 -1.58966 0
M  V30 3624 C 352.221 1.64302 -0.440335 0
M  V30 3625 O 353.406 1.82436 -0.665634 0
M  V30 3626 C 350.536 3.09665 -1.57241 0
M  V30 3627 C 349.49 3.31221 -2.71066 0
M  V30 3628 C 348.816 4.70303 -2.54399 0
M  V30 3629 C 350.116 3.19796 -4.1295 0
M  V30 3630 H 351.81 1.60543 -2.52718 0
M  V30 3631 H 349.356 0.770933 -1.21625 0
M  V30 3632 H 351.309 3.87831 -1.64819 0
M  V30 3633 H 350.033 3.21036 -0.600289 0
M  V30 3634 H 348.692 2.55452 -2.62944 0
M  V30 3635 H 348.34 4.78429 -1.55288 0
M  V30 3636 H 348.04 4.85679 -3.30741 0
M  V30 3637 H 349.564 5.50647 -2.63857 0
M  V30 3638 H 350.978 3.87815 -4.22223 0
M  V30 3639 H 349.375 3.46696 -4.89818 0
M  V30 3640 H 350.445 2.16983 -4.33643 0
M  V30 3641 N 351.788 1.33704 0.83433 0
M  V30 3642 C 353.037 1.24763 1.58484 0
M  V30 3643 C 353.35 -0.183775 1.94735 0
M  V30 3644 O 354.556 -0.395234 2.68608 0
M  V30 3645 C 353.012 2.18638 2.85876 0
M  V30 3646 C 352.62 3.66974 2.56971 0
M  V30 3647 C 354.364 2.18581 3.63899 0
M  V30 3648 C 352.271 4.5275 3.80488 0
M  V30 3649 H 351.201 0.463425 0.594772 0
M  V30 3650 H 353.852 1.58797 0.919551 0
M  V30 3651 H 352.234 1.77542 3.5397 0
M  V30 3652 H 353.408 4.16538 1.9706 0
M  V30 3653 H 351.723 3.69366 1.92244 0
M  V30 3654 H 354.32 2.79894 4.55591 0
M  V30 3655 H 354.663 1.18207 3.99165 0
M  V30 3656 H 355.196 2.58062 3.02735 0
M  V30 3657 H 351.935 5.54017 3.5035 0
M  V30 3658 H 351.455 4.07927 4.39722 0
M  V30 3659 H 353.134 4.66784 4.4802 0
M  V30 3660 N 353.266 -1.05314 1.17247 0
M  V30 3661 C 354.496 -1.81707 0.983166 0
M  V30 3662 C 354.904 -1.83222 -0.471822 0
M  V30 3663 O 354.247 -1.25721 -1.3394 0
M  V30 3664 C 354.309 -3.29134 1.44606 0
M  V30 3665 C 353.973 -3.51304 2.92292 0
M  V30 3666 C 354.97 -3.4353 3.90235 0
M  V30 3667 C 352.655 -3.78306 3.30439 0
M  V30 3668 C 354.649 -3.62442 5.24323 0
M  V30 3669 C 352.336 -3.96866 4.64694 0
M  V30 3670 C 353.334 -3.88933 5.61445 0
M  V30 3671 O 353.022 -4.06976 6.93272 0
M  V30 3672 H 352.754 -0.579476 0.348114 0
M  V30 3673 H 355.308 -1.33705 1.55924 0
M  V30 3674 H 353.538 -3.78046 0.813537 0
M  V30 3675 H 355.227 -3.87049 1.22262 0
M  V30 3676 H 355.993 -3.22648 3.62109 0
M  V30 3677 H 351.872 -3.83585 2.55702 0
M  V30 3678 H 355.416 -3.56165 5.99827 0
M  V30 3679 H 351.313 -4.1724 4.92525 0
M  V30 3680 H 352.081 -4.24209 6.99992 0
M  V30 3681 N 354.744 -0.972509 -1.24016 0
M  V30 3682 C 355.984 -0.644951 -1.93958 0
M  V30 3683 C 356.348 0.80559 -1.74282 0
M  V30 3684 O 357.549 1.2436 -2.38302 0
M  V30 3685 C 355.82 -1.01521 -3.42678 0
M  V30 3686 S 357.379 -0.802927 -4.31391 0
M  V30 3687 H 354.197 -0.236452 -0.670531 0
M  V30 3688 H 356.799 -1.25048 -1.50277 0
M  V30 3689 H 355.503 -2.06769 -3.54506 0
M  V30 3690 H 355.034 -0.400648 -3.91355 0
M  V30 3691 H 357.049 0.317256 -4.95185 0
M  V30 3692 N 356.222 1.38976 -0.743202 0
M  V30 3693 C 357.638 1.53984 -0.419664 0
M  V30 3694 C 357.838 1.70837 1.0685 0
M  V30 3695 O 356.894 1.7135 1.8546 0
M  V30 3696 C 358.207 2.75287 -1.20985 0
M  V30 3697 C 359.755 2.89129 -1.19889 0
M  V30 3698 C 360.23 4.13381 -1.97181 0
M  V30 3699 N 361.721 4.20437 -1.94389 0
M  V30 3700 C 362.456 5.15547 -2.50996 0
M  V30 3701 N 361.952 6.16395 -3.16274 0
M  V30 3702 N 363.745 5.07822 -2.40984 0
M  V30 3703 H 355.896 1.26285 -1.7078 0
M  V30 3704 H 358.159 0.612689 -0.723406 0
M  V30 3705 H 357.865 2.69204 -2.26323 0
M  V30 3706 H 357.739 3.68184 -0.819759 0
M  V30 3707 H 360.126 2.947 -0.153606 0
M  V30 3708 H 360.207 1.97272 -1.62841 0
M  V30 3709 H 359.851 4.08572 -3.01714 0
M  V30 3710 H 359.781 5.04298 -1.51629 0
M  V30 3711 H 362.272 3.48205 -1.46839 0
M  V30 3712 H 362.585 6.85443 -3.56915 0
M  V30 3713 H 360.93 6.16758 -3.20367 0
M  V30 3714 H 364.121 4.27973 -1.89622 0
M  V30 3715 H 364.294 5.81767 -2.85397 0
M  V30 3716 N 357.7 0.491464 1.49741 0
M  V30 3717 C 358.647 -0.292027 2.28945 0
M  V30 3718 C 359.617 -0.968973 1.34908 0
M  V30 3719 O 360.802 -0.97748 1.6386 0
M  V30 3720 C 357.942 -1.35617 3.17336 0
M  V30 3721 C 357.055 -0.691957 4.26422 0
M  V30 3722 C 356.19 -1.73572 5.02042 0
M  V30 3723 C 355.229 -1.05286 6.02977 0
M  V30 3724 N 354.366 -2.0404 6.71798 0
M  V30 3725 H 359.206 0.389654 2.95442 0
M  V30 3726 H 356.743 0.204003 1.45679 0
M  V30 3727 H 358.701 -1.98502 3.66951 0
M  V30 3728 H 357.331 -2.00674 2.52844 0
M  V30 3729 H 356.383 0.0499523 3.80367 0
M  V30 3730 H 357.695 -0.153946 4.98562 0
M  V30 3731 H 356.849 -2.43987 5.55478 0
M  V30 3732 H 355.588 -2.30757 4.29654 0
M  V30 3733 H 354.593 -0.334446 5.48782 0
M  V30 3734 H 355.818 -0.487636 6.77347 0
M  V30 3735 H 353.764 -2.60205 6.02187 0
M  V30 3736 H 353.681 -1.55279 7.39881 0
M  V30 3737 H 354.949 -2.73772 7.29842 0
M  V30 3738 N 359.178 -1.55987 0.224894 0
M  V30 3739 C 360.125 -2.20436 -0.68385 0
M  V30 3740 C 361.095 -1.16102 -1.18783 0
M  V30 3741 O 362.28 -1.4447 -1.24632 0
M  V30 3742 C 359.42 -2.89076 -1.88491 0
M  V30 3743 C 358.533 -4.08012 -1.41951 0
M  V30 3744 C 357.668 -4.64426 -2.5784 0
M  V30 3745 C 356.707 -5.75656 -2.08053 0
M  V30 3746 N 355.844 -6.26347 -3.17227 0
M  V30 3747 H 360.684 -2.97727 -0.12754 0
M  V30 3748 H 358.221 -1.47011 -0.0511978 0
M  V30 3749 H 360.179 -3.27059 -2.59014 0
M  V30 3750 H 358.809 -2.14298 -2.41405 0
M  V30 3751 H 357.861 -3.75492 -0.609095 0
M  V30 3752 H 359.173 -4.88375 -1.01447 0
M  V30 3753 H 358.327 -5.04869 -3.3644 0
M  V30 3754 H 357.066 -3.83233 -3.01635 0
M  V30 3755 H 356.071 -5.34712 -1.27916 0
M  V30 3756 H 357.296 -6.58686 -1.65255 0
M  V30 3757 H 355.242 -5.48067 -3.60497 0
M  V30 3758 H 355.159 -7.01843 -2.80986 0
M  V30 3759 H 356.427 -6.71447 -3.95953 0
M  V30 3760 N 360.656 0.0484629 -1.57525 0
M  V30 3761 C 362.072 0.40375 -1.54409 0
M  V30 3762 C 362.272 1.77786 -0.948384 0
M  V30 3763 O 361.328 2.46189 -0.560983 0
M  V30 3764 C 362.641 0.323394 -2.98956 0
M  V30 3765 C 364.189 0.401892 -3.10409 0
M  V30 3766 C 364.664 0.351195 -4.56652 0
M  V30 3767 N 366.155 0.410576 -4.61377 0
M  V30 3768 C 366.89 0.393933 -5.72045 0
M  V30 3769 N 366.386 0.330724 -6.9201 0
M  V30 3770 N 368.179 0.442227 -5.60358 0
M  V30 3771 H 360.33 -0.851016 -1.94606 0
M  V30 3772 H 362.593 -0.321721 -0.89174 0
M  V30 3773 H 362.299 -0.62011 -3.4619 0
M  V30 3774 H 362.173 1.12463 -3.60044 0
M  V30 3775 H 364.56 1.33582 -2.63134 0
M  V30 3776 H 364.641 -0.428342 -2.52188 0
M  V30 3777 H 364.285 -0.578987 -5.04589 0
M  V30 3778 H 364.215 1.19928 -5.12762 0
M  V30 3779 H 366.706 0.462729 -3.75056 0
M  V30 3780 H 367.019 0.322592 -7.72126 0
M  V30 3781 H 365.364 0.29706 -6.94365 0
M  V30 3782 H 368.555 0.489464 -4.65534 0
M  V30 3783 H 368.728 0.425788 -6.466 0
M  V30 3784 N 362.134 1.5431 0.320358 0
M  V30 3785 C 363.383 1.7188 1.05546 0
M  V30 3786 C 363.696 0.501143 1.89071 0
M  V30 3787 O 364.902 0.558258 2.65699 0
M  V30 3788 C 363.358 3.04025 1.92605 0
M  V30 3789 C 362.966 4.33207 1.14176 0
M  V30 3790 C 364.71 3.30959 2.65832 0
M  V30 3791 C 362.617 5.56412 2.00399 0
M  V30 3792 H 361.547 0.640547 0.397763 0
M  V30 3793 H 364.198 1.80802 0.313522 0
M  V30 3794 H 362.58 2.89019 2.7071 0
M  V30 3795 H 363.754 4.58989 0.40819 0
M  V30 3796 H 362.069 4.13062 0.526165 0
M  V30 3797 H 364.666 4.20203 3.30656 0
M  V30 3798 H 365.009 2.48979 3.33639 0
M  V30 3799 H 365.542 3.46847 1.94787 0
M  V30 3800 H 362.281 6.41004 1.37094 0
M  V30 3801 H 361.801 5.34844 2.7148 0
M  V30 3802 H 363.48 5.92938 2.58908 0
M  V30 3803 N 363.613 -0.582584 1.46437 0
M  V30 3804 C 364.838 -1.37168 1.55563 0
M  V30 3805 C 365.263 -1.87061 0.19743 0
M  V30 3806 O 364.621 -1.61572 -0.822451 0
M  V30 3807 C 364.669 -2.53511 2.56446 0
M  V30 3808 O 363.773 -3.54953 2.09958 0
M  V30 3809 H 363.114 -0.408494 0.523477 0
M  V30 3810 H 365.644 -0.706646 1.9201 0
M  V30 3811 H 365.654 -3.00426 2.76058 0
M  V30 3812 H 364.329 -2.16549 3.55076 0
M  V30 3813 H 362.906 -3.14516 2.00334 0
M  V30 3814 N 365.091 -1.34144 -0.827227 0
M  V30 3815 C 366.054 -1.25264 -1.91942 0
M  V30 3816 C 367.054 -0.168866 -1.59911 0
M  V30 3817 O 368.244 -0.421198 -1.69031 0
M  V30 3818 C 365.376 -0.932952 -3.27885 0
M  V30 3819 H 366.569 -2.22357 -2.0124 0
M  V30 3820 H 364.122 -1.1837 -1.0207 0
M  V30 3821 H 364.857 0.0349917 -3.24281 0
M  V30 3822 H 364.642 -1.71682 -3.52516 0
M  V30 3823 H 366.132 -0.895874 -4.07877 0
M  V30 3824 N 366.569 1.04691 -1.17803 0
M  V30 3825 C 367.517 2.14665 -0.895635 0
M  V30 3826 C 368.511 1.68806 0.141679 0
M  V30 3827 O 369.717 1.79999 -0.00587914 0
M  V30 3828 H 366.092 0.701038 -0.272121 0
M  V30 3829 H 368.063 2.35685 -1.83017 0
M  V30 3830 C 366.812 3.45019 -0.430962 0
M  V30 3831 H 366.135 3.8071 -1.22064 0
M  V30 3832 H 367.575 4.23125 -0.272301 0
M  V30 3833 C 366.034 3.25943 0.852207 0
M  V30 3834 O 366.564 3.5296 1.91786 0
M  V30 3835 N 364.77 2.79304 0.802346 0
M  V30 3836 H 364.317 2.57518 -0.0650788 0
M  V30 3837 H 364.275 2.66921 1.66134 0
M  V30 3838 N 368.047 0.979072 1.23499 0
M  V30 3839 C 369.272 0.664845 1.96455 0
M  V30 3840 C 369.697 -0.761287 1.72006 0
M  V30 3841 O 369.055 -1.51837 0.990713 0
M  V30 3842 C 369.103 0.959479 3.47601 0
M  V30 3843 O 368.207 0.0508168 4.12369 0
M  V30 3844 H 367.548 0.250185 0.615064 0
M  V30 3845 H 370.078 1.31231 1.5697 0
M  V30 3846 H 370.088 0.895642 3.98048 0
M  V30 3847 H 368.763 1.99876 3.64723 0
M  V30 3848 H 367.34 0.16895 3.72517 0
M  V30 3849 N 369.525 -1.3858 0.750561 0
M  V30 3850 C 370.753 -2.04471 0.316098 0
M  V30 3851 C 371.168 -1.56606 -1.05452 0
M  V30 3852 O 370.525 -0.737784 -1.66922 0
M  V30 3853 C 370.576 -3.60025 0.326275 0
M  V30 3854 O 370.297 -4.06133 1.6428 0
M  V30 3855 C 371.798 -4.43131 -0.122429 0
M  V30 3856 H 369.018 -0.65717 0.135528 0
M  V30 3857 H 371.562 -1.77329 1.01857 0
M  V30 3858 H 369.717 -3.86014 -0.327431 0
M  V30 3859 H 370.131 -5.00547 1.56693 0
M  V30 3860 H 371.605 -5.51963 -0.0641473 0
M  V30 3861 H 372.082 -4.23333 -1.16988 0
M  V30 3862 H 372.688 -4.22323 0.50229 0
M  V30 3863 N 371.003 -0.499398 -1.49478 0
M  V30 3864 C 372.28 0.108629 -1.95298 0
M  V30 3865 C 372.66 1.54282 -1.44084 0
M  V30 3866 O 372.008 2.18944 -0.653908 0
M  V30 3867 C 372.218 0.0229111 -3.48992 0
M  V30 3868 C 373.566 0.197643 -4.2414 0
M  V30 3869 O 374.59 0.0981735 -3.56065 0
M  V30 3870 O 373.449 0.401669 -5.45022 0
M  V30 3871 H 370.543 0.096181 -0.821388 0
M  V30 3872 H 373.089 -0.561822 -1.6013 0
M  V30 3873 H 371.861 -0.977321 -3.78899 0
M  V30 3874 H 371.484 0.733579 -3.90774 0
M  V30 3875 N 372.481 1.55866 -0.233164 0
M  V30 3876 C 373.892 1.847 0.272554 0
M  V30 3877 C 374.243 1.15477 1.58617 0
M  V30 3878 O 373.368 0.42841 2.12117 0
M  V30 3879 C 373.963 3.35071 0.501299 0
M  V30 3880 C 372.522 3.6418 0.951304 0
M  V30 3881 C 371.669 2.77292 0.0208209 0
M  V30 3882 H 374.62 1.52005 -0.456074 0
M  V30 3883 H 374.641 3.55906 1.34577 0
M  V30 3884 H 374.153 3.85424 -0.454936 0
M  V30 3885 H 372.254 3.19293 1.92049 0
M  V30 3886 H 372.367 4.72071 0.817675 0
M  V30 3887 H 370.731 2.49131 0.529723 0
M  V30 3888 H 371.514 3.30448 -0.93054 0
M  V30 3889 N 373.959 -0.0401083 1.57549 0
M  V30 3890 C 375.205 -0.734211 1.89043 0
M  V30 3891 C 375.538 -1.75591 0.829535 0
M  V30 3892 O 374.813 -1.93868 -0.156706 0
M  V30 3893 C 375.096 -1.41374 3.31188 0
M  V30 3894 C 374.949 -0.406299 4.47961 0
M  V30 3895 C 376.268 -2.35061 3.72068 0
M  V30 3896 H 373.387 -0.265447 0.687537 0
M  V30 3897 H 376.029 0.00294087 1.9 0
M  V30 3898 H 374.179 -2.04206 3.30503 0
M  V30 3899 H 375.851 0.219255 4.60779 0
M  V30 3900 H 374.094 0.275485 4.32924 0
M  V30 3901 H 374.765 -0.920022 5.44279 0
M  V30 3902 H 377.241 -1.82282 3.74049 0
M  V30 3903 H 376.117 -2.79593 4.72355 0
M  V30 3904 H 376.378 -3.21258 3.0372 0
M  V30 3905 N 375.437 -1.54477 -0.31217 0
M  V30 3906 C 376.384 -1.84655 -1.38461 0
M  V30 3907 C 377.354 -0.694536 -1.50882 0
M  V30 3908 O 378.539 -0.942081 -1.6592 0
M  V30 3909 C 375.679 -2.0896 -2.74645 0
M  V30 3910 C 374.792 -3.36618 -2.70763 0
M  V30 3911 C 373.927 -3.50824 -3.98868 0
M  V30 3912 C 372.966 -4.72315 -3.89339 0
M  V30 3913 N 372.103 -4.83387 -5.09197 0
M  V30 3914 H 376.943 -2.76142 -1.12026 0
M  V30 3915 H 374.48 -1.36748 -0.542065 0
M  V30 3916 H 376.438 -2.21045 -3.53829 0
M  V30 3917 H 375.068 -1.20752 -2.99364 0
M  V30 3918 H 374.12 -3.33211 -1.83506 0
M  V30 3919 H 375.432 -4.25917 -2.59608 0
M  V30 3920 H 374.586 -3.62513 -4.86486 0
M  V30 3921 H 373.325 -2.59638 -4.12843 0
M  V30 3922 H 372.33 -4.6067 -3.00105 0
M  V30 3923 H 373.555 -5.64897 -3.76919 0
M  V30 3924 H 371.501 -3.9512 -5.23657 0
M  V30 3925 H 371.418 -5.66669 -5.00422 0
M  V30 3926 H 372.686 -4.9942 -5.98498 0
M  V30 3927 N 376.915 0.57481 -1.46744 0
M  V30 3928 C 377.878 1.66533 -1.57478 0
M  V30 3929 C 378.878 1.54338 -0.451263 0
M  V30 3930 O 380.068 1.58814 -0.715813 0
M  V30 3931 C 377.2 3.05999 -1.50259 0
M  V30 3932 H 378.393 1.58372 -2.54673 0
M  V30 3933 H 375.946 0.793301 -1.34672 0
M  V30 3934 H 376.681 3.19709 -0.543725 0
M  V30 3935 H 376.466 3.16259 -2.31781 0
M  V30 3936 H 377.956 3.8537 -1.60872 0
M  V30 3937 N 378.394 1.34581 0.820102 0
M  V30 3938 C 379.357 1.2628 1.91275 0
M  V30 3939 C 380.357 0.177344 1.59819 0
M  V30 3940 O 381.547 0.430156 1.68806 0
M  V30 3941 C 378.679 0.950327 3.27386 0
M  V30 3942 H 379.872 2.23421 2.00057 0
M  V30 3943 H 377.425 1.1891 1.0144 0
M  V30 3944 H 378.16 -0.0177938 3.24295 0
M  V30 3945 H 377.945 1.73549 3.51601 0
M  V30 3946 H 379.435 0.917492 4.07396 0
M  V30 3947 N 379.872 -1.04064 1.18357 0
M  V30 3948 C 380.804 -2.12114 0.868358 0
M  V30 3949 C 381.817 -1.62247 -0.134045 0
M  V30 3950 O 383.006 -1.78253 0.0937933 0
M  V30 3951 C 380.106 -3.37773 0.276132 0
M  V30 3952 C 379.279 -4.16874 1.3242 0
M  V30 3953 C 378.338 -5.20861 0.747662 0
M  V30 3954 O 377.364 -5.51141 1.42239 0
M  V30 3955 N 378.566 -5.78715 -0.454823 0
M  V30 3956 H 381.331 -2.39748 1.79836 0
M  V30 3957 H 378.892 -1.20258 1.08396 0
M  V30 3958 H 380.884 -4.04513 -0.123133 0
M  V30 3959 H 379.454 -3.07581 -0.557895 0
M  V30 3960 H 378.674 -3.45456 1.89878 0
M  V30 3961 H 379.962 -4.66516 2.03078 0
M  V30 3962 H 379.36 -5.56415 -1.02073 0
M  V30 3963 H 377.917 -6.46921 -0.79601 0
M  V30 3964 N 381.35 -0.985608 -1.22978 0
M  V30 3965 C 382.597 -0.657386 -1.91532 0
M  V30 3966 C 382.925 0.809707 -1.76845 0
M  V30 3967 O 382.18 1.60021 -1.12658 0
M  V30 3968 C 382.479 -1.00014 -3.43121 0
M  V30 3969 C 382.145 -2.4583 -3.77993 0
M  V30 3970 C 380.807 -2.85679 -3.87222 0
M  V30 3971 C 383.159 -3.40378 -3.94705 0
M  V30 3972 C 380.487 -4.19081 -4.10595 0
M  V30 3973 C 382.839 -4.73429 -4.1958 0
M  V30 3974 C 381.503 -5.1303 -4.27032 0
M  V30 3975 H 380.773 -0.240555 -0.700867 0
M  V30 3976 H 383.42 -1.24044 -1.45895 0
M  V30 3977 H 381.725 -0.335072 -3.90365 0
M  V30 3978 H 383.422 -0.724322 -3.94404 0
M  V30 3979 H 380.012 -2.13939 -3.71387 0
M  V30 3980 H 384.196 -3.10766 -3.8696 0
M  V30 3981 H 379.452 -4.49362 -4.14589 0
M  V30 3982 H 383.626 -5.46644 -4.31455 0
M  V30 3983 H 381.253 -6.16418 -4.44896 0
M  V30 3984 N 382.828 1.3818 -0.7579 0
M  V30 3985 C 383.738 2.3421 -0.135247 0
M  V30 3986 C 384.754 1.59487 0.695683 0
M  V30 3987 O 385.93 1.91657 0.618832 0
M  V30 3988 C 382.995 3.3862 0.744139 0
M  V30 3989 C 382.056 4.2918 -0.101658 0
M  V30 3990 C 381.289 5.28603 0.735851 0
M  V30 3991 O 381.512 5.35166 1.97366 0
M  V30 3992 O 380.446 6.01707 0.152372 0
M  V30 3993 H 384.272 2.8916 -0.928436 0
M  V30 3994 H 381.857 1.40101 -0.518855 0
M  V30 3995 H 383.739 4.02539 1.2466 0
M  V30 3996 H 382.414 2.86019 1.51575 0
M  V30 3997 H 381.321 3.68407 -0.650167 0
M  V30 3998 H 382.654 4.85048 -0.836024 0
M  V30 3999 N 384.306 0.507319 1.49211 0
M  V30 4000 C 385.717 0.0611118 1.866 0
M  V30 4001 C 386.068 -1.35488 1.41907 0
M  V30 4002 O 385.193 -2.0108 0.799726 0
M  V30 4003 C 385.788 0.104125 3.3864 0
M  V30 4004 C 384.347 -0.28677 3.75306 0
M  V30 4005 C 383.494 0.473893 2.73221 0
M  V30 4006 H 386.445 0.719775 1.41439 0
M  V30 4007 H 386.466 -0.689672 3.74198 0
M  V30 4008 H 385.978 1.13482 3.71138 0
M  V30 4009 H 384.079 -1.32046 3.48417 0
M  V30 4010 H 384.192 0.0370745 4.79086 0
M  V30 4011 H 382.556 -0.0770644 2.54583 0
M  V30 4012 H 383.339 1.50478 3.08563 0
M  V30 4013 N 385.784 -1.5574 0.241426 0
M  V30 4014 C 387.195 -1.84842 -0.262755 0
M  V30 4015 C 387.546 -1.16317 -1.58003 0
M  V30 4016 O 386.671 -0.439653 -2.11887 0
M  V30 4017 C 387.266 -3.35332 -0.483523 0
M  V30 4018 C 385.825 -3.6468 -0.931977 0
M  V30 4019 C 384.972 -2.77299 -0.0061151 0
M  V30 4020 H 387.923 -1.51761 0.464129 0
M  V30 4021 H 387.944 -3.56615 -1.32688 0
M  V30 4022 H 387.456 -3.85178 0.47537 0
M  V30 4023 H 385.557 -3.20307 -1.90353 0
M  V30 4024 H 385.67 -4.72498 -0.792628 0
M  V30 4025 H 384.034 -2.49408 -0.516503 0
M  V30 4026 H 384.817 -3.2995 0.948052 0
M  V30 4027 N 387.262 0.0317525 -1.57568 0
M  V30 4028 C 388.51 0.721676 -1.88776 0
M  V30 4029 C 388.831 1.76039 -0.838772 0
M  V30 4030 O 388.101 1.95482 0.127935 0
M  V30 4031 H 386.681 0.269534 -0.696678 0
M  V30 4032 H 389.343 -0.00165879 -1.949 0
M  V30 4033 H 388.439 1.21293 -2.87566 0
M  V30 4034 N 388.74 1.54641 0.303973 0
M  V30 4035 C 390.156 1.45788 0.649463 0
M  V30 4036 C 390.356 0.64666 1.90842 0
M  V30 4037 O 389.412 0.153183 2.52035 0
M  V30 4038 C 390.725 2.89718 0.805227 0
M  V30 4039 C 392.273 2.99742 0.901305 0
M  V30 4040 C 392.748 4.44863 1.08909 0
M  V30 4041 N 394.239 4.48559 1.15536 0
M  V30 4042 C 394.974 5.58026 1.3189 0
M  V30 4043 N 394.47 6.77422 1.45161 0
M  V30 4044 N 396.263 5.45708 1.34755 0
M  V30 4045 H 388.414 2.05854 -0.523237 0
M  V30 4046 H 390.677 0.932186 -0.172431 0
M  V30 4047 H 390.383 3.51666 -0.0489108 0
M  V30 4048 H 390.257 3.36964 1.69513 0
M  V30 4049 H 392.644 2.3791 1.74593 0
M  V30 4050 H 392.725 2.55797 -0.0125531 0
M  V30 4051 H 392.369 5.07288 0.249241 0
M  V30 4052 H 392.299 4.86436 2.01713 0
M  V30 4053 H 394.79 3.6254 1.06646 0
M  V30 4054 H 395.103 7.56604 1.57387 0
M  V30 4055 H 393.448 6.80292 1.42223 0
M  V30 4056 H 396.639 4.51378 1.23996 0
M  V30 4057 H 396.812 6.3107 1.47157 0
M  V30 4058 N 390.218 -0.567019 1.47046 0
M  V30 4059 C 391.15 -1.68985 1.54844 0
M  V30 4060 C 392.163 -1.56869 0.435431 0
M  V30 4061 O 393.352 -1.64006 0.70457 0
M  V30 4062 C 390.452 -3.07373 1.42742 0
M  V30 4063 C 389.625 -3.45339 2.6844 0
M  V30 4064 C 388.684 -4.62849 2.50314 0
M  V30 4065 O 387.71 -4.67922 3.24095 0
M  V30 4066 N 388.912 -5.58726 1.57499 0
M  V30 4067 H 391.677 -1.62745 2.51663 0
M  V30 4068 H 389.238 -0.753411 1.43302 0
M  V30 4069 H 391.23 -3.83803 1.28365 0
M  V30 4070 H 389.8 -3.07893 0.540445 0
M  V30 4071 H 389.02 -2.58455 2.97648 0
M  V30 4072 H 390.308 -3.67476 3.51907 0
M  V30 4073 H 389.706 -5.57376 0.966876 0
M  V30 4074 H 388.263 -6.34523 1.49078 0
M  V30 4075 N 391.696 -1.35014 -0.812953 0
M  V30 4076 C 392.629 -1.21761 -1.93001 0
M  V30 4077 C 393.607 -0.10694 -1.62248 0
M  V30 4078 O 394.791 -0.273891 -1.865 0
M  V30 4079 C 391.918 -0.873404 -3.27245 0
M  V30 4080 C 390.964 -1.99523 -3.76952 0
M  V30 4081 S 391.797 -3.61009 -3.95516 0
M  V30 4082 C 392.953 -3.28651 -5.32672 0
M  V30 4083 H 393.186 -2.16315 -2.03948 0
M  V30 4084 H 390.719 -1.20156 -0.969631 0
M  V30 4085 H 392.677 -0.68161 -4.04802 0
M  V30 4086 H 391.338 0.053971 -3.14054 0
M  V30 4087 H 390.531 -1.70838 -4.74163 0
M  V30 4088 H 390.133 -2.14503 -3.06373 0
M  V30 4089 H 392.425 -2.81085 -6.1644 0
M  V30 4090 H 393.368 -4.25039 -5.66346 0
M  V30 4091 H 393.776 -2.6458 -4.98656 0
M  V30 4092 N 393.175 1.03435 -1.18907 0
M  V30 4093 C 394.424 1.76143 -0.982669 0
M  V30 4094 C 394.737 1.89416 0.487953 0
M  V30 4095 O 395.943 2.59041 0.813036 0
M  V30 4096 C 394.399 3.16722 -1.70924 0
M  V30 4097 C 394.007 3.11522 -3.21959 0
M  V30 4098 C 395.751 3.93764 -1.58588 0
M  V30 4099 C 393.658 4.46999 -3.87228 0
M  V30 4100 H 392.588 0.660292 -0.364047 0
M  V30 4101 H 395.239 1.158 -1.42347 0
M  V30 4102 H 393.621 3.775 -1.19623 0
M  V30 4103 H 394.795 2.60158 -3.80335 0
M  V30 4104 H 393.11 2.47978 -3.34508 0
M  V30 4105 H 395.707 4.93963 -2.04707 0
M  V30 4106 H 396.05 4.12794 -0.539142 0
M  V30 4107 H 396.583 3.39576 -2.07203 0
M  V30 4108 H 393.322 4.33174 -4.91976 0
M  V30 4109 H 392.842 4.98441 -3.33642 0
M  V30 4110 H 394.521 5.15898 -3.90459 0
M  V30 4111 N 394.653 0.992116 1.22453 0
M  V30 4112 C 395.616 0.546883 2.2258 0
M  V30 4113 C 396.616 -0.369829 1.56489 0
M  V30 4114 O 397.806 -0.161896 1.73446 0
M  V30 4115 C 394.938 -0.204659 3.40285 0
M  V30 4116 H 396.131 1.43234 2.63484 0
M  V30 4117 H 393.684 0.779239 1.3549 0
M  V30 4118 H 394.419 -1.10614 3.04853 0
M  V30 4119 H 394.204 0.45354 3.89468 0
M  V30 4120 H 395.694 -0.504358 4.14543 0
M  V30 4121 N 396.131 -1.37776 0.765217 0
M  V30 4122 C 397.38 -1.99092 0.323307 0
M  V30 4123 C 397.693 -1.61434 -1.10446 0
M  V30 4124 O 398.899 -2.15805 -1.64743 0
M  V30 4125 C 397.355 -3.56019 0.527098 0
M  V30 4126 C 396.963 -4.0262 1.96471 0
M  V30 4127 C 398.707 -4.2424 0.148483 0
M  V30 4128 C 396.614 -5.52233 2.11644 0
M  V30 4129 H 395.544 -0.744846 0.117137 0
M  V30 4130 H 398.195 -1.57391 0.943417 0
M  V30 4131 H 396.577 -3.95667 -0.162372 0
M  V30 4132 H 397.751 -3.74234 2.68859 0
M  V30 4133 H 396.066 -3.47161 2.29931 0
M  V30 4134 H 398.663 -5.34159 0.240456 0
M  V30 4135 H 399.006 -4.06446 -0.900422 0
M  V30 4136 H 399.539 -3.89872 0.79025 0
M  V30 4137 H 396.278 -5.74945 3.1483 0
M  V30 4138 H 395.798 -5.82324 1.4373 0
M  V30 4139 H 397.477 -6.18106 1.91193 0
M  V30 4140 N 397.609 -0.515225 -1.4894 0
M  V30 4141 C 399.025 -0.172099 -1.58669 0
M  V30 4142 C 399.225 1.32405 -1.51892 0
M  V30 4143 O 398.281 2.10116 -1.40027 0
M  V30 4144 C 399.594 -0.761533 -2.90897 0
M  V30 4145 C 401.142 -0.728926 -3.04394 0
M  V30 4146 C 401.617 -1.29667 -4.39261 0
M  V30 4147 N 403.108 -1.25799 -4.4579 0
M  V30 4148 C 403.843 -1.66733 -5.48623 0
M  V30 4149 N 403.339 -2.15327 -6.58488 0
M  V30 4150 N 405.132 -1.58061 -5.39419 0
M  V30 4151 H 397.283 -1.48778 -1.51588 0
M  V30 4152 H 399.546 -0.617968 -0.718901 0
M  V30 4153 H 399.252 -1.81136 -3.01468 0
M  V30 4154 H 399.126 -0.230106 -3.76497 0
M  V30 4155 H 401.513 0.312098 -2.93445 0
M  V30 4156 H 401.594 -1.29766 -2.20442 0
M  V30 4157 H 401.238 -2.33655 -4.50963 0
M  V30 4158 H 401.168 -0.703752 -5.21876 0
M  V30 4159 H 403.659 -0.902102 -3.66975 0
M  V30 4160 H 403.972 -2.44594 -7.33071 0
M  V30 4161 H 402.317 -2.19311 -6.59491 0
M  V30 4162 H 405.508 -1.19906 -4.52482 0
M  V30 4163 H 405.681 -1.90284 -6.19432 0
M  V30 4164 N 399.087 1.5561 -0.249682 0
M  V30 4165 C 400.034 2.21496 0.648694 0
M  V30 4166 C 401.004 1.17977 1.16921 0
M  V30 4167 O 402.189 1.46434 1.22318 0
M  V30 4168 C 399.329 2.92039 1.83868 0
M  V30 4169 C 398.442 4.10219 1.35442 0
M  V30 4170 C 397.577 4.6847 2.50419 0
M  V30 4171 C 396.616 5.78893 1.98869 0
M  V30 4172 N 395.753 6.31315 3.07223 0
M  V30 4173 H 400.593 2.97892 0.0801582 0
M  V30 4174 H 398.13 1.47074 0.0278031 0
M  V30 4175 H 400.088 3.31138 2.53778 0
M  V30 4176 H 398.718 2.18111 2.37965 0
M  V30 4177 H 397.77 3.76413 0.54928 0
M  V30 4178 H 399.082 4.89927 0.936649 0
M  V30 4179 H 398.236 5.10158 3.28366 0
M  V30 4180 H 396.975 3.87984 2.95499 0
M  V30 4181 H 395.98 5.3668 1.19393 0
M  V30 4182 H 397.205 6.61232 1.54755 0
M  V30 4183 H 395.151 5.53733 3.51732 0
M  V30 4184 H 395.068 7.06224 2.69784 0
M  V30 4185 H 396.336 6.77662 3.8522 0
M  V30 4186 N 400.565 -0.0233959 1.57583 0
M  V30 4187 C 401.981 -0.379134 1.55031 0
M  V30 4188 C 402.181 -1.76255 0.976548 0
M  V30 4189 O 401.237 -2.45266 0.600078 0
M  V30 4190 C 402.55 -0.275792 2.99433 0
M  V30 4191 C 404.098 -0.352458 3.11009 0
M  V30 4192 C 404.573 -0.278501 4.57152 0
M  V30 4193 N 406.064 -0.337123 4.61972 0
M  V30 4194 C 406.799 -0.302876 5.726 0
M  V30 4195 N 406.295 -0.220589 6.92449 0
M  V30 4196 N 408.088 -0.353023 5.6099 0
M  V30 4197 H 400.239 0.881869 1.93227 0
M  V30 4198 H 402.502 0.335867 0.886509 0
M  V30 4199 H 402.208 0.675108 3.4516 0
M  V30 4200 H 402.082 -1.06721 3.61788 0
M  V30 4201 H 404.469 -1.29379 2.65226 0
M  V30 4202 H 404.55 0.468409 2.51475 0
M  V30 4203 H 404.194 0.659189 5.03604 0
M  V30 4204 H 404.124 -1.11755 5.14605 0
M  V30 4205 H 406.615 -0.403002 3.75745 0
M  V30 4206 H 406.928 -0.199713 7.72542 0
M  V30 4207 H 405.273 -0.186555 6.9475 0
M  V30 4208 H 408.464 -0.415339 4.66254 0
M  V30 4209 H 408.637 -0.322866 6.47195 0
M  V30 4210 N 402.043 -1.548 -0.295768 0
M  V30 4211 C 402.975 -1.82492 -1.3867 0
M  V30 4212 C 403.988 -0.708134 -1.46592 0
M  V30 4213 O 405.177 -0.985686 -1.48817 0
M  V30 4214 C 402.277 -1.95256 -2.76999 0
M  V30 4215 C 401.45 -3.25709 -2.91946 0
M  V30 4216 C 400.509 -3.28824 -4.10806 0
M  V30 4217 O 399.535 -4.02328 -4.02643 0
M  V30 4218 N 400.737 -2.5459 -5.21694 0
M  V30 4219 H 403.502 -2.76646 -1.15269 0
M  V30 4220 H 401.063 -1.54438 -0.485849 0
M  V30 4221 H 403.055 -1.94736 -3.54768 0
M  V30 4222 H 401.625 -1.08072 -2.93324 0
M  V30 4223 H 400.845 -3.38959 -2.01247 0
M  V30 4224 H 402.133 -4.11786 -2.98847 0
M  V30 4225 H 401.531 -1.94512 -5.31208 0
M  V30 4226 H 400.088 -2.59818 -5.97778 0
M  V30 4227 N 403.521 0.559213 -1.47345 0
M  V30 4228 C 404.451 1.67622 -1.62558 0
M  V30 4229 C 405.432 1.63331 -0.475087 0
M  V30 4230 O 406.617 1.80983 -0.704182 0
M  V30 4231 C 403.747 3.0626 -1.63774 0
M  V30 4232 C 402.701 3.25397 -2.7803 0
M  V30 4233 C 402.027 4.64801 -2.64318 0
M  V30 4234 C 403.327 3.10965 -4.19641 0
M  V30 4235 H 405.021 1.55146 -2.56067 0
M  V30 4236 H 402.567 0.744961 -1.23233 0
M  V30 4237 H 404.52 3.84247 -1.73008 0
M  V30 4238 H 403.244 3.1969 -0.66825 0
M  V30 4239 H 401.903 2.49817 -2.68304 0
M  V30 4240 H 401.551 4.75028 -1.65401 0
M  V30 4241 H 401.251 4.78555 -3.40968 0
M  V30 4242 H 402.775 5.44926 -2.75478 0
M  V30 4243 H 404.189 3.78772 -4.30354 0
M  V30 4244 H 402.586 3.36229 -4.97062 0
M  V30 4245 H 403.656 2.07736 -4.38148 0
M  V30 4246 N 404.999 1.35443 0.805782 0
M  V30 4247 C 405.909 1.30546 1.94923 0
M  V30 4248 C 406.925 0.210233 1.72725 0
M  V30 4249 O 408.101 0.43975 1.9654 0
M  V30 4250 C 405.166 1.07782 3.29521 0
M  V30 4251 C 404.227 2.26625 3.64609 0
M  V30 4252 C 403.46 2.04938 4.92784 0
M  V30 4253 O 403.683 1.01624 5.61274 0
M  V30 4254 O 402.617 2.9232 5.26149 0
M  V30 4255 H 406.443 2.26779 2.02002 0
M  V30 4256 H 404.028 1.15823 0.943682 0
M  V30 4257 H 405.91 0.969392 4.10098 0
M  V30 4258 H 404.585 0.146003 3.23371 0
M  V30 4259 H 403.492 2.43033 2.84404 0
M  V30 4260 H 404.825 3.18257 3.75464 0
M  V30 4261 N 406.477 -1.02803 1.19454 0
M  V30 4262 C 407.387 -2.14575 0.948408 0
M  V30 4263 C 408.403 -1.73757 -0.091871 0
M  V30 4264 O 409.579 -2.01185 0.0929654 0
M  V30 4265 C 406.644 -3.43202 0.491265 0
M  V30 4266 C 405.705 -3.98328 1.60103 0
M  V30 4267 C 404.938 -5.20816 1.16561 0
M  V30 4268 O 405.161 -5.70392 0.0295238 0
M  V30 4269 O 404.095 -5.68801 1.96849 0
M  V30 4270 H 407.921 -2.38202 1.88397 0
M  V30 4271 H 405.506 -1.12989 0.977433 0
M  V30 4272 H 407.388 -4.20687 0.245015 0
M  V30 4273 H 406.063 -3.21018 -0.415851 0
M  V30 4274 H 404.97 -3.22174 1.90144 0
M  V30 4275 H 406.303 -4.24879 2.48473 0
M  V30 4276 N 407.956 -0.998596 -1.21925 0
M  V30 4277 C 409.184 -0.696286 -1.94832 0
M  V30 4278 C 409.599 0.740032 -1.73692 0
M  V30 4279 O 408.956 1.5 -1.03953 0
M  V30 4280 C 409.007 -0.999833 -3.47398 0
M  V30 4281 O 408.728 -2.37972 -3.67833 0
M  V30 4282 C 410.229 -0.716025 -4.37479 0
M  V30 4283 H 407.449 -0.257111 -0.619786 0
M  V30 4284 H 409.993 -1.33491 -1.54921 0
M  V30 4285 H 408.148 -0.406918 -3.85257 0
M  V30 4286 H 408.562 -2.48338 -4.61983 0
M  V30 4287 H 410.036 -0.978642 -5.43256 0
M  V30 4288 H 410.513 0.349968 -4.37803 0
M  V30 4289 H 411.119 -1.29025 -4.05256 0
M  V30 4290 N 409.434 1.37368 -0.772513 0
M  V30 4291 C 410.382 2.32134 -0.147111 0
M  V30 4292 C 411.376 1.54972 0.684106 0
M  V30 4293 O 412.582 1.70363 0.581083 0
M  V30 4294 H 408.957 0.751449 -0.028786 0
M  V30 4295 H 410.928 2.82464 -0.962112 0
M  V30 4296 C 409.677 3.40226 0.71703 0
M  V30 4297 H 409 3.99706 0.0867951 0
M  V30 4298 H 410.44 4.08897 1.12159 0
M  V30 4299 C 408.899 2.80372 1.86797 0
M  V30 4300 O 409.429 2.71183 2.96349 0
M  V30 4301 N 407.635 2.37904 1.66883 0
M  V30 4302 H 407.182 2.45578 0.777759 0
M  V30 4303 H 407.14 1.98202 2.44056 0
M  V30 4304 N 410.912 0.523116 1.48665 0
M  V30 4305 C 411.86 -0.256859 2.31177 0
M  V30 4306 C 412.854 -0.94199 1.40794 0
M  V30 4307 O 414.06 -0.867157 1.57735 0
M  V30 4308 H 410.435 -0.1017 0.745091 0
M  V30 4309 H 412.406 0.458739 2.94853 0
M  V30 4310 C 411.155 -1.29503 3.22683 0
M  V30 4311 H 410.478 -0.777248 3.92172 0
M  V30 4312 H 411.918 -1.81233 3.83315 0
M  V30 4313 C 410.377 -2.32501 2.43813 0
M  V30 4314 O 410.907 -3.3881 2.15803 0
M  V30 4315 N 409.113 -2.05538 2.05432 0
M  V30 4316 H 408.66 -1.19104 2.28412 0
M  V30 4317 H 408.618 -2.74676 1.52973 0
M  V30 4318 N 412.39 -1.55475 0.257931 0
M  V30 4319 C 413.667 -1.91155 -0.414629 0
M  V30 4320 C 414.047 -1.18008 -1.75035 0
M  V30 4321 O 413.395 -0.301193 -2.26506 0
M  V30 4322 C 413.605 -3.44283 -0.571859 0
M  V30 4323 C 414.953 -4.15744 -0.862678 0
M  V30 4324 O 415.977 -3.50083 -0.657314 0
M  V30 4325 O 414.836 -5.31909 -1.2544 0
M  V30 4326 H 411.93 -0.796016 -0.22425 0
M  V30 4327 H 414.476 -1.66976 0.302814 0
M  V30 4328 H 413.248 -3.89558 0.368844 0
M  V30 4329 H 412.871 -3.7436 -1.33943 0
M  V30 4330 N 413.868 0.0150385 -1.57593 0
M  V30 4331 C 415.098 0.713359 -1.93894 0
M  V30 4332 C 415.506 1.68663 -0.857289 0
M  V30 4333 O 414.849 1.82876 0.173788 0
M  V30 4334 C 414.911 1.51348 -3.26089 0
M  V30 4335 C 414.575 0.703451 -4.51554 0
M  V30 4336 C 415.572 -0.00237924 -5.199 0
M  V30 4337 C 413.257 0.653854 -4.98026 0
M  V30 4338 C 415.251 -0.746955 -6.33008 0
M  V30 4339 C 412.938 -0.0944578 -6.11027 0
M  V30 4340 C 413.936 -0.793609 -6.78374 0
M  V30 4341 O 413.624 -1.52974 -7.89211 0
M  V30 4342 H 413.356 0.204637 -0.644282 0
M  V30 4343 H 415.91 -0.0276411 -2.05381 0
M  V30 4344 H 414.14 2.29862 -3.10967 0
M  V30 4345 H 415.829 2.09572 -3.47612 0
M  V30 4346 H 416.595 0.0268803 -4.84993 0
M  V30 4347 H 412.474 1.18756 -4.45441 0
M  V30 4348 H 416.018 -1.2932 -6.85509 0
M  V30 4349 H 411.915 -0.125591 -6.45378 0
M  V30 4350 H 412.683 -1.44488 -8.05646 0
M  V30 4351 N 415.346 1.54954 0.287554 0
M  V30 4352 C 416.256 1.8991 1.37736 0
M  V30 4353 C 417.272 0.794701 1.54792 0
M  V30 4354 O 418.448 1.09243 1.69198 0
M  V30 4355 C 415.513 2.15108 2.71899 0
M  V30 4356 C 414.574 3.38752 2.63715 0
M  V30 4357 C 413.807 3.62739 3.91479 0
M  V30 4358 O 414.03 2.89492 4.91478 0
M  V30 4359 O 412.964 4.56267 3.92561 0
M  V30 4360 H 416.79 2.82652 1.11092 0
M  V30 4361 H 414.375 1.41315 0.484807 0
M  V30 4362 H 416.257 2.32806 3.51254 0
M  V30 4363 H 414.932 1.25551 2.9836 0
M  V30 4364 H 413.839 3.26405 1.82786 0
M  V30 4365 H 415.172 4.28483 2.42205 0
M  V30 4366 N 416.824 -0.551391 1.4764 0
M  V30 4367 C 418.052 -1.33357 1.58189 0
M  V30 4368 C 418.467 -1.87342 0.234199 0
M  V30 4369 O 417.824 -1.65301 -0.77343 0
M  V30 4370 C 417.875 -2.49942 2.61173 0
M  V30 4371 O 417.596 -1.98187 3.90709 0
M  V30 4372 C 419.097 -3.42072 2.8196 0
M  V30 4373 H 416.317 -0.40631 0.533998 0
M  V30 4374 H 418.861 -0.667367 1.93304 0
M  V30 4375 H 417.016 -3.12489 2.28975 0
M  V30 4376 H 417.43 -2.74342 4.47031 0
M  V30 4377 H 418.904 -4.20278 3.57869 0
M  V30 4378 H 419.381 -3.95978 1.89995 0
M  V30 4379 H 419.987 -2.85336 3.15378 0
M  V30 4380 N 418.302 -1.35869 -0.798587 0
M  V30 4381 C 419.265 -1.29307 -1.89242 0
M  V30 4382 C 420.265 -0.202747 -1.59517 0
M  V30 4383 O 421.455 -0.456957 -1.681 0
M  V30 4384 C 418.587 -1.00229 -3.25833 0
M  V30 4385 H 419.78 -2.26576 -1.96478 0
M  V30 4386 H 417.333 -1.20509 -0.995358 0
M  V30 4387 H 418.068 -0.033801 -3.24282 0
M  V30 4388 H 417.853 -1.79121 -3.48795 0
M  V30 4389 H 419.343 -0.98219 -4.05885 0
M  V30 4390 N 419.78 1.02168 -1.19998 0
M  V30 4391 C 421.057 1.72816 -0.916191 0
M  V30 4392 C 421.437 2.03081 0.576325 0
M  V30 4393 O 420.785 1.69122 1.53656 0
M  V30 4394 C 420.995 2.9997 -1.78378 0
M  V30 4395 C 422.343 3.73336 -2.02251 0
M  V30 4396 O 423.367 3.09914 -1.75589 0
M  V30 4397 O 422.226 4.87371 -2.47249 0
M  V30 4398 H 419.32 0.752924 -0.342103 0
M  V30 4399 H 421.866 1.08062 -1.30846 0
M  V30 4400 H 420.638 2.73888 -2.79466 0
M  V30 4401 H 420.261 3.72464 -1.39126 0
M  V30 4402 N 421.258 1.00505 1.21394 0
M  V30 4403 C 422.506 0.686415 1.90086 0
M  V30 4404 C 422.827 -0.785264 1.7849 0
M  V30 4405 O 422.097 -1.56387 1.17983 0
M  V30 4406 H 420.677 0.2509 0.703604 0
M  V30 4407 H 423.339 1.27417 1.47482 0
M  V30 4408 H 422.435 0.959621 2.96981 0
M  V30 4409 N 422.737 -1.36956 0.779787 0
M  V30 4410 C 423.985 -1.99097 0.347079 0
M  V30 4411 C 424.306 -1.62206 -1.08232 0
M  V30 4412 O 423.576 -0.891373 -1.74446 0
M  V30 4413 H 422.156 -0.736409 0.125342 0
M  V30 4414 H 424.818 -1.67308 0.999696 0
M  V30 4415 H 423.914 -3.09107 0.431162 0
M  V30 4416 N 424.215 -0.530993 -1.48385 0
M  V30 4417 C 425.445 -0.00133928 -2.066 0
M  V30 4418 C 425.853 1.28599 -1.38777 0
M  V30 4419 O 425.196 1.77599 -0.469495 0
M  V30 4420 C 425.258 0.292137 -3.58311 0
M  V30 4421 C 424.922 -0.901864 -4.48013 0
M  V30 4422 C 425.919 -1.80053 -4.87726 0
M  V30 4423 C 423.604 -1.10915 -4.89901 0
M  V30 4424 C 425.598 -2.89038 -5.68098 0
M  V30 4425 C 423.285 -2.20213 -5.70043 0
M  V30 4426 C 424.283 -3.09107 -6.0905 0
M  V30 4427 O 423.971 -4.16514 -6.87583 0
M  V30 4428 H 423.703 -0.0308475 -0.675296 0
M  V30 4429 H 426.257 -0.736335 -1.91748 0
M  V30 4430 H 424.487 1.08112 -3.7128 0
M  V30 4431 H 426.176 0.763994 -3.98645 0
M  V30 4432 H 426.942 -1.65234 -4.55986 0
M  V30 4433 H 422.821 -0.426498 -4.59023 0
M  V30 4434 H 426.365 -3.58451 -5.98464 0
M  V30 4435 H 422.262 -2.35016 -6.01197 0
M  V30 4436 H 423.03 -4.14237 -7.05939 0
M  V30 4437 N 425.693 1.55336 -0.266172 0
M  V30 4438 C 426.626 2.18256 0.666296 0
M  V30 4439 C 427.604 1.14064 1.1588 0
M  V30 4440 O 428.788 1.42546 1.23341 0
M  V30 4441 C 425.915 2.79867 1.90768 0
M  V30 4442 C 424.961 3.97283 1.55141 0
M  V30 4443 S 425.794 5.31694 0.637313 0
M  V30 4444 C 426.95 5.96769 1.88727 0
M  V30 4445 H 427.183 2.97008 0.131647 0
M  V30 4446 H 424.716 1.54317 -0.0504869 0
M  V30 4447 H 426.674 3.15996 2.62025 0
M  V30 4448 H 425.335 2.01025 2.41346 0
M  V30 4449 H 424.528 4.3905 2.4749 0
M  V30 4450 H 424.13 3.6253 0.919113 0
M  V30 4451 H 426.422 6.15458 2.83227 0
M  V30 4452 H 427.365 6.91752 1.51276 0
M  V30 4453 H 427.773 5.26034 2.04814 0
M  V30 4454 N 427.171 -0.0066808 1.57599 0
M  V30 4455 C 428.399 -0.704087 1.94551 0
M  V30 4456 C 428.814 -1.67677 0.867746 0
M  V30 4457 O 428.171 -1.8185 -0.153925 0
M  V30 4458 C 428.222 -1.44177 3.31505 0
M  V30 4459 O 427.943 -0.508097 4.35144 0
M  V30 4460 C 429.444 -2.23429 3.82876 0
M  V30 4461 H 426.664 -0.196523 0.641576 0
M  V30 4462 H 429.208 0.042453 2.04456 0
M  V30 4463 H 427.363 -2.13999 3.22929 0
M  V30 4464 H 427.777 -1.02782 5.14331 0
M  V30 4465 H 429.251 -2.70552 4.8115 0
M  V30 4466 H 429.728 -3.05818 3.15233 0
M  V30 4467 H 430.334 -1.58636 3.94607 0
M  V30 4468 N 428.649 -1.55105 -0.279332 0
M  V30 4469 C 429.579 -1.90557 -1.34945 0
M  V30 4470 C 430.56 -0.766738 -1.51839 0
M  V30 4471 O 431.745 -1.02434 -1.64988 0
M  V30 4472 C 428.875 -2.17193 -2.71006 0
M  V30 4473 C 427.829 -3.33021 -2.68851 0
M  V30 4474 C 427.155 -3.45123 -4.08405 0
M  V30 4475 C 428.455 -4.69578 -2.28678 0
M  V30 4476 H 430.149 -2.80188 -1.05522 0
M  V30 4477 H 427.695 -1.34811 -0.506173 0
M  V30 4478 H 429.648 -2.40581 -3.45975 0
M  V30 4479 H 428.372 -1.24355 -3.01999 0
M  V30 4480 H 427.031 -3.0959 -1.9634 0
M  V30 4481 H 426.679 -2.49762 -4.3661 0
M  V30 4482 H 426.379 -4.22995 -4.07859 0
M  V30 4483 H 427.903 -3.70796 -4.85121 0
M  V30 4484 H 429.317 -4.92553 -2.93368 0
M  V30 4485 H 427.714 -5.5032 -2.39306 0
M  V30 4486 H 428.784 -4.68828 -1.23807 0
M  V30 4487 N 430.127 0.543554 -1.4793 0
M  V30 4488 C 431.075 1.67039 -1.61866 0
M  V30 4489 C 432.069 1.62294 -0.48549 0
M  V30 4490 O 433.275 1.67315 -0.66376 0
M  V30 4491 H 429.65 0.552954 -0.509652 0
M  V30 4492 H 431.621 1.52426 -2.56533 0
M  V30 4493 C 430.37 3.05357 -1.6629 0
M  V30 4494 H 429.693 3.09696 -2.5284 0
M  V30 4495 H 431.133 3.83855 -1.80088 0
M  V30 4496 C 429.592 3.34531 -0.398861 0
M  V30 4497 O 430.122 3.98649 0.494162 0
M  V30 4498 N 428.328 2.89299 -0.2747 0
M  V30 4499 H 427.875 2.37298 -1.00236 0
M  V30 4500 H 427.833 3.09188 0.570075 0
M  V30 4501 N 431.605 1.3629 0.791371 0
M  V30 4502 C 433.016 1.27225 1.36641 0
M  V30 4503 C 433.367 -0.0887968 1.95999 0
M  V30 4504 O 432.492 -0.990207 1.92416 0
M  V30 4505 C 433.087 2.30375 2.48421 0
M  V30 4506 C 431.646 2.25004 3.01746 0
M  V30 4507 C 430.793 2.15259 1.7481 0
M  V30 4508 H 433.744 1.47198 0.593173 0
M  V30 4509 H 433.765 1.93905 3.27385 0
M  V30 4510 H 433.277 3.29422 2.05189 0
M  V30 4511 H 431.378 1.29417 3.49403 0
M  V30 4512 H 431.491 3.1761 3.58693 0
M  V30 4513 H 429.855 1.61482 1.96966 0
M  V30 4514 H 430.638 3.16191 1.33709 0
M  V30 4515 N 433.083 -1.0153 1.20538 0
M  V30 4516 C 434.499 -1.27461 0.96051 0
M  V30 4517 C 434.699 -1.98273 -0.359193 0
M  V30 4518 O 433.755 -2.27886 -1.0874 0
M  V30 4519 C 435.068 -2.10837 2.14402 0
M  V30 4520 C 436.616 -2.24099 2.18515 0
M  V30 4521 C 437.091 -3.10852 3.36355 0
M  V30 4522 N 438.582 -3.18441 3.36377 0
M  V30 4523 C 439.317 -3.85795 4.24205 0
M  V30 4524 N 438.813 -4.55264 5.22213 0
M  V30 4525 N 440.606 -3.82331 4.12043 0
M  V30 4526 H 432.757 -0.539907 2.05423 0
M  V30 4527 H 435.02 -0.30092 0.898972 0
M  V30 4528 H 434.726 -1.66144 3.09983 0
M  V30 4529 H 434.6 -3.11576 2.12604 0
M  V30 4530 H 436.987 -2.68016 1.23497 0
M  V30 4531 H 437.068 -1.22865 2.24361 0
M  V30 4532 H 436.712 -2.6764 4.31661 0
M  V30 4533 H 436.642 -4.12177 3.27746 0
M  V30 4534 H 439.133 -2.68978 2.65442 0
M  V30 4535 H 439.446 -5.04331 5.85551 0
M  V30 4536 H 437.791 -4.54085 5.26148 0
M  V30 4537 H 440.982 -3.27207 3.34743 0
M  V30 4538 H 441.155 -4.34547 4.807 0
M  V30 4539 N 434.561 -1.01147 -1.20859 0
M  V30 4540 C 435.524 -0.582224 -2.21682 0
M  V30 4541 C 436.524 0.344887 -1.57058 0
M  V30 4542 O 437.714 0.134281 -1.73682 0
M  V30 4543 C 434.846 0.150496 -3.40568 0
M  V30 4544 H 436.039 -1.47408 -2.61172 0
M  V30 4545 H 433.592 -0.800695 -1.34233 0
M  V30 4546 H 434.327 1.0575 -3.06574 0
M  V30 4547 H 434.112 -0.515444 -3.88697 0
M  V30 4548 H 435.602 0.438344 -4.15293 0
M  V30 4549 N 436.039 1.36541 -0.78704 0
M  V30 4550 C 437.45 1.81873 -0.421807 0
M  V30 4551 C 437.801 1.65487 1.05397 0
M  V30 4552 O 436.926 1.17448 1.81755 0
M  V30 4553 C 437.521 3.30192 -0.758841 0
M  V30 4554 C 436.08 3.73743 -0.446468 0
M  V30 4555 C 435.227 2.58844 -0.994728 0
M  V30 4556 H 438.178 1.24796 -0.98039 0
M  V30 4557 H 438.199 3.80468 -0.0490648 0
M  V30 4558 H 437.711 3.42087 -1.83299 0
M  V30 4559 H 435.812 3.6741 0.619739 0
M  V30 4560 H 435.925 4.69272 -0.965415 0
M  V30 4561 H 434.289 2.51245 -0.418087 0
M  V30 4562 H 435.072 2.73525 -2.07458 0
M  V30 4563 N 437.518 0.538854 1.48102 0
M  V30 4564 C 438.746 0.0123136 2.06896 0
M  V30 4565 C 439.161 -1.27312 1.39417 0
M  V30 4566 O 438.518 -1.75949 0.484582 0
M  V30 4567 C 438.569 -0.206118 3.60912 0
M  V30 4568 O 438.29 1.0284 4.25859 0
M  V30 4569 C 439.791 -0.772033 4.36526 0
M  V30 4570 H 437.011 0.0375239 0.66995 0
M  V30 4571 H 439.555 0.747032 1.90367 0
M  V30 4572 H 437.71 -0.89091 3.77017 0
M  V30 4573 H 438.124 0.814654 5.18135 0
M  V30 4574 H 439.598 -0.874251 5.45033 0
M  V30 4575 H 440.075 -1.77904 4.01555 0
M  V30 4576 H 440.681 -0.123526 4.25121 0
M  V30 4577 N 438.996 -1.55193 0.274407 0
M  V30 4578 C 440.273 -1.91584 -0.394331 0
M  V30 4579 C 440.653 -1.19858 -1.73774 0
M  V30 4580 O 440.001 -0.3252 -2.26174 0
M  V30 4581 C 440.211 -3.4487 -0.535311 0
M  V30 4582 C 441.559 -4.16636 -0.818534 0
M  V30 4583 O 442.583 -3.5076 -0.620146 0
M  V30 4584 O 441.442 -5.33209 -1.19792 0
M  V30 4585 H 438.536 -0.798349 -0.215794 0
M  V30 4586 H 441.082 -1.66646 0.320507 0
M  V30 4587 H 439.854 -3.89145 0.410141 0
M  V30 4588 H 439.477 -3.75759 -1.29964 0
M  V30 4589 N 440.474 -0.00167713 -1.576 0
M  V30 4590 C 441.751 0.719951 -1.81868 0
M  V30 4591 C 442.131 1.91895 -0.879747 0
M  V30 4592 O 441.479 2.28389 0.0711423 0
M  V30 4593 C 441.689 1.12409 -3.30402 0
M  V30 4594 C 443.037 1.52724 -3.96182 0
M  V30 4595 O 444.061 1.21784 -3.34734 0
M  V30 4596 O 442.92 2.10265 -5.04431 0
M  V30 4597 H 440.014 0.350707 -0.748955 0
M  V30 4598 H 442.56 -0.0272597 -1.69678 0
M  V30 4599 H 441.332 0.269532 -3.90371 0
M  V30 4600 H 440.955 1.93035 -3.47596 0
M  V30 4601 N 441.952 1.55251 0.271103 0
M  V30 4602 C 443.229 1.66664 1.02384 0
M  V30 4603 C 443.609 0.534363 2.04225 0
M  V30 4604 O 442.957 -0.465337 2.23712 0
M  V30 4605 C 443.167 3.05961 1.67895 0
M  V30 4606 C 444.515 3.63772 2.18986 0
M  V30 4607 O 445.539 3.08606 1.77878 0
M  V30 4608 O 444.398 4.60429 2.94393 0
M  V30 4609 H 441.492 0.676957 0.475035 0
M  V30 4610 H 444.038 1.67589 0.26681 0
M  V30 4611 H 442.81 3.79815 0.941071 0
M  V30 4612 H 442.433 3.08943 2.5028 0
M  V30 4613 N 443.43 -0.535701 1.48216 0
M  V30 4614 C 444.377 -1.64083 1.62312 0
M  V30 4615 C 445.347 -1.59448 0.465365 0
M  V30 4616 O 446.532 -1.77959 0.688135 0
M  V30 4617 C 443.672 -3.0236 1.66349 0
M  V30 4618 C 442.785 -3.17273 2.93193 0
M  V30 4619 C 441.92 -4.46075 2.88427 0
M  V30 4620 C 440.959 -4.54496 4.1 0
M  V30 4621 N 440.096 -5.7468 4.03345 0
M  V30 4622 H 444.936 -1.51374 2.5669 0
M  V30 4623 H 442.473 -0.737059 1.27302 0
M  V30 4624 H 444.431 -3.82461 1.66672 0
M  V30 4625 H 443.061 -3.13854 0.754672 0
M  V30 4626 H 442.113 -2.30462 3.02641 0
M  V30 4627 H 443.425 -3.19357 3.83162 0
M  V30 4628 H 442.579 -5.3446 2.87119 0
M  V30 4629 H 441.318 -4.46504 1.96177 0
M  V30 4630 H 440.323 -3.64519 4.11589 0
M  V30 4631 H 441.548 -4.5581 5.03402 0
M  V30 4632 H 439.494 -5.76017 3.13912 0
M  V30 4633 H 439.411 -5.78234 4.87013 0
M  V30 4634 H 440.679 -6.65367 4.06087 0
M  V30 4635 N 444.908 -1.36708 -0.784132 0
M  V30 4636 C 445.856 -1.31533 -1.91838 0
M  V30 4637 C 446.85 -0.206205 -1.6814 0
M  V30 4638 O 448.056 -0.373519 -1.76082 0
M  V30 4639 H 444.431 -0.409613 -0.630651 0
M  V30 4640 H 446.402 -2.2731 -1.9332 0
M  V30 4641 C 445.151 -1.12679 -3.28936 0
M  V30 4642 H 444.474 -1.97274 -3.4774 0
M  V30 4643 H 445.914 -1.13106 -4.08636 0
M  V30 4644 C 444.373 0.168281 -3.36479 0
M  V30 4645 O 444.903 1.15625 -3.84699 0
M  V30 4646 N 443.109 0.214762 -2.89805 0
M  V30 4647 H 442.656 -0.589852 -2.50756 0
M  V30 4648 H 442.614 1.08094 -2.95234 0
M  V30 4649 N 446.386 1.0089 -1.21074 0
M  V30 4650 C 447.635 1.74019 -1.01981 0
M  V30 4651 C 447.948 1.90408 0.447665 0
M  V30 4652 O 449.154 2.60707 0.757906 0
M  V30 4653 C 447.61 3.13026 -1.77603 0
M  V30 4654 C 447.218 3.04623 -3.28495 0
M  V30 4655 C 448.962 3.90312 -1.66904 0
M  V30 4656 C 446.869 4.38685 -3.96623 0
M  V30 4657 H 445.799 0.652422 -0.377971 0
M  V30 4658 H 448.45 1.12755 -1.44771 0
M  V30 4659 H 446.832 3.74878 -1.27604 0
M  V30 4660 H 448.006 2.52032 -3.85767 0
M  V30 4661 H 446.321 2.40827 -3.39693 0
M  V30 4662 H 448.918 4.8951 -2.15138 0
M  V30 4663 H 449.261 4.11558 -0.62658 0
M  V30 4664 H 449.794 3.35104 -2.14359 0
M  V30 4665 H 446.533 4.22641 -5.01054 0
M  V30 4666 H 446.053 4.91252 -3.4414 0
M  V30 4667 H 447.732 5.075 -4.01314 0
M  V30 4668 N 447.864 1.01787 1.20321 0
M  V30 4669 C 449.094 0.72614 1.93419 0
M  V30 4670 C 449.502 -0.717317 1.75075 0
M  V30 4671 O 448.845 -1.49836 1.06278 0
M  V30 4672 C 448.907 0.983621 3.45782 0
M  V30 4673 C 448.571 2.41645 3.87888 0
M  V30 4674 C 449.568 3.39732 3.93545 0
M  V30 4675 C 447.253 2.75752 4.19841 0
M  V30 4676 C 449.247 4.69988 4.30569 0
M  V30 4677 C 446.934 4.06221 4.56539 0
M  V30 4678 C 447.932 5.0315 4.61876 0
M  V30 4679 O 447.62 6.31284 4.97731 0
M  V30 4680 H 447.352 0.265824 0.621541 0
M  V30 4681 H 449.906 1.3623 1.53722 0
M  V30 4682 H 448.136 0.290301 3.85609 0
M  V30 4683 H 449.825 0.683279 4.00108 0
M  V30 4684 H 450.591 3.14718 3.69022 0
M  V30 4685 H 446.47 2.00993 4.14877 0
M  V30 4686 H 450.014 5.45642 4.3465 0
M  V30 4687 H 445.911 4.31013 4.80518 0
M  V30 4688 H 446.679 6.35591 5.15719 0
M  V30 4689 N 449.342 -1.36122 0.79427 0
M  V30 4690 C 450.272 -2.32551 0.210328 0
M  V30 4691 C 451.253 -1.56884 -0.657386 0
M  V30 4692 O 452.438 -1.85014 -0.590207 0
M  V30 4693 C 449.568 -3.41128 -0.651819 0
M  V30 4694 C 448.522 -4.27842 0.116395 0
M  V30 4695 C 447.848 -5.2763 -0.86666 0
M  V30 4696 C 449.148 -5.05647 1.30837 0
M  V30 4697 H 450.842 -2.81636 1.01594 0
M  V30 4698 H 448.388 -1.35407 0.489981 0
M  V30 4699 H 450.341 -4.07581 -1.07031 0
M  V30 4700 H 449.065 -2.90622 -1.49019 0
M  V30 4701 H 447.724 -3.62952 0.515915 0
M  V30 4702 H 447.372 -4.73395 -1.70019 0
M  V30 4703 H 447.072 -5.86514 -0.35705 0
M  V30 4704 H 448.596 -5.96955 -1.28361 0
M  V30 4705 H 450.01 -5.65113 0.965393 0
M  V30 4706 H 448.407 -5.73967 1.75161 0
M  V30 4707 H 449.477 -4.37006 2.10128 0
M  V30 4708 N 450.82 -0.546701 -1.47814 0
M  V30 4709 C 452.048 -0.0232857 -2.06887 0
M  V30 4710 C 452.463 1.26571 -1.4009 0
M  V30 4711 O 451.82 1.7569 -0.493906 0
M  V30 4712 C 451.871 0.186975 -3.61016 0
M  V30 4713 O 451.592 -1.05097 -4.25307 0
M  V30 4714 C 453.093 0.748872 -4.36929 0
M  V30 4715 H 450.313 -0.0410763 -0.669742 0
M  V30 4716 H 452.857 -0.757117 -1.89968 0
M  V30 4717 H 451.012 0.870903 -3.77484 0
M  V30 4718 H 451.426 -0.842121 -5.17695 0
M  V30 4719 H 452.9 0.845334 -5.45489 0
M  V30 4720 H 453.377 1.75772 -4.02493 0
M  V30 4721 H 453.983 0.100979 -4.2518 0
M  V30 4722 N 452.299 1.55045 -0.282633 0
M  V30 4723 C 453.229 2.2579 0.595066 0
M  V30 4724 C 454.21 1.25074 1.15284 0
M  V30 4725 O 455.395 1.5381 1.18559 0
M  V30 4726 C 452.525 2.98472 1.77572 0
M  V30 4727 C 451.479 4.0618 1.34914 0
M  V30 4728 C 450.805 4.66477 2.6135 0
M  V30 4729 C 452.105 5.1996 0.493821 0
M  V30 4730 H 453.799 2.994 0.00505653 0
M  V30 4731 H 451.345 1.44 0.000992001 0
M  V30 4732 H 453.298 3.46677 2.39568 0
M  V30 4733 H 452.022 2.2241 2.39168 0
M  V30 4734 H 450.681 3.58797 0.752338 0
M  V30 4735 H 450.329 3.87074 3.2122 0
M  V30 4736 H 450.029 5.39207 2.33516 0
M  V30 4737 H 451.553 5.17435 3.24181 0
M  V30 4738 H 452.967 5.64172 1.01898 0
M  V30 4739 H 451.364 5.99299 0.310047 0
M  V30 4740 H 452.434 4.82462 -0.485593 0
M  V30 4741 N 453.777 0.010035 1.57597 0
M  V30 4742 C 455.188 -0.531426 1.78977 0
M  V30 4743 C 455.539 -1.73375 0.918454 0
M  V30 4744 O 454.664 -2.16047 0.123635 0
M  V30 4745 C 455.259 -0.97086 3.24592 0
M  V30 4746 C 453.818 -1.45756 3.47033 0
M  V30 4747 C 452.965 -0.413384 2.74201 0
M  V30 4748 H 455.916 0.236166 1.56933 0
M  V30 4749 H 455.937 -1.83633 3.33255 0
M  V30 4750 H 455.449 -0.0955893 3.87982 0
M  V30 4751 H 453.55 -2.35339 2.88871 0
M  V30 4752 H 453.663 -1.4781 4.55729 0
M  V30 4753 H 452.027 -0.877266 2.39115 0
M  V30 4754 H 452.81 0.453092 3.40297 0
M  V30 4755 N 455.255 -1.55392 -0.262866 0
M  V30 4756 C 456.666 -1.67079 -0.833158 0
M  V30 4757 C 457.017 -0.604539 -1.86654 0
M  V30 4758 O 456.142 0.252138 -2.14926 0
M  V30 4759 C 456.737 -3.02891 -1.51797 0
M  V30 4760 C 455.296 -3.16571 -2.03617 0
M  V30 4761 C 454.443 -2.62909 -0.881701 0
M  V30 4762 H 457.394 -1.58652 -0.0389986 0
M  V30 4763 H 457.415 -2.96445 -2.38538 0
M  V30 4764 H 456.927 -3.80473 -0.765619 0
M  V30 4765 H 455.028 -2.43782 -2.81782 0
M  V30 4766 H 455.141 -4.23271 -2.24452 0
M  V30 4767 H 453.505 -2.20324 -1.27786 0
M  V30 4768 H 454.288 -3.43003 -0.14269 0
M  V30 4769 N 456.733 0.527833 -1.48498 0
M  V30 4770 C 457.681 1.65313 -1.63628 0
M  V30 4771 C 458.675 1.6177 -0.502676 0
M  V30 4772 O 459.881 1.66601 -0.681469 0
M  V30 4773 H 456.256 0.547518 -0.515488 0
M  V30 4774 H 458.227 1.49696 -2.58135 0
M  V30 4775 C 456.976 3.03576 -1.6952 0
M  V30 4776 H 456.299 3.06997 -2.56111 0
M  V30 4777 H 457.739 3.81923 -1.84149 0
M  V30 4778 C 456.198 3.34089 -0.43432 0
M  V30 4779 O 456.728 3.99151 0.451852 0
M  V30 4780 N 454.934 2.88991 -0.305368 0
M  V30 4781 H 454.481 2.36222 -1.02747 0
M  V30 4782 H 454.439 3.09776 0.537249 0
M  V30 4783 N 458.211 1.37122 0.776871 0
M  V30 4784 C 459.488 1.22586 1.52421 0
M  V30 4785 C 459.868 -0.182726 2.10308 0
M  V30 4786 O 459.216 -1.18979 1.9508 0
M  V30 4787 C 459.426 2.31782 2.60918 0
M  V30 4788 C 460.774 2.69071 3.2846 0
M  V30 4789 O 461.798 2.3092 2.71209 0
M  V30 4790 O 460.657 3.3478 4.31954 0
M  V30 4791 H 457.751 0.478045 0.674835 0
M  V30 4792 H 460.297 1.48888 0.814275 0
M  V30 4793 H 459.069 3.26131 2.16227 0
M  V30 4794 H 458.692 2.06916 3.39517 0
M  V30 4795 N 459.689 -1.00246 1.21608 0
M  V30 4796 C 460.639 -2.07492 0.945051 0
M  V30 4797 C 461.623 -1.60585 -0.100675 0
M  V30 4798 O 462.815 -1.76667 0.10859 0
M  V30 4799 C 459.944 -3.39425 0.514342 0
M  V30 4800 C 459.03 -3.92993 1.59428 0
M  V30 4801 N 459.421 -4.19898 2.81991 0
M  V30 4802 C 457.719 -4.21297 1.46374 0
M  V30 4803 C 458.42 -4.63297 3.51754 0
M  V30 4804 N 457.396 -4.66421 2.79199 0
M  V30 4805 H 461.198 -2.26222 1.87619 0
M  V30 4806 H 458.712 -1.18339 1.11219 0
M  V30 4807 H 460.709 -4.15808 0.301527 0
M  V30 4808 H 459.369 -3.22101 -0.410008 0
M  V30 4809 H 460.38 -4.08377 3.1851 0
M  V30 4810 H 457.057 -4.13095 0.604863 0
M  V30 4811 H 458.447 -4.92816 4.56708 0
M  V30 4812 N 461.167 -1.02423 -1.1978 0
M  V30 4813 C 462.413 -0.719051 -1.89625 0
M  V30 4814 C 462.746 0.750083 -1.7913 0
M  V30 4815 O 462.021 1.54574 -1.18056 0
M  V30 4816 C 462.304 -1.16499 -3.40735 0
M  V30 4817 C 462.157 -2.695 -3.60125 0
M  V30 4818 C 463.476 -0.742166 -4.33797 0
M  V30 4819 H 460.595 -0.26269 -0.688595 0
M  V30 4820 H 463.237 -1.27333 -1.41018 0
M  V30 4821 H 461.387 -0.69341 -3.82262 0
M  V30 4822 H 463.059 -3.24569 -3.278 0
M  V30 4823 H 461.302 -3.10113 -3.03336 0
M  V30 4824 H 461.973 -2.95757 -4.66081 0
M  V30 4825 H 464.449 -1.1477 -3.99959 0
M  V30 4826 H 463.325 -1.08213 -5.38127 0
M  V30 4827 H 463.586 0.355747 -4.40666 0
M  V30 4828 N 462.645 1.35699 -0.801477 0
M  V30 4829 C 463.593 2.3177 -0.196317 0
M  V30 4830 C 464.587 1.56388 0.651081 0
M  V30 4831 O 465.793 1.71557 0.544815 0
M  V30 4832 H 462.168 0.750669 -0.0447189 0
M  V30 4833 H 464.139 2.8036 -1.02181 0
M  V30 4834 C 462.888 3.41671 0.644702 0
M  V30 4835 H 462.211 3.998 0.0019921 0
M  V30 4836 H 463.651 4.11184 1.0346 0
M  V30 4837 C 462.11 2.84271 1.80808 0
M  V30 4838 O 462.64 2.77408 2.9053 0
M  V30 4839 N 460.846 2.41391 1.61799 0
M  V30 4840 H 460.393 2.47173 0.725493 0
M  V30 4841 H 460.351 2.03334 2.39797 0
M  V30 4842 N 464.123 0.554532 1.47522 0
M  V30 4843 C 465.348 0.0322661 2.07375 0
M  V30 4844 C 465.773 -1.25079 1.40488 0
M  V30 4845 O 465.131 -1.74859 0.47896 0
M  V30 4846 C 465.179 -0.149397 3.6029 0
M  V30 4847 O 464.283 -1.21259 3.9417 0
M  V30 4848 H 463.624 0.0501228 0.662106 0
M  V30 4849 H 466.154 0.769452 1.8958 0
M  V30 4850 H 466.164 -0.364437 4.06369 0
M  V30 4851 H 464.839 0.787743 4.08372 0
M  V30 4852 H 463.416 -0.97825 3.5984 0
M  V30 4853 N 465.601 -1.54893 0.290851 0
M  V30 4854 C 466.549 -2.24579 -0.605576 0
M  V30 4855 C 467.543 -1.24824 -1.14522 0
M  V30 4856 O 468.749 -1.42706 -1.09704 0
M  V30 4857 H 465.124 -0.720946 -0.213872 0
M  V30 4858 H 467.095 -2.984 0.0048173 0
M  V30 4859 C 465.844 -2.99224 -1.77088 0
M  V30 4860 H 465.167 -3.75782 -1.36484 0
M  V30 4861 H 466.607 -3.51281 -2.3744 0
M  V30 4862 C 465.066 -2.05602 -2.66888 0
M  V30 4863 O 465.596 -1.61745 -3.67698 0
M  V30 4864 N 463.802 -1.71771 -2.34399 0
M  V30 4865 H 463.349 -2.07633 -1.52468 0
M  V30 4866 H 463.307 -1.09403 -2.94751 0
M  V30 4867 N 467.08 -0.0183926 -1.57589 0
M  V30 4868 C 468.028 0.985111 -2.10709 0
M  V30 4869 C 469.022 1.34397 -1.0312 0
M  V30 4870 O 470.228 1.32746 -1.21567 0
M  V30 4871 H 466.603 0.335418 -0.673052 0
M  V30 4872 H 468.574 0.511689 -2.9398 0
M  V30 4873 C 467.323 2.26202 -2.64061 0
M  V30 4874 H 466.646 1.9946 -3.4649 0
M  V30 4875 H 468.086 2.94652 -3.04887 0
M  V30 4876 C 466.545 2.98444 -1.5631 0
M  V30 4877 O 467.075 3.90142 -0.956674 0
M  V30 4878 N 465.281 2.6059 -1.28612 0
M  V30 4879 H 464.828 1.86101 -1.78112 0
M  V30 4880 H 464.786 3.09238 -0.567406 0
M  V30 4881 O 468.597 1.61027 0.12348 0
M  V30 4882 H 469.288 1.78369 0.755254 0
M  V30 END ATOM
M  V30 BEGIN BOND
M  V30 END BOND
M  V30 END CTAB
M  END
$$$$
