drugbank_target|Q08188 Protein-glutamine gamma-glutamyltransferase E (DB01864; DB01972; DB03152; DB04315)
 OpenBabel12092119513D

  0  0  0     0  0            999 V3000
M  V30 BEGIN CTAB
M  V30 COUNTS 10711 10826 0 0 0
M  V30 BEGIN ATOM
M  V30 1 H -0.908 1.98254 -0.117106 0
M  V30 2 N 0 1.576 0 0
M  V30 3 C 0.933 2.03868 1.02534 0
M  V30 4 C 1.911 0.928543 1.3348 0
M  V30 5 O 3.095 1.19667 1.45644 0
M  V30 6 C 0.222 2.43627 2.35294 0
M  V30 7 C -0.732 3.65373 2.2001 0
M  V30 8 S 0.101 5.13292 1.52614 0
M  V30 9 C 1.257 5.56322 2.86805 0
M  V30 10 H 1.49 2.90518 0.631377 0
M  V30 11 H -0.977 1.52953 0.210867 0
M  V30 12 H 0.981 2.67203 3.11629 0
M  V30 13 H -0.358 1.57376 2.7183 0
M  V30 14 H -1.165 3.90944 3.18086 0
M  V30 15 H -1.563 3.418 1.51819 0
M  V30 16 H 0.729 5.58782 3.83104 0
M  V30 17 H 1.672 6.56266 2.65933 0
M  V30 18 H 2.08 4.83886 2.90714 0
M  V30 19 N 1.4781 -0.272755 1.55222 0
M  V30 20 C 2.4411 -1.32041 1.87344 0
M  V30 21 C 3.4411 -1.42342 0.74803 0
M  V30 22 O 4.6311 -1.41488 1.0162 0
M  V30 23 C 1.7631 -2.70173 2.07893 0
M  V30 24 H 2.9561 -1.04789 2.80997 0
M  V30 25 H 0.5091 -0.51083 1.47717 0
M  V30 26 H 1.2441 -3.02605 1.16622 0
M  V30 27 H 1.0291 -2.64082 2.89833 0
M  V30 28 H 2.5191 -3.45869 2.34017 0
M  V30 29 N 2.9562 -1.48159 -0.537278 0
M  V30 30 C 3.9192 -1.61665 -1.62472 0
M  V30 31 C 4.9192 -0.490395 -1.5314 0
M  V30 32 O 6.1092 -0.755998 -1.5694 0
M  V30 33 C 3.2412 -1.57997 -3.02076 0
M  V30 34 H 4.4342 -2.58621 -1.51839 0
M  V30 35 H 1.9872 -1.36647 -0.758771 0
M  V30 36 H 2.7222 -0.624913 -3.18222 0
M  V30 37 H 2.5072 -2.39755 -3.10258 0
M  V30 38 H 3.9972 -1.70627 -3.81151 0
M  V30 39 N 4.4343 0.785586 -1.36625 0
M  V30 40 C 5.3643 1.91259 -1.33949 0
M  V30 41 C 6.3453 1.68795 -0.210325 0
M  V30 42 O 7.5303 1.89854 -0.408561 0
M  V30 43 C 4.6603 3.28339 -1.13186 0
M  V30 44 C 3.6143 3.65335 -2.22967 0
M  V30 45 C 2.9403 5.00806 -1.87342 0
M  V30 46 C 4.2403 3.7352 -3.65075 0
M  V30 47 H 5.9343 1.93755 -2.28253 0
M  V30 48 H 3.4803 0.930788 -1.09874 0
M  V30 49 H 5.4333 4.06804 -1.09948 0
M  V30 50 H 4.1573 3.2624 -0.153332 0
M  V30 51 H 2.8163 2.89169 -2.25337 0
M  V30 52 H 2.4643 4.95233 -0.880545 0
M  V30 53 H 2.1643 5.26529 -2.60846 0
M  V30 54 H 3.6883 5.81687 -1.85667 0
M  V30 55 H 5.1023 4.42168 -3.64911 0
M  V30 56 H 3.4993 4.10731 -4.37516 0
M  V30 57 H 4.5693 2.74527 -3.99703 0
M  V30 58 N 5.9124 1.20967 1.01018 0
M  V30 59 C 7.1604 1.02172 1.74371 0
M  V30 60 C 7.4814 -0.446414 1.89821 0
M  V30 61 O 6.7514 -1.32234 1.44537 0
M  V30 62 H 5.3314 0.375066 0.646014 0
M  V30 63 H 7.9934 1.52187 1.21758 0
M  V30 64 H 7.0894 1.48538 2.74487 0
M  V30 65 N 7.3905 -1.2043 1.01659 0
M  V30 66 C 8.6365 -1.90079 0.706963 0
M  V30 67 C 8.9695 -1.78648 -0.761474 0
M  V30 68 O 8.2445 -1.17069 -1.55323 0
M  V30 69 C 8.5275 -3.41469 1.14327 0
M  V30 70 C 8.3805 -3.61833 2.67201 0
M  V30 71 C 9.6995 -4.34261 0.714529 0
M  V30 72 H 6.8185 -0.690254 0.2583 0
M  V30 73 H 9.4605 -1.41826 1.26433 0
M  V30 74 H 7.6105 -3.82696 0.669056 0
M  V30 75 H 9.2825 -3.2986 3.22475 0
M  V30 76 H 7.5255 -3.05304 3.08175 0
M  V30 77 H 8.1965 -4.67955 2.92783 0
M  V30 78 H 10.6725 -4.00682 1.12221 0
M  V30 79 H 9.5485 -5.38806 1.04784 0
M  V30 80 H 9.8095 -4.40431 -0.383799 0
M  V30 81 N 8.8686 -0.792821 -1.36206 0
M  V30 82 C 9.8006 -0.151469 -2.28699 0
M  V30 83 C 10.8136 0.641262 -1.49638 0
M  V30 84 O 12.0026 0.475885 -1.72039 0
M  V30 85 C 9.1026 0.808424 -3.29117 0
M  V30 86 C 8.2756 0.0650202 -4.37352 0
M  V30 87 C 7.3346 0.941358 -5.17711 0
M  V30 88 O 6.3606 0.397352 -5.67811 0
M  V30 89 N 7.5626 2.2652 -5.3448 0
M  V30 90 H 10.3276 -0.945982 -2.84379 0
M  V30 91 H 7.8886 -0.647032 -1.48409 0
M  V30 92 H 9.8806 1.3986 -3.79765 0
M  V30 93 H 8.4506 1.5038 -2.74052 0
M  V30 94 H 7.6706 -0.706255 -3.87822 0
M  V30 95 H 8.9586 -0.447847 -5.06825 0
M  V30 96 H 8.3566 2.73128 -4.95396 0
M  V30 97 H 6.9136 2.80493 -5.88359 0
M  V30 98 N 10.3467 1.47872 -0.545128 0
M  V30 99 C 11.5717 2.07391 -0.0190611 0
M  V30 100 C 11.9967 1.39688 1.25971 0
M  V30 101 O 11.3547 0.467816 1.7516 0
M  V30 102 C 11.4027 3.60188 0.172335 0
M  V30 103 O 10.5067 3.9339 1.23766 0
M  V30 104 H 9.8477 0.662411 -0.0459059 0
M  V30 105 H 12.3777 1.90066 -0.757365 0
M  V30 106 H 12.3877 4.06129 0.390305 0
M  V30 107 H 11.0627 4.08865 -0.761725 0
M  V30 108 H 9.6397 3.5921 1.00114 0
M  V30 109 N 11.8248 0.280983 1.55075 0
M  V30 110 C 13.0738 -0.334784 1.98902 0
M  V30 111 C 13.3868 -1.56534 1.17288 0
M  V30 112 O 14.5928 -2.25443 1.51287 0
M  V30 113 C 13.0488 -0.646994 3.54037 0
M  V30 114 C 12.6568 0.564085 4.44435 0
M  V30 115 C 14.4008 -1.22506 4.06439 0
M  V30 116 C 12.3078 0.226137 5.90967 0
M  V30 117 H 11.2378 -0.128866 0.742906 0
M  V30 118 H 13.8888 0.386556 1.79382 0
M  V30 119 H 12.2708 -1.42739 3.6938 0
M  V30 120 H 13.4448 1.34082 4.40861 0
M  V30 121 H 11.7598 1.0594 4.02698 0
M  V30 122 H 14.3568 -1.49182 5.13468 0
M  V30 123 H 14.6998 -2.16085 3.55827 0
M  V30 124 H 15.2328 -0.50682 3.94558 0
M  V30 125 H 11.9718 1.12996 6.45687 0
M  V30 126 H 11.4918 -0.513717 5.97596 0
M  V30 127 H 13.1708 -0.179539 6.46751 0
M  V30 128 N 13.3029 -1.57598 0.00835791 0
M  V30 129 C 14.2509 -2.10078 -0.998508 0
M  V30 130 C 15.2449 -1.02262 -1.35051 0
M  V30 131 O 16.4509 -1.20719 -1.33518 0
M  V30 132 H 12.8259 -0.670903 -0.339696 0
M  V30 133 H 14.7969 -2.93648 -0.530398 0
M  V30 134 C 13.5459 -2.62615 -2.27879 0
M  V30 135 H 12.8689 -3.45213 -2.01662 0
M  V30 136 H 14.3089 -3.03004 -2.96588 0
M  V30 137 C 12.7679 -1.54407 -2.99433 0
M  V30 138 O 13.2979 -0.931812 -3.90743 0
M  V30 139 N 11.5039 -1.2695 -2.61404 0
M  V30 140 H 11.0509 -1.76924 -1.87232 0
M  V30 141 H 11.0089 -0.547704 -3.09593 0
M  V30 142 N 14.781 0.264519 -1.55364 0
M  V30 143 C 16.027 0.992314 -1.77552 0
M  V30 144 C 16.382 1.83626 -0.574379 0
M  V30 145 O 15.675 1.86648 0.432782 0
M  V30 146 C 15.869 1.9004 -3.02687 0
M  V30 147 C 15.698 1.14583 -4.34857 0
M  V30 148 C 14.468 0.858068 -4.97961 0
M  V30 149 C 16.666 0.532069 -5.1154 0
M  V30 150 N 14.648 0.0775974 -6.13851 0
M  V30 151 C 16.019 -0.113823 -6.19896 0
M  V30 152 C 18.074 0.440763 -4.95945 0
M  V30 153 C 16.777 -0.842231 -7.14352 0
M  V30 154 C 18.803 -0.274072 -5.90765 0
M  V30 155 C 18.165 -0.90867 -6.98515 0
M  V30 156 H 14.264 0.344811 -0.701875 0
M  V30 157 H 16.848 0.267141 -1.92859 0
M  V30 158 H 15.019 2.59775 -2.88741 0
M  V30 159 H 16.751 2.56243 -3.13243 0
M  V30 160 H 13.506 1.16547 -4.59036 0
M  V30 161 H 13.93 -0.300216 -6.76334 0
M  V30 162 H 18.572 0.917064 -4.12735 0
M  V30 163 H 16.29 -1.33019 -7.97077 0
M  V30 164 H 19.876 -0.345151 -5.80775 0
M  V30 165 H 18.756 -1.45299 -7.70622 0
M  V30 166 N 16.2591 1.48442 0.529413 0
M  V30 167 C 17.1911 1.59095 1.64989 0
M  V30 168 C 18.2041 0.475212 1.5571 0
M  V30 169 O 19.3931 0.746081 1.6216 0
M  V30 170 C 16.4931 1.50518 3.0364 0
M  V30 171 C 15.6661 2.77142 3.38395 0
M  V30 172 C 14.7251 2.62012 4.56329 0
M  V30 173 O 13.7511 3.35898 4.59522 0
M  V30 174 N 14.9531 1.71667 5.54536 0
M  V30 175 H 17.7181 2.55723 1.56287 0
M  V30 176 H 15.2791 1.45173 0.716697 0
M  V30 177 H 17.2711 1.38091 3.80412 0
M  V30 178 H 15.8411 0.618627 3.06418 0
M  V30 179 H 15.0611 3.0413 2.50796 0
M  V30 180 H 16.3491 3.61146 3.58401 0
M  V30 181 H 15.7471 1.10841 5.54735 0
M  V30 182 H 14.3041 1.65178 6.30523 0
M  V30 183 N 17.7372 -0.778329 1.37039 0
M  V30 184 C 18.9652 -1.56734 1.35063 0
M  V30 185 C 19.3802 -1.88686 -0.0655597 0
M  V30 186 O 18.7372 -1.5096 -1.02554 0
M  V30 187 C 18.7882 -2.88163 2.18276 0
M  V30 188 O 18.5092 -2.57583 3.54376 0
M  V30 189 C 20.0102 -3.82422 2.24206 0
M  V30 190 H 17.2302 -0.485778 0.462883 0
M  V30 191 H 19.7742 -0.965185 1.8029 0
M  V30 192 H 17.9292 -3.44818 1.76576 0
M  V30 193 H 18.3432 -3.41699 3.97922 0
M  V30 194 H 19.8172 -4.71667 2.86765 0
M  V30 195 H 20.2942 -4.21078 1.24861 0
M  V30 196 H 20.9002 -3.31697 2.6619 0
M  V30 197 N 19.2153 -1.21501 -1.00376 0
M  V30 198 C 20.1783 -0.976927 -2.07337 0
M  V30 199 C 21.1783 0.0525322 -1.60714 0
M  V30 200 O 22.3683 -0.184869 -1.73216 0
M  V30 201 C 19.5003 -0.473423 -3.37597 0
M  V30 202 H 20.6933 -1.92587 -2.29892 0
M  V30 203 H 18.2463 -1.03217 -1.17371 0
M  V30 204 H 18.9813 0.480379 -3.20722 0
M  V30 205 H 18.7663 -1.216 -3.72768 0
M  V30 206 H 20.2563 -0.32675 -4.1632 0
M  V30 207 N 20.6934 1.19889 -1.02296 0
M  V30 208 C 21.9404 1.8942 -0.715972 0
M  V30 209 C 22.2684 1.79251 0.754944 0
M  V30 210 O 21.5234 1.17526 1.56481 0
M  V30 211 C 21.8224 3.39883 -1.10518 0
M  V30 212 C 21.4884 3.70254 -2.57337 0
M  V30 213 C 20.1504 3.78254 -2.97452 0
M  V30 214 C 22.5024 3.84052 -3.52354 0
M  V30 215 C 19.8304 3.97514 -4.31509 0
M  V30 216 C 22.1824 4.04824 -4.86108 0
M  V30 217 C 20.8464 4.11054 -5.25919 0
M  V30 218 H 20.1164 0.693138 -0.261993 0
M  V30 219 H 22.7634 1.42012 -1.28472 0
M  V30 220 H 21.0684 3.8915 -0.454953 0
M  V30 221 H 22.7654 3.9199 -0.845261 0
M  V30 222 H 19.3554 3.64632 -2.25258 0
M  V30 223 H 23.5394 3.77221 -3.22518 0
M  V30 224 H 18.7954 4.00574 -4.61898 0
M  V30 225 H 22.9694 4.14442 -5.59653 0
M  V30 226 H 20.5964 4.2573 -6.29808 0
M  V30 227 N 22.1715 0.800033 1.35784 0
M  V30 228 C 23.1195 0.193851 2.31791 0
M  V30 229 C 24.1135 -0.652744 1.56319 0
M  V30 230 O 25.3195 -0.546641 1.71499 0
M  V30 231 H 21.6945 0.04392 0.750716 0
M  V30 232 H 23.6655 1.01883 2.80468 0
M  V30 233 C 22.4145 -0.648338 3.41602 0
M  V30 234 H 21.7375 -0.00624665 3.998 0
M  V30 235 H 23.1775 -1.03898 4.11073 0
M  V30 236 C 21.6365 -1.8111 2.84079 0
M  V30 237 O 22.1665 -2.90825 2.77099 0
M  V30 238 N 20.3725 -1.62056 2.41218 0
M  V30 239 H 19.9195 -0.728123 2.47095 0
M  V30 240 H 19.8775 -2.40013 2.03079 0
M  V30 241 N 23.6496 -1.47581 0.552962 0
M  V30 242 C 25.0656 -1.5818 0.212424 0
M  V30 243 C 25.2656 -1.55213 -1.28496 0
M  V30 244 O 24.3216 -1.45329 -2.06484 0
M  V30 245 C 25.6346 -2.88865 0.835318 0
M  V30 246 C 27.1826 -3.0244 0.806156 0
M  V30 247 C 27.6576 -4.35819 1.40804 0
M  V30 248 N 29.1486 -4.42444 1.37103 0
M  V30 249 C 29.8836 -5.44202 1.80641 0
M  V30 250 N 29.3796 -6.52795 2.32015 0
M  V30 251 N 31.1726 -5.35222 1.71738 0
M  V30 252 H 23.3236 -1.47753 1.52587 0
M  V30 253 H 25.5866 -0.702941 0.636064 0
M  V30 254 H 25.2926 -2.9676 1.88749 0
M  V30 255 H 25.1666 -3.7579 0.325848 0
M  V30 256 H 27.5536 -2.94144 -0.237317 0
M  V30 257 H 27.6346 -2.17068 1.35334 0
M  V30 258 H 27.2786 -4.44871 2.45056 0
M  V30 259 H 27.2086 -5.19916 0.836338 0
M  V30 260 H 29.6996 -3.6456 0.995202 0
M  V30 261 H 30.0126 -7.26609 2.63171 0
M  V30 262 H 28.3576 -6.53696 2.36023 0
M  V30 263 H 31.5486 -4.49284 1.31382 0
M  V30 264 H 31.7216 -6.14389 2.05987 0
M  V30 265 N 25.1277 -0.289203 -1.54924 0
M  V30 266 C 26.0597 0.625583 -2.20497 0
M  V30 267 C 27.0727 1.10667 -1.19402 0
M  V30 268 O 28.2617 1.02615 -1.46056 0
M  V30 269 C 25.3617 1.86702 -2.82835 0
M  V30 270 C 24.5347 1.5304 -4.09753 0
M  V30 271 C 23.5937 2.62576 -4.56005 0
M  V30 272 O 22.6197 2.28167 -5.21468 0
M  V30 273 N 23.8217 3.92901 -4.27328 0
M  V30 274 H 26.5867 0.0642801 -2.99631 0
M  V30 275 H 24.1477 -0.110896 -1.6152 0
M  V30 276 H 26.1397 2.59304 -3.10715 0
M  V30 277 H 24.7097 2.33702 -2.07611 0
M  V30 278 H 23.9297 0.637564 -3.8901 0
M  V30 279 H 25.2177 1.28072 -4.92418 0
M  V30 280 H 24.6157 4.23671 -3.74859 0
M  V30 281 H 23.1727 4.61837 -4.59946 0
M  V30 282 N 26.6058 1.57591 -0.0167156 0
M  V30 283 C 27.5688 2.08393 0.954204 0
M  V30 284 C 28.5688 0.996531 1.26198 0
M  V30 285 O 29.7588 1.25858 1.20438 0
M  V30 286 C 26.8908 2.5394 2.27436 0
M  V30 287 H 28.0838 2.95455 0.514451 0
M  V30 288 H 25.6368 1.54582 0.231089 0
M  V30 289 H 26.3718 1.70171 2.76066 0
M  V30 290 H 26.1568 3.33371 2.06412 0
M  V30 291 H 27.6468 2.93512 2.97053 0
M  V30 292 N 28.0839 -0.256276 1.55502 0
M  V30 293 C 29.0339 -1.31981 1.85916 0
M  V30 294 C 30.0179 -1.43927 0.719296 0
M  V30 295 O 31.2099 -1.47326 0.981019 0
M  V30 296 C 28.3389 -2.67703 2.14918 0
M  V30 297 C 27.4249 -2.59801 3.35208 0
M  V30 298 N 27.8159 -2.21524 4.54709 0
M  V30 299 C 26.1139 -2.90832 3.38131 0
M  V30 300 C 26.8149 -2.24024 5.36832 0
M  V30 301 N 25.7909 -2.63158 4.75656 0
M  V30 302 H 29.5929 -1.01423 2.75845 0
M  V30 303 H 27.1069 -0.464911 1.55603 0
M  V30 304 H 29.1039 -3.44445 2.34869 0
M  V30 305 H 27.7639 -2.99137 1.26282 0
M  V30 306 H 28.7749 -1.93223 4.80505 0
M  V30 307 H 25.4519 -3.26867 2.59739 0
M  V30 308 H 26.8419 -1.9685 6.42417 0
M  V30 309 N 29.562 -1.4872 -0.521534 0
M  V30 310 C 30.512 -1.60269 -1.62166 0
M  V30 311 C 31.496 -0.45935 -1.54204 0
M  V30 312 O 32.688 -0.711241 -1.62081 0
M  V30 313 C 29.817 -1.65344 -3.00859 0
M  V30 314 C 28.903 -2.85187 -3.13894 0
M  V30 315 N 29.294 -4.09509 -2.96877 0
M  V30 316 C 27.592 -2.82695 -3.44963 0
M  V30 317 C 28.293 -4.89959 -3.13552 0
M  V30 318 N 27.269 -4.22934 -3.41508 0
M  V30 319 H 31.071 -2.5413 -1.47632 0
M  V30 320 H 28.585 -1.45209 -0.727194 0
M  V30 321 H 30.582 -1.71713 -3.79895 0
M  V30 322 H 29.242 -0.726058 -3.16478 0
M  V30 323 H 30.253 -4.39814 -2.73467 0
M  V30 324 H 26.93 -1.99249 -3.66887 0
M  V30 325 H 28.32 -5.98654 -3.05061 0
M  V30 326 N 31.0401 0.771051 -1.3745 0
M  V30 327 C 32.2681 1.56015 -1.35893 0
M  V30 328 C 32.6831 1.88718 0.0555523 0
M  V30 329 O 32.0401 1.51502 1.01752 0
M  V30 330 C 32.0911 2.87001 -2.19801 0
M  V30 331 O 31.8121 2.557 -3.55738 0
M  V30 332 C 33.3131 3.81228 -2.26231 0
M  V30 333 H 30.5331 0.483317 -0.465453 0
M  V30 334 H 33.0771 0.955611 -1.80799 0
M  V30 335 H 31.2321 3.43877 -1.78402 0
M  V30 336 H 31.6461 3.39584 -3.99729 0
M  V30 337 H 33.1201 4.70139 -2.89263 0
M  V30 338 H 33.5971 4.20409 -1.27093 0
M  V30 339 H 34.2031 3.30281 -2.67945 0
M  V30 340 N 32.5182 1.22032 0.997298 0
M  V30 341 C 33.7952 0.950823 1.70935 0
M  V30 342 C 34.1752 -0.535292 2.042 0
M  V30 343 O 33.5232 -1.50217 1.72183 0
M  V30 344 C 33.7332 1.84386 2.96315 0
M  V30 345 C 35.0812 2.09732 3.69185 0
M  V30 346 O 36.1052 1.81798 3.06314 0
M  V30 347 O 34.9642 2.57018 4.82291 0
M  V30 348 H 32.0582 0.357204 0.745878 0
M  V30 349 H 34.6042 1.32997 1.05404 0
M  V30 350 H 33.3762 2.84928 2.68201 0
M  V30 351 H 32.9992 1.46602 3.69586 0
M  V30 352 N 33.9963 -1.19345 1.0293 0
M  V30 353 C 34.9433 -2.2258 0.610464 0
M  V30 354 C 35.9133 -1.6179 -0.375946 0
M  V30 355 O 37.0983 -1.88844 -0.272511 0
M  V30 356 C 34.2383 -3.45085 -0.0321473 0
M  V30 357 C 33.3513 -4.20258 1.00035 0
M  V30 358 C 32.4863 -5.3019 0.32746 0
M  V30 359 C 31.5253 -5.97121 1.34584 0
M  V30 360 N 30.6623 -6.98615 0.698726 0
M  V30 361 H 35.5023 -2.57764 1.49538 0
M  V30 362 H 33.0393 -1.26644 0.748311 0
M  V30 363 H 34.9973 -4.15061 -0.421966 0
M  V30 364 H 33.6273 -3.10555 -0.88064 0
M  V30 365 H 32.6793 -3.49223 1.50823 0
M  V30 366 H 33.9913 -4.66175 1.77433 0
M  V30 367 H 33.1453 -6.06587 -0.11718 0
M  V30 368 H 31.8843 -4.85345 -0.478713 0
M  V30 369 H 30.8893 -5.19474 1.80074 0
M  V30 370 H 32.1143 -6.4405 2.15352 0
M  V30 371 H 30.0603 -6.55942 -0.0873471 0
M  V30 372 H 29.9773 -7.42724 1.41058 0
M  V30 373 H 31.2453 -7.79004 0.278102 0
M  V30 374 N 35.4744 -0.807222 -1.35358 0
M  V30 375 C 36.7214 -0.387888 -1.9875 0
M  V30 376 C 37.0494 1.04509 -1.64037 0
M  V30 377 O 36.3044 1.73986 -0.895946 0
M  V30 378 C 36.6034 -0.519036 -3.53611 0
M  V30 379 C 36.2694 -1.91542 -4.08194 0
M  V30 380 C 34.9314 -2.29745 -4.22813 0
M  V30 381 C 37.2834 -2.82896 -4.37744 0
M  V30 382 C 34.6114 -3.58668 -4.643 0
M  V30 383 C 36.9634 -4.11265 -4.8067 0
M  V30 384 C 35.6274 -4.49466 -4.93494 0
M  V30 385 H 34.8974 -0.141938 -0.727279 0
M  V30 386 H 37.5444 -1.02814 -1.6156 0
M  V30 387 H 35.8494 0.204658 -3.91265 0
M  V30 388 H 37.5464 -0.175345 -4.00616 0
M  V30 389 H 34.1364 -1.60862 -3.97268 0
M  V30 390 H 38.3204 -2.54629 -4.26002 0
M  V30 391 H 33.5764 -3.88113 -4.72418 0
M  V30 392 H 37.7504 -4.82153 -5.02496 0
M  V30 393 H 35.3774 -5.49418 -5.25399 0
M  V30 394 N 36.9525 1.47285 -0.560781 0
M  V30 395 C 38.1775 2.07359 -0.0410566 0
M  V30 396 C 38.6025 1.41017 1.24483 0
M  V30 397 O 37.9605 0.486368 1.74654 0
M  V30 398 C 38.0085 3.6035 0.134123 0
M  V30 399 O 37.1125 3.94681 1.19587 0
M  V30 400 H 36.4535 0.661887 -0.0529291 0
M  V30 401 H 38.9835 1.89252 -0.777482 0
M  V30 402 H 38.9935 4.0652 0.347207 0
M  V30 403 H 37.6685 4.08034 -0.805047 0
M  V30 404 H 36.2455 3.60251 0.962987 0
M  V30 405 N 38.4306 0.297415 1.54768 0
M  V30 406 C 39.6556 -0.318435 2.04941 0
M  V30 407 C 40.0806 -1.4701 1.17345 0
M  V30 408 O 39.4386 -1.80436 0.176758 0
M  V30 409 C 39.4866 -0.755749 3.52592 0
M  V30 410 O 38.5906 -1.86088 3.68028 0
M  V30 411 H 37.9316 -0.062421 0.661059 0
M  V30 412 H 40.4616 0.438215 1.99852 0
M  V30 413 H 40.4716 -1.04552 3.94376 0
M  V30 414 H 39.1466 0.0867233 4.1581 0
M  V30 415 H 37.7236 -1.57193 3.38149 0
M  V30 416 N 39.9087 -1.5758 0.0250728 0
M  V30 417 C 40.8407 -2.06869 -0.986796 0
M  V30 418 C 41.8537 -0.991332 -1.29137 0
M  V30 419 O 43.0427 -1.26761 -1.25674 0
M  V30 420 C 40.1427 -2.47486 -2.31525 0
M  V30 421 C 39.3157 -3.78253 -2.19643 0
M  V30 422 C 38.3747 -4.05464 -3.35388 0
M  V30 423 O 37.4007 -4.75774 -3.12454 0
M  V30 424 N 38.6027 -3.55321 -4.59051 0
M  V30 425 H 41.3677 -2.94302 -0.566276 0
M  V30 426 H 38.9287 -1.6109 -0.161776 0
M  V30 427 H 40.9207 -2.62785 -3.07776 0
M  V30 428 H 39.4907 -1.65441 -2.65232 0
M  V30 429 H 38.7107 -3.7279 -1.28144 0
M  V30 430 H 39.9987 -4.63936 -2.08903 0
M  V30 431 H 39.3967 -2.98431 -4.80578 0
M  V30 432 H 37.9537 -3.75905 -5.32483 0
M  V30 433 N 41.3868 0.248026 -1.55636 0
M  V30 434 C 42.2968 1.32859 -1.93354 0
M  V30 435 C 43.3128 1.52719 -0.833838 0
M  V30 436 O 44.4888 1.66363 -1.13513 0
M  V30 437 C 41.5538 2.66337 -2.21958 0
M  V30 438 C 40.6148 2.55008 -3.45354 0
M  V30 439 C 39.8478 3.82121 -3.72584 0
M  V30 440 O 40.0708 4.83951 -3.01907 0
M  V30 441 O 39.0048 3.80822 -4.6611 0
M  V30 442 H 42.8308 1.03862 -2.85388 0
M  V30 443 H 40.4158 0.448686 -1.42503 0
M  V30 444 H 42.2978 3.45216 -2.4167 0
M  V30 445 H 40.9728 2.95068 -1.33103 0
M  V30 446 H 39.8798 1.7442 -3.30951 0
M  V30 447 H 41.2128 2.31222 -4.34508 0
M  V30 448 N 42.8649 1.48995 0.513639 0
M  V30 449 C 43.7949 1.67636 1.62544 0
M  V30 450 C 44.7759 0.525087 1.61793 0
M  V30 451 O 45.9609 0.759502 1.78732 0
M  V30 452 C 43.0909 1.73114 3.01079 0
M  V30 453 C 42.0449 2.87905 3.16693 0
M  V30 454 C 41.3709 2.78486 4.56453 0
M  V30 455 C 42.6709 4.29005 2.97913 0
M  V30 456 H 44.3649 2.60716 1.47198 0
M  V30 457 H 41.9109 1.25465 0.706714 0
M  V30 458 H 43.8639 1.84742 3.78746 0
M  V30 459 H 42.5879 0.766241 3.17484 0
M  V30 460 H 41.2469 2.75859 2.41448 0
M  V30 461 H 40.8949 1.7993 4.69717 0
M  V30 462 H 40.5949 3.55523 4.67843 0
M  V30 463 H 42.1189 2.92104 5.36197 0
M  V30 464 H 43.5329 4.41798 3.65359 0
M  V30 465 H 41.9299 5.07166 3.20785 0
M  V30 466 H 42.9999 4.44329 1.94165 0
M  V30 467 N 44.343 -0.763751 1.37857 0
M  V30 468 C 45.592 -1.51789 1.32827 0
M  V30 469 C 45.905 -1.95426 -0.0823719 0
M  V30 470 O 47.111 -2.70298 -0.255172 0
M  V30 471 C 45.567 -2.74133 2.33193 0
M  V30 472 C 45.175 -2.37562 3.79827 0
M  V30 473 C 46.919 -3.52054 2.37188 0
M  V30 474 C 44.826 -3.56456 4.71904 0
M  V30 475 H 43.756 -0.569896 0.493695 0
M  V30 476 H 46.407 -0.835822 1.63359 0
M  V30 477 H 44.789 -3.4427 1.9569 0
M  V30 478 H 45.963 -1.75157 4.26212 0
M  V30 479 H 44.278 -1.72798 3.78853 0
M  V30 480 H 46.875 -4.40437 3.03182 0
M  V30 481 H 47.218 -3.92486 1.38782 0
M  V30 482 H 47.751 -2.88921 2.7344 0
M  V30 483 H 44.49 -3.21099 5.71468 0
M  V30 484 H 44.01 -4.17938 4.30218 0
M  V30 485 H 45.689 -4.23168 4.89426 0
M  V30 486 N 45.8211 -1.22559 -0.990812 0
M  V30 487 C 46.7511 -1.0218 -2.09956 0
M  V30 488 C 47.7321 0.0579394 -1.70001 0
M  V30 489 O 48.9171 -0.104684 -1.93918 0
M  V30 490 C 46.0471 -0.601023 -3.4206 0
M  V30 491 C 45.0011 -1.62694 -3.95872 0
M  V30 492 C 44.3271 -1.06193 -5.24049 0
M  V30 493 C 45.6271 -3.01743 -4.2632 0
M  V30 494 H 47.3211 -1.94916 -2.27262 0
M  V30 495 H 44.8671 -0.938566 -1.09211 0
M  V30 496 H 46.8201 -0.445561 -4.19038 0
M  V30 497 H 45.5441 0.362005 -3.24588 0
M  V30 498 H 44.2031 -1.77021 -3.21028 0
M  V30 499 H 43.8511 -0.0901903 -5.02919 0
M  V30 500 H 43.5511 -1.74732 -5.61019 0
M  V30 501 H 45.0751 -0.918092 -6.03658 0
M  V30 502 H 46.4891 -2.90777 -4.94087 0
M  V30 503 H 44.8861 -3.67425 -4.74467 0
M  V30 504 H 45.9561 -3.51518 -3.34011 0
M  V30 505 N 47.2992 1.18797 -1.03562 0
M  V30 506 C 48.7152 1.40671 -0.753917 0
M  V30 507 C 48.9152 1.9043 0.658686 0
M  V30 508 O 47.9712 2.08538 1.42366 0
M  V30 509 C 49.2842 2.41192 -1.79574 0
M  V30 510 C 50.8322 2.54928 -1.81606 0
M  V30 511 C 51.3072 3.58709 -2.84766 0
M  V30 512 N 52.7982 3.66212 -2.83625 0
M  V30 513 C 53.5332 4.46225 -3.60098 0
M  V30 514 N 53.0292 5.29888 -4.46308 0
M  V30 515 N 54.8222 4.40939 -3.4861 0
M  V30 516 H 46.9732 0.848221 -1.94728 0
M  V30 517 H 49.2362 0.435081 -0.842264 0
M  V30 518 H 48.9422 2.11669 -2.80872 0
M  V30 519 H 48.8162 3.40467 -1.62365 0
M  V30 520 H 51.2032 2.83771 -0.809817 0
M  V30 521 H 51.2842 1.55784 -2.02891 0
M  V30 522 H 50.9282 3.30607 -3.85566 0
M  V30 523 H 50.8582 4.57519 -2.60737 0
M  V30 524 H 53.3492 3.06466 -2.21105 0
M  V30 525 H 53.6622 5.88078 -5.01382 0
M  V30 526 H 52.0072 5.29326 -4.50377 0
M  V30 527 H 55.1982 3.74624 -2.80668 0
M  V30 528 H 55.3712 5.03056 -4.08459 0
M  V30 529 N 48.7773 0.814389 1.34928 0
M  V30 530 C 50.1933 0.499084 1.51596 0
M  V30 531 C 50.3933 -0.978319 1.76157 0
M  V30 532 O 49.4493 -1.76309 1.80752 0
M  V30 533 C 50.7623 1.35121 2.68631 0
M  V30 534 C 52.3103 1.34746 2.82511 0
M  V30 535 C 52.7853 2.18388 4.0258 0
M  V30 536 N 54.2763 2.15966 4.09772 0
M  V30 537 C 55.0113 2.77437 5.01813 0
M  V30 538 N 54.5073 3.47866 5.99134 0
M  V30 539 N 56.3003 2.67037 4.94619 0
M  V30 540 H 48.4513 1.7711 1.17243 0
M  V30 541 H 50.7143 0.754256 0.574284 0
M  V30 542 H 50.4203 2.40001 2.57085 0
M  V30 543 H 50.2943 1.00991 3.63429 0
M  V30 544 H 52.6813 0.30648 2.93504 0
M  V30 545 H 52.7623 1.72869 1.88547 0
M  V30 546 H 52.4063 3.2253 3.92347 0
M  V30 547 H 52.3363 1.77621 4.9574 0
M  V30 548 H 54.8273 1.64729 3.40107 0
M  V30 549 H 55.1403 3.92038 6.65977 0
M  V30 550 H 53.4853 3.51972 5.99284 0
M  V30 551 H 56.6763 2.11597 4.17546 0
M  V30 552 H 56.8493 3.15232 5.66156 0
M  V30 553 N 50.2554 -1.46986 0.568584 0
M  V30 554 C 51.5034 -2.02041 0.0487022 0
M  V30 555 C 51.8244 -1.44408 -1.31039 0
M  V30 556 O 51.0944 -0.623477 -1.85714 0
M  V30 557 H 49.6744 -0.746849 0.015014 0
M  V30 558 H 52.3364 -1.80257 0.741168 0
M  V30 559 H 51.4324 -3.12085 -0.0308961 0
M  V30 560 N 51.7335 -0.305618 -1.54608 0
M  V30 561 C 52.6655 0.602161 -2.21149 0
M  V30 562 C 53.6785 1.09394 -1.20569 0
M  V30 563 O 54.8675 1.0106 -1.47136 0
M  V30 564 C 51.9675 1.83692 -2.84799 0
M  V30 565 C 51.1405 1.48686 -4.11353 0
M  V30 566 C 50.1995 2.57725 -4.58764 0
M  V30 567 O 49.2255 2.22623 -5.23858 0
M  V30 568 N 50.4275 3.88346 -4.31471 0
M  V30 569 H 53.1925 0.0324966 -2.99682 0
M  V30 570 H 50.7535 -0.128021 -1.61393 0
M  V30 571 H 52.7455 2.55994 -3.13448 0
M  V30 572 H 51.3155 2.31486 -2.10078 0
M  V30 573 H 50.5355 0.596269 -3.89664 0
M  V30 574 H 51.8235 1.22842 -4.93748 0
M  V30 575 H 51.2215 4.19671 -3.79331 0
M  V30 576 H 49.7785 4.56932 -4.64818 0
M  V30 577 N 53.2116 1.57565 -0.0334293 0
M  V30 578 C 54.1596 2.1164 0.96496 0
M  V30 579 C 55.1536 1.04398 1.33407 0
M  V30 580 O 56.3596 1.22828 1.3158 0
M  V30 581 H 52.7346 0.676222 0.32898 0
M  V30 582 H 54.7056 2.94455 0.483614 0
M  V30 583 C 53.4546 2.66207 2.23672 0
M  V30 584 H 52.7776 3.48378 1.96145 0
M  V30 585 H 54.2176 3.07685 2.9173 0
M  V30 586 C 52.6766 1.59151 2.96939 0
M  V30 587 O 53.2066 0.993858 3.89211 0
M  V30 588 N 51.4126 1.31093 2.59351 0
M  V30 589 H 50.9596 1.7988 1.84393 0
M  V30 590 H 50.9176 0.596889 3.08682 0
M  V30 591 N 54.6897 -0.239769 1.55765 0
M  V30 592 C 55.9367 -0.966801 1.7793 0
M  V30 593 C 56.2647 -1.85046 0.599015 0
M  V30 594 O 55.5197 -1.91197 -0.417395 0
M  V30 595 C 55.8187 -1.852 3.05672 0
M  V30 596 C 55.4847 -1.1231 4.36689 0
M  V30 597 C 54.1467 -0.921689 4.72291 0
M  V30 598 C 56.4987 -0.607019 5.17653 0
M  V30 599 C 53.8267 -0.191996 5.86386 0
M  V30 600 C 56.1787 0.109241 6.32506 0
M  V30 601 C 54.8427 0.322073 6.66723 0
M  V30 602 H 54.1127 -0.353778 0.651093 0
M  V30 603 H 56.7597 -0.23634 1.90036 0
M  V30 604 H 55.0647 -2.64975 2.8861 0
M  V30 605 H 56.7617 -2.41635 3.20021 0
M  V30 606 H 53.3517 -1.29004 4.08725 0
M  V30 607 H 57.5357 -0.750153 4.90598 0
M  V30 608 H 52.7917 -0.0166949 6.11398 0
M  V30 609 H 56.9657 0.516737 6.9448 0
M  V30 610 H 54.5927 0.88944 7.54979 0
M  V30 611 N 56.1678 -1.49265 -0.50573 0
M  V30 612 C 57.0998 -1.617 -1.62437 0
M  V30 613 C 58.1128 -0.499924 -1.54934 0
M  V30 614 O 59.3018 -0.771785 -1.60953 0
M  V30 615 C 56.4018 -1.5533 -3.01207 0
M  V30 616 C 55.5748 -2.8249 -3.33943 0
M  V30 617 C 54.6338 -2.69238 -4.52103 0
M  V30 618 O 53.6598 -3.43167 -4.5412 0
M  V30 619 N 54.8618 -1.80468 -5.51735 0
M  V30 620 H 57.6268 -2.58177 -1.52199 0
M  V30 621 H 55.1878 -1.46294 -0.693511 0
M  V30 622 H 57.1798 -1.44125 -3.78167 0
M  V30 623 H 55.7498 -0.667297 -3.05395 0
M  V30 624 H 54.9698 -3.08081 -2.45926 0
M  V30 625 H 56.2578 -3.66802 -3.5261 0
M  V30 626 H 55.6558 -1.19653 -5.52901 0
M  V30 627 H 54.2128 -1.75188 -6.27816 0
M  V30 628 N 57.6459 0.756429 -1.3826 0
M  V30 629 C 58.8919 1.51772 -1.34511 0
M  V30 630 C 59.2249 1.94089 0.0656691 0
M  V30 631 O 58.4999 1.65221 1.02626 0
M  V30 632 C 58.7829 2.77226 -2.29821 0
M  V30 633 C 58.6359 2.41065 -3.79747 0
M  V30 634 C 59.9549 3.79236 -2.23312 0
M  V30 635 H 57.0739 0.550578 -0.489931 0
M  V30 636 H 59.7159 0.866607 -1.69086 0
M  V30 637 H 57.8659 3.32784 -2.00467 0
M  V30 638 H 59.5379 1.91303 -4.19763 0
M  V30 639 H 57.7809 1.7356 -3.97567 0
M  V30 640 H 58.4519 3.3081 -4.41892 0
M  V30 641 H 60.9279 3.3321 -2.49219 0
M  V30 642 H 59.8039 4.64714 -2.92116 0
M  V30 643 H 60.0649 4.24615 -1.23102 0
M  V30 644 N 59.124 1.23083 0.984299 0
M  V30 645 C 60.054 1.03292 2.09411 0
M  V30 646 C 61.035 -0.048923 1.7003 0
M  V30 647 O 62.22 0.114967 1.93859 0
M  V30 648 C 59.35 0.619155 3.41736 0
M  V30 649 C 58.304 1.64791 3.95004 0
M  V30 650 C 57.63 1.0897 5.23478 0
M  V30 651 C 58.93 3.03999 4.24714 0
M  V30 652 H 60.624 1.96119 2.26225 0
M  V30 653 H 58.17 0.944344 1.08711 0
M  V30 654 H 60.123 0.467777 4.18796 0
M  V30 655 H 58.847 -0.344786 3.24775 0
M  V30 656 H 57.506 1.78721 3.20085 0
M  V30 657 H 57.154 0.11686 5.02864 0
M  V30 658 H 56.854 1.77704 5.60085 0
M  V30 659 H 58.378 0.950093 6.03163 0
M  V30 660 H 59.792 2.93393 4.92538 0
M  V30 661 H 58.189 3.69936 4.72512 0
M  V30 662 H 59.259 3.53285 3.32142 0
M  V30 663 N 60.6021 -1.18246 1.0419 0
M  V30 664 C 61.5351 -2.20746 0.578474 0
M  V30 665 C 62.5131 -1.57912 -0.387624 0
M  V30 666 O 63.6971 -1.86071 -0.301634 0
M  V30 667 C 60.8241 -3.38346 -0.154762 0
M  V30 668 C 59.8701 -4.19587 0.764782 0
M  V30 669 S 60.7031 -4.86014 2.24835 0
M  V30 670 C 61.8591 -6.07012 1.526 0
M  V30 671 H 62.0921 -2.59715 1.44691 0
M  V30 672 H 59.6251 -1.287 0.85297 0
M  V30 673 H 61.5831 -4.065 -0.571641 0
M  V30 674 H 60.2441 -2.97786 -0.999105 0
M  V30 675 H 59.4371 -5.03611 0.197976 0
M  V30 676 H 59.0391 -3.56818 1.12057 0
M  V30 677 H 61.3311 -6.72523 0.819733 0
M  V30 678 H 62.2741 -6.68202 2.34333 0
M  V30 679 H 62.6821 -5.55249 1.01779 0
M  V30 680 N 62.0802 -0.821533 -1.34494 0
M  V30 681 C 63.3292 -0.405355 -1.97585 0
M  V30 682 C 63.6422 1.03677 -1.65863 0
M  V30 683 O 64.8482 1.55679 -2.22433 0
M  V30 684 C 63.3042 -0.673861 -3.53535 0
M  V30 685 C 62.9122 -2.12951 -3.94152 0
M  V30 686 C 64.6562 -0.32378 -4.23263 0
M  V30 687 C 62.5632 -2.34298 -5.43009 0
M  V30 688 H 61.4932 -0.147836 -0.739365 0
M  V30 689 H 64.1442 -1.00769 -1.53355 0
M  V30 690 H 62.5262 -0.00137554 -3.96 0
M  V30 691 H 63.7002 -2.84104 -3.62797 0
M  V30 692 H 62.0152 -2.44089 -3.37356 0
M  V30 693 H 64.6122 -0.461126 -5.32708 0
M  V30 694 H 64.9552 0.731586 -4.09821 0
M  V30 695 H 65.4882 -0.950786 -3.8627 0
M  V30 696 H 62.2272 -3.38335 -5.61435 0
M  V30 697 H 61.7472 -1.67687 -5.75883 0
M  V30 698 H 63.4262 -2.16588 -6.09671 0
M  V30 699 N 63.5583 1.46682 -0.576371 0
M  V30 700 C 64.4913 2.27243 0.208731 0
M  V30 701 C 65.4693 1.35238 0.902746 0
M  V30 702 O 66.6533 1.64641 0.917904 0
M  V30 703 C 63.7803 3.12802 1.29896 0
M  V30 704 C 62.8263 4.20524 0.711457 0
M  V30 705 S 63.6593 5.33548 -0.456781 0
M  V30 706 C 64.8153 6.22673 0.634798 0
M  V30 707 H 65.0483 2.93484 -0.474838 0
M  V30 708 H 62.5813 1.50069 -0.363118 0
M  V30 709 H 64.5393 3.62661 1.92321 0
M  V30 710 H 63.2003 2.45887 1.95444 0
M  V30 711 H 62.3933 4.80191 1.53076 0
M  V30 712 H 61.9953 3.73645 0.162999 0
M  V30 713 H 64.2873 6.60181 1.52209 0
M  V30 714 H 65.2303 7.0806 0.0750311 0
M  V30 715 H 65.6383 5.56684 0.936092 0
M  V30 716 N 65.0364 0.313813 1.54444 0
M  V30 717 C 65.9844 -0.572171 2.25453 0
M  V30 718 C 66.9784 -1.12657 1.2651 0
M  V30 719 O 68.1844 -1.07573 1.44319 0
M  V30 720 H 64.5594 -0.203146 0.724041 0
M  V30 721 H 66.5304 0.0491145 2.9836 0
M  V30 722 C 65.2794 -1.72626 3.0182 0
M  V30 723 H 64.6024 -1.30891 3.77767 0
M  V30 724 H 66.0424 -2.32199 3.54767 0
M  V30 725 C 64.5014 -2.63806 2.09542 0
M  V30 726 O 65.0314 -3.65256 1.67185 0
M  V30 727 N 63.2374 -2.31824 1.75232 0
M  V30 728 H 62.7844 -1.49368 2.09873 0
M  V30 729 H 62.7424 -2.93095 1.13767 0
M  V30 730 N 66.5145 -1.57545 0.0417849 0
M  V30 731 C 67.4615 -2.10977 -0.935805 0
M  V30 732 C 68.4315 -1.01486 -1.31491 0
M  V30 733 O 69.6165 -1.2898 -1.40602 0
M  V30 734 C 66.7565 -2.65169 -2.2086 0
M  V30 735 C 65.8695 -3.88714 -1.88482 0
M  V30 736 C 65.0045 -4.31254 -3.1015 0
M  V30 737 C 64.0435 -5.47524 -2.7365 0
M  V30 738 N 63.1805 -5.85162 -3.87982 0
M  V30 739 H 68.0205 -2.94218 -0.473249 0
M  V30 740 H 65.5575 -1.45415 -0.221981 0
M  V30 741 H 67.5155 -2.94685 -2.95325 0
M  V30 742 H 66.1455 -1.8474 -2.64709 0
M  V30 743 H 65.1975 -3.65849 -1.04205 0
M  V30 744 H 66.5095 -4.73245 -1.57608 0
M  V30 745 H 65.6635 -4.62273 -3.92923 0
M  V30 746 H 64.4025 -3.45516 -3.44195 0
M  V30 747 H 63.4075 -5.16187 -1.89291 0
M  V30 748 H 64.6325 -6.34971 -2.40807 0
M  V30 749 H 62.5785 -5.02377 -4.21846 0
M  V30 750 H 62.4955 -6.64362 -3.60775 0
M  V30 751 H 63.7635 -6.20791 -4.71422 0
M  V30 752 N 67.9926 0.231505 -1.5589 0
M  V30 753 C 69.2406 0.955461 -1.78088 0
M  V30 754 C 69.5616 1.85262 -0.608533 0
M  V30 755 O 68.8316 1.92277 0.375035 0
M  V30 756 H 67.4116 0.355787 -0.656829 0
M  V30 757 H 70.0736 0.245751 -1.93344 0
M  V30 758 H 69.1696 1.56814 -2.69844 0
M  V30 759 N 69.4707 1.49531 0.497807 0
M  V30 760 C 70.4007 1.6935 1.60757 0
M  V30 761 C 71.3817 0.542218 1.61227 0
M  V30 762 O 72.5667 0.778417 1.77917 0
M  V30 763 C 69.6967 1.76298 2.99226 0
M  V30 764 C 68.6507 2.91248 3.13622 0
M  V30 765 C 67.9767 2.83312 4.53474 0
M  V30 766 C 69.2767 4.3214 2.93346 0
M  V30 767 H 70.9707 2.62263 1.44425 0
M  V30 768 H 68.5167 1.26208 0.693367 0
M  V30 769 H 70.4697 1.88749 3.76765 0
M  V30 770 H 69.1937 0.799871 3.16654 0
M  V30 771 H 67.8527 2.78404 2.38509 0
M  V30 772 H 67.5007 1.84902 4.67782 0
M  V30 773 H 67.2007 3.60465 4.64046 0
M  V30 774 H 68.7247 2.97775 5.33069 0
M  V30 775 H 70.1387 4.45649 3.60652 0
M  V30 776 H 68.5357 5.1054 3.15387 0
M  V30 777 H 69.6057 4.46363 1.89441 0
M  V30 778 N 70.9488 -0.749086 1.3866 0
M  V30 779 C 72.1968 -1.50535 1.34847 0
M  V30 780 C 72.5178 -1.94909 -0.0595016 0
M  V30 781 O 71.7878 -1.67973 -1.00806 0
M  V30 782 H 70.3678 -0.558395 0.49619 0
M  V30 783 H 73.0298 -0.890165 1.73384 0
M  V30 784 H 72.1258 -2.39413 2.00219 0
M  V30 785 N 72.4269 -1.23603 -0.977757 0
M  V30 786 C 73.6519 -1.09735 -1.75991 0
M  V30 787 C 74.0769 0.346858 -1.84874 0
M  V30 788 O 73.4349 1.25093 -1.3123 0
M  V30 789 C 73.4829 -1.73051 -3.16363 0
M  V30 790 O 72.5869 -0.994452 -4.0023 0
M  V30 791 H 71.9279 -0.384476 -0.541364 0
M  V30 792 H 74.4579 -1.6371 -1.2272 0
M  V30 793 H 74.4679 -1.78398 -3.66931 0
M  V30 794 H 73.1429 -2.78137 -3.09213 0
M  V30 795 H 71.7199 -1.01812 -3.58732 0
M  V30 796 N 73.905 1.17692 -1.04816 0
M  V30 797 C 74.853 2.23632 -0.63966 0
M  V30 798 C 75.847 1.6601 0.337219 0
M  V30 799 O 77.053 1.78844 0.203693 0
M  V30 800 H 73.428 0.727949 -0.188665 0
M  V30 801 H 75.399 2.55387 -1.54337 0
M  V30 802 C 74.148 3.4769 -0.0264051 0
M  V30 803 H 73.471 3.92331 -0.769164 0
M  V30 804 H 74.911 4.23418 0.222098 0
M  V30 805 C 73.37 3.13807 1.22584 0
M  V30 806 O 73.9 3.28236 2.31569 0
M  V30 807 N 72.106 2.68065 1.12202 0
M  V30 808 H 71.653 2.56525 0.235133 0
M  V30 809 H 71.611 2.45767 1.96076 0
M  V30 810 N 75.3831 0.828654 1.34056 0
M  V30 811 C 76.2931 0.256725 2.33191 0
M  V30 812 C 77.3091 -0.611898 1.62886 0
M  V30 813 O 78.4851 -0.51844 1.94613 0
M  V30 814 C 75.5501 -0.567238 3.42028 0
M  V30 815 C 74.6111 0.324458 4.28072 0
M  V30 816 C 73.8441 -0.460274 5.31712 0
M  V30 817 O 74.0671 -1.693 5.44696 0
M  V30 818 O 73.0011 0.160391 6.01686 0
M  V30 819 H 76.8271 1.07739 2.83947 0
M  V30 820 H 74.4121 0.59093 1.37217 0
M  V30 821 H 76.2941 -1.03582 4.08471 0
M  V30 822 H 74.9691 -1.36513 2.93506 0
M  V30 823 H 73.8761 0.840659 3.64532 0
M  V30 824 H 75.2091 1.08685 4.8005 0
M  V30 825 N 76.8612 -1.46375 0.584142 0
M  V30 826 C 78.2772 -1.57694 0.245929 0
M  V30 827 C 78.4772 -1.57903 -1.25175 0
M  V30 828 O 77.5332 -1.49676 -2.03355 0
M  V30 829 C 78.8462 -2.87028 0.896402 0
M  V30 830 C 80.3942 -3.00662 0.870127 0
M  V30 831 C 80.8692 -4.32734 1.50017 0
M  V30 832 N 82.3602 -4.39436 1.46458 0
M  V30 833 C 83.0952 -5.40248 1.92144 0
M  V30 834 N 82.5912 -6.47726 2.4581 0
M  V30 835 N 84.3842 -5.31459 1.83052 0
M  V30 836 H 76.5352 -1.44483 1.55687 0
M  V30 837 H 78.7982 -0.689291 0.650831 0
M  V30 838 H 78.5042 -2.9269 1.95002 0
M  V30 839 H 78.3782 -3.75014 0.405486 0
M  V30 840 H 80.7652 -2.94581 -0.174871 0
M  V30 841 H 80.8462 -2.14148 1.39908 0
M  V30 842 H 80.4902 -4.39573 2.54437 0
M  V30 843 H 80.4202 -5.18025 0.946432 0
M  V30 844 H 82.9112 -3.62367 1.07231 0
M  V30 845 H 83.2242 -7.20863 2.78525 0
M  V30 846 H 81.5692 -6.48542 2.49836 0
M  V30 847 H 84.7602 -4.46396 1.40883 0
M  V30 848 H 84.9332 -6.09881 2.18973 0
M  V30 849 N 78.3393 -0.321999 -1.54275 0
M  V30 850 C 79.2693 0.537411 -2.27231 0
M  V30 851 C 80.2503 1.12064 -1.27968 0
M  V30 852 O 81.4353 1.14606 -1.56777 0
M  V30 853 C 78.5653 1.69919 -3.02894 0
M  V30 854 C 77.5193 1.24534 -4.09482 0
M  V30 855 C 76.8453 2.49394 -4.72977 0
M  V30 856 C 78.1453 0.361335 -5.21049 0
M  V30 857 H 79.8393 -0.0711406 -2.99315 0
M  V30 858 H 77.3853 -0.0356555 -1.43956 0
M  V30 859 H 79.3383 2.30668 -3.52662 0
M  V30 860 H 78.0623 2.33431 -2.28424 0
M  V30 861 H 76.7213 0.660782 -3.60596 0
M  V30 862 H 76.3693 3.11265 -3.95124 0
M  V30 863 H 76.0693 2.19718 -5.44975 0
M  V30 864 H 77.5933 3.10908 -5.25517 0
M  V30 865 H 79.0073 0.875072 -5.66582 0
M  V30 866 H 77.4043 0.157428 -5.99893 0
M  V30 867 H 78.4743 -0.60822 -4.8107 0
M  V30 868 N 79.8174 1.5752 -0.0501392 0
M  V30 869 C 80.7274 2.14952 0.939827 0
M  V30 870 C 81.7434 1.10706 1.34239 0
M  V30 871 O 82.9194 1.42869 1.41952 0
M  V30 872 C 79.9844 2.68232 2.19665 0
M  V30 873 C 79.0454 3.87272 1.85253 0
M  V30 874 C 78.2784 4.38002 3.04943 0
M  V30 875 O 78.5014 3.87811 4.18281 0
M  V30 876 O 77.4354 5.29602 2.86017 0
M  V30 877 H 81.2614 2.9986 0.481392 0
M  V30 878 H 78.8464 1.4841 0.171699 0
M  V30 879 H 80.7284 3.02475 2.93406 0
M  V30 880 H 79.4034 1.86395 2.64648 0
M  V30 881 H 78.3104 3.5792 1.0883 0
M  V30 882 H 79.6434 4.70336 1.4507 0
M  V30 883 N 81.2955 -0.223234 1.56011 0
M  V30 884 C 82.5425 -0.947875 1.78946 0
M  V30 885 C 82.8705 -1.844 0.618608 0
M  V30 886 O 82.1255 -1.91629 -0.397093 0
M  V30 887 C 82.4245 -1.81948 3.0762 0
M  V30 888 C 82.0905 -1.07672 4.37856 0
M  V30 889 C 80.7525 -0.871544 4.73242 0
M  V30 890 C 83.1045 -0.552081 5.18268 0
M  V30 891 C 80.4325 -0.129791 5.86556 0
M  V30 892 C 82.7845 0.17632 6.32354 0
M  V30 893 C 81.4485 0.39277 6.66343 0
M  V30 894 H 80.7185 -0.346852 0.654809 0
M  V30 895 H 83.3655 -0.216171 1.90276 0
M  V30 896 H 81.6705 -2.61899 2.91404 0
M  V30 897 H 83.3675 -2.38227 3.22566 0
M  V30 898 H 79.9575 -1.24662 4.1007 0
M  V30 899 H 84.1415 -0.698076 4.91366 0
M  V30 900 H 79.3975 0.048153 6.11381 0
M  V30 901 H 83.5715 0.590367 6.93893 0
M  V30 902 H 81.1985 0.969466 7.53993 0
M  V30 903 N 82.7736 -1.49793 -0.48987 0
M  V30 904 C 84.0226 -1.59085 -1.23995 0
M  V30 905 C 84.3356 -0.287907 -1.9347 0
M  V30 906 O 85.5416 -0.259506 -2.70257 0
M  V30 907 C 83.9976 -2.80736 -2.252 0
M  V30 908 C 83.6056 -4.17833 -1.61614 0
M  V30 909 C 85.3496 -2.99364 -3.00967 0
M  V30 910 C 83.2566 -5.30693 -2.60996 0
M  V30 911 H 82.1866 -0.592372 -0.466488 0
M  V30 912 H 84.8376 -1.76197 -0.51252 0
M  V30 913 H 83.2196 -2.57142 -3.01154 0
M  V30 914 H 84.3936 -4.51608 -0.915774 0
M  V30 915 H 82.7086 -4.04656 -0.981977 0
M  V30 916 H 85.3056 -3.80851 -3.75308 0
M  V30 917 H 85.6486 -2.10356 -3.59244 0
M  V30 918 H 86.1816 -3.2305 -2.32128 0
M  V30 919 H 82.9206 -6.21796 -2.07485 0
M  V30 920 H 82.4406 -5.01359 -3.2924 0
M  V30 921 H 84.1196 -5.6049 -3.23202 0
M  V30 922 N 84.2517 0.741722 -1.39055 0
M  V30 923 C 85.4977 1.50336 -1.36113 0
M  V30 924 C 85.8307 1.94148 0.0450796 0
M  V30 925 O 85.1057 1.66301 1.00868 0
M  V30 926 C 85.3887 2.74773 -2.32749 0
M  V30 927 C 85.2417 2.37023 -3.82283 0
M  V30 928 C 86.5607 3.76846 -2.27322 0
M  V30 929 H 83.6797 0.545351 -0.495743 0
M  V30 930 H 86.3217 0.848624 -1.69995 0
M  V30 931 H 84.4717 3.30639 -2.03986 0
M  V30 932 H 86.1437 1.8684 -4.21768 0
M  V30 933 H 84.3867 1.69334 -3.99385 0
M  V30 934 H 85.0577 3.26104 -4.45376 0
M  V30 935 H 87.5337 3.30548 -2.5274 0
M  V30 936 H 86.4097 4.6159 -2.97028 0
M  V30 937 H 86.6707 4.23286 -1.27599 0
M  V30 938 N 85.7298 1.2412 0.971189 0
M  V30 939 C 86.9548 1.10667 1.75407 0
M  V30 940 C 87.3798 -0.337048 1.85056 0
M  V30 941 O 86.7378 -1.24396 1.31892 0
M  V30 942 C 86.7858 1.74726 3.15441 0
M  V30 943 O 85.8898 1.01566 3.99697 0
M  V30 944 H 85.2308 0.387341 0.539317 0
M  V30 945 H 87.7608 1.64358 1.2185 0
M  V30 946 H 87.7708 1.80341 3.6598 0
M  V30 947 H 86.4458 2.79773 3.07734 0
M  V30 948 H 85.0228 1.03713 3.58187 0
M  V30 949 N 87.2079 -1.17134 1.05439 0
M  V30 950 C 88.4359 -1.91372 0.786414 0
M  V30 951 C 88.8509 -1.76955 -0.658202 0
M  V30 952 O 88.2079 -1.10838 -1.44987 0
M  V30 953 C 88.2589 -3.42356 1.1608 0
M  V30 954 O 87.9799 -3.56332 2.54871 0
M  V30 955 C 89.4809 -4.33663 0.919322 0
M  V30 956 H 86.7009 -0.607118 0.285743 0
M  V30 957 H 89.2449 -1.48525 1.40572 0
M  V30 958 H 87.3999 -3.82939 0.586191 0
M  V30 959 H 87.8139 -4.49896 2.69618 0
M  V30 960 H 89.2879 -5.38099 1.231 0
M  V30 961 H 89.7649 -4.38959 -0.145359 0
M  V30 962 H 90.3709 -3.98796 1.47789 0
M  V30 963 N 88.686 -0.835752 -1.33615 0
M  V30 964 C 89.934 -0.429109 -1.97492 0
M  V30 965 C 90.255 1.01433 -1.66543 0
M  V30 966 O 89.525 1.70611 -0.962744 0
M  V30 967 H 88.105 -0.155686 -0.730596 0
M  V30 968 H 90.767 -1.06802 -1.63031 0
M  V30 969 H 89.863 -0.55861 -3.0706 0
M  V30 970 N 90.1641 1.46063 -0.591896 0
M  V30 971 C 91.5751 1.85944 -0.167822 0
M  V30 972 C 91.9261 1.49429 1.27143 0
M  V30 973 O 91.0511 0.913515 1.96173 0
M  V30 974 C 91.6461 3.37489 -0.297794 0
M  V30 975 C 90.2051 3.76332 0.0714732 0
M  V30 976 C 89.3521 2.7006 -0.629509 0
M  V30 977 H 92.3031 1.37087 -0.799555 0
M  V30 978 H 92.3241 3.77532 0.474349 0
M  V30 979 H 91.8361 3.64034 -1.3454 0
M  V30 980 H 89.9371 3.55405 1.11886 0
M  V30 981 H 90.0501 4.78088 -0.311245 0
M  V30 982 H 88.4141 2.54607 -0.0687867 0
M  V30 983 H 89.1971 2.99444 -1.67894 0
M  V30 984 N 91.6422 0.330177 1.54103 0
M  V30 985 C 92.8722 -0.271784 2.04805 0
M  V30 986 C 93.2802 -1.45816 1.20559 0
M  V30 987 O 92.6232 -1.82247 0.2306 0
M  V30 988 C 92.6852 -0.763238 3.51305 0
M  V30 989 C 92.3492 0.301705 4.56003 0
M  V30 990 C 93.3462 1.13999 5.07248 0
M  V30 991 C 91.0312 0.451793 5.00264 0
M  V30 992 C 93.0252 2.11402 6.01322 0
M  V30 993 C 90.7122 1.42924 5.94151 0
M  V30 994 C 91.7102 2.25882 6.44567 0
M  V30 995 O 91.3982 3.21965 7.3661 0
M  V30 996 H 91.1302 -0.058693 0.673447 0
M  V30 997 H 93.6842 0.476395 1.99799 0
M  V30 998 H 91.9142 -1.56244 3.5373 0
M  V30 999 H 93.6032 -1.28427 3.85047 0
M  V30 1000 H 94.3692 1.03505 4.73827 0
M  V30 1001 H 90.2482 -0.184044 4.60632 0
M  V30 1002 H 93.7922 2.76192 6.40596 0
M  V30 1003 H 89.6892 1.53479 6.26988 0
M  V30 1004 H 90.4572 3.17281 7.54503 0
M  V30 1005 N 93.1203 -1.57491 0.0584922 0
M  V30 1006 C 94.5313 -1.80526 -0.476138 0
M  V30 1007 C 94.8823 -0.971334 -1.70469 0
M  V30 1008 O 94.0073 -0.190012 -2.15564 0
M  V30 1009 C 94.6023 -3.27424 -0.870587 0
M  V30 1010 C 93.1613 -3.51351 -1.35015 0
M  V30 1011 C 92.3083 -2.75343 -0.32887 0
M  V30 1012 H 95.2593 -1.56133 0.284312 0
M  V30 1013 H 95.2803 -3.38745 -1.73299 0
M  V30 1014 H 94.7923 -3.88093 0.0237627 0
M  V30 1015 H 92.8933 -2.95971 -2.26345 0
M  V30 1016 H 93.0063 -4.60059 -1.33726 0
M  V30 1017 H 91.3703 -2.417 -0.803321 0
M  V30 1018 H 92.1533 -3.38743 0.557521 0
M  V30 1019 N 94.5984 0.214957 -1.56127 0
M  V30 1020 C 95.8234 0.95924 -1.83884 0
M  V30 1021 C 96.2484 1.7689 -0.639644 0
M  V30 1022 O 95.6064 1.76566 0.411601 0
M  V30 1023 C 95.6544 1.84723 -3.09693 0
M  V30 1024 O 94.7584 2.94346 -2.8885 0
M  V30 1025 H 94.0994 0.27125 -0.606069 0
M  V30 1026 H 96.6294 0.226276 -2.03345 0
M  V30 1027 H 96.6394 2.25576 -3.39969 0
M  V30 1028 H 95.3144 1.25218 -3.96602 0
M  V30 1029 H 93.8914 2.57391 -2.69823 0
M  V30 1030 N 96.0765 1.50051 0.48192 0
M  V30 1031 C 96.9865 1.7089 1.60728 0
M  V30 1032 C 98.0025 0.591788 1.63627 0
M  V30 1033 O 99.1785 0.868817 1.81696 0
M  V30 1034 C 96.2435 1.78855 2.97005 0
M  V30 1035 C 95.3045 3.02537 3.04581 0
M  V30 1036 C 94.5375 3.10112 4.34357 0
M  V30 1037 O 94.7605 2.24765 5.24249 0
M  V30 1038 O 93.6945 4.02747 4.47301 0
M  V30 1039 H 97.5205 2.66264 1.46072 0
M  V30 1040 H 95.1055 1.34018 0.660264 0
M  V30 1041 H 96.9875 1.86336 3.77964 0
M  V30 1042 H 95.6625 0.866628 3.11883 0
M  V30 1043 H 94.5695 3.00563 2.22739 0
M  V30 1044 H 95.9025 3.94272 2.94636 0
M  V30 1045 N 97.5546 -0.734337 1.39446 0
M  V30 1046 C 98.7796 -1.52866 1.40167 0
M  V30 1047 C 99.2046 -1.881 -0.00171513 0
M  V30 1048 O 98.5626 -1.51957 -0.988879 0
M  V30 1049 C 98.6106 -2.79235 2.28167 0
M  V30 1050 O 97.7146 -3.75185 1.71201 0
M  V30 1051 H 97.0556 -0.461618 0.477289 0
M  V30 1052 H 99.5856 -0.905949 1.8345 0
M  V30 1053 H 99.5956 -3.27963 2.42702 0
M  V30 1054 H 98.2706 -2.52923 3.30156 0
M  V30 1055 H 96.8476 -3.33958 1.65912 0
M  V30 1056 N 99.0327 -1.24633 -0.964593 0
M  V30 1057 C 99.9957 -1.0424 -2.04124 0
M  V30 1058 C 100.996 0.00137563 -1.608 0
M  V30 1059 O 102.186 -0.239883 -1.7254 0
M  V30 1060 C 99.3177 -0.580588 -3.3592 0
M  V30 1061 H 100.511 -1.99803 -2.23649 0
M  V30 1062 H 98.0637 -1.06899 -1.14027 0
M  V30 1063 H 98.7987 0.3781 -3.22088 0
M  V30 1064 H 98.5837 -1.33398 -3.6871 0
M  V30 1065 H 100.074 -0.459034 -4.15069 0
M  V30 1066 N 100.511 1.16574 -1.06058 0
M  V30 1067 C 101.444 2.19798 -0.61352 0
M  V30 1068 C 102.422 1.58509 0.362453 0
M  V30 1069 O 103.606 1.86527 0.271994 0
M  V30 1070 C 100.733 3.3855 0.100915 0
M  V30 1071 C 99.7788 4.18317 -0.831438 0
M  V30 1072 S 100.612 4.82375 -2.32539 0
M  V30 1073 C 101.768 6.04508 -1.62238 0
M  V30 1074 H 102.001 2.5738 -1.48805 0
M  V30 1075 H 99.5338 1.27327 -0.873338 0
M  V30 1076 H 101.492 4.07358 0.506898 0
M  V30 1077 H 100.153 2.99338 0.951604 0
M  V30 1078 H 99.3458 5.03232 -0.278071 0
M  V30 1079 H 98.9478 3.5499 -1.17719 0
M  V30 1080 H 101.24 6.71133 -0.926622 0
M  V30 1081 H 102.183 6.64389 -2.44934 0
M  V30 1082 H 102.591 5.53559 -1.106 0
M  V30 1083 N 101.989 0.842826 1.3317 0
M  V30 1084 C 103.217 0.454055 2.01856 0
M  V30 1085 C 103.632 -0.94587 1.63397 0
M  V30 1086 O 102.989 -1.61534 0.849302 0
M  V30 1087 C 103.04 0.569715 3.56982 0
M  V30 1088 O 102.761 1.91448 3.94055 0
M  V30 1089 C 104.262 0.178412 4.42941 0
M  V30 1090 H 101.482 0.17979 0.646465 0
M  V30 1091 H 104.026 1.1365 1.70012 0
M  V30 1092 H 102.181 -0.0648587 3.87346 0
M  V30 1093 H 102.595 1.90282 4.88767 0
M  V30 1094 H 104.069 0.310376 5.51127 0
M  V30 1095 H 104.546 -0.880056 4.30293 0
M  V30 1096 H 105.152 0.787579 4.17944 0
M  V30 1097 N 103.467 -1.45747 0.599634 0
M  V30 1098 C 104.414 -2.30467 -0.123849 0
M  V30 1099 C 105.384 -1.41632 -0.86774 0
M  V30 1100 O 106.569 -1.70568 -0.855056 0
M  V30 1101 C 103.709 -3.26402 -1.12051 0
M  V30 1102 C 102.822 -4.3034 -0.37832 0
M  V30 1103 C 101.957 -5.13389 -1.364 0
M  V30 1104 C 100.996 -6.09061 -0.609171 0
M  V30 1105 N 100.133 -6.84918 -1.54374 0
M  V30 1106 H 104.973 -2.91802 0.604627 0
M  V30 1107 H 102.51 -1.43797 0.309972 0
M  V30 1108 H 104.468 -3.80482 -1.7114 0
M  V30 1109 H 103.098 -2.66839 -1.8165 0
M  V30 1110 H 102.15 -3.78984 0.327929 0
M  V30 1111 H 103.462 -4.98354 0.210997 0
M  V30 1112 H 102.616 -5.7183 -2.02719 0
M  V30 1113 H 101.355 -4.45376 -1.98725 0
M  V30 1114 H 100.36 -5.49758 0.0676979 0
M  V30 1115 H 101.585 -6.79099 0.00891991 0
M  V30 1116 H 99.531 -6.19601 -2.15478 0
M  V30 1117 H 99.448 -7.49254 -1.00766 0
M  V30 1118 H 100.716 -7.47906 -2.19676 0
M  V30 1119 N 104.945 -0.338344 -1.53925 0
M  V30 1120 C 105.908 0.508299 -2.23493 0
M  V30 1121 C 106.908 1.03175 -1.23335 0
M  V30 1122 O 108.098 0.921826 -1.47811 0
M  V30 1123 C 105.23 1.70754 -2.95052 0
M  V30 1124 H 106.423 -0.100058 -2.99733 0
M  V30 1125 H 103.976 -0.0896198 -1.56043 0
M  V30 1126 H 104.711 2.35474 -2.22986 0
M  V30 1127 H 104.496 1.33946 -3.68512 0
M  V30 1128 H 105.986 2.30818 -3.48013 0
M  V30 1129 N 106.423 1.57458 -0.0668435 0
M  V30 1130 C 107.669 1.93587 0.6043 0
M  V30 1131 C 108.002 0.946722 1.69561 0
M  V30 1132 O 107.277 -0.0248516 1.94484 0
M  V30 1133 C 107.56 3.40014 1.18585 0
M  V30 1134 C 107.413 4.49685 0.101529 0
M  V30 1135 C 108.732 3.87154 2.09284 0
M  V30 1136 H 105.851 0.703958 0.218202 0
M  V30 1137 H 108.493 1.89542 -0.131804 0
M  V30 1138 H 106.643 3.43592 1.81319 0
M  V30 1139 H 108.315 4.5823 -0.531279 0
M  V30 1140 H 106.558 4.30059 -0.568487 0
M  V30 1141 H 107.229 5.49266 0.54874 0
M  V30 1142 H 109.705 3.85551 1.56491 0
M  V30 1143 H 108.581 4.90231 2.46911 0
M  V30 1144 H 108.842 3.2481 2.99918 0
M  V30 1145 N 107.901 -0.206675 1.56239 0
M  V30 1146 C 109.148 -0.928842 1.79941 0
M  V30 1147 C 109.476 -1.83734 0.638131 0
M  V30 1148 O 108.731 -1.92039 -0.376746 0
M  V30 1149 C 109.03 -1.78675 3.09532 0
M  V30 1150 C 108.696 -1.03022 4.38973 0
M  V30 1151 C 107.358 -0.821302 4.74139 0
M  V30 1152 C 109.71 -0.497081 5.18824 0
M  V30 1153 C 107.038 -0.0675719 5.86661 0
M  V30 1154 C 109.39 0.24338 6.32132 0
M  V30 1155 C 108.054 0.463422 6.65889 0
M  V30 1156 H 107.324 -0.339887 0.658451 0
M  V30 1157 H 109.971 -0.195977 1.90495 0
M  V30 1158 H 108.276 -2.58794 2.94165 0
M  V30 1159 H 109.973 -2.34792 3.25075 0
M  V30 1160 H 106.563 -1.20306 4.11369 0
M  V30 1161 H 110.747 -0.645921 4.92079 0
M  V30 1162 H 106.003 0.112995 6.11296 0
M  V30 1163 H 110.177 0.66393 6.93228 0
M  V30 1164 H 107.804 1.04938 7.52922 0
M  V30 1165 N 109.379 -1.50304 -0.473955 0
M  V30 1166 C 110.79 -1.54042 -1.0549 0
M  V30 1167 C 111.141 -0.342248 -1.93192 0
M  V30 1168 O 110.266 0.545157 -2.09421 0
M  V30 1169 C 110.861 -2.79152 -1.91989 0
M  V30 1170 C 109.42 -2.8558 -2.45196 0
M  V30 1171 C 108.567 -2.48295 -1.2347 0
M  V30 1172 H 111.518 -1.5661 -0.256693 0
M  V30 1173 H 111.539 -2.60845 -2.7702 0
M  V30 1174 H 111.051 -3.66339 -1.28131 0
M  V30 1175 H 109.152 -2.02738 -3.12615 0
M  V30 1176 H 109.265 -3.88403 -2.80499 0
M  V30 1177 H 107.629 -2.00669 -1.56856 0
M  V30 1178 H 108.412 -3.37787 -0.612789 0
M  V30 1179 N 110.857 0.726932 -1.39834 0
M  V30 1180 C 111.787 1.85405 -1.41941 0
M  V30 1181 C 112.768 1.67751 -0.281728 0
M  V30 1182 O 113.953 1.8795 -0.488717 0
M  V30 1183 C 111.083 3.23243 -1.2701 0
M  V30 1184 C 110.037 3.55549 -2.38262 0
M  V30 1185 C 109.363 4.9241 -2.08415 0
M  V30 1186 C 110.663 3.577 -3.80589 0
M  V30 1187 H 112.357 1.83899 -2.36266 0
M  V30 1188 H 109.903 0.883349 -1.13723 0
M  V30 1189 H 111.856 4.01775 -1.27103 0
M  V30 1190 H 110.58 3.25296 -0.291564 0
M  V30 1191 H 109.239 2.79351 -2.37399 0
M  V30 1192 H 108.887 4.91052 -1.0898 0
M  V30 1193 H 108.587 5.14992 -2.82943 0
M  V30 1194 H 110.111 5.73289 -2.10171 0
M  V30 1195 H 111.525 4.26293 -3.83337 0
M  V30 1196 H 109.922 3.91804 -4.54543 0
M  V30 1197 H 110.992 2.57328 -4.10987 0
M  V30 1198 N 112.336 1.25143 0.95797 0
M  V30 1199 C 113.561 1.12521 1.74223 0
M  V30 1200 C 113.986 -0.317402 1.85403 0
M  V30 1201 O 113.344 -1.2299 1.33204 0
M  V30 1202 C 113.392 1.78062 3.1357 0
M  V30 1203 O 112.496 1.058 3.98598 0
M  V30 1204 H 111.837 0.39304 0.535178 0
M  V30 1205 H 114.367 1.65641 1.201 0
M  V30 1206 H 114.377 1.84213 3.64046 0
M  V30 1207 H 113.052 2.83021 3.04749 0
M  V30 1208 H 111.629 1.07506 3.57067 0
M  V30 1209 N 113.814 -1.1601 1.06675 0
M  V30 1210 C 114.762 -2.22586 0.675157 0
M  V30 1211 C 115.756 -1.66525 -0.310766 0
M  V30 1212 O 116.962 -1.79145 -0.175215 0
M  V30 1213 H 113.337 -0.724855 0.200223 0
M  V30 1214 H 115.308 -2.52899 1.58381 0
M  V30 1215 C 114.057 -3.47604 0.0817162 0
M  V30 1216 H 113.38 -3.91058 0.831484 0
M  V30 1217 H 114.82 -4.23718 -0.154708 0
M  V30 1218 C 113.279 -3.15718 -1.17576 0
M  V30 1219 O 113.809 -3.31878 -2.26318 0
M  V30 1220 N 112.015 -2.69816 -1.07923 0
M  V30 1221 H 111.562 -2.56866 -0.194293 0
M  V30 1222 H 111.52 -2.48855 -1.92141 0
M  V30 1223 N 115.292 -0.849877 -1.32721 0
M  V30 1224 C 116.54 -0.450032 -1.97026 0
M  V30 1225 C 116.861 0.996604 -1.67609 0
M  V30 1226 O 116.131 1.6958 -0.980786 0
M  V30 1227 H 114.711 -0.163426 -0.728904 0
M  V30 1228 H 117.373 -1.08526 -1.6189 0
M  V30 1229 H 116.469 -0.591146 -3.0645 0
M  V30 1230 N 116.77 1.45427 -0.607355 0
M  V30 1231 C 117.995 2.07124 -0.107006 0
M  V30 1232 C 118.42 1.44906 1.19933 0
M  V30 1233 O 117.778 0.541687 1.73019 0
M  V30 1234 C 117.826 3.60595 0.0194119 0
M  V30 1235 O 116.93 3.98285 1.0697 0
M  V30 1236 H 116.271 0.659868 -0.0739597 0
M  V30 1237 H 118.801 1.86683 -0.837297 0
M  V30 1238 H 118.811 4.07419 0.2177 0
M  V30 1239 H 117.486 4.05266 -0.934453 0
M  V30 1240 H 116.063 3.63133 0.847889 0
M  V30 1241 N 118.248 0.346503 1.53744 0
M  V30 1242 C 119.473 -0.253074 2.0585 0
M  V30 1243 C 119.898 -1.43202 1.21962 0
M  V30 1244 O 119.256 -1.79783 0.234073 0
M  V30 1245 C 119.304 -0.643193 3.54817 0
M  V30 1246 O 118.408 -1.74286 3.73762 0
M  V30 1247 H 117.749 -0.0413583 0.662711 0
M  V30 1248 H 120.279 0.501574 1.98357 0
M  V30 1249 H 120.289 -0.919526 3.97503 0
M  V30 1250 H 118.964 0.218966 4.15323 0
M  V30 1251 H 117.541 -1.46356 3.42979 0
M  V30 1252 N 119.726 -1.57421 0.075193 0
M  V30 1253 C 120.974 -1.93236 -0.591974 0
M  V30 1254 C 121.295 -0.956241 -1.69944 0
M  V30 1255 O 120.565 -0.00494792 -1.95899 0
M  V30 1256 H 119.145 -0.713355 -0.22166 0
M  V30 1257 H 121.807 -1.9444 0.133848 0
M  V30 1258 H 120.903 -2.95131 -1.01509 0
M  V30 1259 N 121.204 0.198386 -1.56346 0
M  V30 1260 C 122.452 0.91747 -1.80075 0
M  V30 1261 C 122.773 1.83929 -0.647692 0
M  V30 1262 O 122.043 1.93029 0.334166 0
M  V30 1263 H 120.623 0.341774 -0.664228 0
M  V30 1264 H 123.285 0.204684 -1.93822 0
M  V30 1265 H 122.381 1.51055 -2.7311 0
M  V30 1266 N 122.682 1.50554 0.465978 0
M  V30 1267 C 123.928 1.63006 1.21658 0
M  V30 1268 C 124.283 0.328613 1.89573 0
M  V30 1269 O 123.576 -0.673813 1.79361 0
M  V30 1270 C 123.77 2.75152 2.28093 0
M  V30 1271 C 123.599 4.16075 1.7062 0
M  V30 1272 C 122.369 4.82408 1.50368 0
M  V30 1273 C 124.567 5.00145 1.1983 0
M  V30 1274 N 122.549 6.07532 0.881924 0
M  V30 1275 C 123.92 6.16035 0.700083 0
M  V30 1276 C 125.975 4.85882 1.08733 0
M  V30 1277 C 124.678 7.19228 0.101835 0
M  V30 1278 C 126.704 5.89257 0.503016 0
M  V30 1279 C 126.066 7.04398 0.0152005 0
M  V30 1280 H 122.165 0.650596 0.433877 0
M  V30 1281 H 124.749 1.8769 0.517746 0
M  V30 1282 H 122.92 2.52181 2.95397 0
M  V30 1283 H 124.652 2.76935 2.95109 0
M  V30 1284 H 121.407 4.39788 1.75737 0
M  V30 1285 H 121.831 6.7443 0.589312 0
M  V30 1286 H 126.473 3.97144 1.4504 0
M  V30 1287 H 124.191 8.07637 -0.273426 0
M  V30 1288 H 127.777 5.80286 0.419451 0
M  V30 1289 H 126.657 7.83021 -0.429856 0
M  V30 1290 N 124.16 -0.719506 1.40217 0
M  V30 1291 C 125.385 -1.51371 1.4178 0
M  V30 1292 C 125.81 -1.88091 0.0182355 0
M  V30 1293 O 125.168 -1.52997 -0.972707 0
M  V30 1294 C 125.216 -2.768 2.31115 0
M  V30 1295 O 124.32 -3.73349 1.7517 0
M  V30 1296 H 123.661 -0.456529 0.482159 0
M  V30 1297 H 126.191 -0.88644 1.844 0
M  V30 1298 H 126.201 -3.25371 2.46167 0
M  V30 1299 H 124.876 -2.49407 3.3282 0
M  V30 1300 H 123.453 -3.32179 1.69444 0
M  V30 1301 N 125.638 -1.25649 -0.95132 0
M  V30 1302 C 126.601 -1.06399 -2.03007 0
M  V30 1303 C 127.601 -0.0156794 -1.60792 0
M  V30 1304 O 128.791 -0.25817 -1.72276 0
M  V30 1305 C 125.923 -0.616184 -3.35285 0
M  V30 1306 H 127.116 -2.02164 -2.21517 0
M  V30 1307 H 124.669 -1.08103 -1.12887 0
M  V30 1308 H 125.404 0.343917 -3.22471 0
M  V30 1309 H 125.189 -1.37301 -3.67275 0
M  V30 1310 H 126.679 -0.503032 -4.14559 0
M  V30 1311 N 127.117 1.15442 -1.07289 0
M  V30 1312 C 128.363 1.86489 -0.796846 0
M  V30 1313 C 128.696 1.82078 0.675371 0
M  V30 1314 O 127.971 1.24346 1.4956 0
M  V30 1315 C 128.254 3.35626 -1.30489 0
M  V30 1316 C 128.107 3.48673 -2.84161 0
M  V30 1317 C 129.426 4.30357 -0.920907 0
M  V30 1318 H 126.545 0.677144 -0.290939 0
M  V30 1319 H 129.187 1.35633 -1.33056 0
M  V30 1320 H 127.337 3.79068 -0.850883 0
M  V30 1321 H 129.009 3.14099 -3.37846 0
M  V30 1322 H 127.252 2.90253 -3.22391 0
M  V30 1323 H 127.923 4.53453 -3.14777 0
M  V30 1324 H 130.399 3.94871 -1.3121 0
M  V30 1325 H 129.275 5.33193 -1.30372 0
M  V30 1326 H 129.536 4.4176 0.173226 0
M  V30 1327 N 128.595 0.856903 1.32268 0
M  V30 1328 C 129.525 0.31858 2.31316 0
M  V30 1329 C 130.506 -0.583487 1.59779 0
M  V30 1330 O 131.691 -0.503259 1.87566 0
M  V30 1331 C 128.821 -0.491979 3.43798 0
M  V30 1332 C 127.775 0.315849 4.26833 0
M  V30 1333 C 127.101 -0.619586 5.31098 0
M  V30 1334 C 128.401 1.54282 4.98993 0
M  V30 1335 H 130.095 1.14621 2.76591 0
M  V30 1336 H 127.641 0.552613 1.32974 0
M  V30 1337 H 129.594 -0.879012 4.1213 0
M  V30 1338 H 128.318 -1.35299 2.97257 0
M  V30 1339 H 126.977 0.684664 3.6015 0
M  V30 1340 H 126.625 -1.47751 4.8081 0
M  V30 1341 H 126.325 -0.0830621 5.87541 0
M  V30 1342 H 127.849 -1.00375 6.02293 0
M  V30 1343 H 129.263 1.22796 5.59995 0
M  V30 1344 H 127.66 2.01745 5.65172 0
M  V30 1345 H 128.73 2.30285 4.26728 0
M  V30 1346 N 130.073 -1.45103 0.615059 0
M  V30 1347 C 131.005 -2.28786 -0.13762 0
M  V30 1348 C 132.018 -1.40376 -0.824525 0
M  V30 1349 O 133.207 -1.64681 -0.688662 0
M  V30 1350 C 130.307 -3.16322 -1.21628 0
M  V30 1351 C 129.48 -4.33054 -0.615039 0
M  V30 1352 C 128.539 -5.01743 -1.58556 0
M  V30 1353 O 127.565 -5.58293 -1.10895 0
M  V30 1354 N 128.767 -5.01714 -2.91998 0
M  V30 1355 H 131.532 -2.94025 0.580483 0
M  V30 1356 H 129.093 -1.55373 0.45507 0
M  V30 1357 H 131.085 -3.59139 -1.86552 0
M  V30 1358 H 129.655 -2.52943 -1.83681 0
M  V30 1359 H 128.875 -3.93627 0.21245 0
M  V30 1360 H 130.163 -5.08431 -0.193704 0
M  V30 1361 H 129.561 -4.57075 -3.33316 0
M  V30 1362 H 128.118 -5.48371 -3.52325 0
M  V30 1363 N 131.551 -0.354651 -1.53558 0
M  V30 1364 C 132.514 0.484566 -2.24019 0
M  V30 1365 C 133.514 1.01861 -1.24422 0
M  V30 1366 O 134.704 0.906097 -1.4878 0
M  V30 1367 C 131.836 1.67615 -2.96847 0
M  V30 1368 H 133.029 -0.131843 -2.9961 0
M  V30 1369 H 130.582 -0.106165 -1.55939 0
M  V30 1370 H 131.317 2.33095 -2.25471 0
M  V30 1371 H 131.102 1.30029 -3.69912 0
M  V30 1372 H 132.592 2.27114 -3.50441 0
M  V30 1373 N 133.029 1.57378 -0.0835403 0
M  V30 1374 C 134.254 1.98682 0.594987 0
M  V30 1375 C 134.679 0.961969 1.61641 0
M  V30 1376 O 134.037 -0.0709989 1.81161 0
M  V30 1377 C 134.085 3.38988 1.2296 0
M  V30 1378 O 133.189 3.39208 2.34546 0
M  V30 1379 H 132.53 0.646368 0.152002 0
M  V30 1380 H 135.06 2.03961 -0.161533 0
M  V30 1381 H 135.07 3.76431 1.57366 0
M  V30 1382 H 133.745 4.13107 0.481228 0
M  V30 1383 H 132.322 3.13548 2.01846 0
M  V30 1384 N 134.507 -0.190092 1.56449 0
M  V30 1385 C 135.455 -1.25501 1.95837 0
M  V30 1386 C 136.449 -1.4685 0.844485 0
M  V30 1387 O 137.655 -1.47651 1.02952 0
M  V30 1388 H 134.03 -0.421447 0.622805 0
M  V30 1389 H 136.001 -0.895821 2.84636 0
M  V30 1390 C 134.75 -2.59124 2.31841 0
M  V30 1391 H 134.073 -2.43514 3.17082 0
M  V30 1392 H 135.513 -3.32371 2.6326 0
M  V30 1393 C 133.972 -3.16488 1.15486 0
M  V30 1394 O 134.502 -3.99365 0.432535 0
M  V30 1395 N 132.708 -2.75305 0.930349 0
M  V30 1396 H 132.255 -2.08013 1.51948 0
M  V30 1397 H 132.213 -3.14024 0.153634 0
M  V30 1398 N 135.985 -1.50799 -0.457987 0
M  V30 1399 C 137.233 -1.62121 -1.2067 0
M  V30 1400 C 137.554 -0.329793 -1.92191 0
M  V30 1401 O 136.824 0.653409 -1.84682 0
M  V30 1402 H 135.404 -0.597441 -0.448411 0
M  V30 1403 H 138.066 -1.87637 -0.527096 0
M  V30 1404 H 137.162 -2.43882 -1.94751 0
M  V30 1405 N 137.463 0.71206 -1.40597 0
M  V30 1406 C 138.411 1.84746 -1.41321 0
M  V30 1407 C 139.405 1.66842 -0.293268 0
M  V30 1408 O 140.611 1.73904 -0.464481 0
M  V30 1409 H 136.986 0.608522 -0.441819 0
M  V30 1410 H 138.957 1.81252 -2.37045 0
M  V30 1411 C 137.706 3.22638 -1.29614 0
M  V30 1412 H 137.029 3.37023 -2.15071 0
M  V30 1413 H 138.469 4.02209 -1.3418 0
M  V30 1414 C 136.928 3.36899 -0.00673121 0
M  V30 1415 O 137.458 3.90186 0.954859 0
M  V30 1416 N 135.664 2.9053 0.0639327 0
M  V30 1417 H 135.211 2.47353 -0.719311 0
M  V30 1418 H 135.169 3.0045 0.926118 0
M  V30 1419 N 138.941 1.26152 0.944643 0
M  V30 1420 C 140.169 1.14259 1.72489 0
M  V30 1421 C 140.584 -0.302555 1.8636 0
M  V30 1422 O 139.941 -1.20741 1.36849 0
M  V30 1423 C 139.992 1.80266 3.13347 0
M  V30 1424 O 139.713 3.19133 3.00143 0
M  V30 1425 C 141.214 1.74283 4.07603 0
M  V30 1426 H 138.434 0.398051 0.540181 0
M  V30 1427 H 140.978 1.66706 1.18446 0
M  V30 1428 H 139.133 1.31766 3.64303 0
M  V30 1429 H 139.547 3.51744 3.89071 0
M  V30 1430 H 141.021 2.25111 5.04013 0
M  V30 1431 H 141.498 0.708631 4.33446 0
M  V30 1432 H 142.104 2.22319 3.62567 0
M  V30 1433 N 140.419 -1.14872 1.07899 0
M  V30 1434 C 141.349 -2.2193 0.725887 0
M  V30 1435 C 142.33 -1.67622 -0.28927 0
M  V30 1436 O 143.515 -1.93533 -0.160787 0
M  V30 1437 C 140.645 -3.47061 0.128856 0
M  V30 1438 C 139.599 -4.14363 1.07178 0
M  V30 1439 C 138.925 -5.33636 0.337229 0
M  V30 1440 C 140.225 -4.63492 2.40775 0
M  V30 1441 H 141.919 -2.51724 1.62097 0
M  V30 1442 H 139.465 -1.20991 0.780838 0
M  V30 1443 H 141.418 -4.21199 -0.130147 0
M  V30 1444 H 140.142 -3.16617 -0.80134 0
M  V30 1445 H 138.801 -3.42173 1.3158 0
M  V30 1446 H 138.449 -4.99449 -0.596606 0
M  V30 1447 H 138.149 -5.79609 0.965788 0
M  V30 1448 H 139.673 -6.10539 0.0861567 0
M  V30 1449 H 141.087 -5.2913 2.20669 0
M  V30 1450 H 139.484 -5.20148 2.99276 0
M  V30 1451 H 140.554 -3.78834 3.02676 0
M  V30 1452 N 141.898 -0.863906 -1.31812 0
M  V30 1453 C 143.126 -0.486111 -2.01108 0
M  V30 1454 C 143.541 0.919755 -1.64882 0
M  V30 1455 O 142.898 1.60162 -0.874893 0
M  V30 1456 C 142.949 -0.626435 -3.56031 0
M  V30 1457 O 142.67 -1.97693 -3.90959 0
M  V30 1458 C 144.171 -0.248857 -4.42601 0
M  V30 1459 H 141.391 -0.190052 -0.643523 0
M  V30 1460 H 143.935 -1.1634 -1.68182 0
M  V30 1461 H 142.09 0.00322717 -3.874 0
M  V30 1462 H 142.504 -1.98034 -4.85678 0
M  V30 1463 H 143.978 -0.398016 -5.50563 0
M  V30 1464 H 144.455 0.811489 -4.31638 0
M  V30 1465 H 145.061 -0.853971 -4.16638 0
M  V30 1466 N 143.376 1.44774 -0.622745 0
M  V30 1467 C 144.625 2.01334 -0.121397 0
M  V30 1468 C 144.938 1.49505 1.26125 0
M  V30 1469 O 146.144 1.98139 1.85616 0
M  V30 1470 C 144.6 3.59516 -0.166298 0
M  V30 1471 C 144.208 4.20342 -1.54974 0
M  V30 1472 C 145.952 4.23582 0.279021 0
M  V30 1473 C 143.859 5.70721 -1.55021 0
M  V30 1474 H 142.789 0.752851 -0.0416172 0
M  V30 1475 H 145.44 1.66083 -0.780309 0
M  V30 1476 H 143.822 3.92027 0.559557 0
M  V30 1477 H 144.996 3.99381 -2.29851 0
M  V30 1478 H 143.311 3.68529 -1.93843 0
M  V30 1479 H 145.908 5.33868 0.298083 0
M  V30 1480 H 146.251 3.95327 1.30471 0
M  V30 1481 H 146.784 3.95843 -0.394063 0
M  V30 1482 H 143.523 6.03698 -2.55399 0
M  V30 1483 H 143.043 5.93829 -0.844245 0
M  V30 1484 H 144.722 6.34203 -1.28047 0
M  V30 1485 N 144.854 0.36279 1.53368 0
M  V30 1486 C 146.079 -0.231226 2.06107 0
M  V30 1487 C 146.504 -1.419 1.23474 0
M  V30 1488 O 145.862 -1.79524 0.253128 0
M  V30 1489 C 145.91 -0.605523 3.5548 0
M  V30 1490 O 145.014 -1.70312 3.7559 0
M  V30 1491 H 144.355 -0.034327 0.663112 0
M  V30 1492 H 146.885 0.522584 1.97814 0
M  V30 1493 H 146.895 -0.877314 3.98456 0
M  V30 1494 H 145.57 0.263004 4.15068 0
M  V30 1495 H 144.147 -1.4271 3.44512 0
M  V30 1496 N 146.332 -1.57332 0.0918853 0
M  V30 1497 C 147.581 -1.93412 -0.572249 0
M  V30 1498 C 147.894 -0.975515 -1.69538 0
M  V30 1499 O 149.1 -1.22991 -2.42045 0
M  V30 1500 C 147.556 -3.43648 -1.0693 0
M  V30 1501 C 147.164 -4.47994 0.0239049 0
M  V30 1502 C 148.908 -3.88695 -1.70635 0
M  V30 1503 C 146.815 -5.89381 -0.488319 0
M  V30 1504 H 145.745 -0.721939 -0.217532 0
M  V30 1505 H 148.396 -1.82735 0.167369 0
M  V30 1506 H 146.778 -3.49466 -1.8625 0
M  V30 1507 H 147.952 -4.53815 0.799277 0
M  V30 1508 H 146.267 -4.12536 0.565946 0
M  V30 1509 H 148.864 -4.91725 -2.10025 0
M  V30 1510 H 149.207 -3.27166 -2.57426 0
M  V30 1511 H 149.74 -3.85564 -0.979023 0
M  V30 1512 H 146.479 -6.54602 0.342906 0
M  V30 1513 H 145.999 -5.87037 -1.23077 0
M  V30 1514 H 147.678 -6.39863 -0.958317 0
M  V30 1515 N 147.81 0.181792 -1.56548 0
M  V30 1516 C 149.035 0.920019 -1.85877 0
M  V30 1517 C 149.46 1.75494 -0.677021 0
M  V30 1518 O 148.818 1.77399 0.374056 0
M  V30 1519 C 148.866 1.78112 -3.13542 0
M  V30 1520 O 147.97 2.88152 -2.95029 0
M  V30 1521 H 147.311 0.258334 -0.611686 0
M  V30 1522 H 149.841 0.183092 -2.03779 0
M  V30 1523 H 149.851 2.18314 -3.44678 0
M  V30 1524 H 148.526 1.16777 -3.99169 0
M  V30 1525 H 147.103 2.51609 -2.75222 0
M  V30 1526 N 149.288 1.51039 0.449983 0
M  V30 1527 C 150.513 1.6715 1.22783 0
M  V30 1528 C 150.938 0.363081 1.84563 0
M  V30 1529 O 150.296 -0.675433 1.68249 0
M  V30 1530 C 150.344 2.77985 2.29689 0
M  V30 1531 O 149.448 2.40707 3.34864 0
M  V30 1532 H 148.789 0.557746 0.360299 0
M  V30 1533 H 151.319 1.97535 0.533005 0
M  V30 1534 H 151.329 3.01693 2.74673 0
M  V30 1535 H 150.004 3.72935 1.84098 0
M  V30 1536 H 148.581 2.27523 2.95445 0
M  V30 1537 N 150.766 -0.704594 1.40972 0
M  V30 1538 C 152.177 -1.28418 1.3552 0
M  V30 1539 C 152.528 -1.96171 0.0339434 0
M  V30 1540 O 151.653 -1.98231 -0.867944 0
M  V30 1541 C 152.248 -2.33528 2.45459 0
M  V30 1542 C 150.807 -2.87085 2.43433 0
M  V30 1543 C 149.954 -1.61007 2.2577 0
M  V30 1544 H 152.905 -0.499963 1.50619 0
M  V30 1545 H 152.926 -3.14619 2.13998 0
M  V30 1546 H 152.438 -1.84187 3.41609 0
M  V30 1547 H 150.539 -3.40626 1.51013 0
M  V30 1548 H 150.652 -3.3813 3.39419 0
M  V30 1549 H 149.016 -1.86482 1.73483 0
M  V30 1550 H 149.799 -1.13675 3.23933 0
M  V30 1551 N 152.244 -1.26651 -0.937939 0
M  V30 1552 C 153.207 -1.08546 -2.01867 0
M  V30 1553 C 154.207 -0.0327327 -1.60767 0
M  V30 1554 O 155.397 -0.276427 -1.71993 0
M  V30 1555 C 152.529 -0.651711 -3.34613 0
M  V30 1556 H 153.722 -2.04502 -2.1936 0
M  V30 1557 H 151.275 -1.09294 -1.11734 0
M  V30 1558 H 152.01 0.309696 -3.22818 0
M  V30 1559 H 151.795 -1.41189 -3.65798 0
M  V30 1560 H 153.285 -0.546973 -4.14002 0
M  V30 1561 N 153.722 1.14298 -1.08507 0
M  V30 1562 C 154.947 1.8976 -0.837001 0
M  V30 1563 C 155.372 1.78097 0.605228 0
M  V30 1564 O 154.73 1.12188 1.4242 0
M  V30 1565 C 154.778 3.37685 -1.26495 0
M  V30 1566 O 153.882 4.10281 -0.417514 0
M  V30 1567 H 153.223 0.590365 -0.303917 0
M  V30 1568 H 155.753 1.44672 -1.44676 0
M  V30 1569 H 155.763 3.88501 -1.24625 0
M  V30 1570 H 154.438 3.45492 -2.31534 0
M  V30 1571 H 153.015 3.69536 -0.499722 0
M  V30 1572 N 155.201 0.870884 1.31352 0
M  V30 1573 C 156.164 0.332243 2.26779 0
M  V30 1574 C 157.164 -0.517302 1.52252 0
M  V30 1575 O 158.354 -0.326477 1.71113 0
M  V30 1576 C 155.486 -0.528066 3.36785 0
M  V30 1577 H 156.679 1.17469 2.75937 0
M  V30 1578 H 154.232 0.64655 1.423 0
M  V30 1579 H 154.967 -1.39167 2.92922 0
M  V30 1580 H 154.752 0.0802582 3.92018 0
M  V30 1581 H 156.242 -0.897179 4.07849 0
M  V30 1582 N 156.679 -1.44442 0.630414 0
M  V30 1583 C 158.09 -1.85434 0.217063 0
M  V30 1584 C 158.441 -1.52748 -1.23136 0
M  V30 1585 O 157.566 -0.965205 -1.93682 0
M  V30 1586 C 158.161 -3.36581 0.387168 0
M  V30 1587 C 156.72 -3.76389 0.0283297 0
M  V30 1588 C 155.867 -2.68296 0.700889 0
M  V30 1589 H 158.818 -1.34919 0.83562 0
M  V30 1590 H 158.839 -3.78657 -0.374086 0
M  V30 1591 H 158.351 -3.60339 1.44144 0
M  V30 1592 H 156.452 -3.58246 -1.02423 0
M  V30 1593 H 156.565 -4.77095 0.437892 0
M  V30 1594 H 154.929 -2.54335 0.136267 0
M  V30 1595 H 155.712 -2.94887 1.75774 0
M  V30 1596 N 158.157 -0.370918 -1.53173 0
M  V30 1597 C 159.406 0.218249 -2.00516 0
M  V30 1598 C 159.719 1.49429 -1.26215 0
M  V30 1599 O 160.925 2.16239 -1.64174 0
M  V30 1600 C 159.381 0.43948 -3.57207 0
M  V30 1601 C 158.989 -0.822244 -4.4039 0
M  V30 1602 C 160.733 0.986012 -4.1289 0
M  V30 1603 C 158.64 -0.570304 -5.88644 0
M  V30 1604 H 157.57 0.0853333 -0.749156 0
M  V30 1605 H 160.221 -0.490483 -1.76823 0
M  V30 1606 H 158.603 1.20961 -3.77074 0
M  V30 1607 H 159.777 -1.59557 -4.32294 0
M  V30 1608 H 158.092 -1.29238 -3.95836 0
M  V30 1609 H 160.689 1.18991 -5.21292 0
M  V30 1610 H 161.032 1.94972 -3.6782 0
M  V30 1611 H 161.565 0.27592 -3.96842 0
M  V30 1612 H 158.304 -1.50449 -6.38001 0
M  V30 1613 H 157.824 0.164427 -5.99575 0
M  V30 1614 H 159.503 -0.19784 -6.46697 0
M  V30 1615 N 159.635 1.57281 -0.100228 0
M  V30 1616 C 160.883 1.94153 0.561157 0
M  V30 1617 C 161.204 0.983157 1.68401 0
M  V30 1618 O 160.474 0.0361132 1.95867 0
M  V30 1619 H 159.054 0.716791 0.210283 0
M  V30 1620 H 161.716 1.94202 -0.164765 0
M  V30 1621 H 160.812 2.96709 0.968008 0
M  V30 1622 N 161.113 -0.173488 1.56642 0
M  V30 1623 C 162.529 -0.525174 1.50712 0
M  V30 1624 C 162.729 -1.8476 0.804107 0
M  V30 1625 O 161.785 -2.49869 0.363574 0
M  V30 1626 C 163.098 -0.559937 2.95441 0
M  V30 1627 C 164.646 -0.647288 3.06234 0
M  V30 1628 C 165.121 -0.712963 4.52417 0
M  V30 1629 N 166.612 -0.775911 4.56655 0
M  V30 1630 C 167.347 -0.847264 5.67106 0
M  V30 1631 N 166.843 -0.879585 6.87194 0
M  V30 1632 N 168.636 -0.886117 5.55071 0
M  V30 1633 H 160.787 0.693681 2.00753 0
M  V30 1634 H 163.05 0.249841 0.914485 0
M  V30 1635 H 162.756 0.343049 3.50023 0
M  V30 1636 H 162.63 -1.40718 3.49969 0
M  V30 1637 H 165.017 -1.5407 2.51687 0
M  V30 1638 H 165.098 0.226586 2.54794 0
M  V30 1639 H 164.742 0.176183 5.07594 0
M  V30 1640 H 164.672 -1.60295 5.0161 0
M  V30 1641 H 167.163 -0.759304 3.70193 0
M  V30 1642 H 167.476 -0.935144 7.67121 0
M  V30 1643 H 165.821 -0.847898 6.89808 0
M  V30 1644 H 169.012 -0.857853 4.60172 0
M  V30 1645 H 169.185 -0.938263 6.41171 0
M  V30 1646 N 162.591 -1.51276 -0.441967 0
M  V30 1647 C 163.821 -1.67273 -1.21257 0
M  V30 1648 C 164.229 -0.367624 -1.85594 0
M  V30 1649 O 163.572 0.663349 -1.71305 0
M  V30 1650 C 163.634 -2.72807 -2.34129 0
M  V30 1651 C 163.298 -4.1554 -1.90198 0
M  V30 1652 C 164.295 -5.00471 -1.40801 0
M  V30 1653 C 161.98 -4.61616 -1.9803 0
M  V30 1654 C 163.974 -6.29536 -0.998174 0
M  V30 1655 C 161.661 -5.90679 -1.56658 0
M  V30 1656 C 162.659 -6.74466 -1.07633 0
M  V30 1657 O 162.347 -8.01116 -0.668459 0
M  V30 1658 H 162.079 -0.564614 -0.371734 0
M  V30 1659 H 164.633 -1.9843 -0.530521 0
M  V30 1660 H 162.863 -2.36954 -3.05597 0
M  V30 1661 H 164.552 -2.77729 -2.96009 0
M  V30 1662 H 165.318 -4.66079 -1.34148 0
M  V30 1663 H 161.197 -3.96526 -2.35135 0
M  V30 1664 H 164.741 -6.94885 -0.61482 0
M  V30 1665 H 160.638 -6.24586 -1.62979 0
M  V30 1666 H 161.406 -8.14633 -0.794722 0
M  V30 1667 N 164.069 0.697108 -1.41344 0
M  V30 1668 C 165.297 1.48593 -1.43972 0
M  V30 1669 C 165.712 1.88747 -0.0445612 0
M  V30 1670 O 165.069 1.56682 0.935785 0
M  V30 1671 C 165.12 2.74946 -2.34706 0
M  V30 1672 O 164.841 2.36484 -3.68791 0
M  V30 1673 C 166.342 3.687 -2.46121 0
M  V30 1674 H 163.562 0.457964 -0.490418 0
M  V30 1675 H 166.106 0.858429 -1.8561 0
M  V30 1676 H 164.261 3.33937 -1.9638 0
M  V30 1677 H 164.675 3.17918 -4.17167 0
M  V30 1678 H 166.149 4.54145 -3.13777 0
M  V30 1679 H 166.626 4.13081 -1.49199 0
M  V30 1680 H 167.232 3.15613 -2.85076 0
M  V30 1681 N 165.547 1.27147 0.931209 0
M  V30 1682 C 166.48 1.0389 2.0318 0
M  V30 1683 C 167.458 -0.0395716 1.62552 0
M  V30 1684 O 168.642 0.104867 1.88208 0
M  V30 1685 C 165.769 0.575227 3.3378 0
M  V30 1686 C 164.815 1.64774 3.93385 0
M  V30 1687 S 165.648 3.23933 4.26413 0
M  V30 1688 C 166.804 2.79358 5.60098 0
M  V30 1689 H 167.037 1.97075 2.22596 0
M  V30 1690 H 164.57 1.10938 1.07387 0
M  V30 1691 H 166.528 0.314385 4.09294 0
M  V30 1692 H 165.189 -0.336505 3.12292 0
M  V30 1693 H 164.382 1.27454 4.87618 0
M  V30 1694 H 163.984 1.86048 3.24441 0
M  V30 1695 H 166.276 2.24443 6.39243 0
M  V30 1696 H 167.219 3.72322 6.02314 0
M  V30 1697 H 167.627 2.1861 5.20452 0
M  V30 1698 N 167.025 -1.13721 1.09112 0
M  V30 1699 C 167.988 -2.17222 0.731241 0
M  V30 1700 C 168.988 -1.59035 -0.237566 0
M  V30 1701 O 170.178 -1.74192 -0.0161704 0
M  V30 1702 C 167.31 -3.40804 0.0808443 0
M  V30 1703 H 168.503 -2.50573 1.64783 0
M  V30 1704 H 166.056 -1.28493 0.889897 0
M  V30 1705 H 166.791 -3.1304 -0.847127 0
M  V30 1706 H 166.576 -3.84306 0.777896 0
M  V30 1707 H 168.066 -4.1731 -0.155657 0
M  V30 1708 N 168.503 -0.877838 -1.30888 0
M  V30 1709 C 169.433 -0.35534 -2.3078 0
M  V30 1710 C 170.414 0.557994 -1.60687 0
M  V30 1711 O 171.599 0.473355 -1.88343 0
M  V30 1712 C 168.729 0.437221 -3.44537 0
M  V30 1713 C 167.683 -0.383715 -4.26276 0
M  V30 1714 C 167.009 0.535014 -5.32017 0
M  V30 1715 C 168.309 -1.62201 -4.96476 0
M  V30 1716 H 170.003 -1.19007 -2.74732 0
M  V30 1717 H 167.549 -0.573698 -1.32078 0
M  V30 1718 H 169.502 0.813334 -4.13477 0
M  V30 1719 H 168.226 1.30553 -2.99372 0
M  V30 1720 H 166.885 -0.741874 -3.59015 0
M  V30 1721 H 166.533 1.40083 -4.831 0
M  V30 1722 H 166.233 -0.0104211 -5.87599 0
M  V30 1723 H 167.757 0.907799 -6.03814 0
M  V30 1724 H 169.171 -1.31689 -5.5797 0
M  V30 1725 H 167.568 -2.10711 -5.61891 0
M  V30 1726 H 168.638 -2.37044 -4.23011 0
M  V30 1727 N 169.982 1.44106 -0.638065 0
M  V30 1728 C 170.914 2.28976 0.101205 0
M  V30 1729 C 171.927 1.4167 0.802088 0
M  V30 1730 O 173.116 1.65755 0.662375 0
M  V30 1731 C 170.216 3.18217 1.16581 0
M  V30 1732 C 169.389 4.33978 0.546066 0
M  V30 1733 C 168.448 5.04202 1.50554 0
M  V30 1734 O 167.474 5.59986 1.01999 0
M  V30 1735 N 168.676 5.06296 2.8398 0
M  V30 1736 H 171.441 2.93064 -0.627186 0
M  V30 1737 H 169.002 1.54629 -0.479731 0
M  V30 1738 H 170.994 3.62061 1.80815 0
M  V30 1739 H 169.564 2.55833 1.79634 0
M  V30 1740 H 168.784 3.93239 -0.275046 0
M  V30 1741 H 170.072 5.08675 0.112793 0
M  V30 1742 H 169.47 4.62319 3.26002 0
M  V30 1743 H 168.027 5.53907 3.43556 0
M  V30 1744 N 171.46 0.379036 1.52974 0
M  V30 1745 C 172.709 -0.207612 2.00629 0
M  V30 1746 C 173.022 -1.48758 1.27006 0
M  V30 1747 O 174.228 -2.15365 1.65318 0
M  V30 1748 C 172.684 -0.42053 3.57435 0
M  V30 1749 C 172.292 0.845587 4.39948 0
M  V30 1750 C 174.036 -0.964102 4.13407 0
M  V30 1751 C 171.943 0.601513 5.88333 0
M  V30 1752 H 170.873 -0.0813591 0.749598 0
M  V30 1753 H 173.524 0.499853 1.76561 0
M  V30 1754 H 171.906 -1.18959 3.7771 0
M  V30 1755 H 173.08 1.61848 4.31442 0
M  V30 1756 H 171.395 1.31336 3.95145 0
M  V30 1757 H 173.992 -1.16225 5.21916 0
M  V30 1758 H 174.335 -1.93019 3.68849 0
M  V30 1759 H 174.868 -0.25487 3.96983 0
M  V30 1760 H 171.607 1.53831 6.37194 0
M  V30 1761 H 171.127 -0.132628 5.99653 0
M  V30 1762 H 172.806 0.232134 6.46583 0
M  V30 1763 N 172.938 -1.57226 0.108567 0
M  V30 1764 C 174.185 -1.94833 -0.551943 0
M  V30 1765 C 174.513 -0.991204 -1.67348 0
M  V30 1766 O 173.768 -0.0131878 -1.95696 0
M  V30 1767 C 174.067 -3.38911 -1.13463 0
M  V30 1768 C 173.733 -4.50696 -0.135509 0
M  V30 1769 C 172.395 -4.80998 0.139252 0
M  V30 1770 C 174.747 -5.18333 0.545957 0
M  V30 1771 C 172.075 -5.76259 1.10194 0
M  V30 1772 C 174.427 -6.14627 1.49721 0
M  V30 1773 C 173.091 -6.43327 1.78006 0
M  V30 1774 H 172.361 -0.712944 -0.20197 0
M  V30 1775 H 175.008 -1.90582 0.18726 0
M  V30 1776 H 173.313 -3.39805 -1.95037 0
M  V30 1777 H 175.01 -3.65317 -1.65362 0
M  V30 1778 H 171.6 -4.27087 -0.359846 0
M  V30 1779 H 175.784 -4.95087 0.346842 0
M  V30 1780 H 171.04 -5.96804 1.32795 0
M  V30 1781 H 175.214 -6.66126 2.03099 0
M  V30 1782 H 172.841 -7.1695 2.52759 0
M  V30 1783 N 174.416 0.165178 -1.56732 0
M  V30 1784 C 175.641 0.900253 -1.86843 0
M  V30 1785 C 176.066 1.74766 -0.695596 0
M  V30 1786 O 175.424 1.77786 0.35522 0
M  V30 1787 C 175.472 1.74777 -3.15413 0
M  V30 1788 O 174.576 2.85007 -2.98068 0
M  V30 1789 H 173.917 0.251832 -0.614391 0
M  V30 1790 H 176.447 0.161468 -2.03962 0
M  V30 1791 H 176.457 2.14646 -3.46974 0
M  V30 1792 H 175.132 1.12537 -4.00385 0
M  V30 1793 H 173.709 2.48676 -2.77875 0
M  V30 1794 N 175.894 1.51508 0.433938 0
M  V30 1795 C 176.826 1.69266 1.54537 0
M  V30 1796 C 177.839 0.573276 1.52373 0
M  V30 1797 O 179.028 0.847698 1.57087 0
M  V30 1798 C 176.128 1.69524 2.93453 0
M  V30 1799 C 175.301 2.98101 3.20085 0
M  V30 1800 C 174.36 2.90502 4.38742 0
M  V30 1801 O 173.386 3.64442 4.3723 0
M  V30 1802 N 174.588 2.06586 5.42496 0
M  V30 1803 H 177.353 2.65145 1.39708 0
M  V30 1804 H 174.914 1.49437 0.622922 0
M  V30 1805 H 176.906 1.62004 3.70859 0
M  V30 1806 H 175.476 0.812245 3.01863 0
M  V30 1807 H 174.696 3.19464 2.30947 0
M  V30 1808 H 175.984 3.83207 3.34708 0
M  V30 1809 H 175.382 1.45896 5.46563 0
M  V30 1810 H 173.939 2.04943 6.18742 0
M  V30 1811 N 177.372 -0.689602 1.41712 0
M  V30 1812 C 178.62 -1.4468 1.4111 0
M  V30 1813 C 178.941 -1.94986 0.0232196 0
M  V30 1814 O 178.211 -1.72097 -0.935913 0
M  V30 1815 H 176.791 -0.536847 0.519427 0
M  V30 1816 H 179.453 -0.815825 1.77004 0
M  V30 1817 H 178.549 -2.30706 2.10193 0
M  V30 1818 N 178.85 -1.27639 -0.924453 0
M  V30 1819 C 180.098 -1.13941 -1.66918 0
M  V30 1820 C 180.419 0.314589 -1.92446 0
M  V30 1821 O 179.689 1.21964 -1.53303 0
M  V30 1822 H 178.269 -0.418678 -0.618642 0
M  V30 1823 H 180.931 -1.60213 -1.10985 0
M  V30 1824 H 180.027 -1.67094 -2.63602 0
M  V30 1825 N 180.328 1.1314 -1.09713 0
M  V30 1826 C 181.577 1.83838 -0.829851 0
M  V30 1827 C 181.89 1.84599 0.646728 0
M  V30 1828 O 183.096 2.51218 1.02965 0
M  V30 1829 C 181.552 3.30069 -1.43466 0
M  V30 1830 C 181.16 3.37688 -2.94399 0
M  V30 1831 C 182.904 4.05788 -1.24645 0
M  V30 1832 C 180.811 4.78209 -3.47952 0
M  V30 1833 H 179.741 0.68877 -0.306777 0
M  V30 1834 H 182.392 1.27448 -1.3202 0
M  V30 1835 H 180.774 3.8628 -0.871996 0
M  V30 1836 H 181.948 2.91456 -3.56918 0
M  V30 1837 H 180.263 2.75436 -3.12289 0
M  V30 1838 H 182.86 5.09535 -1.62107 0
M  V30 1839 H 183.203 4.15878 -0.187357 0
M  V30 1840 H 183.736 3.55915 -1.77678 0
M  V30 1841 H 180.475 4.73311 -4.53495 0
M  V30 1842 H 179.995 5.24924 -2.90198 0
M  V30 1843 H 181.674 5.47133 -3.45332 0
M  V30 1844 N 181.806 0.884767 1.30421 0
M  V30 1845 C 183.031 0.517288 2.00845 0
M  V30 1846 C 183.456 -0.886779 1.65885 0
M  V30 1847 O 182.814 -1.58768 0.875354 0
M  V30 1848 C 182.862 0.698994 3.5376 0
M  V30 1849 O 181.966 -0.255208 4.1161 0
M  V30 1850 H 181.307 0.203872 0.631927 0
M  V30 1851 H 183.837 1.19225 1.66272 0
M  V30 1852 H 183.847 0.597912 4.03595 0
M  V30 1853 H 182.522 1.72271 3.78544 0
M  V30 1854 H 181.099 -0.10784 3.72744 0
M  V30 1855 N 183.284 -1.43765 0.645699 0
M  V30 1856 C 184.509 -2.06767 0.161883 0
M  V30 1857 C 184.934 -1.48034 -1.16049 0
M  V30 1858 O 184.292 -0.587369 -1.71522 0
M  V30 1859 C 184.34 -3.60519 0.0762003 0
M  V30 1860 O 183.444 -4.00982 -0.963721 0
M  V30 1861 H 182.785 -0.657675 0.091429 0
M  V30 1862 H 185.315 -1.84397 0.886499 0
M  V30 1863 H 185.325 -4.07853 -0.109604 0
M  V30 1864 H 184 -4.02646 1.04157 0
M  V30 1865 H 182.577 -3.65253 -0.751312 0
M  V30 1866 N 184.763 -0.387143 -1.52771 0
M  V30 1867 C 186.009 0.196025 -2.0185 0
M  V30 1868 C 186.342 1.46641 -1.27319 0
M  V30 1869 O 185.617 1.90889 -0.373032 0
M  V30 1870 C 185.9 0.466136 -3.5707 0
M  V30 1871 C 185.753 -0.819385 -4.42274 0
M  V30 1872 C 187.072 1.25768 -4.21747 0
M  V30 1873 H 184.191 0.0697708 -0.73369 0
M  V30 1874 H 186.833 -0.516286 -1.82851 0
M  V30 1875 H 184.983 1.07293 -3.7339 0
M  V30 1876 H 186.655 -1.4563 -4.37709 0
M  V30 1877 H 184.898 -1.43517 -4.09372 0
M  V30 1878 H 185.569 -0.585065 -5.48891 0
M  V30 1879 H 188.045 0.744167 -4.09391 0
M  V30 1880 H 186.921 1.41541 -5.30337 0
M  V30 1881 H 187.182 2.27228 -3.79236 0
M  V30 1882 N 186.241 1.57166 -0.116904 0
M  V30 1883 C 187.188 2.15202 0.83408 0
M  V30 1884 C 188.158 1.07644 1.26499 0
M  V30 1885 O 189.343 1.35541 1.34288 0
M  V30 1886 C 186.483 2.75405 2.07957 0
M  V30 1887 C 185.596 3.97264 1.69721 0
M  V30 1888 C 184.731 4.45561 2.89221 0
M  V30 1889 C 183.77 5.59956 2.47215 0
M  V30 1890 N 182.907 6.03006 3.59622 0
M  V30 1891 H 187.747 2.96141 0.332335 0
M  V30 1892 H 185.284 1.46309 0.152349 0
M  V30 1893 H 187.242 3.08439 2.80929 0
M  V30 1894 H 185.872 1.97159 2.55594 0
M  V30 1895 H 184.924 3.70404 0.866316 0
M  V30 1896 H 186.236 4.80226 1.34849 0
M  V30 1897 H 185.39 4.80493 3.7042 0
M  V30 1898 H 184.129 3.61544 3.27318 0
M  V30 1899 H 183.134 5.2463 1.64448 0
M  V30 1900 H 184.359 6.45738 2.10238 0
M  V30 1901 H 182.305 5.21931 3.97396 0
M  V30 1902 H 182.222 6.80819 3.28667 0
M  V30 1903 H 183.49 6.42576 4.41267 0
M  V30 1904 N 187.719 -0.156864 1.56817 0
M  V30 1905 C 188.649 -1.19589 2.00551 0
M  V30 1906 C 189.63 -1.4536 0.883426 0
M  V30 1907 O 190.815 -1.56449 1.15054 0
M  V30 1908 C 187.945 -2.53143 2.37773 0
M  V30 1909 C 186.899 -2.41913 3.53075 0
M  V30 1910 C 186.225 -3.80088 3.76081 0
M  V30 1911 C 187.525 -1.91157 4.86062 0
M  V30 1912 H 189.219 -0.832293 2.87599 0
M  V30 1913 H 186.765 -0.398918 1.38364 0
M  V30 1914 H 188.718 -3.26047 2.66967 0
M  V30 1915 H 187.442 -2.91319 1.4765 0
M  V30 1916 H 186.101 -1.71462 3.24031 0
M  V30 1917 H 185.749 -4.15683 2.83225 0
M  V30 1918 H 185.449 -3.73439 4.53671 0
M  V30 1919 H 186.973 -4.54556 4.0769 0
M  V30 1920 H 188.387 -2.53846 5.14038 0
M  V30 1921 H 186.784 -1.95422 5.67389 0
M  V30 1922 H 187.854 -0.866673 4.77092 0
M  V30 1923 N 189.197 -1.51736 -0.425897 0
M  V30 1924 C 190.445 -1.64644 -1.17204 0
M  V30 1925 C 190.766 -0.370486 -1.91448 0
M  V30 1926 O 190.036 0.614088 -1.86026 0
M  V30 1927 H 188.616 -0.606819 -0.435638 0
M  V30 1928 H 191.278 -1.88713 -0.487177 0
M  V30 1929 H 190.374 -2.47958 -1.89534 0
M  V30 1930 N 190.675 0.682077 -1.42076 0
M  V30 1931 C 191.903 1.47057 -1.4554 0
M  V30 1932 C 192.318 1.8869 -0.0645779 0
M  V30 1933 O 191.675 1.57666 0.919115 0
M  V30 1934 C 191.726 2.72442 -2.37609 0
M  V30 1935 O 191.447 2.32559 -3.71279 0
M  V30 1936 C 192.948 3.66069 -2.50017 0
M  V30 1937 H 190.168 0.452737 -0.495248 0
M  V30 1938 H 192.712 0.838695 -1.8651 0
M  V30 1939 H 190.867 3.31835 -1.9991 0
M  V30 1940 H 191.281 3.13475 -4.20516 0
M  V30 1941 H 192.755 4.50792 -3.18576 0
M  V30 1942 H 193.232 4.11476 -1.53572 0
M  V30 1943 H 193.838 3.12572 -2.88407 0
M  V30 1944 N 192.153 1.28127 0.917671 0
M  V30 1945 C 193.4 1.15052 1.66641 0
M  V30 1946 C 193.728 -0.301677 1.92146 0
M  V30 1947 O 192.983 -1.23622 1.51711 0
M  V30 1948 C 193.282 1.89018 3.03327 0
M  V30 1949 C 192.948 3.38832 2.97496 0
M  V30 1950 C 191.61 3.79693 2.95613 0
M  V30 1951 C 193.962 4.34378 2.88036 0
M  V30 1952 C 191.29 5.14447 2.82066 0
M  V30 1953 C 193.642 5.69201 2.7603 0
M  V30 1954 C 192.306 6.09343 2.72502 0
M  V30 1955 H 191.576 0.421006 0.609783 0
M  V30 1956 H 194.223 1.58855 1.06945 0
M  V30 1957 H 192.528 1.37752 3.66785 0
M  V30 1958 H 194.225 1.76321 3.60156 0
M  V30 1959 H 190.815 3.06342 2.99754 0
M  V30 1960 H 194.999 4.03775 2.88581 0
M  V30 1961 H 190.255 5.44681 2.77728 0
M  V30 1962 H 194.429 6.42901 2.67678 0
M  V30 1963 H 192.056 7.13712 2.61762 0
M  V30 1964 N 193.631 -1.12557 1.10312 0
M  V30 1965 C 194.88 -1.83395 0.839588 0
M  V30 1966 C 195.193 -1.84939 -0.636929 0
M  V30 1967 O 196.399 -2.51761 -1.01631 0
M  V30 1968 C 194.855 -3.29303 1.45215 0
M  V30 1969 C 194.463 -3.36122 2.96186 0
M  V30 1970 C 196.207 -4.05121 1.26796 0
M  V30 1971 C 194.114 -4.76357 3.50483 0
M  V30 1972 H 193.044 -0.687133 0.310425 0
M  V30 1973 H 195.695 -1.26746 1.32694 0
M  V30 1974 H 194.077 -3.85812 0.892469 0
M  V30 1975 H 195.251 -2.89559 3.58458 0
M  V30 1976 H 193.566 -2.73776 3.13745 0
M  V30 1977 H 196.163 -5.08668 1.64806 0
M  V30 1978 H 196.506 -4.15773 0.209409 0
M  V30 1979 H 197.039 -3.54967 1.79563 0
M  V30 1980 H 193.778 -4.70899 4.55998 0
M  V30 1981 H 193.298 -5.23377 2.92978 0
M  V30 1982 H 194.977 -5.45294 3.48228 0
M  V30 1983 N 195.109 -0.891671 -1.2995 0
M  V30 1984 C 196.039 -0.379797 -2.30391 0
M  V30 1985 C 197.02 0.540919 -1.6127 0
M  V30 1986 O 198.205 0.453352 -1.88834 0
M  V30 1987 C 195.335 0.400654 -3.44981 0
M  V30 1988 C 194.289 -0.428905 -4.25846 0
M  V30 1989 C 193.615 0.478557 -5.32554 0
M  V30 1990 C 194.915 -1.67458 -4.94727 0
M  V30 1991 H 196.609 -1.21914 -2.73454 0
M  V30 1992 H 194.155 -0.587675 -1.31462 0
M  V30 1993 H 196.108 0.769434 -4.14316 0
M  V30 1994 H 194.832 1.27371 -3.0074 0
M  V30 1995 H 193.491 -0.779911 -3.58208 0
M  V30 1996 H 193.139 1.34951 -4.84559 0
M  V30 1997 H 192.839 -0.0727433 -5.87555 0
M  V30 1998 H 194.363 0.843705 -6.04743 0
M  V30 1999 H 195.777 -1.376 -5.56542 0
M  V30 2000 H 194.174 -2.16659 -5.59624 0
M  V30 2001 H 195.244 -2.41518 -4.20473 0
M  V30 2002 N 196.587 1.43421 -0.653314 0
M  V30 2003 C 197.517 2.33487 0.0246656 0
M  V30 2004 C 198.498 1.49475 0.811863 0
M  V30 2005 O 199.683 1.78139 0.773322 0
M  V30 2006 C 196.813 3.32841 0.99166 0
M  V30 2007 C 195.767 4.26842 0.314568 0
M  V30 2008 C 195.093 5.16236 1.39302 0
M  V30 2009 C 196.393 5.16243 -0.793095 0
M  V30 2010 H 198.087 2.90427 -0.727481 0
M  V30 2011 H 195.633 1.39649 -0.351287 0
M  V30 2012 H 197.586 3.94747 1.47487 0
M  V30 2013 H 196.31 2.74158 1.77497 0
M  V30 2014 H 194.969 3.663 -0.148199 0
M  V30 2015 H 194.617 4.53891 2.16776 0
M  V30 2016 H 194.317 5.79948 0.945223 0
M  V30 2017 H 195.841 5.81015 1.87759 0
M  V30 2018 H 197.255 5.71958 -0.392039 0
M  V30 2019 H 195.652 5.88676 -1.16536 0
M  V30 2020 H 196.722 4.55927 -1.65103 0
M  V30 2021 N 198.065 0.39524 1.52563 0
M  V30 2022 C 199.312 -0.185044 2.01653 0
M  V30 2023 C 199.64 -1.46317 1.28146 0
M  V30 2024 O 198.895 -1.9213 0.372074 0
M  V30 2025 C 199.194 -0.493444 3.53977 0
M  V30 2026 C 198.86 0.69384 4.4553 0
M  V30 2027 C 197.522 1.01954 4.70275 0
M  V30 2028 C 199.874 1.48785 4.99512 0
M  V30 2029 C 197.202 2.14069 5.46252 0
M  V30 2030 C 199.554 2.59965 5.76716 0
M  V30 2031 C 198.218 2.93037 5.99738 0
M  V30 2032 H 197.488 -0.0677123 0.7379 0
M  V30 2033 H 200.135 0.533807 1.8391 0
M  V30 2034 H 198.44 -1.29369 3.69825 0
M  V30 2035 H 200.137 -0.955163 3.89458 0
M  V30 2036 H 196.727 0.429987 4.26438 0
M  V30 2037 H 200.911 1.24946 4.80315 0
M  V30 2038 H 196.167 2.40056 5.62302 0
M  V30 2039 H 200.341 3.21887 6.17545 0
M  V30 2040 H 197.968 3.8003 6.58393 0
M  V30 2041 N 199.544 -1.57102 0.125237 0
M  V30 2042 C 200.492 -2.16905 -0.839927 0
M  V30 2043 C 201.486 -1.11998 -1.27094 0
M  V30 2044 O 202.692 -1.3029 -1.24195 0
M  V30 2045 H 199.067 -0.694252 -0.288995 0
M  V30 2046 H 201.038 -2.96774 -0.311115 0
M  V30 2047 C 199.787 -2.78795 -2.07771 0
M  V30 2048 H 199.11 -3.59221 -1.755 0
M  V30 2049 H 200.55 -3.2417 -2.73295 0
M  V30 2050 C 199.009 -1.76193 -2.87155 0
M  V30 2051 O 199.539 -1.21909 -3.82755 0
M  V30 2052 N 197.745 -1.45991 -2.51267 0
M  V30 2053 H 197.292 -1.90325 -1.73592 0
M  V30 2054 H 197.25 -0.775844 -3.04677 0
M  V30 2055 N 201.022 0.148545 -1.56898 0
M  V30 2056 C 202.433 0.708766 -1.72723 0
M  V30 2057 C 202.784 1.81734 -0.739395 0
M  V30 2058 O 201.909 2.16194 0.0943169 0
M  V30 2059 C 202.504 1.29245 -3.13179 0
M  V30 2060 C 201.063 1.79925 -3.30611 0
M  V30 2061 C 200.21 0.687111 -2.68652 0
M  V30 2062 H 203.161 -0.0771063 -1.58513 0
M  V30 2063 H 203.182 2.16224 -3.13093 0
M  V30 2064 H 202.694 0.485382 -3.85053 0
M  V30 2065 H 200.795 2.63203 -2.63732 0
M  V30 2066 H 200.908 1.92903 -4.38549 0
M  V30 2067 H 199.272 1.11335 -2.29078 0
M  V30 2068 H 200.055 -0.108483 -3.43129 0
M  V30 2069 N 202.5 1.5196 0.417844 0
M  V30 2070 C 203.746 1.66793 1.16411 0
M  V30 2071 C 204.101 0.388758 1.88432 0
M  V30 2072 O 203.394 -0.616409 1.81414 0
M  V30 2073 C 203.588 2.82269 2.19223 0
M  V30 2074 C 203.417 4.21293 1.57297 0
M  V30 2075 C 202.187 4.86948 1.34944 0
M  V30 2076 C 204.385 5.03704 1.03858 0
M  V30 2077 N 202.367 6.1003 0.688195 0
M  V30 2078 C 203.738 6.1795 0.503742 0
M  V30 2079 C 205.793 4.89095 0.932203 0
M  V30 2080 C 204.496 7.19188 -0.127034 0
M  V30 2081 C 206.522 5.90559 0.315293 0
M  V30 2082 C 205.884 7.0409 -0.208906 0
M  V30 2083 H 201.983 0.66407 0.412959 0
M  V30 2084 H 204.567 1.89242 0.457772 0
M  V30 2085 H 202.738 2.61451 2.87225 0
M  V30 2086 H 204.47 2.86183 2.86149 0
M  V30 2087 H 201.225 4.45156 1.61657 0
M  V30 2088 H 201.649 6.75964 0.374449 0
M  V30 2089 H 206.291 4.01557 1.32332 0
M  V30 2090 H 204.009 8.06359 -0.530231 0
M  V30 2091 H 207.595 5.81327 0.234625 0
M  V30 2092 H 206.475 7.81257 -0.67875 0
M  V30 2093 N 203.978 -0.674533 1.42435 0
M  V30 2094 C 204.908 -1.80009 1.48724 0
M  V30 2095 C 205.889 -1.6659 0.343793 0
M  V30 2096 O 207.074 -1.86007 0.558137 0
M  V30 2097 C 204.204 -3.18306 1.38919 0
M  V30 2098 C 203.158 -3.46461 2.51294 0
M  V30 2099 C 202.484 -4.84335 2.26547 0
M  V30 2100 C 203.784 -3.43328 3.93603 0
M  V30 2101 H 205.478 -1.75004 2.42928 0
M  V30 2102 H 203.024 -0.840533 1.16923 0
M  V30 2103 H 204.977 -3.9678 1.41927 0
M  V30 2104 H 203.701 -3.2399 0.412094 0
M  V30 2105 H 202.36 -2.70348 2.47604 0
M  V30 2106 H 202.008 -4.86669 1.2713 0
M  V30 2107 H 201.708 -5.04136 3.01861 0
M  V30 2108 H 203.232 -5.65094 2.31304 0
M  V30 2109 H 204.646 -4.11772 3.98894 0
M  V30 2110 H 203.043 -3.74664 4.68771 0
M  V30 2111 H 204.113 -2.41897 4.20255 0
M  V30 2112 N 205.456 -1.28612 -0.910864 0
M  V30 2113 C 206.404 -1.1265 -2.03501 0
M  V30 2114 C 207.398 -0.0450054 -1.6934 0
M  V30 2115 O 208.604 -0.203988 -1.7884 0
M  V30 2116 H 204.979 -0.347639 -0.666822 0
M  V30 2117 H 206.95 -2.07849 -2.14106 0
M  V30 2118 C 205.699 -0.808143 -3.38178 0
M  V30 2119 H 205.022 -1.63231 -3.6496 0
M  V30 2120 H 206.462 -0.736426 -4.17556 0
M  V30 2121 C 204.921 0.488226 -3.33344 0
M  V30 2122 O 205.451 1.51766 -3.71927 0
M  V30 2123 N 203.657 0.490009 -2.86439 0
M  V30 2124 H 203.204 -0.348161 -2.55236 0
M  V30 2125 H 203.162 1.35741 -2.83587 0
M  V30 2126 N 206.934 1.1197 -1.10907 0
M  V30 2127 C 208.18 1.8386 -0.855773 0
M  V30 2128 C 208.513 1.84134 0.617103 0
M  V30 2129 O 207.788 1.29041 1.45529 0
M  V30 2130 C 208.071 3.31305 -1.411 0
M  V30 2131 C 207.924 3.39456 -2.9511 0
M  V30 2132 C 209.243 4.2721 -1.05736 0
M  V30 2133 H 206.362 0.667545 -0.312334 0
M  V30 2134 H 209.004 1.31331 -1.37303 0
M  V30 2135 H 207.154 3.76169 -0.97105 0
M  V30 2136 H 208.826 3.03191 -3.47668 0
M  V30 2137 H 207.069 2.79849 -3.31462 0
M  V30 2138 H 207.74 4.43209 -3.29044 0
M  V30 2139 H 210.216 3.90497 -1.43706 0
M  V30 2140 H 209.092 5.28775 -1.47269 0
M  V30 2141 H 209.353 4.42088 0.0325958 0
M  V30 2142 N 208.412 0.89855 1.29475 0
M  V30 2143 C 209.689 0.443416 1.90508 0
M  V30 2144 C 210.069 -1.07685 1.81569 0
M  V30 2145 O 209.417 -1.9182 1.24166 0
M  V30 2146 C 209.627 0.956708 3.35631 0
M  V30 2147 C 210.975 0.999728 4.12663 0
M  V30 2148 O 211.999 0.904299 3.4453 0
M  V30 2149 O 210.858 1.14289 5.34416 0
M  V30 2150 H 207.952 0.138025 0.815401 0
M  V30 2151 H 210.498 0.98834 1.37949 0
M  V30 2152 H 209.27 2.00067 3.36287 0
M  V30 2153 H 208.893 0.391728 3.95666 0
M  V30 2154 N 209.89 -1.43072 0.660911 0
M  V30 2155 C 211.115 -2.06584 0.183805 0
M  V30 2156 C 211.54 -1.49257 -1.14472 0
M  V30 2157 O 210.898 -0.605528 -1.70889 0
M  V30 2158 C 210.946 -3.60418 0.114434 0
M  V30 2159 O 210.05 -4.01981 -0.921137 0
M  V30 2160 H 209.391 -0.656669 0.0983994 0
M  V30 2161 H 211.921 -1.83447 0.906006 0
M  V30 2162 H 211.931 -4.07946 -0.0663394 0
M  V30 2163 H 210.606 -4.01519 1.08422 0
M  V30 2164 H 209.183 -3.66029 -0.71253 0
M  V30 2165 N 211.368 -0.403325 -1.52352 0
M  V30 2166 C 212.614 0.174605 -2.02047 0
M  V30 2167 C 212.947 1.45282 -1.28867 0
M  V30 2168 O 212.222 1.90483 -0.393257 0
M  V30 2169 C 212.505 0.428238 -3.57545 0
M  V30 2170 C 212.358 -0.866248 -4.4138 0
M  V30 2171 C 213.677 1.21287 -4.23057 0
M  V30 2172 H 210.796 0.0619851 -0.734389 0
M  V30 2173 H 213.438 -0.53565 -1.82293 0
M  V30 2174 H 211.588 1.03327 -3.74507 0
M  V30 2175 H 213.26 -1.50265 -4.3614 0
M  V30 2176 H 211.503 -1.47851 -4.07827 0
M  V30 2177 H 212.174 -0.643249 -5.48239 0
M  V30 2178 H 214.65 0.700703 -4.10158 0
M  V30 2179 H 213.526 1.35909 -5.31808 0
M  V30 2180 H 213.787 2.23193 -3.81625 0
M  V30 2181 N 212.846 1.57033 -0.133567 0
M  V30 2182 C 214.093 1.95686 0.520877 0
M  V30 2183 C 214.421 1.0177 1.6575 0
M  V30 2184 O 213.676 0.0443195 1.9565 0
M  V30 2185 C 213.975 3.40674 1.08057 0
M  V30 2186 C 213.641 4.50855 0.0637899 0
M  V30 2187 C 212.303 4.80716 -0.215757 0
M  V30 2188 C 214.655 5.17398 -0.62835 0
M  V30 2189 C 211.983 5.74433 -1.19348 0
M  V30 2190 C 214.335 6.12167 -1.5948 0
M  V30 2191 C 212.999 6.40414 -1.88218 0
M  V30 2192 H 212.269 0.716067 0.190602 0
M  V30 2193 H 214.916 1.9026 -0.217556 0
M  V30 2194 H 213.221 3.42865 1.89606 0
M  V30 2195 H 214.918 3.67902 1.59529 0
M  V30 2196 H 211.508 4.27605 0.291855 0
M  V30 2197 H 215.692 4.94472 -0.425562 0
M  V30 2198 H 210.948 5.94616 -1.42272 0
M  V30 2199 H 215.122 6.6281 -2.13671 0
M  V30 2200 H 212.749 7.12838 -2.64133 0
M  V30 2201 N 214.325 -0.140222 1.56975 0
M  V30 2202 C 215.258 -1.20266 1.93936 0
M  V30 2203 C 216.236 -1.41212 0.806099 0
M  V30 2204 O 217.42 -1.55713 1.06234 0
M  V30 2205 C 214.547 -2.56037 2.21726 0
M  V30 2206 C 213.593 -2.51646 3.44349 0
M  V30 2207 S 214.426 -1.97678 4.97678 0
M  V30 2208 C 215.582 -3.35165 5.28597 0
M  V30 2209 H 215.815 -0.887358 2.83749 0
M  V30 2210 H 213.348 -0.346119 1.50471 0
M  V30 2211 H 215.306 -3.34167 2.38416 0
M  V30 2212 H 213.967 -2.84755 1.32566 0
M  V30 2213 H 213.16 -3.51608 3.61092 0
M  V30 2214 H 212.762 -1.81628 3.26936 0
M  V30 2215 H 215.054 -4.31302 5.2248 0
M  V30 2216 H 215.997 -3.23269 6.30002 0
M  V30 2217 H 216.405 -3.32614 4.56101 0
M  V30 2218 N 215.803 -1.52179 -0.40978 0
M  V30 2219 C 217.051 -1.65878 -1.15451 0
M  V30 2220 C 217.372 -0.390771 -1.91044 0
M  V30 2221 O 216.642 0.594323 -1.86667 0
M  V30 2222 H 215.222 -0.611405 -0.429177 0
M  V30 2223 H 217.884 -1.89219 -0.467134 0
M  V30 2224 H 216.98 -2.49954 -1.86894 0
M  V30 2225 N 217.281 0.66697 -1.42791 0
M  V30 2226 C 218.229 1.80157 -1.47127 0
M  V30 2227 C 219.223 1.65825 -0.346199 0
M  V30 2228 O 220.429 1.72338 -0.519572 0
M  V30 2229 H 216.804 0.594158 -0.460956 0
M  V30 2230 H 218.775 1.73619 -2.42692 0
M  V30 2231 C 217.524 3.18351 -1.39813 0
M  V30 2232 H 216.847 3.3001 -2.25684 0
M  V30 2233 H 218.287 3.97736 -1.46908 0
M  V30 2234 C 216.746 3.36707 -0.11391 0
M  V30 2235 O 217.276 3.93027 0.830241 0
M  V30 2236 N 215.482 2.90586 -0.0285295 0
M  V30 2237 H 215.029 2.4494 -0.79764 0
M  V30 2238 H 214.987 3.03245 0.830063 0
M  V30 2239 N 218.759 1.29093 0.90403 0
M  V30 2240 C 219.709 1.10482 1.99443 0
M  V30 2241 C 220.693 0.0255401 1.6088 0
M  V30 2242 O 221.885 0.24677 1.75271 0
M  V30 2243 C 219.014 0.778882 3.34348 0
M  V30 2244 C 218.1 1.89749 3.79284 0
M  V30 2245 N 218.491 3.14045 3.96497 0
M  V30 2246 C 216.789 1.78955 4.08523 0
M  V30 2247 C 217.49 3.86996 4.34292 0
M  V30 2248 N 216.466 3.14909 4.43095 0
M  V30 2249 H 220.268 2.04778 2.10815 0
M  V30 2250 H 217.782 1.20155 1.09255 0
M  V30 2251 H 219.779 0.62661 4.12164 0
M  V30 2252 H 218.439 -0.156205 3.24324 0
M  V30 2253 H 219.45 3.49548 3.82148 0
M  V30 2254 H 216.127 0.926886 4.07081 0
M  V30 2255 H 217.517 4.93941 4.55491 0
M  V30 2256 N 220.237 -1.11381 1.11499 0
M  V30 2257 C 221.2 -2.15622 0.777153 0
M  V30 2258 C 222.2 -1.59504 -0.203779 0
M  V30 2259 O 223.39 -1.74188 0.020782 0
M  V30 2260 C 220.522 -3.40556 0.153116 0
M  V30 2261 H 221.715 -2.47021 1.70061 0
M  V30 2262 H 219.268 -1.26577 0.916952 0
M  V30 2263 H 220.003 -3.14767 -0.780536 0
M  V30 2264 H 219.788 -3.8257 0.859238 0
M  V30 2265 H 221.278 -4.17546 -0.0671044 0
M  V30 2266 N 221.715 -0.905404 -1.28997 0
M  V30 2267 C 222.625 -0.392246 -2.31298 0
M  V30 2268 C 223.641 0.515889 -1.66176 0
M  V30 2269 O 224.817 0.404093 -1.97304 0
M  V30 2270 C 221.882 0.36686 -3.44754 0
M  V30 2271 C 220.943 -0.573485 -4.25452 0
M  V30 2272 C 220.176 0.149488 -5.33491 0
M  V30 2273 O 220.399 1.37255 -5.5364 0
M  V30 2274 O 219.333 -0.510919 -5.99728 0
M  V30 2275 H 223.159 -1.2411 -2.77183 0
M  V30 2276 H 220.744 -0.669926 -1.33538 0
M  V30 2277 H 222.626 0.795907 -4.13816 0
M  V30 2278 H 221.301 1.19169 -3.00966 0
M  V30 2279 H 220.208 -1.05176 -3.59011 0
M  V30 2280 H 221.541 -1.36489 -4.72897 0
M  V30 2281 N 223.193 1.4272 -0.668489 0
M  V30 2282 C 224.609 1.55992 -0.33745 0
M  V30 2283 C 224.809 1.64933 1.15756 0
M  V30 2284 O 223.865 1.61278 1.94282 0
M  V30 2285 C 225.178 2.81314 -1.06222 0
M  V30 2286 C 226.726 2.95078 -1.04394 0
M  V30 2287 C 227.201 4.23252 -1.74991 0
M  V30 2288 N 228.692 4.3015 -1.71829 0
M  V30 2289 C 229.427 5.28127 -2.23315 0
M  V30 2290 N 228.923 6.32293 -2.83156 0
M  V30 2291 N 230.716 5.19882 -2.13726 0
M  V30 2292 H 222.867 1.3516 -1.63846 0
M  V30 2293 H 225.13 0.650174 -0.689912 0
M  V30 2294 H 224.836 2.80823 -2.11734 0
M  V30 2295 H 224.71 3.72012 -0.62344 0
M  V30 2296 H 227.097 2.951 0.0028244 0
M  V30 2297 H 227.178 2.05627 -1.52155 0
M  V30 2298 H 226.822 4.2399 -2.79633 0
M  V30 2299 H 226.752 5.11626 -1.24685 0
M  V30 2300 H 229.243 3.55499 -1.28175 0
M  V30 2301 H 229.556 7.03398 -3.20079 0
M  V30 2302 H 227.901 6.32873 -2.87223 0
M  V30 2303 H 231.092 4.37423 -1.66669 0
M  V30 2304 H 231.265 5.96077 -2.54158 0
M  V30 2305 N 224.671 0.411399 1.52136 0
M  V30 2306 C 225.581 -0.419774 2.30814 0
M  V30 2307 C 226.597 -1.0515 1.38634 0
M  V30 2308 O 227.773 -1.05252 1.71709 0
M  V30 2309 C 224.838 -1.52019 3.11594 0
M  V30 2310 C 223.899 -0.91129 4.19516 0
M  V30 2311 C 223.132 -1.95927 4.96436 0
M  V30 2312 O 223.355 -3.17775 4.73683 0
M  V30 2313 O 222.289 -1.56423 5.81219 0
M  V30 2314 H 226.115 0.221805 3.02889 0
M  V30 2315 H 223.7 0.174547 1.48377 0
M  V30 2316 H 225.582 -2.15898 3.61892 0
M  V30 2317 H 224.257 -2.14633 2.42311 0
M  V30 2318 H 223.164 -0.235157 3.7336 0
M  V30 2319 H 224.497 -0.32904 4.91099 0
M  V30 2320 N 226.149 -1.5696 0.141893 0
M  V30 2321 C 227.059 -2.20066 -0.812905 0
M  V30 2322 C 228.075 -1.18344 -1.27557 0
M  V30 2323 O 229.251 -1.50902 -1.33381 0
M  V30 2324 C 226.316 -2.80583 -2.03652 0
M  V30 2325 C 225.377 -3.97414 -1.62359 0
M  V30 2326 C 224.61 -4.55036 -2.78887 0
M  V30 2327 O 224.833 -4.11538 -3.94959 0
M  V30 2328 O 223.767 -5.45376 -2.54653 0
M  V30 2329 H 227.593 -3.02157 -0.305746 0
M  V30 2330 H 225.178 -1.49159 -0.0848799 0
M  V30 2331 H 227.06 -3.19067 -2.75272 0
M  V30 2332 H 225.735 -2.01508 -2.5333 0
M  V30 2333 H 224.642 -3.63656 -0.877775 0
M  V30 2334 H 225.975 -4.77994 -1.17401 0
M  V30 2335 N 227.627 0.131896 -1.57047 0
M  V30 2336 C 228.857 0.855219 -1.88068 0
M  V30 2337 C 229.265 1.74557 -0.729817 0
M  V30 2338 O 228.608 1.81083 0.308962 0
M  V30 2339 C 228.67 1.75119 -3.13964 0
M  V30 2340 C 228.334 1.03646 -4.45091 0
M  V30 2341 C 229.331 0.383276 -5.18485 0
M  V30 2342 C 227.016 1.02148 -4.91804 0
M  V30 2343 C 229.01 -0.275347 -6.36805 0
M  V30 2344 C 226.697 0.359047 -6.10044 0
M  V30 2345 C 227.695 -0.288222 -6.82392 0
M  V30 2346 O 227.383 -0.94011 -7.98384 0
M  V30 2347 H 227.115 0.251864 -0.627328 0
M  V30 2348 H 229.669 0.124782 -2.05021 0
M  V30 2349 H 227.899 2.52295 -2.9306 0
M  V30 2350 H 229.588 2.3478 -3.31109 0
M  V30 2351 H 230.354 0.386562 -4.83457 0
M  V30 2352 H 226.233 1.5147 -4.35405 0
M  V30 2353 H 229.777 -0.781148 -6.93213 0
M  V30 2354 H 225.674 0.35348 -6.44531 0
M  V30 2355 H 226.442 -0.84329 -8.14144 0
M  V30 2356 N 229.106 1.52395 0.401703 0
M  V30 2357 C 230.352 1.67065 1.14966 0
M  V30 2358 C 230.685 0.403052 1.89971 0
M  V30 2359 O 229.96 -0.598774 1.85054 0
M  V30 2360 C 230.243 2.8975 2.13815 0
M  V30 2361 C 230.096 4.26578 1.42658 0
M  V30 2362 C 231.415 3.07965 3.14397 0
M  V30 2363 H 228.534 0.607968 0.416587 0
M  V30 2364 H 231.176 1.84965 0.434511 0
M  V30 2365 H 229.326 2.74619 2.74803 0
M  V30 2366 H 230.998 4.53451 0.847329 0
M  V30 2367 H 229.241 4.27639 0.72849 0
M  V30 2368 H 229.912 5.08483 2.14823 0
M  V30 2369 H 232.388 3.22043 2.63491 0
M  V30 2370 H 231.264 3.95308 3.80819 0
M  V30 2371 H 231.525 2.21611 3.82545 0
M  V30 2372 N 230.584 -0.659388 1.43143 0
M  V30 2373 C 231.516 -1.7849 1.43784 0
M  V30 2374 C 232.529 -1.5932 0.334787 0
M  V30 2375 O 233.718 -1.68155 0.598842 0
M  V30 2376 C 230.818 -3.15828 1.22906 0
M  V30 2377 C 229.991 -3.61711 2.45934 0
M  V30 2378 C 229.05 -4.77831 2.20371 0
M  V30 2379 O 228.076 -4.87586 2.93681 0
M  V30 2380 N 229.278 -5.67611 1.21647 0
M  V30 2381 H 232.043 -1.7842 2.40803 0
M  V30 2382 H 229.604 -0.84302 1.3822 0
M  V30 2383 H 231.596 -3.91189 1.03697 0
M  V30 2384 H 230.166 -3.10707 0.343542 0
M  V30 2385 H 229.386 -2.76861 2.80609 0
M  V30 2386 H 230.674 -3.89112 3.27825 0
M  V30 2387 H 230.072 -5.62397 0.610449 0
M  V30 2388 H 228.629 -6.42719 1.08423 0
M  V30 2389 N 232.062 -1.29571 -0.897171 0
M  V30 2390 C 232.972 -1.16808 -2.03453 0
M  V30 2391 C 233.988 -0.0907471 -1.73763 0
M  V30 2392 O 235.164 -0.303312 -1.99103 0
M  V30 2393 C 232.229 -0.848264 -3.36163 0
M  V30 2394 C 231.29 -2.0097 -3.79354 0
M  V30 2395 C 230.523 -1.70505 -5.05731 0
M  V30 2396 O 230.746 -0.62718 -5.66941 0
M  V30 2397 O 229.68 -2.5538 -5.45036 0
M  V30 2398 H 233.506 -2.12325 -2.17144 0
M  V30 2399 H 231.091 -1.09047 -1.02123 0
M  V30 2400 H 232.973 -0.684581 -4.15802 0
M  V30 2401 H 231.648 0.0771071 -3.23608 0
M  V30 2402 H 230.555 -2.22863 -3.00471 0
M  V30 2403 H 231.888 -2.91636 -3.96496 0
M  V30 2404 N 233.54 1.10788 -1.12088 0
M  V30 2405 C 234.817 1.79136 -0.785476 0
M  V30 2406 C 235.197 1.98246 0.725377 0
M  V30 2407 O 234.545 1.57258 1.65778 0
M  V30 2408 C 234.755 3.12375 -1.55636 0
M  V30 2409 C 236.103 3.8731 -1.74001 0
M  V30 2410 O 237.127 3.22085 -1.52117 0
M  V30 2411 O 235.986 5.04369 -2.10415 0
M  V30 2412 H 233.08 0.776226 -0.285311 0
M  V30 2413 H 235.626 1.1747 -1.2247 0
M  V30 2414 H 234.398 2.93863 -2.5838 0
M  V30 2415 H 234.021 3.81758 -1.11114 0
M  V30 2416 N 235.018 0.912232 1.28515 0
M  V30 2417 C 235.981 0.404223 2.25607 0
M  V30 2418 C 236.981 -0.468602 1.53821 0
M  V30 2419 O 238.171 -0.271873 1.72065 0
M  V30 2420 C 235.303 -0.420653 3.38295 0
M  V30 2421 H 236.496 1.26188 2.7206 0
M  V30 2422 H 234.049 0.691495 1.40171 0
M  V30 2423 H 234.784 -1.29777 2.97201 0
M  V30 2424 H 234.569 0.204935 3.91564 0
M  V30 2425 H 236.059 -0.766971 4.10496 0
M  V30 2426 N 236.496 -1.42363 0.676048 0
M  V30 2427 C 237.744 -2.01123 0.198437 0
M  V30 2428 C 238.065 -1.53731 -1.19966 0
M  V30 2429 O 237.335 -0.759518 -1.80577 0
M  V30 2430 H 235.915 -0.743678 0.0703721 0
M  V30 2431 H 238.577 -1.74263 0.872837 0
M  V30 2432 H 237.673 -3.11454 0.200686 0
M  V30 2433 N 237.974 -0.419461 -1.51915 0
M  V30 2434 C 239.223 0.154346 -2.01109 0
M  V30 2435 C 239.536 1.45338 -1.30905 0
M  V30 2436 O 240.742 2.10906 -1.7097 0
M  V30 2437 C 239.198 0.325615 -3.58424 0
M  V30 2438 C 238.806 -0.961934 -4.37551 0
M  V30 2439 C 240.55 0.854155 -4.15818 0
M  V30 2440 C 238.457 -0.757287 -5.86531 0
M  V30 2441 H 237.387 0.0614563 -0.751491 0
M  V30 2442 H 240.038 -0.54649 -1.75173 0
M  V30 2443 H 238.42 1.08903 -3.80731 0
M  V30 2444 H 239.594 -1.7323 -4.26999 0
M  V30 2445 H 237.909 -1.41766 -3.91524 0
M  V30 2446 H 240.506 1.02346 -5.24814 0
M  V30 2447 H 240.849 1.83172 -3.73837 0
M  V30 2448 H 241.382 0.149528 -3.97519 0
M  V30 2449 H 238.121 -1.70671 -6.32892 0
M  V30 2450 H 237.641 -0.0264061 -5.99794 0
M  V30 2451 H 239.32 -0.403482 -6.45741 0
M  V30 2452 N 239.452 1.56882 -0.150215 0
M  V30 2453 C 240.701 1.95403 0.500071 0
M  V30 2454 C 241.014 1.03777 1.658 0
M  V30 2455 O 242.22 1.31889 2.37313 0
M  V30 2456 C 240.676 3.4738 0.941018 0
M  V30 2457 C 240.284 4.47596 -0.190158 0
M  V30 2458 C 242.028 3.9476 1.56091 0
M  V30 2459 C 239.935 5.90787 0.269237 0
M  V30 2460 H 238.865 0.729515 0.190588 0
M  V30 2461 H 241.516 1.81988 -0.235074 0
M  V30 2462 H 239.898 3.56138 1.73152 0
M  V30 2463 H 241.072 4.50536 -0.967157 0
M  V30 2464 H 239.387 4.10151 -0.718666 0
M  V30 2465 H 241.984 4.99181 1.9163 0
M  V30 2466 H 242.327 3.36494 2.45107 0
M  V30 2467 H 242.86 3.88932 0.835249 0
M  V30 2468 H 239.599 6.52879 -0.585621 0
M  V30 2469 H 239.119 5.912 1.01204 0
M  V30 2470 H 240.798 6.42979 0.720176 0
M  V30 2471 N 240.93 -0.123565 1.57115 0
M  V30 2472 C 242.177 -0.832153 1.84612 0
M  V30 2473 C 242.505 -1.80093 0.734627 0
M  V30 2474 O 241.76 -1.93766 -0.27442 0
M  V30 2475 C 242.059 -1.62016 3.18568 0
M  V30 2476 C 241.725 -0.796084 4.43817 0
M  V30 2477 C 240.387 -0.568816 4.77826 0
M  V30 2478 C 242.739 -0.221364 5.2073 0
M  V30 2479 C 240.067 0.243499 5.86194 0
M  V30 2480 C 242.419 0.578117 6.29953 0
M  V30 2481 C 241.083 0.815744 6.62497 0
M  V30 2482 H 240.353 -0.304507 0.675542 0
M  V30 2483 H 243 -0.0947248 1.91266 0
M  V30 2484 H 241.305 -2.42837 3.0747 0
M  V30 2485 H 243.002 -2.17231 3.37064 0
M  V30 2486 H 239.592 -0.983307 4.17168 0
M  V30 2487 H 243.776 -0.384173 4.94811 0
M  V30 2488 H 239.032 0.436871 6.09837 0
M  V30 2489 H 243.206 1.03046 6.88734 0
M  V30 2490 H 240.833 1.44701 7.46301 0
M  V30 2491 N 242.408 -1.52605 -0.393616 0
M  V30 2492 C 243.654 -1.67672 -1.14079 0
M  V30 2493 C 243.987 -0.413121 -1.89755 0
M  V30 2494 O 243.262 0.588952 -1.85369 0
M  V30 2495 C 243.545 -2.9088 -2.12276 0
M  V30 2496 C 243.398 -4.27329 -1.40394 0
M  V30 2497 C 244.717 -3.09628 -3.12759 0
M  V30 2498 H 241.836 -0.610168 -0.413356 0
M  V30 2499 H 244.478 -1.85193 -0.424696 0
M  V30 2500 H 242.628 -2.76073 -2.73342 0
M  V30 2501 H 244.3 -4.53894 -0.82327 0
M  V30 2502 H 242.543 -4.2802 -0.705801 0
M  V30 2503 H 243.214 -5.09615 -2.12123 0
M  V30 2504 H 245.69 -3.23436 -2.61779 0
M  V30 2505 H 244.566 -3.97322 -3.78717 0
M  V30 2506 H 244.827 -2.23637 -3.81365 0
M  V30 2507 N 243.887 0.651787 -1.4349 0
M  V30 2508 C 245.135 1.40888 -1.44897 0
M  V30 2509 C 245.456 1.94856 -0.0749086 0
M  V30 2510 O 244.726 1.74518 0.889956 0
M  V30 2511 H 243.306 0.522887 -0.533478 0
M  V30 2512 H 245.968 0.768609 -1.79104 0
M  V30 2513 H 245.064 2.25052 -2.16236 0
M  V30 2514 N 245.365 1.30045 0.890287 0
M  V30 2515 C 246.59 1.21598 1.68014 0
M  V30 2516 C 247.015 -0.218678 1.86825 0
M  V30 2517 O 246.373 -1.15756 1.39536 0
M  V30 2518 C 246.421 1.94434 3.03691 0
M  V30 2519 O 245.525 1.2678 3.92429 0
M  V30 2520 H 244.866 0.420856 0.513592 0
M  V30 2521 H 247.396 1.71775 1.11151 0
M  V30 2522 H 247.406 2.03251 3.5377 0
M  V30 2523 H 246.081 2.98777 2.89318 0
M  V30 2524 H 244.658 1.26282 3.50866 0
M  V30 2525 N 246.843 -1.10192 1.12674 0
M  V30 2526 C 248.071 -1.85983 0.906527 0
M  V30 2527 C 248.486 -1.80783 -0.544333 0
M  V30 2528 O 247.843 -1.19834 -1.37645 0
M  V30 2529 C 247.894 -3.34281 1.37618 0
M  V30 2530 O 247.615 -3.39401 2.77017 0
M  V30 2531 C 249.116 -4.26938 1.19325 0
M  V30 2532 H 246.336 -0.587716 0.323775 0
M  V30 2533 H 248.88 -1.39284 1.49734 0
M  V30 2534 H 247.035 -3.78436 0.828539 0
M  V30 2535 H 247.449 -4.31838 2.97684 0
M  V30 2536 H 248.923 -5.29181 1.57071 0
M  V30 2537 H 249.4 -4.38995 0.134097 0
M  V30 2538 H 250.006 -3.8859 1.72852 0
M  V30 2539 N 248.321 -0.919034 -1.28029 0
M  V30 2540 C 249.269 -0.401753 -2.29104 0
M  V30 2541 C 250.263 0.509354 -1.61561 0
M  V30 2542 O 251.469 0.390014 -1.75724 0
M  V30 2543 H 247.844 -0.111331 -0.743713 0
M  V30 2544 H 249.815 -1.2672 -2.70156 0
M  V30 2545 C 248.564 0.338148 -3.46052 0
M  V30 2546 H 247.887 -0.353732 -3.98232 0
M  V30 2547 H 249.327 0.664653 -4.18758 0
M  V30 2548 C 247.786 1.54798 -2.99231 0
M  V30 2549 O 248.316 2.64696 -3.02157 0
M  V30 2550 N 246.522 1.3968 -2.54829 0
M  V30 2551 H 246.069 0.502698 -2.52647 0
M  V30 2552 H 246.027 2.20755 -2.23863 0
M  V30 2553 N 249.799 1.42003 -0.683588 0
M  V30 2554 C 251.215 1.55625 -0.353976 0
M  V30 2555 C 251.415 1.66151 1.14 0
M  V30 2556 O 250.471 1.63329 1.92561 0
M  V30 2557 C 251.784 2.80171 -1.092 0
M  V30 2558 C 253.332 2.93954 -1.07518 0
M  V30 2559 C 253.807 4.21372 -1.79471 0
M  V30 2560 N 255.298 4.28303 -1.76381 0
M  V30 2561 C 256.033 5.25729 -2.28904 0
M  V30 2562 N 255.529 6.29254 -2.89846 0
M  V30 2563 N 257.322 5.17586 -2.19228 0
M  V30 2564 H 249.473 1.33415 -1.6527 0
M  V30 2565 H 251.736 0.64282 -0.696769 0
M  V30 2566 H 251.442 2.78561 -2.14701 0
M  V30 2567 H 251.316 3.7133 -0.662862 0
M  V30 2568 H 253.703 2.95086 -0.028475 0
M  V30 2569 H 253.784 2.04002 -1.54328 0
M  V30 2570 H 253.428 4.21001 -2.84114 0
M  V30 2571 H 253.358 5.10275 -1.30104 0
M  V30 2572 H 255.849 3.54119 -1.31939 0
M  V30 2573 H 256.162 6.99964 -3.27522 0
M  V30 2574 H 254.507 6.29791 -2.93919 0
M  V30 2575 H 257.698 4.35631 -1.71299 0
M  V30 2576 H 257.871 5.93348 -2.60466 0
M  V30 2577 N 251.277 0.427512 1.51691 0
M  V30 2578 C 252.526 -0.143679 2.01188 0
M  V30 2579 C 252.839 -1.44642 1.31674 0
M  V30 2580 O 254.045 -2.09997 1.72086 0
M  V30 2581 C 252.501 -0.306602 3.58592 0
M  V30 2582 C 252.109 0.985125 4.37035 0
M  V30 2583 C 253.853 -0.832091 4.16265 0
M  V30 2584 C 251.76 0.788382 5.86122 0
M  V30 2585 H 250.69 -0.0574701 0.751807 0
M  V30 2586 H 253.341 0.555772 1.74881 0
M  V30 2587 H 251.723 -1.06882 3.81303 0
M  V30 2588 H 252.897 1.75492 4.26074 0
M  V30 2589 H 251.212 1.4384 3.90767 0
M  V30 2590 H 253.809 -0.995617 5.25349 0
M  V30 2591 H 254.152 -1.81186 3.74803 0
M  V30 2592 H 254.685 -0.128444 3.97593 0
M  V30 2593 H 251.424 1.74025 6.31978 0
M  V30 2594 H 250.944 0.0582143 5.99772 0
M  V30 2595 H 252.623 0.437722 6.45518 0
M  V30 2596 N 252.755 -1.56801 0.158532 0
M  V30 2597 C 254.003 -1.96102 -0.488712 0
M  V30 2598 C 254.324 -1.04498 -1.64636 0
M  V30 2599 O 253.594 -0.108783 -1.95598 0
M  V30 2600 H 252.174 -0.724102 -0.183535 0
M  V30 2601 H 254.836 -1.93457 0.236728 0
M  V30 2602 H 253.932 -3.00097 -0.857219 0
M  V30 2603 N 254.233 0.115231 -1.57178 0
M  V30 2604 C 255.166 1.17166 -1.95825 0
M  V30 2605 C 256.144 1.39912 -0.828463 0
M  V30 2606 O 257.328 1.54004 -1.08697 0
M  V30 2607 C 254.455 2.52478 -2.25771 0
M  V30 2608 C 253.501 2.46136 -3.48309 0
M  V30 2609 S 254.334 1.89736 -5.0076 0
M  V30 2610 C 255.49 3.26713 -5.33863 0
M  V30 2611 H 255.723 0.842103 -2.85124 0
M  V30 2612 H 253.256 0.322136 -1.51002 0
M  V30 2613 H 255.214 3.30332 -2.43702 0
M  V30 2614 H 253.875 2.82609 -1.37079 0
M  V30 2615 H 253.068 3.45819 -3.66641 0
M  V30 2616 H 252.67 1.76404 -3.29784 0
M  V30 2617 H 254.962 4.22935 -5.29275 0
M  V30 2618 H 255.905 3.13205 -6.35065 0
M  V30 2619 H 256.313 3.25316 -4.61335 0
M  V30 2620 N 255.711 1.52812 0.385517 0
M  V30 2621 C 256.96 1.67249 1.12741 0
M  V30 2622 C 257.273 0.4205 1.91027 0
M  V30 2623 O 258.479 0.445064 2.67827 0
M  V30 2624 C 256.935 2.95583 2.05326 0
M  V30 2625 C 256.543 4.27974 1.32447 0
M  V30 2626 C 258.287 3.19386 2.7963 0
M  V30 2627 C 256.194 5.47412 2.23818 0
M  V30 2628 H 255.124 0.6231 0.424573 0
M  V30 2629 H 257.775 1.79309 0.389924 0
M  V30 2630 H 256.157 2.77277 2.82725 0
M  V30 2631 H 257.331 4.56844 0.602495 0
M  V30 2632 H 255.646 4.10459 0.700885 0
M  V30 2633 H 258.243 4.05801 3.48181 0
M  V30 2634 H 258.586 2.34604 3.43899 0
M  V30 2635 H 259.119 3.38274 2.09322 0
M  V30 2636 H 255.858 6.34612 1.64157 0
M  V30 2637 H 255.378 5.22849 2.93921 0
M  V30 2638 H 257.057 5.81423 2.83824 0
M  V30 2639 N 257.189 -0.644168 1.43834 0
M  V30 2640 C 258.437 -1.40117 1.45642 0
M  V30 2641 C 258.758 -1.94814 0.0852413 0
M  V30 2642 O 258.028 -1.74988 -0.880688 0
M  V30 2643 H 256.608 -0.52005 0.536243 0
M  V30 2644 H 259.27 -0.7591 1.7951 0
M  V30 2645 H 258.366 -2.23902 2.17427 0
M  V30 2646 N 258.668 -1.30515 -0.883378 0
M  V30 2647 C 259.914 -1.20617 -1.63778 0
M  V30 2648 C 260.269 0.236469 -1.90941 0
M  V30 2649 O 259.562 1.16596 -1.52039 0
M  V30 2650 C 259.756 -1.96994 -2.98209 0
M  V30 2651 C 259.585 -3.48537 -2.84169 0
M  V30 2652 C 258.355 -4.17893 -2.84067 0
M  V30 2653 C 260.553 -4.43738 -2.60001 0
M  V30 2654 N 258.535 -5.55685 -2.60936 0
M  V30 2655 C 259.906 -5.69105 -2.46007 0
M  V30 2656 C 261.961 -4.33316 -2.45239 0
M  V30 2657 C 260.664 -6.8523 -2.18752 0
M  V30 2658 C 262.69 -5.4921 -2.19369 0
M  V30 2659 C 262.052 -6.73558 -2.06153 0
M  V30 2660 H 258.151 -0.496434 -0.604216 0
M  V30 2661 H 260.735 -1.64544 -1.04083 0
M  V30 2662 H 258.906 -1.55455 -3.55933 0
M  V30 2663 H 260.638 -1.79225 -3.62851 0
M  V30 2664 H 257.393 -3.69739 -2.95956 0
M  V30 2665 H 257.817 -6.28199 -2.52378 0
M  V30 2666 H 262.459 -3.37856 -2.54191 0
M  V30 2667 H 260.177 -7.80729 -2.08537 0
M  V30 2668 H 263.763 -5.43054 -2.08766 0
M  V30 2669 H 262.643 -7.61721 -1.86416 0
M  V30 2670 N 260.146 1.09593 -1.13257 0
M  V30 2671 C 261.094 2.18271 -0.803783 0
M  V30 2672 C 262.088 1.68054 0.213148 0
M  V30 2673 O 263.294 1.79862 0.0704699 0
M  V30 2674 H 259.669 0.711949 -0.242143 0
M  V30 2675 H 261.64 2.43235 -1.72856 0
M  V30 2676 C 260.389 3.46536 -0.28424 0
M  V30 2677 H 259.712 3.85545 -1.05807 0
M  V30 2678 H 261.152 4.23899 -0.0925945 0
M  V30 2679 C 259.611 3.22036 0.989684 0
M  V30 2680 O 260.141 3.44509 2.06584 0
M  V30 2681 N 258.347 2.7565 0.920086 0
M  V30 2682 H 257.894 2.57562 0.0442019 0
M  V30 2683 H 257.852 2.59635 1.77306 0
M  V30 2684 N 261.624 0.925811 1.2754 0
M  V30 2685 C 262.871 0.565255 1.94451 0
M  V30 2686 C 263.199 -0.89316 1.7278 0
M  V30 2687 O 262.454 -1.65213 1.04895 0
M  V30 2688 C 262.753 0.835296 3.47502 0
M  V30 2689 C 262.419 2.27515 3.89291 0
M  V30 2690 C 261.081 2.66879 4.00411 0
M  V30 2691 C 263.433 3.21158 4.10496 0
M  V30 2692 C 260.761 3.99014 4.30122 0
M  V30 2693 C 263.113 4.52871 4.4169 0
M  V30 2694 C 261.777 4.92072 4.51023 0
M  V30 2695 H 261.047 0.206841 0.711546 0
M  V30 2696 H 263.694 1.16942 1.51647 0
M  V30 2697 H 261.999 0.148442 3.91519 0
M  V30 2698 H 263.696 0.535322 3.97411 0
M  V30 2699 H 260.286 1.95976 3.81171 0
M  V30 2700 H 264.47 2.9195 4.01346 0
M  V30 2701 H 259.726 4.2907 4.35556 0
M  V30 2702 H 263.9 5.25436 4.57045 0
M  V30 2703 H 261.527 5.9449 4.738 0
M  V30 2704 N 263.102 -1.41638 0.69111 0
M  V30 2705 C 264.35 -2.00902 0.219758 0
M  V30 2706 C 264.671 -1.54994 -1.18329 0
M  V30 2707 O 263.941 -0.778628 -1.79762 0
M  V30 2708 H 262.521 -0.74289 0.0782558 0
M  V30 2709 H 265.183 -1.73327 0.891271 0
M  V30 2710 H 264.279 -3.11224 0.233708 0
M  V30 2711 N 264.58 -0.43555 -1.51462 0
M  V30 2712 C 265.512 0.41257 -2.25456 0
M  V30 2713 C 266.525 0.987822 -1.29406 0
M  V30 2714 O 267.714 0.882266 -1.55172 0
M  V30 2715 C 264.814 1.58894 -2.99342 0
M  V30 2716 C 263.987 1.13288 -4.22474 0
M  V30 2717 C 263.046 2.17917 -4.78956 0
M  V30 2718 O 262.072 1.77425 -5.40841 0
M  V30 2719 N 263.274 3.50382 -4.62832 0
M  V30 2720 H 266.039 -0.221603 -2.9888 0
M  V30 2721 H 263.6 -0.264342 -1.59727 0
M  V30 2722 H 265.592 2.28508 -3.34015 0
M  V30 2723 H 264.162 2.12849 -2.28941 0
M  V30 2724 H 263.382 0.263881 -3.93316 0
M  V30 2725 H 264.67 0.805542 -5.02383 0
M  V30 2726 H 264.068 3.86013 -4.13534 0
M  V30 2727 H 262.625 4.15895 -5.01871 0
M  V30 2728 N 266.058 1.56714 -0.166846 0
M  V30 2729 C 267.305 1.96747 0.479252 0
M  V30 2730 C 267.633 1.05263 1.63554 0
M  V30 2731 O 266.888 0.0858098 1.95512 0
M  V30 2732 C 267.187 3.42889 1.00806 0
M  V30 2733 C 266.853 4.50889 -0.0318574 0
M  V30 2734 C 265.515 4.8015 -0.317675 0
M  V30 2735 C 267.867 5.15949 -0.737956 0
M  V30 2736 C 265.195 5.71772 -1.31506 0
M  V30 2737 C 267.547 6.08647 -1.72429 0
M  V30 2738 C 266.211 6.36277 -2.0176 0
M  V30 2739 H 265.481 0.719949 0.175371 0
M  V30 2740 H 268.128 1.89756 -0.257864 0
M  V30 2741 H 266.433 3.4681 1.82291 0
M  V30 2742 H 268.13 3.71203 1.51689 0
M  V30 2743 H 264.72 4.28128 0.201088 0
M  V30 2744 H 268.904 4.93458 -0.530351 0
M  V30 2745 H 264.16 5.91465 -1.54853 0
M  V30 2746 H 268.334 6.58129 -2.27682 0
M  V30 2747 H 265.961 7.07075 -2.79194 0
M  V30 2748 N 267.536 -0.106894 1.57237 0
M  V30 2749 C 268.446 -1.14911 2.0453 0
M  V30 2750 C 269.462 -1.44592 0.96795 0
M  V30 2751 O 270.638 -1.55468 1.2803 0
M  V30 2752 C 267.703 -2.45272 2.45036 0
M  V30 2753 C 266.764 -2.22879 3.66911 0
M  V30 2754 C 265.997 -3.47024 4.05475 0
M  V30 2755 O 266.22 -4.54804 3.44252 0
M  V30 2756 O 265.154 -3.3731 4.98504 0
M  V30 2757 H 268.98 -0.777461 2.9358 0
M  V30 2758 H 266.565 -0.318563 1.45964 0
M  V30 2759 H 268.447 -3.22055 2.71769 0
M  V30 2760 H 267.122 -2.81886 1.59129 0
M  V30 2761 H 266.029 -1.43915 3.45311 0
M  V30 2762 H 267.362 -1.91163 4.53561 0
M  V30 2763 N 269.014 -1.53014 -0.377408 0
M  V30 2764 C 269.924 -1.81557 -1.48574 0
M  V30 2765 C 270.94 -0.703102 -1.59162 0
M  V30 2766 O 272.116 -0.99192 -1.75279 0
M  V30 2767 C 269.181 -1.9889 -2.83978 0
M  V30 2768 C 268.242 -3.22801 -2.83016 0
M  V30 2769 C 267.475 -3.39298 -4.11962 0
M  V30 2770 O 267.698 -2.60345 -5.0752 0
M  V30 2771 O 266.632 -4.32604 -4.18494 0
M  V30 2772 H 270.458 -2.75695 -1.27382 0
M  V30 2773 H 268.043 -1.38248 -0.566373 0
M  V30 2774 H 269.925 -2.11931 -3.6423 0
M  V30 2775 H 268.6 -1.07942 -3.05172 0
M  V30 2776 H 267.507 -3.15193 -2.01505 0
M  V30 2777 H 268.84 -4.13632 -2.66775 0
M  V30 2778 N 270.492 0.636531 -1.44174 0
M  V30 2779 C 271.769 1.39463 -1.37148 0
M  V30 2780 C 272.149 2.11082 -0.027507 0
M  V30 2781 O 271.497 2.05954 0.989716 0
M  V30 2782 C 271.707 2.36552 -2.56601 0
M  V30 2783 C 273.055 3.00048 -3.00427 0
M  V30 2784 O 274.079 2.46878 -2.56767 0
M  V30 2785 O 272.938 3.96488 -3.76111 0
M  V30 2786 H 270.032 0.623903 -0.542839 0
M  V30 2787 H 272.578 0.662039 -1.56253 0
M  V30 2788 H 271.35 1.82692 -3.46034 0
M  V30 2789 H 270.973 3.17236 -2.39681 0
M  V30 2790 N 271.97 1.30982 0.876444 0
M  V30 2791 C 273.219 1.19658 1.62373 0
M  V30 2792 C 273.532 -0.245636 1.94052 0
M  V30 2793 O 274.738 -0.48049 2.67214 0
M  V30 2794 C 273.194 2.09433 2.92687 0
M  V30 2795 C 272.802 3.58613 2.68516 0
M  V30 2796 C 274.546 2.06893 3.70669 0
M  V30 2797 C 272.453 4.40416 3.94699 0
M  V30 2798 H 271.383 0.444268 0.609214 0
M  V30 2799 H 274.034 1.55791 0.969605 0
M  V30 2800 H 272.416 1.66191 3.59439 0
M  V30 2801 H 273.59 4.10058 2.10212 0
M  V30 2802 H 271.905 3.63063 2.03898 0
M  V30 2803 H 274.502 2.65258 4.64265 0
M  V30 2804 H 274.845 1.05448 4.02724 0
M  V30 2805 H 275.378 2.48301 3.10792 0
M  V30 2806 H 272.117 5.42591 3.67798 0
M  V30 2807 H 271.637 3.93731 4.52477 0
M  V30 2808 H 273.316 4.52294 4.62644 0
M  V30 2809 N 273.449 -1.08991 1.13837 0
M  V30 2810 C 274.379 -2.17771 0.842507 0
M  V30 2811 C 275.36 -1.6892 -0.20001 0
M  V30 2812 O 276.545 -1.94113 -0.0579731 0
M  V30 2813 C 273.675 -3.4589 0.312644 0
M  V30 2814 C 272.629 -4.08099 1.28992 0
M  V30 2815 C 271.955 -5.31098 0.619623 0
M  V30 2816 C 273.255 -4.50077 2.65005 0
M  V30 2817 H 274.949 -2.42777 1.75213 0
M  V30 2818 H 272.495 -1.16682 0.843875 0
M  V30 2819 H 274.448 -4.21297 0.0933043 0
M  V30 2820 H 273.172 -3.20419 -0.632382 0
M  V30 2821 H 271.831 -3.34717 1.49533 0
M  V30 2822 H 271.479 -5.0191 -0.33102 0
M  V30 2823 H 271.179 -5.73674 1.27167 0
M  V30 2824 H 272.703 -6.09224 0.409669 0
M  V30 2825 H 274.117 -5.16688 2.48407 0
M  V30 2826 H 272.514 -5.03553 3.26427 0
M  V30 2827 H 273.584 -3.62257 3.22332 0
M  V30 2828 N 274.927 -0.932562 -1.27047 0
M  V30 2829 C 276.152 -0.591474 -1.98787 0
M  V30 2830 C 276.577 0.824601 -1.69062 0
M  V30 2831 O 275.935 1.5541 -0.933677 0
M  V30 2832 C 275.983 -0.829808 -3.50922 0
M  V30 2833 O 275.087 0.102266 -4.12273 0
M  V30 2834 H 274.428 -0.227185 -0.623926 0
M  V30 2835 H 276.958 -1.25314 -1.61733 0
M  V30 2836 H 276.968 -0.747292 -4.01098 0
M  V30 2837 H 275.643 -1.86201 -3.7189 0
M  V30 2838 H 274.22 -0.0305761 -3.72887 0
M  V30 2839 N 276.405 1.4127 -0.698611 0
M  V30 2840 C 277.654 2.00408 -0.227949 0
M  V30 2841 C 277.967 1.55981 1.18023 0
M  V30 2842 O 279.173 2.07699 1.74852 0
M  V30 2843 C 277.629 3.58129 -0.356636 0
M  V30 2844 C 277.237 4.11536 -1.77037 0
M  V30 2845 C 278.981 4.24466 0.0540969 0
M  V30 2846 C 276.888 5.61701 -1.85055 0
M  V30 2847 H 275.818 0.749586 -0.0814657 0
M  V30 2848 H 278.469 1.61713 -0.867249 0
M  V30 2849 H 276.851 3.94442 0.350965 0
M  V30 2850 H 278.025 3.86636 -2.50698 0
M  V30 2851 H 276.34 3.57736 -2.13105 0
M  V30 2852 H 278.937 5.34698 0.0146723 0
M  V30 2853 H 279.28 4.01687 1.09332 0
M  V30 2854 H 279.813 3.93198 -0.603337 0
M  V30 2855 H 276.552 5.89312 -2.8704 0
M  V30 2856 H 276.072 5.88519 -1.15783 0
M  V30 2857 H 277.751 6.26524 -1.61484 0
M  V30 2858 N 277.883 0.443576 1.51229 0
M  V30 2859 C 279.123 -0.119889 2.04048 0
M  V30 2860 C 279.487 -1.39418 1.32009 0
M  V30 2861 O 280.688 -2.03829 1.75235 0
M  V30 2862 C 278.959 -0.327233 3.55899 0
M  V30 2863 S 280.518 -0.853208 4.30425 0
M  V30 2864 H 277.336 -0.028921 0.710412 0
M  V30 2865 H 279.938 0.604413 1.85922 0
M  V30 2866 H 278.642 0.606445 4.05895 0
M  V30 2867 H 278.173 -1.07844 3.7833 0
M  V30 2868 H 280.188 -2.13005 4.48155 0
M  V30 2869 N 279.361 -1.56624 0.175154 0
M  V30 2870 C 280.291 -2.21155 -0.749195 0
M  V30 2871 C 281.272 -1.16836 -1.23626 0
M  V30 2872 O 282.457 -1.45277 -1.28873 0
M  V30 2873 C 279.587 -2.8553 -1.97711 0
M  V30 2874 C 278.541 -3.95921 -1.62575 0
M  V30 2875 C 277.867 -4.47365 -2.92864 0
M  V30 2876 C 279.167 -5.15323 -0.850838 0
M  V30 2877 H 280.861 -2.98653 -0.211295 0
M  V30 2878 H 278.407 -1.43651 -0.100188 0
M  V30 2879 H 280.36 -3.2935 -2.62881 0
M  V30 2880 H 279.084 -2.05406 -2.53921 0
M  V30 2881 H 277.743 -3.52762 -0.997719 0
M  V30 2882 H 277.391 -3.64027 -3.47122 0
M  V30 2883 H 277.091 -5.21839 -2.70106 0
M  V30 2884 H 278.615 -4.93873 -3.59056 0
M  V30 2885 H 280.029 -5.55812 -1.40521 0
M  V30 2886 H 278.426 -5.95739 -0.722154 0
M  V30 2887 H 279.496 -4.84661 0.152082 0
M  V30 2888 N 280.839 0.0985539 -1.57292 0
M  V30 2889 C 282.064 0.820196 -1.90493 0
M  V30 2890 C 282.489 1.71658 -0.769094 0
M  V30 2891 O 281.847 1.79133 0.279495 0
M  V30 2892 C 281.895 1.61242 -3.22542 0
M  V30 2893 O 280.999 2.72108 -3.09888 0
M  V30 2894 H 280.34 0.225547 -0.62452 0
M  V30 2895 H 282.87 0.0748159 -2.04463 0
M  V30 2896 H 282.88 1.99737 -3.55766 0
M  V30 2897 H 281.555 0.954535 -4.04798 0
M  V30 2898 H 280.132 2.36667 -2.88172 0
M  V30 2899 N 282.317 1.53212 0.369288 0
M  V30 2900 C 283.566 1.68436 1.10961 0
M  V30 2901 C 283.879 0.440738 1.9057 0
M  V30 2902 O 285.085 0.473446 2.6734 0
M  V30 2903 C 283.541 2.97744 2.0218 0
M  V30 2904 C 283.149 4.29355 1.279 0
M  V30 2905 C 284.893 3.22334 2.76226 0
M  V30 2906 C 282.8 5.49755 2.17999 0
M  V30 2907 H 281.73 0.627568 0.41794 0
M  V30 2908 H 284.381 1.79713 0.370884 0
M  V30 2909 H 282.763 2.8026 2.79768 0
M  V30 2910 H 283.937 4.57458 0.554007 0
M  V30 2911 H 282.252 4.11179 0.657311 0
M  V30 2912 H 284.849 4.09471 3.43857 0
M  V30 2913 H 285.192 2.38238 3.41392 0
M  V30 2914 H 285.725 3.40475 2.05723 0
M  V30 2915 H 282.464 6.36318 1.57417 0
M  V30 2916 H 281.984 5.25937 2.88359 0
M  V30 2917 H 283.663 5.84401 2.77641 0
M  V30 2918 N 283.795 -0.628877 1.44509 0
M  V30 2919 C 284.725 -1.75187 1.54376 0
M  V30 2920 C 285.706 -1.65411 0.396618 0
M  V30 2921 O 286.891 -1.84137 0.617031 0
M  V30 2922 C 284.021 -3.13725 1.48976 0
M  V30 2923 C 282.975 -3.38291 2.62189 0
M  V30 2924 C 282.301 -4.76883 2.41841 0
M  V30 2925 C 283.601 -3.30632 4.04326 0
M  V30 2926 H 285.295 -1.67187 2.48373 0
M  V30 2927 H 282.841 -0.802909 1.19538 0
M  V30 2928 H 284.794 -3.92064 1.54478 0
M  V30 2929 H 283.518 -3.22515 0.514961 0
M  V30 2930 H 282.177 -2.62334 2.56079 0
M  V30 2931 H 281.825 -4.82378 1.42548 0
M  V30 2932 H 281.525 -4.94278 3.17747 0
M  V30 2933 H 283.049 -5.57449 2.49165 0
M  V30 2934 H 284.463 -3.98873 4.11793 0
M  V30 2935 H 282.86 -3.59561 4.80454 0
M  V30 2936 H 283.93 -2.28404 4.27738 0
M  V30 2937 N 285.273 -1.31445 -0.869486 0
M  V30 2938 C 286.55 -1.11795 -1.60503 0
M  V30 2939 C 286.93 0.327168 -2.08549 0
M  V30 2940 O 286.278 1.32135 -1.8642 0
M  V30 2941 C 286.488 -2.13258 -2.76265 0
M  V30 2942 C 287.836 -2.45805 -3.46215 0
M  V30 2943 O 288.86 -2.11688 -2.86473 0
M  V30 2944 O 287.719 -3.04228 -4.5399 0
M  V30 2945 H 284.813 -0.430421 -0.706163 0
M  V30 2946 H 287.359 -1.42925 -0.914907 0
M  V30 2947 H 286.131 -3.10461 -2.3818 0
M  V30 2948 H 285.754 -1.83035 -3.52964 0
M  V30 2949 N 286.751 1.08385 -1.14413 0
M  V30 2950 C 288.167 1.32844 -0.884563 0
M  V30 2951 C 288.367 1.95841 0.474181 0
M  V30 2952 O 287.423 2.21158 1.21842 0
M  V30 2953 C 288.736 2.22978 -2.01745 0
M  V30 2954 C 290.284 2.36458 -2.05077 0
M  V30 2955 C 290.759 3.29934 -3.1766 0
M  V30 2956 N 292.25 3.37511 -3.17239 0
M  V30 2957 C 292.985 4.09871 -4.0099 0
M  V30 2958 N 292.481 4.84936 -4.94781 0
M  V30 2959 N 294.274 4.05704 -3.89051 0
M  V30 2960 H 286.425 0.658756 -2.01926 0
M  V30 2961 H 288.688 0.352821 -0.879899 0
M  V30 2962 H 288.394 1.83934 -2.99769 0
M  V30 2963 H 288.268 3.23441 -1.94077 0
M  V30 2964 H 290.655 2.7476 -1.0766 0
M  V30 2965 H 290.736 1.35736 -2.16816 0
M  V30 2966 H 290.38 2.92352 -4.15322 0
M  V30 2967 H 290.31 4.30584 -3.03158 0
M  V30 2968 H 292.801 2.83996 -2.49308 0
M  V30 2969 H 293.114 5.37612 -5.55151 0
M  V30 2970 H 291.459 4.83988 -4.98779 0
M  V30 2971 H 294.65 3.46167 -3.15097 0
M  V30 2972 H 294.823 4.61834 -4.54547 0
M  V30 2973 N 288.23 0.939286 1.26551 0
M  V30 2974 C 289.455 0.602008 1.98471 0
M  V30 2975 C 289.88 -0.815624 1.69497 0
M  V30 2976 O 289.238 -1.54912 0.941905 0
M  V30 2977 C 289.286 0.848407 3.50477 0
M  V30 2978 O 288.39 -0.0804009 4.12322 0
M  V30 2979 H 287.731 0.23049 0.622712 0
M  V30 2980 H 290.261 1.2617 1.61066 0
M  V30 2981 H 290.271 0.768553 4.00696 0
M  V30 2982 H 288.946 1.88171 3.70897 0
M  V30 2983 H 287.523 0.0503508 3.72866 0
M  V30 2984 N 289.708 -1.40897 0.706093 0
M  V30 2985 C 290.638 -2.33418 0.0620085 0
M  V30 2986 C 291.619 -1.52385 -0.755827 0
M  V30 2987 O 292.804 -1.80886 -0.706674 0
M  V30 2988 C 289.934 -3.36293 -0.867445 0
M  V30 2989 C 288.888 -4.27716 -0.155932 0
M  V30 2990 C 288.214 -5.2105 -1.20046 0
M  V30 2991 C 289.514 -5.12944 0.984149 0
M  V30 2992 H 291.208 -2.87527 0.83477 0
M  V30 2993 H 288.754 -1.38249 0.402875 0
M  V30 2994 H 290.707 -3.99949 -1.32735 0
M  V30 2995 H 289.431 -2.80556 -1.67199 0
M  V30 2996 H 288.09 -3.65498 0.284047 0
M  V30 2997 H 287.738 -4.61624 -1.99781 0
M  V30 2998 H 287.438 -5.83056 -0.729328 0
M  V30 2999 H 288.962 -5.87584 -1.66066 0
M  V30 3000 H 290.376 -5.70109 0.604048 0
M  V30 3001 H 288.773 -5.83945 1.38304 0
M  V30 3002 H 289.843 -4.49485 1.81911 0
M  V30 3003 N 291.186 -0.45159 -1.50991 0
M  V30 3004 C 292.134 0.366864 -2.29689 0
M  V30 3005 C 293.128 1.00809 -1.36139 0
M  V30 3006 O 294.334 0.941427 -1.53418 0
M  V30 3007 H 290.709 0.137133 -0.739391 0
M  V30 3008 H 292.68 -0.317538 -2.96706 0
M  V30 3009 C 291.429 1.44751 -3.16137 0
M  V30 3010 H 290.752 0.963473 -3.88017 0
M  V30 3011 H 292.192 1.99315 -3.74232 0
M  V30 3012 C 290.651 2.43869 -2.32442 0
M  V30 3013 O 291.181 3.4872 -1.99392 0
M  V30 3014 N 289.387 2.15105 -1.95392 0
M  V30 3015 H 288.934 1.29866 -2.22469 0
M  V30 3016 H 288.892 2.81661 -1.39693 0
M  V30 3017 N 292.664 1.56529 -0.183458 0
M  V30 3018 C 293.911 1.97244 0.458357 0
M  V30 3019 C 294.239 1.06992 1.62428 0
M  V30 3020 O 293.494 0.106542 1.9541 0
M  V30 3021 C 293.793 3.43939 0.971637 0
M  V30 3022 C 293.459 4.5083 -0.0796784 0
M  V30 3023 C 292.121 4.79786 -0.368584 0
M  V30 3024 C 294.473 5.15138 -0.792638 0
M  V30 3025 C 291.801 5.70345 -1.37563 0
M  V30 3026 C 294.153 6.06784 -1.78875 0
M  V30 3027 C 292.817 6.34102 -2.08497 0
M  V30 3028 H 292.087 0.721768 0.167725 0
M  V30 3029 H 294.734 1.89472 -0.277976 0
M  V30 3030 H 293.039 3.48724 1.78602 0
M  V30 3031 H 294.736 3.72791 1.47744 0
M  V30 3032 H 291.326 4.28317 0.155668 0
M  V30 3033 H 295.51 4.92868 -0.582659 0
M  V30 3034 H 290.766 5.89789 -1.61118 0
M  V30 3035 H 294.94 6.55677 -2.3465 0
M  V30 3036 H 292.567 7.04074 -2.86678 0
M  V30 3037 N 294.142 -0.090211 1.57342 0
M  V30 3038 C 295.558 -0.444547 1.53284 0
M  V30 3039 C 295.758 -1.80238 0.900914 0
M  V30 3040 O 294.814 -2.4759 0.495513 0
M  V30 3041 C 296.127 -0.402543 2.97993 0
M  V30 3042 C 297.675 -0.48405 3.09234 0
M  V30 3043 C 298.15 -0.472144 4.5556 0
M  V30 3044 N 299.641 -0.532757 4.60126 0
M  V30 3045 C 300.376 -0.545462 5.708 0
M  V30 3046 N 299.872 -0.514082 6.9089 0
M  V30 3047 N 301.665 -0.59064 5.58988 0
M  V30 3048 H 293.816 0.799121 1.96794 0
M  V30 3049 H 296.079 0.297965 0.899956 0
M  V30 3050 H 295.785 0.528106 3.47712 0
M  V30 3051 H 295.659 -1.21969 3.56936 0
M  V30 3052 H 298.046 -1.40512 2.595 0
M  V30 3053 H 298.127 0.361328 2.53235 0
M  V30 3054 H 297.771 0.445 5.05947 0
M  V30 3055 H 297.701 -1.3348 5.09402 0
M  V30 3056 H 300.192 -0.562006 3.73698 0
M  V30 3057 H 300.505 -0.527195 7.71 0
M  V30 3058 H 298.85 -0.481054 6.93333 0
M  V30 3059 H 302.041 -0.61272 4.64073 0
M  V30 3060 H 302.214 -0.597073 6.45243 0
M  V30 3061 N 295.62 -1.53406 -0.361157 0
M  V30 3062 C 297.036 -1.43277 -0.703124 0
M  V30 3063 C 297.236 -0.575384 -1.9311 0
M  V30 3064 O 296.292 -0.0595362 -2.5243 0
M  V30 3065 C 297.605 -2.8653 -0.9122 0
M  V30 3066 C 299.153 -2.96191 -1.01193 0
M  V30 3067 C 299.628 -4.40514 -1.25345 0
M  V30 3068 N 301.119 -4.43962 -1.32105 0
M  V30 3069 C 301.854 -5.52746 -1.5251 0
M  V30 3070 N 301.35 -6.71567 -1.70203 0
M  V30 3071 N 303.143 -5.40331 -1.54916 0
M  V30 3072 H 295.294 -2.07654 0.446475 0
M  V30 3073 H 297.557 -0.937944 0.137715 0
M  V30 3074 H 297.263 -3.51605 -0.0816414 0
M  V30 3075 H 297.137 -3.30441 -1.81903 0
M  V30 3076 H 299.524 -2.31266 -1.83303 0
M  V30 3077 H 299.605 -2.55667 -0.0823929 0
M  V30 3078 H 299.249 -5.06014 -0.437346 0
M  V30 3079 H 299.179 -4.78614 -2.19627 0
M  V30 3080 H 301.67 -3.58332 -1.20028 0
M  V30 3081 H 301.983 -7.50241 -1.85359 0
M  V30 3082 H 300.328 -6.74545 -1.67373 0
M  V30 3083 H 303.519 -4.46465 -1.40663 0
M  V30 3084 H 303.692 -6.25173 -1.70477 0
M  V30 3085 N 297.098 0.621204 -1.44841 0
M  V30 3086 C 298.375 1.38 -1.38619 0
M  V30 3087 C 298.755 2.11041 -0.0498935 0
M  V30 3088 O 298.103 2.06992 0.967816 0
M  V30 3089 C 298.313 2.33817 -2.59096 0
M  V30 3090 C 299.661 2.96844 -3.03593 0
M  V30 3091 O 300.685 2.44141 -2.59371 0
M  V30 3092 O 299.544 3.92476 -3.80296 0
M  V30 3093 H 296.638 0.61811 -0.549426 0
M  V30 3094 H 299.184 0.645429 -1.56947 0
M  V30 3095 H 297.956 1.79012 -3.47952 0
M  V30 3096 H 297.579 3.14676 -2.43032 0
M  V30 3097 N 298.576 1.31904 0.862503 0
M  V30 3098 C 299.539 1.20131 1.95195 0
M  V30 3099 C 300.539 0.126409 1.60302 0
M  V30 3100 O 301.729 0.376234 1.70089 0
M  V30 3101 C 298.861 0.845691 3.30244 0
M  V30 3102 H 300.054 2.16943 2.07064 0
M  V30 3103 H 297.607 1.15622 1.05172 0
M  V30 3104 H 298.342 -0.120957 3.24074 0
M  V30 3105 H 298.127 1.62276 3.56944 0
M  V30 3106 H 299.617 0.787418 4.10109 0
M  V30 3107 N 300.054 -1.07777 1.14986 0
M  V30 3108 C 301.017 -2.13041 0.845358 0
M  V30 3109 C 302.017 -1.60071 -0.152931 0
M  V30 3110 O 303.207 -1.74033 0.0761879 0
M  V30 3111 C 300.339 -3.39896 0.261383 0
M  V30 3112 H 301.532 -2.41485 1.77834 0
M  V30 3113 H 299.085 -1.23595 0.956757 0
M  V30 3114 H 299.82 -3.17091 -0.68 0
M  V30 3115 H 299.605 -3.79642 0.980514 0
M  V30 3116 H 301.095 -4.17548 0.0657687 0
M  V30 3117 N 301.532 -0.945985 -1.26051 0
M  V30 3118 C 302.76 -0.613025 -1.9761 0
M  V30 3119 C 303.175 0.813035 -1.70397 0
M  V30 3120 O 302.532 1.54274 -0.974979 0
M  V30 3121 C 302.583 -0.85159 -3.51326 0
M  V30 3122 O 302.304 -2.22157 -3.77595 0
M  V30 3123 C 303.805 -0.529831 -4.40122 0
M  V30 3124 H 301.025 -0.230593 -0.630133 0
M  V30 3125 H 303.569 -1.268 -1.60443 0
M  V30 3126 H 301.724 -0.243151 -3.86636 0
M  V30 3127 H 302.138 -2.2852 -4.721 0
M  V30 3128 H 303.612 -0.747348 -5.46917 0
M  V30 3129 H 304.089 0.535341 -4.35925 0
M  V30 3130 H 304.695 -1.11721 -4.10364 0
M  V30 3131 N 303.011 1.40521 -0.713556 0
M  V30 3132 C 304.288 1.94775 -0.17943 0
M  V30 3133 C 304.668 1.65184 1.31444 0
M  V30 3134 O 304.016 0.968429 2.06963 0
M  V30 3135 C 304.226 3.45543 -0.489986 0
M  V30 3136 C 305.574 4.22442 -0.427536 0
M  V30 3137 O 306.598 3.53644 -0.425929 0
M  V30 3138 O 305.457 5.4501 -0.403292 0
M  V30 3139 H 302.551 0.826606 -0.0255192 0
M  V30 3140 H 305.097 1.5014 -0.790949 0
M  V30 3141 H 303.869 3.60432 -1.5233 0
M  V30 3142 H 303.492 3.97311 0.151598 0
M  V30 3143 N 304.489 0.459591 1.5075 0
M  V30 3144 C 305.735 -0.0994966 2.02556 0
M  V30 3145 C 306.068 -1.40399 1.3417 0
M  V30 3146 O 305.343 -1.88892 0.463683 0
M  V30 3147 C 305.626 -0.295242 3.58888 0
M  V30 3148 C 305.479 1.02947 4.37861 0
M  V30 3149 C 306.798 -1.05502 4.27267 0
M  V30 3150 H 303.917 -0.034686 0.736183 0
M  V30 3151 H 306.559 0.602938 1.8018 0
M  V30 3152 H 304.709 -0.893563 3.78084 0
M  V30 3153 H 306.381 1.66348 4.30263 0
M  V30 3154 H 304.624 1.62885 4.02058 0
M  V30 3155 H 305.295 0.846281 5.45474 0
M  V30 3156 H 307.771 -0.547993 4.12476 0
M  V30 3157 H 306.647 -1.16077 5.36486 0
M  V30 3158 H 306.908 -2.08875 3.89645 0
M  V30 3159 N 305.967 -1.56429 0.191757 0
M  V30 3160 C 306.93 -2.17707 -0.716688 0
M  V30 3161 C 307.93 -1.13061 -1.14341 0
M  V30 3162 O 309.12 -1.38464 -1.05704 0
M  V30 3163 C 306.252 -2.77644 -1.97804 0
M  V30 3164 H 307.445 -2.99342 -0.1829 0
M  V30 3165 H 304.998 -1.56193 -0.0578566 0
M  V30 3166 H 305.733 -1.99799 -2.55443 0
M  V30 3167 H 305.518 -3.54246 -1.68083 0
M  V30 3168 H 307.008 -3.24708 -2.62592 0
M  V30 3169 N 307.445 0.0818655 -1.57387 0
M  V30 3170 C 308.67 0.799946 -1.91352 0
M  V30 3171 C 309.095 1.70833 -0.787258 0
M  V30 3172 O 308.453 1.79419 0.26048 0
M  V30 3173 C 308.501 1.57812 -3.24234 0
M  V30 3174 O 307.605 2.68806 -3.12757 0
M  V30 3175 H 306.946 0.21891 -0.626877 0
M  V30 3176 H 309.476 0.0531256 -2.04531 0
M  V30 3177 H 309.486 1.95952 -3.57864 0
M  V30 3178 H 308.161 0.911548 -4.05788 0
M  V30 3179 H 306.738 2.33597 -2.90666 0
M  V30 3180 N 308.923 1.53595 0.353017 0
M  V30 3181 C 310.339 1.43648 0.695516 0
M  V30 3182 C 310.539 0.585617 1.92802 0
M  V30 3183 O 309.595 0.0729223 2.52395 0
M  V30 3184 C 310.908 2.8701 0.896991 0
M  V30 3185 C 312.456 2.96723 0.996209 0
M  V30 3186 C 312.931 4.41173 1.23007 0
M  V30 3187 N 314.422 4.44657 1.29749 0
M  V30 3188 C 315.157 5.53547 1.49577 0
M  V30 3189 N 314.653 6.72461 1.66639 0
M  V30 3190 N 316.446 5.41145 1.52048 0
M  V30 3191 H 308.597 2.07415 -0.457481 0
M  V30 3192 H 310.86 0.9372 -0.142687 0
M  V30 3193 H 310.566 3.51644 0.0629938 0
M  V30 3194 H 310.44 3.31401 1.80148 0
M  V30 3195 H 312.827 2.32235 1.82074 0
M  V30 3196 H 312.908 2.55707 0.0688331 0
M  V30 3197 H 312.552 5.06238 0.410505 0
M  V30 3198 H 312.482 4.79772 2.17086 0
M  V30 3199 H 314.973 3.58963 1.18126 0
M  V30 3200 H 315.286 7.51214 1.81378 0
M  V30 3201 H 313.631 6.75423 1.63794 0
M  V30 3202 H 316.822 4.47205 1.38294 0
M  V30 3203 H 316.995 6.26068 1.67159 0
M  V30 3204 N 310.401 -0.613514 1.45168 0
M  V30 3205 C 311.349 -1.74572 1.53712 0
M  V30 3206 C 312.343 -1.64426 0.407505 0
M  V30 3207 O 313.549 -1.70291 0.583176 0
M  V30 3208 H 309.924 -0.576641 0.48269 0
M  V30 3209 H 311.895 -1.64492 2.48968 0
M  V30 3210 C 310.644 -3.12943 1.51532 0
M  V30 3211 H 309.967 -3.21407 2.37776 0
M  V30 3212 H 311.407 -3.9201 1.61569 0
M  V30 3213 C 309.866 -3.36053 0.238798 0
M  V30 3214 O 310.396 -3.95837 -0.6838 0
M  V30 3215 N 308.602 -2.9028 0.136359 0
M  V30 3216 H 308.149 -2.41811 0.887999 0
M  V30 3217 H 308.107 -3.06116 -0.716944 0
M  V30 3218 N 311.879 -1.3236 -0.855495 0
M  V30 3219 C 313.156 -1.13491 -1.59309 0
M  V30 3220 C 313.536 0.30503 -2.08885 0
M  V30 3221 O 312.884 1.30151 -1.87811 0
M  V30 3222 C 313.094 -2.16176 -2.73987 0
M  V30 3223 C 314.442 -2.49463 -3.43589 0
M  V30 3224 O 315.466 -2.14715 -2.84211 0
M  V30 3225 O 314.325 -3.09027 -4.50738 0
M  V30 3226 H 311.419 -0.437887 -0.701559 0
M  V30 3227 H 313.965 -1.43887 -0.899696 0
M  V30 3228 H 312.737 -3.1297 -2.34873 0
M  V30 3229 H 312.36 -1.86769 -3.51003 0
M  V30 3230 N 313.357 1.07166 -1.15556 0
M  V30 3231 C 314.768 1.6127 -0.940693 0
M  V30 3232 C 315.119 1.89251 0.517551 0
M  V30 3233 O 314.244 1.65937 1.38903 0
M  V30 3234 C 314.839 2.92993 -1.7012 0
M  V30 3235 C 313.398 3.43832 -1.53156 0
M  V30 3236 C 312.545 2.1786 -1.71558 0
M  V30 3237 H 315.496 0.90229 -1.30554 0
M  V30 3238 H 315.517 3.62007 -1.17181 0
M  V30 3239 H 315.029 2.72596 -2.76248 0
M  V30 3240 H 313.13 3.69307 -0.494294 0
M  V30 3241 H 313.243 4.19747 -2.30975 0
M  V30 3242 H 311.607 2.2765 -1.14225 0
M  V30 3243 H 312.39 1.99956 -2.79056 0
M  V30 3244 N 314.835 0.952656 1.25548 0
M  V30 3245 C 315.782 0.47008 2.25962 0
M  V30 3246 C 316.752 -0.476384 1.59122 0
M  V30 3247 O 317.937 -0.39007 1.8677 0
M  V30 3248 C 315.077 -0.247881 3.44209 0
M  V30 3249 C 314.19 0.735591 4.25691 0
M  V30 3250 C 313.325 -0.0047306 5.312 0
M  V30 3251 C 312.364 0.969805 6.04368 0
M  V30 3252 N 311.501 0.260486 7.01617 0
M  V30 3253 H 316.341 1.33126 2.66611 0
M  V30 3254 H 313.878 0.66765 1.31076 0
M  V30 3255 H 315.836 -0.680695 4.1161 0
M  V30 3256 H 314.466 -1.07312 3.0444 0
M  V30 3257 H 313.518 1.28689 3.57971 0
M  V30 3258 H 314.83 1.47934 4.76358 0
M  V30 3259 H 313.984 -0.496275 6.04667 0
M  V30 3260 H 312.723 -0.781282 4.81401 0
M  V30 3261 H 311.728 1.47237 5.29718 0
M  V30 3262 H 312.953 1.74655 6.56256 0
M  V30 3263 H 310.899 -0.497364 6.54112 0
M  V30 3264 H 310.816 0.943362 7.50091 0
M  V30 3265 H 312.084 -0.209587 7.79218 0
M  V30 3266 N 316.313 -1.40141 0.720998 0
M  V30 3267 C 317.543 -2.04798 0.27226 0
M  V30 3268 C 317.951 -1.54442 -1.09289 0
M  V30 3269 O 317.294 -0.698342 -1.69908 0
M  V30 3270 C 317.356 -3.59048 0.18027 0
M  V30 3271 C 317.02 -4.32317 1.48159 0
M  V30 3272 C 318.017 -4.59902 2.42458 0
M  V30 3273 C 315.702 -4.71125 1.74202 0
M  V30 3274 C 317.696 -5.25288 3.61042 0
M  V30 3275 C 315.383 -5.36242 2.93066 0
M  V30 3276 C 316.381 -5.63254 3.86308 0
M  V30 3277 O 316.069 -6.27024 5.03086 0
M  V30 3278 H 315.801 -0.665419 0.119139 0
M  V30 3279 H 318.355 -1.80436 0.981432 0
M  V30 3280 H 316.585 -3.82251 -0.58489 0
M  V30 3281 H 318.274 -4.05221 -0.234618 0
M  V30 3282 H 319.04 -4.30379 2.23604 0
M  V30 3283 H 314.919 -4.49466 1.02477 0
M  V30 3284 H 318.463 -5.46289 4.33837 0
M  V30 3285 H 314.36 -5.65185 3.11826 0
M  V30 3286 H 315.128 -6.4552 5.03235 0
M  V30 3287 N 317.792 -0.46758 -1.50504 0
M  V30 3288 C 319.038 0.0887532 -2.02606 0
M  V30 3289 C 319.371 1.39686 -1.34913 0
M  V30 3290 O 318.646 1.88644 -0.473694 0
M  V30 3291 C 318.929 0.276206 -3.59039 0
M  V30 3292 C 318.782 -1.05267 -4.37309 0
M  V30 3293 C 320.101 1.03235 -4.27821 0
M  V30 3294 H 317.22 0.0307814 -0.736357 0
M  V30 3295 H 319.862 -0.612485 -1.79857 0
M  V30 3296 H 318.012 0.8735 -3.78553 0
M  V30 3297 H 319.684 -1.68628 -4.29374 0
M  V30 3298 H 317.927 -1.65015 -4.01189 0
M  V30 3299 H 318.598 -0.875197 -5.45018 0
M  V30 3300 H 321.074 0.526111 -4.12761 0
M  V30 3301 H 319.95 1.1323 -5.37094 0
M  V30 3302 H 320.211 2.06806 -3.90748 0
M  V30 3303 N 319.27 1.56325 -0.20005 0
M  V30 3304 C 320.518 1.97329 0.436547 0
M  V30 3305 C 320.839 1.08826 1.61808 0
M  V30 3306 O 320.109 0.160604 1.95241 0
M  V30 3307 H 318.689 0.728714 0.164272 0
M  V30 3308 H 321.351 1.92761 -0.287937 0
M  V30 3309 H 320.447 3.02264 0.777353 0
M  V30 3310 N 320.748 -0.0735177 1.57428 0
M  V30 3311 C 322.164 -0.428264 1.53747 0
M  V30 3312 C 322.364 -1.79272 0.91998 0
M  V30 3313 O 321.42 -2.47051 0.521745 0
M  V30 3314 C 322.733 -0.370914 2.98404 0
M  V30 3315 C 324.281 -0.451224 3.0973 0
M  V30 3316 C 324.756 -0.4238 4.56035 0
M  V30 3317 N 326.247 -0.483925 4.60665 0
M  V30 3318 C 326.982 -0.484891 5.71346 0
M  V30 3319 N 326.478 -0.440775 6.91396 0
M  V30 3320 N 328.271 -0.531319 5.59583 0
M  V30 3321 H 320.422 0.819949 1.95935 0
M  V30 3322 H 322.685 0.307493 0.896745 0
M  V30 3323 H 322.391 0.564956 3.47133 0
M  V30 3324 H 322.265 -1.18176 3.5821 0
M  V30 3325 H 324.652 -1.37752 2.60976 0
M  V30 3326 H 324.733 0.388167 2.52838 0
M  V30 3327 H 324.377 0.498638 5.05446 0
M  V30 3328 H 324.307 -1.2807 5.10789 0
M  V30 3329 H 326.798 -0.522338 3.74273 0
M  V30 3330 H 327.111 -0.44539 7.71515 0
M  V30 3331 H 325.456 -0.40749 6.93804 0
M  V30 3332 H 328.647 -0.563464 4.64696 0
M  V30 3333 H 328.82 -0.528603 6.4584 0
M  V30 3334 N 322.226 -1.5378 -0.344866 0
M  V30 3335 C 323.472 -1.71216 -1.08687 0
M  V30 3336 C 323.805 -0.473281 -1.88345 0
M  V30 3337 O 323.08 0.52968 -1.87149 0
M  V30 3338 C 323.363 -2.97486 -2.02914 0
M  V30 3339 C 323.216 -4.31579 -1.26727 0
M  V30 3340 C 324.535 -3.19422 -3.0275 0
M  V30 3341 H 321.654 -0.62301 -0.393735 0
M  V30 3342 H 324.296 -1.8645 -0.365563 0
M  V30 3343 H 322.446 -2.84629 -2.64421 0
M  V30 3344 H 324.118 -4.56284 -0.67845 0
M  V30 3345 H 322.361 -4.30049 -0.569273 0
M  V30 3346 H 323.032 -5.16106 -1.95803 0
M  V30 3347 H 325.508 -3.316 -2.51357 0
M  V30 3348 H 324.384 -4.09169 -3.65885 0
M  V30 3349 H 324.645 -2.35656 -3.74057 0
M  V30 3350 N 323.704 0.605807 -1.45491 0
M  V30 3351 C 324.634 1.72709 -1.57143 0
M  V30 3352 C 325.615 1.6476 -0.422884 0
M  V30 3353 O 326.8 1.83132 -0.646247 0
M  V30 3354 C 323.93 3.11316 -1.53948 0
M  V30 3355 C 322.884 3.34077 -2.67537 0
M  V30 3356 C 322.21 4.72975 -2.49397 0
M  V30 3357 C 323.51 3.24158 -4.09535 0
M  V30 3358 H 325.204 1.63214 -2.51001 0
M  V30 3359 H 322.75 0.78379 -1.208 0
M  V30 3360 H 324.703 3.89557 -1.60696 0
M  V30 3361 H 323.427 3.21655 -0.566205 0
M  V30 3362 H 322.086 2.58227 -2.6022 0
M  V30 3363 H 321.734 4.8005 -1.50205 0
M  V30 3364 H 321.434 4.8916 -3.25571 0
M  V30 3365 H 322.958 5.53414 -2.58002 0
M  V30 3366 H 324.372 3.92271 -4.18086 0
M  V30 3367 H 322.769 3.51872 -4.86113 0
M  V30 3368 H 323.839 2.2157 -4.31317 0
M  V30 3369 N 325.182 1.32811 0.848464 0
M  V30 3370 C 326.407 1.26882 1.6406 0
M  V30 3371 C 326.832 -0.15913 1.87426 0
M  V30 3372 O 326.19 -1.11258 1.43148 0
M  V30 3373 C 326.238 2.03997 2.97351 0
M  V30 3374 O 325.342 1.39201 3.88197 0
M  V30 3375 H 324.683 0.436982 0.499943 0
M  V30 3376 H 327.213 1.75224 1.0563 0
M  V30 3377 H 327.223 2.14403 3.47124 0
M  V30 3378 H 325.898 3.0783 2.79666 0
M  V30 3379 H 324.475 1.37381 3.46671 0
M  V30 3380 N 326.66 -1.06551 1.16123 0
M  V30 3381 C 327.623 -2.12132 0.867906 0
M  V30 3382 C 328.623 -1.60224 -0.135944 0
M  V30 3383 O 329.813 -1.73943 0.0946422 0
M  V30 3384 C 326.945 -3.396 0.297419 0
M  V30 3385 H 328.138 -2.39586 1.80385 0
M  V30 3386 H 325.691 -1.22574 0.969812 0
M  V30 3387 H 326.426 -3.17794 -0.64633 0
M  V30 3388 H 326.211 -3.78581 1.02073 0
M  V30 3389 H 327.701 -4.17455 0.110052 0
M  V30 3390 N 328.138 -0.959301 -1.25041 0
M  V30 3391 C 329.071 -0.427418 -2.24161 0
M  V30 3392 C 330.049 0.493837 -1.54919 0
M  V30 3393 O 331.233 0.427144 -1.83597 0
M  V30 3394 C 328.36 0.383893 -3.36517 0
M  V30 3395 C 327.406 -0.478431 -4.23808 0
M  V30 3396 S 328.239 -1.91353 -5.00144 0
M  V30 3397 C 329.395 -1.11077 -6.15965 0
M  V30 3398 H 329.628 -1.26743 -2.6893 0
M  V30 3399 H 327.161 -0.763714 -1.34189 0
M  V30 3400 H 329.119 0.846039 -4.01687 0
M  V30 3401 H 327.78 1.19878 -2.90324 0
M  V30 3402 H 326.973 0.14406 -5.03794 0
M  V30 3403 H 326.575 -0.87597 -3.63597 0
M  V30 3404 H 328.867 -0.361699 -6.76534 0
M  V30 3405 H 329.81 -1.88472 -6.82557 0
M  V30 3406 H 330.218 -0.638843 -5.60873 0
M  V30 3407 N 329.616 1.39756 -0.72842 0
M  V30 3408 C 330.865 1.99879 -0.270407 0
M  V30 3409 C 331.178 1.58449 1.14688 0
M  V30 3410 O 332.384 2.11362 1.70407 0
M  V30 3411 C 330.84 3.57292 -0.43252 0
M  V30 3412 C 330.448 4.07688 -1.85727 0
M  V30 3413 C 332.192 4.24485 -0.0359507 0
M  V30 3414 C 330.099 5.5765 -1.96928 0
M  V30 3415 H 329.029 0.747689 -0.0973472 0
M  V30 3416 H 331.68 1.59837 -0.901355 0
M  V30 3417 H 330.062 3.95097 0.267219 0
M  V30 3418 H 331.236 3.81231 -2.58843 0
M  V30 3419 H 329.551 3.53135 -2.20646 0
M  V30 3420 H 332.148 5.34609 -0.0987484 0
M  V30 3421 H 332.491 4.03915 1.00787 0
M  V30 3422 H 333.024 3.9183 -0.686604 0
M  V30 3423 H 329.763 5.8309 -2.99476 0
M  V30 3424 H 329.283 5.8593 -1.28241 0
M  V30 3425 H 330.962 6.22957 -1.74737 0
M  V30 3426 N 331.094 0.475555 1.50254 0
M  V30 3427 C 332.042 -0.330276 2.30243 0
M  V30 3428 C 333.036 -0.986306 1.37726 0
M  V30 3429 O 334.242 -0.9169 1.54897 0
M  V30 3430 H 330.617 -0.125353 0.741479 0
M  V30 3431 H 332.588 0.364702 2.96163 0
M  V30 3432 C 331.337 -1.39704 3.18399 0
M  V30 3433 H 330.66 -0.901621 3.89501 0
M  V30 3434 H 332.1 -1.93336 3.77355 0
M  V30 3435 C 330.559 -2.4014 2.36293 0
M  V30 3436 O 331.089 -3.45504 2.04914 0
M  V30 3437 N 329.295 -2.1197 1.98789 0
M  V30 3438 H 328.842 -1.2631 2.24507 0
M  V30 3439 H 328.8 -2.79403 1.44157 0
M  V30 3440 N 332.573 -1.56217 0.208337 0
M  V30 3441 C 333.798 -2.02782 -0.435222 0
M  V30 3442 C 334.223 -1.08738 -1.53485 0
M  V30 3443 O 333.581 -0.0731855 -1.81152 0
M  V30 3444 C 333.629 -3.47687 -0.956335 0
M  V30 3445 O 332.733 -3.56773 -2.06849 0
M  V30 3446 H 332.074 -0.656403 -0.100158 0
M  V30 3447 H 334.604 -2.02033 0.3231 0
M  V30 3448 H 334.614 -3.87745 -1.26955 0
M  V30 3449 H 333.289 -4.15624 -0.15143 0
M  V30 3450 H 331.866 -3.28597 -1.76292 0
M  V30 3451 N 334.051 0.0651679 -1.57465 0
M  V30 3452 C 334.999 1.09542 -2.05191 0
M  V30 3453 C 335.993 1.39675 -0.958509 0
M  V30 3454 O 337.199 1.39003 -1.14359 0
M  V30 3455 H 333.574 0.370623 -0.654326 0
M  V30 3456 H 335.545 0.666802 -2.90854 0
M  V30 3457 C 334.294 2.39881 -2.51699 0
M  V30 3458 H 333.617 2.17547 -3.3543 0
M  V30 3459 H 335.057 3.104 -2.88839 0
M  V30 3460 C 333.516 3.0631 -1.40271 0
M  V30 3461 O 334.046 3.94664 -0.748523 0
M  V30 3462 N 332.252 2.67041 -1.14618 0
M  V30 3463 H 331.799 1.95281 -1.67997 0
M  V30 3464 H 331.757 3.1181 -0.402688 0
M  V30 3465 N 335.529 1.53961 0.336706 0
M  V30 3466 C 336.806 1.62171 1.09361 0
M  V30 3467 C 337.186 0.447263 2.06307 0
M  V30 3468 O 336.534 -0.559802 2.21537 0
M  V30 3469 C 336.744 2.98565 1.80721 0
M  V30 3470 C 338.092 3.54157 2.34218 0
M  V30 3471 O 339.116 3.00784 1.90807 0
M  V30 3472 O 337.975 4.47528 3.13657 0
M  V30 3473 H 335.069 0.6562 0.503319 0
M  V30 3474 H 337.615 1.66307 0.33765 0
M  V30 3475 H 336.387 3.75482 1.10132 0
M  V30 3476 H 336.01 2.9805 2.63158 0
M  V30 3477 N 337.007 -0.598083 1.45811 0
M  V30 3478 C 338.284 -1.35777 1.40797 0
M  V30 3479 C 338.664 -2.10935 0.083462 0
M  V30 3480 O 338.012 -2.08505 -0.934763 0
M  V30 3481 C 338.222 -2.29666 2.62783 0
M  V30 3482 C 339.57 -2.91977 3.08277 0
M  V30 3483 O 340.594 -2.39984 2.63223 0
M  V30 3484 O 339.453 -3.86376 3.86491 0
M  V30 3485 H 336.547 -0.609291 0.55919 0
M  V30 3486 H 339.093 -0.620379 1.57954 0
M  V30 3487 H 337.865 -1.73454 3.50756 0
M  V30 3488 H 337.488 -3.1077 2.48008 0
M  V30 3489 N 338.485 -1.33259 -0.841409 0
M  V30 3490 C 339.433 -1.23279 -1.97244 0
M  V30 3491 C 340.427 -0.134706 -1.68864 0
M  V30 3492 O 341.633 -0.298501 -1.77508 0
M  V30 3493 H 338.008 -0.382497 -0.647457 0
M  V30 3494 H 339.979 -2.18906 -2.02787 0
M  V30 3495 C 338.728 -0.986268 -3.33419 0
M  V30 3496 H 338.051 -1.82347 -3.55794 0
M  V30 3497 H 339.491 -0.956728 -4.13065 0
M  V30 3498 C 337.95 0.310842 -3.35463 0
M  V30 3499 O 338.48 1.31838 -3.79449 0
M  V30 3500 N 336.686 0.337485 -2.88634 0
M  V30 3501 H 336.233 -0.482967 -2.53032 0
M  V30 3502 H 336.191 1.20518 -2.90384 0
M  V30 3503 N 339.963 1.05934 -1.16686 0
M  V30 3504 C 341.211 1.78447 -0.948744 0
M  V30 3505 C 341.532 1.87813 0.524523 0
M  V30 3506 O 340.802 1.38945 1.38098 0
M  V30 3507 H 339.382 0.660971 -0.348033 0
M  V30 3508 H 342.044 1.27947 -1.47022 0
M  V30 3509 H 341.14 2.80394 -1.37061 0
M  V30 3510 N 341.441 0.965919 1.2453 0
M  V30 3511 C 342.687 0.62776 1.92839 0
M  V30 3512 C 343.02 -0.834694 1.75347 0
M  V30 3513 O 342.295 -1.60031 1.10546 0
M  V30 3514 C 342.578 1.00109 3.45905 0
M  V30 3515 C 342.431 2.52011 3.72573 0
M  V30 3516 C 343.75 0.53435 4.36844 0
M  V30 3517 H 340.869 0.229537 0.700344 0
M  V30 3518 H 343.511 1.2046 1.46933 0
M  V30 3519 H 341.661 0.510238 3.85135 0
M  V30 3520 H 343.333 3.08559 3.42912 0
M  V30 3521 H 341.576 2.95287 3.17786 0
M  V30 3522 H 342.247 2.73183 4.79661 0
M  V30 3523 H 344.723 0.955565 4.04979 0
M  V30 3524 H 343.599 0.824152 5.42678 0
M  V30 3525 H 343.86 -0.565589 4.38467 0
M  V30 3526 N 342.919 -1.39368 0.735821 0
M  V30 3527 C 343.849 -2.33234 0.111506 0
M  V30 3528 C 344.83 -1.53954 -0.723334 0
M  V30 3529 O 346.015 -1.82344 -0.668147 0
M  V30 3530 C 343.145 -3.38057 -0.795917 0
M  V30 3531 C 342.099 -4.2795 -0.065172 0
M  V30 3532 C 341.425 -5.23479 -1.08967 0
M  V30 3533 C 342.725 -5.10741 1.09273 0
M  V30 3534 H 344.419 -2.85692 0.895571 0
M  V30 3535 H 341.965 -1.37364 0.432109 0
M  V30 3536 H 343.918 -4.02675 -1.24221 0
M  V30 3537 H 342.642 -2.8404 -1.61211 0
M  V30 3538 H 341.301 -3.64813 0.361511 0
M  V30 3539 H 340.949 -4.65758 -1.89944 0
M  V30 3540 H 340.649 -5.84472 -0.605489 0
M  V30 3541 H 342.173 -5.90974 -1.53565 0
M  V30 3542 H 343.587 -5.68699 0.724841 0
M  V30 3543 H 341.984 -5.8088 1.50659 0
M  V30 3544 H 343.054 -4.45525 1.91404 0
M  V30 3545 N 344.397 -0.483516 -1.5 0
M  V30 3546 C 345.36 0.292965 -2.2732 0
M  V30 3547 C 346.36 0.909499 -1.32608 0
M  V30 3548 O 347.55 0.776745 -1.55924 0
M  V30 3549 C 344.682 1.41854 -3.09984 0
M  V30 3550 H 345.875 -0.385289 -2.97415 0
M  V30 3551 H 343.428 -0.237942 -1.54478 0
M  V30 3552 H 344.163 2.13148 -2.44414 0
M  V30 3553 H 343.948 0.982114 -3.79601 0
M  V30 3554 H 345.438 1.96597 -3.68429 0
M  V30 3555 N 345.875 1.56104 -0.216619 0
M  V30 3556 C 347.123 1.97781 0.415593 0
M  V30 3557 C 347.444 1.10536 1.60645 0
M  V30 3558 O 346.714 0.181303 1.95059 0
M  V30 3559 H 345.294 0.730415 0.156534 0
M  V30 3560 H 347.956 1.92445 -0.308366 0
M  V30 3561 H 347.052 3.03072 0.74525 0
M  V30 3562 N 347.353 -0.0568162 1.57498 0
M  V30 3563 C 348.301 -1.08452 2.05769 0
M  V30 3564 C 349.295 -1.39164 0.965903 0
M  V30 3565 O 350.501 -1.38395 1.15095 0
M  V30 3566 H 346.876 -0.367148 0.656282 0
M  V30 3567 H 348.847 -0.651368 2.91204 0
M  V30 3568 C 347.596 -2.38543 2.52968 0
M  V30 3569 H 346.919 -2.15765 3.36579 0
M  V30 3570 H 348.359 -3.08863 2.90481 0
M  V30 3571 C 346.818 -3.05562 1.41893 0
M  V30 3572 O 347.348 -3.94262 0.769442 0
M  V30 3573 N 345.554 -2.6643 1.16032 0
M  V30 3574 H 345.101 -1.94387 1.6903 0
M  V30 3575 H 345.059 -3.11593 0.419219 0
M  V30 3576 N 348.832 -1.54138 -0.328536 0
M  V30 3577 C 350.078 -1.73297 -1.06488 0
M  V30 3578 C 350.433 -0.497958 -1.85844 0
M  V30 3579 O 349.726 0.509591 -1.84699 0
M  V30 3580 C 349.92 -2.9457 -2.02393 0
M  V30 3581 C 349.749 -4.29747 -1.32467 0
M  V30 3582 C 348.519 -4.93987 -1.06324 0
M  V30 3583 C 350.717 -5.08903 -0.743137 0
M  V30 3584 N 348.699 -6.13005 -0.331359 0
M  V30 3585 C 350.07 -6.19836 -0.142602 0
M  V30 3586 C 352.125 -4.93699 -0.64546 0
M  V30 3587 C 350.828 -7.17224 0.546125 0
M  V30 3588 C 352.854 -5.91393 0.0295558 0
M  V30 3589 C 352.216 -7.01674 0.619056 0
M  V30 3590 H 348.315 -0.687017 -0.373539 0
M  V30 3591 H 350.899 -1.91589 -0.346659 0
M  V30 3592 H 349.07 -2.77752 -2.71493 0
M  V30 3593 H 350.802 -3.0238 -2.68977 0
M  V30 3594 H 347.557 -4.53824 -1.35428 0
M  V30 3595 H 347.981 -6.76997 0.0202939 0
M  V30 3596 H 352.623 -4.08589 -1.08695 0
M  V30 3597 H 350.341 -8.01896 0.999459 0
M  V30 3598 H 353.927 -5.81706 0.104705 0
M  V30 3599 H 352.807 -7.75971 1.13309 0
M  V30 3600 N 350.31 0.590341 -1.46126 0
M  V30 3601 C 351.535 1.37991 -1.54833 0
M  V30 3602 C 351.96 1.87163 -0.187506 0
M  V30 3603 O 351.318 1.61133 0.831008 0
M  V30 3604 C 351.366 2.54867 -2.55098 0
M  V30 3605 O 350.47 3.56061 -2.08073 0
M  V30 3606 H 349.811 0.411265 -0.521303 0
M  V30 3607 H 352.341 0.716819 -1.91632 0
M  V30 3608 H 352.351 3.01886 -2.74461 0
M  V30 3609 H 351.026 2.18429 -3.53923 0
M  V30 3610 H 349.603 3.15574 -1.98664 0
M  V30 3611 N 351.788 1.33704 0.83433 0
M  V30 3612 C 353.036 1.25169 1.58673 0
M  V30 3613 C 353.357 -0.18127 1.94156 0
M  V30 3614 O 352.627 -1.11113 1.6134 0
M  V30 3615 H 351.207 0.4603 0.58833 0
M  V30 3616 H 353.869 1.67478 0.996847 0
M  V30 3617 H 352.965 1.84856 2.51465 0
M  V30 3618 N 353.266 -1.05314 1.17247 0
M  V30 3619 C 354.494 -1.81971 0.984593 0
M  V30 3620 C 354.909 -1.82929 -0.467166 0
M  V30 3621 O 354.266 -1.25564 -1.32438 0
M  V30 3622 C 354.317 -3.28143 1.51672 0
M  V30 3623 O 354.038 -3.27347 2.91163 0
M  V30 3624 C 355.539 -4.21493 1.37326 0
M  V30 3625 H 352.759 -0.573455 0.348411 0
M  V30 3626 H 355.303 -1.32808 1.55506 0
M  V30 3627 H 353.458 -3.74582 0.988302 0
M  V30 3628 H 353.872 -4.18824 3.15732 0
M  V30 3629 H 355.346 -5.22043 1.79375 0
M  V30 3630 H 355.823 -4.38031 0.320169 0
M  V30 3631 H 356.429 -3.80909 1.89178 0
M  V30 3632 N 354.744 -0.972509 -1.24016 0
M  V30 3633 C 355.974 -0.653853 -1.9598 0
M  V30 3634 C 356.382 0.781801 -1.72292 0
M  V30 3635 O 355.725 1.53677 -1.00644 0
M  V30 3636 C 355.787 -0.854608 -3.49194 0
M  V30 3637 C 355.451 -2.27082 -3.96589 0
M  V30 3638 C 356.448 -3.24892 -4.05883 0
M  V30 3639 C 354.133 -2.5998 -4.29786 0
M  V30 3640 C 356.127 -4.53684 -4.47716 0
M  V30 3641 C 353.814 -3.88997 -4.71301 0
M  V30 3642 C 354.812 -4.85661 -4.80232 0
M  V30 3643 O 354.5 -6.12376 -5.20818 0
M  V30 3644 H 354.232 -0.242572 -0.630979 0
M  V30 3645 H 356.786 -1.30431 -1.58673 0
M  V30 3646 H 355.016 -0.146985 -3.86421 0
M  V30 3647 H 356.705 -0.534311 -4.02368 0
M  V30 3648 H 357.471 -3.00805 -3.80449 0
M  V30 3649 H 353.35 -1.85457 -4.22051 0
M  V30 3650 H 356.894 -5.29135 -4.54601 0
M  V30 3651 H 352.791 -4.12882 -4.96184 0
M  V30 3652 H 353.559 -6.16013 -5.38953 0
M  V30 3653 N 356.222 1.38976 -0.743202 0
M  V30 3654 C 357.45 2.04636 -0.30525 0
M  V30 3655 C 357.865 1.56044 1.06281 0
M  V30 3656 O 357.222 0.728921 1.67311 0
M  V30 3657 C 357.273 3.60193 -0.307177 0
M  V30 3658 O 356.994 4.06998 -1.62124 0
M  V30 3659 C 358.495 4.4306 0.145928 0
M  V30 3660 H 355.715 0.65788 -0.132041 0
M  V30 3661 H 358.259 1.77866 -1.00915 0
M  V30 3662 H 356.414 3.85835 0.347898 0
M  V30 3663 H 356.828 5.01371 -1.54036 0
M  V30 3664 H 358.302 5.51921 0.0934183 0
M  V30 3665 H 358.779 4.22706 1.19231 0
M  V30 3666 H 359.385 4.22584 -0.479886 0
M  V30 3667 N 357.7 0.491464 1.49741 0
M  V30 3668 C 358.948 -0.0563141 2.02022 0
M  V30 3669 C 359.269 -1.38363 1.37407 0
M  V30 3670 O 358.539 -1.88702 0.526166 0
M  V30 3671 H 357.119 -0.0238014 0.746621 0
M  V30 3672 H 359.781 0.646533 1.83864 0
M  V30 3673 H 358.877 -0.192967 3.11503 0
M  V30 3674 N 359.178 -1.55987 0.224894 0
M  V30 3675 C 360.426 -1.97998 -0.405099 0
M  V30 3676 C 360.747 -1.11387 -1.60056 0
M  V30 3677 O 360.017 -0.191645 -1.9496 0
M  V30 3678 H 358.597 -0.731235 -0.152658 0
M  V30 3679 H 361.259 -1.92279 0.318567 0
M  V30 3680 H 360.355 -3.03463 -0.729167 0
M  V30 3681 N 360.656 0.0484629 -1.57525 0
M  V30 3682 C 362.072 0.40375 -1.54409 0
M  V30 3683 C 362.272 1.77786 -0.948384 0
M  V30 3684 O 361.328 2.46189 -0.560983 0
M  V30 3685 C 362.641 0.323394 -2.98956 0
M  V30 3686 C 364.189 0.401892 -3.10409 0
M  V30 3687 C 364.664 0.351195 -4.56652 0
M  V30 3688 N 366.155 0.410576 -4.61377 0
M  V30 3689 C 366.89 0.393933 -5.72045 0
M  V30 3690 N 366.386 0.330724 -6.9201 0
M  V30 3691 N 368.179 0.442227 -5.60358 0
M  V30 3692 H 360.33 -0.851016 -1.94606 0
M  V30 3693 H 362.593 -0.321721 -0.89174 0
M  V30 3694 H 362.299 -0.62011 -3.4619 0
M  V30 3695 H 362.173 1.12463 -3.60044 0
M  V30 3696 H 364.56 1.33582 -2.63134 0
M  V30 3697 H 364.641 -0.428342 -2.52188 0
M  V30 3698 H 364.285 -0.578987 -5.04589 0
M  V30 3699 H 364.215 1.19928 -5.12762 0
M  V30 3700 H 366.706 0.462729 -3.75056 0
M  V30 3701 H 367.019 0.322592 -7.72126 0
M  V30 3702 H 365.364 0.29706 -6.94365 0
M  V30 3703 H 368.555 0.489464 -4.65534 0
M  V30 3704 H 368.728 0.425788 -6.466 0
M  V30 3705 N 362.134 1.5431 0.320358 0
M  V30 3706 C 363.411 1.63322 1.07635 0
M  V30 3707 C 363.791 0.46912 2.05821 0
M  V30 3708 O 363.139 -0.536274 2.22118 0
M  V30 3709 C 363.349 3.00465 1.77544 0
M  V30 3710 C 364.697 3.56621 2.30449 0
M  V30 3711 O 365.721 3.02791 1.87606 0
M  V30 3712 O 364.58 4.5083 3.08892 0
M  V30 3713 H 361.674 0.661502 0.496331 0
M  V30 3714 H 364.22 1.66656 0.319992 0
M  V30 3715 H 362.992 3.76629 1.06143 0
M  V30 3716 H 362.615 3.00824 2.59982 0
M  V30 3717 N 363.613 -0.582584 1.46437 0
M  V30 3718 C 365.024 -1.1647 1.45916 0
M  V30 3719 C 365.375 -1.95177 0.200077 0
M  V30 3720 O 364.5 -2.04874 -0.696819 0
M  V30 3721 C 365.095 -2.11885 2.64367 0
M  V30 3722 C 363.654 -2.65421 2.66887 0
M  V30 3723 C 362.801 -1.41294 2.38603 0
M  V30 3724 H 365.752 -0.370514 1.54314 0
M  V30 3725 H 365.773 -2.9535 2.39892 0
M  V30 3726 H 365.285 -1.54573 3.5599 0
M  V30 3727 H 363.386 -3.26602 1.79338 0
M  V30 3728 H 363.499 -3.08147 3.66854 0
M  V30 3729 H 361.863 -1.71109 1.88663 0
M  V30 3730 H 362.646 -0.858125 3.32402 0
M  V30 3731 N 365.091 -1.34144 -0.827227 0
M  V30 3732 C 366.507 -1.13732 -1.11969 0
M  V30 3733 C 366.707 0.0640463 -2.01398 0
M  V30 3734 O 365.763 0.740856 -2.41387 0
M  V30 3735 C 367.076 -2.43047 -1.77055 0
M  V30 3736 C 368.624 -2.49063 -1.89569 0
M  V30 3737 C 369.099 -3.78369 -2.58072 0
M  V30 3738 N 370.59 -3.79505 -2.65575 0
M  V30 3739 C 371.325 -4.76274 -3.19297 0
M  V30 3740 N 370.821 -5.83424 -3.73616 0
M  V30 3741 N 372.614 -4.63735 -3.17658 0
M  V30 3742 H 364.765 -2.11126 -0.232296 0
M  V30 3743 H 367.028 -0.933424 -0.165602 0
M  V30 3744 H 366.734 -3.31025 -1.18807 0
M  V30 3745 H 366.608 -2.56066 -2.76966 0
M  V30 3746 H 368.995 -1.61527 -2.46968 0
M  V30 3747 H 369.076 -2.39975 -0.885745 0
M  V30 3748 H 368.72 -4.66293 -2.01329 0
M  V30 3749 H 368.65 -3.84737 -3.59562 0
M  V30 3750 H 371.141 -3.02074 -2.27068 0
M  V30 3751 H 371.454 -6.53282 -4.12846 0
M  V30 3752 H 369.799 -5.87143 -3.71871 0
M  V30 3753 H 372.99 -3.79177 -2.74486 0
M  V30 3754 H 373.163 -5.39318 -3.59221 0
M  V30 3755 N 366.569 1.04691 -1.17803 0
M  V30 3756 C 367.794 1.81984 -0.994813 0
M  V30 3757 C 368.219 1.82586 0.452112 0
M  V30 3758 O 367.577 1.23854 1.324 0
M  V30 3759 C 367.625 3.2575 -1.54659 0
M  V30 3760 O 366.729 4.05267 -0.763728 0
M  V30 3761 H 366.07 0.562483 -0.352857 0
M  V30 3762 H 368.6 1.3189 -1.56417 0
M  V30 3763 H 368.61 3.76541 -1.57102 0
M  V30 3764 H 367.285 3.24627 -2.59981 0
M  V30 3765 H 365.862 3.63972 -0.811108 0
M  V30 3766 N 368.047 0.979072 1.23499 0
M  V30 3767 C 369.293 0.6578 1.9247 0
M  V30 3768 C 369.648 -0.799746 1.74991 0
M  V30 3769 O 368.941 -1.56922 1.09937 0
M  V30 3770 C 369.135 0.981932 3.43646 0
M  V30 3771 C 368.964 2.46944 3.75831 0
M  V30 3772 C 367.734 3.13119 3.96591 0
M  V30 3773 C 369.932 3.45006 3.81412 0
M  V30 3774 N 367.914 4.51489 4.15969 0
M  V30 3775 C 369.285 4.68778 4.05768 0
M  V30 3776 C 371.34 3.39505 3.64198 0
M  V30 3777 C 370.043 5.87723 4.14697 0
M  V30 3778 C 372.069 4.57814 3.7438 0
M  V30 3779 C 371.431 5.80381 3.99171 0
M  V30 3780 H 367.53 0.291746 0.72554 0
M  V30 3781 H 370.114 1.25626 1.48749 0
M  V30 3782 H 368.285 0.412179 3.86207 0
M  V30 3783 H 370.017 0.618068 3.99953 0
M  V30 3784 H 366.772 2.63619 3.93449 0
M  V30 3785 H 367.196 5.23221 4.29615 0
M  V30 3786 H 371.838 2.45773 3.44029 0
M  V30 3787 H 369.556 6.81874 4.33675 0
M  V30 3788 H 373.142 4.55132 3.62417 0
M  V30 3789 H 372.022 6.70398 4.06861 0
M  V30 3790 N 369.525 -1.3858 0.750561 0
M  V30 3791 C 370.473 -2.32339 0.110162 0
M  V30 3792 C 371.467 -1.53864 -0.708674 0
M  V30 3793 O 372.673 -1.69417 -0.608112 0
M  V30 3794 H 369.048 -0.751812 0.0168275 0
M  V30 3795 H 371.019 -2.83959 0.917053 0
M  V30 3796 C 369.768 -3.39043 -0.771067 0
M  V30 3797 H 369.091 -3.99517 -0.150374 0
M  V30 3798 H 370.531 -4.07061 -1.1865 0
M  V30 3799 C 368.99 -2.77365 -1.91234 0
M  V30 3800 O 369.52 -2.66434 -3.00626 0
M  V30 3801 N 367.726 -2.35219 -1.70646 0
M  V30 3802 H 367.273 -2.4431 -0.81673 0
M  V30 3803 H 367.231 -1.94294 -2.47178 0
M  V30 3804 N 371.003 -0.499398 -1.49478 0
M  V30 3805 C 372.251 0.0455996 -2.02049 0
M  V30 3806 C 372.572 1.37633 -1.38138 0
M  V30 3807 O 371.842 1.8842 -0.536166 0
M  V30 3808 H 370.422 0.0198416 -0.746736 0
M  V30 3809 H 373.084 -0.656274 -1.83519 0
M  V30 3810 H 372.18 0.176445 -3.11601 0
M  V30 3811 N 372.481 1.55866 -0.233164 0
M  V30 3812 C 373.706 2.03449 0.402906 0
M  V30 3813 C 374.131 1.11166 1.51736 0
M  V30 3814 O 373.489 0.101996 1.81013 0
M  V30 3815 C 373.537 3.49165 0.9009 0
M  V30 3816 O 372.641 3.60019 2.01147 0
M  V30 3817 H 371.982 0.657913 0.0897025 0
M  V30 3818 H 374.512 2.01493 -0.355201 0
M  V30 3819 H 374.522 3.89716 1.2077 0
M  V30 3820 H 373.197 4.15813 0.0852889 0
M  V30 3821 H 371.774 3.3136 1.71042 0
M  V30 3822 N 373.959 -0.0401083 1.57549 0
M  V30 3823 C 375.205 -0.734211 1.89043 0
M  V30 3824 C 375.538 -1.75591 0.829535 0
M  V30 3825 O 374.813 -1.93868 -0.156706 0
M  V30 3826 C 375.096 -1.41374 3.31188 0
M  V30 3827 C 374.949 -0.406299 4.47961 0
M  V30 3828 C 376.268 -2.35061 3.72068 0
M  V30 3829 H 373.387 -0.265447 0.687537 0
M  V30 3830 H 376.029 0.00294087 1.9 0
M  V30 3831 H 374.179 -2.04206 3.30503 0
M  V30 3832 H 375.851 0.219255 4.60779 0
M  V30 3833 H 374.094 0.275485 4.32924 0
M  V30 3834 H 374.765 -0.920022 5.44279 0
M  V30 3835 H 377.241 -1.82282 3.74049 0
M  V30 3836 H 376.117 -2.79593 4.72355 0
M  V30 3837 H 376.378 -3.21258 3.0372 0
M  V30 3838 N 375.437 -1.54477 -0.31217 0
M  V30 3839 C 376.347 -1.87695 -1.4074 0
M  V30 3840 C 377.363 -0.769975 -1.56036 0
M  V30 3841 O 378.539 -1.06537 -1.70915 0
M  V30 3842 C 375.604 -2.10755 -2.75287 0
M  V30 3843 C 374.665 -3.34514 -2.69071 0
M  V30 3844 C 373.898 -3.56465 -3.97201 0
M  V30 3845 O 374.121 -2.81637 -4.96021 0
M  V30 3846 O 373.055 -4.49964 -3.9977 0
M  V30 3847 H 376.881 -2.80849 -1.15574 0
M  V30 3848 H 374.466 -1.40526 -0.507228 0
M  V30 3849 H 376.348 -2.27188 -3.54913 0
M  V30 3850 H 375.023 -1.20788 -3.0032 0
M  V30 3851 H 373.93 -3.23456 -1.87955 0
M  V30 3852 H 375.263 -4.24575 -2.48992 0
M  V30 3853 N 376.915 0.57481 -1.46744 0
M  V30 3854 C 378.164 1.32898 -1.51727 0
M  V30 3855 C 378.477 1.948 -0.176692 0
M  V30 3856 O 379.683 2.71299 -0.104385 0
M  V30 3857 C 378.139 2.40901 -2.67385 0
M  V30 3858 C 377.747 1.85266 -4.07898 0
M  V30 3859 C 379.491 3.17609 -2.81646 0
M  V30 3860 C 377.398 2.90945 -5.14883 0
M  V30 3861 H 376.328 0.499631 -0.564699 0
M  V30 3862 H 378.979 0.612536 -1.72975 0
M  V30 3863 H 377.361 3.15379 -2.39483 0
M  V30 3864 H 378.535 1.17278 -4.45626 0
M  V30 3865 H 376.85 1.21199 -3.98371 0
M  V30 3866 H 379.447 3.96493 -3.58744 0
M  V30 3867 H 379.79 3.70696 -1.89448 0
M  V30 3868 H 380.323 2.50239 -3.09233 0
M  V30 3869 H 377.062 2.42736 -6.089 0
M  V30 3870 H 376.582 3.57398 -4.81691 0
M  V30 3871 H 378.261 3.54755 -5.41071 0
M  V30 3872 N 378.394 1.34581 0.820102 0
M  V30 3873 C 379.324 1.29038 1.94606 0
M  V30 3874 C 380.305 0.1673 1.69275 0
M  V30 3875 O 381.49 0.360112 1.90832 0
M  V30 3876 C 378.62 1.04793 3.31113 0
M  V30 3877 C 377.574 2.13597 3.70891 0
M  V30 3878 C 376.9 1.74537 5.05412 0
M  V30 3879 C 378.2 3.55451 3.8269 0
M  V30 3880 H 379.894 2.23248 1.99501 0
M  V30 3881 H 377.44 1.0747 0.958449 0
M  V30 3882 H 379.393 0.995592 4.0947 0
M  V30 3883 H 378.117 0.0702565 3.26524 0
M  V30 3884 H 376.776 2.17905 2.9481 0
M  V30 3885 H 376.424 0.754226 4.97313 0
M  V30 3886 H 376.124 2.47361 5.32997 0
M  V30 3887 H 377.648 1.70803 5.86224 0
M  V30 3888 H 379.062 3.5354 4.51312 0
M  V30 3889 H 377.459 4.26922 4.21732 0
M  V30 3890 H 378.529 3.92587 2.84611 0
M  V30 3891 N 379.872 -1.04064 1.18357 0
M  V30 3892 C 380.819 -2.12077 0.910603 0
M  V30 3893 C 381.789 -1.65421 -0.15 0
M  V30 3894 O 382.974 -1.90797 -0.0103614 0
M  V30 3895 C 380.114 -3.42252 0.442472 0
M  V30 3896 C 379.227 -4.0252 1.5685 0
M  V30 3897 C 378.362 -5.20657 1.05309 0
M  V30 3898 C 377.401 -5.72955 2.1538 0
M  V30 3899 N 376.538 -6.8238 1.65233 0
M  V30 3900 H 381.378 -2.34764 1.83548 0
M  V30 3901 H 378.915 -1.15157 0.915279 0
M  V30 3902 H 380.873 -4.16921 0.152534 0
M  V30 3903 H 379.503 -3.19712 -0.445428 0
M  V30 3904 H 378.555 -3.25178 1.97391 0
M  V30 3905 H 379.867 -4.37362 2.39824 0
M  V30 3906 H 379.021 -6.0244 0.717677 0
M  V30 3907 H 377.76 -4.87318 0.19293 0
M  V30 3908 H 376.765 -4.89793 2.49766 0
M  V30 3909 H 377.99 -6.08337 3.01832 0
M  V30 3910 H 375.936 -6.50917 0.815064 0
M  V30 3911 H 375.853 -7.16286 2.41805 0
M  V30 3912 H 377.121 -7.67788 1.34619 0
M  V30 3913 N 381.35 -0.985608 -1.22978 0
M  V30 3914 C 382.298 -0.522631 -2.26652 0
M  V30 3915 C 383.292 0.422998 -1.64034 0
M  V30 3916 O 384.498 0.296319 -1.77544 0
M  V30 3917 H 380.873 -0.150597 -0.736766 0
M  V30 3918 H 382.844 -1.40863 -2.63059 0
M  V30 3919 C 381.593 0.154238 -3.47358 0
M  V30 3920 H 380.916 -0.564329 -3.95797 0
M  V30 3921 H 382.356 0.441744 -4.21693 0
M  V30 3922 C 380.815 1.38719 -3.07016 0
M  V30 3923 O 381.345 2.48307 -3.15764 0
M  V30 3924 N 379.551 1.25975 -2.61875 0
M  V30 3925 H 379.098 0.368068 -2.54957 0
M  V30 3926 H 379.056 2.08578 -2.3525 0
M  V30 3927 N 382.828 1.3818 -0.7579 0
M  V30 3928 C 384.074 2.0078 -0.325423 0
M  V30 3929 C 384.429 1.59085 1.08211 0
M  V30 3930 O 383.722 0.820394 1.73148 0
M  V30 3931 C 383.916 3.55252 -0.391218 0
M  V30 3932 C 383.745 4.11947 -1.8036 0
M  V30 3933 C 382.515 4.43519 -2.42113 0
M  V30 3934 C 384.713 4.33908 -2.76095 0
M  V30 3935 N 382.695 4.85847 -3.75267 0
M  V30 3936 C 384.066 4.78692 -3.94023 0
M  V30 3937 C 386.121 4.16015 -2.73561 0
M  V30 3938 C 384.824 5.07459 -5.09782 0
M  V30 3939 C 386.85 4.45909 -3.88483 0
M  V30 3940 C 386.212 4.90921 -5.0515 0
M  V30 3941 H 382.311 0.764215 -0.165831 0
M  V30 3942 H 384.895 1.67724 -0.988776 0
M  V30 3943 H 383.066 3.87646 0.241886 0
M  V30 3944 H 384.798 4.04653 0.061989 0
M  V30 3945 H 381.553 4.32113 -1.93842 0
M  V30 3946 H 381.977 5.11339 -4.4369 0
M  V30 3947 H 386.619 3.80399 -1.84544 0
M  V30 3948 H 384.337 5.4197 -5.99412 0
M  V30 3949 H 387.923 4.33666 -3.87847 0
M  V30 3950 H 386.803 5.1361 -5.92599 0
M  V30 3951 N 384.306 0.507319 1.49211 0
M  V30 3952 C 385.253 -0.267728 2.29242 0
M  V30 3953 C 386.223 -0.954609 1.35928 0
M  V30 3954 O 387.408 -0.960046 1.64887 0
M  V30 3955 C 384.548 -1.32243 3.18756 0
M  V30 3956 C 383.661 -0.64669 4.27132 0
M  V30 3957 C 382.796 -1.68238 5.03855 0
M  V30 3958 C 381.835 -0.98885 6.0406 0
M  V30 3959 N 380.972 -1.96903 6.73924 0
M  V30 3960 H 385.812 0.420968 2.95012 0
M  V30 3961 H 383.349 0.219443 1.45454 0
M  V30 3962 H 385.307 -1.94599 3.69036 0
M  V30 3963 H 383.937 -1.97981 2.54958 0
M  V30 3964 H 382.989 0.0902926 3.80293 0
M  V30 3965 H 384.301 -0.101058 4.98698 0
M  V30 3966 H 383.455 -2.38081 5.58034 0
M  V30 3967 H 382.194 -2.26187 4.32077 0
M  V30 3968 H 381.199 -0.276222 5.49106 0
M  V30 3969 H 382.424 -0.415767 6.77826 0
M  V30 3970 H 380.37 -2.53803 6.04913 0
M  V30 3971 H 380.287 -1.47423 7.41487 0
M  V30 3972 H 381.555 -2.66015 7.32705 0
M  V30 3973 N 385.784 -1.5574 0.241426 0
M  V30 3974 C 386.731 -2.21149 -0.660432 0
M  V30 3975 C 387.701 -1.17356 -1.17545 0
M  V30 3976 O 388.886 -1.45784 -1.23093 0
M  V30 3977 C 386.026 -2.91059 -1.85414 0
M  V30 3978 C 385.139 -4.09495 -1.37616 0
M  V30 3979 C 384.274 -4.67135 -2.529 0
M  V30 3980 C 383.313 -5.77831 -2.01936 0
M  V30 3981 N 382.45 -6.29677 -3.10566 0
M  V30 3982 H 387.29 -2.97845 -0.095955 0
M  V30 3983 H 384.827 -1.47057 -0.0356024 0
M  V30 3984 H 386.785 -3.29788 -2.5553 0
M  V30 3985 H 385.415 -2.16846 -2.39118 0
M  V30 3986 H 384.467 -3.76117 -0.569235 0
M  V30 3987 H 385.779 -4.89423 -0.962618 0
M  V30 3988 H 384.933 -5.08409 -3.31067 0
M  V30 3989 H 383.672 -3.86411 -2.97553 0
M  V30 3990 H 382.677 -5.36039 -1.22238 0
M  V30 3991 H 383.902 -6.60402 -1.58259 0
M  V30 3992 H 381.848 -5.5186 -3.54664 0
M  V30 3993 H 381.765 -7.04783 -2.73526 0
M  V30 3994 H 383.033 -6.75609 -3.88809 0
M  V30 3995 N 387.262 0.0317525 -1.57568 0
M  V30 3996 C 388.487 0.738664 -1.938 0
M  V30 3997 C 388.912 1.68242 -0.841208 0
M  V30 3998 O 388.27 1.80157 0.203267 0
M  V30 3999 C 388.318 1.47417 -3.29091 0
M  V30 4000 O 387.422 2.5872 -3.2115 0
M  V30 4001 H 386.763 0.198856 -0.633524 0
M  V30 4002 H 389.293 -0.0119713 -2.04596 0
M  V30 4003 H 389.303 1.84468 -3.63917 0
M  V30 4004 H 387.978 0.781988 -4.08482 0
M  V30 4005 H 386.555 2.24231 -2.97951 0
M  V30 4006 N 388.74 1.54641 0.303973 0
M  V30 4007 C 389.988 1.73437 1.0375 0
M  V30 4008 C 390.309 0.521449 1.87899 0
M  V30 4009 O 389.579 -0.46432 1.90318 0
M  V30 4010 H 388.159 0.639518 0.386039 0
M  V30 4011 H 390.821 1.91988 0.335675 0
M  V30 4012 H 389.917 2.62235 1.69231 0
M  V30 4013 N 390.218 -0.567019 1.47046 0
M  V30 4014 C 391.465 -1.32462 1.53167 0
M  V30 4015 C 391.793 -1.93571 0.189841 0
M  V30 4016 O 391.048 -1.77865 -0.816243 0
M  V30 4017 C 391.347 -2.4623 2.59047 0
M  V30 4018 C 391.013 -2.03014 4.02612 0
M  V30 4019 C 389.675 -1.90944 4.41694 0
M  V30 4020 C 392.027 -1.69895 4.92732 0
M  V30 4021 C 389.355 -1.44035 5.68745 0
M  V30 4022 C 391.707 -1.2446 6.20236 0
M  V30 4023 C 390.371 -1.10979 6.5821 0
M  V30 4024 H 389.641 -0.484713 0.560477 0
M  V30 4025 H 392.288 -0.636888 1.80599 0
M  V30 4026 H 390.593 -3.20517 2.25335 0
M  V30 4027 H 392.29 -3.04427 2.61008 0
M  V30 4028 H 388.88 -2.13348 3.71726 0
M  V30 4029 H 393.064 -1.78098 4.63244 0
M  V30 4030 H 388.32 -1.32254 5.96925 0
M  V30 4031 H 392.494 -0.978924 6.89485 0
M  V30 4032 H 390.121 -0.744078 7.5655 0
M  V30 4033 N 391.696 -1.35014 -0.812953 0
M  V30 4034 C 392.921 -1.31187 -1.60639 0
M  V30 4035 C 393.346 0.109382 -1.87782 0
M  V30 4036 O 392.704 1.07424 -1.46047 0
M  V30 4037 C 392.752 -2.11809 -2.91838 0
M  V30 4038 O 391.856 -1.49444 -3.8437 0
M  V30 4039 H 391.197 -0.450084 -0.488181 0
M  V30 4040 H 393.727 -1.77963 -1.00947 0
M  V30 4041 H 393.737 -2.23531 -3.41318 0
M  V30 4042 H 392.412 -3.15137 -2.71407 0
M  V30 4043 H 390.989 -1.46524 -3.42907 0
M  V30 4044 N 393.175 1.03435 -1.18907 0
M  V30 4045 C 394.586 1.58195 -0.991523 0
M  V30 4046 C 394.937 1.90801 0.457081 0
M  V30 4047 O 394.062 1.70272 1.33553 0
M  V30 4048 C 394.657 2.87432 -1.79355 0
M  V30 4049 C 393.216 3.38785 -1.64017 0
M  V30 4050 C 392.363 2.12292 -1.78402 0
M  V30 4051 H 395.314 0.860299 -1.33359 0
M  V30 4052 H 395.335 3.58096 -1.28638 0
M  V30 4053 H 394.847 2.63669 -2.84781 0
M  V30 4054 H 392.948 3.67547 -0.611536 0
M  V30 4055 H 393.061 4.12186 -2.44212 0
M  V30 4056 H 391.425 2.23901 -1.2141 0
M  V30 4057 H 392.208 1.90977 -2.85277 0
M  V30 4058 N 394.653 0.992116 1.22453 0
M  V30 4059 C 395.899 0.668523 1.91464 0
M  V30 4060 C 396.232 -0.797313 1.77078 0
M  V30 4061 O 395.507 -1.5765 1.13916 0
M  V30 4062 C 395.79 1.07424 3.43703 0
M  V30 4063 C 395.643 2.59857 3.67143 0
M  V30 4064 C 396.962 0.626891 4.35612 0
M  V30 4065 H 394.081 0.244341 0.695318 0
M  V30 4066 H 396.723 1.2355 1.44345 0
M  V30 4067 H 394.873 0.591816 3.83966 0
M  V30 4068 H 396.545 3.15764 3.3629 0
M  V30 4069 H 394.788 3.01961 3.11451 0
M  V30 4070 H 395.459 2.83296 4.73759 0
M  V30 4071 H 397.935 1.04125 4.02861 0
M  V30 4072 H 396.811 0.939076 5.40807 0
M  V30 4073 H 397.072 -0.472457 4.39568 0
M  V30 4074 N 396.131 -1.37776 0.765217 0
M  V30 4075 C 397.547 -1.53297 0.444108 0
M  V30 4076 C 397.747 -1.72515 -1.04119 0
M  V30 4077 O 396.803 -1.74278 -1.82711 0
M  V30 4078 C 398.116 -2.73328 1.25349 0
M  V30 4079 C 399.664 -2.87185 1.24473 0
M  V30 4080 C 400.139 -4.10191 2.03733 0
M  V30 4081 N 401.63 -4.17291 2.01053 0
M  V30 4082 C 402.365 -5.11488 2.59166 0
M  V30 4083 N 401.861 -6.11285 3.26041 0
M  V30 4084 N 403.654 -5.03924 2.49032 0
M  V30 4085 H 395.805 -1.23552 1.72768 0
M  V30 4086 H 398.068 -0.601103 0.733062 0
M  V30 4087 H 397.774 -2.6557 2.30577 0
M  V30 4088 H 397.648 -3.66834 0.87823 0
M  V30 4089 H 400.035 -2.94418 0.20047 0
M  V30 4090 H 400.116 -1.94657 1.65959 0
M  V30 4091 H 399.76 -4.0372 3.08176 0
M  V30 4092 H 399.69 -5.01821 1.59633 0
M  V30 4093 H 402.181 -3.45825 1.5236 0
M  V30 4094 H 402.494 -6.79678 3.67774 0
M  V30 4095 H 400.839 -6.11583 3.30138 0
M  V30 4096 H 404.03 -4.24902 1.96407 0
M  V30 4097 H 404.203 -5.77152 2.94617 0
M  V30 4098 N 397.609 -0.515225 -1.4894 0
M  V30 4099 C 398.839 0.0205735 -2.0659 0
M  V30 4100 C 399.247 1.30064 -1.37405 0
M  V30 4101 O 398.59 1.78087 -0.450632 0
M  V30 4102 C 398.652 0.330124 -3.57981 0
M  V30 4103 C 398.316 -0.854295 -4.48944 0
M  V30 4104 C 399.313 -1.7487 -4.89609 0
M  V30 4105 C 396.998 -1.05712 -4.9105 0
M  V30 4106 C 398.992 -2.82996 -5.71132 0
M  V30 4107 C 396.679 -2.14154 -5.72347 0
M  V30 4108 C 397.677 -3.0263 -6.12294 0
M  V30 4109 O 397.365 -4.09198 -6.91962 0
M  V30 4110 H 397.097 -0.0236833 -0.675585 0
M  V30 4111 H 399.651 -0.715956 -1.92518 0
M  V30 4112 H 397.881 1.12044 -3.70112 0
M  V30 4113 H 399.57 0.806233 -3.97812 0
M  V30 4114 H 400.336 -1.60388 -4.57712 0
M  V30 4115 H 396.215 -0.377788 -4.59449 0
M  V30 4116 H 399.759 -3.52083 -6.02232 0
M  V30 4117 H 395.656 -2.28626 -6.03656 0
M  V30 4118 H 396.424 -4.06726 -7.10293 0
M  V30 4119 N 399.087 1.5561 -0.249682 0
M  V30 4120 C 400.335 1.98618 0.373548 0
M  V30 4121 C 400.656 1.13919 1.58264 0
M  V30 4122 O 399.926 0.222637 1.94631 0
M  V30 4123 H 398.506 0.733571 0.141006 0
M  V30 4124 H 401.168 1.91748 -0.349117 0
M  V30 4125 H 400.264 3.04584 0.680796 0
M  V30 4126 N 400.565 -0.0233959 1.57583 0
M  V30 4127 C 401.497 -1.04994 2.03737 0
M  V30 4128 C 402.51 -1.32125 0.951152 0
M  V30 4129 O 403.699 -1.29512 1.22837 0
M  V30 4130 C 400.799 -2.39026 2.40249 0
M  V30 4131 C 399.972 -2.31171 3.7132 0
M  V30 4132 C 399.031 -3.47698 3.94959 0
M  V30 4133 O 398.057 -3.26937 4.65941 0
M  V30 4134 N 399.259 -4.6976 3.41037 0
M  V30 4135 H 402.024 -0.656507 2.92421 0
M  V30 4136 H 399.585 -0.211235 1.60516 0
M  V30 4137 H 401.577 -3.15712 2.53196 0
M  V30 4138 H 400.147 -2.70194 1.57207 0
M  V30 4139 H 399.367 -1.39547 3.68674 0
M  V30 4140 H 400.655 -2.23071 4.57293 0
M  V30 4141 H 400.053 -4.89528 2.83512 0
M  V30 4142 H 398.61 -5.43791 3.59353 0
M  V30 4143 N 402.043 -1.548 -0.295768 0
M  V30 4144 C 403.283 -1.76069 -1.03823 0
M  V30 4145 C 403.647 -0.537992 -1.84309 0
M  V30 4146 O 404.848 -0.628514 -2.61349 0
M  V30 4147 C 403.119 -3.01705 -1.91596 0
M  V30 4148 S 404.678 -3.43998 -2.72416 0
M  V30 4149 H 401.496 -0.618852 -0.350062 0
M  V30 4150 H 404.098 -1.93009 -0.31106 0
M  V30 4151 H 402.802 -3.88812 -1.31351 0
M  V30 4152 H 402.333 -2.87366 -2.68671 0
M  V30 4153 H 404.348 -3.0148 -3.94112 0
M  V30 4154 N 403.521 0.559213 -1.47345 0
M  V30 4155 C 404.767 1.31614 -1.55079 0
M  V30 4156 C 405.122 1.91257 -0.209422 0
M  V30 4157 O 404.415 1.74796 0.784656 0
M  V30 4158 C 404.609 2.44853 -2.6035 0
M  V30 4159 C 404.438 1.96305 -4.04591 0
M  V30 4160 C 403.208 1.8024 -4.72061 0
M  V30 4161 C 405.406 1.50872 -4.91673 0
M  V30 4162 N 403.388 1.26011 -6.00828 0
M  V30 4163 C 404.759 1.08395 -6.10451 0
M  V30 4164 C 406.814 1.38905 -4.78132 0
M  V30 4165 C 405.517 0.551399 -7.17183 0
M  V30 4166 C 407.543 0.870518 -5.84958 0
M  V30 4167 C 406.905 0.455661 -7.02925 0
M  V30 4168 H 403.004 0.473712 -0.62219 0
M  V30 4169 H 405.588 0.634103 -1.84085 0
M  V30 4170 H 403.759 3.10589 -2.33215 0
M  V30 4171 H 405.491 3.11849 -2.57938 0
M  V30 4172 H 402.246 2.02895 -4.27937 0
M  V30 4173 H 402.67 1.00991 -6.69425 0
M  V30 4174 H 407.312 1.69591 -3.87297 0
M  V30 4175 H 405.03 0.232159 -8.07766 0
M  V30 4176 H 408.616 0.781507 -5.76527 0
M  V30 4177 H 407.496 0.0606414 -7.84177 0
M  V30 4178 N 404.999 1.35443 0.805782 0
M  V30 4179 C 406.245 1.28952 1.56522 0
M  V30 4180 C 406.578 -0.135597 1.93726 0
M  V30 4181 O 405.853 -1.08516 1.61414 0
M  V30 4182 C 406.136 2.19678 2.85331 0
M  V30 4183 C 405.989 3.7081 2.54598 0
M  V30 4184 C 407.308 2.09495 3.8704 0
M  V30 4185 H 404.427 0.469764 0.567883 0
M  V30 4186 H 407.069 1.65851 0.927001 0
M  V30 4187 H 405.219 1.8834 3.39795 0
M  V30 4188 H 406.891 4.12593 2.06312 0
M  V30 4189 H 405.134 3.91051 1.8778 0
M  V30 4190 H 405.805 4.29679 3.46525 0
M  V30 4191 H 408.281 2.37045 3.41978 0
M  V30 4192 H 407.157 2.75173 4.74943 0
M  V30 4193 H 407.418 1.07714 4.28777 0
M  V30 4194 N 406.477 -1.02803 1.19454 0
M  V30 4195 C 407.724 -1.76217 0.997693 0
M  V30 4196 C 408.052 -1.887 -0.47144 0
M  V30 4197 O 407.307 -1.4011 -1.3663 0
M  V30 4198 C 407.606 -3.18941 1.6128 0
M  V30 4199 C 407.272 -3.26463 3.11019 0
M  V30 4200 C 405.934 -3.28223 3.51885 0
M  V30 4201 C 408.286 -3.25542 4.07028 0
M  V30 4202 C 405.614 -3.26719 4.8731 0
M  V30 4203 C 407.966 -3.25579 5.42385 0
M  V30 4204 C 406.63 -3.25637 5.82681 0
M  V30 4205 H 405.9 -0.644823 0.365082 0
M  V30 4206 H 408.547 -1.20655 1.4871 0
M  V30 4207 H 406.852 -3.77587 1.04572 0
M  V30 4208 H 408.549 -3.74415 1.43577 0
M  V30 4209 H 405.139 -3.25822 2.78457 0
M  V30 4210 H 409.323 -3.23362 3.76498 0
M  V30 4211 H 404.579 -3.25089 5.1781 0
M  V30 4212 H 408.753 -3.23817 6.16535 0
M  V30 4213 H 406.38 -3.24226 6.87591 0
M  V30 4214 N 407.956 -0.998596 -1.21925 0
M  V30 4215 C 408.919 -0.558679 -2.22287 0
M  V30 4216 C 409.919 0.361525 -1.56683 0
M  V30 4217 O 411.109 0.152695 -1.73529 0
M  V30 4218 C 408.241 0.18661 -3.40389 0
M  V30 4219 H 409.434 -1.4463 -2.62721 0
M  V30 4220 H 406.987 -0.786413 -1.35075 0
M  V30 4221 H 407.722 1.08996 -3.05435 0
M  V30 4222 H 407.507 -0.474188 -3.89222 0
M  V30 4223 H 408.997 0.482367 -4.14805 0
M  V30 4224 N 409.434 1.37368 -0.772513 0
M  V30 4225 C 410.682 1.99279 -0.336516 0
M  V30 4226 C 411.003 1.6163 1.09091 0
M  V30 4227 O 410.273 0.882109 1.74916 0
M  V30 4228 H 408.853 0.737063 -0.121435 0
M  V30 4229 H 411.515 1.67836 -0.990809 0
M  V30 4230 H 410.611 3.09332 -0.414763 0
M  V30 4231 N 410.912 0.523116 1.48665 0
M  V30 4232 C 412.14 -0.0096312 2.06898 0
M  V30 4233 C 412.555 -1.28784 1.38059 0
M  V30 4234 O 411.912 -1.76453 0.465893 0
M  V30 4235 C 411.963 -0.244386 3.60673 0
M  V30 4236 O 411.684 0.983172 4.26925 0
M  V30 4237 C 413.185 -0.818289 4.35682 0
M  V30 4238 H 410.405 0.0304161 0.67031 0
M  V30 4239 H 412.949 0.726799 1.91149 0
M  V30 4240 H 411.104 -0.930847 3.76051 0
M  V30 4241 H 411.518 0.759653 5.1897 0
M  V30 4242 H 412.992 -0.93201 5.44075 0
M  V30 4243 H 413.469 -1.82153 3.99646 0
M  V30 4244 H 414.075 -0.168609 4.24966 0
M  V30 4245 N 412.39 -1.55475 0.257931 0
M  V30 4246 C 413.32 -2.24815 -0.630912 0
M  V30 4247 C 414.301 -1.23224 -1.17259 0
M  V30 4248 O 415.486 -1.51904 -1.20991 0
M  V30 4249 C 412.616 -2.95609 -1.82298 0
M  V30 4250 C 411.57 -4.03982 -1.41359 0
M  V30 4251 C 410.896 -4.6226 -2.68738 0
M  V30 4252 C 412.196 -5.19109 -0.57648 0
M  V30 4253 H 413.89 -2.99354 -0.0526878 0
M  V30 4254 H 411.436 -1.4398 -0.023901 0
M  V30 4255 H 413.389 -3.42822 -2.45054 0
M  V30 4256 H 412.113 -2.18577 -2.42676 0
M  V30 4257 H 410.772 -3.57555 -0.809324 0
M  V30 4258 H 410.42 -3.81915 -3.27338 0
M  V30 4259 H 410.12 -5.35424 -2.42065 0
M  V30 4260 H 411.644 -5.12212 -3.32372 0
M  V30 4261 H 413.058 -5.62479 -1.10861 0
M  V30 4262 H 411.455 -5.98729 -0.405351 0
M  V30 4263 H 412.525 -4.83174 0.408776 0
M  V30 4264 N 413.868 0.0150385 -1.57593 0
M  V30 4265 C 414.816 1.02958 -2.08572 0
M  V30 4266 C 415.81 1.36554 -1.00246 0
M  V30 4267 O 417.016 1.35295 -1.18724 0
M  V30 4268 H 413.391 0.349619 -0.665786 0
M  V30 4269 H 415.362 0.573932 -2.92829 0
M  V30 4270 C 414.111 2.31752 -2.59203 0
M  V30 4271 H 413.434 2.06765 -3.42182 0
M  V30 4272 H 414.874 3.01053 -2.98568 0
M  V30 4273 C 413.333 3.01692 -1.49945 0
M  V30 4274 O 413.863 3.92083 -0.873704 0
M  V30 4275 N 412.069 2.6326 -1.23056 0
M  V30 4276 H 411.616 1.89838 -1.74125 0
M  V30 4277 H 411.574 3.10372 -0.501685 0
M  V30 4278 N 415.346 1.54954 0.287554 0
M  V30 4279 C 416.574 1.78881 1.03967 0
M  V30 4280 C 416.989 0.554894 1.80462 0
M  V30 4281 O 416.346 -0.475676 1.76192 0
M  V30 4282 C 416.397 3.00488 2.0097 0
M  V30 4283 O 416.118 4.19113 1.27577 0
M  V30 4284 C 417.619 3.36907 2.88112 0
M  V30 4285 H 414.839 0.596259 0.307761 0
M  V30 4286 H 417.383 2.01937 0.322749 0
M  V30 4287 H 415.538 2.79601 2.68145 0
M  V30 4288 H 415.952 4.87765 1.92835 0
M  V30 4289 H 417.426 4.25205 3.52001 0
M  V30 4290 H 417.903 2.55659 3.57121 0
M  V30 4291 H 418.509 3.60001 2.26449 0
M  V30 4292 N 416.824 -0.551391 1.4764 0
M  V30 4293 C 417.787 -1.64007 1.60107 0
M  V30 4294 C 418.787 -1.53601 0.47576 0
M  V30 4295 O 419.977 -1.57655 0.740988 0
M  V30 4296 C 417.109 -3.03569 1.55108 0
M  V30 4297 H 418.302 -1.543 2.57161 0
M  V30 4298 H 415.855 -0.771776 1.35917 0
M  V30 4299 H 416.59 -3.18804 0.594519 0
M  V30 4300 H 416.375 -3.12532 2.36783 0
M  V30 4301 H 417.865 -3.82762 1.66982 0
M  V30 4302 N 418.302 -1.35869 -0.798587 0
M  V30 4303 C 419.232 -1.32118 -1.92528 0
M  V30 4304 C 420.213 -0.194209 -1.68988 0
M  V30 4305 O 421.398 -0.390426 -1.90235 0
M  V30 4306 C 418.528 -1.10047 -3.29404 0
M  V30 4307 C 417.482 -2.19471 -3.67446 0
M  V30 4308 C 416.808 -1.82555 -5.02571 0
M  V30 4309 C 418.108 -3.61495 -3.76987 0
M  V30 4310 H 419.802 -2.26394 -1.95924 0
M  V30 4311 H 417.348 -1.08981 -0.94123 0
M  V30 4312 H 419.301 -1.06061 -4.07835 0
M  V30 4313 H 418.025 -0.122195 -3.26371 0
M  V30 4314 H 416.684 -2.22568 -2.91306 0
M  V30 4315 H 416.332 -0.833249 -4.9605 0
M  V30 4316 H 416.032 -2.5581 -5.28995 0
M  V30 4317 H 417.556 -1.80108 -5.83432 0
M  V30 4318 H 418.97 -3.60676 -4.4563 0
M  V30 4319 H 417.367 -4.33577 -4.14887 0
M  V30 4320 H 418.437 -3.97065 -2.78329 0
M  V30 4321 N 419.78 1.02168 -1.19998 0
M  V30 4322 C 421.196 1.27969 -0.953737 0
M  V30 4323 C 421.396 1.98079 0.369703 0
M  V30 4324 O 420.452 2.27306 1.09947 0
M  V30 4325 C 421.765 2.11971 -2.13281 0
M  V30 4326 C 423.313 2.25255 -2.17323 0
M  V30 4327 C 423.788 3.12632 -3.34702 0
M  V30 4328 N 425.279 3.2022 -3.34684 0
M  V30 4329 C 426.014 3.88039 -4.22153 0
M  V30 4330 N 425.51 4.58027 -5.19791 0
M  V30 4331 N 427.303 3.84511 -4.10009 0
M  V30 4332 H 419.454 0.550794 -2.05134 0
M  V30 4333 H 421.717 0.305683 -0.897364 0
M  V30 4334 H 421.423 1.67785 -3.09097 0
M  V30 4335 H 421.297 3.12699 -2.10949 0
M  V30 4336 H 423.684 2.68667 -1.22073 0
M  V30 4337 H 423.765 1.24053 -2.23706 0
M  V30 4338 H 423.409 2.69926 -4.30235 0
M  V30 4339 H 423.339 4.13909 -3.25556 0
M  V30 4340 H 425.83 2.70382 -2.64012 0
M  V30 4341 H 426.143 5.07429 -5.82868 0
M  V30 4342 H 424.488 4.56869 -5.23733 0
M  V30 4343 H 427.679 3.28978 -3.33003 0
M  V30 4344 H 427.852 4.3709 -4.78389 0
M  V30 4345 N 421.258 1.00505 1.21394 0
M  V30 4346 C 422.483 0.706367 1.95001 0
M  V30 4347 C 422.908 -0.72463 1.73582 0
M  V30 4348 O 422.266 -1.49702 1.0227 0
M  V30 4349 C 422.314 1.03299 3.45487 0
M  V30 4350 O 421.418 0.138275 4.12168 0
M  V30 4351 H 420.759 0.263175 0.609619 0
M  V30 4352 H 423.289 1.34531 1.54151 0
M  V30 4353 H 423.299 0.979872 3.96059 0
M  V30 4354 H 421.974 2.07567 3.60401 0
M  V30 4355 H 420.551 0.247928 3.72075 0
M  V30 4356 N 422.737 -1.36956 0.779787 0
M  V30 4357 C 423.667 -2.32761 0.185651 0
M  V30 4358 C 424.648 -1.56177 -0.673989 0
M  V30 4359 O 425.833 -1.84378 -0.609797 0
M  V30 4360 C 422.963 -3.40418 -0.687964 0
M  V30 4361 C 421.917 -4.27941 0.0710102 0
M  V30 4362 C 421.243 -5.26681 -0.922573 0
M  V30 4363 C 422.543 -5.07006 1.25467 0
M  V30 4364 H 424.237 -2.82698 0.986008 0
M  V30 4365 H 421.783 -1.3592 0.475592 0
M  V30 4366 H 423.736 -4.06423 -1.11348 0
M  V30 4367 H 422.46 -2.89025 -1.52093 0
M  V30 4368 H 421.119 -3.63478 0.47739 0
M  V30 4369 H 420.767 -4.71565 -1.7503 0
M  V30 4370 H 420.467 -5.86103 -0.419237 0
M  V30 4371 H 421.991 -5.9556 -1.34686 0
M  V30 4372 H 423.405 -5.66105 0.905401 0
M  V30 4373 H 421.802 -5.75793 1.69063 0
M  V30 4374 H 422.872 -4.3921 2.05481 0
M  V30 4375 N 424.215 -0.530993 -1.48385 0
M  V30 4376 C 425.463 0.00273189 -2.021 0
M  V30 4377 C 425.784 1.34672 -1.41027 0
M  V30 4378 O 425.054 1.8724 -0.576012 0
M  V30 4379 H 423.634 0.00399774 -0.746989 0
M  V30 4380 H 426.296 -0.695054 -1.82085 0
M  V30 4381 H 425.392 0.11031 -3.11905 0
M  V30 4382 N 425.693 1.55336 -0.266172 0
M  V30 4383 C 426.942 1.98574 0.353749 0
M  V30 4384 C 427.255 1.15789 1.57646 0
M  V30 4385 O 428.461 1.49129 2.26876 0
M  V30 4386 C 426.917 3.53403 0.680747 0
M  V30 4387 C 426.525 4.44953 -0.52165 0
M  V30 4388 C 428.269 4.05251 1.26379 0
M  V30 4389 C 426.176 5.91156 -0.169736 0
M  V30 4390 H 425.106 0.741643 0.135949 0
M  V30 4391 H 427.757 1.79743 -0.369421 0
M  V30 4392 H 426.139 3.68001 1.46257 0
M  V30 4393 H 427.313 4.42121 -1.29869 0
M  V30 4394 H 425.628 4.03691 -1.02093 0
M  V30 4395 H 428.225 5.12021 1.54074 0
M  V30 4396 H 428.568 3.53749 2.19471 0
M  V30 4397 H 429.101 3.94057 0.544447 0
M  V30 4398 H 425.84 6.46736 -1.0683 0
M  V30 4399 H 425.36 5.97079 0.570717 0
M  V30 4400 H 427.039 6.4655 0.241245 0
M  V30 4401 N 427.171 -0.0066808 1.57599 0
M  V30 4402 C 428.582 -0.550379 1.78403 0
M  V30 4403 C 428.933 -1.74339 0.900014 0
M  V30 4404 O 428.058 -2.16166 0.100713 0
M  V30 4405 C 428.653 -1.00523 3.23544 0
M  V30 4406 C 427.212 -1.49428 3.45468 0
M  V30 4407 C 426.359 -0.442444 2.73748 0
M  V30 4408 H 429.31 0.219508 1.57175 0
M  V30 4409 H 429.331 -1.87157 3.31289 0
M  V30 4410 H 428.843 -0.136735 3.87859 0
M  V30 4411 H 426.944 -2.3839 2.86358 0
M  V30 4412 H 427.057 -1.52635 4.54136 0
M  V30 4413 H 425.421 -0.902578 2.38171 0
M  V30 4414 H 426.204 0.416973 3.40758 0
M  V30 4415 N 428.649 -1.55105 -0.279332 0
M  V30 4416 C 429.874 -1.7976 -1.03446 0
M  V30 4417 C 430.299 -0.565952 -1.79384 0
M  V30 4418 O 429.657 0.484259 -1.74713 0
M  V30 4419 C 429.705 -3.0179 -1.97371 0
M  V30 4420 O 428.809 -2.76432 -3.06038 0
M  V30 4421 H 428.15 -0.594334 -0.29608 0
M  V30 4422 H 430.68 -2.02235 -0.310165 0
M  V30 4423 H 430.69 -3.30351 -2.39441 0
M  V30 4424 H 429.365 -3.91085 -1.4151 0
M  V30 4425 H 427.942 -2.58949 -2.68328 0
M  V30 4426 N 430.127 0.543554 -1.4793 0
M  V30 4427 C 431.543 0.870806 -1.3375 0
M  V30 4428 C 431.743 1.9864 -0.338261 0
M  V30 4429 O 430.799 2.51305 0.245371 0
M  V30 4430 C 432.112 1.25114 -2.73435 0
M  V30 4431 C 433.66 1.3618 -2.81823 0
M  V30 4432 C 434.135 1.77563 -4.22179 0
M  V30 4433 N 435.626 1.8469 -4.24787 0
M  V30 4434 C 436.361 2.18067 -5.30315 0
M  V30 4435 N 435.857 2.49963 -6.46135 0
M  V30 4436 N 437.65 2.18958 -5.17701 0
M  V30 4437 H 429.801 -0.19275 -2.11524 0
M  V30 4438 H 432.064 -0.0235777 -0.947707 0
M  V30 4439 H 431.77 0.50514 -3.48053 0
M  V30 4440 H 431.644 2.20431 -3.06088 0
M  V30 4441 H 434.031 2.09859 -2.07468 0
M  V30 4442 H 434.112 0.390169 -2.52807 0
M  V30 4443 H 433.756 1.04449 -4.97044 0
M  V30 4444 H 433.686 2.75753 -4.48629 0
M  V30 4445 H 436.177 1.62372 -3.41239 0
M  V30 4446 H 436.49 2.74497 -7.22406 0
M  V30 4447 H 434.835 2.47513 -6.49432 0
M  V30 4448 H 438.026 1.93488 -4.2624 0
M  V30 4449 H 438.199 2.44639 -6.00047 0
M  V30 4450 N 431.605 1.3629 0.791371 0
M  V30 4451 C 432.851 1.30605 1.55146 0
M  V30 4452 C 433.184 -0.115042 1.93859 0
M  V30 4453 O 432.459 -1.06798 1.62556 0
M  V30 4454 C 432.742 2.22692 2.82985 0
M  V30 4455 C 432.595 3.73489 2.50651 0
M  V30 4456 C 433.914 2.13588 3.84796 0
M  V30 4457 H 431.033 0.475761 0.562868 0
M  V30 4458 H 433.675 1.66825 0.909358 0
M  V30 4459 H 431.825 1.91933 3.37778 0
M  V30 4460 H 433.497 4.14758 2.01924 0
M  V30 4461 H 431.74 3.93021 1.83622 0
M  V30 4462 H 432.411 4.3333 3.41949 0
M  V30 4463 H 434.887 2.40659 3.39445 0
M  V30 4464 H 433.763 2.80195 4.71998 0
M  V30 4465 H 434.024 1.12256 4.27611 0
M  V30 4466 N 433.083 -1.0153 1.20538 0
M  V30 4467 C 434.332 -1.74558 1.01057 0
M  V30 4468 C 434.645 -1.90168 -0.457756 0
M  V30 4469 O 435.851 -2.60301 -0.771722 0
M  V30 4470 C 434.307 -3.13963 1.75941 0
M  V30 4471 C 433.915 -3.06361 3.26875 0
M  V30 4472 C 435.659 -3.91191 1.64832 0
M  V30 4473 C 433.566 -4.40782 3.94291 0
M  V30 4474 H 432.496 -0.654417 0.374505 0
M  V30 4475 H 435.147 -1.13521 1.44171 0
M  V30 4476 H 433.529 -3.75549 1.25614 0
M  V30 4477 H 434.703 -2.54074 3.84425 0
M  V30 4478 H 433.018 -2.42625 3.38411 0
M  V30 4479 H 435.615 -4.90644 2.12539 0
M  V30 4480 H 435.958 -4.11884 0.604745 0
M  V30 4481 H 436.491 -3.36236 2.12579 0
M  V30 4482 H 433.23 -4.25292 4.98805 0
M  V30 4483 H 432.75 -4.9307 3.41529 0
M  V30 4484 H 434.429 -5.09621 3.98617 0
M  V30 4485 N 434.561 -1.01147 -1.20859 0
M  V30 4486 C 435.789 -0.716911 -1.94082 0
M  V30 4487 C 436.204 0.721568 -1.74467 0
M  V30 4488 O 435.561 1.48889 -1.05539 0
M  V30 4489 C 435.612 -1.03662 -3.46318 0
M  V30 4490 O 435.333 -2.4186 -3.65288 0
M  V30 4491 C 436.834 -0.762386 -4.36695 0
M  V30 4492 H 434.054 -0.26367 -0.617024 0
M  V30 4493 H 436.598 -1.35127 -1.53496 0
M  V30 4494 H 434.753 -0.447757 -3.84804 0
M  V30 4495 H 435.167 -2.53224 -4.59323 0
M  V30 4496 H 436.641 -1.03621 -5.42187 0
M  V30 4497 H 437.118 0.303514 -4.3815 0
M  V30 4498 H 437.724 -1.33316 -4.03865 0
M  V30 4499 N 436.039 1.36541 -0.78704 0
M  V30 4500 C 436.987 2.31965 -0.171724 0
M  V30 4501 C 437.981 1.55689 0.667631 0
M  V30 4502 O 439.187 1.70969 0.562981 0
M  V30 4503 H 435.562 0.751101 -0.0367545 0
M  V30 4504 H 437.533 2.81428 -0.992017 0
M  V30 4505 C 436.282 3.40968 0.680904 0
M  V30 4506 H 435.605 3.99775 0.0443961 0
M  V30 4507 H 437.045 4.10063 1.07815 0
M  V30 4508 C 435.504 2.82338 1.83813 0
M  V30 4509 O 436.034 2.74311 2.93456 0
M  V30 4510 N 434.24 2.39661 1.6435 0
M  V30 4511 H 433.787 2.46389 0.751668 0
M  V30 4512 H 433.745 2.00779 2.4194 0
M  V30 4513 N 437.518 0.538854 1.48102 0
M  V30 4514 C 438.765 0.0080018 2.02498 0
M  V30 4515 C 439.093 -1.33437 1.41509 0
M  V30 4516 O 438.348 -1.87709 0.553507 0
M  V30 4517 C 438.647 -0.153808 3.57069 0
M  V30 4518 C 438.313 1.11533 4.36888 0
M  V30 4519 C 436.975 1.46314 4.58417 0
M  V30 4520 C 439.327 1.95718 4.83057 0
M  V30 4521 C 436.655 2.6516 5.23361 0
M  V30 4522 C 439.007 3.13751 5.49312 0
M  V30 4523 C 437.671 3.48866 5.69077 0
M  V30 4524 H 436.941 0.00292807 0.740994 0
M  V30 4525 H 439.588 0.706668 1.77984 0
M  V30 4526 H 437.893 -0.935309 3.80472 0
M  V30 4527 H 439.59 -0.579607 3.96789 0
M  V30 4528 H 436.18 0.834484 4.20398 0
M  V30 4529 H 440.364 1.70158 4.66219 0
M  V30 4530 H 435.62 2.92558 5.36861 0
M  V30 4531 H 439.794 3.79282 5.84053 0
M  V30 4532 H 437.421 4.41054 6.19173 0
M  V30 4533 N 438.996 -1.55193 0.274407 0
M  V30 4534 C 439.944 -2.23924 -0.629362 0
M  V30 4535 C 440.938 -1.23602 -1.1584 0
M  V30 4536 O 442.144 -1.41535 -1.11211 0
M  V30 4537 H 438.519 -0.718637 -0.221507 0
M  V30 4538 H 440.49 -2.98388 -0.0268322 0
M  V30 4539 C 439.239 -2.97329 -1.80252 0
M  V30 4540 H 438.562 -3.74313 -1.40462 0
M  V30 4541 H 440.002 -3.48743 -2.41152 0
M  V30 4542 C 438.461 -2.0276 -2.69054 0
M  V30 4543 O 438.991 -1.57836 -3.69392 0
M  V30 4544 N 437.197 -1.69275 -2.36208 0
M  V30 4545 H 436.744 -2.06004 -1.54661 0
M  V30 4546 H 436.702 -1.06271 -2.95895 0
M  V30 4547 N 440.474 -0.00167713 -1.576 0
M  V30 4548 C 441.699 0.69739 -1.95323 0
M  V30 4549 C 442.124 1.6642 -0.876706 0
M  V30 4550 O 441.482 1.80548 0.165007 0
M  V30 4551 C 441.53 1.40403 -3.32144 0
M  V30 4552 O 440.634 2.5185 -3.26566 0
M  V30 4553 H 439.975 0.185373 -0.637599 0
M  V30 4554 H 442.505 -0.0553665 -2.04525 0
M  V30 4555 H 442.515 1.76707 -3.67748 0
M  V30 4556 H 441.19 0.695167 -4.10049 0
M  V30 4557 H 439.767 2.17861 -3.0264 0
M  V30 4558 N 441.952 1.55251 0.271103 0
M  V30 4559 C 442.915 1.87484 1.31842 0
M  V30 4560 C 443.915 0.749545 1.42262 0
M  V30 4561 O 445.105 1.01771 1.4138 0
M  V30 4562 C 442.237 2.0818 2.69951 0
M  V30 4563 H 443.43 2.81108 1.0449 0
M  V30 4564 H 440.983 1.47771 0.509258 0
M  V30 4565 H 441.718 1.16944 3.02481 0
M  V30 4566 H 441.503 2.90114 2.63774 0
M  V30 4567 H 442.993 2.34385 3.4562 0
M  V30 4568 N 443.43 -0.535701 1.48216 0
M  V30 4569 C 444.38 -1.63688 1.58714 0
M  V30 4570 C 445.364 -1.54635 0.444615 0
M  V30 4571 O 446.556 -1.62753 0.695742 0
M  V30 4572 C 443.685 -3.02423 1.62466 0
M  V30 4573 C 442.771 -3.16601 2.82178 0
M  V30 4574 N 443.162 -3.00771 4.06658 0
M  V30 4575 C 441.46 -3.47645 2.79391 0
M  V30 4576 C 442.161 -3.18213 4.86945 0
M  V30 4577 N 441.137 -3.45528 4.19656 0
M  V30 4578 H 444.939 -1.5005 2.5271 0
M  V30 4579 H 442.453 -0.741018 1.44508 0
M  V30 4580 H 444.45 -3.81517 1.6808 0
M  V30 4581 H 443.11 -3.17157 0.695826 0
M  V30 4582 H 444.121 -2.77652 4.37184 0
M  V30 4583 H 440.798 -3.68771 1.95739 0
M  V30 4584 H 442.188 -3.1076 5.95716 0
M  V30 4585 N 444.908 -1.36708 -0.784132 0
M  V30 4586 C 446.185 -1.21776 -1.53069 0
M  V30 4587 C 446.565 0.193876 -2.10208 0
M  V30 4588 O 445.913 1.20012 -1.94446 0
M  V30 4589 C 446.123 -2.30395 -2.62143 0
M  V30 4590 C 447.471 -2.67325 -3.29882 0
M  V30 4591 O 448.495 -2.29478 -2.7243 0
M  V30 4592 O 447.354 -3.32485 -4.33724 0
M  V30 4593 H 444.448 -0.474459 -0.677361 0
M  V30 4594 H 446.994 -1.48454 -0.82216 0
M  V30 4595 H 445.766 -3.2498 -2.17953 0
M  V30 4596 H 445.389 -2.05112 -3.40609 0
M  V30 4597 N 446.386 1.0089 -1.21074 0
M  V30 4598 C 447.614 1.78191 -1.05145 0
M  V30 4599 C 448.029 1.84537 0.398952 0
M  V30 4600 O 447.386 1.30393 1.27687 0
M  V30 4601 C 447.437 3.22288 -1.63746 0
M  V30 4602 O 447.158 3.16315 -3.03111 0
M  V30 4603 C 448.659 4.16106 -1.52875 0
M  V30 4604 H 445.879 0.560129 -0.369454 0
M  V30 4605 H 448.423 1.26945 -1.60328 0
M  V30 4606 H 446.578 3.70655 -1.12664 0
M  V30 4607 H 446.992 4.06817 -3.31059 0
M  V30 4608 H 448.466 5.15026 -1.98626 0
M  V30 4609 H 448.943 4.36541 -0.482521 0
M  V30 4610 H 449.549 3.73625 -2.03185 0
M  V30 4611 N 447.864 1.01787 1.20321 0
M  V30 4612 C 449.141 0.622978 1.85414 0
M  V30 4613 C 449.521 -0.898887 1.91006 0
M  V30 4614 O 448.869 -1.79112 1.41884 0
M  V30 4615 C 449.079 1.27226 3.24984 0
M  V30 4616 C 450.427 1.3885 4.01255 0
M  V30 4617 O 451.451 1.22857 3.34342 0
M  V30 4618 O 450.31 1.64705 5.2109 0
M  V30 4619 H 447.404 0.215116 0.798533 0
M  V30 4620 H 449.95 1.11533 1.27901 0
M  V30 4621 H 448.722 2.31209 3.15687 0
M  V30 4622 H 448.345 0.767069 3.90131 0
M  V30 4623 N 449.342 -1.36122 0.79427 0
M  V30 4624 C 450.758 -1.5232 0.476525 0
M  V30 4625 C 450.958 -1.74685 -1.00436 0
M  V30 4626 O 450.014 -1.78115 -1.78973 0
M  V30 4627 C 451.327 -2.70607 1.31119 0
M  V30 4628 C 452.875 -2.8448 1.30537 0
M  V30 4629 C 453.35 -4.05778 2.12387 0
M  V30 4630 N 454.841 -4.12933 2.09859 0
M  V30 4631 C 455.576 -5.05876 2.69957 0
M  V30 4632 N 455.072 -6.04232 3.38934 0
M  V30 4633 N 456.865 -4.98528 2.59665 0
M  V30 4634 H 449.016 -1.1986 1.75349 0
M  V30 4635 H 451.279 -0.585418 0.745647 0
M  V30 4636 H 450.985 -2.60619 2.36158 0
M  V30 4637 H 450.859 -3.64888 0.955843 0
M  V30 4638 H 453.246 -2.93927 0.262876 0
M  V30 4639 H 453.327 -1.91093 1.70051 0
M  V30 4640 H 452.971 -3.97092 3.1667 0
M  V30 4641 H 452.901 -4.98323 1.70242 0
M  V30 4642 H 455.392 -3.42515 1.59662 0
M  V30 4643 H 455.705 -6.71724 3.82109 0
M  V30 4644 H 454.05 -6.04443 3.43036 0
M  V30 4645 H 457.241 -4.20641 2.05375 0
M  V30 4646 H 457.414 -5.70773 3.06793 0
M  V30 4647 N 450.82 -0.546701 -1.47814 0
M  V30 4648 C 451.768 0.220048 -2.31557 0
M  V30 4649 C 452.762 0.919472 -1.42275 0
M  V30 4650 O 453.968 0.841953 -1.59095 0
M  V30 4651 H 450.343 0.0898334 -0.746615 0
M  V30 4652 H 452.314 -0.505589 -2.94086 0
M  V30 4653 C 451.063 1.24353 -3.24702 0
M  V30 4654 H 450.386 0.714758 -3.93359 0
M  V30 4655 H 451.826 1.75112 -3.8615 0
M  V30 4656 C 450.285 2.28593 -2.47481 0
M  V30 4657 O 450.815 3.35334 -2.21165 0
M  V30 4658 N 449.021 2.02244 -2.08676 0
M  V30 4659 H 448.568 1.15455 -2.30278 0
M  V30 4660 H 448.526 2.72207 -1.57323 0
M  V30 4661 N 452.299 1.55045 -0.282633 0
M  V30 4662 C 453.229 2.2579 0.595066 0
M  V30 4663 C 454.21 1.25074 1.15284 0
M  V30 4664 O 455.395 1.5381 1.18559 0
M  V30 4665 C 452.525 2.98472 1.77572 0
M  V30 4666 C 451.479 4.0618 1.34914 0
M  V30 4667 C 450.805 4.66477 2.6135 0
M  V30 4668 C 452.105 5.1996 0.493821 0
M  V30 4669 H 453.799 2.994 0.00505653 0
M  V30 4670 H 451.345 1.44 0.000992001 0
M  V30 4671 H 453.298 3.46677 2.39568 0
M  V30 4672 H 452.022 2.2241 2.39168 0
M  V30 4673 H 450.681 3.58797 0.752338 0
M  V30 4674 H 450.329 3.87074 3.2122 0
M  V30 4675 H 450.029 5.39207 2.33516 0
M  V30 4676 H 451.553 5.17435 3.24181 0
M  V30 4677 H 452.967 5.64172 1.01898 0
M  V30 4678 H 451.364 5.99299 0.310047 0
M  V30 4679 H 452.434 4.82462 -0.485593 0
M  V30 4680 N 453.777 0.010035 1.57597 0
M  V30 4681 C 455.002 -0.687021 1.95691 0
M  V30 4682 C 455.427 -1.65952 0.885519 0
M  V30 4683 O 454.785 -1.80633 -0.15543 0
M  V30 4684 C 454.833 -1.3864 3.32884 0
M  V30 4685 O 453.937 -2.50115 3.27897 0
M  V30 4686 H 453.278 -0.181989 0.638573 0
M  V30 4687 H 455.808 0.0662122 2.04493 0
M  V30 4688 H 455.818 -1.74754 3.6868 0
M  V30 4689 H 454.493 -0.673411 4.10412 0
M  V30 4690 H 453.07 -2.16253 3.03791 0
M  V30 4691 N 455.255 -1.55392 -0.262866 0
M  V30 4692 C 456.501 -1.76737 -0.99458 0
M  V30 4693 C 456.834 -0.572453 -1.85571 0
M  V30 4694 O 456.109 0.429732 -1.89693 0
M  V30 4695 C 456.392 -3.07824 -1.8686 0
M  V30 4696 C 456.245 -4.3769 -1.03672 0
M  V30 4697 C 457.564 -3.35021 -2.85393 0
M  V30 4698 H 454.683 -0.643005 -0.360157 0
M  V30 4699 H 457.325 -1.88126 -0.266216 0
M  V30 4700 H 455.475 -2.98245 -2.48962 0
M  V30 4701 H 457.147 -4.59238 -0.43563 0
M  V30 4702 H 455.39 -4.32461 -0.340513 0
M  V30 4703 H 456.061 -5.25759 -1.6817 0
M  V30 4704 H 458.537 -3.44458 -2.33426 0
M  V30 4705 H 457.413 -4.27989 -3.43681 0
M  V30 4706 H 457.674 -2.55153 -3.61039 0
M  V30 4707 N 456.733 0.527833 -1.48498 0
M  V30 4708 C 458.01 1.28905 -1.47115 0
M  V30 4709 C 458.39 2.10297 -0.184007 0
M  V30 4710 O 457.738 2.12728 0.834218 0
M  V30 4711 C 457.948 2.16866 -2.73441 0
M  V30 4712 C 459.296 2.76936 -3.21857 0
M  V30 4713 O 460.32 2.27152 -2.74373 0
M  V30 4714 O 459.179 3.67496 -4.04486 0
M  V30 4715 H 456.273 0.581918 -0.587623 0
M  V30 4716 H 458.819 0.544311 -1.60734 0
M  V30 4717 H 457.591 1.56521 -3.58632 0
M  V30 4718 H 457.214 2.98583 -2.62553 0
M  V30 4719 N 458.211 1.37122 0.776871 0
M  V30 4720 C 459.457 1.32243 1.53752 0
M  V30 4721 C 459.79 -0.0944745 1.9397 0
M  V30 4722 O 459.065 -1.05068 1.6368 0
M  V30 4723 C 459.348 2.25681 2.80607 0
M  V30 4724 C 459.201 3.76127 2.46676 0
M  V30 4725 C 460.52 2.17657 3.82509 0
M  V30 4726 H 457.639 0.481704 0.557791 0
M  V30 4727 H 460.281 1.6778 0.891612 0
M  V30 4728 H 458.431 1.95505 3.35723 0
M  V30 4729 H 460.103 4.16877 1.97513 0
M  V30 4730 H 458.346 3.94946 1.79443 0
M  V30 4731 H 459.017 4.36933 3.37333 0
M  V30 4732 H 461.493 2.44245 3.36873 0
M  V30 4733 H 460.369 2.85185 4.69 0
M  V30 4734 H 460.63 1.16785 4.26396 0
M  V30 4735 N 459.689 -1.00246 1.21608 0
M  V30 4736 C 460.919 -1.77373 1.05935 0
M  V30 4737 C 461.327 -1.85059 -0.393686 0
M  V30 4738 O 460.67 -1.31289 -1.28487 0
M  V30 4739 C 460.732 -3.22705 1.58435 0
M  V30 4740 C 460.396 -3.38591 3.06929 0
M  V30 4741 C 461.393 -3.2667 4.04454 0
M  V30 4742 C 459.078 -3.6395 3.46187 0
M  V30 4743 C 461.072 -3.39877 5.39224 0
M  V30 4744 C 458.759 -3.768 4.81108 0
M  V30 4745 C 459.757 -3.6477 5.77436 0
M  V30 4746 O 459.445 -3.77206 7.09909 0
M  V30 4747 H 459.177 -0.56419 0.372378 0
M  V30 4748 H 461.731 -1.26971 1.61454 0
M  V30 4749 H 459.961 -3.74255 0.973147 0
M  V30 4750 H 461.65 -3.81515 1.38568 0
M  V30 4751 H 462.416 -3.06999 3.75468 0
M  V30 4752 H 458.295 -3.72395 2.71741 0
M  V30 4753 H 461.839 -3.30404 6.14393 0
M  V30 4754 H 457.736 -3.95975 5.09779 0
M  V30 4755 H 458.504 -3.94138 7.17355 0
M  V30 4756 N 461.167 -1.02423 -1.1978 0
M  V30 4757 C 462.397 -0.736387 -1.93031 0
M  V30 4758 C 462.805 0.708023 -1.75453 0
M  V30 4759 O 462.148 1.4927 -1.07071 0
M  V30 4760 C 462.21 -1.00194 -3.45255 0
M  V30 4761 C 461.874 -2.43698 -3.86601 0
M  V30 4762 C 462.871 -3.41814 -3.91738 0
M  V30 4763 C 460.556 -2.77975 -4.18372 0
M  V30 4764 C 462.55 -4.72265 -4.28071 0
M  V30 4765 C 460.237 -4.08636 -4.54378 0
M  V30 4766 C 461.235 -5.05592 -4.59201 0
M  V30 4767 O 460.923 -6.33914 -4.94376 0
M  V30 4768 H 460.655 -0.269116 -0.620123 0
M  V30 4769 H 463.209 -1.37043 -1.52998 0
M  V30 4770 H 461.439 -0.310747 -3.85449 0
M  V30 4771 H 463.128 -0.704488 -3.9974 0
M  V30 4772 H 463.894 -3.16671 -3.67348 0
M  V30 4773 H 459.773 -2.0319 -4.13805 0
M  V30 4774 H 463.317 -5.4794 -4.3175 0
M  V30 4775 H 459.214 -4.33556 -4.78226 0
M  V30 4776 H 459.982 -6.38317 -5.12341 0
M  V30 4777 N 462.645 1.35699 -0.801477 0
M  V30 4778 C 463.922 1.9324 -0.302937 0
M  V30 4779 C 464.302 1.73209 1.20672 0
M  V30 4780 O 463.65 1.09809 2.00385 0
M  V30 4781 C 463.86 3.41728 -0.708747 0
M  V30 4782 C 465.208 4.18868 -0.695328 0
M  V30 4783 O 466.232 3.5022 -0.649971 0
M  V30 4784 O 465.091 5.41342 -0.749081 0
M  V30 4785 H 462.185 0.82331 -0.0780367 0
M  V30 4786 H 464.731 1.44806 -0.884832 0
M  V30 4787 H 463.503 3.50015 -1.74944 0
M  V30 4788 H 463.126 3.97471 -0.101384 0
M  V30 4789 N 464.123 0.554532 1.47522 0
M  V30 4790 C 465.534 0.120446 1.86311 0
M  V30 4791 C 465.885 -1.30904 1.46145 0
M  V30 4792 O 465.01 -1.98434 0.863294 0
M  V30 4793 C 465.605 0.211808 3.38137 0
M  V30 4794 C 464.164 -0.167224 3.76028 0
M  V30 4795 C 463.311 0.560576 2.71575 0
M  V30 4796 H 466.262 0.764408 1.39077 0
M  V30 4797 H 466.283 -0.570275 3.76202 0
M  V30 4798 H 465.795 1.25232 3.6734 0
M  V30 4799 H 463.896 -1.20894 3.52442 0
M  V30 4800 H 464.009 0.189473 4.78725 0
M  V30 4801 H 462.373 0.00396836 2.547 0
M  V30 4802 H 463.156 1.60219 3.0362 0
M  V30 4803 N 465.601 -1.54893 0.290851 0
M  V30 4804 C 466.534 -2.19289 -0.631489 0
M  V30 4805 C 467.512 -1.15893 -1.14051 0
M  V30 4806 O 468.696 -1.4449 -1.21058 0
M  V30 4807 C 465.823 -2.82866 -1.86291 0
M  V30 4808 C 464.869 -3.997 -1.48801 0
M  V30 4809 S 465.702 -5.32641 -0.552644 0
M  V30 4810 C 466.858 -5.99696 -1.79209 0
M  V30 4811 H 467.091 -2.9718 -0.0843791 0
M  V30 4812 H 464.624 -1.54218 0.075031 0
M  V30 4813 H 466.582 -3.20124 -2.56964 0
M  V30 4814 H 465.243 -2.04839 -2.38117 0
M  V30 4815 H 464.436 -4.42932 -2.40473 0
M  V30 4816 H 464.038 -3.63947 -0.861321 0
M  V30 4817 H 466.33 -6.19886 -2.734 0
M  V30 4818 H 467.273 -6.94071 -1.40251 0
M  V30 4819 H 467.681 -5.29226 -1.96419 0
M  V30 4820 N 467.08 -0.0183926 -1.57589 0
M  V30 4821 C 468.328 0.661253 -1.90976 0
M  V30 4822 C 468.649 1.73281 -0.894353 0
M  V30 4823 O 467.919 1.9579 0.0656788 0
M  V30 4824 H 466.499 0.247233 -0.704901 0
M  V30 4825 H 469.161 -0.0636639 -1.94796 0
M  V30 4826 H 468.257 1.12083 -2.9128 0
M  V30 4827 N 468.558 1.5553 0.254621 0
M  V30 4828 C 469.506 1.9048 1.33492 0
M  V30 4829 C 470.5 0.78304 1.50216 0
M  V30 4830 O 471.706 0.967582 1.51782 0
M  V30 4831 H 468.081 0.604846 0.44684 0
M  V30 4832 H 470.052 2.80688 1.01275 0
M  V30 4833 C 468.801 2.20928 2.68489 0
M  V30 4834 H 468.124 3.06742 2.56417 0
M  V30 4835 H 469.564 2.49291 3.42972 0
M  V30 4836 C 468.023 1.023 3.20993 0
M  V30 4837 O 468.553 0.267027 4.00811 0
M  V30 4838 N 466.759 0.815714 2.78917 0
M  V30 4839 H 466.306 1.43217 2.14119 0
M  V30 4840 H 466.264 0.0236532 3.14391 0
M  V30 4841 N 470.036 -0.519951 1.48776 0
M  V30 4842 C 471.447 -1.10177 1.50725 0
M  V30 4843 C 471.798 -1.94153 0.282678 0
M  V30 4844 O 470.923 -2.07645 -0.609298 0
M  V30 4845 C 471.518 -2.00482 2.73116 0
M  V30 4846 C 470.077 -2.53862 2.77905 0
M  V30 4847 C 469.224 -1.31047 2.44381 0
M  V30 4848 H 472.175 -0.30473 1.55747 0
M  V30 4849 H 472.196 -2.8491 2.52203 0
M  V30 4850 H 471.708 -1.39335 3.62225 0
M  V30 4851 H 469.809 -3.18702 1.93029 0
M  V30 4852 H 469.922 -2.9231 3.79594 0
M  V30 4853 H 468.286 -1.62953 1.95751 0
M  V30 4854 H 469.069 -0.71637 3.35743 0
M  V30 4855 N 471.514 -1.37532 -0.769588 0
M  V30 4856 C 472.444 -1.36172 -1.89682 0
M  V30 4857 C 473.425 -0.23001 -1.68538 0
M  V30 4858 O 474.61 -0.43069 -1.89364 0
M  V30 4859 C 471.74 -1.1701 -3.26995 0
M  V30 4860 C 470.694 -2.27216 -3.62708 0
M  V30 4861 C 470.02 -1.93174 -4.98586 0
M  V30 4862 C 471.32 -3.6941 -3.69234 0
M  V30 4863 H 473.014 -2.30499 -1.91078 0
M  V30 4864 H 470.56 -1.10953 -0.917902 0
M  V30 4865 H 472.513 -1.14688 -4.05493 0
M  V30 4866 H 471.237 -0.191395 -3.26039 0
M  V30 4867 H 469.896 -2.28697 -2.86519 0
M  V30 4868 H 469.544 -0.938281 -4.94171 0
M  V30 4869 H 469.244 -2.66973 -5.23449 0
M  V30 4870 H 470.768 -1.92443 -5.79481 0
M  V30 4871 H 472.182 -3.70047 -4.37879 0
M  V30 4872 H 470.579 -4.4228 -4.05597 0
M  V30 4873 H 471.649 -4.0288 -2.69844 0
M  V30 4874 N 472.992 0.995999 -1.22138 0
M  V30 4875 C 474.269 1.70834 -0.952642 0
M  V30 4876 C 474.649 2.04257 0.533119 0
M  V30 4877 O 473.997 1.72343 1.50034 0
M  V30 4878 C 474.207 2.96119 -1.84701 0
M  V30 4879 C 475.555 3.68962 -2.10124 0
M  V30 4880 O 476.579 3.0612 -1.82124 0
M  V30 4881 O 475.438 4.82017 -2.57531 0
M  V30 4882 H 472.532 0.745498 -0.357997 0
M  V30 4883 H 475.078 1.05262 -1.33109 0
M  V30 4884 H 473.85 2.67898 -2.85213 0
M  V30 4885 H 473.473 3.6943 -1.46995 0
M  V30 4886 N 474.47 1.03057 1.19235 0
M  V30 4887 C 475.417 0.612832 2.22515 0
M  V30 4888 C 476.387 -0.374224 1.61829 0
M  V30 4889 O 477.572 -0.270501 1.88873 0
M  V30 4890 C 474.712 -0.028475 3.45088 0
M  V30 4891 C 473.825 1.00483 4.20151 0
M  V30 4892 C 472.96 0.333102 5.30155 0
M  V30 4893 C 471.999 1.3522 5.96977 0
M  V30 4894 N 471.136 0.70616 6.9854 0
M  V30 4895 H 475.976 1.49812 2.57605 0
M  V30 4896 H 473.513 0.749658 1.26564 0
M  V30 4897 H 475.471 -0.417548 4.15105 0
M  V30 4898 H 474.101 -0.877334 3.10649 0
M  V30 4899 H 473.153 1.51194 3.49062 0
M  V30 4900 H 474.465 1.77929 4.65986 0
M  V30 4901 H 473.619 -0.110725 6.06599 0
M  V30 4902 H 472.358 -0.473547 4.85396 0
M  V30 4903 H 471.363 1.80627 5.19282 0
M  V30 4904 H 472.588 2.16037 6.4382 0
M  V30 4905 H 470.534 -0.0803667 6.55951 0
M  V30 4906 H 470.451 1.41848 7.42573 0
M  V30 4907 H 471.719 0.286391 7.78974 0
M  V30 4908 N 475.948 -1.35272 0.808662 0
M  V30 4909 C 477.196 -1.98316 0.389233 0
M  V30 4910 C 477.517 -1.64465 -1.04767 0
M  V30 4911 O 476.787 -0.928175 -1.72516 0
M  V30 4912 H 475.367 -0.733585 0.140935 0
M  V30 4913 H 478.029 -1.6515 1.03496 0
M  V30 4914 H 477.125 -3.08123 0.496631 0
M  V30 4915 N 477.426 -0.562348 -1.47226 0
M  V30 4916 C 478.651 -0.0432632 -2.07355 0
M  V30 4917 C 479.076 1.24332 -1.41149 0
M  V30 4918 O 478.434 1.74603 -0.488226 0
M  V30 4919 C 478.482 0.130288 -3.60365 0
M  V30 4920 O 477.586 1.19166 -3.94808 0
M  V30 4921 H 476.927 -0.0536334 -0.66183 0
M  V30 4922 H 479.457 -0.779495 -1.89169 0
M  V30 4923 H 479.467 0.342881 -4.06557 0
M  V30 4924 H 478.142 -0.809389 -4.07948 0
M  V30 4925 H 476.719 0.959153 -3.60354 0
M  V30 4926 N 478.904 1.54736 -0.299062 0
M  V30 4927 C 480.181 1.92187 0.363802 0
M  V30 4928 C 480.561 1.22607 1.71845 0
M  V30 4929 O 479.909 0.361141 2.25628 0
M  V30 4930 C 480.119 3.45678 0.480377 0
M  V30 4931 C 481.467 4.17885 0.752147 0
M  V30 4932 O 482.491 3.51702 0.564264 0
M  V30 4933 O 481.35 5.35048 1.11294 0
M  V30 4934 H 478.444 0.801681 0.203066 0
M  V30 4935 H 480.99 1.66115 -0.346978 0
M  V30 4936 H 479.762 3.88443 -0.471999 0
M  V30 4937 H 479.385 3.77779 1.2397 0
M  V30 4938 N 480.382 0.0267497 1.57577 0
M  V30 4939 C 481.607 -0.666227 1.96408 0
M  V30 4940 C 482.032 -1.65004 0.903071 0
M  V30 4941 O 481.39 -1.80787 -0.136263 0
M  V30 4942 C 481.438 -1.35101 3.34335 0
M  V30 4943 O 480.542 -2.46623 3.30531 0
M  V30 4944 H 479.883 -0.175206 0.640468 0
M  V30 4945 H 482.413 0.0878977 2.04411 0
M  V30 4946 H 482.423 -1.70834 3.70513 0
M  V30 4947 H 481.098 -0.629844 4.11103 0
M  V30 4948 H 479.675 -2.13019 3.06068 0
M  V30 4949 N 481.861 -1.55662 -0.24637 0
M  V30 4950 C 483.107 -1.77782 -0.975779 0
M  V30 4951 C 483.44 -0.592103 -1.84953 0
M  V30 4952 O 482.715 0.409588 -1.90138 0
M  V30 4953 C 482.998 -3.09788 -1.83584 0
M  V30 4954 C 482.851 -4.38764 -0.990241 0
M  V30 4955 C 484.17 -3.38029 -2.81823 0
M  V30 4956 H 481.289 -0.646789 -0.353317 0
M  V30 4957 H 483.931 -1.88398 -0.246248 0
M  V30 4958 H 482.081 -3.00869 -2.45784 0
M  V30 4959 H 483.753 -4.59675 -0.386897 0
M  V30 4960 H 481.996 -4.32798 -0.294626 0
M  V30 4961 H 482.667 -5.27514 -1.62584 0
M  V30 4962 H 485.143 -3.46915 -2.2976 0
M  V30 4963 H 484.019 -4.3161 -3.39122 0
M  V30 4964 H 484.28 -2.58968 -3.58313 0
M  V30 4965 N 483.339 0.512053 -1.4905 0
M  V30 4966 C 484.585 1.26613 -1.59187 0
M  V30 4967 C 484.94 1.90494 -0.270163 0
M  V30 4968 O 484.233 1.77204 0.728648 0
M  V30 4969 C 484.427 2.36446 -2.68008 0
M  V30 4970 C 484.256 1.83334 -4.10632 0
M  V30 4971 C 483.026 1.65131 -4.77556 0
M  V30 4972 C 485.224 1.35153 -4.96224 0
M  V30 4973 N 483.206 1.06833 -6.04533 0
M  V30 4974 C 484.577 0.889186 -6.13591 0
M  V30 4975 C 486.632 1.23623 -4.82309 0
M  V30 4976 C 485.335 0.322953 -7.18575 0
M  V30 4977 C 487.361 0.683978 -5.87431 0
M  V30 4978 C 486.723 0.2318 -7.04018 0
M  V30 4979 H 482.822 0.453678 -0.636946 0
M  V30 4980 H 485.406 0.575217 -1.86009 0
M  V30 4981 H 483.577 3.03012 -2.42978 0
M  V30 4982 H 485.309 3.03485 -2.67729 0
M  V30 4983 H 482.064 1.89178 -4.34176 0
M  V30 4984 H 482.488 0.796425 -6.72299 0
M  V30 4985 H 487.13 1.57184 -3.92496 0
M  V30 4986 H 484.848 -0.024943 -8.08096 0
M  V30 4987 H 488.434 0.597694 -5.78722 0
M  V30 4988 H 487.314 -0.188869 -7.83973 0
M  V30 4989 N 484.817 1.37938 0.762283 0
M  V30 4990 C 485.765 1.34569 1.89721 0
M  V30 4991 C 486.759 0.232929 1.67791 0
M  V30 4992 O 487.965 0.401485 1.75465 0
M  V30 4993 H 484.34 0.419594 0.624055 0
M  V30 4994 H 486.311 2.30357 1.8968 0
M  V30 4995 C 485.06 1.17898 3.27101 0
M  V30 4996 H 484.383 2.02781 3.44558 0
M  V30 4997 H 485.823 1.19593 4.06784 0
M  V30 4998 C 484.282 -0.114728 3.36705 0
M  V30 4999 O 484.812 -1.0949 3.8649 0
M  V30 5000 N 483.018 -0.16863 2.9011 0
M  V30 5001 H 482.565 0.62967 2.49786 0
M  V30 5002 H 482.523 -1.03383 2.96916 0
M  V30 5003 N 486.295 -0.989507 1.22664 0
M  V30 5004 C 487.542 -1.72953 1.05325 0
M  V30 5005 C 487.87 -1.90104 -0.411168 0
M  V30 5006 O 487.125 -1.44386 -1.32103 0
M  V30 5007 C 487.424 -3.13649 1.71345 0
M  V30 5008 C 487.09 -3.16403 3.21248 0
M  V30 5009 C 485.752 -3.16862 3.62149 0
M  V30 5010 C 488.104 -3.12428 4.17179 0
M  V30 5011 C 485.432 -3.11051 4.97458 0
M  V30 5012 C 487.784 -3.08159 5.52468 0
M  V30 5013 C 486.448 -3.06935 5.92746 0
M  V30 5014 H 485.718 -0.632881 0.385412 0
M  V30 5015 H 488.365 -1.15863 1.52473 0
M  V30 5016 H 486.67 -3.74069 1.16532 0
M  V30 5017 H 488.367 -3.69658 1.55416 0
M  V30 5018 H 484.957 -3.16798 2.88682 0
M  V30 5019 H 489.141 -3.11221 3.86595 0
M  V30 5020 H 484.397 -3.0845 5.27891 0
M  V30 5021 H 488.571 -3.04039 6.26525 0
M  V30 5022 H 486.198 -3.02186 6.97558 0
M  V30 5023 N 487.773 -1.03688 -1.18687 0
M  V30 5024 C 488.723 -0.595067 -2.20098 0
M  V30 5025 C 489.707 0.360465 -1.5681 0
M  V30 5026 O 490.899 0.180136 -1.76081 0
M  V30 5027 C 488.028 0.0444495 -3.43271 0
M  V30 5028 C 487.114 -0.934002 -4.13687 0
M  V30 5029 N 487.505 -2.09957 -4.60165 0
M  V30 5030 C 485.803 -0.759177 -4.39491 0
M  V30 5031 C 486.504 -2.71735 -5.1433 0
M  V30 5032 N 485.48 -1.99638 -5.05614 0
M  V30 5033 H 489.282 -1.48336 -2.5372 0
M  V30 5034 H 486.796 -0.904949 -1.3485 0
M  V30 5035 H 488.793 0.37864 -4.15177 0
M  V30 5036 H 487.453 0.928325 -3.11147 0
M  V30 5037 H 488.464 -2.47863 -4.54735 0
M  V30 5038 H 485.141 0.0749292 -4.17433 0
M  V30 5039 H 486.531 -3.70492 -5.60523 0
M  V30 5040 N 489.251 1.34841 -0.815825 0
M  V30 5041 C 490.497 1.98793 -0.401129 0
M  V30 5042 C 490.83 1.64548 1.03139 0
M  V30 5043 O 490.105 0.913487 1.71714 0
M  V30 5044 C 490.388 3.55143 -0.595409 0
M  V30 5045 C 490.241 3.99155 -2.07352 0
M  V30 5046 C 491.56 4.40092 -0.0268823 0
M  V30 5047 H 488.679 0.722146 -0.14722 0
M  V30 5048 H 491.321 1.59847 -1.02707 0
M  V30 5049 H 489.471 3.8845 -0.0625779 0
M  V30 5050 H 491.143 3.76216 -2.66945 0
M  V30 5051 H 489.386 3.49726 -2.56659 0
M  V30 5052 H 490.057 5.07971 -2.1603 0
M  V30 5053 H 492.533 4.13298 -0.482042 0
M  V30 5054 H 491.409 5.48562 -0.19267 0
M  V30 5055 H 491.67 4.29016 1.06759 0
M  V30 5056 N 490.729 0.570148 1.46925 0
M  V30 5057 C 491.975 0.0593124 2.03314 0
M  V30 5058 C 492.33 -1.28139 1.43521 0
M  V30 5059 O 491.623 -1.82411 0.586245 0
M  V30 5060 C 491.817 -0.0780336 3.57315 0
M  V30 5061 C 491.646 1.2478 4.32042 0
M  V30 5062 C 490.416 1.81859 4.7144 0
M  V30 5063 C 492.614 2.16808 4.66368 0
M  V30 5064 N 490.596 3.08313 5.30864 0
M  V30 5065 C 491.967 3.27845 5.2623 0
M  V30 5066 C 494.022 2.16643 4.48297 0
M  V30 5067 C 492.725 4.38832 5.69929 0
M  V30 5068 C 494.751 3.26652 4.93004 0
M  V30 5069 C 494.113 4.36408 5.52926 0
M  V30 5070 H 490.212 0.0641804 0.779362 0
M  V30 5071 H 492.796 0.760285 1.79242 0
M  V30 5072 H 490.967 -0.748151 3.81126 0
M  V30 5073 H 492.699 -0.59211 4.00345 0
M  V30 5074 H 489.454 1.35502 4.53802 0
M  V30 5075 H 489.878 3.72802 5.65108 0
M  V30 5076 H 494.52 1.33065 4.01315 0
M  V30 5077 H 492.238 5.23162 6.15896 0
M  V30 5078 H 495.824 3.27627 4.80782 0
M  V30 5079 H 494.704 5.20127 5.86888 0
M  V30 5080 N 492.207 -1.54576 0.307264 0
M  V30 5081 C 493.155 -2.25208 -0.581723 0
M  V30 5082 C 494.149 -1.26031 -1.13192 0
M  V30 5083 O 495.355 -1.43862 -1.08184 0
M  V30 5084 H 491.73 -0.723173 -0.206214 0
M  V30 5085 H 493.701 -2.98378 0.0364663 0
M  V30 5086 C 492.45 -3.01086 -1.73904 0
M  V30 5087 H 491.773 -3.77208 -1.32491 0
M  V30 5088 H 493.213 -3.5378 -2.33701 0
M  V30 5089 C 491.672 -2.08422 -2.64692 0
M  V30 5090 O 492.202 -1.65636 -3.65961 0
M  V30 5091 N 490.408 -1.74247 -2.32564 0
M  V30 5092 H 489.955 -2.09238 -1.50257 0
M  V30 5093 H 489.913 -1.12524 -2.93574 0
M  V30 5094 N 493.685 -0.035106 -1.57561 0
M  V30 5095 C 494.595 0.960295 -2.14046 0
M  V30 5096 C 495.611 1.3529 -1.0942 0
M  V30 5097 O 496.787 1.43309 -1.41508 0
M  V30 5098 C 493.852 2.22214 -2.66124 0
M  V30 5099 C 492.913 1.8894 -3.85487 0
M  V30 5100 C 492.146 3.09109 -4.35072 0
M  V30 5101 O 492.369 4.21963 -3.83802 0
M  V30 5102 O 491.303 2.91058 -5.26848 0
M  V30 5103 H 495.129 0.509983 -2.99387 0
M  V30 5104 H 492.714 0.185853 -1.48239 0
M  V30 5105 H 494.596 2.96279 -2.99661 0
M  V30 5106 H 493.271 2.66414 -1.83862 0
M  V30 5107 H 492.178 1.12241 -3.56865 0
M  V30 5108 H 493.511 1.49551 -4.6893 0
M  V30 5109 N 495.163 1.55791 0.238111 0
M  V30 5110 C 496.411 1.77681 0.963001 0
M  V30 5111 C 496.732 0.600674 1.85518 0
M  V30 5112 O 496.002 -0.383182 1.92116 0
M  V30 5113 H 494.582 0.655315 0.358568 0
M  V30 5114 H 497.244 1.93239 0.253945 0
M  V30 5115 H 496.34 2.69177 1.57956 0
M  V30 5116 N 496.642 -0.504142 1.49319 0
M  V30 5117 C 497.888 -1.25767 1.59857 0
M  V30 5118 C 498.243 -1.90348 0.280262 0
M  V30 5119 O 497.536 -1.77588 -0.719241 0
M  V30 5120 C 497.73 -2.35021 2.69258 0
M  V30 5121 C 497.559 -1.81154 4.11598 0
M  V30 5122 C 496.329 -1.62596 4.78425 0
M  V30 5123 C 498.527 -1.3252 4.96934 0
M  V30 5124 N 496.509 -1.03625 6.05091 0
M  V30 5125 C 497.88 -0.856633 6.14054 0
M  V30 5126 C 499.935 -1.21063 4.82958 0
M  V30 5127 C 498.638 -0.284841 7.18736 0
M  V30 5128 C 500.664 -0.652815 5.87786 0
M  V30 5129 C 500.026 -0.194461 7.04132 0
M  V30 5130 H 496.125 -0.450293 0.639343 0
M  V30 5131 H 498.709 -0.565344 1.86311 0
M  V30 5132 H 496.88 -3.01719 2.44581 0
M  V30 5133 H 498.612 -3.02061 2.69335 0
M  V30 5134 H 495.367 -1.86873 4.35173 0
M  V30 5135 H 495.791 -0.76076 6.72712 0
M  V30 5136 H 500.433 -1.551 3.93324 0
M  V30 5137 H 498.151 0.0677979 8.08072 0
M  V30 5138 H 501.737 -0.566994 5.79031 0
M  V30 5139 H 500.617 0.230442 7.83861 0
M  V30 5140 N 498.12 -1.38341 -0.754957 0
M  V30 5141 C 499.367 -1.34473 -1.51404 0
M  V30 5142 C 499.695 0.0656458 -1.94389 0
M  V30 5143 O 498.95 1.04244 -1.65625 0
M  V30 5144 C 499.249 -2.2452 -2.78075 0
M  V30 5145 C 498.915 -3.72512 -2.54059 0
M  V30 5146 C 497.577 -4.1284 -2.47218 0
M  V30 5147 C 499.929 -4.66197 -2.33044 0
M  V30 5148 C 497.257 -5.44945 -2.17376 0
M  V30 5149 C 499.609 -5.98558 -2.04723 0
M  V30 5150 C 498.273 -6.37972 -1.96337 0
M  V30 5151 H 497.543 -0.492072 -0.554027 0
M  V30 5152 H 500.19 -1.70687 -0.868223 0
M  V30 5153 H 498.495 -1.81357 -3.473 0
M  V30 5154 H 500.192 -2.18832 -3.36026 0
M  V30 5155 H 496.782 -3.40538 -2.60253 0
M  V30 5156 H 500.966 -4.35888 -2.37309 0
M  V30 5157 H 496.222 -5.74426 -2.09391 0
M  V30 5158 H 500.396 -6.70693 -1.87465 0
M  V30 5159 H 498.023 -7.40258 -1.72978 0
M  V30 5160 N 499.598 0.982988 -1.23187 0
M  V30 5161 C 500.844 1.72648 -1.06398 0
M  V30 5162 C 501.177 1.90066 0.398561 0
M  V30 5163 O 500.452 1.45105 1.29518 0
M  V30 5164 C 500.735 3.12627 -1.78707 0
M  V30 5165 C 500.588 3.02795 -3.32618 0
M  V30 5166 C 501.907 4.11997 -1.54747 0
M  V30 5167 H 499.026 0.626649 -0.387918 0
M  V30 5168 H 501.668 1.14455 -1.51658 0
M  V30 5169 H 499.818 3.62308 -1.40234 0
M  V30 5170 H 501.49 2.60659 -3.80598 0
M  V30 5171 H 499.733 2.39362 -3.61785 0
M  V30 5172 H 500.404 4.01893 -3.78399 0
M  V30 5173 H 502.88 3.71114 -1.88186 0
M  V30 5174 H 501.756 5.08037 -2.07821 0
M  V30 5175 H 502.017 4.39462 -0.482249 0
M  V30 5176 N 501.076 1.04316 1.18135 0
M  V30 5177 C 502.492 0.762858 1.40188 0
M  V30 5178 C 502.692 -0.646547 1.90846 0
M  V30 5179 O 501.748 -1.41036 2.0944 0
M  V30 5180 C 503.061 1.81106 2.40044 0
M  V30 5181 C 504.609 1.83226 2.53766 0
M  V30 5182 C 505.084 2.87044 3.56889 0
M  V30 5183 N 506.575 2.85951 3.64398 0
M  V30 5184 C 507.31 3.62932 4.43923 0
M  V30 5185 N 506.806 4.49672 5.27036 0
M  V30 5186 N 508.599 3.51411 4.38711 0
M  V30 5187 H 500.75 1.95264 0.835805 0
M  V30 5188 H 503.013 0.845017 0.429709 0
M  V30 5189 H 502.719 2.82214 2.09876 0
M  V30 5190 H 502.593 1.64529 3.39426 0
M  V30 5191 H 504.98 0.827869 2.8325 0
M  V30 5192 H 505.061 2.03879 1.54489 0
M  V30 5193 H 504.705 3.87663 3.28145 0
M  V30 5194 H 504.635 2.63645 4.5585 0
M  V30 5195 H 507.126 2.23051 3.05052 0
M  V30 5196 H 507.439 5.05116 5.84874 0
M  V30 5197 H 505.784 4.53738 5.26447 0
M  V30 5198 H 508.975 2.83047 3.72829 0
M  V30 5199 H 509.148 4.11654 5.00445 0
M  V30 5200 N 502.554 -1.34406 0.822964 0
M  V30 5201 C 503.779 -2.0304 0.423034 0
M  V30 5202 C 504.204 -1.61568 -0.963196 0
M  V30 5203 O 503.562 -0.800339 -1.62678 0
M  V30 5204 C 503.61 -3.56636 0.53321 0
M  V30 5205 O 502.714 -4.09971 -0.446939 0
M  V30 5206 H 502.055 -0.64075 0.174171 0
M  V30 5207 H 504.585 -1.71653 1.11339 0
M  V30 5208 H 504.595 -4.05945 0.408991 0
M  V30 5209 H 503.27 -3.86168 1.54425 0
M  V30 5210 H 501.847 -3.71835 -0.281601 0
M  V30 5211 N 504.032 -0.577932 -1.46621 0
M  V30 5212 C 505.309 0.00495287 -1.95599 0
M  V30 5213 C 505.689 1.46428 -1.5206 0
M  V30 5214 O 505.037 2.1517 -0.769046 0
M  V30 5215 C 505.247 -0.162114 -3.48623 0
M  V30 5216 C 506.595 -0.0274623 -4.24591 0
M  V30 5217 O 507.619 -0.0907067 -3.56084 0
M  V30 5218 O 506.478 0.1122 -5.46385 0
M  V30 5219 H 503.572 0.0525057 -0.825332 0
M  V30 5220 H 506.118 -0.645914 -1.56927 0
M  V30 5221 H 504.89 -1.17679 -3.73185 0
M  V30 5222 H 504.513 0.525407 -3.94113 0
M  V30 5223 N 505.51 1.54411 -0.315457 0
M  V30 5224 C 506.44 2.27002 0.547039 0
M  V30 5225 C 507.421 1.27492 1.12605 0
M  V30 5226 O 508.606 1.5629 1.15269 0
M  V30 5227 C 505.736 3.02171 1.71201 0
M  V30 5228 C 504.69 4.0895 1.26268 0
M  V30 5229 C 504.016 4.71915 2.51396 0
M  V30 5230 C 505.316 5.20891 0.383419 0
M  V30 5231 H 507.01 2.99343 -0.0584517 0
M  V30 5232 H 504.556 1.4397 -0.0295527 0
M  V30 5233 H 506.509 3.51681 2.32161 0
M  V30 5234 H 505.233 2.27433 2.34397 0
M  V30 5235 H 503.892 3.60312 0.676062 0
M  V30 5236 H 503.54 3.93801 3.12937 0
M  V30 5237 H 503.24 5.44039 2.22026 0
M  V30 5238 H 504.764 5.24195 3.13133 0
M  V30 5239 H 506.178 5.66206 0.899082 0
M  V30 5240 H 504.575 5.99821 0.182857 0
M  V30 5241 H 505.645 4.81324 -0.587821 0
M  V30 5242 N 506.988 0.0434614 1.5754 0
M  V30 5243 C 508.236 -0.630786 1.92004 0
M  V30 5244 C 508.557 -1.71836 0.921807 0
M  V30 5245 O 507.827 -1.9587 -0.034522 0
M  V30 5246 H 506.407 -0.235988 0.708745 0
M  V30 5247 H 509.069 0.0946462 1.9467 0
M  V30 5248 H 508.165 -1.07434 2.93026 0
M  V30 5249 N 508.466 -1.55915 -0.229846 0
M  V30 5250 C 509.877 -1.68809 -0.797531 0
M  V30 5251 C 510.228 -0.643995 -1.8533 0
M  V30 5252 O 509.353 0.206492 -2.15413 0
M  V30 5253 C 509.948 -3.06043 -1.45338 0
M  V30 5254 C 508.507 -3.20819 -1.96856 0
M  V30 5255 C 507.654 -2.6472 -0.825736 0
M  V30 5256 H 510.605 -1.58699 -0.00533733 0
M  V30 5257 H 510.626 -3.01438 -2.32196 0
M  V30 5258 H 510.138 -3.82012 -0.684743 0
M  V30 5259 H 508.239 -2.49704 -2.76548 0
M  V30 5260 H 508.352 -4.27937 -2.15423 0
M  V30 5261 H 506.716 -2.22985 -1.23084 0
M  V30 5262 H 507.499 -3.43229 -0.0699019 0
M  V30 5263 N 509.944 0.496216 -1.49584 0
M  V30 5264 C 511.169 1.27865 -1.63295 0
M  V30 5265 C 511.594 1.85592 -0.306156 0
M  V30 5266 O 510.952 1.66092 0.726851 0
M  V30 5267 C 511 2.38128 -2.7079 0
M  V30 5268 O 510.104 3.42108 -2.30296 0
M  V30 5269 H 509.445 0.377279 -0.546403 0
M  V30 5270 H 511.975 0.593497 -1.95803 0
M  V30 5271 H 511.985 2.8382 -2.93104 0
M  V30 5272 H 510.66 1.95479 -3.67098 0
M  V30 5273 H 509.237 3.02301 -2.18331 0
M  V30 5274 N 511.423 1.38739 0.74761 0
M  V30 5275 C 512.653 1.3832 1.53464 0
M  V30 5276 C 513.061 -0.0273464 1.8918 0
M  V30 5277 O 512.404 -1.00588 1.53713 0
M  V30 5278 C 512.466 2.18007 2.85855 0
M  V30 5279 C 512.13 3.66762 2.72644 0
M  V30 5280 C 513.127 4.60124 2.42037 0
M  V30 5281 C 510.812 4.10193 2.89909 0
M  V30 5282 C 512.806 5.94897 2.28859 0
M  V30 5283 C 510.493 5.45045 2.7635 0
M  V30 5284 C 511.491 6.37211 2.45869 0
M  V30 5285 O 511.179 7.69581 2.3238 0
M  V30 5286 H 510.911 0.474718 0.481268 0
M  V30 5287 H 513.465 1.83012 0.932518 0
M  V30 5288 H 511.695 1.68043 3.48279 0
M  V30 5289 H 513.384 2.09921 3.47402 0
M  V30 5290 H 514.15 4.27874 2.28361 0
M  V30 5291 H 510.029 3.38797 3.1263 0
M  V30 5292 H 513.573 6.66802 2.04989 0
M  V30 5293 H 509.47 5.76889 2.89601 0
M  V30 5294 H 510.238 7.80169 2.47546 0
M  V30 5295 N 512.901 -0.976442 1.23707 0
M  V30 5296 C 514.149 -1.71487 1.06942 0
M  V30 5297 C 514.47 -1.9098 -0.393897 0
M  V30 5298 O 513.74 -1.48128 -1.28198 0
M  V30 5299 H 512.32 -0.635425 0.392739 0
M  V30 5300 H 514.982 -1.17515 1.55487 0
M  V30 5301 H 514.078 -2.70286 1.56051 0
M  V30 5302 N 514.379 -1.04941 -1.1758 0
M  V30 5303 C 515.627 -0.756492 -1.87408 0
M  V30 5304 C 515.948 0.718478 -1.81281 0
M  V30 5305 O 515.218 1.519 -1.23706 0
M  V30 5306 H 513.798 -0.276841 -0.693807 0
M  V30 5307 H 516.46 -1.32803 -1.42652 0
M  V30 5308 H 515.556 -1.06918 -2.93215 0
M  V30 5309 N 515.857 1.33968 -0.830081 0
M  V30 5310 C 517.103 1.98773 -0.431394 0
M  V30 5311 C 517.458 1.64598 0.99626 0
M  V30 5312 O 516.751 0.911022 1.68555 0
M  V30 5313 C 516.945 3.52679 -0.57898 0
M  V30 5314 C 516.774 4.01807 -2.01943 0
M  V30 5315 C 515.544 4.30062 -2.65282 0
M  V30 5316 C 517.742 4.18663 -2.98707 0
M  V30 5317 N 515.724 4.65272 -4.00493 0
M  V30 5318 C 517.095 4.57133 -4.18843 0
M  V30 5319 C 519.15 4.00929 -2.95229 0
M  V30 5320 C 517.853 4.79723 -5.35965 0
M  V30 5321 C 519.879 4.2469 -4.11573 0
M  V30 5322 C 519.241 4.63454 -5.30462 0
M  V30 5323 H 515.34 0.75435 -0.206107 0
M  V30 5324 H 517.924 1.62247 -1.07629 0
M  V30 5325 H 516.095 3.88383 0.0360632 0
M  V30 5326 H 517.827 4.04412 -0.152596 0
M  V30 5327 H 514.582 4.21231 -2.16475 0
M  V30 5328 H 515.006 4.87101 -4.70172 0
M  V30 5329 H 519.648 3.70082 -2.04448 0
M  V30 5330 H 517.366 5.09434 -6.27297 0
M  V30 5331 H 520.952 4.12497 -4.10289 0
M  V30 5332 H 519.832 4.81476 -6.18992 0
M  V30 5333 N 517.335 0.585699 1.46312 0
M  V30 5334 C 518.267 -0.183687 2.28463 0
M  V30 5335 C 519.28 -0.85264 1.38686 0
M  V30 5336 O 520.469 -0.721701 1.6326 0
M  V30 5337 C 517.569 -1.27977 3.13808 0
M  V30 5338 C 516.742 -0.702164 4.31727 0
M  V30 5339 C 515.801 -1.68633 4.98447 0
M  V30 5340 O 514.827 -1.22121 5.55945 0
M  V30 5341 N 516.029 -3.02047 4.95729 0
M  V30 5342 H 518.794 0.521127 2.95134 0
M  V30 5343 H 516.355 0.423673 1.56258 0
M  V30 5344 H 518.347 -1.9375 3.55307 0
M  V30 5345 H 516.917 -1.8874 2.4919 0
M  V30 5346 H 516.137 0.1331 3.93975 0
M  V30 5347 H 517.425 -0.296101 5.07938 0
M  V30 5348 H 516.823 -3.42457 4.50266 0
M  V30 5349 H 515.38 -3.63301 5.41161 0
M  V30 5350 N 518.813 -1.54241 0.323641 0
M  V30 5351 C 520.059 -2.00867 -0.279323 0
M  V30 5352 C 520.392 -1.21146 -1.5178 0
M  V30 5353 O 519.667 -0.29378 -1.92269 0
M  V30 5354 C 519.95 -3.54837 -0.613387 0
M  V30 5355 C 519.803 -4.45284 0.635803 0
M  V30 5356 C 521.122 -4.16186 -1.43099 0
M  V30 5357 H 518.241 -0.730177 -0.100049 0
M  V30 5358 H 520.883 -1.84829 0.440235 0
M  V30 5359 H 519.033 -3.68634 -1.22641 0
M  V30 5360 H 520.705 -4.43357 1.27406 0
M  V30 5361 H 518.948 -4.14956 1.26466 0
M  V30 5362 H 519.619 -5.5084 0.357597 0
M  V30 5363 H 522.095 -4.05964 -0.912814 0
M  V30 5364 H 520.971 -5.24031 -1.6335 0
M  V30 5365 H 521.232 -3.69516 -2.42715 0
M  V30 5366 N 520.291 -0.0518155 -1.57515 0
M  V30 5367 C 521.221 0.920283 -2.146 0
M  V30 5368 C 522.202 1.32406 -1.06783 0
M  V30 5369 O 523.387 1.39866 -1.34726 0
M  V30 5370 C 520.517 2.1949 -2.6915 0
M  V30 5371 C 519.471 1.93116 -3.81956 0
M  V30 5372 C 518.797 3.27037 -4.23026 0
M  V30 5373 C 520.097 1.25225 -5.07066 0
M  V30 5374 H 521.791 0.444801 -2.96077 0
M  V30 5375 H 519.337 0.212508 -1.42423 0
M  V30 5376 H 521.29 2.87894 -3.07725 0
M  V30 5377 H 520.014 2.69244 -1.84865 0
M  V30 5378 H 518.673 1.27123 -3.43854 0
M  V30 5379 H 518.321 3.74595 -3.3569 0
M  V30 5380 H 518.021 3.10189 -4.99056 0
M  V30 5381 H 519.545 3.96673 -4.64202 0
M  V30 5382 H 520.959 1.83666 -5.43083 0
M  V30 5383 H 519.356 1.18702 -5.88243 0
M  V30 5384 H 520.426 0.228382 -4.84362 0
M  V30 5385 N 521.769 1.56035 0.221574 0
M  V30 5386 C 523.046 1.69837 0.970301 0
M  V30 5387 C 523.426 0.599065 2.02421 0
M  V30 5388 O 522.774 -0.393929 2.25079 0
M  V30 5389 C 522.984 3.11148 1.58076 0
M  V30 5390 C 524.332 3.70555 2.07302 0
M  V30 5391 O 525.356 3.14109 1.6797 0
M  V30 5392 O 524.215 4.69562 2.79596 0
M  V30 5393 H 521.309 0.691727 0.453257 0
M  V30 5394 H 523.855 1.68353 0.213358 0
M  V30 5395 H 522.627 3.82617 0.819759 0
M  V30 5396 H 522.25 3.16749 2.40324 0
M  V30 5397 N 523.247 -0.488276 1.49845 0
M  V30 5398 C 524.21 -1.57069 1.66919 0
M  V30 5399 C 525.21 -1.51445 0.540479 0
M  V30 5400 O 526.4 -1.5437 0.807188 0
M  V30 5401 C 523.532 -2.96718 1.67844 0
M  V30 5402 H 524.725 -1.43254 2.63474 0
M  V30 5403 H 522.278 -0.713435 1.39068 0
M  V30 5404 H 523.013 -3.15996 0.7292 0
M  V30 5405 H 522.798 -3.02208 2.49826 0
M  V30 5406 H 524.288 -3.75335 1.83066 0
M  V30 5407 N 524.725 -1.39134 -0.740242 0
M  V30 5408 C 525.953 -1.39334 -1.5295 0
M  V30 5409 C 526.368 0.0135008 -1.88795 0
M  V30 5410 O 525.725 0.983524 -1.5373 0
M  V30 5411 C 525.776 -2.2614 -2.82034 0
M  V30 5412 O 525.497 -3.61345 -2.47712 0
M  V30 5413 C 526.998 -2.34666 -3.76094 0
M  V30 5414 H 524.218 -0.476103 -0.472828 0
M  V30 5415 H 526.762 -1.82883 -0.9151 0
M  V30 5416 H 524.917 -1.86018 -3.39818 0
M  V30 5417 H 525.331 -4.07194 -3.30595 0
M  V30 5418 H 526.805 -2.99663 -4.63579 0
M  V30 5419 H 527.282 -1.36426 -4.17474 0
M  V30 5420 H 527.888 -2.75236 -3.2423 0
M  V30 5421 N 526.204 0.969867 -1.24223 0
M  V30 5422 C 527.615 1.52717 -1.07399 0
M  V30 5423 C 527.966 1.92956 0.355298 0
M  V30 5424 O 527.091 1.77112 1.2434 0
M  V30 5425 C 527.686 2.77521 -1.94339 0
M  V30 5426 C 526.245 3.29615 -1.81744 0
M  V30 5427 C 525.392 2.02537 -1.89405 0
M  V30 5428 H 528.343 0.788399 -1.37732 0
M  V30 5429 H 528.364 3.50773 -1.47439 0
M  V30 5430 H 527.876 2.48203 -2.98357 0
M  V30 5431 H 525.977 3.63789 -0.805505 0
M  V30 5432 H 526.09 3.98661 -2.65718 0
M  V30 5433 H 524.454 2.17151 -1.33108 0
M  V30 5434 H 525.237 1.75587 -2.94999 0
M  V30 5435 N 527.682 1.05563 1.17022 0
M  V30 5436 C 528.614 0.617888 2.20714 0
M  V30 5437 C 529.627 -0.320303 1.59618 0
M  V30 5438 O 530.816 -0.112449 1.78145 0
M  V30 5439 C 527.916 -0.115333 3.38704 0
M  V30 5440 C 527.089 0.834493 4.29366 0
M  V30 5441 C 526.148 0.141855 5.26009 0
M  V30 5442 O 525.174 0.777151 5.6387 0
M  V30 5443 N 526.376 -1.11934 5.69606 0
M  V30 5444 H 529.141 1.50981 2.58892 0
M  V30 5445 H 526.702 0.938008 1.31958 0
M  V30 5446 H 528.694 -0.588918 4.00392 0
M  V30 5447 H 527.264 -0.908967 2.99093 0
M  V30 5448 H 526.484 1.48762 3.65053 0
M  V30 5449 H 527.772 1.4791 4.86827 0
M  V30 5450 H 527.17 -1.65574 5.40927 0
M  V30 5451 H 525.727 -1.53692 6.33421 0
M  V30 5452 N 529.16 -1.33526 0.837174 0
M  V30 5453 C 530.07 -2.33023 0.271568 0
M  V30 5454 C 531.086 -1.63272 -0.601514 0
M  V30 5455 O 532.262 -1.94939 -0.506038 0
M  V30 5456 C 529.327 -3.42382 -0.545448 0
M  V30 5457 C 528.388 -4.27857 0.351709 0
M  V30 5458 C 527.621 -5.31994 -0.426409 0
M  V30 5459 O 527.844 -5.45763 -1.65828 0
M  V30 5460 O 526.778 -6.01572 0.1987 0
M  V30 5461 H 530.604 -2.83256 1.09545 0
M  V30 5462 H 528.189 -1.36837 0.599655 0
M  V30 5463 H 530.071 -4.09122 -1.00979 0
M  V30 5464 H 528.746 -2.94369 -1.34641 0
M  V30 5465 H 527.653 -3.6399 0.863853 0
M  V30 5466 H 528.986 -4.79349 1.1174 0
M  V30 5467 N 530.638 -0.59345 -1.46 0
M  V30 5468 C 532.054 -0.255965 -1.57534 0
M  V30 5469 C 532.254 1.24167 -1.58697 0
M  V30 5470 O 531.31 2.02398 -1.50968 0
M  V30 5471 C 532.623 -0.91466 -2.86451 0
M  V30 5472 C 534.171 -0.889253 -3.00102 0
M  V30 5473 C 534.646 -1.52769 -4.3177 0
M  V30 5474 N 536.137 -1.49253 -4.38495 0
M  V30 5475 C 536.872 -1.9558 -5.39014 0
M  V30 5476 N 536.368 -2.49929 -6.46148 0
M  V30 5477 N 538.161 -1.86432 -5.30282 0
M  V30 5478 H 530.312 -1.56604 -1.43489 0
M  V30 5479 H 532.575 -0.655207 -0.685133 0
M  V30 5480 H 532.281 -1.96861 -2.91442 0
M  V30 5481 H 532.155 -0.429356 -3.74748 0
M  V30 5482 H 534.542 0.156111 -2.94687 0
M  V30 5483 H 534.623 -1.41268 -2.13253 0
M  V30 5484 H 534.267 -2.57231 -4.37944 0
M  V30 5485 H 534.197 -0.979398 -5.17412 0
M  V30 5486 H 536.688 -1.09536 -3.61677 0
M  V30 5487 H 537.001 -2.83109 -7.19075 0
M  V30 5488 H 535.346 -2.53961 -6.46938 0
M  V30 5489 H 538.537 -1.43722 -4.4549 0
M  V30 5490 H 538.71 -2.22852 -6.08474 0
M  V30 5491 N 532.116 1.54067 -0.331816 0
M  V30 5492 C 533.341 2.05599 0.272705 0
M  V30 5493 C 533.766 1.2059 1.44359 0
M  V30 5494 O 533.124 0.216907 1.79998 0
M  V30 5495 C 533.172 3.54188 0.677021 0
M  V30 5496 O 532.276 3.72082 1.77844 0
M  V30 5497 H 531.617 0.662286 0.0476801 0
M  V30 5498 H 534.147 1.98826 -0.482624 0
M  V30 5499 H 534.157 3.96608 0.957415 0
M  V30 5500 H 532.832 4.15513 -0.179325 0
M  V30 5501 H 531.409 3.41566 1.49622 0
M  V30 5502 N 533.594 0.0601682 1.57485 0
M  V30 5503 C 534.526 -0.94047 2.09016 0
M  V30 5504 C 535.539 -1.26897 1.01985 0
M  V30 5505 O 536.728 -1.22819 1.29529 0
M  V30 5506 C 533.828 -2.25955 2.52582 0
M  V30 5507 C 533.001 -2.11163 3.83052 0
M  V30 5508 C 532.06 -3.26273 4.12835 0
M  V30 5509 O 531.086 -3.01779 4.82616 0
M  V30 5510 N 532.288 -4.51022 3.65458 0
M  V30 5511 H 535.053 -0.500578 2.9549 0
M  V30 5512 H 532.614 -0.125852 1.6141 0
M  V30 5513 H 534.606 -3.01846 2.69575 0
M  V30 5514 H 533.176 -2.61481 1.71308 0
M  V30 5515 H 532.396 -1.19808 3.75552 0
M  V30 5516 H 533.684 -1.98517 4.68475 0
M  V30 5517 H 533.082 -4.73811 3.09062 0
M  V30 5518 H 531.639 -5.23978 3.87673 0
M  V30 5519 N 535.072 -1.5615 -0.213296 0
M  V30 5520 C 536.32 -1.79191 -0.934612 0
M  V30 5521 C 536.641 -0.630112 -1.84539 0
M  V30 5522 O 535.911 0.35257 -1.92701 0
M  V30 5523 H 534.491 -0.660937 -0.348097 0
M  V30 5524 H 537.153 -1.93618 -0.22317 0
M  V30 5525 H 536.249 -2.71656 -1.53654 0
M  V30 5526 N 536.55 0.480323 -1.50102 0
M  V30 5527 C 537.796 1.23489 -1.60867 0
M  V30 5528 C 538.129 1.91809 -0.303827 0
M  V30 5529 O 537.404 1.81694 0.694092 0
M  V30 5530 C 537.687 2.28578 -2.78252 0
M  V30 5531 C 537.54 1.64624 -4.18592 0
M  V30 5532 C 538.859 3.2997 -2.91218 0
M  V30 5533 H 535.978 0.447605 -0.585507 0
M  V30 5534 H 538.62 0.530005 -1.82458 0
M  V30 5535 H 536.77 2.88697 -2.59974 0
M  V30 5536 H 538.442 1.08173 -4.48438 0
M  V30 5537 H 536.685 0.949645 -4.23278 0
M  V30 5538 H 537.356 2.40946 -4.96638 0
M  V30 5539 H 539.832 2.79864 -3.07921 0
M  V30 5540 H 538.708 4.00839 -3.74993 0
M  V30 5541 H 538.969 3.93541 -2.0144 0
M  V30 5542 N 538.028 1.39524 0.732853 0
M  V30 5543 C 539.275 1.36865 1.49246 0
M  V30 5544 C 539.603 -0.0347118 1.94469 0
M  V30 5545 O 538.858 -1.01596 1.67262 0
M  V30 5546 C 539.157 2.28916 2.74468 0
M  V30 5547 C 538.823 3.76506 2.481 0
M  V30 5548 C 537.485 4.16721 2.40619 0
M  V30 5549 C 539.837 4.69846 2.25598 0
M  V30 5550 C 537.165 5.48334 2.08679 0
M  V30 5551 C 539.517 6.01739 1.95174 0
M  V30 5552 C 538.181 6.41015 1.86163 0
M  V30 5553 H 537.451 0.500824 0.546129 0
M  V30 5554 H 540.098 1.72047 0.840958 0
M  V30 5555 H 538.403 1.86859 3.4437 0
M  V30 5556 H 540.1 2.2415 3.32502 0
M  V30 5557 H 536.69 3.44635 2.54803 0
M  V30 5558 H 540.874 4.39608 2.30344 0
M  V30 5559 H 536.13 5.77685 2.00226 0
M  V30 5560 H 540.304 6.73591 1.76771 0
M  V30 5561 H 537.931 7.42917 1.61179 0
M  V30 5562 N 539.506 -0.963266 1.24736 0
M  V30 5563 C 540.438 -2.06162 1.0015 0
M  V30 5564 C 541.451 -1.62771 -0.0305905 0
M  V30 5565 O 542.64 -1.77296 0.206966 0
M  V30 5566 C 539.74 -3.35333 0.490385 0
M  V30 5567 C 538.913 -4.07609 1.58663 0
M  V30 5568 C 537.972 -5.15052 1.0774 0
M  V30 5569 O 536.998 -5.4098 1.77002 0
M  V30 5570 N 538.2 -5.80436 -0.0858605 0
M  V30 5571 H 540.965 -2.27825 1.94719 0
M  V30 5572 H 538.526 -1.13121 1.15825 0
M  V30 5573 H 540.518 -4.04477 0.134371 0
M  V30 5574 H 539.088 -3.10507 -0.361155 0
M  V30 5575 H 538.308 -3.32681 2.11463 0
M  V30 5576 H 539.596 -4.52656 2.32336 0
M  V30 5577 H 538.994 -5.6178 -0.664806 0
M  V30 5578 H 537.551 -6.50674 -0.382981 0
M  V30 5579 N 540.985 -1.06182 -1.16461 0
M  V30 5580 C 542.225 -0.787048 -1.8864 0
M  V30 5581 C 542.589 0.674093 -1.79778 0
M  V30 5582 O 543.79 1.06341 -2.46871 0
M  V30 5583 C 542.061 -1.2666 -3.34203 0
M  V30 5584 S 543.62 -1.12071 -4.24247 0
M  V30 5585 H 540.438 -0.285539 -0.651144 0
M  V30 5586 H 543.04 -1.35851 -1.40587 0
M  V30 5587 H 541.744 -2.32496 -3.38192 0
M  V30 5588 H 541.275 -0.689841 -3.87304 0
M  V30 5589 H 543.29 -0.0509341 -4.96174 0
M  V30 5590 N 542.463 1.3308 -0.844243 0
M  V30 5591 C 543.711 1.97215 -0.441676 0
M  V30 5592 C 544.032 1.67185 1.0037 0
M  V30 5593 O 543.302 0.973588 1.69994 0
M  V30 5594 H 541.882 0.72959 -0.160335 0
M  V30 5595 H 544.544 1.62348 -1.07838 0
M  V30 5596 H 543.64 3.06698 -0.57815 0
M  V30 5597 N 543.941 0.601185 1.45683 0
M  V30 5598 C 545.352 0.179659 1.85834 0
M  V30 5599 C 545.703 -1.26189 1.50236 0
M  V30 5600 O 544.828 -1.95587 0.925987 0
M  V30 5601 C 545.423 0.319277 3.37292 0
M  V30 5602 C 543.982 -0.0475092 3.7637 0
M  V30 5603 C 543.129 0.646692 2.69654 0
M  V30 5604 H 546.08 0.808268 1.36575 0
M  V30 5605 H 546.101 -0.4503 3.77826 0
M  V30 5606 H 545.613 1.36855 3.6317 0
M  V30 5607 H 543.714 -1.0962 3.5611 0
M  V30 5608 H 543.827 0.34168 4.7788 0
M  V30 5609 H 542.191 0.0849971 2.54558 0
M  V30 5610 H 542.974 1.69797 2.98369 0
M  V30 5611 N 545.419 -1.53889 0.339982 0
M  V30 5612 C 546.382 -2.23547 -0.50592 0
M  V30 5613 C 547.382 -1.23445 -1.03044 0
M  V30 5614 O 548.572 -1.47909 -0.920253 0
M  V30 5615 C 545.704 -2.95234 -1.7044 0
M  V30 5616 H 546.897 -2.99722 0.103247 0
M  V30 5617 H 544.45 -1.56033 0.0912804 0
M  V30 5618 H 545.185 -2.23236 -2.35236 0
M  V30 5619 H 544.97 -3.68654 -1.33553 0
M  V30 5620 H 546.46 -3.48258 -2.30447 0
M  V30 5621 N 546.897 -0.0685191 -1.57451 0
M  V30 5622 C 548.122 0.613919 -1.98106 0
M  V30 5623 C 548.547 1.62551 -0.946501 0
M  V30 5624 O 547.905 1.81085 0.0882824 0
M  V30 5625 C 547.953 1.26189 -3.378 0
M  V30 5626 O 547.057 2.37773 -3.36954 0
M  V30 5627 H 546.398 0.158163 -0.644888 0
M  V30 5628 H 548.928 -0.142063 -2.04106 0
M  V30 5629 H 548.938 1.60951 -3.74912 0
M  V30 5630 H 547.613 0.520625 -4.12629 0
M  V30 5631 H 546.19 2.04829 -3.11608 0
M  V30 5632 N 548.375 1.56261 0.205012 0
M  V30 5633 C 549.621 1.80306 0.9283 0
M  V30 5634 C 549.954 0.640932 1.83319 0
M  V30 5635 O 549.229 -0.359032 1.91158 0
M  V30 5636 C 549.512 3.14547 1.75306 0
M  V30 5637 C 549.365 4.41236 0.873562 0
M  V30 5638 C 550.684 3.45382 2.72762 0
M  V30 5639 H 547.803 0.655929 0.336044 0
M  V30 5640 H 550.445 1.88984 0.196211 0
M  V30 5641 H 548.595 3.0728 2.37721 0
M  V30 5642 H 550.267 4.60539 0.264887 0
M  V30 5643 H 548.51 4.33427 0.179773 0
M  V30 5644 H 549.181 5.31639 1.48541 0
M  V30 5645 H 551.657 3.52884 2.20481 0
M  V30 5646 H 550.533 4.40449 3.2756 0
M  V30 5647 H 550.794 2.68377 3.51321 0
M  V30 5648 N 549.853 -0.472356 1.50355 0
M  V30 5649 C 551.102 -1.2213 1.60522 0
M  V30 5650 C 551.415 -1.9312 0.310466 0
M  V30 5651 O 552.621 -2.69936 0.291029 0
M  V30 5652 C 551.077 -2.21909 2.83345 0
M  V30 5653 C 550.685 -1.56727 4.19691 0
M  V30 5654 C 552.429 -2.97453 3.02856 0
M  V30 5655 C 550.336 -2.54785 5.33703 0
M  V30 5656 H 549.266 -0.459543 0.597776 0
M  V30 5657 H 551.917 -0.491922 1.76783 0
M  V30 5658 H 550.299 -2.98133 2.60639 0
M  V30 5659 H 551.473 -0.863007 4.52646 0
M  V30 5660 H 549.788 -0.934685 4.05774 0
M  V30 5661 H 552.385 -3.70838 3.85205 0
M  V30 5662 H 552.728 -3.56764 2.14534 0
M  V30 5663 H 553.261 -2.28342 3.25737 0
M  V30 5664 H 550 -2.00214 6.24175 0
M  V30 5665 H 549.52 -3.23367 5.05167 0
M  V30 5666 H 551.199 -3.16639 5.64224 0
M  V30 5667 N 551.331 -1.39911 -0.725443 0
M  V30 5668 C 552.579 -1.37382 -1.48224 0
M  V30 5669 C 552.9 0.0264107 -1.94982 0
M  V30 5670 O 552.17 0.979408 -1.6966 0
M  V30 5671 H 550.75 -0.505596 -0.549892 0
M  V30 5672 H 553.412 -1.7487 -0.860608 0
M  V30 5673 H 552.508 -2.04254 -2.3598 0
M  V30 5674 N 552.809 0.956637 -1.25245 0
M  V30 5675 C 554.055 1.70352 -1.10036 0
M  V30 5676 C 554.388 1.90869 0.358156 0
M  V30 5677 O 553.663 1.47819 1.26411 0
M  V30 5678 C 553.946 3.08766 -1.85298 0
M  V30 5679 C 553.799 2.95672 -3.38966 0
M  V30 5680 C 555.118 4.08622 -1.63451 0
M  V30 5681 H 552.237 0.618279 -0.401123 0
M  V30 5682 H 554.879 1.11212 -1.54051 0
M  V30 5683 H 553.029 3.59252 -1.47887 0
M  V30 5684 H 554.701 2.52527 -3.86041 0
M  V30 5685 H 552.944 2.31634 -3.6678 0
M  V30 5686 H 553.615 3.93776 -3.86839 0
M  V30 5687 H 556.091 3.67038 -1.96015 0
M  V30 5688 H 554.967 5.03514 -2.18551 0
M  V30 5689 H 555.228 4.3834 -0.575357 0
M  V30 5690 N 554.287 1.06798 1.15896 0
M  V30 5691 C 555.703 0.792423 1.38538 0
M  V30 5692 C 555.903 -0.60592 1.92174 0
M  V30 5693 O 554.959 -1.36561 2.12385 0
M  V30 5694 C 556.272 1.86157 2.36149 0
M  V30 5695 C 557.82 1.88567 2.49823 0
M  V30 5696 C 558.295 2.9455 3.5072 0
M  V30 5697 N 559.786 2.93616 3.58251 0
M  V30 5698 C 560.521 3.72267 4.36125 0
M  V30 5699 N 560.017 4.60751 5.17379 0
M  V30 5700 N 561.81 3.60637 4.31158 0
M  V30 5701 H 553.961 1.96993 0.794198 0
M  V30 5702 H 556.224 0.853942 0.411688 0
M  V30 5703 H 555.93 2.86603 2.03843 0
M  V30 5704 H 555.804 1.71692 3.3586 0
M  V30 5705 H 558.191 0.887765 2.8143 0
M  V30 5706 H 558.272 2.0711 1.5013 0
M  V30 5707 H 557.916 3.94537 3.19849 0
M  V30 5708 H 557.846 2.73255 4.50155 0
M  V30 5709 H 560.337 2.29472 3.00252 0
M  V30 5710 H 560.65 5.17408 5.74028 0
M  V30 5711 H 558.995 4.64803 5.16704 0
M  V30 5712 H 562.186 2.90892 3.66742 0
M  V30 5713 H 562.359 4.22176 4.91601 0
M  V30 5714 N 555.766 -1.3263 0.851289 0
M  V30 5715 C 556.676 -2.32722 0.296268 0
M  V30 5716 C 557.692 -1.63901 -0.584162 0
M  V30 5717 O 558.868 -1.95465 -0.485334 0
M  V30 5718 C 555.933 -3.42942 -0.509103 0
M  V30 5719 C 554.994 -4.2746 0.397069 0
M  V30 5720 C 554.227 -5.32416 -0.36996 0
M  V30 5721 O 554.45 -5.47491 -1.6003 0
M  V30 5722 O 553.384 -6.01327 0.262493 0
M  V30 5723 H 557.21 -2.82078 1.12543 0
M  V30 5724 H 554.795 -1.36194 0.614135 0
M  V30 5725 H 556.677 -4.1017 -0.96634 0
M  V30 5726 H 555.352 -2.95781 -1.31512 0
M  V30 5727 H 554.259 -3.63053 0.902411 0
M  V30 5728 H 555.592 -4.78136 1.16818 0
M  V30 5729 N 557.244 -0.608902 -1.45362 0
M  V30 5730 C 558.492 -0.104401 -2.0183 0
M  V30 5731 C 558.813 1.27007 -1.47967 0
M  V30 5732 O 558.083 1.83924 -0.674455 0
M  V30 5733 H 556.663 -0.0356042 -0.746151 0
M  V30 5734 H 559.325 -0.790596 -1.78145 0
M  V30 5735 H 558.421 -0.0551793 -3.12051 0
M  V30 5736 N 558.722 1.53707 -0.348139 0
M  V30 5737 C 559.999 1.93247 0.302475 0
M  V30 5738 C 560.379 1.28012 1.67857 0
M  V30 5739 O 559.727 0.43274 2.24365 0
M  V30 5740 C 559.937 3.47031 0.370159 0
M  V30 5741 C 561.285 4.20066 0.61882 0
M  V30 5742 O 562.309 3.53319 0.452087 0
M  V30 5743 O 561.168 5.38318 0.94215 0
M  V30 5744 H 558.262 0.807736 0.177458 0
M  V30 5745 H 560.808 1.64927 -0.399651 0
M  V30 5746 H 559.58 3.86745 -0.59534 0
M  V30 5747 H 559.203 3.81532 1.11888 0
M  V30 5748 N 560.2 0.0768682 1.57412 0
M  V30 5749 C 561.446 -0.591961 1.93968 0
M  V30 5750 C 561.779 -1.68954 0.9575 0
M  V30 5751 O 561.054 -1.94496 -0.0124675 0
M  V30 5752 C 561.337 -1.16418 3.40762 0
M  V30 5753 C 561.19 -0.0728933 4.49741 0
M  V30 5754 C 562.509 -2.06814 3.88479 0
M  V30 5755 H 559.628 -0.213716 0.705333 0
M  V30 5756 H 562.27 0.14387 1.89455 0
M  V30 5757 H 560.42 -1.79128 3.4474 0
M  V30 5758 H 562.092 0.560446 4.57883 0
M  V30 5759 H 560.335 0.595859 4.29688 0
M  V30 5760 H 561.006 -0.513755 5.49604 0
M  V30 5761 H 563.482 -1.54033 3.8654 0
M  V30 5762 H 562.358 -2.43785 4.91793 0
M  V30 5763 H 562.619 -2.97844 3.26713 0
M  V30 5764 N 561.678 -1.56367 -0.196722 0
M  V30 5765 C 562.61 -1.90941 -1.26784 0
M  V30 5766 C 563.623 -0.799928 -1.41792 0
M  V30 5767 O 564.812 -1.07833 -1.42247 0
M  V30 5768 C 561.912 -2.12477 -2.6402 0
M  V30 5769 C 561.085 -3.43616 -2.70641 0
M  V30 5770 C 560.144 -3.54284 -3.89062 0
M  V30 5771 O 559.17 -4.2712 -3.76241 0
M  V30 5772 N 560.372 -2.87252 -5.04447 0
M  V30 5773 H 563.137 -2.83417 -0.974417 0
M  V30 5774 H 560.698 -1.57215 -0.386649 0
M  V30 5775 H 562.69 -2.16904 -3.41665 0
M  V30 5776 H 561.26 -1.26508 -2.85857 0
M  V30 5777 H 560.48 -3.51072 -1.79283 0
M  V30 5778 H 561.768 -4.29958 -2.72054 0
M  V30 5779 H 561.166 -2.27901 -5.17762 0
M  V30 5780 H 559.723 -2.97308 -5.80044 0
M  V30 5781 N 563.156 0.464375 -1.50603 0
M  V30 5782 C 564.086 1.56944 -1.72889 0
M  V30 5783 C 565.067 1.59979 -0.577997 0
M  V30 5784 O 566.252 1.76138 -0.817855 0
M  V30 5785 C 563.382 2.95225 -1.8292 0
M  V30 5786 C 562.336 3.07056 -2.98162 0
M  V30 5787 C 561.662 4.47051 -2.93343 0
M  V30 5788 C 562.962 2.83648 -4.38567 0
M  V30 5789 H 564.656 1.38547 -2.65415 0
M  V30 5790 H 562.202 0.665082 -1.27721 0
M  V30 5791 H 564.155 3.72467 -1.97095 0
M  V30 5792 H 562.879 3.14793 -0.870209 0
M  V30 5793 H 561.538 2.32248 -2.83648 0
M  V30 5794 H 561.186 4.63547 -1.95276 0
M  V30 5795 H 560.886 4.55902 -3.70712 0
M  V30 5796 H 562.41 5.26304 -3.09575 0
M  V30 5797 H 563.824 3.50636 -4.53572 0
M  V30 5798 H 562.221 3.03937 -5.17438 0
M  V30 5799 H 563.291 1.79451 -4.50472 0
M  V30 5800 N 564.634 1.40294 0.718013 0
M  V30 5801 C 565.582 1.40536 1.85344 0
M  V30 5802 C 566.576 0.286192 1.66965 0
M  V30 5803 O 567.782 0.457105 1.74099 0
M  V30 5804 H 564.157 0.439236 0.61039 0
M  V30 5805 H 566.128 2.36275 1.82255 0
M  V30 5806 C 564.877 1.28245 3.23185 0
M  V30 5807 H 564.2 2.1364 3.37932 0
M  V30 5808 H 565.64 1.32474 4.02774 0
M  V30 5809 C 564.099 -0.0075503 3.36899 0
M  V30 5810 O 564.629 -0.971391 3.89778 0
M  V30 5811 N 562.835 -0.0762479 2.905 0
M  V30 5812 H 562.382 0.708819 2.47656 0
M  V30 5813 H 562.34 -0.938846 3.00055 0
M  V30 5814 N 566.112 -0.949982 1.2575 0
M  V30 5815 C 567.359 -1.69515 1.10774 0
M  V30 5816 C 567.687 -1.91316 -0.350479 0
M  V30 5817 O 566.942 -1.48515 -1.27443 0
M  V30 5818 C 567.241 -3.08039 1.81237 0
M  V30 5819 C 566.907 -3.06023 3.31151 0
M  V30 5820 C 565.569 -3.0518 3.72047 0
M  V30 5821 C 567.921 -2.98998 4.26907 0
M  V30 5822 C 565.249 -2.95067 5.07102 0
M  V30 5823 C 567.601 -2.90426 5.61992 0
M  V30 5824 C 566.265 -2.87922 6.0221 0
M  V30 5825 H 565.535 -0.6203 0.405351 0
M  V30 5826 H 568.182 -1.10953 1.56082 0
M  V30 5827 H 566.487 -3.70172 1.28373 0
M  V30 5828 H 568.184 -3.64526 1.67098 0
M  V30 5829 H 564.774 -3.07453 2.98614 0
M  V30 5830 H 568.958 -2.98764 3.963 0
M  V30 5831 H 564.214 -2.915 5.37436 0
M  V30 5832 H 568.388 -2.83952 6.35881 0
M  V30 5833 H 566.015 -2.79841 7.06819 0
M  V30 5834 N 567.59 -1.07411 -1.15328 0
M  V30 5835 C 568.867 -0.710732 -1.82231 0
M  V30 5836 C 569.247 0.806732 -1.95077 0
M  V30 5837 O 568.595 1.72139 -1.50268 0
M  V30 5838 C 568.805 -1.42586 -3.18544 0
M  V30 5839 C 570.153 -1.57836 -3.94174 0
M  V30 5840 O 571.177 -1.38669 -3.281 0
M  V30 5841 O 570.036 -1.8938 -5.12638 0
M  V30 5842 H 567.13 -0.25297 -0.78736 0
M  V30 5843 H 569.676 -1.17508 -1.22434 0
M  V30 5844 H 568.448 -2.46008 -3.04296 0
M  V30 5845 H 568.071 -0.952332 -3.86026 0
M  V30 5846 N 569.068 1.32177 -0.85831 0
M  V30 5847 C 570.001 2.26823 -0.25035 0
M  V30 5848 C 570.979 1.50571 0.61378 0
M  V30 5849 O 572.163 1.79682 0.569777 0
M  V30 5850 C 569.29 3.32472 0.646556 0
M  V30 5851 C 568.336 4.26255 -0.144675 0
M  V30 5852 S 569.169 5.13608 -1.5155 0
M  V30 5853 C 570.325 6.22778 -0.624408 0
M  V30 5854 H 570.558 2.7804 -1.05267 0
M  V30 5855 H 568.091 1.39764 -0.656152 0
M  V30 5856 H 570.049 3.93817 1.15837 0
M  V30 5857 H 568.71 2.80031 1.42272 0
M  V30 5858 H 567.903 5.01114 0.538613 0
M  V30 5859 H 567.505 3.69346 -0.588198 0
M  V30 5860 H 569.797 6.77287 0.169846 0
M  V30 5861 H 570.74 6.95233 -1.34376 0
M  V30 5862 H 571.148 5.64156 -0.197128 0
M  V30 5863 N 570.547 0.616602 1.45037 0
M  V30 5864 C 571.958 0.199359 1.85633 0
M  V30 5865 C 572.309 -1.24588 1.51566 0
M  V30 5866 O 571.434 -1.94594 0.94668 0
M  V30 5867 C 572.029 0.355033 3.36935 0
M  V30 5868 C 570.588 -0.00758748 3.76399 0
M  V30 5869 C 569.735 0.675256 2.68953 0
M  V30 5870 H 572.686 0.822708 1.3571 0
M  V30 5871 H 572.707 -0.410201 3.78282 0
M  V30 5872 H 572.219 1.40699 3.61698 0
M  V30 5873 H 570.32 -1.05837 3.57252 0
M  V30 5874 H 570.433 0.392346 4.77491 0
M  V30 5875 H 568.797 0.111992 2.54454 0
M  V30 5876 H 569.58 1.72952 2.96551 0
M  V30 5877 N 572.025 -1.5352 0.356285 0
M  V30 5878 C 573.272 -2.01117 -0.236303 0
M  V30 5879 C 573.6 -1.24381 -1.49531 0
M  V30 5880 O 572.855 -0.323057 -1.93015 0
M  V30 5881 C 573.154 -3.52607 -0.583369 0
M  V30 5882 C 572.82 -4.47151 0.58023 0
M  V30 5883 C 571.482 -4.72718 0.899528 0
M  V30 5884 C 573.834 -5.03137 1.36024 0
M  V30 5885 C 571.162 -5.51523 2.00098 0
M  V30 5886 C 573.514 -5.83145 2.45204 0
M  V30 5887 C 572.178 -6.07001 2.77679 0
M  V30 5888 H 571.448 -0.735938 -0.0864695 0
M  V30 5889 H 574.095 -1.85209 0.48683 0
M  V30 5890 H 572.4 -3.66413 -1.38739 0
M  V30 5891 H 574.097 -3.86901 -1.05397 0
M  V30 5892 H 570.687 -4.27394 0.321322 0
M  V30 5893 H 574.871 -4.83339 1.12682 0
M  V30 5894 H 570.127 -5.68229 2.25668 0
M  V30 5895 H 574.301 -6.25537 3.06067 0
M  V30 5896 H 571.928 -6.67851 3.63151 0
M  V30 5897 N 573.503 -0.0852151 -1.57369 0
M  V30 5898 C 574.752 0.580443 -1.93168 0
M  V30 5899 C 575.065 1.6995 -0.968319 0
M  V30 5900 O 576.271 2.42564 -1.21963 0
M  V30 5901 C 574.727 1.08386 -3.43192 0
M  V30 5902 C 574.335 -0.00491388 -4.48 0
M  V30 5903 C 576.079 1.72281 -3.87968 0
M  V30 5904 C 573.986 0.513299 -5.89168 0
M  V30 5905 H 572.916 0.22059 -0.72101 0
M  V30 5906 H 575.567 -0.159621 -1.82804 0
M  V30 5907 H 573.949 1.8773 -3.48674 0
M  V30 5908 H 575.123 -0.780032 -4.5415 0
M  V30 5909 H 573.438 -0.548453 -4.12772 0
M  V30 5910 H 576.035 2.12108 -4.9083 0
M  V30 5911 H 576.378 2.58811 -3.26071 0
M  V30 5912 H 576.911 0.995359 -3.85146 0
M  V30 5913 H 573.65 -0.315153 -6.54742 0
M  V30 5914 H 573.17 1.25564 -5.8651 0
M  V30 5915 H 574.849 0.985433 -6.39451 0
M  V30 5916 N 574.981 1.5647 0.188427 0
M  V30 5917 C 576.228 1.81013 0.907779 0
M  V30 5918 C 576.556 0.65953 1.82977 0
M  V30 5919 O 575.811 -0.354308 1.92466 0
M  V30 5920 C 576.11 3.11596 1.7505 0
M  V30 5921 C 575.776 4.40145 0.978922 0
M  V30 5922 C 574.438 4.75066 0.765912 0
M  V30 5923 C 576.79 5.19369 0.436498 0
M  V30 5924 C 574.118 5.867 -0.00089868 0
M  V30 5925 C 576.47 6.31805 -0.317136 0
M  V30 5926 C 575.134 6.65303 -0.541103 0
M  V30 5927 H 574.404 0.662373 0.33218 0
M  V30 5928 H 577.051 1.9071 0.173732 0
M  V30 5929 H 575.356 2.97165 2.55343 0
M  V30 5930 H 577.053 3.27793 2.30983 0
M  V30 5931 H 573.643 4.12745 1.15497 0
M  V30 5932 H 577.827 4.92799 0.588449 0
M  V30 5933 H 573.083 6.11122 -0.184329 0
M  V30 5934 H 577.257 6.92406 -0.744788 0
M  V30 5935 H 574.884 7.51646 -1.13718 0
M  V30 5936 N 576.459 -0.456382 1.50847 0
M  V30 5937 C 577.422 -1.53493 1.70213 0
M  V30 5938 C 578.422 -1.50264 0.572481 0
M  V30 5939 O 579.612 -1.52623 0.839751 0
M  V30 5940 C 576.744 -2.93091 1.741 0
M  V30 5941 H 577.937 -1.37633 2.66453 0
M  V30 5942 H 575.49 -0.683776 1.4055 0
M  V30 5943 H 576.225 -3.14378 0.796063 0
M  V30 5944 H 576.01 -2.9684 2.5618 0
M  V30 5945 H 577.5 -3.71368 1.90987 0
M  V30 5946 N 577.937 -1.40673 -0.710563 0
M  V30 5947 C 578.847 -1.43663 -1.85467 0
M  V30 5948 C 579.863 -0.328721 -1.70867 0
M  V30 5949 O 581.039 -0.574098 -1.93044 0
M  V30 5950 C 578.104 -1.30226 -3.21313 0
M  V30 5951 C 577.165 -2.51204 -3.48131 0
M  V30 5952 C 576.398 -2.38398 -4.77495 0
M  V30 5953 O 576.621 -1.40048 -5.5294 0
M  V30 5954 O 575.555 -3.2787 -5.04762 0
M  V30 5955 H 579.381 -2.40156 -1.859 0
M  V30 5956 H 576.966 -1.22049 -0.861652 0
M  V30 5957 H 578.848 -1.2496 -4.02446 0
M  V30 5958 H 577.523 -0.368419 -3.21597 0
M  V30 5959 H 576.43 -2.62048 -2.66987 0
M  V30 5960 H 577.763 -3.43366 -3.52648 0
M  V30 5961 N 579.415 0.9433 -1.26252 0
M  V30 5962 C 580.661 1.69175 -1.11837 0
M  V30 5963 C 580.994 1.91238 0.337891 0
M  V30 5964 O 580.269 1.49152 1.24836 0
M  V30 5965 C 580.552 3.06783 -1.88563 0
M  V30 5966 C 580.405 2.9206 -3.42083 0
M  V30 5967 C 581.724 4.06865 -1.67776 0
M  V30 5968 H 578.843 0.61399 -0.407658 0
M  V30 5969 H 581.485 1.09572 -1.55222 0
M  V30 5970 H 579.635 3.57663 -1.51689 0
M  V30 5971 H 581.307 2.48419 -3.88698 0
M  V30 5972 H 579.55 2.27731 -3.69217 0
M  V30 5973 H 580.221 3.89651 -3.90994 0
M  V30 5974 H 582.697 3.64939 -1.99897 0
M  V30 5975 H 581.573 5.01168 -2.23879 0
M  V30 5976 H 581.834 4.37705 -0.621816 0
M  V30 5977 N 580.893 1.08022 1.14757 0
M  V30 5978 C 581.841 0.701088 2.21783 0
M  V30 5979 C 582.835 -0.291311 1.66876 0
M  V30 5980 O 584.041 -0.154296 1.79337 0
M  V30 5981 H 580.416 0.208668 0.722469 0
M  V30 5982 H 582.387 1.61321 2.51034 0
M  V30 5983 C 581.136 0.122278 3.47485 0
M  V30 5984 H 580.459 0.877065 3.90061 0
M  V30 5985 H 581.899 -0.105248 4.23869 0
M  V30 5986 C 580.358 -1.13883 3.17068 0
M  V30 5987 O 580.888 -2.22429 3.34497 0
M  V30 5988 N 579.094 -1.04767 2.71058 0
M  V30 5989 H 578.641 -0.164302 2.57075 0
M  V30 5990 H 578.599 -1.89224 2.51081 0
M  V30 5991 N 582.371 -1.3172 0.865308 0
M  V30 5992 C 583.334 -2.26918 0.322627 0
M  V30 5993 C 584.334 -1.52031 -0.523751 0
M  V30 5994 O 585.524 -1.70973 -0.333727 0
M  V30 5995 C 582.656 -3.36558 -0.542338 0
M  V30 5996 H 583.849 -2.76432 1.16298 0
M  V30 5997 H 581.402 -1.42573 0.640512 0
M  V30 5998 H 582.137 -2.92329 -1.40407 0
M  V30 5999 H 581.922 -3.92048 0.0636395 0
M  V30 6000 H 583.412 -4.07465 -0.91446 0
M  V30 6001 N 583.85 -0.624285 -1.44708 0
M  V30 6002 C 585.127 -0.0572781 -1.95516 0
M  V30 6003 C 585.507 1.41516 -1.56641 0
M  V30 6004 O 584.855 2.12614 -0.837111 0
M  V30 6005 C 585.065 -0.272944 -3.47931 0
M  V30 6006 C 586.413 -0.162529 -4.24289 0
M  V30 6007 O 587.437 -0.203946 -3.55616 0
M  V30 6008 O 586.296 -0.0616847 -5.46465 0
M  V30 6009 H 583.389 0.0262219 -0.826584 0
M  V30 6010 H 585.936 -0.695512 -1.54793 0
M  V30 6011 H 584.707 -1.29492 -3.69253 0
M  V30 6012 H 584.331 0.399756 -3.95585 0
M  V30 6013 N 585.328 1.53329 -0.364422 0
M  V30 6014 C 586.744 1.59594 -0.0133165 0
M  V30 6015 C 586.944 1.37959 1.46865 0
M  V30 6016 O 586 1.18418 2.2301 0
M  V30 6017 C 587.313 2.97032 -0.468213 0
M  V30 6018 C 588.861 3.10138 -0.422334 0
M  V30 6019 C 589.336 4.49986 -0.853024 0
M  V30 6020 N 590.827 4.56098 -0.808037 0
M  V30 6021 C 591.562 5.62495 -1.11299 0
M  V30 6022 N 591.058 6.7665 -1.48717 0
M  V30 6023 N 592.851 5.52473 -1.03586 0
M  V30 6024 H 585.002 1.65644 -1.32951 0
M  V30 6025 H 587.265 0.77684 -0.543345 0
M  V30 6026 H 586.971 3.18 -1.5023 0
M  V30 6027 H 586.845 3.76918 0.145775 0
M  V30 6028 H 589.232 2.88881 0.602622 0
M  V30 6029 H 589.313 2.32263 -1.0718 0
M  V30 6030 H 588.957 4.7198 -1.87609 0
M  V30 6031 H 588.887 5.26289 -0.180819 0
M  V30 6032 H 591.378 3.74131 -0.532361 0
M  V30 6033 H 591.691 7.53776 -1.70415 0
M  V30 6034 H 590.036 6.78044 -1.52581 0
M  V30 6035 H 593.227 4.6217 -0.742736 0
M  V30 6036 H 593.4 6.35295 -1.27686 0
M  V30 6037 N 586.806 0.0935595 1.57322 0
M  V30 6038 C 588.055 -0.570191 1.93473 0
M  V30 6039 C 588.368 -1.69434 0.977318 0
M  V30 6040 O 589.574 -2.41914 1.23248 0
M  V30 6041 C 588.03 -1.06564 3.43762 0
M  V30 6042 C 587.638 0.0286723 4.47991 0
M  V30 6043 C 589.382 -1.70221 3.88877 0
M  V30 6044 C 587.289 -0.482046 5.89432 0
M  V30 6045 H 586.219 -0.216764 0.72217 0
M  V30 6046 H 588.87 0.169313 1.82717 0
M  V30 6047 H 587.252 -1.85878 3.49664 0
M  V30 6048 H 588.426 0.804106 4.5373 0
M  V30 6049 H 586.741 0.570336 4.12476 0
M  V30 6050 H 589.338 -2.09502 4.91948 0
M  V30 6051 H 589.681 -2.57078 3.27439 0
M  V30 6052 H 590.214 -0.974919 3.85668 0
M  V30 6053 H 586.953 0.349871 6.54566 0
M  V30 6054 H 586.473 -1.22452 5.87167 0
M  V30 6055 H 588.152 -0.951508 6.39965 0
M  V30 6056 N 588.284 -1.56567 -0.180126 0
M  V30 6057 C 589.512 -1.85618 -0.913972 0
M  V30 6058 C 589.927 -0.677892 -1.7621 0
M  V30 6059 O 589.284 0.353171 -1.7905 0
M  V30 6060 C 589.335 -3.13619 -1.79793 0
M  V30 6061 O 589.056 -4.26906 -0.98402 0
M  V30 6062 C 590.557 -3.55954 -2.64219 0
M  V30 6063 H 587.777 -0.616043 -0.265954 0
M  V30 6064 H 590.321 -2.03681 -0.182872 0
M  V30 6065 H 588.476 -2.97409 -2.48247 0
M  V30 6066 H 588.89 -4.9989 -1.58776 0
M  V30 6067 H 590.364 -4.48444 -3.21873 0
M  V30 6068 H 590.841 -2.79653 -3.38661 0
M  V30 6069 H 591.447 -3.74746 -2.01111 0
M  V30 6070 N 589.762 0.448376 -1.51087 0
M  V30 6071 C 591.008 1.19748 -1.64414 0
M  V30 6072 C 591.363 1.89177 -0.350715 0
M  V30 6073 O 590.656 1.80135 0.652834 0
M  V30 6074 C 590.85 2.24866 -2.77795 0
M  V30 6075 C 590.679 1.65753 -4.18038 0
M  V30 6076 C 589.449 1.44728 -4.8413 0
M  V30 6077 C 591.647 1.13985 -5.0151 0
M  V30 6078 N 589.629 0.810962 -6.0852 0
M  V30 6079 C 591 0.628141 -6.1681 0
M  V30 6080 C 593.055 1.03055 -4.87118 0
M  V30 6081 C 591.758 0.0178906 -7.19298 0
M  V30 6082 C 593.784 0.434212 -5.89804 0
M  V30 6083 C 593.146 -0.0670069 -7.04368 0
M  V30 6084 H 589.245 0.426254 -0.655615 0
M  V30 6085 H 591.829 0.495806 -1.88281 0
M  V30 6086 H 590 2.92434 -2.55611 0
M  V30 6087 H 591.732 2.91857 -2.8036 0
M  V30 6088 H 588.487 1.70593 -4.41809 0
M  V30 6089 H 588.911 0.510563 -6.75072 0
M  V30 6090 H 593.553 1.40395 -3.9881 0
M  V30 6091 H 591.271 -0.367662 -8.07263 0
M  V30 6092 H 594.857 0.3517 -5.80736 0
M  V30 6093 H 593.737 -0.521209 -7.82466 0
M  V30 6094 N 591.24 1.41047 0.703093 0
M  V30 6095 C 592.17 1.45067 1.82969 0
M  V30 6096 C 593.151 0.31016 1.67248 0
M  V30 6097 O 594.336 0.520548 1.87093 0
M  V30 6098 C 591.466 1.32478 3.2104 0
M  V30 6099 C 590.42 2.44262 3.51454 0
M  V30 6100 C 589.746 2.16742 4.88801 0
M  V30 6101 C 591.046 3.86606 3.51189 0
M  V30 6102 H 592.74 2.39353 1.79863 0
M  V30 6103 H 590.286 1.15206 0.863919 0
M  V30 6104 H 592.239 1.33904 3.99559 0
M  V30 6105 H 590.963 0.346735 3.24754 0
M  V30 6106 H 589.622 2.42107 2.75282 0
M  V30 6107 H 589.27 1.17299 4.89132 0
M  V30 6108 H 588.97 2.91643 5.10116 0
M  V30 6109 H 590.494 2.19872 5.69639 0
M  V30 6110 H 591.908 3.90517 4.19725 0
M  V30 6111 H 590.305 4.61128 3.84033 0
M  V30 6112 H 591.375 4.15296 2.50315 0
M  V30 6113 N 592.718 -0.936591 1.26751 0
M  V30 6114 C 593.948 -1.71509 1.15188 0
M  V30 6115 C 594.356 -1.86885 -0.295037 0
M  V30 6116 O 593.699 -1.37915 -1.21347 0
M  V30 6117 C 593.761 -3.13853 1.75318 0
M  V30 6118 C 593.425 -3.21845 3.24445 0
M  V30 6119 C 594.422 -3.04771 4.21201 0
M  V30 6120 C 592.107 -3.45088 3.64992 0
M  V30 6121 C 594.101 -3.10816 5.56482 0
M  V30 6122 C 591.788 -3.50767 5.00405 0
M  V30 6123 C 592.786 -3.33648 5.9596 0
M  V30 6124 O 592.474 -3.39045 7.28906 0
M  V30 6125 H 592.206 -0.543658 0.401761 0
M  V30 6126 H 594.76 -1.18234 1.67958 0
M  V30 6127 H 592.99 -3.6857 1.17016 0
M  V30 6128 H 594.679 -3.73634 1.58596 0
M  V30 6129 H 595.445 -2.86665 3.91214 0
M  V30 6130 H 591.324 -3.57467 2.91098 0
M  V30 6131 H 594.868 -2.97372 6.31043 0
M  V30 6132 H 590.765 -3.68396 5.30052 0
M  V30 6133 H 591.533 -3.55558 7.37238 0
M  V30 6134 N 594.196 -1.08629 -1.14182 0
M  V30 6135 C 595.473 -0.73002 -1.81466 0
M  V30 6136 C 595.853 0.785996 -1.95922 0
M  V30 6137 O 595.201 1.70535 -1.52086 0
M  V30 6138 C 595.411 -1.45957 -3.17014 0
M  V30 6139 C 596.759 -1.62008 -3.92477 0
M  V30 6140 O 597.783 -1.42141 -3.26611 0
M  V30 6141 O 596.642 -1.94806 -5.106 0
M  V30 6142 H 593.736 -0.261307 -0.784632 0
M  V30 6143 H 596.282 -1.188 -1.2118 0
M  V30 6144 H 595.054 -2.49221 -3.01669 0
M  V30 6145 H 594.677 -0.993222 -3.84995 0
M  V30 6146 N 595.674 1.31259 -0.872281 0
M  V30 6147 C 596.622 2.30404 -0.318897 0
M  V30 6148 C 597.616 1.5962 0.567267 0
M  V30 6149 O 598.822 1.74204 0.453111 0
M  V30 6150 H 595.197 0.747243 -0.0844474 0
M  V30 6151 H 597.168 2.74549 -1.16899 0
M  V30 6152 C 595.917 3.44608 0.462683 0
M  V30 6153 H 595.24 3.99248 -0.209936 0
M  V30 6154 H 596.68 4.1609 0.815187 0
M  V30 6155 C 595.139 2.93456 1.65485 0
M  V30 6156 O 595.669 2.92418 2.75417 0
M  V30 6157 N 593.875 2.49628 1.48776 0
M  V30 6158 H 593.422 2.50671 0.593452 0
M  V30 6159 H 593.38 2.15759 2.28682 0
M  V30 6160 N 597.152 0.631951 1.44375 0
M  V30 6161 C 598.38 0.143867 2.06399 0
M  V30 6162 C 598.795 -1.18188 1.47231 0
M  V30 6163 O 598.152 -1.72511 0.595498 0
M  V30 6164 C 598.203 0.0238253 3.61492 0
M  V30 6165 O 597.924 1.29715 4.18456 0
M  V30 6166 C 599.425 -0.492856 4.40552 0
M  V30 6167 H 596.645 0.0800542 0.666207 0
M  V30 6168 H 599.189 0.866586 1.85231 0
M  V30 6169 H 597.344 -0.649338 3.81919 0
M  V30 6170 H 597.758 1.14252 5.11905 0
M  V30 6171 H 599.232 -0.525861 5.49489 0
M  V30 6172 H 599.709 -1.52006 4.12057 0
M  V30 6173 H 600.315 0.147085 4.25046 0
M  V30 6174 N 598.631 -1.53133 0.372548 0
M  V30 6175 C 599.859 -2.05774 -0.215515 0
M  V30 6176 C 600.274 -1.24555 -1.41886 0
M  V30 6177 O 599.631 -0.287951 -1.80214 0
M  V30 6178 C 599.682 -3.5645 -0.602161 0
M  V30 6179 O 599.403 -4.34591 0.553359 0
M  V30 6180 C 600.904 -4.25374 -1.24787 0
M  V30 6181 H 598.124 -0.670009 -0.0364529 0
M  V30 6182 H 600.668 -1.97434 0.532934 0
M  V30 6183 H 598.823 -3.64918 -1.30052 0
M  V30 6184 H 599.237 -5.23954 0.239336 0
M  V30 6185 H 600.711 -5.32097 -1.46891 0
M  V30 6186 H 601.188 -3.79531 -2.21026 0
M  V30 6187 H 601.794 -4.21177 -0.590752 0
M  V30 6188 N 600.109 -0.101901 -1.5727 0
M  V30 6189 C 601.357 0.559091 -1.94213 0
M  V30 6190 C 601.678 1.68297 -0.984948 0
M  V30 6191 O 600.948 1.95863 -0.0381975 0
M  V30 6192 H 599.528 0.20952 -0.717015 0
M  V30 6193 H 602.19 -0.166831 -1.94185 0
M  V30 6194 H 601.286 0.96485 -2.96811 0
M  V30 6195 N 601.587 1.56661 0.17182 0
M  V30 6196 C 602.534 1.96371 1.21273 0
M  V30 6197 C 603.504 0.82756 1.44016 0
M  V30 6198 O 604.689 1.08764 1.56764 0
M  V30 6199 C 601.829 2.32838 2.54716 0
M  V30 6200 C 600.942 3.59628 2.39356 0
M  V30 6201 C 600.077 3.85311 3.65662 0
M  V30 6202 C 599.116 5.0545 3.45234 0
M  V30 6203 N 598.253 5.27268 4.63608 0
M  V30 6204 H 603.093 2.85106 0.86709 0
M  V30 6205 H 600.63 1.41073 0.416744 0
M  V30 6206 H 602.588 2.52004 3.3249 0
M  V30 6207 H 601.218 1.47214 2.87277 0
M  V30 6208 H 600.27 3.4838 1.52761 0
M  V30 6209 H 601.582 4.4756 2.20207 0
M  V30 6210 H 600.736 4.04841 4.51872 0
M  V30 6211 H 599.475 2.95753 3.8779 0
M  V30 6212 H 598.48 4.85819 2.5741 0
M  V30 6213 H 599.705 5.96538 3.24529 0
M  V30 6214 H 597.651 4.40662 4.85956 0
M  V30 6215 H 597.568 6.09422 4.4737 0
M  V30 6216 H 598.836 5.51277 5.51103 0
M  V30 6217 N 603.065 -0.440357 1.51323 0
M  V30 6218 C 603.997 -1.55254 1.68609 0
M  V30 6219 C 605.01 -1.52614 0.566812 0
M  V30 6220 O 606.199 -1.57445 0.841032 0
M  V30 6221 C 603.299 -2.94169 1.68279 0
M  V30 6222 C 602.472 -3.21346 2.96742 0
M  V30 6223 C 601.531 -4.3997 2.8864 0
M  V30 6224 O 600.557 -4.38771 3.62586 0
M  V30 6225 N 601.759 -5.43367 2.04285 0
M  V30 6226 H 604.524 -1.40831 2.6455 0
M  V30 6227 H 602.085 -0.629251 1.49171 0
M  V30 6228 H 604.077 -3.71543 1.60431 0
M  V30 6229 H 602.647 -3.02205 0.799441 0
M  V30 6230 H 601.867 -2.32299 3.18482 0
M  V30 6231 H 603.155 -3.3633 3.81785 0
M  V30 6232 H 602.553 -5.47176 1.43578 0
M  V30 6233 H 601.11 -6.19605 2.02318 0
M  V30 6234 N 604.543 -1.41418 -0.695603 0
M  V30 6235 C 605.789 -1.41983 -1.45645 0
M  V30 6236 C 606.144 -0.0282216 -1.92379 0
M  V30 6237 O 605.437 0.945916 -1.66622 0
M  V30 6238 C 605.631 -2.36112 -2.68302 0
M  V30 6239 C 605.46 -3.84288 -2.33566 0
M  V30 6240 C 604.23 -4.52971 -2.23932 0
M  V30 6241 C 606.428 -4.75264 -1.96543 0
M  V30 6242 N 604.41 -5.86276 -1.82081 0
M  V30 6243 C 605.781 -5.97517 -1.6545 0
M  V30 6244 C 607.836 -4.62911 -1.83352 0
M  V30 6245 C 606.539 -7.08793 -1.22492 0
M  V30 6246 C 608.565 -5.74149 -1.41799 0
M  V30 6247 C 607.927 -6.95501 -1.11617 0
M  V30 6248 H 604.026 -0.574771 -0.530247 0
M  V30 6249 H 606.61 -1.77289 -0.804788 0
M  V30 6250 H 604.781 -2.02902 -3.31188 0
M  V30 6251 H 606.513 -2.27397 -3.34773 0
M  V30 6252 H 603.268 -4.06909 -2.42327 0
M  V30 6253 H 603.692 -6.56926 -1.63638 0
M  V30 6254 H 608.334 -3.69588 -2.05341 0
M  V30 6255 H 606.052 -8.01982 -0.992482 0
M  V30 6256 H 609.638 -5.66595 -1.32143 0
M  V30 6257 H 608.518 -7.80114 -0.799493 0
M  V30 6258 N 606.021 0.929856 -1.27246 0
M  V30 6259 C 606.968 2.03017 -1.09785 0
M  V30 6260 C 607.938 1.661 0.000456744 0
M  V30 6261 O 609.123 1.90116 -0.161462 0
M  V30 6262 C 606.263 3.36878 -0.748816 0
M  V30 6263 C 605.376 3.86763 -1.92453 0
M  V30 6264 C 604.511 5.09061 -1.51758 0
M  V30 6265 C 603.55 5.51237 -2.66091 0
M  V30 6266 N 602.687 6.64732 -2.25999 0
M  V30 6267 H 607.527 2.17285 -2.03939 0
M  V30 6268 H 605.064 1.06448 -1.01524 0
M  V30 6269 H 607.022 4.13855 -0.527283 0
M  V30 6270 H 605.652 3.22424 0.155771 0
M  V30 6271 H 604.704 3.06086 -2.25867 0
M  V30 6272 H 606.016 4.13994 -2.78227 0
M  V30 6273 H 605.17 5.93532 -1.25716 0
M  V30 6274 H 603.909 4.83602 -0.630896 0
M  V30 6275 H 602.914 4.65316 -2.92849 0
M  V30 6276 H 604.139 5.78692 -3.55377 0
M  V30 6277 H 602.085 6.40935 -1.3978 0
M  V30 6278 H 602.002 6.91607 -3.05313 0
M  V30 6279 H 603.27 7.52549 -2.03199 0
M  V30 6280 N 607.499 1.09233 1.13605 0
M  V30 6281 C 608.447 0.724572 2.21027 0
M  V30 6282 C 609.441 -0.273595 1.67176 0
M  V30 6283 O 610.647 -0.135266 1.79491 0
M  V30 6284 H 607.022 0.216319 0.720215 0
M  V30 6285 H 608.993 1.63975 2.49309 0
M  V30 6286 C 607.742 0.159126 3.47336 0
M  V30 6287 H 607.065 0.918387 3.89109 0
M  V30 6288 H 608.505 -0.0602851 4.23957 0
M  V30 6289 C 606.964 -1.10514 3.18258 0
M  V30 6290 O 607.494 -2.18869 3.36837 0
M  V30 6291 N 605.7 -1.01886 2.72154 0
M  V30 6292 H 605.247 -0.137027 2.57235 0
M  V30 6293 H 605.205 -1.8655 2.53074 0
M  V30 6294 N 608.977 -1.30795 0.87923 0
M  V30 6295 C 610.202 -2.01063 0.508769 0
M  V30 6296 C 610.627 -1.65508 -0.893803 0
M  V30 6297 O 609.985 -0.868616 -1.59138 0
M  V30 6298 C 610.033 -3.54054 0.683991 0
M  V30 6299 O 609.137 -4.11498 -0.272654 0
M  V30 6300 H 608.478 -0.632786 0.201191 0
M  V30 6301 H 611.008 -1.66776 1.18519 0
M  V30 6302 H 611.018 -4.03845 0.580798 0
M  V30 6303 H 609.693 -3.79271 1.70665 0
M  V30 6304 H 608.27 -3.72695 -0.12364 0
M  V30 6305 N 610.455 -0.639598 -1.44038 0
M  V30 6306 C 611.701 -0.147698 -2.02261 0
M  V30 6307 C 612.034 1.23031 -1.50256 0
M  V30 6308 O 611.309 1.81847 -0.690068 0
M  V30 6309 C 611.592 -0.14362 -3.59813 0
M  V30 6310 C 611.445 -1.55458 -4.22082 0
M  V30 6311 C 612.764 0.527317 -4.36929 0
M  V30 6312 H 609.883 -0.0551453 -0.734934 0
M  V30 6313 H 612.525 -0.817688 -1.71505 0
M  V30 6314 H 610.675 0.426898 -3.86147 0
M  V30 6315 H 612.347 -2.17464 -4.06826 0
M  V30 6316 H 610.59 -2.10594 -3.79253 0
M  V30 6317 H 611.261 -1.50369 -5.31124 0
M  V30 6318 H 613.737 0.0420504 -4.16079 0
M  V30 6319 H 612.613 0.499389 -5.46624 0
M  V30 6320 H 612.874 1.59914 -4.12165 0
M  V30 6321 N 611.933 1.52934 -0.380664 0
M  V30 6322 C 612.881 2.27727 0.47361 0
M  V30 6323 C 613.875 1.31288 1.0705 0
M  V30 6324 O 615.081 1.4886 1.01197 0
M  V30 6325 H 611.456 0.732189 0.171475 0
M  V30 6326 H 613.427 2.97864 -0.178785 0
M  V30 6327 C 612.176 3.0904 1.59341 0
M  V30 6328 H 611.499 3.831 1.14343 0
M  V30 6329 H 612.939 3.64527 2.16555 0
M  V30 6330 C 611.398 2.20813 2.54447 0
M  V30 6331 O 611.928 1.82907 3.57642 0
M  V30 6332 N 610.134 1.85145 2.23986 0
M  V30 6333 H 609.681 2.16169 1.40103 0
M  V30 6334 H 609.639 1.26402 2.87871 0
M  V30 6335 N 613.412 0.11024 1.57214 0
M  V30 6336 C 614.637 -0.561179 1.99664 0
M  V30 6337 C 615.062 -1.59985 0.989266 0
M  V30 6338 O 614.42 -1.81255 -0.0402399 0
M  V30 6339 C 614.468 -1.17189 3.41027 0
M  V30 6340 O 613.572 -2.28755 3.4314 0
M  V30 6341 H 612.913 -0.14101 0.648855 0
M  V30 6342 H 615.443 0.196128 2.03658 0
M  V30 6343 H 615.453 -1.50954 3.79047 0
M  V30 6344 H 614.128 -0.411041 4.13864 0
M  V30 6345 H 612.705 -1.96495 3.16929 0
M  V30 6346 N 614.89 -1.56749 -0.16351 0
M  V30 6347 C 615.84 -1.93424 -1.20712 0
M  V30 6348 C 616.824 -0.803469 -1.39403 0
M  V30 6349 O 618.016 -1.06675 -1.41243 0
M  V30 6350 C 615.145 -2.30431 -2.54473 0
M  V30 6351 C 614.231 -3.5004 -2.39443 0
M  V30 6352 N 614.622 -4.67058 -1.9414 0
M  V30 6353 C 612.92 -3.548 -2.70246 0
M  V30 6354 C 613.621 -5.49184 -1.9176 0
M  V30 6355 N 612.597 -4.9044 -2.34457 0
M  V30 6356 H 616.399 -2.8138 -0.848681 0
M  V30 6357 H 613.913 -1.58089 -0.371717 0
M  V30 6358 H 615.91 -2.54903 -3.29894 0
M  V30 6359 H 614.57 -1.43818 -2.91112 0
M  V30 6360 H 615.581 -4.91128 -1.64357 0
M  V30 6361 H 612.258 -2.78685 -3.10871 0
M  V30 6362 H 613.648 -6.5297 -1.58366 0
M  V30 6363 N 616.368 0.432326 -1.51554 0
M  V30 6364 C 617.596 1.20364 -1.68286 0
M  V30 6365 C 618.011 1.84888 -0.38233 0
M  V30 6366 O 617.368 1.70924 0.639627 0
M  V30 6367 C 617.419 2.28398 -2.80208 0
M  V30 6368 O 617.14 1.66512 -4.05223 0
M  V30 6369 C 618.641 3.18584 -3.08251 0
M  V30 6370 H 615.861 0.36259 -0.564596 0
M  V30 6371 H 618.405 0.511647 -1.97996 0
M  V30 6372 H 616.56 2.93305 -2.53083 0
M  V30 6373 H 616.974 2.37951 -4.67418 0
M  V30 6374 H 618.448 3.90511 -3.90135 0
M  V30 6375 H 618.925 3.79628 -2.2086 0
M  V30 6376 H 619.531 2.59372 -3.37055 0
M  V30 6377 N 617.846 1.41785 0.688094 0
M  V30 6378 C 619.095 1.4084 1.44385 0
M  V30 6379 C 619.408 0.0234166 1.95586 0
M  V30 6380 O 620.614 -0.108647 2.71283 0
M  V30 6381 C 619.07 2.47675 2.61123 0
M  V30 6382 C 618.678 3.92116 2.16677 0
M  V30 6383 C 620.422 2.55877 3.38714 0
M  V30 6384 C 618.329 4.90487 3.30419 0
M  V30 6385 H 617.259 0.523787 0.542368 0
M  V30 6386 H 619.91 1.6764 0.74627 0
M  V30 6387 H 618.292 2.14018 3.33185 0
M  V30 6388 H 619.466 4.35059 1.51856 0
M  V30 6389 H 617.781 3.87642 1.5206 0
M  V30 6390 H 620.378 3.26553 4.234 0
M  V30 6391 H 620.721 1.59801 3.84408 0
M  V30 6392 H 621.254 2.88662 2.73714 0
M  V30 6393 H 617.993 5.87994 2.89729 0
M  V30 6394 H 617.513 4.52187 3.94065 0
M  V30 6395 H 619.192 5.11591 3.96085 0
M  V30 6396 N 619.324 -0.923095 1.27737 0
M  V30 6397 C 620.572 -1.66797 1.14119 0
M  V30 6398 C 620.893 -1.92479 -0.312541 0
M  V30 6399 O 620.163 -1.53432 -1.218 0
M  V30 6400 H 618.743 -0.618196 0.419336 0
M  V30 6401 H 621.405 -1.10815 1.60331 0
M  V30 6402 H 620.501 -2.63424 1.67374 0
M  V30 6403 N 620.802 -1.09834 -1.13024 0
M  V30 6404 C 622.218 -0.828875 -1.36388 0
M  V30 6405 C 622.418 0.554756 -1.93713 0
M  V30 6406 O 621.474 1.30882 -2.15931 0
M  V30 6407 C 622.787 -1.92352 -2.3113 0
M  V30 6408 C 624.335 -1.95124 -2.44735 0
M  V30 6409 C 624.81 -3.03745 -3.42787 0
M  V30 6410 N 626.301 -3.03012 -3.5034 0
M  V30 6411 C 627.036 -3.83699 -4.26101 0
M  V30 6412 N 626.532 -4.74306 -5.04981 0
M  V30 6413 N 628.325 -3.71942 -4.21445 0
M  V30 6414 H 620.476 -1.99029 -0.74169 0
M  V30 6415 H 622.739 -0.864557 -0.388903 0
M  V30 6416 H 622.445 -2.91906 -1.96172 0
M  V30 6417 H 622.319 -1.80536 -3.3119 0
M  V30 6418 H 624.706 -0.962069 -2.78977 0
M  V30 6419 H 624.787 -2.11018 -1.44586 0
M  V30 6420 H 624.431 -4.02878 -3.09276 0
M  V30 6421 H 624.361 -2.85094 -4.42752 0
M  V30 6422 H 626.852 -2.37352 -2.94062 0
M  V30 6423 H 627.165 -5.32446 -5.60108 0
M  V30 6424 H 625.51 -4.78339 -5.04199 0
M  V30 6425 H 628.701 -3.00513 -3.589 0
M  V30 6426 H 628.874 -4.35062 -4.80235 0
M  V30 6427 N 622.28 1.30327 -0.886154 0
M  V30 6428 C 623.51 1.99964 -0.519421 0
M  V30 6429 C 623.918 1.66593 0.89686 0
M  V30 6430 O 623.261 0.899886 1.60149 0
M  V30 6431 C 623.323 3.54187 -0.615795 0
M  V30 6432 C 622.987 4.11078 -1.9966 0
M  V30 6433 C 623.984 4.26985 -2.96614 0
M  V30 6434 C 621.669 4.46429 -2.30231 0
M  V30 6435 C 623.663 4.77456 -4.22273 0
M  V30 6436 C 621.35 4.966 -3.56135 0
M  V30 6437 C 622.348 5.12066 -4.5197 0
M  V30 6438 O 622.036 5.61154 -5.7564 0
M  V30 6439 H 621.768 0.645979 -0.199217 0
M  V30 6440 H 624.322 1.67154 -1.19368 0
M  V30 6441 H 622.552 3.86528 0.115448 0
M  V30 6442 H 624.241 4.05065 -0.26017 0
M  V30 6443 H 625.007 3.99975 -2.74308 0
M  V30 6444 H 620.886 4.33658 -1.56404 0
M  V30 6445 H 624.43 4.89444 -4.97082 0
M  V30 6446 H 620.327 5.23045 -3.78277 0
M  V30 6447 H 621.095 5.79494 -5.78039 0
M  V30 6448 N 623.758 0.647228 1.43697 0
M  V30 6449 C 625.007 0.155552 2.01099 0
M  V30 6450 C 625.32 -1.23569 1.51624 0
M  V30 6451 O 626.526 -1.82226 2.01261 0
M  V30 6452 C 624.982 0.227296 3.59182 0
M  V30 6453 C 624.59 1.62086 4.17651 0
M  V30 6454 C 626.334 -0.207085 4.23995 0
M  V30 6455 C 624.241 1.64685 5.68008 0
M  V30 6456 H 623.171 0.0543895 0.752036 0
M  V30 6457 H 625.822 0.808386 1.64734 0
M  V30 6458 H 624.204 -0.492937 3.9292 0
M  V30 6459 H 625.378 2.36597 3.95422 0
M  V30 6460 H 623.693 2.0007 3.65186 0
M  V30 6461 H 626.29 -0.207426 5.34298 0
M  V30 6462 H 626.633 -1.23742 3.97484 0
M  V30 6463 H 627.166 0.461193 3.95118 0
M  V30 6464 H 623.905 2.65608 5.99277 0
M  V30 6465 H 623.425 0.944914 5.9231 0
M  V30 6466 H 625.104 1.38792 6.31938 0
M  V30 6467 N 625.236 -1.5273 0.388769 0
M  V30 6468 C 626.461 -2.0647 -0.19621 0
M  V30 6469 C 626.886 -1.25865 -1.39784 0
M  V30 6470 O 626.244 -0.283562 -1.79069 0
M  V30 6471 C 626.292 -3.56456 -0.5451 0
M  V30 6472 O 625.396 -3.78426 -1.63912 0
M  V30 6473 H 624.737 -0.663599 -0.023067 0
M  V30 6474 H 627.267 -1.96898 0.556084 0
M  V30 6475 H 627.277 -3.99888 -0.809557 0
M  V30 6476 H 625.952 -4.14561 0.333417 0
M  V30 6477 H 624.529 -3.46884 -1.36842 0
M  V30 6478 N 626.714 -0.118576 -1.57153 0
M  V30 6479 C 627.942 0.54726 -1.99531 0
M  V30 6480 C 628.357 1.60251 -0.998246 0
M  V30 6481 O 627.714 1.82498 0.00893106 0
M  V30 6482 C 627.765 1.17378 -3.41913 0
M  V30 6483 O 627.486 0.160703 -4.37805 0
M  V30 6484 C 628.987 1.92297 -3.9942 0
M  V30 6485 H 626.207 0.144919 -0.655164 0
M  V30 6486 H 628.751 -0.20479 -2.03472 0
M  V30 6487 H 626.906 1.87661 -3.38913 0
M  V30 6488 H 627.32 0.61586 -5.20872 0
M  V30 6489 H 628.794 2.31462 -5.01128 0
M  V30 6490 H 629.271 2.79801 -3.38538 0
M  V30 6491 H 629.877 1.26777 -4.05965 0
M  V30 6492 N 628.193 1.56834 0.155195 0
M  V30 6493 C 629.14 1.97646 1.19184 0
M  V30 6494 C 630.11 0.842788 1.4313 0
M  V30 6495 O 631.295 1.1042 1.55602 0
M  V30 6496 C 628.435 2.35527 2.52232 0
M  V30 6497 C 627.548 3.62147 2.35529 0
M  V30 6498 C 626.683 3.89167 3.61555 0
M  V30 6499 C 625.722 5.09084 3.39853 0
M  V30 6500 N 624.859 5.32156 4.5799 0
M  V30 6501 H 629.699 2.8601 0.836802 0
M  V30 6502 H 627.236 1.41507 0.401758 0
M  V30 6503 H 629.194 2.55516 3.29799 0
M  V30 6504 H 627.824 1.50253 2.85699 0
M  V30 6505 H 626.876 3.4998 1.49057 0
M  V30 6506 H 628.188 4.49871 2.15448 0
M  V30 6507 H 627.342 4.09611 4.47553 0
M  V30 6508 H 626.081 2.9985 3.84632 0
M  V30 6509 H 625.086 4.88522 2.52243 0
M  V30 6510 H 626.311 5.99947 3.18183 0
M  V30 6511 H 624.257 4.45791 4.81255 0
M  V30 6512 H 624.174 6.14133 4.40882 0
M  V30 6513 H 625.442 5.57091 5.45225 0
M  V30 6514 N 629.671 -0.424282 1.51781 0
M  V30 6515 C 630.634 -1.49848 1.73431 0
M  V30 6516 C 631.634 -1.49016 0.604225 0
M  V30 6517 O 632.824 -1.50808 0.871935 0
M  V30 6518 C 629.956 -2.89332 1.80277 0
M  V30 6519 H 631.149 -1.3195 2.69312 0
M  V30 6520 H 628.702 -0.653809 1.41968 0
M  V30 6521 H 629.437 -3.12618 0.862568 0
M  V30 6522 H 629.222 -2.9134 2.62419 0
M  V30 6523 H 630.712 -3.67233 1.98821 0
M  V30 6524 N 631.149 -1.42148 -0.680565 0
M  V30 6525 C 632.395 -1.42521 -1.44277 0
M  V30 6526 C 632.728 -0.0393718 -1.9416 0
M  V30 6527 O 632.003 0.935425 -1.70529 0
M  V30 6528 C 632.286 -2.44475 -2.64394 0
M  V30 6529 C 632.139 -3.92226 -2.20179 0
M  V30 6530 C 633.458 -2.43491 -3.66606 0
M  V30 6531 H 630.577 -0.518985 -0.523282 0
M  V30 6532 H 633.219 -1.73524 -0.773914 0
M  V30 6533 H 631.369 -2.18168 -3.21458 0
M  V30 6534 H 633.041 -4.29493 -1.68327 0
M  V30 6535 H 631.284 -4.0637 -1.5181 0
M  V30 6536 H 631.955 -4.59133 -3.06433 0
M  V30 6537 H 634.431 -2.66872 -3.19247 0
M  V30 6538 H 633.307 -3.16816 -4.4824 0
M  V30 6539 H 633.568 -1.45881 -4.17338 0
M  V30 6540 N 632.627 0.916307 -1.28225 0
M  V30 6541 C 633.875 1.6619 -1.15002 0
M  V30 6542 C 634.196 1.92642 0.302329 0
M  V30 6543 O 633.466 1.54076 1.20985 0
M  V30 6544 H 632.046 0.615964 -0.422608 0
M  V30 6545 H 634.708 1.09963 -1.60917 0
M  V30 6546 H 633.804 2.62533 -1.68769 0
M  V30 6547 N 634.105 1.10431 1.1244 0
M  V30 6548 C 635.33 0.869089 1.88313 0
M  V30 6549 C 635.755 -0.574912 1.79099 0
M  V30 6550 O 635.113 -1.40496 1.14589 0
M  V30 6551 C 635.161 1.32208 3.3549 0
M  V30 6552 O 634.265 0.487092 4.09513 0
M  V30 6553 H 633.606 0.313894 0.585121 0
M  V30 6554 H 636.136 1.47111 1.42195 0
M  V30 6555 H 636.146 1.31201 3.86329 0
M  V30 6556 H 634.821 2.37364 3.41513 0
M  V30 6557 H 633.398 0.562372 3.68635 0
M  V30 6558 N 635.583 -1.29855 0.893053 0
M  V30 6559 C 636.531 -2.29867 0.355512 0
M  V30 6560 C 637.525 -1.60502 -0.541801 0
M  V30 6561 O 638.731 -1.74902 -0.425339 0
M  V30 6562 H 635.106 -0.745805 0.0963247 0
M  V30 6563 H 637.077 -2.72655 1.21252 0
M  V30 6564 C 635.826 -3.453 -0.407801 0
M  V30 6565 H 635.149 -3.98864 0.273426 0
M  V30 6566 H 636.589 -4.17334 -0.748887 0
M  V30 6567 C 635.048 -2.96051 -1.60795 0
M  V30 6568 O 635.578 -2.96763 -2.7073 0
M  V30 6569 N 633.784 -2.51963 -1.44786 0
M  V30 6570 H 633.331 -2.51583 -0.553498 0
M  V30 6571 H 633.289 -2.1937 -2.2522 0
M  V30 6572 N 637.061 -0.65484 -1.43351 0
M  V30 6573 C 638.024 0.0263562 -2.29185 0
M  V30 6574 C 639.024 0.748951 -1.42293 0
M  V30 6575 O 640.214 0.589957 -1.63906 0
M  V30 6576 C 637.346 1.04806 -3.2439 0
M  V30 6577 H 638.539 -0.728883 -2.90908 0
M  V30 6578 H 636.092 -0.416149 -1.50658 0
M  V30 6579 H 636.827 1.83247 -2.67565 0
M  V30 6580 H 636.612 0.533554 -3.88453 0
M  V30 6581 H 638.102 1.52372 -3.88809 0
M  V30 6582 N 638.539 1.52521 -0.396863 0
M  V30 6583 C 639.955 1.5953 -0.0471659 0
M  V30 6584 C 640.155 1.41044 1.43906 0
M  V30 6585 O 639.211 1.23122 2.20448 0
M  V30 6586 C 640.524 2.95972 -0.531113 0
M  V30 6587 C 642.072 3.09172 -0.488024 0
M  V30 6588 C 642.547 4.48075 -0.948281 0
M  V30 6589 N 644.038 4.54281 -0.9046 0
M  V30 6590 C 644.773 5.60007 -1.23205 0
M  V30 6591 N 644.269 6.73343 -1.63036 0
M  V30 6592 N 646.062 5.50151 -1.15282 0
M  V30 6593 H 638.213 1.62786 -1.36435 0
M  V30 6594 H 640.476 0.76514 -0.559701 0
M  V30 6595 H 640.182 3.14741 -1.56942 0
M  V30 6596 H 640.056 3.77143 0.0657922 0
M  V30 6597 H 642.443 2.90095 0.541211 0
M  V30 6598 H 642.524 2.29937 -1.12083 0
M  V30 6599 H 642.168 4.67894 -1.97578 0
M  V30 6600 H 642.098 5.25788 -0.292412 0
M  V30 6601 H 644.589 3.72918 -0.6116 0
M  V30 6602 H 644.902 7.49992 -1.86365 0
M  V30 6603 H 643.247 6.74655 -1.66929 0
M  V30 6604 H 646.438 4.6049 -0.840602 0
M  V30 6605 H 646.611 6.32444 -1.41133 0
M  V30 6606 N 640.017 0.126909 1.57088 0
M  V30 6607 C 640.95 -0.857844 2.11462 0
M  V30 6608 C 641.928 -1.25569 1.03301 0
M  V30 6609 O 643.112 -1.35535 1.31006 0
M  V30 6610 C 640.239 -2.14912 2.61784 0
M  V30 6611 C 639.285 -1.89874 3.81903 0
M  V30 6612 S 640.118 -1.10785 5.23915 0
M  V30 6613 C 641.274 -2.41075 5.7761 0
M  V30 6614 H 641.507 -0.395384 2.94659 0
M  V30 6615 H 639.04 -0.0870151 1.54155 0
M  V30 6616 H 640.998 -2.89101 2.91429 0
M  V30 6617 H 639.659 -2.58275 1.78754 0
M  V30 6618 H 638.852 -2.85572 4.15289 0
M  V30 6619 H 638.454 -1.23802 3.52915 0
M  V30 6620 H 640.746 -3.36864 5.87817 0
M  V30 6621 H 641.689 -2.12223 6.75549 0
M  V30 6622 H 642.097 -2.50804 5.05725 0
M  V30 6623 N 641.495 -1.56914 -0.146875 0
M  V30 6624 C 642.772 -1.74273 -0.888165 0
M  V30 6625 C 643.152 -0.69496 -1.99333 0
M  V30 6626 O 642.5 0.286093 -2.26702 0
M  V30 6627 C 642.71 -3.18336 -1.43051 0
M  V30 6628 C 644.058 -3.80024 -1.89387 0
M  V30 6629 O 645.082 -3.21765 -1.52792 0
M  V30 6630 O 643.941 -4.82367 -2.56874 0
M  V30 6631 H 641.035 -0.712565 -0.419738 0
M  V30 6632 H 643.581 -1.6918 -0.132791 0
M  V30 6633 H 642.353 -3.86092 -0.636274 0
M  V30 6634 H 641.976 -3.27854 -2.24938 0
M  V30 6635 N 642.974 0.416227 -1.52004 0
M  V30 6636 C 644.22 1.16555 -1.6596 0
M  V30 6637 C 644.553 1.90347 -0.384906 0
M  V30 6638 O 643.828 1.84474 0.616405 0
M  V30 6639 C 644.111 2.1657 -2.87696 0
M  V30 6640 C 643.964 1.46722 -4.25197 0
M  V30 6641 C 645.283 3.17321 -3.04951 0
M  V30 6642 H 642.402 0.422369 -0.603965 0
M  V30 6643 H 645.044 0.452141 -1.84542 0
M  V30 6644 H 643.194 2.77411 -2.71985 0
M  V30 6645 H 644.866 0.89056 -4.52622 0
M  V30 6646 H 643.109 0.769263 -4.26925 0
M  V30 6647 H 643.78 2.19665 -5.0641 0
M  V30 6648 H 646.256 2.66552 -3.19514 0
M  V30 6649 H 645.132 3.84573 -3.91656 0
M  V30 6650 H 645.393 3.84643 -2.17951 0
M  V30 6651 N 644.452 1.42507 0.673017 0
M  V30 6652 C 645.68 1.46473 1.46128 0
M  V30 6653 C 646.095 0.0765912 1.88645 0
M  V30 6654 O 645.452 -0.909057 1.58248 0
M  V30 6655 C 645.503 2.39339 2.70923 0
M  V30 6656 O 645.224 3.72752 2.3019 0
M  V30 6657 C 646.725 2.52343 3.64469 0
M  V30 6658 H 643.945 0.49812 0.449575 0
M  V30 6659 H 646.489 1.87041 0.826802 0
M  V30 6660 H 644.644 2.02019 3.30556 0
M  V30 6661 H 645.058 4.22503 3.10791 0
M  V30 6662 H 646.532 3.2144 4.48754 0
M  V30 6663 H 647.009 1.56189 4.1049 0
M  V30 6664 H 647.615 2.90392 3.10729 0
M  V30 6665 N 645.93 -0.909495 1.28709 0
M  V30 6666 C 647.207 -1.63865 1.06806 0
M  V30 6667 C 647.587 -2.07445 -0.391143 0
M  V30 6668 O 646.935 -1.82269 -1.37805 0
M  V30 6669 C 647.145 -2.82692 2.04661 0
M  V30 6670 C 648.493 -3.5361 2.35042 0
M  V30 6671 O 649.517 -2.92847 2.02779 0
M  V30 6672 O 648.376 -4.63131 2.90124 0
M  V30 6673 H 645.47 -0.719065 0.408502 0
M  V30 6674 H 648.016 -0.958424 1.40044 0
M  V30 6675 H 646.788 -2.47614 3.0299 0
M  V30 6676 H 646.411 -3.58426 1.72095 0
M  V30 6677 N 647.408 -1.11026 -1.11852 0
M  V30 6678 C 648.355 -0.764662 -2.17765 0
M  V30 6679 C 649.325 0.261854 -1.64023 0
M  V30 6680 O 650.51 0.139748 -1.90288 0
M  V30 6681 C 647.65 -0.209317 -3.44465 0
M  V30 6682 C 646.763 -1.29187 -4.12231 0
M  V30 6683 C 645.898 -0.697523 -5.266 0
M  V30 6684 C 644.937 -1.76023 -5.86244 0
M  V30 6685 N 644.074 -1.18569 -6.92016 0
M  V30 6686 H 648.914 -1.67202 -2.46673 0
M  V30 6687 H 646.451 -0.835065 -1.21099 0
M  V30 6688 H 648.409 0.130599 -4.16996 0
M  V30 6689 H 647.039 0.661251 -3.15955 0
M  V30 6690 H 646.091 -1.74881 -3.37818 0
M  V30 6691 H 647.403 -2.09607 -4.52622 0
M  V30 6692 H 646.557 -0.307412 -6.05921 0
M  V30 6693 H 645.296 0.138044 -4.87505 0
M  V30 6694 H 644.301 -2.1597 -5.05606 0
M  V30 6695 H 645.526 -2.59875 -6.27409 0
M  V30 6696 H 643.472 -0.371695 -6.54946 0
M  V30 6697 H 643.389 -1.92666 -7.31038 0
M  V30 6698 H 644.657 -0.82233 -7.7515 0
M  V30 6699 N 648.886 1.2938 -0.899927 0
M  V30 6700 C 650.116 1.99402 -0.540601 0
M  V30 6701 C 650.524 1.67534 0.87914 0
M  V30 6702 O 649.867 0.916821 1.59186 0
M  V30 6703 C 649.929 3.53514 -0.653326 0
M  V30 6704 C 649.593 4.08937 -2.04009 0
M  V30 6705 C 650.59 4.23815 -3.01126 0
M  V30 6706 C 648.275 4.43962 -2.34953 0
M  V30 6707 C 650.269 4.72951 -4.27313 0
M  V30 6708 C 647.956 4.92795 -3.61382 0
M  V30 6709 C 648.954 5.07244 -4.57376 0
M  V30 6710 O 648.642 5.55017 -5.8156 0
M  V30 6711 H 648.374 0.64383 -0.206057 0
M  V30 6712 H 650.928 1.65878 -1.21134 0
M  V30 6713 H 649.158 3.86628 0.0744449 0
M  V30 6714 H 650.847 4.04767 -0.303118 0
M  V30 6715 H 651.613 3.97043 -2.78535 0
M  V30 6716 H 647.492 4.31974 -1.60994 0
M  V30 6717 H 651.036 4.84144 -5.02245 0
M  V30 6718 H 646.933 5.19004 -3.83804 0
M  V30 6719 H 647.701 5.73331 -5.84153 0
M  V30 6720 N 650.364 0.662433 1.43002 0
M  V30 6721 C 651.311 -0.0235324 2.30788 0
M  V30 6722 C 652.281 -0.805342 1.4527 0
M  V30 6723 O 653.466 -0.78009 1.74124 0
M  V30 6724 C 650.606 -0.977545 3.30965 0
M  V30 6725 C 649.719 -0.190865 4.31578 0
M  V30 6726 C 648.854 -1.13951 5.18834 0
M  V30 6727 C 647.893 -0.343796 6.11134 0
M  V30 6728 N 647.03 -1.2445 6.90982 0
M  V30 6729 H 651.87 0.730921 2.88897 0
M  V30 6730 H 649.407 0.372197 1.42313 0
M  V30 6731 H 651.365 -1.54437 3.87563 0
M  V30 6732 H 649.995 -1.69877 2.74484 0
M  V30 6733 H 649.047 0.492388 3.772 0
M  V30 6734 H 650.359 0.427464 4.96965 0
M  V30 6735 H 649.513 -1.77666 5.80103 0
M  V30 6736 H 648.252 -1.79174 4.53595 0
M  V30 6737 H 647.257 0.30665 5.48944 0
M  V30 6738 H 648.482 0.304161 6.78419 0
M  V30 6739 H 646.428 -1.88336 6.28383 0
M  V30 6740 H 646.345 -0.680959 7.52927 0
M  V30 6741 H 647.613 -1.86952 7.56749 0
M  V30 6742 N 651.842 -1.52309 0.404946 0
M  V30 6743 C 653.072 -2.05886 -0.171569 0
M  V30 6744 C 653.48 -1.27527 -1.39762 0
M  V30 6745 O 652.823 -0.319215 -1.80905 0
M  V30 6746 C 652.885 -3.54609 -0.590983 0
M  V30 6747 C 652.549 -4.53989 0.523757 0
M  V30 6748 C 653.546 -5.01084 1.38604 0
M  V30 6749 C 651.231 -4.97465 0.695255 0
M  V30 6750 C 653.225 -5.90295 2.4048 0
M  V30 6751 C 650.912 -5.86473 1.71733 0
M  V30 6752 C 651.91 -6.32782 2.57051 0
M  V30 6753 O 651.598 -7.20029 3.57509 0
M  V30 6754 H 651.33 -0.675508 -0.0257763 0
M  V30 6755 H 653.884 -1.97238 0.573278 0
M  V30 6756 H 652.114 -3.60929 -1.38805 0
M  V30 6757 H 653.803 -3.90853 -1.09494 0
M  V30 6758 H 654.569 -4.68214 1.26492 0
M  V30 6759 H 650.448 -4.60982 0.0408447 0
M  V30 6760 H 653.992 -6.26363 3.07108 0
M  V30 6761 H 649.889 -6.18756 1.83877 0
M  V30 6762 H 650.657 -7.3813 3.53703 0
M  V30 6763 N 653.32 -0.135238 -1.57019 0
M  V30 6764 C 654.731 0.387521 -1.82634 0
M  V30 6765 C 655.082 1.65528 -1.05332 0
M  V30 6766 O 654.207 2.14381 -0.294926 0
M  V30 6767 C 654.802 0.709852 -3.3128 0
M  V30 6768 C 653.361 1.17718 -3.57518 0
M  V30 6769 C 652.508 0.194183 -2.76619 0
M  V30 6770 H 655.459 -0.360126 -1.5456 0
M  V30 6771 H 655.48 1.5657 -3.46794 0
M  V30 6772 H 654.992 -0.213024 -3.87515 0
M  V30 6773 H 653.093 2.1164 -3.06658 0
M  V30 6774 H 653.206 1.11128 -4.66034 0
M  V30 6775 H 651.57 0.684478 -2.4533 0
M  V30 6776 H 652.353 -0.722076 -3.3562 0
M  V30 6777 N 654.798 1.5699 0.138552 0
M  V30 6778 C 655.708 2.02174 1.19008 0
M  V30 6779 C 656.724 0.938622 1.46512 0
M  V30 6780 O 657.9 1.24872 1.58016 0
M  V30 6781 C 654.965 2.40045 2.50159 0
M  V30 6782 C 654.026 3.62346 2.30226 0
M  V30 6783 C 653.259 3.98401 3.55123 0
M  V30 6784 O 653.482 3.35019 4.61647 0
M  V30 6785 O 652.416 4.91606 3.47285 0
M  V30 6786 H 656.242 2.91954 0.836452 0
M  V30 6787 H 653.827 1.45293 0.347907 0
M  V30 6788 H 655.709 2.65225 3.27465 0
M  V30 6789 H 654.384 1.53417 2.85035 0
M  V30 6790 H 653.291 3.42341 1.50843 0
M  V30 6791 H 654.624 4.49617 2.00262 0
M  V30 6792 N 656.276 -0.40816 1.52223 0
M  V30 6793 C 657.524 -1.15274 1.66001 0
M  V30 6794 C 657.845 -1.91003 0.392803 0
M  V30 6795 O 657.115 -1.8673 -0.592336 0
M  V30 6796 H 655.695 -0.428526 0.611861 0
M  V30 6797 H 658.357 -0.46512 1.89269 0
M  V30 6798 H 657.453 -1.86628 2.50153 0
M  V30 6799 N 657.755 -1.42862 -0.66545 0
M  V30 6800 C 658.98 -1.47456 -1.45848 0
M  V30 6801 C 659.405 -0.0900312 -1.87884 0
M  V30 6802 O 658.763 0.913587 -1.56599 0
M  V30 6803 C 658.811 -2.41514 -2.67774 0
M  V30 6804 O 657.915 -1.89296 -3.66389 0
M  V30 6805 H 657.256 -0.499236 -0.437789 0
M  V30 6806 H 659.786 -1.8765 -0.815394 0
M  V30 6807 H 659.796 -2.58409 -3.15735 0
M  V30 6808 H 658.471 -3.42099 -2.36519 0
M  V30 6809 H 657.048 -1.82003 -3.25468 0
M  V30 6810 N 659.233 0.902656 -1.29189 0
M  V30 6811 C 660.51 1.63296 -1.07674 0
M  V30 6812 C 660.89 2.07649 0.380137 0
M  V30 6813 O 660.238 1.82997 1.36837 0
M  V30 6814 C 660.448 2.81603 -2.06158 0
M  V30 6815 C 661.796 3.52359 -2.36914 0
M  V30 6816 O 662.82 2.91767 -2.04329 0
M  V30 6817 O 661.679 4.61586 -2.92576 0
M  V30 6818 H 658.773 0.716889 -0.41231 0
M  V30 6819 H 661.319 0.950984 -1.4055 0
M  V30 6820 H 660.091 2.46004 -3.04299 0
M  V30 6821 H 659.714 3.57508 -1.73993 0
M  V30 6822 N 660.711 1.11618 1.11262 0
M  V30 6823 C 661.643 0.734015 2.17129 0
M  V30 6824 C 662.656 -0.235243 1.61091 0
M  V30 6825 O 663.845 -0.0178597 1.78491 0
M  V30 6826 C 660.945 0.0643682 3.38839 0
M  V30 6827 C 660.118 1.06092 4.24339 0
M  V30 6828 C 659.177 0.420482 5.24517 0
M  V30 6829 O 658.203 1.07495 5.58957 0
M  V30 6830 N 659.405 -0.815828 5.74739 0
M  V30 6831 H 662.17 1.64492 2.50524 0
M  V30 6832 H 659.731 1.00664 1.26801 0
M  V30 6833 H 661.723 -0.375851 4.02951 0
M  V30 6834 H 660.293 -0.749147 3.03491 0
M  V30 6835 H 659.513 1.67903 3.56654 0
M  V30 6836 H 660.801 1.73507 4.78302 0
M  V30 6837 H 660.199 -1.36668 5.48943 0
M  V30 6838 H 658.756 -1.199 6.40677 0
M  V30 6839 N 662.189 -1.289 0.906776 0
M  V30 6840 C 663.099 -2.31256 0.394707 0
M  V30 6841 C 664.115 -1.66231 -0.514121 0
M  V30 6842 O 665.291 -1.97347 -0.401994 0
M  V30 6843 C 662.356 -3.44792 -0.363191 0
M  V30 6844 C 661.417 -4.25391 0.578012 0
M  V30 6845 C 660.65 -5.33506 -0.143811 0
M  V30 6846 O 660.873 -5.53786 -1.36665 0
M  V30 6847 O 659.807 -5.99673 0.5173 0
M  V30 6848 H 663.633 -2.77051 1.24405 0
M  V30 6849 H 661.218 -1.33466 0.671346 0
M  V30 6850 H 663.1 -4.139 -0.791503 0
M  V30 6851 H 661.775 -3.01093 -1.18848 0
M  V30 6852 H 660.682 -3.58899 1.05558 0
M  V30 6853 H 662.015 -4.72752 1.36992 0
M  V30 6854 N 663.667 -0.670007 -1.42649 0
M  V30 6855 C 665.083 -0.33911 -1.55956 0
M  V30 6856 C 665.283 1.1558 -1.65056 0
M  V30 6857 O 664.339 1.94111 -1.61485 0
M  V30 6858 C 665.652 -1.06522 -2.812 0
M  V30 6859 C 667.2 -1.04708 -2.94966 0
M  V30 6860 C 667.675 -1.75442 -4.23065 0
M  V30 6861 N 669.166 -1.72286 -4.29967 0
M  V30 6862 C 669.901 -2.23877 -5.27889 0
M  V30 6863 N 669.397 -2.83829 -6.31991 0
M  V30 6864 N 671.19 -2.14279 -5.19654 0
M  V30 6865 H 663.341 -1.6399 -1.34986 0
M  V30 6866 H 665.604 -0.690603 -0.649439 0
M  V30 6867 H 665.31 -2.12033 -2.80597 0
M  V30 6868 H 665.184 -0.627398 -3.71946 0
M  V30 6869 H 667.571 -0.000315966 -2.951 0
M  V30 6870 H 667.652 -1.52374 -2.05465 0
M  V30 6871 H 667.296 -2.80084 -4.23693 0
M  V30 6872 H 667.226 -1.25229 -5.11493 0
M  V30 6873 H 669.717 -1.28554 -3.55362 0
M  V30 6874 H 670.03 -3.20827 -7.03057 0
M  V30 6875 H 668.375 -2.87896 -6.32567 0
M  V30 6876 H 671.566 -1.67135 -4.37245 0
M  V30 6877 H 671.739 -2.54792 -5.95806 0
M  V30 6878 N 665.145 1.52092 -0.413018 0
M  V30 6879 C 666.077 2.24819 0.445994 0
M  V30 6880 C 667.09 1.27925 1.00692 0
M  V30 6881 O 668.279 1.53845 0.905204 0
M  V30 6882 C 665.379 2.96951 1.6332 0
M  V30 6883 C 664.552 4.20746 1.19548 0
M  V30 6884 C 663.611 4.75668 2.25003 0
M  V30 6885 O 662.637 5.38148 1.85434 0
M  V30 6886 N 663.839 4.57579 3.57214 0
M  V30 6887 H 666.604 2.99176 -0.177209 0
M  V30 6888 H 664.165 1.60102 -0.240601 0
M  V30 6889 H 666.157 3.30586 2.33441 0
M  V30 6890 H 664.727 2.25756 2.16225 0
M  V30 6891 H 663.947 3.92881 0.32224 0
M  V30 6892 H 665.235 5.01132 0.880033 0
M  V30 6893 H 664.633 4.07758 3.92109 0
M  V30 6894 H 663.19 4.95642 4.23299 0
M  V30 6895 N 666.623 0.143563 1.56945 0
M  V30 6896 C 667.869 -0.50916 1.96304 0
M  V30 6897 C 668.202 -1.64741 1.0283 0
M  V30 6898 O 667.477 -1.94374 0.0700361 0
M  V30 6899 C 667.76 -1.0186 3.45393 0
M  V30 6900 C 667.613 0.117923 4.49645 0
M  V30 6901 C 668.932 -1.90151 3.96901 0
M  V30 6902 H 666.051 -0.183608 0.713763 0
M  V30 6903 H 668.693 0.224095 1.88674 0
M  V30 6904 H 666.843 -1.64345 3.52027 0
M  V30 6905 H 668.515 0.754145 4.55094 0
M  V30 6906 H 666.758 0.777568 4.26774 0
M  V30 6907 H 667.429 -0.280187 5.51288 0
M  V30 6908 H 669.905 -1.375 3.92725 0
M  V30 6909 H 668.781 -2.22707 5.0169 0
M  V30 6910 H 669.042 -2.83718 3.39052 0
M  V30 6911 N 668.101 -1.57061 -0.130224 0
M  V30 6912 C 669.348 -1.84257 -0.839972 0
M  V30 6913 C 669.676 -0.726986 -1.80403 0
M  V30 6914 O 668.931 0.282632 -1.93648 0
M  V30 6915 C 669.23 -3.17878 -1.63365 0
M  V30 6916 C 668.896 -4.43475 -0.814891 0
M  V30 6917 C 667.558 -4.77581 -0.589066 0
M  V30 6918 C 669.91 -5.20631 -0.243437 0
M  V30 6919 C 667.238 -5.86292 0.218648 0
M  V30 6920 C 669.59 -6.30192 0.551408 0
M  V30 6921 C 668.254 -6.62837 0.787653 0
M  V30 6922 H 667.524 -0.674245 -0.307367 0
M  V30 6923 H 670.171 -1.91224 -0.102832 0
M  V30 6924 H 668.476 -3.06437 -2.44138 0
M  V30 6925 H 670.173 -3.3614 -2.18658 0
M  V30 6926 H 666.763 -4.16747 -1.00098 0
M  V30 6927 H 670.947 -4.94644 -0.405145 0
M  V30 6928 H 666.203 -6.10017 0.411016 0
M  V30 6929 H 670.377 -6.89165 1.00126 0
M  V30 6930 H 668.004 -7.46908 1.41537 0
M  V30 6931 N 669.579 0.400081 -1.52437 0
M  V30 6932 C 670.511 1.50729 -1.72666 0
M  V30 6933 C 671.524 1.51058 -0.607075 0
M  V30 6934 O 672.713 1.5516 -0.88248 0
M  V30 6935 C 669.813 2.89604 -1.76019 0
M  V30 6936 C 668.986 3.13365 -3.05157 0
M  V30 6937 C 668.045 4.32163 -3.00203 0
M  V30 6938 O 667.071 4.29004 -3.74092 0
M  V30 6939 N 668.273 5.3776 -2.18619 0
M  V30 6940 H 671.038 1.33767 -2.68191 0
M  V30 6941 H 668.599 0.58948 -1.50787 0
M  V30 6942 H 670.591 3.67159 -1.70225 0
M  V30 6943 H 669.161 2.99979 -0.879284 0
M  V30 6944 H 668.381 2.23774 -3.24529 0
M  V30 6945 H 669.669 3.26089 -3.90568 0
M  V30 6946 H 669.067 5.43177 -1.58035 0
M  V30 6947 H 667.624 6.14023 -2.18674 0
M  V30 6948 N 671.057 1.43213 0.657864 0
M  V30 6949 C 672.004 1.48011 1.77092 0
M  V30 6950 C 672.974 0.330291 1.62783 0
M  V30 6951 O 674.159 0.536787 1.83094 0
M  V30 6952 C 671.299 1.40461 3.15222 0
M  V30 6953 C 670.412 2.65612 3.40697 0
M  V30 6954 C 669.547 2.50083 4.68649 0
M  V30 6955 C 668.586 3.70525 4.87214 0
M  V30 6956 N 667.723 3.53835 6.0642 0
M  V30 6957 H 672.563 2.43121 1.72326 0
M  V30 6958 H 670.1 1.20687 0.841013 0
M  V30 6959 H 672.058 1.34079 3.95068 0
M  V30 6960 H 670.688 0.489359 3.19069 0
M  V30 6961 H 669.74 2.82292 2.54982 0
M  V30 6962 H 671.052 3.5509 3.50303 0
M  V30 6963 H 670.206 2.41383 5.56614 0
M  V30 6964 H 668.945 1.58121 4.61356 0
M  V30 6965 H 667.95 3.79639 3.97686 0
M  V30 6966 H 669.175 4.63489 4.96341 0
M  V30 6967 H 667.121 2.64604 6.00267 0
M  V30 6968 H 667.038 4.36912 6.16963 0
M  V30 6969 H 668.306 3.48978 6.97019 0
M  V30 6970 N 672.536 -0.895792 1.29666 0
M  V30 6971 C 673.499 -1.98189 1.15124 0
M  V30 6972 C 674.499 -1.60572 0.0855717 0
M  V30 6973 O 675.689 -1.70991 0.332826 0
M  V30 6974 C 672.821 -3.32289 0.761372 0
M  V30 6975 H 674.014 -2.12518 2.11603 0
M  V30 6976 H 671.567 -1.0808 1.12908 0
M  V30 6977 H 672.302 -3.23662 -0.203393 0
M  V30 6978 H 672.087 -3.60958 1.53139 0
M  V30 6979 H 673.577 -4.1198 0.682792 0
M  V30 6980 N 674.014 -1.12206 -1.10668 0
M  V30 6981 C 674.944 -0.810086 -2.18997 0
M  V30 6982 C 675.925 0.225065 -1.68604 0
M  V30 6983 O 677.11 0.086783 -1.94006 0
M  V30 6984 C 674.24 -0.261262 -3.46316 0
M  V30 6985 C 673.194 -1.2292 -4.09969 0
M  V30 6986 C 672.52 -0.540713 -5.31959 0
M  V30 6987 C 673.82 -2.58295 -4.53962 0
M  V30 6988 H 675.514 -1.7159 -2.45352 0
M  V30 6989 H 673.06 -0.82646 -1.17922 0
M  V30 6990 H 675.013 -0.0307522 -4.21389 0
M  V30 6991 H 673.737 0.679879 -3.19445 0
M  V30 6992 H 672.396 -1.44548 -3.369 0
M  V30 6993 H 672.044 0.405492 -5.01363 0
M  V30 6994 H 671.744 -1.18637 -5.75499 0
M  V30 6995 H 673.268 -0.319184 -6.09765 0
M  V30 6996 H 674.682 -2.40709 -5.20319 0
M  V30 6997 H 673.079 -3.18916 -5.08343 0
M  V30 6998 H 674.149 -3.16918 -3.67002 0
M  V30 6999 N 675.492 1.28418 -0.913599 0
M  V30 7000 C 676.74 1.94596 -0.545594 0
M  V30 7001 C 677.061 1.7227 0.913668 0
M  V30 7002 O 676.331 1.06233 1.64595 0
M  V30 7003 H 674.911 0.720065 -0.198783 0
M  V30 7004 H 677.573 1.56404 -1.16292 0
M  V30 7005 H 676.669 3.03202 -0.739911 0
M  V30 7006 N 676.97 0.677563 1.42291 0
M  V30 7007 C 677.917 0.000947061 2.308 0
M  V30 7008 C 678.887 -0.789889 1.46116 0
M  V30 7009 O 680.072 -0.761578 1.74942 0
M  V30 7010 C 677.212 -0.942387 3.31984 0
M  V30 7011 C 676.325 -0.14508 4.31756 0
M  V30 7012 C 675.46 -1.08442 5.20013 0
M  V30 7013 C 674.499 -0.278958 6.11464 0
M  V30 7014 N 673.636 -1.17115 6.92263 0
M  V30 7015 H 678.476 0.761521 2.88106 0
M  V30 7016 H 676.013 0.38727 1.41911 0
M  V30 7017 H 677.971 -1.50317 3.89179 0
M  V30 7018 H 676.601 -1.66956 2.76271 0
M  V30 7019 H 675.653 0.532368 3.76656 0
M  V30 7020 H 676.965 0.48015 4.96484 0
M  V30 7021 H 676.119 -1.71504 5.81955 0
M  V30 7022 H 674.858 -1.74353 4.55469 0
M  V30 7023 H 673.863 0.364856 5.48588 0
M  V30 7024 H 675.088 0.376099 6.78058 0
M  V30 7025 H 673.034 -1.81661 6.30345 0
M  V30 7026 H 672.951 -0.601063 7.53607 0
M  V30 7027 H 674.219 -1.78915 7.58689 0
M  V30 7028 N 678.448 -1.51871 0.421078 0
M  V30 7029 C 679.378 -2.30231 -0.389363 0
M  V30 7030 C 680.359 -1.34946 -1.03555 0
M  V30 7031 O 681.544 -1.63859 -1.04229 0
M  V30 7032 C 678.674 -3.13247 -1.49979 0
M  V30 7033 C 677.628 -4.16677 -0.977966 0
M  V30 7034 C 676.954 -4.88112 -2.1829 0
M  V30 7035 C 678.254 -5.22295 -0.0236775 0
M  V30 7036 H 679.948 -2.98229 0.264524 0
M  V30 7037 H 677.494 -1.43424 0.12866 0
M  V30 7038 H 679.447 -3.66838 -2.07383 0
M  V30 7039 H 678.171 -2.4304 -2.18173 0
M  V30 7040 H 676.83 -3.64114 -0.426245 0
M  V30 7041 H 676.478 -4.14423 -2.85066 0
M  V30 7042 H 676.178 -5.58041 -1.84021 0
M  V30 7043 H 677.702 -5.44521 -2.76278 0
M  V30 7044 H 679.116 -5.71055 -0.506899 0
M  V30 7045 H 677.513 -5.99656 0.230782 0
M  V30 7046 H 678.583 -4.76131 0.917999 0
M  V30 7047 N 679.926 -0.151884 -1.56866 0
M  V30 7048 C 680.873 0.785936 -2.17006 0
M  V30 7049 C 681.843 1.2407 -1.10435 0
M  V30 7050 O 683.028 1.31235 -1.38499 0
M  V30 7051 C 680.168 2.01771 -2.79969 0
M  V30 7052 C 679.281 1.6083 -4.00946 0
M  V30 7053 C 678.416 2.79224 -4.51893 0
M  V30 7054 C 677.455 2.3468 -5.65324 0
M  V30 7055 N 676.592 3.461 -6.10867 0
M  V30 7056 H 681.432 0.266286 -2.96808 0
M  V30 7057 H 678.969 0.11972 -1.46612 0
M  V30 7058 H 680.927 2.73989 -3.14621 0
M  V30 7059 H 679.557 2.51139 -2.02803 0
M  V30 7060 H 678.609 0.783592 -3.72242 0
M  V30 7061 H 679.921 1.24119 -4.83111 0
M  V30 7062 H 679.075 3.59625 -4.88625 0
M  V30 7063 H 677.814 3.19183 -3.68746 0
M  V30 7064 H 676.819 1.52721 -5.28163 0
M  V30 7065 H 678.044 1.95801 -6.5026 0
M  V30 7066 H 675.99 3.85671 -5.30654 0
M  V30 7067 H 675.907 3.1342 -6.87971 0
M  V30 7068 H 677.175 4.26844 -6.52246 0
M  V30 7069 N 681.404 1.57128 0.121893 0
M  V30 7070 C 682.815 1.73902 0.679348 0
M  V30 7071 C 683.166 0.770135 1.80453 0
M  V30 7072 O 682.291 -0.0576083 2.16323 0
M  V30 7073 C 682.886 3.15328 1.2391 0
M  V30 7074 C 681.445 3.33618 1.74288 0
M  V30 7075 C 680.592 2.6978 0.641414 0
M  V30 7076 H 683.543 1.58359 -0.104 0
M  V30 7077 H 683.564 3.16718 2.10879 0
M  V30 7078 H 683.076 3.85821 0.419957 0
M  V30 7079 H 681.177 2.68162 2.58689 0
M  V30 7080 H 681.29 4.4176 1.85432 0
M  V30 7081 H 679.654 2.30935 1.0743 0
M  V30 7082 H 680.437 3.42895 -0.166707 0
M  V30 7083 N 682.882 -0.391992 1.52647 0
M  V30 7084 C 683.83 -1.4991 1.77848 0
M  V30 7085 C 684.824 -1.56587 0.646282 0
M  V30 7086 O 686.03 -1.59789 0.828698 0
M  V30 7087 H 682.405 -0.498883 0.56269 0
M  V30 7088 H 684.376 -1.25847 2.70564 0
M  V30 7089 C 683.125 -2.87081 1.96163 0
M  V30 7090 H 682.448 -2.82692 2.82711 0
M  V30 7091 H 683.888 -3.63792 2.17787 0
M  V30 7092 C 682.347 -3.28822 0.733348 0
M  V30 7093 O 682.877 -4.01598 -0.0906481 0
M  V30 7094 N 681.083 -2.85068 0.564317 0
M  V30 7095 H 680.63 -2.26012 1.23598 0
M  V30 7096 H 680.588 -3.13355 -0.256166 0
M  V30 7097 N 684.36 -1.4356 -0.65026 0
M  V30 7098 C 685.588 -1.48779 -1.43779 0
M  V30 7099 C 686.003 -0.106593 -1.88499 0
M  V30 7100 O 685.36 0.883766 -1.59674 0
M  V30 7101 C 685.411 -2.43618 -2.67081 0
M  V30 7102 O 685.132 -3.76367 -2.24231 0
M  V30 7103 C 686.633 -2.5811 -3.60409 0
M  V30 7104 H 683.853 -0.50521 -0.441593 0
M  V30 7105 H 686.397 -1.88332 -0.796941 0
M  V30 7106 H 684.552 -2.07253 -3.273 0
M  V30 7107 H 684.966 -4.27394 -3.0403 0
M  V30 7108 H 686.44 -3.28539 -4.43583 0
M  V30 7109 H 686.917 -1.627 -4.07953 0
M  V30 7110 H 687.523 -2.95298 -3.0607 0
M  V30 7111 N 685.838 0.888903 -1.30139 0
M  V30 7112 C 687.249 1.45578 -1.16893 0
M  V30 7113 C 687.6 1.94825 0.231866 0
M  V30 7114 O 686.725 1.84661 1.12824 0
M  V30 7115 C 687.32 2.646 -2.11595 0
M  V30 7116 C 685.879 3.17389 -2.02339 0
M  V30 7117 C 685.026 1.90081 -2.01902 0
M  V30 7118 H 687.977 0.69921 -1.42467 0
M  V30 7119 H 687.998 3.40687 -1.69449 0
M  V30 7120 H 687.51 2.28726 -3.13538 0
M  V30 7121 H 685.611 3.5793 -1.03523 0
M  V30 7122 H 685.724 3.80955 -2.90534 0
M  V30 7123 H 684.088 2.08246 -1.46648 0
M  V30 7124 H 684.871 1.5647 -3.05568 0
M  V30 7125 N 687.317 1.12792 1.10072 0
M  V30 7126 C 688.564 0.885545 1.82111 0
M  V30 7127 C 688.892 -0.588519 1.85383 0
M  V30 7128 O 688.147 -1.45124 1.31292 0
M  V30 7129 C 688.446 1.4102 3.28403 0
M  V30 7130 C 688.112 2.89995 3.45273 0
M  V30 7131 C 686.774 3.30671 3.49585 0
M  V30 7132 C 689.126 3.85874 3.50358 0
M  V30 7133 C 686.454 4.65925 3.56553 0
M  V30 7134 C 688.806 5.20963 3.58859 0
M  V30 7135 C 687.47 5.61177 3.61437 0
M  V30 7136 H 686.74 0.324044 0.666391 0
M  V30 7137 H 689.387 1.40874 1.29718 0
M  V30 7138 H 687.692 0.807551 3.83387 0
M  V30 7139 H 689.389 1.19882 3.82661 0
M  V30 7140 H 685.979 2.57537 3.42597 0
M  V30 7141 H 690.163 3.5554 3.46273 0
M  V30 7142 H 685.419 4.96468 3.56833 0
M  V30 7143 H 689.593 5.95079 3.61738 0
M  V30 7144 H 687.22 6.6597 3.66589 0
M  V30 7145 N 688.795 -1.27931 0.920396 0
M  V30 7146 C 689.758 -2.25345 0.41858 0
M  V30 7147 C 690.758 -1.54116 -0.458798 0
M  V30 7148 O 691.948 -1.72235 -0.260912 0
M  V30 7149 C 689.08 -3.38556 -0.399104 0
M  V30 7150 H 690.273 -2.71251 1.27918 0
M  V30 7151 H 687.826 -1.39728 0.700406 0
M  V30 7152 H 688.561 -2.98021 -1.27882 0
M  V30 7153 H 688.346 -3.91426 0.229863 0
M  V30 7154 H 689.836 -4.10976 -0.740817 0
M  V30 7155 N 690.273 -0.685099 -1.4193 0
M  V30 7156 C 691.236 -0.0222632 -2.29189 0
M  V30 7157 C 692.236 0.7186 -1.4385 0
M  V30 7158 O 693.426 0.555058 -1.6512 0
M  V30 7159 C 690.558 0.979013 -3.2654 0
M  V30 7160 H 691.751 -0.790424 -2.89296 0
M  V30 7161 H 689.304 -0.448012 -1.49742 0
M  V30 7162 H 690.039 1.77531 -2.71392 0
M  V30 7163 H 689.824 0.451037 -3.89497 0
M  V30 7164 H 691.314 1.44091 -3.91954 0
M  V30 7165 N 691.751 1.51645 -0.429126 0
M  V30 7166 C 692.979 2.06433 0.138994 0
M  V30 7167 C 693.394 1.29735 1.37165 0
M  V30 7168 O 692.751 0.354638 1.79021 0
M  V30 7169 C 692.802 3.58439 0.469452 0
M  V30 7170 O 692.523 4.32238 -0.714273 0
M  V30 7171 C 694.024 4.29712 1.08914 0
M  V30 7172 H 691.244 0.6709 0.0115608 0
M  V30 7173 H 693.788 1.9532 -0.605843 0
M  V30 7174 H 691.943 3.69494 1.16419 0
M  V30 7175 H 692.357 5.22704 -0.433633 0
M  V30 7176 H 693.831 5.37182 1.27042 0
M  V30 7177 H 694.308 3.87473 2.06788 0
M  V30 7178 H 694.914 4.2308 0.434028 0
M  V30 7179 N 693.229 0.160201 1.56784 0
M  V30 7180 C 694.454 -0.497373 2.01348 0
M  V30 7181 C 694.879 -1.56757 1.03966 0
M  V30 7182 O 694.237 -1.81292 0.0174455 0
M  V30 7183 C 694.285 -1.0628 3.44582 0
M  V30 7184 O 693.389 -2.17723 3.50244 0
M  V30 7185 H 692.73 -0.120295 0.653012 0
M  V30 7186 H 695.26 0.260821 2.02931 0
M  V30 7187 H 695.27 -1.38819 3.83658 0
M  V30 7188 H 693.945 -0.279166 4.14962 0
M  V30 7189 H 692.522 -1.86313 3.2302 0
M  V30 7190 N 694.707 -1.5719 -0.113559 0
M  V30 7191 C 695.932 -1.89702 -0.838336 0
M  V30 7192 C 696.357 -0.752679 -1.72384 0
M  V30 7193 O 695.715 0.296575 -1.78858 0
M  V30 7194 C 695.763 -3.20989 -1.64312 0
M  V30 7195 O 694.867 -3.07278 -2.75053 0
M  V30 7196 H 694.208 -0.622339 -0.231496 0
M  V30 7197 H 696.738 -2.04382 -0.0943228 0
M  V30 7198 H 696.748 -3.53843 -2.03123 0
M  V30 7199 H 695.423 -4.03869 -0.993119 0
M  V30 7200 H 694 -2.85901 -2.39406 0
M  V30 7201 N 696.185 0.383891 -1.52853 0
M  V30 7202 C 697.118 1.49105 -1.72751 0
M  V30 7203 C 698.096 1.52077 -0.575438 0
M  V30 7204 O 699.28 1.70406 -0.805854 0
M  V30 7205 C 696.407 2.87551 -1.78975 0
M  V30 7206 C 695.453 3.02383 -3.00777 0
M  V30 7207 S 696.286 2.73048 -4.60657 0
M  V30 7208 C 697.442 4.13678 -4.69704 0
M  V30 7209 H 697.675 1.32002 -2.66388 0
M  V30 7210 H 695.208 0.577088 -1.4321 0
M  V30 7211 H 697.166 3.6733 -1.83246 0
M  V30 7212 H 695.827 3.01977 -0.864215 0
M  V30 7213 H 695.02 4.03733 -3.01688 0
M  V30 7214 H 694.622 2.30504 -2.94523 0
M  V30 7215 H 696.914 5.07676 -4.48633 0
M  V30 7216 H 697.857 4.1778 -5.71721 0
M  V30 7217 H 698.265 3.99825 -3.98497 0
M  V30 7218 N 697.663 1.43903 0.642637 0
M  V30 7219 C 698.911 1.45791 1.39962 0
M  V30 7220 C 699.232 0.0873144 1.94804 0
M  V30 7221 O 698.502 -0.878825 1.75081 0
M  V30 7222 H 697.082 0.536797 0.519479 0
M  V30 7223 H 699.744 1.7959 0.757189 0
M  V30 7224 H 698.84 2.17665 2.2367 0
M  V30 7225 N 699.141 -0.881989 1.30609 0
M  V30 7226 C 700.071 -2.00413 1.1982 0
M  V30 7227 C 701.052 -1.69871 0.0881538 0
M  V30 7228 O 702.237 -1.92304 0.2707 0
M  V30 7229 C 699.367 -3.35641 0.89233 0
M  V30 7230 C 698.321 -3.80451 1.96064 0
M  V30 7231 C 697.647 -5.13003 1.5077 0
M  V30 7232 C 698.947 -3.98855 3.37213 0
M  V30 7233 H 700.641 -2.09698 2.13699 0
M  V30 7234 H 698.187 -1.00754 1.02882 0
M  V30 7235 H 700.14 -4.13669 0.803497 0
M  V30 7236 H 698.864 -3.26497 -0.0821381 0
M  V30 7237 H 697.523 -3.04654 2.03916 0
M  V30 7238 H 697.171 -5.0029 0.521417 0
M  V30 7239 H 696.871 -5.43956 2.22229 0
M  V30 7240 H 698.395 -5.93554 1.43271 0
M  V30 7241 H 699.809 -4.67312 3.32103 0
M  V30 7242 H 698.206 -4.41188 4.06784 0
M  V30 7243 H 699.276 -3.02614 3.78883 0
M  V30 7244 N 700.619 -1.13374 -1.09472 0
M  V30 7245 C 701.529 -0.824029 -2.19652 0
M  V30 7246 C 702.545 0.19118 -1.72947 0
M  V30 7247 O 703.721 0.0223464 -2.01388 0
M  V30 7248 C 700.786 -0.294009 -3.45451 0
M  V30 7249 C 699.847 -1.3704 -4.0684 0
M  V30 7250 C 699.08 -0.86558 -5.26634 0
M  V30 7251 O 699.303 0.29702 -5.69626 0
M  V30 7252 O 698.237 -1.63968 -5.79136 0
M  V30 7253 H 702.063 -1.74454 -2.48595 0
M  V30 7254 H 699.648 -0.911155 -1.18399 0
M  V30 7255 H 701.53 -0.00381039 -4.214 0
M  V30 7256 H 700.205 0.598921 -3.18111 0
M  V30 7257 H 699.112 -1.71391 -3.3253 0
M  V30 7258 H 700.445 -2.23746 -4.38405 0
M  V30 7259 N 702.098 1.27442 -0.927168 0
M  V30 7260 C 703.326 1.98498 -0.583622 0
M  V30 7261 C 703.741 1.69171 0.838241 0
M  V30 7262 O 703.098 0.951969 1.55704 0
M  V30 7263 C 703.149 3.52552 -0.799341 0
M  V30 7264 O 702.87 3.80851 -2.16527 0
M  V30 7265 C 704.371 4.4086 -0.464436 0
M  V30 7266 H 701.591 0.633487 -0.221213 0
M  V30 7267 H 704.135 1.62308 -1.24404 0
M  V30 7268 H 702.29 3.86955 -0.185728 0
M  V30 7269 H 702.704 4.75441 -2.21487 0
M  V30 7270 H 704.178 5.47967 -0.666075 0
M  V30 7271 H 704.655 4.35082 0.599995 0
M  V30 7272 H 705.261 4.11977 -1.05617 0
M  V30 7273 N 703.576 0.692616 1.41565 0
M  V30 7274 C 704.486 0.0258451 2.34586 0
M  V30 7275 C 705.502 -0.769324 1.56069 0
M  V30 7276 O 706.678 -0.707563 1.88562 0
M  V30 7277 C 703.743 -0.901289 3.3478 0
M  V30 7278 C 702.804 -0.0986579 4.29187 0
M  V30 7279 C 702.037 -0.981634 5.24595 0
M  V30 7280 O 702.26 -2.22115 5.25377 0
M  V30 7281 O 701.194 -0.432892 6.00341 0
M  V30 7282 H 705.02 0.792537 2.93177 0
M  V30 7283 H 702.605 0.452935 1.42369 0
M  V30 7284 H 704.487 -1.43302 3.96286 0
M  V30 7285 H 703.162 -1.64752 2.78637 0
M  V30 7286 H 702.069 0.477604 3.71039 0
M  V30 7287 H 703.402 0.608848 4.8842 0
M  V30 7288 N 705.054 -1.51416 0.437162 0
M  V30 7289 C 705.964 -2.31493 -0.380537 0
M  V30 7290 C 706.98 -1.40399 -1.02782 0
M  V30 7291 O 708.156 -1.73471 -1.02323 0
M  V30 7292 C 705.221 -3.1413 -1.46709 0
M  V30 7293 C 704.282 -4.21003 -0.839953 0
M  V30 7294 C 703.515 -4.9969 -1.87473 0
M  V30 7295 O 703.738 -4.79008 -3.09689 0
M  V30 7296 O 702.672 -5.8379 -1.46536 0
M  V30 7297 H 706.498 -3.02469 0.273183 0
M  V30 7298 H 704.083 -1.48059 0.199706 0
M  V30 7299 H 705.965 -3.65505 -2.09724 0
M  V30 7300 H 704.64 -2.45919 -2.10489 0
M  V30 7301 H 703.547 -3.73706 -0.171752 0
M  V30 7302 H 704.88 -4.91587 -0.245638 0
M  V30 7303 N 706.532 -0.168513 -1.56696 0
M  V30 7304 C 707.464 0.794249 -2.14998 0
M  V30 7305 C 708.477 1.1957 -1.10485 0
M  V30 7306 O 709.666 1.13604 -1.37682 0
M  V30 7307 C 706.766 2.08018 -2.67547 0
M  V30 7308 C 705.939 1.84274 -3.96689 0
M  V30 7309 C 704.998 2.97059 -4.3433 0
M  V30 7310 O 704.024 2.67815 -5.02259 0
M  V30 7311 N 705.226 4.24775 -3.9566 0
M  V30 7312 H 707.991 0.295832 -2.98236 0
M  V30 7313 H 705.552 0.0143611 -1.61894 0
M  V30 7314 H 707.544 2.82559 -2.89729 0
M  V30 7315 H 706.114 2.49059 -1.88914 0
M  V30 7316 H 705.334 0.936528 -3.82914 0
M  V30 7317 H 706.622 1.65773 -4.81037 0
M  V30 7318 H 706.02 4.51395 -3.40968 0
M  V30 7319 H 704.577 4.96027 -4.22848 0
M  V30 7320 N 708.01 1.57248 0.105221 0
M  V30 7321 C 708.92 2.04653 1.14693 0
M  V30 7322 C 709.936 0.969488 1.44489 0
M  V30 7323 O 711.112 1.28196 1.55331 0
M  V30 7324 C 708.177 2.45297 2.45011 0
M  V30 7325 C 707.238 3.67148 2.22489 0
M  V30 7326 C 706.471 4.05844 3.46592 0
M  V30 7327 O 706.694 3.44736 4.54437 0
M  V30 7328 O 705.628 4.98862 3.36779 0
M  V30 7329 H 709.454 2.93663 0.774336 0
M  V30 7330 H 707.039 1.45998 0.31701 0
M  V30 7331 H 708.921 2.72112 3.21766 0
M  V30 7332 H 707.596 1.59429 2.81717 0
M  V30 7333 H 706.503 3.45463 1.43547 0
M  V30 7334 H 707.836 4.53764 1.9068 0
M  V30 7335 N 709.488 -0.375779 1.53054 0
M  V30 7336 C 710.899 -0.95309 1.6054 0
M  V30 7337 C 711.25 -1.90575 0.466446 0
M  V30 7338 O 710.375 -2.12507 -0.408609 0
M  V30 7339 C 710.97 -1.73537 2.90982 0
M  V30 7340 C 709.529 -2.26218 3.00836 0
M  V30 7341 C 708.676 -1.07157 2.55759 0
M  V30 7342 H 711.627 -0.154895 1.57942 0
M  V30 7343 H 711.648 -2.59574 2.78211 0
M  V30 7344 H 711.16 -1.04176 3.73857 0
M  V30 7345 H 709.261 -2.98852 2.22527 0
M  V30 7346 H 709.374 -2.54799 4.05727 0
M  V30 7347 H 707.738 -1.43553 2.10391 0
M  V30 7348 H 708.521 -0.393099 3.41042 0
M  V30 7349 N 710.966 -1.44241 -0.634997 0
M  V30 7350 C 712.191 -1.50516 -1.42687 0
M  V30 7351 C 712.616 -0.129864 -1.87651 0
M  V30 7352 O 711.974 0.880164 -1.58502 0
M  V30 7353 C 712.022 -2.4714 -2.62591 0
M  V30 7354 O 711.126 -1.97025 -3.62291 0
M  V30 7355 H 710.467 -0.50841 -0.427101 0
M  V30 7356 H 712.997 -1.89337 -0.775408 0
M  V30 7357 H 713.007 -2.65048 -3.10183 0
M  V30 7358 H 711.682 -3.47039 -2.29209 0
M  V30 7359 H 710.259 -1.88866 -3.21534 0
M  V30 7360 N 712.444 0.87505 -1.31075 0
M  V30 7361 C 713.693 1.62245 -1.19831 0
M  V30 7362 C 714.006 1.94078 0.24357 0
M  V30 7363 O 715.212 2.67265 0.477646 0
M  V30 7364 C 713.668 2.92464 -2.09744 0
M  V30 7365 C 713.276 2.68134 -3.58898 0
M  V30 7366 C 715.02 3.70449 -2.07287 0
M  V30 7367 C 712.927 3.9423 -4.40836 0
M  V30 7368 H 711.857 0.608741 -0.444916 0
M  V30 7369 H 714.508 0.967947 -1.55894 0
M  V30 7370 H 712.89 3.59262 -1.66574 0
M  V30 7371 H 714.064 2.09776 -4.10281 0
M  V30 7372 H 712.379 2.03511 -3.6328 0
M  V30 7373 H 714.976 4.63983 -2.65752 0
M  V30 7374 H 715.319 4.02611 -1.05876 0
M  V30 7375 H 715.852 3.10528 -2.48631 0
M  V30 7376 H 712.591 3.67221 -5.42982 0
M  V30 7377 H 712.111 4.52058 -3.94213 0
M  V30 7378 H 713.79 4.62162 -4.52786 0
M  V30 7379 N 713.922 1.13953 1.08869 0
M  V30 7380 C 715.171 0.899431 1.80536 0
M  V30 7381 C 715.484 -0.575781 1.86933 0
M  V30 7382 O 716.69 -0.932988 2.54966 0
M  V30 7383 C 715.146 1.55963 3.24351 0
M  V30 7384 C 714.754 3.07077 3.26202 0
M  V30 7385 C 716.498 1.40046 4.00733 0
M  V30 7386 C 714.405 3.65955 4.64576 0
M  V30 7387 H 713.335 0.332849 0.676556 0
M  V30 7388 H 715.986 1.3679 1.22314 0
M  V30 7389 H 714.368 1.01883 3.82669 0
M  V30 7390 H 715.542 3.67785 2.77617 0
M  V30 7391 H 713.857 3.22576 2.63312 0
M  V30 7392 H 716.454 1.81441 5.02974 0
M  V30 7393 H 716.797 0.345993 4.1486 0
M  V30 7394 H 717.33 1.91137 3.48872 0
M  V30 7395 H 714.069 4.71234 4.55652 0
M  V30 7396 H 713.589 3.10027 5.13462 0
M  V30 7397 H 715.268 3.65968 5.33551 0
M  V30 7398 N 715.4 -1.26948 0.933913 0
M  V30 7399 C 716.648 -1.93704 0.576484 0
M  V30 7400 C 716.969 -1.73702 -0.886145 0
M  V30 7401 O 716.239 -1.08838 -1.62884 0
M  V30 7402 H 714.819 -0.716812 0.210214 0
M  V30 7403 H 717.481 -1.54534 1.18766 0
M  V30 7404 H 716.577 -3.01987 0.788055 0
M  V30 7405 N 716.879 -0.700114 -1.41195 0
M  V30 7406 C 717.826 -0.0376652 -2.30769 0
M  V30 7407 C 718.796 0.766544 -1.47354 0
M  V30 7408 O 719.981 0.73365 -1.76131 0
M  V30 7409 C 717.121 0.889452 -3.33441 0
M  V30 7410 C 716.234 0.076373 -4.31932 0
M  V30 7411 C 715.369 1.00155 -5.21673 0
M  V30 7412 C 714.408 0.181644 -6.1183 0
M  V30 7413 N 713.545 1.06087 -6.94039 0
M  V30 7414 H 718.385 -0.80726 -2.86858 0
M  V30 7415 H 715.922 -0.409798 -1.41277 0
M  V30 7416 H 717.88 1.44107 -3.91522 0
M  V30 7417 H 716.51 1.6254 -2.78892 0
M  V30 7418 H 715.562 -0.592223 -3.75762 0
M  V30 7419 H 716.874 -0.559076 -4.95657 0
M  V30 7420 H 716.028 1.62223 -5.8461 0
M  V30 7421 H 714.767 1.67085 -4.58186 0
M  V30 7422 H 713.772 -0.452085 -5.47938 0
M  V30 7423 H 714.997 -0.483925 -6.77374 0
M  V30 7424 H 712.943 1.7161 -6.33156 0
M  V30 7425 H 712.86 0.481094 -7.54468 0
M  V30 7426 H 714.128 1.66822 -7.6144 0
M  V30 7427 N 718.357 1.51182 -0.445186 0
M  V30 7428 C 719.287 2.30821 0.352686 0
M  V30 7429 C 720.268 1.36576 1.01395 0
M  V30 7430 O 721.453 1.65497 1.01609 0
M  V30 7431 C 718.583 3.15593 1.44976 0
M  V30 7432 C 717.537 4.1818 0.911553 0
M  V30 7433 C 716.863 4.91523 2.10497 0
M  V30 7434 C 718.163 5.22266 -0.059418 0
M  V30 7435 H 719.857 2.97771 -0.311936 0
M  V30 7436 H 717.403 1.43201 -0.151461 0
M  V30 7437 H 719.356 3.70091 2.01521 0
M  V30 7438 H 718.08 2.4648 2.14278 0
M  V30 7439 H 716.739 3.64746 0.368264 0
M  V30 7440 H 716.387 4.18906 2.78437 0
M  V30 7441 H 716.087 5.60898 1.7512 0
M  V30 7442 H 717.611 5.48847 2.6758 0
M  V30 7443 H 719.025 5.71789 0.415985 0
M  V30 7444 H 717.422 5.99213 -0.326152 0
M  V30 7445 H 718.492 4.7461 -0.993631 0
M  V30 7446 N 719.835 0.176821 1.56605 0
M  V30 7447 C 720.782 -0.751312 2.18229 0
M  V30 7448 C 721.752 -1.22297 1.12395 0
M  V30 7449 O 722.937 -1.29015 1.40569 0
M  V30 7450 C 720.077 -1.97291 2.83143 0
M  V30 7451 C 719.19 -1.54431 4.03454 0
M  V30 7452 C 718.325 -2.72 4.56278 0
M  V30 7453 C 717.364 -2.25657 5.68986 0
M  V30 7454 N 716.501 -3.36338 6.16296 0
M  V30 7455 H 721.341 -0.219033 2.97194 0
M  V30 7456 H 718.878 -0.0963803 1.46784 0
M  V30 7457 H 720.836 -2.68949 3.1894 0
M  V30 7458 H 719.466 -2.4788 2.06773 0
M  V30 7459 H 718.518 -0.724273 3.73441 0
M  V30 7460 H 719.83 -1.16417 4.85024 0
M  V30 7461 H 718.984 -3.51806 4.94285 0
M  V30 7462 H 717.723 -3.13277 3.73777 0
M  V30 7463 H 716.728 -1.44299 5.30526 0
M  V30 7464 H 717.953 -1.85432 6.53293 0
M  V30 7465 H 715.899 -3.7718 5.36723 0
M  V30 7466 H 715.816 -3.02435 6.9287 0
M  V30 7467 H 717.084 -4.16413 6.58954 0
M  V30 7468 N 721.313 -1.57302 -0.09688 0
M  V30 7469 C 722.559 -1.86273 -0.801885 0
M  V30 7470 C 722.892 -0.765694 -1.78468 0
M  V30 7471 O 722.167 0.226495 -1.93177 0
M  V30 7472 C 722.45 -3.25876 -1.53221 0
M  V30 7473 C 722.303 -4.46205 -0.567529 0
M  V30 7474 C 723.622 -3.63352 -2.48321 0
M  V30 7475 H 720.741 -0.67752 -0.29006 0
M  V30 7476 H 723.383 -1.89887 -0.0655577 0
M  V30 7477 H 721.533 -3.22926 -2.15988 0
M  V30 7478 H 723.205 -4.6127 0.0529982 0
M  V30 7479 H 721.448 -4.33636 0.119233 0
M  V30 7480 H 722.119 -5.40608 -1.11564 0
M  V30 7481 H 724.595 -3.67234 -1.95648 0
M  V30 7482 H 723.471 -4.61968 -2.9644 0
M  V30 7483 H 723.732 -2.91941 -3.31998 0
M  V30 7484 N 722.791 0.367657 -1.53252 0
M  V30 7485 C 723.754 1.43308 -1.78873 0
M  V30 7486 C 724.754 1.46671 -0.659115 0
M  V30 7487 O 725.944 1.47468 -0.927306 0
M  V30 7488 C 723.076 2.82442 -1.90892 0
M  V30 7489 H 724.269 1.21864 -2.74024 0
M  V30 7490 H 721.822 0.600668 -1.44297 0
M  V30 7491 H 722.557 3.09202 -0.978 0
M  V30 7492 H 722.342 2.81399 -2.73051 0
M  V30 7493 H 723.832 3.59601 -2.12314 0
M  V30 7494 N 724.269 1.44576 0.627338 0
M  V30 7495 C 725.517 1.47267 1.38408 0
M  V30 7496 C 725.838 0.107971 1.94701 0
M  V30 7497 O 725.108 -0.860206 1.76004 0
M  V30 7498 H 723.688 0.542276 0.513756 0
M  V30 7499 H 726.35 1.80383 0.738099 0
M  V30 7500 H 725.446 2.20025 2.21349 0
M  V30 7501 N 725.747 -0.868086 1.31537 0
M  V30 7502 C 726.68 -1.97871 1.13676 0
M  V30 7503 C 727.658 -1.62551 0.0397589 0
M  V30 7504 O 728.842 -1.87473 0.196539 0
M  V30 7505 C 725.969 -3.30577 0.73734 0
M  V30 7506 C 725.015 -3.8488 1.83765 0
M  V30 7507 S 725.848 -4.10106 3.44345 0
M  V30 7508 C 727.004 -5.45806 3.06344 0
M  V30 7509 H 727.237 -2.12719 2.07697 0
M  V30 7510 H 724.77 -1.01849 1.16044 0
M  V30 7511 H 726.728 -4.07274 0.513641 0
M  V30 7512 H 725.389 -3.13562 -0.183787 0
M  V30 7513 H 724.582 -4.80821 1.51085 0
M  V30 7514 H 724.184 -3.14981 2.01651 0
M  V30 7515 H 726.476 -6.27535 2.55354 0
M  V30 7516 H 727.419 -5.83437 4.01257 0
M  V30 7517 H 727.827 -5.0917 2.43734 0
M  V30 7518 N 727.225 -1.14528 -1.08264 0
M  V30 7519 C 728.155 -0.856356 -2.1723 0
M  V30 7520 C 729.136 0.189251 -1.69044 0
M  V30 7521 O 730.321 0.0456119 -1.94146 0
M  V30 7522 C 727.451 -0.334662 -3.45684 0
M  V30 7523 C 726.405 -1.31588 -4.0727 0
M  V30 7524 C 725.731 -0.653428 -5.30692 0
M  V30 7525 C 727.031 -2.67866 -4.48381 0
M  V30 7526 H 728.725 -1.76755 -2.41657 0
M  V30 7527 H 726.271 -0.851287 -1.16143 0
M  V30 7528 H 728.224 -0.120128 -4.21229 0
M  V30 7529 H 726.948 0.611967 -3.20815 0
M  V30 7530 H 725.607 -1.51661 -3.33758 0
M  V30 7531 H 725.255 0.299054 -5.0211 0
M  V30 7532 H 724.955 -1.30817 -5.72853 0
M  V30 7533 H 726.479 -0.448453 -6.08951 0
M  V30 7534 H 727.893 -2.51692 -5.15096 0
M  V30 7535 H 726.29 -3.29627 -5.01464 0
M  V30 7536 H 727.36 -3.24632 -3.60198 0
M  V30 7537 N 728.703 1.26451 -0.940633 0
M  V30 7538 C 729.666 2.24651 -0.454378 0
M  V30 7539 C 730.666 1.54826 0.434222 0
M  V30 7540 O 731.856 1.72628 0.233477 0
M  V30 7541 C 728.988 3.39148 0.345192 0
M  V30 7542 H 730.181 2.69182 -1.32217 0
M  V30 7543 H 727.734 1.38596 -0.722547 0
M  V30 7544 H 728.469 3.00018 1.23125 0
M  V30 7545 H 728.254 3.9101 -0.292107 0
M  V30 7546 H 729.744 4.12103 0.675341 0
M  V30 7547 N 730.181 0.707592 1.40822 0
M  V30 7548 C 731.427 0.244031 2.01326 0
M  V30 7549 C 731.76 -1.15722 1.55955 0
M  V30 7550 O 731.035 -1.78347 0.776044 0
M  V30 7551 C 731.318 0.315128 3.58718 0
M  V30 7552 C 731.171 1.75419 4.14184 0
M  V30 7553 C 732.49 -0.318251 4.38948 0
M  V30 7554 H 729.609 0.0901471 0.731466 0
M  V30 7555 H 732.251 0.898584 1.67408 0
M  V30 7556 H 730.401 -0.242176 3.87744 0
M  V30 7557 H 732.073 2.36626 3.95987 0
M  V30 7558 H 730.316 2.28449 3.68773 0
M  V30 7559 H 730.987 1.75538 5.23345 0
M  V30 7560 H 733.463 0.156514 4.15806 0
M  V30 7561 H 732.339 -0.238019 5.48384 0
M  V30 7562 H 732.6 -1.40067 4.19325 0
M  V30 7563 N 731.66 -1.50943 0.453197 0
M  V30 7564 C 732.908 -2.01813 -0.107709 0
M  V30 7565 C 733.229 -1.33841 -1.41816 0
M  V30 7566 O 732.499 -0.477973 -1.8998 0
M  V30 7567 H 731.079 -0.745773 -0.0427948 0
M  V30 7568 H 733.741 -1.8545 0.599531 0
M  V30 7569 H 732.837 -3.10911 -0.27218 0
M  V30 7570 N 733.138 -0.185124 -1.56509 0
M  V30 7571 C 734.085 0.739729 -2.18624 0
M  V30 7572 C 735.055 1.217 -1.13042 0
M  V30 7573 O 736.24 1.28268 -1.41251 0
M  V30 7574 C 733.38 1.95787 -2.84186 0
M  V30 7575 C 732.493 1.52289 -4.04267 0
M  V30 7576 C 731.628 2.69576 -4.57714 0
M  V30 7577 C 730.667 2.22636 -5.70175 0
M  V30 7578 N 729.804 3.33065 -6.18071 0
M  V30 7579 H 734.644 0.203269 -2.97306 0
M  V30 7580 H 732.181 0.0885946 -1.46833 0
M  V30 7581 H 734.139 2.67253 -3.20361 0
M  V30 7582 H 732.769 2.4678 -2.08085 0
M  V30 7583 H 731.821 0.704458 -3.7382 0
M  V30 7584 H 733.133 1.13843 -4.85635 0
M  V30 7585 H 732.287 3.4918 -4.96143 0
M  V30 7586 H 731.026 3.1129 -3.75433 0
M  V30 7587 H 730.031 1.41483 -5.31284 0
M  V30 7588 H 731.256 1.81964 -6.54267 0
M  V30 7589 H 729.202 3.74328 -5.38715 0
M  V30 7590 H 729.119 2.98756 -6.94464 0
M  V30 7591 H 730.387 4.12912 -6.61153 0
M  V30 7592 N 734.616 1.57351 0.0885366 0
M  V30 7593 C 735.526 2.05858 1.12516 0
M  V30 7594 C 736.542 0.984758 1.43452 0
M  V30 7595 O 737.718 1.29836 1.53963 0
M  V30 7596 C 734.783 2.47882 2.42395 0
M  V30 7597 C 733.844 3.69487 2.18582 0
M  V30 7598 C 733.077 4.09497 3.42268 0
M  V30 7599 O 733.3 3.49536 4.50755 0
M  V30 7600 O 732.234 5.02406 3.31469 0
M  V30 7601 H 736.06 2.94467 0.743146 0
M  V30 7602 H 733.645 1.46326 0.301507 0
M  V30 7603 H 735.527 2.75509 3.18862 0
M  V30 7604 H 734.202 1.62408 2.8001 0
M  V30 7605 H 733.109 3.46967 1.39875 0
M  V30 7606 H 734.442 4.55761 1.85857 0
M  V30 7607 N 736.094 -0.359525 1.53444 0
M  V30 7608 C 737.34 -1.10315 1.70172 0
M  V30 7609 C 737.673 -1.88788 0.455287 0
M  V30 7610 O 736.948 -1.86635 -0.547514 0
M  V30 7611 C 737.231 -2.05744 2.95536 0
M  V30 7612 C 737.084 -1.3084 4.3035 0
M  V30 7613 C 738.403 -3.05784 3.16518 0
M  V30 7614 H 735.522 -0.399662 0.619225 0
M  V30 7615 H 738.164 -0.383338 1.86093 0
M  V30 7616 H 736.314 -2.67125 2.82093 0
M  V30 7617 H 737.986 -0.721959 4.55615 0
M  V30 7618 H 736.229 -0.610283 4.29486 0
M  V30 7619 H 736.9 -2.00718 5.14214 0
M  V30 7620 H 739.376 -2.5451 3.29187 0
M  V30 7621 H 738.252 -3.69772 4.05659 0
M  V30 7622 H 738.513 -3.76289 2.32076 0
M  V30 7623 N 737.572 -1.44907 -0.619662 0
M  V30 7624 C 738.52 -1.52971 -1.75222 0
M  V30 7625 C 739.514 -0.400531 -1.64597 0
M  V30 7626 O 740.72 -0.575952 -1.70537 0
M  V30 7627 H 737.095 -0.480241 -0.578682 0
M  V30 7628 H 739.066 -2.48269 -1.65545 0
M  V30 7629 C 737.815 -1.50204 -3.13583 0
M  V30 7630 H 737.138 -2.36412 -3.22412 0
M  V30 7631 H 738.578 -1.59905 -3.92691 0
M  V30 7632 C 737.037 -0.22455 -3.36151 0
M  V30 7633 O 737.567 0.700574 -3.95544 0
M  V30 7634 N 735.773 -0.124052 -2.90335 0
M  V30 7635 H 735.32 -0.87774 -2.42185 0
M  V30 7636 H 735.278 0.729914 -3.0581 0
M  V30 7637 N 739.05 0.861098 -1.31996 0
M  V30 7638 C 739.98 1.98482 -1.22993 0
M  V30 7639 C 740.961 1.6971 -0.115168 0
M  V30 7640 O 742.146 1.91849 -0.30126 0
M  V30 7641 C 739.276 3.34179 -0.945615 0
M  V30 7642 C 738.23 3.77284 -2.02091 0
M  V30 7643 C 737.556 5.1054 -1.58912 0
M  V30 7644 C 738.856 3.93439 -3.43515 0
M  V30 7645 H 740.55 2.06271 -2.17008 0
M  V30 7646 H 738.096 0.991043 -1.04472 0
M  V30 7647 H 740.049 4.12338 -0.869206 0
M  V30 7648 H 738.773 3.26586 0.0301849 0
M  V30 7649 H 737.432 3.01371 -2.08737 0
M  V30 7650 H 737.08 4.99397 -0.600942 0
M  V30 7651 H 736.78 5.40352 -2.30854 0
M  V30 7652 H 738.304 5.91199 -1.52696 0
M  V30 7653 H 739.718 4.6197 -3.39495 0
M  V30 7654 H 738.115 4.34661 -4.13751 0
M  V30 7655 H 739.185 2.96548 -3.8365 0
M  V30 7656 N 740.528 1.15101 1.07655 0
M  V30 7657 C 741.774 0.925343 1.80458 0
M  V30 7658 C 742.107 -0.546354 1.86356 0
M  V30 7659 O 741.382 -1.40496 1.34503 0
M  V30 7660 C 741.665 1.53646 3.25676 0
M  V30 7661 C 741.518 3.07854 3.27942 0
M  V30 7662 C 742.837 1.21968 4.22861 0
M  V30 7663 H 739.956 0.337592 0.655134 0
M  V30 7664 H 742.598 1.42217 1.25993 0
M  V30 7665 H 740.748 1.11395 3.72187 0
M  V30 7666 H 742.42 3.58989 2.89697 0
M  V30 7667 H 740.663 3.41904 2.66991 0
M  V30 7668 H 741.334 3.45725 4.30324 0
M  V30 7669 H 743.81 1.5851 3.84726 0
M  V30 7670 H 742.686 1.67349 5.22767 0
M  V30 7671 H 742.947 0.136207 4.4189 0
M  V30 7672 N 742.006 -1.2595 0.947325 0
M  V30 7673 C 742.936 -2.28521 0.479604 0
M  V30 7674 C 743.917 -1.63469 -0.470293 0
M  V30 7675 O 745.102 -1.90627 -0.370824 0
M  V30 7676 C 742.232 -3.46397 -0.250289 0
M  V30 7677 C 741.186 -4.23578 0.613643 0
M  V30 7678 C 740.512 -5.34131 -0.246568 0
M  V30 7679 C 741.812 -4.86979 1.88809 0
M  V30 7680 H 743.506 -2.67895 1.33688 0
M  V30 7681 H 741.052 -1.28783 0.644274 0
M  V30 7682 H 743.005 -4.17269 -0.588576 0
M  V30 7683 H 741.729 -3.05993 -1.14175 0
M  V30 7684 H 740.388 -3.54478 0.93491 0
M  V30 7685 H 740.036 -4.89968 -1.13756 0
M  V30 7686 H 739.736 -5.86683 0.328123 0
M  V30 7687 H 741.26 -6.07839 -0.579986 0
M  V30 7688 H 742.674 -5.50034 1.61666 0
M  V30 7689 H 741.071 -5.49675 2.40784 0
M  V30 7690 H 742.141 -4.09575 2.5957 0
M  V30 7691 N 743.484 -0.715051 -1.40445 0
M  V30 7692 C 744.414 -0.0768699 -2.33373 0
M  V30 7693 C 745.395 0.746109 -1.52863 0
M  V30 7694 O 746.58 0.695142 -1.81332 0
M  V30 7695 C 743.71 0.846014 -3.36838 0
M  V30 7696 C 742.664 0.128694 -4.27806 0
M  V30 7697 C 741.99 1.16726 -5.21804 0
M  V30 7698 C 743.29 -1.01679 -5.12307 0
M  V30 7699 H 744.984 -0.853061 -2.8699 0
M  V30 7700 H 742.53 -0.41167 -1.3799 0
M  V30 7701 H 744.483 1.30185 -4.00786 0
M  V30 7702 H 743.207 1.6541 -2.81615 0
M  V30 7703 H 741.866 -0.307314 -3.6531 0
M  V30 7704 H 741.514 1.96838 -4.62887 0
M  V30 7705 H 741.214 0.692188 -5.83509 0
M  V30 7706 H 742.738 1.62321 -5.88629 0
M  V30 7707 H 744.152 -0.640337 -5.69713 0
M  V30 7708 H 742.549 -1.4202 -5.83053 0
M  V30 7709 H 743.619 -1.84769 -4.48317 0
M  V30 7710 N 744.962 1.50701 -0.461195 0
M  V30 7711 C 745.892 2.31182 0.328184 0
M  V30 7712 C 746.873 1.37644 0.999408 0
M  V30 7713 O 748.058 1.66565 0.99848 0
M  V30 7714 C 745.188 3.17113 1.41621 0
M  V30 7715 C 744.142 4.19124 0.867148 0
M  V30 7716 C 743.468 4.93728 2.05272 0
M  V30 7717 C 744.768 5.22174 -0.114808 0
M  V30 7718 H 746.462 2.97423 -0.343501 0
M  V30 7719 H 744.008 1.43033 -0.166641 0
M  V30 7720 H 745.961 3.72208 1.97584 0
M  V30 7721 H 744.685 2.48739 2.11652 0
M  V30 7722 H 743.344 3.65116 0.329557 0
M  V30 7723 H 742.992 4.21835 2.73978 0
M  V30 7724 H 742.692 5.62724 1.69161 0
M  V30 7725 H 744.216 5.51654 2.61744 0
M  V30 7726 H 745.63 5.72198 0.355316 0
M  V30 7727 H 744.027 5.98833 -0.389689 0
M  V30 7728 H 745.097 4.7353 -1.04391 0
M  V30 7729 N 746.441 0.193421 1.56409 0
M  V30 7730 C 747.388 -0.728124 2.19014 0
M  V30 7731 C 748.358 -1.21098 1.13686 0
M  V30 7732 O 749.543 -1.27517 1.4193 0
M  V30 7733 C 746.683 -1.94277 2.8522 0
M  V30 7734 C 745.796 -1.50143 4.05069 0
M  V30 7735 C 744.931 -2.67145 4.59137 0
M  V30 7736 C 743.97 -2.19609 5.71348 0
M  V30 7737 N 743.107 -3.29782 6.19829 0
M  V30 7738 H 747.947 -0.187499 2.9741 0
M  V30 7739 H 745.484 -0.0808064 1.46878 0
M  V30 7740 H 747.442 -2.65551 3.21774 0
M  V30 7741 H 746.072 -2.45673 2.09391 0
M  V30 7742 H 745.124 -0.684624 3.74189 0
M  V30 7743 H 746.436 -1.11266 4.86232 0
M  V30 7744 H 745.59 -3.46544 4.97988 0
M  V30 7745 H 744.329 -3.09295 3.77078 0
M  V30 7746 H 743.334 -1.38664 5.32027 0
M  V30 7747 H 744.559 -1.78492 6.55223 0
M  V30 7748 H 742.505 -3.71466 5.40693 0
M  V30 7749 H 742.422 -2.95069 6.96039 0
M  V30 7750 H 743.69 -4.094 6.63334 0
M  V30 7751 N 747.919 -1.57396 -0.0801906 0
M  V30 7752 C 748.867 -2.04136 -1.11495 0
M  V30 7753 C 749.861 -0.945137 -1.40583 0
M  V30 7754 O 751.067 -1.13028 -1.40088 0
M  V30 7755 H 747.442 -0.65076 -0.37685 0
M  V30 7756 H 749.413 -2.90205 -0.694526 0
M  V30 7757 C 748.162 -2.49399 -2.42272 0
M  V30 7758 H 747.485 -3.33339 -2.20737 0
M  V30 7759 H 748.925 -2.85864 -3.13142 0
M  V30 7760 C 747.384 -1.37341 -3.07635 0
M  V30 7761 O 747.914 -0.710829 -3.95361 0
M  V30 7762 N 746.12 -1.12064 -2.68123 0
M  V30 7763 H 745.667 -1.66126 -1.96875 0
M  V30 7764 H 745.625 -0.372916 -3.12181 0
M  V30 7765 N 749.397 0.351382 -1.53633 0
M  V30 7766 C 750.327 1.43688 -1.84055 0
M  V30 7767 C 751.308 1.55251 -0.695073 0
M  V30 7768 O 752.493 1.69587 -0.946257 0
M  V30 7769 C 749.623 2.80843 -2.04315 0
M  V30 7770 C 748.577 2.84094 -3.20117 0
M  V30 7771 C 747.903 4.2406 -3.25696 0
M  V30 7772 C 749.203 2.50334 -4.58399 0
M  V30 7773 H 750.897 1.18478 -2.74961 0
M  V30 7774 H 748.443 0.568509 -1.32303 0
M  V30 7775 H 750.396 3.56821 -2.2418 0
M  V30 7776 H 749.12 3.07471 -1.10132 0
M  V30 7777 H 747.779 2.10568 -3.00094 0
M  V30 7778 H 747.427 4.47785 -2.29123 0
M  V30 7779 H 747.127 4.27147 -4.03509 0
M  V30 7780 H 748.651 5.0189 -3.47762 0
M  V30 7781 H 750.065 3.16025 -4.78332 0
M  V30 7782 H 748.462 2.64717 -5.38558 0
M  V30 7783 H 749.532 1.45542 -4.62543 0
M  V30 7784 N 750.875 1.45233 0.611969 0
M  V30 7785 C 752.1 1.52767 1.40274 0
M  V30 7786 C 752.525 0.159701 1.87421 0
M  V30 7787 O 751.883 -0.854837 1.59882 0
M  V30 7788 C 751.931 2.51286 2.58626 0
M  V30 7789 O 751.035 2.02764 3.59111 0
M  V30 7790 H 750.376 0.515141 0.418958 0
M  V30 7791 H 752.906 1.90547 0.745188 0
M  V30 7792 H 752.916 2.69949 3.05927 0
M  V30 7793 H 751.591 3.50641 2.23659 0
M  V30 7794 H 750.168 1.93957 3.18489 0
M  V30 7795 N 752.353 -0.854086 1.3245 0
M  V30 7796 C 753.769 -1.14238 1.11453 0
M  V30 7797 C 753.969 -2.01228 -0.10461 0
M  V30 7798 O 753.025 -2.39845 -0.789339 0
M  V30 7799 C 754.338 -1.81916 2.39431 0
M  V30 7800 C 755.886 -1.94549 2.45193 0
M  V30 7801 C 756.361 -2.65642 3.73093 0
M  V30 7802 N 757.852 -2.73167 3.74078 0
M  V30 7803 C 758.587 -3.28828 4.69744 0
M  V30 7804 N 758.083 -3.85295 5.75778 0
M  V30 7805 N 759.876 -3.26936 4.57241 0
M  V30 7806 H 752.027 -0.274786 2.10615 0
M  V30 7807 H 754.29 -0.184375 0.929898 0
M  V30 7808 H 753.996 -1.25452 3.28565 0
M  V30 7809 H 753.87 -2.82068 2.50434 0
M  V30 7810 H 756.257 -2.50172 1.56518 0
M  V30 7811 H 756.338 -0.933914 2.38142 0
M  V30 7812 H 755.982 -2.10683 4.62142 0
M  V30 7813 H 755.912 -3.6724 3.77415 0
M  V30 7814 H 758.403 -2.33108 2.97438 0
M  V30 7815 H 758.716 -4.25925 6.44832 0
M  V30 7816 H 757.061 -3.83625 5.79531 0
M  V30 7817 H 760.252 -2.8207 3.7357 0
M  V30 7818 H 760.425 -3.70014 5.31971 0
M  V30 7819 N 753.831 -1.1567 -1.07043 0
M  V30 7820 C 755.108 -0.843948 -1.76456 0
M  V30 7821 C 755.488 0.659806 -2.00524 0
M  V30 7822 O 754.836 1.60518 -1.62623 0
M  V30 7823 C 755.046 -1.65822 -3.0709 0
M  V30 7824 C 756.394 -1.8664 -3.8138 0
M  V30 7825 O 757.418 -1.62624 -3.1691 0
M  V30 7826 O 756.277 -2.26884 -4.97178 0
M  V30 7827 H 753.371 -0.310677 -0.766426 0
M  V30 7828 H 755.917 -1.26266 -1.1338 0
M  V30 7829 H 754.689 -2.67902 -2.85209 0
M  V30 7830 H 754.312 -1.23605 -3.77899 0
M  V30 7831 N 755.309 1.25446 -0.953992 0
M  V30 7832 C 756.537 1.97215 -0.625595 0
M  V30 7833 C 756.952 1.70911 0.802168 0
M  V30 7834 O 756.309 0.984782 1.5365 0
M  V30 7835 C 756.36 3.50777 -0.873943 0
M  V30 7836 O 756.081 3.76173 -2.24556 0
M  V30 7837 C 757.582 4.39776 -0.557845 0
M  V30 7838 H 754.802 0.628652 -0.2346 0
M  V30 7839 H 757.346 1.59632 -1.27819 0
M  V30 7840 H 755.501 3.86474 -0.267765 0
M  V30 7841 H 755.915 4.70636 -2.31522 0
M  V30 7842 H 757.389 5.46431 -0.782157 0
M  V30 7843 H 757.866 4.36257 0.507573 0
M  V30 7844 H 758.472 4.09644 -1.14332 0
M  V30 7845 N 756.787 0.722489 1.40064 0
M  V30 7846 C 757.734 0.0743738 2.3068 0
M  V30 7847 C 758.704 -0.743004 1.48555 0
M  V30 7848 O 759.889 -0.705536 1.77276 0
M  V30 7849 C 757.029 -0.836292 3.34814 0
M  V30 7850 C 756.142 -0.00764663 4.31999 0
M  V30 7851 C 755.277 -0.918428 5.232 0
M  V30 7852 C 754.316 -0.0842838 6.12042 0
M  V30 7853 N 753.453 -0.950316 6.95639 0
M  V30 7854 H 758.293 0.852794 2.85537 0
M  V30 7855 H 755.83 0.432222 1.40607 0
M  V30 7856 H 757.788 -1.3786 3.93765 0
M  V30 7857 H 756.418 -1.58082 2.81443 0
M  V30 7858 H 755.47 0.651928 3.74772 0
M  V30 7859 H 756.782 0.63786 4.94705 0
M  V30 7860 H 755.936 -1.52902 5.87116 0
M  V30 7861 H 754.675 -1.59774 4.60786 0
M  V30 7862 H 753.68 0.5392 5.4715 0
M  V30 7863 H 754.905 0.591628 6.76518 0
M  V30 7864 H 752.851 -1.61515 6.35806 0
M  V30 7865 H 752.768 -0.361004 7.55138 0
M  V30 7866 H 754.036 -1.54687 7.63997 0
M  V30 7867 N 758.265 -1.50454 0.469181 0
M  V30 7868 C 759.493 -2.06729 -0.0842134 0
M  V30 7869 C 759.908 -1.33326 -1.33677 0
M  V30 7870 O 759.265 -0.401977 -1.78018 0
M  V30 7871 C 759.316 -3.59557 -0.374253 0
M  V30 7872 O 759.037 -4.30192 0.828622 0
M  V30 7873 C 760.538 -4.32449 -0.974824 0
M  V30 7874 H 757.758 -0.670971 0.006231 0
M  V30 7875 H 760.302 -1.93645 0.657415 0
M  V30 7876 H 758.457 -3.7245 -1.06581 0
M  V30 7877 H 758.871 -5.21371 0.572066 0
M  V30 7878 H 760.345 -5.40361 -1.12755 0
M  V30 7879 H 760.822 -3.92819 -1.96442 0
M  V30 7880 H 761.428 -4.24082 -0.321703 0
M  V30 7881 N 759.743 -0.201713 -1.56304 0
M  V30 7882 C 760.989 0.435952 -1.98059 0
M  V30 7883 C 761.322 1.60811 -1.08873 0
M  V30 7884 O 760.597 1.9398 -0.142128 0
M  V30 7885 C 760.88 0.889706 -3.48936 0
M  V30 7886 C 760.733 -0.284725 -4.48898 0
M  V30 7887 C 762.052 1.7529 -4.03685 0
M  V30 7888 H 759.171 0.15699 -0.720085 0
M  V30 7889 H 761.813 -0.293965 -1.87712 0
M  V30 7890 H 759.963 1.51166 -3.57884 0
M  V30 7891 H 761.635 -0.922531 -4.51981 0
M  V30 7892 H 759.878 -0.935427 -4.23594 0
M  V30 7893 H 760.549 0.0753865 -5.51949 0
M  V30 7894 H 763.025 1.2283 -3.97558 0
M  V30 7895 H 761.901 2.03933 -5.0961 0
M  V30 7896 H 762.162 2.70939 -3.49348 0
M  V30 7897 N 761.222 1.57436 0.0718424 0
M  V30 7898 C 762.45 1.91474 0.783932 0
M  V30 7899 C 762.865 0.797669 1.71122 0
M  V30 7900 O 762.222 -0.228989 1.81058 0
M  V30 7901 C 762.273 3.25259 1.57761 0
M  V30 7902 O 761.994 4.3267 0.687596 0
M  V30 7903 C 763.495 3.7331 2.3907 0
M  V30 7904 H 760.715 0.632901 0.222885 0
M  V30 7905 H 763.259 2.04457 0.0421262 0
M  V30 7906 H 761.414 3.13804 2.27169 0
M  V30 7907 H 761.828 5.09641 1.23962 0
M  V30 7908 H 763.302 4.69551 2.90216 0
M  V30 7909 H 763.779 3.02318 3.18591 0
M  V30 7910 H 764.385 3.8771 1.74818 0
M  V30 7911 N 762.7 -0.34323 1.53817 0
M  V30 7912 C 763.946 -1.08504 1.71332 0
M  V30 7913 C 764.279 -1.88294 0.475285 0
M  V30 7914 O 763.554 -1.87205 -0.527688 0
M  V30 7915 C 763.837 -2.02597 2.97702 0
M  V30 7916 C 763.69 -1.26268 4.31713 0
M  V30 7917 C 765.009 -3.0241 3.19744 0
M  V30 7918 H 762.128 -0.393072 0.623429 0
M  V30 7919 H 764.77 -0.363579 1.86489 0
M  V30 7920 H 762.92 -2.64118 2.8491 0
M  V30 7921 H 764.592 -0.673594 4.56356 0
M  V30 7922 H 762.835 -0.564696 4.30109 0
M  V30 7923 H 763.506 -1.95253 5.16314 0
M  V30 7924 H 765.982 -2.51004 3.31868 0
M  V30 7925 H 764.858 -3.65449 4.09558 0
M  V30 7926 H 765.119 -3.73806 2.36054 0
M  V30 7927 N 764.178 -1.45556 -0.604258 0
M  V30 7928 C 765.126 -1.5482 -1.7359 0
M  V30 7929 C 766.12 -0.417966 -1.64163 0
M  V30 7930 O 767.326 -0.594007 -1.69916 0
M  V30 7931 H 763.701 -0.486352 -0.573556 0
M  V30 7932 H 765.672 -2.5001 -1.62903 0
M  V30 7933 C 764.421 -1.53521 -3.11972 0
M  V30 7934 H 763.744 -2.39818 -3.19886 0
M  V30 7935 H 765.184 -1.64061 -3.90973 0
M  V30 7936 C 763.643 -0.260191 -3.35894 0
M  V30 7937 O 764.173 0.658582 -3.96265 0
M  V30 7938 N 762.379 -0.154839 -2.90187 0
M  V30 7939 H 761.926 -0.903378 -2.4124 0
M  V30 7940 H 761.884 0.697437 -3.06567 0
M  V30 7941 N 765.656 0.84705 -1.32902 0
M  V30 7942 C 766.589 1.96038 -1.1681 0
M  V30 7943 C 767.567 1.62468 -0.0656144 0
M  V30 7944 O 768.751 1.87136 -0.226339 0
M  V30 7945 C 765.878 3.29362 -0.789839 0
M  V30 7946 C 764.924 3.81908 -1.89865 0
M  V30 7947 S 765.757 4.04576 -3.50826 0
M  V30 7948 C 766.913 5.40863 -3.14989 0
M  V30 7949 H 767.146 2.09387 -2.11055 0
M  V30 7950 H 764.679 0.999896 -1.1765 0
M  V30 7951 H 766.637 4.06405 -0.578369 0
M  V30 7952 H 765.298 3.13815 0.133878 0
M  V30 7953 H 764.491 4.78357 -1.58716 0
M  V30 7954 H 764.093 3.11733 -2.06636 0
M  V30 7955 H 766.385 6.23393 -2.65306 0
M  V30 7956 H 767.328 5.7698 -4.10488 0
M  V30 7957 H 767.736 5.05228 -2.51804 0
M  V30 7958 N 767.134 1.16236 1.06428 0
M  V30 7959 C 768.362 0.967184 1.82902 0
M  V30 7960 C 768.777 -0.484601 1.82475 0
M  V30 7961 O 768.134 -1.33631 1.24294 0
M  V30 7962 C 768.185 1.48534 3.29576 0
M  V30 7963 O 767.906 2.88026 3.3011 0
M  V30 7964 C 769.407 1.33298 4.22784 0
M  V30 7965 H 766.627 0.342923 0.576754 0
M  V30 7966 H 769.171 1.54232 1.34286 0
M  V30 7967 H 767.326 0.952513 3.75508 0
M  V30 7968 H 767.74 3.11721 4.21818 0
M  V30 7969 H 769.214 1.74385 5.23731 0
M  V30 7970 H 769.691 0.278356 4.38317 0
M  V30 7971 H 770.297 1.85535 3.82697 0
M  V30 7972 N 768.612 -1.24939 0.960631 0
M  V30 7973 C 769.575 -2.239 0.49006 0
M  V30 7974 C 770.575 -1.55497 -0.409535 0
M  V30 7975 O 771.765 -1.72978 -0.205984 0
M  V30 7976 C 768.897 -3.39654 -0.291193 0
M  V30 7977 H 770.09 -2.67044 1.36482 0
M  V30 7978 H 767.643 -1.37429 0.744505 0
M  V30 7979 H 768.378 -3.01939 -1.18336 0
M  V30 7980 H 768.163 -3.90496 0.354276 0
M  V30 7981 H 769.653 -4.13125 -0.609693 0
M  V30 7982 N 770.09 -0.729906 -1.39679 0
M  V30 7983 C 771.336 -0.284905 -2.01395 0
M  V30 7984 C 771.691 1.11394 -1.56873 0
M  V30 7985 O 770.984 1.74765 -0.785342 0
M  V30 7986 C 771.178 -0.319564 -3.55968 0
M  V30 7987 C 771.007 -1.72024 -4.15497 0
M  V30 7988 C 769.777 -2.33128 -4.48307 0
M  V30 7989 C 771.975 -2.67296 -4.39383 0
M  V30 7990 N 769.957 -3.65403 -4.93309 0
M  V30 7991 C 771.328 -3.84298 -4.86534 0
M  V30 7992 C 773.383 -2.65124 -4.21442 0
M  V30 7993 C 772.086 -4.99455 -5.17627 0
M  V30 7994 C 774.112 -3.7942 -4.53646 0
M  V30 7995 C 773.474 -4.95156 -5.00999 0
M  V30 7996 H 769.573 -0.1504 -0.767401 0
M  V30 7997 H 772.157 -0.954783 -1.69682 0
M  V30 7998 H 770.328 0.319938 -3.8708 0
M  V30 7999 H 772.06 0.143504 -4.04445 0
M  V30 8000 H 768.815 -1.85097 -4.35931 0
M  V30 8001 H 769.239 -4.33298 -5.20175 0
M  V30 8002 H 773.881 -1.76842 -3.8404 0
M  V30 8003 H 771.599 -5.88371 -5.53937 0
M  V30 8004 H 775.185 -3.79031 -4.41392 0
M  V30 8005 H 774.065 -5.82131 -5.25446 0
M  V30 8006 N 771.568 1.50203 -0.477153 0
M  V30 8007 C 772.796 2.0677 0.0732489 0
M  V30 8008 C 773.211 1.34033 1.32968 0
M  V30 8009 O 772.568 0.411412 1.77802 0
M  V30 8010 C 772.619 3.59751 0.35518 0
M  V30 8011 O 772.34 4.29747 -0.851425 0
M  V30 8012 C 773.841 4.3296 0.951877 0
M  V30 8013 H 771.061 0.670929 -0.00978923 0
M  V30 8014 H 773.605 1.93293 -0.667676 0
M  V30 8015 H 771.76 3.7301 1.04605 0
M  V30 8016 H 772.174 5.2106 -0.599708 0
M  V30 8017 H 773.648 5.40952 1.09888 0
M  V30 8018 H 774.125 3.93856 1.94356 0
M  V30 8019 H 774.731 4.24246 0.299208 0
M  V30 8020 N 773.046 0.209999 1.56195 0
M  V30 8021 C 774.295 -0.425106 1.97169 0
M  V30 8022 C 774.608 -1.61718 1.10031 0
M  V30 8023 O 775.814 -2.32105 1.40853 0
M  V30 8024 C 774.27 -0.80771 3.50719 0
M  V30 8025 C 773.878 0.360902 4.46544 0
M  V30 8026 C 775.622 -1.40906 4.00432 0
M  V30 8027 C 773.529 -0.0434919 5.91384 0
M  V30 8028 H 772.459 -0.162598 0.736259 0
M  V30 8029 H 775.11 0.304382 1.80958 0
M  V30 8030 H 773.492 -1.59429 3.62489 0
M  V30 8031 H 774.666 1.13846 4.46515 0
M  V30 8032 H 772.981 0.874729 4.07109 0
M  V30 8033 H 775.578 -1.72433 5.06133 0
M  V30 8034 H 775.921 -2.32081 3.45607 0
M  V30 8035 H 776.454 -0.686154 3.91838 0
M  V30 8036 H 773.193 0.834448 6.50167 0
M  V30 8037 H 772.713 -0.785598 5.94633 0
M  V30 8038 H 774.392 -0.474176 6.4526 0
M  V30 8039 N 774.524 -1.57472 -0.0634922 0
M  V30 8040 C 775.773 -1.86837 -0.759928 0
M  V30 8041 C 776.086 -0.803823 -1.7832 0
M  V30 8042 O 777.292 -0.985578 -2.52979 0
M  V30 8043 C 775.748 -3.31448 -1.4025 0
M  V30 8044 C 775.356 -4.46052 -0.417368 0
M  V30 8045 C 777.1 -3.70003 -2.08082 0
M  V30 8046 C 775.007 -5.81707 -1.06633 0
M  V30 8047 H 773.937 -0.697009 -0.287567 0
M  V30 8048 H 776.588 -1.83495 -0.0133914 0
M  V30 8049 H 774.97 -3.29427 -2.19759 0
M  V30 8050 H 776.144 -4.5948 0.348503 0
M  V30 8051 H 774.459 -4.16104 0.156955 0
M  V30 8052 H 777.056 -4.68653 -2.57426 0
M  V30 8053 H 777.399 -3.00226 -2.88393 0
M  V30 8054 H 777.932 -3.7405 -1.35394 0
M  V30 8055 H 774.671 -6.54798 -0.303374 0
M  V30 8056 H 774.191 -5.72064 -1.80286 0
M  V30 8057 H 775.87 -6.27317 -1.58376 0
M  V30 8058 N 776.003 0.335068 -1.53997 0
M  V30 8059 C 777.233 1.0926 -1.75345 0
M  V30 8060 C 777.641 1.82568 -0.496545 0
M  V30 8061 O 776.984 1.75525 0.541897 0
M  V30 8062 C 777.046 2.14473 -2.88516 0
M  V30 8063 C 776.71 1.60665 -4.27827 0
M  V30 8064 C 777.707 1.05448 -5.09094 0
M  V30 8065 C 775.392 1.65255 -4.74337 0
M  V30 8066 C 777.386 0.555372 -6.34976 0
M  V30 8067 C 775.073 1.14956 -6.0019 0
M  V30 8068 C 776.071 0.601907 -6.80343 0
M  V30 8069 O 775.759 0.106445 -8.0383 0
M  V30 8070 H 775.491 0.331329 -0.589234 0
M  V30 8071 H 778.045 0.39042 -2.01655 0
M  V30 8072 H 776.275 2.88274 -2.5775 0
M  V30 8073 H 777.964 2.75857 -2.97755 0
M  V30 8074 H 778.73 1.01218 -4.74321 0
M  V30 8075 H 774.609 2.06822 -4.12002 0
M  V30 8076 H 778.153 0.127245 -6.97484 0
M  V30 8077 H 774.05 1.18891 -6.34457 0
M  V30 8078 H 774.818 0.222944 -8.18196 0
M  V30 8079 N 777.481 1.45874 0.596531 0
M  V30 8080 C 778.429 1.55739 1.72766 0
M  V30 8081 C 779.423 0.426666 1.63939 0
M  V30 8082 O 780.629 0.60301 1.69599 0
M  V30 8083 H 777.004 0.489386 0.570968 0
M  V30 8084 H 778.975 2.50871 1.61575 0
M  V30 8085 C 777.724 1.55174 3.11153 0
M  V30 8086 H 777.047 2.41511 3.1861 0
M  V30 8087 H 778.487 1.66133 3.90097 0
M  V30 8088 C 776.946 0.278001 3.35751 0
M  V30 8089 O 777.476 -0.637557 3.96608 0
M  V30 8090 N 775.682 0.170227 2.90101 0
M  V30 8091 H 775.229 0.916159 2.40758 0
M  V30 8092 H 775.187 -0.68117 3.06932 0
M  V30 8093 N 778.959 -0.83999 1.33349 0
M  V30 8094 C 780.207 -1.59202 1.24496 0
M  V30 8095 C 780.528 -1.94077 -0.189499 0
M  V30 8096 O 779.798 -1.60868 -1.11796 0
M  V30 8097 H 778.378 -0.590276 0.457802 0
M  V30 8098 H 781.04 -1.00394 1.67054 0
M  V30 8099 H 780.136 -2.52247 1.83788 0
M  V30 8100 N 780.437 -1.16799 -1.0581 0
M  V30 8101 C 781.665 -0.97687 -1.82387 0
M  V30 8102 C 782.08 0.474917 -1.82729 0
M  V30 8103 O 781.437 1.3297 -1.25001 0
M  V30 8104 C 781.488 -1.50279 -3.28783 0
M  V30 8105 O 781.209 -2.89772 -3.28578 0
M  V30 8106 C 782.71 -1.35538 -4.22071 0
M  V30 8107 H 779.93 -0.345977 -0.574927 0
M  V30 8108 H 782.474 -1.54942 -1.33466 0
M  V30 8109 H 780.629 -0.972414 -3.74997 0
M  V30 8110 H 781.043 -3.13954 -4.20159 0
M  V30 8111 H 782.517 -1.7716 -5.22799 0
M  V30 8112 H 782.994 -0.301598 -4.38163 0
M  V30 8113 H 783.6 -1.87562 -3.81708 0
M  V30 8114 N 781.915 1.24427 -0.967243 0
M  V30 8115 C 782.845 2.2773 -0.515899 0
M  V30 8116 C 783.826 1.64197 0.444227 0
M  V30 8117 O 785.011 1.91193 0.340451 0
M  V30 8118 C 782.141 3.46751 0.195149 0
M  V30 8119 C 781.095 4.22548 -0.680953 0
M  V30 8120 C 780.421 5.34456 0.161561 0
M  V30 8121 C 781.721 4.83914 -1.96532 0
M  V30 8122 H 783.415 2.65735 -1.37933 0
M  V30 8123 H 780.961 1.27742 -0.664681 0
M  V30 8124 H 782.914 4.18153 0.522117 0
M  V30 8125 H 781.638 3.07771 1.09292 0
M  V30 8126 H 780.297 3.52946 -0.991186 0
M  V30 8127 H 779.945 4.91716 1.05947 0
M  V30 8128 H 779.645 5.86087 -0.421418 0
M  V30 8129 H 781.169 6.08685 0.483211 0
M  V30 8130 H 782.583 5.47392 -1.70396 0
M  V30 8131 H 780.98 5.45775 -2.49499 0
M  V30 8132 H 782.05 4.05393 -2.66053 0
M  V30 8133 N 783.393 0.737304 1.3929 0
M  V30 8134 C 784.639 0.286681 2.00763 0
M  V30 8135 C 784.972 -1.12388 1.58375 0
M  V30 8136 O 784.247 -1.76661 0.813699 0
M  V30 8137 C 784.53 0.391147 3.57969 0
M  V30 8138 C 784.383 1.84165 4.1037 0
M  V30 8139 C 785.702 -0.225072 4.39524 0
M  V30 8140 H 782.821 0.105642 0.729389 0
M  V30 8141 H 785.463 0.933892 1.65464 0
M  V30 8142 H 783.613 -0.159875 3.88171 0
M  V30 8143 H 785.285 2.44972 3.90879 0
M  V30 8144 H 783.528 2.3622 3.63844 0
M  V30 8145 H 784.199 1.866 5.19504 0
M  V30 8146 H 786.675 0.244677 4.1538 0
M  V30 8147 H 785.551 -0.121646 5.48765 0
M  V30 8148 H 785.812 -1.31141 4.22202 0
M  V30 8149 N 784.871 -1.49948 0.485112 0
M  V30 8150 C 785.821 -2.25734 -0.320658 0
M  V30 8151 C 786.805 -1.29907 -0.949373 0
M  V30 8152 O 787.997 -1.54725 -0.859601 0
M  V30 8153 C 785.126 -3.13728 -1.39391 0
M  V30 8154 C 784.212 -4.1701 -0.772225 0
M  V30 8155 N 784.603 -5.05667 0.115782 0
M  V30 8156 C 782.901 -4.33834 -1.03461 0
M  V30 8157 C 783.602 -5.79798 0.47004 0
M  V30 8158 N 782.578 -5.4337 -0.158204 0
M  V30 8159 H 786.38 -2.91647 0.36319 0
M  V30 8160 H 783.894 -1.59602 0.300154 0
M  V30 8161 H 785.891 -3.66639 -1.98447 0
M  V30 8162 H 784.551 -2.49365 -2.0796 0
M  V30 8163 H 785.562 -5.15619 0.485557 0
M  V30 8164 H 782.239 -3.80684 -1.71424 0
M  V30 8165 H 783.629 -6.61177 1.19558 0
M  V30 8166 N 786.349 -0.21828 -1.56081 0
M  V30 8167 C 787.259 0.704602 -2.23769 0
M  V30 8168 C 788.275 1.21633 -1.24425 0
M  V30 8169 O 789.451 1.25862 -1.57228 0
M  V30 8170 C 786.516 1.89725 -2.90182 0
M  V30 8171 C 785.577 1.42782 -4.0486 0
M  V30 8172 C 784.81 2.56361 -4.68097 0
M  V30 8173 O 785.033 3.74417 -4.30312 0
M  V30 8174 O 783.967 2.2775 -5.57148 0
M  V30 8175 H 787.793 0.158007 -3.03289 0
M  V30 8176 H 785.378 0.0120279 -1.49395 0
M  V30 8177 H 787.26 2.59382 -3.32113 0
M  V30 8178 H 785.935 2.432 -2.13624 0
M  V30 8179 H 784.842 0.699359 -3.67505 0
M  V30 8180 H 786.175 0.939474 -4.83151 0
M  V30 8181 N 787.827 1.57504 0.0551401 0
M  V30 8182 C 789.073 1.88334 0.752216 0
M  V30 8183 C 789.406 0.812742 1.76375 0
M  V30 8184 O 788.681 -0.175198 1.93709 0
M  V30 8185 C 788.964 3.29824 1.44528 0
M  V30 8186 C 788.817 4.47553 0.449026 0
M  V30 8187 C 790.136 3.69808 2.38601 0
M  V30 8188 H 787.255 0.684973 0.271995 0
M  V30 8189 H 789.897 1.89994 0.0151895 0
M  V30 8190 H 788.047 3.28539 2.07351 0
M  V30 8191 H 789.719 4.60967 -0.175277 0
M  V30 8192 H 787.962 4.33168 -0.234162 0
M  V30 8193 H 788.633 5.43376 0.971917 0
M  V30 8194 H 791.109 3.72293 1.85842 0
M  V30 8195 H 789.985 4.69665 2.84088 0
M  V30 8196 H 790.246 3.00641 3.24141 0
M  V30 8197 N 789.305 -0.326896 1.54172 0
M  V30 8198 C 790.551 -1.06304 1.7341 0
M  V30 8199 C 790.906 -1.85791 0.499935 0
M  V30 8200 O 790.199 -1.84753 -0.507625 0
M  V30 8201 C 790.393 -2.0208 2.94785 0
M  V30 8202 C 790.222 -1.32009 4.29888 0
M  V30 8203 C 788.992 -1.05798 4.941 0
M  V30 8204 C 791.19 -0.737721 5.08982 0
M  V30 8205 N 789.172 -0.324836 6.1304 0
M  V30 8206 C 790.543 -0.136006 6.19851 0
M  V30 8207 C 792.598 -0.640206 4.93767 0
M  V30 8208 C 791.301 0.553757 7.17165 0
M  V30 8209 C 793.327 0.0358492 5.91389 0
M  V30 8210 C 792.689 0.626522 7.01608 0
M  V30 8211 H 788.788 -0.372808 0.687414 0
M  V30 8212 H 791.372 -0.34462 1.91626 0
M  V30 8213 H 789.543 -2.71197 2.78041 0
M  V30 8214 H 791.275 -2.68655 3.02666 0
M  V30 8215 H 788.03 -1.34945 4.53968 0
M  V30 8216 H 788.454 0.0274982 6.76994 0
M  V30 8217 H 793.096 -1.0826 4.08705 0
M  V30 8218 H 790.814 1.00799 8.01789 0
M  V30 8219 H 794.4 0.110895 5.81694 0
M  V30 8220 H 793.28 1.14135 7.7585 0
M  V30 8221 N 790.784 -1.46188 -0.588786 0
M  V30 8222 C 791.731 -1.56292 -1.69828 0
M  V30 8223 C 792.701 -0.407581 -1.61022 0
M  V30 8224 O 793.886 -0.623532 -1.80324 0
M  V30 8225 C 791.026 -1.55341 -3.08161 0
M  V30 8226 C 790.139 -2.81564 -3.27636 0
M  V30 8227 C 789.274 -2.72158 -4.56183 0
M  V30 8228 C 788.313 -3.93348 -4.68981 0
M  V30 8229 N 787.45 -3.82365 -5.88848 0
M  V30 8230 H 792.29 -2.51066 -1.6053 0
M  V30 8231 H 789.827 -1.24562 -0.782474 0
M  V30 8232 H 791.785 -1.52776 -3.88221 0
M  V30 8233 H 790.415 -0.641034 -3.16371 0
M  V30 8234 H 789.467 -2.94136 -2.41223 0
M  V30 8235 H 790.779 -3.714 -3.32962 0
M  V30 8236 H 789.933 -2.67665 -5.44464 0
M  V30 8237 H 788.672 -1.79953 -4.53286 0
M  V30 8238 H 787.677 -3.98181 -3.7912 0
M  V30 8239 H 788.902 -4.86643 -4.73662 0
M  V30 8240 H 786.848 -2.92942 -5.86959 0
M  V30 8241 H 786.765 -4.65851 -5.95415 0
M  V30 8242 H 788.033 -3.81836 -6.79575 0
M  V30 8243 N 792.262 0.832906 -1.33792 0
M  V30 8244 C 793.539 1.57359 -1.16178 0
M  V30 8245 C 793.919 2.09372 0.269532 0
M  V30 8246 O 793.267 1.89993 1.26944 0
M  V30 8247 C 793.477 2.70279 -2.20795 0
M  V30 8248 C 794.825 3.39305 -2.55259 0
M  V30 8249 O 795.849 2.80526 -2.19508 0
M  V30 8250 O 794.708 4.45428 -3.16632 0
M  V30 8251 H 791.802 0.694025 -0.449731 0
M  V30 8252 H 794.348 0.875144 -1.45394 0
M  V30 8253 H 793.12 2.29527 -3.16911 0
M  V30 8254 H 792.743 3.47782 -1.927 0
M  V30 8255 N 793.74 1.17359 1.05189 0
M  V30 8256 C 794.965 0.98709 1.82404 0
M  V30 8257 C 795.39 -0.459848 1.82392 0
M  V30 8258 O 794.748 -1.32924 1.23292 0
M  V30 8259 C 794.796 1.53276 3.26403 0
M  V30 8260 O 793.9 0.746541 4.05587 0
M  V30 8261 H 793.241 0.35047 0.563974 0
M  V30 8262 H 795.771 1.55856 1.32552 0
M  V30 8263 H 795.781 1.55504 3.77203 0
M  V30 8264 H 794.456 2.58603 3.25726 0
M  V30 8265 H 793.033 0.795671 3.64312 0
M  V30 8266 N 795.218 -1.23913 0.973828 0
M  V30 8267 C 796.181 -2.23367 0.51378 0
M  V30 8268 C 797.181 -1.55923 -0.39302 0
M  V30 8269 O 798.371 -1.73187 -0.187626 0
M  V30 8270 C 795.503 -3.39944 -0.255152 0
M  V30 8271 H 796.696 -2.65581 1.39307 0
M  V30 8272 H 794.249 -1.36632 0.759039 0
M  V30 8273 H 794.984 -3.03177 -1.15127 0
M  V30 8274 H 794.769 -3.90098 0.395673 0
M  V30 8275 H 796.259 -4.13749 -0.565842 0
M  V30 8276 N 796.696 -0.74468 -1.38897 0
M  V30 8277 C 797.924 -0.307428 -2.04603 0
M  V30 8278 C 798.339 1.06115 -1.56157 0
M  V30 8279 O 797.696 1.67233 -0.730701 0
M  V30 8280 C 797.747 -0.31101 -3.6016 0
M  V30 8281 O 797.468 -1.62557 -4.06825 0
M  V30 8282 C 798.969 0.141213 -4.43075 0
M  V30 8283 H 796.189 -0.132741 -0.657739 0
M  V30 8284 H 798.733 -1.01104 -1.77759 0
M  V30 8285 H 796.888 0.343792 -3.85872 0
M  V30 8286 H 797.302 -1.54569 -5.01207 0
M  V30 8287 H 798.776 0.0875449 -5.51931 0
M  V30 8288 H 799.253 1.18782 -4.22833 0
M  V30 8289 H 799.859 -0.484383 -4.22533 0
M  V30 8290 N 798.174 1.49689 -0.493057 0
M  V30 8291 C 799.107 2.25712 0.336062 0
M  V30 8292 C 800.085 1.29953 0.977294 0
M  V30 8293 O 801.269 1.59225 1.00895 0
M  V30 8294 C 798.396 3.0501 1.47263 0
M  V30 8295 C 797.442 4.15863 0.946575 0
M  V30 8296 S 798.275 5.35272 -0.156323 0
M  V30 8297 C 799.431 6.18123 0.983601 0
M  V30 8298 H 799.664 2.95688 -0.309215 0
M  V30 8299 H 797.197 1.51872 -0.278238 0
M  V30 8300 H 799.155 3.51284 2.12391 0
M  V30 8301 H 797.816 2.34519 2.08949 0
M  V30 8302 H 797.009 4.70834 1.7981 0
M  V30 8303 H 796.611 3.72139 0.372647 0
M  V30 8304 H 798.903 6.50588 1.89056 0
M  V30 8305 H 799.846 7.06521 0.472687 0
M  V30 8306 H 800.254 5.50547 1.24735 0
M  V30 8307 N 799.652 0.226554 1.55963 0
M  V30 8308 C 800.877 -0.411527 2.03276 0
M  V30 8309 C 801.302 -1.52206 1.10521 0
M  V30 8310 O 800.66 -1.81054 0.0943217 0
M  V30 8311 C 800.708 -0.915694 3.4878 0
M  V30 8312 O 799.812 -2.02672 3.59163 0
M  V30 8313 H 799.153 -0.0924907 0.657527 0
M  V30 8314 H 801.683 0.346656 2.01642 0
M  V30 8315 H 801.693 -1.22421 3.892 0
M  V30 8316 H 800.368 -0.102915 4.15773 0
M  V30 8317 H 798.945 -1.72445 3.30632 0
M  V30 8318 N 801.13 -1.57531 -0.0467866 0
M  V30 8319 C 802.06 -2.08425 -1.05268 0
M  V30 8320 C 803.041 -0.982941 -1.38825 0
M  V30 8321 O 804.226 -1.25716 -1.48018 0
M  V30 8322 C 801.356 -2.54897 -2.35891 0
M  V30 8323 C 800.31 -3.69132 -2.16623 0
M  V30 8324 C 799.636 -4.01747 -3.52851 0
M  V30 8325 C 800.936 -4.98243 -1.56689 0
M  V30 8326 H 802.63 -2.92716 -0.62908 0
M  V30 8327 H 800.176 -1.40816 -0.301156 0
M  V30 8328 H 802.129 -2.8912 -3.06574 0
M  V30 8329 H 800.853 -1.67666 -2.80278 0
M  V30 8330 H 799.512 -3.35231 -1.48377 0
M  V30 8331 H 799.16 -3.11608 -3.94853 0
M  V30 8332 H 798.86 -4.78681 -3.4079 0
M  V30 8333 H 800.384 -4.38487 -4.24925 0
M  V30 8334 H 801.798 -5.30535 -2.17268 0
M  V30 8335 H 800.195 -5.79669 -1.55255 0
M  V30 8336 H 801.265 -4.81986 -0.530827 0
M  V30 8337 N 802.608 0.318715 -1.54344 0
M  V30 8338 C 803.885 1.07461 -1.63437 0
M  V30 8339 C 804.265 2.05771 -0.47131 0
M  V30 8340 O 803.613 2.22175 0.53391 0
M  V30 8341 C 803.823 1.77224 -3.00654 0
M  V30 8342 C 805.171 2.30069 -3.56866 0
M  V30 8343 O 806.195 1.87284 -3.0299 0
M  V30 8344 O 805.054 3.08412 -4.51159 0
M  V30 8345 H 802.148 0.495627 -0.66203 0
M  V30 8346 H 804.694 0.318218 -1.6669 0
M  V30 8347 H 803.466 1.05742 -3.76742 0
M  V30 8348 H 803.089 2.59662 -3.01101 0
M  V30 8349 N 804.086 1.46499 0.581025 0
M  V30 8350 C 805.497 1.4604 1.16315 0
M  V30 8351 C 805.848 0.202154 1.95156 0
M  V30 8352 O 804.973 -0.694638 2.04948 0
M  V30 8353 C 805.568 2.64593 2.11604 0
M  V30 8354 C 804.127 2.6717 2.65136 0
M  V30 8355 C 803.274 2.38753 1.4104 0
M  V30 8356 H 806.225 1.54354 0.368871 0
M  V30 8357 H 806.246 2.40207 2.95095 0
M  V30 8358 H 805.758 3.56154 1.54194 0
M  V30 8359 H 803.859 1.79685 3.26411 0
M  V30 8360 H 803.972 3.67182 3.07757 0
M  V30 8361 H 802.336 1.88845 1.70908 0
M  V30 8362 H 803.119 3.32493 0.854588 0
M  V30 8363 N 805.565 -0.825799 1.34232 0
M  V30 8364 C 806.475 -1.9684 1.27638 0
M  V30 8365 C 807.491 -1.73018 0.184569 0
M  V30 8366 O 808.667 -1.97172 0.410525 0
M  V30 8367 C 805.732 -3.31084 1.02879 0
M  V30 8368 C 804.793 -3.67933 2.21188 0
M  V30 8369 C 804.026 -4.95772 1.976 0
M  V30 8370 O 804.249 -5.62721 0.93281 0
M  V30 8371 O 803.183 -5.30431 2.84477 0
M  V30 8372 H 807.009 -2.05346 2.23756 0
M  V30 8373 H 804.594 -0.960772 1.1441 0
M  V30 8374 H 806.476 -4.11492 0.908406 0
M  V30 8375 H 805.151 -3.23552 0.0979821 0
M  V30 8376 H 804.058 -2.87981 2.38784 0
M  V30 8377 H 805.391 -3.80147 3.12648 0
M  V30 8378 N 807.043 -1.17915 -1.04565 0
M  V30 8379 C 807.953 -0.916449 -2.15959 0
M  V30 8380 C 808.969 0.117655 -1.73602 0
M  V30 8381 O 810.145 -0.063089 -2.01301 0
M  V30 8382 C 807.21 -0.440262 -3.43893 0
M  V30 8383 C 806.271 -1.54172 -4.00661 0
M  V30 8384 C 805.504 -1.08816 -5.22489 0
M  V30 8385 O 805.727 0.0551547 -5.70373 0
M  V30 8386 O 804.661 -1.88383 -5.7166 0
M  V30 8387 H 808.487 -1.8484 -2.40972 0
M  V30 8388 H 806.072 -0.960552 -1.14428 0
M  V30 8389 H 807.954 -0.182537 -4.21004 0
M  V30 8390 H 806.629 0.46346 -3.20365 0
M  V30 8391 H 805.536 -1.85341 -3.24961 0
M  V30 8392 H 806.869 -2.42139 -4.2852 0
M  V30 8393 N 808.521 1.23394 -0.980386 0
M  V30 8394 C 809.431 2.28561 -0.528864 0
M  V30 8395 C 810.447 1.68946 0.416329 0
M  V30 8396 O 811.623 1.99355 0.286251 0
M  V30 8397 C 808.688 3.46323 0.16155 0
M  V30 8398 C 807.749 4.21297 -0.825044 0
M  V30 8399 C 806.982 5.33437 -0.167483 0
M  V30 8400 O 807.205 5.60812 1.04146 0
M  V30 8401 O 806.139 5.95637 -0.866047 0
M  V30 8402 H 809.965 2.69326 -1.40346 0
M  V30 8403 H 807.55 1.29325 -0.748019 0
M  V30 8404 H 809.432 4.17811 0.548841 0
M  V30 8405 H 808.107 3.0751 1.01092 0
M  V30 8406 H 807.014 3.52134 -1.26303 0
M  V30 8407 H 808.347 4.6396 -1.64322 0
M  V30 8408 N 809.999 0.752036 1.385 0
M  V30 8409 C 810.962 0.131587 2.28822 0
M  V30 8410 C 811.962 -0.649149 1.47115 0
M  V30 8411 O 813.152 -0.475645 1.67581 0
M  V30 8412 C 810.284 -0.822101 3.30839 0
M  V30 8413 H 811.477 0.927551 2.85196 0
M  V30 8414 H 809.03 0.518945 1.47434 0
M  V30 8415 H 809.765 -1.6438 2.79553 0
M  V30 8416 H 809.55 -0.264689 3.91206 0
M  V30 8417 H 811.04 -1.25226 3.98382 0
M  V30 8418 N 811.477 -1.49425 0.500989 0
M  V30 8419 C 812.387 -2.32899 -0.282011 0
M  V30 8420 C 813.403 -1.44632 -0.967346 0
M  V30 8421 O 814.579 -1.77654 -0.94873 0
M  V30 8422 C 811.644 -3.20069 -1.33253 0
M  V30 8423 C 810.705 -4.24186 -0.660636 0
M  V30 8424 C 809.938 -5.07191 -1.6611 0
M  V30 8425 O 810.161 -4.91712 -2.89094 0
M  V30 8426 O 809.095 -5.8948 -1.21643 0
M  V30 8427 H 812.921 -3.01038 0.401224 0
M  V30 8428 H 810.506 -1.47079 0.262323 0
M  V30 8429 H 812.388 -3.74071 -1.94033 0
M  V30 8430 H 811.063 -2.54625 -1.9987 0
M  V30 8431 H 809.97 -3.74098 -0.0130959 0
M  V30 8432 H 811.303 -4.92186 -0.0369179 0
M  V30 8433 N 812.955 -0.234822 -1.55841 0
M  V30 8434 C 813.905 0.68346 -2.17515 0
M  V30 8435 C 814.889 1.14798 -1.1274 0
M  V30 8436 O 816.081 1.09976 -1.38688 0
M  V30 8437 C 813.21 1.88551 -2.86886 0
M  V30 8438 C 812.296 1.44006 -3.98903 0
M  V30 8439 N 812.687 0.708034 -5.0082 0
M  V30 8440 C 810.985 1.7263 -4.11236 0
M  V30 8441 C 811.686 0.479036 -5.79724 0
M  V30 8442 N 810.662 1.03968 -5.33565 0
M  V30 8443 H 814.464 0.115897 -2.93671 0
M  V30 8444 H 811.978 -0.0366273 -1.62359 0
M  V30 8445 H 813.975 2.55425 -3.2949 0
M  V30 8446 H 812.635 2.45742 -2.12229 0
M  V30 8447 H 813.646 0.359363 -5.16652 0
M  V30 8448 H 810.323 2.31046 -3.47741 0
M  V30 8449 H 811.713 -0.104514 -6.71819 0
M  V30 8450 N 814.433 1.57553 0.0384317 0
M  V30 8451 C 815.844 1.77258 0.586211 0
M  V30 8452 C 816.195 0.864706 1.76117 0
M  V30 8453 O 815.32 0.057141 2.16325 0
M  V30 8454 C 815.915 3.21453 1.07021 0
M  V30 8455 C 814.474 3.42387 1.56358 0
M  V30 8456 C 813.621 2.72801 0.497508 0
M  V30 8457 H 816.572 1.57585 -0.187796 0
M  V30 8458 H 816.593 3.27451 1.93794 0
M  V30 8459 H 816.105 3.87505 0.214851 0
M  V30 8460 H 814.206 2.81497 2.44111 0
M  V30 8461 H 814.319 4.50968 1.61754 0
M  V30 8462 H 812.683 2.36305 0.95038 0
M  V30 8463 H 813.466 3.41529 -0.348234 0
M  V30 8464 N 815.911 -0.310526 1.54511 0
M  V30 8465 C 817.16 -1.0445 1.72549 0
M  V30 8466 C 817.473 -1.88748 0.513172 0
M  V30 8467 O 818.679 -2.65338 0.575165 0
M  V30 8468 C 817.135 -1.90665 3.05246 0
M  V30 8469 C 816.743 -1.11415 4.33925 0
M  V30 8470 C 818.487 -2.63719 3.32645 0
M  V30 8471 C 816.394 -1.96852 5.57677 0
M  V30 8472 H 815.324 -0.393676 0.643067 0
M  V30 8473 H 817.975 -0.302003 1.80998 0
M  V30 8474 H 816.357 -2.68864 2.90737 0
M  V30 8475 H 817.531 -0.378956 4.59239 0
M  V30 8476 H 815.846 -0.499853 4.13389 0
M  V30 8477 H 818.443 -3.27974 4.223 0
M  V30 8478 H 818.786 -3.32047 2.51098 0
M  V30 8479 H 819.319 -1.92574 3.48081 0
M  V30 8480 H 816.058 -1.33009 6.41864 0
M  V30 8481 H 815.578 -2.68069 5.36562 0
M  V30 8482 H 817.257 -2.55127 5.94575 0
M  V30 8483 N 817.389 -1.46805 -0.573248 0
M  V30 8484 C 818.336 -1.58084 -1.68161 0
M  V30 8485 C 819.306 -0.424636 -1.6058 0
M  V30 8486 O 820.491 -0.642623 -1.79652 0
M  V30 8487 C 817.631 -1.58601 -3.06496 0
M  V30 8488 C 816.744 -2.85023 -3.24632 0
M  V30 8489 C 815.879 -2.76981 -4.53271 0
M  V30 8490 C 814.918 -3.983 -4.64783 0
M  V30 8491 N 814.055 -3.88589 -5.84759 0
M  V30 8492 H 818.895 -2.52755 -1.57858 0
M  V30 8493 H 816.432 -1.25385 -0.769218 0
M  V30 8494 H 818.39 -1.56885 -3.86579 0
M  V30 8495 H 817.02 -0.674553 -3.15673 0
M  V30 8496 H 816.072 -2.96678 -2.38089 0
M  V30 8497 H 817.384 -3.7491 -3.29004 0
M  V30 8498 H 816.538 -2.73424 -5.41594 0
M  V30 8499 H 815.277 -1.84751 -4.51352 0
M  V30 8500 H 814.282 -4.02179 -3.74876 0
M  V30 8501 H 815.507 -4.91639 -4.68474 0
M  V30 8502 H 813.453 -2.99151 -5.83819 0
M  V30 8503 H 813.37 -4.7214 -5.90441 0
M  V30 8504 H 814.638 -3.89022 -6.75486 0
M  V30 8505 N 818.867 0.818669 -1.34668 0
M  V30 8506 C 820.116 1.57017 -1.26604 0
M  V30 8507 C 820.429 1.94936 0.161036 0
M  V30 8508 O 821.635 2.69051 0.36386 0
M  V30 8509 C 820.091 2.83305 -2.2196 0
M  V30 8510 C 819.699 2.52671 -3.69948 0
M  V30 8511 C 821.443 3.61324 -2.22813 0
M  V30 8512 C 819.35 3.75178 -4.5716 0
M  V30 8513 H 818.28 0.589323 -0.470335 0
M  V30 8514 H 820.931 0.900956 -1.59859 0
M  V30 8515 H 819.313 3.51874 -1.81661 0
M  V30 8516 H 820.487 1.92186 -4.18809 0
M  V30 8517 H 818.802 1.8792 -3.71584 0
M  V30 8518 H 821.399 4.52294 -2.85192 0
M  V30 8519 H 821.742 3.97759 -1.22857 0
M  V30 8520 H 822.275 2.99703 -2.61578 0
M  V30 8521 H 819.014 3.43861 -5.58068 0
M  V30 8522 H 818.534 4.34931 -4.13031 0
M  V30 8523 H 820.213 4.42542 -4.71981 0
M  V30 8524 N 820.346 1.18468 1.03938 0
M  V30 8525 C 821.571 1.00638 1.81347 0
M  V30 8526 C 821.996 -0.440477 1.8287 0
M  V30 8527 O 821.354 -1.31609 1.24695 0
M  V30 8528 C 821.402 1.5673 3.24759 0
M  V30 8529 O 820.506 0.789517 4.04772 0
M  V30 8530 H 819.847 0.356432 0.560225 0
M  V30 8531 H 822.377 1.57253 1.30891 0
M  V30 8532 H 822.387 1.59496 3.75533 0
M  V30 8533 H 821.062 2.62043 3.22965 0
M  V30 8534 H 819.639 0.834267 3.63448 0
M  V30 8535 N 821.824 -1.22873 0.986916 0
M  V30 8536 C 823.054 -1.95204 0.67668 0
M  V30 8537 C 823.462 -1.73193 -0.761641 0
M  V30 8538 O 822.805 -1.0243 -1.52492 0
M  V30 8539 C 822.867 -3.48173 0.895302 0
M  V30 8540 C 822.531 -3.93912 2.31695 0
M  V30 8541 C 823.528 -4.02064 3.29607 0
M  V30 8542 C 821.213 -4.26722 2.64978 0
M  V30 8543 C 823.207 -4.42391 4.58878 0
M  V30 8544 C 820.894 -4.66729 3.94471 0
M  V30 8545 C 821.892 -4.74531 4.91232 0
M  V30 8546 O 821.58 -5.13636 6.18412 0
M  V30 8547 H 821.312 -0.628105 0.24992 0
M  V30 8548 H 823.866 -1.5714 1.32274 0
M  V30 8549 H 822.096 -3.86223 0.192072 0
M  V30 8550 H 823.785 -4.01717 0.581233 0
M  V30 8551 H 824.551 -3.76912 3.05225 0
M  V30 8552 H 820.43 -4.19858 1.9037 0
M  V30 8553 H 823.974 -4.48395 5.34404 0
M  V30 8554 H 819.871 -4.91332 4.18645 0
M  V30 8555 H 820.639 -5.31728 6.2226 0
M  V30 8556 N 823.302 -0.75937 -1.38099 0
M  V30 8557 C 824.265 -0.14372 -2.28749 0
M  V30 8558 C 825.265 0.641338 -1.47457 0
M  V30 8559 O 826.455 0.466751 -1.67831 0
M  V30 8560 C 823.587 0.804545 -3.3127 0
M  V30 8561 H 824.78 -0.942663 -2.847 0
M  V30 8562 H 822.333 -0.526757 -1.47156 0
M  V30 8563 H 823.068 1.62895 -2.80421 0
M  V30 8564 H 822.853 0.243939 -3.9134 0
M  V30 8565 H 824.343 1.23111 -3.99041 0
M  V30 8566 N 824.78 1.49157 -0.508906 0
M  V30 8567 C 825.712 2.272 0.302115 0
M  V30 8568 C 826.725 1.3407 0.923529 0
M  V30 8569 O 827.914 1.5929 0.805532 0
M  V30 8570 C 825.014 3.06736 1.44105 0
M  V30 8571 C 824.187 4.27497 0.925477 0
M  V30 8572 C 823.246 4.89014 1.94297 0
M  V30 8573 O 822.272 5.48851 1.50834 0
M  V30 8574 N 823.474 4.7937 3.2739 0
M  V30 8575 H 826.239 2.97443 -0.367115 0
M  V30 8576 H 823.8 1.58248 -0.341933 0
M  V30 8577 H 825.792 3.44763 2.11944 0
M  V30 8578 H 824.362 2.3905 2.0143 0
M  V30 8579 H 823.582 3.94135 0.0717301 0
M  V30 8580 H 824.87 5.05714 0.55955 0
M  V30 8581 H 824.268 4.31869 3.65384 0
M  V30 8582 H 822.825 5.21559 3.90922 0
M  V30 8583 N 826.258 0.243083 1.55714 0
M  V30 8584 C 827.488 -0.38641 2.02954 0
M  V30 8585 C 827.896 -1.52358 1.12177 0
M  V30 8586 O 827.239 -1.83255 0.127853 0
M  V30 8587 C 827.301 -0.959388 3.46462 0
M  V30 8588 C 826.965 0.0450546 4.56978 0
M  V30 8589 C 827.962 0.853224 5.12851 0
M  V30 8590 C 825.647 0.170041 5.02012 0
M  V30 8591 C 827.641 1.77288 6.12248 0
M  V30 8592 C 825.328 1.0932 6.01242 0
M  V30 8593 C 826.326 1.89315 6.56238 0
M  V30 8594 O 826.014 2.80075 7.53534 0
M  V30 8595 H 825.746 -0.0964333 0.669086 0
M  V30 8596 H 828.3 0.363399 2.0216 0
M  V30 8597 H 826.53 -1.75869 3.44394 0
M  V30 8598 H 828.219 -1.49856 3.77224 0
M  V30 8599 H 828.985 0.767229 4.78893 0
M  V30 8600 H 824.864 -0.442528 4.58871 0
M  V30 8601 H 828.408 2.39768 6.55101 0
M  V30 8602 H 824.305 1.18013 6.3462 0
M  V30 8603 H 825.073 2.74393 7.71136 0
M  V30 8604 N 827.736 -1.57571 -0.0300757 0
M  V30 8605 C 828.646 -2.09892 -1.04798 0
M  V30 8606 C 829.662 -1.03732 -1.39698 0
M  V30 8607 O 830.838 -1.35461 -1.49038 0
M  V30 8608 C 827.903 -2.56707 -2.33028 0
M  V30 8609 C 826.964 -3.77345 -2.04718 0
M  V30 8610 C 826.197 -4.21918 -3.26834 0
M  V30 8611 O 826.42 -3.66025 -4.37472 0
M  V30 8612 O 825.354 -5.14362 -3.12594 0
M  V30 8613 H 829.18 -2.97023 -0.633344 0
M  V30 8614 H 826.765 -1.47344 -0.246991 0
M  V30 8615 H 828.647 -2.87154 -3.08417 0
M  V30 8616 H 827.322 -1.72688 -2.73789 0
M  V30 8617 H 826.229 -3.51919 -1.26901 0
M  V30 8618 H 827.562 -4.62345 -1.68813 0
M  V30 8619 N 829.214 0.302327 -1.54673 0
M  V30 8620 C 830.161 1.37282 -1.85532 0
M  V30 8621 C 831.131 1.50437 -0.704129 0
M  V30 8622 O 832.316 1.65317 -0.952627 0
M  V30 8623 C 829.456 2.73309 -2.10704 0
M  V30 8624 C 828.569 2.68614 -3.38335 0
M  V30 8625 C 827.704 3.96626 -3.53357 0
M  V30 8626 C 826.743 3.86324 -4.74784 0
M  V30 8627 N 825.88 5.06109 -4.86619 0
M  V30 8628 H 830.72 1.10265 -2.76849 0
M  V30 8629 H 828.257 0.533346 -1.37091 0
M  V30 8630 H 830.215 3.52414 -2.23294 0
M  V30 8631 H 828.845 2.98589 -1.22656 0
M  V30 8632 H 827.897 1.81381 -3.34373 0
M  V30 8633 H 829.209 2.56891 -4.27561 0
M  V30 8634 H 828.363 4.84168 -3.65604 0
M  V30 8635 H 827.102 4.11182 -2.62261 0
M  V30 8636 H 826.107 2.97166 -4.62572 0
M  V30 8637 H 827.332 3.73315 -5.67286 0
M  V30 8638 H 825.278 5.2113 -3.98446 0
M  V30 8639 H 825.195 4.96804 -5.69844 0
M  V30 8640 H 826.463 5.95306 -5.03221 0
M  V30 8641 N 830.692 1.47107 0.565454 0
M  V30 8642 C 831.922 1.56681 1.34664 0
M  V30 8643 C 832.33 0.213011 1.87997 0
M  V30 8644 O 831.673 -0.802629 1.65238 0
M  V30 8645 C 831.735 2.52528 2.55871 0
M  V30 8646 C 831.399 3.98403 2.23883 0
M  V30 8647 C 832.396 4.87125 1.81673 0
M  V30 8648 C 830.081 4.43674 2.35496 0
M  V30 8649 C 832.075 6.19135 1.51494 0
M  V30 8650 C 829.762 5.75714 2.0493 0
M  V30 8651 C 830.76 6.63266 1.62996 0
M  V30 8652 O 830.448 7.92853 1.32813 0
M  V30 8653 H 830.18 0.531967 0.417117 0
M  V30 8654 H 832.734 1.93368 0.692669 0
M  V30 8655 H 830.964 2.10893 3.24131 0
M  V30 8656 H 832.653 2.5232 3.17945 0
M  V30 8657 H 833.419 4.534 1.72201 0
M  V30 8658 H 829.298 3.7574 2.67096 0
M  V30 8659 H 832.842 6.87429 1.1869 0
M  V30 8660 H 828.739 6.08983 2.14031 0
M  V30 8661 H 829.507 8.0528 1.46513 0
M  V30 8662 N 832.17 -0.811516 1.35101 0
M  V30 8663 C 833.1 -1.9378 1.30275 0
M  V30 8664 C 834.081 -1.69165 0.178075 0
M  V30 8665 O 835.266 -1.90599 0.372256 0
M  V30 8666 C 832.396 -3.30439 1.06899 0
M  V30 8667 C 831.35 -3.69523 2.15955 0
M  V30 8668 C 830.676 -5.0429 1.77751 0
M  V30 8669 C 831.976 -3.80419 3.57881 0
M  V30 8670 H 833.67 -1.98075 2.24514 0
M  V30 8671 H 831.216 -0.951586 1.08078 0
M  V30 8672 H 833.169 -4.08828 1.02164 0
M  V30 8673 H 831.893 -3.26473 0.0910462 0
M  V30 8674 H 830.552 -2.93416 2.19778 0
M  V30 8675 H 830.2 -4.96823 0.785876 0
M  V30 8676 H 829.9 -5.31411 2.5075 0
M  V30 8677 H 831.424 -5.85125 1.74533 0
M  V30 8678 H 832.838 -4.49051 3.56407 0
M  V30 8679 H 831.235 -4.19005 4.29598 0
M  V30 8680 H 832.305 -2.82105 3.94391 0
M  V30 8681 N 833.648 -1.19017 -1.03309 0
M  V30 8682 C 834.595 -0.924088 -2.11493 0
M  V30 8683 C 835.565 0.139464 -1.65513 0
M  V30 8684 O 836.75 -0.00178761 -1.908 0
M  V30 8685 C 833.89 -0.464255 -3.41963 0
M  V30 8686 C 833.003 -1.5941 -4.01513 0
M  V30 8687 C 832.138 -1.08622 -5.19976 0
M  V30 8688 C 831.177 -2.19024 -5.71572 0
M  V30 8689 N 830.314 -1.69575 -6.81314 0
M  V30 8690 H 835.154 -1.85039 -2.33591 0
M  V30 8691 H 832.691 -0.922593 -1.14572 0
M  V30 8692 H 834.649 -0.179078 -4.16815 0
M  V30 8693 H 833.279 0.425062 -3.19989 0
M  V30 8694 H 832.331 -1.99458 -3.23915 0
M  V30 8695 H 833.643 -2.42604 -4.35826 0
M  V30 8696 H 832.797 -0.756022 -6.01971 0
M  V30 8697 H 831.536 -0.223955 -4.87186 0
M  V30 8698 H 830.541 -2.5288 -4.88193 0
M  V30 8699 H 831.766 -3.05699 -6.06403 0
M  V30 8700 H 829.712 -0.856494 -6.50385 0
M  V30 8701 H 829.629 -2.46361 -7.14732 0
M  V30 8702 H 830.897 -1.39505 -7.66915 0
M  V30 8703 N 835.127 1.22348 -0.993418 0
M  V30 8704 C 836.352 1.95666 -0.687727 0
M  V30 8705 C 836.777 1.72883 0.741161 0
M  V30 8706 O 836.135 1.00837 1.50671 0
M  V30 8707 C 836.183 3.46457 -0.99998 0
M  V30 8708 O 835.287 4.12281 -0.0989386 0
M  V30 8709 H 834.628 0.612102 -0.257346 0
M  V30 8710 H 837.158 1.55428 -1.33054 0
M  V30 8711 H 837.168 3.96976 -0.942035 0
M  V30 8712 H 835.843 3.62365 -2.04118 0
M  V30 8713 H 834.42 3.72295 -0.212413 0
M  V30 8714 N 836.605 0.766683 1.37694 0
M  V30 8715 C 837.882 0.25366 1.93948 0
M  V30 8716 C 838.262 -1.25041 1.70082 0
M  V30 8717 O 837.61 -2.03115 1.04674 0
M  V30 8718 C 837.82 0.621549 3.43421 0
M  V30 8719 C 839.168 0.588504 4.20502 0
M  V30 8720 O 840.192 0.560632 3.5176 0
M  V30 8721 O 839.051 0.61107 5.43073 0
M  V30 8722 H 836.145 0.0570586 0.825029 0
M  V30 8723 H 838.691 0.847693 1.47011 0
M  V30 8724 H 837.463 1.65979 3.54354 0
M  V30 8725 H 837.086 0.000197027 3.976 0
M  V30 8726 N 838.083 -1.48885 0.516809 0
M  V30 8727 C 839.031 -2.31066 -0.266656 0
M  V30 8728 C 840.025 -1.40393 -0.94795 0
M  V30 8729 O 841.231 -1.57366 -0.873836 0
M  V30 8730 H 837.606 -0.744654 -0.104858 0
M  V30 8731 H 839.577 -2.95045 0.446236 0
M  V30 8732 C 838.326 -3.22131 -1.3087 0
M  V30 8733 H 837.649 -3.91839 -0.793865 0
M  V30 8734 H 839.089 -3.82544 -1.82856 0
M  V30 8735 C 837.548 -2.42825 -2.33533 0
M  V30 8736 O 838.078 -2.14364 -3.39722 0
M  V30 8737 N 836.284 -2.04559 -2.06407 0
M  V30 8738 H 835.831 -2.27905 -1.20071 0
M  V30 8739 H 835.789 -1.51807 -2.75322 0
M  V30 8740 N 839.561 -0.251338 -1.55583 0
M  V30 8741 C 840.494 0.687092 -2.1761 0
M  V30 8742 C 841.472 1.16963 -1.12953 0
M  V30 8743 O 842.656 1.24696 -1.41362 0
M  V30 8744 C 839.783 1.93429 -2.78034 0
M  V30 8745 C 838.829 1.58925 -3.95784 0
M  V30 8746 S 839.662 0.688019 -5.31062 0
M  V30 8747 C 840.818 1.94413 -5.94941 0
M  V30 8748 H 841.051 0.159982 -2.96869 0
M  V30 8749 H 838.584 -0.0357593 -1.54359 0
M  V30 8750 H 840.542 2.65028 -3.13481 0
M  V30 8751 H 839.203 2.43253 -1.98713 0
M  V30 8752 H 838.396 2.51668 -4.36668 0
M  V30 8753 H 837.998 0.953664 -3.61637 0
M  V30 8754 H 840.29 2.89087 -6.12727 0
M  V30 8755 H 841.233 1.5787 -6.90277 0
M  V30 8756 H 841.641 2.09824 -5.24056 0
M  V30 8757 N 841.039 1.57585 0.0217189 0
M  V30 8758 C 842.288 1.88786 0.710125 0
M  V30 8759 C 842.601 0.850819 1.76126 0
M  V30 8760 O 843.807 1.0523 2.50277 0
M  V30 8761 C 842.263 3.3505 1.31413 0
M  V30 8762 C 841.871 4.47001 0.298959 0
M  V30 8763 C 843.615 3.7539 1.98199 0
M  V30 8764 C 841.522 5.8433 0.911727 0
M  V30 8765 H 840.452 0.704388 0.268986 0
M  V30 8766 H 843.103 1.83466 -0.0352638 0
M  V30 8767 H 841.485 3.35138 2.10947 0
M  V30 8768 H 842.659 4.58395 -0.470203 0
M  V30 8769 H 840.974 4.15542 -0.267222 0
M  V30 8770 H 843.571 4.75314 2.4491 0
M  V30 8771 H 843.914 3.07766 2.80331 0
M  V30 8772 H 844.447 3.77508 1.2543 0
M  V30 8773 H 841.186 6.55372 0.129659 0
M  V30 8774 H 840.706 5.76643 1.65056 0
M  V30 8775 H 842.385 6.31295 1.41688 0
M  V30 8776 N 842.517 -0.29412 1.54831 0
M  V30 8777 C 843.933 -0.640167 1.46199 0
M  V30 8778 C 844.133 -1.90426 0.658798 0
M  V30 8779 O 843.189 -2.51932 0.169228 0
M  V30 8780 C 844.502 -0.786763 2.90225 0
M  V30 8781 C 846.05 -0.882201 3.0031 0
M  V30 8782 C 846.525 -1.06074 4.45547 0
M  V30 8783 N 848.016 -1.12678 4.49286 0
M  V30 8784 C 848.751 -1.28334 5.58854 0
M  V30 8785 N 848.247 -1.40845 6.78332 0
M  V30 8786 N 850.04 -1.31277 5.46555 0
M  V30 8787 H 842.191 0.536334 2.05517 0
M  V30 8788 H 844.454 0.178363 0.93107 0
M  V30 8789 H 844.16 0.0713018 3.51628 0
M  V30 8790 H 844.034 -1.67364 3.38037 0
M  V30 8791 H 846.421 -1.73075 2.39017 0
M  V30 8792 H 846.502 0.0288405 2.55784 0
M  V30 8793 H 846.146 -0.216935 5.07437 0
M  V30 8794 H 846.076 -1.98611 4.8771 0
M  V30 8795 H 848.567 -1.04335 3.63212 0
M  V30 8796 H 848.88 -1.52566 7.57591 0
M  V30 8797 H 847.225 -1.37888 6.81184 0
M  V30 8798 H 850.416 -1.2112 4.52159 0
M  V30 8799 H 850.589 -1.43136 6.31994 0
M  V30 8800 N 843.995 -1.47404 -0.557645 0
M  V30 8801 C 845.244 -1.53268 -1.31118 0
M  V30 8802 C 845.557 -0.199414 -1.94581 0
M  V30 8803 O 846.763 -0.136039 -2.71159 0
M  V30 8804 C 845.219 -2.70178 -2.37764 0
M  V30 8805 C 844.827 -4.10032 -1.80493 0
M  V30 8806 C 846.571 -2.85334 -3.14301 0
M  V30 8807 C 844.478 -5.18244 -2.84916 0
M  V30 8808 H 843.408 -0.570491 -0.493007 0
M  V30 8809 H 846.059 -1.73678 -0.592308 0
M  V30 8810 H 844.441 -2.43147 -3.12563 0
M  V30 8811 H 845.615 -4.46964 -1.12069 0
M  V30 8812 H 843.93 -3.99759 -1.16542 0
M  V30 8813 H 846.527 -3.63347 -3.92279 0
M  V30 8814 H 846.87 -1.93761 -3.68459 0
M  V30 8815 H 847.403 -3.12133 -2.46613 0
M  V30 8816 H 844.142 -6.11691 -2.35614 0
M  V30 8817 H 843.662 -4.85829 -3.51753 0
M  V30 8818 H 845.341 -5.45174 -3.48417 0
M  V30 8819 N 845.473 0.80434 -1.35529 0
M  V30 8820 C 846.701 1.59283 -1.32048 0
M  V30 8821 C 847.116 1.88527 0.101556 0
M  V30 8822 O 846.473 1.48975 1.05417 0
M  V30 8823 C 846.524 2.92276 -2.12737 0
M  V30 8824 O 846.245 2.64299 -3.49396 0
M  V30 8825 C 847.746 3.86631 -2.16867 0
M  V30 8826 H 844.966 0.494523 -0.453528 0
M  V30 8827 H 847.51 0.999415 -1.78415 0
M  V30 8828 H 845.665 3.48125 -1.69964 0
M  V30 8829 H 846.079 3.4923 -3.91329 0
M  V30 8830 H 847.553 4.77053 -2.77712 0
M  V30 8831 H 848.03 4.23384 -1.16803 0
M  V30 8832 H 848.636 3.36717 -2.59811 0
M  V30 8833 N 846.951 1.19563 1.02676 0
M  V30 8834 C 847.914 0.937182 2.09164 0
M  V30 8835 C 848.914 -0.0831927 1.60585 0
M  V30 8836 O 850.104 0.15178 1.73538 0
M  V30 8837 C 847.236 0.408912 3.38439 0
M  V30 8838 H 848.429 1.88164 2.33526 0
M  V30 8839 H 845.982 1.00959 1.19319 0
M  V30 8840 H 846.717 -0.541497 3.19747 0
M  V30 8841 H 846.502 1.14464 3.7502 0
M  V30 8842 H 847.992 0.247242 4.16867 0
M  V30 8843 N 848.429 -1.21819 0.999893 0
M  V30 8844 C 849.675 -1.91035 0.680701 0
M  V30 8845 C 850.008 -1.77582 -0.786021 0
M  V30 8846 O 849.283 -1.14917 -1.56921 0
M  V30 8847 C 849.566 -3.43013 1.0961 0
M  V30 8848 C 849.419 -3.65481 2.6219 0
M  V30 8849 C 850.738 -4.35204 0.654616 0
M  V30 8850 H 847.857 -0.693748 0.248763 0
M  V30 8851 H 850.499 -1.43555 1.24466 0
M  V30 8852 H 848.649 -3.83581 0.616253 0
M  V30 8853 H 850.321 -3.34273 3.17899 0
M  V30 8854 H 848.564 -3.09522 3.03938 0
M  V30 8855 H 849.235 -4.71945 2.86307 0
M  V30 8856 H 851.711 -4.0219 1.06688 0
M  V30 8857 H 850.587 -5.40198 0.973492 0
M  V30 8858 H 850.848 -4.3986 -0.444458 0
M  V30 8859 N 849.908 -0.773975 -1.37286 0
M  V30 8860 C 851.148 -0.344505 -2.01476 0
M  V30 8861 C 851.512 1.05966 -1.6011 0
M  V30 8862 O 852.713 1.58937 -2.16778 0
M  V30 8863 C 850.984 -0.485816 -3.54083 0
M  V30 8864 S 852.543 -0.141939 -4.3857 0
M  V30 8865 H 849.361 -0.13243 -0.698558 0
M  V30 8866 H 851.963 -1.00908 -1.67445 0
M  V30 8867 H 850.667 -1.50835 -3.81677 0
M  V30 8868 H 850.198 0.195232 -3.92915 0
M  V30 8869 H 852.213 1.06177 -4.84707 0
M  V30 8870 N 851.386 1.48609 -0.524698 0
M  V30 8871 C 852.333 2.29539 0.240956 0
M  V30 8872 C 853.303 1.37033 0.938681 0
M  V30 8873 O 854.488 1.65996 0.940737 0
M  V30 8874 C 851.628 3.20278 1.28514 0
M  V30 8875 C 850.741 4.27858 0.596798 0
M  V30 8876 C 849.876 5.05784 1.62346 0
M  V30 8877 C 848.915 6.05173 0.918287 0
M  V30 8878 N 848.052 6.76176 1.89025 0
M  V30 8879 H 852.892 2.945 -0.455368 0
M  V30 8880 H 850.429 1.45188 -0.236403 0
M  V30 8881 H 852.387 3.71281 1.90279 0
M  V30 8882 H 851.017 2.57251 1.94992 0
M  V30 8883 H 850.069 3.80162 -0.134668 0
M  V30 8884 H 851.381 4.98782 0.0428506 0
M  V30 8885 H 850.535 5.60775 2.31553 0
M  V30 8886 H 849.274 4.34687 2.2113 0
M  V30 8887 H 848.279 5.49391 0.21212 0
M  V30 8888 H 849.504 6.78265 0.336633 0
M  V30 8889 H 847.45 6.07834 2.46726 0
M  V30 8890 H 847.367 7.43157 1.3876 0
M  V30 8891 H 848.635 7.35759 2.57446 0
M  V30 8892 N 852.864 0.259585 1.55447 0
M  V30 8893 C 854.11 -0.362143 1.9954 0
M  V30 8894 C 854.443 -1.5666 1.14767 0
M  V30 8895 O 853.718 -1.93319 0.214025 0
M  V30 8896 C 854.001 -0.759588 3.51998 0
M  V30 8897 C 853.854 0.451134 4.47532 0
M  V30 8898 C 855.173 -1.60186 4.09913 0
M  V30 8899 H 852.292 -0.130157 0.725416 0
M  V30 8900 H 854.934 0.363431 1.86492 0
M  V30 8901 H 853.084 -1.3778 3.63248 0
M  V30 8902 H 854.756 1.08965 4.48246 0
M  V30 8903 H 852.999 1.092 4.19831 0
M  V30 8904 H 853.67 0.129518 5.51848 0
M  V30 8905 H 856.146 -1.0799 4.01842 0
M  V30 8906 H 855.022 -1.84879 5.16828 0
M  V30 8907 H 855.283 -2.57787 3.59163 0
M  V30 8908 N 854.342 -1.57594 -0.0133615 0
M  V30 8909 C 855.753 -1.78168 -0.557937 0
M  V30 8910 C 856.104 -0.892616 -1.74719 0
M  V30 8911 O 855.229 -0.0915491 -2.16206 0
M  V30 8912 C 855.824 -3.23115 -1.01894 0
M  V30 8913 C 854.383 -3.44831 -1.50892 0
M  V30 8914 C 853.53 -2.73558 -0.454044 0
M  V30 8915 H 856.481 -1.57266 0.212843 0
M  V30 8916 H 856.502 -3.30493 -1.8856 0
M  V30 8917 H 856.014 -3.87798 -0.153175 0
M  V30 8918 H 854.115 -2.85345 -2.39602 0
M  V30 8919 H 854.228 -4.53485 -1.54559 0
M  V30 8920 H 852.592 -2.37787 -0.912666 0
M  V30 8921 H 853.375 -3.40932 0.402524 0
M  V30 8922 N 855.82 0.285905 -1.54985 0
M  V30 8923 C 857.097 1.0397 -1.65679 0
M  V30 8924 C 857.477 2.04725 -0.514851 0
M  V30 8925 O 856.825 2.23257 0.486663 0
M  V30 8926 C 857.035 1.70807 -3.04345 0
M  V30 8927 C 858.383 2.22447 -3.61666 0
M  V30 8928 O 859.407 1.80815 -3.06895 0
M  V30 8929 O 858.266 2.98773 -4.57599 0
M  V30 8930 H 855.36 0.481473 -0.672394 0
M  V30 8931 H 857.906 0.282789 -1.67327 0
M  V30 8932 H 856.678 0.977271 -3.789 0
M  V30 8933 H 856.301 2.53217 -3.06541 0
M  V30 8934 N 857.298 1.47698 0.54982 0
M  V30 8935 C 858.208 1.63386 1.68351 0
M  V30 8936 C 859.224 0.516583 1.66155 0
M  V30 8937 O 860.4 0.785088 1.85468 0
M  V30 8938 C 857.465 1.6513 3.04849 0
M  V30 8939 C 856.526 2.88338 3.18056 0
M  V30 8940 C 855.759 2.8999 4.48042 0
M  V30 8941 O 855.982 2.00633 5.3395 0
M  V30 8942 O 854.916 3.81938 4.65196 0
M  V30 8943 H 858.742 2.59329 1.58057 0
M  V30 8944 H 856.327 1.30869 0.72067 0
M  V30 8945 H 858.209 1.68913 3.86065 0
M  V30 8946 H 856.884 0.723555 3.1551 0
M  V30 8947 H 855.791 2.90097 2.36209 0
M  V30 8948 H 857.124 3.80431 3.12302 0
M  V30 8949 N 858.776 -0.797141 1.35954 0
M  V30 8950 C 860.001 -1.59097 1.33053 0
M  V30 8951 C 860.426 -1.87897 -0.0874592 0
M  V30 8952 O 859.784 -1.47291 -1.05712 0
M  V30 8953 C 859.832 -2.89346 2.152 0
M  V30 8954 O 858.936 -3.826 1.5392 0
M  V30 8955 H 858.277 -0.482895 0.45575 0
M  V30 8956 H 860.807 -0.988633 1.79129 0
M  V30 8957 H 860.817 -3.38686 2.27499 0
M  V30 8958 H 859.492 -2.6771 3.18283 0
M  V30 8959 H 858.069 -3.41174 1.50516 0
M  V30 8960 N 860.254 -1.20106 -1.0204 0
M  V30 8961 C 861.164 -0.962051 -2.13967 0
M  V30 8962 C 862.18 0.0808053 -1.73812 0
M  V30 8963 O 863.356 -0.105774 -2.01122 0
M  V30 8964 C 860.421 -0.513108 -3.42882 0
M  V30 8965 C 859.482 -1.62636 -3.97301 0
M  V30 8966 C 858.715 -1.19875 -5.20063 0
M  V30 8967 O 858.938 -0.0658423 -5.70362 0
M  V30 8968 O 857.872 -2.00467 -5.67536 0
M  V30 8969 H 861.698 -1.8991 -2.36998 0
M  V30 8970 H 859.283 -0.984608 -1.12365 0
M  V30 8971 H 861.165 -0.271797 -4.20523 0
M  V30 8972 H 859.84 0.395402 -3.21276 0
M  V30 8973 H 858.747 -1.92192 -3.20957 0
M  V30 8974 H 860.08 -2.51174 -4.23288 0
M  V30 8975 N 861.732 1.21287 -1.00634 0
M  V30 8976 C 862.978 1.90671 -0.690822 0
M  V30 8977 C 863.311 1.77996 0.776592 0
M  V30 8978 O 862.586 1.15748 1.5631 0
M  V30 8979 C 862.869 3.42426 -1.11428 0
M  V30 8980 C 862.722 3.64086 -2.64124 0
M  V30 8981 C 864.041 4.34851 -0.677686 0
M  V30 8982 H 861.16 0.692419 -0.252439 0
M  V30 8983 H 863.802 1.42893 -1.25226 0
M  V30 8984 H 861.952 3.83249 -0.636586 0
M  V30 8985 H 863.624 3.32582 -3.19667 0
M  V30 8986 H 861.867 3.07906 -3.05576 0
M  V30 8987 H 862.538 4.7042 -2.88806 0
M  V30 8988 H 865.014 4.01619 -1.0882 0
M  V30 8989 H 863.89 5.39675 -1.00213 0
M  V30 8990 H 864.151 4.4009 0.421125 0
M  V30 8991 N 863.21 0.781244 1.36873 0
M  V30 8992 C 864.456 0.350407 1.9975 0
M  V30 8993 C 864.789 -1.07293 1.6187 0
M  V30 8994 O 864.064 -1.73983 0.869491 0
M  V30 8995 C 864.347 0.504834 3.56544 0
M  V30 8996 C 864.2 1.97127 4.04303 0
M  V30 8997 C 865.519 -0.0851272 4.40018 0
M  V30 8998 H 862.638 0.128794 0.725659 0
M  V30 8999 H 865.28 0.98606 1.6241 0
M  V30 9000 H 863.43 -0.0363006 3.88483 0
M  V30 9001 H 865.102 2.57284 3.82887 0
M  V30 9002 H 863.345 2.47676 3.56145 0
M  V30 9003 H 864.016 2.03033 5.13305 0
M  V30 9004 H 866.492 0.376704 4.14391 0
M  V30 9005 H 865.368 0.0530015 5.48874 0
M  V30 9006 H 865.629 -1.17642 4.2616 0
M  V30 9007 N 864.689 -1.48329 0.532571 0
M  V30 9008 C 865.935 -2.028 -0.000583219 0
M  V30 9009 C 866.268 -1.40858 -1.33688 0
M  V30 9010 O 865.543 -0.555261 -1.86406 0
M  V30 9011 C 865.826 -3.59901 -0.119846 0
M  V30 9012 C 865.679 -4.32318 1.2418 0
M  V30 9013 C 866.998 -4.31904 -0.845372 0
M  V30 9014 H 864.117 -0.736999 0.00126205 0
M  V30 9015 H 866.759 -1.77024 0.690102 0
M  V30 9016 H 864.909 -3.81993 -0.708092 0
M  V30 9017 H 866.581 -4.21637 1.87136 0
M  V30 9018 H 864.824 -3.93635 1.82301 0
M  V30 9019 H 865.495 -5.40697 1.11132 0
M  V30 9020 H 867.971 -4.14658 -0.346159 0
M  V30 9021 H 866.847 -5.41509 -0.897723 0
M  V30 9022 H 867.108 -3.99369 -1.89622 0
M  V30 9023 N 866.167 -0.267825 -1.55308 0
M  V30 9024 C 867.077 0.633055 -2.25897 0
M  V30 9025 C 868.093 1.17613 -1.28231 0
M  V30 9026 O 869.269 1.20797 -1.61153 0
M  V30 9027 C 866.334 1.80397 -2.96071 0
M  V30 9028 C 865.395 1.29829 -4.09198 0
M  V30 9029 C 864.628 2.4134 -4.76016 0
M  V30 9030 O 864.851 3.60537 -4.42006 0
M  V30 9031 O 863.785 2.09909 -5.64111 0
M  V30 9032 H 867.611 0.0614381 -3.03638 0
M  V30 9033 H 865.196 -0.0355072 -1.49358 0
M  V30 9034 H 867.078 2.48685 -3.40197 0
M  V30 9035 H 865.753 2.36281 -2.21253 0
M  V30 9036 H 864.66 0.582086 -3.69544 0
M  V30 9037 H 865.993 0.785288 -4.85895 0
M  V30 9038 N 867.645 1.57599 0.00500368 0
M  V30 9039 C 869.061 1.55463 0.361015 0
M  V30 9040 C 869.261 0.997051 1.75103 0
M  V30 9041 O 868.317 0.628661 2.44549 0
M  V30 9042 C 869.63 2.99734 0.240828 0
M  V30 9043 C 871.178 3.11399 0.316138 0
M  V30 9044 C 871.653 4.57446 0.22513 0
M  V30 9045 N 873.144 4.62334 0.283186 0
M  V30 9046 C 873.879 5.72914 0.23603 0
M  V30 9047 N 873.375 6.92659 0.139762 0
M  V30 9048 N 875.168 5.61364 0.287529 0
M  V30 9049 H 867.319 1.92185 -0.904359 0
M  V30 9050 H 869.582 0.882529 -0.34619 0
M  V30 9051 H 869.288 3.44348 -0.715343 0
M  V30 9052 H 869.162 3.63009 1.02491 0
M  V30 9053 H 871.549 2.66718 1.26275 0
M  V30 9054 H 871.63 2.50911 -0.497725 0
M  V30 9055 H 871.274 5.02801 -0.717917 0
M  V30 9056 H 871.204 5.15874 1.05742 0
M  V30 9057 H 873.695 3.7619 0.359123 0
M  V30 9058 H 874.008 7.72722 0.10954 0
M  V30 9059 H 872.353 6.9492 0.105462 0
M  V30 9060 H 875.544 4.66707 0.360897 0
M  V30 9061 H 875.717 6.47528 0.247313 0
M  V30 9062 N 869.123 -0.277682 1.55134 0
M  V30 9063 C 870.4 -1.0309 1.66228 0
M  V30 9064 C 870.78 -2.0445 0.525701 0
M  V30 9065 O 870.128 -2.23512 -0.474816 0
M  V30 9066 C 870.338 -1.6919 3.05247 0
M  V30 9067 C 871.686 -2.20526 3.62841 0
M  V30 9068 O 872.71 -1.79185 3.07849 0
M  V30 9069 O 871.569 -2.96342 4.59177 0
M  V30 9070 H 868.663 -0.4779 0.674937 0
M  V30 9071 H 871.209 -0.273912 1.67475 0
M  V30 9072 H 869.981 -0.957163 3.79413 0
M  V30 9073 H 869.604 -2.51587 3.07879 0
M  V30 9074 N 870.601 -1.47988 -0.541979 0
M  V30 9075 C 871.85 -1.5465 -1.29485 0
M  V30 9076 C 872.163 -0.220041 -1.94358 0
M  V30 9077 O 873.369 -0.164792 -2.70999 0
M  V30 9078 C 871.825 -2.72685 -2.34885 0
M  V30 9079 C 871.433 -4.11923 -1.76134 0
M  V30 9080 C 873.177 -2.88651 -3.11257 0
M  V30 9081 C 871.084 -5.21237 -2.79404 0
M  V30 9082 H 870.014 -0.575688 -0.486928 0
M  V30 9083 H 872.665 -1.74296 -0.573853 0
M  V30 9084 H 871.047 -2.46448 -3.09966 0
M  V30 9085 H 872.221 -4.48128 -1.07322 0
M  V30 9086 H 870.536 -4.00972 -1.12295 0
M  V30 9087 H 873.133 -3.67487 -3.88404 0
M  V30 9088 H 873.476 -1.97658 -3.66384 0
M  V30 9089 H 874.009 -3.14731 -2.43288 0
M  V30 9090 H 870.748 -6.14156 -2.29113 0
M  V30 9091 H 870.268 -4.89533 -3.4658 0
M  V30 9092 H 871.947 -5.48839 -3.42615 0
M  V30 9093 N 872.079 0.78992 -1.36375 0
M  V30 9094 C 873.328 1.54296 -1.29906 0
M  V30 9095 C 873.641 1.95234 0.119651 0
M  V30 9096 O 874.847 2.69762 0.306708 0
M  V30 9097 C 873.303 2.78533 -2.27919 0
M  V30 9098 C 872.911 2.44767 -3.75224 0
M  V30 9099 C 874.655 3.56516 -2.30427 0
M  V30 9100 C 872.562 3.65397 -4.65015 0
M  V30 9101 H 871.492 0.579214 -0.482729 0
M  V30 9102 H 874.143 0.866845 -1.61735 0
M  V30 9103 H 872.525 3.47941 -1.89084 0
M  V30 9104 H 873.699 1.83259 -4.22792 0
M  V30 9105 H 872.014 1.79996 -3.75487 0
M  V30 9106 H 874.611 4.46143 -2.94722 0
M  V30 9107 H 874.954 3.95063 -1.31266 0
M  V30 9108 H 875.487 2.94087 -2.67876 0
M  V30 9109 H 872.226 3.31946 -5.65236 0
M  V30 9110 H 871.746 4.26072 -4.22164 0
M  V30 9111 H 873.425 4.32431 -4.81261 0
M  V30 9112 N 873.557 1.20646 1.01402 0
M  V30 9113 C 874.487 0.98155 2.11867 0
M  V30 9114 C 875.468 -0.0903712 1.6986 0
M  V30 9115 O 876.653 0.0676586 1.94082 0
M  V30 9116 C 873.783 0.535636 3.43145 0
M  V30 9117 C 872.737 1.55109 3.98905 0
M  V30 9118 C 872.063 0.961725 5.2598 0
M  V30 9119 C 873.363 2.93552 4.32001 0
M  V30 9120 H 875.057 1.90544 2.3094 0
M  V30 9121 H 872.603 0.917554 1.10982 0
M  V30 9122 H 874.556 0.365512 4.19812 0
M  V30 9123 H 873.28 -0.423882 3.23838 0
M  V30 9124 H 871.939 1.70862 3.24348 0
M  V30 9125 H 871.587 -0.00580108 5.03 0
M  V30 9126 H 871.287 1.63993 5.64252 0
M  V30 9127 H 872.811 0.802726 6.053 0
M  V30 9128 H 874.225 2.81295 4.99546 0
M  V30 9129 H 872.622 3.58303 4.81393 0
M  V30 9130 H 873.692 3.4508 3.40658 0
M  V30 9131 N 875.035 -1.20752 1.01276 0
M  V30 9132 C 876.312 -1.85676 0.615112 0
M  V30 9133 C 876.692 -1.90623 -0.906976 0
M  V30 9134 O 876.04 -1.41124 -1.79712 0
M  V30 9135 C 876.25 -3.2552 1.25847 0
M  V30 9136 C 877.598 -4.0184 1.37148 0
M  V30 9137 O 878.622 -3.3486 1.21438 0
M  V30 9138 O 877.481 -5.21783 1.62495 0
M  V30 9139 H 874.575 -0.799437 0.211729 0
M  V30 9140 H 877.121 -1.28372 1.10989 0
M  V30 9141 H 875.893 -3.16664 2.29869 0
M  V30 9142 H 875.516 -3.90452 0.750524 0
M  V30 9143 N 876.513 -0.788492 -1.36457 0
M  V30 9144 C 877.461 -0.174192 -2.31947 0
M  V30 9145 C 878.455 0.665974 -1.5576 0
M  V30 9146 O 879.661 0.561161 -1.71029 0
M  V30 9147 H 876.036 -0.0375538 -0.751062 0
M  V30 9148 H 878.007 -0.995011 -2.81322 0
M  V30 9149 C 876.756 0.677276 -3.4104 0
M  V30 9150 H 876.079 0.0401418 -3.9978 0
M  V30 9151 H 877.519 1.07379 -4.10178 0
M  V30 9152 C 875.978 1.83512 -2.82533 0
M  V30 9153 O 876.508 2.93164 -2.74623 0
M  V30 9154 N 874.714 1.64095 -2.39836 0
M  V30 9155 H 874.261 0.749046 -2.46469 0
M  V30 9156 H 874.219 2.41726 -2.01037 0
M  V30 9157 N 877.991 1.48044 -0.54043 0
M  V30 9158 C 879.402 1.86418 -0.102662 0
M  V30 9159 C 879.753 1.4489 1.32293 0
M  V30 9160 O 878.878 0.844319 1.99249 0
M  V30 9161 C 879.473 3.38324 -0.179533 0
M  V30 9162 C 878.032 3.75852 0.203098 0
M  V30 9163 C 877.179 2.72097 -0.534637 0
M  V30 9164 H 880.13 1.398 -0.751103 0
M  V30 9165 H 880.151 3.75641 0.606147 0
M  V30 9166 H 879.663 3.68518 -1.21721 0
M  V30 9167 H 877.764 3.51272 1.24252 0
M  V30 9168 H 877.877 4.78884 -0.143784 0
M  V30 9169 H 876.241 2.54692 0.0203358 0
M  V30 9170 H 877.024 3.05135 -1.57314 0
M  V30 9171 N 879.47 0.276058 1.55163 0
M  V30 9172 C 880.698 -0.343772 2.04024 0
M  V30 9173 C 881.113 -1.49397 1.15438 0
M  V30 9174 O 880.47 -1.81662 0.174692 0
M  V30 9175 C 880.521 -0.823885 3.51986 0
M  V30 9176 O 880.242 0.280507 4.37201 0
M  V30 9177 C 881.743 -1.51143 4.16738 0
M  V30 9178 H 878.963 -0.07828 0.666418 0
M  V30 9179 H 881.507 0.408427 2.0038 0
M  V30 9180 H 879.662 -1.52617 3.56071 0
M  V30 9181 H 880.076 -0.0887831 5.24425 0
M  V30 9182 H 881.55 -1.79878 5.2187 0
M  V30 9183 H 882.027 -2.44327 3.64967 0
M  V30 9184 H 882.633 -0.852975 4.16659 0
M  V30 9185 N 880.948 -1.576 0.00335426 0
M  V30 9186 C 881.878 -2.11668 -0.985839 0
M  V30 9187 C 882.859 -1.02661 -1.35627 0
M  V30 9188 O 884.044 -1.30361 -1.43943 0
M  V30 9189 C 881.174 -2.62273 -2.27662 0
M  V30 9190 C 880.128 -3.75837 -2.0477 0
M  V30 9191 C 879.454 -4.12769 -3.39891 0
M  V30 9192 C 880.754 -5.02975 -1.40759 0
M  V30 9193 H 882.448 -2.9457 -0.535637 0
M  V30 9194 H 879.994 -1.41702 -0.256204 0
M  V30 9195 H 881.947 -2.98727 -2.97221 0
M  V30 9196 H 880.671 -1.76498 -2.74802 0
M  V30 9197 H 879.33 -3.39782 -1.37636 0
M  V30 9198 H 878.978 -3.24013 -3.8474 0
M  V30 9199 H 878.678 -4.89281 -3.25389 0
M  V30 9200 H 880.202 -4.51784 -4.1076 0
M  V30 9201 H 881.616 -5.37179 -2.00279 0
M  V30 9202 H 880.013 -5.84315 -1.36734 0
M  V30 9203 H 881.083 -4.83431 -0.377218 0
M  V30 9204 N 882.426 0.269451 -1.5528 0
M  V30 9205 C 883.654 1.01872 -1.80082 0
M  V30 9206 C 884.069 1.79802 -0.575917 0
M  V30 9207 O 883.426 1.76735 0.455081 0
M  V30 9208 C 883.477 1.9745 -3.02813 0
M  V30 9209 O 883.198 1.22677 -4.20573 0
M  V30 9210 C 884.699 2.8416 -3.40247 0
M  V30 9211 H 881.919 0.300781 -0.59981 0
M  V30 9212 H 884.463 0.29916 -2.023 0
M  V30 9213 H 882.618 2.64864 -2.82712 0
M  V30 9214 H 883.032 1.87129 -4.89982 0
M  V30 9215 H 884.506 3.47014 -4.29284 0
M  V30 9216 H 884.983 3.54113 -2.59809 0
M  V30 9217 H 885.589 2.22232 -3.6262 0
M  V30 9218 N 883.904 1.48273 0.534124 0
M  V30 9219 C 884.834 1.6538 1.64839 0
M  V30 9220 C 885.815 0.502741 1.62501 0
M  V30 9221 O 887 0.734799 1.79762 0
M  V30 9222 C 884.13 1.68949 3.03436 0
M  V30 9223 C 883.084 2.83513 3.20631 0
M  V30 9224 C 882.41 2.72169 4.60248 0
M  V30 9225 C 883.71 4.24858 3.03797 0
M  V30 9226 H 885.404 2.58663 1.50777 0
M  V30 9227 H 882.95 1.24479 0.723937 0
M  V30 9228 H 884.903 1.79505 3.81256 0
M  V30 9229 H 883.627 0.722415 3.1851 0
M  V30 9230 H 882.286 2.72505 2.45227 0
M  V30 9231 H 881.934 1.7344 4.72152 0
M  V30 9232 H 881.634 3.49042 4.72698 0
M  V30 9233 H 883.158 2.84687 5.40172 0
M  V30 9234 H 884.572 4.36721 3.71413 0
M  V30 9235 H 882.969 5.02697 3.27743 0
M  V30 9236 H 884.039 4.41611 2.0027 0
M  V30 9237 N 885.382 -0.782676 1.36792 0
M  V30 9238 C 886.292 -1.92679 1.33835 0
M  V30 9239 C 887.308 -1.72344 0.23952 0
M  V30 9240 O 888.484 -1.95766 0.473045 0
M  V30 9241 C 885.549 -3.27644 1.1336 0
M  V30 9242 C 884.61 -3.6071 2.32781 0
M  V30 9243 C 883.843 -4.89234 2.13273 0
M  V30 9244 O 884.066 -5.59468 1.11136 0
M  V30 9245 O 883 -5.21112 3.01208 0
M  V30 9246 H 886.826 -1.98124 2.30175 0
M  V30 9247 H 884.411 -0.923887 1.17408 0
M  V30 9248 H 886.293 -4.08394 1.03886 0
M  V30 9249 H 884.968 -3.23076 0.200868 0
M  V30 9250 H 883.875 -2.80238 2.47825 0
M  V30 9251 H 885.208 -3.70008 3.24584 0
M  V30 9252 N 886.86 -1.21182 -1.00761 0
M  V30 9253 C 888.106 -1.02898 -1.74756 0
M  V30 9254 C 888.439 0.436774 -1.89225 0
M  V30 9255 O 887.714 1.32415 -1.42466 0
M  V30 9256 C 887.997 -1.72372 -3.16164 0
M  V30 9257 C 887.85 -3.2645 -3.09435 0
M  V30 9258 C 889.169 -1.46415 -4.15031 0
M  V30 9259 H 886.288 -0.375214 -0.634337 0
M  V30 9260 H 888.93 -1.49321 -1.17487 0
M  V30 9261 H 887.08 -1.32906 -3.65059 0
M  V30 9262 H 888.752 -3.75269 -2.68274 0
M  V30 9263 H 886.995 -3.56889 -2.46603 0
M  V30 9264 H 887.666 -3.70226 -4.09435 0
M  V30 9265 H 890.142 -1.80671 -3.7483 0
M  V30 9266 H 889.018 -1.97544 -5.12121 0
M  V30 9267 H 889.279 -0.39361 -4.40344 0
M  V30 9268 N 888.338 1.20213 -1.01915 0
M  V30 9269 C 889.268 2.25336 -0.612023 0
M  V30 9270 C 890.249 1.65933 0.374186 0
M  V30 9271 O 891.434 1.92464 0.259053 0
M  V30 9272 C 888.564 3.47267 0.047904 0
M  V30 9273 C 887.518 4.1928 -0.859557 0
M  V30 9274 C 886.844 5.3466 -0.0652655 0
M  V30 9275 C 888.144 4.75143 -2.1688 0
M  V30 9276 H 889.838 2.59645 -1.49079 0
M  V30 9277 H 887.384 1.24808 -0.718263 0
M  V30 9278 H 889.337 4.19991 0.344294 0
M  V30 9279 H 888.061 3.12129 0.961404 0
M  V30 9280 H 886.72 3.48425 -1.13999 0
M  V30 9281 H 886.368 4.95767 0.849964 0
M  V30 9282 H 886.068 5.83772 -0.669618 0
M  V30 9283 H 887.592 6.10187 0.224612 0
M  V30 9284 H 889.006 5.39672 -1.9346 0
M  V30 9285 H 887.403 5.34702 -2.72422 0
M  V30 9286 H 888.473 3.93744 -2.83008 0
M  V30 9287 N 889.816 0.795718 1.36037 0
M  V30 9288 C 890.764 0.18649 2.31851 0
M  V30 9289 C 891.758 -0.657704 1.56111 0
M  V30 9290 O 892.964 -0.552083 1.71324 0
M  V30 9291 H 889.339 0.0415363 0.750852 0
M  V30 9292 H 891.31 1.00992 2.8079 0
M  V30 9293 C 890.059 -0.65918 3.41394 0
M  V30 9294 H 889.382 -0.01894 3.99796 0
M  V30 9295 H 890.822 -1.05202 4.10741 0
M  V30 9296 C 889.281 -1.82011 2.83502 0
M  V30 9297 O 889.811 -2.91703 2.76174 0
M  V30 9298 N 888.017 -1.62821 2.40703 0
M  V30 9299 H 887.564 -0.735965 2.46863 0
M  V30 9300 H 887.522 -2.40657 2.02316 0
M  V30 9301 N 891.294 -1.47756 0.548274 0
M  V30 9302 C 892.204 -2.33678 -0.207773 0
M  V30 9303 C 893.22 -1.47636 -0.920843 0
M  V30 9304 O 894.396 -1.80583 -0.89173 0
M  V30 9305 C 891.461 -3.24147 -1.23003 0
M  V30 9306 C 890.522 -4.26073 -0.52535 0
M  V30 9307 C 889.755 -5.12219 -1.4989 0
M  V30 9308 O 889.978 -5.0066 -2.73305 0
M  V30 9309 O 888.912 -5.93051 -1.02828 0
M  V30 9310 H 892.738 -2.99609 0.496794 0
M  V30 9311 H 890.323 -1.4617 0.308982 0
M  V30 9312 H 892.205 -3.80055 -1.82034 0
M  V30 9313 H 890.88 -2.60855 -1.91668 0
M  V30 9314 H 889.787 -3.7395 0.105927 0
M  V30 9315 H 891.12 -4.92054 0.119686 0
M  V30 9316 N 892.772 -0.284283 -1.55015 0
M  V30 9317 C 893.735 0.586182 -2.21577 0
M  V30 9318 C 894.735 1.07427 -1.1965 0
M  V30 9319 O 895.925 0.972977 -1.44495 0
M  V30 9320 C 893.057 1.80973 -2.88897 0
M  V30 9321 H 894.25 0.00487253 -2.999 0
M  V30 9322 H 891.803 -0.0349696 -1.56261 0
M  V30 9323 H 892.538 2.43131 -2.14611 0
M  V30 9324 H 892.323 1.46757 -3.636 0
M  V30 9325 H 893.813 2.42853 -3.39724 0
M  V30 9326 N 894.251 1.57596 -0.0117121 0
M  V30 9327 C 895.667 1.55837 0.344506 0
M  V30 9328 C 895.867 1.01557 1.74036 0
M  V30 9329 O 894.923 0.654563 2.43868 0
M  V30 9330 C 896.236 2.99973 0.209023 0
M  V30 9331 C 897.784 3.11717 0.283092 0
M  V30 9332 C 898.259 4.57659 0.176599 0
M  V30 9333 N 899.75 4.62608 0.234133 0
M  V30 9334 C 900.485 5.73132 0.175252 0
M  V30 9335 N 899.981 6.92768 0.0662888 0
M  V30 9336 N 901.774 5.61638 0.227972 0
M  V30 9337 H 893.925 1.91215 -0.924692 0
M  V30 9338 H 896.188 0.878807 -0.355531 0
M  V30 9339 H 895.894 3.4357 -0.751826 0
M  V30 9340 H 895.768 3.64075 0.98635 0
M  V30 9341 H 898.155 2.68043 1.23439 0
M  V30 9342 H 898.236 2.50369 -0.52431 0
M  V30 9343 H 897.88 5.02011 -0.771205 0
M  V30 9344 H 897.81 5.16967 1.00264 0
M  V30 9345 H 900.301 3.76549 0.319203 0
M  V30 9346 H 900.614 7.72795 0.0275765 0
M  V30 9347 H 898.959 6.94993 0.0317502 0
M  V30 9348 H 902.15 4.67063 0.311377 0
M  V30 9349 H 902.323 6.47754 0.178621 0
M  V30 9350 N 895.729 -0.261212 1.5542 0
M  V30 9351 C 896.975 -0.992699 1.76843 0
M  V30 9352 C 897.308 -1.8551 0.574428 0
M  V30 9353 O 896.583 -1.89739 -0.427713 0
M  V30 9354 C 896.866 -1.86532 3.08022 0
M  V30 9355 C 896.719 -1.03206 4.378 0
M  V30 9356 C 898.038 -2.85036 3.35324 0
M  V30 9357 H 895.157 -0.359473 0.643388 0
M  V30 9358 H 897.799 -0.264214 1.88154 0
M  V30 9359 H 895.949 -2.48644 2.9851 0
M  V30 9360 H 897.621 -0.430743 4.59285 0
M  V30 9361 H 895.864 -0.335911 4.32497 0
M  V30 9362 H 896.535 -1.6761 5.25938 0
M  V30 9363 H 899.011 -2.3306 3.44706 0
M  V30 9364 H 897.887 -3.43226 4.28354 0
M  V30 9365 H 898.148 -3.60768 2.55537 0
M  V30 9366 N 897.207 -1.48554 -0.526253 0
M  V30 9367 C 898.623 -1.34757 -0.855138 0
M  V30 9368 C 898.823 -0.36142 -1.98232 0
M  V30 9369 O 897.879 0.216026 -2.51574 0
M  V30 9370 C 899.192 -2.74877 -1.21915 0
M  V30 9371 C 900.74 -2.83393 -1.32882 0
M  V30 9372 C 901.215 -4.24223 -1.72624 0
M  V30 9373 N 902.706 -4.26913 -1.7972 0
M  V30 9374 C 903.441 -5.32824 -2.11863 0
M  V30 9375 N 902.937 -6.49008 -2.42405 0
M  V30 9376 N 904.73 -5.20221 -2.12901 0
M  V30 9377 H 896.881 -2.11284 0.217422 0
M  V30 9378 H 899.144 -0.947367 0.0346362 0
M  V30 9379 H 898.85 -3.48619 -0.464486 0
M  V30 9380 H 898.724 -3.0864 -2.16844 0
M  V30 9381 H 901.111 -2.09904 -2.07424 0
M  V30 9382 H 901.192 -2.53245 -0.360638 0
M  V30 9383 H 900.836 -4.98229 -0.986411 0
M  V30 9384 H 900.766 -4.51817 -2.70498 0
M  V30 9385 H 903.257 -3.4311 -1.58379 0
M  V30 9386 H 903.57 -7.25561 -2.66048 0
M  V30 9387 H 901.915 -6.52277 -2.39917 0
M  V30 9388 H 905.106 -4.28469 -1.885 0
M  V30 9389 H 905.279 -6.02861 -2.37619 0
M  V30 9390 N 898.685 0.775411 -1.37205 0
M  V30 9391 C 899.632 1.88857 -1.32671 0
M  V30 9392 C 900.602 1.64976 -0.192899 0
M  V30 9393 O 901.787 1.86944 -0.381673 0
M  V30 9394 C 898.927 3.25871 -1.13588 0
M  V30 9395 C 898.04 3.61731 -2.36167 0
M  V30 9396 C 897.175 4.87934 -2.09985 0
M  V30 9397 C 896.214 5.16514 -3.2845 0
M  V30 9398 N 895.351 6.33905 -3.01842 0
M  V30 9399 H 900.191 1.92068 -2.27846 0
M  V30 9400 H 897.728 0.939066 -1.13225 0
M  V30 9401 H 899.686 4.04903 -1.00546 0
M  V30 9402 H 898.316 3.22045 -0.220613 0
M  V30 9403 H 897.368 2.77712 -2.59962 0
M  V30 9404 H 898.68 3.78792 -3.24528 0
M  V30 9405 H 897.834 5.74863 -1.93953 0
M  V30 9406 H 896.573 4.7297 -1.18956 0
M  V30 9407 H 895.578 4.28063 -3.45025 0
M  V30 9408 H 896.803 5.33389 -4.20325 0
M  V30 9409 H 894.749 6.20306 -2.13439 0
M  V30 9410 H 894.666 6.51364 -3.83746 0
M  V30 9411 H 895.934 7.23779 -2.8942 0
M  V30 9412 N 900.163 1.21714 1.00117 0
M  V30 9413 C 901.574 1.03477 1.55401 0
M  V30 9414 C 901.925 -0.40429 1.91989 0
M  V30 9415 O 901.05 -1.28807 1.7389 0
M  V30 9416 C 901.645 1.87213 2.82377 0
M  V30 9417 C 900.204 1.73297 3.34133 0
M  V30 9418 C 899.351 1.84189 2.07291 0
M  V30 9419 H 902.302 1.3568 0.823195 0
M  V30 9420 H 902.323 1.38465 3.54412 0
M  V30 9421 H 901.835 2.91944 2.55715 0
M  V30 9422 H 899.936 0.712662 3.65721 0
M  V30 9423 H 900.049 2.55486 4.05294 0
M  V30 9424 H 898.413 1.27538 2.20468 0
M  V30 9425 H 899.196 2.90435 1.83037 0
M  V30 9426 N 901.641 -1.19671 1.02551 0
M  V30 9427 C 902.887 -1.89548 0.721069 0
M  V30 9428 C 903.22 -1.79209 -0.748176 0
M  V30 9429 O 902.495 -1.1822 -1.54448 0
M  V30 9430 C 902.778 -3.4061 1.16861 0
M  V30 9431 C 902.631 -3.59838 2.69883 0
M  V30 9432 C 903.95 -4.33718 0.746782 0
M  V30 9433 H 901.069 -0.688315 0.263422 0
M  V30 9434 H 903.711 -1.40883 1.27483 0
M  V30 9435 H 901.861 -3.82188 0.697477 0
M  V30 9436 H 903.533 -3.27454 3.24917 0
M  V30 9437 H 901.776 -3.03005 3.10435 0
M  V30 9438 H 902.447 -4.65766 2.96253 0
M  V30 9439 H 904.923 -3.99837 1.15195 0
M  V30 9440 H 903.799 -5.38012 1.08786 0
M  V30 9441 H 904.06 -4.40704 -0.351057 0
M  V30 9442 N 903.119 -0.802921 -1.35613 0
M  V30 9443 C 904.067 -0.198783 -2.31749 0
M  V30 9444 C 905.061 0.649416 -1.56458 0
M  V30 9445 O 906.267 0.542989 -1.71615 0
M  V30 9446 H 902.642 -0.0455177 -0.750621 0
M  V30 9447 H 904.613 -1.02479 -2.80251 0
M  V30 9448 C 903.362 0.641066 -3.41739 0
M  V30 9449 H 902.685 -0.00226244 -3.998 0
M  V30 9450 H 904.125 1.03022 -4.11294 0
M  V30 9451 C 902.584 1.80505 -2.84464 0
M  V30 9452 O 903.114 2.90235 -2.77717 0
M  V30 9453 N 901.32 1.61542 -2.41563 0
M  V30 9454 H 900.867 0.722863 -2.4725 0
M  V30 9455 H 900.825 2.39581 -2.03589 0
M  V30 9456 N 904.597 1.47463 -0.556102 0
M  V30 9457 C 905.843 2.02775 -0.0316806 0
M  V30 9458 C 906.176 1.42967 1.3143 0
M  V30 9459 O 905.451 0.584847 1.85499 0
M  V30 9460 C 905.734 3.60046 0.0625742 0
M  V30 9461 C 905.587 4.30288 -1.31043 0
M  V30 9462 C 906.906 4.33195 0.776553 0
M  V30 9463 H 904.025 0.736886 -0.0129869 0
M  V30 9464 H 906.667 1.75904 -0.718177 0
M  V30 9465 H 904.817 3.83071 0.647231 0
M  V30 9466 H 906.489 4.18607 -1.9382 0
M  V30 9467 H 904.732 3.90685 -1.8854 0
M  V30 9468 H 905.403 5.38861 -1.1972 0
M  V30 9469 H 907.879 4.15156 0.280147 0
M  V30 9470 H 906.755 5.42869 0.81146 0
M  V30 9471 H 907.016 4.02336 1.83244 0
M  V30 9472 N 906.075 0.2925 1.54862 0
M  V30 9473 C 907.007 -0.620889 2.2063 0
M  V30 9474 C 908.02 -1.10412 1.19637 0
M  V30 9475 O 909.209 -1.02304 1.46274 0
M  V30 9476 C 906.309 -1.861 2.83232 0
M  V30 9477 C 905.482 -1.52168 4.10078 0
M  V30 9478 C 904.541 -2.61605 4.56562 0
M  V30 9479 O 903.567 -2.27056 5.21952 0
M  V30 9480 N 904.769 -3.9199 4.28163 0
M  V30 9481 H 907.534 -0.0579028 2.99644 0
M  V30 9482 H 905.095 0.114333 1.61496 0
M  V30 9483 H 907.087 -2.58642 3.11266 0
M  V30 9484 H 905.657 -2.33259 2.08108 0
M  V30 9485 H 904.877 -0.629283 3.89145 0
M  V30 9486 H 906.165 -1.27023 4.92689 0
M  V30 9487 H 905.563 -4.22872 3.7576 0
M  V30 9488 H 904.12 -4.60857 4.60928 0
M  V30 9489 N 907.553 -1.57587 0.0200696 0
M  V30 9490 C 908.486 -2.05157 -0.999295 0
M  V30 9491 C 909.464 -0.945466 -1.32286 0
M  V30 9492 O 910.648 -1.21512 -1.44108 0
M  V30 9493 C 907.775 -2.46604 -2.32173 0
M  V30 9494 C 906.821 -3.68146 -2.15339 0
M  V30 9495 S 907.654 -5.15194 -1.46065 0
M  V30 9496 C 908.81 -5.59929 -2.79697 0
M  V30 9497 H 909.043 -2.91299 -0.59433 0
M  V30 9498 H 906.576 -1.53209 -0.191372 0
M  V30 9499 H 908.534 -2.7115 -3.08201 0
M  V30 9500 H 907.195 -1.60825 -2.69804 0
M  V30 9501 H 906.388 -3.94963 -3.13082 0
M  V30 9502 H 905.99 -3.43705 -1.47454 0
M  V30 9503 H 908.282 -5.63615 -3.75957 0
M  V30 9504 H 909.225 -6.59599 -2.57555 0
M  V30 9505 H 909.633 -4.87549 -2.84528 0
M  V30 9506 N 909.032 0.252966 -1.55557 0
M  V30 9507 C 909.962 1.31691 -1.9282 0
M  V30 9508 C 910.943 1.50516 -0.7924 0
M  V30 9509 O 912.128 1.63225 -1.05219 0
M  V30 9510 C 909.258 2.67281 -2.21762 0
M  V30 9511 C 908.212 2.6316 -3.37536 0
M  V30 9512 C 907.538 4.02488 -3.52005 0
M  V30 9513 C 908.838 2.20675 -4.73392 0
M  V30 9514 H 910.532 1.00751 -2.81939 0
M  V30 9515 H 908.078 0.483219 -1.3565 0
M  V30 9516 H 910.031 3.41842 -2.46419 0
M  V30 9517 H 908.755 2.99845 -1.29463 0
M  V30 9518 H 907.414 1.91057 -3.12878 0
M  V30 9519 H 907.062 4.32307 -2.57137 0
M  V30 9520 H 906.762 4.00621 -4.29857 0
M  V30 9521 H 908.286 4.78758 -3.78977 0
M  V30 9522 H 909.7 2.84965 -4.97461 0
M  V30 9523 H 908.097 2.29931 -5.54303 0
M  V30 9524 H 909.167 1.15831 -4.70862 0
M  V30 9525 N 910.51 1.48831 0.518367 0
M  V30 9526 C 911.757 1.57439 1.27355 0
M  V30 9527 C 912.085 0.25338 1.92843 0
M  V30 9528 O 911.34 -0.757323 1.80452 0
M  V30 9529 C 911.639 2.67003 2.3758 0
M  V30 9530 C 911.305 4.09069 1.89667 0
M  V30 9531 C 909.967 4.47733 1.76319 0
M  V30 9532 C 912.319 4.98052 1.53603 0
M  V30 9533 C 909.647 5.73173 1.25258 0
M  V30 9534 C 911.999 6.23992 1.04001 0
M  V30 9535 C 910.663 6.61503 0.892784 0
M  V30 9536 H 909.933 0.57611 0.466023 0
M  V30 9537 H 912.58 1.82595 0.577166 0
M  V30 9538 H 910.885 2.35751 3.12936 0
M  V30 9539 H 912.582 2.70876 2.95681 0
M  V30 9540 H 909.172 3.7854 2.01011 0
M  V30 9541 H 913.356 4.68849 1.62771 0
M  V30 9542 H 908.612 6.0095 1.12557 0
M  V30 9543 H 912.786 6.92331 0.751706 0
M  V30 9544 H 910.413 7.58587 0.494939 0
M  V30 9545 N 911.988 -0.768124 1.37614 0
M  V30 9546 C 913.213 -1.56239 1.36397 0
M  V30 9547 C 913.638 -1.8804 -0.0475839 0
M  V30 9548 O 912.996 -1.495 -1.02564 0
M  V30 9549 C 913.044 -2.84716 2.21289 0
M  V30 9550 O 912.148 -3.79249 1.62001 0
M  V30 9551 H 911.489 -0.473119 0.465891 0
M  V30 9552 H 914.019 -0.950415 1.81186 0
M  V30 9553 H 914.029 -3.33784 2.34632 0
M  V30 9554 H 912.704 -2.60899 3.2389 0
M  V30 9555 H 911.281 -3.37904 1.57719 0
M  V30 9556 N 913.466 -1.22244 -0.994698 0
M  V30 9557 C 914.414 -0.988118 -2.10568 0
M  V30 9558 C 915.408 0.0681541 -1.69263 0
M  V30 9559 O 916.614 -0.0841311 -1.79803 0
M  V30 9560 H 912.989 -0.302343 -0.688544 0
M  V30 9561 H 914.96 -1.93091 -2.27505 0
M  V30 9562 C 913.709 -0.580557 -3.42819 0
M  V30 9563 H 913.032 -1.385 -3.75044 0
M  V30 9564 H 914.472 -0.456004 -4.21541 0
M  V30 9565 C 912.931 0.709692 -3.2934 0
M  V30 9566 O 913.461 1.76259 -3.60965 0
M  V30 9567 N 911.667 0.680155 -2.82528 0
M  V30 9568 H 911.214 -0.176977 -2.56991 0
M  V30 9569 H 911.172 1.54372 -2.73892 0
M  V30 9570 N 914.944 1.19125 -1.03184 0
M  V30 9571 C 916.355 1.70564 -0.759264 0
M  V30 9572 C 916.706 1.8248 0.720794 0
M  V30 9573 O 915.831 1.49804 1.56166 0
M  V30 9574 C 916.426 3.09793 -1.37163 0
M  V30 9575 C 914.985 3.5848 -1.14757 0
M  V30 9576 C 914.132 2.35265 -1.46784 0
M  V30 9577 H 917.083 1.03925 -1.19939 0
M  V30 9578 H 917.104 3.72624 -0.77015 0
M  V30 9579 H 916.616 3.01088 -2.44882 0
M  V30 9580 H 914.717 3.72494 -0.0887182 0
M  V30 9581 H 914.83 4.42426 -1.83836 0
M  V30 9582 H 913.194 2.38747 -0.887254 0
M  V30 9583 H 913.977 2.29188 -2.55593 0
M  V30 9584 N 916.422 0.810101 1.35185 0
M  V30 9585 C 917.352 0.237453 2.32289 0
M  V30 9586 C 918.333 -0.639032 1.5764 0
M  V30 9587 O 919.518 -0.568575 1.8569 0
M  V30 9588 C 916.648 -0.611964 3.41866 0
M  V30 9589 C 915.602 0.166318 4.27677 0
M  V30 9590 C 914.928 -0.805024 5.28605 0
M  V30 9591 C 916.228 1.36729 5.04086 0
M  V30 9592 H 917.922 1.04874 2.80432 0
M  V30 9593 H 915.468 0.505751 1.34826 0
M  V30 9594 H 917.421 -1.02267 4.08802 0
M  V30 9595 H 916.145 -1.45617 2.92341 0
M  V30 9596 H 914.804 0.558238 3.62325 0
M  V30 9597 H 914.452 -1.64483 4.75347 0
M  V30 9598 H 914.152 -0.288577 5.86891 0
M  V30 9599 H 915.676 -1.21386 5.98413 0
M  V30 9600 H 917.09 1.03128 5.63948 0
M  V30 9601 H 915.487 1.81848 5.71884 0
M  V30 9602 H 916.557 2.15214 4.34524 0
M  V30 9603 N 917.9 -1.47166 0.563914 0
M  V30 9604 C 919.177 -1.95586 -0.0236172 0
M  V30 9605 C 919.557 -1.50655 -1.47872 0
M  V30 9606 O 918.905 -0.748479 -2.15894 0
M  V30 9607 C 919.115 -3.48762 0.128841 0
M  V30 9608 C 920.463 -4.24598 -0.0130544 0
M  V30 9609 O 921.487 -3.56155 0.0567242 0
M  V30 9610 O 920.346 -5.46253 -0.164332 0
M  V30 9611 H 917.44 -0.824793 -0.0603789 0
M  V30 9612 H 919.986 -1.57536 0.63091 0
M  V30 9613 H 918.758 -3.74291 1.14113 0
M  V30 9614 H 918.381 -3.93594 -0.56299 0
M  V30 9615 N 919.378 -0.300708 -1.54705 0
M  V30 9616 C 920.288 0.584996 -2.27189 0
M  V30 9617 C 921.304 1.14866 -1.30697 0
M  V30 9618 O 922.48 1.17351 -1.63679 0
M  V30 9619 C 919.545 1.74076 -2.99831 0
M  V30 9620 C 918.606 1.2112 -4.1186 0
M  V30 9621 C 917.839 2.31188 -4.81028 0
M  V30 9622 O 918.062 3.5108 -4.49554 0
M  V30 9623 O 916.996 1.97897 -5.68437 0
M  V30 9624 H 920.822 -0.00298177 -3.037 0
M  V30 9625 H 918.407 -0.0671802 -1.49249 0
M  V30 9626 H 920.289 2.41413 -3.45395 0
M  V30 9627 H 918.964 2.31535 -2.26215 0
M  V30 9628 H 917.871 0.50357 -3.70695 0
M  V30 9629 H 919.204 0.682046 -4.87452 0
M  V30 9630 N 920.856 1.57574 -0.0284266 0
M  V30 9631 C 922.267 1.79585 0.510502 0
M  V30 9632 C 922.618 0.938625 1.72291 0
M  V30 9633 O 921.743 0.14884 2.15888 0
M  V30 9634 C 922.338 3.25703 0.932912 0
M  V30 9635 C 920.897 3.48711 1.41696 0
M  V30 9636 C 920.044 2.74665 0.381356 0
M  V30 9637 H 922.995 1.56647 -0.254464 0
M  V30 9638 H 923.016 3.35376 1.79731 0
M  V30 9639 H 922.528 3.88067 0.0503036 0
M  V30 9640 H 920.629 2.91597 2.31952 0
M  V30 9641 H 920.742 4.57423 1.42481 0
M  V30 9642 H 919.106 2.40123 0.8493 0
M  V30 9643 H 919.889 3.39745 -0.492775 0
M  V30 9644 N 922.334 -0.244713 1.55689 0
M  V30 9645 C 923.58 -0.973886 1.77886 0
M  V30 9646 C 923.913 -1.8489 0.594071 0
M  V30 9647 O 923.188 -1.90182 -0.407564 0
M  V30 9648 C 923.471 -1.83255 3.09983 0
M  V30 9649 C 923.324 -0.985571 4.3887 0
M  V30 9650 C 924.643 -2.81464 3.38329 0
M  V30 9651 H 921.762 -0.352629 0.647165 0
M  V30 9652 H 924.404 -0.244243 1.88424 0
M  V30 9653 H 922.554 -2.45464 3.01131 0
M  V30 9654 H 924.226 -0.382005 4.59716 0
M  V30 9655 H 922.469 -0.29002 4.32829 0
M  V30 9656 H 923.14 -1.62022 5.27686 0
M  V30 9657 H 925.616 -2.2939 3.47159 0
M  V30 9658 H 924.492 -3.38663 4.31971 0
M  V30 9659 H 924.753 -3.58037 2.59349 0
M  V30 9660 N 923.813 -1.49104 -0.510467 0
M  V30 9661 C 925.229 -1.35657 -0.840797 0
M  V30 9662 C 925.429 -0.382425 -1.97838 0
M  V30 9663 O 924.485 0.189331 -2.51789 0
M  V30 9664 C 925.798 -2.76155 -1.18992 0
M  V30 9665 C 927.346 -2.84786 -1.29868 0
M  V30 9666 C 927.821 -4.2603 -1.68115 0
M  V30 9667 N 929.312 -4.28796 -1.75181 0
M  V30 9668 C 930.047 -5.35041 -2.062 0
M  V30 9669 N 929.543 -6.51543 -2.35508 0
M  V30 9670 N 931.336 -5.2245 -2.07371 0
M  V30 9671 H 923.487 -2.11042 0.23982 0
M  V30 9672 H 925.75 -0.946946 0.0446824 0
M  V30 9673 H 925.456 -3.49092 -0.427484 0
M  V30 9674 H 925.33 -3.10922 -2.13558 0
M  V30 9675 H 927.717 -2.12092 -2.05186 0
M  V30 9676 H 927.798 -2.53613 -0.333758 0
M  V30 9677 H 927.442 -4.99247 -0.933512 0
M  V30 9678 H 927.372 -4.5466 -2.65691 0
M  V30 9679 H 929.863 -3.44771 -1.5473 0
M  V30 9680 H 930.176 -7.28342 -2.58337 0
M  V30 9681 H 928.521 -6.54785 -2.32985 0
M  V30 9682 H 931.712 -4.30444 -1.83945 0
M  V30 9683 H 931.885 -6.05347 -2.31212 0
M  V30 9684 N 925.291 0.760815 -1.38019 0
M  V30 9685 C 926.568 1.5098 -1.24356 0
M  V30 9686 C 926.948 2.10507 0.158169 0
M  V30 9687 O 926.296 1.96455 1.16695 0
M  V30 9688 C 926.506 2.58195 -2.34811 0
M  V30 9689 C 927.854 3.25297 -2.72886 0
M  V30 9690 O 928.878 2.68496 -2.34069 0
M  V30 9691 O 927.737 4.28018 -3.39799 0
M  V30 9692 H 924.831 0.66921 -0.485888 0
M  V30 9693 H 927.377 0.796844 -1.49828 0
M  V30 9694 H 926.149 2.12406 -3.28633 0
M  V30 9695 H 925.772 3.37079 -2.10864 0
M  V30 9696 N 926.769 1.22769 0.988202 0
M  V30 9697 C 928.009 1.06673 1.74356 0
M  V30 9698 C 928.373 -0.390737 1.87982 0
M  V30 9699 O 929.574 -0.672677 2.60247 0
M  V30 9700 C 927.845 1.76361 3.10856 0
M  V30 9701 S 929.404 1.75738 4.02071 0
M  V30 9702 H 926.222 0.381917 0.599717 0
M  V30 9703 H 928.824 1.55784 1.18117 0
M  V30 9704 H 927.528 2.81559 2.98584 0
M  V30 9705 H 927.059 1.27501 3.72165 0
M  V30 9706 H 929.074 0.810418 4.89537 0
M  V30 9707 N 928.247 -1.18576 1.03814 0
M  V30 9708 C 929.493 -1.88773 0.741132 0
M  V30 9709 C 929.826 -1.79993 -0.729127 0
M  V30 9710 O 929.101 -1.19851 -1.53186 0
M  V30 9711 C 929.384 -3.39352 1.20468 0
M  V30 9712 C 929.237 -3.56955 2.73684 0
M  V30 9713 C 930.556 -4.32901 0.792741 0
M  V30 9714 H 927.675 -0.685482 0.270708 0
M  V30 9715 H 930.317 -1.39523 1.2897 0
M  V30 9716 H 928.467 -3.81427 0.737974 0
M  V30 9717 H 930.139 -3.2399 3.28372 0
M  V30 9718 H 928.382 -2.99696 3.13632 0
M  V30 9719 H 929.053 -4.62598 3.01176 0
M  V30 9720 H 931.529 -3.98592 1.1943 0
M  V30 9721 H 930.405 -5.36828 1.14486 0
M  V30 9722 H 930.666 -4.41052 -0.304295 0
M  V30 9723 N 929.725 -0.817259 -1.34754 0
M  V30 9724 C 930.655 -0.249769 -2.3216 0
M  V30 9725 C 931.636 0.630663 -1.57977 0
M  V30 9726 O 932.821 0.558719 -1.85989 0
M  V30 9727 C 929.951 0.593825 -3.42186 0
M  V30 9728 C 928.905 -0.188997 -4.27583 0
M  V30 9729 C 928.231 0.776979 -5.29025 0
M  V30 9730 C 929.531 -1.39401 -5.03354 0
M  V30 9731 H 931.225 -1.06359 -2.79872 0
M  V30 9732 H 928.771 -0.512894 -1.34556 0
M  V30 9733 H 930.724 1.00097 -4.09339 0
M  V30 9734 H 929.448 1.44064 -2.93109 0
M  V30 9735 H 928.107 -0.577445 -3.62024 0
M  V30 9736 H 927.755 1.61959 -4.76212 0
M  V30 9737 H 927.455 0.257448 -5.87036 0
M  V30 9738 H 928.979 1.18211 -5.99048 0
M  V30 9739 H 930.393 -1.06117 -5.63393 0
M  V30 9740 H 928.79 -1.84878 -5.70912 0
M  V30 9741 H 929.86 -2.17515 -4.33377 0
M  V30 9742 N 931.203 1.46865 -0.571711 0
M  V30 9743 C 932.136 2.27176 0.215944 0
M  V30 9744 C 933.114 1.34951 0.907035 0
M  V30 9745 O 934.298 1.64349 0.923127 0
M  V30 9746 C 931.425 3.12388 1.30888 0
M  V30 9747 C 930.471 4.20296 0.724804 0
M  V30 9748 S 931.304 5.33691 -0.439839 0
M  V30 9749 C 932.46 6.22468 0.654564 0
M  V30 9750 H 932.693 2.93633 -0.465518 0
M  V30 9751 H 930.226 1.50184 -0.358351 0
M  V30 9752 H 932.184 3.62049 1.93471 0
M  V30 9753 H 930.845 2.45265 1.96224 0
M  V30 9754 H 930.038 4.79703 1.54599 0
M  V30 9755 H 929.64 3.73591 0.174861 0
M  V30 9756 H 931.932 6.59694 1.54304 0
M  V30 9757 H 932.875 7.08033 0.0975111 0
M  V30 9758 H 933.283 5.56384 0.953762 0
M  V30 9759 N 932.681 0.308908 1.54543 0
M  V30 9760 C 933.927 -0.298478 2.00592 0
M  V30 9761 C 934.26 -1.52929 1.19692 0
M  V30 9762 O 933.535 -1.9254 0.27542 0
M  V30 9763 C 933.818 -0.647218 3.54236 0
M  V30 9764 C 933.671 0.593284 4.4587 0
M  V30 9765 C 934.99 -1.47064 4.14801 0
M  V30 9766 H 932.109 -0.107012 0.72919 0
M  V30 9767 H 934.751 0.422578 1.85241 0
M  V30 9768 H 932.901 -1.26153 3.67447 0
M  V30 9769 H 934.573 1.2317 4.44552 0
M  V30 9770 H 932.816 1.22501 4.16144 0
M  V30 9771 H 933.487 0.305018 5.51157 0
M  V30 9772 H 935.963 -0.951511 4.05075 0
M  V30 9773 H 934.839 -1.68343 5.22448 0
M  V30 9774 H 935.1 -2.4623 3.67183 0
M  V30 9775 N 934.159 -1.57557 0.0367827 0
M  V30 9776 C 935.069 -2.14148 -0.958017 0
M  V30 9777 C 936.085 -1.09564 -1.35173 0
M  V30 9778 O 937.261 -1.4166 -1.43158 0
M  V30 9779 C 934.326 -2.6636 -2.21931 0
M  V30 9780 C 933.387 -3.85688 -1.8853 0
M  V30 9781 C 932.62 -4.35401 -3.08645 0
M  V30 9782 O 932.843 -3.8425 -4.21554 0
M  V30 9783 O 931.777 -5.27158 -2.90497 0
M  V30 9784 H 935.603 -2.99442 -0.506797 0
M  V30 9785 H 933.188 -1.48259 -0.184275 0
M  V30 9786 H 935.07 -2.99976 -2.9596 0
M  V30 9787 H 933.745 -1.84145 -2.66219 0
M  V30 9788 H 932.652 -3.56985 -1.11861 0
M  V30 9789 H 933.985 -4.69089 -1.49052 0
M  V30 9790 N 935.637 0.236453 -1.55816 0
M  V30 9791 C 936.885 0.96111 -1.77784 0
M  V30 9792 C 937.206 1.85454 -0.602648 0
M  V30 9793 O 936.476 1.92157 0.381137 0
M  V30 9794 H 935.056 0.35787 -0.655697 0
M  V30 9795 H 937.718 0.251888 -1.93265 0
M  V30 9796 H 936.814 1.5767 -2.69345 0
M  V30 9797 N 937.115 1.49373 0.502552 0
M  V30 9798 C 938.34 1.62752 1.28556 0
M  V30 9799 C 938.765 0.298285 1.8572 0
M  V30 9800 O 938.123 -0.733885 1.65782 0
M  V30 9801 C 938.171 2.69778 2.39274 0
M  V30 9802 O 937.275 2.28843 3.43081 0
M  V30 9803 H 936.616 0.544799 0.379592 0
M  V30 9804 H 939.146 1.9555 0.601792 0
M  V30 9805 H 939.156 2.91899 2.8506 0
M  V30 9806 H 937.831 3.66266 1.97033 0
M  V30 9807 H 936.408 2.17047 3.03224 0
M  V30 9808 N 938.594 -0.753485 1.38421 0
M  V30 9809 C 939.842 -1.50962 1.34368 0
M  V30 9810 C 940.163 -1.94889 -0.0656895 0
M  V30 9811 O 939.433 -1.67652 -1.01339 0
M  V30 9812 H 938.013 -0.559967 0.494415 0
M  V30 9813 H 940.675 -0.895665 1.73101 0
M  V30 9814 H 939.771 -2.40048 1.99458 0
M  V30 9815 N 940.072 -1.23292 -0.981677 0
M  V30 9816 C 941.002 -1.03738 -2.09191 0
M  V30 9817 C 941.983 0.0453041 -1.7004 0
M  V30 9818 O 943.168 -0.119092 -1.93834 0
M  V30 9819 C 940.298 -0.626426 -3.41604 0
M  V30 9820 C 939.252 -1.65631 -3.94652 0
M  V30 9821 C 938.578 -1.10084 -5.23245 0
M  V30 9822 C 939.878 -3.04903 -4.24066 0
M  V30 9823 H 941.572 -1.966 -2.25807 0
M  V30 9824 H 939.118 -0.946656 -1.0851 0
M  V30 9825 H 941.071 -0.476689 -4.18695 0
M  V30 9826 H 939.795 0.337873 -3.24848 0
M  V30 9827 H 938.454 -1.79402 -3.19704 0
M  V30 9828 H 938.102 -0.127562 -5.02838 0
M  V30 9829 H 937.802 -1.78896 -5.59705 0
M  V30 9830 H 939.326 -0.962928 -6.02959 0
M  V30 9831 H 940.74 -2.94441 -4.91912 0
M  V30 9832 H 939.137 -3.70941 -4.71724 0
M  V30 9833 H 940.207 -3.53991 -3.31389 0
M  V30 9834 N 941.55 1.18024 -1.04442 0
M  V30 9835 C 942.48 2.23988 -0.659683 0
M  V30 9836 C 943.461 1.6669 0.338904 0
M  V30 9837 O 944.646 1.92971 0.21817 0
M  V30 9838 C 941.776 3.4729 -0.0257672 0
M  V30 9839 C 940.73 4.17362 -0.948299 0
M  V30 9840 C 940.056 5.34401 -0.17866 0
M  V30 9841 C 941.356 4.70435 -2.26909 0
M  V30 9842 H 943.05 2.56425 -1.54553 0
M  V30 9843 H 940.596 1.23256 -0.744575 0
M  V30 9844 H 942.549 4.20627 0.255131 0
M  V30 9845 H 941.273 3.14098 0.894981 0
M  V30 9846 H 939.932 3.45928 -1.21364 0
M  V30 9847 H 939.58 4.97458 0.744614 0
M  V30 9848 H 939.28 5.8222 -0.793294 0
M  V30 9849 H 940.804 6.10526 0.0951315 0
M  V30 9850 H 942.218 5.35447 -2.04864 0
M  V30 9851 H 940.615 5.28803 -2.83703 0
M  V30 9852 H 941.685 3.87653 -2.91296 0
M  V30 9853 N 943.028 0.824394 1.34319 0
M  V30 9854 C 943.958 0.262077 2.32025 0
M  V30 9855 C 944.939 -0.622277 1.58309 0
M  V30 9856 O 946.124 -0.548848 1.86283 0
M  V30 9857 C 943.254 -0.57567 3.42496 0
M  V30 9858 C 942.208 0.21167 4.27476 0
M  V30 9859 C 941.534 -0.748913 5.29429 0
M  V30 9860 C 942.834 1.42068 5.02607 0
M  V30 9861 H 944.528 1.07842 2.79304 0
M  V30 9862 H 942.074 0.520022 1.34282 0
M  V30 9863 H 944.027 -0.979251 4.09864 0
M  V30 9864 H 942.751 -1.42508 2.93869 0
M  V30 9865 H 941.41 0.596636 3.61712 0
M  V30 9866 H 941.058 -1.59432 4.77064 0
M  V30 9867 H 940.758 -0.226313 5.87164 0
M  V30 9868 H 942.282 -1.15032 5.99667 0
M  V30 9869 H 943.696 1.09103 5.62823 0
M  V30 9870 H 942.093 1.87903 5.69923 0
M  V30 9871 H 943.163 2.1981 4.32217 0
M  V30 9872 N 944.506 -1.46559 0.579492 0
M  V30 9873 C 945.754 -2.02 0.0637157 0
M  V30 9874 C 946.075 -1.45378 -1.29962 0
M  V30 9875 O 945.345 -0.637262 -1.85245 0
M  V30 9876 H 943.925 -0.746717 0.0205638 0
M  V30 9877 H 946.587 -1.79702 0.754544 0
M  V30 9878 H 945.683 -3.12099 -0.00770254 0
M  V30 9879 N 945.984 -0.3171 -1.54377 0
M  V30 9880 C 946.932 0.567371 -2.25574 0
M  V30 9881 C 947.926 1.12387 -1.2675 0
M  V30 9882 O 949.132 1.07266 -1.44548 0
M  V30 9883 H 945.507 0.201605 -0.724472 0
M  V30 9884 H 947.478 -0.0554644 -2.98348 0
M  V30 9885 C 946.227 1.71984 -3.02187 0
M  V30 9886 H 945.55 1.30086 -3.78044 0
M  V30 9887 H 946.99 2.31443 -3.5526 0
M  V30 9888 C 945.449 2.6336 -2.10103 0
M  V30 9889 O 945.979 3.64899 -1.67962 0
M  V30 9890 N 944.185 2.3145 -1.75725 0
M  V30 9891 H 943.732 1.48921 -2.10191 0
M  V30 9892 H 943.69 2.92852 -1.14391 0
M  V30 9893 N 947.462 1.57535 -0.0451378 0
M  V30 9894 C 948.392 2.14208 0.929372 0
M  V30 9895 C 949.373 1.06221 1.32858 0
M  V30 9896 O 950.558 1.34132 1.40436 0
M  V30 9897 C 947.688 2.68217 2.20629 0
M  V30 9898 C 946.642 3.81134 1.94734 0
M  V30 9899 C 945.968 4.21636 3.28828 0
M  V30 9900 C 947.268 5.06531 1.27374 0
M  V30 9901 H 948.962 2.95886 0.457348 0
M  V30 9902 H 946.508 1.42332 0.218544 0
M  V30 9903 H 948.461 3.06502 2.89196 0
M  V30 9904 H 947.185 1.83722 2.70026 0
M  V30 9905 H 945.844 3.43312 1.28579 0
M  V30 9906 H 945.492 3.34099 3.76014 0
M  V30 9907 H 945.192 4.97736 3.12302 0
M  V30 9908 H 946.716 4.62516 3.98637 0
M  V30 9909 H 948.13 5.423 1.85967 0
M  V30 9910 H 946.527 5.87735 1.21194 0
M  V30 9911 H 947.597 4.84261 0.248913 0
M  V30 9912 N 948.94 -0.228186 1.55939 0
M  V30 9913 C 949.887 -1.28274 1.91871 0
M  V30 9914 C 950.857 -1.46906 0.775103 0
M  V30 9915 O 952.042 -1.60583 1.03042 0
M  V30 9916 C 949.182 -2.62945 2.23504 0
M  V30 9917 C 948.295 -2.52166 3.50766 0
M  V30 9918 C 947.43 -3.79316 3.71878 0
M  V30 9919 C 946.469 -3.63231 4.92676 0
M  V30 9920 N 945.606 -4.82315 5.10212 0
M  V30 9921 H 950.446 -0.96931 2.81795 0
M  V30 9922 H 947.983 -0.467331 1.39479 0
M  V30 9923 H 949.941 -3.41359 2.39854 0
M  V30 9924 H 948.571 -2.92397 1.36762 0
M  V30 9925 H 947.623 -1.65221 3.42646 0
M  V30 9926 H 948.935 -2.36199 4.39331 0
M  V30 9927 H 948.089 -4.66173 3.88288 0
M  V30 9928 H 946.828 -3.982 2.81581 0
M  V30 9929 H 945.833 -2.74757 4.76223 0
M  V30 9930 H 947.058 -3.45823 5.84451 0
M  V30 9931 H 945.004 -5.01526 4.22856 0
M  V30 9932 H 944.921 -4.6905 5.92898 0
M  V30 9933 H 946.189 -5.70618 5.31051 0
M  V30 9934 N 950.418 -1.49637 -0.494624 0
M  V30 9935 C 951.667 -1.58691 -1.24499 0
M  V30 9936 C 951.98 -0.281763 -1.9356 0
M  V30 9937 O 953.186 -0.250925 -2.70338 0
M  V30 9938 C 951.642 -2.8002 -2.26091 0
M  V30 9939 C 951.25 -4.17318 -1.6294 0
M  V30 9940 C 952.994 -2.98407 -3.01916 0
M  V30 9941 C 950.901 -5.29862 -2.62679 0
M  V30 9942 H 949.831 -0.590888 -0.468367 0
M  V30 9943 H 952.482 -1.76034 -0.518112 0
M  V30 9944 H 950.864 -2.56185 -3.01969 0
M  V30 9945 H 952.038 -4.51315 -0.930108 0
M  V30 9946 H 950.353 -4.04342 -0.994819 0
M  V30 9947 H 952.95 -3.79658 -3.76516 0
M  V30 9948 H 953.293 -2.09214 -3.5991 0
M  V30 9949 H 953.826 -3.22312 -2.33152 0
M  V30 9950 H 950.565 -6.21134 -2.09458 0
M  V30 9951 H 950.085 -5.00311 -3.3083 0
M  V30 9952 H 951.764 -5.59461 -3.2498 0
M  V30 9953 N 951.896 0.746133 -1.38819 0
M  V30 9954 C 953.173 1.49652 -1.25951 0
M  V30 9955 C 953.553 2.10663 0.135833 0
M  V30 9956 O 952.901 1.97682 1.14604 0
M  V30 9957 C 953.111 2.5569 -2.37537 0
M  V30 9958 C 954.459 3.22385 -2.76321 0
M  V30 9959 O 955.483 2.65998 -2.36904 0
M  V30 9960 O 954.342 4.2439 -3.44319 0
M  V30 9961 H 951.436 0.664019 -0.492958 0
M  V30 9962 H 953.982 0.780908 -1.50665 0
M  V30 9963 H 952.754 2.08908 -3.30867 0
M  V30 9964 H 952.377 3.34823 -2.14427 0
M  V30 9965 N 953.375 1.23811 0.975125 0
M  V30 9966 C 954.621 1.07495 1.71967 0
M  V30 9967 C 954.954 -0.386451 1.90316 0
M  V30 9968 O 954.229 -1.28591 1.45927 0
M  V30 9969 C 954.512 1.80694 3.11483 0
M  V30 9970 C 954.365 3.3454 3.00671 0
M  V30 9971 C 955.684 1.57367 4.11003 0
M  V30 9972 H 952.803 0.3919 0.624166 0
M  V30 9973 H 955.445 1.52383 1.13487 0
M  V30 9974 H 953.595 1.42538 3.61407 0
M  V30 9975 H 955.267 3.8225 2.5823 0
M  V30 9976 H 953.51 3.63301 2.37054 0
M  V30 9977 H 954.181 3.80951 3.99475 0
M  V30 9978 H 956.657 1.90545 3.69908 0
M  V30 9979 H 955.533 2.11052 5.06703 0
M  V30 9980 H 955.794 0.510221 4.39146 0
M  V30 9981 N 954.853 -1.17469 1.05066 0
M  V30 9982 C 956.264 -1.69334 0.786304 0
M  V30 9983 C 956.615 -1.83604 -0.691671 0
M  V30 9984 O 955.74 -1.52269 -1.53763 0
M  V30 9985 C 956.335 -3.07572 1.42074 0
M  V30 9986 C 954.894 -3.56609 1.20446 0
M  V30 9987 C 954.041 -2.329 1.50508 0
M  V30 9988 H 956.992 -1.02003 1.21577 0
M  V30 9989 H 957.013 -3.71352 0.829334 0
M  V30 9990 H 956.525 -2.97154 2.49642 0
M  V30 9991 H 954.626 -3.72306 0.147968 0
M  V30 9992 H 954.739 -4.39446 1.90852 0
M  V30 9993 H 953.103 -2.37305 0.925124 0
M  V30 9994 H 953.886 -2.25093 2.59207 0
M  V30 9995 N 956.331 -0.831506 -1.3388 0
M  V30 9996 C 957.559 -0.436925 -2.02234 0
M  V30 9997 C 957.974 0.959689 -1.6259 0
M  V30 9998 O 957.331 1.62248 -0.835576 0
M  V30 9999 C 957.382 -0.539429 -3.57453 0
M  V30 10000 O 957.103 -1.88101 -3.95664 0
M  V30 10001 C 958.604 -0.140852 -4.43076 0
M  V30 10002 H 955.824 -0.174302 -0.647966 0
M  V30 10003 H 958.368 -1.12204 -1.70969 0
M  V30 10004 H 956.523 0.0976959 -3.87277 0
M  V30 10005 H 956.937 -1.86131 -4.90363 0
M  V30 10006 H 958.411 -0.26364 -5.5137 0
M  V30 10007 H 958.888 0.916505 -4.29531 0
M  V30 10008 H 959.494 -0.752117 -4.18597 0
M  V30 10009 N 957.809 1.4625 -0.587256 0
M  V30 10010 C 958.739 2.33132 0.131076 0
M  V30 10011 C 959.72 1.45619 0.879158 0
M  V30 10012 O 960.905 1.74428 0.853723 0
M  V30 10013 C 958.035 3.27975 1.14236 0
M  V30 10014 C 956.989 4.24965 0.508819 0
M  V30 10015 C 956.315 5.09349 1.62689 0
M  V30 10016 C 957.615 5.19322 -0.55694 0
M  V30 10017 H 959.309 2.93442 -0.594333 0
M  V30 10018 H 956.855 1.41106 -0.287263 0
M  V30 10019 H 958.808 3.87614 1.65328 0
M  V30 10020 H 957.532 2.65781 1.8981 0
M  V30 10021 H 956.191 3.66595 0.0189337 0
M  V30 10022 H 955.839 4.43537 2.37242 0
M  V30 10023 H 955.539 5.75036 1.20861 0
M  V30 10024 H 957.063 5.71852 2.14049 0
M  V30 10025 H 958.477 5.73151 -0.130903 0
M  V30 10026 H 956.874 5.93376 -0.895801 0
M  V30 10027 H 957.944 4.62979 -1.44148 0
M  V30 10028 N 959.287 0.325282 1.54207 0
M  V30 10029 C 960.535 -0.276229 2.00203 0
M  V30 10030 C 960.856 -1.52519 1.21503 0
M  V30 10031 O 960.126 -1.93313 0.317302 0
M  V30 10032 H 958.706 -0.105059 0.739575 0
M  V30 10033 H 961.368 0.442225 1.89817 0
M  V30 10034 H 960.464 -0.531427 3.07542 0
M  V30 10035 N 960.765 -1.57509 0.0534917 0
M  V30 10036 C 962.176 -1.80374 -0.481867 0
M  V30 10037 C 962.527 -0.965917 -1.70776 0
M  V30 10038 O 961.652 -0.183167 -2.15623 0
M  V30 10039 C 962.247 -3.27146 -0.880978 0
M  V30 10040 C 960.806 -3.50921 -1.3613 0
M  V30 10041 C 959.953 -2.75237 -0.337611 0
M  V30 10042 H 962.904 -1.56222 0.279353 0
M  V30 10043 H 962.925 -3.38193 -1.74373 0
M  V30 10044 H 962.437 -3.88098 0.011441 0
M  V30 10045 H 960.538 -2.95251 -2.27283 0
M  V30 10046 H 960.651 -4.59632 -1.35186 0
M  V30 10047 H 959.015 -2.41444 -0.810991 0
M  V30 10048 H 959.798 -3.38918 0.546763 0
M  V30 10049 N 962.243 0.219913 -1.56058 0
M  V30 10050 C 963.19 1.27254 -1.92549 0
M  V30 10051 C 964.16 1.46493 -0.782883 0
M  V30 10052 O 965.345 1.60035 -1.03892 0
M  V30 10053 C 962.485 2.61756 -2.24896 0
M  V30 10054 C 961.598 2.50302 -3.52098 0
M  V30 10055 C 960.733 3.77338 -3.73884 0
M  V30 10056 C 959.772 3.60613 -4.94595 0
M  V30 10057 N 958.909 4.79603 -5.12763 0
M  V30 10058 H 963.749 0.954352 -2.82305 0
M  V30 10059 H 961.286 0.459928 -1.39725 0
M  V30 10060 H 963.244 3.40082 -2.4166 0
M  V30 10061 H 961.874 2.91668 -1.38311 0
M  V30 10062 H 960.926 1.63401 -3.43517 0
M  V30 10063 H 962.238 2.33866 -4.40577 0
M  V30 10064 H 961.392 4.64108 -3.90754 0
M  V30 10065 H 960.131 3.96702 -2.83689 0
M  V30 10066 H 959.136 2.72228 -4.77674 0
M  V30 10067 H 960.361 3.42719 -5.86277 0
M  V30 10068 H 958.307 4.99277 -4.2551 0
M  V30 10069 H 958.224 4.65899 -5.95377 0
M  V30 10070 H 959.492 5.67794 -5.34069 0
M  V30 10071 N 963.721 1.49897 0.486681 0
M  V30 10072 C 964.631 1.70379 1.6127 0
M  V30 10073 C 965.647 0.58659 1.63814 0
M  V30 10074 O 966.823 0.863044 1.81971 0
M  V30 10075 C 963.888 1.77911 2.97571 0
M  V30 10076 C 962.949 3.01569 3.0554 0
M  V30 10077 C 962.182 3.08732 4.35339 0
M  V30 10078 O 962.405 2.23099 5.2496 0
M  V30 10079 O 961.339 4.01325 4.48578 0
M  V30 10080 H 965.165 2.65799 1.46916 0
M  V30 10081 H 962.75 1.33808 0.664516 0
M  V30 10082 H 964.632 1.85135 3.78554 0
M  V30 10083 H 963.307 0.856722 3.12157 0
M  V30 10084 H 962.214 2.99854 2.23693 0
M  V30 10085 H 963.547 3.93335 2.95886 0
M  V30 10086 N 965.199 -0.738761 1.39212 0
M  V30 10087 C 966.447 -1.49529 1.35962 0
M  V30 10088 C 966.768 -1.94948 -0.0450152 0
M  V30 10089 O 966.038 -1.68717 -0.995552 0
M  V30 10090 H 964.618 -0.554692 0.500326 0
M  V30 10091 H 967.28 -0.877255 1.74041 0
M  V30 10092 H 966.376 -2.37919 2.01993 0
M  V30 10093 N 966.677 -1.24326 -0.968545 0
M  V30 10094 C 967.902 -1.1104 -1.75171 0
M  V30 10095 C 968.327 0.333109 -1.85127 0
M  V30 10096 O 967.685 1.24115 -1.32156 0
M  V30 10097 C 967.733 -1.75397 -3.15068 0
M  V30 10098 O 966.837 -1.02417 -3.9948 0
M  V30 10099 H 966.178 -0.388488 -0.538491 0
M  V30 10100 H 968.708 -1.64617 -1.215 0
M  V30 10101 H 968.718 -1.8112 -3.65595 0
M  V30 10102 H 967.393 -2.80427 -3.07138 0
M  V30 10103 H 965.97 -1.04475 -3.57966 0
M  V30 10104 N 968.156 1.1691 -1.05688 0
M  V30 10105 C 969.572 1.39288 -0.779167 0
M  V30 10106 C 969.772 1.91587 0.624231 0
M  V30 10107 O 968.828 2.11072 1.38582 0
M  V30 10108 C 970.141 2.37914 -1.83895 0
M  V30 10109 C 971.689 2.51611 -1.86175 0
M  V30 10110 C 972.164 3.53514 -2.9119 0
M  V30 10111 N 973.655 3.61036 -2.90184 0
M  V30 10112 C 974.39 4.39657 -3.68088 0
M  V30 10113 N 973.886 5.21752 -4.55793 0
M  V30 10114 N 975.679 4.3458 -3.56507 0
M  V30 10115 H 967.83 0.81296 -1.96226 0
M  V30 10116 H 970.093 0.419818 -0.849975 0
M  V30 10117 H 969.799 2.06568 -2.84645 0
M  V30 10118 H 969.673 3.37483 -1.68479 0
M  V30 10119 H 972.06 2.82264 -0.86087 0
M  V30 10120 H 972.141 1.52099 -2.05668 0
M  V30 10121 H 971.785 3.23599 -3.91467 0
M  V30 10122 H 971.715 4.52742 -2.68947 0
M  V30 10123 H 974.206 3.02428 -2.26596 0
M  V30 10124 H 974.519 5.78939 -5.11907 0
M  V30 10125 H 972.864 5.21116 -4.59851 0
M  V30 10126 H 976.055 3.69501 -2.87379 0
M  V30 10127 H 976.228 4.95607 -4.17466 0
M  V30 10128 N 969.634 0.838594 1.33437 0
M  V30 10129 C 970.88 0.434813 1.98084 0
M  V30 10130 C 971.213 -1.00331 1.66275 0
M  V30 10131 O 970.488 -1.70139 0.942501 0
M  V30 10132 C 970.771 0.655602 3.54082 0
M  V30 10133 C 970.624 2.14097 3.95578 0
M  V30 10134 C 971.943 0.101576 4.39983 0
M  V30 10135 H 969.062 0.159456 0.719544 0
M  V30 10136 H 971.704 1.05406 1.58081 0
M  V30 10137 H 969.854 0.128501 3.88287 0
M  V30 10138 H 971.526 2.73292 3.71631 0
M  V30 10139 H 969.769 2.62558 3.4532 0
M  V30 10140 H 970.44 2.24621 5.04231 0
M  V30 10141 H 972.916 0.552122 4.12421 0
M  V30 10142 H 971.792 0.28575 5.48156 0
M  V30 10143 H 972.053 -0.994616 4.30767 0
M  V30 10144 N 971.112 -1.45937 0.595003 0
M  V30 10145 C 972.528 -1.57507 0.257641 0
M  V30 10146 C 972.728 -1.58829 -1.23998 0
M  V30 10147 O 971.784 -1.51183 -2.02237 0
M  V30 10148 C 973.097 -2.86354 0.917708 0
M  V30 10149 C 974.645 -3.00007 0.892446 0
M  V30 10150 C 975.12 -4.31607 1.53229 0
M  V30 10151 N 976.611 -4.38336 1.49719 0
M  V30 10152 C 977.346 -5.38805 1.96154 0
M  V30 10153 N 976.842 -6.45882 2.50617 0
M  V30 10154 N 978.635 -5.30084 1.86997 0
M  V30 10155 H 970.786 -1.43322 1.56756 0
M  V30 10156 H 973.049 -0.684436 0.655936 0
M  V30 10157 H 972.755 -2.91233 1.97171 0
M  V30 10158 H 972.629 -3.74703 0.433344 0
M  V30 10159 H 975.016 -2.94703 -0.152975 0
M  V30 10160 H 975.097 -2.13103 1.41495 0
M  V30 10161 H 974.741 -4.3767 2.57697 0
M  V30 10162 H 974.671 -5.17308 0.984903 0
M  V30 10163 H 977.162 -3.6156 1.09921 0
M  V30 10164 H 977.475 -7.18774 2.83874 0
M  V30 10165 H 975.82 -6.46668 2.54649 0
M  V30 10166 H 979.011 -4.45337 1.44196 0
M  V30 10167 H 979.184 -6.08237 2.23499 0
M  V30 10168 N 972.59 -0.333456 -1.54032 0
M  V30 10169 C 973.837 0.266133 -2.00744 0
M  V30 10170 C 974.165 1.51361 -1.22148 0
M  V30 10171 O 973.42 1.93473 -0.294368 0
M  V30 10172 C 973.719 0.63565 -3.51702 0
M  V30 10173 C 973.385 -0.513786 -4.47963 0
M  V30 10174 C 972.047 -0.829253 -4.74001 0
M  V30 10175 C 974.399 -1.2854 -5.05101 0
M  V30 10176 C 971.727 -1.91888 -5.54433 0
M  V30 10177 C 974.079 -2.3652 -5.86721 0
M  V30 10178 C 972.743 -2.68637 -6.11057 0
M  V30 10179 H 972.013 0.097385 -0.734573 0
M  V30 10180 H 974.66 -0.459282 -1.85911 0
M  V30 10181 H 972.965 1.44163 -3.64313 0
M  V30 10182 H 974.662 1.11129 -3.85294 0
M  V30 10183 H 971.252 -0.25784 -4.27824 0
M  V30 10184 H 975.436 -1.05494 -4.84958 0
M  V30 10185 H 970.692 -2.17208 -5.71516 0
M  V30 10186 H 974.866 -2.96747 -6.30011 0
M  V30 10187 H 972.493 -3.53197 -6.73169 0
M  V30 10188 N 974.068 1.57479 -0.061844 0
M  V30 10189 C 975.345 1.84484 0.649993 0
M  V30 10190 C 975.725 0.952366 1.88396 0
M  V30 10191 O 975.073 0.0161035 2.28494 0
M  V30 10192 C 975.283 3.34452 0.997133 0
M  V30 10193 C 976.631 4.01724 1.37488 0
M  V30 10194 O 977.655 3.3914 1.08916 0
M  V30 10195 O 976.514 5.12091 1.90854 0
M  V30 10196 H 973.608 0.761798 0.321858 0
M  V30 10197 H 976.154 1.6945 -0.0920192 0
M  V30 10198 H 974.926 3.91115 0.120301 0
M  V30 10199 H 974.549 3.54713 1.79624 0
M  V30 10200 N 975.546 -0.211634 1.56173 0
M  V30 10201 C 976.795 -0.932647 1.78842 0
M  V30 10202 C 977.108 -1.85103 0.63217 0
M  V30 10203 O 978.314 -2.61143 0.742746 0
M  V30 10204 C 976.77 -1.70866 3.16753 0
M  V30 10205 C 976.378 -0.835934 4.40132 0
M  V30 10206 C 978.122 -2.4203 3.48743 0
M  V30 10207 C 976.029 -1.60987 5.69067 0
M  V30 10208 H 974.959 -0.351983 0.666801 0
M  V30 10209 H 977.61 -0.186284 1.82552 0
M  V30 10210 H 975.992 -2.4983 3.07247 0
M  V30 10211 H 977.166 -0.0861298 4.60719 0
M  V30 10212 H 975.481 -0.235941 4.15731 0
M  V30 10213 H 978.078 -3.00453 4.42303 0
M  V30 10214 H 978.421 -3.15406 2.71707 0
M  V30 10215 H 978.954 -1.70048 3.59623 0
M  V30 10216 H 975.693 -0.9192 6.49023 0
M  V30 10217 H 975.213 -2.33403 5.52524 0
M  V30 10218 H 976.892 -2.16798 6.09596 0
M  V30 10219 N 977.024 -1.50153 -0.478725 0
M  V30 10220 C 977.954 -1.71384 -1.58587 0
M  V30 10221 C 978.935 -0.562705 -1.60523 0
M  V30 10222 O 980.12 -0.80101 -1.76911 0
M  V30 10223 C 977.25 -1.80094 -2.96957 0
M  V30 10224 C 976.204 -2.95218 -3.09888 0
M  V30 10225 C 975.53 -2.89063 -4.49829 0
M  V30 10226 C 976.83 -4.35841 -2.8782 0
M  V30 10227 H 978.524 -2.64081 -1.41073 0
M  V30 10228 H 976.07 -1.27081 -0.677239 0
M  V30 10229 H 978.023 -1.93531 -3.74331 0
M  V30 10230 H 976.747 -0.840131 -3.1561 0
M  V30 10231 H 975.406 -2.81419 -2.34944 0
M  V30 10232 H 975.054 -1.90844 -4.6539 0
M  V30 10233 H 974.754 -3.66345 -4.59418 0
M  V30 10234 H 976.278 -3.04539 -5.29234 0
M  V30 10235 H 977.692 -4.50205 -3.54948 0
M  V30 10236 H 976.089 -5.14515 -3.0886 0
M  V30 10237 H 977.159 -4.48739 -1.83742 0
M  V30 10238 N 978.502 0.731368 -1.39602 0
M  V30 10239 C 979.913 1.30981 -1.33045 0
M  V30 10240 C 980.264 1.962 0.00349918 0
M  V30 10241 O 979.389 1.96539 0.905615 0
M  V30 10242 C 979.984 2.3817 -2.40958 0
M  V30 10243 C 978.543 2.91678 -2.3791 0
M  V30 10244 C 977.69 1.65286 -2.22656 0
M  V30 10245 H 980.641 0.528615 -1.49637 0
M  V30 10246 H 980.662 3.18645 -2.07955 0
M  V30 10247 H 980.174 1.90673 -3.38032 0
M  V30 10248 H 978.275 3.43446 -1.44485 0
M  V30 10249 H 978.388 3.44545 -3.32904 0
M  V30 10250 H 976.752 1.89759 -1.69893 0
M  V30 10251 H 977.535 1.19836 -3.21705 0
M  V30 10252 N 979.98 1.24838 0.961938 0
M  V30 10253 C 981.205 1.11967 1.7458 0
M  V30 10254 C 981.63 -0.323287 1.85301 0
M  V30 10255 O 980.988 -1.23412 1.32812 0
M  V30 10256 C 981.036 1.77066 3.14134 0
M  V30 10257 O 980.14 1.04534 3.98932 0
M  V30 10258 H 979.481 0.391338 0.536424 0
M  V30 10259 H 982.011 1.65259 1.20626 0
M  V30 10260 H 982.021 1.83056 3.64629 0
M  V30 10261 H 980.696 2.82052 3.05646 0
M  V30 10262 H 979.273 1.06372 3.57407 0
M  V30 10263 N 981.458 -1.16348 1.06306 0
M  V30 10264 C 982.874 -1.38873 0.786543 0
M  V30 10265 C 983.074 -1.91915 -0.614061 0
M  V30 10266 O 982.13 -2.11804 -1.3746 0
M  V30 10267 C 983.443 -2.36936 1.85154 0
M  V30 10268 C 984.991 -2.5062 1.87506 0
M  V30 10269 C 985.466 -3.51965 2.9306 0
M  V30 10270 N 986.957 -3.59492 2.92095 0
M  V30 10271 C 987.692 -4.37699 3.70415 0
M  V30 10272 N 987.188 -5.19327 4.58553 0
M  V30 10273 N 988.981 -4.32683 3.58806 0
M  V30 10274 H 981.132 -0.802542 1.96655 0
M  V30 10275 H 983.395 -0.415304 0.852189 0
M  V30 10276 H 983.101 -2.05056 2.85736 0
M  V30 10277 H 982.975 -3.36585 1.70267 0
M  V30 10278 H 985.362 -2.81804 0.875827 0
M  V30 10279 H 985.443 -1.51006 2.06472 0
M  V30 10280 H 985.087 -3.21518 3.93177 0
M  V30 10281 H 985.017 -4.51309 2.71344 0
M  V30 10282 H 987.508 -3.01222 2.28197 0
M  V30 10283 H 987.821 -5.76216 5.1497 0
M  V30 10284 H 986.166 -5.1867 4.62608 0
M  V30 10285 H 989.357 -3.67971 2.89335 0
M  V30 10286 H 989.53 -4.93386 4.20088 0
M  V30 10287 N 982.937 -0.845659 -1.3299 0
M  V30 10288 C 984.162 -0.457435 -2.02293 0
M  V30 10289 C 984.587 0.935634 -1.63179 0
M  V30 10290 O 983.945 1.61297 -0.827835 0
M  V30 10291 C 983.993 -0.593665 -3.5568 0
M  V30 10292 O 983.097 0.37729 -4.10671 0
M  V30 10293 H 982.438 -0.185022 -0.637701 0
M  V30 10294 H 984.968 -1.14237 -1.69738 0
M  V30 10295 H 984.978 -0.477834 -4.05192 0
M  V30 10296 H 983.653 -1.60957 -3.83491 0
M  V30 10297 H 982.23 0.218448 -3.7226 0
M  V30 10298 N 984.415 1.45619 -0.602734 0
M  V30 10299 C 985.663 2.01873 -0.095844 0
M  V30 10300 C 985.984 1.47427 1.27633 0
M  V30 10301 O 985.254 0.666652 1.84208 0
M  V30 10302 H 983.834 0.746295 -0.0324408 0
M  V30 10303 H 986.496 1.78478 -0.783037 0
M  V30 10304 H 985.592 3.12072 -0.0419507 0
M  V30 10305 N 985.893 0.34162 1.53853 0
M  V30 10306 C 987.121 -0.256929 2.05299 0
M  V30 10307 C 987.536 -1.44366 1.21671 0
M  V30 10308 O 986.893 -1.80758 0.251584 0
M  V30 10309 C 986.944 -0.673854 3.55164 0
M  V30 10310 O 986.665 0.465687 4.35618 0
M  V30 10311 C 988.166 -1.33332 4.22773 0
M  V30 10312 H 985.386 -0.0499445 0.669139 0
M  V30 10313 H 987.93 0.493048 1.98467 0
M  V30 10314 H 986.085 -1.37378 3.62224 0
M  V30 10315 H 986.499 0.133723 5.2433 0
M  V30 10316 H 987.973 -1.57582 5.29029 0
M  V30 10317 H 988.45 -2.28628 3.75001 0
M  V30 10318 H 989.056 -0.675489 4.19901 0
M  V30 10319 N 987.371 -1.57444 0.0701946 0
M  V30 10320 C 988.318 -2.12631 -0.897599 0
M  V30 10321 C 989.288 -1.03841 -1.29639 0
M  V30 10322 O 990.473 -1.31495 -1.38253 0
M  V30 10323 C 987.613 -2.6911 -2.16041 0
M  V30 10324 C 986.726 -3.9205 -1.8144 0
M  V30 10325 C 985.861 -4.36778 -3.02321 0
M  V30 10326 C 984.9 -5.52371 -2.63729 0
M  V30 10327 N 984.037 -5.92065 -3.77364 0
M  V30 10328 H 988.877 -2.95024 -0.420104 0
M  V30 10329 H 986.414 -1.45792 -0.195716 0
M  V30 10330 H 988.372 -2.99963 -2.89962 0
M  V30 10331 H 987.002 -1.89484 -2.61334 0
M  V30 10332 H 986.054 -3.67669 -0.975896 0
M  V30 10333 H 987.366 -4.76011 -1.49046 0
M  V30 10334 H 986.52 -4.69285 -3.84521 0
M  V30 10335 H 985.259 -3.51668 -3.37907 0
M  V30 10336 H 984.264 -5.19517 -1.7995 0
M  V30 10337 H 985.489 -6.39212 -2.29315 0
M  V30 10338 H 983.435 -5.09904 -4.12715 0
M  V30 10339 H 983.352 -6.70762 -3.48733 0
M  V30 10340 H 984.62 -6.29193 -4.60148 0
M  V30 10341 N 988.849 0.203349 -1.56283 0
M  V30 10342 C 989.781 1.27592 -1.90402 0
M  V30 10343 C 990.794 1.4213 -0.79391 0
M  V30 10344 O 991.983 1.42703 -1.07229 0
M  V30 10345 C 989.083 2.64919 -2.11356 0
M  V30 10346 C 988.256 2.72095 -3.42466 0
M  V30 10347 C 987.315 3.9056 -3.52631 0
M  V30 10348 O 986.341 3.78048 -4.25521 0
M  V30 10349 N 987.543 5.0566 -2.85111 0
M  V30 10350 H 990.308 0.986423 -2.83001 0
M  V30 10351 H 987.869 0.39331 -1.5705 0
M  V30 10352 H 989.861 3.42581 -2.15453 0
M  V30 10353 H 988.431 2.86391 -1.25295 0
M  V30 10354 H 987.651 1.8077 -3.50308 0
M  V30 10355 H 988.939 2.73874 -4.28801 0
M  V30 10356 H 988.337 5.18723 -2.25705 0
M  V30 10357 H 986.894 5.81299 -2.94847 0
M  V30 10358 N 990.327 1.50405 0.470755 0
M  V30 10359 C 991.257 1.72222 1.57676 0
M  V30 10360 C 992.238 0.57121 1.60222 0
M  V30 10361 O 993.423 0.810381 1.76484 0
M  V30 10362 C 990.553 1.81666 2.95998 0
M  V30 10363 C 989.507 2.96857 3.08318 0
M  V30 10364 C 988.833 2.91445 4.4829 0
M  V30 10365 C 990.133 4.37361 2.85504 0
M  V30 10366 H 991.827 2.64825 1.39671 0
M  V30 10367 H 989.373 1.27438 0.67049 0
M  V30 10368 H 991.326 1.95514 3.73299 0
M  V30 10369 H 990.05 0.856856 3.1516 0
M  V30 10370 H 988.709 2.82661 2.33449 0
M  V30 10371 H 988.357 1.93309 4.64371 0
M  V30 10372 H 988.057 3.68776 4.57469 0
M  V30 10373 H 989.581 3.07341 5.27611 0
M  V30 10374 H 990.995 4.52081 3.52555 0
M  V30 10375 H 989.392 5.16145 3.06127 0
M  V30 10376 H 990.462 4.49708 1.81359 0
M  V30 10377 N 991.805 -0.723954 1.39988 0
M  V30 10378 C 992.735 -1.85103 1.42335 0
M  V30 10379 C 993.716 -1.6769 0.285297 0
M  V30 10380 O 994.901 -1.87846 0.492716 0
M  V30 10381 C 992.031 -3.22972 1.27697 0
M  V30 10382 C 990.985 -3.55041 2.39018 0
M  V30 10383 C 990.311 -4.91965 2.09462 0
M  V30 10384 C 991.611 -3.56889 3.8135 0
M  V30 10385 H 993.305 -1.83396 2.36656 0
M  V30 10386 H 990.851 -0.880926 1.13911 0
M  V30 10387 H 992.804 -4.01503 1.27958 0
M  V30 10388 H 991.528 -3.25233 0.298487 0
M  V30 10389 H 990.187 -2.78845 2.37993 0
M  V30 10390 H 989.835 -4.90819 1.10025 0
M  V30 10391 H 989.535 -5.14389 2.84038 0
M  V30 10392 H 991.059 -5.7284 2.11391 0
M  V30 10393 H 992.473 -4.25476 3.84243 0
M  V30 10394 H 990.87 -3.90836 4.55376 0
M  V30 10395 H 991.94 -2.56452 4.11534 0
M  V30 10396 N 993.283 -1.25346 -0.955304 0
M  V30 10397 C 994.246 -1.05754 -2.03344 0
M  V30 10398 C 995.246 -0.0105743 -1.60797 0
M  V30 10399 O 996.436 -0.252699 -1.72357 0
M  V30 10400 C 993.568 -0.605536 -3.35479 0
M  V30 10401 H 994.761 -2.01459 -2.22158 0
M  V30 10402 H 992.314 -1.07744 -1.1323 0
M  V30 10403 H 993.049 0.354154 -3.2236 0
M  V30 10404 H 992.834 -1.36134 -3.67709 0
M  V30 10405 H 994.324 -0.489867 -4.14717 0
M  V30 10406 N 994.761 1.15782 -1.06922 0
M  V30 10407 C 996.038 1.8253 -0.703 0
M  V30 10408 C 996.418 1.94733 0.814994 0
M  V30 10409 O 995.766 1.49537 1.72774 0
M  V30 10410 C 995.976 3.19145 -1.41234 0
M  V30 10411 C 997.324 3.94839 -1.56164 0
M  V30 10412 O 998.348 3.28685 -1.37277 0
M  V30 10413 O 997.207 5.13436 -1.87205 0
M  V30 10414 H 994.301 0.788425 -0.24963 0
M  V30 10415 H 996.847 1.22931 -1.16988 0
M  V30 10416 H 995.619 3.05336 -2.44715 0
M  V30 10417 H 995.242 3.86427 -0.935959 0
M  V30 10418 N 996.239 0.8527 1.3254 0
M  V30 10419 C 997.486 0.455123 1.97319 0
M  V30 10420 C 997.814 -0.988814 1.67489 0
M  V30 10421 O 997.069 -1.70845 0.954483 0
M  V30 10422 C 997.368 0.638757 3.51646 0
M  V30 10423 C 997.034 2.05287 4.01458 0
M  V30 10424 C 995.696 2.43963 4.14771 0
M  V30 10425 C 998.048 2.9759 4.27889 0
M  V30 10426 C 995.376 3.7422 4.51859 0
M  V30 10427 C 997.728 4.27343 4.66434 0
M  V30 10428 C 996.392 4.65957 4.77954 0
M  V30 10429 H 995.662 0.166541 0.722042 0
M  V30 10430 H 998.309 1.08238 1.57977 0
M  V30 10431 H 996.614 -0.0717394 3.91734 0
M  V30 10432 H 998.311 0.311219 3.9979 0
M  V30 10433 H 994.901 1.74253 3.91579 0
M  V30 10434 H 999.085 2.68942 4.17114 0
M  V30 10435 H 994.341 4.03923 4.58973 0
M  V30 10436 H 998.515 4.9893 4.85841 0
M  V30 10437 H 996.142 5.66934 5.06449 0
M  V30 10438 N 997.718 -1.45297 0.610449 0
M  V30 10439 C 998.943 -2.07101 0.111414 0
M  V30 10440 C 999.368 -1.45161 -1.19625 0
M  V30 10441 O 998.726 -0.545368 -1.72903 0
M  V30 10442 C 998.774 -3.60598 -0.0117372 0
M  V30 10443 O 997.878 -3.98512 -1.06122 0
M  V30 10444 H 997.219 -0.659709 0.075364 0
M  V30 10445 H 999.749 -1.86504 0.841269 0
M  V30 10446 H 999.759 -4.07464 -0.209028 0
M  V30 10447 H 998.434 -4.05067 0.943076 0
M  V30 10448 H 997.011 -3.63312 -0.840158 0
M  V30 10449 N 999.196 -0.349774 -1.5367 0
M  V30 10450 C 1000.44 0.245095 -2.02925 0
M  V30 10451 C 1000.8 1.4727 -1.23189 0
M  V30 10452 O 1002 2.14215 -1.62374 0
M  V30 10453 C 1000.27 0.545392 -3.53214 0
M  V30 10454 S 1001.83 1.11619 -4.24366 0
M  V30 10455 H 998.649 0.0725368 -0.70729 0
M  V30 10456 H 1001.25 -0.488979 -1.89286 0
M  V30 10457 H 999.955 -0.355786 -4.08855 0
M  V30 10458 H 999.486 1.30897 -3.70985 0
M  V30 10459 H 1001.5 2.40151 -4.34214 0
M  V30 10460 N 1000.67 1.57404 -0.0785433 0
M  V30 10461 C 1001.62 2.14316 0.903949 0
M  V30 10462 C 1002.62 1.08176 1.30362 0
M  V30 10463 O 1003.82 1.26546 1.28008 0
M  V30 10464 H 1000.2 0.685367 0.309477 0
M  V30 10465 H 1002.17 2.95719 0.399081 0
M  V30 10466 C 1000.92 2.72504 2.15956 0
M  V30 10467 H 1000.24 3.53853 1.86087 0
M  V30 10468 H 1001.68 3.15914 2.82798 0
M  V30 10469 C 1000.14 1.6759 2.92259 0
M  V30 10470 O 1000.67 1.10492 3.86205 0
M  V30 10471 N 998.875 1.38467 2.5549 0
M  V30 10472 H 998.422 1.85088 1.79166 0
M  V30 10473 H 998.38 0.685053 3.06846 0
M  V30 10474 N 1002.15 -0.195058 1.56388 0
M  V30 10475 C 1003.1 -1.24175 1.94549 0
M  V30 10476 C 1004.07 -1.45229 0.806089 0
M  V30 10477 O 1005.25 -1.58362 1.06425 0
M  V30 10478 C 1002.39 -2.58145 2.29031 0
M  V30 10479 C 1001.51 -2.44669 3.56035 0
M  V30 10480 C 1000.64 -3.71342 3.7984 0
M  V30 10481 C 999.681 -3.52699 5.0027 0
M  V30 10482 N 998.818 -4.71385 5.20328 0
M  V30 10483 H 1003.66 -0.909319 2.83788 0
M  V30 10484 H 1001.19 -0.437641 1.40439 0
M  V30 10485 H 1003.15 -3.36195 2.4704 0
M  V30 10486 H 1001.78 -2.8943 1.42933 0
M  V30 10487 H 1000.83 -1.57916 3.46073 0
M  V30 10488 H 1002.15 -2.26827 4.44242 0
M  V30 10489 H 1001.3 -4.57832 3.98088 0
M  V30 10490 H 1000.04 -3.92138 2.89964 0
M  V30 10491 H 999.045 -2.64594 4.81944 0
M  V30 10492 H 1000.27 -3.33349 5.91655 0
M  V30 10493 H 998.216 -4.92444 4.33399 0
M  V30 10494 H 998.133 -4.56368 6.02714 0
M  V30 10495 H 999.401 -5.59226 5.43035 0
M  V30 10496 N 1003.63 -1.50653 -0.462772 0
M  V30 10497 C 1004.88 -1.62057 -1.21424 0
M  V30 10498 C 1005.2 -0.324778 -1.91769 0
M  V30 10499 O 1004.46 0.689828 -1.83139 0
M  V30 10500 C 1004.76 -2.75637 -2.27507 0
M  V30 10501 C 1004.42 -4.15826 -1.74354 0
M  V30 10502 C 1003.09 -4.53969 -1.5958 0
M  V30 10503 C 1005.44 -5.03409 -1.35012 0
M  V30 10504 C 1002.77 -5.77427 -1.03899 0
M  V30 10505 C 1005.12 -6.27422 -0.807704 0
M  V30 10506 C 1003.78 -6.6436 -0.646657 0
M  V30 10507 H 1003.05 -0.59301 -0.44432 0
M  V30 10508 H 1005.7 -1.84612 -0.508999 0
M  V30 10509 H 1004 -2.47203 -3.0397 0
M  V30 10510 H 1005.7 -2.81663 -2.85424 0
M  V30 10511 H 1002.29 -3.85739 -1.86823 0
M  V30 10512 H 1006.48 -4.74567 -1.45258 0
M  V30 10513 H 1001.73 -6.04713 -0.901751 0
M  V30 10514 H 1005.91 -6.94644 -0.494234 0
M  V30 10515 H 1003.53 -7.59901 -0.213053 0
M  V30 10516 N 1005.11 0.71652 -1.4037 0
M  V30 10517 C 1006.52 1.29562 -1.34427 0
M  V30 10518 C 1006.87 1.96192 -0.0173106 0
M  V30 10519 O 1006 1.97488 0.884719 0
M  V30 10520 C 1006.59 2.35601 -2.4347 0
M  V30 10521 C 1005.15 2.89138 -2.4099 0
M  V30 10522 C 1004.3 1.62915 -2.24397 0
M  V30 10523 H 1007.25 0.512715 -1.5019 0
M  V30 10524 H 1007.27 3.16422 -2.11323 0
M  V30 10525 H 1006.78 1.87077 -3.40035 0
M  V30 10526 H 1004.88 3.41894 -1.4812 0
M  V30 10527 H 1004.99 3.40995 -3.3654 0
M  V30 10528 H 1003.36 1.87947 -1.71896 0
M  V30 10529 H 1004.14 1.16417 -3.22958 0
M  V30 10530 N 1006.59 1.25851 0.948643 0
M  V30 10531 C 1007.55 1.0683 2.0278 0
M  V30 10532 C 1008.55 0.0191016 1.60789 0
M  V30 10533 O 1009.74 0.261836 1.72221 0
M  V30 10534 C 1006.87 0.623318 3.35153 0
M  V30 10535 H 1008.06 2.02635 2.21086 0
M  V30 10536 H 1005.62 1.08343 1.12657 0
M  V30 10537 H 1006.35 -0.337053 3.22544 0
M  V30 10538 H 1006.14 1.38082 3.66982 0
M  V30 10539 H 1007.63 0.511854 4.14451 0
M  V30 10540 N 1008.06 -1.15214 1.07534 0
M  V30 10541 C 1009.31 -1.85388 0.794617 0
M  V30 10542 C 1009.63 -1.83331 -0.681838 0
M  V30 10543 O 1010.83 -2.49207 -1.0774 0
M  V30 10544 C 1009.29 -3.32747 1.37141 0
M  V30 10545 C 1008.9 -3.43244 2.87902 0
M  V30 10546 C 1010.64 -4.08093 1.16879 0
M  V30 10547 C 1008.55 -4.84762 3.38763 0
M  V30 10548 H 1007.48 -0.694499 0.293577 0
M  V30 10549 H 1010.13 -1.29944 1.29564 0
M  V30 10550 H 1008.51 -3.87874 0.798121 0
M  V30 10551 H 1009.68 -2.98214 3.51291 0
M  V30 10552 H 1008 -2.81345 3.06975 0
M  V30 10553 H 1010.6 -5.12535 1.52353 0
M  V30 10554 H 1010.94 -4.1616 0.107958 0
M  V30 10555 H 1011.47 -3.59241 1.70854 0
M  V30 10556 H 1008.21 -4.81879 4.4438 0
M  V30 10557 H 1007.73 -5.30366 2.80128 0
M  V30 10558 H 1009.41 -5.53624 3.34827 0
M  V30 10559 N 1009.54 -0.859717 -1.32086 0
M  V30 10560 C 1010.49 -0.306042 -2.28762 0
M  V30 10561 C 1011.46 0.589801 -1.55276 0
M  V30 10562 O 1012.64 0.523633 -1.83474 0
M  V30 10563 C 1009.78 0.495256 -3.41528 0
M  V30 10564 C 1008.9 -0.426947 -4.29885 0
M  V30 10565 C 1008.03 0.387474 -5.29785 0
M  V30 10566 C 1007.07 -0.531807 -6.09785 0
M  V30 10567 N 1006.21 0.245741 -7.0167 0
M  V30 10568 H 1011.05 -1.1357 -2.7551 0
M  V30 10569 H 1008.59 -0.571468 -1.35546 0
M  V30 10570 H 1010.54 0.97551 -4.05635 0
M  V30 10571 H 1009.17 1.28969 -2.95917 0
M  V30 10572 H 1008.23 -1.02561 -3.66313 0
M  V30 10573 H 1009.54 -1.13226 -4.85779 0
M  V30 10574 H 1008.69 0.930677 -5.99519 0
M  V30 10575 H 1007.43 1.12612 -4.74521 0
M  V30 10576 H 1006.44 -1.08685 -5.3895 0
M  V30 10577 H 1007.66 -1.26915 -6.67135 0
M  V30 10578 H 1005.61 0.967391 -6.48828 0
M  V30 10579 H 1005.52 -0.400432 -7.54939 0
M  V30 10580 H 1006.79 0.770507 -7.75683 0
M  V30 10581 N 1011.02 1.44971 -0.618145 0
M  V30 10582 C 1011.98 2.29044 0.0846739 0
M  V30 10583 C 1012.98 1.40341 0.784921 0
M  V30 10584 O 1014.17 1.62351 0.631479 0
M  V30 10585 C 1011.31 3.21617 1.13027 0
M  V30 10586 H 1012.5 2.92668 -0.654612 0
M  V30 10587 H 1010.05 1.51668 -0.377672 0
M  V30 10588 H 1010.79 2.62815 1.89997 0
M  V30 10589 H 1010.57 3.86969 0.63224 0
M  V30 10590 H 1012.06 3.84805 1.62218 0
M  V30 10591 N 1012.5 0.357919 1.53482 0
M  V30 10592 C 1013.43 -0.535553 2.21827 0
M  V30 10593 C 1014.41 -1.08904 1.20742 0
M  V30 10594 O 1015.59 -1.14661 1.49616 0
M  V30 10595 C 1012.72 -1.73817 2.90698 0
M  V30 10596 C 1011.77 -1.31283 4.05792 0
M  V30 10597 S 1012.6 -0.320548 5.3454 0
M  V30 10598 C 1013.76 -1.52967 6.0692 0
M  V30 10599 H 1013.99 0.0449045 2.97266 0
M  V30 10600 H 1011.52 0.142009 1.53746 0
M  V30 10601 H 1013.48 -2.42803 3.30994 0
M  V30 10602 H 1012.14 -2.28987 2.14998 0
M  V30 10603 H 1011.33 -2.20989 4.52968 0
M  V30 10604 H 1010.94 -0.702275 3.67347 0
M  V30 10605 H 1013.23 -2.46191 6.31186 0
M  V30 10606 H 1014.17 -1.09943 6.99513 0
M  V30 10607 H 1014.58 -1.73224 5.37265 0
M  V30 10608 N 1013.98 -1.5736 0.0868897 0
M  V30 10609 C 1014.91 -2.16596 -0.872252 0
M  V30 10610 C 1015.89 -1.09706 -1.29995 0
M  V30 10611 O 1017.07 -1.37808 -1.36831 0
M  V30 10612 C 1014.2 -2.73972 -2.1344 0
M  V30 10613 C 1013.16 -3.86163 -1.8456 0
M  V30 10614 C 1012.48 -4.30206 -3.17533 0
M  V30 10615 C 1013.78 -5.0973 -1.13899 0
M  V30 10616 H 1015.48 -2.96995 -0.378738 0
M  V30 10617 H 1013.02 -1.42861 -0.18073 0
M  V30 10618 H 1014.98 -3.14062 -2.80968 0
M  V30 10619 H 1013.7 -1.90817 -2.6506 0
M  V30 10620 H 1012.36 -3.466 -1.19432 0
M  V30 10621 H 1012.01 -3.43951 -3.67024 0
M  V30 10622 H 1011.71 -5.05841 -2.98996 0
M  V30 10623 H 1013.23 -4.72922 -3.86234 0
M  V30 10624 H 1014.64 -5.4704 -1.71523 0
M  V30 10625 H 1013.04 -5.90741 -1.05569 0
M  V30 10626 H 1014.11 -4.8475 -0.120432 0
M  V30 10627 N 1015.45 0.186762 -1.56489 0
M  V30 10628 C 1016.68 0.925916 -1.85584 0
M  V30 10629 C 1017.1 1.75708 -0.671446 0
M  V30 10630 O 1016.46 1.7728 0.379687 0
M  V30 10631 C 1016.51 1.79107 -3.12975 0
M  V30 10632 O 1015.61 2.89088 -2.94112 0
M  V30 10633 H 1014.96 0.260275 -0.610863 0
M  V30 10634 H 1017.49 0.189561 -2.0372 0
M  V30 10635 H 1017.5 2.19408 -3.43983 0
M  V30 10636 H 1016.17 1.18044 -3.98796 0
M  V30 10637 H 1014.75 2.52482 -2.74422 0
M  V30 10638 N 1016.93 1.50896 0.454776 0
M  V30 10639 C 1018.18 1.61936 1.20248 0
M  V30 10640 C 1018.49 0.332983 1.92745 0
M  V30 10641 O 1019.7 0.322512 2.69578 0
M  V30 10642 C 1018.16 2.85916 2.18587 0
M  V30 10643 C 1017.76 4.21492 1.51818 0
M  V30 10644 C 1019.51 3.06307 2.93898 0
M  V30 10645 C 1017.42 5.3664 2.48539 0
M  V30 10646 H 1016.35 0.603098 0.452536 0
M  V30 10647 H 1019 1.77345 0.471257 0
M  V30 10648 H 1017.38 2.64101 2.95071 0
M  V30 10649 H 1018.55 4.53623 0.810123 0
M  V30 10650 H 1016.87 4.06837 0.887265 0
M  V30 10651 H 1019.46 3.89507 3.66317 0
M  V30 10652 H 1019.81 2.18683 3.54236 0
M  V30 10653 H 1020.34 3.2838 2.24525 0
M  V30 10654 H 1017.08 6.26469 1.92916 0
M  V30 10655 H 1016.6 5.08907 3.17449 0
M  V30 10656 H 1018.28 5.67881 3.10033 0
M  V30 10657 N 1018.41 -0.709066 1.40748 0
M  V30 10658 C 1019.69 -1.4626 1.29874 0
M  V30 10659 C 1020.07 -2.10949 -0.0799322 0
M  V30 10660 O 1019.42 -2.00651 -1.09323 0
M  V30 10661 C 1019.63 -2.49302 2.44232 0
M  V30 10662 C 1020.97 -3.14945 2.84771 0
M  V30 10663 O 1022 -2.59623 2.43873 0
M  V30 10664 O 1020.86 -4.15111 3.5545 0
M  V30 10665 H 1017.95 -0.650716 0.51039 0
M  V30 10666 H 1020.5 -0.740687 1.52682 0
M  V30 10667 H 1019.27 -2.00063 3.36289 0
M  V30 10668 H 1018.89 -3.29021 2.23229 0
M  V30 10669 N 1019.89 -1.26353 -0.941956 0
M  V30 10670 C 1021.14 -1.12017 -1.69056 0
M  V30 10671 C 1021.47 0.335856 -1.91274 0
M  V30 10672 O 1020.74 1.24677 -1.49285 0
M  V30 10673 C 1021.03 -1.88889 -3.06583 0
M  V30 10674 C 1020.88 -3.42394 -2.91696 0
M  V30 10675 C 1022.2 -1.68209 -4.06686 0
M  V30 10676 H 1019.32 -0.408311 -0.613556 0
M  V30 10677 H 1021.96 -1.55339 -1.09407 0
M  V30 10678 H 1020.11 -1.5207 -3.57501 0
M  V30 10679 H 1021.78 -3.88962 -2.48005 0
M  V30 10680 H 1020.02 -3.69459 -2.27338 0
M  V30 10681 H 1020.7 -3.91408 -3.89235 0
M  V30 10682 H 1023.17 -2.00286 -3.64726 0
M  V30 10683 H 1022.05 -2.24412 -5.00929 0
M  V30 10684 H 1022.31 -0.626474 -4.37639 0
M  V30 10685 N 1021.37 1.14642 -1.08144 0
M  V30 10686 C 1022.33 2.17834 -0.712799 0
M  V30 10687 C 1023.33 1.58828 0.251041 0
M  V30 10688 O 1024.52 1.74173 0.0309381 0
M  V30 10689 C 1021.65 3.4086 -0.0519477 0
M  V30 10690 H 1022.85 2.51961 -1.62653 0
M  V30 10691 H 1020.4 1.29243 -0.878971 0
M  V30 10692 H 1021.13 3.12311 0.873636 0
M  V30 10693 H 1020.92 3.84952 -0.745286 0
M  V30 10694 H 1022.41 4.17163 0.191031 0
M  V30 10695 N 1022.85 0.866709 1.31628 0
M  V30 10696 C 1023.76 0.323408 2.3236 0
M  V30 10697 C 1024.77 -0.564995 1.64572 0
M  V30 10698 O 1025.95 -0.462489 1.96018 0
M  V30 10699 C 1023.01 -0.469045 3.43513 0
M  V30 10700 C 1022.07 0.446928 4.26967 0
M  V30 10701 C 1021.31 -0.307799 5.32812 0
M  V30 10702 O 1021.53 -1.5363 5.49321 0
M  V30 10703 O 1020.46 0.332653 6.0098 0
M  V30 10704 H 1024.29 1.15827 2.80745 0
M  V30 10705 H 1021.87 0.629987 1.35468 0
M  V30 10706 H 1023.76 -0.918405 4.1127 0
M  V30 10707 H 1022.43 -1.28051 2.97296 0
M  V30 10708 H 1021.34 0.944719 3.61975 0
M  V30 10709 H 1022.67 1.2239 4.76741 0
M  V30 10710 O 1024.36 -1.42185 0.765885 0
M  V30 10711 H 1025.05 -1.90905 0.327881 0
M  V30 END ATOM
M  V30 BEGIN BOND
M  V30 END BOND
M  V30 END CTAB
M  END
$$$$
