drugbank_target|P56373 P2X purinoceptor 3 (DB01069)
 OpenBabel12092121213D

  0  0  0     0  0            999 V3000
M  V30 BEGIN CTAB
M  V30 COUNTS 6230 6299 0 0 0
M  V30 BEGIN ATOM
M  V30 1 H -0.908 1.98254 -0.117106 0
M  V30 2 N 0 1.576 0 0
M  V30 3 C 0.933 2.03868 1.02534 0
M  V30 4 C 1.911 0.928543 1.3348 0
M  V30 5 O 3.095 1.19667 1.45644 0
M  V30 6 C 0.222 2.43627 2.35294 0
M  V30 7 C -0.732 3.65373 2.2001 0
M  V30 8 S 0.101 5.13292 1.52614 0
M  V30 9 C 1.257 5.56322 2.86805 0
M  V30 10 H 1.49 2.90518 0.631377 0
M  V30 11 H -0.977 1.52953 0.210867 0
M  V30 12 H 0.981 2.67203 3.11629 0
M  V30 13 H -0.358 1.57376 2.7183 0
M  V30 14 H -1.165 3.90944 3.18086 0
M  V30 15 H -1.563 3.418 1.51819 0
M  V30 16 H 0.729 5.58782 3.83104 0
M  V30 17 H 1.672 6.56266 2.65933 0
M  V30 18 H 2.08 4.83886 2.90714 0
M  V30 19 N 1.4781 -0.272755 1.55222 0
M  V30 20 C 2.4261 -1.35705 1.88909 0
M  V30 21 C 3.4201 -1.5112 0.765456 0
M  V30 22 O 4.6261 -1.52901 0.949802 0
M  V30 23 H 1.0011 -0.453868 0.59959 0
M  V30 24 H 2.9721 -1.04544 2.79487 0
M  V30 25 C 1.7211 -2.71049 2.17779 0
M  V30 26 H 1.0441 -2.59979 3.03728 0
M  V30 27 H 2.4841 -3.45858 2.45272 0
M  V30 28 C 0.9431 -3.22165 0.985473 0
M  V30 29 O 1.4731 -4.01096 0.220233 0
M  V30 30 N -0.3209 -2.7985 0.783108 0
M  V30 31 H -0.7739 -2.15775 1.40708 0
M  V30 32 H -0.8159 -3.14397 -0.0130392 0
M  V30 33 N 2.9562 -1.48159 -0.537278 0
M  V30 34 C 4.1962 -1.57397 -1.30405 0
M  V30 35 C 4.5602 -0.239202 -1.90504 0
M  V30 36 O 5.7612 -0.206528 -2.68005 0
M  V30 37 C 4.0322 -2.6754 -2.36974 0
M  V30 38 S 5.5912 -2.96496 -3.23475 0
M  V30 39 H 2.4092 -0.555577 -0.443684 0
M  V30 40 H 5.0112 -1.85644 -0.612912 0
M  V30 41 H 3.7152 -3.63092 -1.91291 0
M  V30 42 H 3.2462 -2.41172 -3.10805 0
M  V30 43 H 5.2612 -2.35234 -4.36897 0
M  V30 44 N 4.4343 0.785586 -1.36625 0
M  V30 45 C 5.6833 1.53883 -1.30396 0
M  V30 46 C 5.9963 1.95271 0.113452 0
M  V30 47 O 7.2023 2.69858 0.298142 0
M  V30 48 C 5.6583 2.77808 -2.28802 0
M  V30 49 C 5.2663 2.43574 -3.75999 0
M  V30 50 C 7.0103 3.55783 -2.31558 0
M  V30 51 C 4.9173 3.63919 -4.66173 0
M  V30 52 H 3.8473 0.577678 -0.484566 0
M  V30 53 H 6.4983 0.861705 -1.62009 0
M  V30 54 H 4.8803 3.47339 -1.90188 0
M  V30 55 H 6.0543 1.81916 -4.23371 0
M  V30 56 H 4.3693 1.78803 -3.76056 0
M  V30 57 H 6.9663 4.45205 -2.96137 0
M  V30 58 H 7.3093 3.94644 -1.3252 0
M  V30 59 H 7.8423 2.93235 -2.68809 0
M  V30 60 H 4.5813 3.3015 -5.66287 0
M  V30 61 H 4.1013 4.2473 -4.23515 0
M  V30 62 H 5.7803 4.30901 -4.82632 0
M  V30 63 N 5.9124 1.20967 1.01018 0
M  V30 64 C 7.1374 1.0503 1.78839 0
M  V30 65 C 7.5624 -0.395752 1.8389 0
M  V30 66 O 6.9204 -1.28529 1.27867 0
M  V30 67 C 6.9684 1.64602 3.2084 0
M  V30 68 O 6.0724 0.887988 4.02726 0
M  V30 69 H 5.4134 0.369987 0.551367 0
M  V30 70 H 7.9434 1.60399 1.27018 0
M  V30 71 H 7.9534 1.68607 3.71532 0
M  V30 72 H 6.6284 2.69841 3.16479 0
M  V30 73 H 5.2054 0.922648 3.61305 0
M  V30 74 N 7.3905 -1.2043 1.01659 0
M  V30 75 C 8.6675 -1.8548 0.621004 0
M  V30 76 C 9.0475 -1.9091 -0.900919 0
M  V30 77 O 8.3955 -1.41694 -1.79263 0
M  V30 78 C 8.6055 -3.25119 1.2688 0
M  V30 79 C 9.9535 -4.01403 1.38423 0
M  V30 80 O 10.9775 -3.34473 1.22501 0
M  V30 81 O 9.8365 -5.21265 1.64151 0
M  V30 82 H 6.9305 -0.798761 0.214266 0
M  V30 83 H 9.4765 -1.28019 1.11396 0
M  V30 84 H 8.2485 -3.15932 2.30873 0
M  V30 85 H 7.8715 -3.90212 0.762917 0
M  V30 86 N 8.8686 -0.792821 -1.36206 0
M  V30 87 C 10.1156 -0.366786 -1.99151 0
M  V30 88 C 10.4436 1.06243 -1.62919 0
M  V30 89 O 9.6986 1.74927 -0.877442 0
M  V30 90 C 9.9976 -0.481501 -3.54142 0
M  V30 91 C 9.6636 -1.87202 -4.10203 0
M  V30 92 C 8.3256 -2.25248 -4.25226 0
M  V30 93 C 10.6776 -2.78237 -4.40719 0
M  V30 94 C 8.0056 -3.53723 -4.68078 0
M  V30 95 C 10.3576 -4.06144 -4.85005 0
M  V30 96 C 9.0216 -4.44207 -4.98234 0
M  V30 97 H 8.2916 -0.134217 -0.728743 0
M  V30 98 H 10.9386 -1.01094 -1.62641 0
M  V30 99 H 9.2436 0.246146 -3.91026 0
M  V30 100 H 10.9406 -0.132844 -4.0078 0
M  V30 101 H 7.5306 -1.56639 -3.98951 0
M  V30 102 H 11.7146 -2.50097 -4.28679 0
M  V30 103 H 6.9706 -3.8308 -4.76508 0
M  V30 104 H 11.1446 -4.76796 -5.07581 0
M  V30 105 H 8.7716 -5.43814 -5.31197 0
M  V30 106 N 10.3467 1.47872 -0.545128 0
M  V30 107 C 11.5937 2.02493 -0.0165858 0
M  V30 108 C 11.9217 1.42073 1.32836 0
M  V30 109 O 11.1767 0.561459 1.87473 0
M  V30 110 C 11.4757 3.57131 0.13867 0
M  V30 111 C 11.1417 4.36411 -1.13384 0
M  V30 112 C 9.8037 4.57792 -1.48256 0
M  V30 113 C 12.1557 4.82223 -1.97764 0
M  V30 114 C 9.4837 5.22233 -2.67376 0
M  V30 115 C 11.8357 5.47977 -3.16076 0
M  V30 116 C 10.4997 5.67593 -3.51275 0
M  V30 117 H 9.7697 0.740975 -0.00606918 0
M  V30 118 H 12.4167 1.77683 -0.714207 0
M  V30 119 H 10.7217 3.80865 0.919172 0
M  V30 120 H 12.4187 3.97031 0.562782 0
M  V30 121 H 9.0087 4.2004 -0.852297 0
M  V30 122 H 13.1927 4.65493 -1.72132 0
M  V30 123 H 8.4487 5.35616 -2.94831 0
M  V30 124 H 12.6227 5.8244 -3.81755 0
M  V30 125 H 10.2497 6.17298 -4.43675 0
M  V30 126 N 11.8248 0.280983 1.55075 0
M  V30 127 C 13.0528 -0.337293 2.04132 0
M  V30 128 C 13.4678 -1.4903 1.15912 0
M  V30 129 O 12.8248 -1.81606 0.180459 0
M  V30 130 C 12.8758 -0.812706 3.52246 0
M  V30 131 O 12.5968 0.294387 4.3711 0
M  V30 132 C 14.0978 -1.4982 4.17216 0
M  V30 133 H 11.3178 -0.0761638 0.666663 0
M  V30 134 H 13.8618 0.414787 2.00249 0
M  V30 135 H 12.0168 -1.51486 3.56554 0
M  V30 136 H 12.4308 -0.0721325 5.2445 0
M  V30 137 H 13.9048 -1.7822 5.22438 0
M  V30 138 H 14.3818 -2.43168 3.65741 0
M  V30 139 H 14.9878 -0.839742 4.16927 0
M  V30 140 N 13.3029 -1.57598 0.00835791 0
M  V30 141 C 14.5329 -1.94931 -0.684496 0
M  V30 142 C 14.9409 -0.882233 -1.67372 0
M  V30 143 O 14.2839 0.146621 -1.83114 0
M  V30 144 C 14.3459 -3.283 -1.4649 0
M  V30 145 C 14.0099 -4.52548 -0.63634 0
M  V30 146 C 15.0069 -5.19839 0.0795586 0
M  V30 147 C 12.6919 -4.98942 -0.579849 0
M  V30 148 C 14.6859 -6.3183 0.840843 0
M  V30 149 C 12.3729 -6.10819 0.185155 0
M  V30 150 C 13.3709 -6.77121 0.894227 0
M  V30 151 O 13.0589 -7.86853 1.64673 0
M  V30 152 H 12.7909 -0.647249 -0.19505 0
M  V30 153 H 15.3449 -2.05318 0.0581272 0
M  V30 154 H 13.5749 -3.14345 -2.2522 0
M  V30 155 H 15.2639 -3.50685 -2.04389 0
M  V30 156 H 16.0299 -4.84979 0.0451202 0
M  V30 157 H 11.9089 -4.47155 -1.1213 0
M  V30 158 H 15.4529 -6.83513 1.39483 0
M  V30 159 H 11.3499 -6.4512 0.221384 0
M  V30 160 H 12.1179 -8.03412 1.56432 0
M  V30 161 N 14.781 0.264519 -1.55364 0
M  V30 162 C 15.691 1.34902 -1.91934 0
M  V30 163 C 16.707 1.53595 -0.817593 0
M  V30 164 O 17.883 1.67558 -1.11742 0
M  V30 165 C 14.948 2.68676 -2.19121 0
M  V30 166 C 14.009 2.58657 -3.4263 0
M  V30 167 C 13.242 3.86051 -3.68511 0
M  V30 168 O 13.465 4.87126 -2.96757 0
M  V30 169 O 12.399 3.85744 -4.62045 0
M  V30 170 H 16.225 1.06883 -2.8427 0
M  V30 171 H 13.81 0.463775 -1.42019 0
M  V30 172 H 15.692 3.47759 -2.37995 0
M  V30 173 H 14.367 2.96463 -1.29966 0
M  V30 174 H 13.274 1.7792 -3.29082 0
M  V30 175 H 14.607 2.35818 -4.32031 0
M  V30 176 N 16.2591 1.48442 0.529413 0
M  V30 177 C 17.4871 1.60151 1.30994 0
M  V30 178 C 17.9021 0.261985 1.86973 0
M  V30 179 O 17.2591 -0.748805 1.66431 0
M  V30 180 C 17.3101 2.64854 2.46038 0
M  V30 181 O 17.0311 3.93608 1.92365 0
M  V30 182 C 18.5321 2.87007 3.37849 0
M  V30 183 H 15.7521 0.539971 0.398338 0
M  V30 184 H 18.2961 1.94273 0.638597 0
M  V30 185 H 16.4511 2.33589 3.09055 0
M  V30 186 H 16.8651 4.51055 2.67675 0
M  V30 187 H 18.3391 3.64068 4.14919 0
M  V30 188 H 18.8161 1.95852 3.93114 0
M  V30 189 H 19.4221 3.19579 2.80623 0
M  V30 190 N 17.7372 -0.778329 1.37039 0
M  V30 191 C 18.9652 -1.56734 1.35063 0
M  V30 192 C 19.3802 -1.88686 -0.0655597 0
M  V30 193 O 18.7372 -1.5096 -1.02554 0
M  V30 194 C 18.7882 -2.88163 2.18276 0
M  V30 195 O 18.5092 -2.57583 3.54376 0
M  V30 196 C 20.0102 -3.82422 2.24206 0
M  V30 197 H 17.2302 -0.485778 0.462883 0
M  V30 198 H 19.7742 -0.965185 1.8029 0
M  V30 199 H 17.9292 -3.44818 1.76576 0
M  V30 200 H 18.3432 -3.41699 3.97922 0
M  V30 201 H 19.8172 -4.71667 2.86765 0
M  V30 202 H 20.2942 -4.21078 1.24861 0
M  V30 203 H 20.9002 -3.31697 2.6619 0
M  V30 204 N 19.2153 -1.21501 -1.00376 0
M  V30 205 C 20.1623 -0.975387 -2.09177 0
M  V30 206 C 21.1323 0.0990615 -1.65804 0
M  V30 207 O 22.3173 -0.0483147 -1.90739 0
M  V30 208 C 19.4573 -0.547507 -3.40729 0
M  V30 209 C 18.5703 -1.69153 -3.97506 0
M  V30 210 C 17.7053 -1.2127 -5.17172 0
M  V30 211 C 16.7443 -2.32897 -5.66061 0
M  V30 212 N 15.8813 -1.86138 -6.76976 0
M  V30 213 H 20.7213 -1.9068 -2.29009 0
M  V30 214 H 18.2583 -0.950257 -1.12288 0
M  V30 215 H 20.2163 -0.280667 -4.16255 0
M  V30 216 H 18.8463 0.346904 -3.20931 0
M  V30 217 H 17.8983 -2.07298 -3.18954 0
M  V30 218 H 19.2103 -2.5316 -4.29781 0
M  V30 219 H 18.3643 -0.902591 -5.99948 0
M  V30 220 H 17.1033 -0.342692 -4.86495 0
M  V30 221 H 16.1083 -2.64709 -4.81881 0
M  V30 222 H 17.3333 -3.20396 -5.98768 0
M  V30 223 H 15.2793 -1.01484 -6.48103 0
M  V30 224 H 15.1963 -2.63717 -7.08512 0
M  V30 225 H 16.4643 -1.58165 -7.63285 0
M  V30 226 N 20.6934 1.19889 -1.02296 0
M  V30 227 C 21.9184 1.9393 -0.735237 0
M  V30 228 C 22.3434 1.74639 0.698782 0
M  V30 229 O 21.7014 1.04481 1.48167 0
M  V30 230 C 21.7494 3.43916 -1.08417 0
M  V30 231 O 20.8534 4.11917 -0.199446 0
M  V30 232 H 20.1944 0.605645 -0.272196 0
M  V30 233 H 22.7244 1.52137 -1.36804 0
M  V30 234 H 22.7344 3.9456 -1.03856 0
M  V30 235 H 21.4094 3.5728 -2.12894 0
M  V30 236 H 19.9864 3.71666 -0.303136 0
M  V30 237 N 22.1715 0.800033 1.35784 0
M  V30 238 C 23.4175 0.377901 1.99248 0
M  V30 239 C 23.7505 -1.05052 1.63333 0
M  V30 240 O 23.0255 -1.72768 0.893385 0
M  V30 241 C 23.3085 0.553922 3.55814 0
M  V30 242 C 23.1615 2.0268 4.01548 0
M  V30 243 C 24.4805 -0.0244802 4.40093 0
M  V30 244 H 21.5995 0.138782 0.723815 0
M  V30 245 H 24.2415 1.00835 1.61035 0
M  V30 246 H 22.3915 0.0172398 3.88496 0
M  V30 247 H 24.0635 2.62536 3.79305 0
M  V30 248 H 22.3065 2.5256 3.52698 0
M  V30 249 H 22.9775 2.10087 5.10458 0
M  V30 250 H 25.4535 0.433775 4.13833 0
M  V30 251 H 24.3295 0.128637 5.48749 0
M  V30 252 H 24.5905 -1.11758 4.27741 0
M  V30 253 N 23.6496 -1.47581 0.552962 0
M  V30 254 C 24.8956 -2.02782 0.0273648 0
M  V30 255 C 25.2286 -1.42687 -1.31734 0
M  V30 256 O 24.5036 -0.580897 -1.85623 0
M  V30 257 C 24.7866 -3.60031 -0.0702371 0
M  V30 258 C 24.6396 -4.30566 1.30126 0
M  V30 259 C 25.9586 -4.33028 -0.785771 0
M  V30 260 H 23.0776 -0.736912 0.0114185 0
M  V30 261 H 25.7196 -1.76056 0.714432 0
M  V30 262 H 23.8696 -3.82932 -0.655382 0
M  V30 263 H 25.5416 -4.19018 1.92929 0
M  V30 264 H 23.7846 -3.91086 1.87709 0
M  V30 265 H 24.4556 -5.39114 1.18573 0
M  V30 266 H 26.9316 -4.15095 -0.288982 0
M  V30 267 H 25.8076 -5.42695 -0.823013 0
M  V30 268 H 26.0686 -4.01945 -1.841 0
M  V30 269 N 25.1277 -0.289203 -1.54924 0
M  V30 270 C 26.3737 0.323998 -2.00195 0
M  V30 271 C 26.7067 1.54441 -1.17735 0
M  V30 272 O 25.9817 1.92875 -0.250878 0
M  V30 273 C 26.2647 0.692276 -3.53383 0
M  V30 274 C 26.1177 -0.536457 -4.46589 0
M  V30 275 C 27.4367 1.52335 -4.12895 0
M  V30 276 H 24.5557 0.116289 -0.727768 0
M  V30 277 H 27.1977 -0.398954 -1.85764 0
M  V30 278 H 25.3477 1.30822 -3.65811 0
M  V30 279 H 27.0197 -1.17499 -4.46085 0
M  V30 280 H 25.2627 -1.17192 -4.1767 0
M  V30 281 H 25.9337 -0.234806 -5.515 0
M  V30 282 H 28.4097 1.00302 -4.0383 0
M  V30 283 H 27.2857 1.74982 -5.20262 0
M  V30 284 H 27.5467 2.50886 -3.64018 0
M  V30 285 N 26.6058 1.57591 -0.0167156 0
M  V30 286 C 27.5528 2.09462 0.969251 0
M  V30 287 C 28.5228 0.99381 1.33089 0
M  V30 288 O 29.7078 1.26726 1.42636 0
M  V30 289 C 26.8478 2.61622 2.25051 0
M  V30 290 C 25.9608 3.85666 1.94642 0
M  V30 291 C 25.0958 4.26266 3.16972 0
M  V30 292 C 24.1348 5.43101 2.82326 0
M  V30 293 N 23.2718 5.78915 3.97243 0
M  V30 294 H 28.1118 2.93428 0.519997 0
M  V30 295 H 25.6488 1.45044 0.245087 0
M  V30 296 H 27.6068 2.89949 2.99976 0
M  V30 297 H 26.2368 1.80505 2.67615 0
M  V30 298 H 25.2888 3.64145 1.10013 0
M  V30 299 H 26.6008 4.70678 1.65117 0
M  V30 300 H 25.7548 4.55963 4.00228 0
M  V30 301 H 24.4938 3.39996 3.49648 0
M  V30 302 H 23.4988 5.1311 1.97479 0
M  V30 303 H 24.7238 6.3106 2.50879 0
M  V30 304 H 22.6698 4.95602 4.29785 0
M  V30 305 H 22.5868 6.58539 3.71299 0
M  V30 306 H 23.8548 6.13212 4.81239 0
M  V30 307 N 28.0839 -0.256276 1.55502 0
M  V30 308 C 29.3089 -1.00766 1.81276 0
M  V30 309 C 29.7339 -1.78524 0.59252 0
M  V30 310 O 29.0919 -1.75413 -0.45827 0
M  V30 311 C 29.1399 -1.92869 3.04687 0
M  V30 312 O 28.2439 -3.019 2.80945 0
M  V30 313 H 27.5849 -0.287224 0.598664 0
M  V30 314 H 30.1149 -0.280109 2.02674 0
M  V30 315 H 30.1249 -2.34511 3.33869 0
M  V30 316 H 28.7999 -1.35689 3.93143 0
M  V30 317 H 27.3769 -2.64454 2.62904 0
M  V30 318 N 29.562 -1.4872 -0.521534 0
M  V30 319 C 30.808 -1.58378 -1.27624 0
M  V30 320 C 31.163 -0.258028 -1.90662 0
M  V30 321 O 30.456 0.739917 -1.76736 0
M  V30 322 C 30.65 -2.66497 -2.38148 0
M  V30 323 C 30.479 -4.09456 -1.85945 0
M  V30 324 C 29.249 -4.76495 -1.68168 0
M  V30 325 C 31.447 -4.95353 -1.3831 0
M  V30 326 N 29.429 -6.0384 -1.1068 0
M  V30 327 C 30.8 -6.13012 -0.928238 0
M  V30 328 C 32.855 -4.81512 -1.26692 0
M  V30 329 C 31.558 -7.18354 -0.368701 0
M  V30 330 C 33.584 -5.86984 -0.721368 0
M  V30 331 C 32.946 -7.03857 -0.276623 0
M  V30 332 H 29.045 -0.634045 -0.457724 0
M  V30 333 H 31.629 -1.85639 -0.587049 0
M  V30 334 H 29.8 -2.41043 -3.04553 0
M  V30 335 H 31.532 -2.65791 -3.05184 0
M  V30 336 H 28.287 -4.32962 -1.91939 0
M  V30 337 H 28.711 -6.71778 -0.839217 0
M  V30 338 H 33.353 -3.91487 -1.5968 0
M  V30 339 H 31.071 -8.08096 -0.0265122 0
M  V30 340 H 34.657 -5.78329 -0.634531 0
M  V30 341 H 33.537 -7.84077 0.138947 0
M  V30 342 N 31.0401 0.771051 -1.3745 0
M  V30 343 C 32.2681 1.56015 -1.35893 0
M  V30 344 C 32.6831 1.88718 0.0555523 0
M  V30 345 O 32.0401 1.51502 1.01752 0
M  V30 346 C 32.0911 2.87001 -2.19801 0
M  V30 347 O 31.8121 2.557 -3.55738 0
M  V30 348 C 33.3131 3.81228 -2.26231 0
M  V30 349 H 30.5331 0.483317 -0.465453 0
M  V30 350 H 33.0771 0.955611 -1.80799 0
M  V30 351 H 31.2321 3.43877 -1.78402 0
M  V30 352 H 31.6461 3.39584 -3.99729 0
M  V30 353 H 33.1201 4.70139 -2.89263 0
M  V30 354 H 33.5971 4.20409 -1.27093 0
M  V30 355 H 34.2031 3.30281 -2.67945 0
M  V30 356 N 32.5182 1.22032 0.997298 0
M  V30 357 C 33.7672 1.03637 1.73038 0
M  V30 358 C 34.0802 -0.429475 1.90827 0
M  V30 359 O 35.2862 -0.732995 2.61418 0
M  V30 360 C 33.7422 1.80582 3.11317 0
M  V30 361 C 33.3502 3.31387 3.01474 0
M  V30 362 C 35.0942 1.70621 3.88701 0
M  V30 363 C 33.0012 4.00791 4.3488 0
M  V30 364 H 31.9312 0.384179 0.648785 0
M  V30 365 H 34.5822 1.4584 1.11368 0
M  V30 366 H 32.9642 1.31175 3.73643 0
M  V30 367 H 34.1382 3.88155 2.4834 0
M  V30 368 H 32.4532 3.41976 2.37575 0
M  V30 369 H 35.0502 2.19799 4.87434 0
M  V30 370 H 35.3932 0.665823 4.10941 0
M  V30 371 H 35.9262 2.17547 3.33044 0
M  V30 372 H 32.6652 5.05064 4.1784 0
M  V30 373 H 32.1852 3.48811 4.87945 0
M  V30 374 H 33.8642 4.06139 5.03647 0
M  V30 375 N 33.9963 -1.19345 1.0293 0
M  V30 376 C 35.2443 -1.88665 0.724574 0
M  V30 377 C 35.5653 -1.80036 -0.749144 0
M  V30 378 O 34.8353 -1.2111 -1.53978 0
M  V30 379 H 33.4153 -0.698406 0.265025 0
M  V30 380 H 36.0773 -1.44885 1.30362 0
M  V30 381 H 35.1733 -2.94987 1.01926 0
M  V30 382 N 35.4744 -0.807222 -1.35358 0
M  V30 383 C 36.7234 -0.384376 -1.98004 0
M  V30 384 C 37.0364 1.0543 -1.64754 0
M  V30 385 O 38.2424 1.58029 -2.20769 0
M  V30 386 C 36.6984 -0.636326 -3.5423 0
M  V30 387 C 36.3064 -2.08759 -3.96388 0
M  V30 388 C 38.0504 -0.278869 -4.23583 0
M  V30 389 C 35.9574 -2.28525 -5.45463 0
M  V30 390 H 34.8874 -0.139986 -0.740891 0
M  V30 391 H 37.5384 -0.991369 -1.54415 0
M  V30 392 H 35.9204 0.0406256 -3.95979 0
M  V30 393 H 37.0944 -2.8024 -3.6579 0
M  V30 394 H 35.4094 -2.40497 -3.39926 0
M  V30 395 H 38.0064 -0.404599 -5.33167 0
M  V30 396 H 38.3494 0.775012 -4.09022 0
M  V30 397 H 38.8824 -0.909764 -3.87257 0
M  V30 398 H 35.6214 -3.32361 -5.64992 0
M  V30 399 H 35.1414 -1.61569 -5.77629 0
M  V30 400 H 36.8204 -2.10109 -6.11934 0
M  V30 401 N 36.9525 1.47285 -0.560781 0
M  V30 402 C 38.2015 2.01668 -0.035895 0
M  V30 403 C 38.5145 1.44021 1.32353 0
M  V30 404 O 39.7205 1.90088 1.93853 0
M  V30 405 C 38.1765 3.59897 -0.0136659 0
M  V30 406 C 37.7845 4.26536 -1.37006 0
M  V30 407 C 39.5285 4.22017 0.458425 0
M  V30 408 C 37.4355 5.76782 -1.30675 0
M  V30 409 H 36.3655 0.753938 -0.00964879 0
M  V30 410 H 39.0165 1.69243 -0.709166 0
M  V30 411 H 37.3985 3.89301 0.725325 0
M  V30 412 H 38.5725 4.0877 -2.12705 0
M  V30 413 H 36.8875 3.76419 -1.78038 0
M  V30 414 H 39.4845 5.32124 0.524247 0
M  V30 415 H 39.8275 3.89437 1.4712 0
M  V30 416 H 40.3605 3.97159 -0.225818 0
M  V30 417 H 37.0995 6.13988 -2.29564 0
M  V30 418 H 36.6195 5.96875 -0.591622 0
M  V30 419 H 38.2985 6.39063 -1.01033 0
M  V30 420 N 38.4306 0.297415 1.54768 0
M  V30 421 C 39.3786 -0.596051 2.24833 0
M  V30 422 C 40.3726 -1.13992 1.25308 0
M  V30 423 O 41.5786 -1.09098 1.4317 0
M  V30 424 H 37.9536 -0.210814 0.721846 0
M  V30 425 H 39.9246 0.0174667 2.98395 0
M  V30 426 C 38.6736 -1.75818 2.99972 0
M  V30 427 H 37.9966 -1.3489 3.76357 0
M  V30 428 H 39.4366 -2.35949 3.52284 0
M  V30 429 C 37.8956 -2.66014 2.06732 0
M  V30 430 O 38.4256 -3.67009 1.63302 0
M  V30 431 N 36.6316 -2.33669 1.72763 0
M  V30 432 H 36.1786 -1.51586 2.08277 0
M  V30 433 H 36.1366 -2.94285 1.10652 0
M  V30 434 N 39.9087 -1.5758 0.0250728 0
M  V30 435 C 41.3247 -1.56124 -0.331282 0
M  V30 436 C 41.5247 -1.03029 -1.73169 0
M  V30 437 O 40.5807 -0.675215 -2.43305 0
M  V30 438 C 41.8937 -3.00139 -0.183584 0
M  V30 439 C 43.4417 -3.11946 -0.256654 0
M  V30 440 C 43.9167 -4.57793 -0.137792 0
M  V30 441 N 45.4077 -4.6279 -0.194904 0
M  V30 442 C 46.1427 -5.7326 -0.126655 0
M  V30 443 N 45.6387 -6.928 -0.00755288 0
M  V30 444 N 47.4317 -5.61811 -0.180348 0
M  V30 445 H 39.5827 -1.90424 0.94087 0
M  V30 446 H 41.8457 -0.875761 0.362968 0
M  V30 447 H 41.5517 -3.4292 0.780927 0
M  V30 448 H 41.4257 -3.64899 -0.955448 0
M  V30 449 H 43.8127 -2.69079 -1.21162 0
M  V30 450 H 43.8937 -2.49915 0.545517 0
M  V30 451 H 43.5377 -5.01339 0.813739 0
M  V30 452 H 43.4677 -5.17798 -0.958775 0
M  V30 453 H 45.9587 -3.76807 -0.287267 0
M  V30 454 H 46.2717 -7.72791 0.0379428 0
M  V30 455 H 44.6167 -6.94995 0.0271731 0
M  V30 456 H 47.8077 -4.6731 -0.271767 0
M  V30 457 H 47.9807 -6.47882 -0.123697 0
M  V30 458 N 41.3868 0.248026 -1.55636 0
M  V30 459 C 42.6328 0.97767 -1.77678 0
M  V30 460 C 42.9658 1.85016 -0.590135 0
M  V30 461 O 42.2408 1.90095 0.411611 0
M  V30 462 C 42.5238 1.83914 -3.09593 0
M  V30 463 C 42.3768 0.99491 -4.38659 0
M  V30 464 C 43.6958 2.82183 -3.37729 0
M  V30 465 H 40.8148 0.354005 -0.646413 0
M  V30 466 H 43.4568 0.248253 -1.88371 0
M  V30 467 H 41.6068 2.46104 -3.00608 0
M  V30 468 H 43.2788 0.391789 -4.59633 0
M  V30 469 H 41.5218 0.299231 -4.32767 0
M  V30 470 H 42.1928 1.63145 -5.2734 0
M  V30 471 H 44.6688 2.30129 -3.4667 0
M  V30 472 H 43.5448 3.39582 -4.31249 0
M  V30 473 H 43.8058 3.58588 -2.58586 0
M  V30 474 N 42.8649 1.48995 0.513639 0
M  V30 475 C 44.1109 1.58076 1.27042 0
M  V30 476 C 44.4439 0.261026 1.92438 0
M  V30 477 O 43.7189 -0.734393 1.80103 0
M  V30 478 C 44.0019 2.73091 2.34719 0
M  V30 479 C 43.8549 4.14821 1.73907 0
M  V30 480 C 45.1739 2.83796 3.36375 0
M  V30 481 H 42.2929 0.575391 0.460536 0
M  V30 482 H 44.9349 1.81232 0.570516 0
M  V30 483 H 43.0849 2.53479 2.94416 0
M  V30 484 H 44.7569 4.45917 1.18135 0
M  V30 485 H 42.9999 4.21058 1.0437 0
M  V30 486 H 43.6709 4.91147 2.51949 0
M  V30 487 H 46.1469 3.01611 2.86653 0
M  V30 488 H 45.0229 3.65971 4.09093 0
M  V30 489 H 45.2839 1.92624 3.9793 0
M  V30 490 N 44.343 -0.763751 1.37857 0
M  V30 491 C 45.275 -1.88664 1.30148 0
M  V30 492 C 46.288 -1.61365 0.215685 0
M  V30 493 O 47.477 -1.72134 0.472459 0
M  V30 494 C 44.577 -3.24075 0.991396 0
M  V30 495 C 43.75 -3.78958 2.18426 0
M  V30 496 C 42.809 -4.92862 1.8432 0
M  V30 497 O 41.835 -5.08027 2.56704 0
M  V30 498 N 43.037 -5.75071 0.792081 0
M  V30 499 H 45.802 -1.95791 2.26905 0
M  V30 500 H 43.363 -0.943226 1.31586 0
M  V30 501 H 45.355 -3.97804 0.743935 0
M  V30 502 H 43.925 -3.12399 0.112122 0
M  V30 503 H 43.145 -2.96913 2.59299 0
M  V30 504 H 44.433 -4.12357 2.98058 0
M  V30 505 H 43.831 -5.65375 0.191595 0
M  V30 506 H 42.388 -6.48991 0.60449 0
M  V30 507 N 45.8211 -1.22559 -0.990812 0
M  V30 508 C 46.7511 -1.0218 -2.09956 0
M  V30 509 C 47.7321 0.0579394 -1.70001 0
M  V30 510 O 48.9171 -0.104684 -1.93918 0
M  V30 511 C 46.0471 -0.601023 -3.4206 0
M  V30 512 C 45.0011 -1.62694 -3.95872 0
M  V30 513 C 44.3271 -1.06193 -5.24049 0
M  V30 514 C 45.6271 -3.01743 -4.2632 0
M  V30 515 H 47.3211 -1.94916 -2.27262 0
M  V30 516 H 44.8671 -0.938566 -1.09211 0
M  V30 517 H 46.8201 -0.445561 -4.19038 0
M  V30 518 H 45.5441 0.362005 -3.24588 0
M  V30 519 H 44.2031 -1.77021 -3.21028 0
M  V30 520 H 43.8511 -0.0901903 -5.02919 0
M  V30 521 H 43.5511 -1.74732 -5.61019 0
M  V30 522 H 45.0751 -0.918092 -6.03658 0
M  V30 523 H 46.4891 -2.90777 -4.94087 0
M  V30 524 H 44.8861 -3.67425 -4.74467 0
M  V30 525 H 45.9561 -3.51518 -3.34011 0
M  V30 526 N 47.2992 1.18797 -1.03562 0
M  V30 527 C 48.2292 2.24472 -0.643019 0
M  V30 528 C 49.2102 1.66433 0.351283 0
M  V30 529 O 50.3952 1.92803 0.232505 0
M  V30 530 C 47.5252 3.473 4.24935e-05 0
M  V30 531 C 46.4792 4.18055 -0.917257 0
M  V30 532 C 45.8052 5.34519 -0.138941 0
M  V30 533 C 47.1052 4.72109 -2.23407 0
M  V30 534 H 48.7992 2.57566 -1.52643 0
M  V30 535 H 46.3452 1.23806 -0.735394 0
M  V30 536 H 48.2982 4.20426 0.286383 0
M  V30 537 H 47.0222 3.13424 0.918299 0
M  V30 538 H 45.6812 3.46821 -1.1879 0
M  V30 539 H 45.3292 4.96891 0.781562 0
M  V30 540 H 45.0292 5.82794 -0.750005 0
M  V30 541 H 46.5532 6.10438 0.1405 0
M  V30 542 H 47.9672 5.36955 -2.00879 0
M  V30 543 H 46.3642 5.30897 -2.79765 0
M  V30 544 H 47.4342 3.89807 -2.88407 0
M  V30 545 N 48.7773 0.814389 1.34928 0
M  V30 546 C 50.0263 0.394871 1.97797 0
M  V30 547 C 50.3393 -1.04555 1.65311 0
M  V30 548 O 51.5453 -1.56856 2.21604 0
M  V30 549 C 50.0013 0.655103 3.53888 0
M  V30 550 C 49.6093 2.10858 3.95276 0
M  V30 551 C 51.3533 0.301329 4.23429 0
M  V30 552 C 49.2603 2.31415 5.44244 0
M  V30 553 H 48.1903 0.143913 0.740139 0
M  V30 554 H 50.8413 0.999544 1.53888 0
M  V30 555 H 49.2233 -0.0196253 3.95995 0
M  V30 556 H 50.3973 2.82176 3.64298 0
M  V30 557 H 48.7123 2.42297 3.38646 0
M  V30 558 H 51.3093 0.432869 5.32945 0
M  V30 559 H 51.6523 -0.75331 4.09428 0
M  V30 560 H 52.1853 0.930288 3.86769 0
M  V30 561 H 48.9243 3.35353 5.63222 0
M  V30 562 H 48.4443 1.6463 5.76764 0
M  V30 563 H 50.1233 2.13352 6.10811 0
M  V30 564 N 50.2554 -1.46986 0.568584 0
M  V30 565 C 51.5044 -2.01646 0.0465894 0
M  V30 566 C 51.8174 -1.44721 -1.31587 0
M  V30 567 O 53.0234 -1.91113 -1.92842 0
M  V30 568 C 51.4794 -3.59885 0.032752 0
M  V30 569 C 51.0874 -4.25804 1.39266 0
M  V30 570 C 52.8314 -4.22255 -0.436038 0
M  V30 571 C 50.7384 -5.76081 1.33732 0
M  V30 572 H 49.6684 -0.753876 0.013647 0
M  V30 573 H 52.3194 -1.68864 0.718131 0
M  V30 574 H 50.7014 -3.8968 -0.704669 0
M  V30 575 H 51.8754 -4.07637 2.1487 0
M  V30 576 H 50.1904 -3.7547 1.80032 0
M  V30 577 H 52.7874 -5.32394 -0.49602 0
M  V30 578 H 53.1304 -3.90212 -1.45053 0
M  V30 579 H 53.6634 -3.97033 0.246877 0
M  V30 580 H 50.4024 -6.12761 2.32817 0
M  V30 581 H 49.9224 -5.96553 0.623267 0
M  V30 582 H 51.6014 -6.38518 1.0442 0
M  V30 583 N 51.7335 -0.305618 -1.54608 0
M  V30 584 C 52.9585 0.307562 -2.05107 0
M  V30 585 C 53.3835 1.46385 -1.18123 0
M  V30 586 O 52.7415 1.8034 -0.186324 0
M  V30 587 C 52.7895 0.73704 -3.52987 0
M  V30 588 O 51.8935 1.84134 -3.6901 0
M  V30 589 H 51.2345 0.0589143 -0.661381 0
M  V30 590 H 53.7645 -0.448807 -1.99617 0
M  V30 591 H 53.7745 1.02459 -3.94925 0
M  V30 592 H 52.4495 -0.108773 -4.15758 0
M  V30 593 H 51.0265 1.55398 -3.38978 0
M  V30 594 N 53.2116 1.57565 -0.0334293 0
M  V30 595 C 54.4416 1.95996 0.653398 0
M  V30 596 C 54.8496 0.908749 1.65947 0
M  V30 597 O 54.1926 -0.117471 1.83324 0
M  V30 598 C 54.2546 3.30589 1.41249 0
M  V30 599 C 53.9186 4.53503 0.564263 0
M  V30 600 C 54.9156 5.19647 -0.16225 0
M  V30 601 C 52.6006 4.99801 0.500398 0
M  V30 602 C 54.5946 6.30412 -0.941255 0
M  V30 603 C 52.2816 6.10448 -0.282308 0
M  V30 604 C 53.2796 6.75612 -1.00184 0
M  V30 605 O 52.9676 7.84134 -1.77171 0
M  V30 606 H 52.6996 0.65027 0.184728 0
M  V30 607 H 55.2536 2.05199 -0.0907841 0
M  V30 608 H 53.4836 3.17888 2.20191 0
M  V30 609 H 55.1726 3.53892 1.98784 0
M  V30 610 H 55.9386 4.84846 -0.12227 0
M  V30 611 H 51.8176 4.48883 1.05002 0
M  V30 612 H 55.3616 6.81208 -1.50339 0
M  V30 613 H 51.2586 6.44686 -0.323989 0
M  V30 614 H 52.0266 8.00822 -1.69194 0
M  V30 615 N 54.6897 -0.239769 1.55765 0
M  V30 616 C 55.9367 -0.966801 1.7793 0
M  V30 617 C 56.2647 -1.85046 0.599015 0
M  V30 618 O 55.5197 -1.91197 -0.417395 0
M  V30 619 C 55.8187 -1.852 3.05672 0
M  V30 620 C 55.4847 -1.1231 4.36689 0
M  V30 621 C 54.1467 -0.921689 4.72291 0
M  V30 622 C 56.4987 -0.607019 5.17653 0
M  V30 623 C 53.8267 -0.191996 5.86386 0
M  V30 624 C 56.1787 0.109241 6.32506 0
M  V30 625 C 54.8427 0.322073 6.66723 0
M  V30 626 H 54.1127 -0.353778 0.651093 0
M  V30 627 H 56.7597 -0.23634 1.90036 0
M  V30 628 H 55.0647 -2.64975 2.8861 0
M  V30 629 H 56.7617 -2.41635 3.20021 0
M  V30 630 H 53.3517 -1.29004 4.08725 0
M  V30 631 H 57.5357 -0.750153 4.90598 0
M  V30 632 H 52.7917 -0.0166949 6.11398 0
M  V30 633 H 56.9657 0.516737 6.9448 0
M  V30 634 H 54.5927 0.88944 7.54979 0
M  V30 635 N 56.1678 -1.49265 -0.50573 0
M  V30 636 C 57.4138 -1.58748 -1.26202 0
M  V30 637 C 57.7468 -0.271227 -1.92297 0
M  V30 638 O 57.0218 0.724831 -1.80489 0
M  V30 639 C 57.3048 -2.74332 -2.33268 0
M  V30 640 C 57.1578 -4.15737 -1.71705 0
M  V30 641 C 58.4768 -2.85576 -3.34865 0
M  V30 642 H 55.5958 -0.577826 -0.457478 0
M  V30 643 H 58.2378 -1.81532 -0.560897 0
M  V30 644 H 56.3878 -2.55036 -2.93068 0
M  V30 645 H 58.0598 -4.46537 -1.15769 0
M  V30 646 H 56.3028 -4.21605 -1.02135 0
M  V30 647 H 56.9738 -4.92477 -2.49341 0
M  V30 648 H 59.4498 -3.03127 -2.8505 0
M  V30 649 H 58.3258 -3.68135 -4.07146 0
M  V30 650 H 58.5868 -1.94732 -3.96903 0
M  V30 651 N 57.6459 0.756429 -1.3826 0
M  V30 652 C 58.8939 1.51248 -1.34047 0
M  V30 653 C 59.2149 1.94875 0.0698372 0
M  V30 654 O 58.4849 1.67436 1.01696 0
M  V30 655 H 57.0649 0.561018 -0.493222 0
M  V30 656 H 59.7269 0.899347 -1.7291 0
M  V30 657 H 58.8229 2.40472 -1.98947 0
M  V30 658 N 59.124 1.23083 0.984299 0
M  V30 659 C 60.37 1.07221 1.72845 0
M  V30 660 C 60.725 -0.387453 1.88458 0
M  V30 661 O 60.018 -1.28309 1.42293 0
M  V30 662 C 60.212 1.72673 3.1292 0
M  V30 663 C 60.041 3.24853 3.10967 0
M  V30 664 C 58.811 3.93998 3.16376 0
M  V30 665 C 61.009 4.21674 2.94441 0
M  V30 666 N 58.991 5.33192 3.04268 0
M  V30 667 C 60.362 5.47756 2.90453 0
M  V30 668 C 62.417 4.12457 2.78897 0
M  V30 669 C 61.12 6.6568 2.72512 0
M  V30 670 C 63.146 5.3004 2.62319 0
M  V30 671 C 62.508 6.55046 2.59026 0
M  V30 672 H 58.607 0.44685 0.641755 0
M  V30 673 H 61.191 1.55753 1.16829 0
M  V30 674 H 59.362 1.26679 3.67161 0
M  V30 675 H 61.094 1.49824 3.75945 0
M  V30 676 H 57.849 3.45052 3.24401 0
M  V30 677 H 58.273 6.06157 3.015 0
M  V30 678 H 62.915 3.16588 2.80235 0
M  V30 679 H 60.633 7.61689 2.69919 0
M  V30 680 H 64.219 5.24747 2.5126 0
M  V30 681 H 63.099 7.44498 2.46357 0
M  V30 682 N 60.6021 -1.18246 1.0419 0
M  V30 683 C 61.8481 -1.88536 0.747122 0
M  V30 684 C 62.1811 -1.80223 -0.723409 0
M  V30 685 O 61.4561 -1.20337 -1.52804 0
M  V30 686 C 61.7391 -3.38968 1.21544 0
M  V30 687 C 61.5921 -3.56084 2.74816 0
M  V30 688 C 62.9111 -4.32648 0.806482 0
M  V30 689 H 60.0301 -0.684619 0.272883 0
M  V30 690 H 62.6721 -1.39113 1.29413 0
M  V30 691 H 60.8221 -3.8119 0.750081 0
M  V30 692 H 62.4941 -3.22946 3.29399 0
M  V30 693 H 60.7371 -2.98699 3.14582 0
M  V30 694 H 61.4081 -4.61639 3.02644 0
M  V30 695 H 63.8841 -3.98211 1.20695 0
M  V30 696 H 62.7601 -5.36462 1.1619 0
M  V30 697 H 63.0211 -4.41146 -0.29029 0
M  V30 698 N 62.0802 -0.821533 -1.34494 0
M  V30 699 C 63.3272 -0.408946 -1.98328 0
M  V30 700 C 63.6552 1.02764 -1.65136 0
M  V30 701 O 62.9102 1.73026 -0.914349 0
M  V30 702 C 63.2092 -0.556512 -3.53041 0
M  V30 703 C 62.8752 -1.95861 -4.0614 0
M  V30 704 C 61.5372 -2.34217 -4.20352 0
M  V30 705 C 63.8892 -2.87523 -4.34718 0
M  V30 706 C 61.2172 -3.63572 -4.6047 0
M  V30 707 C 63.5692 -4.1634 -4.76281 0
M  V30 708 C 62.2332 -4.54675 -4.88699 0
M  V30 709 H 61.5032 -0.149644 -0.725732 0
M  V30 710 H 64.1502 -1.04521 -1.6046 0
M  V30 711 H 62.4552 0.163148 -3.9146 0
M  V30 712 H 64.1522 -0.217826 -4.00408 0
M  V30 713 H 60.7422 -1.65066 -3.95539 0
M  V30 714 H 64.9262 -2.59133 -4.23277 0
M  V30 715 H 60.1822 -3.93101 -4.68275 0
M  V30 716 H 64.3562 -4.87455 -4.97354 0
M  V30 717 H 61.9832 -5.54959 -5.19542 0
M  V30 718 N 63.5583 1.46682 -0.576371 0
M  V30 719 C 64.4883 2.33028 0.148397 0
M  V30 720 C 65.4693 1.44961 0.889956 0
M  V30 721 O 66.6543 1.73789 0.866662 0
M  V30 722 C 63.7843 3.27117 1.1667 0
M  V30 723 C 62.7383 4.24575 0.540386 0
M  V30 724 C 62.0643 5.08126 1.6647 0
M  V30 725 C 63.3643 5.19722 -0.518331 0
M  V30 726 H 65.0583 2.93875 -0.572509 0
M  V30 727 H 62.6043 1.41315 -0.276768 0
M  V30 728 H 64.5573 3.86374 1.68204 0
M  V30 729 H 63.2813 2.64364 1.9178 0
M  V30 730 H 61.9403 3.66571 0.0461769 0
M  V30 731 H 61.5883 4.41762 2.40531 0
M  V30 732 H 61.2883 5.74122 1.25131 0
M  V30 733 H 62.8123 5.70246 2.18293 0
M  V30 734 H 64.2263 5.73232 -0.0883058 0
M  V30 735 H 62.6233 5.94026 -0.851679 0
M  V30 736 H 63.6933 4.64037 -1.40703 0
M  V30 737 N 65.0364 0.313813 1.54444 0
M  V30 738 C 65.9864 -0.571898 2.20711 0
M  V30 739 C 66.9704 -1.08913 1.18435 0
M  V30 740 O 68.1624 -1.02777 1.44104 0
M  V30 741 C 65.2914 -1.7371 2.96108 0
M  V30 742 C 64.3774 -1.23522 4.05713 0
M  V30 743 N 64.7684 -0.452288 5.03774 0
M  V30 744 C 63.0664 -1.51482 4.19487 0
M  V30 745 C 63.7674 -0.183438 5.81411 0
M  V30 746 N 62.7434 -0.766845 5.38164 0
M  V30 747 H 66.5454 0.0336802 2.93881 0
M  V30 748 H 64.0594 0.119192 1.61962 0
M  V30 749 H 66.0564 -2.38329 3.4206 0
M  V30 750 H 64.7164 -2.34625 2.24458 0
M  V30 751 H 65.7274 -0.0960131 5.17811 0
M  V30 752 H 62.4044 -2.13053 3.59047 0
M  V30 753 H 63.7944 0.446216 6.70417 0
M  V30 754 N 66.5145 -1.57545 0.0417849 0
M  V30 755 C 67.4245 -2.14451 -0.951213 0
M  V30 756 C 68.4405 -1.09992 -1.34825 0
M  V30 757 O 69.6165 -1.42114 -1.42708 0
M  V30 758 C 66.6815 -2.67063 -2.21084 0
M  V30 759 C 65.7425 -3.86284 -1.87304 0
M  V30 760 C 64.9755 -4.36378 -3.07261 0
M  V30 761 O 65.1985 -3.85587 -4.20332 0
M  V30 762 O 64.1325 -5.28077 -2.88822 0
M  V30 763 H 67.9585 -2.99601 -0.497287 0
M  V30 764 H 65.5435 -1.48317 -0.179567 0
M  V30 765 H 67.4255 -3.00914 -2.95006 0
M  V30 766 H 66.1005 -1.84989 -2.65633 0
M  V30 767 H 65.0075 -3.57338 -1.10727 0
M  V30 768 H 66.3405 -4.6956 -1.47562 0
M  V30 769 N 67.9926 0.231505 -1.5589 0
M  V30 770 C 68.9396 1.28682 -1.91598 0
M  V30 771 C 69.9096 1.47071 -0.771974 0
M  V30 772 O 71.0946 1.60802 -1.027 0
M  V30 773 C 68.2346 2.6342 -2.22944 0
M  V30 774 C 67.3476 2.52912 -3.50228 0
M  V30 775 C 66.4826 3.80106 -3.7107 0
M  V30 776 C 65.5216 3.64279 -4.91902 0
M  V30 777 N 64.6586 4.834 -5.09184 0
M  V30 778 H 69.4986 0.975305 -2.81588 0
M  V30 779 H 67.0356 0.470299 -1.39379 0
M  V30 780 H 68.9936 3.41869 -2.39126 0
M  V30 781 H 67.6236 2.92687 -1.36139 0
M  V30 782 H 66.6756 1.6595 -3.42294 0
M  V30 783 H 67.9876 2.37133 -4.38827 0
M  V30 784 H 67.1416 4.66999 -3.87295 0
M  V30 785 H 65.8806 3.98799 -2.80733 0
M  V30 786 H 64.8856 2.7577 -4.75637 0
M  V30 787 H 66.1106 3.47067 -5.83714 0
M  V30 788 H 64.0566 5.02425 -4.21788 0
M  V30 789 H 63.9736 4.70311 -5.91898 0
M  V30 790 H 65.2416 5.71747 -5.29835 0
M  V30 791 N 69.4707 1.49531 0.497807 0
M  V30 792 C 70.4337 1.65916 1.58128 0
M  V30 793 C 71.4337 0.530825 1.51786 0
M  V30 794 O 72.6237 0.797342 1.54881 0
M  V30 795 C 69.7557 1.65951 2.9778 0
M  V30 796 H 70.9487 2.62556 1.44929 0
M  V30 797 H 68.5017 1.38611 0.722275 0
M  V30 798 H 69.2367 0.709065 3.16453 0
M  V30 799 H 69.0217 2.47897 3.03792 0
M  V30 800 H 70.5117 1.80673 3.76493 0
M  V30 801 N 70.9488 -0.749086 1.3866 0
M  V30 802 C 72.1788 -1.53611 1.38157 0
M  V30 803 C 72.5868 -1.89177 -0.0293595 0
M  V30 804 O 71.9298 -1.53606 -1.00752 0
M  V30 805 C 71.9918 -2.86087 2.17702 0
M  V30 806 C 71.6558 -2.73034 3.66472 0
M  V30 807 C 72.6528 -2.42526 4.59866 0
M  V30 808 C 70.3378 -2.90345 4.09884 0
M  V30 809 C 72.3318 -2.29492 5.94653 0
M  V30 810 C 70.0188 -2.7693 5.4475 0
M  V30 811 C 71.0168 -2.46547 6.36949 0
M  V30 812 O 70.7048 -2.33199 7.69333 0
M  V30 813 H 70.4368 -0.481773 0.474205 0
M  V30 814 H 72.9908 -0.934465 1.82912 0
M  V30 815 H 71.2208 -3.48458 1.67672 0
M  V30 816 H 72.9098 -3.47625 2.09551 0
M  V30 817 H 73.6758 -2.28816 4.27631 0
M  V30 818 H 69.5548 -3.1299 3.38464 0
M  V30 819 H 73.0988 -2.05698 6.66584 0
M  V30 820 H 68.9958 -2.90215 5.76581 0
M  V30 821 H 69.7638 -2.48376 7.79905 0
M  V30 822 N 72.4269 -1.23603 -0.977757 0
M  V30 823 C 73.3589 -0.977369 -2.07317 0
M  V30 824 C 74.3719 0.0495845 -1.62724 0
M  V30 825 O 75.5609 -0.186261 -1.77526 0
M  V30 826 C 72.6609 -0.451216 -3.35883 0
M  V30 827 C 71.8339 -1.53896 -4.09432 0
M  V30 828 C 70.8929 -1.01721 -5.16274 0
M  V30 829 O 69.9189 -1.70676 -5.43009 0
M  V30 830 N 71.1209 0.153594 -5.80297 0
M  V30 831 H 73.8859 -1.92047 -2.30082 0
M  V30 832 H 71.4469 -1.14497 -1.14465 0
M  V30 833 H 73.4389 -0.0871574 -4.04606 0
M  V30 834 H 72.0089 0.397368 -3.10064 0
M  V30 835 H 71.2289 -2.07566 -3.35127 0
M  V30 836 H 72.5169 -2.27037 -4.55337 0
M  V30 837 H 71.9149 0.730323 -5.60966 0
M  V30 838 H 70.4719 0.458892 -6.50183 0
M  V30 839 N 73.905 1.17692 -1.04816 0
M  V30 840 C 75.151 1.88137 -0.75711 0
M  V30 841 C 75.484 1.80604 0.713841 0
M  V30 842 O 74.759 1.21146 1.52164 0
M  V30 843 C 75.042 3.38318 -1.2334 0
M  V30 844 C 74.895 3.54622 -2.76701 0
M  V30 845 C 76.214 4.32214 -0.829415 0
M  V30 846 H 73.333 0.683163 -0.27651 0
M  V30 847 H 75.975 1.38424 -1.30149 0
M  V30 848 H 74.125 3.80787 -0.770286 0
M  V30 849 H 75.797 3.21194 -3.31107 0
M  V30 850 H 74.04 2.97026 -3.16161 0
M  V30 851 H 74.711 4.60028 -3.05088 0
M  V30 852 H 77.187 3.97565 -1.22805 0
M  V30 853 H 76.063 5.35838 -1.19033 0
M  V30 854 H 76.324 4.41294 0.266891 0
M  V30 855 N 75.3831 0.828654 1.34056 0
M  V30 856 C 76.7991 0.515135 1.51058 0
M  V30 857 C 76.9991 -0.959581 1.77184 0
M  V30 858 O 76.0551 -1.74382 1.82612 0
M  V30 859 C 77.3681 1.37963 2.67183 0
M  V30 860 C 78.9161 1.37735 2.81066 0
M  V30 861 C 79.3911 2.22645 4.00241 0
M  V30 862 N 80.8821 2.203 4.07458 0
M  V30 863 C 81.6171 2.82744 4.98842 0
M  V30 864 N 81.1131 3.54201 5.9541 0
M  V30 865 N 82.9061 2.72268 4.91759 0
M  V30 866 H 75.0571 1.78343 1.15358 0
M  V30 867 H 77.3201 0.760304 0.566252 0
M  V30 868 H 77.0261 2.42714 2.54525 0
M  V30 869 H 76.9001 1.0484 3.62338 0
M  V30 870 H 79.2871 0.337593 2.93163 0
M  V30 871 H 79.3681 1.74859 1.86703 0
M  V30 872 H 79.0121 3.26674 3.88905 0
M  V30 873 H 78.9421 1.82869 4.93829 0
M  V30 874 H 81.4331 1.68327 3.38341 0
M  V30 875 H 81.7461 3.9908 6.61782 0
M  V30 876 H 80.0911 3.58308 5.95517 0
M  V30 877 H 83.2821 2.16014 4.15278 0
M  V30 878 H 83.4551 3.21219 5.62781 0
M  V30 879 N 76.8612 -1.46375 0.584142 0
M  V30 880 C 78.1382 -1.956 0.0033388 0
M  V30 881 C 78.5182 -1.52679 -1.45782 0
M  V30 882 O 77.8662 -0.77816 -2.14842 0
M  V30 883 C 78.0762 -3.48551 0.176891 0
M  V30 884 C 79.4242 -4.24576 0.0454609 0
M  V30 885 O 80.4482 -3.56043 0.105801 0
M  V30 886 O 79.3072 -5.46427 -0.0890376 0
M  V30 887 H 76.4012 -0.825547 -0.0490066 0
M  V30 888 H 78.9472 -1.56652 0.65256 0
M  V30 889 H 77.7192 -3.72683 1.1926 0
M  V30 890 H 77.3422 -3.94332 -0.508695 0
M  V30 891 N 78.3393 -0.321999 -1.54275 0
M  V30 892 C 79.5673 0.283052 -2.04955 0
M  V30 893 C 79.9823 1.45904 -1.19823 0
M  V30 894 O 79.3393 1.81063 -0.228545 0
M  V30 895 C 79.3903 0.719028 -3.54277 0
M  V30 896 O 79.1113 -0.410175 -4.36176 0
M  V30 897 C 80.6123 1.38705 -4.21041 0
M  V30 898 H 77.8323 0.0584616 -0.668448 0
M  V30 899 H 80.3763 -0.467734 -1.99079 0
M  V30 900 H 78.5313 1.41979 -3.60445 0
M  V30 901 H 78.9453 -0.0669416 -5.24457 0
M  V30 902 H 80.4193 1.64306 -5.2698 0
M  V30 903 H 80.8963 2.33385 -3.72059 0
M  V30 904 H 81.5023 0.728906 -4.19007 0
M  V30 905 N 79.8174 1.5752 -0.0501392 0
M  V30 906 C 80.7804 2.1037 0.909786 0
M  V30 907 C 81.7804 1.02308 1.24056 0
M  V30 908 O 82.9704 1.28385 1.17741 0
M  V30 909 C 80.1024 2.58708 2.21998 0
M  V30 910 H 81.2954 2.96479 0.451665 0
M  V30 911 H 78.8484 1.55038 0.198248 0
M  V30 912 H 79.5834 1.75989 2.72394 0
M  V30 913 H 79.3684 3.37675 1.99295 0
M  V30 914 H 80.8584 2.99747 2.9076 0
M  V30 915 N 81.2955 -0.223234 1.56011 0
M  V30 916 C 82.5445 -0.945912 1.78144 0
M  V30 917 C 82.8575 -1.85567 0.618396 0
M  V30 918 O 84.0635 -2.61688 0.723318 0
M  V30 919 C 82.5195 -1.73216 3.15475 0
M  V30 920 C 82.1275 -0.868619 4.39499 0
M  V30 921 C 83.8715 -2.44615 3.46935 0
M  V30 922 C 81.7785 -1.65212 5.67855 0
M  V30 923 H 80.7085 -0.356929 0.664167 0
M  V30 924 H 83.3595 -0.199845 1.82409 0
M  V30 925 H 81.7415 -2.52107 3.05382 0
M  V30 926 H 82.9155 -0.120366 4.60643 0
M  V30 927 H 81.2305 -0.26683 4.15544 0
M  V30 928 H 83.8275 -3.03732 4.40058 0
M  V30 929 H 84.1705 -3.17417 2.69355 0
M  V30 930 H 84.7035 -1.72715 3.58349 0
M  V30 931 H 81.4425 -0.967407 6.48322 0
M  V30 932 H 80.9625 -2.37503 5.50774 0
M  V30 933 H 82.6415 -2.21322 6.07968 0
M  V30 934 N 82.7736 -1.49793 -0.48987 0
M  V30 935 C 83.6836 -1.70036 -1.61632 0
M  V30 936 C 84.6996 -0.583102 -1.63939 0
M  V30 937 O 85.8756 -0.859169 -1.82154 0
M  V30 938 C 82.9406 -1.77277 -2.97949 0
M  V30 939 C 82.0016 -3.00918 -3.06181 0
M  V30 940 C 81.2346 -3.07804 -4.35996 0
M  V30 941 O 81.4576 -2.21982 -5.25433 0
M  V30 942 O 80.3916 -4.00369 -4.49431 0
M  V30 943 H 84.2176 -2.65486 -1.47482 0
M  V30 944 H 81.8026 -1.33666 -0.667362 0
M  V30 945 H 83.6846 -1.84329 -3.78947 0
M  V30 946 H 82.3596 -0.850076 -3.12339 0
M  V30 947 H 81.2666 -2.99377 -2.2433 0
M  V30 948 H 82.5996 -3.92704 -2.96723 0
M  V30 949 N 84.2517 0.741722 -1.39055 0
M  V30 950 C 85.4767 1.53607 -1.39354 0
M  V30 951 C 85.9017 1.88096 0.0116905 0
M  V30 952 O 85.2597 1.5143 0.996924 0
M  V30 953 C 85.3077 2.80441 -2.26682 0
M  V30 954 O 84.4117 3.76088 -1.69208 0
M  V30 955 H 83.7527 0.464142 -0.474835 0
M  V30 956 H 86.2827 0.915665 -1.82967 0
M  V30 957 H 86.2927 3.29246 -2.40959 0
M  V30 958 H 84.9677 2.5467 -3.2881 0
M  V30 959 H 83.5447 3.34833 -1.64138 0
M  V30 960 N 85.7298 1.2412 0.971189 0
M  V30 961 C 86.9548 1.10667 1.75407 0
M  V30 962 C 87.3798 -0.337048 1.85056 0
M  V30 963 O 86.7378 -1.24396 1.31892 0
M  V30 964 C 86.7858 1.74726 3.15441 0
M  V30 965 O 85.8898 1.01566 3.99697 0
M  V30 966 H 85.2308 0.387341 0.539317 0
M  V30 967 H 87.7608 1.64358 1.2185 0
M  V30 968 H 87.7708 1.80341 3.6598 0
M  V30 969 H 86.4458 2.79773 3.07734 0
M  V30 970 H 85.0228 1.03713 3.58187 0
M  V30 971 N 87.2079 -1.17134 1.05439 0
M  V30 972 C 88.4539 -1.87733 0.767077 0
M  V30 973 C 88.7869 -1.8098 -0.704253 0
M  V30 974 O 88.0619 -1.21951 -1.5152 0
M  V30 975 C 88.3449 -3.37659 1.25133 0
M  V30 976 C 88.1979 -3.53149 2.78578 0
M  V30 977 C 89.5169 -4.31768 0.852324 0
M  V30 978 H 86.6359 -0.681687 0.280129 0
M  V30 979 H 89.2779 -1.37732 1.30881 0
M  V30 980 H 87.4279 -3.80373 0.790469 0
M  V30 981 H 89.0999 -3.19434 3.32806 0
M  V30 982 H 87.3429 -2.95345 3.17732 0
M  V30 983 H 88.0139 -4.58403 3.07523 0
M  V30 984 H 90.4899 -3.96909 1.24911 0
M  V30 985 H 89.3659 -5.35199 1.21873 0
M  V30 986 H 89.6269 -4.41429 -0.243485 0
M  V30 987 N 88.686 -0.835752 -1.33615 0
M  V30 988 C 89.932 -0.430596 -1.98176 0
M  V30 989 C 90.265 1.00684 -1.66061 0
M  V30 990 O 89.54 1.70339 -0.938877 0
M  V30 991 C 89.823 -0.648065 -3.5422 0
M  V30 992 C 89.676 -2.13255 -3.96033 0
M  V30 993 C 90.995 -0.0922113 -4.40003 0
M  V30 994 H 88.114 -0.157924 -0.719881 0
M  V30 995 H 90.756 -1.05069 -1.58305 0
M  V30 996 H 88.906 -0.120237 -3.88314 0
M  V30 997 H 90.578 -2.725 -3.72211 0
M  V30 998 H 88.821 -2.61823 -3.45878 0
M  V30 999 H 89.492 -2.23547 -5.04708 0
M  V30 1000 H 91.968 -0.543343 -4.12537 0
M  V30 1001 H 90.844 -0.274083 -5.48215 0
M  V30 1002 H 91.105 1.00378 -4.30554 0
M  V30 1003 N 90.1641 1.46063 -0.591896 0
M  V30 1004 C 91.3921 2.06717 -0.0868936 0
M  V30 1005 C 91.8071 1.43916 1.22203 0
M  V30 1006 O 91.1641 0.547698 1.74088 0
M  V30 1007 C 91.2151 3.6142 0.0758725 0
M  V30 1008 O 90.9361 4.21874 -1.18126 0
M  V30 1009 C 92.4371 4.39025 0.61416 0
M  V30 1010 H 89.6571 0.668162 -0.0616518 0
M  V30 1011 H 92.2011 1.8755 -0.815175 0
M  V30 1012 H 90.3561 3.79983 0.754413 0
M  V30 1013 H 90.7701 5.14861 -1.00092 0
M  V30 1014 H 92.2441 5.4783 0.677193 0
M  V30 1015 H 92.7211 4.07708 1.63312 0
M  V30 1016 H 93.3271 4.2529 -0.0298142 0
M  V30 1017 N 91.6422 0.330177 1.54103 0
M  V30 1018 C 92.5892 -0.532762 2.24567 0
M  V30 1019 C 93.5592 -1.10635 1.23892 0
M  V30 1020 O 94.7442 -1.14546 1.5259 0
M  V30 1021 C 91.8842 -1.6845 3.01195 0
M  V30 1022 C 90.9972 -1.13951 4.167 0
M  V30 1023 C 90.1322 -2.25746 4.80845 0
M  V30 1024 C 89.1712 -1.6853 5.88442 0
M  V30 1025 N 88.3082 -2.74014 6.46421 0
M  V30 1026 H 93.1482 0.0746905 2.97906 0
M  V30 1027 H 90.6852 0.048632 1.4702 0
M  V30 1028 H 92.6432 -2.36234 3.43874 0
M  V30 1029 H 91.2732 -2.26314 2.30178 0
M  V30 1030 H 90.3252 -0.35301 3.78758 0
M  V30 1031 H 91.6372 -0.680892 4.94131 0
M  V30 1032 H 90.7912 -3.01422 5.26526 0
M  V30 1033 H 89.5302 -2.74947 4.0281 0
M  V30 1034 H 88.5352 -0.913543 5.42157 0
M  V30 1035 H 89.7602 -1.20198 6.68378 0
M  V30 1036 H 87.7062 -3.22494 5.71256 0
M  V30 1037 H 87.6232 -2.32735 7.19285 0
M  V30 1038 H 88.8912 -3.49499 6.96757 0
M  V30 1039 N 93.1203 -1.57491 0.0584922 0
M  V30 1040 C 94.3663 -1.93264 -0.614558 0
M  V30 1041 C 94.6993 -0.937717 -1.7006 0
M  V30 1042 O 93.9743 0.0351652 -1.94468 0
M  V30 1043 C 94.2573 -3.3938 -1.20386 0
M  V30 1044 C 94.1103 -4.49625 -0.125375 0
M  V30 1045 C 95.4293 -3.86039 -2.11334 0
M  V30 1046 H 92.5483 -0.702791 -0.221933 0
M  V30 1047 H 95.1903 -1.8961 0.12175 0
M  V30 1048 H 93.3403 -3.42626 -1.83139 0
M  V30 1049 H 95.0123 -4.58506 0.506971 0
M  V30 1050 H 93.2553 -4.30354 0.545672 0
M  V30 1051 H 93.9263 -5.48967 -0.577861 0
M  V30 1052 H 96.4023 -3.84716 -1.58534 0
M  V30 1053 H 95.2783 -4.88914 -2.49507 0
M  V30 1054 H 95.5393 -3.23215 -3.01636 0
M  V30 1055 N 94.5984 0.214957 -1.56127 0
M  V30 1056 C 95.5454 1.26642 -1.92952 0
M  V30 1057 C 96.5154 1.46244 -0.78753 0
M  V30 1058 O 97.7004 1.59704 -1.04399 0
M  V30 1059 C 94.8404 2.6104 -2.25726 0
M  V30 1060 C 93.9534 2.49183 -3.52891 0
M  V30 1061 C 93.0884 3.76149 -3.7508 0
M  V30 1062 C 92.1274 3.59041 -4.95738 0
M  V30 1063 N 91.2644 4.77972 -5.14283 0
M  V30 1064 H 96.1044 0.945384 -2.82607 0
M  V30 1065 H 93.6414 0.455489 -1.3987 0
M  V30 1066 H 95.5994 3.39313 -2.42739 0
M  V30 1067 H 94.2294 2.91227 -1.39236 0
M  V30 1068 H 93.2814 1.6231 -3.44034 0
M  V30 1069 H 94.5934 2.32466 -4.41318 0
M  V30 1070 H 93.7474 4.62865 -3.92226 0
M  V30 1071 H 92.4864 3.95799 -2.84947 0
M  V30 1072 H 91.4914 2.7071 -4.78535 0
M  V30 1073 H 92.7164 3.40856 -5.87362 0
M  V30 1074 H 90.6624 4.97923 -4.27093 0
M  V30 1075 H 90.5794 4.64006 -5.96853 0
M  V30 1076 H 91.8474 5.66096 -5.35869 0
M  V30 1077 N 96.0765 1.50051 0.48192 0
M  V30 1078 C 97.3245 1.60181 1.23234 0
M  V30 1079 C 97.6455 0.299176 1.92691 0
M  V30 1080 O 96.9155 -0.682708 1.83619 0
M  V30 1081 H 95.4955 0.590232 0.457859 0
M  V30 1082 H 98.1575 1.86775 0.556881 0
M  V30 1083 H 97.2535 2.40753 1.98607 0
M  V30 1084 N 97.5546 -0.734337 1.39446 0
M  V30 1085 C 98.7796 -1.52866 1.40167 0
M  V30 1086 C 99.2046 -1.881 -0.00171513 0
M  V30 1087 O 98.5626 -1.51957 -0.988879 0
M  V30 1088 C 98.6106 -2.79235 2.28167 0
M  V30 1089 O 97.7146 -3.75185 1.71201 0
M  V30 1090 H 97.0556 -0.461618 0.477289 0
M  V30 1091 H 99.5856 -0.905949 1.8345 0
M  V30 1092 H 99.5956 -3.27963 2.42702 0
M  V30 1093 H 98.2706 -2.52923 3.30156 0
M  V30 1094 H 96.8476 -3.33958 1.65912 0
M  V30 1095 N 99.0327 -1.24633 -0.964593 0
M  V30 1096 C 100.281 -1.08573 -1.70459 0
M  V30 1097 C 100.602 0.375655 -1.91347 0
M  V30 1098 O 99.8717 1.26779 -1.49345 0
M  V30 1099 H 98.4517 -0.398784 -0.631649 0
M  V30 1100 H 101.114 -1.56601 -1.16026 0
M  V30 1101 H 100.21 -1.58623 -2.68785 0
M  V30 1102 N 100.511 1.16574 -1.06058 0
M  V30 1103 C 101.441 2.23057 -0.690488 0
M  V30 1104 C 102.422 1.67141 0.315901 0
M  V30 1105 O 103.607 1.93253 0.191556 0
M  V30 1106 C 100.737 3.47222 -0.073625 0
M  V30 1107 C 99.6908 4.16016 -1.00573 0
M  V30 1108 C 99.0168 5.34104 -0.252289 0
M  V30 1109 C 100.317 4.67264 -2.33371 0
M  V30 1110 H 102.011 2.54271 -1.58072 0
M  V30 1111 H 99.5568 1.22218 -0.76149 0
M  V30 1112 H 101.51 4.20939 0.19714 0
M  V30 1113 H 100.234 3.15302 0.85161 0
M  V30 1114 H 98.8928 3.44223 -1.2612 0
M  V30 1115 H 98.5408 4.98437 0.675988 0
M  V30 1116 H 98.2408 5.81072 -0.873455 0
M  V30 1117 H 99.7648 6.10599 0.0109857 0
M  V30 1118 H 101.179 5.32573 -2.12223 0
M  V30 1119 H 99.5758 5.24843 -2.90963 0
M  V30 1120 H 100.646 3.83602 -2.96611 0
M  V30 1121 N 101.989 0.842826 1.3317 0
M  V30 1122 C 103.219 0.453397 2.01564 0
M  V30 1123 C 103.627 -0.951147 1.63554 0
M  V30 1124 O 102.97 -1.63021 0.846746 0
M  V30 1125 C 103.032 0.499013 3.5602 0
M  V30 1126 C 102.696 1.86037 4.1742 0
M  V30 1127 C 103.693 2.82416 4.36506 0
M  V30 1128 C 101.378 2.15428 4.53757 0
M  V30 1129 C 103.372 4.06346 4.91082 0
M  V30 1130 C 101.059 3.39615 5.0804 0
M  V30 1131 C 102.057 4.3489 5.26649 0
M  V30 1132 O 101.745 5.5688 5.79776 0
M  V30 1133 H 101.477 0.177871 0.652179 0
M  V30 1134 H 104.031 1.13808 1.70988 0
M  V30 1135 H 102.261 -0.242467 3.85939 0
M  V30 1136 H 103.95 0.126852 4.05702 0
M  V30 1137 H 104.716 2.6101 4.08777 0
M  V30 1138 H 100.595 1.42061 4.38565 0
M  V30 1139 H 104.139 4.80722 5.05522 0
M  V30 1140 H 100.036 3.60876 5.352 0
M  V30 1141 H 100.804 5.58674 5.98185 0
M  V30 1142 N 103.467 -1.45747 0.599634 0
M  V30 1143 C 104.43 -2.28917 -0.113835 0
M  V30 1144 C 105.43 -1.3933 -0.802729 0
M  V30 1145 O 106.62 -1.61534 -0.652103 0
M  V30 1146 C 103.752 -3.20152 -1.17114 0
M  V30 1147 H 104.945 -2.93478 0.617289 0
M  V30 1148 H 102.498 -1.52137 0.358327 0
M  V30 1149 H 103.233 -2.60374 -1.93329 0
M  V30 1150 H 103.018 -3.86133 -0.681468 0
M  V30 1151 H 104.508 -3.82708 -1.67105 0
M  V30 1152 N 104.945 -0.338344 -1.53925 0
M  V30 1153 C 105.893 0.536231 -2.26335 0
M  V30 1154 C 106.887 1.1063 -1.28286 0
M  V30 1155 O 108.093 1.05264 -1.46012 0
M  V30 1156 H 104.468 0.191602 -0.727181 0
M  V30 1157 H 106.439 -0.0965747 -2.98244 0
M  V30 1158 C 105.188 1.67803 -3.04528 0
M  V30 1159 H 104.511 1.24864 -3.79801 0
M  V30 1160 H 105.951 2.26526 -3.58416 0
M  V30 1161 C 104.41 2.60439 -2.13712 0
M  V30 1162 O 104.94 3.6255 -1.72975 0
M  V30 1163 N 103.146 2.29006 -1.78898 0
M  V30 1164 H 102.693 1.46011 -2.12223 0
M  V30 1165 H 102.651 2.91248 -1.18416 0
M  V30 1166 N 106.423 1.57458 -0.0668435 0
M  V30 1167 C 107.839 1.56947 0.289772 0
M  V30 1168 C 108.039 1.07584 1.70376 0
M  V30 1169 O 107.095 0.739486 2.41429 0
M  V30 1170 C 108.408 3.0052 0.103943 0
M  V30 1171 C 109.956 3.12517 0.173857 0
M  V30 1172 C 110.431 4.57997 0.0163682 0
M  V30 1173 N 111.922 4.63144 0.0721352 0
M  V30 1174 C 112.657 5.73394 -0.0253794 0
M  V30 1175 N 112.153 6.92576 -0.176133 0
M  V30 1176 N 113.946 5.62091 0.0313305 0
M  V30 1177 H 106.097 1.87863 -0.991027 0
M  V30 1178 H 108.36 0.86583 -0.38606 0
M  V30 1179 H 108.066 3.40729 -0.871572 0
M  V30 1180 H 107.94 3.67304 0.858366 0
M  V30 1181 H 110.327 2.72197 1.13985 0
M  V30 1182 H 110.408 2.48381 -0.611586 0
M  V30 1183 H 110.052 4.99005 -0.946374 0
M  V30 1184 H 109.982 5.20158 0.821153 0
M  V30 1185 H 112.473 3.77436 0.187263 0
M  V30 1186 H 112.786 7.72418 -0.242821 0
M  V30 1187 H 111.131 6.94678 -0.211429 0
M  V30 1188 H 114.322 4.67867 0.147773 0
M  V30 1189 H 114.495 6.47982 -0.048121 0
M  V30 1190 N 107.901 -0.206675 1.56239 0
M  V30 1191 C 109.147 -0.930218 1.80208 0
M  V30 1192 C 109.48 -1.83387 0.638981 0
M  V30 1193 O 108.755 -1.91119 -0.361066 0
M  V30 1194 C 109.038 -1.75641 3.1436 0
M  V30 1195 C 108.891 -0.878257 4.41142 0
M  V30 1196 C 110.21 -2.73129 3.45092 0
M  V30 1197 H 107.329 -0.336742 0.655571 0
M  V30 1198 H 109.971 -0.198222 1.88963 0
M  V30 1199 H 108.121 -2.38048 3.07027 0
M  V30 1200 H 109.793 -0.269787 4.6051 0
M  V30 1201 H 108.036 -0.184385 4.33408 0
M  V30 1202 H 108.707 -1.49106 5.3148 0
M  V30 1203 H 111.183 -2.20856 3.52649 0
M  V30 1204 H 110.059 -3.28028 4.40101 0
M  V30 1205 H 110.32 -3.51606 2.68003 0
M  V30 1206 N 109.379 -1.50304 -0.473955 0
M  V30 1207 C 110.312 -1.63595 -1.59097 0
M  V30 1208 C 111.29 -0.484142 -1.55225 0
M  V30 1209 O 112.474 -0.703271 -1.7489 0
M  V30 1210 C 109.601 -1.61589 -2.97669 0
M  V30 1211 C 108.647 -2.82295 -3.19705 0
M  V30 1212 S 109.48 -4.43635 -2.99913 0
M  V30 1213 C 110.636 -4.44317 -4.40832 0
M  V30 1214 H 110.869 -2.58082 -1.47583 0
M  V30 1215 H 108.402 -1.39531 -0.661087 0
M  V30 1216 H 110.36 -1.61116 -3.7756 0
M  V30 1217 H 109.021 -0.683421 -3.06575 0
M  V30 1218 H 108.214 -2.77188 -4.20931 0
M  V30 1219 H 107.816 -2.8032 -2.47582 0
M  V30 1220 H 110.108 -4.17703 -5.33414 0
M  V30 1221 H 111.051 -5.45911 -4.50984 0
M  V30 1222 H 111.459 -3.74059 -4.22777 0
M  V30 1223 N 110.857 0.726932 -1.39834 0
M  V30 1224 C 112.134 1.47902 -1.28001 0
M  V30 1225 C 112.514 2.1083 0.106789 0
M  V30 1226 O 111.862 1.99242 1.11869 0
M  V30 1227 C 112.072 2.52392 -2.41038 0
M  V30 1228 C 113.42 3.18546 -2.80737 0
M  V30 1229 O 114.444 2.62708 -2.40547 0
M  V30 1230 O 113.303 4.19604 -3.50135 0
M  V30 1231 H 110.397 0.657163 -0.502062 0
M  V30 1232 H 112.943 0.760071 -1.51727 0
M  V30 1233 H 111.715 2.04329 -3.33715 0
M  V30 1234 H 111.338 3.31837 -2.19021 0
M  V30 1235 N 112.336 1.25143 0.95797 0
M  V30 1236 C 113.582 1.09855 1.70469 0
M  V30 1237 C 113.915 -0.360187 1.90831 0
M  V30 1238 O 113.19 -1.26568 1.47685 0
M  V30 1239 C 113.473 1.8497 3.08963 0
M  V30 1240 C 113.326 3.38652 2.96032 0
M  V30 1241 C 114.645 1.63016 4.08795 0
M  V30 1242 H 111.764 0.400465 0.618706 0
M  V30 1243 H 114.406 1.53933 1.11376 0
M  V30 1244 H 112.556 1.47505 3.59409 0
M  V30 1245 H 114.228 3.85772 2.52938 0
M  V30 1246 H 112.471 3.66534 2.32025 0
M  V30 1247 H 113.142 3.8642 3.94187 0
M  V30 1248 H 115.618 1.95625 3.67247 0
M  V30 1249 H 114.494 2.18015 5.03747 0
M  V30 1250 H 114.755 0.570692 4.38401 0
M  V30 1251 N 113.814 -1.1601 1.06675 0
M  V30 1252 C 115.039 -1.91068 0.806706 0
M  V30 1253 C 115.464 -1.77112 -0.633485 0
M  V30 1254 O 114.822 -1.09908 -1.44187 0
M  V30 1255 C 114.87 -3.39655 1.21106 0
M  V30 1256 O 113.974 -4.10893 0.352189 0
M  V30 1257 H 113.315 -0.595125 0.294486 0
M  V30 1258 H 115.845 -1.46955 1.42356 0
M  V30 1259 H 115.855 -3.90434 1.18428 0
M  V30 1260 H 114.53 -3.49132 2.26008 0
M  V30 1261 H 113.107 -3.70285 0.440868 0
M  V30 1262 N 115.292 -0.849877 -1.32721 0
M  V30 1263 C 116.569 -0.372405 -1.92022 0
M  V30 1264 C 116.949 1.1435 -1.77447 0
M  V30 1265 O 116.297 1.96296 -1.16962 0
M  V30 1266 C 116.507 -0.831482 -3.3895 0
M  V30 1267 C 117.855 -0.845882 -4.16089 0
M  V30 1268 O 118.879 -0.775806 -3.47649 0
M  V30 1269 O 117.738 -0.943753 -5.38289 0
M  V30 1270 H 114.832 -0.107667 -0.819961 0
M  V30 1271 H 117.378 -0.93646 -1.41522 0
M  V30 1272 H 116.15 -1.87448 -3.4348 0
M  V30 1273 H 115.773 -0.24461 -3.96847 0
M  V30 1274 N 116.77 1.45427 -0.607355 0
M  V30 1275 C 118 2.06314 -0.108656 0
M  V30 1276 C 118.408 1.45269 1.21217 0
M  V30 1277 O 117.751 0.561115 1.74921 0
M  V30 1278 C 117.813 3.59345 0.105618 0
M  V30 1279 C 117.477 4.42723 -1.13337 0
M  V30 1280 C 118.474 4.77715 -2.05145 0
M  V30 1281 C 116.159 4.83478 -1.36213 0
M  V30 1282 C 118.153 5.52317 -3.18158 0
M  V30 1283 C 115.84 5.57835 -2.49527 0
M  V30 1284 C 116.838 5.92171 -3.40327 0
M  V30 1285 O 116.526 6.65019 -4.51669 0
M  V30 1286 H 116.258 0.672782 -0.0658842 0
M  V30 1287 H 118.812 1.87664 -0.834945 0
M  V30 1288 H 117.042 3.76394 0.886796 0
M  V30 1289 H 118.731 4.02076 0.555886 0
M  V30 1290 H 119.497 4.46787 -1.88697 0
M  V30 1291 H 115.376 4.56188 -0.664362 0
M  V30 1292 H 118.92 5.79036 -3.89054 0
M  V30 1293 H 114.817 5.88177 -2.65928 0
M  V30 1294 H 115.585 6.83469 -4.50348 0
M  V30 1295 N 118.248 0.346503 1.53744 0
M  V30 1296 C 119.494 -0.249473 2.0126 0
M  V30 1297 C 119.827 -1.49965 1.23386 0
M  V30 1298 O 119.102 -1.91811 0.32229 0
M  V30 1299 C 119.385 -0.560643 3.55709 0
M  V30 1300 C 119.238 0.701836 4.44291 0
M  V30 1301 C 120.557 -1.36905 4.18264 0
M  V30 1302 H 117.676 -0.0891987 0.731582 0
M  V30 1303 H 120.318 0.467624 1.84156 0
M  V30 1304 H 118.468 -1.17156 3.70414 0
M  V30 1305 H 120.14 1.33974 4.41417 0
M  V30 1306 H 118.383 1.32612 4.13033 0
M  V30 1307 H 119.054 0.43933 5.50249 0
M  V30 1308 H 121.53 -0.852448 4.07275 0
M  V30 1309 H 120.406 -1.55553 5.26398 0
M  V30 1310 H 120.667 -2.37203 3.73078 0
M  V30 1311 N 119.726 -1.57421 0.075193 0
M  V30 1312 C 120.954 -1.97946 -0.602076 0
M  V30 1313 C 121.369 -0.953674 -1.62943 0
M  V30 1314 O 120.726 0.0592551 -1.82404 0
M  V30 1315 C 120.777 -3.38546 -1.26762 0
M  V30 1316 O 120.498 -4.37195 -0.281376 0
M  V30 1317 C 121.999 -3.93966 -2.03239 0
M  V30 1318 H 119.219 -0.650918 -0.162931 0
M  V30 1319 H 121.763 -2.03959 0.148601 0
M  V30 1320 H 119.918 -3.33609 -1.96936 0
M  V30 1321 H 120.332 -5.18975 -0.759267 0
M  V30 1322 H 121.806 -4.94555 -2.45193 0
M  V30 1323 H 122.283 -3.30693 -2.8903 0
M  V30 1324 H 122.889 -4.02315 -1.37924 0
M  V30 1325 N 121.204 0.198386 -1.56346 0
M  V30 1326 C 122.615 0.763358 -1.70381 0
M  V30 1327 C 122.966 1.83995 -0.681203 0
M  V30 1328 O 122.091 2.15785 0.16305 0
M  V30 1329 C 122.686 1.39143 -3.08909 0
M  V30 1330 C 121.245 1.90352 -3.2472 0
M  V30 1331 C 120.392 0.772233 -2.6633 0
M  V30 1332 H 123.343 -0.0266377 -1.58678 0
M  V30 1333 H 123.364 2.26076 -3.06055 0
M  V30 1334 H 122.876 0.607638 -3.83314 0
M  V30 1335 H 120.977 2.71461 -2.55225 0
M  V30 1336 H 121.09 2.06757 -4.3219 0
M  V30 1337 H 119.454 1.18566 -2.2542 0
M  V30 1338 H 120.237 0.00073556 -3.433 0
M  V30 1339 N 122.682 1.50554 0.465978 0
M  V30 1340 C 124.093 1.54599 1.04671 0
M  V30 1341 C 124.444 0.352488 1.93008 0
M  V30 1342 O 123.569 -0.534044 2.09707 0
M  V30 1343 C 124.164 2.80166 1.90505 0
M  V30 1344 C 122.723 2.86876 2.43678 0
M  V30 1345 C 121.87 2.48947 1.22151 0
M  V30 1346 H 124.821 1.56744 0.248384 0
M  V30 1347 H 124.842 2.62311 2.75633 0
M  V30 1348 H 124.354 3.67013 1.26186 0
M  V30 1349 H 122.455 2.04393 3.11536 0
M  V30 1350 H 122.568 3.89885 2.78436 0
M  V30 1351 H 120.932 2.01498 1.5579 0
M  V30 1352 H 121.715 3.38107 0.594866 0
M  V30 1353 N 124.16 -0.719506 1.40217 0
M  V30 1354 C 125.092 -1.84428 1.36084 0
M  V30 1355 C 126.105 -1.60597 0.266913 0
M  V30 1356 O 127.294 -1.70544 0.526983 0
M  V30 1357 C 124.394 -3.20757 1.094 0
M  V30 1358 C 123.567 -3.71817 2.30372 0
M  V30 1359 C 122.626 -4.86748 1.99907 0
M  V30 1360 O 121.652 -4.99603 2.72737 0
M  V30 1361 N 122.854 -5.7226 0.974635 0
M  V30 1362 H 125.619 -1.88473 2.33019 0
M  V30 1363 H 123.18 -0.900885 1.3452 0
M  V30 1364 H 125.172 -3.95235 0.870116 0
M  V30 1365 H 123.742 -3.11884 0.211452 0
M  V30 1366 H 122.962 -2.88514 2.68614 0
M  V30 1367 H 124.25 -4.02666 3.11026 0
M  V30 1368 H 123.648 -5.6448 0.371368 0
M  V30 1369 H 122.205 -6.46739 0.810656 0
M  V30 1370 N 125.638 -1.25649 -0.95132 0
M  V30 1371 C 126.886 -1.10375 -1.69298 0
M  V30 1372 C 127.207 0.355339 -1.91735 0
M  V30 1373 O 126.477 1.25188 -1.50681 0
M  V30 1374 H 125.057 -0.405461 -0.627384 0
M  V30 1375 H 127.719 -1.57823 -1.14358 0
M  V30 1376 H 126.815 -1.61465 -2.67087 0
M  V30 1377 N 127.117 1.15442 -1.07289 0
M  V30 1378 C 128.345 1.90096 -0.81676 0
M  V30 1379 C 128.76 1.7798 0.629966 0
M  V30 1380 O 128.117 1.1313 1.43206 0
M  V30 1381 C 128.168 3.40466 -1.21512 0
M  V30 1382 O 127.889 3.52232 -2.60508 0
M  V30 1383 C 129.39 4.32145 -0.988198 0
M  V30 1384 H 126.61 0.602495 -0.295366 0
M  V30 1385 H 129.154 1.4627 -1.42918 0
M  V30 1386 H 127.309 3.81958 -0.647039 0
M  V30 1387 H 127.723 4.45549 -2.76742 0
M  V30 1388 H 129.197 5.36072 -1.31645 0
M  V30 1389 H 129.674 4.39135 0.0755063 0
M  V30 1390 H 130.28 3.96395 -1.54115 0
M  V30 1391 N 128.595 0.856903 1.32268 0
M  V30 1392 C 129.82 0.474569 2.01897 0
M  V30 1393 C 130.245 -0.921766 1.63967 0
M  V30 1394 O 129.603 -1.60589 0.84148 0
M  V30 1395 C 129.651 0.623799 3.55164 0
M  V30 1396 O 128.755 -0.342459 4.10976 0
M  V30 1397 H 128.096 0.190422 0.63611 0
M  V30 1398 H 130.626 1.15672 1.68764 0
M  V30 1399 H 130.636 0.512169 4.04773 0
M  V30 1400 H 129.311 1.64202 3.82113 0
M  V30 1401 H 127.888 -0.18688 3.72431 0
M  V30 1402 N 130.073 -1.45103 0.615059 0
M  V30 1403 C 131.319 -2.02483 0.113347 0
M  V30 1404 C 131.652 -1.48146 -1.25564 0
M  V30 1405 O 130.927 -0.659104 -1.82992 0
M  V30 1406 C 131.21 -3.60005 0.0825278 0
M  V30 1407 C 131.063 -4.2466 1.48271 0
M  V30 1408 C 132.382 -4.35972 -0.601401 0
M  V30 1409 H 129.501 -0.735764 0.0426632 0
M  V30 1410 H 132.143 -1.72868 0.788461 0
M  V30 1411 H 130.293 -3.85367 -0.492378 0
M  V30 1412 H 131.965 -4.10458 2.10527 0
M  V30 1413 H 130.208 -3.82772 2.04127 0
M  V30 1414 H 130.879 -5.336 1.41332 0
M  V30 1415 H 133.355 -4.15947 -0.112666 0
M  V30 1416 H 132.231 -5.45697 -0.592097 0
M  V30 1417 H 132.492 -4.09391 -1.66887 0
M  V30 1418 N 131.551 -0.354651 -1.53558 0
M  V30 1419 C 132.798 0.238443 -2.01091 0
M  V30 1420 C 133.126 1.49663 -1.24222 0
M  V30 1421 O 132.381 1.93049 -0.321003 0
M  V30 1422 C 132.68 0.587121 -3.52545 0
M  V30 1423 C 132.346 -0.575472 -4.47213 0
M  V30 1424 C 131.008 -0.894497 -4.72813 0
M  V30 1425 C 133.36 -1.35489 -5.03281 0
M  V30 1426 C 130.688 -1.99511 -5.51736 0
M  V30 1427 C 133.04 -2.44583 -5.83405 0
M  V30 1428 C 131.704 -2.77033 -6.07296 0
M  V30 1429 H 130.974 0.0872526 -0.735845 0
M  V30 1430 H 133.621 -0.484859 -1.8526 0
M  V30 1431 H 131.926 1.39129 -3.66265 0
M  V30 1432 H 133.623 1.05809 -3.86789 0
M  V30 1433 H 130.213 -0.316774 -4.27428 0
M  V30 1434 H 134.397 -1.12167 -4.83459 0
M  V30 1435 H 129.653 -2.25063 -5.68469 0
M  V30 1436 H 133.827 -3.05401 -6.25862 0
M  V30 1437 H 131.454 -3.6244 -6.68237 0
M  V30 1438 N 133.029 1.57378 -0.0835403 0
M  V30 1439 C 134.275 1.94217 0.583733 0
M  V30 1440 C 134.608 0.964653 1.68547 0
M  V30 1441 O 133.883 -0.00422258 1.945 0
M  V30 1442 C 134.166 3.41253 1.14972 0
M  V30 1443 C 134.019 4.49768 0.0538277 0
M  V30 1444 C 135.338 3.89352 2.05166 0
M  V30 1445 H 132.457 0.706233 0.210724 0
M  V30 1446 H 135.099 1.89392 -0.1519 0
M  V30 1447 H 133.249 3.45496 1.77665 0
M  V30 1448 H 134.921 4.57641 -0.579851 0
M  V30 1449 H 133.164 4.29432 -0.614068 0
M  V30 1450 H 133.835 5.49817 0.490452 0
M  V30 1451 H 136.311 3.87189 1.52393 0
M  V30 1452 H 135.187 4.92822 2.41698 0
M  V30 1453 H 135.448 3.27973 2.96456 0
M  V30 1454 N 134.507 -0.190092 1.56449 0
M  V30 1455 C 135.756 -0.907912 1.80111 0
M  V30 1456 C 136.069 -1.84214 0.657619 0
M  V30 1457 O 137.275 -2.60094 0.778663 0
M  V30 1458 C 135.731 -1.66485 3.19078 0
M  V30 1459 C 135.339 -0.7752 4.41242 0
M  V30 1460 C 137.083 -2.37201 3.52045 0
M  V30 1461 C 134.99 -1.53129 5.71231 0
M  V30 1462 H 133.92 -0.34276 0.671589 0
M  V30 1463 H 136.571 -0.161109 1.82791 0
M  V30 1464 H 134.953 -2.45572 3.10661 0
M  V30 1465 H 136.127 -0.0226298 4.60794 0
M  V30 1466 H 134.442 -0.178627 4.16017 0
M  V30 1467 H 137.039 -2.94329 4.46402 0
M  V30 1468 H 137.382 -3.11632 2.76028 0
M  V30 1469 H 137.915 -1.65075 3.61932 0
M  V30 1470 H 134.654 -0.82967 6.50228 0
M  V30 1471 H 134.174 -2.25767 5.55688 0
M  V30 1472 H 135.853 -2.08377 6.12526 0
M  V30 1473 N 135.985 -1.50799 -0.457987 0
M  V30 1474 C 137.234 -1.6168 -1.20593 0
M  V30 1475 C 137.547 -0.32888 -1.92815 0
M  V30 1476 O 138.753 -0.316773 -2.69646 0
M  V30 1477 C 137.209 -2.8545 -2.19195 0
M  V30 1478 C 136.817 -4.21168 -1.52715 0
M  V30 1479 C 138.561 -3.05681 -2.94549 0
M  V30 1480 C 136.468 -5.3611 -2.4968 0
M  V30 1481 H 135.398 -0.602134 -0.453818 0
M  V30 1482 H 138.049 -1.77245 -0.475031 0
M  V30 1483 H 136.431 -2.63472 -2.95632 0
M  V30 1484 H 137.605 -4.53449 -0.819775 0
M  V30 1485 H 135.92 -4.06648 -0.895922 0
M  V30 1486 H 138.517 -3.88727 -3.67145 0
M  V30 1487 H 138.86 -2.17929 -3.54701 0
M  V30 1488 H 139.393 -3.27901 -2.25223 0
M  V30 1489 H 136.132 -6.26057 -1.94249 0
M  V30 1490 H 135.652 -5.0823 -3.18532 0
M  V30 1491 H 137.331 -5.6722 -3.11241 0
M  V30 1492 N 137.463 0.71206 -1.40597 0
M  V30 1493 C 138.691 1.50111 -1.42388 0
M  V30 1494 C 139.106 1.88784 -0.0245395 0
M  V30 1495 O 138.463 1.55681 0.952351 0
M  V30 1496 C 138.514 2.7742 -2.31776 0
M  V30 1497 O 138.235 2.40382 -3.66262 0
M  V30 1498 C 139.736 3.7129 -2.42196 0
M  V30 1499 H 136.956 0.46314 -0.485533 0
M  V30 1500 H 139.5 0.878068 -1.8469 0
M  V30 1501 H 137.655 3.36001 -1.92827 0
M  V30 1502 H 138.069 3.22324 -4.13772 0
M  V30 1503 H 139.543 4.57448 -3.08943 0
M  V30 1504 H 140.02 4.14641 -1.44809 0
M  V30 1505 H 140.626 3.18619 -2.81712 0
M  V30 1506 N 138.941 1.26152 0.944643 0
M  V30 1507 C 139.888 1.07408 2.04285 0
M  V30 1508 C 140.858 -0.0198413 1.66088 0
M  V30 1509 O 142.043 0.139264 1.90291 0
M  V30 1510 C 139.183 0.70945 3.37729 0
M  V30 1511 C 138.296 1.87926 3.88983 0
M  V30 1512 C 137.431 1.45807 5.10797 0
M  V30 1513 C 136.47 2.5964 5.54305 0
M  V30 1514 N 135.607 2.18226 6.67324 0
M  V30 1515 H 140.447 2.01389 2.1965 0
M  V30 1516 H 137.984 1.00275 1.07626 0
M  V30 1517 H 139.942 0.478948 4.14442 0
M  V30 1518 H 138.572 -0.193389 3.2222 0
M  V30 1519 H 137.624 2.22279 3.08701 0
M  V30 1520 H 138.936 2.73377 4.17213 0
M  V30 1521 H 138.09 1.18781 5.94959 0
M  V30 1522 H 136.829 0.574414 4.84305 0
M  V30 1523 H 135.834 2.87399 4.68702 0
M  V30 1524 H 137.059 3.48599 5.828 0
M  V30 1525 H 135.005 1.3229 6.42523 0
M  V30 1526 H 134.922 2.97221 6.95123 0
M  V30 1527 H 136.19 1.94403 7.54869 0
M  V30 1528 N 140.419 -1.14872 1.07899 0
M  V30 1529 C 141.352 -2.18794 0.64841 0
M  V30 1530 C 142.33 -1.59065 -0.337189 0
M  V30 1531 O 143.514 -1.86936 -0.242284 0
M  V30 1532 C 140.641 -3.38667 -0.0470417 0
M  V30 1533 C 139.687 -4.16942 0.897884 0
M  V30 1534 S 140.52 -4.78615 2.40183 0
M  V30 1535 C 141.676 -6.0185 1.71834 0
M  V30 1536 H 141.909 -2.5498 1.52881 0
M  V30 1537 H 139.442 -1.25922 0.893484 0
M  V30 1538 H 141.4 -4.08113 -0.442027 0
M  V30 1539 H 140.061 -3.00814 -0.903861 0
M  V30 1540 H 139.254 -5.02726 0.358096 0
M  V30 1541 H 138.856 -3.53073 1.23352 0
M  V30 1542 H 141.148 -6.69574 1.03328 0
M  V30 1543 H 142.091 -6.60408 2.55473 0
M  V30 1544 H 142.499 -5.5173 1.19392 0
M  V30 1545 N 141.898 -0.863906 -1.31812 0
M  V30 1546 C 143.147 -0.46801 -1.96195 0
M  V30 1547 C 143.46 0.983474 -1.69077 0
M  V30 1548 O 144.666 1.48523 -2.27273 0
M  V30 1549 C 143.122 -0.785995 -3.51212 0
M  V30 1550 C 142.73 -2.25383 -3.87178 0
M  V30 1551 C 144.474 -0.458274 -4.22019 0
M  V30 1552 C 142.381 -2.51455 -5.3528 0
M  V30 1553 H 141.311 -0.171283 -0.734287 0
M  V30 1554 H 143.962 -1.05597 -1.50072 0
M  V30 1555 H 142.344 -0.127359 -3.95795 0
M  V30 1556 H 143.518 -2.95502 -3.53575 0
M  V30 1557 H 141.833 -2.54698 -3.2942 0
M  V30 1558 H 144.43 -0.630369 -5.30971 0
M  V30 1559 H 144.773 0.600834 -4.11941 0
M  V30 1560 H 145.306 -1.07319 -3.8305 0
M  V30 1561 H 142.045 -3.56025 -5.50387 0
M  V30 1562 H 141.565 -1.85923 -5.70257 0
M  V30 1563 H 143.244 -2.35874 -6.02472 0
M  V30 1564 N 143.376 1.44774 -0.622745 0
M  V30 1565 C 144.622 2.0242 -0.124083 0
M  V30 1566 C 144.955 1.4881 1.24777 0
M  V30 1567 O 144.23 0.668799 1.8264 0
M  V30 1568 C 144.513 3.59957 -0.101619 0
M  V30 1569 C 144.366 4.23867 -1.50521 0
M  V30 1570 C 145.685 4.36284 0.578272 0
M  V30 1571 H 142.804 0.735528 -0.0465645 0
M  V30 1572 H 145.446 1.72447 -0.797617 0
M  V30 1573 H 143.596 3.85623 0.471934 0
M  V30 1574 H 145.268 4.09336 -2.12701 0
M  V30 1575 H 143.511 3.81684 -2.06154 0
M  V30 1576 H 144.182 5.32843 -1.4416 0
M  V30 1577 H 146.658 4.16001 0.0906057 0
M  V30 1578 H 145.534 5.46004 0.563149 0
M  V30 1579 H 145.795 4.10271 1.64713 0
M  V30 1580 N 144.854 0.36279 1.53368 0
M  V30 1581 C 146.082 -0.228613 2.05633 0
M  V30 1582 C 146.497 -1.42676 1.23649 0
M  V30 1583 O 145.854 -1.80394 0.27647 0
M  V30 1584 C 145.905 -0.624845 3.56059 0
M  V30 1585 O 145.626 0.525675 4.34935 0
M  V30 1586 C 147.127 -1.27493 4.24571 0
M  V30 1587 H 144.347 -0.0407183 0.669763 0
M  V30 1588 H 146.891 0.520352 1.97769 0
M  V30 1589 H 145.046 -1.32373 3.64083 0
M  V30 1590 H 145.46 0.205969 5.24095 0
M  V30 1591 H 146.934 -1.50277 5.31151 0
M  V30 1592 H 147.411 -2.23439 3.78116 0
M  V30 1593 H 148.017 -0.617558 4.20792 0
M  V30 1594 N 146.332 -1.57332 0.0918853 0
M  V30 1595 C 147.242 -2.17368 -0.882505 0
M  V30 1596 C 148.258 -1.14226 -1.31257 0
M  V30 1597 O 149.434 -1.46582 -1.38115 0
M  V30 1598 C 146.499 -2.73962 -2.12476 0
M  V30 1599 C 145.56 -3.92048 -1.7492 0
M  V30 1600 C 144.793 -4.45933 -2.93223 0
M  V30 1601 O 145.016 -3.98764 -4.07852 0
M  V30 1602 O 143.95 -5.36999 -2.71875 0
M  V30 1603 H 147.776 -3.01031 -0.40172 0
M  V30 1604 H 145.361 -1.48813 -0.132291 0
M  V30 1605 H 147.243 -3.10147 -2.85283 0
M  V30 1606 H 145.918 -1.93347 -2.59613 0
M  V30 1607 H 144.825 -3.6068 -0.993025 0
M  V30 1608 H 146.158 -4.74017 -1.32548 0
M  V30 1609 N 147.81 0.181792 -1.56548 0
M  V30 1610 C 148.758 1.24461 -1.965 0
M  V30 1611 C 149.752 1.464 -0.852261 0
M  V30 1612 O 150.958 1.47103 -1.03733 0
M  V30 1613 H 147.333 0.418138 -0.625031 0
M  V30 1614 H 149.304 0.880714 -2.85107 0
M  V30 1615 C 148.053 2.57891 -2.33212 0
M  V30 1616 H 147.376 2.41829 -3.18369 0
M  V30 1617 H 148.816 3.3097 -2.65019 0
M  V30 1618 C 147.275 3.15871 -1.17163 0
M  V30 1619 O 147.805 3.9913 -0.453708 0
M  V30 1620 N 146.011 2.74808 -0.944936 0
M  V30 1621 H 145.558 2.07205 -1.53049 0
M  V30 1622 H 145.516 3.13939 -0.170286 0
M  V30 1623 N 149.288 1.51039 0.449983 0
M  V30 1624 C 150.22 1.67617 1.56324 0
M  V30 1625 C 151.233 0.557083 1.52972 0
M  V30 1626 O 152.422 0.830989 1.57977 0
M  V30 1627 C 149.522 1.66402 2.95235 0
M  V30 1628 C 148.695 2.9469 3.23229 0
M  V30 1629 C 147.754 2.85832 4.41799 0
M  V30 1630 O 146.78 3.59785 4.41071 0
M  V30 1631 N 147.982 2.00821 5.44657 0
M  V30 1632 H 150.747 2.63648 1.42512 0
M  V30 1633 H 148.308 1.48767 0.638737 0
M  V30 1634 H 150.3 1.58062 3.72557 0
M  V30 1635 H 148.87 0.780182 3.02708 0
M  V30 1636 H 148.09 3.16996 2.34323 0
M  V30 1637 H 149.378 3.79636 3.38754 0
M  V30 1638 H 148.776 1.40091 5.48079 0
M  V30 1639 H 147.333 1.98368 6.20881 0
M  V30 1640 N 150.766 -0.704594 1.40972 0
M  V30 1641 C 151.699 -1.82861 1.36518 0
M  V30 1642 C 152.677 -1.6091 0.23382 0
M  V30 1643 O 153.861 -1.83778 0.419271 0
M  V30 1644 C 150.988 -3.1939 1.12729 0
M  V30 1645 C 150.034 -3.60148 2.28463 0
M  V30 1646 S 150.867 -3.65994 3.90907 0
M  V30 1647 C 152.023 -5.05264 3.69403 0
M  V30 1648 H 152.256 -1.86361 2.3164 0
M  V30 1649 H 149.789 -0.872439 1.27389 0
M  V30 1650 H 151.747 -3.98211 0.996893 0
M  V30 1651 H 150.408 -3.1351 0.192427 0
M  V30 1652 H 149.601 -4.59309 2.07489 0
M  V30 1653 H 149.203 -2.88612 2.37863 0
M  V30 1654 H 151.495 -5.92504 3.28551 0
M  V30 1655 H 152.438 -5.31278 4.68134 0
M  V30 1656 H 152.846 -4.76377 3.02862 0
M  V30 1657 N 152.244 -1.26651 -0.937939 0
M  V30 1658 C 153.176 -1.04283 -2.04102 0
M  V30 1659 C 154.189 -0.00221014 -1.628 0
M  V30 1660 O 155.378 -0.242645 -1.76843 0
M  V30 1661 C 152.478 -0.557846 -3.34277 0
M  V30 1662 C 151.651 -1.66843 -4.04329 0
M  V30 1663 C 150.71 -1.18095 -5.12777 0
M  V30 1664 O 149.736 -1.87865 -5.37304 0
M  V30 1665 N 150.938 -0.0311006 -5.80492 0
M  V30 1666 H 153.703 -1.9927 -2.23856 0
M  V30 1667 H 151.264 -1.1808 -1.10764 0
M  V30 1668 H 153.256 -0.215836 -4.04124 0
M  V30 1669 H 151.826 0.298523 -3.11171 0
M  V30 1670 H 151.046 -2.18123 -3.28353 0
M  V30 1671 H 152.334 -2.41408 -4.47883 0
M  V30 1672 H 151.732 0.551486 -5.63005 0
M  V30 1673 H 150.289 0.251809 -6.51313 0
M  V30 1674 N 153.722 1.14298 -1.08507 0
M  V30 1675 C 154.97 1.84993 -0.813763 0
M  V30 1676 C 155.291 1.83405 0.662393 0
M  V30 1677 O 154.561 1.28319 1.48024 0
M  V30 1678 H 153.141 0.684966 -0.298045 0
M  V30 1679 H 155.803 1.385 -1.37126 0
M  V30 1680 H 154.899 2.89788 -1.15884 0
M  V30 1681 N 155.201 0.870884 1.31352 0
M  V30 1682 C 156.448 0.482273 1.96673 0
M  V30 1683 C 156.776 -0.965638 1.68836 0
M  V30 1684 O 156.031 -1.69514 0.977937 0
M  V30 1685 C 156.33 0.687157 3.50732 0
M  V30 1686 C 155.996 2.108 3.9859 0
M  V30 1687 C 154.658 2.49656 4.1137 0
M  V30 1688 C 157.01 3.03459 4.23748 0
M  V30 1689 C 154.338 3.80412 4.46659 0
M  V30 1690 C 156.69 4.3373 4.60501 0
M  V30 1691 C 155.354 4.725 4.71487 0
M  V30 1692 H 154.624 0.176476 0.719679 0
M  V30 1693 H 157.271 1.10405 1.56471 0
M  V30 1694 H 155.576 -0.0177476 3.91796 0
M  V30 1695 H 157.273 0.366284 3.99324 0
M  V30 1696 H 153.863 1.79633 3.8914 0
M  V30 1697 H 158.047 2.74665 4.13368 0
M  V30 1698 H 153.303 4.1021 4.53362 0
M  V30 1699 H 157.477 5.05578 4.78919 0
M  V30 1700 H 155.104 5.73859 4.98588 0
M  V30 1701 N 156.679 -1.44442 0.630414 0
M  V30 1702 C 157.919 -2.03934 0.137919 0
M  V30 1703 C 158.283 -1.48509 -1.21692 0
M  V30 1704 O 159.484 -1.99499 -1.80149 0
M  V30 1705 C 157.755 -3.57187 0.123373 0
M  V30 1706 S 159.314 -4.37741 -0.304604 0
M  V30 1707 H 156.132 -0.708401 0.0607353 0
M  V30 1708 H 158.734 -1.76835 0.833643 0
M  V30 1709 H 157.438 -3.95032 1.11256 0
M  V30 1710 H 156.969 -3.88895 -0.59362 0
M  V30 1711 H 158.984 -4.71403 -1.54897 0
M  V30 1712 N 158.157 -0.370918 -1.53173 0
M  V30 1713 C 159.568 0.107139 -1.86392 0
M  V30 1714 C 159.919 1.47714 -1.29132 0
M  V30 1715 O 159.044 2.07464 -0.615439 0
M  V30 1716 C 159.639 0.201187 -3.38202 0
M  V30 1717 C 158.198 0.623507 -3.712 0
M  V30 1718 C 157.345 -0.225978 -2.76378 0
M  V30 1719 H 160.296 -0.58951 -1.47345 0
M  V30 1720 H 160.317 1.02377 -3.66468 0
M  V30 1721 H 159.829 -0.796058 -3.79848 0
M  V30 1722 H 157.93 1.62879 -3.35114 0
M  V30 1723 H 158.043 0.394414 -4.77474 0
M  V30 1724 H 156.407 0.305962 -2.52856 0
M  V30 1725 H 157.19 -1.22086 -3.20858 0
M  V30 1726 N 159.635 1.57281 -0.100228 0
M  V30 1727 C 160.545 2.17833 0.870965 0
M  V30 1728 C 161.561 1.14921 1.30649 0
M  V30 1729 O 162.737 1.47313 1.37335 0
M  V30 1730 C 159.802 2.75085 2.1102 0
M  V30 1731 C 158.863 3.9297 1.72838 0
M  V30 1732 C 158.096 4.47482 2.90854 0
M  V30 1733 O 158.319 4.00922 4.05731 0
M  V30 1734 O 157.253 5.38433 2.69023 0
M  V30 1735 H 161.079 3.0124 0.38575 0
M  V30 1736 H 158.664 1.48881 0.124397 0
M  V30 1737 H 160.546 3.11656 2.83634 0
M  V30 1738 H 159.221 1.94721 2.58584 0
M  V30 1739 H 158.128 3.61201 0.973883 0
M  V30 1740 H 159.461 4.74713 1.30033 0
M  V30 1741 N 161.113 -0.173488 1.56642 0
M  V30 1742 C 162.338 -0.910149 1.86363 0
M  V30 1743 C 162.763 -1.75132 0.686318 0
M  V30 1744 O 162.121 -1.77595 -0.364643 0
M  V30 1745 C 162.169 -1.76447 3.14482 0
M  V30 1746 O 161.273 -2.86584 2.96553 0
M  V30 1747 H 160.614 -0.255086 0.613047 0
M  V30 1748 H 163.144 -0.172283 2.03873 0
M  V30 1749 H 163.154 -2.16483 3.45831 0
M  V30 1750 H 161.829 -1.14658 3.99783 0
M  V30 1751 H 160.406 -2.50146 2.76553 0
M  V30 1752 N 162.591 -1.51276 -0.441967 0
M  V30 1753 C 163.501 -1.75092 -1.56141 0
M  V30 1754 C 164.517 -0.634963 -1.62001 0
M  V30 1755 O 165.693 -0.916686 -1.79329 0
M  V30 1756 C 162.758 -1.86666 -2.92158 0
M  V30 1757 C 161.819 -3.10506 -2.96453 0
M  V30 1758 C 161.052 -3.21519 -4.25982 0
M  V30 1759 O 161.275 -2.38586 -5.18105 0
M  V30 1760 O 160.209 -4.14465 -4.36466 0
M  V30 1761 H 164.035 -2.70044 -1.38961 0
M  V30 1762 H 161.62 -1.35722 -0.624499 0
M  V30 1763 H 163.502 -1.96292 -3.72891 0
M  V30 1764 H 162.177 -0.949014 -3.09476 0
M  V30 1765 H 161.084 -3.06363 -2.14692 0
M  V30 1766 H 162.417 -4.01945 -2.84079 0
M  V30 1767 N 164.069 0.697108 -1.41344 0
M  V30 1768 C 164.979 1.84088 -1.45427 0
M  V30 1769 C 165.995 1.70545 -0.34501 0
M  V30 1770 O 167.171 1.92488 -0.592492 0
M  V30 1771 C 164.236 3.20056 -1.33286 0
M  V30 1772 C 163.297 3.45718 -2.54514 0
M  V30 1773 C 162.53 4.75199 -2.42944 0
M  V30 1774 O 162.753 5.51579 -1.45318 0
M  V30 1775 O 161.687 5.0161 -3.32672 0
M  V30 1776 H 165.513 1.836 -2.41919 0
M  V30 1777 H 163.098 0.849966 -1.22866 0
M  V30 1778 H 164.98 4.01236 -1.28794 0
M  V30 1779 H 163.655 3.2123 -0.39909 0
M  V30 1780 H 162.562 2.64474 -2.64583 0
M  V30 1781 H 163.895 3.49356 -3.46715 0
M  V30 1782 N 165.547 1.27147 0.931209 0
M  V30 1783 C 166.494 1.09568 2.03134 0
M  V30 1784 C 167.464 -0.00222433 1.661 0
M  V30 1785 O 168.649 0.159439 1.90133 0
M  V30 1786 C 165.789 0.745231 3.36957 0
M  V30 1787 C 164.902 1.92041 3.86968 0
M  V30 1788 C 164.037 1.51216 5.09222 0
M  V30 1789 C 163.076 2.65504 5.5152 0
M  V30 1790 N 162.213 2.25291 6.64972 0
M  V30 1791 H 167.053 2.03708 2.17502 0
M  V30 1792 H 164.59 1.01411 1.06556 0
M  V30 1793 H 166.548 0.522878 4.1391 0
M  V30 1794 H 165.178 -0.159202 3.22407 0
M  V30 1795 H 164.23 2.25541 3.06326 0
M  V30 1796 H 165.542 2.77787 4.1429 0
M  V30 1797 H 164.696 1.25084 5.93666 0
M  V30 1798 H 163.435 0.625749 4.83669 0
M  V30 1799 H 162.44 2.92354 4.65628 0
M  V30 1800 H 163.665 3.54761 5.7907 0
M  V30 1801 H 161.611 1.39098 6.41083 0
M  V30 1802 H 161.528 3.04577 6.91931 0
M  V30 1803 H 162.796 2.02398 7.52765 0
M  V30 1804 N 167.025 -1.13721 1.09112 0
M  V30 1805 C 168.255 -1.88499 0.845671 0
M  V30 1806 C 168.663 -1.79218 -0.606432 0
M  V30 1807 O 168.006 -1.1544 -1.42896 0
M  V30 1808 C 168.068 -3.38954 1.19793 0
M  V30 1809 C 167.732 -3.72018 2.65428 0
M  V30 1810 C 168.729 -3.7153 3.63677 0
M  V30 1811 C 166.414 -4.01775 3.01467 0
M  V30 1812 C 168.408 -4.00336 4.95994 0
M  V30 1813 C 166.095 -4.30243 4.33975 0
M  V30 1814 C 167.093 -4.29508 5.31048 0
M  V30 1815 O 166.781 -4.5728 6.61173 0
M  V30 1816 H 166.513 -0.603702 0.304171 0
M  V30 1817 H 169.067 -1.44903 1.45576 0
M  V30 1818 H 167.297 -3.83039 0.530871 0
M  V30 1819 H 168.986 -3.95052 0.932146 0
M  V30 1820 H 169.752 -3.4862 3.37179 0
M  V30 1821 H 165.631 -4.01496 2.26544 0
M  V30 1822 H 169.175 -3.99678 5.71755 0
M  V30 1823 H 165.072 -4.52625 4.60219 0
M  V30 1824 H 165.84 -4.74964 6.66597 0
M  V30 1825 N 168.503 -0.877838 -1.30888 0
M  V30 1826 C 169.919 -0.570844 -1.49042 0
M  V30 1827 C 170.119 0.893159 -1.80624 0
M  V30 1828 O 169.175 1.67485 -1.88958 0
M  V30 1829 C 170.488 -1.47784 -2.61878 0
M  V30 1830 C 172.036 -1.48071 -2.75761 0
M  V30 1831 C 172.511 -2.37347 -3.91702 0
M  V30 1832 N 174.002 -2.35271 -3.99001 0
M  V30 1833 C 174.737 -3.01063 -4.88004 0
M  V30 1834 N 174.233 -3.76055 -5.81854 0
M  V30 1835 N 176.026 -2.90332 -4.81315 0
M  V30 1836 H 168.177 -1.82502 -1.0866 0
M  V30 1837 H 170.44 -0.780797 -0.537644 0
M  V30 1838 H 170.146 -2.51993 -2.45341 0
M  V30 1839 H 170.02 -1.18215 -3.58197 0
M  V30 1840 H 172.407 -0.446166 -2.91708 0
M  V30 1841 H 172.488 -1.81668 -1.80085 0
M  V30 1842 H 172.132 -3.40883 -3.76512 0
M  V30 1843 H 172.062 -2.01071 -4.86701 0
M  V30 1844 H 174.553 -1.80768 -3.3186 0
M  V30 1845 H 174.866 -4.23366 -6.46514 0
M  V30 1846 H 173.211 -3.80163 -5.81808 0
M  V30 1847 H 176.402 -2.31278 -4.06974 0
M  V30 1848 H 176.575 -3.41885 -5.50471 0
M  V30 1849 N 169.982 1.44106 -0.638065 0
M  V30 1850 C 171.222 2.03858 -0.148733 0
M  V30 1851 C 171.586 1.49153 1.20903 0
M  V30 1852 O 172.787 2.00452 1.79088 0
M  V30 1853 C 171.058 3.57117 -0.142314 0
M  V30 1854 S 172.617 4.37897 0.281385 0
M  V30 1855 H 169.435 0.708069 -0.0644912 0
M  V30 1856 H 172.037 1.7639 -0.843009 0
M  V30 1857 H 170.741 3.94436 -1.13349 0
M  V30 1858 H 170.272 3.89205 0.572988 0
M  V30 1859 H 172.287 4.72218 1.52395 0
M  V30 1860 N 171.46 0.379036 1.52974 0
M  V30 1861 C 172.706 -0.206727 2.01744 0
M  V30 1862 C 173.039 -1.47314 1.26539 0
M  V30 1863 O 172.314 -1.91084 0.362903 0
M  V30 1864 C 172.597 -0.485066 3.56818 0
M  V30 1865 C 172.45 0.795919 4.42702 0
M  V30 1866 C 173.769 -1.28003 4.21074 0
M  V30 1867 H 170.888 -0.0736607 0.73331 0
M  V30 1868 H 173.53 0.506581 1.83122 0
M  V30 1869 H 171.68 -1.09272 3.72816 0
M  V30 1870 H 173.352 1.43307 4.38476 0
M  V30 1871 H 171.595 1.41344 4.10127 0
M  V30 1872 H 172.266 0.555947 5.49193 0
M  V30 1873 H 174.742 -0.765867 4.08991 0
M  V30 1874 H 173.618 -1.44352 5.29579 0
M  V30 1875 H 173.879 -2.29236 3.78026 0
M  V30 1876 N 172.938 -1.57226 0.108567 0
M  V30 1877 C 174.163 -1.99604 -0.563303 0
M  V30 1878 C 174.588 -0.987563 -1.6009 0
M  V30 1879 O 173.946 0.0421687 -1.81251 0
M  V30 1880 C 173.994 -3.40902 -1.17552 0
M  V30 1881 O 173.098 -3.42896 -2.2912 0
M  V30 1882 H 172.439 -0.648704 -0.1417 0
M  V30 1883 H 174.969 -2.03679 0.193961 0
M  V30 1884 H 174.979 -3.78886 -1.51357 0
M  V30 1885 H 173.654 -4.1382 -0.415445 0
M  V30 1886 H 172.231 -3.1672 -1.96832 0
M  V30 1887 N 174.416 0.165178 -1.56732 0
M  V30 1888 C 175.693 0.908443 -1.73224 0
M  V30 1889 C 176.073 2.0013 -0.67165 0
M  V30 1890 O 175.421 2.26353 0.31253 0
M  V30 1891 C 175.631 1.46756 -3.16644 0
M  V30 1892 C 176.979 1.93809 -3.77787 0
M  V30 1893 O 178.003 1.56537 -3.1996 0
M  V30 1894 O 176.862 2.62486 -4.79336 0
M  V30 1895 H 173.956 0.428025 -0.707618 0
M  V30 1896 H 176.502 0.152526 -1.69013 0
M  V30 1897 H 175.274 0.68129 -3.85323 0
M  V30 1898 H 174.897 2.28749 -3.25207 0
M  V30 1899 N 175.894 1.51508 0.433938 0
M  V30 1900 C 177.119 1.68443 1.21003 0
M  V30 1901 C 177.544 0.382636 1.84167 0
M  V30 1902 O 176.902 -0.65755 1.68956 0
M  V30 1903 C 176.95 2.80405 2.26727 0
M  V30 1904 O 176.054 2.44245 3.32292 0
M  V30 1905 H 175.395 0.561536 0.354363 0
M  V30 1906 H 177.925 1.9809 0.512024 0
M  V30 1907 H 177.935 3.0459 2.71457 0
M  V30 1908 H 176.61 3.74867 1.80132 0
M  V30 1909 H 175.187 2.30644 2.93015 0
M  V30 1910 N 177.372 -0.689602 1.41712 0
M  V30 1911 C 178.304 -1.815 1.39966 0
M  V30 1912 C 179.317 -1.59995 0.300917 0
M  V30 1913 O 180.506 -1.69387 0.563039 0
M  V30 1914 C 177.606 -3.18364 1.16179 0
M  V30 1915 C 176.779 -3.66847 2.38206 0
M  V30 1916 C 175.838 -4.82398 2.10186 0
M  V30 1917 O 174.864 -4.93706 2.83272 0
M  V30 1918 N 176.066 -5.70064 1.0958 0
M  V30 1919 H 178.831 -1.83488 2.36965 0
M  V30 1920 H 176.392 -0.872149 1.36401 0
M  V30 1921 H 178.384 -3.93301 0.953756 0
M  V30 1922 H 176.954 -3.11365 0.27756 0
M  V30 1923 H 176.174 -2.82751 2.74673 0
M  V30 1924 H 177.462 -3.95978 3.19498 0
M  V30 1925 H 176.86 -5.63565 0.491019 0
M  V30 1926 H 175.417 -6.44874 0.947656 0
M  V30 1927 N 178.85 -1.27639 -0.924453 0
M  V30 1928 C 180.09 -1.15407 -1.68703 0
M  V30 1929 C 180.454 0.294581 -1.89727 0
M  V30 1930 O 181.655 0.539385 -2.63333 0
M  V30 1931 C 179.926 -1.9195 -3.0148 0
M  V30 1932 S 181.485 -1.95969 -3.92609 0
M  V30 1933 H 178.303 -0.411937 -0.579507 0
M  V30 1934 H 180.905 -1.61592 -1.10038 0
M  V30 1935 H 179.609 -2.96387 -2.83871 0
M  V30 1936 H 179.14 -1.46272 -3.65196 0
M  V30 1937 H 181.155 -1.05846 -4.84779 0
M  V30 1938 N 180.328 1.1314 -1.09713 0
M  V30 1939 C 181.576 1.84119 -0.833338 0
M  V30 1940 C 181.897 1.84097 0.642904 0
M  V30 1941 O 181.167 1.29881 1.46655 0
M  V30 1942 H 179.747 0.681766 -0.305293 0
M  V30 1943 H 182.409 1.37038 -1.38588 0
M  V30 1944 H 181.505 2.88543 -1.18951 0
M  V30 1945 N 181.806 0.884767 1.30421 0
M  V30 1946 C 183.217 0.553656 1.78302 0
M  V30 1947 C 183.568 -0.930153 1.7275 0
M  V30 1948 O 182.693 -1.72681 1.30423 0
M  V30 1949 C 183.288 0.998234 3.2376 0
M  V30 1950 C 181.847 0.71854 3.69478 0
M  V30 1951 C 180.994 1.18132 2.50879 0
M  V30 1952 H 183.945 1.06901 1.17294 0
M  V30 1953 H 183.966 0.327118 3.79091 0
M  V30 1954 H 183.478 2.0782 3.27769 0
M  V30 1955 H 181.579 -0.349444 3.70958 0
M  V30 1956 H 181.692 1.30595 4.60958 0
M  V30 1957 H 180.056 0.600669 2.47516 0
M  V30 1958 H 180.839 2.26902 2.57624 0
M  V30 1959 N 183.284 -1.43765 0.645699 0
M  V30 1960 C 184.194 -2.34544 -0.0512957 0
M  V30 1961 C 185.21 -1.53455 -0.82022 0
M  V30 1962 O 186.386 -1.86133 -0.769176 0
M  V30 1963 C 183.451 -3.31636 -1.01087 0
M  V30 1964 C 182.512 -4.2863 -0.239712 0
M  V30 1965 C 181.745 -5.21084 -1.15358 0
M  V30 1966 O 181.968 -5.1779 -2.39269 0
M  V30 1967 O 180.902 -5.98593 -0.630038 0
M  V30 1968 H 184.728 -2.95624 0.695718 0
M  V30 1969 H 182.313 -1.43781 0.405882 0
M  V30 1970 H 184.195 -3.9136 -1.56254 0
M  V30 1971 H 182.87 -2.73069 -1.73824 0
M  V30 1972 H 181.777 -3.72408 0.355356 0
M  V30 1973 H 183.11 -4.90157 0.447936 0
M  V30 1974 N 184.763 -0.387143 -1.52771 0
M  V30 1975 C 186.179 -0.037007 -1.59557 0
M  V30 1976 C 186.379 1.44801 -1.40124 0
M  V30 1977 O 185.435 2.21227 -1.21716 0
M  V30 1978 C 186.748 -0.512256 -2.96305 0
M  V30 1979 C 188.296 -0.468328 -3.09476 0
M  V30 1980 C 188.771 -0.919731 -4.4867 0
M  V30 1981 N 190.262 -0.875656 -4.54848 0
M  V30 1982 C 190.997 -1.19637 -5.6078 0
M  V30 1983 N 190.493 -1.58745 -6.74368 0
M  V30 1984 N 192.286 -1.11776 -5.50874 0
M  V30 1985 H 184.437 -1.35395 -1.63652 0
M  V30 1986 H 186.7 -0.554818 -0.768688 0
M  V30 1987 H 186.406 -1.54935 -3.15734 0
M  V30 1988 H 186.28 0.089805 -3.77093 0
M  V30 1989 H 188.667 0.559671 -2.89744 0
M  V30 1990 H 188.748 -1.10616 -2.30646 0
M  V30 1991 H 188.392 -1.94595 -4.69143 0
M  V30 1992 H 188.322 -0.258927 -5.25963 0
M  V30 1993 H 190.813 -0.587843 -3.733 0
M  V30 1994 H 191.126 -1.81586 -7.51163 0
M  V30 1995 H 189.471 -1.6263 -6.75705 0
M  V30 1996 H 192.662 -0.811264 -4.61016 0
M  V30 1997 H 192.835 -1.37103 -6.3333 0
M  V30 1998 N 186.241 1.57166 -0.116904 0
M  V30 1999 C 187.171 2.18222 0.830759 0
M  V30 2000 C 188.152 1.12167 1.27877 0
M  V30 2001 O 189.337 1.40394 1.34176 0
M  V30 2002 C 186.467 2.77996 2.08172 0
M  V30 2003 C 185.421 3.89614 1.77157 0
M  V30 2004 C 184.747 4.36187 3.09265 0
M  V30 2005 C 186.047 5.1181 1.04151 0
M  V30 2006 H 187.741 2.97664 0.321992 0
M  V30 2007 H 185.287 1.4318 0.153434 0
M  V30 2008 H 187.24 3.19366 2.74924 0
M  V30 2009 H 185.964 1.9584 2.6137 0
M  V30 2010 H 184.623 3.48816 1.12796 0
M  V30 2011 H 184.271 3.50893 3.60393 0
M  V30 2012 H 183.971 5.11455 2.89288 0
M  V30 2013 H 185.495 4.80207 3.77139 0
M  V30 2014 H 186.909 5.50214 1.61052 0
M  V30 2015 H 185.306 5.92648 0.942762 0
M  V30 2016 H 186.376 4.84892 0.0279022 0
M  V30 2017 N 187.719 -0.156864 1.56817 0
M  V30 2018 C 189.13 -0.717916 1.72345 0
M  V30 2019 C 189.481 -1.82124 0.729747 0
M  V30 2020 O 188.606 -2.16141 -0.105781 0
M  V30 2021 C 189.201 -1.30904 3.12489 0
M  V30 2022 C 187.76 -1.81676 3.29653 0
M  V30 2023 C 186.907 -0.701349 2.68284 0
M  V30 2024 H 189.858 0.0686989 1.58551 0
M  V30 2025 H 189.879 -2.17882 3.11942 0
M  V30 2026 H 189.391 -0.505796 3.8479 0
M  V30 2027 H 187.492 -2.64598 2.62333 0
M  V30 2028 H 187.605 -1.95226 4.3752 0
M  V30 2029 H 185.969 -1.12548 2.28484 0
M  V30 2030 H 186.752 0.0902846 3.43181 0
M  V30 2031 N 189.197 -1.51736 -0.425897 0
M  V30 2032 C 190.445 -1.64644 -1.17204 0
M  V30 2033 C 190.766 -0.370486 -1.91448 0
M  V30 2034 O 190.036 0.614088 -1.86026 0
M  V30 2035 H 188.616 -0.606819 -0.435638 0
M  V30 2036 H 191.278 -1.88713 -0.487177 0
M  V30 2037 H 190.374 -2.47958 -1.89534 0
M  V30 2038 N 190.675 0.682077 -1.42076 0
M  V30 2039 C 191.923 1.4393 -1.41876 0
M  V30 2040 C 192.244 1.94971 -0.0335599 0
M  V30 2041 O 191.514 1.72591 0.926773 0
M  V30 2042 H 190.094 0.534085 -0.522267 0
M  V30 2043 H 192.756 0.806427 -1.77434 0
M  V30 2044 H 191.852 2.29588 -2.11414 0
M  V30 2045 N 192.153 1.28127 0.917671 0
M  V30 2046 C 193.401 1.14825 1.66312 0
M  V30 2047 C 193.722 -0.304379 1.9261 0
M  V30 2048 O 192.992 -1.21149 1.53947 0
M  V30 2049 H 191.572 0.421953 0.616413 0
M  V30 2050 H 194.234 1.608 1.10134 0
M  V30 2051 H 193.33 1.68489 2.62712 0
M  V30 2052 N 193.631 -1.12557 1.10312 0
M  V30 2053 C 194.88 -1.83395 0.839588 0
M  V30 2054 C 195.193 -1.84939 -0.636929 0
M  V30 2055 O 196.399 -2.51761 -1.01631 0
M  V30 2056 C 194.855 -3.29303 1.45215 0
M  V30 2057 C 194.463 -3.36122 2.96186 0
M  V30 2058 C 196.207 -4.05121 1.26796 0
M  V30 2059 C 194.114 -4.76357 3.50483 0
M  V30 2060 H 193.044 -0.687133 0.310425 0
M  V30 2061 H 195.695 -1.26746 1.32694 0
M  V30 2062 H 194.077 -3.85812 0.892469 0
M  V30 2063 H 195.251 -2.89559 3.58458 0
M  V30 2064 H 193.566 -2.73776 3.13745 0
M  V30 2065 H 196.163 -5.08668 1.64806 0
M  V30 2066 H 196.506 -4.15773 0.209409 0
M  V30 2067 H 197.039 -3.54967 1.79563 0
M  V30 2068 H 193.778 -4.70899 4.55998 0
M  V30 2069 H 193.298 -5.23377 2.92978 0
M  V30 2070 H 194.977 -5.45294 3.48228 0
M  V30 2071 N 195.109 -0.891671 -1.2995 0
M  V30 2072 C 196.039 -0.379797 -2.30391 0
M  V30 2073 C 197.02 0.540919 -1.6127 0
M  V30 2074 O 198.205 0.453352 -1.88834 0
M  V30 2075 C 195.335 0.400654 -3.44981 0
M  V30 2076 C 194.289 -0.428905 -4.25846 0
M  V30 2077 C 193.615 0.478557 -5.32554 0
M  V30 2078 C 194.915 -1.67458 -4.94727 0
M  V30 2079 H 196.609 -1.21914 -2.73454 0
M  V30 2080 H 194.155 -0.587675 -1.31462 0
M  V30 2081 H 196.108 0.769434 -4.14316 0
M  V30 2082 H 194.832 1.27371 -3.0074 0
M  V30 2083 H 193.491 -0.779911 -3.58208 0
M  V30 2084 H 193.139 1.34951 -4.84559 0
M  V30 2085 H 192.839 -0.0727433 -5.87555 0
M  V30 2086 H 194.363 0.843705 -6.04743 0
M  V30 2087 H 195.777 -1.376 -5.56542 0
M  V30 2088 H 194.174 -2.16659 -5.59624 0
M  V30 2089 H 195.244 -2.41518 -4.20473 0
M  V30 2090 N 196.587 1.43421 -0.653314 0
M  V30 2091 C 197.815 2.06163 -0.174491 0
M  V30 2092 C 198.23 1.48969 1.1599 0
M  V30 2093 O 197.587 0.621042 1.71608 0
M  V30 2094 C 197.638 3.61417 -0.0774865 0
M  V30 2095 O 197.359 4.16485 -1.35912 0
M  V30 2096 C 198.86 4.41235 0.427402 0
M  V30 2097 H 196.08 0.664946 -0.0899353 0
M  V30 2098 H 198.624 1.83924 -0.893988 0
M  V30 2099 H 196.779 3.82841 0.59257 0
M  V30 2100 H 197.193 5.10153 -1.21839 0
M  V30 2101 H 198.667 5.5021 0.44423 0
M  V30 2102 H 199.144 4.14268 1.45873 0
M  V30 2103 H 199.75 4.2478 -0.210167 0
M  V30 2104 N 198.065 0.39524 1.52563 0
M  V30 2105 C 199.313 -0.184678 2.01254 0
M  V30 2106 C 199.634 -1.46822 1.28329 0
M  V30 2107 O 198.904 -1.91666 0.405094 0
M  V30 2108 H 197.484 -0.0712355 0.743596 0
M  V30 2109 H 200.146 0.528293 1.87603 0
M  V30 2110 H 199.242 -0.390681 3.09645 0
M  V30 2111 N 199.544 -1.57102 0.125237 0
M  V30 2112 C 200.96 -1.57915 -0.231322 0
M  V30 2113 C 201.16 -1.13833 -1.66266 0
M  V30 2114 O 200.216 -0.828581 -2.38518 0
M  V30 2115 C 201.529 -3.00699 0.00766489 0
M  V30 2116 C 203.077 -3.12947 -0.0577483 0
M  V30 2117 C 203.552 -4.57742 0.153626 0
M  V30 2118 N 205.043 -4.63092 0.0998073 0
M  V30 2119 C 205.778 -5.72905 0.238174 0
M  V30 2120 N 205.274 -6.91445 0.433057 0
M  V30 2121 N 207.067 -5.6182 0.177308 0
M  V30 2122 H 199.218 -1.84055 1.06007 0
M  V30 2123 H 201.481 -0.850905 0.417929 0
M  V30 2124 H 201.187 -3.3726 0.997431 0
M  V30 2125 H 201.061 -3.70236 -0.721452 0
M  V30 2126 H 203.448 -2.7624 -1.03804 0
M  V30 2127 H 203.529 -2.4594 0.70335 0
M  V30 2128 H 203.173 -4.95149 1.13092 0
M  V30 2129 H 203.103 -5.22848 -0.627534 0
M  V30 2130 H 205.594 -3.77871 -0.047051 0
M  V30 2131 H 205.907 -7.70985 0.529332 0
M  V30 2132 H 204.252 -6.93415 0.469109 0
M  V30 2133 H 207.443 -4.68093 0.0259748 0
M  V30 2134 H 207.616 -6.47357 0.288582 0
M  V30 2135 N 201.022 0.148545 -1.56898 0
M  V30 2136 C 202.262 0.86765 -1.85071 0
M  V30 2137 C 202.626 1.78417 -0.709317 0
M  V30 2138 O 203.827 2.54261 -0.872049 0
M  V30 2139 C 202.098 1.62306 -3.1842 0
M  V30 2140 S 203.657 2.3878 -3.68143 0
M  V30 2141 H 200.475 0.290174 -0.649092 0
M  V30 2142 H 203.077 0.127755 -1.95082 0
M  V30 2143 H 201.781 0.941192 -3.99462 0
M  V30 2144 H 201.312 2.4039 -3.1141 0
M  V30 2145 H 203.327 3.63942 -3.37285 0
M  V30 2146 N 202.5 1.5196 0.417844 0
M  V30 2147 C 203.746 1.65836 1.16732 0
M  V30 2148 C 204.079 0.382881 1.90388 0
M  V30 2149 O 203.354 -0.618368 1.84408 0
M  V30 2150 C 203.637 2.87466 2.16876 0
M  V30 2151 C 203.49 4.25041 1.47174 0
M  V30 2152 C 204.809 3.04613 3.17646 0
M  V30 2153 H 201.928 0.603515 0.423011 0
M  V30 2154 H 204.57 1.84494 0.454105 0
M  V30 2155 H 202.72 2.71689 2.777 0
M  V30 2156 H 204.392 4.52527 0.895376 0
M  V30 2157 H 202.635 4.26843 0.773806 0
M  V30 2158 H 203.306 5.06176 2.20204 0
M  V30 2159 H 205.782 3.1923 2.66892 0
M  V30 2160 H 204.658 3.91247 3.8499 0
M  V30 2161 H 204.919 2.17541 3.84874 0
M  V30 2162 N 203.978 -0.674533 1.42435 0
M  V30 2163 C 204.926 -1.80934 1.46169 0
M  V30 2164 C 205.92 -1.66006 0.3374 0
M  V30 2165 O 207.126 -1.72611 0.510425 0
M  V30 2166 H 203.501 -0.596594 0.457798 0
M  V30 2167 H 205.472 -1.74903 2.41767 0
M  V30 2168 C 204.221 -3.19088 1.38123 0
M  V30 2169 H 203.544 -3.31203 2.23931 0
M  V30 2170 H 204.984 -3.9851 1.44797 0
M  V30 2171 C 203.443 -3.36763 0.0960517 0
M  V30 2172 O 203.973 -3.92581 -0.851073 0
M  V30 2173 N 202.179 -2.90597 0.0131186 0
M  V30 2174 H 201.726 -2.45359 0.784639 0
M  V30 2175 H 201.684 -3.028 -0.846133 0
M  V30 2176 N 205.456 -1.28612 -0.910864 0
M  V30 2177 C 206.686 -1.1862 -1.69153 0
M  V30 2178 C 207.094 0.257324 -1.87442 0
M  V30 2179 O 206.437 1.18543 -1.40332 0
M  V30 2180 C 206.499 -1.81606 -3.10257 0
M  V30 2181 C 206.163 -3.30864 -3.15243 0
M  V30 2182 C 207.16 -4.27256 -2.96223 0
M  V30 2183 C 204.845 -3.71871 -3.37664 0
M  V30 2184 C 206.839 -5.62631 -2.99541 0
M  V30 2185 C 204.526 -5.07371 -3.40614 0
M  V30 2186 C 205.524 -6.02561 -3.21573 0
M  V30 2187 O 205.212 -7.35589 -3.2429 0
M  V30 2188 H 204.944 -0.412633 -0.535453 0
M  V30 2189 H 207.498 -1.70306 -1.14827 0
M  V30 2190 H 205.728 -1.24418 -3.66138 0
M  V30 2191 H 207.417 -1.66092 -3.70362 0
M  V30 2192 H 208.183 -3.9691 -2.78725 0
M  V30 2193 H 204.062 -2.98241 -3.5153 0
M  V30 2194 H 207.606 -6.36907 -2.84597 0
M  V30 2195 H 203.503 -5.37366 -3.57642 0
M  V30 2196 H 204.271 -7.44252 -3.40633 0
M  V30 2197 N 206.934 1.1197 -1.10907 0
M  V30 2198 C 208.159 1.87942 -0.877064 0
M  V30 2199 C 208.584 1.79341 0.567314 0
M  V30 2200 O 207.942 1.15184 1.40009 0
M  V30 2201 C 207.99 3.34926 -1.33629 0
M  V30 2202 O 207.094 4.09303 -0.504447 0
M  V30 2203 H 206.435 0.583785 -0.316371 0
M  V30 2204 H 208.965 1.4157 -1.47712 0
M  V30 2205 H 208.975 3.8577 -1.32837 0
M  V30 2206 H 207.65 3.40504 -2.3881 0
M  V30 2207 H 206.227 3.68393 -0.577993 0
M  V30 2208 N 208.412 0.89855 1.29475 0
M  V30 2209 C 209.637 0.538561 2.00285 0
M  V30 2210 C 210.062 -0.869135 1.66816 0
M  V30 2211 O 209.42 -1.57831 0.892145 0
M  V30 2212 C 209.468 0.736475 3.52999 0
M  V30 2213 O 208.572 -0.211537 4.11857 0
M  V30 2214 H 207.913 0.210563 0.62973 0
M  V30 2215 H 210.443 1.20982 1.64998 0
M  V30 2216 H 210.453 0.640685 4.02938 0
M  V30 2217 H 209.128 1.76276 3.76696 0
M  V30 2218 H 207.705 -0.0682991 3.72837 0
M  V30 2219 N 209.89 -1.43072 0.660911 0
M  V30 2220 C 211.136 -2.0202 0.177708 0
M  V30 2221 C 211.469 -1.52066 -1.20787 0
M  V30 2222 O 210.744 -0.716987 -1.80802 0
M  V30 2223 C 211.027 -3.59561 0.197019 0
M  V30 2224 C 210.88 -4.19727 1.61706 0
M  V30 2225 C 212.199 -4.37664 -0.462396 0
M  V30 2226 H 209.318 -0.734034 0.0660494 0
M  V30 2227 H 211.96 -1.70272 0.843058 0
M  V30 2228 H 210.11 -3.86739 -0.369527 0
M  V30 2229 H 211.782 -4.03553 2.23479 0
M  V30 2230 H 210.025 -3.76084 2.16201 0
M  V30 2231 H 210.696 -5.28834 1.58237 0
M  V30 2232 H 213.172 -4.16095 0.0197215 0
M  V30 2233 H 212.048 -5.47305 -0.418188 0
M  V30 2234 H 212.309 -4.14493 -1.53778 0
M  V30 2235 N 211.368 -0.403325 -1.52352 0
M  V30 2236 C 212.298 0.416205 -2.29761 0
M  V30 2237 C 213.279 1.05123 -1.33728 0
M  V30 2238 O 214.464 1.06134 -1.62632 0
M  V30 2239 C 211.594 1.53624 -3.11475 0
M  V30 2240 C 210.548 1.02653 -4.15507 0
M  V30 2241 C 209.874 2.23971 -4.85532 0
M  V30 2242 C 211.174 0.08463 -5.22231 0
M  V30 2243 H 212.868 -0.229701 -2.98518 0
M  V30 2244 H 210.414 -0.111913 -1.43564 0
M  V30 2245 H 212.367 2.1165 -3.64393 0
M  V30 2246 H 211.091 2.20994 -2.40477 0
M  V30 2247 H 209.75 0.46871 -3.63591 0
M  V30 2248 H 209.398 2.89883 -4.11068 0
M  V30 2249 H 209.098 1.90521 -5.55856 0
M  V30 2250 H 210.622 2.82614 -5.41259 0
M  V30 2251 H 212.036 0.573509 -5.70424 0
M  V30 2252 H 210.433 -0.160783 -5.99885 0
M  V30 2253 H 211.503 -0.86237 -4.7717 0
M  V30 2254 N 212.846 1.57033 -0.133567 0
M  V30 2255 C 214.262 1.58035 0.222944 0
M  V30 2256 C 214.462 1.14713 1.6566 0
M  V30 2257 O 213.518 0.841218 2.38075 0
M  V30 2258 C 214.831 3.00691 -0.0236116 0
M  V30 2259 C 216.379 3.12973 0.0411512 0
M  V30 2260 C 216.854 4.57654 -0.177899 0
M  V30 2261 N 218.345 4.63033 -0.124365 0
M  V30 2262 C 219.08 5.72771 -0.268553 0
M  V30 2263 N 218.576 6.91206 -0.46972 0
M  V30 2264 N 220.369 5.61718 -0.2071 0
M  V30 2265 H 212.52 1.8349 -1.06981 0
M  V30 2266 H 214.783 0.848677 -0.422436 0
M  V30 2267 H 214.489 3.36726 -1.0153 0
M  V30 2268 H 214.363 3.70614 0.701808 0
M  V30 2269 H 216.75 2.76787 1.02338 0
M  V30 2270 H 216.831 2.45564 -0.716383 0
M  V30 2271 H 216.475 4.94542 -1.15717 0
M  V30 2272 H 216.405 5.23173 0.599797 0
M  V30 2273 H 218.896 3.7789 0.027011 0
M  V30 2274 H 219.209 7.70693 -0.570212 0
M  V30 2275 H 217.554 6.93156 -0.505876 0
M  V30 2276 H 220.745 4.68072 -0.0507986 0
M  V30 2277 H 220.918 6.47195 -0.322909 0
M  V30 2278 N 214.325 -0.140222 1.56975 0
M  V30 2279 C 215.553 -0.866437 1.87884 0
M  V30 2280 C 215.968 -1.74428 0.722517 0
M  V30 2281 O 215.325 -1.79891 -0.30749 0
M  V30 2282 C 215.376 -1.71753 3.18093 0
M  V30 2283 O 215.097 -0.875056 4.29272 0
M  V30 2284 C 216.598 -2.55074 3.62563 0
M  V30 2285 H 213.818 -0.25019 0.622612 0
M  V30 2286 H 216.362 -0.130977 2.0408 0
M  V30 2287 H 214.517 -2.40598 3.03631 0
M  V30 2288 H 214.931 -1.46002 5.03769 0
M  V30 2289 H 216.405 -3.10356 4.5649 0
M  V30 2290 H 216.882 -3.31434 2.88181 0
M  V30 2291 H 217.488 -1.91509 3.79743 0
M  V30 2292 N 215.803 -1.52179 -0.40978 0
M  V30 2293 C 217.043 -1.67882 -1.16597 0
M  V30 2294 C 217.407 -0.399795 -1.87791 0
M  V30 2295 O 218.608 -0.43292 -2.65291 0
M  V30 2296 C 216.879 -2.86662 -2.13448 0
M  V30 2297 S 218.438 -3.22843 -2.97183 0
M  V30 2298 H 215.256 -0.59118 -0.395002 0
M  V30 2299 H 217.858 -1.9017 -0.453373 0
M  V30 2300 H 216.562 -3.77998 -1.59831 0
M  V30 2301 H 216.093 -2.66645 -2.89247 0
M  V30 2302 H 218.108 -2.71415 -4.15389 0
M  V30 2303 N 217.281 0.66697 -1.42791 0
M  V30 2304 C 218.191 1.80962 -1.49299 0
M  V30 2305 C 219.207 1.69775 -0.381108 0
M  V30 2306 O 220.383 1.91188 -0.633188 0
M  V30 2307 C 217.448 3.17156 -1.40045 0
M  V30 2308 C 216.509 3.40242 -2.6179 0
M  V30 2309 C 215.742 4.69939 -2.52969 0
M  V30 2310 O 215.965 5.48372 -1.56985 0
M  V30 2311 O 214.899 4.94441 -3.43237 0
M  V30 2312 H 218.725 1.78427 -2.45759 0
M  V30 2313 H 216.31 0.823713 -1.24641 0
M  V30 2314 H 218.192 3.98413 -1.37276 0
M  V30 2315 H 216.867 3.20312 -0.467138 0
M  V30 2316 H 215.774 2.58802 -2.70134 0
M  V30 2317 H 217.107 3.41923 -3.54047 0
M  V30 2318 N 218.759 1.29093 0.90403 0
M  V30 2319 C 220.008 1.16187 1.64874 0
M  V30 2320 C 220.321 -0.286742 1.93487 0
M  V30 2321 O 221.527 -0.537062 2.66135 0
M  V30 2322 C 219.983 2.03177 2.97064 0
M  V30 2323 C 219.591 3.52836 2.76062 0
M  V30 2324 C 221.335 1.98984 3.74974 0
M  V30 2325 C 219.242 4.31945 4.03952 0
M  V30 2326 H 218.172 0.431246 0.618501 0
M  V30 2327 H 220.823 1.53699 1.00243 0
M  V30 2328 H 219.205 1.5853 3.62883 0
M  V30 2329 H 220.379 4.05507 2.18863 0
M  V30 2330 H 218.694 3.58656 2.11553 0
M  V30 2331 H 221.291 2.55351 4.69787 0
M  V30 2332 H 221.634 0.968815 4.0487 0
M  V30 2333 H 222.167 2.41652 3.15989 0
M  V30 2334 H 218.906 5.34667 3.79225 0
M  V30 2335 H 218.426 3.84045 4.60727 0
M  V30 2336 H 220.105 4.42379 4.72133 0
M  V30 2337 N 220.237 -1.11381 1.11499 0
M  V30 2338 C 221.169 -2.17207 0.731704 0
M  V30 2339 C 222.182 -1.61066 -0.236957 0
M  V30 2340 O 223.371 -1.78489 -0.0197591 0
M  V30 2341 C 220.471 -3.38846 0.0607624 0
M  V30 2342 C 219.644 -4.24451 1.0564 0
M  V30 2343 C 218.703 -5.24562 0.4149 0
M  V30 2344 O 217.729 -5.59071 1.069 0
M  V30 2345 N 218.931 -5.74651 -0.821943 0
M  V30 2346 H 221.696 -2.50699 1.64225 0
M  V30 2347 H 219.257 -1.26908 1.00529 0
M  V30 2348 H 221.249 -4.02911 -0.380139 0
M  V30 2349 H 219.819 -3.03411 -0.752376 0
M  V30 2350 H 219.039 -3.56833 1.67524 0
M  V30 2351 H 220.327 -4.78486 1.72998 0
M  V30 2352 H 219.725 -5.48797 -1.37252 0
M  V30 2353 H 218.282 -6.40549 -1.20582 0
M  V30 2354 N 221.715 -0.905404 -1.28997 0
M  V30 2355 C 222.963 -0.533192 -1.9494 0
M  V30 2356 C 223.284 0.924618 -1.71685 0
M  V30 2357 O 222.554 1.65268 -1.05183 0
M  V30 2358 H 221.134 -0.194194 -0.721317 0
M  V30 2359 H 223.796 -1.15294 -1.57141 0
M  V30 2360 H 222.892 -0.72059 -3.03667 0
M  V30 2361 N 223.193 1.4272 -0.668489 0
M  V30 2362 C 224.439 2.02443 -0.197076 0
M  V30 2363 C 224.794 1.51882 1.18109 0
M  V30 2364 O 224.087 0.708618 1.78015 0
M  V30 2365 C 224.281 3.57021 -0.164499 0
M  V30 2366 C 224.11 4.22583 -1.53797 0
M  V30 2367 C 222.88 4.58019 -2.13416 0
M  V30 2368 C 225.078 4.50588 -2.47941 0
M  V30 2369 N 223.06 5.08729 -3.4361 0
M  V30 2370 C 224.431 5.02782 -3.62782 0
M  V30 2371 C 226.486 4.32571 -2.46551 0
M  V30 2372 C 225.189 5.38852 -4.76478 0
M  V30 2373 C 227.215 4.69713 -3.59338 0
M  V30 2374 C 226.577 5.22053 -4.72906 0
M  V30 2375 H 222.676 0.773214 -0.116894 0
M  V30 2376 H 225.26 1.73673 -0.880108 0
M  V30 2377 H 223.431 3.85323 0.487925 0
M  V30 2378 H 225.163 4.03439 0.319207 0
M  V30 2379 H 221.918 4.43566 -1.65969 0
M  V30 2380 H 222.342 5.38521 -4.10273 0
M  V30 2381 H 226.984 3.91365 -1.59978 0
M  V30 2382 H 224.702 5.78993 -5.63731 0
M  V30 2383 H 228.288 4.57454 -3.59482 0
M  V30 2384 H 227.168 5.50258 -5.58736 0
M  V30 2385 N 224.671 0.411399 1.52136 0
M  V30 2386 C 225.911 -0.163143 2.03748 0
M  V30 2387 C 226.275 -1.42187 1.29022 0
M  V30 2388 O 227.476 -2.075 1.70872 0
M  V30 2389 C 225.747 -0.402651 3.55125 0
M  V30 2390 S 227.306 -0.944315 4.28519 0
M  V30 2391 H 224.124 -0.0439833 0.709638 0
M  V30 2392 H 226.726 0.56484 1.87163 0
M  V30 2393 H 225.43 0.520212 4.0709 0
M  V30 2394 H 224.961 -1.15844 3.75957 0
M  V30 2395 H 226.976 -2.22463 4.43536 0
M  V30 2396 N 226.149 -1.5696 0.141893 0
M  V30 2397 C 227.56 -1.82797 -0.379776 0
M  V30 2398 C 227.911 -1.06033 -1.6508 0
M  V30 2399 O 227.036 -0.304011 -2.14254 0
M  V30 2400 C 227.631 -3.31578 -0.695802 0
M  V30 2401 C 226.19 -3.58014 -1.16201 0
M  V30 2402 C 225.337 -2.76699 -0.182455 0
M  V30 2403 H 228.288 -1.54406 0.366675 0
M  V30 2404 H 228.309 -3.47454 -1.55099 0
M  V30 2405 H 227.821 -3.87421 0.229449 0
M  V30 2406 H 225.922 -3.07553 -2.10338 0
M  V30 2407 H 226.035 -4.66501 -1.09151 0
M  V30 2408 H 224.399 -2.45618 -0.674072 0
M  V30 2409 H 225.182 -3.35311 0.736297 0
M  V30 2410 N 227.627 0.131896 -1.57047 0
M  V30 2411 C 228.855 0.856461 -1.88341 0
M  V30 2412 C 229.27 1.74042 -0.731757 0
M  V30 2413 O 228.627 1.80051 0.297945 0
M  V30 2414 C 228.678 1.70064 -3.18999 0
M  V30 2415 O 228.399 0.852278 -4.2973 0
M  V30 2416 C 229.9 2.53148 -3.63911 0
M  V30 2417 H 227.12 0.246885 -0.62393 0
M  V30 2418 H 229.664 0.120152 -2.04147 0
M  V30 2419 H 227.819 2.38984 -3.04902 0
M  V30 2420 H 228.233 1.43329 -5.04537 0
M  V30 2421 H 229.707 3.07931 -4.58129 0
M  V30 2422 H 230.184 3.29901 -2.89935 0
M  V30 2423 H 230.79 1.89492 -3.80753 0
M  V30 2424 N 229.106 1.52395 0.401703 0
M  V30 2425 C 230.016 1.7917 1.51444 0
M  V30 2426 C 231.032 0.677691 1.6026 0
M  V30 2427 O 232.208 0.963909 1.76835 0
M  V30 2428 C 229.273 1.94347 2.87107 0
M  V30 2429 C 228.334 3.18257 2.88116 0
M  V30 2430 C 227.567 3.32701 4.17308 0
M  V30 2431 O 227.79 2.52238 5.11598 0
M  V30 2432 O 226.724 4.25891 4.25324 0
M  V30 2433 H 230.55 2.73633 1.31752 0
M  V30 2434 H 228.135 1.3733 0.588296 0
M  V30 2435 H 230.017 2.06109 3.67555 0
M  V30 2436 H 228.692 1.03073 3.06851 0
M  V30 2437 H 227.599 3.11947 2.06494 0
M  V30 2438 H 228.932 4.09336 2.73322 0
M  V30 2439 N 230.584 -0.659388 1.43143 0
M  V30 2440 C 231.83 -1.42145 1.44647 0
M  V30 2441 C 232.163 -1.9408 0.0681907 0
M  V30 2442 O 231.438 -1.71899 -0.910007 0
M  V30 2443 C 231.721 -2.60735 2.48373 0
M  V30 2444 C 231.574 -2.14332 3.95451 0
M  V30 2445 C 232.893 -3.62951 2.48906 0
M  V30 2446 H 230.012 -0.51552 0.526696 0
M  V30 2447 H 232.654 -0.748069 1.74654 0
M  V30 2448 H 230.804 -3.18184 2.22916 0
M  V30 2449 H 232.476 -1.61932 4.31944 0
M  V30 2450 H 230.719 -1.4576 4.08578 0
M  V30 2451 H 231.39 -2.99583 4.63631 0
M  V30 2452 H 233.866 -3.1525 2.71582 0
M  V30 2453 H 232.742 -4.43487 3.23435 0
M  V30 2454 H 233.003 -4.15126 1.52061 0
M  V30 2455 N 232.062 -1.29571 -0.897171 0
M  V30 2456 C 233.339 -1.08365 -1.62839 0
M  V30 2457 C 233.719 0.371331 -2.07808 0
M  V30 2458 O 233.067 1.3606 -1.83576 0
M  V30 2459 C 233.277 -2.0735 -2.80726 0
M  V30 2460 C 234.625 -2.38406 -3.51351 0
M  V30 2461 O 235.649 -2.05564 -2.90898 0
M  V30 2462 O 234.508 -2.9453 -4.60341 0
M  V30 2463 H 231.602 -0.415345 -0.715134 0
M  V30 2464 H 234.148 -1.40952 -0.945018 0
M  V30 2465 H 232.92 -3.05339 -2.44711 0
M  V30 2466 H 232.543 -1.75507 -3.56767 0
M  V30 2467 N 233.54 1.10788 -1.12088 0
M  V30 2468 C 234.768 1.86461 -0.896651 0
M  V30 2469 C 235.183 1.80492 0.553912 0
M  V30 2470 O 234.54 1.19102 1.38278 0
M  V30 2471 C 234.591 3.35006 -1.35843 0
M  V30 2472 O 234.312 3.40866 -2.75213 0
M  V30 2473 C 235.813 4.27565 -1.1706 0
M  V30 2474 H 233.033 0.589425 -0.320654 0
M  V30 2475 H 235.577 1.40076 -1.48993 0
M  V30 2476 H 233.732 3.7887 -0.808458 0
M  V30 2477 H 234.146 4.33411 -2.9539 0
M  V30 2478 H 235.62 5.30007 -1.54263 0
M  V30 2479 H 236.097 4.3906 -0.110814 0
M  V30 2480 H 236.703 3.89501 -1.70789 0
M  V30 2481 N 235.018 0.912232 1.28515 0
M  V30 2482 C 236.264 0.545405 1.95328 0
M  V30 2483 C 236.597 -0.908313 1.71649 0
M  V30 2484 O 235.872 -1.64575 1.03659 0
M  V30 2485 C 236.155 0.853483 3.4984 0
M  V30 2486 C 236.008 2.35982 3.82926 0
M  V30 2487 C 237.327 0.348589 4.38717 0
M  V30 2488 H 234.446 0.199626 0.709449 0
M  V30 2489 H 237.088 1.1412 1.5191 0
M  V30 2490 H 235.238 0.34643 3.86952 0
M  V30 2491 H 236.91 2.93738 3.55691 0
M  V30 2492 H 235.153 2.81543 3.30024 0
M  V30 2493 H 235.824 2.52593 4.90816 0
M  V30 2494 H 238.3 0.78294 4.08668 0
M  V30 2495 H 237.176 0.593242 5.45685 0
M  V30 2496 H 237.437 -0.751049 4.35674 0
M  V30 2497 N 236.496 -1.42363 0.676048 0
M  V30 2498 C 237.406 -2.346 -0.00153389 0
M  V30 2499 C 238.422 -1.5516 -0.787485 0
M  V30 2500 O 239.598 -1.87723 -0.729521 0
M  V30 2501 C 236.663 -3.33705 -0.940298 0
M  V30 2502 C 235.724 -4.29042 -0.148739 0
M  V30 2503 C 234.957 -5.23413 -1.04279 0
M  V30 2504 O 235.18 -5.22749 -2.28232 0
M  V30 2505 O 234.114 -5.99795 -0.502925 0
M  V30 2506 H 237.94 -2.94082 0.758268 0
M  V30 2507 H 235.525 -1.42888 0.436289 0
M  V30 2508 H 237.407 -3.94586 -1.47917 0
M  V30 2509 H 236.082 -2.76695 -1.67993 0
M  V30 2510 H 234.989 -3.71571 0.43427 0
M  V30 2511 H 236.322 -4.89097 0.551805 0
M  V30 2512 N 237.974 -0.419461 -1.51915 0
M  V30 2513 C 239.202 0.152136 -2.0634 0
M  V30 2514 C 239.617 1.37988 -1.28859 0
M  V30 2515 O 238.974 1.79243 -0.343232 0
M  V30 2516 C 239.025 0.492266 -3.58133 0
M  V30 2517 O 238.746 -0.686736 -4.32684 0
M  V30 2518 C 240.247 1.11648 -4.2901 0
M  V30 2519 H 237.467 0.0158325 -0.670813 0
M  V30 2520 H 240.011 -0.593394 -1.95702 0
M  V30 2521 H 238.166 1.18769 -3.68745 0
M  V30 2522 H 238.58 -0.400341 -5.2297 0
M  V30 2523 H 240.054 1.3046 -5.36362 0
M  V30 2524 H 240.531 2.09251 -3.86148 0
M  V30 2525 H 241.137 0.460958 -4.22795 0
M  V30 2526 N 239.452 1.56882 -0.150215 0
M  V30 2527 C 240.863 1.82995 0.370076 0
M  V30 2528 C 241.214 1.06907 1.64515 0
M  V30 2529 O 240.339 0.315369 2.1409 0
M  V30 2530 C 240.934 3.31942 0.678208 0
M  V30 2531 C 239.493 3.58625 1.14301 0
M  V30 2532 C 238.64 2.76792 0.167778 0
M  V30 2533 H 241.591 1.54209 -0.374858 0
M  V30 2534 H 241.612 3.48272 1.53254 0
M  V30 2535 H 241.124 3.87294 -0.249991 0
M  V30 2536 H 239.225 3.08664 2.08704 0
M  V30 2537 H 239.338 4.67073 1.06676 0
M  V30 2538 H 237.702 2.45972 0.661037 0
M  V30 2539 H 238.485 3.34916 -0.754069 0
M  V30 2540 N 240.93 -0.123565 1.57115 0
M  V30 2541 C 242.179 -0.830704 1.83799 0
M  V30 2542 C 242.492 -1.81259 0.735158 0
M  V30 2543 O 243.698 -2.56558 0.888278 0
M  V30 2544 C 242.154 -1.52802 3.25852 0
M  V30 2545 C 241.762 -0.587356 4.44133 0
M  V30 2546 C 243.506 -2.22056 3.61789 0
M  V30 2547 C 241.413 -1.28764 5.77212 0
M  V30 2548 H 240.343 -0.313967 0.685522 0
M  V30 2549 H 242.994 -0.0834359 1.8331 0
M  V30 2550 H 241.376 -2.32175 3.20797 0
M  V30 2551 H 242.55 0.172829 4.60476 0
M  V30 2552 H 240.865 -0.00201892 4.164 0
M  V30 2553 H 243.462 -2.75131 4.58483 0
M  V30 2554 H 243.805 -2.99644 2.88997 0
M  V30 2555 H 244.338 -1.49576 3.68608 0
M  V30 2556 H 241.077 -0.55314 6.53162 0
M  V30 2557 H 240.597 -2.01995 5.64764 0
M  V30 2558 H 242.276 -1.8221 6.20813 0
M  V30 2559 N 242.408 -1.52605 -0.393616 0
M  V30 2560 C 243.341 -1.71798 -1.50202 0
M  V30 2561 C 244.319 -0.565743 -1.52441 0
M  V30 2562 O 245.503 -0.794987 -1.70916 0
M  V30 2563 C 242.63 -1.7714 -2.88685 0
M  V30 2564 C 241.676 -2.98845 -3.04292 0
M  V30 2565 S 242.509 -4.58909 -2.75976 0
M  V30 2566 C 243.665 -4.6706 -4.1666 0
M  V30 2567 H 243.898 -2.65542 -1.33696 0
M  V30 2568 H 241.431 -1.42839 -0.586195 0
M  V30 2569 H 243.389 -1.80903 -3.68489 0
M  V30 2570 H 242.05 -0.844969 -3.02521 0
M  V30 2571 H 241.243 -2.99111 -4.05646 0
M  V30 2572 H 240.845 -2.9305 -2.32374 0
M  V30 2573 H 243.137 -4.45391 -5.10523 0
M  V30 2574 H 244.08 -5.6905 -4.21412 0
M  V30 2575 H 244.488 -3.95944 -4.02354 0
M  V30 2576 N 243.887 0.651787 -1.4349 0
M  V30 2577 C 244.82 1.77668 -1.43211 0
M  V30 2578 C 245.798 1.59931 -0.29338 0
M  V30 2579 O 246.982 1.82095 -0.487191 0
M  V30 2580 C 244.109 3.14986 -1.24505 0
M  V30 2581 C 243.155 3.51421 -2.41673 0
M  V30 2582 S 243.988 3.51234 -4.04222 0
M  V30 2583 C 245.144 4.91206 -3.87902 0
M  V30 2584 H 245.377 1.77635 -2.38397 0
M  V30 2585 H 242.91 0.824558 -1.30539 0
M  V30 2586 H 244.868 3.94237 -1.144 0
M  V30 2587 H 243.529 3.1258 -0.308651 0
M  V30 2588 H 242.722 4.51291 -2.24393 0
M  V30 2589 H 242.324 2.79585 -2.48411 0
M  V30 2590 H 244.616 5.79902 -3.50315 0
M  V30 2591 H 245.559 5.13537 -4.8753 0
M  V30 2592 H 245.967 4.64808 -3.20334 0
M  V30 2593 N 245.365 1.30045 0.890287 0
M  V30 2594 C 246.275 1.17885 2.02831 0
M  V30 2595 C 247.291 0.0999609 1.73713 0
M  V30 2596 O 248.467 0.313867 1.98939 0
M  V30 2597 C 245.532 0.866079 3.35708 0
M  V30 2598 C 244.593 2.02979 3.78283 0
M  V30 2599 C 243.826 1.73184 5.0482 0
M  V30 2600 O 244.049 0.657237 5.66601 0
M  V30 2601 O 242.983 2.58267 5.43674 0
M  V30 2602 H 246.809 2.13474 2.16015 0
M  V30 2603 H 244.394 1.09587 1.01543 0
M  V30 2604 H 246.276 0.706623 4.15433 0
M  V30 2605 H 244.951 -0.0599443 3.23644 0
M  V30 2606 H 243.858 2.24454 2.99285 0
M  V30 2607 H 245.191 2.93734 3.94944 0
M  V30 2608 N 246.843 -1.10192 1.12674 0
M  V30 2609 C 247.806 -2.14786 0.799979 0
M  V30 2610 C 248.806 -1.59711 -0.18685 0
M  V30 2611 O 249.996 -1.74156 0.0392558 0
M  V30 2612 C 247.128 -3.40374 0.189228 0
M  V30 2613 H 248.321 -2.45203 1.72671 0
M  V30 2614 H 245.874 -1.25597 0.930326 0
M  V30 2615 H 246.609 -3.15577 -0.747107 0
M  V30 2616 H 246.394 -3.81637 0.899766 0
M  V30 2617 H 247.884 -4.17594 -0.0228143 0
M  V30 2618 N 248.321 -0.919034 -1.28029 0
M  V30 2619 C 249.231 -0.416756 -2.30869 0
M  V30 2620 C 250.247 0.498235 -1.66714 0
M  V30 2621 O 251.423 0.383144 -1.97722 0
M  V30 2622 C 248.488 0.330274 -3.45123 0
M  V30 2623 C 247.549 -0.618578 -4.2482 0
M  V30 2624 C 246.782 0.0928959 -5.33619 0
M  V30 2625 O 247.005 1.31375 -5.55065 0
M  V30 2626 O 245.939 -0.574499 -5.99152 0
M  V30 2627 H 249.765 -1.27043 -2.75851 0
M  V30 2628 H 247.35 -0.684052 -1.3282 0
M  V30 2629 H 249.232 0.751972 -4.14636 0
M  V30 2630 H 247.907 1.1597 -3.02213 0
M  V30 2631 H 246.814 -1.08978 -3.57875 0
M  V30 2632 H 248.147 -1.41497 -4.71423 0
M  V30 2633 N 249.799 1.42003 -0.683588 0
M  V30 2634 C 250.747 2.326 0.000815408 0
M  V30 2635 C 251.741 1.50308 0.781278 0
M  V30 2636 O 252.947 1.66322 0.688251 0
M  V30 2637 H 249.322 0.751758 0.0190616 0
M  V30 2638 H 251.293 2.88011 -0.780528 0
M  V30 2639 C 250.042 3.34978 0.93195 0
M  V30 2640 H 249.365 3.98345 0.340817 0
M  V30 2641 H 250.805 4.00936 1.37936 0
M  V30 2642 C 249.264 2.67925 2.04249 0
M  V30 2643 O 249.794 2.51788 3.12995 0
M  V30 2644 N 248 2.2681 1.81675 0
M  V30 2645 H 247.547 2.40135 0.932363 0
M  V30 2646 H 247.505 1.8228 2.56167 0
M  V30 2647 N 251.277 0.427512 1.51691 0
M  V30 2648 C 252.524 -0.142229 2.02 0
M  V30 2649 C 252.852 -1.43566 1.31221 0
M  V30 2650 O 252.107 -1.91298 0.412744 0
M  V30 2651 C 252.406 -0.418249 3.54944 0
M  V30 2652 C 252.072 0.788187 4.43958 0
M  V30 2653 C 250.734 1.11906 4.68007 0
M  V30 2654 C 253.086 1.59347 4.96244 0
M  V30 2655 C 250.414 2.25608 5.41588 0
M  V30 2656 C 252.766 2.7214 5.71072 0
M  V30 2657 C 251.43 3.05692 5.93387 0
M  V30 2658 H 250.7 -0.0520451 0.73917 0
M  V30 2659 H 253.347 0.572697 1.82736 0
M  V30 2660 H 251.652 -1.21496 3.72486 0
M  V30 2661 H 253.349 -0.872339 3.91397 0
M  V30 2662 H 249.939 0.520344 4.2543 0
M  V30 2663 H 254.123 1.35106 4.77556 0
M  V30 2664 H 249.379 2.51929 5.57083 0
M  V30 2665 H 253.553 3.34914 6.10578 0
M  V30 2666 H 251.18 3.9391 6.50184 0
M  V30 2667 N 252.755 -1.56801 0.158532 0
M  V30 2668 C 253.983 -2.00859 -0.496303 0
M  V30 2669 C 254.398 -1.03871 -1.57659 0
M  V30 2670 O 253.755 -0.0375165 -1.82461 0
M  V30 2671 C 253.806 -3.4479 -1.08638 0
M  V30 2672 O 253.527 -4.38072 -0.0492322 0
M  V30 2673 C 255.028 -4.04185 -1.8207 0
M  V30 2674 H 252.248 -0.65864 -0.128199 0
M  V30 2675 H 254.792 -2.02885 0.256506 0
M  V30 2676 H 252.947 -3.43579 -1.78975 0
M  V30 2677 H 253.361 -5.2227 -0.483102 0
M  V30 2678 H 254.835 -5.06857 -2.18633 0
M  V30 2679 H 255.312 -3.45549 -2.71095 0
M  V30 2680 H 255.918 -4.0906 -1.16405 0
M  V30 2681 N 254.233 0.115231 -1.57178 0
M  V30 2682 C 255.482 0.820945 -1.84237 0
M  V30 2683 C 255.795 1.80866 -0.744761 0
M  V30 2684 O 257.001 2.56083 -0.901871 0
M  V30 2685 C 255.457 1.51072 -3.26658 0
M  V30 2686 C 255.065 0.563795 -4.44438 0
M  V30 2687 C 256.809 2.20134 -3.62962 0
M  V30 2688 C 254.716 1.25701 -5.77887 0
M  V30 2689 H 253.646 0.310328 -0.687177 0
M  V30 2690 H 256.297 0.0737134 -1.83352 0
M  V30 2691 H 254.679 2.30471 -3.22024 0
M  V30 2692 H 255.853 -0.197247 -4.60378 0
M  V30 2693 H 254.168 -0.0200638 -4.16395 0
M  V30 2694 H 256.765 2.72696 -4.59936 0
M  V30 2695 H 257.108 2.98107 -2.90582 0
M  V30 2696 H 257.641 1.47619 -3.69396 0
M  V30 2697 H 254.38 0.518493 -6.53446 0
M  V30 2698 H 253.9 1.98997 -5.65827 0
M  V30 2699 H 255.579 1.78915 -6.2177 0
M  V30 2700 N 255.711 1.52812 0.385517 0
M  V30 2701 C 256.958 1.68026 1.1302 0
M  V30 2702 C 257.286 0.421934 1.89868 0
M  V30 2703 O 256.541 -0.595749 1.86412 0
M  V30 2704 C 256.84 2.86856 2.13187 0
M  V30 2705 C 256.506 4.24159 1.5297 0
M  V30 2706 C 255.168 4.61501 1.36274 0
M  V30 2707 C 257.52 5.09627 1.09223 0
M  V30 2708 C 254.848 5.81966 0.743837 0
M  V30 2709 C 257.2 6.30719 0.487411 0
M  V30 2710 C 255.864 6.6679 0.307777 0
M  V30 2711 H 255.134 0.614849 0.413571 0
M  V30 2712 H 257.781 1.86962 0.414405 0
M  V30 2713 H 256.086 2.6235 2.90998 0
M  V30 2714 H 257.783 2.95821 2.70722 0
M  V30 2715 H 254.373 3.94746 1.66954 0
M  V30 2716 H 258.557 4.81343 1.20922 0
M  V30 2717 H 253.813 6.08519 0.592891 0
M  V30 2718 H 257.987 6.96259 0.140143 0
M  V30 2719 H 255.614 7.60001 -0.173879 0
M  V30 2720 N 257.189 -0.644168 1.43834 0
M  V30 2721 C 258.438 -1.39985 1.45214 0
M  V30 2722 C 258.751 -1.95421 0.0835494 0
M  V30 2723 O 259.957 -2.71488 -0.0251748 0
M  V30 2724 C 258.413 -2.53384 2.55587 0
M  V30 2725 C 258.021 -2.04517 3.98594 0
M  V30 2726 C 259.765 -3.30685 2.66172 0
M  V30 2727 C 257.672 -3.1518 5.00416 0
M  V30 2728 H 256.602 -0.526005 0.540218 0
M  V30 2729 H 259.253 -0.694367 1.69855 0
M  V30 2730 H 257.635 -3.26446 2.24163 0
M  V30 2731 H 258.809 -1.38405 4.39523 0
M  V30 2732 H 257.124 -1.40068 3.92135 0
M  V30 2733 H 259.721 -4.13158 3.39418 0
M  V30 2734 H 260.064 -3.79312 1.71546 0
M  V30 2735 H 260.597 -2.64708 2.96942 0
M  V30 2736 H 257.336 -2.71511 5.96625 0
M  V30 2737 H 256.856 -3.79974 4.64091 0
M  V30 2738 H 258.535 -3.80166 5.23529 0
M  V30 2739 N 258.668 -1.30515 -0.883378 0
M  V30 2740 C 259.615 -1.17032 -1.98927 0
M  V30 2741 C 260.585 -0.0594241 -1.65994 0
M  V30 2742 O 261.77 -0.229895 -1.8941 0
M  V30 2743 C 258.91 -0.869777 -3.33959 0
M  V30 2744 C 258.023 -2.06271 -3.79574 0
M  V30 2745 C 257.158 -1.70011 -5.03259 0
M  V30 2746 C 256.197 -2.8579 -5.41286 0
M  V30 2747 N 255.334 -2.49816 -6.56153 0
M  V30 2748 H 260.174 -2.1164 -2.09792 0
M  V30 2749 H 257.711 -1.05296 -1.02719 0
M  V30 2750 H 259.669 -0.676138 -4.11685 0
M  V30 2751 H 258.299 0.0394332 -3.22776 0
M  V30 2752 H 257.351 -2.36755 -2.97744 0
M  V30 2753 H 258.663 -2.92971 -4.03694 0
M  V30 2754 H 257.817 -1.47032 -5.88614 0
M  V30 2755 H 256.556 -0.804829 -4.81013 0
M  V30 2756 H 255.561 -3.09434 -4.54456 0
M  V30 2757 H 256.786 -3.76008 -5.65504 0
M  V30 2758 H 254.732 -1.62795 -6.35479 0
M  V30 2759 H 254.649 -3.30048 -6.8015 0
M  V30 2760 H 255.917 -2.30197 -7.44735 0
M  V30 2761 N 260.146 1.09593 -1.13257 0
M  V30 2762 C 261.094 2.18271 -0.803783 0
M  V30 2763 C 262.088 1.68054 0.213148 0
M  V30 2764 O 263.294 1.79862 0.0704699 0
M  V30 2765 H 259.669 0.711949 -0.242143 0
M  V30 2766 H 261.64 2.43235 -1.72856 0
M  V30 2767 C 260.389 3.46536 -0.28424 0
M  V30 2768 H 259.712 3.85545 -1.05807 0
M  V30 2769 H 261.152 4.23899 -0.0925945 0
M  V30 2770 C 259.611 3.22036 0.989684 0
M  V30 2771 O 260.141 3.44509 2.06584 0
M  V30 2772 N 258.347 2.7565 0.920086 0
M  V30 2773 H 257.894 2.57562 0.0442019 0
M  V30 2774 H 257.852 2.59635 1.77306 0
M  V30 2775 N 261.624 0.925811 1.2754 0
M  V30 2776 C 262.849 0.580924 1.99098 0
M  V30 2777 C 263.274 -0.833555 1.68622 0
M  V30 2778 O 262.632 -1.55903 0.925422 0
M  V30 2779 C 262.68 0.811186 3.51358 0
M  V30 2780 O 261.784 -0.124129 4.12213 0
M  V30 2781 H 261.125 0.223873 0.625122 0
M  V30 2782 H 263.655 1.24455 1.62395 0
M  V30 2783 H 263.665 0.72601 4.01489 0
M  V30 2784 H 262.34 1.84227 3.72872 0
M  V30 2785 H 260.917 0.0108006 3.72898 0
M  V30 2786 N 263.102 -1.41638 0.69111 0
M  V30 2787 C 264.351 -2.00526 0.217318 0
M  V30 2788 C 264.664 -1.55353 -1.18848 0
M  V30 2789 O 265.87 -2.06769 -1.75951 0
M  V30 2790 C 264.326 -3.58313 0.337639 0
M  V30 2791 C 263.934 -4.12469 1.74852 0
M  V30 2792 C 265.678 -4.24431 -0.0766066 0
M  V30 2793 C 263.585 -5.62675 1.82074 0
M  V30 2794 H 262.515 -0.750008 0.0774893 0
M  V30 2795 H 265.166 -1.6217 0.858661 0
M  V30 2796 H 263.548 -3.9425 -0.371879 0
M  V30 2797 H 264.722 -3.8796 2.48644 0
M  V30 2798 H 263.037 -3.58861 2.11205 0
M  V30 2799 H 265.634 -5.34683 -0.0430284 0
M  V30 2800 H 265.977 -4.01101 -1.1146 0
M  V30 2801 H 266.51 -3.93512 0.582476 0
M  V30 2802 H 263.249 -5.90826 2.83911 0
M  V30 2803 H 262.769 -5.89124 1.12661 0
M  V30 2804 H 264.448 -6.27371 1.58159 0
M  V30 2805 N 264.58 -0.43555 -1.51462 0
M  V30 2806 C 265.996 -0.0877501 -1.59359 0
M  V30 2807 C 266.196 1.4027 -1.4466 0
M  V30 2808 O 265.252 2.17243 -1.28693 0
M  V30 2809 C 266.565 -0.606264 -2.94525 0
M  V30 2810 C 268.113 -0.566548 -3.0783 0
M  V30 2811 C 268.588 -1.06201 -4.45517 0
M  V30 2812 N 270.079 -1.01992 -4.51832 0
M  V30 2813 C 270.814 -1.37417 -5.5669 0
M  V30 2814 N 270.31 -1.80119 -6.68976 0
M  V30 2815 N 272.103 -1.29245 -5.47039 0
M  V30 2816 H 264.254 -1.40533 -1.59261 0
M  V30 2817 H 266.517 -0.578992 -0.750648 0
M  V30 2818 H 266.223 -1.64901 -3.10645 0
M  V30 2819 H 266.097 -0.0302097 -3.77188 0
M  V30 2820 H 268.484 0.467208 -2.91378 0
M  V30 2821 H 268.565 -1.17898 -2.2701 0
M  V30 2822 H 268.209 -2.09422 -4.62715 0
M  V30 2823 H 268.139 -0.426127 -5.24873 0
M  V30 2824 H 270.63 -0.706308 -3.71241 0
M  V30 2825 H 270.943 -2.05392 -7.45006 0
M  V30 2826 H 269.288 -1.84044 -6.70189 0
M  V30 2827 H 272.479 -0.957522 -4.58202 0
M  V30 2828 H 272.652 -1.57182 -6.28648 0
M  V30 2829 N 266.058 1.56714 -0.166846 0
M  V30 2830 C 267.305 1.96747 0.479252 0
M  V30 2831 C 267.633 1.05263 1.63554 0
M  V30 2832 O 266.888 0.0858098 1.95512 0
M  V30 2833 C 267.187 3.42889 1.00806 0
M  V30 2834 C 266.853 4.50889 -0.0318574 0
M  V30 2835 C 265.515 4.8015 -0.317675 0
M  V30 2836 C 267.867 5.15949 -0.737956 0
M  V30 2837 C 265.195 5.71772 -1.31506 0
M  V30 2838 C 267.547 6.08647 -1.72429 0
M  V30 2839 C 266.211 6.36277 -2.0176 0
M  V30 2840 H 265.481 0.719949 0.175371 0
M  V30 2841 H 268.128 1.89756 -0.257864 0
M  V30 2842 H 266.433 3.4681 1.82291 0
M  V30 2843 H 268.13 3.71203 1.51689 0
M  V30 2844 H 264.72 4.28128 0.201088 0
M  V30 2845 H 268.904 4.93458 -0.530351 0
M  V30 2846 H 264.16 5.91465 -1.54853 0
M  V30 2847 H 268.334 6.58129 -2.27682 0
M  V30 2848 H 265.961 7.07075 -2.79194 0
M  V30 2849 N 267.536 -0.106894 1.57237 0
M  V30 2850 C 268.947 -0.662723 1.74542 0
M  V30 2851 C 269.298 -1.7971 0.787319 0
M  V30 2852 O 268.423 -2.16368 -0.0369636 0
M  V30 2853 C 269.018 -1.20896 3.16496 0
M  V30 2854 C 267.577 -1.71096 3.35266 0
M  V30 2855 C 266.724 -0.615642 2.7038 0
M  V30 2856 H 269.675 0.119106 1.58252 0
M  V30 2857 H 269.696 -2.07847 3.18716 0
M  V30 2858 H 269.208 -0.383122 3.86204 0
M  V30 2859 H 267.309 -2.56119 2.70618 0
M  V30 2860 H 267.422 -1.81208 4.43509 0
M  V30 2861 H 265.786 -1.05222 2.31949 0
M  V30 2862 H 266.569 0.199419 3.4272 0
M  V30 2863 N 269.014 -1.53014 -0.377408 0
M  V30 2864 C 269.944 -1.81589 -1.46791 0
M  V30 2865 C 270.925 -0.668622 -1.56408 0
M  V30 2866 O 272.11 -0.917337 -1.71168 0
M  V30 2867 C 269.24 -1.99519 -2.8427 0
M  V30 2868 C 268.194 -3.15249 -2.89486 0
M  V30 2869 C 267.52 -3.18451 -4.29527 0
M  V30 2870 C 268.82 -4.54084 -2.58079 0
M  V30 2871 H 270.514 -2.7291 -1.23127 0
M  V30 2872 H 268.06 -1.31319 -0.590883 0
M  V30 2873 H 270.013 -2.18092 -3.60575 0
M  V30 2874 H 268.737 -1.04897 -3.09296 0
M  V30 2875 H 267.396 -2.96477 -2.15631 0
M  V30 2876 H 267.044 -2.2149 -4.5161 0
M  V30 2877 H 266.744 -3.962 -4.33934 0
M  V30 2878 H 268.268 -3.39193 -5.07721 0
M  V30 2879 H 269.682 -4.72899 -3.24098 0
M  V30 2880 H 268.079 -5.33987 -2.7382 0
M  V30 2881 H 269.149 -4.60006 -1.53372 0
M  V30 2882 N 270.492 0.636531 -1.44174 0
M  V30 2883 C 271.739 1.39619 -1.46672 0
M  V30 2884 C 272.067 1.94257 -0.0972691 0
M  V30 2885 O 271.322 1.73768 0.900175 0
M  V30 2886 C 271.621 2.58309 -2.47005 0
M  V30 2887 C 271.287 2.21992 -3.92467 0
M  V30 2888 C 269.949 2.118 -4.32081 0
M  V30 2889 C 272.301 1.9321 -4.84065 0
M  V30 2890 C 269.629 1.71007 -5.61225 0
M  V30 2891 C 271.981 1.53911 -6.13591 0
M  V30 2892 C 270.645 1.42257 -6.52165 0
M  V30 2893 H 269.915 0.510902 -0.536712 0
M  V30 2894 H 272.562 0.722328 -1.77355 0
M  V30 2895 H 270.867 3.30903 -2.09786 0
M  V30 2896 H 272.564 3.16533 -2.46186 0
M  V30 2897 H 269.154 2.30841 -3.61124 0
M  V30 2898 H 273.338 1.99997 -4.54219 0
M  V30 2899 H 268.594 1.60583 -5.89935 0
M  V30 2900 H 272.768 1.30677 -6.8403 0
M  V30 2901 H 270.395 1.10419 -7.52138 0
M  V30 2902 N 271.97 1.30982 0.876444 0
M  V30 2903 C 272.918 1.18006 2.00443 0
M  V30 2904 C 273.912 0.0898871 1.69161 0
M  V30 2905 O 275.118 0.251333 1.78237 0
M  V30 2906 H 271.493 0.365196 0.65737 0
M  V30 2907 H 273.464 2.13453 2.0852 0
M  V30 2908 C 272.213 0.897521 3.35916 0
M  V30 2909 H 271.536 1.7285 3.60504 0
M  V30 2910 H 272.976 0.846874 4.15456 0
M  V30 2911 C 271.435 -0.399674 3.34521 0
M  V30 2912 O 271.965 -1.41852 3.7582 0
M  V30 2913 N 270.171 -0.413893 2.87637 0
M  V30 2914 H 269.718 0.41571 2.54224 0
M  V30 2915 H 269.676 -1.28175 2.87086 0
M  V30 2916 N 273.449 -1.08991 1.13837 0
M  V30 2917 C 274.696 -1.81258 0.902882 0
M  V30 2918 C 275.024 -1.85936 -0.570803 0
M  V30 2919 O 274.279 -1.3267 -1.43865 0
M  V30 2920 C 274.578 -3.27042 1.44147 0
M  V30 2921 C 274.244 -3.4249 2.93276 0
M  V30 2922 C 272.906 -3.46414 3.33992 0
M  V30 2923 C 275.258 -3.4666 3.892 0
M  V30 2924 C 272.586 -3.52091 4.69307 0
M  V30 2925 C 274.938 -3.53872 5.24364 0
M  V30 2926 C 273.602 -3.56066 5.646 0
M  V30 2927 H 272.872 -0.663268 0.330388 0
M  V30 2928 H 275.519 -1.28368 1.42105 0
M  V30 2929 H 273.824 -3.82599 0.844097 0
M  V30 2930 H 275.521 -3.81499 1.23528 0
M  V30 2931 H 272.111 -3.40124 2.60794 0
M  V30 2932 H 276.295 -3.42865 3.58828 0
M  V30 2933 H 271.551 -3.52079 4.9985 0
M  V30 2934 H 275.725 -3.56043 5.98503 0
M  V30 2935 H 273.352 -3.60218 6.69438 0
M  V30 2936 N 274.927 -0.932562 -1.27047 0
M  V30 2937 C 275.837 -0.441219 -2.30414 0
M  V30 2938 C 276.853 0.480525 -1.67233 0
M  V30 2939 O 278.029 0.362151 -1.98117 0
M  V30 2940 C 275.094 0.293651 -3.45454 0
M  V30 2941 C 274.155 -0.663601 -4.2414 0
M  V30 2942 C 273.388 0.0362932 -5.33688 0
M  V30 2943 O 273.611 1.2548 -5.56427 0
M  V30 2944 O 272.545 -0.638015 -5.98509 0
M  V30 2945 H 276.371 -1.29962 -2.74488 0
M  V30 2946 H 273.956 -0.6981 -1.32087 0
M  V30 2947 H 275.838 0.707951 -4.15411 0
M  V30 2948 H 274.513 1.12758 -3.03426 0
M  V30 2949 H 273.42 -1.12768 -3.56699 0
M  V30 2950 H 274.753 -1.46489 -4.69896 0
M  V30 2951 N 276.405 1.4127 -0.698611 0
M  V30 2952 C 277.352 2.30773 -0.0352094 0
M  V30 2953 C 278.322 1.47273 0.768111 0
M  V30 2954 O 279.507 1.76053 0.735524 0
M  V30 2955 C 276.647 3.33346 0.893 0
M  V30 2956 C 275.76 4.31924 0.0809695 0
M  V30 2957 C 274.895 5.21566 1.0071 0
M  V30 2958 C 273.934 6.11811 0.188155 0
M  V30 2959 N 273.071 6.93926 1.06825 0
M  V30 2960 H 277.911 2.86943 -0.804207 0
M  V30 2961 H 275.448 1.4132 -0.408294 0
M  V30 2962 H 277.406 3.91368 1.44523 0
M  V30 2963 H 276.036 2.78719 1.62836 0
M  V30 2964 H 275.088 3.75825 -0.588224 0
M  V30 2965 H 276.4 4.95716 -0.553801 0
M  V30 2966 H 275.554 5.84437 1.62845 0
M  V30 2967 H 274.293 4.58008 1.67572 0
M  V30 2968 H 273.298 5.47986 -0.446254 0
M  V30 2969 H 274.523 6.77425 -0.476716 0
M  V30 2970 H 272.469 6.32973 1.72283 0
M  V30 2971 H 272.386 7.54416 0.489123 0
M  V30 2972 H 273.654 7.61262 1.67632 0
M  V30 2973 N 277.883 0.443576 1.51229 0
M  V30 2974 C 279.131 -0.120557 2.0174 0
M  V30 2975 C 279.452 -1.42665 1.32935 0
M  V30 2976 O 278.722 -1.9028 0.465866 0
M  V30 2977 H 277.302 -0.0475426 0.745486 0
M  V30 2978 H 279.964 0.587711 1.85828 0
M  V30 2979 H 279.06 -0.291972 3.10731 0
M  V30 2980 N 279.361 -1.56624 0.175154 0
M  V30 2981 C 280.309 -2.19468 -0.770495 0
M  V30 2982 C 281.303 -1.15985 -1.23466 0
M  V30 2983 O 282.509 -1.34176 -1.19987 0
M  V30 2984 H 278.884 -0.703095 -0.266761 0
M  V30 2985 H 280.855 -2.97613 -0.216542 0
M  V30 2986 C 279.604 -2.85264 -1.98796 0
M  V30 2987 H 278.927 -3.64623 -1.63983 0
M  V30 2988 H 280.367 -3.327 -2.62843 0
M  V30 2989 C 278.826 -1.85239 -2.81404 0
M  V30 2990 O 279.356 -1.34024 -3.78682 0
M  V30 2991 N 277.562 -1.53911 -2.46495 0
M  V30 2992 H 277.109 -1.95751 -1.67449 0
M  V30 2993 H 277.067 -0.872382 -3.02054 0
M  V30 2994 N 280.839 0.0985539 -1.57292 0
M  V30 2995 C 281.769 1.12064 -2.04851 0
M  V30 2996 C 282.75 1.41981 -0.936767 0
M  V30 2997 O 283.935 1.52071 -1.20781 0
M  V30 2998 C 281.065 2.44144 -2.47004 0
M  V30 2999 C 280.019 2.28643 -3.6181 0
M  V30 3000 C 279.345 3.65869 -3.89929 0
M  V30 3001 C 280.645 1.72986 -4.92822 0
M  V30 3002 H 282.339 0.724979 -2.9049 0
M  V30 3003 H 279.885 0.34729 -1.39749 0
M  V30 3004 H 281.838 3.15914 -2.78884 0
M  V30 3005 H 280.562 2.85639 -1.5836 0
M  V30 3006 H 279.221 1.59318 -3.30172 0
M  V30 3007 H 278.869 4.04885 -2.98458 0
M  V30 3008 H 278.569 3.56344 -4.67218 0
M  V30 3009 H 280.093 4.39112 -4.2428 0
M  V30 3010 H 281.507 2.34593 -5.23105 0
M  V30 3011 H 279.904 1.74229 -5.74251 0
M  V30 3012 H 280.974 0.689007 -4.7998 0
M  V30 3013 N 282.317 1.53212 0.369288 0
M  V30 3014 C 283.247 1.82365 1.45826 0
M  V30 3015 C 284.228 0.676907 1.56051 0
M  V30 3016 O 285.413 0.926401 1.70679 0
M  V30 3017 C 282.543 2.01023 2.83208 0
M  V30 3018 C 281.497 3.1678 2.8781 0
M  V30 3019 C 280.823 3.20724 4.27832 0
M  V30 3020 C 282.123 4.55447 2.55667 0
M  V30 3021 H 283.817 2.73559 1.21678 0
M  V30 3022 H 281.363 1.3163 0.583911 0
M  V30 3023 H 283.316 2.20001 3.59413 0
M  V30 3024 H 282.04 1.06536 3.08736 0
M  V30 3025 H 280.699 2.97616 2.14056 0
M  V30 3026 H 280.347 2.23882 4.50429 0
M  V30 3027 H 280.047 3.98496 4.31827 0
M  V30 3028 H 281.571 3.41881 5.05915 0
M  V30 3029 H 282.985 4.74611 3.21586 0
M  V30 3030 H 281.382 5.35432 2.70984 0
M  V30 3031 H 282.452 4.60812 1.5093 0
M  V30 3032 N 283.795 -0.628877 1.44509 0
M  V30 3033 C 285.206 -1.21054 1.42137 0
M  V30 3034 C 285.557 -1.95715 0.137881 0
M  V30 3035 O 284.682 -2.02554 -0.761645 0
M  V30 3036 C 285.277 -2.20189 2.57493 0
M  V30 3037 C 283.836 -2.73777 2.58308 0
M  V30 3038 C 282.983 -1.48813 2.33987 0
M  V30 3039 H 285.934 -0.41942 1.53057 0
M  V30 3040 H 285.955 -3.02833 2.30375 0
M  V30 3041 H 285.467 -1.6582 3.50892 0
M  V30 3042 H 283.568 -3.32142 1.68856 0
M  V30 3043 H 283.681 -3.19662 3.56865 0
M  V30 3044 H 282.045 -1.77024 1.83124 0
M  V30 3045 H 282.828 -0.963442 3.29504 0
M  V30 3046 N 285.273 -1.31445 -0.869486 0
M  V30 3047 C 286.221 -1.19067 -1.99814 0
M  V30 3048 C 287.215 -0.0988569 -1.69111 0
M  V30 3049 O 288.421 -0.260781 -1.78101 0
M  V30 3050 H 284.796 -0.368677 -0.655425 0
M  V30 3051 H 286.767 -2.14555 -2.07385 0
M  V30 3052 C 285.516 -0.915323 -3.35436 0
M  V30 3053 H 284.839 -1.74759 -3.59582 0
M  V30 3054 H 286.279 -0.868895 -4.15001 0
M  V30 3055 C 284.738 0.381928 -3.34728 0
M  V30 3056 O 285.268 1.39857 -3.76567 0
M  V30 3057 N 283.474 0.398633 -2.87853 0
M  V30 3058 H 283.021 -0.429186 -2.54 0
M  V30 3059 H 282.979 1.26651 -2.87762 0
M  V30 3060 N 286.751 1.08385 -1.14413 0
M  V30 3061 C 287.681 2.17321 -0.854044 0
M  V30 3062 C 288.662 1.69024 0.191049 0
M  V30 3063 O 289.847 1.94141 0.0476779 0
M  V30 3064 C 286.977 3.45719 -0.330983 0
M  V30 3065 C 285.931 4.07409 -1.31155 0
M  V30 3066 C 285.257 5.30762 -0.64778 0
M  V30 3067 C 286.557 4.48665 -2.67388 0
M  V30 3068 H 288.251 2.41845 -1.76498 0
M  V30 3069 H 285.797 1.16233 -0.850051 0
M  V30 3070 H 287.75 4.21241 -0.115645 0
M  V30 3071 H 286.474 3.2075 0.615381 0
M  V30 3072 H 285.133 3.33919 -1.51306 0
M  V30 3073 H 284.781 5.02078 0.304398 0
M  V30 3074 H 284.481 5.72992 -1.30207 0
M  V30 3075 H 286.005 6.08998 -0.441972 0
M  V30 3076 H 287.419 5.15364 -2.51143 0
M  V30 3077 H 285.816 5.01814 -3.29093 0
M  V30 3078 H 286.886 3.60543 -3.24248 0
M  V30 3079 N 288.23 0.939286 1.26551 0
M  V30 3080 C 289.458 0.602536 1.97932 0
M  V30 3081 C 289.873 -0.82206 1.69964 0
M  V30 3082 O 289.23 -1.54789 0.966784 0
M  V30 3083 C 289.281 0.832946 3.51773 0
M  V30 3084 O 289.002 2.20151 3.78768 0
M  V30 3085 C 290.503 0.506483 4.40397 0
M  V30 3086 H 287.723 0.227248 0.631347 0
M  V30 3087 H 290.267 1.25948 1.61113 0
M  V30 3088 H 288.422 0.222644 3.8676 0
M  V30 3089 H 288.836 2.26013 4.73306 0
M  V30 3090 H 290.31 0.718333 5.47306 0
M  V30 3091 H 290.787 -0.558451 4.35635 0
M  V30 3092 H 291.393 1.09543 4.10951 0
M  V30 3093 N 289.708 -1.40897 0.706093 0
M  V30 3094 C 290.671 -2.29131 0.0562841 0
M  V30 3095 C 291.671 -1.44901 -0.697166 0
M  V30 3096 O 292.861 -1.65926 -0.530484 0
M  V30 3097 C 289.993 -3.27957 -0.93043 0
M  V30 3098 H 291.186 -2.88091 0.833284 0
M  V30 3099 H 288.739 -1.4906 0.470192 0
M  V30 3100 H 289.474 -2.73997 -1.73482 0
M  V30 3101 H 289.259 -3.90124 -0.393166 0
M  V30 3102 H 290.749 -3.94049 -1.38256 0
M  V30 3103 N 291.186 -0.45159 -1.50991 0
M  V30 3104 C 292.602 -0.104647 -1.59257 0
M  V30 3105 C 292.802 1.38728 -1.4614 0
M  V30 3106 O 291.858 2.15866 -1.30989 0
M  V30 3107 C 293.171 -0.637468 -2.93865 0
M  V30 3108 C 294.719 -0.599166 -3.07212 0
M  V30 3109 C 295.194 -1.1092 -4.44366 0
M  V30 3110 N 296.685 -1.06778 -4.50725 0
M  V30 3111 C 297.42 -1.43314 -5.55201 0
M  V30 3112 N 296.916 -1.87204 -6.67028 0
M  V30 3113 N 298.709 -1.3504 -5.45638 0
M  V30 3114 H 290.86 -1.42214 -1.57762 0
M  V30 3115 H 293.123 -0.586921 -0.744465 0
M  V30 3116 H 292.829 -1.68187 -3.08879 0
M  V30 3117 H 292.703 -0.0702139 -3.77135 0
M  V30 3118 H 295.09 0.436277 -2.91857 0
M  V30 3119 H 295.171 -1.20299 -2.25747 0
M  V30 3120 H 294.815 -2.14318 -4.60467 0
M  V30 3121 H 294.745 -0.481773 -5.24392 0
M  V30 3122 H 297.236 -0.745643 -3.70471 0
M  V30 3123 H 297.549 -2.13282 -7.42786 0
M  V30 3124 H 295.894 -1.91142 -6.68199 0
M  V30 3125 H 299.085 -1.00607 -4.57161 0
M  V30 3126 H 299.258 -1.63841 -6.26945 0
M  V30 3127 N 292.664 1.56529 -0.183458 0
M  V30 3128 C 293.941 1.88959 0.50536 0
M  V30 3129 C 294.321 1.09523 1.80466 0
M  V30 3130 O 293.669 0.19278 2.27685 0
M  V30 3131 C 293.879 3.41162 0.73547 0
M  V30 3132 C 295.227 4.11155 1.06005 0
M  V30 3133 O 296.251 3.46548 0.823594 0
M  V30 3134 O 295.11 5.25318 1.50675 0
M  V30 3135 H 292.204 0.78441 0.261973 0
M  V30 3136 H 294.75 1.68231 -0.222802 0
M  V30 3137 H 293.522 3.90874 -0.182561 0
M  V30 3138 H 293.145 3.67543 1.51651 0
M  V30 3139 N 294.142 -0.090211 1.57342 0
M  V30 3140 C 295.075 -1.14035 1.97664 0
M  V30 3141 C 296.053 -1.38576 0.850616 0
M  V30 3142 O 297.237 -1.52255 1.11134 0
M  V30 3143 C 294.364 -2.48854 2.2976 0
M  V30 3144 C 293.41 -2.40564 3.52181 0
M  V30 3145 S 294.243 -1.81745 5.03715 0
M  V30 3146 C 295.399 -3.18178 5.38993 0
M  V30 3147 H 295.632 -0.796636 2.86428 0
M  V30 3148 H 293.165 -0.298072 1.51496 0
M  V30 3149 H 295.123 -3.26413 2.48927 0
M  V30 3150 H 293.784 -2.80393 1.41558 0
M  V30 3151 H 292.977 -3.39942 3.72096 0
M  V30 3152 H 292.579 -1.71135 3.32549 0
M  V30 3153 H 294.871 -4.14461 5.35937 0
M  V30 3154 H 295.814 -3.03062 6.39968 0
M  V30 3155 H 296.222 -3.17935 4.66452 0
M  V30 3156 N 295.62 -1.53406 -0.361157 0
M  V30 3157 C 296.567 -1.80156 -1.44265 0
M  V30 3158 C 297.537 -0.646183 -1.53015 0
M  V30 3159 O 298.722 -0.888818 -1.68833 0
M  V30 3160 C 295.862 -2.00116 -2.81154 0
M  V30 3161 C 294.975 -3.27833 -2.81335 0
M  V30 3162 C 294.11 -3.37957 -4.09828 0
M  V30 3163 C 293.149 -4.59689 -4.04168 0
M  V30 3164 N 292.286 -4.66942 -5.24318 0
M  V30 3165 H 297.126 -2.72438 -1.20754 0
M  V30 3166 H 294.663 -1.34954 -0.585296 0
M  V30 3167 H 296.621 -2.09677 -3.60682 0
M  V30 3168 H 295.251 -1.11167 -3.03054 0
M  V30 3169 H 294.303 -3.27204 -1.94014 0
M  V30 3170 H 295.615 -4.17442 -2.73027 0
M  V30 3171 H 294.769 -3.46853 -4.97773 0
M  V30 3172 H 293.508 -2.46372 -4.20894 0
M  V30 3173 H 292.513 -4.50889 -3.14609 0
M  V30 3174 H 293.738 -5.5262 -3.947 0
M  V30 3175 H 291.684 -3.7826 -5.35962 0
M  V30 3176 H 291.601 -5.50462 -5.18197 0
M  V30 3177 H 292.869 -4.80127 -6.14084 0
M  V30 3178 N 297.098 0.621204 -1.44841 0
M  V30 3179 C 298.326 1.40752 -1.51646 0
M  V30 3180 C 298.741 1.88246 -0.144549 0
M  V30 3181 O 298.098 1.61422 0.851416 0
M  V30 3182 C 298.149 2.62119 -2.4895 0
M  V30 3183 O 297.87 2.16602 -3.80808 0
M  V30 3184 C 299.371 3.55135 -2.65319 0
M  V30 3185 H 296.591 0.431325 -0.514004 0
M  V30 3186 H 299.135 0.758835 -1.899 0
M  V30 3187 H 297.29 3.23058 -2.13805 0
M  V30 3188 H 297.704 2.95358 -4.33433 0
M  V30 3189 H 299.178 4.36874 -3.37409 0
M  V30 3190 H 299.655 4.04592 -1.70886 0
M  V30 3191 H 300.261 3.00058 -3.01405 0
M  V30 3192 N 298.576 1.31904 0.862503 0
M  V30 3193 C 299.816 1.23324 1.63004 0
M  V30 3194 C 300.18 -0.203724 1.90916 0
M  V30 3195 O 301.381 -0.413132 2.65606 0
M  V30 3196 C 299.652 2.06116 2.91978 0
M  V30 3197 S 301.211 2.14478 3.82812 0
M  V30 3198 H 298.029 0.439117 0.559193 0
M  V30 3199 H 300.631 1.66658 1.02202 0
M  V30 3200 H 299.335 3.09593 2.69407 0
M  V30 3201 H 298.866 1.6353 3.57801 0
M  V30 3202 H 300.881 1.28855 4.79177 0
M  V30 3203 N 300.054 -1.07777 1.14986 0
M  V30 3204 C 301.47 -1.32373 0.891596 0
M  V30 3205 C 301.67 -1.9609 -0.463788 0
M  V30 3206 O 300.726 -2.21801 -1.20667 0
M  V30 3207 C 302.039 -2.21905 2.02925 0
M  V30 3208 C 303.587 -2.35367 2.06329 0
M  V30 3209 C 304.062 -3.28245 3.19405 0
M  V30 3210 N 305.553 -3.35824 3.19024 0
M  V30 3211 C 306.288 -4.07739 4.03158 0
M  V30 3212 N 305.784 -4.82306 4.97346 0
M  V30 3213 N 307.577 -4.03635 3.91197 0
M  V30 3214 H 299.728 -0.648039 2.02273 0
M  V30 3215 H 301.991 -0.348149 0.881757 0
M  V30 3216 H 301.697 -1.82342 3.0074 0
M  V30 3217 H 301.571 -3.22407 1.95789 0
M  V30 3218 H 303.958 -2.74186 1.09116 0
M  V30 3219 H 304.039 -1.34585 2.17533 0
M  V30 3220 H 303.683 -2.90146 4.16867 0
M  V30 3221 H 303.613 -4.28971 3.05437 0
M  V30 3222 H 306.104 -2.8267 2.50811 0
M  V30 3223 H 306.417 -5.34661 5.57994 0
M  V30 3224 H 304.762 -4.81337 5.01338 0
M  V30 3225 H 307.953 -3.44491 3.16928 0
M  V30 3226 H 308.126 -4.59417 4.5699 0
M  V30 3227 N 301.532 -0.945985 -1.26051 0
M  V30 3228 C 302.779 -0.596118 -1.93527 0
M  V30 3229 C 303.107 0.865559 -1.74179 0
M  V30 3230 O 302.362 1.63524 -1.0751 0
M  V30 3231 C 302.661 -0.890475 -3.46129 0
M  V30 3232 C 302.327 -2.3368 -3.85622 0
M  V30 3233 C 300.989 -2.73216 -3.96114 0
M  V30 3234 C 303.341 -3.27648 -4.05334 0
M  V30 3235 C 300.669 -4.05806 -4.2372 0
M  V30 3236 C 303.021 -4.59841 -4.3443 0
M  V30 3237 C 301.685 -4.99185 -4.43137 0
M  V30 3238 H 300.955 -0.218135 -0.708165 0
M  V30 3239 H 303.602 -1.1934 -1.49768 0
M  V30 3240 H 301.907 -0.210711 -3.91233 0
M  V30 3241 H 303.604 -0.598478 -3.96509 0
M  V30 3242 H 300.194 -2.02015 -3.78005 0
M  V30 3243 H 304.378 -2.98298 -3.96651 0
M  V30 3244 H 299.634 -4.35945 -4.28675 0
M  V30 3245 H 303.808 -5.32641 -4.48628 0
M  V30 3246 H 301.435 -6.01952 -4.64282 0
M  V30 3247 N 303.011 1.40521 -0.713556 0
M  V30 3248 C 303.961 2.27971 -0.036165 0
M  V30 3249 C 304.945 1.43151 0.734623 0
M  V30 3250 O 306.137 1.66261 0.607158 0
M  V30 3251 C 303.266 3.31661 0.886331 0
M  V30 3252 C 302.352 4.23955 0.110836 0
M  V30 3253 N 302.743 4.97641 -0.904847 0
M  V30 3254 C 301.041 4.44674 0.343692 0
M  V30 3255 C 301.742 5.65322 -1.37064 0
M  V30 3256 N 300.718 5.39162 -0.693168 0
M  V30 3257 H 304.52 2.82384 -0.814645 0
M  V30 3258 H 302.034 1.52948 -0.545963 0
M  V30 3259 H 304.031 3.93154 1.38692 0
M  V30 3260 H 302.691 2.78808 1.66421 0
M  V30 3261 H 303.702 5.01689 -1.28563 0
M  V30 3262 H 300.379 4.02801 1.09805 0
M  V30 3263 H 301.769 6.34359 -2.21447 0
M  V30 3264 N 304.489 0.459591 1.5075 0
M  V30 3265 C 305.9 0.00171547 1.867 0
M  V30 3266 C 306.251 -1.39934 1.37525 0
M  V30 3267 O 305.376 -2.03523 0.735349 0
M  V30 3268 C 305.971 -0.00366298 3.388 0
M  V30 3269 C 304.53 -0.406026 3.74204 0
M  V30 3270 C 303.677 0.38673 2.7459 0
M  V30 3271 H 306.628 0.674413 1.43657 0
M  V30 3272 H 306.649 -0.808371 3.71814 0
M  V30 3273 H 306.161 1.01617 3.74561 0
M  V30 3274 H 304.262 -1.43063 3.4404 0
M  V30 3275 H 304.375 -0.115362 4.78961 0
M  V30 3276 H 302.739 -0.158019 2.54209 0
M  V30 3277 H 303.522 1.40585 3.13194 0
M  V30 3278 N 305.967 -1.56429 0.191757 0
M  V30 3279 C 307.244 -1.89224 -0.495332 0
M  V30 3280 C 307.624 -1.10478 -1.79883 0
M  V30 3281 O 306.972 -0.204852 -2.2758 0
M  V30 3282 C 307.182 -3.41548 -0.717367 0
M  V30 3283 C 308.53 -4.11711 -1.03823 0
M  V30 3284 O 309.554 -3.4698 -0.805204 0
M  V30 3285 O 308.413 -5.2611 -1.47887 0
M  V30 3286 H 305.507 -0.785788 -0.25781 0
M  V30 3287 H 308.053 -1.68111 0.231721 0
M  V30 3288 H 306.825 -3.90772 0.203287 0
M  V30 3289 H 306.448 -3.68342 -1.497 0
M  V30 3290 N 307.445 0.0818655 -1.57387 0
M  V30 3291 C 308.392 1.09834 -2.0299 0
M  V30 3292 C 309.362 1.39043 -0.908639 0
M  V30 3293 O 310.547 1.50282 -1.17559 0
M  V30 3294 C 307.687 2.40971 -2.47037 0
M  V30 3295 C 306.8 2.18379 -3.7274 0
M  V30 3296 C 305.935 3.43008 -4.0561 0
M  V30 3297 C 304.974 3.15736 -5.24383 0
M  V30 3298 N 304.111 4.32667 -5.52941 0
M  V30 3299 H 308.951 0.702472 -2.89602 0
M  V30 3300 H 306.488 0.33531 -1.43227 0
M  V30 3301 H 308.446 3.1752 -2.70623 0
M  V30 3302 H 307.076 2.78379 -1.63417 0
M  V30 3303 H 306.128 1.32569 -3.56552 0
M  V30 3304 H 307.44 1.94227 -4.59431 0
M  V30 3305 H 306.594 4.27958 -4.30043 0
M  V30 3306 H 305.333 3.70225 -3.17466 0
M  V30 3307 H 304.338 2.2918 -4.99757 0
M  V30 3308 H 305.563 2.8985 -6.14136 0
M  V30 3309 H 303.509 4.59935 -4.67756 0
M  V30 3310 H 303.426 4.11753 -6.34031 0
M  V30 3311 H 304.694 5.18644 -5.81918 0
M  V30 3312 N 308.923 1.53595 0.353017 0
M  V30 3313 C 310.2 1.61002 1.11075 0
M  V30 3314 C 310.58 0.425356 2.0677 0
M  V30 3315 O 309.928 -0.583267 2.2093 0
M  V30 3316 C 310.138 2.96631 1.83877 0
M  V30 3317 C 311.486 3.51653 2.37961 0
M  V30 3318 O 312.51 2.98743 1.93987 0
M  V30 3319 O 311.369 4.44177 3.18386 0
M  V30 3320 H 308.463 0.650825 0.510251 0
M  V30 3321 H 311.009 1.6594 0.35527 0
M  V30 3322 H 309.781 3.74293 1.14108 0
M  V30 3323 H 309.404 2.95242 2.66304 0
M  V30 3324 N 310.401 -0.613514 1.45168 0
M  V30 3325 C 311.812 -1.19539 1.43413 0
M  V30 3326 C 312.163 -1.95558 0.158632 0
M  V30 3327 O 311.288 -2.0335 -0.740119 0
M  V30 3328 C 311.883 -2.17445 2.59813 0
M  V30 3329 C 310.442 -2.71022 2.61197 0
M  V30 3330 C 309.589 -1.46323 2.35552 0
M  V30 3331 H 312.54 -0.403163 1.53494 0
M  V30 3332 H 312.561 -3.00373 2.33574 0
M  V30 3333 H 312.073 -1.62089 3.52631 0
M  V30 3334 H 310.174 -3.30332 1.7237 0
M  V30 3335 H 310.287 -3.15859 3.60236 0
M  V30 3336 H 308.651 -1.75072 1.84992 0
M  V30 3337 H 309.434 -0.92844 3.30507 0
M  V30 3338 N 311.879 -1.3236 -0.855495 0
M  V30 3339 C 313.126 -1.22872 -1.60962 0
M  V30 3340 C 313.454 0.209658 -1.93367 0
M  V30 3341 O 312.709 1.16243 -1.57436 0
M  V30 3342 C 313.008 -2.03275 -2.93963 0
M  V30 3343 C 312.674 -3.5264 -2.80991 0
M  V30 3344 C 311.336 -3.93364 -2.7716 0
M  V30 3345 C 313.688 -4.47626 -2.66983 0
M  V30 3346 C 311.016 -5.27319 -2.572 0
M  V30 3347 C 313.368 -5.81723 -2.48558 0
M  V30 3348 C 312.032 -6.2165 -2.4312 0
M  V30 3349 H 311.302 -0.44962 -0.589001 0
M  V30 3350 H 313.949 -1.63777 -0.992442 0
M  V30 3351 H 312.254 -1.55095 -3.59795 0
M  V30 3352 H 313.951 -1.93303 -3.51333 0
M  V30 3353 H 310.541 -3.20295 -2.84797 0
M  V30 3354 H 314.725 -4.17084 -2.68988 0
M  V30 3355 H 309.981 -5.57311 -2.51424 0
M  V30 3356 H 314.155 -6.5494 -2.36699 0
M  V30 3357 H 311.782 -7.25388 -2.27412 0
M  V30 3358 N 313.357 1.07166 -1.15556 0
M  V30 3359 C 314.597 1.81391 -0.94216 0
M  V30 3360 C 314.961 1.84788 0.521272 0
M  V30 3361 O 316.162 2.54904 0.85307 0
M  V30 3362 C 314.433 3.22431 -1.54185 0
M  V30 3363 S 315.992 4.13379 -1.47183 0
M  V30 3364 H 312.81 0.624963 -0.339031 0
M  V30 3365 H 315.412 1.28725 -1.4714 0
M  V30 3366 H 314.116 3.17548 -2.59984 0
M  V30 3367 H 313.647 3.80172 -1.01156 0
M  V30 3368 H 315.662 4.94007 -0.466004 0
M  V30 3369 N 314.835 0.952656 1.25548 0
M  V30 3370 C 316.246 0.647392 1.75116 0
M  V30 3371 C 316.597 -0.837274 1.77438 0
M  V30 3372 O 315.722 -1.65525 1.39393 0
M  V30 3373 C 316.317 1.16845 3.18014 0
M  V30 3374 C 314.876 0.913382 3.6515 0
M  V30 3375 C 314.023 1.31265 2.44264 0
M  V30 3376 H 316.974 1.12968 1.11462 0
M  V30 3377 H 316.995 0.527606 3.76824 0
M  V30 3378 H 316.507 2.24902 3.16292 0
M  V30 3379 H 314.608 -0.152316 3.72289 0
M  V30 3380 H 314.721 1.54845 4.53387 0
M  V30 3381 H 313.085 0.731028 2.43984 0
M  V30 3382 H 313.868 2.40239 2.45234 0
M  V30 3383 N 316.313 -1.40141 0.720998 0
M  V30 3384 C 317.562 -2.0002 0.259804 0
M  V30 3385 C 317.875 -1.57839 -1.15526 0
M  V30 3386 O 319.081 -2.10455 -1.71525 0
M  V30 3387 C 317.537 -3.57516 0.413566 0
M  V30 3388 C 317.145 -4.08667 1.83562 0
M  V30 3389 C 318.889 -4.24498 0.0134387 0
M  V30 3390 C 316.796 -5.58686 1.93968 0
M  V30 3391 H 315.726 -0.748195 0.0933806 0
M  V30 3392 H 318.377 -1.60313 0.892866 0
M  V30 3393 H 316.759 -3.9495 -0.288169 0
M  V30 3394 H 317.933 -3.82598 2.56817 0
M  V30 3395 H 316.248 -3.543 2.1877 0
M  V30 3396 H 318.845 -5.34654 0.0703954 0
M  V30 3397 H 319.188 -4.03375 -1.02927 0
M  V30 3398 H 319.721 -3.92188 0.665815 0
M  V30 3399 H 316.46 -5.8467 2.96379 0
M  V30 3400 H 315.98 -5.86602 1.25131 0
M  V30 3401 H 317.659 -6.23875 1.71431 0
M  V30 3402 N 317.792 -0.46758 -1.50504 0
M  V30 3403 C 318.722 0.318381 -2.31319 0
M  V30 3404 C 319.703 0.993564 -1.38066 0
M  V30 3405 O 320.888 0.991411 -1.66987 0
M  V30 3406 C 318.018 1.40275 -3.17711 0
M  V30 3407 C 316.972 0.849373 -4.19487 0
M  V30 3408 C 316.298 2.03177 -4.94594 0
M  V30 3409 C 317.598 -0.136942 -5.2212 0
M  V30 3410 H 319.292 -0.356106 -2.97275 0
M  V30 3411 H 316.838 -0.172703 -1.42961 0
M  V30 3412 H 318.791 1.96004 -3.73042 0
M  V30 3413 H 317.515 2.10596 -2.49634 0
M  V30 3414 H 316.174 0.314076 -3.65252 0
M  V30 3415 H 315.822 2.72187 -4.22993 0
M  V30 3416 H 315.522 1.66774 -5.63436 0
M  V30 3417 H 317.046 2.59403 -5.52759 0
M  V30 3418 H 318.46 0.331056 -5.72343 0
M  V30 3419 H 316.857 -0.41507 -5.98663 0
M  V30 3420 H 317.927 -1.06398 -4.73083 0
M  V30 3421 N 319.27 1.56325 -0.20005 0
M  V30 3422 C 320.686 1.58839 0.155716 0
M  V30 3423 C 320.886 1.21636 1.60645 0
M  V30 3424 O 319.942 0.941437 2.34293 0
M  V30 3425 C 321.255 3.0032 -0.151124 0
M  V30 3426 C 322.803 3.12866 -0.0916284 0
M  V30 3427 C 323.278 4.56488 -0.371845 0
M  V30 3428 N 324.769 4.62089 -0.320641 0
M  V30 3429 C 325.504 5.71116 -0.511243 0
M  V30 3430 N 325 6.88592 -0.762461 0
M  V30 3431 N 326.793 5.60335 -0.445157 0
M  V30 3432 H 318.944 1.78788 -1.14668 0
M  V30 3433 H 321.207 0.829996 -0.458051 0
M  V30 3434 H 320.913 3.32117 -1.15721 0
M  V30 3435 H 320.787 3.73257 0.543986 0
M  V30 3436 H 323.174 2.80878 0.905065 0
M  V30 3437 H 323.255 2.42304 -0.81989 0
M  V30 3438 H 322.899 4.89189 -1.36588 0
M  V30 3439 H 322.829 5.25246 0.377362 0
M  V30 3440 H 325.32 3.77665 -0.13329 0
M  V30 3441 H 325.633 7.67581 -0.896576 0
M  V30 3442 H 323.978 6.90387 -0.799412 0
M  V30 3443 H 327.169 4.67436 -0.249278 0
M  V30 3444 H 327.342 6.45243 -0.597116 0
M  V30 3445 N 320.748 -0.0735177 1.57428 0
M  V30 3446 C 321.994 -0.774145 1.87443 0
M  V30 3447 C 322.327 -1.77311 0.792103 0
M  V30 3448 O 321.602 -1.93492 -0.197793 0
M  V30 3449 C 321.885 -1.48367 3.28115 0
M  V30 3450 C 321.738 -0.501227 4.46999 0
M  V30 3451 C 323.057 -2.429 3.66998 0
M  V30 3452 H 320.176 -0.279971 0.681752 0
M  V30 3453 H 322.818 -0.0373616 1.89963 0
M  V30 3454 H 320.968 -2.11171 3.26097 0
M  V30 3455 H 322.64 0.121468 4.6114 0
M  V30 3456 H 320.883 0.183593 4.33411 0
M  V30 3457 H 321.554 -1.03526 5.42205 0
M  V30 3458 H 324.03 -1.90175 3.70098 0
M  V30 3459 H 322.906 -2.89549 4.66318 0
M  V30 3460 H 323.167 -3.27628 2.96837 0
M  V30 3461 N 322.226 -1.5378 -0.344866 0
M  V30 3462 C 323.474 -1.70625 -1.08311 0
M  V30 3463 C 323.795 -0.471447 -1.89215 0
M  V30 3464 O 323.065 0.514616 -1.8902 0
M  V30 3465 H 321.645 -0.629058 -0.402859 0
M  V30 3466 H 324.307 -1.9103 -0.386459 0
M  V30 3467 H 323.403 -2.57656 -1.76124 0
M  V30 3468 N 323.704 0.605807 -1.45491 0
M  V30 3469 C 324.981 1.36522 -1.40075 0
M  V30 3470 C 325.361 2.10976 -0.0722744 0
M  V30 3471 O 324.709 2.08007 0.945808 0
M  V30 3472 C 324.919 2.31056 -2.61561 0
M  V30 3473 C 326.267 2.93608 -3.06724 0
M  V30 3474 O 327.291 2.41376 -2.61946 0
M  V30 3475 O 326.15 3.88421 -3.84437 0
M  V30 3476 H 323.244 0.612248 -0.555951 0
M  V30 3477 H 325.79 0.628747 -1.57623 0
M  V30 3478 H 324.562 1.75311 -3.49831 0
M  V30 3479 H 324.185 3.12081 -2.46356 0
M  V30 3480 N 325.182 1.32811 0.848464 0
M  V30 3481 C 326.428 1.23907 1.60546 0
M  V30 3482 C 326.761 -0.197161 1.93197 0
M  V30 3483 O 326.036 -1.13596 1.5788 0
M  V30 3484 C 326.319 2.10489 2.92175 0
M  V30 3485 C 326.172 3.62522 2.66266 0
M  V30 3486 C 327.491 1.97075 3.93509 0
M  V30 3487 H 324.61 0.451459 0.58254 0
M  V30 3488 H 327.252 1.62818 0.979296 0
M  V30 3489 H 325.402 1.77434 3.45614 0
M  V30 3490 H 327.074 4.05821 2.19334 0
M  V30 3491 H 325.317 3.84879 2.00126 0
M  V30 3492 H 325.988 4.18437 3.6002 0
M  V30 3493 H 328.464 2.26045 3.49346 0
M  V30 3494 H 327.34 2.59923 4.83457 0
M  V30 3495 H 327.601 0.940186 4.31987 0
M  V30 3496 N 326.66 -1.06551 1.16123 0
M  V30 3497 C 327.906 -1.79567 0.94252 0
M  V30 3498 C 328.239 -1.86869 -0.528547 0
M  V30 3499 O 327.514 -1.35838 -1.39206 0
M  V30 3500 C 327.797 -3.24195 1.56747 0
M  V30 3501 C 327.65 -3.24989 3.10969 0
M  V30 3502 C 328.969 -4.21678 1.25998 0
M  V30 3503 H 326.088 -0.651883 0.343828 0
M  V30 3504 H 328.73 -1.2463 1.43413 0
M  V30 3505 H 326.88 -3.71107 1.14942 0
M  V30 3506 H 328.552 -2.86258 3.61737 0
M  V30 3507 H 326.795 -2.63716 3.44436 0
M  V30 3508 H 327.466 -4.27005 3.49815 0
M  V30 3509 H 329.942 -3.83196 1.62174 0
M  V30 3510 H 328.818 -5.21146 1.7233 0
M  V30 3511 H 329.079 -4.4174 0.178367 0
M  V30 3512 N 328.138 -0.959301 -1.25041 0
M  V30 3513 C 329.085 -0.482057 -2.2571 0
M  V30 3514 C 330.055 0.467939 -1.59372 0
M  V30 3515 O 331.24 0.380159 -1.86974 0
M  V30 3516 C 328.38 0.229623 -3.44335 0
M  V30 3517 C 327.493 -0.758156 -4.25295 0
M  V30 3518 C 326.628 -0.0234403 -5.31195 0
M  V30 3519 C 325.667 -1.00184 -6.03846 0
M  V30 3520 N 324.804 -0.29769 -7.01469 0
M  V30 3521 H 329.644 -1.34538 -2.65901 0
M  V30 3522 H 327.181 -0.674592 -1.3072 0
M  V30 3523 H 329.139 0.658856 -4.11965 0
M  V30 3524 H 327.769 1.05696 -3.05005 0
M  V30 3525 H 326.821 -1.30586 -3.57284 0
M  V30 3526 H 328.133 -1.50458 -4.75567 0
M  V30 3527 H 327.287 0.464201 -6.04922 0
M  V30 3528 H 326.026 0.755741 -4.81809 0
M  V30 3529 H 325.031 -1.50044 -5.2893 0
M  V30 3530 H 326.256 -1.78133 -6.55321 0
M  V30 3531 H 324.202 0.462668 -6.54366 0
M  V30 3532 H 324.119 -0.983128 -7.4958 0
M  V30 3533 H 325.387 0.16826 -7.79318 0
M  V30 3534 N 329.616 1.39756 -0.72842 0
M  V30 3535 C 330.863 2.00645 -0.273487 0
M  V30 3536 C 331.191 1.57786 1.13727 0
M  V30 3537 O 330.446 0.794886 1.7883 0
M  V30 3538 C 330.745 3.56002 -0.315776 0
M  V30 3539 C 330.411 4.18489 -1.67863 0
M  V30 3540 C 329.073 4.3527 -2.05166 0
M  V30 3541 C 331.425 4.53219 -2.57375 0
M  V30 3542 C 328.753 4.84069 -3.31503 0
M  V30 3543 C 331.105 5.03423 -3.83077 0
M  V30 3544 C 329.769 5.18413 -4.20481 0
M  V30 3545 H 329.039 0.734211 -0.100076 0
M  V30 3546 H 331.686 1.6718 -0.933972 0
M  V30 3547 H 329.991 3.89452 0.428285 0
M  V30 3548 H 331.688 4.00963 0.0542575 0
M  V30 3549 H 328.278 4.05824 -1.37858 0
M  V30 3550 H 332.462 4.39878 -2.29827 0
M  V30 3551 H 327.718 4.93859 -3.60435 0
M  V30 3552 H 331.892 5.2927 -4.52599 0
M  V30 3553 H 329.519 5.55987 -5.18443 0
M  V30 3554 N 331.094 0.475555 1.50254 0
M  V30 3555 C 332.057 -0.305016 2.27161 0
M  V30 3556 C 333.057 -0.916519 1.32123 0
M  V30 3557 O 334.247 -0.785003 1.5551 0
M  V30 3558 C 331.379 -1.43496 3.09227 0
M  V30 3559 H 332.572 0.369511 2.97615 0
M  V30 3560 H 330.125 0.229747 1.54602 0
M  V30 3561 H 330.86 -2.14441 2.43281 0
M  V30 3562 H 330.645 -1.00223 3.79075 0
M  V30 3563 H 332.135 -1.98548 3.67381 0
M  V30 3564 N 332.573 -1.56217 0.208337 0
M  V30 3565 C 333.821 -1.97558 -0.426076 0
M  V30 3566 C 334.142 -1.09683 -1.61229 0
M  V30 3567 O 333.412 -0.170956 -1.95153 0
M  V30 3568 H 331.992 -0.729575 -0.160405 0
M  V30 3569 H 334.654 -1.92606 0.298155 0
M  V30 3570 H 333.75 -3.02672 -0.761312 0
M  V30 3571 N 334.051 0.0651679 -1.57465 0
M  V30 3572 C 334.983 1.10359 -2.00882 0
M  V30 3573 C 335.996 1.346 -0.915788 0
M  V30 3574 O 337.185 1.32723 -1.1936 0
M  V30 3575 C 334.285 2.45312 -2.33828 0
M  V30 3576 C 333.458 2.40934 -3.65061 0
M  V30 3577 C 332.517 3.58047 -3.85602 0
M  V30 3578 O 331.543 3.39175 -4.57109 0
M  V30 3579 N 332.745 4.78637 -3.28462 0
M  V30 3580 H 335.51 0.733807 -2.90578 0
M  V30 3581 H 333.071 0.253719 -1.599 0
M  V30 3582 H 335.063 3.22314 -2.44737 0
M  V30 3583 H 333.633 2.74267 -1.49988 0
M  V30 3584 H 332.853 1.49273 -3.64844 0
M  V30 3585 H 334.141 2.35117 -4.51218 0
M  V30 3586 H 333.539 4.96872 -2.70433 0
M  V30 3587 H 332.096 5.53127 -3.44809 0
M  V30 3588 N 335.529 1.53961 0.336706 0
M  V30 3589 C 336.806 1.62171 1.09361 0
M  V30 3590 C 337.186 0.447263 2.06307 0
M  V30 3591 O 336.534 -0.559802 2.21537 0
M  V30 3592 C 336.744 2.98565 1.80721 0
M  V30 3593 C 338.092 3.54157 2.34218 0
M  V30 3594 O 339.116 3.00784 1.90807 0
M  V30 3595 O 337.975 4.47528 3.13657 0
M  V30 3596 H 335.069 0.6562 0.503319 0
M  V30 3597 H 337.615 1.66307 0.33765 0
M  V30 3598 H 336.387 3.75482 1.10132 0
M  V30 3599 H 336.01 2.9805 2.63158 0
M  V30 3600 N 337.007 -0.598083 1.45811 0
M  V30 3601 C 338.254 -1.35681 1.50323 0
M  V30 3602 C 338.582 -1.9393 0.148739 0
M  V30 3603 O 337.837 -1.76094 -0.853787 0
M  V30 3604 C 338.136 -2.51669 2.53766 0
M  V30 3605 C 337.802 -2.11508 3.98215 0
M  V30 3606 C 336.464 -2.0027 4.37545 0
M  V30 3607 C 338.816 -1.80308 4.89018 0
M  V30 3608 C 336.144 -1.56067 5.65562 0
M  V30 3609 C 338.496 -1.37589 6.17456 0
M  V30 3610 C 337.16 -1.24916 6.55708 0
M  V30 3611 H 336.43 -0.496492 0.550069 0
M  V30 3612 H 339.077 -0.675052 1.79207 0
M  V30 3613 H 337.382 -3.25225 2.18486 0
M  V30 3614 H 339.079 -3.09895 2.54492 0
M  V30 3615 H 335.669 -2.21185 3.67117 0
M  V30 3616 H 339.853 -1.87884 4.59362 0
M  V30 3617 H 335.109 -1.44886 5.93985 0
M  V30 3618 H 339.283 -1.12495 6.87254 0
M  V30 3619 H 336.91 -0.904386 7.54801 0
M  V30 3620 N 338.485 -1.33259 -0.841409 0
M  V30 3621 C 339.448 -1.23221 -1.9326 0
M  V30 3622 C 340.448 -0.151895 -1.60081 0
M  V30 3623 O 341.638 -0.403246 -1.69468 0
M  V30 3624 C 338.77 -0.898123 -3.28856 0
M  V30 3625 H 339.963 -2.2021 -2.03587 0
M  V30 3626 H 337.516 -1.17281 -1.03319 0
M  V30 3627 H 338.251 0.0693841 -3.24226 0
M  V30 3628 H 338.036 -1.67934 -3.54317 0
M  V30 3629 H 339.526 -0.852563 -4.08805 0
M  V30 3630 N 339.963 1.05934 -1.16686 0
M  V30 3631 C 340.91 2.13499 -0.876748 0
M  V30 3632 C 341.88 1.65162 0.176299 0
M  V30 3633 O 343.065 1.90757 0.0407143 0
M  V30 3634 C 340.205 3.42912 -0.387967 0
M  V30 3635 C 339.318 4.04964 -1.50426 0
M  V30 3636 C 338.453 5.22266 -0.970125 0
M  V30 3637 C 337.492 5.76309 -2.06238 0
M  V30 3638 N 336.629 6.84922 -1.54356 0
M  V30 3639 H 341.469 2.37654 -1.7979 0
M  V30 3640 H 339.006 1.16598 -0.896843 0
M  V30 3641 H 340.964 4.17111 -0.086186 0
M  V30 3642 H 339.594 3.18963 0.496235 0
M  V30 3643 H 338.646 3.28277 -1.92193 0
M  V30 3644 H 339.958 4.41122 -2.32836 0
M  V30 3645 H 339.112 6.03506 -0.621743 0
M  V30 3646 H 337.851 4.87564 -0.115377 0
M  V30 3647 H 336.856 4.93704 -2.41942 0
M  V30 3648 H 338.081 6.13062 -2.92115 0
M  V30 3649 H 336.027 6.52131 -0.711406 0
M  V30 3650 H 335.944 7.20043 -2.30379 0
M  V30 3651 H 337.212 7.69832 -1.22387 0
M  V30 3652 N 341.441 0.965919 1.2453 0
M  V30 3653 C 342.371 0.513476 2.27784 0
M  V30 3654 C 343.352 -0.445974 1.6415 0
M  V30 3655 O 344.537 -0.342485 1.91156 0
M  V30 3656 C 341.667 -0.198839 3.4673 0
M  V30 3657 C 340.621 0.676456 4.2262 0
M  V30 3658 C 339.947 -0.167248 5.34438 0
M  V30 3659 C 341.247 1.96017 4.84123 0
M  V30 3660 H 342.941 1.3765 2.65881 0
M  V30 3661 H 340.487 0.663321 1.27813 0
M  V30 3662 H 342.44 -0.526567 4.18097 0
M  V30 3663 H 341.164 -1.0962 3.07654 0
M  V30 3664 H 339.823 0.98743 3.53052 0
M  V30 3665 H 339.471 -1.0647 4.91603 0
M  V30 3666 H 339.171 0.415181 5.86131 0
M  V30 3667 H 340.695 -0.489688 6.08633 0
M  V30 3668 H 342.109 1.69814 5.47573 0
M  V30 3669 H 340.506 2.48918 5.4604 0
M  V30 3670 H 341.576 2.65622 4.05676 0
M  V30 3671 N 342.919 -1.39368 0.735821 0
M  V30 3672 C 343.882 -2.2896 0.104874 0
M  V30 3673 C 344.882 -1.46347 -0.666274 0
M  V30 3674 O 346.072 -1.67014 -0.49517 0
M  V30 3675 C 343.204 -3.29857 -0.860656 0
M  V30 3676 H 344.397 -2.86259 0.894205 0
M  V30 3677 H 341.95 -1.48029 0.501704 0
M  V30 3678 H 342.685 -2.77615 -1.67631 0
M  V30 3679 H 342.47 -3.9087 -0.310327 0
M  V30 3680 H 343.96 -3.96893 -1.29867 0
M  V30 3681 N 344.397 -0.483516 -1.5 0
M  V30 3682 C 345.813 -0.138404 -1.58999 0
M  V30 3683 C 346.013 1.35597 -1.4905 0
M  V30 3684 O 345.069 2.13039 -1.35539 0
M  V30 3685 C 346.382 -0.699658 -2.92447 0
M  V30 3686 C 347.93 -0.664195 -3.05872 0
M  V30 3687 C 348.405 -1.20321 -4.41913 0
M  V30 3688 N 349.896 -1.16315 -4.48358 0
M  V30 3689 C 350.631 -1.55058 -5.52037 0
M  V30 3690 N 350.127 -2.01311 -6.62907 0
M  V30 3691 N 351.92 -1.46584 -5.42651 0
M  V30 3692 H 344.071 -1.45529 -1.5471 0
M  V30 3693 H 346.334 -0.60258 -0.731848 0
M  V30 3694 H 346.04 -1.747 -3.05242 0
M  V30 3695 H 345.914 -0.150194 -3.76901 0
M  V30 3696 H 348.301 0.374272 -2.92717 0
M  V30 3697 H 348.382 -1.25061 -2.23144 0
M  V30 3698 H 348.026 -2.24037 -4.55818 0
M  V30 3699 H 347.956 -0.592896 -5.23252 0
M  V30 3700 H 350.447 -0.824058 -3.68806 0
M  V30 3701 H 350.76 -2.2899 -7.38095 0
M  V30 3702 H 349.105 -2.05273 -6.63994 0
M  V30 3703 H 352.296 -1.10281 -4.54924 0
M  V30 3704 H 352.469 -1.77103 -6.23329 0
M  V30 3705 N 345.875 1.56104 -0.216619 0
M  V30 3706 C 347.103 2.02563 0.421413 0
M  V30 3707 C 347.518 1.0965 1.53695 0
M  V30 3708 O 346.875 0.10521 1.82196 0
M  V30 3709 C 346.926 3.48584 0.957665 0
M  V30 3710 O 346.647 4.37953 -0.113389 0
M  V30 3711 C 348.148 4.10664 1.66943 0
M  V30 3712 H 345.368 0.662944 0.103665 0
M  V30 3713 H 347.912 2.01793 -0.331629 0
M  V30 3714 H 346.067 3.49985 1.661 0
M  V30 3715 H 346.481 5.23704 0.288932 0
M  V30 3716 H 347.955 5.14622 1.99671 0
M  V30 3717 H 348.432 3.55373 2.58083 0
M  V30 3718 H 349.038 4.13098 1.01142 0
M  V30 3719 N 347.353 -0.0568162 1.57498 0
M  V30 3720 C 348.601 -0.751617 1.87604 0
M  V30 3721 C 348.922 -1.77351 0.81066 0
M  V30 3722 O 348.192 -1.95254 -0.159018 0
M  V30 3723 H 346.772 -0.280583 0.692302 0
M  V30 3724 H 349.434 -0.0293483 1.94878 0
M  V30 3725 H 348.53 -1.25852 2.856 0
M  V30 3726 N 348.832 -1.54138 -0.328536 0
M  V30 3727 C 350.08 -1.71765 -1.06496 0
M  V30 3728 C 350.401 -0.49149 -1.88704 0
M  V30 3729 O 349.671 0.494539 -1.89555 0
M  V30 3730 H 348.251 -0.633295 -0.396164 0
M  V30 3731 H 350.913 -1.91429 -0.366176 0
M  V30 3732 H 350.009 -2.5951 -1.73381 0
M  V30 3733 N 350.31 0.590341 -1.46126 0
M  V30 3734 C 351.556 1.35082 -1.51264 0
M  V30 3735 C 351.889 1.93534 -0.160711 0
M  V30 3736 O 351.164 1.76045 0.826956 0
M  V30 3737 C 351.447 2.48588 -2.6053 0
M  V30 3738 C 351.3 1.95221 -4.05227 0
M  V30 3739 C 352.619 3.50662 -2.6594 0
M  V30 3740 H 349.738 0.489803 -0.550692 0
M  V30 3741 H 352.38 0.663887 -1.78024 0
M  V30 3742 H 350.53 3.07186 -2.37843 0
M  V30 3743 H 352.202 1.41139 -4.39178 0
M  V30 3744 H 350.445 1.26101 -4.15068 0
M  V30 3745 H 351.116 2.77121 -4.77397 0
M  V30 3746 H 353.592 3.01934 -2.86313 0
M  V30 3747 H 352.468 4.27551 -3.44226 0
M  V30 3748 H 352.729 4.07399 -1.71694 0
M  V30 3749 N 351.788 1.33704 0.83433 0
M  V30 3750 C 352.718 1.26967 1.95963 0
M  V30 3751 C 353.699 0.149337 1.69443 0
M  V30 3752 O 354.884 0.339852 1.91203 0
M  V30 3753 C 352.014 1.01275 3.32206 0
M  V30 3754 C 350.968 2.09652 3.73136 0
M  V30 3755 C 350.294 1.69166 5.07235 0
M  V30 3756 C 351.594 3.51372 3.86439 0
M  V30 3757 H 353.288 2.2112 2.01857 0
M  V30 3758 H 350.834 1.06447 0.969793 0
M  V30 3759 H 352.787 0.952106 4.10503 0
M  V30 3760 H 351.511 0.0356203 3.26581 0
M  V30 3761 H 350.17 2.14766 2.97104 0
M  V30 3762 H 349.818 0.701437 4.98085 0
M  V30 3763 H 349.518 2.41694 5.35591 0
M  V30 3764 H 351.042 1.64576 5.88003 0
M  V30 3765 H 352.456 3.48734 4.55036 0
M  V30 3766 H 350.853 4.22425 4.26236 0
M  V30 3767 H 351.923 3.89546 2.88759 0
M  V30 3768 N 353.266 -1.05314 1.17247 0
M  V30 3769 C 354.514 -1.77941 0.958194 0
M  V30 3770 C 354.835 -1.88089 -0.514556 0
M  V30 3771 O 354.105 -1.39676 -1.37359 0
M  V30 3772 H 352.685 -0.659116 0.351533 0
M  V30 3773 H 355.347 -1.27166 1.47699 0
M  V30 3774 H 354.443 -2.79663 1.38546 0
M  V30 3775 N 354.744 -0.972509 -1.24016 0
M  V30 3776 C 355.993 -0.632603 -1.91523 0
M  V30 3777 C 356.306 0.836641 -1.76804 0
M  V30 3778 O 357.512 1.28728 -2.39043 0
M  V30 3779 C 355.968 -1.08082 -3.43287 0
M  V30 3780 C 355.576 -2.57386 -3.66683 0
M  V30 3781 C 357.32 -0.814288 -4.16617 0
M  V30 3782 C 355.227 -2.95915 -5.12043 0
M  V30 3783 H 354.157 -0.232898 -0.717129 0
M  V30 3784 H 356.808 -1.17936 -1.40582 0
M  V30 3785 H 355.19 -0.462339 -3.93292 0
M  V30 3786 H 356.364 -3.24405 -3.27258 0
M  V30 3787 H 354.679 -2.81701 -3.06649 0
M  V30 3788 H 357.276 -1.0781 -5.23718 0
M  V30 3789 H 357.619 0.24955 -4.15551 0
M  V30 3790 H 358.152 -1.39397 -3.72577 0
M  V30 3791 H 354.891 -4.0139 -5.18234 0
M  V30 3792 H 354.411 -2.33584 -5.52448 0
M  V30 3793 H 356.09 -2.86086 -5.80314 0
M  V30 3794 N 356.222 1.38976 -0.743202 0
M  V30 3795 C 357.169 2.30544 -0.10861 0
M  V30 3796 C 358.139 1.49642 0.720869 0
M  V30 3797 O 359.324 1.78304 0.679142 0
M  V30 3798 C 356.464 3.36018 0.786496 0
M  V30 3799 C 355.577 4.31963 -0.0564849 0
M  V30 3800 C 354.712 5.24506 0.840657 0
M  V30 3801 C 353.751 6.121 -0.00658363 0
M  V30 3802 N 352.888 6.96973 0.846943 0
M  V30 3803 H 357.728 2.8424 -0.895088 0
M  V30 3804 H 355.265 1.3995 -0.453048 0
M  V30 3805 H 357.223 3.95768 1.31999 0
M  V30 3806 H 355.853 2.83758 1.53887 0
M  V30 3807 H 354.905 3.73763 -0.707492 0
M  V30 3808 H 356.217 4.93703 -0.711229 0
M  V30 3809 H 355.371 5.89322 1.4417 0
M  V30 3810 H 354.11 4.63107 1.52916 0
M  V30 3811 H 353.115 5.46289 -0.620366 0
M  V30 3812 H 354.34 6.75565 -0.691992 0
M  V30 3813 H 352.286 6.38133 1.52059 0
M  V30 3814 H 352.203 7.5559 0.248864 0
M  V30 3815 H 353.471 7.6621 1.43328 0
M  V30 3816 N 357.7 0.491464 1.49741 0
M  V30 3817 C 358.949 -0.0582189 2.01616 0
M  V30 3818 C 359.262 -1.38927 1.3769 0
M  V30 3819 O 360.468 -2.02509 1.80838 0
M  V30 3820 C 358.924 -0.154235 3.59569 0
M  V30 3821 C 358.532 1.1696 4.32463 0
M  V30 3822 C 360.276 -0.65479 4.1942 0
M  V30 3823 C 358.183 1.03627 5.8225 0
M  V30 3824 H 357.113 -0.0255317 0.753568 0
M  V30 3825 H 359.764 0.629445 1.72367 0
M  V30 3826 H 358.146 -0.906138 3.85493 0
M  V30 3827 H 359.32 1.93405 4.18248 0
M  V30 3828 H 357.635 1.60285 3.84315 0
M  V30 3829 H 360.232 -0.771903 5.29099 0
M  V30 3830 H 360.575 -1.65127 3.8215 0
M  V30 3831 H 361.108 0.040304 3.9778 0
M  V30 3832 H 357.847 2.00672 6.24028 0
M  V30 3833 H 357.367 0.312546 5.98985 0
M  V30 3834 H 359.046 0.711114 6.4308 0
M  V30 3835 N 359.178 -1.55987 0.224894 0
M  V30 3836 C 360.426 -1.97998 -0.405099 0
M  V30 3837 C 360.747 -1.11387 -1.60056 0
M  V30 3838 O 360.017 -0.191645 -1.9496 0
M  V30 3839 H 358.597 -0.731235 -0.152658 0
M  V30 3840 H 361.259 -1.92279 0.318567 0
M  V30 3841 H 360.355 -3.03463 -0.729167 0
M  V30 3842 N 360.656 0.0484629 -1.57525 0
M  V30 3843 C 361.902 0.738854 -1.89506 0
M  V30 3844 C 362.257 1.73989 -0.821319 0
M  V30 3845 O 361.55 1.90825 0.172129 0
M  V30 3846 C 361.744 1.46632 -3.25935 0
M  V30 3847 C 361.573 0.537254 -4.46479 0
M  V30 3848 C 360.343 0.165484 -5.05029 0
M  V30 3849 C 362.541 -0.176085 -5.13998 0
M  V30 3850 N 360.523 -0.766868 -6.09091 0
M  V30 3851 C 361.894 -0.96478 -6.12448 0
M  V30 3852 C 363.949 -0.24509 -4.97296 0
M  V30 3853 C 362.652 -1.8161 -6.95996 0
M  V30 3854 C 364.678 -1.08347 -5.81391 0
M  V30 3855 C 364.04 -1.86014 -6.79395 0
M  V30 3856 H 360.139 0.245067 -0.742608 0
M  V30 3857 H 362.723 -0.000476161 -1.947 0
M  V30 3858 H 360.894 2.17623 -3.21706 0
M  V30 3859 H 362.626 2.10757 -3.45491 0
M  V30 3860 H 359.381 0.523466 -4.70698 0
M  V30 3861 H 359.805 -1.22698 -6.65788 0
M  V30 3862 H 364.447 0.341063 -4.21422 0
M  V30 3863 H 362.165 -2.41313 -7.71229 0
M  V30 3864 H 365.751 -1.14014 -5.70519 0
M  V30 3865 H 364.631 -2.4984 -7.43337 0
M  V30 3866 N 362.134 1.5431 0.320358 0
M  V30 3867 C 363.38 1.72924 1.05949 0
M  V30 3868 C 363.713 0.503185 1.87568 0
M  V30 3869 O 362.988 -0.499839 1.87968 0
M  V30 3870 C 363.271 3.00676 1.98156 0
M  V30 3871 C 363.124 4.3354 1.19845 0
M  V30 3872 C 364.443 3.24198 2.9763 0
M  V30 3873 H 361.562 0.629195 0.383774 0
M  V30 3874 H 364.204 1.87008 0.335854 0
M  V30 3875 H 362.354 2.888 2.59859 0
M  V30 3876 H 364.026 4.57305 0.605773 0
M  V30 3877 H 362.269 4.309 0.500784 0
M  V30 3878 H 362.94 5.19156 1.87567 0
M  V30 3879 H 365.416 3.35557 2.4605 0
M  V30 3880 H 364.292 4.14938 3.59329 0
M  V30 3881 H 364.553 2.41577 3.7026 0
M  V30 3882 N 363.613 -0.582584 1.46437 0
M  V30 3883 C 364.853 -1.35184 1.53312 0
M  V30 3884 C 365.217 -1.9115 0.180508 0
M  V30 3885 O 366.418 -2.68514 0.124017 0
M  V30 3886 C 364.689 -2.45089 2.60127 0
M  V30 3887 S 366.248 -3.32439 2.86408 0
M  V30 3888 H 363.066 -0.460559 0.54167 0
M  V30 3889 H 365.668 -0.669709 1.83671 0
M  V30 3890 H 364.372 -2.02366 3.57038 0
M  V30 3891 H 363.903 -3.18074 2.315 0
M  V30 3892 H 365.918 -4.43924 2.21688 0
M  V30 3893 N 365.091 -1.34144 -0.827227 0
M  V30 3894 C 366.368 -1.16844 -1.56865 0
M  V30 3895 C 366.748 0.260654 -2.09485 0
M  V30 3896 O 366.096 1.26138 -1.9053 0
M  V30 3897 C 366.306 -2.21939 -2.6934 0
M  V30 3898 C 367.654 -2.56695 -3.3822 0
M  V30 3899 O 368.678 -2.20695 -2.79593 0
M  V30 3900 O 367.537 -3.18518 -4.44082 0
M  V30 3901 H 364.631 -0.452669 -0.692112 0
M  V30 3902 H 367.177 -1.45763 -0.868973 0
M  V30 3903 H 365.949 -3.17882 -2.28182 0
M  V30 3904 H 365.572 -1.94172 -3.46962 0
M  V30 3905 N 366.569 1.04691 -1.17803 0
M  V30 3906 C 367.499 2.14494 -0.92275 0
M  V30 3907 C 368.48 1.69546 0.137179 0
M  V30 3908 O 369.665 1.94195 -0.0141108 0
M  V30 3909 C 366.795 3.44491 -0.440803 0
M  V30 3910 C 365.749 4.03031 -1.4405 0
M  V30 3911 C 365.075 5.28432 -0.81631 0
M  V30 3912 C 366.375 4.39932 -2.81527 0
M  V30 3913 H 368.069 2.36107 -1.84103 0
M  V30 3914 H 365.615 1.1347 -0.886599 0
M  V30 3915 H 367.568 4.2066 -0.249602 0
M  V30 3916 H 366.292 3.22546 0.513025 0
M  V30 3917 H 364.951 3.28937 -1.61853 0
M  V30 3918 H 364.599 5.02792 0.144511 0
M  V30 3919 H 364.299 5.68559 -1.48371 0
M  V30 3920 H 365.823 6.07284 -0.635496 0
M  V30 3921 H 367.237 5.07113 -2.67412 0
M  V30 3922 H 365.634 4.9109 -3.44892 0
M  V30 3923 H 366.704 3.50045 -3.35554 0
M  V30 3924 N 368.047 0.979072 1.23499 0
M  V30 3925 C 369.324 0.563674 1.87302 0
M  V30 3926 C 369.704 -0.959199 1.88049 0
M  V30 3927 O 369.052 -1.83535 1.36114 0
M  V30 3928 C 369.262 1.16822 3.28867 0
M  V30 3929 C 370.61 1.26014 4.0547 0
M  V30 3930 O 371.634 1.12158 3.38082 0
M  V30 3931 O 370.493 1.48044 5.26066 0
M  V30 3932 H 367.587 0.189602 0.804972 0
M  V30 3933 H 370.133 1.07407 1.31384 0
M  V30 3934 H 368.905 2.21049 3.22883 0
M  V30 3935 H 368.528 0.642564 3.92373 0
M  V30 3936 N 369.525 -1.3858 0.750561 0
M  V30 3937 C 370.472 -2.30483 0.120835 0
M  V30 3938 C 371.442 -1.50022 -0.712923 0
M  V30 3939 O 372.627 -1.78662 -0.669676 0
M  V30 3940 C 369.767 -3.36431 -0.768666 0
M  V30 3941 C 368.88 -4.31927 0.0793922 0
M  V30 3942 C 368.015 -5.24944 -0.81283 0
M  V30 3943 C 367.054 -6.12088 0.0390447 0
M  V30 3944 N 366.191 -6.97412 -0.809969 0
M  V30 3945 H 371.031 -2.83761 0.91015 0
M  V30 3946 H 368.568 -1.39707 0.460463 0
M  V30 3947 H 370.526 -3.96462 -1.29898 0
M  V30 3948 H 369.156 -2.8457 -1.5238 0
M  V30 3949 H 368.208 -3.73382 0.727303 0
M  V30 3950 H 369.52 -4.93319 0.737401 0
M  V30 3951 H 368.674 -5.90078 -1.41042 0
M  V30 3952 H 367.413 -4.63911 -1.50458 0
M  V30 3953 H 366.418 -5.45952 0.649328 0
M  V30 3954 H 367.643 -6.75189 0.727809 0
M  V30 3955 H 365.589 -6.38931 -1.48672 0
M  V30 3956 H 365.506 -7.55712 -0.208789 0
M  V30 3957 H 366.774 -7.66959 -1.39263 0
M  V30 3958 N 371.003 -0.499398 -1.49478 0
M  V30 3959 C 371.966 0.268838 -2.27618 0
M  V30 3960 C 372.966 0.895383 -1.33565 0
M  V30 3961 O 374.156 0.760164 -1.56739 0
M  V30 3962 C 371.288 1.38559 -3.11471 0
M  V30 3963 H 372.481 -0.416812 -2.96989 0
M  V30 3964 H 370.034 -0.254313 -1.54217 0
M  V30 3965 H 370.769 2.10544 -2.46661 0
M  V30 3966 H 370.554 0.941797 -3.80621 0
M  V30 3967 H 372.044 1.92678 -3.70493 0
M  V30 3968 N 372.481 1.55866 -0.233164 0
M  V30 3969 C 373.727 1.99643 0.389148 0
M  V30 3970 C 374.082 1.11836 1.56558 0
M  V30 3971 O 373.375 0.170848 1.90837 0
M  V30 3972 C 373.569 3.46856 0.861724 0
M  V30 3973 C 373.398 4.48904 -0.267376 0
M  V30 3974 C 372.168 4.99888 -0.737577 0
M  V30 3975 C 374.366 5.02624 -1.08966 0
M  V30 3976 N 372.348 5.8566 -1.84052 0
M  V30 3977 C 373.719 5.85434 -2.04125 0
M  V30 3978 C 375.774 4.84959 -1.12779 0
M  V30 3979 C 374.477 6.52466 -3.02789 0
M  V30 3980 C 376.503 5.52759 -2.10266 0
M  V30 3981 C 375.865 6.35346 -3.04162 0
M  V30 3982 H 371.964 0.774402 0.108742 0
M  V30 3983 H 374.548 1.91572 -0.347596 0
M  V30 3984 H 372.719 3.55352 1.5678 0
M  V30 3985 H 374.451 3.77531 1.45783 0
M  V30 3986 H 371.206 4.7249 -0.324122 0
M  V30 3987 H 371.63 6.33246 -2.39434 0
M  V30 3988 H 376.272 4.20751 -0.415749 0
M  V30 3989 H 373.99 7.15849 -3.74948 0
M  V30 3990 H 377.576 5.41051 -2.13905 0
M  V30 3991 H 376.456 6.86883 -3.78366 0
M  V30 3992 N 373.959 -0.0401083 1.57549 0
M  V30 3993 C 375.236 -0.767917 1.79896 0
M  V30 3994 C 375.616 -1.9416 0.82856 0
M  V30 3995 O 374.964 -2.2812 -0.131671 0
M  V30 3996 C 375.174 -1.2113 3.27305 0
M  V30 3997 C 376.522 -1.63175 3.91994 0
M  V30 3998 O 377.546 -1.30616 3.31388 0
M  V30 3999 O 376.405 -2.23565 4.98679 0
M  V30 4000 H 373.499 -0.370441 0.739393 0
M  V30 4001 H 376.045 -0.017737 1.69691 0
M  V30 4002 H 374.817 -0.372937 3.89519 0
M  V30 4003 H 374.44 -2.02183 3.42356 0
M  V30 4004 N 375.437 -1.54477 -0.31217 0
M  V30 4005 C 376.369 -1.81011 -1.40598 0
M  V30 4006 C 377.382 -0.692546 -1.47335 0
M  V30 4007 O 378.571 -0.969847 -1.49854 0
M  V30 4008 C 375.671 -1.92307 -2.79054 0
M  V30 4009 C 374.844 -3.22594 -2.95384 0
M  V30 4010 C 373.903 -3.24448 -4.1427 0
M  V30 4011 O 372.929 -3.98035 -4.06887 0
M  V30 4012 N 374.131 -2.49042 -5.24365 0
M  V30 4013 H 376.896 -2.75408 -1.18196 0
M  V30 4014 H 374.457 -1.53914 -0.502202 0
M  V30 4015 H 376.449 -1.90962 -3.56813 0
M  V30 4016 H 375.019 -1.04955 -2.94454 0
M  V30 4017 H 374.239 -3.36806 -2.04831 0
M  V30 4018 H 375.527 -4.08593 -3.03198 0
M  V30 4019 H 374.925 -1.88867 -5.33241 0
M  V30 4020 H 373.482 -2.53463 -6.005 0
M  V30 4021 N 376.915 0.57481 -1.46744 0
M  V30 4022 C 378.155 1.34369 -1.54027 0
M  V30 4023 C 378.519 1.91051 -0.190642 0
M  V30 4024 O 379.72 2.68444 -0.138255 0
M  V30 4025 C 377.991 2.43706 -2.61423 0
M  V30 4026 S 379.55 3.30915 -2.88167 0
M  V30 4027 H 376.368 0.45768 -0.544105 0
M  V30 4028 H 378.97 0.659959 -1.84024 0
M  V30 4029 H 377.674 2.0047 -3.58106 0
M  V30 4030 H 377.205 3.16842 -2.33184 0
M  V30 4031 H 379.22 4.42742 -2.24039 0
M  V30 4032 N 378.394 1.34581 0.820102 0
M  V30 4033 C 379.643 1.26437 1.57151 0
M  V30 4034 C 379.956 -0.163111 1.94919 0
M  V30 4035 O 381.162 -0.366722 2.69012 0
M  V30 4036 C 379.618 2.21658 2.83541 0
M  V30 4037 C 379.226 3.69679 2.53065 0
M  V30 4038 C 380.97 2.22428 3.61561 0
M  V30 4039 C 378.877 4.56761 3.75664 0
M  V30 4040 H 377.807 0.469707 0.589823 0
M  V30 4041 H 380.458 1.59763 0.902656 0
M  V30 4042 H 378.84 1.81287 3.52067 0
M  V30 4043 H 380.014 4.18605 1.92631 0
M  V30 4044 H 378.329 3.71384 1.88316 0
M  V30 4045 H 380.926 2.8471 4.52597 0
M  V30 4046 H 381.269 1.22434 3.97889 0
M  V30 4047 H 381.802 2.61259 2.99981 0
M  V30 4048 H 378.541 5.57702 3.44454 0
M  V30 4049 H 378.061 4.12568 4.35371 0
M  V30 4050 H 379.74 4.71509 4.43044 0
M  V30 4051 N 379.872 -1.04064 1.18357 0
M  V30 4052 C 381.283 -1.58719 0.98312 0
M  V30 4053 C 381.634 -1.90556 -0.467193 0
M  V30 4054 O 380.759 -1.69561 -1.34454 0
M  V30 4055 C 381.354 -2.88379 1.77828 0
M  V30 4056 C 379.913 -3.3965 1.62218 0
M  V30 4057 C 379.06 -2.13235 1.77274 0
M  V30 4058 H 382.011 -0.867359 1.32901 0
M  V30 4059 H 382.032 -3.58773 1.26737 0
M  V30 4060 H 381.544 -2.65176 2.83379 0
M  V30 4061 H 379.645 -3.67866 0.592036 0
M  V30 4062 H 379.758 -4.13475 2.42023 0
M  V30 4063 H 378.122 -2.24542 1.20221 0
M  V30 4064 H 378.905 -1.92487 2.8426 0
M  V30 4065 N 381.35 -0.985608 -1.22978 0
M  V30 4066 C 382.297 -0.529825 -2.24636 0
M  V30 4067 C 383.267 0.434028 -1.60329 0
M  V30 4068 O 384.452 0.340414 -1.87739 0
M  V30 4069 C 381.592 0.156533 -3.44745 0
M  V30 4070 C 380.705 -0.848197 -4.23591 0
M  V30 4071 C 379.84 -0.136109 -5.31026 0
M  V30 4072 C 378.879 -1.1297 -6.01585 0
M  V30 4073 N 378.016 -0.446415 -7.00679 0
M  V30 4074 H 382.856 -1.40148 -2.62988 0
M  V30 4075 H 380.393 -0.702168 -1.29259 0
M  V30 4076 H 382.351 0.571324 -4.1327 0
M  V30 4077 H 380.981 0.992025 -3.07179 0
M  V30 4078 H 380.033 -1.38135 -3.54433 0
M  V30 4079 H 381.345 -1.60512 -4.72268 0
M  V30 4080 H 380.499 0.335784 -6.0577 0
M  V30 4081 H 379.238 0.653373 -4.83304 0
M  V30 4082 H 378.243 -1.6123 -5.25628 0
M  V30 4083 H 379.468 -1.91993 -6.51395 0
M  V30 4084 H 377.414 0.323763 -6.55201 0
M  V30 4085 H 377.331 -1.1419 -7.47326 0
M  V30 4086 H 378.599 0.00291697 -7.795 0
M  V30 4087 N 382.828 1.3818 -0.7579 0
M  V30 4088 C 384.058 2.04004 -0.326463 0
M  V30 4089 C 384.466 1.57286 1.05156 0
M  V30 4090 O 383.809 0.743144 1.67997 0
M  V30 4091 C 383.871 3.58444 -0.275402 0
M  V30 4092 C 383.535 4.28237 -1.59569 0
M  V30 4093 C 384.532 4.53312 -2.54566 0
M  V30 4094 C 382.217 4.66341 -1.86631 0
M  V30 4095 C 384.211 5.15531 -3.74842 0
M  V30 4096 C 381.898 5.28283 -3.0718 0
M  V30 4097 C 382.896 5.52814 -4.01106 0
M  V30 4098 O 382.584 6.13465 -5.19534 0
M  V30 4099 H 382.316 0.662026 -0.136739 0
M  V30 4100 H 384.87 1.7777 -1.02893 0
M  V30 4101 H 383.1 3.83667 0.483337 0
M  V30 4102 H 384.789 4.05701 0.127099 0
M  V30 4103 H 385.555 4.24299 -2.34936 0
M  V30 4104 H 381.434 4.46591 -1.14358 0
M  V30 4105 H 384.978 5.34594 -4.48168 0
M  V30 4106 H 380.875 5.56719 -3.26702 0
M  V30 4107 H 381.643 6.31951 -5.20173 0
M  V30 4108 N 384.306 0.507319 1.49211 0
M  V30 4109 C 385.531 -0.033725 2.07373 0
M  V30 4110 C 385.956 -1.29485 1.36437 0
M  V30 4111 O 385.314 -1.76294 0.423087 0
M  V30 4112 C 385.362 -0.263945 3.59633 0
M  V30 4113 O 384.466 -1.33737 3.90113 0
M  V30 4114 H 383.807 0.0290331 0.663365 0
M  V30 4115 H 386.337 0.708749 1.91932 0
M  V30 4116 H 386.347 -0.493536 4.05004 0
M  V30 4117 H 385.022 0.657424 4.10671 0
M  V30 4118 H 383.599 -1.09224 3.56545 0
M  V30 4119 N 385.784 -1.5574 0.241426 0
M  V30 4120 C 387.031 -1.9881 -0.384836 0
M  V30 4121 C 387.359 -1.12947 -1.58346 0
M  V30 4122 O 386.614 -0.178993 -1.9488 0
M  V30 4123 C 386.913 -3.47308 -0.843317 0
M  V30 4124 C 386.579 -4.50223 0.246946 0
M  V30 4125 C 385.241 -4.78088 0.546399 0
M  V30 4126 C 387.593 -5.11841 0.983282 0
M  V30 4127 C 384.921 -5.64846 1.58636 0
M  V30 4128 C 387.273 -5.99727 2.01272 0
M  V30 4129 C 385.937 -6.25927 2.31888 0
M  V30 4130 H 385.207 -0.727496 -0.140821 0
M  V30 4131 H 387.854 -1.8831 0.348106 0
M  V30 4132 H 386.159 -3.55112 -1.65537 0
M  V30 4133 H 387.856 -3.78017 -1.33806 0
M  V30 4134 H 384.446 -4.286 0.00340639 0
M  V30 4135 H 388.63 -4.90366 0.765182 0
M  V30 4136 H 383.886 -5.83403 1.82896 0
M  V30 4137 H 388.06 -6.46517 2.58823 0
M  V30 4138 H 385.687 -6.92949 3.12611 0
M  V30 4139 N 387.262 0.0317525 -1.57568 0
M  V30 4140 C 388.49 0.734949 -1.93407 0
M  V30 4141 C 388.905 1.69036 -0.84096 0
M  V30 4142 O 388.262 1.81582 0.182836 0
M  V30 4143 C 388.313 1.49432 -3.29169 0
M  V30 4144 O 388.034 0.577261 -4.3428 0
M  V30 4145 C 389.535 2.29492 -3.79273 0
M  V30 4146 H 386.755 0.206706 -0.638368 0
M  V30 4147 H 389.299 -0.00992046 -2.04498 0
M  V30 4148 H 387.454 2.1911 -3.19483 0
M  V30 4149 H 387.868 1.10952 -5.1263 0
M  V30 4150 H 389.342 2.78172 -4.76785 0
M  V30 4151 H 389.819 3.10794 -3.10328 0
M  V30 4152 H 390.425 1.64894 -3.92033 0
M  V30 4153 N 388.74 1.54641 0.303973 0
M  V30 4154 C 390.156 1.45788 0.649463 0
M  V30 4155 C 390.356 0.64666 1.90842 0
M  V30 4156 O 389.412 0.153183 2.52035 0
M  V30 4157 C 390.725 2.89718 0.805227 0
M  V30 4158 C 392.273 2.99742 0.901305 0
M  V30 4159 C 392.748 4.44863 1.08909 0
M  V30 4160 N 394.239 4.48559 1.15536 0
M  V30 4161 C 394.974 5.58026 1.3189 0
M  V30 4162 N 394.47 6.77422 1.45161 0
M  V30 4163 N 396.263 5.45708 1.34755 0
M  V30 4164 H 388.414 2.05854 -0.523237 0
M  V30 4165 H 390.677 0.932186 -0.172431 0
M  V30 4166 H 390.383 3.51666 -0.0489108 0
M  V30 4167 H 390.257 3.36964 1.69513 0
M  V30 4168 H 392.644 2.3791 1.74593 0
M  V30 4169 H 392.725 2.55797 -0.0125531 0
M  V30 4170 H 392.369 5.07288 0.249241 0
M  V30 4171 H 392.299 4.86436 2.01713 0
M  V30 4172 H 394.79 3.6254 1.06646 0
M  V30 4173 H 395.103 7.56604 1.57387 0
M  V30 4174 H 393.448 6.80292 1.42223 0
M  V30 4175 H 396.639 4.51378 1.23996 0
M  V30 4176 H 396.812 6.3107 1.47157 0
M  V30 4177 N 390.218 -0.567019 1.47046 0
M  V30 4178 C 391.148 -1.68482 1.61667 0
M  V30 4179 C 392.129 -1.6358 0.466418 0
M  V30 4180 O 393.314 -1.81354 0.694574 0
M  V30 4181 C 390.444 -3.07124 1.62148 0
M  V30 4182 C 389.398 -3.26867 2.76301 0
M  V30 4183 C 388.724 -4.66196 2.61849 0
M  V30 4184 C 390.024 -3.13186 4.17986 0
M  V30 4185 H 391.718 -1.56502 2.5524 0
M  V30 4186 H 389.264 -0.751486 1.22836 0
M  V30 4187 H 391.217 -3.8516 1.70968 0
M  V30 4188 H 389.941 -3.2004 0.651287 0
M  V30 4189 H 388.6 -2.51237 2.66975 0
M  V30 4190 H 388.248 -4.75898 1.62879 0
M  V30 4191 H 387.948 -4.80356 3.38425 0
M  V30 4192 H 389.472 -5.46379 2.72584 0
M  V30 4193 H 390.886 -3.81049 4.2834 0
M  V30 4194 H 389.283 -3.3886 4.95272 0
M  V30 4195 H 390.353 -2.10057 4.3704 0
M  V30 4196 N 391.696 -1.35014 -0.812953 0
M  V30 4197 C 392.973 -1.18502 -1.55617 0
M  V30 4198 C 393.353 0.238421 -2.09749 0
M  V30 4199 O 392.701 1.2411 -1.91857 0
M  V30 4200 C 392.911 -2.24783 -2.66971 0
M  V30 4201 C 394.259 -2.60268 -3.35478 0
M  V30 4202 O 395.283 -2.23648 -2.77236 0
M  V30 4203 O 394.142 -3.2321 -4.40678 0
M  V30 4204 H 391.236 -0.459984 -0.687272 0
M  V30 4205 H 393.782 -1.46677 -0.853464 0
M  V30 4206 H 392.554 -3.20284 -2.24798 0
M  V30 4207 H 392.177 -1.97841 -3.44884 0
M  V30 4208 N 393.175 1.03435 -1.18907 0
M  V30 4209 C 394.4 1.80919 -1.01406 0
M  V30 4210 C 394.825 1.83055 0.432721 0
M  V30 4211 O 394.183 1.25252 1.31079 0
M  V30 4212 C 394.231 3.24091 -1.58105 0
M  V30 4213 O 393.335 4.04434 -0.806669 0
M  V30 4214 H 392.676 0.558709 -0.358803 0
M  V30 4215 H 395.206 1.30223 -1.57807 0
M  V30 4216 H 395.216 3.74853 -1.61087 0
M  V30 4217 H 393.891 3.21851 -2.6341 0
M  V30 4218 H 392.468 3.63091 -0.849666 0
M  V30 4219 N 394.653 0.992116 1.22453 0
M  V30 4220 C 395.899 0.668523 1.91464 0
M  V30 4221 C 396.232 -0.797313 1.77078 0
M  V30 4222 O 395.507 -1.5765 1.13916 0
M  V30 4223 C 395.79 1.07424 3.43703 0
M  V30 4224 C 395.643 2.59857 3.67143 0
M  V30 4225 C 396.962 0.626891 4.35612 0
M  V30 4226 H 394.081 0.244341 0.695318 0
M  V30 4227 H 396.723 1.2355 1.44345 0
M  V30 4228 H 394.873 0.591816 3.83966 0
M  V30 4229 H 396.545 3.15764 3.3629 0
M  V30 4230 H 394.788 3.01961 3.11451 0
M  V30 4231 H 395.459 2.83296 4.73759 0
M  V30 4232 H 397.935 1.04125 4.02861 0
M  V30 4233 H 396.811 0.939076 5.40807 0
M  V30 4234 H 397.072 -0.472457 4.39568 0
M  V30 4235 N 396.131 -1.37776 0.765217 0
M  V30 4236 C 397.356 -2.04651 0.336537 0
M  V30 4237 C 397.781 -1.57337 -1.03086 0
M  V30 4238 O 397.139 -0.730621 -1.65927 0
M  V30 4239 C 397.187 -3.58577 0.381468 0
M  V30 4240 O 396.291 -4.07706 -0.62042 0
M  V30 4241 H 395.632 -0.64756 0.146838 0
M  V30 4242 H 398.162 -1.76221 1.03959 0
M  V30 4243 H 398.172 -4.07314 0.236448 0
M  V30 4244 H 396.847 -3.9237 1.37907 0
M  V30 4245 H 395.424 -3.70306 -0.439056 0
M  V30 4246 N 397.609 -0.515225 -1.4894 0
M  V30 4247 C 398.519 0.259774 -2.33157 0
M  V30 4248 C 399.535 0.953501 -1.45548 0
M  V30 4249 O 400.711 0.931735 -1.78552 0
M  V30 4250 C 397.776 1.30193 -3.21326 0
M  V30 4251 C 396.837 0.620129 -4.24797 0
M  V30 4252 C 396.07 1.61263 -5.08753 0
M  V30 4253 O 396.293 2.84389 -4.94448 0
M  V30 4254 O 395.227 1.16013 -5.90614 0
M  V30 4255 H 399.053 -0.429932 -3.00641 0
M  V30 4256 H 396.638 -0.276346 -1.46822 0
M  V30 4257 H 398.52 1.90455 -3.75905 0
M  V30 4258 H 397.195 1.97431 -2.56521 0
M  V30 4259 H 396.102 -0.0226019 -3.74093 0
M  V30 4260 H 397.435 -0.0100493 -4.92199 0
M  V30 4261 N 399.087 1.5561 -0.249682 0
M  V30 4262 C 400.034 2.21496 0.648694 0
M  V30 4263 C 401.004 1.17977 1.16921 0
M  V30 4264 O 402.189 1.46434 1.22318 0
M  V30 4265 C 399.329 2.92039 1.83868 0
M  V30 4266 C 398.442 4.10219 1.35442 0
M  V30 4267 C 397.577 4.6847 2.50419 0
M  V30 4268 C 396.616 5.78893 1.98869 0
M  V30 4269 N 395.753 6.31315 3.07223 0
M  V30 4270 H 400.593 2.97892 0.0801582 0
M  V30 4271 H 398.13 1.47074 0.0278031 0
M  V30 4272 H 400.088 3.31138 2.53778 0
M  V30 4273 H 398.718 2.18111 2.37965 0
M  V30 4274 H 397.77 3.76413 0.54928 0
M  V30 4275 H 399.082 4.89927 0.936649 0
M  V30 4276 H 398.236 5.10158 3.28366 0
M  V30 4277 H 396.975 3.87984 2.95499 0
M  V30 4278 H 395.98 5.3668 1.19393 0
M  V30 4279 H 397.205 6.61232 1.54755 0
M  V30 4280 H 395.151 5.53733 3.51732 0
M  V30 4281 H 395.068 7.06224 2.69784 0
M  V30 4282 H 396.336 6.77662 3.8522 0
M  V30 4283 N 400.565 -0.0233959 1.57583 0
M  V30 4284 C 401.79 -0.728376 1.94189 0
M  V30 4285 C 402.215 -1.67793 0.850119 0
M  V30 4286 O 401.573 -1.80262 -0.19371 0
M  V30 4287 C 401.621 -1.45669 3.29868 0
M  V30 4288 O 400.725 -2.57013 3.22518 0
M  V30 4289 H 400.066 -0.195493 0.63457 0
M  V30 4290 H 402.596 0.0228214 2.04587 0
M  V30 4291 H 402.606 -1.82535 3.6489 0
M  V30 4292 H 401.281 -0.760314 4.08891 0
M  V30 4293 H 399.858 -2.22648 2.99136 0
M  V30 4294 N 402.043 -1.548 -0.295768 0
M  V30 4295 C 403.268 -1.78653 -1.05346 0
M  V30 4296 C 403.693 -0.546894 -1.79974 0
M  V30 4297 O 403.051 0.502763 -1.7419 0
M  V30 4298 C 403.099 -2.99679 -2.00561 0
M  V30 4299 O 402.203 -2.7317 -3.08953 0
M  V30 4300 H 401.544 -0.59116 -0.302367 0
M  V30 4301 H 404.074 -2.01895 -0.331598 0
M  V30 4302 H 404.084 -3.27793 -2.42932 0
M  V30 4303 H 402.759 -3.89562 -1.4565 0
M  V30 4304 H 401.336 -2.56089 -2.71059 0
M  V30 4305 N 403.521 0.559213 -1.47345 0
M  V30 4306 C 404.767 1.31843 -1.54095 0
M  V30 4307 C 405.1 1.93149 -0.201726 0
M  V30 4308 O 404.375 1.77759 0.789428 0
M  V30 4309 C 404.658 2.43006 -2.65744 0
M  V30 4310 C 404.511 1.86581 -4.09277 0
M  V30 4311 C 405.83 3.44943 -2.73318 0
M  V30 4312 H 402.949 0.478012 -0.560957 0
M  V30 4313 H 405.591 0.625977 -1.79392 0
M  V30 4314 H 403.741 3.02072 -2.44305 0
M  V30 4315 H 405.413 1.31792 -4.42073 0
M  V30 4316 H 403.656 1.17268 -4.17649 0
M  V30 4317 H 404.327 2.66933 -4.83168 0
M  V30 4318 H 406.803 2.95793 -2.92653 0
M  V30 4319 H 405.679 4.20153 -3.53218 0
M  V30 4320 H 405.94 4.03665 -1.80296 0
M  V30 4321 N 404.999 1.35443 0.805782 0
M  V30 4322 C 406.224 1.32037 1.59941 0
M  V30 4323 C 406.649 -0.0994215 1.87837 0
M  V30 4324 O 406.007 -1.06648 1.46615 0
M  V30 4325 C 406.055 2.13354 2.90711 0
M  V30 4326 O 405.159 1.5148 3.83572 0
M  V30 4327 H 404.5 0.452666 0.485787 0
M  V30 4328 H 407.03 1.78496 1.00002 0
M  V30 4329 H 407.04 2.25338 3.40128 0
M  V30 4330 H 405.715 3.16572 2.69732 0
M  V30 4331 H 404.292 1.4834 3.42125 0
M  V30 4332 N 406.477 -1.02803 1.19454 0
M  V30 4333 C 407.888 -1.57667 0.999899 0
M  V30 4334 C 408.239 -1.91041 -0.446956 0
M  V30 4335 O 407.364 -1.70978 -1.32648 0
M  V30 4336 C 407.959 -2.86477 1.80877 0
M  V30 4337 C 406.518 -3.37911 1.65811 0
M  V30 4338 C 405.665 -2.11343 1.79526 0
M  V30 4339 H 408.616 -0.853214 1.33813 0
M  V30 4340 H 408.637 -3.57408 1.30536 0
M  V30 4341 H 408.149 -2.62155 2.86175 0
M  V30 4342 H 406.25 -3.67218 0.63102 0
M  V30 4343 H 406.363 -4.10885 2.46395 0
M  V30 4344 H 404.727 -2.23254 1.22596 0
M  V30 4345 H 405.51 -1.89461 2.86285 0
M  V30 4346 N 407.956 -0.998596 -1.21925 0
M  V30 4347 C 409.204 -0.676325 -1.90448 0
M  V30 4348 C 409.525 0.794719 -1.78071 0
M  V30 4349 O 408.795 1.5701 -1.17152 0
M  V30 4350 H 407.375 -0.247165 -0.704925 0
M  V30 4351 H 410.037 -1.26633 -1.48156 0
M  V30 4352 H 409.133 -0.943858 -2.97486 0
M  V30 4353 N 409.434 1.37368 -0.772513 0
M  V30 4354 C 410.664 2.03647 -0.348082 0
M  V30 4355 C 411.072 1.58392 1.03482 0
M  V30 4356 O 410.415 0.760921 1.672 0
M  V30 4357 C 410.477 3.58131 -0.313404 0
M  V30 4358 C 410.141 4.2652 -1.64102 0
M  V30 4359 C 411.138 4.50587 -2.5936 0
M  V30 4360 C 408.823 4.64335 -1.91567 0
M  V30 4361 C 410.817 5.11526 -3.80289 0
M  V30 4362 C 408.504 5.24996 -3.12766 0
M  V30 4363 C 409.502 5.48529 -4.06946 0
M  V30 4364 O 409.19 6.07921 -5.26011 0
M  V30 4365 H 408.922 0.660538 -0.143753 0
M  V30 4366 H 411.476 1.76669 -1.04772 0
M  V30 4367 H 409.706 3.84159 0.442617 0
M  V30 4368 H 411.395 4.05813 0.0840613 0
M  V30 4369 H 412.161 4.21784 -2.39423 0
M  V30 4370 H 408.04 4.45353 -1.19088 0
M  V30 4371 H 411.584 5.29811 -4.53813 0
M  V30 4372 H 407.481 5.53223 -3.32588 0
M  V30 4373 H 408.249 6.26398 -5.26847 0
M  V30 4374 N 410.912 0.523116 1.48665 0
M  V30 4375 C 411.86 -0.256859 2.31177 0
M  V30 4376 C 412.854 -0.94199 1.40794 0
M  V30 4377 O 414.06 -0.867157 1.57735 0
M  V30 4378 H 410.435 -0.1017 0.745091 0
M  V30 4379 H 412.406 0.458739 2.94853 0
M  V30 4380 C 411.155 -1.29503 3.22683 0
M  V30 4381 H 410.478 -0.777248 3.92172 0
M  V30 4382 H 411.918 -1.81233 3.83315 0
M  V30 4383 C 410.377 -2.32501 2.43813 0
M  V30 4384 O 410.907 -3.3881 2.15803 0
M  V30 4385 N 409.113 -2.05538 2.05432 0
M  V30 4386 H 408.66 -1.19104 2.28412 0
M  V30 4387 H 408.618 -2.74676 1.52973 0
M  V30 4388 N 412.39 -1.55475 0.257931 0
M  V30 4389 C 413.637 -1.99207 -0.363728 0
M  V30 4390 C 413.965 -1.1462 -1.57139 0
M  V30 4391 O 413.22 -0.199653 -1.94679 0
M  V30 4392 C 413.519 -3.48183 -0.806433 0
M  V30 4393 C 413.185 -4.49936 0.294684 0
M  V30 4394 C 411.847 -4.77481 0.597076 0
M  V30 4395 C 414.199 -5.10769 1.03751 0
M  V30 4396 C 411.527 -5.63132 1.64618 0
M  V30 4397 C 413.879 -5.97558 2.07622 0
M  V30 4398 C 412.543 -6.23432 2.38514 0
M  V30 4399 H 411.813 -0.728949 -0.133097 0
M  V30 4400 H 414.46 -1.8793 0.368059 0
M  V30 4401 H 412.765 -3.56848 -1.61761 0
M  V30 4402 H 414.462 -3.79415 -1.29789 0
M  V30 4403 H 411.052 -4.28572 0.0488649 0
M  V30 4404 H 415.236 -4.89527 0.817149 0
M  V30 4405 H 410.492 -5.8143 1.89074 0
M  V30 4406 H 414.666 -6.43735 2.65666 0
M  V30 4407 H 412.293 -6.89594 3.19943 0
M  V30 4408 N 413.868 0.0150385 -1.57593 0
M  V30 4409 C 415.284 0.370907 -1.5523 0
M  V30 4410 C 415.484 1.75735 -0.985882 0
M  V30 4411 O 414.54 2.44944 -0.613077 0
M  V30 4412 C 415.853 0.259908 -2.99575 0
M  V30 4413 C 417.401 0.335959 -3.11192 0
M  V30 4414 C 417.876 0.254253 -4.57294 0
M  V30 4415 N 419.367 0.312618 -4.62144 0
M  V30 4416 C 420.102 0.272505 -5.72752 0
M  V30 4417 N 419.598 0.183864 -6.92556 0
M  V30 4418 N 421.391 0.323267 -5.6117 0
M  V30 4419 H 413.542 -0.892104 -1.92757 0
M  V30 4420 H 415.805 -0.340563 -0.884715 0
M  V30 4421 H 415.511 -0.693403 -3.44797 0
M  V30 4422 H 415.385 1.048 -3.62349 0
M  V30 4423 H 417.772 1.27971 -2.65909 0
M  V30 4424 H 417.853 -0.481739 -2.51223 0
M  V30 4425 H 417.497 -0.685887 -5.03247 0
M  V30 4426 H 417.427 1.09024 -5.15191 0
M  V30 4427 H 419.918 0.38307 -3.75953 0
M  V30 4428 H 420.231 0.15874 -7.72637 0
M  V30 4429 H 418.576 0.149708 -6.94839 0
M  V30 4430 H 421.767 0.390607 -4.66467 0
M  V30 4431 H 421.94 0.288539 -6.47357 0
M  V30 4432 N 415.346 1.54954 0.287554 0
M  V30 4433 C 416.593 1.74873 1.02106 0
M  V30 4434 C 416.921 0.541829 1.86801 0
M  V30 4435 O 416.176 -0.475992 1.89823 0
M  V30 4436 C 416.475 2.99833 1.94512 0
M  V30 4437 C 416.141 4.33029 1.25686 0
M  V30 4438 C 414.803 4.69233 1.06649 0
M  V30 4439 C 417.155 5.15542 0.765913 0
M  V30 4440 C 414.483 5.85518 0.372222 0
M  V30 4441 C 416.835 6.32542 0.0853101 0
M  V30 4442 C 415.499 6.67398 -0.1169 0
M  V30 4443 H 414.769 0.639906 0.373632 0
M  V30 4444 H 417.416 1.89219 0.294665 0
M  V30 4445 H 415.721 2.80325 2.73725 0
M  V30 4446 H 417.418 3.1244 2.51361 0
M  V30 4447 H 414.008 4.04564 1.41512 0
M  V30 4448 H 418.192 4.88059 0.90066 0
M  V30 4449 H 413.448 6.11057 0.204695 0
M  V30 4450 H 417.622 6.95741 -0.302936 0
M  V30 4451 H 415.249 7.57357 -0.656859 0
M  V30 4452 N 416.824 -0.551391 1.4764 0
M  V30 4453 C 417.787 -1.64007 1.60107 0
M  V30 4454 C 418.787 -1.53601 0.47576 0
M  V30 4455 O 419.977 -1.57655 0.740988 0
M  V30 4456 C 417.109 -3.03569 1.55108 0
M  V30 4457 H 418.302 -1.543 2.57161 0
M  V30 4458 H 415.855 -0.771776 1.35917 0
M  V30 4459 H 416.59 -3.18804 0.594519 0
M  V30 4460 H 416.375 -3.12532 2.36783 0
M  V30 4461 H 417.865 -3.82762 1.66982 0
M  V30 4462 N 418.302 -1.35869 -0.798587 0
M  V30 4463 C 419.249 -1.29446 -1.91082 0
M  V30 4464 C 420.219 -0.16487 -1.6528 0
M  V30 4465 O 421.404 -0.349888 -1.87564 0
M  V30 4466 C 418.544 -1.0804 -3.27752 0
M  V30 4467 C 417.657 -2.29993 -3.65687 0
M  V30 4468 C 416.792 -2.01673 -4.91428 0
M  V30 4469 C 415.831 -3.19636 -5.22015 0
M  V30 4470 N 414.968 -2.91039 -6.38937 0
M  V30 4471 H 419.808 -2.24553 -1.95907 0
M  V30 4472 H 417.345 -1.11615 -0.958148 0
M  V30 4473 H 419.303 -0.936586 -4.06551 0
M  V30 4474 H 417.933 -0.16592 -3.22373 0
M  V30 4475 H 416.985 -2.55211 -2.82085 0
M  V30 4476 H 418.297 -3.18052 -3.84245 0
M  V30 4477 H 417.451 -1.84168 -5.78072 0
M  V30 4478 H 416.19 -1.10911 -4.74921 0
M  V30 4479 H 415.195 -3.37709 -4.33858 0
M  V30 4480 H 416.42 -4.11211 -5.40447 0
M  V30 4481 H 414.366 -2.0288 -6.2384 0
M  V30 4482 H 414.283 -3.72635 -6.57784 0
M  V30 4483 H 415.551 -2.77093 -7.28587 0
M  V30 4484 N 419.78 1.02168 -1.19998 0
M  V30 4485 C 421.01 1.79036 -1.031 0
M  V30 4486 C 421.418 1.84409 0.423078 0
M  V30 4487 O 420.761 1.29228 1.30559 0
M  V30 4488 C 420.823 3.25185 -1.53281 0
M  V30 4489 C 420.487 3.43431 -3.01503 0
M  V30 4490 C 421.484 3.33063 -3.99206 0
M  V30 4491 C 419.169 3.69412 -3.40353 0
M  V30 4492 C 421.163 3.48413 -5.33748 0
M  V30 4493 C 418.85 3.84406 -4.75053 0
M  V30 4494 C 419.848 3.7391 -5.71559 0
M  V30 4495 O 419.536 3.88452 -7.03818 0
M  V30 4496 H 419.268 0.570043 -0.363355 0
M  V30 4497 H 421.822 1.29524 -1.59414 0
M  V30 4498 H 420.052 3.75756 -0.913483 0
M  V30 4499 H 421.741 3.83671 -1.32481 0
M  V30 4500 H 422.507 3.12934 -3.70537 0
M  V30 4501 H 418.386 3.76671 -2.65782 0
M  V30 4502 H 421.93 3.40137 -6.09059 0
M  V30 4503 H 417.827 4.04035 -5.03415 0
M  V30 4504 H 418.595 4.055 -7.10993 0
M  V30 4505 N 421.258 1.00505 1.21394 0
M  V30 4506 C 422.488 0.705584 1.94178 0
M  V30 4507 C 422.896 -0.735846 1.74304 0
M  V30 4508 O 422.239 -1.50954 1.04683 0
M  V30 4509 C 422.301 0.94689 3.46806 0
M  V30 4510 C 421.965 2.37517 3.90429 0
M  V30 4511 C 422.962 3.35539 3.97127 0
M  V30 4512 C 420.647 2.71284 4.22742 0
M  V30 4513 C 422.641 4.65395 4.3553 0
M  V30 4514 C 420.328 4.01356 4.60822 0
M  V30 4515 C 421.326 4.98223 4.67186 0
M  V30 4516 O 421.014 6.25969 5.04399 0
M  V30 4517 H 420.746 0.259216 0.624326 0
M  V30 4518 H 423.3 1.34592 1.55159 0
M  V30 4519 H 421.53 0.249386 3.85895 0
M  V30 4520 H 423.219 0.640804 4.0081 0
M  V30 4521 H 423.985 3.10786 3.7234 0
M  V30 4522 H 419.864 1.96581 4.16985 0
M  V30 4523 H 423.408 5.41002 4.40412 0
M  V30 4524 H 419.305 4.25893 4.85063 0
M  V30 4525 H 420.073 6.30085 5.22431 0
M  V30 4526 N 422.737 -1.36956 0.779787 0
M  V30 4527 C 423.684 -2.30175 0.169697 0
M  V30 4528 C 424.654 -1.51501 -0.68094 0
M  V30 4529 O 425.839 -1.80042 -0.631629 0
M  V30 4530 C 422.979 -3.37985 -0.697131 0
M  V30 4531 C 422.092 -4.31661 0.170992 0
M  V30 4532 C 421.227 -5.2655 -0.701298 0
M  V30 4533 C 420.266 -6.11867 0.168869 0
M  V30 4534 N 419.403 -6.98973 -0.661855 0
M  V30 4535 H 424.243 -2.81767 0.970135 0
M  V30 4536 H 421.78 -1.38699 0.489994 0
M  V30 4537 H 423.738 -3.99128 -1.2146 0
M  V30 4538 H 422.368 -2.87739 -1.46309 0
M  V30 4539 H 421.42 -3.71756 0.80634 0
M  V30 4540 H 422.732 -4.91644 0.841875 0
M  V30 4541 H 421.886 -5.92937 -1.28494 0
M  V30 4542 H 420.625 -4.66998 -1.40584 0
M  V30 4543 H 419.63 -5.44452 0.764986 0
M  V30 4544 H 420.855 -6.73493 0.870863 0
M  V30 4545 H 418.801 -6.41941 -1.35086 0
M  V30 4546 H 418.718 -7.55984 -0.0484447 0
M  V30 4547 H 419.986 -7.6974 -1.22963 0
M  V30 4548 N 424.215 -0.530993 -1.48385 0
M  V30 4549 C 425.148 0.278511 -2.26494 0
M  V30 4550 C 426.126 0.943905 -1.32398 0
M  V30 4551 O 427.31 0.968098 -1.61741 0
M  V30 4552 C 424.437 1.39453 -3.08659 0
M  V30 4553 C 423.483 0.840434 -4.18137 0
M  V30 4554 S 424.316 -0.292496 -5.34701 0
M  V30 4555 C 425.472 0.825973 -6.20426 0
M  V30 4556 H 425.705 -0.384365 -2.94805 0
M  V30 4557 H 423.238 -0.316799 -1.51115 0
M  V30 4558 H 425.196 2.03382 -3.56575 0
M  V30 4559 H 423.857 2.02913 -2.3976 0
M  V30 4560 H 423.05 1.67769 -4.75257 0
M  V30 4561 H 422.652 0.277819 -3.72967 0
M  V30 4562 H 424.944 1.72438 -6.55188 0
M  V30 4563 H 425.887 0.292728 -7.07495 0
M  V30 4564 H 426.295 1.10683 -5.53543 0
M  V30 4565 N 425.693 1.55336 -0.266172 0
M  V30 4566 C 426.603 2.2583 0.635458 0
M  V30 4567 C 427.619 1.28106 1.17749 0
M  V30 4568 O 428.795 1.61024 1.20968 0
M  V30 4569 C 425.86 2.95879 1.80712 0
M  V30 4570 C 424.921 4.09059 1.30265 0
M  V30 4571 C 424.154 4.75759 2.41846 0
M  V30 4572 O 424.377 4.41622 3.61007 0
M  V30 4573 O 423.311 5.63888 2.1051 0
M  V30 4574 H 427.137 3.03631 0.0646693 0
M  V30 4575 H 424.722 1.49361 -0.0339177 0
M  V30 4576 H 426.604 3.39932 2.49047 0
M  V30 4577 H 425.279 2.21002 2.36516 0
M  V30 4578 H 424.186 3.69482 0.586019 0
M  V30 4579 H 425.519 4.85811 0.790458 0
M  V30 4580 N 427.171 -0.0066808 1.57599 0
M  V30 4581 C 428.119 -1.01851 2.09115 0
M  V30 4582 C 429.113 -1.36021 1.00969 0
M  V30 4583 O 430.319 -1.34663 1.19439 0
M  V30 4584 H 426.694 -0.346083 0.667631 0
M  V30 4585 H 428.665 -0.558394 2.93129 0
M  V30 4586 C 427.414 -2.30374 2.60429 0
M  V30 4587 H 426.737 -2.04947 3.43273 0
M  V30 4588 H 428.177 -2.99466 3.00161 0
M  V30 4589 C 426.636 -3.00893 1.51542 0
M  V30 4590 O 427.166 -3.91614 0.894484 0
M  V30 4591 N 425.372 -2.62603 1.2445 0
M  V30 4592 H 424.919 -1.88911 1.75129 0
M  V30 4593 H 424.877 -3.10101 0.518137 0
M  V30 4594 N 428.649 -1.55105 -0.279332 0
M  V30 4595 C 429.897 -1.75066 -1.00977 0
M  V30 4596 C 430.218 -0.551276 -1.87045 0
M  V30 4597 O 429.488 0.433984 -1.91032 0
M  V30 4598 H 428.068 -0.645578 -0.375816 0
M  V30 4599 H 430.73 -1.92497 -0.305089 0
M  V30 4600 H 429.826 -2.64894 -1.65038 0
M  V30 4601 N 430.127 0.543554 -1.4793 0
M  V30 4602 C 431.352 1.32995 -1.59145 0
M  V30 4603 C 431.777 1.86472 -0.246956 0
M  V30 4604 O 431.135 1.63696 0.779324 0
M  V30 4605 C 431.183 2.46623 -2.63077 0
M  V30 4606 O 430.287 3.49261 -2.19295 0
M  V30 4607 H 429.628 0.394472 -0.534124 0
M  V30 4608 H 432.158 0.655489 -1.93816 0
M  V30 4609 H 432.168 2.93001 -2.83926 0
M  V30 4610 H 430.843 2.07059 -3.60693 0
M  V30 4611 H 429.42 3.09094 -2.08603 0
M  V30 4612 N 431.605 1.3629 0.791371 0
M  V30 4613 C 432.515 1.32606 1.93527 0
M  V30 4614 C 433.531 0.228541 1.72493 0
M  V30 4615 O 434.707 0.460571 1.96063 0
M  V30 4616 C 431.772 1.11271 3.28359 0
M  V30 4617 C 430.833 2.3048 3.62185 0
M  V30 4618 C 430.066 2.10154 4.90583 0
M  V30 4619 O 430.289 1.07572 5.60165 0
M  V30 4620 O 429.223 2.97884 5.23019 0
M  V30 4621 H 433.049 2.28909 1.99585 0
M  V30 4622 H 430.634 1.16818 0.931344 0
M  V30 4623 H 432.516 1.01283 4.09047 0
M  V30 4624 H 431.191 0.180292 3.23198 0
M  V30 4625 H 430.098 2.46036 2.81811 0
M  V30 4626 H 431.431 3.22221 3.72068 0
M  V30 4627 N 433.083 -1.0153 1.20538 0
M  V30 4628 C 434.313 -1.78487 1.04048 0
M  V30 4629 C 434.721 -1.84631 -0.413292 0
M  V30 4630 O 434.064 -1.29919 -1.29872 0
M  V30 4631 C 434.126 -3.24367 1.55003 0
M  V30 4632 C 433.79 -3.41827 3.0332 0
M  V30 4633 C 434.787 -3.30941 4.00966 0
M  V30 4634 C 432.472 -3.67602 3.42307 0
M  V30 4635 C 434.466 -3.45577 5.35589 0
M  V30 4636 C 432.153 -3.81881 4.77085 0
M  V30 4637 C 433.151 -3.70874 5.73534 0
M  V30 4638 O 432.839 -3.84714 7.05868 0
M  V30 4639 H 432.571 -0.568108 0.366373 0
M  V30 4640 H 435.125 -1.28677 1.60098 0
M  V30 4641 H 433.355 -3.75266 0.933397 0
M  V30 4642 H 435.044 -3.82963 1.34514 0
M  V30 4643 H 435.81 -3.10964 3.72191 0
M  V30 4644 H 431.689 -3.75256 2.67776 0
M  V30 4645 H 435.233 -3.36902 6.10854 0
M  V30 4646 H 431.13 -4.01359 5.0555 0
M  V30 4647 H 431.898 -4.01724 7.13134 0
M  V30 4648 N 434.561 -1.01147 -1.20859 0
M  V30 4649 C 435.977 -0.725422 -1.42161 0
M  V30 4650 C 436.177 0.696919 -1.89064 0
M  V30 4651 O 435.233 1.46539 -2.05627 0
M  V30 4652 C 436.546 -1.74678 -2.44761 0
M  V30 4653 C 438.094 -1.76433 -2.58535 0
M  V30 4654 C 438.569 -2.77481 -3.64374 0
M  V30 4655 N 440.06 -2.76189 -3.71852 0
M  V30 4656 C 440.795 -3.51035 -4.53389 0
M  V30 4657 N 440.291 -4.35541 -5.38773 0
M  V30 4658 N 442.084 -3.39655 -4.47873 0
M  V30 4659 H 434.235 -1.92979 -0.887282 0
M  V30 4660 H 436.498 -0.833327 -0.451962 0
M  V30 4661 H 436.204 -2.76551 -2.17285 0
M  V30 4662 H 436.078 -1.55472 -3.43669 0
M  V30 4663 H 438.465 -0.75248 -2.85345 0
M  V30 4664 H 438.546 -1.99712 -1.5984 0
M  V30 4665 H 438.19 -3.78827 -3.38308 0
M  V30 4666 H 438.12 -2.51466 -4.6268 0
M  V30 4667 H 440.611 -2.14885 -3.10858 0
M  V30 4668 H 440.924 -4.89432 -5.98061 0
M  V30 4669 H 439.269 -4.39621 -5.38292 0
M  V30 4670 H 442.46 -2.73063 -3.80203 0
M  V30 4671 H 442.633 -3.9824 -5.11184 0
M  V30 4672 N 436.039 1.36541 -0.78704 0
M  V30 4673 C 437.267 2.03561 -0.370199 0
M  V30 4674 C 437.682 1.59347 1.01263 0
M  V30 4675 O 437.039 0.781781 1.64907 0
M  V30 4676 C 437.09 3.59033 -0.421614 0
M  V30 4677 O 436.811 4.01634 -1.7499 0
M  V30 4678 C 438.312 4.433 0.00489763 0
M  V30 4679 H 435.532 0.653346 -0.152904 0
M  V30 4680 H 438.076 1.74566 -1.06522 0
M  V30 4681 H 436.231 3.86746 0.224971 0
M  V30 4682 H 436.645 4.96217 -1.69909 0
M  V30 4683 H 438.119 5.51939 -0.0822184 0
M  V30 4684 H 438.596 4.26285 1.05723 0
M  V30 4685 H 439.202 4.20843 -0.614085 0
M  V30 4686 N 437.518 0.538854 1.48102 0
M  V30 4687 C 438.448 -0.207654 2.32575 0
M  V30 4688 C 439.429 -0.926559 1.4265 0
M  V30 4689 O 440.614 -0.91061 1.71527 0
M  V30 4690 C 437.744 -1.24957 3.24042 0
M  V30 4691 C 436.698 -0.648263 4.23062 0
M  V30 4692 C 436.024 -1.79348 5.03725 0
M  V30 4693 C 437.324 0.385897 5.20872 0
M  V30 4694 H 439.018 0.497534 2.95237 0
M  V30 4695 H 436.564 0.240715 1.41974 0
M  V30 4696 H 438.517 -1.77983 3.81969 0
M  V30 4697 H 437.241 -1.98446 2.59397 0
M  V30 4698 H 435.9 -0.139452 3.66335 0
M  V30 4699 H 435.548 -2.51696 4.35498 0
M  V30 4700 H 435.248 -1.39702 5.70751 0
M  V30 4701 H 436.772 -2.32735 5.64506 0
M  V30 4702 H 438.186 -0.057607 5.73271 0
M  V30 4703 H 436.583 0.700227 5.96001 0
M  V30 4704 H 437.653 1.28848 4.67468 0
M  V30 4705 N 438.996 -1.55193 0.274407 0
M  V30 4706 C 439.926 -2.25471 -0.607032 0
M  V30 4707 C 440.907 -1.24461 -1.15946 0
M  V30 4708 O 442.092 -1.53179 -1.19373 0
M  V30 4709 C 439.222 -2.97526 -1.79153 0
M  V30 4710 C 438.176 -4.05459 -1.37067 0
M  V30 4711 C 437.502 -4.65084 -2.6382 0
M  V30 4712 C 438.802 -5.19691 -0.521389 0
M  V30 4713 H 440.496 -2.99393 -0.0209343 0
M  V30 4714 H 438.042 -1.43997 -0.00862866 0
M  V30 4715 H 439.995 -3.45402 -2.41404 0
M  V30 4716 H 438.719 -2.21138 -2.40344 0
M  V30 4717 H 437.378 -3.58393 -0.771355 0
M  V30 4718 H 437.026 -3.85365 -3.23268 0
M  V30 4719 H 436.726 -5.37961 -2.36372 0
M  V30 4720 H 438.25 -5.15708 -3.26921 0
M  V30 4721 H 439.664 -5.63623 -1.04889 0
M  V30 4722 H 438.061 -5.99126 -0.341825 0
M  V30 4723 H 439.131 -4.82713 0.46 0
M  V30 4724 N 440.474 -0.00167713 -1.576 0
M  V30 4725 C 441.421 0.989195 -2.08527 0
M  V30 4726 C 442.391 1.34031 -0.981065 0
M  V30 4727 O 443.576 1.43839 -1.2536 0
M  V30 4728 C 440.716 2.27537 -2.59463 0
M  V30 4729 C 439.829 1.98314 -3.83791 0
M  V30 4730 C 438.964 3.21025 -4.23222 0
M  V30 4731 C 438.003 2.87495 -5.40382 0
M  V30 4732 N 437.14 4.02749 -5.75098 0
M  V30 4733 H 441.98 0.547973 -2.92919 0
M  V30 4734 H 439.517 0.258917 -1.44803 0
M  V30 4735 H 441.475 3.02729 -2.87073 0
M  V30 4736 H 440.105 2.69325 -1.77943 0
M  V30 4737 H 439.157 1.13482 -3.63078 0
M  V30 4738 H 440.469 1.69601 -4.69081 0
M  V30 4739 H 439.623 4.04561 -4.52123 0
M  V30 4740 H 438.362 3.52877 -3.36644 0
M  V30 4741 H 437.367 2.02367 -5.11202 0
M  V30 4742 H 438.592 2.56889 -6.28637 0
M  V30 4743 H 436.538 4.34494 -4.91478 0
M  V30 4744 H 436.455 3.77566 -6.54966 0
M  V30 4745 H 437.723 4.87068 -6.08592 0
M  V30 4746 N 441.952 1.55251 0.271103 0
M  V30 4747 C 442.915 1.87484 1.31842 0
M  V30 4748 C 443.915 0.749545 1.42262 0
M  V30 4749 O 445.105 1.01771 1.4138 0
M  V30 4750 C 442.237 2.0818 2.69951 0
M  V30 4751 H 443.43 2.81108 1.0449 0
M  V30 4752 H 440.983 1.47771 0.509258 0
M  V30 4753 H 441.718 1.16944 3.02481 0
M  V30 4754 H 441.503 2.90114 2.63774 0
M  V30 4755 H 442.993 2.34385 3.4562 0
M  V30 4756 N 443.43 -0.535701 1.48216 0
M  V30 4757 C 444.677 -1.29183 1.55942 0
M  V30 4758 C 445.005 -1.93125 0.230857 0
M  V30 4759 O 444.26 -1.79556 -0.778331 0
M  V30 4760 C 444.559 -2.4068 2.64212 0
M  V30 4761 C 444.225 -1.94428 4.06827 0
M  V30 4762 C 442.887 -1.81532 4.45645 0
M  V30 4763 C 445.239 -1.59405 4.96225 0
M  V30 4764 C 442.567 -1.31939 5.71672 0
M  V30 4765 C 444.919 -1.11276 6.22736 0
M  V30 4766 C 443.583 -0.969924 6.60416 0
M  V30 4767 H 442.853 -0.472715 0.570632 0
M  V30 4768 H 445.5 -0.598437 1.81909 0
M  V30 4769 H 443.805 -3.15666 2.32083 0
M  V30 4770 H 445.502 -2.98822 2.67407 0
M  V30 4771 H 442.092 -2.05415 3.76168 0
M  V30 4772 H 446.276 -1.68231 4.66917 0
M  V30 4773 H 441.532 -1.19562 5.99596 0
M  V30 4774 H 445.706 -0.832453 6.91407 0
M  V30 4775 H 443.333 -0.583436 7.57958 0
M  V30 4776 N 444.908 -1.36708 -0.784132 0
M  V30 4777 C 446.156 -1.30972 -1.53918 0
M  V30 4778 C 446.477 0.109086 -1.94695 0
M  V30 4779 O 445.747 1.05048 -1.65353 0
M  V30 4780 H 444.327 -0.481819 -0.570841 0
M  V30 4781 H 446.989 -1.71063 -0.934002 0
M  V30 4782 H 446.085 -1.94061 -2.44431 0
M  V30 4783 N 446.386 1.0089 -1.21074 0
M  V30 4784 C 447.635 1.74019 -1.01981 0
M  V30 4785 C 447.948 1.90408 0.447665 0
M  V30 4786 O 449.154 2.60707 0.757906 0
M  V30 4787 C 447.61 3.13026 -1.77603 0
M  V30 4788 C 447.218 3.04623 -3.28495 0
M  V30 4789 C 448.962 3.90312 -1.66904 0
M  V30 4790 C 446.869 4.38685 -3.96623 0
M  V30 4791 H 445.799 0.652422 -0.377971 0
M  V30 4792 H 448.45 1.12755 -1.44771 0
M  V30 4793 H 446.832 3.74878 -1.27604 0
M  V30 4794 H 448.006 2.52032 -3.85767 0
M  V30 4795 H 446.321 2.40827 -3.39693 0
M  V30 4796 H 448.918 4.8951 -2.15138 0
M  V30 4797 H 449.261 4.11558 -0.62658 0
M  V30 4798 H 449.794 3.35104 -2.14359 0
M  V30 4799 H 446.533 4.22641 -5.01054 0
M  V30 4800 H 446.053 4.91252 -3.4414 0
M  V30 4801 H 447.732 5.075 -4.01314 0
M  V30 4802 N 447.864 1.01787 1.20321 0
M  V30 4803 C 449.28 0.732951 1.41774 0
M  V30 4804 C 449.48 -0.686883 1.89431 0
M  V30 4805 O 448.536 -1.45446 2.06402 0
M  V30 4806 C 449.849 1.75973 2.43832 0
M  V30 4807 C 451.397 1.77802 2.57596 0
M  V30 4808 C 451.872 2.7941 3.62897 0
M  V30 4809 N 453.363 2.78157 3.70382 0
M  V30 4810 C 454.098 3.53434 4.51521 0
M  V30 4811 N 453.594 4.38392 5.36455 0
M  V30 4812 N 455.387 3.42026 4.46066 0
M  V30 4813 H 447.538 1.93447 0.877035 0
M  V30 4814 H 449.801 0.835712 0.447536 0
M  V30 4815 H 449.507 2.77699 2.15815 0
M  V30 4816 H 449.381 1.57292 3.4284 0
M  V30 4817 H 451.768 0.767602 2.84942 0
M  V30 4818 H 451.849 2.00557 1.58779 0
M  V30 4819 H 451.493 3.80616 3.36295 0
M  V30 4820 H 451.423 2.53916 4.61339 0
M  V30 4821 H 453.914 2.16531 3.09714 0
M  V30 4822 H 454.227 4.92596 5.95457 0
M  V30 4823 H 452.572 4.4247 5.35953 0
M  V30 4824 H 455.763 2.75075 3.78749 0
M  V30 4825 H 455.936 4.00946 5.09064 0
M  V30 4826 N 449.342 -1.36122 0.79427 0
M  V30 4827 C 450.589 -1.99111 0.368905 0
M  V30 4828 C 450.917 -1.63032 -1.0607 0
M  V30 4829 O 450.172 -0.879303 -1.74833 0
M  V30 4830 C 450.471 -3.5409 0.48527 0
M  V30 4831 C 450.137 -4.10003 1.87638 0
M  V30 4832 C 448.799 -4.24986 2.257 0
M  V30 4833 C 451.151 -4.40423 2.78706 0
M  V30 4834 C 448.479 -4.67701 3.54221 0
M  V30 4835 C 450.831 -4.84573 4.0666 0
M  V30 4836 C 449.495 -4.97761 4.44737 0
M  V30 4837 H 448.765 -0.7286 0.134992 0
M  V30 4838 H 451.412 -1.62534 1.01267 0
M  V30 4839 H 449.717 -3.91052 -0.241984 0
M  V30 4840 H 451.414 -4.00766 0.137109 0
M  V30 4841 H 448.004 -3.98784 1.57064 0
M  V30 4842 H 452.188 -4.28412 2.50553 0
M  V30 4843 H 447.444 -4.761 3.83587 0
M  V30 4844 H 451.618 -5.07074 4.77336 0
M  V30 4845 H 449.245 -5.30618 5.44379 0
M  V30 4846 N 450.82 -0.546701 -1.47814 0
M  V30 4847 C 452.097 0.0464413 -1.95545 0
M  V30 4848 C 452.477 1.4962 -1.48919 0
M  V30 4849 O 451.825 2.16752 -0.723232 0
M  V30 4850 C 452.035 -0.0881298 -3.48889 0
M  V30 4851 C 453.383 0.0626059 -4.24554 0
M  V30 4852 O 454.407 -0.0151555 -3.56197 0
M  V30 4853 O 453.266 0.228071 -5.46024 0
M  V30 4854 H 450.36 0.0700004 -0.824032 0
M  V30 4855 H 452.906 -0.612482 -1.58262 0
M  V30 4856 H 451.678 -1.09737 -3.75597 0
M  V30 4857 H 451.301 0.608886 -3.9291 0
M  V30 4858 N 452.299 1.55045 -0.282633 0
M  V30 4859 C 453.545 2.00056 0.332481 0
M  V30 4860 C 453.878 1.1708 1.54939 0
M  V30 4861 O 453.153 0.2427 1.9298 0
M  V30 4862 C 453.436 3.53086 0.70725 0
M  V30 4863 C 453.289 4.46813 -0.517521 0
M  V30 4864 C 454.608 4.12245 1.54084 0
M  V30 4865 H 451.727 0.727268 0.119373 0
M  V30 4866 H 454.369 1.85932 -0.391076 0
M  V30 4867 H 452.519 3.65253 1.32372 0
M  V30 4868 H 454.191 4.46579 -1.15607 0
M  V30 4869 H 452.434 4.18163 -1.1542 0
M  V30 4870 H 453.105 5.51595 -0.211426 0
M  V30 4871 H 455.581 4.03401 1.02013 0
M  V30 4872 H 454.457 5.19515 1.77186 0
M  V30 4873 H 454.718 3.62951 2.52427 0
M  V30 4874 N 453.777 0.010035 1.57597 0
M  V30 4875 C 454.707 -0.976857 2.12084 0
M  V30 4876 C 455.688 -1.35191 1.03235 0
M  V30 4877 O 456.873 -1.43389 1.3097 0
M  V30 4878 C 454.003 -2.26548 2.63236 0
M  V30 4879 C 452.957 -2.03175 3.76701 0
M  V30 4880 C 452.283 -3.38138 4.14206 0
M  V30 4881 C 453.583 -1.38625 5.03568 0
M  V30 4882 H 455.277 -0.523145 2.94794 0
M  V30 4883 H 452.823 -0.250195 1.4181 0
M  V30 4884 H 454.776 -2.95952 2.99984 0
M  V30 4885 H 453.5 -2.74051 1.77661 0
M  V30 4886 H 452.159 -1.36195 3.40362 0
M  V30 4887 H 451.807 -3.83363 3.25641 0
M  V30 4888 H 451.507 -3.23312 4.90656 0
M  V30 4889 H 453.031 -4.08841 4.53521 0
M  V30 4890 H 454.445 -1.98 5.38023 0
M  V30 4891 H 452.842 -1.34256 5.84889 0
M  V30 4892 H 453.912 -0.356722 4.83586 0
M  V30 4893 N 455.255 -1.55392 -0.262866 0
M  V30 4894 C 456.501 -1.76737 -0.99458 0
M  V30 4895 C 456.834 -0.572453 -1.85571 0
M  V30 4896 O 456.109 0.429732 -1.89693 0
M  V30 4897 C 456.392 -3.07824 -1.8686 0
M  V30 4898 C 456.245 -4.3769 -1.03672 0
M  V30 4899 C 457.564 -3.35021 -2.85393 0
M  V30 4900 H 454.683 -0.643005 -0.360157 0
M  V30 4901 H 457.325 -1.88126 -0.266216 0
M  V30 4902 H 455.475 -2.98245 -2.48962 0
M  V30 4903 H 457.147 -4.59238 -0.43563 0
M  V30 4904 H 455.39 -4.32461 -0.340513 0
M  V30 4905 H 456.061 -5.25759 -1.6817 0
M  V30 4906 H 458.537 -3.44458 -2.33426 0
M  V30 4907 H 457.413 -4.27989 -3.43681 0
M  V30 4908 H 457.674 -2.55153 -3.61039 0
M  V30 4909 N 456.733 0.527833 -1.48498 0
M  V30 4910 C 457.963 1.30633 -1.60058 0
M  V30 4911 C 458.371 1.87394 -0.260786 0
M  V30 4912 O 457.714 1.67227 0.760317 0
M  V30 4913 C 457.776 2.49361 -2.58958 0
M  V30 4914 C 457.44 2.13671 -4.03972 0
M  V30 4915 C 458.437 1.69217 -4.91591 0
M  V30 4916 C 456.122 2.24129 -4.49524 0
M  V30 4917 C 458.116 1.35689 -6.2279 0
M  V30 4918 C 455.803 1.90212 -5.80743 0
M  V30 4919 C 456.801 1.46063 -6.67199 0
M  V30 4920 O 456.489 1.12593 -7.95976 0
M  V30 4921 H 456.221 0.403444 -0.54241 0
M  V30 4922 H 458.775 0.643233 -1.95068 0
M  V30 4923 H 457.005 3.18659 -2.19073 0
M  V30 4924 H 458.694 3.11421 -2.6033 0
M  V30 4925 H 459.46 1.60607 -4.57636 0
M  V30 4926 H 455.339 2.57447 -3.82416 0
M  V30 4927 H 458.883 1.01157 -6.90227 0
M  V30 4928 H 454.78 1.98464 -6.14233 0
M  V30 4929 H 455.548 1.25972 -8.08748 0
M  V30 4930 N 458.211 1.37122 0.776871 0
M  V30 4931 C 459.459 1.31787 1.53221 0
M  V30 4932 C 459.78 -0.0987589 1.9475 0
M  V30 4933 O 459.05 -1.0417 1.65908 0
M  V30 4934 H 457.63 0.484839 0.568278 0
M  V30 4935 H 460.292 1.71556 0.924917 0
M  V30 4936 H 459.388 1.95355 2.43398 0
M  V30 4937 N 459.689 -1.00246 1.21608 0
M  V30 4938 C 460.637 -2.11193 0.97469 0
M  V30 4939 C 461.631 -1.69216 -0.0789303 0
M  V30 4940 O 462.837 -1.79853 0.0726806 0
M  V30 4941 H 459.212 -0.690455 0.297953 0
M  V30 4942 H 461.183 -2.2873 1.91638 0
M  V30 4943 C 459.932 -3.43182 0.558717 0
M  V30 4944 H 459.255 -3.75918 1.3611 0
M  V30 4945 H 460.695 -4.21823 0.429154 0
M  V30 4946 C 459.154 -3.28882 -0.730648 0
M  V30 4947 O 459.684 -3.59835 -1.78554 0
M  V30 4948 N 457.89 -2.8209 -0.698131 0
M  V30 4949 H 457.437 -2.57099 0.16061 0
M  V30 4950 H 457.395 -2.72903 -1.56113 0
M  V30 4951 N 461.167 -1.02423 -1.1978 0
M  V30 4952 C 462.13 -0.605703 -2.21052 0
M  V30 4953 C 463.13 0.328209 -1.57415 0
M  V30 4954 O 464.32 0.115853 -1.73814 0
M  V30 4955 C 461.452 0.114366 -3.40708 0
M  V30 4956 H 462.645 -1.5017 -2.59594 0
M  V30 4957 H 460.198 -0.814888 -1.33376 0
M  V30 4958 H 460.933 1.02492 -3.07678 0
M  V30 4959 H 460.718 -0.556641 -3.88129 0
M  V30 4960 H 462.208 0.394272 -4.15735 0
M  V30 4961 N 462.645 1.35699 -0.801477 0
M  V30 4962 C 463.893 1.9852 -0.37871 0
M  V30 4963 C 464.214 1.63907 1.05638 0
M  V30 4964 O 463.484 0.919013 1.73006 0
M  V30 4965 H 462.064 0.734322 -0.137042 0
M  V30 4966 H 464.726 1.65697 -1.02619 0
M  V30 4967 H 463.822 3.08382 -0.480284 0
M  V30 4968 N 464.123 0.554532 1.47522 0
M  V30 4969 C 465.07 -0.19466 2.29978 0
M  V30 4970 C 466.04 -0.910882 1.38896 0
M  V30 4971 O 467.225 -0.907102 1.67858 0
M  V30 4972 C 464.365 -1.22035 3.22802 0
M  V30 4973 C 463.478 -0.510474 4.28973 0
M  V30 4974 C 462.613 -1.52123 5.08952 0
M  V30 4975 C 461.652 -0.796173 6.069 0
M  V30 4976 N 460.789 -1.75363 6.79847 0
M  V30 4977 H 465.629 0.51461 2.93523 0
M  V30 4978 H 463.166 0.265607 1.44682 0
M  V30 4979 H 465.124 -1.8276 3.7504 0
M  V30 4980 H 463.754 -1.89769 2.61127 0
M  V30 4981 H 462.806 0.211234 3.79813 0
M  V30 4982 H 464.118 0.0576503 4.98767 0
M  V30 4983 H 463.272 -2.20207 5.65326 0
M  V30 4984 H 462.011 -2.12327 4.39054 0
M  V30 4985 H 461.016 -0.101388 5.49707 0
M  V30 4986 H 462.241 -0.199911 6.78806 0
M  V30 4987 H 460.187 -2.3443 6.12682 0
M  V30 4988 H 460.104 -1.23759 7.45801 0
M  V30 4989 H 461.372 -2.4257 7.40797 0
M  V30 4990 N 465.601 -1.54893 0.290851 0
M  V30 4991 C 466.848 -1.99933 -0.321391 0
M  V30 4992 C 467.176 -1.17927 -1.54672 0
M  V30 4993 O 466.431 -0.240902 -1.94212 0
M  V30 4994 C 466.73 -3.49815 -0.732397 0
M  V30 4995 C 466.396 -4.4921 0.390056 0
M  V30 4996 C 465.058 -4.76107 0.698223 0
M  V30 4997 C 467.41 -5.08453 1.14562 0
M  V30 4998 C 464.738 -5.59514 1.76526 0
M  V30 4999 C 467.09 -5.9302 2.2025 0
M  V30 5000 C 465.754 -6.18232 2.51684 0
M  V30 5001 H 465.024 -0.731608 -0.117605 0
M  V30 5002 H 467.671 -1.87107 0.407839 0
M  V30 5003 H 465.976 -3.60199 -1.54155 0
M  V30 5004 H 467.673 -3.82083 -1.21712 0
M  V30 5005 H 464.263 -4.28372 0.13976 0
M  V30 5006 H 468.447 -4.87683 0.920801 0
M  V30 5007 H 463.703 -5.77289 2.01364 0
M  V30 5008 H 467.877 -6.37955 2.7926 0
M  V30 5009 H 465.504 -6.82653 3.34499 0
M  V30 5010 N 467.08 -0.0183926 -1.57589 0
M  V30 5011 C 468.028 0.985111 -2.10709 0
M  V30 5012 C 469.022 1.34397 -1.0312 0
M  V30 5013 O 470.228 1.32746 -1.21567 0
M  V30 5014 H 466.603 0.335418 -0.673052 0
M  V30 5015 H 468.574 0.511689 -2.9398 0
M  V30 5016 C 467.323 2.26202 -2.64061 0
M  V30 5017 H 466.646 1.9946 -3.4649 0
M  V30 5018 H 468.086 2.94652 -3.04887 0
M  V30 5019 C 466.545 2.98444 -1.5631 0
M  V30 5020 O 467.075 3.90142 -0.956674 0
M  V30 5021 N 465.281 2.6059 -1.28612 0
M  V30 5022 H 464.828 1.86101 -1.78112 0
M  V30 5023 H 464.786 3.09238 -0.567406 0
M  V30 5024 N 468.558 1.5553 0.254621 0
M  V30 5025 C 469.807 1.76202 0.981612 0
M  V30 5026 C 470.12 0.580883 1.86776 0
M  V30 5027 O 471.326 0.670448 2.63092 0
M  V30 5028 C 469.782 3.11921 1.79537 0
M  V30 5029 C 469.39 4.37659 0.956991 0
M  V30 5030 C 471.134 3.41936 2.51555 0
M  V30 5031 C 469.041 5.64411 1.76619 0
M  V30 5032 H 467.971 0.656841 0.370237 0
M  V30 5033 H 470.622 1.81969 0.236556 0
M  V30 5034 H 469.004 3.00241 2.58208 0
M  V30 5035 H 470.178 4.60307 0.21315 0
M  V30 5036 H 468.493 4.14922 0.350497 0
M  V30 5037 H 471.09 4.33849 3.12536 0
M  V30 5038 H 471.433 2.62905 3.22779 0
M  V30 5039 H 471.966 3.54797 1.799 0
M  V30 5040 H 468.705 6.46241 1.09783 0
M  V30 5041 H 468.225 5.45877 2.48551 0
M  V30 5042 H 469.904 6.03386 2.33527 0
M  V30 5043 N 470.036 -0.519951 1.48776 0
M  V30 5044 C 471.285 -1.27175 1.56555 0
M  V30 5045 C 471.598 -1.9401 0.248869 0
M  V30 5046 O 472.804 -2.70725 0.205004 0
M  V30 5047 C 471.26 -2.30811 2.76142 0
M  V30 5048 C 470.868 -1.7 4.14493 0
M  V30 5049 C 472.612 -3.06937 2.9324 0
M  V30 5050 C 470.519 -2.71635 5.25327 0
M  V30 5051 H 469.449 -0.478329 0.582853 0
M  V30 5052 H 472.1 -0.547916 1.75129 0
M  V30 5053 H 470.482 -3.06274 2.51023 0
M  V30 5054 H 471.656 -1.00658 4.49672 0
M  V30 5055 H 469.971 -1.06331 4.02595 0
M  V30 5056 H 472.568 -3.82905 3.73213 0
M  V30 5057 H 472.911 -3.63409 2.03075 0
M  V30 5058 H 473.444 -2.38589 3.18308 0
M  V30 5059 H 470.183 -2.1997 6.1749 0
M  V30 5060 H 469.703 -3.39275 4.94624 0
M  V30 5061 H 471.382 -3.34429 5.53865 0
M  V30 5062 N 471.514 -1.37532 -0.769588 0
M  V30 5063 C 472.925 -1.29382 -1.346 0
M  V30 5064 C 473.276 0.0576039 -1.96115 0
M  V30 5065 O 472.401 0.95947 -1.93967 0
M  V30 5066 C 472.996 -2.34298 -2.44724 0
M  V30 5067 C 471.555 -2.29776 -2.98128 0
M  V30 5068 C 470.702 -2.18013 -1.71364 0
M  V30 5069 H 473.653 -1.48123 -0.56968 0
M  V30 5070 H 473.674 -1.99089 -3.24259 0
M  V30 5071 H 473.186 -3.32645 -1.99922 0
M  V30 5072 H 471.287 -1.34959 -3.47299 0
M  V30 5073 H 471.4 -3.23276 -3.53595 0
M  V30 5074 H 469.764 -1.64595 -1.94372 0
M  V30 5075 H 470.547 -3.18278 -1.28662 0
M  V30 5076 N 472.992 0.995999 -1.22138 0
M  V30 5077 C 474.22 1.77066 -1.07029 0
M  V30 5078 C 474.635 1.8495 0.379357 0
M  V30 5079 O 473.992 1.3174 1.26297 0
M  V30 5080 C 474.043 3.20533 -1.67155 0
M  V30 5081 O 473.764 3.13082 -3.06449 0
M  V30 5082 C 475.265 4.14461 -1.5728 0
M  V30 5083 H 472.485 0.556179 -0.375374 0
M  V30 5084 H 475.029 1.25238 -1.61666 0
M  V30 5085 H 473.184 3.6944 -1.16589 0
M  V30 5086 H 473.598 4.03283 -3.35355 0
M  V30 5087 H 475.072 5.1289 -2.04078 0
M  V30 5088 H 475.549 4.36005 -0.528795 0
M  V30 5089 H 476.155 3.71449 -2.07136 0
M  V30 5090 N 474.47 1.03057 1.19235 0
M  V30 5091 C 475.719 0.72326 1.88287 0
M  V30 5092 C 476.032 -0.751333 1.80594 0
M  V30 5093 O 477.238 -1.17176 2.44912 0
M  V30 5094 C 475.694 1.24338 3.3774 0
M  V30 5095 C 475.302 2.74587 3.53986 0
M  V30 5096 C 477.046 1.01213 4.12257 0
M  V30 5097 C 474.953 3.20009 4.97341 0
M  V30 5098 H 473.883 0.266848 0.705201 0
M  V30 5099 H 476.534 1.24509 1.34795 0
M  V30 5100 H 474.916 0.649457 3.90638 0
M  V30 5101 H 476.09 3.39649 3.11408 0
M  V30 5102 H 474.405 2.9601 2.9286 0
M  V30 5103 H 477.002 1.32675 5.17978 0
M  V30 5104 H 477.345 -0.051001 4.16269 0
M  V30 5105 H 477.878 1.57014 3.65501 0
M  V30 5106 H 474.617 4.25659 4.98493 0
M  V30 5107 H 474.137 2.59676 5.40674 0
M  V30 5108 H 475.816 3.13447 5.66003 0
M  V30 5109 N 475.948 -1.35272 0.808662 0
M  V30 5110 C 477.197 -1.97963 0.386483 0
M  V30 5111 C 477.51 -1.64866 -1.05255 0
M  V30 5112 O 478.716 -2.20937 -1.57794 0
M  V30 5113 C 477.172 -3.54162 0.640096 0
M  V30 5114 C 476.78 -3.96166 2.0918 0
M  V30 5115 C 478.524 -4.23553 0.283376 0
M  V30 5116 C 476.431 -5.4522 2.29106 0
M  V30 5117 H 475.361 -0.740742 0.140774 0
M  V30 5118 H 478.012 -1.5431 0.993012 0
M  V30 5119 H 476.394 -3.95983 -0.0364117 0
M  V30 5120 H 477.568 -3.65491 2.80629 0
M  V30 5121 H 475.883 -3.3967 2.40859 0
M  V30 5122 H 478.48 -5.33124 0.410273 0
M  V30 5123 H 478.823 -4.09105 -0.770659 0
M  V30 5124 H 479.356 -3.8716 0.913884 0
M  V30 5125 H 476.095 -5.64638 3.32962 0
M  V30 5126 H 475.615 -5.77457 1.62184 0
M  V30 5127 H 477.294 -6.1171 2.1076 0
M  V30 5128 N 477.426 -0.562348 -1.47226 0
M  V30 5129 C 478.651 -0.0432632 -2.07355 0
M  V30 5130 C 479.076 1.24332 -1.41149 0
M  V30 5131 O 478.434 1.74603 -0.488226 0
M  V30 5132 C 478.482 0.130288 -3.60365 0
M  V30 5133 O 477.586 1.19166 -3.94808 0
M  V30 5134 H 476.927 -0.0536334 -0.66183 0
M  V30 5135 H 479.457 -0.779495 -1.89169 0
M  V30 5136 H 479.467 0.342881 -4.06557 0
M  V30 5137 H 478.142 -0.809389 -4.07948 0
M  V30 5138 H 476.719 0.959153 -3.60354 0
M  V30 5139 N 478.904 1.54736 -0.299062 0
M  V30 5140 C 480.129 2.04975 0.316254 0
M  V30 5141 C 480.554 1.17501 1.46885 0
M  V30 5142 O 479.912 0.178678 1.80417 0
M  V30 5143 C 479.96 3.52672 0.751997 0
M  V30 5144 O 479.064 3.68226 1.85697 0
M  V30 5145 H 478.405 0.661126 0.0617175 0
M  V30 5146 H 480.935 1.99805 -0.440341 0
M  V30 5147 H 480.945 3.94488 1.04133 0
M  V30 5148 H 479.62 4.158 -0.0911482 0
M  V30 5149 H 478.197 3.38316 1.56834 0
M  V30 5150 N 480.382 0.0267497 1.57577 0
M  V30 5151 C 481.628 -0.653371 1.91987 0
M  V30 5152 C 481.961 -1.71915 0.903263 0
M  V30 5153 O 481.236 -1.94358 -0.0743387 0
M  V30 5154 C 481.519 -1.272 3.36886 0
M  V30 5155 C 481.372 -0.215938 4.49281 0
M  V30 5156 C 482.691 -2.19069 3.81703 0
M  V30 5157 H 479.81 -0.236047 0.698177 0
M  V30 5158 H 482.452 0.0835236 1.89816 0
M  V30 5159 H 480.602 -1.90005 3.38866 0
M  V30 5160 H 482.274 0.41449 4.59434 0
M  V30 5161 H 480.517 0.458855 4.31366 0
M  V30 5162 H 481.188 -0.688347 5.47691 0
M  V30 5163 H 483.664 -1.66253 3.81444 0
M  V30 5164 H 482.54 -2.59307 4.83788 0
M  V30 5165 H 482.801 -3.08087 3.17072 0
M  V30 5166 N 481.861 -1.55662 -0.24637 0
M  V30 5167 C 482.824 -1.89558 -1.28842 0
M  V30 5168 C 483.824 -0.772082 -1.41052 0
M  V30 5169 O 485.014 -1.04007 -1.39743 0
M  V30 5170 C 482.146 -2.12449 -2.66605 0
M  V30 5171 H 483.339 -2.82735 -1.00004 0
M  V30 5172 H 480.892 -1.48562 -0.485684 0
M  V30 5173 H 481.627 -1.21742 -3.00582 0
M  V30 5174 H 481.412 -2.94273 -2.59125 0
M  V30 5175 H 482.902 -2.39854 -3.41847 0
M  V30 5176 N 483.339 0.512053 -1.4905 0
M  V30 5177 C 484.302 1.59704 -1.64399 0
M  V30 5178 C 485.302 1.52285 -0.516317 0
M  V30 5179 O 486.492 1.55635 -0.782527 0
M  V30 5180 C 483.624 2.9935 -1.63102 0
M  V30 5181 H 484.817 1.47428 -2.61161 0
M  V30 5182 H 482.37 0.735469 -1.37915 0
M  V30 5183 H 483.105 3.17116 -0.678836 0
M  V30 5184 H 482.89 3.06144 -2.44986 0
M  V30 5185 H 484.38 3.782 -1.77072 0
M  V30 5186 N 484.817 1.37938 0.762283 0
M  V30 5187 C 486.064 1.33668 1.52115 0
M  V30 5188 C 486.392 -0.0759538 1.94352 0
M  V30 5189 O 485.647 -1.05121 1.6507 0
M  V30 5190 C 485.946 2.23042 2.79261 0
M  V30 5191 C 485.612 3.71159 2.56031 0
M  V30 5192 C 484.274 4.11523 2.49404 0
M  V30 5193 C 486.626 4.64955 2.35513 0
M  V30 5194 C 483.954 5.43784 2.20263 0
M  V30 5195 C 486.306 5.97464 2.07894 0
M  V30 5196 C 484.97 6.36922 1.99718 0
M  V30 5197 H 484.24 0.489127 0.556629 0
M  V30 5198 H 486.887 1.70224 0.877262 0
M  V30 5199 H 485.192 1.79512 3.48256 0
M  V30 5200 H 486.889 2.17047 3.37182 0
M  V30 5201 H 483.479 3.39153 2.62056 0
M  V30 5202 H 487.663 4.34623 2.39617 0
M  V30 5203 H 482.919 5.73307 2.12435 0
M  V30 5204 H 487.093 6.6969 1.91019 0
M  V30 5205 H 484.72 7.39331 1.76902 0
M  V30 5206 N 486.295 -0.989507 1.22664 0
M  V30 5207 C 487.523 -1.76496 1.07967 0
M  V30 5208 C 487.938 -1.85148 -0.369543 0
M  V30 5209 O 487.295 -1.32408 -1.25596 0
M  V30 5210 C 487.346 -3.19642 1.68853 0
M  V30 5211 O 487.067 -3.11453 3.08105 0
M  V30 5212 C 488.568 -4.13621 1.59475 0
M  V30 5213 H 485.788 -0.55418 0.378319 0
M  V30 5214 H 488.332 -1.24378 1.62328 0
M  V30 5215 H 486.487 -3.68816 1.18547 0
M  V30 5216 H 486.901 -4.01499 3.37489 0
M  V30 5217 H 488.375 -5.11801 2.06795 0
M  V30 5218 H 488.852 -4.35718 0.55191 0
M  V30 5219 H 489.458 -3.70346 2.09103 0
M  V30 5220 N 487.773 -1.03688 -1.18687 0
M  V30 5221 C 488.998 -0.757819 -1.93059 0
M  V30 5222 C 489.423 0.678353 -1.75442 0
M  V30 5223 O 488.781 1.46938 -1.06203 0
M  V30 5224 C 488.829 -1.12423 -3.42627 0
M  V30 5225 O 487.933 -0.247505 -4.11657 0
M  V30 5226 H 487.274 -0.279245 -0.602427 0
M  V30 5227 H 489.804 -1.3857 -1.5053 0
M  V30 5228 H 489.814 -1.08454 -3.93322 0
M  V30 5229 H 488.489 -2.17049 -3.54771 0
M  V30 5230 H 487.066 -0.34649 -3.71287 0
M  V30 5231 N 489.251 1.34841 -0.815825 0
M  V30 5232 C 490.497 1.98793 -0.401129 0
M  V30 5233 C 490.83 1.64548 1.03139 0
M  V30 5234 O 490.105 0.913487 1.71714 0
M  V30 5235 C 490.388 3.55143 -0.595409 0
M  V30 5236 C 490.241 3.99155 -2.07352 0
M  V30 5237 C 491.56 4.40092 -0.0268823 0
M  V30 5238 H 488.679 0.722146 -0.14722 0
M  V30 5239 H 491.321 1.59847 -1.02707 0
M  V30 5240 H 489.471 3.8845 -0.0625779 0
M  V30 5241 H 491.143 3.76216 -2.66945 0
M  V30 5242 H 489.386 3.49726 -2.56659 0
M  V30 5243 H 490.057 5.07971 -2.1603 0
M  V30 5244 H 492.533 4.13298 -0.482042 0
M  V30 5245 H 491.409 5.48562 -0.19267 0
M  V30 5246 H 491.67 4.29016 1.06759 0
M  V30 5247 N 490.729 0.570148 1.46925 0
M  V30 5248 C 491.977 0.0508523 2.02036 0
M  V30 5249 C 492.298 -1.30885 1.44548 0
M  V30 5250 O 491.568 -1.85647 0.625453 0
M  V30 5251 H 490.148 0.0158088 0.746833 0
M  V30 5252 H 492.81 0.743086 1.80178 0
M  V30 5253 H 491.906 -0.027575 3.12088 0
M  V30 5254 N 492.207 -1.54576 0.307264 0
M  V30 5255 C 493.453 -2.0056 -0.300612 0
M  V30 5256 C 493.786 -1.1953 -1.53057 0
M  V30 5257 O 493.061 -0.27337 -1.92569 0
M  V30 5258 C 493.344 -3.54167 -0.650987 0
M  V30 5259 C 493.197 -4.45933 0.588539 0
M  V30 5260 C 494.516 -4.14645 -1.47506 0
M  V30 5261 H 491.635 -0.729075 -0.107788 0
M  V30 5262 H 494.277 -1.85286 0.420606 0
M  V30 5263 H 492.427 -3.67313 -1.26544 0
M  V30 5264 H 494.099 -4.44683 1.22697 0
M  V30 5265 H 492.342 -4.16274 1.22058 0
M  V30 5266 H 493.013 -5.51189 0.299153 0
M  V30 5267 H 495.489 -4.04973 -0.955821 0
M  V30 5268 H 494.365 -5.22269 -1.68899 0
M  V30 5269 H 494.626 -3.66921 -2.4662 0
M  V30 5270 N 493.685 -0.035106 -1.57561 0
M  V30 5271 C 494.933 0.64096 -1.91667 0
M  V30 5272 C 495.254 1.72323 -0.912681 0
M  V30 5273 O 494.524 1.95849 0.0449089 0
M  V30 5274 H 493.104 0.239743 -0.707483 0
M  V30 5275 H 495.766 -0.084321 -1.94718 0
M  V30 5276 H 494.862 1.08987 -2.92452 0
M  V30 5277 N 495.163 1.55791 0.238111 0
M  V30 5278 C 496.391 1.82098 0.982233 0
M  V30 5279 C 496.806 0.612025 1.78605 0
M  V30 5280 O 496.163 -0.419381 1.77616 0
M  V30 5281 C 496.214 3.0673 1.91309 0
M  V30 5282 O 495.935 4.2296 1.14179 0
M  V30 5283 C 497.436 3.45903 2.77248 0
M  V30 5284 H 494.656 0.605748 0.288635 0
M  V30 5285 H 497.2 2.02862 0.258341 0
M  V30 5286 H 495.355 2.87991 2.59114 0
M  V30 5287 H 495.769 4.93653 1.7722 0
M  V30 5288 H 497.243 4.36189 3.38295 0
M  V30 5289 H 497.72 2.66891 3.48806 0
M  V30 5290 H 498.326 3.67024 2.14881 0
M  V30 5291 N 496.642 -0.504142 1.49319 0
M  V30 5292 C 497.888 -1.26033 1.58882 0
M  V30 5293 C 498.221 -1.92268 0.273274 0
M  V30 5294 O 497.496 -1.80567 -0.72291 0
M  V30 5295 C 497.779 -2.32976 2.7458 0
M  V30 5296 C 497.632 -1.71263 4.1592 0
M  V30 5297 C 498.951 -3.34561 2.85932 0
M  V30 5298 H 496.07 -0.456863 0.578312 0
M  V30 5299 H 498.712 -0.558965 1.81592 0
M  V30 5300 H 496.862 -2.92796 2.55348 0
M  V30 5301 H 498.534 -1.15294 4.4666 0
M  V30 5302 H 496.777 -1.01686 4.21714 0
M  V30 5303 H 497.448 -2.48816 4.92742 0
M  V30 5304 H 499.924 -2.84727 3.0343 0
M  V30 5305 H 498.8 -4.06754 3.68568 0
M  V30 5306 H 499.061 -3.96695 1.95154 0
M  V30 5307 N 498.12 -1.38341 -0.754957 0
M  V30 5308 C 499.05 -1.38176 -1.88227 0
M  V30 5309 C 500.031 -0.247873 -1.68284 0
M  V30 5310 O 501.216 -0.45075 -1.88896 0
M  V30 5311 C 498.346 -1.20471 -3.25736 0
M  V30 5312 C 497.3 -2.3105 -3.60278 0
M  V30 5313 C 496.626 -1.98452 -4.96509 0
M  V30 5314 C 497.926 -3.73305 -3.65295 0
M  V30 5315 H 499.62 -2.32512 -1.88622 0
M  V30 5316 H 497.166 -1.1192 -0.906082 0
M  V30 5317 H 499.119 -1.18982 -4.04254 0
M  V30 5318 H 497.843 -0.225965 -3.25817 0
M  V30 5319 H 496.502 -2.31723 -2.84078 0
M  V30 5320 H 496.15 -0.990641 -4.93148 0
M  V30 5321 H 495.85 -2.7251 -5.20588 0
M  V30 5322 H 497.374 -1.98578 -5.77407 0
M  V30 5323 H 498.788 -3.7467 -4.3393 0
M  V30 5324 H 497.185 -4.46557 -4.00883 0
M  V30 5325 H 498.255 -4.05719 -2.65556 0
M  V30 5326 N 499.598 0.982988 -1.23187 0
M  V30 5327 C 500.838 1.73903 -1.07412 0
M  V30 5328 C 501.202 1.88146 0.382764 0
M  V30 5329 O 502.403 2.6053 0.661638 0
M  V30 5330 C 500.674 3.10105 -1.77678 0
M  V30 5331 S 502.233 4.01323 -1.77441 0
M  V30 5332 H 499.051 0.598093 -0.384456 0
M  V30 5333 H 501.653 1.17456 -1.56283 0
M  V30 5334 H 500.357 2.97388 -2.82822 0
M  V30 5335 H 499.888 3.71622 -1.29077 0
M  V30 5336 H 501.903 4.89189 -0.831162 0
M  V30 5337 N 501.076 1.04316 1.18135 0
M  V30 5338 C 502.353 0.662166 1.84051 0
M  V30 5339 C 502.733 -0.858169 1.9287 0
M  V30 5340 O 502.081 -1.76062 1.45652 0
M  V30 5341 C 502.291 1.3409 3.22212 0
M  V30 5342 C 503.639 1.4733 3.9822 0
M  V30 5343 O 504.663 1.29921 3.31661 0
M  V30 5344 O 503.522 1.75722 5.17479 0
M  V30 5345 H 500.616 0.232005 0.79379 0
M  V30 5346 H 503.162 1.1422 1.25506 0
M  V30 5347 H 501.934 2.37853 3.10711 0
M  V30 5348 H 501.557 0.849649 3.88416 0
M  V30 5349 N 502.554 -1.34406 0.822964 0
M  V30 5350 C 503.803 -1.97542 0.407458 0
M  V30 5351 C 504.116 -1.65973 -1.035 0
M  V30 5352 O 505.322 -2.22598 -1.55442 0
M  V30 5353 C 503.778 -3.53463 0.677623 0
M  V30 5354 C 503.386 -3.93925 2.1337 0
M  V30 5355 C 505.13 -4.23229 0.328284 0
M  V30 5356 C 503.037 -5.42759 2.34876 0
M  V30 5357 H 501.967 -0.739207 0.148623 0
M  V30 5358 H 504.618 -1.53248 1.00932 0
M  V30 5359 H 503 -3.96 0.00558965 0
M  V30 5360 H 504.174 -3.62494 2.8449 0
M  V30 5361 H 502.489 -3.37097 2.44448 0
M  V30 5362 H 505.086 -5.32659 0.466794 0
M  V30 5363 H 505.429 -4.09899 -0.727224 0
M  V30 5364 H 505.962 -3.86169 0.954896 0
M  V30 5365 H 502.701 -5.61075 3.38932 0
M  V30 5366 H 502.221 -5.75704 1.68299 0
M  V30 5367 H 503.9 -6.0944 2.17236 0
M  V30 5368 N 504.032 -0.577932 -1.46621 0
M  V30 5369 C 505.281 -0.0594281 -2.01612 0
M  V30 5370 C 505.594 1.30663 -1.45556 0
M  V30 5371 O 506.8 1.91621 -1.92337 0
M  V30 5372 C 505.256 -0.0556666 -3.59857 0
M  V30 5373 C 504.864 -1.41975 -4.24908 0
M  V30 5374 C 506.608 0.409143 -4.22524 0
M  V30 5375 C 504.515 -1.37397 -5.75218 0
M  V30 5376 H 503.445 -0.0184469 -0.753774 0
M  V30 5377 H 506.096 -0.728869 -1.68404 0
M  V30 5378 H 504.478 0.679843 -3.90121 0
M  V30 5379 H 505.652 -2.17461 -4.0626 0
M  V30 5380 H 503.967 -1.82419 -3.74316 0
M  V30 5381 H 506.564 0.46211 -5.32699 0
M  V30 5382 H 506.907 1.42565 -3.91128 0
M  V30 5383 H 507.44 -0.272152 -3.96868 0
M  V30 5384 H 504.179 -2.36714 -6.11267 0
M  V30 5385 H 503.699 -0.661239 -5.96144 0
M  V30 5386 H 505.378 -1.08484 -6.3784 0
M  V30 5387 N 505.51 1.54411 -0.315457 0
M  V30 5388 C 506.44 2.27002 0.547039 0
M  V30 5389 C 507.421 1.27492 1.12605 0
M  V30 5390 O 508.606 1.5629 1.15269 0
M  V30 5391 C 505.736 3.02171 1.71201 0
M  V30 5392 C 504.69 4.0895 1.26268 0
M  V30 5393 C 504.016 4.71915 2.51396 0
M  V30 5394 C 505.316 5.20891 0.383419 0
M  V30 5395 H 507.01 2.99343 -0.0584517 0
M  V30 5396 H 504.556 1.4397 -0.0295527 0
M  V30 5397 H 506.509 3.51681 2.32161 0
M  V30 5398 H 505.233 2.27433 2.34397 0
M  V30 5399 H 503.892 3.60312 0.676062 0
M  V30 5400 H 503.54 3.93801 3.12937 0
M  V30 5401 H 503.24 5.44039 2.22026 0
M  V30 5402 H 504.764 5.24195 3.13133 0
M  V30 5403 H 506.178 5.66206 0.899082 0
M  V30 5404 H 504.575 5.99821 0.182857 0
M  V30 5405 H 505.645 4.81324 -0.587821 0
M  V30 5406 N 506.988 0.0434614 1.5754 0
M  V30 5407 C 507.918 -0.931651 2.14109 0
M  V30 5408 C 508.899 -1.32971 1.06079 0
M  V30 5409 O 510.084 -1.40579 1.33982 0
M  V30 5410 C 507.214 -2.20914 2.67982 0
M  V30 5411 C 506.168 -1.95139 3.80926 0
M  V30 5412 C 505.494 -3.29276 4.21285 0
M  V30 5413 C 506.794 -1.27913 5.06395 0
M  V30 5414 H 508.488 -0.460497 2.95837 0
M  V30 5415 H 506.034 -0.220058 1.42309 0
M  V30 5416 H 507.987 -2.89522 3.06194 0
M  V30 5417 H 506.711 -2.70221 1.83434 0
M  V30 5418 H 505.37 -1.28945 3.43175 0
M  V30 5419 H 505.018 -3.76369 3.33699 0
M  V30 5420 H 504.718 -3.12831 4.97404 0
M  V30 5421 H 506.242 -3.99129 4.62091 0
M  V30 5422 H 507.656 -1.86544 5.42102 0
M  V30 5423 H 506.053 -1.2182 5.87605 0
M  V30 5424 H 507.123 -0.254066 4.84234 0
M  V30 5425 N 508.466 -1.55915 -0.229846 0
M  V30 5426 C 509.414 -1.9258 -1.30444 0
M  V30 5427 C 510.408 -0.806839 -1.48951 0
M  V30 5428 O 511.614 -0.991606 -1.50224 0
M  V30 5429 H 507.989 -0.611878 -0.437161 0
M  V30 5430 H 509.96 -2.82264 -0.96797 0
M  V30 5431 C 508.709 -2.25171 -2.6494 0
M  V30 5432 H 508.032 -3.10782 -2.51504 0
M  V30 5433 H 509.472 -2.54716 -3.38963 0
M  V30 5434 C 507.931 -1.07394 -3.19324 0
M  V30 5435 O 508.461 -0.330759 -4.00336 0
M  V30 5436 N 506.667 -0.859984 -2.77584 0
M  V30 5437 H 506.214 -1.46605 -2.11813 0
M  V30 5438 H 506.172 -0.0736671 -3.14314 0
M  V30 5439 N 509.944 0.496216 -1.49584 0
M  V30 5440 C 511.191 1.25003 -1.59312 0
M  V30 5441 C 511.519 1.92445 -0.28198 0
M  V30 5442 O 510.774 1.81557 0.730452 0
M  V30 5443 C 511.073 2.3359 -2.705 0
M  V30 5444 C 510.739 1.83574 -4.11839 0
M  V30 5445 C 509.401 1.69653 -4.50302 0
M  V30 5446 C 511.753 1.46193 -5.00277 0
M  V30 5447 C 509.081 1.16736 -5.74969 0
M  V30 5448 C 511.433 0.947265 -6.25468 0
M  V30 5449 C 510.097 0.794485 -6.62755 0
M  V30 5450 H 509.367 0.45742 -0.582965 0
M  V30 5451 H 512.014 0.549996 -1.83432 0
M  V30 5452 H 510.319 3.09401 -2.40371 0
M  V30 5453 H 512.016 2.91627 -2.75235 0
M  V30 5454 H 508.606 1.9537 -3.81482 0
M  V30 5455 H 512.79 1.55793 -4.71214 0
M  V30 5456 H 508.046 1.03623 -6.02555 0
M  V30 5457 H 512.22 0.648846 -6.93371 0
M  V30 5458 H 509.847 0.382271 -7.59238 0
M  V30 5459 N 511.423 1.38739 0.74761 0
M  V30 5460 C 512.353 1.39173 1.87492 0
M  V30 5461 C 513.334 0.256794 1.6815 0
M  V30 5462 O 514.519 0.460762 1.88655 0
M  V30 5463 C 511.649 1.22197 3.25093 0
M  V30 5464 C 510.603 2.32957 3.59047 0
M  V30 5465 C 509.929 2.01082 4.95449 0
M  V30 5466 C 511.229 3.75237 3.6331 0
M  V30 5467 H 512.923 2.3351 1.87386 0
M  V30 5468 H 510.469 1.12399 0.900134 0
M  V30 5469 H 512.422 1.21124 4.03617 0
M  V30 5470 H 511.146 0.243241 3.25693 0
M  V30 5471 H 509.805 2.33226 2.82845 0
M  V30 5472 H 509.453 1.01678 4.92616 0
M  V30 5473 H 509.153 2.75267 5.19136 0
M  V30 5474 H 510.677 2.01638 5.76346 0
M  V30 5475 H 512.091 3.76966 4.31937 0
M  V30 5476 H 510.488 4.48677 3.98509 0
M  V30 5477 H 511.558 4.07122 2.634 0
M  V30 5478 N 512.901 -0.976442 1.23707 0
M  V30 5479 C 513.848 -2.06952 1.02174 0
M  V30 5480 C 514.818 -1.65984 -0.0621034 0
M  V30 5481 O 516.003 -1.90584 0.0907906 0
M  V30 5482 C 513.143 -3.39425 0.62327 0
M  V30 5483 C 512.256 -3.9364 1.77966 0
M  V30 5484 C 511.391 -5.14343 1.3276 0
M  V30 5485 C 510.43 -5.60733 2.45449 0
M  V30 5486 N 509.567 -6.72662 2.01172 0
M  V30 5487 H 514.407 -2.24704 1.95734 0
M  V30 5488 H 511.944 -1.10143 0.975034 0
M  V30 5489 H 513.902 -4.15526 0.37332 0
M  V30 5490 H 512.532 -3.21624 -0.275329 0
M  V30 5491 H 511.584 -3.14258 2.14351 0
M  V30 5492 H 512.896 -4.24035 2.62671 0
M  V30 5493 H 512.05 -5.97789 1.03601 0
M  V30 5494 H 510.789 -4.8561 0.450975 0
M  V30 5495 H 509.794 -4.75865 2.75378 0
M  V30 5496 H 511.019 -5.91483 3.33654 0
M  V30 5497 H 508.965 -6.45681 1.15895 0
M  V30 5498 H 508.882 -7.02462 2.79434 0
M  V30 5499 H 510.15 -7.59572 1.75129 0
M  V30 5500 N 514.379 -1.04941 -1.1758 0
M  V30 5501 C 515.627 -0.756492 -1.87408 0
M  V30 5502 C 515.948 0.718478 -1.81281 0
M  V30 5503 O 515.218 1.519 -1.23706 0
M  V30 5504 H 513.798 -0.276841 -0.693807 0
M  V30 5505 H 516.46 -1.32803 -1.42652 0
M  V30 5506 H 515.556 -1.06918 -2.93215 0
M  V30 5507 N 515.857 1.33968 -0.830081 0
M  V30 5508 C 516.82 2.27694 -0.26235 0
M  V30 5509 C 517.82 1.50589 0.563876 0
M  V30 5510 O 519.01 1.70028 0.378941 0
M  V30 5511 C 516.142 3.35002 0.63138 0
M  V30 5512 H 517.335 2.79419 -1.08928 0
M  V30 5513 H 514.888 1.44221 -0.602486 0
M  V30 5514 H 515.623 2.88504 1.48109 0
M  V30 5515 H 515.408 3.92079 0.0403276 0
M  V30 5516 H 516.898 4.04897 1.02217 0
M  V30 5517 N 517.335 0.585699 1.46312 0
M  V30 5518 C 518.612 0.00542031 1.95599 0
M  V30 5519 C 518.992 -1.45619 1.52834 0
M  V30 5520 O 518.34 -2.14759 0.780446 0
M  V30 5521 C 518.55 0.180601 3.48532 0
M  V30 5522 C 519.898 0.049979 4.24571 0
M  V30 5523 O 520.922 0.109589 3.56031 0
M  V30 5524 O 519.781 -0.0832226 5.46437 0
M  V30 5525 H 516.875 -0.0481281 0.825598 0
M  V30 5526 H 519.421 0.654227 1.56582 0
M  V30 5527 H 518.193 1.19657 3.72556 0
M  V30 5528 H 517.816 -0.504498 3.94386 0
M  V30 5529 N 518.813 -1.54241 0.323641 0
M  V30 5530 C 519.745 -2.21836 -0.576311 0
M  V30 5531 C 520.758 -1.21837 -1.07979 0
M  V30 5532 O 521.947 -1.48306 -0.99336 0
M  V30 5533 C 519.047 -2.86923 -1.80356 0
M  V30 5534 C 518.22 -4.1306 -1.43875 0
M  V30 5535 C 517.279 -4.6174 -2.52353 0
M  V30 5536 O 516.305 -5.26421 -2.16494 0
M  V30 5537 N 517.507 -4.35974 -3.83284 0
M  V30 5538 H 520.272 -2.997 0.00247987 0
M  V30 5539 H 517.833 -1.61233 0.146848 0
M  V30 5540 H 519.825 -3.16414 -2.52318 0
M  V30 5541 H 518.395 -2.12765 -2.29019 0
M  V30 5542 H 517.615 -3.90334 -0.550752 0
M  V30 5543 H 518.903 -4.95148 -1.17071 0
M  V30 5544 H 518.301 -3.84203 -4.15216 0
M  V30 5545 H 516.858 -4.70119 -4.51477 0
M  V30 5546 N 520.291 -0.0518155 -1.57515 0
M  V30 5547 C 521.521 0.63048 -1.96745 0
M  V30 5548 C 521.929 1.64875 -0.928054 0
M  V30 5549 O 521.272 1.83449 0.0960678 0
M  V30 5550 C 521.334 1.37381 -3.32215 0
M  V30 5551 C 520.998 0.511298 -4.54131 0
M  V30 5552 C 521.995 -0.222884 -5.19422 0
M  V30 5553 C 519.68 0.442035 -5.00351 0
M  V30 5554 C 521.674 -1.01476 -6.2927 0
M  V30 5555 C 519.361 -0.35353 -6.10077 0
M  V30 5556 C 520.359 -1.08062 -6.74397 0
M  V30 5557 O 520.047 -1.8631 -7.82013 0
M  V30 5558 H 519.779 0.177126 -0.652382 0
M  V30 5559 H 522.333 -0.114726 -2.05079 0
M  V30 5560 H 520.563 2.16466 -3.20436 0
M  V30 5561 H 522.252 1.9464 -3.56188 0
M  V30 5562 H 523.018 -0.178846 -4.8467 0
M  V30 5563 H 518.897 0.997562 -4.50077 0
M  V30 5564 H 522.441 -1.58279 -6.79407 0
M  V30 5565 H 518.338 -0.399205 -6.44264 0
M  V30 5566 H 519.106 -1.78528 -7.98793 0
M  V30 5567 N 521.769 1.56035 0.221574 0
M  V30 5568 C 522.716 1.92413 1.27459 0
M  V30 5569 C 523.686 0.781323 1.46576 0
M  V30 5570 O 524.871 1.03721 1.60145 0
M  V30 5571 C 522.011 2.24617 2.61995 0
M  V30 5572 C 521.124 3.51831 2.50677 0
M  V30 5573 C 520.259 3.73482 3.77736 0
M  V30 5574 C 519.298 4.94211 3.6114 0
M  V30 5575 N 518.435 5.12252 4.80148 0
M  V30 5576 H 523.275 2.82203 0.957355 0
M  V30 5577 H 520.812 1.39676 0.461415 0
M  V30 5578 H 522.77 2.41298 3.40339 0
M  V30 5579 H 521.4 1.38 2.91815 0
M  V30 5580 H 520.452 3.43343 1.63767 0
M  V30 5581 H 521.764 4.40328 2.34334 0
M  V30 5582 H 520.918 3.9026 4.64523 0
M  V30 5583 H 519.657 2.83266 3.97003 0
M  V30 5584 H 518.662 4.77384 2.72736 0
M  V30 5585 H 519.887 5.85912 3.43343 0
M  V30 5586 H 517.833 4.24978 4.99729 0
M  V30 5587 H 517.75 5.94881 4.66532 0
M  V30 5588 H 519.018 5.33465 5.68362 0
M  V30 5589 N 523.247 -0.488276 1.49845 0
M  V30 5590 C 524.21 -1.57069 1.66919 0
M  V30 5591 C 525.21 -1.51445 0.540479 0
M  V30 5592 O 526.4 -1.5437 0.807188 0
M  V30 5593 C 523.532 -2.96718 1.67844 0
M  V30 5594 H 524.725 -1.43254 2.63474 0
M  V30 5595 H 522.278 -0.713435 1.39068 0
M  V30 5596 H 523.013 -3.15996 0.7292 0
M  V30 5597 H 522.798 -3.02208 2.49826 0
M  V30 5598 H 524.288 -3.75335 1.83066 0
M  V30 5599 N 524.725 -1.39134 -0.740242 0
M  V30 5600 C 525.672 -1.37434 -1.8542 0
M  V30 5601 C 526.642 -0.234822 -1.64432 0
M  V30 5602 O 527.827 -0.429125 -1.85912 0
M  V30 5603 C 524.967 -1.21844 -3.22875 0
M  V30 5604 C 524.08 -2.45296 -3.55603 0
M  V30 5605 C 523.215 -2.22334 -4.82432 0
M  V30 5606 C 522.254 -3.41488 -5.07988 0
M  V30 5607 N 521.391 -3.17877 -6.26018 0
M  V30 5608 H 526.231 -2.3266 -1.86207 0
M  V30 5609 H 523.768 -1.15578 -0.909946 0
M  V30 5610 H 525.726 -1.10818 -4.02213 0
M  V30 5611 H 524.356 -0.3025 -3.21379 0
M  V30 5612 H 523.408 -2.66945 -2.71006 0
M  V30 5613 H 524.72 -3.34063 -3.7041 0
M  V30 5614 H 523.874 -2.0852 -5.69741 0
M  V30 5615 H 522.613 -1.30954 -4.6979 0
M  V30 5616 H 521.618 -3.55807 -4.19144 0
M  V30 5617 H 522.843 -4.33763 -5.22519 0
M  V30 5618 H 520.789 -2.29156 -6.14673 0
M  V30 5619 H 520.706 -4.00198 -6.41387 0
M  V30 5620 H 521.974 -3.07746 -7.16179 0
M  V30 5621 N 526.204 0.969867 -1.24223 0
M  V30 5622 C 527.151 2.06407 -1.0327 0
M  V30 5623 C 528.121 1.66014 0.0533 0
M  V30 5624 O 529.306 1.90533 -0.100896 0
M  V30 5625 C 526.446 3.3909 -0.641262 0
M  V30 5626 C 525.559 3.9269 -1.80051 0
M  V30 5627 C 524.694 5.13631 -1.35486 0
M  V30 5628 C 523.733 5.59423 -2.48419 0
M  V30 5629 N 522.87 6.71586 -2.04737 0
M  V30 5630 H 527.71 2.23663 -1.96923 0
M  V30 5631 H 525.247 1.09624 -0.980862 0
M  V30 5632 H 527.205 4.15323 -0.395351 0
M  V30 5633 H 525.835 3.21765 0.258269 0
M  V30 5634 H 524.887 3.13116 -2.16014 0
M  V30 5635 H 526.199 4.22636 -2.64916 0
M  V30 5636 H 525.353 5.97231 -1.0677 0
M  V30 5637 H 524.092 4.85364 -0.476722 0
M  V30 5638 H 523.097 4.74398 -2.77897 0
M  V30 5639 H 524.322 5.89705 -3.36786 0
M  V30 5640 H 522.268 6.45058 -1.19318 0
M  V30 5641 H 522.185 7.0097 -2.83156 0
M  V30 5642 H 523.453 7.58633 -1.79154 0
M  V30 5643 N 527.682 1.05563 1.17022 0
M  V30 5644 C 528.929 0.767937 1.87374 0
M  V30 5645 C 529.257 -0.705224 1.81265 0
M  V30 5646 O 528.512 -1.5318 1.21796 0
M  V30 5647 C 528.811 1.19849 3.36706 0
M  V30 5648 C 528.477 2.6745 3.63017 0
M  V30 5649 C 527.139 3.0777 3.69907 0
M  V30 5650 C 529.491 3.62811 3.74189 0
M  V30 5651 C 526.819 4.42307 3.85463 0
M  V30 5652 C 529.171 4.97087 3.91264 0
M  V30 5653 C 527.835 5.37055 3.96394 0
M  V30 5654 H 527.105 0.281008 0.68565 0
M  V30 5655 H 529.752 1.32339 1.38415 0
M  V30 5656 H 528.057 0.562096 3.87747 0
M  V30 5657 H 529.754 0.953038 3.8951 0
M  V30 5658 H 526.344 2.35228 3.58282 0
M  V30 5659 H 530.528 3.32798 3.68183 0
M  V30 5660 H 525.784 4.72769 3.87684 0
M  V30 5661 H 529.958 5.70869 3.9885 0
M  V30 5662 H 527.585 6.41308 4.082 0
M  V30 5663 N 529.16 -1.33526 0.837174 0
M  V30 5664 C 530.07 -2.33023 0.271568 0
M  V30 5665 C 531.086 -1.63272 -0.601514 0
M  V30 5666 O 532.262 -1.94939 -0.506038 0
M  V30 5667 C 529.327 -3.42382 -0.545448 0
M  V30 5668 C 528.388 -4.27857 0.351709 0
M  V30 5669 C 527.621 -5.31994 -0.426409 0
M  V30 5670 O 527.844 -5.45763 -1.65828 0
M  V30 5671 O 526.778 -6.01572 0.1987 0
M  V30 5672 H 530.604 -2.83256 1.09545 0
M  V30 5673 H 528.189 -1.36837 0.599655 0
M  V30 5674 H 530.071 -4.09122 -1.00979 0
M  V30 5675 H 528.746 -2.94369 -1.34641 0
M  V30 5676 H 527.653 -3.6399 0.863853 0
M  V30 5677 H 528.986 -4.79349 1.1174 0
M  V30 5678 N 530.638 -0.59345 -1.46 0
M  V30 5679 C 531.548 0.135817 -2.34207 0
M  V30 5680 C 532.564 0.875008 -1.50398 0
M  V30 5681 O 533.74 0.835778 -1.83239 0
M  V30 5682 C 530.805 1.12977 -3.27776 0
M  V30 5683 C 529.866 0.394081 -4.27487 0
M  V30 5684 C 529.099 1.34068 -5.16586 0
M  V30 5685 O 529.322 2.5778 -5.08828 0
M  V30 5686 O 528.256 0.845426 -5.95933 0
M  V30 5687 H 532.082 -0.588691 -2.9794 0
M  V30 5688 H 529.667 -0.353784 -1.45151 0
M  V30 5689 H 531.549 1.70261 -3.85473 0
M  V30 5690 H 530.224 1.83556 -2.66625 0
M  V30 5691 H 529.131 -0.220869 -3.73447 0
M  V30 5692 H 530.464 -0.270939 -4.91454 0
M  V30 5693 N 532.116 1.54067 -0.331816 0
M  V30 5694 C 533.362 2.01012 0.268667 0
M  V30 5695 C 533.695 1.2195 1.51136 0
M  V30 5696 O 532.97 0.303972 1.9211 0
M  V30 5697 C 533.253 3.55158 0.59456 0
M  V30 5698 C 533.106 4.4494 -0.659409 0
M  V30 5699 C 534.425 4.16939 1.4089 0
M  V30 5700 H 531.544 0.730698 0.0961756 0
M  V30 5701 H 534.186 1.84593 -0.450031 0
M  V30 5702 H 532.336 3.6928 1.20685 0
M  V30 5703 H 534.008 4.42675 -1.29756 0
M  V30 5704 H 532.251 4.1428 -1.28665 0
M  V30 5705 H 532.922 5.50643 -0.386804 0
M  V30 5706 H 535.398 4.06443 0.891272 0
M  V30 5707 H 534.274 5.24889 1.60569 0
M  V30 5708 H 534.535 3.70798 2.40752 0
M  V30 5709 N 533.594 0.0601682 1.57485 0
M  V30 5710 C 534.542 -0.928899 2.13247 0
M  V30 5711 C 535.536 -1.31616 1.06647 0
M  V30 5712 O 536.742 -1.29476 1.25043 0
M  V30 5713 H 533.117 -0.317455 0.681708 0
M  V30 5714 H 535.088 -0.433566 2.95233 0
M  V30 5715 C 533.837 -2.19121 2.69965 0
M  V30 5716 H 533.16 -1.90204 3.51657 0
M  V30 5717 H 534.6 -2.86465 3.12592 0
M  V30 5718 C 533.059 -2.94195 1.64168 0
M  V30 5719 O 533.589 -3.87468 1.05978 0
M  V30 5720 N 531.795 -2.57089 1.35476 0
M  V30 5721 H 531.342 -1.81314 1.82984 0
M  V30 5722 H 531.3 -3.07624 0.649196 0
M  V30 5723 N 535.072 -1.5615 -0.213296 0
M  V30 5724 C 535.982 -1.96265 -1.28519 0
M  V30 5725 C 536.998 -0.86765 -1.50824 0
M  V30 5726 O 538.174 -1.17191 -1.63793 0
M  V30 5727 C 535.239 -2.27836 -2.61327 0
M  V30 5728 C 534.3 -3.50949 -2.47252 0
M  V30 5729 C 533.533 -3.81004 -3.73727 0
M  V30 5730 O 533.756 -3.12612 -4.77106 0
M  V30 5731 O 532.69 -4.74477 -3.70344 0
M  V30 5732 H 536.516 -2.87631 -0.974795 0
M  V30 5733 H 534.101 -1.43467 -0.416832 0
M  V30 5734 H 535.983 -2.49299 -3.39747 0
M  V30 5735 H 534.658 -1.39643 -2.9203 0
M  V30 5736 H 533.565 -3.34754 -1.67004 0
M  V30 5737 H 534.898 -4.39551 -2.21486 0
M  V30 5738 N 536.55 0.480323 -1.50102 0
M  V30 5739 C 537.778 1.25657 -1.64371 0
M  V30 5740 C 538.193 1.86011 -0.323316 0
M  V30 5741 O 537.55 1.68803 0.693682 0
M  V30 5742 C 537.601 2.37197 -2.728 0
M  V30 5743 O 537.322 1.7932 -3.9972 0
M  V30 5744 C 538.823 3.2823 -2.9796 0
M  V30 5745 H 536.043 0.380369 -0.552775 0
M  V30 5746 H 538.587 0.574379 -1.96268 0
M  V30 5747 H 536.742 3.01208 -2.43623 0
M  V30 5748 H 537.156 2.52701 -4.59611 0
M  V30 5749 H 538.63 4.02725 -3.77513 0
M  V30 5750 H 539.107 3.86462 -2.08671 0
M  V30 5751 H 539.713 2.69964 -3.28633 0
M  V30 5752 N 538.028 1.39524 0.732853 0
M  V30 5753 C 539.256 1.40143 1.52209 0
M  V30 5754 C 539.671 -0.00348836 1.888 0
M  V30 5755 O 539.028 -0.975357 1.5425 0
M  V30 5756 C 539.079 2.27632 2.8083 0
M  V30 5757 O 538.8 3.62654 2.45792 0
M  V30 5758 C 540.301 2.36658 3.74844 0
M  V30 5759 H 537.521 0.478604 0.470297 0
M  V30 5760 H 540.065 1.83366 0.905388 0
M  V30 5761 H 538.22 1.87818 3.38826 0
M  V30 5762 H 538.634 4.08941 3.28431 0
M  V30 5763 H 540.108 3.02118 4.61984 0
M  V30 5764 H 540.585 1.38638 4.16745 0
M  V30 5765 H 541.191 2.76951 3.22766 0
M  V30 5766 N 539.506 -0.963266 1.24736 0
M  V30 5767 C 540.436 -2.07628 1.06832 0
M  V30 5768 C 541.417 -1.70088 -0.0200566 0
M  V30 5769 O 542.602 -1.93636 0.147854 0
M  V30 5770 C 539.732 -3.40636 0.677069 0
M  V30 5771 C 538.686 -3.9215 1.71471 0
M  V30 5772 C 538.012 -5.21553 1.1784 0
M  V30 5773 C 539.312 -4.19493 3.11164 0
M  V30 5774 H 541.006 -2.22864 1.9993 0
M  V30 5775 H 538.552 -1.07093 0.96266 0
M  V30 5776 H 540.505 -4.17941 0.538792 0
M  V30 5777 H 539.229 -3.25313 -0.289612 0
M  V30 5778 H 537.888 -3.17005 1.84128 0
M  V30 5779 H 537.536 -5.02593 0.202195 0
M  V30 5780 H 537.236 -5.56988 1.87185 0
M  V30 5781 H 538.76 -6.01463 1.05233 0
M  V30 5782 H 540.174 -4.87487 3.01711 0
M  V30 5783 H 538.571 -4.66165 3.77902 0
M  V30 5784 H 539.641 -3.26097 3.58871 0
M  V30 5785 N 540.985 -1.06182 -1.16461 0
M  V30 5786 C 541.932 -0.671613 -2.20812 0
M  V30 5787 C 542.902 0.331186 -1.62765 0
M  V30 5788 O 544.087 0.22033 -1.89524 0
M  V30 5789 C 541.227 -0.063029 -3.45042 0
M  V30 5790 C 540.34 -1.11587 -4.1734 0
M  V30 5791 C 539.475 -0.473546 -5.29085 0
M  V30 5792 C 538.514 -1.51 -5.93182 0
M  V30 5793 N 537.651 -0.891118 -6.96422 0
M  V30 5794 H 542.491 -1.56589 -2.53542 0
M  V30 5795 H 540.028 -0.782951 -1.24532 0
M  V30 5796 H 541.986 0.307344 -4.16066 0
M  V30 5797 H 540.616 0.794663 -3.12866 0
M  V30 5798 H 539.668 -1.60396 -3.44931 0
M  V30 5799 H 540.98 -1.90221 -4.61104 0
M  V30 5800 H 540.134 -0.0501432 -6.06679 0
M  V30 5801 H 538.873 0.344687 -4.8648 0
M  V30 5802 H 537.878 -1.94331 -5.14311 0
M  V30 5803 H 539.103 -2.33031 -6.37866 0
M  V30 5804 H 537.049 -0.0935753 -6.55933 0
M  V30 5805 H 536.966 -1.61486 -7.38551 0
M  V30 5806 H 538.234 -0.492822 -7.77941 0
M  V30 5807 N 542.463 1.3308 -0.844243 0
M  V30 5808 C 543.712 1.96868 -0.438833 0
M  V30 5809 C 544.025 1.67599 1.00846 0
M  V30 5810 O 545.231 2.25043 1.51881 0
M  V30 5811 C 543.687 3.5234 -0.73377 0
M  V30 5812 C 543.295 3.90481 -2.1961 0
M  V30 5813 C 545.039 4.22653 -0.395574 0
M  V30 5814 C 542.946 5.38954 -2.43481 0
M  V30 5815 H 541.876 0.736749 -0.160364 0
M  V30 5816 H 544.527 1.51623 -1.03358 0
M  V30 5817 H 542.909 3.95941 -0.068589 0
M  V30 5818 H 544.083 3.57922 -2.90221 0
M  V30 5819 H 542.398 3.33165 -2.4978 0
M  V30 5820 H 544.995 5.31848 -0.551477 0
M  V30 5821 H 545.338 4.11004 0.661921 0
M  V30 5822 H 545.871 3.84601 -1.01621 0
M  V30 5823 H 542.61 5.55612 -3.47816 0
M  V30 5824 H 542.13 5.72954 -1.77437 0
M  V30 5825 H 543.809 6.05907 -2.26905 0
M  V30 5826 N 543.941 0.601185 1.45683 0
M  V30 5827 C 544.904 -0.111398 2.28929 0
M  V30 5828 C 545.904 -0.801246 1.39416 0
M  V30 5829 O 547.094 -0.650383 1.61603 0
M  V30 5830 C 544.226 -1.16773 3.20276 0
M  V30 5831 H 545.419 0.620412 2.93413 0
M  V30 5832 H 542.972 0.359946 1.52099 0
M  V30 5833 H 543.707 -1.93051 2.60579 0
M  V30 5834 H 543.492 -0.677358 3.86205 0
M  V30 5835 H 544.982 -1.66698 3.82886 0
M  V30 5836 N 545.419 -1.53889 0.339982 0
M  V30 5837 C 546.382 -2.23547 -0.50592 0
M  V30 5838 C 547.382 -1.23445 -1.03044 0
M  V30 5839 O 548.572 -1.47909 -0.920253 0
M  V30 5840 C 545.704 -2.95234 -1.7044 0
M  V30 5841 H 546.897 -2.99722 0.103247 0
M  V30 5842 H 544.45 -1.56033 0.0912804 0
M  V30 5843 H 545.185 -2.23236 -2.35236 0
M  V30 5844 H 544.97 -3.68654 -1.33553 0
M  V30 5845 H 546.46 -3.48258 -2.30447 0
M  V30 5846 N 546.897 -0.0685191 -1.57451 0
M  V30 5847 C 547.827 0.89747 -2.15564 0
M  V30 5848 C 548.808 1.31266 -1.08181 0
M  V30 5849 O 549.993 1.38429 -1.36202 0
M  V30 5850 C 547.123 2.16623 -2.71463 0
M  V30 5851 C 546.077 1.89054 -3.83982 0
M  V30 5852 C 545.403 3.22532 -4.26471 0
M  V30 5853 C 546.703 1.1984 -5.08366 0
M  V30 5854 H 548.397 0.413373 -2.96533 0
M  V30 5855 H 545.943 0.197391 -1.42641 0
M  V30 5856 H 547.896 2.84614 -3.10761 0
M  V30 5857 H 546.62 2.67269 -1.8771 0
M  V30 5858 H 545.279 1.23469 -3.45183 0
M  V30 5859 H 544.927 3.71013 -3.39644 0
M  V30 5860 H 544.627 3.04879 -5.02317 0
M  V30 5861 H 546.151 3.91727 -4.68383 0
M  V30 5862 H 547.565 1.77896 -5.45001 0
M  V30 5863 H 545.962 1.12456 -5.89469 0
M  V30 5864 H 547.032 0.176996 -4.84577 0
M  V30 5865 N 548.375 1.56261 0.205012 0
M  V30 5866 C 549.603 1.84141 0.943386 0
M  V30 5867 C 550.018 0.649772 1.77266 0
M  V30 5868 O 549.375 -0.381612 1.78466 0
M  V30 5869 C 549.426 3.10719 1.84759 0
M  V30 5870 O 549.147 4.25286 1.05181 0
M  V30 5871 C 550.648 3.51706 2.69848 0
M  V30 5872 H 547.868 0.611734 0.275721 0
M  V30 5873 H 550.412 2.03364 0.215253 0
M  V30 5874 H 548.567 2.93422 2.52947 0
M  V30 5875 H 548.981 4.97301 1.66709 0
M  V30 5876 H 550.455 4.43266 3.28967 0
M  V30 5877 H 550.932 2.7423 3.43067 0
M  V30 5878 H 551.538 3.71499 2.07047 0
M  V30 5879 N 549.853 -0.472356 1.50355 0
M  V30 5880 C 550.801 -1.59126 1.69651 0
M  V30 5881 C 551.795 -1.59793 0.56237 0
M  V30 5882 O 553.001 -1.63957 0.742832 0
M  V30 5883 H 549.376 -0.528008 0.535454 0
M  V30 5884 H 551.347 -1.40013 2.63513 0
M  V30 5885 C 550.096 -2.97075 1.8067 0
M  V30 5886 H 549.419 -2.9728 2.67329 0
M  V30 5887 H 550.859 -3.74825 1.98197 0
M  V30 5888 C 549.318 -3.32247 0.558016 0
M  V30 5889 O 549.848 -4.00553 -0.303399 0
M  V30 5890 N 548.054 -2.87659 0.412415 0
M  V30 5891 H 547.601 -2.32246 1.11443 0
M  V30 5892 H 547.559 -3.11556 -0.421908 0
M  V30 5893 N 551.331 -1.39911 -0.725443 0
M  V30 5894 C 552.742 -1.33599 -1.30415 0
M  V30 5895 C 553.093 -0.00481792 -1.96199 0
M  V30 5896 O 552.218 0.897275 -1.96921 0
M  V30 5897 C 552.813 -2.41965 -2.37146 0
M  V30 5898 C 551.372 -2.39144 -2.90667 0
M  V30 5899 C 550.519 -2.23355 -1.64341 0
M  V30 5900 H 553.47 -1.4986 -0.522267 0
M  V30 5901 H 553.491 -2.09304 -3.17761 0
M  V30 5902 H 553.003 -3.38837 -1.89238 0
M  V30 5903 H 551.104 -1.4594 -3.4283 0
M  V30 5904 H 551.217 -3.34362 -3.43131 0
M  V30 5905 H 549.581 -1.70696 -1.89037 0
M  V30 5906 H 550.364 -3.2221 -1.18471 0
M  V30 5907 N 552.809 0.956637 -1.25245 0
M  V30 5908 C 554.055 1.70352 -1.10036 0
M  V30 5909 C 554.388 1.90869 0.358156 0
M  V30 5910 O 553.663 1.47819 1.26411 0
M  V30 5911 C 553.946 3.08766 -1.85298 0
M  V30 5912 C 553.799 2.95672 -3.38966 0
M  V30 5913 C 555.118 4.08622 -1.63451 0
M  V30 5914 H 552.237 0.618279 -0.401123 0
M  V30 5915 H 554.879 1.11212 -1.54051 0
M  V30 5916 H 553.029 3.59252 -1.47887 0
M  V30 5917 H 554.701 2.52527 -3.86041 0
M  V30 5918 H 552.944 2.31634 -3.6678 0
M  V30 5919 H 553.615 3.93776 -3.86839 0
M  V30 5920 H 556.091 3.67038 -1.96015 0
M  V30 5921 H 554.967 5.03514 -2.18551 0
M  V30 5922 H 555.228 4.3834 -0.575357 0
M  V30 5923 N 554.287 1.06798 1.15896 0
M  V30 5924 C 555.517 0.807522 1.90165 0
M  V30 5925 C 555.925 -0.642417 1.7796 0
M  V30 5926 O 555.268 -1.45193 1.12537 0
M  V30 5927 C 555.33 1.12939 3.41299 0
M  V30 5928 C 554.994 2.57879 3.7729 0
M  V30 5929 C 555.991 3.56118 3.78782 0
M  V30 5930 C 553.676 2.93311 4.07767 0
M  V30 5931 C 555.67 4.87827 4.10248 0
M  V30 5932 C 553.357 4.25219 4.38899 0
M  V30 5933 C 554.355 5.22287 4.4012 0
M  V30 5934 O 554.043 6.51826 4.70508 0
M  V30 5935 H 553.775 0.291946 0.609708 0
M  V30 5936 H 556.329 1.42627 1.47806 0
M  V30 5937 H 554.559 0.45359 3.84031 0
M  V30 5938 H 556.248 0.852363 3.9685 0
M  V30 5939 H 557.014 3.30086 3.55342 0
M  V30 5940 H 552.893 2.18409 4.05979 0
M  V30 5941 H 556.437 5.63586 4.11116 0
M  V30 5942 H 552.334 4.51006 4.61805 0
M  V30 5943 H 553.102 6.56893 4.88298 0
M  V30 5944 N 555.766 -1.3263 0.851289 0
M  V30 5945 C 557.177 -1.79653 0.5081 0
M  V30 5946 C 557.528 -1.70327 -0.973815 0
M  V30 5947 O 556.653 -1.25986 -1.75944 0
M  V30 5948 C 557.248 -3.26196 0.915515 0
M  V30 5949 C 555.807 -3.71187 0.624277 0
M  V30 5950 C 554.954 -2.53804 1.11709 0
M  V30 5951 H 557.905 -1.19976 1.03882 0
M  V30 5952 H 557.926 -3.79801 0.230535 0
M  V30 5953 H 557.438 -3.32952 1.99411 0
M  V30 5954 H 555.539 -3.69948 -0.443737 0
M  V30 5955 H 555.652 -4.64132 1.18821 0
M  V30 5956 H 554.016 -2.48964 0.537484 0
M  V30 5957 H 554.799 -2.63315 2.20272 0
M  V30 5958 N 557.244 -0.608902 -1.45362 0
M  V30 5959 C 558.469 -0.10921 -2.07112 0
M  V30 5960 C 558.894 1.19779 -1.45033 0
M  V30 5961 O 558.252 1.72961 -0.543527 0
M  V30 5962 C 558.3 0.0155745 -3.60597 0
M  V30 5963 O 557.404 1.06546 -3.98399 0
M  V30 5964 H 556.745 -0.0746619 -0.659789 0
M  V30 5965 H 559.275 -0.839283 -1.86594 0
M  V30 5966 H 559.285 0.213364 -4.07442 0
M  V30 5967 H 557.96 -0.938765 -4.05167 0
M  V30 5968 H 556.537 0.844024 -3.63223 0
M  V30 5969 N 558.722 1.53707 -0.348139 0
M  V30 5970 C 559.999 1.93247 0.302475 0
M  V30 5971 C 560.379 1.28012 1.67857 0
M  V30 5972 O 559.727 0.43274 2.24365 0
M  V30 5973 C 559.937 3.47031 0.370159 0
M  V30 5974 C 561.285 4.20066 0.61882 0
M  V30 5975 O 562.309 3.53319 0.452087 0
M  V30 5976 O 561.168 5.38318 0.94215 0
M  V30 5977 H 558.262 0.807736 0.177458 0
M  V30 5978 H 560.808 1.64927 -0.399651 0
M  V30 5979 H 559.58 3.86745 -0.59534 0
M  V30 5980 H 559.203 3.81532 1.11888 0
M  V30 5981 N 560.2 0.0768682 1.57412 0
M  V30 5982 C 561.132 -0.918248 2.10002 0
M  V30 5983 C 562.145 -1.25808 1.03325 0
M  V30 5984 O 563.334 -1.21438 1.30824 0
M  V30 5985 C 560.434 -2.23263 2.54964 0
M  V30 5986 C 559.607 -2.07088 3.8527 0
M  V30 5987 C 558.666 -3.21876 4.16272 0
M  V30 5988 O 557.692 -2.96643 4.8579 0
M  V30 5989 N 558.894 -4.4712 3.70221 0
M  V30 5990 H 561.659 -0.469209 2.96004 0
M  V30 5991 H 559.22 -0.108725 1.61535 0
M  V30 5992 H 561.212 -2.9897 2.72762 0
M  V30 5993 H 559.782 -2.59649 1.74072 0
M  V30 5994 H 559.002 -1.15818 3.76802 0
M  V30 5995 H 560.29 -1.93537 4.70554 0
M  V30 5996 H 559.688 -4.70506 3.1407 0
M  V30 5997 H 558.245 -5.19837 3.93209 0
M  V30 5998 N 561.678 -1.56367 -0.196722 0
M  V30 5999 C 562.906 -1.84639 -0.933608 0
M  V30 6000 C 563.321 -0.659164 -1.76919 0
M  V30 6001 O 562.678 0.372142 -1.78665 0
M  V30 6002 C 562.729 -3.11694 -1.83109 0
M  V30 6003 O 562.45 -4.25838 -1.02924 0
M  V30 6004 C 563.951 -3.53132 -2.67979 0
M  V30 6005 H 561.171 -0.613188 -0.272473 0
M  V30 6006 H 563.715 -2.03475 -0.204465 0
M  V30 6007 H 561.87 -2.94759 -2.51387 0
M  V30 6008 H 562.284 -4.98178 -1.64069 0
M  V30 6009 H 563.758 -4.45005 -3.26611 0
M  V30 6010 H 564.235 -2.76045 -3.41608 0
M  V30 6011 H 564.841 -3.72592 -2.05074 0
M  V30 6012 N 563.156 0.464375 -1.50603 0
M  V30 6013 C 564.384 1.23907 -1.65695 0
M  V30 6014 C 564.799 1.85658 -0.343027 0
M  V30 6015 O 564.156 1.69529 0.675739 0
M  V30 6016 C 564.207 2.3429 -2.75301 0
M  V30 6017 O 563.928 1.7507 -4.01599 0
M  V30 6018 C 565.429 3.25051 -3.01424 0
M  V30 6019 H 562.649 0.374485 -0.556778 0
M  V30 6020 H 565.193 0.55353 -1.96866 0
M  V30 6021 H 563.348 2.98607 -2.46804 0
M  V30 6022 H 563.762 2.47812 -4.62266 0
M  V30 6023 H 565.236 3.98699 -3.81763 0
M  V30 6024 H 565.713 3.84227 -2.12758 0
M  V30 6025 H 566.319 2.66463 -3.31477 0
M  V30 6026 N 564.634 1.40294 0.718013 0
M  V30 6027 C 565.597 1.4012 1.81381 0
M  V30 6028 C 566.597 0.295405 1.58063 0
M  V30 6029 O 567.787 0.554187 1.6515 0
M  V30 6030 C 564.919 1.19056 3.19435 0
M  V30 6031 H 566.112 2.37645 1.82933 0
M  V30 6032 H 563.665 1.26107 0.923405 0
M  V30 6033 H 564.4 0.222809 3.23534 0
M  V30 6034 H 564.185 1.99152 3.37758 0
M  V30 6035 H 565.675 1.21716 3.99468 0
M  V30 6036 N 566.112 -0.949982 1.2575 0
M  V30 6037 C 567.022 -2.08109 1.08295 0
M  V30 6038 C 568.038 -1.7399 0.0188181 0
M  V30 6039 O 569.214 -2.00187 0.220724 0
M  V30 6040 C 566.279 -3.39383 0.708534 0
M  V30 6041 C 565.34 -3.8734 1.85111 0
M  V30 6042 C 564.573 -5.12349 1.49447 0
M  V30 6043 O 564.796 -5.6905 0.392212 0
M  V30 6044 O 563.73 -5.5513 2.32624 0
M  V30 6045 H 567.556 -2.25738 2.03165 0
M  V30 6046 H 565.141 -1.06545 1.04731 0
M  V30 6047 H 567.023 -4.18277 0.512061 0
M  V30 6048 H 565.698 -3.23013 -0.210854 0
M  V30 6049 H 564.605 -3.09429 2.10248 0
M  V30 6050 H 565.938 -4.08216 2.74991 0
M  V30 6051 N 567.59 -1.07411 -1.15328 0
M  V30 6052 C 568.537 -0.694995 -2.20087 0
M  V30 6053 C 569.507 0.313904 -1.63107 0
M  V30 6054 O 570.692 0.200216 -1.89747 0
M  V30 6055 C 567.832 -0.0996218 -3.44956 0
M  V30 6056 C 566.945 -1.16007 -4.16133 0
M  V30 6057 C 566.08 -0.529636 -5.28553 0
M  V30 6058 C 565.119 -1.57283 -5.91548 0
M  V30 6059 N 564.256 -0.964932 -6.95438 0
M  V30 6060 H 569.096 -1.5927 -2.51867 0
M  V30 6061 H 566.633 -0.796115 -1.23695 0
M  V30 6062 H 568.591 0.263197 -4.16369 0
M  V30 6063 H 567.221 0.761435 -3.13691 0
M  V30 6064 H 566.273 -1.64045 -3.4321 0
M  V30 6065 H 567.585 -1.95101 -4.59061 0
M  V30 6066 H 566.739 -0.114487 -6.06592 0
M  V30 6067 H 565.478 0.29307 -4.86819 0
M  V30 6068 H 564.483 -1.99775 -5.12221 0
M  V30 6069 H 565.708 -2.39783 -6.35359 0
M  V30 6070 H 563.654 -0.16314 -6.55797 0
M  V30 6071 H 563.571 -1.69311 -7.36797 0
M  V30 6072 H 564.839 -0.575305 -7.77374 0
M  V30 6073 N 569.068 1.32177 -0.85831 0
M  V30 6074 C 570 2.27688 -0.262835 0
M  V30 6075 C 571.013 1.52588 0.567513 0
M  V30 6076 O 572.202 1.74156 0.391407 0
M  V30 6077 C 569.302 3.32668 0.646937 0
M  V30 6078 C 568.475 4.37148 -0.148372 0
M  V30 6079 C 567.534 5.21686 0.687728 0
M  V30 6080 O 566.56 5.69074 0.119934 0
M  V30 6081 N 567.762 5.44892 2.00182 0
M  V30 6082 H 570.527 2.79426 -1.08356 0
M  V30 6083 H 568.088 1.45076 -0.718647 0
M  V30 6084 H 570.08 3.86134 1.2117 0
M  V30 6085 H 568.65 2.81061 1.36834 0
M  V30 6086 H 567.87 3.83915 -0.894572 0
M  V30 6087 H 569.158 5.04038 -0.694514 0
M  V30 6088 H 568.556 5.08128 2.4864 0
M  V30 6089 H 567.113 6.0134 2.51463 0
M  V30 6090 N 570.547 0.616602 1.45037 0
M  V30 6091 C 571.772 0.120192 2.07051 0
M  V30 6092 C 572.197 -1.19008 1.45666 0
M  V30 6093 O 571.555 -1.7267 0.552692 0
M  V30 6094 C 571.603 0.00354901 3.606 0
M  V30 6095 O 570.707 -1.04431 3.98958 0
M  V30 6096 H 570.048 0.0781599 0.659384 0
M  V30 6097 H 572.578 0.849167 1.86146 0
M  V30 6098 H 572.588 -0.191754 4.07549 0
M  V30 6099 H 571.263 0.960239 4.04663 0
M  V30 6100 H 569.84 -0.824749 3.63665 0
M  V30 6101 N 572.025 -1.5352 0.356285 0
M  V30 6102 C 573.253 -2.05534 -0.237328 0
M  V30 6103 C 573.668 -1.23043 -1.43199 0
M  V30 6104 O 573.025 -0.268821 -1.80509 0
M  V30 6105 C 573.076 -3.55791 -0.639933 0
M  V30 6106 O 572.797 -4.35154 0.507233 0
M  V30 6107 C 574.298 -4.24027 -1.29292 0
M  V30 6108 H 571.518 -0.669585 -0.0435572 0
M  V30 6109 H 574.062 -1.97988 0.511963 0
M  V30 6110 H 572.217 -3.63518 -1.33915 0
M  V30 6111 H 572.631 -5.24178 0.18375 0
M  V30 6112 H 574.105 -5.30509 -1.52527 0
M  V30 6113 H 574.582 -3.77166 -2.25039 0
M  V30 6114 H 575.188 -4.20527 -0.63539 0
M  V30 6115 N 573.503 -0.0852151 -1.57369 0
M  V30 6116 C 574.78 0.622534 -1.85429 0
M  V30 6117 C 575.16 1.86962 -0.980229 0
M  V30 6118 O 574.508 2.28445 -0.0500219 0
M  V30 6119 C 574.718 0.947374 -3.35896 0
M  V30 6120 C 576.066 1.31509 -4.03721 0
M  V30 6121 O 577.09 1.03869 -3.40719 0
M  V30 6122 O 575.949 1.83231 -5.14868 0
M  V30 6123 H 573.043 0.310513 -0.766492 0
M  V30 6124 H 575.589 -0.117164 -1.69295 0
M  V30 6125 H 574.361 0.0622264 -3.91251 0
M  V30 6126 H 573.984 1.74338 -3.5734 0
M  V30 6127 N 574.981 1.5647 0.188427 0
M  V30 6128 C 576.206 1.85486 0.927891 0
M  V30 6129 C 576.631 0.669575 1.75779 0
M  V30 6130 O 575.989 -0.381573 1.77239 0
M  V30 6131 C 576.037 3.12784 1.7944 0
M  V30 6132 O 575.141 2.93805 2.894 0
M  V30 6133 H 574.482 0.610585 0.260925 0
M  V30 6134 H 577.012 2.037 0.191729 0
M  V30 6135 H 577.022 3.43749 2.19774 0
M  V30 6136 H 575.697 3.98671 1.18468 0
M  V30 6137 H 574.274 2.74153 2.52774 0
M  V30 6138 N 576.459 -0.456382 1.50847 0
M  V30 6139 C 577.707 -1.20497 1.62249 0
M  V30 6140 C 578.028 -1.92156 0.331839 0
M  V30 6141 O 577.298 -1.84751 -0.651443 0
M  V30 6142 H 575.878 -0.447775 0.597918 0
M  V30 6143 H 578.54 -0.525099 1.87693 0
M  V30 6144 H 577.636 -1.94492 2.44089 0
M  V30 6145 N 577.937 -1.40673 -0.710563 0
M  V30 6146 C 578.9 -1.4108 -1.80635 0
M  V30 6147 C 579.9 -0.303783 -1.57904 0
M  V30 6148 O 581.09 -0.562937 -1.64853 0
M  V30 6149 C 578.222 -1.20748 -3.18799 0
M  V30 6150 H 579.415 -2.38612 -1.81671 0
M  V30 6151 H 576.968 -1.26595 -0.916704 0
M  V30 6152 H 577.703 -0.239964 -3.23411 0
M  V30 6153 H 577.488 -2.00941 -3.36698 0
M  V30 6154 H 578.978 -1.23833 -3.98817 0
M  V30 6155 N 579.415 0.9433 -1.26252 0
M  V30 6156 C 580.662 1.68925 -1.11672 0
M  V30 6157 C 580.99 1.91499 0.340329 0
M  V30 6158 O 580.245 1.49189 1.26653 0
M  V30 6159 C 580.544 3.07073 -1.82868 0
M  V30 6160 C 580.21 3.04262 -3.32769 0
M  V30 6161 C 578.872 3.03203 -3.7366 0
M  V30 6162 C 581.224 2.96729 -4.28487 0
M  V30 6163 C 578.552 2.92373 -5.0866 0
M  V30 6164 C 580.904 2.87442 -5.63525 0
M  V30 6165 C 579.568 2.84724 -6.03729 0
M  V30 6166 H 578.838 0.618141 -0.408635 0
M  V30 6167 H 581.485 1.10124 -1.56668 0
M  V30 6168 H 579.79 3.69486 -1.30335 0
M  V30 6169 H 581.487 3.63635 -1.69029 0
M  V30 6170 H 578.077 3.05865 -3.00241 0
M  V30 6171 H 582.261 2.96658 -3.97879 0
M  V30 6172 H 577.517 2.88645 -5.38975 0
M  V30 6173 H 581.691 2.80576 -6.37377 0
M  V30 6174 H 579.318 2.76089 -7.08293 0
M  V30 6175 N 580.893 1.08022 1.14757 0
M  V30 6176 C 582.118 0.82895 1.90114 0
M  V30 6177 C 582.543 -0.612772 1.77839 0
M  V30 6178 O 581.901 -1.42895 1.11583 0
M  V30 6179 C 581.949 1.25062 3.38219 0
M  V30 6180 O 581.053 0.400119 4.10454 0
M  V30 6181 H 580.394 0.301412 0.591648 0
M  V30 6182 H 582.924 1.44062 1.45284 0
M  V30 6183 H 582.934 1.22977 3.89025 0
M  V30 6184 H 581.609 2.30067 3.46471 0
M  V30 6185 H 580.186 0.484052 3.69745 0
M  V30 6186 N 582.371 -1.3172 0.865308 0
M  V30 6187 C 583.62 -1.96145 0.470098 0
M  V30 6188 C 583.933 -1.69182 -0.981674 0
M  V30 6189 O 585.139 -2.27431 -1.48281 0
M  V30 6190 C 583.595 -3.51129 0.789732 0
M  V30 6191 C 583.203 -3.86938 2.25795 0
M  V30 6192 C 584.947 -4.2197 0.462765 0
M  V30 6193 C 582.854 -5.35012 2.52024 0
M  V30 6194 H 581.784 -0.734105 0.172065 0
M  V30 6195 H 584.435 -1.49959 1.05757 0
M  V30 6196 H 582.817 -3.95781 0.131571 0
M  V30 6197 H 583.991 -3.5326 2.95879 0
M  V30 6198 H 582.306 -3.29149 2.55049 0
M  V30 6199 H 584.903 -5.30904 0.636019 0
M  V30 6200 H 585.246 -4.12005 -0.59645 0
M  V30 6201 H 585.779 -3.82936 1.07727 0
M  V30 6202 H 582.518 -5.50008 3.56611 0
M  V30 6203 H 582.038 -5.70058 1.8653 0
M  V30 6204 H 583.717 -6.0222 2.36515 0
M  V30 6205 N 583.85 -0.624285 -1.44708 0
M  V30 6206 C 585.098 -0.125802 -2.01708 0
M  V30 6207 C 585.418 1.2543 -1.49306 0
M  V30 6208 O 584.689 1.83198 -0.693924 0
M  V30 6209 H 583.269 -0.0435161 -0.745731 0
M  V30 6210 H 585.931 -0.809446 -1.77296 0
M  V30 6211 H 585.027 -0.0882734 -3.11975 0
M  V30 6212 N 585.328 1.53329 -0.364422 0
M  V30 6213 C 586.278 2.22472 0.499024 0
M  V30 6214 C 587.262 1.21952 1.0496 0
M  V30 6215 O 588.454 1.47405 0.979836 0
M  V30 6216 C 585.583 3.01659 1.6388 0
M  V30 6217 C 584.669 4.09555 1.10116 0
M  V30 6218 N 585.06 5.04988 0.286414 0
M  V30 6219 C 583.358 4.2424 1.37608 0
M  V30 6220 C 584.059 5.81699 -0.00781682 0
M  V30 6221 N 583.035 5.40394 0.589494 0
M  V30 6222 H 586.837 2.93611 -0.130284 0
M  V30 6223 H 584.351 1.61483 -0.172377 0
M  V30 6224 H 586.348 3.4971 2.26954 0
M  V30 6225 H 585.008 2.32051 2.27118 0
M  V30 6226 H 586.019 5.17847 -0.0742839 0
M  V30 6227 H 582.696 3.65858 2.01133 0
M  V30 6228 H 584.086 6.68587 -0.666394 0
M  V30 6229 O 586.845 0.233579 1.59802 0
M  V30 6230 H 587.536 -0.344607 1.9061 0
M  V30 END ATOM
M  V30 BEGIN BOND
M  V30 END BOND
M  V30 END CTAB
M  END
$$$$
