drugbank_target|Q99798 Aconitate hydratase, mitochondrial (DB01727; DB03964; DB04072; DB04351; DB04562)
 OpenBabel12092120543D

  0  0  0     0  0            999 V3000
M  V30 BEGIN CTAB
M  V30 COUNTS 12031 12162 0 0 0
M  V30 BEGIN ATOM
M  V30 1 H -0.908 1.98254 -0.117106 0
M  V30 2 N 0 1.576 0 0
M  V30 3 C 0.933 2.03868 1.02534 0
M  V30 4 C 1.911 0.928543 1.3348 0
M  V30 5 O 3.095 1.19667 1.45644 0
M  V30 6 C 0.222 2.43627 2.35294 0
M  V30 7 C -0.732 3.65373 2.2001 0
M  V30 8 S 0.101 5.13292 1.52614 0
M  V30 9 C 1.257 5.56322 2.86805 0
M  V30 10 H 1.49 2.90518 0.631377 0
M  V30 11 H -0.977 1.52953 0.210867 0
M  V30 12 H 0.981 2.67203 3.11629 0
M  V30 13 H -0.358 1.57376 2.7183 0
M  V30 14 H -1.165 3.90944 3.18086 0
M  V30 15 H -1.563 3.418 1.51819 0
M  V30 16 H 0.729 5.58782 3.83104 0
M  V30 17 H 1.672 6.56266 2.65933 0
M  V30 18 H 2.08 4.83886 2.90714 0
M  V30 19 N 1.4781 -0.272755 1.55222 0
M  V30 20 C 2.4411 -1.32041 1.87344 0
M  V30 21 C 3.4411 -1.42342 0.74803 0
M  V30 22 O 4.6311 -1.41488 1.0162 0
M  V30 23 C 1.7631 -2.70173 2.07893 0
M  V30 24 H 2.9561 -1.04789 2.80997 0
M  V30 25 H 0.5091 -0.51083 1.47717 0
M  V30 26 H 1.2441 -3.02605 1.16622 0
M  V30 27 H 1.0291 -2.64082 2.89833 0
M  V30 28 H 2.5191 -3.45869 2.34017 0
M  V30 29 N 2.9562 -1.48159 -0.537278 0
M  V30 30 C 4.3672 -1.49429 -1.11928 0
M  V30 31 C 4.7182 -0.26 -1.9447 0
M  V30 32 O 3.8432 0.633489 -2.0692 0
M  V30 33 C 4.4382 -2.70758 -2.03656 0
M  V30 34 C 2.9972 -2.74923 -2.57088 0
M  V30 35 C 2.1442 -2.42835 -1.3389 0
M  V30 36 H 5.0952 -1.55381 -0.322886 0
M  V30 37 H 5.1162 -2.48861 -2.87834 0
M  V30 38 H 4.6282 -3.60575 -1.43553 0
M  V30 39 H 2.7292 -1.89296 -3.20933 0
M  V30 40 H 2.8422 -3.76157 -2.9672 0
M  V30 41 H 1.2062 -1.93836 -1.65226 0
M  V30 42 H 1.9892 -3.34884 -0.755504 0
M  V30 43 N 4.4343 0.785586 -1.36625 0
M  V30 44 C 5.6643 1.5722 -1.34036 0
M  V30 45 C 6.0723 1.89033 0.0795062 0
M  V30 46 O 5.4153 1.50881 1.04789 0
M  V30 47 C 5.4773 2.91759 -2.10041 0
M  V30 48 C 5.1413 2.82654 -3.59104 0
M  V30 49 C 6.1383 2.54634 -4.53274 0
M  V30 50 C 3.8233 3.01111 -4.02042 0
M  V30 51 C 5.8173 2.45177 -5.88359 0
M  V30 52 C 3.5043 2.91276 -5.37216 0
M  V30 53 C 4.5023 2.63348 -6.30188 0
M  V30 54 O 4.1903 2.53514 -7.6288 0
M  V30 55 H 3.9223 0.494177 -0.461265 0
M  V30 56 H 6.4763 0.982632 -1.8037 0
M  V30 57 H 4.7063 3.52781 -1.58375 0
M  V30 58 H 6.3953 3.53059 -2.00261 0
M  V30 59 H 7.1613 2.40073 -4.21414 0
M  V30 60 H 3.0403 3.21854 -3.30047 0
M  V30 61 H 6.5843 2.23299 -6.60896 0
M  V30 62 H 2.4813 3.054 -5.68684 0
M  V30 63 H 3.2493 2.68967 -7.73045 0
M  V30 64 N 5.9124 1.20967 1.01018 0
M  V30 65 C 7.1374 1.0503 1.78839 0
M  V30 66 C 7.5624 -0.395752 1.8389 0
M  V30 67 O 6.9204 -1.28529 1.27867 0
M  V30 68 C 6.9684 1.64602 3.2084 0
M  V30 69 O 6.0724 0.887988 4.02726 0
M  V30 70 H 5.4134 0.369987 0.551367 0
M  V30 71 H 7.9434 1.60399 1.27018 0
M  V30 72 H 7.9534 1.68607 3.71532 0
M  V30 73 H 6.6284 2.69841 3.16479 0
M  V30 74 H 5.2054 0.922648 3.61305 0
M  V30 75 N 7.3905 -1.2043 1.01659 0
M  V30 76 C 8.3205 -2.25466 0.607226 0
M  V30 77 C 9.3015 -1.65853 -0.377716 0
M  V30 78 O 10.4865 -1.92409 -0.263149 0
M  V30 79 C 7.6165 -3.47256 -0.0552949 0
M  V30 80 C 6.5705 -4.19462 0.850632 0
M  V30 81 C 5.8965 -5.34673 0.0538859 0
M  V30 82 C 7.1965 -4.75603 2.15868 0
M  V30 83 H 8.8905 -2.59962 1.48526 0
M  V30 84 H 6.4365 -1.2496 0.715605 0
M  V30 85 H 8.3895 -4.19917 -0.353233 0
M  V30 86 H 7.1135 -3.11924 -0.968045 0
M  V30 87 H 5.7725 -3.48667 1.13257 0
M  V30 88 H 5.4205 -4.95585 -0.860514 0
M  V30 89 H 5.1205 -5.83913 0.657192 0
M  V30 90 H 6.6445 -6.10138 -0.237598 0
M  V30 91 H 8.0585 -5.40083 1.92311 0
M  V30 92 H 6.4555 -5.3528 2.71284 0
M  V30 93 H 7.5255 -3.94346 2.82169 0
M  V30 94 N 8.8686 -0.792821 -1.36206 0
M  V30 95 C 9.7986 -0.207853 -2.32573 0
M  V30 96 C 10.7796 0.659055 -1.56813 0
M  V30 97 O 11.9646 0.592176 -1.84951 0
M  V30 98 C 9.0946 0.655449 -3.41059 0
M  V30 99 C 8.0486 -0.111842 -4.27854 0
M  V30 100 C 7.3746 0.872274 -5.27537 0
M  V30 101 C 8.6746 -1.30299 -5.05786 0
M  V30 102 H 10.3686 -1.01294 -2.81744 0
M  V30 103 H 7.9146 -0.48854 -1.3546 0
M  V30 104 H 9.8676 1.07464 -4.07467 0
M  V30 105 H 8.5916 1.49328 -2.90463 0
M  V30 106 H 7.2506 -0.512053 -3.63006 0
M  V30 107 H 6.8986 1.70523 -4.73214 0
M  V30 108 H 6.5986 0.363291 -5.86476 0
M  V30 109 H 8.1226 1.28996 -5.96818 0
M  V30 110 H 9.5366 -0.959379 -5.65216 0
M  V30 111 H 7.9336 -1.7455 -5.74154 0
M  V30 112 H 9.0036 -2.09663 -4.37229 0
M  V30 113 N 10.3467 1.47872 -0.545128 0
M  V30 114 C 11.5927 2.02793 -0.0166104 0
M  V30 115 C 11.9257 1.41987 1.32489 0
M  V30 116 O 11.2007 0.571045 1.85928 0
M  V30 117 C 11.4837 3.59989 0.0893294 0
M  V30 118 C 11.3367 4.3125 -1.27841 0
M  V30 119 C 12.6557 4.32606 0.808724 0
M  V30 120 H 9.7747 0.736962 -0.00751035 0
M  V30 121 H 12.4167 1.76433 -0.705085 0
M  V30 122 H 10.5667 3.82579 0.675681 0
M  V30 123 H 12.2387 4.20035 -1.90704 0
M  V30 124 H 10.4817 3.92076 -1.85632 0
M  V30 125 H 11.1527 5.39736 -1.15713 0
M  V30 126 H 13.6287 4.14936 0.310992 0
M  V30 127 H 12.5047 5.42251 0.851782 0
M  V30 128 H 12.7657 4.00963 1.86229 0
M  V30 129 N 11.8248 0.280983 1.55075 0
M  V30 130 C 13.0528 -0.337293 2.04132 0
M  V30 131 C 13.4678 -1.4903 1.15912 0
M  V30 132 O 12.8248 -1.81606 0.180459 0
M  V30 133 C 12.8758 -0.812706 3.52246 0
M  V30 134 O 12.5968 0.294387 4.3711 0
M  V30 135 C 14.0978 -1.4982 4.17216 0
M  V30 136 H 11.3178 -0.0761638 0.666663 0
M  V30 137 H 13.8618 0.414787 2.00249 0
M  V30 138 H 12.0168 -1.51486 3.56554 0
M  V30 139 H 12.4308 -0.0721325 5.2445 0
M  V30 140 H 13.9048 -1.7822 5.22438 0
M  V30 141 H 14.3818 -2.43168 3.65741 0
M  V30 142 H 14.9878 -0.839742 4.16927 0
M  V30 143 N 13.3029 -1.57598 0.00835791 0
M  V30 144 C 14.7189 -1.55764 -0.347822 0
M  V30 145 C 14.9189 -1.01186 -1.74252 0
M  V30 146 O 13.9749 -0.649371 -2.44007 0
M  V30 147 C 15.2879 -2.99927 -0.215407 0
M  V30 148 C 16.8359 -3.11656 -0.289725 0
M  V30 149 C 17.3109 -4.57621 -0.18634 0
M  V30 150 N 18.8019 -4.62557 -0.243978 0
M  V30 151 C 19.5369 -5.73094 -0.18745 0
M  V30 152 N 19.0329 -6.92753 -0.0810331 0
M  V30 153 N 20.8259 -5.61588 -0.239925 0
M  V30 154 H 12.9769 -1.91411 0.92062 0
M  V30 155 H 15.2399 -0.879562 0.353659 0
M  V30 156 H 14.9459 -3.43729 0.744512 0
M  V30 157 H 14.8199 -3.63865 -0.994097 0
M  V30 158 H 17.2069 -2.67779 -1.24009 0
M  V30 159 H 17.2879 -2.5048 0.51898 0
M  V30 160 H 16.9319 -5.02174 0.760519 0
M  V30 161 H 16.8619 -5.16752 -1.01364 0
M  V30 162 H 19.3529 -3.76481 -0.327217 0
M  V30 163 H 19.6659 -7.72787 -0.0440241 0
M  V30 164 H 18.0109 -6.94984 -0.0465419 0
M  V30 165 H 21.2019 -4.66996 -0.321317 0
M  V30 166 H 21.3749 -6.47714 -0.192407 0
M  V30 167 N 14.781 0.264519 -1.55364 0
M  V30 168 C 15.711 1.33121 -1.91836 0
M  V30 169 C 16.692 1.51101 -0.781192 0
M  V30 170 O 17.877 1.64003 -1.04003 0
M  V30 171 C 15.007 2.68921 -2.19769 0
M  V30 172 C 13.961 2.65661 -3.35571 0
M  V30 173 C 13.287 4.05093 -3.49004 0
M  V30 174 C 14.587 2.24187 -4.71739 0
M  V30 175 H 16.281 1.02844 -2.81182 0
M  V30 176 H 13.827 0.493286 -1.35287 0
M  V30 177 H 15.78 3.43663 -2.43872 0
M  V30 178 H 14.504 3.00799 -1.27231 0
M  V30 179 H 13.163 1.93377 -3.1145 0
M  V30 180 H 12.811 4.34206 -2.53917 0
M  V30 181 H 12.511 4.03804 -4.26868 0
M  V30 182 H 14.035 4.81561 -3.75408 0
M  V30 183 H 15.449 2.88654 -4.9533 0
M  V30 184 H 13.846 2.34044 -5.52579 0
M  V30 185 H 14.916 1.19327 -4.69988 0
M  V30 186 N 16.2591 1.48442 0.529413 0
M  V30 187 C 17.1911 1.59095 1.64989 0
M  V30 188 C 18.2041 0.475212 1.5571 0
M  V30 189 O 19.3931 0.746081 1.6216 0
M  V30 190 C 16.4931 1.50518 3.0364 0
M  V30 191 C 15.6661 2.77142 3.38395 0
M  V30 192 C 14.7251 2.62012 4.56329 0
M  V30 193 O 13.7511 3.35898 4.59522 0
M  V30 194 N 14.9531 1.71667 5.54536 0
M  V30 195 H 17.7181 2.55723 1.56287 0
M  V30 196 H 15.2791 1.45173 0.716697 0
M  V30 197 H 17.2711 1.38091 3.80412 0
M  V30 198 H 15.8411 0.618627 3.06418 0
M  V30 199 H 15.0611 3.0413 2.50796 0
M  V30 200 H 16.3491 3.61146 3.58401 0
M  V30 201 H 15.7471 1.10841 5.54735 0
M  V30 202 H 14.3041 1.65178 6.30523 0
M  V30 203 N 17.7372 -0.778329 1.37039 0
M  V30 204 C 18.6842 -1.89139 1.32269 0
M  V30 205 C 19.6542 -1.65017 0.189387 0
M  V30 206 O 20.8392 -1.87024 0.377693 0
M  V30 207 C 17.9792 -3.26112 1.12894 0
M  V30 208 C 17.0922 -3.62233 2.35396 0
M  V30 209 C 16.2272 -4.8838 2.08946 0
M  V30 210 C 15.2662 -5.17212 3.2735 0
M  V30 211 N 14.4032 -6.34546 3.00492 0
M  V30 212 H 19.2432 -1.92552 2.27437 0
M  V30 213 H 16.7802 -0.941473 1.13025 0
M  V30 214 H 18.7382 -4.05116 0.996835 0
M  V30 215 H 17.3682 -3.22091 0.213758 0
M  V30 216 H 16.4202 -2.78265 2.5937 0
M  V30 217 H 17.7322 -3.79481 3.23721 0
M  V30 218 H 16.8862 -5.75274 1.92729 0
M  V30 219 H 15.6252 -4.73222 1.17949 0
M  V30 220 H 14.6302 -4.28796 3.44113 0
M  V30 221 H 15.8552 -5.34283 4.19188 0
M  V30 222 H 13.8012 -6.20759 2.12118 0
M  V30 223 H 13.7182 -6.52179 3.82358 0
M  V30 224 H 14.9862 -7.24394 2.87879 0
M  V30 225 N 19.2153 -1.21501 -1.00376 0
M  V30 226 C 20.1783 -0.976927 -2.07337 0
M  V30 227 C 21.1783 0.0525322 -1.60714 0
M  V30 228 O 22.3683 -0.184869 -1.73216 0
M  V30 229 C 19.5003 -0.473423 -3.37597 0
M  V30 230 H 20.6933 -1.92587 -2.29892 0
M  V30 231 H 18.2463 -1.03217 -1.17371 0
M  V30 232 H 18.9813 0.480379 -3.20722 0
M  V30 233 H 18.7663 -1.216 -3.72768 0
M  V30 234 H 20.2563 -0.32675 -4.1632 0
M  V30 235 N 20.6934 1.19889 -1.02296 0
M  V30 236 C 21.6234 2.25141 -0.619174 0
M  V30 237 C 22.6044 1.66051 0.368915 0
M  V30 238 O 23.7894 1.92546 0.252941 0
M  V30 239 C 20.9194 3.4728 0.0368783 0
M  V30 240 C 19.8734 4.19005 -0.872865 0
M  V30 241 C 19.1994 5.34637 -0.0822402 0
M  V30 242 C 20.4994 4.74452 -2.18387 0
M  V30 243 H 22.1934 2.59171 -1.49903 0
M  V30 244 H 19.7394 1.24579 -0.722222 0
M  V30 245 H 21.6924 4.20098 0.330958 0
M  V30 246 H 20.4164 3.12433 0.95149 0
M  V30 247 H 19.0754 3.48061 -1.15105 0
M  V30 248 H 18.7234 4.96034 0.83422 0
M  V30 249 H 18.4234 5.83557 -0.688149 0
M  V30 250 H 19.9474 6.10255 0.205238 0
M  V30 251 H 21.3614 5.39055 -1.95172 0
M  V30 252 H 19.7584 5.33834 -2.74119 0
M  V30 253 H 20.8284 3.92844 -2.84257 0
M  V30 254 N 22.1715 0.800033 1.35784 0
M  V30 255 C 23.4195 0.376597 1.9856 0
M  V30 256 C 23.7405 -1.05812 1.63795 0
M  V30 257 O 23.0105 -1.73103 0.917171 0
M  V30 258 H 21.5905 0.136261 0.734467 0
M  V30 259 H 24.2525 1.02442 1.65806 0
M  V30 260 H 23.3485 0.477002 3.08433 0
M  V30 261 N 23.6496 -1.47581 0.552962 0
M  V30 262 C 24.8956 -2.02782 0.0273648 0
M  V30 263 C 25.2286 -1.42687 -1.31734 0
M  V30 264 O 24.5036 -0.580897 -1.85623 0
M  V30 265 C 24.7866 -3.60031 -0.0702371 0
M  V30 266 C 24.6396 -4.30566 1.30126 0
M  V30 267 C 25.9586 -4.33028 -0.785771 0
M  V30 268 H 23.0776 -0.736912 0.0114185 0
M  V30 269 H 25.7196 -1.76056 0.714432 0
M  V30 270 H 23.8696 -3.82932 -0.655382 0
M  V30 271 H 25.5416 -4.19018 1.92929 0
M  V30 272 H 23.7846 -3.91086 1.87709 0
M  V30 273 H 24.4556 -5.39114 1.18573 0
M  V30 274 H 26.9316 -4.15095 -0.288982 0
M  V30 275 H 25.8076 -5.42695 -0.823013 0
M  V30 276 H 26.0686 -4.01945 -1.841 0
M  V30 277 N 25.1277 -0.289203 -1.54924 0
M  V30 278 C 26.5437 0.0645403 -1.59469 0
M  V30 279 C 26.7437 1.53419 -1.30632 0
M  V30 280 O 25.7997 2.2852 -1.074 0
M  V30 281 C 27.1127 -0.32278 -2.98963 0
M  V30 282 C 28.6607 -0.270564 -3.11828 0
M  V30 283 C 29.1357 -0.632532 -4.53611 0
M  V30 284 N 30.6267 -0.584617 -4.59496 0
M  V30 285 C 31.3617 -0.837314 -5.67254 0
M  V30 286 N 30.8577 -1.15536 -6.83098 0
M  V30 287 N 32.6507 -0.765166 -5.56868 0
M  V30 288 H 24.8017 -1.24714 -1.71931 0
M  V30 289 H 27.0647 -0.504809 -0.802416 0
M  V30 290 H 26.7707 -1.34541 -3.24948 0
M  V30 291 H 26.6447 0.32944 -3.75759 0
M  V30 292 H 29.0317 0.742805 -2.85598 0
M  V30 293 H 29.1127 -0.957242 -2.37214 0
M  V30 294 H 28.7567 -1.64365 -4.80569 0
M  V30 295 H 28.6867 0.07609 -5.26545 0
M  V30 296 H 31.1777 -0.349248 -3.76283 0
M  V30 297 H 31.4907 -1.33447 -7.61191 0
M  V30 298 H 29.8357 -1.19328 -6.84679 0
M  V30 299 H 33.0267 -0.516432 -4.65243 0
M  V30 300 H 33.1997 -0.965477 -6.40767 0
M  V30 301 N 26.6058 1.57591 -0.0167156 0
M  V30 302 C 27.5378 2.06343 0.997753 0
M  V30 303 C 28.5508 0.984469 1.29661 0
M  V30 304 O 29.7398 1.26093 1.26344 0
M  V30 305 C 26.8398 2.46255 2.32834 0
M  V30 306 C 26.0128 3.77083 2.21646 0
M  V30 307 C 25.0718 4.0368 3.37534 0
M  V30 308 O 24.0978 4.7411 3.14973 0
M  V30 309 N 25.2998 3.52881 4.60929 0
M  V30 310 H 28.0648 2.93997 0.581875 0
M  V30 311 H 25.6258 1.61002 0.170316 0
M  V30 312 H 27.6178 2.61149 3.09166 0
M  V30 313 H 26.1878 1.64032 2.66106 0
M  V30 314 H 25.4078 3.72106 1.30119 0
M  V30 315 H 26.6958 4.62822 2.11361 0
M  V30 316 H 26.0938 2.95878 4.82154 0
M  V30 317 H 24.6508 3.73076 5.34469 0
M  V30 318 N 28.0839 -0.256276 1.55502 0
M  V30 319 C 29.3139 -1.00196 1.80677 0
M  V30 320 C 29.7219 -1.79805 0.588797 0
M  V30 321 O 29.0649 -1.78055 -0.451883 0
M  V30 322 C 29.1269 -1.99515 2.99055 0
M  V30 323 C 28.7909 -1.38688 4.35448 0
M  V30 324 C 29.7879 -0.794079 5.138 0
M  V30 325 C 27.4729 -1.40906 4.82132 0
M  V30 326 C 29.4669 -0.231562 6.36979 0
M  V30 327 C 27.1539 -0.842684 6.05262 0
M  V30 328 C 28.1519 -0.254953 6.82524 0
M  V30 329 O 27.8399 0.3027 8.0333 0
M  V30 330 H 27.5719 -0.300919 0.60533 0
M  V30 331 H 30.1259 -0.287307 2.03381 0
M  V30 332 H 28.3559 -2.74785 2.72084 0
M  V30 333 H 30.0449 -2.60349 3.11405 0
M  V30 334 H 30.8109 -0.769519 4.78856 0
M  V30 335 H 26.6899 -1.85591 4.21992 0
M  V30 336 H 30.2339 0.227816 6.97228 0
M  V30 337 H 26.1309 -0.86454 6.39684 0
M  V30 338 H 26.8989 0.193662 8.18271 0
M  V30 339 N 29.562 -1.4872 -0.521534 0
M  V30 340 C 30.512 -1.60269 -1.62166 0
M  V30 341 C 31.496 -0.45935 -1.54204 0
M  V30 342 O 32.688 -0.711241 -1.62081 0
M  V30 343 C 29.817 -1.65344 -3.00859 0
M  V30 344 C 28.903 -2.85187 -3.13894 0
M  V30 345 N 29.294 -4.09509 -2.96877 0
M  V30 346 C 27.592 -2.82695 -3.44963 0
M  V30 347 C 28.293 -4.89959 -3.13552 0
M  V30 348 N 27.269 -4.22934 -3.41508 0
M  V30 349 H 31.071 -2.5413 -1.47632 0
M  V30 350 H 28.585 -1.45209 -0.727194 0
M  V30 351 H 30.582 -1.71713 -3.79895 0
M  V30 352 H 29.242 -0.726058 -3.16478 0
M  V30 353 H 30.253 -4.39814 -2.73467 0
M  V30 354 H 26.93 -1.99249 -3.66887 0
M  V30 355 H 28.32 -5.98654 -3.05061 0
M  V30 356 N 31.0401 0.771051 -1.3745 0
M  V30 357 C 32.2861 1.5319 -1.32894 0
M  V30 358 C 32.6191 1.94008 0.0862511 0
M  V30 359 O 31.8941 1.64124 1.04373 0
M  V30 360 C 32.1771 2.79648 -2.26868 0
M  V30 361 C 32.0301 2.45079 -3.77169 0
M  V30 362 C 33.3491 3.81583 -2.19277 0
M  V30 363 H 30.4681 0.555744 -0.484064 0
M  V30 364 H 33.1101 0.884492 -1.68157 0
M  V30 365 H 31.2601 3.34891 -1.96926 0
M  V30 366 H 32.9321 1.95745 -4.1771 0
M  V30 367 H 31.1751 1.77767 -3.95704 0
M  V30 368 H 31.8461 3.35478 -4.38359 0
M  V30 369 H 34.3221 3.35835 -2.45671 0
M  V30 370 H 33.1981 4.67787 -2.87171 0
M  V30 371 H 33.4591 4.25897 -1.18592 0
M  V30 372 N 32.5182 1.22032 0.997298 0
M  V30 373 C 33.4812 0.987909 2.06816 0
M  V30 374 C 34.4812 -0.0440084 1.6074 0
M  V30 375 O 35.6712 0.194053 1.73116 0
M  V30 376 C 32.8032 0.49132 3.37341 0
M  V30 377 H 33.9962 1.93803 2.28868 0
M  V30 378 H 31.5492 1.03838 1.16822 0
M  V30 379 H 32.2842 -0.463364 3.20973 0
M  V30 380 H 32.0692 1.23575 3.72118 0
M  V30 381 H 33.5592 0.348824 4.16141 0
M  V30 382 N 33.9963 -1.19345 1.0293 0
M  V30 383 C 35.2213 -1.93538 0.745511 0
M  V30 384 C 35.6463 -1.75007 -0.689511 0
M  V30 385 O 35.0043 -1.05265 -1.47611 0
M  V30 386 C 35.0523 -3.43336 1.10239 0
M  V30 387 O 34.1563 -4.11806 0.221289 0
M  V30 388 H 33.4973 -0.604193 0.275404 0
M  V30 389 H 36.0273 -1.5141 1.37609 0
M  V30 390 H 36.0373 -3.94004 1.05947 0
M  V30 391 H 34.7123 -3.56146 2.14786 0
M  V30 392 H 33.2893 -3.715 0.322842 0
M  V30 393 N 35.4744 -0.807222 -1.35358 0
M  V30 394 C 36.7204 -0.388463 -1.99045 0
M  V30 395 C 37.0534 1.04184 -1.63888 0
M  V30 396 O 36.3284 1.72292 -0.902535 0
M  V30 397 C 36.6114 -0.572783 -3.55515 0
M  V30 398 C 36.4644 -2.04807 -4.00468 0
M  V30 399 C 37.7834 0.00114064 -4.401 0
M  V30 400 H 34.9024 -0.142619 -0.723069 0
M  V30 401 H 37.5444 -1.01687 -1.60498 0
M  V30 402 H 35.6944 -0.0378425 -3.88482 0
M  V30 403 H 37.3664 -2.64544 -3.77908 0
M  V30 404 H 35.6094 -2.54427 -3.51353 0
M  V30 405 H 36.2804 -2.12792 -5.09337 0
M  V30 406 H 38.7564 -0.455716 -4.13597 0
M  V30 407 H 37.6324 -0.157737 -5.48673 0
M  V30 408 H 37.8934 1.09488 -4.28328 0
M  V30 409 N 36.9525 1.47285 -0.560781 0
M  V30 410 C 37.8825 2.32857 0.173105 0
M  V30 411 C 38.8635 1.44009 0.905281 0
M  V30 412 O 40.0485 1.7286 0.885046 0
M  V30 413 C 37.1785 3.25861 1.20133 0
M  V30 414 C 36.1325 4.23978 0.585388 0
M  V30 415 C 35.4585 5.06332 1.7185 0
M  V30 416 C 36.7585 5.20242 -0.463178 0
M  V30 417 H 38.4525 2.94466 -0.541307 0
M  V30 418 H 35.9985 1.41601 -0.261764 0
M  V30 419 H 37.9515 3.84569 1.72293 0
M  V30 420 H 36.6755 2.62315 1.94573 0
M  V30 421 H 35.3345 3.66501 0.085054 0
M  V30 422 H 34.9825 4.39186 2.45203 0
M  V30 423 H 34.6825 5.72762 1.31213 0
M  V30 424 H 36.2065 5.67899 2.24329 0
M  V30 425 H 37.6205 5.73293 -0.027502 0
M  V30 426 H 36.0175 5.94896 -0.788627 0
M  V30 427 H 37.0875 4.65504 -1.35773 0
M  V30 428 N 38.4306 0.297415 1.54768 0
M  V30 429 C 39.6706 -0.313829 2.01976 0
M  V30 430 C 40.0346 -1.51366 1.1812 0
M  V30 431 O 41.2356 -2.19603 1.5501 0
M  V30 432 C 39.5066 -0.664964 3.51159 0
M  V30 433 S 41.0656 -1.25958 4.20333 0
M  V30 434 H 37.8836 -0.0965014 0.704421 0
M  V30 435 H 40.4856 0.424451 1.90837 0
M  V30 436 H 39.1896 0.21681 4.09827 0
M  V30 437 H 38.7206 -1.43413 3.66328 0
M  V30 438 H 40.7356 -2.54751 4.25813 0
M  V30 439 N 39.9087 -1.5758 0.0250728 0
M  V30 440 C 40.8407 -2.06869 -0.986796 0
M  V30 441 C 41.8537 -0.991332 -1.29137 0
M  V30 442 O 43.0427 -1.26761 -1.25674 0
M  V30 443 C 40.1427 -2.47486 -2.31525 0
M  V30 444 C 39.3157 -3.78253 -2.19643 0
M  V30 445 C 38.3747 -4.05464 -3.35388 0
M  V30 446 O 37.4007 -4.75774 -3.12454 0
M  V30 447 N 38.6027 -3.55321 -4.59051 0
M  V30 448 H 41.3677 -2.94302 -0.566276 0
M  V30 449 H 38.9287 -1.6109 -0.161776 0
M  V30 450 H 40.9207 -2.62785 -3.07776 0
M  V30 451 H 39.4907 -1.65441 -2.65232 0
M  V30 452 H 38.7107 -3.7279 -1.28144 0
M  V30 453 H 39.9987 -4.63936 -2.08903 0
M  V30 454 H 39.3967 -2.98431 -4.80578 0
M  V30 455 H 37.9537 -3.75905 -5.32483 0
M  V30 456 N 41.3868 0.248026 -1.55636 0
M  V30 457 C 42.8028 0.596483 -1.48035 0
M  V30 458 C 43.0028 1.88386 -0.715039 0
M  V30 459 O 42.0588 2.51319 -0.243944 0
M  V30 460 C 43.3718 0.700258 -2.92433 0
M  V30 461 C 44.9198 0.792659 -3.02797 0
M  V30 462 C 45.3948 0.928005 -4.485 0
M  V30 463 N 46.8858 0.992903 -4.52433 0
M  V30 464 C 47.6208 1.11687 -5.62418 0
M  V30 465 N 47.1168 1.20645 -6.82214 0
M  V30 466 N 48.9098 1.14994 -5.50212 0
M  V30 467 H 41.0608 -0.597109 -2.03834 0
M  V30 468 H 43.3238 -0.205925 -0.925364 0
M  V30 469 H 43.0298 -0.175658 -3.51261 0
M  V30 470 H 42.9038 1.57255 -3.42857 0
M  V30 471 H 45.2908 1.65903 -2.4405 0
M  V30 472 H 45.3718 -0.104762 -2.55585 0
M  V30 473 H 45.0158 0.0661971 -5.07857 0
M  V30 474 H 44.9458 1.84045 -4.93391 0
M  V30 475 H 47.4368 0.935064 -3.66149 0
M  V30 476 H 47.7498 1.30008 -7.61786 0
M  V30 477 H 46.0948 1.17605 -6.84977 0
M  V30 478 H 49.2858 1.07643 -4.55555 0
M  V30 479 H 49.4588 1.24311 -6.35965 0
M  V30 480 N 42.8649 1.48995 0.513639 0
M  V30 481 C 43.8279 1.64229 1.59879 0
M  V30 482 C 44.8279 0.514696 1.5234 0
M  V30 483 O 46.0179 0.78087 1.55718 0
M  V30 484 C 43.1499 1.62783 2.99524 0
M  V30 485 H 44.3429 2.61004 1.47705 0
M  V30 486 H 41.8959 1.37837 0.736936 0
M  V30 487 H 42.6309 0.675461 3.17188 0
M  V30 488 H 42.4159 2.4466 3.06404 0
M  V30 489 H 43.9059 1.76669 3.78388 0
M  V30 490 N 44.343 -0.763751 1.37857 0
M  V30 491 C 45.29 -1.87726 1.34267 0
M  V30 492 C 46.26 -1.64807 0.206879 0
M  V30 493 O 47.445 -1.86613 0.397508 0
M  V30 494 C 44.585 -3.24896 1.16346 0
M  V30 495 C 43.698 -3.59716 2.39225 0
M  V30 496 C 42.833 -4.86137 2.14114 0
M  V30 497 C 41.872 -5.13711 3.32817 0
M  V30 498 N 41.009 -6.31323 3.07206 0
M  V30 499 H 45.849 -1.90129 2.29466 0
M  V30 500 H 43.386 -0.929433 1.14017 0
M  V30 501 H 45.344 -4.04036 1.03975 0
M  V30 502 H 43.974 -3.21847 0.247909 0
M  V30 503 H 43.026 -2.75498 2.62307 0
M  V30 504 H 44.338 -3.76027 3.27728 0
M  V30 505 H 43.492 -5.73198 1.9882 0
M  V30 506 H 42.231 -4.71945 1.22961 0
M  V30 507 H 41.236 -4.25123 3.48641 0
M  V30 508 H 42.461 -5.29807 4.24832 0
M  V30 509 H 40.407 -6.18474 2.1869 0
M  V30 510 H 40.324 -6.48087 3.89254 0
M  V30 511 H 41.592 -7.213 2.95546 0
M  V30 512 N 45.8211 -1.22559 -0.990812 0
M  V30 513 C 47.0671 -1.05297 -1.73322 0
M  V30 514 C 47.4001 0.410655 -1.89808 0
M  V30 515 O 46.6751 1.30439 -1.44277 0
M  V30 516 C 46.9581 -1.76713 -3.13759 0
M  V30 517 C 46.8111 -3.30684 -3.04907 0
M  V30 518 C 48.1301 -1.52121 -4.12974 0
M  V30 519 H 45.2491 -0.38392 -0.629106 0
M  V30 520 H 47.8911 -1.50926 -1.15418 0
M  V30 521 H 46.0411 -1.37924 -3.63193 0
M  V30 522 H 47.7131 -3.7893 -2.63077 0
M  V30 523 H 45.9561 -3.60253 -2.41661 0
M  V30 524 H 46.6271 -3.75833 -4.04294 0
M  V30 525 H 49.1031 -1.85819 -3.72304 0
M  V30 526 H 47.9791 -2.04582 -5.0935 0
M  V30 527 H 48.2401 -0.454257 -4.3976 0
M  V30 528 N 47.2992 1.18797 -1.03562 0
M  V30 529 C 48.2622 2.20464 -0.626769 0
M  V30 530 C 49.2622 1.57721 0.313173 0
M  V30 531 O 50.4522 1.73917 0.0992615 0
M  V30 532 C 47.5842 3.40802 0.0818498 0
M  V30 533 H 48.7772 2.58149 -1.5264 0
M  V30 534 H 46.3302 1.32593 -0.827578 0
M  V30 535 H 47.0652 3.08642 0.995518 0
M  V30 536 H 46.8502 3.8758 -0.593652 0
M  V30 537 H 48.3402 4.16092 0.354584 0
M  V30 538 N 48.7773 0.814389 1.34928 0
M  V30 539 C 49.7103 0.175641 2.27523 0
M  V30 540 C 50.6883 -0.662953 1.48471 0
M  V30 541 O 51.8723 -0.628545 1.77712 0
M  V30 542 C 48.9993 -0.755516 3.30166 0
M  V30 543 C 48.0453 0.00445305 4.265 0
M  V30 544 S 48.8783 1.34582 5.18313 0
M  V30 545 C 50.0343 0.419315 6.24494 0
M  V30 546 H 50.2673 0.960691 2.8135 0
M  V30 547 H 47.8003 0.609846 1.41846 0
M  V30 548 H 49.7583 -1.28723 3.89796 0
M  V30 549 H 48.4193 -1.51402 2.75202 0
M  V30 550 H 47.6123 -0.703077 4.99072 0
M  V30 551 H 47.2143 0.466447 3.7108 0
M  V30 552 H 49.5063 -0.392432 6.76362 0
M  V30 553 H 50.4493 1.11446 6.99275 0
M  V30 554 H 50.8573 0.0115389 5.64499 0
M  V30 555 N 50.2554 -1.46986 0.568584 0
M  V30 556 C 51.4804 -2.07335 0.0520528 0
M  V30 557 C 51.9054 -1.41675 -1.23733 0
M  V30 558 O 51.2634 -0.495623 -1.74394 0
M  V30 559 C 51.3114 -3.60417 -0.11501 0
M  V30 560 O 50.4154 -3.95309 -1.17492 0
M  V30 561 H 49.7564 -0.661597 0.0564385 0
M  V30 562 H 52.2864 -1.88837 0.787507 0
M  V30 563 H 52.2964 -4.06698 -0.325644 0
M  V30 564 H 50.9714 -4.07601 0.826675 0
M  V30 565 H 49.5484 -3.60757 -0.943869 0
M  V30 566 N 51.7335 -0.305618 -1.54608 0
M  V30 567 C 52.6835 0.583595 -2.20405 0
M  V30 568 C 53.6675 1.09539 -1.17856 0
M  V30 569 O 54.8595 1.0354 -1.43557 0
M  V30 570 C 51.9885 1.75277 -2.95183 0
M  V30 571 C 51.0745 1.25672 -4.05052 0
M  V30 572 N 51.4655 0.478998 -5.03527 0
M  V30 573 C 49.7635 1.53704 -4.18678 0
M  V30 574 C 50.4645 0.214269 -5.81305 0
M  V30 575 N 49.4405 0.795374 -5.3775 0
M  V30 576 H 53.2425 -0.0180946 -2.93894 0
M  V30 577 H 50.7565 -0.110601 -1.62023 0
M  V30 578 H 52.7535 2.4014 -3.40791 0
M  V30 579 H 51.4135 2.35812 -2.23211 0
M  V30 580 H 52.4245 0.123473 -5.17753 0
M  V30 581 H 49.1015 2.14954 -3.57912 0
M  V30 582 H 50.4915 -0.410656 -6.70644 0
M  V30 583 N 53.2116 1.57565 -0.0334293 0
M  V30 584 C 54.4586 1.91978 0.644272 0
M  V30 585 C 54.7866 0.910231 1.71887 0
M  V30 586 O 54.0416 -0.0801961 1.95536 0
M  V30 587 C 54.3406 3.33112 1.29504 0
M  V30 588 C 54.0066 4.49537 0.350388 0
M  V30 589 C 52.6686 4.81115 0.0903974 0
M  V30 590 C 55.0206 5.20347 -0.298032 0
M  V30 591 C 52.3486 5.8086 -0.825746 0
M  V30 592 C 54.7006 6.2107 -1.20226 0
M  V30 593 C 53.3646 6.51088 -1.4711 0
M  V30 594 H 52.6346 0.702496 0.235756 0
M  V30 595 H 55.2816 1.91259 -0.0961176 0
M  V30 596 H 53.5866 3.30113 2.11028 0
M  V30 597 H 55.2836 3.57011 1.82603 0
M  V30 598 H 51.8736 4.24883 0.563205 0
M  V30 599 H 56.0576 4.96178 -0.110234 0
M  V30 600 H 51.3136 6.02461 -1.04169 0
M  V30 601 H 55.4876 6.75057 -1.71086 0
M  V30 602 H 53.1146 7.28193 -2.18264 0
M  V30 603 N 54.6897 -0.239769 1.55765 0
M  V30 604 C 55.5997 -1.31831 1.94056 0
M  V30 605 C 56.6157 -1.52275 0.841925 0
M  V30 606 O 57.7917 -1.65759 1.14394 0
M  V30 607 C 54.8567 -2.65156 2.23368 0
M  V30 608 C 53.9177 -2.53173 3.46701 0
M  V30 609 C 53.1507 -3.8014 3.74606 0
M  V30 610 O 53.3737 -4.82343 3.04469 0
M  V30 611 O 52.3077 -3.78344 4.68123 0
M  V30 612 H 56.1337 -1.02347 2.85935 0
M  V30 613 H 53.7187 -0.441123 1.42739 0
M  V30 614 H 55.6007 -3.43929 2.43497 0
M  V30 615 H 54.2757 -2.94358 1.34666 0
M  V30 616 H 53.1827 -1.72662 3.31871 0
M  V30 617 H 54.5157 -2.28915 4.35728 0
M  V30 618 N 56.1678 -1.49265 -0.50573 0
M  V30 619 C 57.5788 -1.51769 -1.08734 0
M  V30 620 C 57.9298 -0.301192 -1.93874 0
M  V30 621 O 57.0548 0.589456 -2.08217 0
M  V30 622 C 57.6498 -2.75017 -1.97867 0
M  V30 623 C 56.2088 -2.80314 -2.51199 0
M  V30 624 C 55.3558 -2.4562 -1.28709 0
M  V30 625 H 58.3068 -1.56031 -0.289855 0
M  V30 626 H 58.3278 -2.5491 -2.82491 0
M  V30 627 H 57.8398 -3.63539 -1.35873 0
M  V30 628 H 55.9408 -1.96061 -3.16845 0
M  V30 629 H 56.0538 -3.82366 -2.88675 0
M  V30 630 H 54.4178 -1.97297 -1.61078 0
M  V30 631 H 55.2008 -3.36411 -0.6843 0
M  V30 632 N 57.6459 0.756429 -1.3826 0
M  V30 633 C 58.5939 1.89149 -1.35372 0
M  V30 634 C 59.5879 1.67691 -0.24004 0
M  V30 635 O 60.7939 1.75294 -0.408919 0
M  V30 636 H 57.1689 0.622271 -0.422236 0
M  V30 637 H 59.1399 1.88701 -2.31159 0
M  V30 638 C 57.8889 3.26599 -1.19284 0
M  V30 639 H 57.2119 3.43695 -2.0424 0
M  V30 640 H 58.6519 4.06274 -1.21316 0
M  V30 641 C 57.1109 3.3675 0.100454 0
M  V30 642 O 57.6409 3.86951 1.07851 0
M  V30 643 N 55.8469 2.90179 0.15633 0
M  V30 644 H 55.3939 2.49517 -0.640253 0
M  V30 645 H 55.3519 2.97352 1.02123 0
M  V30 646 N 59.124 1.23083 0.984299 0
M  V30 647 C 60.034 1.02515 2.11016 0
M  V30 648 C 61.05 -0.0291702 1.73976 0
M  V30 649 O 62.226 0.165434 2.00719 0
M  V30 650 C 59.291 0.614673 3.41208 0
M  V30 651 C 58.352 1.74359 3.92297 0
M  V30 652 C 57.585 1.35261 5.16275 0
M  V30 653 O 57.808 0.235136 5.69915 0
M  V30 654 O 56.742 2.17227 5.61334 0
M  V30 655 H 60.568 1.96862 2.31255 0
M  V30 656 H 58.153 1.01753 1.09392 0
M  V30 657 H 60.035 0.396518 4.1953 0
M  V30 658 H 58.71 -0.299851 3.22308 0
M  V30 659 H 57.617 2.01635 3.1511 0
M  V30 660 H 58.95 2.63629 4.15645 0
M  V30 661 N 60.6021 -1.18246 1.0419 0
M  V30 662 C 61.8321 -1.91916 0.764961 0
M  V30 663 C 62.2401 -1.76485 -0.681898 0
M  V30 664 O 61.5831 -1.09275 -1.47664 0
M  V30 665 C 61.6451 -3.4373 1.05309 0
M  V30 666 C 61.3091 -3.8294 2.4941 0
M  V30 667 C 62.3061 -3.86621 3.47592 0
M  V30 668 C 59.9911 -4.142 2.84155 0
M  V30 669 C 61.9851 -4.21013 4.78568 0
M  V30 670 C 59.6721 -4.48262 4.15337 0
M  V30 671 C 60.6701 -4.51645 5.12353 0
M  V30 672 O 60.3581 -4.84911 6.41183 0
M  V30 673 H 60.0901 -0.61606 0.278292 0
M  V30 674 H 62.6441 -1.50947 1.39299 0
M  V30 675 H 60.8741 -3.84946 0.367933 0
M  V30 676 H 62.5631 -3.9865 0.763752 0
M  V30 677 H 63.3291 -3.62607 3.22089 0
M  V30 678 H 59.2081 -4.10743 2.09311 0
M  V30 679 H 62.7521 -4.23568 5.54289 0
M  V30 680 H 58.6491 -4.71737 4.40607 0
M  V30 681 H 59.4171 -5.02809 6.45852 0
M  V30 682 N 62.0802 -0.821533 -1.34494 0
M  V30 683 C 63.3292 -0.405355 -1.97585 0
M  V30 684 C 63.6422 1.03677 -1.65863 0
M  V30 685 O 64.8482 1.55679 -2.22433 0
M  V30 686 C 63.3042 -0.673861 -3.53535 0
M  V30 687 C 62.9122 -2.12951 -3.94152 0
M  V30 688 C 64.6562 -0.32378 -4.23263 0
M  V30 689 C 62.5632 -2.34298 -5.43009 0
M  V30 690 H 61.4932 -0.147836 -0.739365 0
M  V30 691 H 64.1442 -1.00769 -1.53355 0
M  V30 692 H 62.5262 -0.00137554 -3.96 0
M  V30 693 H 63.7002 -2.84104 -3.62797 0
M  V30 694 H 62.0152 -2.44089 -3.37356 0
M  V30 695 H 64.6122 -0.461126 -5.32708 0
M  V30 696 H 64.9552 0.731586 -4.09821 0
M  V30 697 H 65.4882 -0.950786 -3.8627 0
M  V30 698 H 62.2272 -3.38335 -5.61435 0
M  V30 699 H 61.7472 -1.67687 -5.75883 0
M  V30 700 H 63.4262 -2.16588 -6.09671 0
M  V30 701 N 63.5583 1.46682 -0.576371 0
M  V30 702 C 64.5083 2.27278 0.181288 0
M  V30 703 C 65.4923 1.35497 0.867721 0
M  V30 704 O 66.6843 1.59717 0.762863 0
M  V30 705 C 63.8133 3.21703 1.19841 0
M  V30 706 C 62.8993 4.20969 0.51442 0
M  V30 707 N 63.2903 5.03999 -0.426407 0
M  V30 708 C 61.5883 4.39373 0.765963 0
M  V30 709 C 62.2893 5.75812 -0.825565 0
M  V30 710 N 61.2653 5.43315 -0.176116 0
M  V30 711 H 65.0673 2.88863 -0.541785 0
M  V30 712 H 62.5813 1.57455 -0.397697 0
M  V30 713 H 64.5783 3.78145 1.75533 0
M  V30 714 H 63.2383 2.61677 1.92238 0
M  V30 715 H 64.2493 5.11659 -0.8016 0
M  V30 716 H 60.9263 3.90502 1.47698 0
M  V30 717 H 62.3163 6.52577 -1.59976 0
M  V30 718 N 65.0364 0.313813 1.54444 0
M  V30 719 C 66.2664 -0.293491 2.04505 0
M  V30 720 C 66.6744 -1.47086 1.19005 0
M  V30 721 O 66.0174 -1.82481 0.211257 0
M  V30 722 C 66.0794 -0.800455 3.50475 0
M  V30 723 C 65.7434 0.253322 4.56297 0
M  V30 724 C 66.7404 1.08612 5.08428 0
M  V30 725 C 64.4254 0.398708 5.00715 0
M  V30 726 C 66.4194 2.05013 6.0353 0
M  V30 727 C 64.1064 1.36614 5.95634 0
M  V30 728 C 65.1044 2.19033 6.46926 0
M  V30 729 O 64.7924 3.14134 7.39983 0
M  V30 730 H 64.5244 -0.0658325 0.672787 0
M  V30 731 H 67.0784 0.455177 2.00293 0
M  V30 732 H 65.3084 -1.59987 3.52053 0
M  V30 733 H 66.9974 -1.32504 3.83663 0
M  V30 734 H 67.7634 0.984736 4.74898 0
M  V30 735 H 63.6424 -0.23289 4.60411 0
M  V30 736 H 67.1864 2.69382 6.4349 0
M  V30 737 H 63.0834 1.4682 6.28581 0
M  V30 738 H 63.8514 3.0926 7.57826 0
M  V30 739 N 66.5145 -1.57545 0.0417849 0
M  V30 740 C 67.7915 -1.83642 -0.673433 0
M  V30 741 C 68.1715 -0.928298 -1.89594 0
M  V30 742 O 67.5195 0.0129955 -2.28496 0
M  V30 743 C 67.7295 -3.33155 -1.03964 0
M  V30 744 C 69.0775 -3.99941 -1.42592 0
M  V30 745 O 70.1015 -3.37725 -1.13226 0
M  V30 746 O 68.9605 -5.09619 -1.9736 0
M  V30 747 H 66.0545 -0.757638 -0.331533 0
M  V30 748 H 68.6005 -1.69554 0.070433 0
M  V30 749 H 67.3725 -3.9093 -0.170098 0
M  V30 750 H 66.9955 -3.52396 -1.84126 0
M  V30 751 N 67.9926 0.231505 -1.5589 0
M  V30 752 C 68.9226 1.29022 -1.94617 0
M  V30 753 C 69.9036 1.4941 -0.813067 0
M  V30 754 O 71.0886 1.6176 -1.07459 0
M  V30 755 C 68.2186 2.64199 -2.25424 0
M  V30 756 C 67.1726 2.58484 -3.41131 0
M  V30 757 C 66.4986 3.97599 -3.57518 0
M  V30 758 C 67.7986 2.1413 -4.76388 0
M  V30 759 H 69.4926 0.968563 -2.83301 0
M  V30 760 H 67.0386 0.464479 -1.36303 0
M  V30 761 H 68.9916 3.38413 -2.51107 0
M  V30 762 H 67.7156 2.98032 -1.33583 0
M  V30 763 H 66.3746 1.86727 -3.15481 0
M  V30 764 H 66.0226 4.28723 -2.6307 0
M  V30 765 H 65.7226 3.94659 -4.35337 0
M  V30 766 H 67.2466 4.7349 -3.85538 0
M  V30 767 H 68.6606 2.78083 -5.01341 0
M  V30 768 H 67.0576 2.2227 -5.57419 0
M  V30 769 H 68.1276 1.09331 -4.72414 0
M  V30 770 N 69.4707 1.49531 0.497807 0
M  V30 771 C 70.4007 1.6935 1.60757 0
M  V30 772 C 71.3817 0.542218 1.61227 0
M  V30 773 O 72.5667 0.778417 1.77917 0
M  V30 774 C 69.6967 1.76298 2.99226 0
M  V30 775 C 68.6507 2.91248 3.13622 0
M  V30 776 C 67.9767 2.83312 4.53474 0
M  V30 777 C 69.2767 4.3214 2.93346 0
M  V30 778 H 70.9707 2.62263 1.44425 0
M  V30 779 H 68.5167 1.26208 0.693367 0
M  V30 780 H 70.4697 1.88749 3.76765 0
M  V30 781 H 69.1937 0.799871 3.16654 0
M  V30 782 H 67.8527 2.78404 2.38509 0
M  V30 783 H 67.5007 1.84902 4.67782 0
M  V30 784 H 67.2007 3.60465 4.64046 0
M  V30 785 H 68.7247 2.97775 5.33069 0
M  V30 786 H 70.1387 4.45649 3.60652 0
M  V30 787 H 68.5357 5.1054 3.15387 0
M  V30 788 H 69.6057 4.46363 1.89441 0
M  V30 789 N 70.9488 -0.749086 1.3866 0
M  V30 790 C 71.8588 -1.89358 1.38494 0
M  V30 791 C 72.8748 -1.71708 0.281476 0
M  V30 792 O 74.0508 -1.94554 0.520643 0
M  V30 793 C 71.1158 -3.24782 1.21316 0
M  V30 794 C 70.1768 -3.54926 2.41508 0
M  V30 795 C 69.4098 -4.83888 2.2514 0
M  V30 796 O 69.6328 -5.56592 1.24746 0
M  V30 797 O 68.5668 -5.13612 3.13826 0
M  V30 798 H 72.3928 -1.92452 2.34938 0
M  V30 799 H 69.9778 -0.894981 1.19626 0
M  V30 800 H 71.8598 -4.05739 1.13814 0
M  V30 801 H 70.5348 -3.2249 0.279592 0
M  V30 802 H 69.4418 -2.74112 2.54585 0
M  V30 803 H 70.7748 -3.61983 3.3351 0
M  V30 804 N 72.4269 -1.23603 -0.977757 0
M  V30 805 C 73.3739 -1.01954 -2.07061 0
M  V30 806 C 74.3439 0.0638697 -1.65977 0
M  V30 807 O 75.5289 -0.0887624 -1.90593 0
M  V30 808 C 72.6689 -0.619658 -3.39491 0
M  V30 809 C 71.7819 -1.77547 -3.93829 0
M  V30 810 C 70.9169 -1.32212 -5.14484 0
M  V30 811 C 69.9559 -2.44852 -5.60994 0
M  V30 812 N 69.0929 -2.00456 -6.72876 0
M  V30 813 H 73.9329 -1.95495 -2.24913 0
M  V30 814 H 71.4699 -0.973861 -1.10247 0
M  V30 815 H 73.4279 -0.368898 -4.15566 0
M  V30 816 H 72.0579 0.278752 -3.21594 0
M  V30 817 H 71.1099 -2.14016 -3.14486 0
M  V30 818 H 72.4219 -2.62219 -4.24314 0
M  V30 819 H 71.5759 -1.02965 -5.97899 0
M  V30 820 H 70.3149 -0.445808 -4.85658 0
M  V30 821 H 69.3199 -2.74871 -4.76157 0
M  V30 822 H 70.5449 -3.33024 -5.91837 0
M  V30 823 H 68.4909 -1.15208 -6.45804 0
M  V30 824 H 68.4079 -2.78687 -7.02759 0
M  V30 825 H 69.6759 -1.7432 -7.59758 0
M  V30 826 N 73.905 1.17692 -1.04816 0
M  V30 827 C 74.853 2.23632 -0.63966 0
M  V30 828 C 75.847 1.6601 0.337219 0
M  V30 829 O 77.053 1.78844 0.203693 0
M  V30 830 H 73.428 0.727949 -0.188665 0
M  V30 831 H 75.399 2.55387 -1.54337 0
M  V30 832 C 74.148 3.4769 -0.0264051 0
M  V30 833 H 73.471 3.92331 -0.769164 0
M  V30 834 H 74.911 4.23418 0.222098 0
M  V30 835 C 73.37 3.13807 1.22584 0
M  V30 836 O 73.9 3.28236 2.31569 0
M  V30 837 N 72.106 2.68065 1.12202 0
M  V30 838 H 71.653 2.56525 0.235133 0
M  V30 839 H 71.611 2.45767 1.96076 0
M  V30 840 N 75.3831 0.828654 1.34056 0
M  V30 841 C 76.6321 0.415828 1.97367 0
M  V30 842 C 76.9451 -1.02796 1.6641 0
M  V30 843 O 78.1511 -1.54497 2.23255 0
M  V30 844 C 76.6071 0.692601 3.53173 0
M  V30 845 C 76.2151 2.15038 3.93017 0
M  V30 846 C 77.9591 0.346222 4.23086 0
M  V30 847 C 75.8661 2.37174 5.41758 0
M  V30 848 H 74.7961 0.151755 0.738571 0
M  V30 849 H 77.4471 1.01581 1.52819 0
M  V30 850 H 75.8291 0.0223764 3.95994 0
M  V30 851 H 77.0031 2.86024 3.61285 0
M  V30 852 H 75.3181 2.45875 3.36057 0
M  V30 853 H 77.9151 0.48937 5.32456 0
M  V30 854 H 78.2581 -0.709842 4.10204 0
M  V30 855 H 78.7911 0.971258 3.85761 0
M  V30 856 H 75.5301 3.41308 5.59633 0
M  V30 857 H 75.0501 1.70738 5.74986 0
M  V30 858 H 76.7291 2.19818 6.08514 0
M  V30 859 N 76.8612 -1.46375 0.584142 0
M  V30 860 C 77.8092 -2.32042 -0.161047 0
M  V30 861 C 78.8032 -1.44569 -0.882966 0
M  V30 862 O 80.0092 -1.61186 -0.801191 0
M  V30 863 H 76.3842 -0.748659 -0.0708033 0
M  V30 864 H 78.3552 -2.92704 0.580269 0
M  V30 865 C 77.1042 -3.27762 -1.1605 0
M  V30 866 H 76.4272 -3.95051 -0.614419 0
M  V30 867 H 77.8672 -3.90481 -1.65228 0
M  V30 868 C 76.3262 -2.53218 -2.22221 0
M  V30 869 O 76.8562 -2.29628 -3.29597 0
M  V30 870 N 75.0622 -2.13756 -1.96868 0
M  V30 871 H 74.6092 -2.33142 -1.09557 0
M  V30 872 H 74.5672 -1.642 -2.68115 0
M  V30 873 N 78.3393 -0.321999 -1.54275 0
M  V30 874 C 79.5883 0.281931 -1.9972 0
M  V30 875 C 79.9013 1.53369 -1.21397 0
M  V30 876 O 81.1073 2.21352 -1.57211 0
M  V30 877 C 79.5633 0.5529 -3.55628 0
M  V30 878 C 79.1713 -0.681721 -4.42783 0
M  V30 879 C 80.9153 1.11687 -4.09544 0
M  V30 880 C 78.8223 -0.382742 -5.9016 0
M  V30 881 H 77.7523 0.109124 -0.746062 0
M  V30 882 H 80.4033 -0.43398 -1.78294 0
M  V30 883 H 78.7853 1.32896 -3.73035 0
M  V30 884 H 79.9593 -1.45723 -4.37151 0
M  V30 885 H 78.2743 -1.1658 -3.99748 0
M  V30 886 H 80.8713 1.35515 -5.17242 0
M  V30 887 H 81.2143 2.06575 -3.61431 0
M  V30 888 H 81.7473 0.402032 -3.95763 0
M  V30 889 H 78.4863 -1.30076 -6.42464 0
M  V30 890 H 78.0063 0.355094 -5.98748 0
M  V30 891 H 79.6853 0.00800157 -6.47 0
M  V30 892 N 79.8174 1.5752 -0.0501392 0
M  V30 893 C 81.0634 1.92936 0.624798 0
M  V30 894 C 81.3964 0.928685 1.70555 0
M  V30 895 O 80.6714 -0.0454779 1.94447 0
M  V30 896 C 80.9544 3.38737 1.22185 0
M  V30 897 C 80.8074 4.49552 0.149218 0
M  V30 898 C 82.1264 3.84913 2.13378 0
M  V30 899 H 79.2454 0.701604 0.225657 0
M  V30 900 H 81.8874 1.89671 -0.111693 0
M  V30 901 H 80.0374 3.4165 1.84953 0
M  V30 902 H 81.7094 4.58768 -0.482648 0
M  V30 903 H 79.9524 4.30638 -0.522841 0
M  V30 904 H 80.6234 5.48653 0.606966 0
M  V30 905 H 83.0994 3.8387 1.60572 0
M  V30 906 H 81.9754 4.87584 2.52097 0
M  V30 907 H 82.2364 3.21611 3.03346 0
M  V30 908 N 81.2955 -0.223234 1.56011 0
M  V30 909 C 82.7115 -0.572856 1.48965 0
M  V30 910 C 82.9115 -1.87225 0.74492 0
M  V30 911 O 81.9675 -2.50899 0.283896 0
M  V30 912 C 83.2805 -0.653646 2.9351 0
M  V30 913 C 84.8285 -0.744386 3.0402 0
M  V30 914 C 85.3035 -0.856535 4.49919 0
M  V30 915 N 86.7945 -0.9208 4.53955 0
M  V30 916 C 87.5295 -1.02726 5.64123 0
M  V30 917 N 87.0255 -1.09777 6.84047 0
M  V30 918 N 88.8185 -1.06226 5.51971 0
M  V30 919 H 80.9695 0.629462 2.02858 0
M  V30 920 H 83.2325 0.220621 0.921971 0
M  V30 921 H 82.9385 0.231518 3.50937 0
M  V30 922 H 82.8125 -1.51781 3.45315 0
M  V30 923 H 85.1995 -1.61999 2.46658 0
M  V30 924 H 85.2805 0.14541 2.55386 0
M  V30 925 H 84.9245 0.0146069 5.07898 0
M  V30 926 H 84.8545 -1.76172 4.96257 0
M  V30 927 H 87.3455 -0.876694 3.6759 0
M  V30 928 H 87.6585 -1.17872 7.63758 0
M  V30 929 H 86.0035 -1.06693 6.86762 0
M  V30 930 H 89.1945 -1.00382 4.5721 0
M  V30 931 H 89.3675 -1.14177 6.37862 0
M  V30 932 N 82.7736 -1.49793 -0.48987 0
M  V30 933 C 83.7206 -1.67281 -1.59014 0
M  V30 934 C 84.6906 -0.514177 -1.57941 0
M  V30 935 O 85.8756 -0.742533 -1.75759 0
M  V30 936 C 83.0156 -1.75569 -2.97102 0
M  V30 937 C 82.1286 -3.0281 -3.08107 0
M  V30 938 C 81.2636 -3.02008 -4.36995 0
M  V30 939 C 80.3026 -4.23782 -4.41673 0
M  V30 940 N 79.4396 -4.20826 -5.62005 0
M  V30 941 H 84.2796 -2.61224 -1.43409 0
M  V30 942 H 81.8166 -1.29508 -0.697565 0
M  V30 943 H 83.7746 -1.78354 -3.77155 0
M  V30 944 H 82.4046 -0.850827 -3.11385 0
M  V30 945 H 81.4566 -3.09584 -2.21047 0
M  V30 946 H 82.7686 -3.92801 -3.07423 0
M  V30 947 H 81.9226 -3.03418 -5.25378 0
M  V30 948 H 80.6616 -2.09815 -4.4026 0
M  V30 949 H 79.6666 -4.22604 -3.5169 0
M  V30 950 H 80.8916 -5.17181 -4.40115 0
M  V30 951 H 78.8376 -3.31476 -5.66091 0
M  V30 952 H 78.7546 -5.04564 -5.62984 0
M  V30 953 H 80.0226 -4.26355 -6.52565 0
M  V30 954 N 84.2517 0.741722 -1.39055 0
M  V30 955 C 85.6677 1.04638 -1.20512 0
M  V30 956 C 85.8677 2.01405 -0.0620218 0
M  V30 957 O 84.9237 2.45547 0.588457 0
M  V30 958 C 86.2367 1.6151 -2.53643 0
M  V30 959 C 87.7847 1.73623 -2.6043 0
M  V30 960 C 88.2597 2.33906 -3.93767 0
M  V30 961 N 89.7507 2.41323 -3.9537 0
M  V30 962 C 90.4857 2.88888 -4.95309 0
M  V30 963 N 89.9817 3.36401 -6.05645 0
M  V30 964 N 91.7747 2.88037 -4.82692 0
M  V30 965 H 83.9257 0.0998155 -2.12165 0
M  V30 966 H 86.1887 0.106907 -0.941953 0
M  V30 967 H 85.8947 0.978739 -3.37807 0
M  V30 968 H 85.7687 2.60411 -2.72885 0
M  V30 969 H 88.1557 2.36384 -1.76655 0
M  V30 970 H 88.2367 0.733945 -2.45045 0
M  V30 971 H 87.8807 1.71776 -4.7797 0
M  V30 972 H 87.8107 3.34799 -4.06469 0
M  V30 973 H 90.3017 2.07734 -3.15682 0
M  V30 974 H 90.6147 3.71186 -6.77821 0
M  V30 975 H 88.9597 3.34427 -6.09248 0
M  V30 976 H 92.1507 2.50237 -3.95599 0
M  V30 977 H 92.3237 3.24792 -5.60726 0
M  V30 978 N 85.7298 1.2412 0.971189 0
M  V30 979 C 86.6598 1.05508 2.08304 0
M  V30 980 C 87.6408 -0.0308864 1.70072 0
M  V30 981 O 88.8258 0.135521 1.93727 0
M  V30 982 C 85.9558 0.655365 3.4106 0
M  V30 983 C 84.9098 1.68971 3.93234 0
M  V30 984 C 84.2358 1.14516 5.22293 0
M  V30 985 C 85.5358 3.08487 4.21465 0
M  V30 986 H 87.2298 1.98507 2.24132 0
M  V30 987 H 84.7758 0.955821 1.07704 0
M  V30 988 H 86.7288 0.51217 4.18276 0
M  V30 989 H 85.4528 -0.31032 3.25122 0
M  V30 990 H 84.1118 1.82106 3.18171 0
M  V30 991 H 83.7598 0.170189 5.02712 0
M  V30 992 H 83.4598 1.83635 5.58168 0
M  V30 993 H 84.9838 1.01401 6.02121 0
M  V30 994 H 86.3978 2.98601 4.89398 0
M  V30 995 H 84.7948 3.74926 4.68562 0
M  V30 996 H 85.8648 3.56787 3.28376 0
M  V30 997 N 87.2079 -1.17134 1.05439 0
M  V30 998 C 88.1559 -2.23289 0.651511 0
M  V30 999 C 89.1499 -1.66186 -0.328411 0
M  V30 1000 O 90.3559 -1.78949 -0.194206 0
M  V30 1001 H 86.7309 -0.726938 0.192523 0
M  V30 1002 H 88.7019 -2.54565 1.55689 0
M  V30 1003 C 87.4509 -3.47671 0.0448436 0
M  V30 1004 H 86.7739 -3.91918 0.78996 0
M  V30 1005 H 88.2139 -4.2353 -0.19964 0
M  V30 1006 C 86.6729 -3.14453 -1.20918 0
M  V30 1007 O 87.2029 -3.29459 -2.29825 0
M  V30 1008 N 85.4089 -2.68657 -1.10779 0
M  V30 1009 H 84.9559 -2.56646 -0.221526 0
M  V30 1010 H 84.9139 -2.46804 -1.9477 0
M  V30 1011 N 88.686 -0.835752 -1.33615 0
M  V30 1012 C 90.102 -0.523139 -1.50783 0
M  V30 1013 C 90.302 0.950171 -1.77691 0
M  V30 1014 O 89.358 1.73411 -1.83534 0
M  V30 1015 C 90.671 -1.39378 -2.66448 0
M  V30 1016 C 92.219 -1.39223 -2.80332 0
M  V30 1017 C 92.694 -2.24765 -3.99055 0
M  V30 1018 N 94.185 -2.22458 -4.06284 0
M  V30 1019 C 94.92 -2.85386 -4.97336 0
M  V30 1020 N 94.416 -3.57354 -5.93523 0
M  V30 1021 N 96.209 -2.74872 -4.90308 0
M  V30 1022 H 88.36 -1.78952 -1.14411 0
M  V30 1023 H 90.623 -0.763297 -0.562212 0
M  V30 1024 H 90.329 -2.44061 -2.53234 0
M  V30 1025 H 90.203 -1.0676 -3.61776 0
M  V30 1026 H 92.59 -0.353136 -2.92979 0
M  V30 1027 H 92.671 -1.75846 -1.85773 0
M  V30 1028 H 92.315 -3.28732 -3.87167 0
M  V30 1029 H 92.245 -1.85485 -4.92852 0
M  V30 1030 H 94.736 -1.70119 -3.37443 0
M  V30 1031 H 95.049 -4.02584 -6.59656 0
M  V30 1032 H 93.394 -3.61461 -5.93608 0
M  V30 1033 H 96.585 -2.18213 -4.14126 0
M  V30 1034 H 96.758 -3.24199 -5.61069 0
M  V30 1035 N 90.1641 1.46063 -0.591896 0
M  V30 1036 C 91.5751 1.85944 -0.167822 0
M  V30 1037 C 91.9261 1.49429 1.27143 0
M  V30 1038 O 91.0511 0.913515 1.96173 0
M  V30 1039 C 91.6461 3.37489 -0.297794 0
M  V30 1040 C 90.2051 3.76332 0.0714732 0
M  V30 1041 C 89.3521 2.7006 -0.629509 0
M  V30 1042 H 92.3031 1.37087 -0.799555 0
M  V30 1043 H 92.3241 3.77532 0.474349 0
M  V30 1044 H 91.8361 3.64034 -1.3454 0
M  V30 1045 H 89.9371 3.55405 1.11886 0
M  V30 1046 H 90.0501 4.78088 -0.311245 0
M  V30 1047 H 88.4141 2.54607 -0.0687867 0
M  V30 1048 H 89.1971 2.99444 -1.67894 0
M  V30 1049 N 91.6422 0.330177 1.54103 0
M  V30 1050 C 92.5722 -0.525353 2.27513 0
M  V30 1051 C 93.5532 -1.11383 1.2856 0
M  V30 1052 O 94.7382 -1.13773 1.57383 0
M  V30 1053 C 91.8682 -1.6831 3.03791 0
M  V30 1054 C 90.8222 -1.2236 4.10137 0
M  V30 1055 C 90.1482 -2.46882 4.74293 0
M  V30 1056 C 91.4482 -0.333697 5.21233 0
M  V30 1057 H 93.1422 0.087013 2.99274 0
M  V30 1058 H 90.6882 0.0432893 1.43935 0
M  V30 1059 H 92.6412 -2.28795 3.5388 0
M  V30 1060 H 91.3652 -2.32216 2.29659 0
M  V30 1061 H 90.0242 -0.64165 3.60941 0
M  V30 1062 H 89.6722 -3.09165 3.96769 0
M  V30 1063 H 89.3722 -2.16825 5.46133 0
M  V30 1064 H 90.8962 -3.08117 5.27159 0
M  V30 1065 H 92.3102 -0.845013 5.67038 0
M  V30 1066 H 90.7072 -0.125612 5.99969 0
M  V30 1067 H 91.7772 0.633724 4.80741 0
M  V30 1068 N 93.1203 -1.57491 0.0584922 0
M  V30 1069 C 94.3483 -1.97296 -0.623037 0
M  V30 1070 C 94.7633 -0.936338 -1.63946 0
M  V30 1071 O 94.1203 0.0785981 -1.82331 0
M  V30 1072 C 94.1713 -3.37183 -1.30345 0
M  V30 1073 O 93.8923 -4.36872 -0.32773 0
M  V30 1074 C 95.3933 -3.91788 -2.07406 0
M  V30 1075 H 92.6133 -0.649153 -0.169826 0
M  V30 1076 H 95.1573 -2.04106 0.12696 0
M  V30 1077 H 93.3123 -3.31502 -2.00463 0
M  V30 1078 H 93.7263 -5.18141 -0.814269 0
M  V30 1079 H 95.2003 -4.91926 -2.50425 0
M  V30 1080 H 95.6773 -3.27609 -2.92521 0
M  V30 1081 H 96.2833 -4.00829 -1.42184 0
M  V30 1082 N 94.5984 0.214957 -1.56127 0
M  V30 1083 C 95.5284 1.2695 -1.95974 0
M  V30 1084 C 96.5094 1.48539 -0.828868 0
M  V30 1085 O 97.6944 1.60611 -1.09168 0
M  V30 1086 C 94.8244 2.61794 -2.28214 0
M  V30 1087 C 93.7784 2.54851 -3.43853 0
M  V30 1088 C 93.1044 3.93785 -3.61715 0
M  V30 1089 C 94.4044 2.09065 -4.78632 0
M  V30 1090 H 96.0984 0.93846 -2.84312 0
M  V30 1091 H 93.6444 0.449996 -1.36788 0
M  V30 1092 H 95.5974 3.35731 -2.54682 0
M  V30 1093 H 94.3214 2.96599 -1.36736 0
M  V30 1094 H 92.9804 1.8337 -3.17444 0
M  V30 1095 H 92.6284 4.25908 -2.67602 0
M  V30 1096 H 92.3284 3.90019 -4.39498 0
M  V30 1097 H 93.8524 4.69374 -3.90539 0
M  V30 1098 H 95.2664 2.7275 -5.04262 0
M  V30 1099 H 93.6634 2.16346 -5.59745 0
M  V30 1100 H 94.7334 1.04315 -4.73547 0
M  V30 1101 N 96.0765 1.50051 0.48192 0
M  V30 1102 C 97.3015 1.64508 1.26301 0
M  V30 1103 C 97.7265 0.323851 1.85291 0
M  V30 1104 O 97.0845 -0.710969 1.66778 0
M  V30 1105 C 97.1325 2.7305 2.35533 0
M  V30 1106 O 96.2365 2.3355 3.39895 0
M  V30 1107 H 95.5775 0.549978 0.372048 0
M  V30 1108 H 98.1075 1.9636 0.574786 0
M  V30 1109 H 98.1175 2.95799 2.8101 0
M  V30 1110 H 96.7925 3.68946 1.91967 0
M  V30 1111 H 95.3695 2.21205 3.00204 0
M  V30 1112 N 97.5546 -0.734337 1.39446 0
M  V30 1113 C 98.4646 -1.87879 1.40495 0
M  V30 1114 C 99.4806 -1.714 0.299672 0
M  V30 1115 O 100.657 -1.93991 0.541249 0
M  V30 1116 C 97.7216 -3.23477 1.24754 0
M  V30 1117 C 96.7826 -3.52344 2.45259 0
M  V30 1118 C 96.0156 -4.81473 2.30259 0
M  V30 1119 O 96.2386 -5.55237 1.30643 0
M  V30 1120 O 95.1726 -5.10254 3.19256 0
M  V30 1121 H 98.9986 -1.89949 2.36966 0
M  V30 1122 H 96.5836 -0.882243 1.20569 0
M  V30 1123 H 98.4656 -4.04509 1.18111 0
M  V30 1124 H 97.1406 -3.22176 0.313781 0
M  V30 1125 H 96.0476 -2.71396 2.57478 0
M  V30 1126 H 97.3806 -3.58426 3.37331 0
M  V30 1127 N 99.0327 -1.24633 -0.964593 0
M  V30 1128 C 99.9797 -1.04144 -2.05968 0
M  V30 1129 C 100.95 0.046262 -1.66036 0
M  V30 1130 O 102.135 -0.108972 -1.90489 0
M  V30 1131 C 99.2747 -0.65563 -3.38815 0
M  V30 1132 C 98.3877 -1.81714 -3.91923 0
M  V30 1133 C 97.5227 -1.37662 -5.13052 0
M  V30 1134 C 96.5617 -2.50788 -5.58365 0
M  V30 1135 N 95.6987 -2.07582 -6.70712 0
M  V30 1136 H 100.539 -1.9787 -2.22827 0
M  V30 1137 H 98.0757 -0.9855 -1.09208 0
M  V30 1138 H 100.034 -0.412954 -4.15151 0
M  V30 1139 H 98.6637 0.244627 -3.21872 0
M  V30 1140 H 97.7157 -2.1734 -3.12198 0
M  V30 1141 H 99.0277 -2.66705 -4.21509 0
M  V30 1142 H 98.1817 -1.093 -5.96773 0
M  V30 1143 H 96.9207 -0.497293 -4.85158 0
M  V30 1144 H 95.9257 -2.79906 -4.73215 0
M  V30 1145 H 97.1507 -3.39283 -5.88272 0
M  V30 1146 H 95.0967 -1.22051 -6.44546 0
M  V30 1147 H 95.0137 -2.86125 -6.99763 0
M  V30 1148 H 96.2817 -1.82369 -7.57867 0
M  V30 1149 N 100.511 1.16574 -1.06058 0
M  V30 1150 C 101.76 1.86385 -0.770944 0
M  V30 1151 C 102.073 1.82448 0.705129 0
M  V30 1152 O 103.279 2.47815 1.10905 0
M  V30 1153 C 101.735 3.34466 -1.32893 0
M  V30 1154 C 101.343 3.46883 -2.83507 0
M  V30 1155 C 103.087 4.09548 -1.11672 0
M  V30 1156 C 100.994 4.89036 -3.32562 0
M  V30 1157 H 99.9238 0.698181 -0.284709 0
M  V30 1158 H 102.575 1.31583 -1.27899 0
M  V30 1159 H 100.957 3.88859 -0.748662 0
M  V30 1160 H 102.131 3.02663 -3.47465 0
M  V30 1161 H 100.446 2.85232 -3.03368 0
M  V30 1162 H 103.043 5.14434 -1.45814 0
M  V30 1163 H 103.386 4.16264 -0.0549535 0
M  V30 1164 H 103.919 3.61387 -1.66265 0
M  V30 1165 H 100.658 4.87499 -4.38207 0
M  V30 1166 H 100.178 5.3389 -2.73351 0
M  V30 1167 H 101.857 5.57843 -3.2775 0
M  V30 1168 N 101.989 0.842826 1.3317 0
M  V30 1169 C 103.235 0.441099 1.97945 0
M  V30 1170 C 103.568 -0.998024 1.66593 0
M  V30 1171 O 102.843 -1.69839 0.947898 0
M  V30 1172 C 103.126 0.666841 3.53872 0
M  V30 1173 C 102.979 2.15352 3.94897 0
M  V30 1174 C 104.298 0.115544 4.39948 0
M  V30 1175 H 101.417 0.161739 0.719034 0
M  V30 1176 H 104.059 1.05907 1.57746 0
M  V30 1177 H 102.209 0.140828 3.88245 0
M  V30 1178 H 103.881 2.7447 3.70761 0
M  V30 1179 H 102.124 2.63653 3.44484 0
M  V30 1180 H 102.795 2.26221 5.03516 0
M  V30 1181 H 105.271 0.565213 4.12243 0
M  V30 1182 H 104.147 0.303152 5.48062 0
M  V30 1183 H 104.408 -0.980935 4.3108 0
M  V30 1184 N 103.467 -1.45747 0.599634 0
M  V30 1185 C 104.697 -2.06369 0.0977132 0
M  V30 1186 C 105.105 -1.44624 -1.21985 0
M  V30 1187 O 104.448 -0.551831 -1.75216 0
M  V30 1188 C 104.51 -3.59284 -0.124673 0
M  V30 1189 C 104.174 -4.43318 1.10987 0
M  V30 1190 C 105.171 -4.78796 2.02609 0
M  V30 1191 C 102.856 -4.84194 1.33647 0
M  V30 1192 C 104.85 -5.53997 3.15224 0
M  V30 1193 C 102.537 -5.5915 2.46565 0
M  V30 1194 C 103.535 -5.93968 3.37182 0
M  V30 1195 O 103.223 -6.67405 4.48136 0
M  V30 1196 H 102.955 -0.673122 0.0623153 0
M  V30 1197 H 105.509 -1.88104 0.824981 0
M  V30 1198 H 103.739 -3.75919 -0.906745 0
M  V30 1199 H 105.428 -4.01775 -0.577201 0
M  V30 1200 H 106.194 -4.47781 1.86325 0
M  V30 1201 H 102.073 -4.56534 0.64016 0
M  V30 1202 H 105.617 -5.81091 3.85978 0
M  V30 1203 H 101.514 -5.89579 2.62805 0
M  V30 1204 H 102.282 -6.85847 4.46717 0
M  V30 1205 N 104.945 -0.338344 -1.53925 0
M  V30 1206 C 106.193 0.259245 -2.0043 0
M  V30 1207 C 106.514 1.51484 -1.22791 0
M  V30 1208 O 105.784 1.93037 -0.33368 0
M  V30 1209 H 104.364 0.0987845 -0.740439 0
M  V30 1210 H 107.026 -0.458302 -1.89435 0
M  V30 1211 H 106.122 0.505334 -3.07982 0
M  V30 1212 N 106.423 1.57458 -0.0668435 0
M  V30 1213 C 107.373 2.0896 0.912119 0
M  V30 1214 C 108.357 0.998186 1.26195 0
M  V30 1215 O 109.549 1.26133 1.24175 0
M  V30 1216 C 106.678 2.6508 2.18145 0
M  V30 1217 C 105.764 3.81218 1.85832 0
M  V30 1218 N 106.155 4.90378 1.23948 0
M  V30 1219 C 104.453 3.9042 2.15612 0
M  V30 1220 C 105.154 5.71279 1.09616 0
M  V30 1221 N 104.13 5.19389 1.60423 0
M  V30 1222 H 107.932 2.90749 0.42924 0
M  V30 1223 H 105.446 1.6182 0.137184 0
M  V30 1224 H 107.443 3.0029 2.89192 0
M  V30 1225 H 106.103 1.84736 2.67025 0
M  V30 1226 H 107.114 5.09847 0.909731 0
M  V30 1227 H 103.791 3.21043 2.66903 0
M  V30 1228 H 105.181 6.69085 0.614425 0
M  V30 1229 N 107.901 -0.206675 1.56239 0
M  V30 1230 C 108.831 -1.25909 1.96645 0
M  V30 1231 C 109.812 -1.48097 0.836734 0
M  V30 1232 O 110.997 -1.6003 1.10019 0
M  V30 1233 C 108.127 -2.6058 2.29599 0
M  V30 1234 C 107.081 -2.53024 3.452 0
M  V30 1235 C 106.407 -3.91861 3.63798 0
M  V30 1236 C 107.707 -2.06524 4.79734 0
M  V30 1237 H 109.401 -0.923369 2.84806 0
M  V30 1238 H 106.947 -0.442735 1.37025 0
M  V30 1239 H 108.9 -3.34375 2.56459 0
M  V30 1240 H 107.624 -2.95869 1.38307 0
M  V30 1241 H 106.283 -1.81684 3.18412 0
M  V30 1242 H 105.931 -4.24483 2.69857 0
M  V30 1243 H 105.631 -3.87683 4.4156 0
M  V30 1244 H 107.155 -4.67296 3.93022 0
M  V30 1245 H 108.569 -2.70072 5.05702 0
M  V30 1246 H 106.966 -2.13374 5.60885 0
M  V30 1247 H 108.036 -1.01802 4.74093 0
M  V30 1248 N 109.379 -1.50304 -0.473955 0
M  V30 1249 C 110.656 -1.51667 -1.23518 0
M  V30 1250 C 111.036 -0.259701 -2.09496 0
M  V30 1251 O 110.384 0.756986 -2.15597 0
M  V30 1252 C 110.594 -2.81082 -2.06868 0
M  V30 1253 C 111.942 -3.31631 -2.65153 0
M  V30 1254 O 112.966 -2.82384 -2.17113 0
M  V30 1255 O 111.825 -4.17471 -3.52675 0
M  V30 1256 H 108.919 -0.60822 -0.560355 0
M  V30 1257 H 111.465 -1.62592 -0.486011 0
M  V30 1258 H 110.237 -3.64041 -1.4349 0
M  V30 1259 H 109.86 -2.73146 -2.88924 0
M  V30 1260 N 110.857 0.726932 -1.39834 0
M  V30 1261 C 112.134 1.47902 -1.28001 0
M  V30 1262 C 112.514 2.1083 0.106789 0
M  V30 1263 O 111.862 1.99242 1.11869 0
M  V30 1264 C 112.072 2.52392 -2.41038 0
M  V30 1265 C 113.42 3.18546 -2.80737 0
M  V30 1266 O 114.444 2.62708 -2.40547 0
M  V30 1267 O 113.303 4.19604 -3.50135 0
M  V30 1268 H 110.397 0.657163 -0.502062 0
M  V30 1269 H 112.943 0.760071 -1.51727 0
M  V30 1270 H 111.715 2.04329 -3.33715 0
M  V30 1271 H 111.338 3.31837 -2.19021 0
M  V30 1272 N 112.336 1.25143 0.95797 0
M  V30 1273 C 113.747 1.08851 1.51685 0
M  V30 1274 C 114.098 -0.33687 1.93286 0
M  V30 1275 O 113.223 -1.22644 1.7829 0
M  V30 1276 C 113.818 1.96978 2.75654 0
M  V30 1277 C 112.377 1.84881 3.27866 0
M  V30 1278 C 111.524 1.91329 2.0072 0
M  V30 1279 H 114.475 1.38478 0.77522 0
M  V30 1280 H 114.496 1.5078 3.4935 0
M  V30 1281 H 114.008 3.00712 2.45345 0
M  V30 1282 H 112.109 0.840182 3.63004 0
M  V30 1283 H 112.222 2.6951 3.96107 0
M  V30 1284 H 110.586 1.35174 2.15871 0
M  V30 1285 H 111.369 2.96661 1.72764 0
M  V30 1286 N 113.814 -1.1601 1.06675 0
M  V30 1287 C 114.777 -2.18724 0.685001 0
M  V30 1288 C 115.777 -1.58496 -0.271246 0
M  V30 1289 O 116.967 -1.74119 -0.0531156 0
M  V30 1290 C 114.099 -3.40899 0.00853648 0
M  V30 1291 H 115.292 -2.54011 1.59431 0
M  V30 1292 H 112.845 -1.30352 0.862441 0
M  V30 1293 H 113.58 -3.11173 -0.913337 0
M  V30 1294 H 113.365 -3.8587 0.696204 0
M  V30 1295 H 114.855 -4.16886 -0.24414 0
M  V30 1296 N 115.292 -0.849877 -1.32721 0
M  V30 1297 C 116.517 -0.463856 -2.02146 0
M  V30 1298 C 116.942 0.930449 -1.63476 0
M  V30 1299 O 116.3 1.61033 -0.832952 0
M  V30 1300 C 116.348 -0.604955 -3.55489 0
M  V30 1301 O 115.452 0.36425 -4.10788 0
M  V30 1302 H 114.793 -0.187046 -0.637111 0
M  V30 1303 H 117.323 -1.14775 -1.69375 0
M  V30 1304 H 117.333 -0.490696 -4.05038 0
M  V30 1305 H 116.008 -1.62174 -3.82978 0
M  V30 1306 H 114.585 0.206628 -3.72327 0
M  V30 1307 N 116.77 1.45427 -0.607355 0
M  V30 1308 C 117.702 2.2871 0.149752 0
M  V30 1309 C 118.715 1.39937 0.831958 0
M  V30 1310 O 119.904 1.64313 0.697385 0
M  V30 1311 C 117.004 3.15673 1.23304 0
M  V30 1312 C 116.177 4.32722 0.637996 0
M  V30 1313 C 115.236 5.00895 1.61215 0
M  V30 1314 O 114.262 5.57697 1.13854 0
M  V30 1315 N 115.464 5.00159 2.94655 0
M  V30 1316 H 118.229 2.94328 -0.564882 0
M  V30 1317 H 115.79 1.55612 -0.446823 0
M  V30 1318 H 117.782 3.58144 1.88454 0
M  V30 1319 H 116.352 2.51965 1.8502 0
M  V30 1320 H 115.572 3.93734 -0.191572 0
M  V30 1321 H 116.86 5.08321 0.220665 0
M  V30 1322 H 116.258 4.553 3.35735 0
M  V30 1323 H 114.815 5.46495 3.55228 0
M  V30 1324 N 118.248 0.346503 1.53744 0
M  V30 1325 C 119.158 -0.517293 2.28826 0
M  V30 1326 C 120.174 -1.10935 1.3405 0
M  V30 1327 O 121.35 -1.1244 1.6709 0
M  V30 1328 C 118.415 -1.65098 3.04866 0
M  V30 1329 C 117.476 -1.0884 4.15274 0
M  V30 1330 C 116.709 -2.16806 4.87679 0
M  V30 1331 O 116.932 -3.3758 4.59778 0
M  V30 1332 O 115.866 -1.80934 5.74061 0
M  V30 1333 H 119.692 0.0931396 3.03557 0
M  V30 1334 H 117.277 0.111458 1.48984 0
M  V30 1335 H 119.159 -2.31053 3.5241 0
M  V30 1336 H 117.834 -2.24717 2.32989 0
M  V30 1337 H 116.741 -0.3933 3.72027 0
M  V30 1338 H 118.074 -0.537036 4.89261 0
M  V30 1339 N 119.726 -1.57421 0.075193 0
M  V30 1340 C 120.975 -1.92794 -0.592731 0
M  V30 1341 C 121.288 -0.957478 -1.70563 0
M  V30 1342 O 122.494 -1.20417 -2.43335 0
M  V30 1343 C 120.95 -3.42495 -1.10569 0
M  V30 1344 C 120.558 -4.47994 -0.0236121 0
M  V30 1345 C 122.302 -3.86864 -1.74748 0
M  V30 1346 C 120.209 -5.88829 -0.550803 0
M  V30 1347 H 119.139 -0.719591 -0.225177 0
M  V30 1348 H 121.79 -1.82902 0.147978 0
M  V30 1349 H 120.172 -3.47471 -1.89947 0
M  V30 1350 H 121.346 -4.54637 0.751099 0
M  V30 1351 H 119.661 -4.13113 0.522159 0
M  V30 1352 H 122.258 -4.8947 -2.15229 0
M  V30 1353 H 122.601 -3.24417 -2.60882 0
M  V30 1354 H 123.134 -3.84504 -1.01986 0
M  V30 1355 H 119.873 -6.54929 0.273457 0
M  V30 1356 H 119.393 -5.85698 -1.29296 0
M  V30 1357 H 121.072 -6.38811 -1.02613 0
M  V30 1358 N 121.204 0.198386 -1.56346 0
M  V30 1359 C 122.114 1.2664 -1.97483 0
M  V30 1360 C 123.13 1.49989 -0.882002 0
M  V30 1361 O 124.306 1.62668 -1.18748 0
M  V30 1362 C 121.371 2.59141 -2.30319 0
M  V30 1363 C 120.432 2.43892 -3.53292 0
M  V30 1364 C 119.665 3.70074 -3.84553 0
M  V30 1365 O 119.888 4.74101 -3.1715 0
M  V30 1366 O 118.822 3.658 -4.7799 0
M  V30 1367 H 122.648 0.947304 -2.88548 0
M  V30 1368 H 120.233 0.403123 -1.43859 0
M  V30 1369 H 122.115 3.37352 -2.5253 0
M  V30 1370 H 120.79 2.90684 -1.42423 0
M  V30 1371 H 119.697 1.63803 -3.36332 0
M  V30 1372 H 121.03 2.17282 -4.41644 0
M  V30 1373 N 122.682 1.50554 0.465978 0
M  V30 1374 C 124.098 1.38093 0.800154 0
M  V30 1375 C 124.298 0.440988 1.96615 0
M  V30 1376 O 123.354 -0.114499 2.5224 0
M  V30 1377 C 124.667 2.79565 1.10742 0
M  V30 1378 C 126.215 2.88516 1.21357 0
M  V30 1379 C 126.69 4.30833 1.55393 0
M  V30 1380 N 128.181 4.33807 1.62375 0
M  V30 1381 C 128.916 5.40927 1.90225 0
M  V30 1382 N 128.412 6.58247 2.16062 0
M  V30 1383 N 130.205 5.28376 1.9177 0
M  V30 1384 H 122.356 2.10237 -0.302366 0
M  V30 1385 H 124.619 0.945203 -0.0727746 0
M  V30 1386 H 124.325 3.50208 0.323661 0
M  V30 1387 H 124.199 3.17125 2.04234 0
M  V30 1388 H 126.586 2.1809 1.98799 0
M  V30 1389 H 126.667 2.54492 0.258321 0
M  V30 1390 H 126.311 5.01799 0.784889 0
M  V30 1391 H 126.241 4.62347 2.52076 0
M  V30 1392 H 128.732 3.49212 1.44427 0
M  V30 1393 H 129.045 7.3569 2.36601 0
M  V30 1394 H 127.39 6.61413 2.13444 0
M  V30 1395 H 130.581 4.35715 1.71085 0
M  V30 1396 H 130.754 6.11944 2.13139 0
M  V30 1397 N 124.16 -0.719506 1.40217 0
M  V30 1398 C 125.408 -1.47641 1.3801 0
M  V30 1399 C 125.729 -1.94992 -0.018145 0
M  V30 1400 O 124.999 -1.70073 -0.972207 0
M  V30 1401 H 123.579 -0.547744 0.507923 0
M  V30 1402 H 126.241 -0.853187 1.75233 0
M  V30 1403 H 125.337 -2.35112 2.05253 0
M  V30 1404 N 125.638 -1.25649 -0.95132 0
M  V30 1405 C 126.585 -1.06323 -2.04851 0
M  V30 1406 C 127.555 0.0286491 -1.66075 0
M  V30 1407 O 128.74 -0.12917 -1.90362 0
M  V30 1408 C 125.88 -0.691529 -3.381 0
M  V30 1409 C 124.993 -1.85861 -3.89974 0
M  V30 1410 C 124.128 -1.43096 -5.11563 0
M  V30 1411 C 123.167 -2.56696 -5.55674 0
M  V30 1412 N 122.304 -2.14684 -6.68472 0
M  V30 1413 H 127.144 -2.00222 -2.20715 0
M  V30 1414 H 124.681 -0.997027 -1.08156 0
M  V30 1415 H 126.639 -0.456963 -4.1469 0
M  V30 1416 H 125.269 0.210474 -3.22113 0
M  V30 1417 H 124.321 -2.20639 -3.09875 0
M  V30 1418 H 125.633 -2.71161 -4.18657 0
M  V30 1419 H 124.787 -1.15624 -5.9558 0
M  V30 1420 H 123.526 -0.548722 -4.84603 0
M  V30 1421 H 122.531 -2.84909 -4.7022 0
M  V30 1422 H 123.756 -3.45503 -5.8464 0
M  V30 1423 H 121.702 -1.28881 -6.43215 0
M  V30 1424 H 121.619 -2.9353 -6.96689 0
M  V30 1425 H 122.887 -1.90397 -7.5589 0
M  V30 1426 N 127.117 1.15442 -1.07289 0
M  V30 1427 C 128.342 1.90638 -0.816828 0
M  V30 1428 C 128.767 1.77445 0.624083 0
M  V30 1429 O 128.125 1.10671 1.43602 0
M  V30 1430 C 128.173 3.39008 -1.22906 0
M  V30 1431 O 127.277 4.10701 -0.373975 0
M  V30 1432 H 126.618 0.593555 -0.297638 0
M  V30 1433 H 129.148 1.46198 -1.43134 0
M  V30 1434 H 129.158 3.89801 -1.20497 0
M  V30 1435 H 127.833 3.47929 -2.27856 0
M  V30 1436 H 126.41 3.70046 -0.460499 0
M  V30 1437 N 128.595 0.856903 1.32268 0
M  V30 1438 C 129.825 0.47475 2.01071 0
M  V30 1439 C 130.233 -0.933746 1.64553 0
M  V30 1440 O 129.576 -1.62114 0.863989 0
M  V30 1441 C 129.638 0.536746 3.55471 0
M  V30 1442 C 129.302 1.90453 4.15423 0
M  V30 1443 C 130.299 2.87029 4.33486 0
M  V30 1444 C 127.984 2.20229 4.51447 0
M  V30 1445 C 129.978 4.11532 4.86744 0
M  V30 1446 C 127.665 3.44984 5.0441 0
M  V30 1447 C 128.663 4.40452 5.22007 0
M  V30 1448 O 128.351 5.62998 5.73837 0
M  V30 1449 H 128.083 0.184778 0.650256 0
M  V30 1450 H 130.637 1.15615 1.69771 0
M  V30 1451 H 128.867 -0.20152 3.86175 0
M  V30 1452 H 130.556 0.169875 4.05544 0
M  V30 1453 H 131.322 2.6533 4.05986 0
M  V30 1454 H 127.201 1.46705 4.37034 0
M  V30 1455 H 130.745 4.86056 5.00395 0
M  V30 1456 H 126.642 3.66532 5.31342 0
M  V30 1457 H 127.41 5.64987 5.92226 0
M  V30 1458 N 130.073 -1.45103 0.615059 0
M  V30 1459 C 131.003 -2.33339 -0.0865619 0
M  V30 1460 C 131.984 -1.4727 -0.851209 0
M  V30 1461 O 133.169 -1.76026 -0.820281 0
M  V30 1462 C 130.299 -3.30095 -1.07956 0
M  V30 1463 C 129.253 -4.25858 -0.427628 0
M  V30 1464 C 128.579 -5.12361 -1.5294 0
M  V30 1465 C 129.879 -5.18165 0.655944 0
M  V30 1466 H 131.573 -2.92254 0.650224 0
M  V30 1467 H 129.119 -1.40532 0.314138 0
M  V30 1468 H 131.072 -3.90698 -1.57901 0
M  V30 1469 H 129.796 -2.69355 -1.84703 0
M  V30 1470 H 128.455 -3.66564 0.0510292 0
M  V30 1471 H 128.103 -4.47984 -2.28734 0
M  V30 1472 H 127.803 -5.77238 -1.09865 0
M  V30 1473 H 129.327 -5.75833 -2.03098 0
M  V30 1474 H 130.741 -5.72796 0.240257 0
M  V30 1475 H 129.138 -5.91559 1.00888 0
M  V30 1476 H 130.208 -4.60144 1.52957 0
M  V30 1477 N 131.551 -0.354651 -1.53558 0
M  V30 1478 C 132.967 -0.00315426 -1.596 0
M  V30 1479 C 133.167 1.47741 -1.37021 0
M  V30 1480 O 132.223 2.23759 -1.16996 0
M  V30 1481 C 133.536 -0.44929 -2.97325 0
M  V30 1482 C 135.084 -0.402578 -3.104 0
M  V30 1483 C 135.559 -0.824355 -4.5052 0
M  V30 1484 N 137.05 -0.778979 -4.56603 0
M  V30 1485 C 137.785 -1.07715 -5.63192 0
M  V30 1486 N 137.281 -1.44405 -6.77583 0
M  V30 1487 N 139.074 -1.00066 -5.53121 0
M  V30 1488 H 131.225 -1.31893 -1.66487 0
M  V30 1489 H 133.488 -0.538388 -0.780284 0
M  V30 1490 H 133.194 -1.48202 -3.1895 0
M  V30 1491 H 133.068 0.169772 -3.76818 0
M  V30 1492 H 135.455 0.621004 -2.88492 0
M  V30 1493 H 135.536 -1.05699 -2.32941 0
M  V30 1494 H 135.18 -1.846 -4.73165 0
M  V30 1495 H 135.11 -0.147304 -5.26394 0
M  V30 1496 H 137.601 -0.508528 -3.74463 0
M  V30 1497 H 137.914 -1.65612 -7.54846 0
M  V30 1498 H 136.259 -1.4826 -6.79002 0
M  V30 1499 H 139.45 -0.713293 -4.62633 0
M  V30 1500 H 139.623 -1.23638 -6.36096 0
M  V30 1501 N 133.029 1.57378 -0.0835403 0
M  V30 1502 C 133.959 2.1641 0.87686 0
M  V30 1503 C 134.94 1.09429 1.30228 0
M  V30 1504 O 136.125 1.37516 1.37124 0
M  V30 1505 C 133.255 2.73517 2.14022 0
M  V30 1506 C 132.209 3.85769 1.85381 0
M  V30 1507 C 131.535 4.29529 3.18448 0
M  V30 1508 C 132.835 5.09486 1.14984 0
M  V30 1509 H 134.529 2.96914 0.385059 0
M  V30 1510 H 132.075 1.42823 0.18377 0
M  V30 1511 H 134.028 3.13463 2.81636 0
M  V30 1512 H 132.752 1.90252 2.65465 0
M  V30 1513 H 131.411 3.46345 1.20169 0
M  V30 1514 H 131.059 3.43169 3.67755 0
M  V30 1515 H 130.759 5.05204 3.00071 0
M  V30 1516 H 132.283 4.72099 3.8724 0
M  V30 1517 H 133.697 5.46674 1.72687 0
M  V30 1518 H 132.094 5.90515 1.06826 0
M  V30 1519 H 133.164 4.84724 0.130749 0
M  V30 1520 N 134.507 -0.190092 1.56449 0
M  V30 1521 C 135.923 -0.54113 1.50146 0
M  V30 1522 C 136.123 -1.85603 0.784465 0
M  V30 1523 O 135.179 -2.5024 0.337051 0
M  V30 1524 C 136.492 -0.591241 2.9483 0
M  V30 1525 C 138.04 -0.679732 3.0553 0
M  V30 1526 C 138.515 -0.760908 4.51635 0
M  V30 1527 N 140.006 -0.824302 4.55806 0
M  V30 1528 C 140.741 -0.907365 5.66175 0
M  V30 1529 N 140.237 -0.952422 6.86222 0
M  V30 1530 N 142.03 -0.94494 5.541 0
M  V30 1531 H 134.181 0.67235 2.01478 0
M  V30 1532 H 136.444 0.240127 0.917084 0
M  V30 1533 H 136.15 0.305905 3.50367 0
M  V30 1534 H 136.024 -1.44422 3.48457 0
M  V30 1535 H 138.411 -1.56731 2.50039 0
M  V30 1536 H 138.492 0.199549 2.5502 0
M  V30 1537 H 138.136 0.122336 5.07753 0
M  V30 1538 H 138.066 -1.65606 4.99882 0
M  V30 1539 H 140.557 -0.798526 3.69367 0
M  V30 1540 H 140.87 -1.01645 7.66086 0
M  V30 1541 H 139.215 -0.921014 6.8887 0
M  V30 1542 H 142.406 -0.906612 4.59236 0
M  V30 1543 H 142.579 -1.00622 6.4014 0
M  V30 1544 N 135.985 -1.50799 -0.457987 0
M  V30 1545 C 137.396 -1.55152 -1.0385 0
M  V30 1546 C 137.747 -0.362719 -1.92818 0
M  V30 1547 O 136.872 0.522915 -2.09987 0
M  V30 1548 C 137.467 -2.81173 -1.89017 0
M  V30 1549 C 136.026 -2.88164 -2.42154 0
M  V30 1550 C 135.173 -2.49591 -1.20829 0
M  V30 1551 H 138.124 -1.56874 -0.240068 0
M  V30 1552 H 138.145 -2.63769 -2.74238 0
M  V30 1553 H 137.657 -3.67677 -1.24238 0
M  V30 1554 H 135.758 -2.06042 -3.10447 0
M  V30 1555 H 135.871 -3.91356 -2.76364 0
M  V30 1556 H 134.235 -2.02322 -1.54719 0
M  V30 1557 H 135.018 -3.38418 -0.576927 0
M  V30 1558 N 137.463 0.71206 -1.40597 0
M  V30 1559 C 138.74 1.46536 -1.29563 0
M  V30 1560 C 139.12 2.10931 0.0844217 0
M  V30 1561 O 138.468 2.00418 1.0975 0
M  V30 1562 C 138.678 2.49821 -2.43701 0
M  V30 1563 C 140.026 3.15551 -2.841 0
M  V30 1564 O 141.05 2.60142 -2.4332 0
M  V30 1565 O 139.909 4.15867 -3.54566 0
M  V30 1566 H 137.003 0.651801 -0.509004 0
M  V30 1567 H 139.549 0.743935 -1.52524 0
M  V30 1568 H 138.321 2.00778 -3.35863 0
M  V30 1569 H 137.944 3.29495 -2.22528 0
M  V30 1570 N 138.941 1.26152 0.944643 0
M  V30 1571 C 140.357 1.03189 1.21754 0
M  V30 1572 C 140.557 -0.245112 2.00004 0
M  V30 1573 O 139.613 -0.955176 2.33736 0
M  V30 1574 C 140.926 2.26119 1.98219 0
M  V30 1575 C 142.474 2.30984 2.11224 0
M  V30 1576 C 142.949 3.53597 2.91089 0
M  V30 1577 N 144.44 3.54053 2.98664 0
M  V30 1578 C 145.175 4.45593 3.60881 0
M  V30 1579 N 144.671 5.47416 4.24626 0
M  V30 1580 N 146.464 4.33252 3.58119 0
M  V30 1581 H 138.615 2.08177 0.421437 0
M  V30 1582 H 140.878 0.914723 0.248969 0
M  V30 1583 H 140.584 3.18984 1.48128 0
M  V30 1584 H 140.458 2.3009 2.98895 0
M  V30 1585 H 142.845 1.38635 2.60508 0
M  V30 1586 H 142.926 2.31026 1.09821 0
M  V30 1587 H 142.57 4.46273 2.42493 0
M  V30 1588 H 142.5 3.50802 3.92741 0
M  V30 1589 H 144.991 2.80403 2.53343 0
M  V30 1590 H 145.304 6.13459 4.69987 0
M  V30 1591 H 143.649 5.51278 4.23223 0
M  V30 1592 H 146.84 3.52924 3.0751 0
M  V30 1593 H 147.013 5.04786 4.06319 0
M  V30 1594 N 140.419 -1.14872 1.07899 0
M  V30 1595 C 141.665 -1.86064 0.806725 0
M  V30 1596 C 141.998 -1.82434 -0.665706 0
M  V30 1597 O 141.273 -1.25138 -1.48899 0
M  V30 1598 C 141.556 -3.34929 1.32267 0
M  V30 1599 C 141.409 -3.47161 2.86006 0
M  V30 1600 C 142.728 -4.29863 0.943717 0
M  V30 1601 H 139.847 -0.675591 0.294526 0
M  V30 1602 H 142.489 -1.34925 1.33773 0
M  V30 1603 H 140.639 -3.78611 0.870974 0
M  V30 1604 H 142.311 -3.12302 3.39507 0
M  V30 1605 H 140.554 -2.88539 3.23925 0
M  V30 1606 H 141.225 -4.51777 3.17177 0
M  V30 1607 H 143.701 -3.9417 1.33302 0
M  V30 1608 H 142.577 -5.32494 1.33198 0
M  V30 1609 H 142.838 -4.41846 -0.149796 0
M  V30 1610 N 141.898 -0.863906 -1.31812 0
M  V30 1611 C 142.861 -0.320212 -2.26952 0
M  V30 1612 C 143.861 0.525369 -1.51975 0
M  V30 1613 O 145.051 0.335547 -1.70938 0
M  V30 1614 C 142.183 0.545919 -3.365 0
M  V30 1615 H 143.376 -1.16004 -2.76556 0
M  V30 1616 H 140.929 -0.638995 -1.42641 0
M  V30 1617 H 141.664 1.40718 -2.92179 0
M  V30 1618 H 141.449 -0.0594674 -3.92055 0
M  V30 1619 H 142.939 0.918796 -4.07367 0
M  V30 1620 N 143.376 1.44774 -0.622745 0
M  V30 1621 C 144.309 2.27792 0.136329 0
M  V30 1622 C 145.287 1.38041 0.859264 0
M  V30 1623 O 146.471 1.67478 0.86506 0
M  V30 1624 C 143.598 3.16776 1.19878 0
M  V30 1625 C 142.644 4.22575 0.57731 0
M  V30 1626 S 143.477 5.31825 -0.626294 0
M  V30 1627 C 144.633 6.24377 0.436378 0
M  V30 1628 H 144.866 2.91824 -0.567967 0
M  V30 1629 H 142.399 1.48838 -0.410677 0
M  V30 1630 H 144.357 3.68596 1.80686 0
M  V30 1631 H 143.018 2.5198 1.87523 0
M  V30 1632 H 142.211 4.84818 1.37721 0
M  V30 1633 H 141.813 3.73974 0.0440439 0
M  V30 1634 H 144.105 6.64689 1.31128 0
M  V30 1635 H 145.048 7.07941 -0.150271 0
M  V30 1636 H 145.456 5.59381 0.758513 0
M  V30 1637 N 144.854 0.36279 1.53368 0
M  V30 1638 C 145.786 -0.519668 2.23231 0
M  V30 1639 C 146.799 -1.04844 1.24546 0
M  V30 1640 O 147.988 -0.955296 1.50786 0
M  V30 1641 C 145.088 -1.72995 2.9142 0
M  V30 1642 C 144.261 -1.33316 4.16588 0
M  V30 1643 C 143.32 -2.40521 4.68013 0
M  V30 1644 O 142.346 -2.03027 5.3176 0
M  V30 1645 N 143.548 -3.72065 4.45587 0
M  V30 1646 H 146.313 0.078751 2.99597 0
M  V30 1647 H 143.874 0.187833 1.60807 0
M  V30 1648 H 145.866 -2.44184 3.22733 0
M  V30 1649 H 144.436 -2.2353 2.18525 0
M  V30 1650 H 143.656 -0.451236 3.91609 0
M  V30 1651 H 144.944 -1.04432 4.97967 0
M  V30 1652 H 144.342 -4.05304 3.94646 0
M  V30 1653 H 142.899 -4.39366 4.81457 0
M  V30 1654 N 146.332 -1.57332 0.0918853 0
M  V30 1655 C 147.609 -1.85691 -0.614668 0
M  V30 1656 C 147.989 -0.988146 -1.86545 0
M  V30 1657 O 147.337 -0.0597055 -2.28422 0
M  V30 1658 C 147.547 -3.36294 -0.933126 0
M  V30 1659 C 148.895 -4.04275 -1.29796 0
M  V30 1660 O 149.919 -3.41157 -1.02424 0
M  V30 1661 O 148.778 -5.1564 -1.81047 0
M  V30 1662 H 145.872 -0.767802 -0.307261 0
M  V30 1663 H 148.418 -1.69244 0.12434 0
M  V30 1664 H 147.19 -3.91273 -0.0456404 0
M  V30 1665 H 146.813 -3.58076 -1.72822 0
M  V30 1666 N 147.81 0.181792 -1.56548 0
M  V30 1667 C 148.773 1.20894 -1.94724 0
M  V30 1668 C 149.773 1.37738 -0.829747 0
M  V30 1669 O 150.963 1.35323 -1.09697 0
M  V30 1670 C 148.095 2.57593 -2.23291 0
M  V30 1671 H 149.288 0.882275 -2.86629 0
M  V30 1672 H 146.841 0.423838 -1.50444 0
M  V30 1673 H 147.576 2.95291 -1.34067 0
M  V30 1674 H 147.361 2.46735 -3.04736 0
M  V30 1675 H 148.851 3.31637 -2.53785 0
M  V30 1676 N 149.288 1.51039 0.449983 0
M  V30 1677 C 150.516 1.66869 1.2232 0
M  V30 1678 C 150.931 0.360727 1.85322 0
M  V30 1679 O 150.288 -0.659531 1.70166 0
M  V30 1680 C 150.339 2.77524 2.31652 0
M  V30 1681 O 150.06 4.03252 1.7123 0
M  V30 1682 C 151.561 3.04512 3.2216 0
M  V30 1683 H 148.781 0.560326 0.369155 0
M  V30 1684 H 151.325 1.97385 0.534719 0
M  V30 1685 H 149.48 2.49642 2.96239 0
M  V30 1686 H 149.894 4.64609 2.43389 0
M  V30 1687 H 151.368 3.85551 3.95038 0
M  V30 1688 H 151.845 2.16415 3.8218 0
M  V30 1689 H 152.451 3.34005 2.63288 0
M  V30 1690 N 150.766 -0.704594 1.40972 0
M  V30 1691 C 151.729 -1.80035 1.41845 0
M  V30 1692 C 152.729 -1.57774 0.310474 0
M  V30 1693 O 153.919 -1.64613 0.56992 0
M  V30 1694 C 151.051 -3.18284 1.22098 0
M  V30 1695 H 152.244 -1.80658 2.3938 0
M  V30 1696 H 149.797 -0.911329 1.26982 0
M  V30 1697 H 150.532 -3.23306 0.253672 0
M  V30 1698 H 150.317 -3.35843 2.02366 0
M  V30 1699 H 151.807 -3.98289 1.25522 0
M  V30 1700 N 152.244 -1.26651 -0.937939 0
M  V30 1701 C 153.176 -1.04283 -2.04102 0
M  V30 1702 C 154.189 -0.00221014 -1.628 0
M  V30 1703 O 155.378 -0.242645 -1.76843 0
M  V30 1704 C 152.478 -0.557846 -3.34277 0
M  V30 1705 C 151.651 -1.66843 -4.04329 0
M  V30 1706 C 150.71 -1.18095 -5.12777 0
M  V30 1707 O 149.736 -1.87865 -5.37304 0
M  V30 1708 N 150.938 -0.0311006 -5.80492 0
M  V30 1709 H 153.703 -1.9927 -2.23856 0
M  V30 1710 H 151.264 -1.1808 -1.10764 0
M  V30 1711 H 153.256 -0.215836 -4.04124 0
M  V30 1712 H 151.826 0.298523 -3.11171 0
M  V30 1713 H 151.046 -2.18123 -3.28353 0
M  V30 1714 H 152.334 -2.41408 -4.47883 0
M  V30 1715 H 151.732 0.551486 -5.63005 0
M  V30 1716 H 150.289 0.251809 -6.51313 0
M  V30 1717 N 153.722 1.14298 -1.08507 0
M  V30 1718 C 154.655 2.18447 -0.660004 0
M  V30 1719 C 155.633 1.59242 0.328749 0
M  V30 1720 O 156.817 1.87062 0.232367 0
M  V30 1721 C 153.944 3.38688 0.0290807 0
M  V30 1722 C 152.99 4.1646 -0.919982 0
M  V30 1723 S 153.823 4.77334 -2.42718 0
M  V30 1724 C 154.979 6.00931 -1.75024 0
M  V30 1725 H 155.212 2.54166 -1.54231 0
M  V30 1726 H 152.745 1.25446 -0.900149 0
M  V30 1727 H 154.703 4.08342 0.420378 0
M  V30 1728 H 153.364 3.01289 0.887895 0
M  V30 1729 H 152.557 5.02529 -0.384751 0
M  V30 1730 H 152.159 3.52414 -1.25223 0
M  V30 1731 H 154.451 6.69017 -1.06877 0
M  V30 1732 H 155.394 6.59044 -2.58971 0
M  V30 1733 H 155.802 5.51089 -1.22317 0
M  V30 1734 N 155.201 0.870884 1.31352 0
M  V30 1735 C 156.164 0.332243 2.26779 0
M  V30 1736 C 157.164 -0.517302 1.52252 0
M  V30 1737 O 158.354 -0.326477 1.71113 0
M  V30 1738 C 155.486 -0.528066 3.36785 0
M  V30 1739 H 156.679 1.17469 2.75937 0
M  V30 1740 H 154.232 0.64655 1.423 0
M  V30 1741 H 154.967 -1.39167 2.92922 0
M  V30 1742 H 154.752 0.0802582 3.92018 0
M  V30 1743 H 156.242 -0.897179 4.07849 0
M  V30 1744 N 156.679 -1.44442 0.630414 0
M  V30 1745 C 157.612 -2.27862 -0.124247 0
M  V30 1746 C 158.59 -1.38495 -0.851931 0
M  V30 1747 O 159.774 -1.67935 -0.856166 0
M  V30 1748 C 156.901 -3.17407 -1.18197 0
M  V30 1749 C 155.947 -4.22875 -0.554892 0
M  V30 1750 S 156.78 -5.31485 0.654489 0
M  V30 1751 C 157.936 -6.246 -0.40326 0
M  V30 1752 H 158.169 -2.91519 0.583435 0
M  V30 1753 H 155.702 -1.48618 0.418565 0
M  V30 1754 H 157.66 -3.69549 -1.78728 0
M  V30 1755 H 156.321 -2.52971 -1.86184 0
M  V30 1756 H 155.514 -4.85542 -1.35148 0
M  V30 1757 H 155.116 -3.73992 -0.0242105 0
M  V30 1758 H 157.408 -6.65375 -1.27602 0
M  V30 1759 H 158.351 -7.07851 0.187813 0
M  V30 1760 H 158.759 -5.59775 -0.728837 0
M  V30 1761 N 158.157 -0.370918 -1.53173 0
M  V30 1762 C 159.087 0.464847 -2.28826 0
M  V30 1763 C 160.068 1.07936 -1.31468 0
M  V30 1764 O 161.253 1.0956 -1.60344 0
M  V30 1765 C 158.383 1.60196 -3.08147 0
M  V30 1766 C 157.337 1.11443 -4.13237 0
M  V30 1767 C 156.663 2.3422 -4.80672 0
M  V30 1768 C 157.963 0.195384 -5.21934 0
M  V30 1769 H 159.657 -0.166329 -2.98938 0
M  V30 1770 H 157.203 -0.0814359 -1.4377 0
M  V30 1771 H 159.156 2.19332 -3.59822 0
M  V30 1772 H 157.88 2.26045 -2.35735 0
M  V30 1773 H 156.539 0.545727 -3.62515 0
M  V30 1774 H 156.187 2.98537 -4.04827 0
M  V30 1775 H 155.887 2.02269 -5.51689 0
M  V30 1776 H 157.411 2.94032 -5.35143 0
M  V30 1777 H 158.825 0.694375 -5.69079 0
M  V30 1778 H 157.222 -0.0335027 -6.00091 0
M  V30 1779 H 158.292 -0.760961 -4.78892 0
M  V30 1780 N 159.635 1.57281 -0.100228 0
M  V30 1781 C 160.567 2.11342 0.886972 0
M  V30 1782 C 161.58 1.05182 1.24261 0
M  V30 1783 O 162.769 1.32613 1.19483 0
M  V30 1784 C 159.869 2.5825 2.19454 0
M  V30 1785 C 159.042 3.88302 2.01346 0
M  V30 1786 C 158.101 4.21004 3.15661 0
M  V30 1787 O 157.127 4.9014 2.89398 0
M  V30 1788 N 158.329 3.76818 4.41575 0
M  V30 1789 H 161.094 2.96668 0.425216 0
M  V30 1790 H 158.655 1.61678 0.0847334 0
M  V30 1791 H 160.647 2.7717 2.94888 0
M  V30 1792 H 159.217 1.77907 2.57037 0
M  V30 1793 H 158.437 3.7848 1.10212 0
M  V30 1794 H 159.725 4.73375 1.8653 0
M  V30 1795 H 159.123 3.2102 4.65792 0
M  V30 1796 H 157.68 4.00882 5.13942 0
M  V30 1797 N 161.113 -0.173488 1.56642 0
M  V30 1798 C 162.36 -0.890465 1.81871 0
M  V30 1799 C 162.688 -1.82339 0.67696 0
M  V30 1800 O 161.943 -1.92795 -0.335926 0
M  V30 1801 C 162.242 -1.72069 3.13252 0
M  V30 1802 C 161.908 -0.936878 4.41059 0
M  V30 1803 C 160.57 -0.720545 4.75775 0
M  V30 1804 C 162.922 -0.386919 5.19762 0
M  V30 1805 C 160.25 0.0568829 5.86672 0
M  V30 1806 C 162.602 0.37741 6.31473 0
M  V30 1807 C 161.266 0.604563 6.64757 0
M  V30 1808 H 160.536 -0.325844 0.665512 0
M  V30 1809 H 163.183 -0.155527 1.90867 0
M  V30 1810 H 161.488 -2.52496 2.99588 0
M  V30 1811 H 163.185 -2.27844 3.29982 0
M  V30 1812 H 159.775 -1.11553 4.13828 0
M  V30 1813 H 163.959 -0.541398 4.93338 0
M  V30 1814 H 159.215 0.242635 6.10918 0
M  V30 1815 H 163.389 0.810825 6.91664 0
M  V30 1816 H 161.016 1.20885 7.50527 0
M  V30 1817 N 162.591 -1.51276 -0.441967 0
M  V30 1818 C 163.84 -1.6295 -1.18871 0
M  V30 1819 C 164.153 -0.349312 -1.92456 0
M  V30 1820 O 165.359 -0.345355 -2.69295 0
M  V30 1821 C 163.815 -2.87759 -2.16155 0
M  V30 1822 C 163.423 -4.22764 -1.48239 0
M  V30 1823 C 165.167 -3.08788 -2.91291 0
M  V30 1824 C 163.074 -5.38728 -2.4398 0
M  V30 1825 H 162.004 -0.606913 -0.447406 0
M  V30 1826 H 164.655 -1.77739 -0.456205 0
M  V30 1827 H 163.037 -2.66593 -2.92821 0
M  V30 1828 H 164.211 -4.54293 -0.771635 0
M  V30 1829 H 162.526 -4.07575 -0.852741 0
M  V30 1830 H 165.123 -3.92599 -3.63002 0
M  V30 1831 H 165.466 -2.21679 -3.5237 0
M  V30 1832 H 165.999 -3.30272 -2.21733 0
M  V30 1833 H 162.738 -6.28082 -1.87598 0
M  V30 1834 H 162.258 -5.1158 -3.13123 0
M  V30 1835 H 163.937 -5.70489 -3.05207 0
M  V30 1836 N 164.069 0.697108 -1.41344 0
M  V30 1837 C 165.294 1.49096 -1.44171 0
M  V30 1838 C 165.719 1.88038 -0.0481568 0
M  V30 1839 O 165.077 1.54525 0.948243 0
M  V30 1840 C 165.125 2.73088 -2.3549 0
M  V30 1841 O 164.229 3.70514 -1.81088 0
M  V30 1842 H 163.57 0.448801 -0.489361 0
M  V30 1843 H 166.1 0.856992 -1.85787 0
M  V30 1844 H 166.11 3.21413 -2.51312 0
M  V30 1845 H 164.785 2.44081 -3.36745 0
M  V30 1846 H 163.362 3.29441 -1.74708 0
M  V30 1847 N 165.547 1.27147 0.931209 0
M  V30 1848 C 166.772 1.16191 1.71797 0
M  V30 1849 C 167.197 -0.278004 1.86034 0
M  V30 1850 O 166.555 -1.20137 1.35782 0
M  V30 1851 C 166.603 1.84673 3.09723 0
M  V30 1852 O 165.707 1.14231 3.96264 0
M  V30 1853 H 165.048 0.404303 0.526721 0
M  V30 1854 H 167.578 1.68152 1.1656 0
M  V30 1855 H 167.588 1.91893 3.60057 0
M  V30 1856 H 166.263 2.89421 2.98677 0
M  V30 1857 H 164.84 1.15056 3.54706 0
M  V30 1858 N 167.025 -1.13721 1.09112 0
M  V30 1859 C 168.273 -1.84559 0.823562 0
M  V30 1860 C 168.594 -1.83754 -0.652658 0
M  V30 1861 O 167.864 -1.29102 -1.47342 0
M  V30 1862 H 166.444 -0.683376 0.301673 0
M  V30 1863 H 169.106 -1.37771 1.37859 0
M  V30 1864 H 168.202 -2.8917 1.17419 0
M  V30 1865 N 168.503 -0.877838 -1.30888 0
M  V30 1866 C 169.433 -0.35534 -2.3078 0
M  V30 1867 C 170.414 0.557994 -1.60687 0
M  V30 1868 O 171.599 0.473355 -1.88343 0
M  V30 1869 C 168.729 0.437221 -3.44537 0
M  V30 1870 C 167.683 -0.383715 -4.26276 0
M  V30 1871 C 167.009 0.535014 -5.32017 0
M  V30 1872 C 168.309 -1.62201 -4.96476 0
M  V30 1873 H 170.003 -1.19007 -2.74732 0
M  V30 1874 H 167.549 -0.573698 -1.32078 0
M  V30 1875 H 169.502 0.813334 -4.13477 0
M  V30 1876 H 168.226 1.30553 -2.99372 0
M  V30 1877 H 166.885 -0.741874 -3.59015 0
M  V30 1878 H 166.533 1.40083 -4.831 0
M  V30 1879 H 166.233 -0.0104211 -5.87599 0
M  V30 1880 H 167.757 0.907799 -6.03814 0
M  V30 1881 H 169.171 -1.31689 -5.5797 0
M  V30 1882 H 167.568 -2.10711 -5.61891 0
M  V30 1883 H 168.638 -2.37044 -4.23011 0
M  V30 1884 N 169.982 1.44106 -0.638065 0
M  V30 1885 C 171.207 2.0685 -0.150916 0
M  V30 1886 C 171.632 1.47417 1.16833 0
M  V30 1887 O 170.99 0.578264 1.71831 0
M  V30 1888 C 171.038 3.60555 -0.05708 0
M  V30 1889 O 170.142 4.00465 0.984972 0
M  V30 1890 H 169.483 0.658151 -0.0879399 0
M  V30 1891 H 172.013 1.84865 -0.876707 0
M  V30 1892 H 172.023 4.07789 0.131232 0
M  V30 1893 H 170.698 4.03193 -1.02021 0
M  V30 1894 H 169.275 3.64849 0.770672 0
M  V30 1895 N 171.46 0.379036 1.52974 0
M  V30 1896 C 172.407 -0.461048 2.26148 0
M  V30 1897 C 173.377 -1.06637 1.27349 0
M  V30 1898 O 174.562 -1.09633 1.56157 0
M  V30 1899 C 171.702 -1.58782 3.06402 0
M  V30 1900 C 170.815 -1.00636 4.20115 0
M  V30 1901 C 169.95 -2.10334 4.87784 0
M  V30 1902 C 168.989 -1.49724 5.93506 0
M  V30 1903 N 168.126 -2.5331 6.54812 0
M  V30 1904 H 172.966 0.169429 2.97518 0
M  V30 1905 H 170.503 0.0953806 1.4679 0
M  V30 1906 H 172.461 -2.25174 3.51215 0
M  V30 1907 H 171.091 -2.18876 2.37261 0
M  V30 1908 H 170.143 -0.232332 3.7969 0
M  V30 1909 H 171.455 -0.523343 4.96047 0
M  V30 1910 H 170.609 -2.84519 5.35849 0
M  V30 1911 H 169.348 -2.61992 4.11353 0
M  V30 1912 H 168.353 -0.740598 5.44789 0
M  V30 1913 H 169.578 -0.988732 6.71864 0
M  V30 1914 H 167.524 -3.04156 5.81227 0
M  V30 1915 H 167.441 -2.09734 7.26325 0
M  V30 1916 H 168.709 -3.27155 7.07524 0
M  V30 1917 N 172.938 -1.57226 0.108567 0
M  V30 1918 C 174.184 -1.95121 -0.552761 0
M  V30 1919 C 174.517 -0.991345 -1.66991 0
M  V30 1920 O 173.792 -0.0267211 -1.94482 0
M  V30 1921 C 174.075 -3.43039 -1.09528 0
M  V30 1922 C 173.928 -4.49797 0.0177332 0
M  V30 1923 C 175.247 -3.92567 -1.98945 0
M  V30 1924 H 172.366 -0.709496 -0.199461 0
M  V30 1925 H 175.008 -1.89126 0.182011 0
M  V30 1926 H 173.158 -3.48279 -1.72146 0
M  V30 1927 H 174.83 -4.56661 0.652584 0
M  V30 1928 H 173.073 -4.284 0.682309 0
M  V30 1929 H 173.744 -5.50528 -0.402919 0
M  V30 1930 H 176.22 -3.89565 -1.46214 0
M  V30 1931 H 175.096 -4.96605 -2.33827 0
M  V30 1932 H 175.357 -3.32648 -2.91201 0
M  V30 1933 N 174.416 0.165178 -1.56732 0
M  V30 1934 C 175.379 1.18822 -1.95995 0
M  V30 1935 C 176.379 1.3685 -0.84431 0
M  V30 1936 O 177.569 1.34152 -1.11126 0
M  V30 1937 C 174.701 2.5521 -2.26011 0
M  V30 1938 H 175.894 0.851825 -2.87548 0
M  V30 1939 H 173.447 0.407857 -1.50885 0
M  V30 1940 H 174.182 2.93852 -1.37191 0
M  V30 1941 H 173.967 2.43489 -3.07336 0
M  V30 1942 H 175.457 3.28927 -2.57288 0
M  V30 1943 N 175.894 1.51508 0.433938 0
M  V30 1944 C 177.14 1.64588 1.18484 0
M  V30 1945 C 177.473 0.362666 1.90784 0
M  V30 1946 O 176.748 -0.637892 1.83742 0
M  V30 1947 C 177.031 2.85149 2.19913 0
M  V30 1948 C 176.884 4.23456 1.51674 0
M  V30 1949 C 178.203 3.01227 3.20858 0
M  V30 1950 H 175.322 0.598994 0.429389 0
M  V30 1951 H 177.964 1.84002 0.473647 0
M  V30 1952 H 176.114 2.68729 2.80566 0
M  V30 1953 H 177.786 4.51552 0.943322 0
M  V30 1954 H 176.029 4.25998 0.819035 0
M  V30 1955 H 176.7 5.03812 2.2556 0
M  V30 1956 H 179.176 3.16382 2.70263 0
M  V30 1957 H 178.052 3.87141 3.89118 0
M  V30 1958 H 178.313 2.13447 3.8716 0
M  V30 1959 N 177.372 -0.689602 1.41712 0
M  V30 1960 C 178.783 -1.26973 1.36875 0
M  V30 1961 C 179.134 -1.96124 0.054748 0
M  V30 1962 O 178.259 -1.99141 -0.84687 0
M  V30 1963 C 178.854 -2.30912 2.47922 0
M  V30 1964 C 177.413 -2.84486 2.46464 0
M  V30 1965 C 176.56 -1.58603 2.27465 0
M  V30 1966 H 179.511 -0.48396 1.51141 0
M  V30 1967 H 179.532 -3.12331 2.17323 0
M  V30 1968 H 179.044 -1.80554 3.43543 0
M  V30 1969 H 177.145 -3.39005 1.54617 0
M  V30 1970 H 177.258 -3.34511 3.42986 0
M  V30 1971 H 175.622 -1.84632 1.75451 0
M  V30 1972 H 176.405 -1.10233 3.25121 0
M  V30 1973 N 178.85 -1.27639 -0.924453 0
M  V30 1974 C 180.075 -1.17101 -1.71179 0
M  V30 1975 C 180.5 0.268134 -1.86179 0
M  V30 1976 O 179.858 1.19415 -1.36418 0
M  V30 1977 C 179.906 -1.86313 -3.08739 0
M  V30 1978 O 179.01 -1.16331 -3.95652 0
M  V30 1979 H 178.351 -0.407091 -0.524569 0
M  V30 1980 H 180.881 -1.68767 -1.15666 0
M  V30 1981 H 180.891 -1.938 -3.59034 0
M  V30 1982 H 179.566 -2.91001 -2.97138 0
M  V30 1983 H 178.143 -1.16935 -3.54091 0
M  V30 1984 N 180.328 1.1314 -1.09713 0
M  V30 1985 C 181.556 1.88321 -0.856898 0
M  V30 1986 C 181.971 1.79276 0.592073 0
M  V30 1987 O 181.328 1.16142 1.40774 0
M  V30 1988 C 181.379 3.37812 -1.28706 0
M  V30 1989 O 181.1 3.46627 -2.67921 0
M  V30 1990 C 182.601 4.29952 -1.07964 0
M  V30 1991 H 179.821 0.596094 -0.308079 0
M  V30 1992 H 182.365 1.43205 -1.45988 0
M  V30 1993 H 180.52 3.805 -0.727912 0
M  V30 1994 H 180.934 4.39579 -2.8613 0
M  V30 1995 H 182.408 5.33159 -1.42986 0
M  V30 1996 H 182.885 4.39196 -0.0176577 0
M  V30 1997 H 183.491 3.93036 -1.62489 0
M  V30 1998 N 181.806 0.884767 1.30421 0
M  V30 1999 C 183.055 0.499164 1.95426 0
M  V30 2000 C 183.368 -0.95645 1.70621 0
M  V30 2001 O 184.574 -1.44889 2.29607 0
M  V30 2002 C 183.03 0.84177 3.49917 0
M  V30 2003 C 182.638 2.31514 3.83543 0
M  V30 2004 C 184.382 0.525355 4.21237 0
M  V30 2005 C 182.289 2.59939 5.31212 0
M  V30 2006 H 181.219 0.182944 0.73147 0
M  V30 2007 H 183.87 1.07971 1.48373 0
M  V30 2008 H 182.252 0.190311 3.95542 0
M  V30 2009 H 183.426 3.0109 3.48829 0
M  V30 2010 H 181.741 2.59907 3.25326 0
M  V30 2011 H 184.338 0.714762 5.29901 0
M  V30 2012 H 184.681 -0.535222 4.12845 0
M  V30 2013 H 185.214 1.134 3.81294 0
M  V30 2014 H 181.953 3.64736 5.44654 0
M  V30 2015 H 181.473 1.94972 5.67227 0
M  V30 2016 H 183.152 2.45429 5.98643 0
M  V30 2017 N 183.284 -1.43765 0.645699 0
M  V30 2018 C 184.234 -2.27884 -0.0726442 0
M  V30 2019 C 185.218 -1.39483 -0.802086 0
M  V30 2020 O 186.41 -1.63174 -0.685791 0
M  V30 2021 C 183.539 -3.27055 -1.04356 0
M  V30 2022 C 182.625 -4.22944 -0.312985 0
M  V30 2023 N 183.016 -5.01391 0.666386 0
M  V30 2024 C 181.314 -4.42528 -0.55546 0
M  V30 2025 C 182.015 -5.71217 1.09935 0
M  V30 2026 N 180.991 -5.41856 0.435137 0
M  V30 2027 H 184.793 -2.85949 0.678988 0
M  V30 2028 H 182.307 -1.55378 0.472368 0
M  V30 2029 H 184.304 -3.86089 -1.57292 0
M  V30 2030 H 182.964 -2.70551 -1.79534 0
M  V30 2031 H 183.975 -5.07252 1.04481 0
M  V30 2032 H 180.652 -3.97104 -1.28899 0
M  V30 2033 H 182.042 -6.44202 1.90929 0
M  V30 2034 N 184.763 -0.387143 -1.52771 0
M  V30 2035 C 186.003 0.195537 -2.03463 0
M  V30 2036 C 186.367 1.44222 -1.26744 0
M  V30 2037 O 187.568 2.10192 -1.67549 0
M  V30 2038 C 185.839 0.459097 -3.54439 0
M  V30 2039 S 187.398 1.01237 -4.26962 0
M  V30 2040 H 184.216 0.0552675 -0.708849 0
M  V30 2041 H 186.818 -0.534992 -1.88037 0
M  V30 2042 H 185.522 -0.455382 -4.07866 0
M  V30 2043 H 185.053 1.21811 -3.74066 0
M  V30 2044 H 187.068 2.29492 -4.39941 0
M  V30 2045 N 186.241 1.57166 -0.116904 0
M  V30 2046 C 187.518 1.86645 0.585049 0
M  V30 2047 C 187.898 1.0177 1.84949 0
M  V30 2048 O 187.246 0.0960379 2.28298 0
M  V30 2049 C 187.456 3.37736 0.879507 0
M  V30 2050 C 188.804 4.06289 1.23348 0
M  V30 2051 O 189.828 3.42743 0.969836 0
M  V30 2052 O 188.687 5.18455 1.7282 0
M  V30 2053 H 185.781 0.772593 0.295007 0
M  V30 2054 H 188.327 1.69025 -0.151249 0
M  V30 2055 H 187.099 3.91296 -0.0166136 0
M  V30 2056 H 186.722 3.6078 1.67103 0
M  V30 2057 N 187.719 -0.156864 1.56817 0
M  V30 2058 C 188.669 -1.19891 1.93934 0
M  V30 2059 C 189.653 -1.39061 0.809372 0
M  V30 2060 O 190.845 -1.40789 1.07273 0
M  V30 2061 C 187.974 -2.53493 2.31508 0
M  V30 2062 C 187.06 -2.37957 3.51052 0
M  V30 2063 N 187.451 -1.92158 4.67877 0
M  V30 2064 C 185.749 -2.68739 3.55943 0
M  V30 2065 C 186.45 -1.8943 5.49992 0
M  V30 2066 N 185.426 -2.32375 4.91429 0
M  V30 2067 H 189.228 -0.836746 2.81737 0
M  V30 2068 H 186.742 -0.365012 1.58245 0
M  V30 2069 H 188.739 -3.28811 2.56299 0
M  V30 2070 H 187.399 -2.905 1.45051 0
M  V30 2071 H 188.41 -1.62274 4.91821 0
M  V30 2072 H 185.087 -3.09687 2.80001 0
M  V30 2073 H 186.477 -1.55596 6.53636 0
M  V30 2074 N 189.197 -1.51736 -0.425897 0
M  V30 2075 C 190.127 -1.76827 -1.52494 0
M  V30 2076 C 191.108 -0.618524 -1.58456 0
M  V30 2077 O 192.293 -0.862416 -1.74 0
M  V30 2078 C 189.423 -1.90374 -2.90474 0
M  V30 2079 C 188.377 -3.0588 -2.99369 0
M  V30 2080 C 187.703 -3.04625 -4.3944 0
M  V30 2081 C 189.003 -4.45644 -2.72394 0
M  V30 2082 H 190.697 -2.68855 -1.31748 0
M  V30 2083 H 188.243 -1.29372 -0.632362 0
M  V30 2084 H 190.196 -2.0651 -3.6733 0
M  V30 2085 H 188.92 -0.95004 -3.12477 0
M  V30 2086 H 187.579 -2.89467 -2.24954 0
M  V30 2087 H 187.227 -2.0701 -4.58428 0
M  V30 2088 H 186.927 -3.82195 -4.46319 0
M  V30 2089 H 188.451 -3.22869 -5.18255 0
M  V30 2090 H 189.865 -4.62348 -3.38979 0
M  V30 2091 H 188.262 -5.25006 -2.9067 0
M  V30 2092 H 189.332 -4.54893 -1.67929 0
M  V30 2093 N 190.675 0.682077 -1.42076 0
M  V30 2094 C 191.924 1.43786 -1.41451 0
M  V30 2095 C 192.237 1.95574 -0.0317074 0
M  V30 2096 O 193.443 2.71326 0.0971462 0
M  V30 2097 C 191.899 2.60071 -2.48779 0
M  V30 2098 C 191.507 2.15013 -3.93031 0
M  V30 2099 C 193.251 3.37626 -2.57311 0
M  V30 2100 C 191.158 3.28336 -4.91883 0
M  V30 2101 H 190.088 0.540143 -0.526082 0
M  V30 2102 H 192.739 0.739157 -1.67955 0
M  V30 2103 H 191.121 3.32275 -2.15429 0
M  V30 2104 H 192.295 1.5001 -4.35699 0
M  V30 2105 H 190.61 1.50416 -3.88284 0
M  V30 2106 H 193.207 4.22012 -3.28345 0
M  V30 2107 H 193.55 3.83727 -1.61429 0
M  V30 2108 H 194.083 2.72488 -2.89819 0
M  V30 2109 H 190.822 2.87234 -5.89217 0
M  V30 2110 H 190.342 3.92145 -4.53853 0
M  V30 2111 H 192.021 3.93913 -5.13265 0
M  V30 2112 N 192.153 1.28127 0.917671 0
M  V30 2113 C 193.063 1.13556 2.05286 0
M  V30 2114 C 194.079 0.0630914 1.73886 0
M  V30 2115 O 195.255 0.271598 1.9956 0
M  V30 2116 C 192.32 0.794676 3.3747 0
M  V30 2117 C 191.381 1.94909 3.82504 0
M  V30 2118 C 190.614 1.62437 5.0838 0
M  V30 2119 O 190.837 0.536905 5.67867 0
M  V30 2120 O 189.771 2.46677 5.4903 0
M  V30 2121 H 193.597 2.08844 2.20495 0
M  V30 2122 H 191.182 1.07409 1.03845 0
M  V30 2123 H 193.064 0.618344 4.16839 0
M  V30 2124 H 191.739 -0.128581 3.23445 0
M  V30 2125 H 190.646 2.18055 3.03978 0
M  V30 2126 H 191.979 2.85291 4.01086 0
M  V30 2127 N 193.631 -1.12557 1.10312 0
M  V30 2128 C 194.594 -2.16434 0.75424 0
M  V30 2129 C 195.594 -1.59278 -0.220685 0
M  V30 2130 O 196.784 -1.742 0.00230591 0
M  V30 2131 C 193.916 -3.40699 0.116987 0
M  V30 2132 H 195.109 -2.48811 1.67431 0
M  V30 2133 H 192.662 -1.27542 0.903475 0
M  V30 2134 H 193.397 -3.13921 -0.813877 0
M  V30 2135 H 193.182 -3.83459 0.818613 0
M  V30 2136 H 194.672 -4.17451 -0.111387 0
M  V30 2137 N 195.109 -0.891671 -1.2995 0
M  V30 2138 C 196.041 -0.320695 -2.26945 0
M  V30 2139 C 197.054 0.528497 -1.53983 0
M  V30 2140 O 198.243 0.346959 -1.75096 0
M  V30 2141 C 195.343 0.562066 -3.34207 0
M  V30 2142 C 194.516 -0.259576 -4.36629 0
M  V30 2143 C 193.575 0.554739 -5.23268 0
M  V30 2144 O 192.601 -0.0249311 -5.69195 0
M  V30 2145 N 193.803 1.8625 -5.4981 0
M  V30 2146 H 196.568 -1.15432 -2.76578 0
M  V30 2147 H 194.129 -0.755336 -1.432 0
M  V30 2148 H 196.121 1.11304 -3.89093 0
M  V30 2149 H 194.691 1.29637 -2.84452 0
M  V30 2150 H 193.911 -0.991986 -3.81514 0
M  V30 2151 H 195.199 -0.822564 -5.02107 0
M  V30 2152 H 194.597 2.35628 -5.14292 0
M  V30 2153 H 193.154 2.36078 -6.07545 0
M  V30 2154 N 196.587 1.43421 -0.653314 0
M  V30 2155 C 197.833 2.02111 -0.166992 0
M  V30 2156 C 198.166 1.51423 1.21592 0
M  V30 2157 O 197.441 0.707389 1.8118 0
M  V30 2158 C 197.724 3.5966 -0.177948 0
M  V30 2159 C 197.577 4.20579 -1.59478 0
M  V30 2160 C 198.896 4.37413 0.4856 0
M  V30 2161 H 196.015 0.734374 -0.0621557 0
M  V30 2162 H 198.657 1.70717 -0.834016 0
M  V30 2163 H 196.807 3.86537 0.390032 0
M  V30 2164 H 198.479 4.04732 -2.21336 0
M  V30 2165 H 196.722 3.77226 -2.14204 0
M  V30 2166 H 197.393 5.29665 -1.5543 0
M  V30 2167 H 199.869 4.161 0.00234528 0
M  V30 2168 H 198.745 5.47075 0.447207 0
M  V30 2169 H 199.006 4.13672 1.55974 0
M  V30 2170 N 198.065 0.39524 1.52563 0
M  V30 2171 C 199.313 -0.184678 2.01254 0
M  V30 2172 C 199.634 -1.46822 1.28329 0
M  V30 2173 O 198.904 -1.91666 0.405094 0
M  V30 2174 H 197.484 -0.0712355 0.743596 0
M  V30 2175 H 200.146 0.528293 1.87603 0
M  V30 2176 H 199.242 -0.390681 3.09645 0
M  V30 2177 N 199.544 -1.57102 0.125237 0
M  V30 2178 C 200.792 -1.95021 -0.530198 0
M  V30 2179 C 201.113 -1.00982 -1.66816 0
M  V30 2180 O 200.383 -0.0672693 -1.95784 0
M  V30 2181 H 198.963 -0.720046 -0.198853 0
M  V30 2182 H 201.625 -1.93916 0.19564 0
M  V30 2183 H 200.721 -2.98211 -0.920681 0
M  V30 2184 N 201.022 0.148545 -1.56898 0
M  V30 2185 C 201.932 1.20293 -2.01412 0
M  V30 2186 C 202.948 1.47107 -0.929273 0
M  V30 2187 O 204.124 1.58807 -1.23863 0
M  V30 2188 C 201.189 2.51682 -2.38447 0
M  V30 2189 C 200.25 2.32529 -3.60872 0
M  V30 2190 C 199.483 3.57653 -3.96132 0
M  V30 2191 O 199.706 4.63771 -3.32073 0
M  V30 2192 O 198.64 3.50408 -4.89385 0
M  V30 2193 H 202.466 0.855025 -2.91416 0
M  V30 2194 H 200.051 0.357151 -1.45068 0
M  V30 2195 H 201.933 3.29147 -2.63135 0
M  V30 2196 H 200.608 2.86006 -1.51599 0
M  V30 2197 H 199.515 1.53019 -3.41373 0
M  V30 2198 H 200.848 2.03121 -4.48333 0
M  V30 2199 N 202.5 1.5196 0.417844 0
M  V30 2200 C 203.447 1.74678 1.50852 0
M  V30 2201 C 204.417 0.588947 1.55308 0
M  V30 2202 O 205.602 0.825544 1.72016 0
M  V30 2203 C 202.742 1.89544 2.88387 0
M  V30 2204 C 201.855 3.17166 2.93309 0
M  V30 2205 C 200.99 3.22513 4.22088 0
M  V30 2206 C 200.029 4.44372 4.20951 0
M  V30 2207 N 199.166 4.47161 5.41287 0
M  V30 2208 H 204.006 2.67768 1.30783 0
M  V30 2209 H 201.543 1.32689 0.63498 0
M  V30 2210 H 203.501 1.96146 3.68216 0
M  V30 2211 H 202.131 0.998424 3.06971 0
M  V30 2212 H 201.183 3.19778 2.06024 0
M  V30 2213 H 202.495 4.07021 2.88332 0
M  V30 2214 H 201.649 3.28139 5.10303 0
M  V30 2215 H 200.388 2.30581 4.29748 0
M  V30 2216 H 199.393 4.38902 3.31127 0
M  V30 2217 H 200.618 5.3759 4.14938 0
M  V30 2218 H 198.564 3.58108 5.49632 0
M  V30 2219 H 198.481 5.3085 5.3827 0
M  V30 2220 H 199.749 4.57005 6.3148 0
M  V30 2221 N 203.978 -0.674533 1.42435 0
M  V30 2222 C 205.255 -1.4305 1.33402 0
M  V30 2223 C 205.635 -2.11081 -0.0284674 0
M  V30 2224 O 204.983 -2.03257 -1.04397 0
M  V30 2225 C 205.193 -2.43272 2.50239 0
M  V30 2226 C 206.541 -3.07907 2.92367 0
M  V30 2227 O 207.565 -2.53599 2.50132 0
M  V30 2228 O 206.424 -4.0632 3.65467 0
M  V30 2229 H 203.518 -0.638076 0.526106 0
M  V30 2230 H 206.064 -0.703235 1.54443 0
M  V30 2231 H 204.836 -1.91803 3.41068 0
M  V30 2232 H 204.459 -3.23479 2.31186 0
M  V30 2233 N 205.456 -1.28612 -0.910864 0
M  V30 2234 C 206.386 -1.15326 -2.03032 0
M  V30 2235 C 207.367 -0.0502924 -1.70026 0
M  V30 2236 O 208.552 -0.227797 -1.92859 0
M  V30 2237 C 205.682 -0.817343 -3.37545 0
M  V30 2238 C 204.636 -1.8754 -3.84724 0
M  V30 2239 C 203.962 -1.39305 -5.16235 0
M  V30 2240 C 205.262 -3.28244 -4.06267 0
M  V30 2241 H 206.956 -2.08975 -2.14406 0
M  V30 2242 H 204.502 -1.00612 -1.03021 0
M  V30 2243 H 206.455 -0.711151 -4.15356 0
M  V30 2244 H 205.179 0.154846 -3.26233 0
M  V30 2245 H 203.838 -1.97079 -3.09121 0
M  V30 2246 H 203.486 -0.409846 -5.01328 0
M  V30 2247 H 203.186 -2.10057 -5.48771 0
M  V30 2248 H 204.71 -1.30014 -5.96598 0
M  V30 2249 H 206.124 -3.21611 -4.74594 0
M  V30 2250 H 204.521 -3.96855 -4.5014 0
M  V30 2251 H 205.591 -3.72048 -3.10979 0
M  V30 2252 N 206.934 1.1197 -1.10907 0
M  V30 2253 C 208.35 1.35591 -0.841852 0
M  V30 2254 C 208.55 1.94233 0.536246 0
M  V30 2255 O 207.606 2.1717 1.28816 0
M  V30 2256 C 208.919 2.29284 -1.94549 0
M  V30 2257 C 210.467 2.42862 -1.97451 0
M  V30 2258 C 210.942 3.39873 -3.07002 0
M  V30 2259 N 212.433 3.47433 -3.06341 0
M  V30 2260 C 213.168 4.22421 -3.87748 0
M  V30 2261 N 212.664 5.00432 -4.79103 0
M  V30 2262 N 214.457 4.17876 -3.75946 0
M  V30 2263 H 206.608 0.722664 -1.99728 0
M  V30 2264 H 208.871 0.380635 -0.868229 0
M  V30 2265 H 208.577 1.93378 -2.93765 0
M  V30 2266 H 208.451 3.29452 -1.83688 0
M  V30 2267 H 210.838 2.78046 -0.988645 0
M  V30 2268 H 210.919 1.42566 -2.12388 0
M  V30 2269 H 210.563 3.05417 -4.05811 0
M  V30 2270 H 210.493 4.40011 -2.89306 0
M  V30 2271 H 212.984 2.91784 -2.40147 0
M  V30 2272 H 213.297 5.55002 -5.37766 0
M  V30 2273 H 211.642 4.99612 -4.83128 0
M  V30 2274 H 214.833 3.56016 -3.03924 0
M  V30 2275 H 215.006 4.76061 -4.39624 0
M  V30 2276 N 208.412 0.89855 1.29475 0
M  V30 2277 C 209.828 0.594483 1.48115 0
M  V30 2278 C 210.028 -0.86431 1.82022 0
M  V30 2279 O 209.084 -1.64457 1.91599 0
M  V30 2280 C 210.397 1.51932 2.59494 0
M  V30 2281 C 211.945 1.5244 2.7337 0
M  V30 2282 C 212.42 2.43548 3.87877 0
M  V30 2283 N 213.911 2.41589 3.95208 0
M  V30 2284 C 214.646 3.08789 4.83153 0
M  V30 2285 N 214.142 3.85265 5.75798 0
M  V30 2286 N 215.935 2.97952 4.76635 0
M  V30 2287 H 208.086 1.84207 1.05742 0
M  V30 2288 H 210.349 0.789251 0.525154 0
M  V30 2289 H 210.055 2.55865 2.41301 0
M  V30 2290 H 209.929 1.23899 3.56271 0
M  V30 2291 H 212.316 0.492518 2.90961 0
M  V30 2292 H 212.397 1.8451 1.77172 0
M  V30 2293 H 212.041 3.46829 3.71041 0
M  V30 2294 H 211.971 2.08788 4.83441 0
M  V30 2295 H 214.462 1.86025 3.28943 0
M  V30 2296 H 214.775 4.33598 6.39697 0
M  V30 2297 H 213.12 3.89371 5.75687 0
M  V30 2298 H 216.311 2.37723 4.03244 0
M  V30 2299 H 216.484 3.50599 5.44962 0
M  V30 2300 N 209.89 -1.43072 0.660911 0
M  V30 2301 C 210.853 -2.29194 -0.0166406 0
M  V30 2302 C 211.853 -1.42609 -0.742912 0
M  V30 2303 O 213.043 -1.64155 -0.583004 0
M  V30 2304 C 210.175 -3.24831 -1.0343 0
M  V30 2305 H 211.368 -2.90596 0.741208 0
M  V30 2306 H 208.921 -1.5048 0.422532 0
M  V30 2307 H 209.656 -2.68339 -1.82111 0
M  V30 2308 H 209.441 -3.88676 -0.517082 0
M  V30 2309 H 210.931 -3.89451 -1.50723 0
M  V30 2310 N 211.368 -0.403325 -1.52352 0
M  V30 2311 C 212.315 0.425011 -2.26853 0
M  V30 2312 C 213.285 1.04598 -1.29029 0
M  V30 2313 O 214.47 1.07135 -1.57882 0
M  V30 2314 C 211.61 1.53888 -3.08889 0
M  V30 2315 C 210.723 0.939396 -4.21663 0
M  V30 2316 C 209.858 2.02547 -4.91068 0
M  V30 2317 C 208.897 1.40263 -5.95813 0
M  V30 2318 N 208.034 2.4286 -6.58759 0
M  V30 2319 H 212.874 -0.21674 -2.97211 0
M  V30 2320 H 210.411 -0.118722 -1.4662 0
M  V30 2321 H 212.369 2.19558 -3.54753 0
M  V30 2322 H 210.999 2.15074 -2.40714 0
M  V30 2323 H 210.051 0.171898 -3.80011 0
M  V30 2324 H 211.363 0.44436 -4.96817 0
M  V30 2325 H 210.517 2.75958 -5.40308 0
M  V30 2326 H 209.256 2.55415 -4.15469 0
M  V30 2327 H 208.261 0.653833 -5.45898 0
M  V30 2328 H 209.486 0.881719 -6.73352 0
M  V30 2329 H 207.432 2.94871 -5.85992 0
M  V30 2330 H 207.349 1.98152 -7.2957 0
M  V30 2331 H 208.617 3.15858 -7.12639 0
M  V30 2332 N 212.846 1.57033 -0.133567 0
M  V30 2333 C 214.123 1.87256 0.56522 0
M  V30 2334 C 214.503 1.03726 1.83859 0
M  V30 2335 O 213.851 0.120247 2.28183 0
M  V30 2336 C 214.061 3.3865 0.843636 0
M  V30 2337 C 215.409 4.07574 1.19032 0
M  V30 2338 O 216.433 3.43752 0.933429 0
M  V30 2339 O 215.292 5.20259 1.67312 0
M  V30 2340 H 212.386 0.775678 0.286796 0
M  V30 2341 H 214.932 1.68855 -0.169168 0
M  V30 2342 H 213.704 3.91257 -0.0581149 0
M  V30 2343 H 213.327 3.62532 1.63268 0
M  V30 2344 N 214.325 -0.140222 1.56975 0
M  V30 2345 C 215.574 -0.850152 1.82908 0
M  V30 2346 C 215.887 -1.82028 0.715892 0
M  V30 2347 O 217.093 -2.57485 0.861016 0
M  V30 2348 C 215.549 -1.5625 3.24213 0
M  V30 2349 C 215.157 -0.63443 4.43485 0
M  V30 2350 C 216.901 -2.25881 3.59413 0
M  V30 2351 C 214.808 -1.34879 5.75814 0
M  V30 2352 H 213.738 -0.321221 0.682153 0
M  V30 2353 H 216.389 -0.102874 1.83211 0
M  V30 2354 H 214.771 -2.35565 3.18316 0
M  V30 2355 H 215.945 0.12398 4.60633 0
M  V30 2356 H 214.26 -0.0461836 4.16374 0
M  V30 2357 H 216.857 -2.79978 4.5554 0
M  V30 2358 H 217.2 -3.02693 2.85802 0
M  V30 2359 H 217.733 -1.53477 3.67001 0
M  V30 2360 H 214.472 -0.622385 6.52539 0
M  V30 2361 H 213.992 -2.07974 5.6259 0
M  V30 2362 H 215.671 -1.88784 6.18845 0
M  V30 2363 N 215.803 -1.52179 -0.40978 0
M  V30 2364 C 216.751 -1.76086 -1.51975 0
M  V30 2365 C 217.745 -0.627964 -1.57331 0
M  V30 2366 O 218.951 -0.809993 -1.60745 0
M  V30 2367 H 215.326 -0.556829 -0.505416 0
M  V30 2368 H 217.297 -2.69077 -1.28996 0
M  V30 2369 C 216.046 -1.92799 -2.8935 0
M  V30 2370 H 215.369 -2.79392 -2.85972 0
M  V30 2371 H 216.809 -2.13527 -3.66309 0
M  V30 2372 C 215.268 -0.694923 -3.29655 0
M  V30 2373 O 215.798 0.13751 -4.01465 0
M  V30 2374 N 214.004 -0.53101 -2.85707 0
M  V30 2375 H 213.551 -1.20952 -2.27439 0
M  V30 2376 H 213.509 0.292718 -3.13034 0
M  V30 2377 N 217.281 0.66697 -1.42791 0
M  V30 2378 C 218.213 1.7925 -1.42836 0
M  V30 2379 C 219.226 1.59496 -0.326333 0
M  V30 2380 O 220.415 1.6847 -0.589916 0
M  V30 2381 C 217.515 3.16476 -1.21229 0
M  V30 2382 C 216.688 3.63011 -2.44013 0
M  V30 2383 C 215.747 4.78993 -2.17834 0
M  V30 2384 O 214.773 4.89137 -2.91091 0
M  V30 2385 N 215.975 5.68248 -1.18635 0
M  V30 2386 H 218.74 1.79695 -2.39854 0
M  V30 2387 H 216.301 0.850338 -1.37771 0
M  V30 2388 H 218.293 3.91734 -1.01621 0
M  V30 2389 H 216.863 3.10884 -0.32706 0
M  V30 2390 H 216.083 2.78346 -2.79137 0
M  V30 2391 H 217.371 3.90845 -3.25757 0
M  V30 2392 H 216.769 5.62712 -0.580615 0
M  V30 2393 H 215.326 6.43285 -1.05013 0
M  V30 2394 N 218.759 1.29093 0.90403 0
M  V30 2395 C 219.669 1.15727 2.0407 0
M  V30 2396 C 220.685 0.0815308 1.73809 0
M  V30 2397 O 221.861 0.292749 1.99261 0
M  V30 2398 C 218.926 0.830424 3.36608 0
M  V30 2399 C 217.987 1.98955 3.80415 0
M  V30 2400 C 217.22 1.6782 5.06628 0
M  V30 2401 O 217.443 0.597105 5.67266 0
M  V30 2402 O 216.377 2.52486 5.46383 0
M  V30 2403 H 220.203 2.11171 2.18267 0
M  V30 2404 H 217.788 1.08504 1.027 0
M  V30 2405 H 219.67 0.662521 4.16159 0
M  V30 2406 H 218.345 -0.0942678 3.23563 0
M  V30 2407 H 217.252 2.21267 3.01648 0
M  V30 2408 H 218.585 2.89529 3.98037 0
M  V30 2409 N 220.237 -1.11381 1.11499 0
M  V30 2410 C 221.483 -1.83403 0.865512 0
M  V30 2411 C 221.816 -1.84459 -0.607329 0
M  V30 2412 O 221.091 -1.29811 -1.44842 0
M  V30 2413 C 221.374 -3.30552 1.42855 0
M  V30 2414 C 221.227 -3.37886 2.96906 0
M  V30 2415 C 222.546 -4.26643 1.08 0
M  V30 2416 H 219.665 -0.665879 0.31587 0
M  V30 2417 H 222.307 -1.30601 1.37998 0
M  V30 2418 H 220.457 -3.75648 0.990985 0
M  V30 2419 H 222.129 -3.01343 3.49271 0
M  V30 2420 H 220.372 -2.78088 3.32941 0
M  V30 2421 H 221.043 -4.41458 3.31389 0
M  V30 2422 H 223.519 -3.89729 1.45775 0
M  V30 2423 H 222.395 -5.27986 1.50072 0
M  V30 2424 H 222.656 -4.42099 -0.00915037 0
M  V30 2425 N 221.715 -0.905404 -1.28997 0
M  V30 2426 C 222.945 -0.549049 -1.99171 0
M  V30 2427 C 223.353 0.87203 -1.67906 0
M  V30 2428 O 222.696 1.58796 -0.923561 0
M  V30 2429 C 222.758 -0.668306 -3.53234 0
M  V30 2430 C 222.422 -2.0574 -4.08069 0
M  V30 2431 C 223.419 -3.0292 -4.22534 0
M  V30 2432 C 221.104 -2.36833 -4.42962 0
M  V30 2433 C 223.098 -4.29314 -4.71135 0
M  V30 2434 C 220.785 -3.63467 -4.91258 0
M  V30 2435 C 221.783 -4.59522 -5.053 0
M  V30 2436 O 221.471 -5.83907 -5.52546 0
M  V30 2437 H 221.203 -0.208784 -0.64295 0
M  V30 2438 H 223.757 -1.21836 -1.65363 0
M  V30 2439 H 221.987 0.0580547 -3.86656 0
M  V30 2440 H 223.676 -0.320273 -4.04634 0
M  V30 2441 H 224.442 -2.80216 -3.95859 0
M  V30 2442 H 220.321 -1.62824 -4.31288 0
M  V30 2443 H 223.865 -5.04293 -4.8201 0
M  V30 2444 H 219.762 -3.86 -5.17372 0
M  V30 2445 H 220.53 -5.86578 -5.70849 0
M  V30 2446 N 223.193 1.4272 -0.668489 0
M  V30 2447 C 224.141 2.32586 0.0254857 0
M  V30 2448 C 225.135 1.49471 0.797176 0
M  V30 2449 O 226.341 1.65583 0.705853 0
M  V30 2450 H 222.716 0.751514 0.0270339 0
M  V30 2451 H 224.687 2.88823 -0.749936 0
M  V30 2452 C 223.436 3.3397 0.967427 0
M  V30 2453 H 222.759 3.97961 0.383048 0
M  V30 2454 H 224.199 3.9945 1.42181 0
M  V30 2455 C 222.658 2.65744 2.0708 0
M  V30 2456 O 223.188 2.48454 3.15648 0
M  V30 2457 N 221.394 2.2487 1.8407 0
M  V30 2458 H 220.941 2.39132 0.95778 0
M  V30 2459 H 220.899 1.79552 2.58086 0
M  V30 2460 N 224.671 0.411399 1.52136 0
M  V30 2461 C 225.918 -0.163645 2.01838 0
M  V30 2462 C 226.246 -1.4495 1.29691 0
M  V30 2463 O 225.501 -1.91725 0.392431 0
M  V30 2464 C 225.8 -0.455872 3.54481 0
M  V30 2465 C 225.466 0.741055 4.44769 0
M  V30 2466 C 224.128 1.06936 4.69167 0
M  V30 2467 C 226.48 1.54075 4.97906 0
M  V30 2468 C 223.808 2.19851 5.43951 0
M  V30 2469 C 226.16 2.66067 5.73926 0
M  V30 2470 C 224.824 2.99381 5.96596 0
M  V30 2471 H 224.094 -0.0598821 0.738576 0
M  V30 2472 H 226.741 0.553283 1.83333 0
M  V30 2473 H 225.046 -1.2544 3.71177 0
M  V30 2474 H 226.743 -0.913802 3.90449 0
M  V30 2475 H 223.333 0.475192 4.25958 0
M  V30 2476 H 227.517 1.30033 4.78963 0
M  V30 2477 H 222.773 2.46006 5.59724 0
M  V30 2478 H 226.947 3.28419 6.14096 0
M  V30 2479 H 224.574 3.86992 6.54325 0
M  V30 2480 N 226.149 -1.5696 0.141893 0
M  V30 2481 C 227.079 -2.19516 -0.795936 0
M  V30 2482 C 228.06 -1.14187 -1.26077 0
M  V30 2483 O 229.245 -1.42511 -1.31925 0
M  V30 2484 C 226.375 -2.81272 -2.03723 0
M  V30 2485 C 225.329 -3.92384 -1.70936 0
M  V30 2486 C 224.655 -4.41052 -3.02287 0
M  V30 2487 C 225.955 -5.13403 -0.959954 0
M  V30 2488 H 227.649 -2.98138 -0.274596 0
M  V30 2489 H 225.195 -1.43406 -0.130636 0
M  V30 2490 H 227.148 -3.237 -2.69808 0
M  V30 2491 H 225.872 -1.99973 -2.58221 0
M  V30 2492 H 224.531 -3.50566 -1.07232 0
M  V30 2493 H 224.179 -3.56582 -3.54765 0
M  V30 2494 H 223.879 -5.15993 -2.81114 0
M  V30 2495 H 225.403 -4.86146 -3.69451 0
M  V30 2496 H 226.817 -5.52706 -1.52279 0
M  V30 2497 H 225.214 -5.94073 -0.848357 0
M  V30 2498 H 226.284 -4.84875 0.0492434 0
M  V30 2499 N 227.627 0.131896 -1.57047 0
M  V30 2500 C 228.59 1.14638 -1.98471 0
M  V30 2501 C 229.59 1.35029 -0.873148 0
M  V30 2502 O 230.78 1.31764 -1.13946 0
M  V30 2503 C 227.912 2.50358 -2.31373 0
M  V30 2504 H 229.105 0.79064 -2.8929 0
M  V30 2505 H 226.658 0.375761 -1.51716 0
M  V30 2506 H 227.393 2.90876 -1.43393 0
M  V30 2507 H 227.178 2.36915 -3.12432 0
M  V30 2508 H 228.668 3.23395 -2.64207 0
M  V30 2509 N 229.106 1.52395 0.401703 0
M  V30 2510 C 230.334 1.70676 1.16949 0
M  V30 2511 C 230.749 0.419503 1.8408 0
M  V30 2512 O 230.106 -0.605061 1.72178 0
M  V30 2513 C 230.157 2.84753 2.22706 0
M  V30 2514 O 229.878 4.08495 1.58314 0
M  V30 2515 C 231.379 3.14608 3.12309 0
M  V30 2516 H 228.599 0.571787 0.351142 0
M  V30 2517 H 231.143 1.98987 0.471652 0
M  V30 2518 H 229.298 2.58941 2.88147 0
M  V30 2519 H 229.712 4.72117 2.28485 0
M  V30 2520 H 231.186 3.97923 3.82572 0
M  V30 2521 H 231.663 2.28464 3.75101 0
M  V30 2522 H 232.269 3.42212 2.52529 0
M  V30 2523 N 230.584 -0.659388 1.43143 0
M  V30 2524 C 231.547 -1.75432 1.47501 0
M  V30 2525 C 232.547 -1.56707 0.360512 0
M  V30 2526 O 233.737 -1.62717 0.622002 0
M  V30 2527 C 230.869 -3.14239 1.32162 0
M  V30 2528 H 232.062 -1.7295 2.45006 0
M  V30 2529 H 229.615 -0.870469 1.29817 0
M  V30 2530 H 230.35 -3.22336 0.356401 0
M  V30 2531 H 230.135 -3.29235 2.12948 0
M  V30 2532 H 231.625 -3.94094 1.3813 0
M  V30 2533 N 232.062 -1.29571 -0.897171 0
M  V30 2534 C 233.31 -1.17456 -1.64464 0
M  V30 2535 C 233.631 0.273698 -1.9307 0
M  V30 2536 O 232.901 1.18684 -1.55855 0
M  V30 2537 H 231.481 -0.431706 -0.609622 0
M  V30 2538 H 234.143 -1.62531 -1.07562 0
M  V30 2539 H 233.239 -1.72648 -2.59998 0
M  V30 2540 N 233.54 1.10788 -1.12088 0
M  V30 2541 C 234.503 2.15207 -0.788577 0
M  V30 2542 C 235.503 1.59609 0.195317 0
M  V30 2543 O 236.693 1.74174 -0.0300193 0
M  V30 2544 C 233.825 3.4047 -0.171174 0
M  V30 2545 H 235.018 2.46116 -1.71368 0
M  V30 2546 H 232.571 1.26089 -0.923652 0
M  V30 2547 H 233.306 3.15176 0.763832 0
M  V30 2548 H 233.091 3.82109 -0.879514 0
M  V30 2549 H 234.581 4.17576 0.04496 0
M  V30 2550 N 235.018 0.912232 1.28515 0
M  V30 2551 C 235.965 0.397954 2.27343 0
M  V30 2552 C 236.935 -0.526766 1.57526 0
M  V30 2553 O 238.12 -0.449292 1.85435 0
M  V30 2554 C 235.26 -0.357263 3.43246 0
M  V30 2555 C 234.373 0.599788 4.27816 0
M  V30 2556 C 233.508 -0.173725 5.30916 0
M  V30 2557 C 232.547 0.777039 6.07148 0
M  V30 2558 N 231.684 0.0371398 7.0209 0
M  V30 2559 H 236.524 1.24577 2.70711 0
M  V30 2560 H 234.061 0.625612 1.33133 0
M  V30 2561 H 236.019 -0.8113 4.09236 0
M  V30 2562 H 234.649 -1.16943 3.00872 0
M  V30 2563 H 233.701 1.17235 3.61884 0
M  V30 2564 H 235.013 1.32704 4.80823 0
M  V30 2565 H 234.167 -0.688394 6.02782 0
M  V30 2566 H 232.906 -0.934041 4.78672 0
M  V30 2567 H 231.911 1.3031 5.34134 0
M  V30 2568 H 233.136 1.53689 6.61481 0
M  V30 2569 H 231.082 -0.705213 6.52198 0
M  V30 2570 H 230.999 0.704249 7.52713 0
M  V30 2571 H 232.267 -0.457383 7.78157 0
M  V30 2572 N 236.496 -1.42363 0.676048 0
M  V30 2573 C 237.726 -2.05561 0.206967 0
M  V30 2574 C 238.134 -1.50887 -1.14148 0
M  V30 2575 O 237.477 -0.643933 -1.72044 0
M  V30 2576 C 237.539 -3.5944 0.0659508 0
M  V30 2577 C 237.203 -4.36812 1.34331 0
M  V30 2578 C 238.2 -4.67383 2.27704 0
M  V30 2579 C 235.885 -4.76429 1.59125 0
M  V30 2580 C 237.879 -5.36509 3.44147 0
M  V30 2581 C 235.566 -5.45294 2.75857 0
M  V30 2582 C 236.564 -5.75259 3.68193 0
M  V30 2583 O 236.252 -6.42712 4.82883 0
M  V30 2584 H 235.984 -0.668872 0.0979084 0
M  V30 2585 H 238.538 -1.83467 0.923531 0
M  V30 2586 H 236.768 -3.80197 -0.706204 0
M  V30 2587 H 238.457 -4.0427 -0.363418 0
M  V30 2588 H 239.223 -4.37275 2.09799 0
M  V30 2589 H 235.102 -4.52498 0.881258 0
M  V30 2590 H 238.646 -5.59814 4.16238 0
M  V30 2591 H 234.543 -5.7482 2.93688 0
M  V30 2592 H 235.311 -6.61204 4.82444 0
M  V30 2593 N 237.974 -0.419461 -1.51915 0
M  V30 2594 C 239.222 0.152637 -2.01523 0
M  V30 2595 C 239.543 1.44762 -1.30649 0
M  V30 2596 O 238.813 1.90997 -0.435535 0
M  V30 2597 H 237.393 0.0593966 -0.744635 0
M  V30 2598 H 240.055 -0.558073 -1.86739 0
M  V30 2599 H 239.151 0.341369 -3.10227 0
M  V30 2600 N 239.452 1.56882 -0.150215 0
M  V30 2601 C 240.698 1.96518 0.500834 0
M  V30 2602 C 241.031 1.03527 1.64304 0
M  V30 2603 O 240.306 0.0782751 1.94342 0
M  V30 2604 C 240.589 3.45822 1.00395 0
M  V30 2605 C 240.442 4.49591 -0.136983 0
M  V30 2606 C 241.761 3.97704 1.88467 0
M  V30 2607 H 238.88 0.714535 0.18058 0
M  V30 2608 H 241.522 1.88577 -0.232091 0
M  V30 2609 H 239.672 3.5272 1.62851 0
M  V30 2610 H 241.344 4.5477 -0.77343 0
M  V30 2611 H 239.587 4.26441 -0.795652 0
M  V30 2612 H 240.258 5.51402 0.256815 0
M  V30 2613 H 242.734 3.93304 1.35834 0
M  V30 2614 H 241.61 5.0263 2.20578 0
M  V30 2615 H 241.871 3.40252 2.82279 0
M  V30 2616 N 240.93 -0.123565 1.57115 0
M  V30 2617 C 242.178 -0.83051 1.84247 0
M  V30 2618 C 242.499 -1.80629 0.73471 0
M  V30 2619 O 241.769 -1.94403 -0.241688 0
M  V30 2620 H 240.349 -0.309694 0.679778 0
M  V30 2621 H 243.011 -0.111976 1.94578 0
M  V30 2622 H 242.107 -1.37852 2.80006 0
M  V30 2623 N 242.408 -1.52605 -0.393616 0
M  V30 2624 C 243.655 -1.67424 -1.1391 0
M  V30 2625 C 243.983 -0.411859 -1.90089 0
M  V30 2626 O 243.238 0.605626 -1.86093 0
M  V30 2627 C 243.537 -2.85721 -2.14705 0
M  V30 2628 C 243.203 -4.23342 -1.55218 0
M  V30 2629 C 241.865 -4.60771 -1.3872 0
M  V30 2630 C 244.217 -5.09041 -1.11924 0
M  V30 2631 C 241.545 -5.81563 -0.774689 0
M  V30 2632 C 243.897 -6.30452 -0.520853 0
M  V30 2633 C 242.561 -6.66617 -0.343134 0
M  V30 2634 H 241.831 -0.612648 -0.416826 0
M  V30 2635 H 244.478 -1.8674 -0.424315 0
M  V30 2636 H 242.783 -2.60803 -2.92385 0
M  V30 2637 H 244.48 -2.94382 -2.72288 0
M  V30 2638 H 241.07 -3.93855 -1.69045 0
M  V30 2639 H 245.254 -4.80695 -1.23473 0
M  V30 2640 H 240.51 -6.08196 -0.625154 0
M  V30 2641 H 244.684 -6.96175 -0.177065 0
M  V30 2642 H 242.311 -7.60083 0.133571 0
M  V30 2643 N 243.887 0.651787 -1.4349 0
M  V30 2644 C 245.133 1.4121 -1.46395 0
M  V30 2645 C 245.488 1.92202 -0.087366 0
M  V30 2646 O 244.781 1.69452 0.894231 0
M  V30 2647 C 244.975 2.60914 -2.44251 0
M  V30 2648 C 244.804 2.21639 -3.91288 0
M  V30 2649 C 243.574 2.09897 -4.59643 0
M  V30 2650 C 245.772 1.81835 -4.81083 0
M  V30 2651 N 243.754 1.63967 -5.91598 0
M  V30 2652 C 245.125 1.46998 -6.02322 0
M  V30 2653 C 247.18 1.69031 -4.6833 0
M  V30 2654 C 245.883 1.00638 -7.12225 0
M  V30 2655 C 247.909 1.24077 -5.78238 0
M  V30 2656 C 247.271 0.901772 -6.98604 0
M  V30 2657 H 243.37 0.512322 -0.590805 0
M  V30 2658 H 245.954 0.74989 -1.7968 0
M  V30 2659 H 244.125 3.24792 -2.1299 0
M  V30 2660 H 245.857 3.27622 -2.37584 0
M  V30 2661 H 242.612 2.297 -4.14168 0
M  V30 2662 H 243.036 1.43359 -6.61647 0
M  V30 2663 H 247.678 1.93878 -3.75727 0
M  V30 2664 H 245.396 0.745399 -8.04655 0
M  V30 2665 H 248.982 1.14657 -5.7039 0
M  V30 2666 H 247.862 0.559226 -7.82203 0
M  V30 2667 N 245.365 1.30045 0.890287 0
M  V30 2668 C 246.312 1.15976 1.99545 0
M  V30 2669 C 247.282 0.0506202 1.66023 0
M  V30 2670 O 248.467 0.219847 1.89529 0
M  V30 2671 C 245.607 0.852054 3.34416 0
M  V30 2672 C 244.72 2.04255 3.80662 0
M  V30 2673 C 243.855 1.6734 5.04154 0
M  V30 2674 C 242.894 2.82916 5.42794 0
M  V30 2675 N 242.031 2.46333 6.57468 0
M  V30 2676 H 246.871 2.10524 2.10911 0
M  V30 2677 H 244.408 1.04749 1.03276 0
M  V30 2678 H 246.366 0.654296 4.12037 0
M  V30 2679 H 244.996 -0.0565502 3.2275 0
M  V30 2680 H 244.048 2.35172 2.98995 0
M  V30 2681 H 245.36 2.90826 4.05242 0
M  V30 2682 H 244.514 1.43908 5.89386 0
M  V30 2683 H 243.253 0.779308 4.81433 0
M  V30 2684 H 242.258 3.0702 4.56091 0
M  V30 2685 H 243.483 3.73004 5.6749 0
M  V30 2686 H 241.429 1.59423 6.36334 0
M  V30 2687 H 241.346 3.26436 6.81891 0
M  V30 2688 H 242.614 2.26244 7.45945 0
M  V30 2689 N 246.843 -1.10192 1.12674 0
M  V30 2690 C 248.254 -1.63707 0.897604 0
M  V30 2691 C 248.605 -1.87812 -0.567546 0
M  V30 2692 O 247.73 -1.62196 -1.43253 0
M  V30 2693 C 248.325 -2.974 1.62292 0
M  V30 2694 C 246.884 -3.47772 1.43986 0
M  V30 2695 C 246.031 -2.22332 1.65722 0
M  V30 2696 H 248.982 -0.936587 1.28116 0
M  V30 2697 H 249.003 -3.64986 1.07541 0
M  V30 2698 H 248.515 -2.79824 2.68924 0
M  V30 2699 H 246.616 -3.70487 0.396206 0
M  V30 2700 H 246.729 -4.25723 2.19765 0
M  V30 2701 H 245.093 -2.30599 1.08149 0
M  V30 2702 H 245.876 -2.07285 2.73657 0
M  V30 2703 N 248.321 -0.919034 -1.28029 0
M  V30 2704 C 249.569 -0.553838 -1.94363 0
M  V30 2705 C 249.89 0.906357 -1.72656 0
M  V30 2706 O 249.16 1.64143 -1.0693 0
M  V30 2707 H 247.74 -0.201834 -0.719216 0
M  V30 2708 H 250.402 -1.16954 -1.55909 0
M  V30 2709 H 249.498 -0.752758 -3.02886 0
M  V30 2710 N 249.799 1.42003 -0.683588 0
M  V30 2711 C 251.024 2.06265 -0.216647 0
M  V30 2712 C 251.449 1.51059 1.12083 0
M  V30 2713 O 250.807 0.632638 1.69904 0
M  V30 2714 C 250.855 3.60191 -0.171759 0
M  V30 2715 O 249.959 4.03396 0.857069 0
M  V30 2716 H 249.3 0.65502 -0.108834 0
M  V30 2717 H 251.83 1.81982 -0.935077 0
M  V30 2718 H 251.84 4.08 0.0014303 0
M  V30 2719 H 250.515 3.99743 -1.14796 0
M  V30 2720 H 249.092 3.67117 0.654208 0
M  V30 2721 N 251.277 0.427512 1.51691 0
M  V30 2722 C 252.525 -0.141948 2.01601 0
M  V30 2723 C 252.846 -1.44067 1.31414 0
M  V30 2724 O 252.116 -1.90763 0.445658 0
M  V30 2725 H 250.696 -0.0554468 0.744939 0
M  V30 2726 H 253.358 0.567968 1.86441 0
M  V30 2727 H 252.454 -0.324913 3.10404 0
M  V30 2728 N 252.755 -1.56801 0.158532 0
M  V30 2729 C 254.004 -1.95665 -0.489702 0
M  V30 2730 C 254.317 -1.04654 -1.65248 0
M  V30 2731 O 255.523 -1.33146 -2.3661 0
M  V30 2732 C 253.979 -3.47874 -0.922582 0
M  V30 2733 C 253.587 -4.47489 0.213893 0
M  V30 2734 C 255.331 -3.95583 -1.53996 0
M  V30 2735 C 253.238 -5.90921 -0.237903 0
M  V30 2736 H 252.168 -0.730516 -0.186716 0
M  V30 2737 H 254.819 -1.81861 0.244722 0
M  V30 2738 H 253.201 -3.57051 -1.71261 0
M  V30 2739 H 254.375 -4.50017 0.991036 0
M  V30 2740 H 252.69 -4.09764 0.740407 0
M  V30 2741 H 255.287 -5.0019 -1.8898 0
M  V30 2742 H 255.63 -3.37789 -2.43319 0
M  V30 2743 H 256.163 -3.8937 -0.814611 0
M  V30 2744 H 252.902 -6.52559 0.620236 0
M  V30 2745 H 252.422 -5.91729 -0.980676 0
M  V30 2746 H 254.101 -6.43352 -0.686067 0
M  V30 2747 N 254.233 0.115231 -1.57178 0
M  V30 2748 C 255.482 0.820945 -1.84237 0
M  V30 2749 C 255.795 1.80866 -0.744761 0
M  V30 2750 O 257.001 2.56083 -0.901871 0
M  V30 2751 C 255.457 1.51072 -3.26658 0
M  V30 2752 C 255.065 0.563795 -4.44438 0
M  V30 2753 C 256.809 2.20134 -3.62962 0
M  V30 2754 C 254.716 1.25701 -5.77887 0
M  V30 2755 H 253.646 0.310328 -0.687177 0
M  V30 2756 H 256.297 0.0737134 -1.83352 0
M  V30 2757 H 254.679 2.30471 -3.22024 0
M  V30 2758 H 255.853 -0.197247 -4.60378 0
M  V30 2759 H 254.168 -0.0200638 -4.16395 0
M  V30 2760 H 256.765 2.72696 -4.59936 0
M  V30 2761 H 257.108 2.98107 -2.90582 0
M  V30 2762 H 257.641 1.47619 -3.69396 0
M  V30 2763 H 254.38 0.518493 -6.53446 0
M  V30 2764 H 253.9 1.98997 -5.65827 0
M  V30 2765 H 255.579 1.78915 -6.2177 0
M  V30 2766 N 255.711 1.52812 0.385517 0
M  V30 2767 C 256.661 1.74219 1.47078 0
M  V30 2768 C 257.645 0.59632 1.49442 0
M  V30 2769 O 258.837 0.85428 1.5502 0
M  V30 2770 C 255.966 1.9176 2.84751 0
M  V30 2771 C 255.052 3.12289 2.86943 0
M  V30 2772 N 255.443 4.34575 2.58802 0
M  V30 2773 C 253.741 3.12605 3.1811 0
M  V30 2774 C 254.442 5.162 2.68166 0
M  V30 2775 N 253.418 4.51964 3.02043 0
M  V30 2776 H 257.22 2.6639 1.24152 0
M  V30 2777 H 254.734 1.51166 0.593504 0
M  V30 2778 H 256.731 2.05218 3.62893 0
M  V30 2779 H 255.391 1.00805 3.08656 0
M  V30 2780 H 256.402 4.62649 2.32759 0
M  V30 2781 H 253.079 2.31472 3.47458 0
M  V30 2782 H 254.469 6.23689 2.49923 0
M  V30 2783 N 257.189 -0.644168 1.43834 0
M  V30 2784 C 258.121 -1.76955 1.45669 0
M  V30 2785 C 259.134 -1.58956 0.351666 0
M  V30 2786 O 260.323 -1.6751 0.616644 0
M  V30 2787 C 257.423 -3.14507 1.26248 0
M  V30 2788 C 256.596 -3.59083 2.49757 0
M  V30 2789 C 255.655 -4.75467 2.25427 0
M  V30 2790 O 254.681 -4.84444 2.98836 0
M  V30 2791 N 255.883 -5.66289 1.27661 0
M  V30 2792 H 258.648 -1.75856 2.42682 0
M  V30 2793 H 256.209 -0.828312 1.39106 0
M  V30 2794 H 258.201 -3.90067 1.0784 0
M  V30 2795 H 256.771 -3.10325 0.376478 0
M  V30 2796 H 255.991 -2.7387 2.8353 0
M  V30 2797 H 257.279 -3.85613 3.31934 0
M  V30 2798 H 256.677 -5.61718 0.670064 0
M  V30 2799 H 255.234 -6.41533 1.15234 0
M  V30 2800 N 258.668 -1.30515 -0.883378 0
M  V30 2801 C 259.917 -1.18795 -1.63005 0
M  V30 2802 C 260.23 0.255923 -1.93919 0
M  V30 2803 O 261.436 0.494654 -2.66956 0
M  V30 2804 C 259.892 -2.07878 -2.93794 0
M  V30 2805 C 259.5 -3.57184 -2.70414 0
M  V30 2806 C 261.244 -2.04924 -3.71761 0
M  V30 2807 C 259.151 -4.38317 -3.97029 0
M  V30 2808 H 258.081 -0.441031 -0.611562 0
M  V30 2809 H 260.732 -1.55275 -0.977854 0
M  V30 2810 H 259.114 -1.64283 -3.60315 0
M  V30 2811 H 260.288 -4.08937 -2.12384 0
M  V30 2812 H 258.603 -3.61976 -2.0582 0
M  V30 2813 H 261.2 -2.62792 -4.65665 0
M  V30 2814 H 261.543 -1.0331 -4.03277 0
M  V30 2815 H 262.076 -2.46649 -3.12104 0
M  V30 2816 H 258.815 -5.40632 -3.70671 0
M  V30 2817 H 258.335 -3.91326 -4.54559 0
M  V30 2818 H 260.014 -4.49834 -4.65036 0
M  V30 2819 N 260.146 1.09593 -1.13257 0
M  V30 2820 C 261.395 1.81105 -0.887917 0
M  V30 2821 C 261.708 1.86563 0.587672 0
M  V30 2822 O 262.914 2.54367 0.949204 0
M  V30 2823 C 261.37 3.25338 -1.53895 0
M  V30 2824 C 260.978 3.28151 -3.04994 0
M  V30 2825 C 262.722 4.01617 -1.37492 0
M  V30 2826 C 260.629 4.66897 -3.6299 0
M  V30 2827 H 259.559 0.678661 -0.328534 0
M  V30 2828 H 262.21 1.23183 -1.36008 0
M  V30 2829 H 260.592 3.8331 -0.994446 0
M  V30 2830 H 261.766 2.79953 -3.66009 0
M  V30 2831 H 260.081 2.65361 -3.20893 0
M  V30 2832 H 262.678 5.04119 -1.78235 0
M  V30 2833 H 263.021 4.15072 -0.31957 0
M  V30 2834 H 263.554 3.50082 -1.88912 0
M  V30 2835 H 260.293 4.58643 -4.68323 0
M  V30 2836 H 259.813 5.15426 -3.06752 0
M  V30 2837 H 261.492 5.3587 -3.62563 0
M  V30 2838 N 261.624 0.925811 1.2754 0
M  V30 2839 C 262.554 0.440748 2.29303 0
M  V30 2840 C 263.535 -0.497971 1.62648 0
M  V30 2841 O 264.72 -0.403126 1.8997 0
M  V30 2842 C 261.85 -0.309048 3.45922 0
M  V30 2843 C 260.804 0.54166 4.24559 0
M  V30 2844 C 260.13 -0.337191 5.33636 0
M  V30 2845 C 261.43 1.80516 4.90114 0
M  V30 2846 H 263.124 1.29121 2.70126 0
M  V30 2847 H 260.67 0.622323 1.29858 0
M  V30 2848 H 262.623 -0.659315 4.1621 0
M  V30 2849 H 261.347 -1.19352 3.04011 0
M  V30 2850 H 260.006 0.874609 3.56014 0
M  V30 2851 H 259.654 -1.22056 4.87966 0
M  V30 2852 H 259.354 0.228497 5.87156 0
M  V30 2853 H 260.878 -0.683072 6.06767 0
M  V30 2854 H 262.292 1.52307 5.52698 0
M  V30 2855 H 260.689 2.3142 5.53683 0
M  V30 2856 H 261.759 2.52581 4.13921 0
M  V30 2857 N 263.102 -1.41638 0.69111 0
M  V30 2858 C 264.012 -2.34588 0.0233487 0
M  V30 2859 C 265.028 -1.55987 -0.770984 0
M  V30 2860 O 266.204 -1.88486 -0.709569 0
M  V30 2861 C 263.269 -3.34684 -0.904851 0
M  V30 2862 C 262.33 -4.29176 -0.103225 0
M  V30 2863 C 261.563 -5.2449 -0.987216 0
M  V30 2864 O 261.786 -5.2514 -2.22674 0
M  V30 2865 O 260.72 -6.00295 -0.439281 0
M  V30 2866 H 264.546 -2.93261 0.789416 0
M  V30 2867 H 262.131 -1.42417 0.45142 0
M  V30 2868 H 264.013 -3.96133 -1.43724 0
M  V30 2869 H 262.688 -2.78461 -1.65049 0
M  V30 2870 H 261.595 -3.71089 0.473655 0
M  V30 2871 H 262.928 -4.88484 0.60365 0
M  V30 2872 N 264.58 -0.43555 -1.51462 0
M  V30 2873 C 265.528 0.391205 -2.29287 0
M  V30 2874 C 266.522 1.02247 -1.35062 0
M  V30 2875 O 267.728 0.957646 -1.52411 0
M  V30 2876 H 264.103 0.144968 -0.737895 0
M  V30 2877 H 266.074 -0.286051 -2.97026 0
M  V30 2878 C 264.823 1.48096 -3.14583 0
M  V30 2879 H 264.146 1.00457 -3.86973 0
M  V30 2880 H 265.586 2.03273 -3.72097 0
M  V30 2881 C 264.045 2.46321 -2.29843 0
M  V30 2882 O 264.575 3.50815 -1.95682 0
M  V30 2883 N 262.781 2.17166 -1.931 0
M  V30 2884 H 262.328 1.32218 -2.21079 0
M  V30 2885 H 262.286 2.83127 -1.36698 0
M  V30 2886 N 266.058 1.56714 -0.166846 0
M  V30 2887 C 267.288 2.00828 0.48494 0
M  V30 2888 C 267.696 1.04612 1.57648 0
M  V30 2889 O 267.039 0.0383201 1.8366 0
M  V30 2890 C 267.101 3.4137 1.12723 0
M  V30 2891 C 266.765 4.56654 0.177886 0
M  V30 2892 C 267.762 5.16402 -0.60207 0
M  V30 2893 C 265.447 5.02244 0.0750139 0
M  V30 2894 C 267.441 6.20167 -1.47215 0
M  V30 2895 C 265.128 6.05859 -0.798649 0
M  V30 2896 C 266.126 6.64691 -1.57082 0
M  V30 2897 O 265.814 7.66297 -2.42989 0
M  V30 2898 H 265.546 0.663587 0.128953 0
M  V30 2899 H 268.1 2.03692 -0.264365 0
M  V30 2900 H 266.33 3.35406 1.92457 0
M  V30 2901 H 268.019 3.69466 1.68076 0
M  V30 2902 H 268.785 4.82065 -0.53274 0
M  V30 2903 H 264.664 4.56167 0.665812 0
M  V30 2904 H 268.208 6.66016 -2.07531 0
M  V30 2905 H 264.105 6.39621 -0.869199 0
M  V30 2906 H 264.873 7.83601 -2.36455 0
M  V30 2907 N 267.536 -0.106894 1.57237 0
M  V30 2908 C 268.499 -1.11466 2.0027 0
M  V30 2909 C 269.499 -1.33623 0.894519 0
M  V30 2910 O 270.689 -1.29935 1.16028 0
M  V30 2911 C 267.821 -2.46646 2.35327 0
M  V30 2912 H 269.014 -0.744516 2.90512 0
M  V30 2913 H 266.567 -0.351576 1.52295 0
M  V30 2914 H 267.302 -2.88558 1.48003 0
M  V30 2915 H 267.087 -2.31915 3.16161 0
M  V30 2916 H 268.577 -3.19151 2.69318 0
M  V30 2917 N 269.014 -1.53014 -0.377408 0
M  V30 2918 C 270.244 -1.72265 -1.14054 0
M  V30 2919 C 270.652 -0.44601 -1.83868 0
M  V30 2920 O 269.995 0.590095 -1.73964 0
M  V30 2921 C 270.057 -2.82492 -2.22348 0
M  V30 2922 C 269.721 -4.23233 -1.72402 0
M  V30 2923 C 270.718 -5.05992 -1.19448 0
M  V30 2924 C 268.403 -4.696 -1.78273 0
M  V30 2925 C 270.397 -6.33203 -0.730268 0
M  V30 2926 C 268.084 -5.96792 -1.31464 0
M  V30 2927 C 269.082 -6.78424 -0.789297 0
M  V30 2928 O 268.77 -8.0323 -0.328077 0
M  V30 2929 H 268.502 -0.579873 -0.347453 0
M  V30 2930 H 271.056 -2.00502 -0.445882 0
M  V30 2931 H 269.286 -2.49702 -2.95272 0
M  V30 2932 H 270.975 -2.90034 -2.83963 0
M  V30 2933 H 271.741 -4.71349 -1.14259 0
M  V30 2934 H 267.62 -4.06142 -2.18106 0
M  V30 2935 H 271.164 -6.96868 -0.319542 0
M  V30 2936 H 267.061 -6.30937 -1.36342 0
M  V30 2937 H 267.829 -8.1727 -0.448493 0
M  V30 2938 N 270.492 0.636531 -1.44174 0
M  V30 2939 C 271.903 1.21806 -1.41493 0
M  V30 2940 C 272.254 1.95785 -0.1275 0
M  V30 2941 O 271.379 2.02147 0.772376 0
M  V30 2942 C 271.974 2.21551 -2.56321 0
M  V30 2943 C 270.533 2.75143 -2.56853 0
M  V30 2944 C 269.68 1.50052 -2.33195 0
M  V30 2945 H 272.631 0.427531 -1.52833 0
M  V30 2946 H 272.652 3.0405 -2.28765 0
M  V30 2947 H 272.164 1.67679 -3.50008 0
M  V30 2948 H 270.265 3.33033 -1.67093 0
M  V30 2949 H 270.378 3.2155 -3.55165 0
M  V30 2950 H 268.742 1.77993 -1.82183 0
M  V30 2951 H 269.525 0.980903 -3.28988 0
M  V30 2952 N 271.97 1.30982 0.876444 0
M  V30 2953 C 273.218 1.20058 1.62575 0
M  V30 2954 C 273.539 -0.242947 1.93481 0
M  V30 2955 O 272.809 -1.1619 1.57724 0
M  V30 2956 H 271.389 0.44135 0.602677 0
M  V30 2957 H 274.051 1.64222 1.04962 0
M  V30 2958 H 273.147 1.76762 2.57219 0
M  V30 2959 N 273.449 -1.08991 1.13837 0
M  V30 2960 C 274.695 -1.81526 0.90422 0
M  V30 2961 C 275.028 -1.85706 -0.568066 0
M  V30 2962 O 274.303 -1.32855 -1.42056 0
M  V30 2963 C 274.586 -3.27447 1.49835 0
M  V30 2964 C 274.439 -3.31512 3.04006 0
M  V30 2965 C 275.758 -4.24256 1.17025 0
M  V30 2966 H 272.877 -0.659029 0.329923 0
M  V30 2967 H 275.519 -1.27644 1.40737 0
M  V30 2968 H 273.669 -3.73462 1.07044 0
M  V30 2969 H 275.341 -2.93867 3.55584 0
M  V30 2970 H 273.584 -2.70963 3.38765 0
M  V30 2971 H 274.255 -4.34329 3.40679 0
M  V30 2972 H 276.731 -3.86549 1.54009 0
M  V30 2973 H 275.607 -5.24684 1.61237 0
M  V30 2974 H 275.868 -4.42019 0.0846274 0
M  V30 2975 N 274.927 -0.932562 -1.27047 0
M  V30 2976 C 275.857 -0.452902 -2.29066 0
M  V30 2977 C 276.838 0.489338 -1.62909 0
M  V30 2978 O 278.023 0.393046 -1.90181 0
M  V30 2979 C 275.153 0.290698 -3.46081 0
M  V30 2980 C 274.107 -0.564168 -4.24265 0
M  V30 2981 C 273.433 0.308886 -5.33807 0
M  V30 2982 C 274.733 -1.83112 -4.89149 0
M  V30 2983 H 276.427 -1.30552 -2.69437 0
M  V30 2984 H 273.973 -0.629201 -1.29526 0
M  V30 2985 H 275.926 0.637233 -4.16554 0
M  V30 2986 H 274.65 1.17738 -3.0464 0
M  V30 2987 H 273.309 -0.893477 -3.55545 0
M  V30 2988 H 272.957 1.19467 -4.88607 0
M  V30 2989 H 272.657 -0.259633 -5.87026 0
M  V30 2990 H 274.181 0.650884 -6.07121 0
M  V30 2991 H 275.595 -1.55236 -5.51883 0
M  V30 2992 H 273.992 -2.34353 -5.52448 0
M  V30 2993 H 275.062 -2.54772 -4.12576 0
M  V30 2994 N 276.405 1.4127 -0.698611 0
M  V30 2995 C 277.335 2.33447 -0.049629 0
M  V30 2996 C 278.316 1.51982 0.763898 0
M  V30 2997 O 279.501 1.80509 0.716257 0
M  V30 2998 C 276.631 3.35828 0.885267 0
M  V30 2999 C 275.585 4.27627 0.178613 0
M  V30 3000 C 274.911 5.20406 1.22807 0
M  V30 3001 C 276.211 5.13459 -0.956933 0
M  V30 3002 H 277.905 2.87966 -0.81951 0
M  V30 3003 H 275.451 1.38461 -0.395538 0
M  V30 3004 H 277.404 3.9924 1.34854 0
M  V30 3005 H 276.128 2.79666 1.68685 0
M  V30 3006 H 274.787 3.65643 -0.26466 0
M  V30 3007 H 274.435 4.60558 2.02226 0
M  V30 3008 H 274.135 5.82661 0.760239 0
M  V30 3009 H 275.659 5.86695 1.69179 0
M  V30 3010 H 277.073 5.70421 -0.573805 0
M  V30 3011 H 275.47 5.8467 -1.35205 0
M  V30 3012 H 276.54 4.50443 -1.79524 0
M  V30 3013 N 277.883 0.443576 1.51229 0
M  V30 3014 C 279.132 -0.122332 2.01329 0
M  V30 3015 C 279.445 -1.43237 1.33201 0
M  V30 3016 O 280.651 -2.0816 1.74304 0
M  V30 3017 C 279.107 -0.268551 3.58897 0
M  V30 3018 C 278.715 1.03142 4.35965 0
M  V30 3019 C 280.459 -0.787894 4.17124 0
M  V30 3020 C 278.366 0.850504 5.85252 0
M  V30 3021 H 277.296 -0.0494929 0.752374 0
M  V30 3022 H 279.947 0.574289 1.74282 0
M  V30 3023 H 278.329 -1.02832 3.82415 0
M  V30 3024 H 279.503 1.80001 4.24189 0
M  V30 3025 H 277.818 1.47977 3.89219 0
M  V30 3026 H 280.415 -0.939841 5.26375 0
M  V30 3027 H 280.758 -1.77201 3.76703 0
M  V30 3028 H 281.291 -0.0862669 3.97706 0
M  V30 3029 H 278.03 1.80718 6.30096 0
M  V30 3030 H 277.55 0.121825 5.99676 0
M  V30 3031 H 279.229 0.506163 6.45017 0
M  V30 3032 N 279.361 -1.56624 0.175154 0
M  V30 3033 C 280.609 -1.96609 -0.467885 0
M  V30 3034 C 280.93 -1.06238 -1.63519 0
M  V30 3035 O 280.2 -0.129523 -1.95471 0
M  V30 3036 H 278.78 -0.726008 -0.175845 0
M  V30 3037 H 281.442 -1.93195 0.257234 0
M  V30 3038 H 280.538 -3.00989 -0.825342 0
M  V30 3039 N 280.839 0.0985539 -1.57292 0
M  V30 3040 C 282.067 0.816318 -1.90115 0
M  V30 3041 C 282.482 1.72451 -0.768509 0
M  V30 3042 O 281.839 1.80643 0.259687 0
M  V30 3043 C 281.89 1.63259 -3.22535 0
M  V30 3044 O 281.611 0.760934 -4.31441 0
M  V30 3045 C 283.112 2.45372 -3.69199 0
M  V30 3046 H 280.332 0.233595 -0.629027 0
M  V30 3047 H 282.876 0.0768229 -2.04356 0
M  V30 3048 H 281.031 2.32463 -3.09903 0
M  V30 3049 H 281.445 1.32595 -5.07463 0
M  V30 3050 H 282.919 2.98144 -4.64558 0
M  V30 3051 H 283.396 3.23677 -2.96867 0
M  V30 3052 H 284.002 1.81373 -3.84687 0
M  V30 3053 N 282.317 1.53212 0.369288 0
M  V30 3054 C 283.594 1.59815 1.12776 0
M  V30 3055 C 283.974 0.403402 2.0721 0
M  V30 3056 O 283.322 -0.606667 2.20299 0
M  V30 3057 C 283.532 2.94664 1.87013 0
M  V30 3058 C 284.88 3.49109 2.41677 0
M  V30 3059 O 285.904 2.96669 1.97144 0
M  V30 3060 O 284.763 4.40775 3.23079 0
M  V30 3061 H 281.857 0.645376 0.517125 0
M  V30 3062 H 284.403 1.65553 0.37285 0
M  V30 3063 H 283.175 3.73061 1.18071 0
M  V30 3064 H 282.798 2.92401 2.69421 0
M  V30 3065 N 283.795 -0.628877 1.44509 0
M  V30 3066 C 285.02 -1.42048 1.5112 0
M  V30 3067 C 285.445 -1.87594 0.137818 0
M  V30 3068 O 284.803 -1.58873 -0.873437 0
M  V30 3069 C 284.851 -2.61541 2.48251 0
M  V30 3070 O 283.955 -3.61453 1.98559 0
M  V30 3071 H 283.296 -0.424942 0.510216 0
M  V30 3072 H 285.826 -0.767374 1.89664 0
M  V30 3073 H 285.836 -3.09057 2.66361 0
M  V30 3074 H 284.511 -2.27736 3.48007 0
M  V30 3075 H 283.088 -3.20731 1.90227 0
M  V30 3076 N 285.273 -1.31445 -0.869486 0
M  V30 3077 C 286.223 -1.15731 -1.96444 0
M  V30 3078 C 287.207 -0.0681855 -1.60755 0
M  V30 3079 O 288.399 -0.293154 -1.74555 0
M  V30 3080 C 285.528 -0.867255 -3.32165 0
M  V30 3081 C 284.614 -1.99738 -3.74119 0
M  V30 3082 N 285.005 -3.24447 -3.88031 0
M  V30 3083 C 283.303 -1.89723 -4.03635 0
M  V30 3084 C 284.004 -3.98374 -4.23879 0
M  V30 3085 N 282.98 -3.26547 -4.3459 0
M  V30 3086 H 286.782 -2.10296 -2.05312 0
M  V30 3087 H 284.296 -1.23009 -1.06031 0
M  V30 3088 H 286.293 -0.735668 -4.10358 0
M  V30 3089 H 284.953 0.0701614 -3.24624 0
M  V30 3090 H 285.964 -3.59557 -3.72746 0
M  V30 3091 H 282.641 -1.03449 -4.04481 0
M  V30 3092 H 284.031 -5.05844 -4.42235 0
M  V30 3093 N 286.751 1.08385 -1.14413 0
M  V30 3094 C 287.979 1.84517 -0.936001 0
M  V30 3095 C 288.394 1.81626 0.515503 0
M  V30 3096 O 287.751 1.22008 1.35721 0
M  V30 3097 C 287.802 3.32049 -1.42918 0
M  V30 3098 O 287.523 3.34951 -2.82381 0
M  V30 3099 C 289.024 4.24986 -1.26103 0
M  V30 3100 H 286.244 0.582491 -0.333084 0
M  V30 3101 H 288.788 1.36885 -1.5193 0
M  V30 3102 H 286.943 3.7707 -0.888641 0
M  V30 3103 H 287.357 4.27048 -3.04517 0
M  V30 3104 H 288.831 5.26615 -1.6547 0
M  V30 3105 H 289.308 4.38726 -0.20392 0
M  V30 3106 H 289.914 3.85791 -1.79012 0
M  V30 3107 N 288.23 0.939286 1.26551 0
M  V30 3108 C 289.641 0.628782 1.75793 0
M  V30 3109 C 289.992 -0.856046 1.7654 0
M  V30 3110 O 289.117 -1.66994 1.3763 0
M  V30 3111 C 289.712 1.13465 3.19235 0
M  V30 3112 C 288.271 0.874601 3.66098 0
M  V30 3113 C 287.418 1.28667 2.45642 0
M  V30 3114 H 290.369 1.1178 1.12654 0
M  V30 3115 H 290.39 0.487609 3.77363 0
M  V30 3116 H 289.902 2.21535 3.1866 0
M  V30 3117 H 288.003 -0.191793 3.72106 0
M  V30 3118 H 288.116 1.50028 4.55004 0
M  V30 3119 H 286.48 0.705109 2.44745 0
M  V30 3120 H 287.263 2.37625 2.47769 0
M  V30 3121 N 289.708 -1.40897 0.706093 0
M  V30 3122 C 290.656 -2.32572 0.0361893 0
M  V30 3123 C 291.65 -1.51532 -0.757266 0
M  V30 3124 O 292.856 -1.67396 -0.661703 0
M  V30 3125 H 289.231 -0.751966 -0.00709935 0
M  V30 3126 H 291.202 -2.86733 0.826249 0
M  V30 3127 C 289.951 -3.36418 -0.87854 0
M  V30 3128 H 289.274 -3.98836 -0.277401 0
M  V30 3129 H 290.714 -4.0308 -1.3154 0
M  V30 3130 C 289.173 -2.71141 -1.99961 0
M  V30 3131 O 289.703 -2.56735 -3.0895 0
M  V30 3132 N 287.909 -2.29671 -1.78043 0
M  V30 3133 H 287.456 -2.41588 -0.894042 0
M  V30 3134 H 287.414 -1.86332 -2.53235 0
M  V30 3135 N 291.186 -0.45159 -1.50991 0
M  V30 3136 C 292.434 0.109857 -2.01801 0
M  V30 3137 C 292.755 1.41958 -1.3369 0
M  V30 3138 O 292.025 1.9003 -0.475951 0
M  V30 3139 H 290.605 0.0435884 -0.745727 0
M  V30 3140 H 293.267 -0.597557 -1.85514 0
M  V30 3141 H 292.363 0.275489 -3.10882 0
M  V30 3142 N 292.664 1.56529 -0.183458 0
M  V30 3143 C 293.912 1.96855 0.457452 0
M  V30 3144 C 294.233 1.07104 1.62953 0
M  V30 3145 O 293.503 0.139887 1.954 0
M  V30 3146 H 292.083 0.72693 0.171992 0
M  V30 3147 H 294.745 1.93056 -0.267476 0
M  V30 3148 H 293.841 3.01423 0.809368 0
M  V30 3149 N 294.142 -0.090211 1.57342 0
M  V30 3150 C 295.39 -0.791241 1.85967 0
M  V30 3151 C 295.711 -1.7903 0.772859 0
M  V30 3152 O 294.981 -1.94872 -0.200398 0
M  V30 3153 H 293.561 -0.295205 0.686195 0
M  V30 3154 H 296.223 -0.0706782 1.94772 0
M  V30 3155 H 295.319 -1.31882 2.82867 0
M  V30 3156 N 295.62 -1.53406 -0.361157 0
M  V30 3157 C 296.55 -1.83136 -1.44857 0
M  V30 3158 C 297.531 -0.685174 -1.5569 0
M  V30 3159 O 298.716 -0.93544 -1.70186 0
M  V30 3160 C 295.846 -2.02522 -2.82138 0
M  V30 3161 C 294.8 -3.18302 -2.86126 0
M  V30 3162 C 294.126 -3.22989 -4.26125 0
M  V30 3163 C 295.426 -4.56796 -2.53248 0
M  V30 3164 H 297.12 -2.74201 -1.20226 0
M  V30 3165 H 294.666 -1.31938 -0.576922 0
M  V30 3166 H 296.619 -2.21904 -3.58241 0
M  V30 3167 H 295.343 -1.08172 -3.08166 0
M  V30 3168 H 294.002 -2.98747 -2.12475 0
M  V30 3169 H 293.65 -2.26267 -4.49235 0
M  V30 3170 H 293.35 -4.00781 -4.29708 0
M  V30 3171 H 294.874 -3.44559 -5.04094 0
M  V30 3172 H 296.288 -4.7631 -3.19064 0
M  V30 3173 H 294.685 -5.36862 -2.68141 0
M  V30 3174 H 295.755 -4.61606 -1.48484 0
M  V30 3175 N 297.098 0.621204 -1.44841 0
M  V30 3176 C 298.346 1.37783 -1.47852 0
M  V30 3177 C 298.667 1.94653 -0.116224 0
M  V30 3178 O 297.937 1.76367 0.852737 0
M  V30 3179 H 296.517 0.511453 -0.544449 0
M  V30 3180 H 299.179 0.730446 -1.80694 0
M  V30 3181 H 298.275 2.20414 -2.20961 0
M  V30 3182 N 298.576 1.31904 0.862503 0
M  V30 3183 C 299.824 1.21776 1.61292 0
M  V30 3184 C 300.145 -0.222413 1.93727 0
M  V30 3185 O 299.415 -1.1451 1.58947 0
M  V30 3186 H 297.995 0.447717 0.597962 0
M  V30 3187 H 300.657 1.65326 1.03215 0
M  V30 3188 H 299.753 1.7948 2.5533 0
M  V30 3189 N 300.054 -1.07777 1.14986 0
M  V30 3190 C 301.303 -1.79669 0.916617 0
M  V30 3191 C 301.616 -1.87474 -0.557917 0
M  V30 3192 O 302.822 -2.55845 -0.908617 0
M  V30 3193 C 301.278 -3.22848 1.59051 0
M  V30 3194 C 300.886 -3.23257 3.10176 0
M  V30 3195 C 302.63 -3.99379 1.43864 0
M  V30 3196 C 300.537 -4.61063 3.70372 0
M  V30 3197 H 299.467 -0.673349 0.33929 0
M  V30 3198 H 302.118 -1.21003 1.37951 0
M  V30 3199 H 300.5 -3.8168 1.0553 0
M  V30 3200 H 301.674 -2.74095 3.70417 0
M  V30 3201 H 299.989 -2.60222 3.25074 0
M  V30 3202 H 302.586 -5.0122 1.86232 0
M  V30 3203 H 302.929 -4.14511 0.385564 0
M  V30 3204 H 303.462 -3.47032 1.94457 0
M  V30 3205 H 300.201 -4.51135 4.7556 0
M  V30 3206 H 299.721 -5.1048 3.14913 0
M  V30 3207 H 301.4 -5.30034 3.71043 0
M  V30 3208 N 301.532 -0.945985 -1.26051 0
M  V30 3209 C 302.772 -0.603665 -1.95282 0
M  V30 3210 C 303.136 0.842377 -1.72534 0
M  V30 3211 O 304.337 1.29387 -2.35611 0
M  V30 3212 C 302.608 -0.942292 -3.44754 0
M  V30 3213 S 304.167 -0.711242 -4.32997 0
M  V30 3214 H 300.985 -0.222176 -0.675395 0
M  V30 3215 H 303.587 -1.21832 -1.52896 0
M  V30 3216 H 302.291 -1.99203 -3.58812 0
M  V30 3217 H 301.822 -0.317546 -3.92116 0
M  V30 3218 H 303.837 0.422221 -4.944 0
M  V30 3219 N 303.011 1.40521 -0.713556 0
M  V30 3220 C 304.26 2.00155 -0.249192 0
M  V30 3221 C 304.573 1.57224 1.16362 0
M  V30 3222 O 305.779 2.09542 1.72639 0
M  V30 3223 C 304.235 3.5773 -0.3946 0
M  V30 3224 C 303.843 4.09635 -1.81392 0
M  V30 3225 C 305.587 4.24499 0.00907364 0
M  V30 3226 C 303.494 5.59707 -1.91003 0
M  V30 3227 H 302.424 0.74868 -0.0894114 0
M  V30 3228 H 305.075 1.60784 -0.884352 0
M  V30 3229 H 303.457 3.94792 0.30911 0
M  V30 3230 H 304.631 3.83955 -2.54785 0
M  V30 3231 H 302.946 3.55456 -2.16888 0
M  V30 3232 H 305.543 5.34683 -0.0420404 0
M  V30 3233 H 305.886 4.02824 1.05065 0
M  V30 3234 H 306.419 3.92536 -0.645007 0
M  V30 3235 H 303.158 5.86234 -2.93275 0
M  V30 3236 H 302.678 5.87258 -1.22019 0
M  V30 3237 H 304.357 6.24776 -1.6812 0
M  V30 3238 N 304.489 0.459591 1.5075 0
M  V30 3239 C 305.737 -0.0991532 2.01857 0
M  V30 3240 C 306.058 -1.41247 1.34441 0
M  V30 3241 O 305.328 -1.89775 0.486022 0
M  V30 3242 H 303.908 -0.039633 0.745948 0
M  V30 3243 H 306.57 0.607387 1.85194 0
M  V30 3244 H 305.666 -0.258998 3.11023 0
M  V30 3245 N 305.967 -1.56429 0.191757 0
M  V30 3246 C 307.213 -1.97777 -0.448554 0
M  V30 3247 C 307.546 -1.07847 -1.61501 0
M  V30 3248 O 306.821 -0.129774 -1.94067 0
M  V30 3249 C 307.104 -3.48362 -0.911906 0
M  V30 3250 C 306.957 -4.4907 0.256136 0
M  V30 3251 C 308.276 -4.02561 -1.77857 0
M  V30 3252 H 305.395 -0.719071 -0.161572 0
M  V30 3253 H 308.037 -1.87896 0.282007 0
M  V30 3254 H 306.187 -3.56914 -1.53442 0
M  V30 3255 H 307.859 -4.5256 0.893733 0
M  V30 3256 H 306.102 -4.24181 0.908436 0
M  V30 3257 H 306.773 -5.51889 -0.11053 0
M  V30 3258 H 309.249 -3.96767 -1.25359 0
M  V30 3259 H 308.125 -5.08301 -2.07174 0
M  V30 3260 H 308.386 -3.47616 -2.73158 0
M  V30 3261 N 307.445 0.0818655 -1.57387 0
M  V30 3262 C 308.693 0.781368 -1.86384 0
M  V30 3263 C 309.014 1.78618 -0.782342 0
M  V30 3264 O 308.284 1.94976 0.190061 0
M  V30 3265 H 306.864 0.291562 -0.687751 0
M  V30 3266 H 309.526 0.060348 -1.94807 0
M  V30 3267 H 308.622 1.3038 -2.83562 0
M  V30 3268 N 308.923 1.53595 0.353017 0
M  V30 3269 C 310.171 1.70049 1.09215 0
M  V30 3270 C 310.492 0.461406 1.89463 0
M  V30 3271 O 309.762 -0.524633 1.88744 0
M  V30 3272 H 308.342 0.626912 0.40619 0
M  V30 3273 H 311.004 1.90822 0.396585 0
M  V30 3274 H 310.1 2.56718 1.77488 0
M  V30 3275 N 310.401 -0.613514 1.45168 0
M  V30 3276 C 311.364 -1.7065 1.53007 0
M  V30 3277 C 312.364 -1.5548 0.410184 0
M  V30 3278 O 313.554 -1.60656 0.673455 0
M  V30 3279 C 310.686 -3.09875 1.42093 0
M  V30 3280 H 311.879 -1.65068 2.50385 0
M  V30 3281 H 309.432 -0.828728 1.32521 0
M  V30 3282 H 310.167 -3.21039 0.458769 0
M  V30 3283 H 309.952 -3.22293 2.23315 0
M  V30 3284 H 311.442 -3.895 1.50598 0
M  V30 3285 N 311.879 -1.3236 -0.855495 0
M  V30 3286 C 313.156 -1.13491 -1.59309 0
M  V30 3287 C 313.536 0.30503 -2.08885 0
M  V30 3288 O 312.884 1.30151 -1.87811 0
M  V30 3289 C 313.094 -2.16176 -2.73987 0
M  V30 3290 C 314.442 -2.49463 -3.43589 0
M  V30 3291 O 315.466 -2.14715 -2.84211 0
M  V30 3292 O 314.325 -3.09027 -4.50738 0
M  V30 3293 H 311.419 -0.437887 -0.701559 0
M  V30 3294 H 313.965 -1.43887 -0.899696 0
M  V30 3295 H 312.737 -3.1297 -2.34873 0
M  V30 3296 H 312.36 -1.86769 -3.51003 0
M  V30 3297 N 313.357 1.07166 -1.15556 0
M  V30 3298 C 314.32 2.12589 -0.856644 0
M  V30 3299 C 315.32 1.6015 0.14444 0
M  V30 3300 O 316.51 1.7399 -0.0854163 0
M  V30 3301 C 313.642 3.39753 -0.279405 0
M  V30 3302 H 314.835 2.40539 -1.79112 0
M  V30 3303 H 312.388 1.23086 -0.963298 0
M  V30 3304 H 313.123 3.17447 0.663174 0
M  V30 3305 H 312.908 3.79117 -1.00063 0
M  V30 3306 H 314.398 4.17507 -0.0879113 0
M  V30 3307 N 314.835 0.952656 1.25548 0
M  V30 3308 C 316.081 0.607272 1.93494 0
M  V30 3309 C 316.414 -0.853245 1.74452 0
M  V30 3310 O 315.689 -1.61194 1.08843 0
M  V30 3311 C 315.972 0.96435 3.46947 0
M  V30 3312 C 315.825 2.48045 3.75225 0
M  V30 3313 C 317.144 0.487987 4.37386 0
M  V30 3314 H 314.263 0.222096 0.702739 0
M  V30 3315 H 316.905 1.18895 1.48203 0
M  V30 3316 H 315.055 0.469361 3.85654 0
M  V30 3317 H 316.727 3.04905 3.46166 0
M  V30 3318 H 314.97 2.919 3.209 0
M  V30 3319 H 315.641 2.6808 4.82532 0
M  V30 3320 H 318.117 0.912558 4.0597 0
M  V30 3321 H 316.993 0.766547 5.43521 0
M  V30 3322 H 317.254 -0.612063 4.37843 0
M  V30 3323 N 316.313 -1.40141 0.720998 0
M  V30 3324 C 317.59 -1.94677 0.189757 0
M  V30 3325 C 317.97 -1.65879 -1.30566 0
M  V30 3326 O 317.318 -0.979391 -2.06447 0
M  V30 3327 C 317.528 -3.45279 0.508304 0
M  V30 3328 C 318.876 -4.22209 0.449934 0
M  V30 3329 O 319.9 -3.53413 0.444677 0
M  V30 3330 O 318.759 -5.44788 0.432189 0
M  V30 3331 H 315.853 -0.826459 0.0299026 0
M  V30 3332 H 318.399 -1.49719 0.7989 0
M  V30 3333 H 317.171 -3.59619 1.54239 0
M  V30 3334 H 316.794 -3.97386 -0.130525 0
M  V30 3335 N 317.792 -0.46758 -1.50504 0
M  V30 3336 C 319.038 0.0887532 -2.02606 0
M  V30 3337 C 319.371 1.39686 -1.34913 0
M  V30 3338 O 318.646 1.88644 -0.473694 0
M  V30 3339 C 318.929 0.276206 -3.59039 0
M  V30 3340 C 318.782 -1.05267 -4.37309 0
M  V30 3341 C 320.101 1.03235 -4.27821 0
M  V30 3342 H 317.22 0.0307814 -0.736357 0
M  V30 3343 H 319.862 -0.612485 -1.79857 0
M  V30 3344 H 318.012 0.8735 -3.78553 0
M  V30 3345 H 319.684 -1.68628 -4.29374 0
M  V30 3346 H 317.927 -1.65015 -4.01189 0
M  V30 3347 H 318.598 -0.875197 -5.45018 0
M  V30 3348 H 321.074 0.526111 -4.12761 0
M  V30 3349 H 319.95 1.1323 -5.37094 0
M  V30 3350 H 320.211 2.06806 -3.90748 0
M  V30 3351 N 319.27 1.56325 -0.20005 0
M  V30 3352 C 320.203 2.15234 0.758267 0
M  V30 3353 C 321.181 1.09046 1.20614 0
M  V30 3354 O 322.365 1.37186 1.29276 0
M  V30 3355 C 319.492 2.71524 2.02466 0
M  V30 3356 C 318.538 3.90345 1.71852 0
M  V30 3357 S 319.371 5.28513 0.862249 0
M  V30 3358 C 320.527 5.88227 2.13868 0
M  V30 3359 H 320.76 2.96183 0.2575 0
M  V30 3360 H 318.293 1.54393 0.0150099 0
M  V30 3361 H 320.251 3.04598 2.75191 0
M  V30 3362 H 318.912 1.90607 2.49655 0
M  V30 3363 H 318.105 4.28158 2.65888 0
M  V30 3364 H 317.707 3.58306 1.07205 0
M  V30 3365 H 319.999 6.02891 3.09076 0
M  V30 3366 H 320.942 6.84714 1.80479 0
M  V30 3367 H 321.35 5.16874 2.2694 0
M  V30 3368 N 320.748 -0.0735177 1.57428 0
M  V30 3369 C 321.711 -1.07192 2.02589 0
M  V30 3370 C 322.711 -1.31695 0.922661 0
M  V30 3371 O 323.901 -1.27445 1.18758 0
M  V30 3372 C 321.033 -2.41599 2.40506 0
M  V30 3373 H 322.226 -0.682727 2.92025 0
M  V30 3374 H 319.779 -0.319193 1.53006 0
M  V30 3375 H 320.514 -2.85354 1.5409 0
M  V30 3376 H 320.299 -2.25156 3.21009 0
M  V30 3377 H 321.789 -3.13367 2.76027 0
M  V30 3378 N 322.226 -1.5378 -0.344866 0
M  V30 3379 C 323.474 -1.70625 -1.08311 0
M  V30 3380 C 323.795 -0.471447 -1.89215 0
M  V30 3381 O 323.065 0.514616 -1.8902 0
M  V30 3382 H 321.645 -0.629058 -0.402859 0
M  V30 3383 H 324.307 -1.9103 -0.386459 0
M  V30 3384 H 323.403 -2.57656 -1.76124 0
M  V30 3385 N 323.704 0.605807 -1.45491 0
M  V30 3386 C 324.953 1.36086 -1.48874 0
M  V30 3387 C 325.266 1.95131 -0.135333 0
M  V30 3388 O 326.472 2.7146 -0.0468144 0
M  V30 3389 C 324.928 2.46518 -2.62215 0
M  V30 3390 C 324.536 1.93877 -4.03876 0
M  V30 3391 C 326.28 3.23512 -2.74846 0
M  V30 3392 C 324.187 3.01801 -5.08596 0
M  V30 3393 H 323.117 0.511497 -0.553974 0
M  V30 3394 H 325.768 0.649089 -1.71636 0
M  V30 3395 H 324.15 3.20388 -2.32739 0
M  V30 3396 H 325.324 1.26704 -4.43038 0
M  V30 3397 H 323.639 1.29622 -3.95711 0
M  V30 3398 H 326.236 4.04013 -3.50253 0
M  V30 3399 H 326.579 3.74631 -1.81542 0
M  V30 3400 H 327.112 2.56742 -3.03856 0
M  V30 3401 H 323.851 2.55597 -6.03614 0
M  V30 3402 H 323.371 3.67535 -4.74002 0
M  V30 3403 H 325.05 3.66152 -5.33424 0
M  V30 3404 N 325.182 1.32811 0.848464 0
M  V30 3405 C 326.593 1.21315 1.41914 0
M  V30 3406 C 326.944 -0.171847 1.95446 0
M  V30 3407 O 326.069 -1.07093 1.88043 0
M  V30 3408 C 326.664 2.19631 2.57968 0
M  V30 3409 C 325.223 2.12003 3.11017 0
M  V30 3410 C 324.37 2.07651 1.83783 0
M  V30 3411 H 327.321 1.44549 0.655071 0
M  V30 3412 H 327.342 1.79845 3.35315 0
M  V30 3413 H 326.854 3.20423 2.18976 0
M  V30 3414 H 324.955 1.14481 3.54577 0
M  V30 3415 H 325.068 3.02111 3.71841 0
M  V30 3416 H 323.432 1.52983 2.03638 0
M  V30 3417 H 324.215 3.10235 1.47 0
M  V30 3418 N 326.66 -1.06551 1.16123 0
M  V30 3419 C 327.906 -1.79719 0.952505 0
M  V30 3420 C 328.261 -1.85396 -0.514385 0
M  V30 3421 O 327.554 -1.33263 -1.37665 0
M  V30 3422 C 327.748 -3.23911 1.51052 0
M  V30 3423 C 327.577 -3.32284 3.03013 0
M  V30 3424 C 326.347 -3.42371 3.71632 0
M  V30 3425 C 328.545 -3.22363 4.00732 0
M  V30 3426 N 326.527 -3.39732 5.11327 0
M  V30 3427 C 327.898 -3.26937 5.26794 0
M  V30 3428 C 329.953 -3.0623 3.92591 0
M  V30 3429 C 328.656 -3.17035 6.45663 0
M  V30 3430 C 330.682 -2.97665 5.11028 0
M  V30 3431 C 330.044 -3.02858 6.35969 0
M  V30 3432 H 326.143 -0.670585 0.402293 0
M  V30 3433 H 328.727 -1.27125 1.4747 0
M  V30 3434 H 326.898 -3.74907 1.01484 0
M  V30 3435 H 328.63 -3.85242 1.2398 0
M  V30 3436 H 325.385 -3.47058 3.22254 0
M  V30 3437 H 325.809 -3.41919 5.84312 0
M  V30 3438 H 330.451 -3.01063 2.96852 0
M  V30 3439 H 328.169 -3.2096 7.41627 0
M  V30 3440 H 331.755 -2.86273 5.06497 0
M  V30 3441 H 330.635 -2.96286 7.26075 0
M  V30 3442 N 328.138 -0.959301 -1.25041 0
M  V30 3443 C 329.048 -0.489994 -2.29426 0
M  V30 3444 C 330.064 0.444944 -1.68215 0
M  V30 3445 O 331.24 0.320046 -1.98841 0
M  V30 3446 C 328.305 0.220309 -3.45999 0
M  V30 3447 C 327.366 -0.753418 -4.22637 0
M  V30 3448 C 326.599 -0.076918 -5.33645 0
M  V30 3449 O 326.822 1.13649 -5.58963 0
M  V30 3450 O 325.756 -0.764824 -5.97021 0
M  V30 3451 H 329.582 -1.35755 -2.71669 0
M  V30 3452 H 327.167 -0.725961 -1.30576 0
M  V30 3453 H 329.049 0.619677 -4.16819 0
M  V30 3454 H 327.724 1.06296 -3.0575 0
M  V30 3455 H 326.631 -1.20308 -3.54227 0
M  V30 3456 H 327.964 -1.56423 -4.66683 0
M  V30 3457 N 329.616 1.39756 -0.72842 0
M  V30 3458 C 330.546 2.33289 -0.0991354 0
M  V30 3459 C 331.527 1.53568 0.731489 0
M  V30 3460 O 332.712 1.81987 0.677807 0
M  V30 3461 C 329.842 3.3763 0.813834 0
M  V30 3462 C 328.796 4.2791 0.0878663 0
M  V30 3463 C 328.122 5.22894 1.11741 0
M  V30 3464 C 329.422 5.11314 -1.06563 0
M  V30 3465 H 331.116 2.86163 -0.880408 0
M  V30 3466 H 328.662 1.37591 -0.424819 0
M  V30 3467 H 330.615 4.0201 1.26355 0
M  V30 3468 H 329.339 2.83181 1.62715 0
M  V30 3469 H 327.998 3.65 -0.342159 0
M  V30 3470 H 327.646 4.64744 1.92412 0
M  V30 3471 H 327.346 5.84143 0.636477 0
M  V30 3472 H 328.87 5.90151 1.56697 0
M  V30 3473 H 330.284 5.69076 -0.694671 0
M  V30 3474 H 328.681 5.81671 -1.47577 0
M  V30 3475 H 329.751 4.46534 -1.89038 0
M  V30 3476 N 331.094 0.475555 1.50254 0
M  V30 3477 C 332.041 -0.316293 2.28622 0
M  V30 3478 C 333.011 -0.983227 1.33873 0
M  V30 3479 O 334.196 -0.994805 1.62814 0
M  V30 3480 C 331.336 -1.38975 3.1588 0
M  V30 3481 C 330.449 -0.737146 4.25664 0
M  V30 3482 C 329.584 -1.78887 5.00173 0
M  V30 3483 C 328.623 -1.11676 6.01826 0
M  V30 3484 N 327.76 -2.11154 6.69596 0
M  V30 3485 H 332.6 0.358297 2.95838 0
M  V30 3486 H 330.137 0.188541 1.45887 0
M  V30 3487 H 332.095 -2.02383 3.64825 0
M  V30 3488 H 330.725 -2.03344 2.50701 0
M  V30 3489 H 329.777 0.0096065 3.80399 0
M  V30 3490 H 331.089 -0.206816 4.98371 0
M  V30 3491 H 330.243 -2.49865 5.52859 0
M  V30 3492 H 328.982 -2.35302 4.27182 0
M  V30 3493 H 327.987 -0.392633 5.48396 0
M  V30 3494 H 329.212 -0.55945 6.76792 0
M  V30 3495 H 327.158 -2.66577 5.99394 0
M  V30 3496 H 327.075 -1.63118 7.38193 0
M  V30 3497 H 328.343 -2.81497 7.26897 0
M  V30 3498 N 332.573 -1.56217 0.208337 0
M  V30 3499 C 333.813 -1.99849 -0.428927 0
M  V30 3500 C 334.177 -1.09262 -1.57879 0
M  V30 3501 O 335.378 -1.42185 -2.28116 0
M  V30 3502 C 333.649 -3.46777 -0.864879 0
M  V30 3503 S 335.208 -4.12434 -1.49811 0
M  V30 3504 H 332.026 -0.697742 -0.136665 0
M  V30 3505 H 334.628 -1.92953 0.314519 0
M  V30 3506 H 333.332 -4.10396 -0.0181326 0
M  V30 3507 H 332.863 -3.57518 -1.64147 0
M  V30 3508 H 334.878 -4.10532 -2.78707 0
M  V30 3509 N 334.051 0.0651679 -1.57465 0
M  V30 3510 C 335.462 0.616213 -1.76238 0
M  V30 3511 C 335.813 1.7756 -0.834689 0
M  V30 3512 O 334.938 2.1639 -0.0204156 0
M  V30 3513 C 335.533 1.12462 -3.1959 0
M  V30 3514 C 334.092 1.62147 -3.39684 0
M  V30 3515 C 333.239 0.543739 -2.71917 0
M  V30 3516 H 336.19 -0.161022 -1.57881 0
M  V30 3517 H 336.211 1.99324 -3.24114 0
M  V30 3518 H 335.723 0.280592 -3.87084 0
M  V30 3519 H 333.824 2.48854 -2.77313 0
M  V30 3520 H 333.937 1.69385 -4.48158 0
M  V30 3521 H 332.301 0.990352 -2.34657 0
M  V30 3522 H 333.084 -0.290216 -3.42071 0
M  V30 3523 N 335.529 1.53961 0.336706 0
M  V30 3524 C 336.476 1.82428 1.41381 0
M  V30 3525 C 337.446 0.670444 1.51968 0
M  V30 3526 O 338.631 0.915565 1.67398 0
M  V30 3527 C 335.771 2.04564 2.77934 0
M  V30 3528 C 334.884 3.32267 2.76084 0
M  V30 3529 C 334.019 3.44434 4.04399 0
M  V30 3530 C 333.058 4.66061 3.96804 0
M  V30 3531 N 332.195 4.75224 5.16823 0
M  V30 3532 H 337.035 2.74324 1.16405 0
M  V30 3533 H 334.572 1.35869 0.563752 0
M  V30 3534 H 336.53 2.15388 3.57301 0
M  V30 3535 H 335.16 1.15974 3.01247 0
M  V30 3536 H 334.212 3.3025 1.88784 0
M  V30 3537 H 335.524 4.21733 2.66351 0
M  V30 3538 H 334.678 3.54728 4.92192 0
M  V30 3539 H 333.417 2.53037 4.16921 0
M  V30 3540 H 332.422 4.55838 3.07396 0
M  V30 3541 H 333.647 5.58829 3.85858 0
M  V30 3542 H 331.593 3.86739 5.29876 0
M  V30 3543 H 331.51 5.58636 5.09374 0
M  V30 3544 H 332.778 4.89835 6.06367 0
M  V30 3545 N 337.007 -0.598083 1.45811 0
M  V30 3546 C 338.253 -1.35882 1.50545 0
M  V30 3547 C 338.586 -1.93616 0.150445 0
M  V30 3548 O 337.861 -1.75604 -0.83628 0
M  V30 3549 C 338.144 -2.49966 2.59208 0
M  V30 3550 C 337.997 -1.97367 4.04186 0
M  V30 3551 C 339.316 -3.52068 2.64076 0
M  V30 3552 H 336.435 -0.492717 0.548087 0
M  V30 3553 H 339.077 -0.673319 1.77669 0
M  V30 3554 H 337.227 -3.08443 2.3621 0
M  V30 3555 H 338.899 -1.43466 4.38423 0
M  V30 3556 H 337.142 -1.283 4.14393 0
M  V30 3557 H 337.813 -2.79649 4.75921 0
M  V30 3558 H 340.289 -3.03448 2.84708 0
M  V30 3559 H 339.165 -4.2937 3.41954 0
M  V30 3560 H 339.426 -4.08304 1.69531 0
M  V30 3561 N 338.485 -1.33259 -0.841409 0
M  V30 3562 C 339.734 -1.23921 -1.59143 0
M  V30 3563 C 340.047 0.1941 -1.94635 0
M  V30 3564 O 341.253 0.409474 -2.68394 0
M  V30 3565 C 339.709 -2.17119 -2.87032 0
M  V30 3566 C 339.317 -3.65606 -2.58914 0
M  V30 3567 C 341.061 -2.16648 -3.65053 0
M  V30 3568 C 338.968 -4.50726 -3.82884 0
M  V30 3569 H 337.898 -0.460264 -0.597221 0
M  V30 3570 H 340.549 -1.58307 -0.927959 0
M  V30 3571 H 338.931 -1.75663 -3.54906 0
M  V30 3572 H 340.105 -4.15487 -1.99267 0
M  V30 3573 H 338.42 -3.68341 -1.942 0
M  V30 3574 H 341.017 -2.77474 -4.57069 0
M  V30 3575 H 341.36 -1.16088 -3.99787 0
M  V30 3576 H 341.893 -2.56453 -3.041 0
M  V30 3577 H 338.632 -5.52151 -3.53283 0
M  V30 3578 H 338.152 -4.0559 -4.41879 0
M  V30 3579 H 339.831 -4.64401 -4.50489 0
M  V30 3580 N 339.963 1.05934 -1.16686 0
M  V30 3581 C 341.211 1.78447 -0.948744 0
M  V30 3582 C 341.532 1.87813 0.524523 0
M  V30 3583 O 340.802 1.38945 1.38098 0
M  V30 3584 H 339.382 0.660971 -0.348033 0
M  V30 3585 H 342.044 1.27947 -1.47022 0
M  V30 3586 H 341.14 2.80394 -1.37061 0
M  V30 3587 N 341.441 0.965919 1.2453 0
M  V30 3588 C 342.687 0.62776 1.92839 0
M  V30 3589 C 343.02 -0.834694 1.75347 0
M  V30 3590 O 342.295 -1.60031 1.10546 0
M  V30 3591 C 342.578 1.00109 3.45905 0
M  V30 3592 C 342.431 2.52011 3.72573 0
M  V30 3593 C 343.75 0.53435 4.36844 0
M  V30 3594 H 340.869 0.229537 0.700344 0
M  V30 3595 H 343.511 1.2046 1.46933 0
M  V30 3596 H 341.661 0.510238 3.85135 0
M  V30 3597 H 343.333 3.08559 3.42912 0
M  V30 3598 H 341.576 2.95287 3.17786 0
M  V30 3599 H 342.247 2.73183 4.79661 0
M  V30 3600 H 344.723 0.955565 4.04979 0
M  V30 3601 H 343.599 0.824152 5.42678 0
M  V30 3602 H 343.86 -0.565589 4.38467 0
M  V30 3603 N 342.919 -1.39368 0.735821 0
M  V30 3604 C 343.866 -2.30599 0.0963825 0
M  V30 3605 C 344.836 -1.49257 -0.728794 0
M  V30 3606 O 346.021 -1.77941 -0.688588 0
M  V30 3607 C 343.161 -3.35596 -0.804305 0
M  V30 3608 C 342.274 -4.31987 0.0335761 0
M  V30 3609 C 341.409 -5.24053 -0.868461 0
M  V30 3610 C 340.448 -6.12095 -0.0258776 0
M  V30 3611 N 339.585 -6.96514 -0.883893 0
M  V30 3612 H 344.425 -2.8471 0.880002 0
M  V30 3613 H 341.962 -1.40188 0.445619 0
M  V30 3614 H 343.92 -3.95062 -1.34096 0
M  V30 3615 H 342.55 -2.82938 -1.55389 0
M  V30 3616 H 341.602 -3.74133 0.68766 0
M  V30 3617 H 342.914 -4.94074 0.685036 0
M  V30 3618 H 342.068 -5.88549 -1.47293 0
M  V30 3619 H 340.807 -4.62289 -1.5537 0
M  V30 3620 H 339.812 -5.4661 0.591386 0
M  V30 3621 H 341.037 -6.75923 0.656156 0
M  V30 3622 H 338.983 -6.37318 -1.55441 0
M  V30 3623 H 338.9 -7.55448 -0.288931 0
M  V30 3624 H 340.168 -7.65439 -1.4739 0
M  V30 3625 N 344.397 -0.483516 -1.5 0
M  V30 3626 C 345.327 0.293829 -2.31644 0
M  V30 3627 C 346.308 0.978864 -1.39112 0
M  V30 3628 O 347.493 0.973644 -1.68029 0
M  V30 3629 C 344.623 1.36897 -3.19181 0
M  V30 3630 C 343.577 0.804833 -4.20365 0
M  V30 3631 C 342.903 1.9792 -4.96721 0
M  V30 3632 C 344.203 -0.192313 -5.21946 0
M  V30 3633 H 345.897 -0.387616 -2.9688 0
M  V30 3634 H 343.443 -0.187856 -1.42769 0
M  V30 3635 H 345.396 1.92037 -3.751 0
M  V30 3636 H 344.12 2.07936 -2.51853 0
M  V30 3637 H 342.779 0.275319 -3.65565 0
M  V30 3638 H 342.427 2.67686 -4.25856 0
M  V30 3639 H 342.127 1.60789 -5.65173 0
M  V30 3640 H 343.651 2.53526 -5.55479 0
M  V30 3641 H 345.065 0.270333 -5.72662 0
M  V30 3642 H 343.462 -0.478543 -5.98189 0
M  V30 3643 H 344.532 -1.11409 -4.71928 0
M  V30 3644 N 345.875 1.56104 -0.216619 0
M  V30 3645 C 347.103 2.02563 0.421413 0
M  V30 3646 C 347.518 1.0965 1.53695 0
M  V30 3647 O 346.875 0.10521 1.82196 0
M  V30 3648 C 346.926 3.48584 0.957665 0
M  V30 3649 O 346.647 4.37953 -0.113389 0
M  V30 3650 C 348.148 4.10664 1.66943 0
M  V30 3651 H 345.368 0.662944 0.103665 0
M  V30 3652 H 347.912 2.01793 -0.331629 0
M  V30 3653 H 346.067 3.49985 1.661 0
M  V30 3654 H 346.481 5.23704 0.288932 0
M  V30 3655 H 347.955 5.14622 1.99671 0
M  V30 3656 H 348.432 3.55373 2.58083 0
M  V30 3657 H 349.038 4.13098 1.01142 0
M  V30 3658 N 347.353 -0.0568162 1.57498 0
M  V30 3659 C 348.601 -0.751617 1.87604 0
M  V30 3660 C 348.922 -1.77351 0.81066 0
M  V30 3661 O 348.192 -1.95254 -0.159018 0
M  V30 3662 H 346.772 -0.280583 0.692302 0
M  V30 3663 H 349.434 -0.0293483 1.94878 0
M  V30 3664 H 348.53 -1.25852 2.856 0
M  V30 3665 N 348.832 -1.54138 -0.328536 0
M  V30 3666 C 350.057 -1.76378 -1.09112 0
M  V30 3667 C 350.482 -0.508596 -1.81094 0
M  V30 3668 O 349.84 0.539598 -1.73084 0
M  V30 3669 C 349.888 -2.95358 -2.06872 0
M  V30 3670 O 348.992 -2.66556 -3.14677 0
M  V30 3671 H 348.333 -0.584614 -0.314838 0
M  V30 3672 H 350.863 -2.01146 -0.374348 0
M  V30 3673 H 350.873 -3.22566 -2.4983 0
M  V30 3674 H 349.548 -3.86385 -1.5388 0
M  V30 3675 H 348.125 -2.50282 -2.7643 0
M  V30 3676 N 350.31 0.590341 -1.46126 0
M  V30 3677 C 351.24 1.71032 -1.58966 0
M  V30 3678 C 352.221 1.64302 -0.440335 0
M  V30 3679 O 353.406 1.82436 -0.665634 0
M  V30 3680 C 350.536 3.09665 -1.57241 0
M  V30 3681 C 349.49 3.31221 -2.71066 0
M  V30 3682 C 348.816 4.70303 -2.54399 0
M  V30 3683 C 350.116 3.19796 -4.1295 0
M  V30 3684 H 351.81 1.60543 -2.52718 0
M  V30 3685 H 349.356 0.770933 -1.21625 0
M  V30 3686 H 351.309 3.87831 -1.64819 0
M  V30 3687 H 350.033 3.21036 -0.600289 0
M  V30 3688 H 348.692 2.55452 -2.62944 0
M  V30 3689 H 348.34 4.78429 -1.55288 0
M  V30 3690 H 348.04 4.85679 -3.30741 0
M  V30 3691 H 349.564 5.50647 -2.63857 0
M  V30 3692 H 350.978 3.87815 -4.22223 0
M  V30 3693 H 349.375 3.46696 -4.89818 0
M  V30 3694 H 350.445 2.16983 -4.33643 0
M  V30 3695 N 351.788 1.33704 0.83433 0
M  V30 3696 C 353.013 1.28615 1.62705 0
M  V30 3697 C 353.438 -0.139242 1.87584 0
M  V30 3698 O 352.796 -1.09734 1.4432 0
M  V30 3699 C 352.844 2.07139 2.95171 0
M  V30 3700 O 351.948 1.4331 3.86699 0
M  V30 3701 H 351.289 0.44226 0.49528 0
M  V30 3702 H 353.819 1.76335 1.03766 0
M  V30 3703 H 353.829 2.18073 3.44831 0
M  V30 3704 H 352.504 3.10779 2.76386 0
M  V30 3705 H 351.081 1.4105 3.45195 0
M  V30 3706 N 353.266 -1.05314 1.17247 0
M  V30 3707 C 354.514 -1.77941 0.958194 0
M  V30 3708 C 354.835 -1.88089 -0.514556 0
M  V30 3709 O 354.105 -1.39676 -1.37359 0
M  V30 3710 H 352.685 -0.659116 0.351533 0
M  V30 3711 H 355.347 -1.27166 1.47699 0
M  V30 3712 H 354.443 -2.79663 1.38546 0
M  V30 3713 N 354.744 -0.972509 -1.24016 0
M  V30 3714 C 355.99 -0.647583 -1.92816 0
M  V30 3715 C 356.345 0.809015 -1.74564 0
M  V30 3716 O 355.638 1.57502 -1.09103 0
M  V30 3717 C 355.832 -0.963694 -3.44162 0
M  V30 3718 C 355.661 -2.44947 -3.77135 0
M  V30 3719 C 354.431 -3.11012 -3.98246 0
M  V30 3720 C 356.629 -3.42978 -3.83237 0
M  V30 3721 N 354.611 -4.49277 -4.18358 0
M  V30 3722 C 355.982 -4.66619 -4.08248 0
M  V30 3723 C 358.037 -3.37569 -3.65994 0
M  V30 3724 C 356.74 -5.85516 -4.17808 0
M  V30 3725 C 358.766 -4.55822 -3.76802 0
M  V30 3726 C 358.128 -5.78256 -4.02243 0
M  V30 3727 H 354.227 -0.287894 -0.727077 0
M  V30 3728 H 356.811 -1.24835 -1.49413 0
M  V30 3729 H 354.982 -0.391692 -3.8642 0
M  V30 3730 H 356.714 -0.596849 -4.00275 0
M  V30 3731 H 353.469 -2.61529 -3.94841 0
M  V30 3732 H 353.893 -5.20935 -4.32384 0
M  V30 3733 H 358.535 -2.43945 -3.45327 0
M  V30 3734 H 356.253 -6.79564 -4.37285 0
M  V30 3735 H 359.839 -4.53204 -3.64825 0
M  V30 3736 H 358.719 -6.68231 -4.10411 0
M  V30 3737 N 356.222 1.38976 -0.743202 0
M  V30 3738 C 357.447 2.05161 -0.303936 0
M  V30 3739 C 357.872 1.55677 1.05576 0
M  V30 3740 O 357.23 0.704131 1.67068 0
M  V30 3741 C 357.278 3.59138 -0.324373 0
M  V30 3742 O 356.382 4.06668 0.685204 0
M  V30 3743 H 355.723 0.649815 -0.136518 0
M  V30 3744 H 358.253 1.77852 -1.01142 0
M  V30 3745 H 358.263 4.07639 -0.171618 0
M  V30 3746 H 356.938 3.94515 -1.31647 0
M  V30 3747 H 355.515 3.69561 0.497913 0
M  V30 3748 N 357.7 0.491464 1.49741 0
M  V30 3749 C 358.925 -0.0557177 2.07325 0
M  V30 3750 C 359.35 -1.30925 1.35056 0
M  V30 3751 O 358.708 -1.76733 0.404365 0
M  V30 3752 C 358.756 -0.302074 3.59333 0
M  V30 3753 O 357.86 -1.37868 3.88672 0
M  V30 3754 H 357.201 0.0219956 0.663636 0
M  V30 3755 H 359.731 0.688352 1.92673 0
M  V30 3756 H 359.741 -0.536464 4.04458 0
M  V30 3757 H 358.416 0.61383 4.11345 0
M  V30 3758 H 356.993 -1.12999 3.55367 0
M  V30 3759 N 359.178 -1.55987 0.224894 0
M  V30 3760 C 360.589 -1.84553 -0.282345 0
M  V30 3761 C 360.94 -1.14634 -1.59227 0
M  V30 3762 O 360.065 -0.417155 -2.12341 0
M  V30 3763 C 360.66 -3.348 -0.519062 0
M  V30 3764 C 359.219 -3.63671 -0.970604 0
M  V30 3765 C 358.366 -2.77277 -0.0355261 0
M  V30 3766 H 361.317 -1.52245 0.448006 0
M  V30 3767 H 361.338 -3.55187 -1.36463 0
M  V30 3768 H 360.85 -3.8566 0.43449 0
M  V30 3769 H 358.951 -3.1827 -1.9374 0
M  V30 3770 H 359.064 -4.71631 -0.842698 0
M  V30 3771 H 357.428 -2.48846 -0.542927 0
M  V30 3772 H 358.211 -3.30937 0.913003 0
M  V30 3773 N 360.656 0.0484629 -1.57525 0
M  V30 3774 C 361.603 1.05504 -2.05275 0
M  V30 3775 C 362.573 1.37084 -0.937927 0
M  V30 3776 O 363.758 1.47754 -1.2072 0
M  V30 3777 C 360.898 2.35676 -2.52093 0
M  V30 3778 C 360.011 2.10423 -3.77288 0
M  V30 3779 C 359.146 3.34327 -4.12794 0
M  V30 3780 C 358.185 3.04542 -5.30962 0
M  V30 3781 N 357.322 4.20841 -5.61994 0
M  V30 3782 H 362.162 0.640885 -2.91027 0
M  V30 3783 H 359.699 0.304854 -1.43906 0
M  V30 3784 H 361.657 3.11709 -2.77297 0
M  V30 3785 H 360.287 2.7485 -1.69285 0
M  V30 3786 H 359.339 1.24976 -3.59284 0
M  V30 3787 H 360.651 1.84438 -4.63448 0
M  V30 3788 H 359.805 4.1874 -4.39024 0
M  V30 3789 H 358.544 3.63408 -3.25247 0
M  V30 3790 H 357.549 2.18528 -5.04505 0
M  V30 3791 H 358.774 2.76758 -6.20146 0
M  V30 3792 H 356.72 4.4991 -4.77406 0
M  V30 3793 H 356.637 3.98212 -6.42622 0
M  V30 3794 H 357.905 5.06184 -5.92789 0
M  V30 3795 N 362.134 1.5431 0.320358 0
M  V30 3796 C 363.411 1.63322 1.07635 0
M  V30 3797 C 363.791 0.46912 2.05821 0
M  V30 3798 O 363.139 -0.536274 2.22118 0
M  V30 3799 C 363.349 3.00465 1.77544 0
M  V30 3800 C 364.697 3.56621 2.30449 0
M  V30 3801 O 365.721 3.02791 1.87606 0
M  V30 3802 O 364.58 4.5083 3.08892 0
M  V30 3803 H 361.674 0.661502 0.496331 0
M  V30 3804 H 364.22 1.66656 0.319992 0
M  V30 3805 H 362.992 3.76629 1.06143 0
M  V30 3806 H 362.615 3.00824 2.59982 0
M  V30 3807 N 363.613 -0.582584 1.46437 0
M  V30 3808 C 364.859 -1.34278 1.51978 0
M  V30 3809 C 365.192 -1.93446 0.170973 0
M  V30 3810 O 364.467 -1.76481 -0.817608 0
M  V30 3811 C 364.75 -2.47203 2.61845 0
M  V30 3812 C 364.603 -1.93069 4.06257 0
M  V30 3813 C 365.922 -3.49247 2.67795 0
M  V30 3814 H 363.041 -0.486876 0.553282 0
M  V30 3815 H 365.683 -0.654437 1.78374 0
M  V30 3816 H 363.833 -3.0592 2.39469 0
M  V30 3817 H 365.505 -1.38808 4.3992 0
M  V30 3818 H 363.748 -1.23898 4.1573 0
M  V30 3819 H 364.419 -2.74586 4.7886 0
M  V30 3820 H 366.895 -3.00411 2.8791 0
M  V30 3821 H 365.771 -4.25719 3.46489 0
M  V30 3822 H 366.032 -4.06482 1.73852 0
M  V30 3823 N 365.091 -1.34144 -0.827227 0
M  V30 3824 C 366.34 -1.25602 -1.5782 0
M  V30 3825 C 366.653 0.173445 -1.94829 0
M  V30 3826 O 367.859 0.380984 -2.68814 0
M  V30 3827 C 366.315 -2.20151 -2.84713 0
M  V30 3828 C 365.923 -3.68331 -2.55021 0
M  V30 3829 C 367.667 -2.20508 -3.62735 0
M  V30 3830 C 365.574 -4.54762 -3.78082 0
M  V30 3831 H 364.504 -0.466573 -0.592306 0
M  V30 3832 H 367.155 -1.59283 -0.911116 0
M  V30 3833 H 365.537 -1.79417 -3.53023 0
M  V30 3834 H 366.711 -4.17577 -1.94849 0
M  V30 3835 H 365.026 -3.7038 -1.90283 0
M  V30 3836 H 367.623 -2.82306 -4.54101 0
M  V30 3837 H 367.966 -1.20322 -3.98533 0
M  V30 3838 H 368.499 -2.59664 -3.01362 0
M  V30 3839 H 365.238 -5.55867 -3.47407 0
M  V30 3840 H 364.758 -4.10254 -4.37552 0
M  V30 3841 H 366.437 -4.69153 -4.45538 0
M  V30 3842 N 366.569 1.04691 -1.17803 0
M  V30 3843 C 367.499 2.14494 -0.92275 0
M  V30 3844 C 368.48 1.69546 0.137179 0
M  V30 3845 O 369.665 1.94195 -0.0141108 0
M  V30 3846 C 366.795 3.44491 -0.440803 0
M  V30 3847 C 365.749 4.03031 -1.4405 0
M  V30 3848 C 365.075 5.28432 -0.81631 0
M  V30 3849 C 366.375 4.39932 -2.81527 0
M  V30 3850 H 368.069 2.36107 -1.84103 0
M  V30 3851 H 365.615 1.1347 -0.886599 0
M  V30 3852 H 367.568 4.2066 -0.249602 0
M  V30 3853 H 366.292 3.22546 0.513025 0
M  V30 3854 H 364.951 3.28937 -1.61853 0
M  V30 3855 H 364.599 5.02792 0.144511 0
M  V30 3856 H 364.299 5.68559 -1.48371 0
M  V30 3857 H 365.823 6.07284 -0.635496 0
M  V30 3858 H 367.237 5.07113 -2.67412 0
M  V30 3859 H 365.634 4.9109 -3.44892 0
M  V30 3860 H 366.704 3.50045 -3.35554 0
M  V30 3861 N 368.047 0.979072 1.23499 0
M  V30 3862 C 368.994 0.517904 2.24914 0
M  V30 3863 C 369.964 -0.442525 1.60097 0
M  V30 3864 O 371.149 -0.350365 1.87556 0
M  V30 3865 C 368.289 -0.174813 3.44657 0
M  V30 3866 C 367.402 0.825721 4.24035 0
M  V30 3867 C 366.537 0.107946 5.3109 0
M  V30 3868 C 365.576 1.09778 6.02175 0
M  V30 3869 N 364.713 0.40925 7.00906 0
M  V30 3870 H 369.553 1.38751 2.63727 0
M  V30 3871 H 367.09 0.695303 1.2963 0
M  V30 3872 H 369.048 -0.593233 4.12961 0
M  V30 3873 H 367.678 -1.0083 3.06648 0
M  V30 3874 H 366.73 1.36253 3.55161 0
M  V30 3875 H 368.042 1.58005 4.73113 0
M  V30 3876 H 367.196 -0.367904 6.05583 0
M  V30 3877 H 365.935 -0.678994 4.8295 0
M  V30 3878 H 364.94 1.5844 5.26476 0
M  V30 3879 H 366.165 1.88536 6.52404 0
M  V30 3880 H 364.111 -0.358506 6.5502 0
M  V30 3881 H 364.028 1.10226 7.47921 0
M  V30 3882 H 365.296 -0.0442557 7.79487 0
M  V30 3883 N 369.525 -1.3858 0.750561 0
M  V30 3884 C 370.771 -2.00481 0.305825 0
M  V30 3885 C 371.104 -1.5944 -1.10872 0
M  V30 3886 O 370.379 -0.83052 -1.75877 0
M  V30 3887 C 370.662 -3.5758 0.425287 0
M  V30 3888 C 370.515 -4.08594 1.88072 0
M  V30 3889 C 371.834 -4.39719 -0.183122 0
M  V30 3890 H 368.953 -0.728348 0.112598 0
M  V30 3891 H 371.595 -1.64566 0.949638 0
M  V30 3892 H 369.745 -3.88306 -0.122828 0
M  V30 3893 H 371.417 -3.88523 2.48691 0
M  V30 3894 H 369.66 -3.61574 2.39681 0
M  V30 3895 H 370.331 -5.177 1.91548 0
M  V30 3896 H 372.807 -4.15128 0.284303 0
M  V30 3897 H 371.683 -5.48856 -0.0692757 0
M  V30 3898 H 371.944 -4.23434 -1.27106 0
M  V30 3899 N 371.003 -0.499398 -1.49478 0
M  V30 3900 C 371.966 0.268838 -2.27618 0
M  V30 3901 C 372.966 0.895383 -1.33565 0
M  V30 3902 O 374.156 0.760164 -1.56739 0
M  V30 3903 C 371.288 1.38559 -3.11471 0
M  V30 3904 H 372.481 -0.416812 -2.96989 0
M  V30 3905 H 370.034 -0.254313 -1.54217 0
M  V30 3906 H 370.769 2.10544 -2.46661 0
M  V30 3907 H 370.554 0.941797 -3.80621 0
M  V30 3908 H 372.044 1.92678 -3.70493 0
M  V30 3909 N 372.481 1.55866 -0.233164 0
M  V30 3910 C 373.729 1.9821 0.394593 0
M  V30 3911 C 374.05 1.12234 1.59463 0
M  V30 3912 O 373.32 0.201981 1.94856 0
M  V30 3913 H 371.9 0.732034 0.148778 0
M  V30 3914 H 374.562 1.92107 -0.32876 0
M  V30 3915 H 373.658 3.03845 0.713063 0
M  V30 3916 N 373.959 -0.0401083 1.57549 0
M  V30 3917 C 375.208 -0.732108 1.87944 0
M  V30 3918 C 375.521 -1.77107 0.830206 0
M  V30 3919 O 376.727 -2.51488 1.02302 0
M  V30 3920 C 375.183 -1.35315 3.33494 0
M  V30 3921 C 374.791 -0.351105 4.46622 0
M  V30 3922 C 376.535 -2.02566 3.73051 0
M  V30 3923 C 374.442 -0.979859 5.83226 0
M  V30 3924 H 373.372 -0.277188 0.701201 0
M  V30 3925 H 376.023 0.0138501 1.83495 0
M  V30 3926 H 374.405 -2.14844 3.32653 0
M  V30 3927 H 375.579 0.416674 4.58912 0
M  V30 3928 H 373.894 0.218708 4.15825 0
M  V30 3929 H 376.491 -2.50441 4.72423 0
M  V30 3930 H 376.834 -2.83904 3.04474 0
M  V30 3931 H 377.367 -1.29827 3.76018 0
M  V30 3932 H 374.106 -0.206135 6.55176 0
M  V30 3933 H 373.626 -1.71774 5.74677 0
M  V30 3934 H 375.305 -1.49046 6.29599 0
M  V30 3935 N 375.437 -1.54477 -0.31217 0
M  V30 3936 C 376.367 -1.87652 -1.38957 0
M  V30 3937 C 377.348 -0.734358 -1.53431 0
M  V30 3938 O 378.533 -0.98911 -1.67123 0
M  V30 3939 C 375.663 -2.11396 -2.75552 0
M  V30 3940 C 374.617 -3.27243 -2.75855 0
M  V30 3941 C 373.943 -3.36382 -4.15633 0
M  V30 3942 C 375.243 -4.64622 -2.38587 0
M  V30 3943 H 376.937 -2.77887 -1.11442 0
M  V30 3944 H 374.483 -1.33707 -0.534655 0
M  V30 3945 H 376.436 -2.33189 -3.51 0
M  V30 3946 H 375.16 -1.17921 -3.04569 0
M  V30 3947 H 373.819 -3.05356 -2.02863 0
M  V30 3948 H 373.467 -2.40445 -4.41809 0
M  V30 3949 H 373.167 -4.14249 -4.1674 0
M  V30 3950 H 374.691 -3.60422 -4.92877 0
M  V30 3951 H 376.105 -4.86219 -3.03749 0
M  V30 3952 H 374.502 -5.45121 -2.50925 0
M  V30 3953 H 375.572 -4.66097 -1.33723 0
M  V30 3954 N 376.915 0.57481 -1.46744 0
M  V30 3955 C 378.143 1.35856 -1.56047 0
M  V30 3956 C 378.558 1.87691 -0.204365 0
M  V30 3957 O 377.915 1.64049 0.79963 0
M  V30 3958 C 377.966 2.54066 -2.57163 0
M  V30 3959 O 377.687 2.04377 -3.87507 0
M  V30 3960 C 379.188 3.46514 -2.76483 0
M  V30 3961 H 376.408 0.414754 -0.527466 0
M  V30 3962 H 378.952 0.698035 -1.92218 0
M  V30 3963 H 377.107 3.16092 -2.23974 0
M  V30 3964 H 377.521 2.81419 -4.4261 0
M  V30 3965 H 378.995 4.25919 -3.51137 0
M  V30 3966 H 379.472 3.98951 -1.83671 0
M  V30 3967 H 380.078 2.90318 -3.10799 0
M  V30 3968 N 378.394 1.34581 0.820102 0
M  V30 3969 C 379.64 1.27285 1.57881 0
M  V30 3970 C 379.973 -0.156137 1.93571 0
M  V30 3971 O 379.248 -1.10222 1.60254 0
M  V30 3972 C 379.531 2.16639 2.87645 0
M  V30 3973 C 379.384 3.68088 2.58517 0
M  V30 3974 C 380.703 2.05378 3.8924 0
M  V30 3975 H 377.822 0.463714 0.572833 0
M  V30 3976 H 380.464 1.64859 0.944539 0
M  V30 3977 H 378.614 1.84725 3.41773 0
M  V30 3978 H 380.286 4.10382 2.10676 0
M  V30 3979 H 378.529 3.89038 1.91917 0
M  V30 3980 H 379.2 4.2598 3.51063 0
M  V30 3981 H 381.676 2.33404 3.44473 0
M  V30 3982 H 380.552 2.7012 4.77835 0
M  V30 3983 H 380.813 1.0316 4.29896 0
M  V30 3984 N 379.872 -1.04064 1.18357 0
M  V30 3985 C 380.819 -2.12077 0.910603 0
M  V30 3986 C 381.789 -1.65421 -0.15 0
M  V30 3987 O 382.974 -1.90797 -0.0103614 0
M  V30 3988 C 380.114 -3.42252 0.442472 0
M  V30 3989 C 379.227 -4.0252 1.5685 0
M  V30 3990 C 378.362 -5.20657 1.05309 0
M  V30 3991 C 377.401 -5.72955 2.1538 0
M  V30 3992 N 376.538 -6.8238 1.65233 0
M  V30 3993 H 381.378 -2.34764 1.83548 0
M  V30 3994 H 378.915 -1.15157 0.915279 0
M  V30 3995 H 380.873 -4.16921 0.152534 0
M  V30 3996 H 379.503 -3.19712 -0.445428 0
M  V30 3997 H 378.555 -3.25178 1.97391 0
M  V30 3998 H 379.867 -4.37362 2.39824 0
M  V30 3999 H 379.021 -6.0244 0.717677 0
M  V30 4000 H 377.76 -4.87318 0.19293 0
M  V30 4001 H 376.765 -4.89793 2.49766 0
M  V30 4002 H 377.99 -6.08337 3.01832 0
M  V30 4003 H 375.936 -6.50917 0.815064 0
M  V30 4004 H 375.853 -7.16286 2.41805 0
M  V30 4005 H 377.121 -7.67788 1.34619 0
M  V30 4006 N 381.35 -0.985608 -1.22978 0
M  V30 4007 C 382.598 -0.656087 -1.91154 0
M  V30 4008 C 382.919 0.813561 -1.77218 0
M  V30 4009 O 382.189 1.58244 -1.1548 0
M  V30 4010 H 380.769 -0.239674 -0.707506 0
M  V30 4011 H 383.431 -1.25054 -1.49491 0
M  V30 4012 H 382.527 -0.912253 -2.9847 0
M  V30 4013 N 382.828 1.3818 -0.7579 0
M  V30 4014 C 384.076 1.99624 -0.315361 0
M  V30 4015 C 384.397 1.60464 1.10799 0
M  V30 4016 O 383.667 0.863507 1.75842 0
M  V30 4017 H 382.247 0.73831 -0.113611 0
M  V30 4018 H 384.909 1.68878 -0.972952 0
M  V30 4019 H 384.005 3.09754 -0.381931 0
M  V30 4020 N 384.306 0.507319 1.49211 0
M  V30 4021 C 385.534 -0.0315749 2.06876 0
M  V30 4022 C 385.949 -1.30241 1.36685 0
M  V30 4023 O 385.306 -1.76937 0.447152 0
M  V30 4024 C 385.357 -0.282627 3.60393 0
M  V30 4025 O 385.078 0.937835 4.27944 0
M  V30 4026 C 386.579 -0.864453 4.3479 0
M  V30 4027 H 383.799 0.0233048 0.670595 0
M  V30 4028 H 386.343 0.706484 1.91909 0
M  V30 4029 H 384.498 -0.97068 3.75042 0
M  V30 4030 H 384.912 0.704567 5.19746 0
M  V30 4031 H 386.386 -0.989664 5.43056 0
M  V30 4032 H 386.863 -1.86382 3.97692 0
M  V30 4033 H 387.469 -0.213672 4.24763 0
M  V30 4034 N 385.784 -1.5574 0.241426 0
M  V30 4035 C 387.032 -1.98417 -0.384075 0
M  V30 4036 C 387.353 -1.13078 -1.58866 0
M  V30 4037 O 386.623 -0.212312 -1.94746 0
M  V30 4038 H 385.203 -0.732813 -0.144894 0
M  V30 4039 H 387.865 -1.9193 0.338943 0
M  V30 4040 H 386.961 -3.04219 -0.696939 0
M  V30 4041 N 387.262 0.0317525 -1.57568 0
M  V30 4042 C 388.225 1.01783 -2.0536 0
M  V30 4043 C 389.225 1.29203 -0.957253 0
M  V30 4044 O 390.415 1.24251 -1.22095 0
M  V30 4045 C 387.547 2.35137 -2.46827 0
M  V30 4046 H 388.74 0.605062 -2.93733 0
M  V30 4047 H 386.293 0.278514 -1.53799 0
M  V30 4048 H 387.028 2.81168 -1.61602 0
M  V30 4049 H 386.813 2.16566 -3.26866 0
M  V30 4050 H 388.303 3.05938 -2.84239 0
M  V30 4051 N 388.74 1.54641 0.303973 0
M  V30 4052 C 389.989 1.7299 1.03717 0
M  V30 4053 C 390.302 0.521168 1.88529 0
M  V30 4054 O 391.508 0.586408 2.65092 0
M  V30 4055 C 389.964 3.06051 1.89369 0
M  V30 4056 C 389.572 4.34393 1.09574 0
M  V30 4057 C 391.316 3.3376 2.62306 0
M  V30 4058 C 389.223 5.58506 1.94486 0
M  V30 4059 H 388.153 0.64473 0.390947 0
M  V30 4060 H 390.804 1.81124 0.294328 0
M  V30 4061 H 389.186 2.91874 2.67629 0
M  V30 4062 H 390.36 4.59396 0.359485 0
M  V30 4063 H 388.675 4.13597 0.482324 0
M  V30 4064 H 391.272 4.23687 3.26181 0
M  V30 4065 H 391.615 2.52503 3.3098 0
M  V30 4066 H 392.148 3.48894 1.91097 0
M  V30 4067 H 388.887 6.42422 1.30287 0
M  V30 4068 H 388.407 5.37694 2.65792 0
M  V30 4069 H 390.086 5.95651 2.52605 0
M  V30 4070 N 390.218 -0.567019 1.47046 0
M  V30 4071 C 391.464 -1.32658 1.53394 0
M  V30 4072 C 391.797 -1.93254 0.19148 0
M  V30 4073 O 391.072 -1.77338 -0.798844 0
M  V30 4074 C 391.355 -2.44412 2.64452 0
M  V30 4075 C 391.208 -1.88749 4.08282 0
M  V30 4076 C 392.527 -3.46387 2.71485 0
M  V30 4077 H 389.646 -0.48098 0.558415 0
M  V30 4078 H 392.288 -0.635481 1.79058 0
M  V30 4079 H 390.438 -3.03363 2.427 0
M  V30 4080 H 392.11 -1.34134 4.41368 0
M  V30 4081 H 390.353 -1.19481 4.17021 0
M  V30 4082 H 391.024 -2.69491 4.81745 0
M  V30 4083 H 393.5 -2.9734 2.91081 0
M  V30 4084 H 392.376 -4.2202 3.50985 0
M  V30 4085 H 392.637 -4.04616 1.78153 0
M  V30 4086 N 391.696 -1.35014 -0.812953 0
M  V30 4087 C 392.606 -1.2951 -1.95613 0
M  V30 4088 C 393.622 -0.20107 -1.72834 0
M  V30 4089 O 394.798 -0.42932 -1.96771 0
M  V30 4090 C 391.863 -1.06033 -3.30088 0
M  V30 4091 C 390.924 -2.24688 -3.65805 0
M  V30 4092 C 390.157 -2.02322 -4.93864 0
M  V30 4093 O 390.38 -0.986464 -5.61805 0
M  V30 4094 O 389.314 -2.89525 -5.27692 0
M  V30 4095 H 393.14 -2.25705 -2.03202 0
M  V30 4096 H 390.725 -1.15321 -0.949811 0
M  V30 4097 H 392.607 -0.94763 -4.10607 0
M  V30 4098 H 391.282 -0.128852 -3.23443 0
M  V30 4099 H 390.189 -2.41521 -2.85689 0
M  V30 4100 H 391.522 -3.16261 -3.77147 0
M  V30 4101 N 393.175 1.03435 -1.18907 0
M  V30 4102 C 394.405 1.8012 -1.01195 0
M  V30 4103 C 394.813 1.8395 0.442613 0
M  V30 4104 O 394.156 1.27836 1.31923 0
M  V30 4105 C 394.218 3.26792 -1.49823 0
M  V30 4106 C 393.882 3.46609 -2.97844 0
M  V30 4107 C 394.879 3.37278 -3.95651 0
M  V30 4108 C 392.564 3.73001 -3.36416 0
M  V30 4109 C 394.558 3.54054 -5.30023 0
M  V30 4110 C 392.245 3.89423 -4.70949 0
M  V30 4111 C 393.243 3.79951 -5.67562 0
M  V30 4112 O 392.931 3.95895 -6.99659 0
M  V30 4113 H 392.663 0.573865 -0.357289 0
M  V30 4114 H 395.217 1.31207 -1.58031 0
M  V30 4115 H 393.447 3.76703 -0.873578 0
M  V30 4116 H 395.136 3.85055 -1.28404 0
M  V30 4117 H 395.902 3.16846 -3.67197 0
M  V30 4118 H 391.781 3.79469 -2.61772 0
M  V30 4119 H 395.325 3.46577 -6.05417 0
M  V30 4120 H 391.222 4.09351 -4.99101 0
M  V30 4121 H 391.99 4.13019 -7.06653 0
M  V30 4122 N 394.653 0.992116 1.22453 0
M  V30 4123 C 395.603 0.512969 2.22155 0
M  V30 4124 C 396.587 -0.418416 1.55364 0
M  V30 4125 O 397.779 -0.245363 1.75291 0
M  V30 4126 C 394.908 -0.171822 3.4287 0
M  V30 4127 C 393.994 0.779822 4.16869 0
M  V30 4128 N 394.385 1.92734 4.6764 0
M  V30 4129 C 392.683 0.59554 4.42006 0
M  V30 4130 C 393.384 2.52458 5.24061 0
M  V30 4131 N 392.36 1.80735 5.12675 0
M  V30 4132 H 396.162 1.38817 2.5905 0
M  V30 4133 H 393.676 0.854277 1.38115 0
M  V30 4134 H 395.673 -0.532469 4.13486 0
M  V30 4135 H 394.333 -1.04317 3.07487 0
M  V30 4136 H 395.344 2.30816 4.63621 0
M  V30 4137 H 392.021 -0.229805 4.16867 0
M  V30 4138 H 393.411 3.49433 5.73887 0
M  V30 4139 N 396.131 -1.37776 0.765217 0
M  V30 4140 C 397.379 -1.99454 0.325943 0
M  V30 4141 C 397.7 -1.61049 -1.09947 0
M  V30 4142 O 396.97 -0.872821 -1.75381 0
M  V30 4143 H 395.55 -0.737697 0.117525 0
M  V30 4144 H 398.212 -1.68359 0.981895 0
M  V30 4145 H 397.308 -3.09547 0.398353 0
M  V30 4146 N 397.609 -0.515225 -1.4894 0
M  V30 4147 C 399.02 -0.0710067 -1.86565 0
M  V30 4148 C 399.371 1.34733 -1.42623 0
M  V30 4149 O 398.496 2.00653 -0.810379 0
M  V30 4150 C 399.091 -0.122083 -3.3858 0
M  V30 4151 C 397.65 0.266863 -3.75453 0
M  V30 4152 C 396.797 -0.488376 -2.72966 0
M  V30 4153 H 399.748 -0.727266 -1.41055 0
M  V30 4154 H 399.769 0.669818 -3.74558 0
M  V30 4155 H 399.281 -1.15448 -3.70531 0
M  V30 4156 H 397.382 1.30196 -3.49113 0
M  V30 4157 H 397.495 -0.0624811 -4.79059 0
M  V30 4158 H 395.859 0.0635622 -2.54621 0
M  V30 4159 H 396.642 -1.52113 -3.07761 0
M  V30 4160 N 399.087 1.5561 -0.249682 0
M  V30 4161 C 400.335 1.98618 0.373548 0
M  V30 4162 C 400.656 1.13919 1.58264 0
M  V30 4163 O 399.926 0.222637 1.94631 0
M  V30 4164 H 398.506 0.733571 0.141006 0
M  V30 4165 H 401.168 1.91748 -0.349117 0
M  V30 4166 H 400.264 3.04584 0.680796 0
M  V30 4167 N 400.565 -0.0233959 1.57583 0
M  V30 4168 C 401.811 -0.714119 1.89811 0
M  V30 4169 C 402.144 -1.74702 0.848113 0
M  V30 4170 O 401.419 -1.94023 -0.136135 0
M  V30 4171 C 401.702 -1.37853 3.32669 0
M  V30 4172 C 401.555 -0.358764 4.48367 0
M  V30 4173 C 402.874 -2.31101 3.7454 0
M  V30 4174 H 399.993 -0.25814 0.690314 0
M  V30 4175 H 402.635 0.0230927 1.89986 0
M  V30 4176 H 400.785 -2.00689 3.3265 0
M  V30 4177 H 402.457 0.268115 4.6052 0
M  V30 4178 H 400.7 0.321387 4.32608 0
M  V30 4179 H 401.371 -0.862242 5.45224 0
M  V30 4180 H 403.847 -1.78304 3.75961 0
M  V30 4181 H 402.723 -2.74567 4.75294 0
M  V30 4182 H 402.984 -3.18018 3.0711 0
M  V30 4183 N 402.043 -1.548 -0.295768 0
M  V30 4184 C 403.32 -1.65014 -1.05023 0
M  V30 4185 C 403.7 -0.501805 -2.05049 0
M  V30 4186 O 403.048 0.500869 -2.22943 0
M  V30 4187 C 403.258 -3.03252 -1.72741 0
M  V30 4188 C 404.606 -3.60242 -2.24746 0
M  V30 4189 O 405.63 -3.05737 -1.82765 0
M  V30 4190 O 404.489 -4.55687 -3.01681 0
M  V30 4191 H 401.583 -0.669314 -0.485744 0
M  V30 4192 H 404.129 -1.67144 -0.293438 0
M  V30 4193 H 402.901 -3.7827 -1.00138 0
M  V30 4194 H 402.524 -3.04922 -2.55163 0
M  V30 4195 N 403.521 0.559213 -1.47345 0
M  V30 4196 C 404.746 1.34676 -1.57725 0
M  V30 4197 C 405.171 1.86723 -0.227164 0
M  V30 4198 O 404.529 1.6286 0.796642 0
M  V30 4199 C 404.577 2.49399 -2.60447 0
M  V30 4200 O 403.681 3.51567 -2.15578 0
M  V30 4201 H 403.022 0.400115 -0.52991 0
M  V30 4202 H 405.552 0.676009 -1.93109 0
M  V30 4203 H 405.562 2.95996 -2.80803 0
M  V30 4204 H 404.237 2.10873 -3.58477 0
M  V30 4205 H 402.814 3.11289 -2.05313 0
M  V30 4206 N 404.999 1.35443 0.805782 0
M  V30 4207 C 406.248 1.28097 1.55801 0
M  V30 4208 C 406.561 -0.142428 1.95081 0
M  V30 4209 O 407.767 -0.33817 2.69386 0
M  V30 4210 C 406.223 2.24653 2.81174 0
M  V30 4211 C 405.831 3.72342 2.49129 0
M  V30 4212 C 407.575 2.2625 3.59181 0
M  V30 4213 C 405.482 4.60719 3.70799 0
M  V30 4214 H 404.412 0.475937 0.584808 0
M  V30 4215 H 407.063 1.60712 0.885661 0
M  V30 4216 H 405.445 1.85011 3.50124 0
M  V30 4217 H 406.619 4.20624 1.88181 0
M  V30 4218 H 404.934 3.73361 1.84366 0
M  V30 4219 H 407.531 2.89495 4.49552 0
M  V30 4220 H 407.874 1.26647 3.96568 0
M  V30 4221 H 408.407 2.64426 2.97193 0
M  V30 4222 H 405.146 5.61324 3.3852 0
M  V30 4223 H 404.666 4.17163 4.3097 0
M  V30 4224 H 406.345 4.76182 4.38018 0
M  V30 4225 N 406.477 -1.02803 1.19454 0
M  V30 4226 C 407.702 -1.80378 1.02364 0
M  V30 4227 C 408.127 -1.83282 -0.423007 0
M  V30 4228 O 407.485 -1.25945 -1.30413 0
M  V30 4229 C 407.533 -3.23248 1.59821 0
M  V30 4230 O 406.637 -4.04 0.828105 0
M  V30 4231 H 405.978 -0.556799 0.361761 0
M  V30 4232 H 408.508 -1.29385 1.58495 0
M  V30 4233 H 408.518 -3.73994 1.63073 0
M  V30 4234 H 407.193 -3.2045 2.65113 0
M  V30 4235 H 405.77 -3.62635 0.86891 0
M  V30 4236 N 407.956 -0.998596 -1.21925 0
M  V30 4237 C 409.196 -0.685948 -1.92546 0
M  V30 4238 C 409.56 0.768441 -1.75952 0
M  V30 4239 O 410.761 1.19277 -2.40887 0
M  V30 4240 C 409.032 -1.08767 -3.40448 0
M  V30 4241 S 410.591 -0.894251 -4.29591 0
M  V30 4242 H 407.409 -0.250622 -0.665364 0
M  V30 4243 H 410.011 -1.28207 -1.47591 0
M  V30 4244 H 408.715 -2.14242 -3.50041 0
M  V30 4245 H 408.246 -0.48357 -3.90417 0
M  V30 4246 H 410.261 0.212149 -4.95746 0
M  V30 4247 N 409.434 1.37368 -0.772513 0
M  V30 4248 C 410.662 2.03942 -0.348588 0
M  V30 4249 C 411.077 1.58264 1.02947 0
M  V30 4250 O 410.434 0.764246 1.65727 0
M  V30 4251 C 410.485 3.5946 -0.38351 0
M  V30 4252 O 410.206 4.03468 -1.70721 0
M  V30 4253 C 411.707 4.4327 0.0519152 0
M  V30 4254 H 408.927 0.654931 -0.145966 0
M  V30 4255 H 411.471 1.75686 -1.04665 0
M  V30 4256 H 409.626 3.86486 0.265978 0
M  V30 4257 H 410.04 4.97991 -1.64636 0
M  V30 4258 H 411.514 5.51995 -0.0236733 0
M  V30 4259 H 411.991 4.2514 1.10238 0
M  V30 4260 H 412.597 4.21471 -0.569415 0
M  V30 4261 N 410.912 0.523116 1.48665 0
M  V30 4262 C 412.16 -0.0134497 2.02096 0
M  V30 4263 C 412.481 -1.35418 1.40311 0
M  V30 4264 O 411.751 -1.87543 0.566074 0
M  V30 4265 H 410.331 -0.00795915 0.746958 0
M  V30 4266 H 412.993 0.685388 1.82451 0
M  V30 4267 H 412.089 -0.126849 3.11842 0
M  V30 4268 N 412.39 -1.55475 0.257931 0
M  V30 4269 C 413.323 -2.179 -0.677862 0
M  V30 4270 C 414.301 -1.13448 -1.16483 0
M  V30 4271 O 415.485 -1.41889 -1.24095 0
M  V30 4272 C 412.612 -2.78851 -1.92249 0
M  V30 4273 C 411.658 -3.96454 -1.57246 0
M  V30 4274 S 412.491 -5.31349 -0.665501 0
M  V30 4275 C 413.647 -5.9576 -1.91889 0
M  V30 4276 H 413.88 -2.96934 -0.147396 0
M  V30 4277 H 411.413 -1.54342 0.0423023 0
M  V30 4278 H 413.371 -3.14602 -2.63697 0
M  V30 4279 H 412.032 -1.99742 -2.42409 0
M  V30 4280 H 411.225 -4.37731 -2.49814 0
M  V30 4281 H 410.827 -3.62038 -0.938325 0
M  V30 4282 H 413.119 -6.13947 -2.86487 0
M  V30 4283 H 414.062 -6.9094 -1.54942 0
M  V30 4284 H 414.47 -5.2494 -2.076 0
M  V30 4285 N 413.868 0.0150385 -1.57593 0
M  V30 4286 C 414.831 0.995996 -2.06428 0
M  V30 4287 C 415.831 1.2818 -0.970903 0
M  V30 4288 O 417.021 1.22949 -1.23406 0
M  V30 4289 C 414.153 2.32506 -2.49307 0
M  V30 4290 H 415.346 0.573873 -2.94358 0
M  V30 4291 H 412.899 0.262186 -1.54085 0
M  V30 4292 H 413.634 2.79438 -1.64575 0
M  V30 4293 H 413.419 2.13087 -3.29145 0
M  V30 4294 H 414.909 3.02906 -2.87468 0
M  V30 4295 N 415.346 1.54954 0.287554 0
M  V30 4296 C 416.574 1.78881 1.03967 0
M  V30 4297 C 416.989 0.554894 1.80462 0
M  V30 4298 O 416.346 -0.475676 1.76192 0
M  V30 4299 C 416.397 3.00488 2.0097 0
M  V30 4300 O 416.118 4.19113 1.27577 0
M  V30 4301 C 417.619 3.36907 2.88112 0
M  V30 4302 H 414.839 0.596259 0.307761 0
M  V30 4303 H 417.383 2.01937 0.322749 0
M  V30 4304 H 415.538 2.79601 2.68145 0
M  V30 4305 H 415.952 4.87765 1.92835 0
M  V30 4306 H 417.426 4.25205 3.52001 0
M  V30 4307 H 417.903 2.55659 3.57121 0
M  V30 4308 H 418.509 3.60001 2.26449 0
M  V30 4309 N 416.824 -0.551391 1.4764 0
M  V30 4310 C 418.073 -1.30467 1.53822 0
M  V30 4311 C 418.386 -1.94495 0.207661 0
M  V30 4312 O 419.592 -2.71099 0.147533 0
M  V30 4313 C 418.048 -2.36616 2.71184 0
M  V30 4314 C 417.656 -1.78754 4.10793 0
M  V30 4315 C 419.4 -3.13088 2.86663 0
M  V30 4316 C 417.307 -2.82717 5.19447 0
M  V30 4317 H 416.237 -0.490584 0.572576 0
M  V30 4318 H 418.888 -0.58494 1.73927 0
M  V30 4319 H 417.27 -3.11529 2.4447 0
M  V30 4320 H 418.444 -1.10173 4.47435 0
M  V30 4321 H 416.759 -1.14846 4.00249 0
M  V30 4322 H 419.356 -3.90736 3.65007 0
M  V30 4323 H 419.699 -3.67635 1.95321 0
M  V30 4324 H 420.232 -2.45288 3.13175 0
M  V30 4325 H 416.971 -2.33018 6.12685 0
M  V30 4326 H 416.491 -3.4969 4.87316 0
M  V30 4327 H 418.17 -3.46102 5.46646 0
M  V30 4328 N 418.302 -1.35869 -0.798587 0
M  V30 4329 C 419.542 -1.30961 -1.56935 0
M  V30 4330 C 419.906 0.112404 -1.91671 0
M  V30 4331 O 421.107 0.285937 -2.67275 0
M  V30 4332 C 419.378 -2.19811 -2.81811 0
M  V30 4333 S 420.937 -2.32498 -3.72143 0
M  V30 4334 H 417.755 -0.465297 -0.537606 0
M  V30 4335 H 420.357 -1.71344 -0.941346 0
M  V30 4336 H 419.061 -3.22095 -2.54329 0
M  V30 4337 H 418.592 -1.80415 -3.49591 0
M  V30 4338 H 420.607 -1.5157 -4.72484 0
M  V30 4339 N 419.78 1.02168 -1.19998 0
M  V30 4340 C 420.728 2.12717 -0.940967 0
M  V30 4341 C 421.722 1.69069 0.105841 0
M  V30 4342 O 422.928 1.79946 -0.0440583 0
M  V30 4343 H 419.303 0.695108 -0.28693 0
M  V30 4344 H 421.274 2.3175 -1.87975 0
M  V30 4345 C 420.023 3.44027 -0.504049 0
M  V30 4346 H 419.346 3.78036 -1.30112 0
M  V30 4347 H 420.786 4.22452 -0.361991 0
M  V30 4348 C 419.245 3.27678 0.782878 0
M  V30 4349 O 419.775 3.56949 1.84256 0
M  V30 4350 N 417.981 2.80943 0.742921 0
M  V30 4351 H 417.528 2.57322 -0.119687 0
M  V30 4352 H 417.486 2.70385 1.60435 0
M  V30 4353 N 421.258 1.00505 1.21394 0
M  V30 4354 C 422.191 0.51032 2.22421 0
M  V30 4355 C 423.169 -0.436 1.56645 0
M  V30 4356 O 424.353 -0.358709 1.85055 0
M  V30 4357 C 421.48 -0.258733 3.3771 0
M  V30 4358 C 420.526 0.635395 4.2174 0
M  V30 4359 S 421.359 2.09783 4.92698 0
M  V30 4360 C 422.515 1.33862 6.11418 0
M  V30 4361 H 422.748 1.36637 2.64041 0
M  V30 4362 H 420.281 0.812991 1.31262 0
M  V30 4363 H 422.239 -0.696372 4.0455 0
M  V30 4364 H 420.9 -1.0902 2.94573 0
M  V30 4365 H 420.093 0.0430189 5.03982 0
M  V30 4366 H 419.695 1.01031 3.60095 0
M  V30 4367 H 421.987 0.612541 6.74725 0
M  V30 4368 H 422.93 2.13675 6.75092 0
M  V30 4369 H 423.338 0.846568 5.58116 0
M  V30 4370 N 422.737 -1.36956 0.779787 0
M  V30 4371 C 423.985 -1.99097 0.347079 0
M  V30 4372 C 424.306 -1.62206 -1.08232 0
M  V30 4373 O 423.576 -0.891373 -1.74446 0
M  V30 4374 H 422.156 -0.736409 0.125342 0
M  V30 4375 H 424.818 -1.67308 0.999696 0
M  V30 4376 H 423.914 -3.09107 0.431162 0
M  V30 4377 N 424.215 -0.530993 -1.48385 0
M  V30 4378 C 425.178 0.220497 -2.28137 0
M  V30 4379 C 426.178 0.866851 -1.35434 0
M  V30 4380 O 427.368 0.726746 -1.58316 0
M  V30 4381 C 424.5 1.31921 -3.1434 0
M  V30 4382 H 425.693 -0.479714 -2.96038 0
M  V30 4383 H 423.246 -0.286968 -1.53643 0
M  V30 4384 H 423.981 2.05264 -2.51072 0
M  V30 4385 H 423.766 0.86085 -3.82533 0
M  V30 4386 H 425.256 1.84776 -3.74497 0
M  V30 4387 N 425.693 1.55336 -0.266172 0
M  V30 4388 C 426.603 2.2583 0.635458 0
M  V30 4389 C 427.619 1.28106 1.17749 0
M  V30 4390 O 428.795 1.61024 1.20968 0
M  V30 4391 C 425.86 2.95879 1.80712 0
M  V30 4392 C 424.921 4.09059 1.30265 0
M  V30 4393 C 424.154 4.75759 2.41846 0
M  V30 4394 O 424.377 4.41622 3.61007 0
M  V30 4395 O 423.311 5.63888 2.1051 0
M  V30 4396 H 427.137 3.03631 0.0646693 0
M  V30 4397 H 424.722 1.49361 -0.0339177 0
M  V30 4398 H 426.604 3.39932 2.49047 0
M  V30 4399 H 425.279 2.21002 2.36516 0
M  V30 4400 H 424.186 3.69482 0.586019 0
M  V30 4401 H 425.519 4.85811 0.790458 0
M  V30 4402 N 427.171 -0.0066808 1.57599 0
M  V30 4403 C 428.42 -0.692078 1.89455 0
M  V30 4404 C 428.733 -1.75306 0.867586 0
M  V30 4405 O 429.939 -2.49262 1.07614 0
M  V30 4406 C 428.395 -1.2821 3.36289 0
M  V30 4407 C 428.003 -0.256291 4.47266 0
M  V30 4408 C 429.747 -1.94608 3.77264 0
M  V30 4409 C 427.654 -0.855927 5.85173 0
M  V30 4410 H 426.584 -0.262252 0.706923 0
M  V30 4411 H 429.235 0.052769 1.83424 0
M  V30 4412 H 427.617 -2.0774 3.37135 0
M  V30 4413 H 428.791 0.513923 4.57925 0
M  V30 4414 H 427.106 0.306862 4.15268 0
M  V30 4415 H 429.703 -2.40364 4.77629 0
M  V30 4416 H 430.046 -2.77382 3.10427 0
M  V30 4417 H 430.579 -1.21822 3.78688 0
M  V30 4418 H 427.318 -0.0671161 6.55466 0
M  V30 4419 H 426.838 -1.59546 5.78191 0
M  V30 4420 H 428.517 -1.35658 6.32618 0
M  V30 4421 N 428.649 -1.55105 -0.279332 0
M  V30 4422 C 429.897 -1.75066 -1.00977 0
M  V30 4423 C 430.218 -0.551276 -1.87045 0
M  V30 4424 O 429.488 0.433984 -1.91032 0
M  V30 4425 H 428.068 -0.645578 -0.375816 0
M  V30 4426 H 430.73 -1.92497 -0.305089 0
M  V30 4427 H 429.826 -2.64894 -1.65038 0
M  V30 4428 N 430.127 0.543554 -1.4793 0
M  V30 4429 C 431.09 1.63156 -1.60975 0
M  V30 4430 C 432.09 1.53346 -0.483899 0
M  V30 4431 O 433.28 1.5726 -0.749339 0
M  V30 4432 C 430.412 3.02743 -1.56716 0
M  V30 4433 H 431.605 1.52934 -2.57975 0
M  V30 4434 H 429.158 0.764557 -1.36324 0
M  V30 4435 H 429.893 3.18484 -0.611418 0
M  V30 4436 H 429.678 3.11272 -2.38438 0
M  V30 4437 H 431.168 3.81871 -1.6901 0
M  V30 4438 N 431.605 1.3629 0.791371 0
M  V30 4439 C 432.833 1.33562 1.58016 0
M  V30 4440 C 433.248 -0.0835616 1.88615 0
M  V30 4441 O 432.605 -1.0399 1.49974 0
M  V30 4442 C 432.656 2.15517 2.90232 0
M  V30 4443 O 432.377 3.51902 2.60953 0
M  V30 4444 C 433.878 2.20546 3.84544 0
M  V30 4445 H 431.098 0.458226 0.490173 0
M  V30 4446 H 433.642 1.79361 0.982345 0
M  V30 4447 H 431.797 1.73278 3.46487 0
M  V30 4448 H 432.211 3.94644 3.4548 0
M  V30 4449 H 433.685 2.82252 4.74382 0
M  V30 4450 H 434.162 1.20838 4.2225 0
M  V30 4451 H 434.768 2.63013 3.34222 0
M  V30 4452 N 433.083 -1.0153 1.20538 0
M  V30 4453 C 434.311 -1.78746 1.04199 0
M  V30 4454 C 434.726 -1.84323 -0.408733 0
M  V30 4455 O 434.083 -1.29714 -1.28377 0
M  V30 4456 C 434.134 -3.23152 1.62035 0
M  V30 4457 O 433.855 -3.17918 3.0143 0
M  V30 4458 C 435.356 -4.16911 1.50666 0
M  V30 4459 H 432.576 -0.56208 0.366479 0
M  V30 4460 H 435.12 -1.27794 1.59653 0
M  V30 4461 H 433.275 -3.71248 1.10697 0
M  V30 4462 H 433.689 -4.08567 3.28897 0
M  V30 4463 H 435.163 -5.16072 1.95892 0
M  V30 4464 H 435.64 -4.36791 0.459363 0
M  V30 4465 H 436.246 -3.74698 2.01201 0
M  V30 4466 N 434.561 -1.01147 -1.20859 0
M  V30 4467 C 435.786 -0.716698 -1.94623 0
M  V30 4468 C 436.211 0.715415 -1.73964 0
M  V30 4469 O 435.569 1.49157 -1.03062 0
M  V30 4470 C 435.617 -1.0513 -3.44935 0
M  V30 4471 O 434.721 -0.160131 -4.12089 0
M  V30 4472 H 434.062 -0.266404 -0.608214 0
M  V30 4473 H 436.592 -1.35346 -1.53436 0
M  V30 4474 H 436.602 -1.00086 -3.95533 0
M  V30 4475 H 435.277 -2.09475 -3.59295 0
M  V30 4476 H 433.854 -0.267657 -3.71938 0
M  V30 4477 N 436.039 1.36541 -0.78704 0
M  V30 4478 C 437.285 1.99599 -0.358872 0
M  V30 4479 C 437.618 1.62323 1.06606 0
M  V30 4480 O 436.893 0.876858 1.73613 0
M  V30 4481 C 437.176 3.56327 -0.519944 0
M  V30 4482 C 437.029 4.03464 -1.98839 0
M  V30 4483 C 438.348 4.4005 0.0664737 0
M  V30 4484 H 435.467 0.725107 -0.131869 0
M  V30 4485 H 438.109 1.6199 -0.992936 0
M  V30 4486 H 436.259 3.88495 0.0198321 0
M  V30 4487 H 437.931 3.81793 -2.58905 0
M  V30 4488 H 436.174 3.55092 -2.49183 0
M  V30 4489 H 436.845 5.12439 -2.05207 0
M  V30 4490 H 439.321 4.14228 -0.394267 0
M  V30 4491 H 438.197 5.48847 -0.0762682 0
M  V30 4492 H 438.458 4.26655 1.15835 0
M  V30 4493 N 437.518 0.538854 1.48102 0
M  V30 4494 C 438.765 0.0080018 2.02498 0
M  V30 4495 C 439.093 -1.33437 1.41509 0
M  V30 4496 O 438.348 -1.87709 0.553507 0
M  V30 4497 C 438.647 -0.153808 3.57069 0
M  V30 4498 C 438.313 1.11533 4.36888 0
M  V30 4499 C 436.975 1.46314 4.58417 0
M  V30 4500 C 439.327 1.95718 4.83057 0
M  V30 4501 C 436.655 2.6516 5.23361 0
M  V30 4502 C 439.007 3.13751 5.49312 0
M  V30 4503 C 437.671 3.48866 5.69077 0
M  V30 4504 H 436.941 0.00292807 0.740994 0
M  V30 4505 H 439.588 0.706668 1.77984 0
M  V30 4506 H 437.893 -0.935309 3.80472 0
M  V30 4507 H 439.59 -0.579607 3.96789 0
M  V30 4508 H 436.18 0.834484 4.20398 0
M  V30 4509 H 440.364 1.70158 4.66219 0
M  V30 4510 H 435.62 2.92558 5.36861 0
M  V30 4511 H 439.794 3.79282 5.84053 0
M  V30 4512 H 437.421 4.41054 6.19173 0
M  V30 4513 N 438.996 -1.55193 0.274407 0
M  V30 4514 C 440.407 -1.85358 -0.223488 0
M  V30 4515 C 440.758 -1.19642 -1.555 0
M  V30 4516 O 439.883 -0.484498 -2.10907 0
M  V30 4517 C 440.478 -3.36282 -0.412285 0
M  V30 4518 C 439.037 -3.66574 -0.854413 0
M  V30 4519 C 438.184 -2.7725 0.0527056 0
M  V30 4520 H 441.135 -1.50743 0.496215 0
M  V30 4521 H 441.156 -3.59349 -1.25094 0
M  V30 4522 H 440.668 -3.84083 0.556965 0
M  V30 4523 H 438.769 -3.24273 -1.83516 0
M  V30 4524 H 438.882 -4.74073 -0.692226 0
M  V30 4525 H 437.246 -2.50447 -0.463484 0
M  V30 4526 H 438.029 -3.27865 1.01783 0
M  V30 4527 N 440.474 -0.00167713 -1.576 0
M  V30 4528 C 441.704 0.692754 -1.94639 0
M  V30 4529 C 442.112 1.67744 -0.87513 0
M  V30 4530 O 441.455 1.8305 0.154382 0
M  V30 4531 C 441.517 1.47881 -3.27676 0
M  V30 4532 C 441.181 0.655518 -4.52274 0
M  V30 4533 C 442.178 -0.0575214 -5.19868 0
M  V30 4534 C 439.863 0.600994 -4.98692 0
M  V30 4535 C 441.857 -0.814052 -6.3218 0
M  V30 4536 C 439.544 -0.15926 -6.10892 0
M  V30 4537 C 440.542 -0.865515 -6.77494 0
M  V30 4538 O 440.23 -1.61336 -7.87544 0
M  V30 4539 H 439.962 0.197792 -0.646417 0
M  V30 4540 H 442.516 -0.049423 -2.05341 0
M  V30 4541 H 440.746 2.2655 -3.13388 0
M  V30 4542 H 442.435 2.05874 -3.49816 0
M  V30 4543 H 443.201 -0.0245611 -4.84994 0
M  V30 4544 H 439.08 1.14025 -4.46676 0
M  V30 4545 H 442.624 -1.36584 -6.84098 0
M  V30 4546 H 438.521 -0.194035 -6.45208 0
M  V30 4547 H 439.289 -1.53025 -8.04068 0
M  V30 4548 N 441.952 1.55251 0.271103 0
M  V30 4549 C 442.9 1.89054 1.35504 0
M  V30 4550 C 443.894 0.767064 1.51038 0
M  V30 4551 O 445.1 0.951429 1.528 0
M  V30 4552 H 441.475 0.600072 0.45323 0
M  V30 4553 H 443.446 2.79598 1.04247 0
M  V30 4554 C 442.195 2.18068 2.70817 0
M  V30 4555 H 441.518 3.04005 2.59656 0
M  V30 4556 H 442.958 2.4564 3.45597 0
M  V30 4557 C 441.417 0.988901 3.2206 0
M  V30 4558 O 441.947 0.224501 4.01072 0
M  V30 4559 N 440.153 0.786085 2.79766 0
M  V30 4560 H 439.7 1.40937 2.15626 0
M  V30 4561 H 439.658 -0.00969349 3.14399 0
M  V30 4562 N 443.43 -0.535701 1.48216 0
M  V30 4563 C 444.38 -1.63688 1.58714 0
M  V30 4564 C 445.364 -1.54635 0.444615 0
M  V30 4565 O 446.556 -1.62753 0.695742 0
M  V30 4566 C 443.685 -3.02423 1.62466 0
M  V30 4567 C 442.771 -3.16601 2.82178 0
M  V30 4568 N 443.162 -3.00771 4.06658 0
M  V30 4569 C 441.46 -3.47645 2.79391 0
M  V30 4570 C 442.161 -3.18213 4.86945 0
M  V30 4571 N 441.137 -3.45528 4.19656 0
M  V30 4572 H 444.939 -1.5005 2.5271 0
M  V30 4573 H 442.453 -0.741018 1.44508 0
M  V30 4574 H 444.45 -3.81517 1.6808 0
M  V30 4575 H 443.11 -3.17157 0.695826 0
M  V30 4576 H 444.121 -2.77652 4.37184 0
M  V30 4577 H 440.798 -3.68771 1.95739 0
M  V30 4578 H 442.188 -3.1076 5.95716 0
M  V30 4579 N 444.908 -1.36708 -0.784132 0
M  V30 4580 C 446.324 -1.17237 -1.08294 0
M  V30 4581 C 446.524 -5.93947e-05 -2.015 0
M  V30 4582 O 445.58 0.663686 -2.43622 0
M  V30 4583 C 446.893 -2.48557 -1.69233 0
M  V30 4584 C 448.441 -2.54968 -1.8155 0
M  V30 4585 C 448.916 -3.86388 -2.45904 0
M  V30 4586 N 450.407 -3.87762 -2.53367 0
M  V30 4587 C 451.142 -4.86191 -3.03983 0
M  V30 4588 N 450.638 -5.95015 -3.54866 0
M  V30 4589 N 452.431 -4.73606 -3.02743 0
M  V30 4590 H 444.582 -2.11758 -0.16501 0
M  V30 4591 H 446.845 -0.93822 -0.135822 0
M  V30 4592 H 446.551 -3.34638 -1.08215 0
M  V30 4593 H 446.425 -2.64748 -2.68679 0
M  V30 4594 H 448.812 -1.69302 -2.41704 0
M  V30 4595 H 448.893 -2.42672 -0.80895 0
M  V30 4596 H 448.537 -4.72462 -1.86392 0
M  V30 4597 H 448.467 -3.95982 -3.4714 0
M  V30 4598 H 450.958 -3.09145 -2.17343 0
M  V30 4599 H 451.271 -6.66086 -3.91854 0
M  V30 4600 H 449.616 -5.98676 -3.53003 0
M  V30 4601 H 452.807 -3.87717 -2.62284 0
M  V30 4602 H 452.98 -5.50473 -3.41881 0
M  V30 4603 N 446.386 1.0089 -1.21074 0
M  V30 4604 C 447.319 2.09279 -0.909806 0
M  V30 4605 C 448.297 1.61986 0.141145 0
M  V30 4606 O 449.481 1.88495 0.0130332 0
M  V30 4607 C 446.608 3.36723 -0.365374 0
M  V30 4608 C 445.654 4.02919 -1.39852 0
M  V30 4609 S 446.487 4.45835 -2.96633 0
M  V30 4610 C 447.643 5.76471 -2.43786 0
M  V30 4611 H 447.876 2.34484 -1.82769 0
M  V30 4612 H 445.409 1.14115 -1.04006 0
M  V30 4613 H 447.367 4.10459 -0.0578203 0
M  V30 4614 H 446.028 3.09577 0.531136 0
M  V30 4615 H 445.221 4.94634 -0.967117 0
M  V30 4616 H 444.823 3.35441 -1.65395 0
M  V30 4617 H 447.115 6.52027 -1.84029 0
M  V30 4618 H 448.058 6.24418 -3.33928 0
M  V30 4619 H 448.466 5.33104 -1.85636 0
M  V30 4620 N 447.864 1.01787 1.20321 0
M  V30 4621 C 448.811 0.589197 2.23153 0
M  V30 4622 C 449.781 -0.391367 1.61423 0
M  V30 4623 O 450.966 -0.290518 1.88575 0
M  V30 4624 C 448.106 -0.0650747 3.45039 0
M  V30 4625 C 447.219 0.960207 4.21194 0
M  V30 4626 C 446.354 0.276854 5.30478 0
M  V30 4627 C 445.393 1.2888 5.98378 0
M  V30 4628 N 444.53 0.632031 6.99249 0
M  V30 4629 H 449.37 1.47071 2.59179 0
M  V30 4630 H 446.907 0.736192 1.27352 0
M  V30 4631 H 448.865 -0.461552 4.14639 0
M  V30 4632 H 447.495 -0.910233 3.09701 0
M  V30 4633 H 446.547 1.47484 3.50646 0
M  V30 4634 H 447.859 1.72977 4.67847 0
M  V30 4635 H 447.013 -0.175056 6.06447 0
M  V30 4636 H 445.752 -0.525004 4.84866 0
M  V30 4637 H 444.757 1.75109 5.21169 0
M  V30 4638 H 445.982 2.09196 6.46076 0
M  V30 4639 H 443.928 -0.149935 6.55829 0
M  V30 4640 H 443.845 1.33964 7.44036 0
M  V30 4641 H 445.113 0.203755 7.79234 0
M  V30 4642 N 449.342 -1.36122 0.79427 0
M  V30 4643 C 450.289 -2.29982 0.194101 0
M  V30 4644 C 451.259 -1.52214 -0.664833 0
M  V30 4645 O 452.444 -1.80702 -0.612498 0
M  V30 4646 C 449.584 -3.38706 -0.661244 0
M  V30 4647 C 448.697 -4.31456 0.216766 0
M  V30 4648 C 447.832 -5.27265 -0.645411 0
M  V30 4649 C 446.871 -6.11653 0.233756 0
M  V30 4650 N 446.008 -6.99636 -0.587682 0
M  V30 4651 H 450.848 -2.80722 0.999965 0
M  V30 4652 H 448.385 -1.38172 0.504677 0
M  V30 4653 H 450.343 -4.00394 -1.17219 0
M  V30 4654 H 448.973 -2.89274 -1.43249 0
M  V30 4655 H 448.025 -3.7088 0.845724 0
M  V30 4656 H 449.337 -4.90724 0.893973 0
M  V30 4657 H 448.491 -5.94266 -1.22198 0
M  V30 4658 H 447.23 -4.68463 -1.35623 0
M  V30 4659 H 446.235 -5.4361 0.82269 0
M  V30 4660 H 447.46 -6.72531 0.942247 0
M  V30 4661 H 445.406 -6.43337 -1.2827 0
M  V30 4662 H 445.323 -7.55993 0.0317402 0
M  V30 4663 H 446.591 -7.71001 -1.14792 0
M  V30 4664 N 450.82 -0.546701 -1.47814 0
M  V30 4665 C 452.05 -0.0232519 -2.06587 0
M  V30 4666 C 452.458 1.2712 -1.40133 0
M  V30 4667 O 451.801 1.77091 -0.488305 0
M  V30 4668 C 451.863 0.254117 -3.58601 0
M  V30 4669 C 451.527 -0.949331 -4.47031 0
M  V30 4670 C 452.524 -1.85216 -4.85789 0
M  V30 4671 C 450.209 -1.16104 -4.88697 0
M  V30 4672 C 452.203 -2.95047 -5.65001 0
M  V30 4673 C 449.89 -2.26247 -5.67676 0
M  V30 4674 C 450.888 -3.1555 -6.05737 0
M  V30 4675 O 450.576 -4.23784 -6.83127 0
M  V30 4676 H 450.308 -0.0380082 -0.674931 0
M  V30 4677 H 452.862 -0.756631 -1.90956 0
M  V30 4678 H 451.092 1.04168 -3.72406 0
M  V30 4679 H 452.781 0.72167 -3.99433 0
M  V30 4680 H 453.547 -1.70061 -4.54207 0
M  V30 4681 H 449.426 -0.475159 -4.58545 0
M  V30 4682 H 452.97 -3.64778 -5.94628 0
M  V30 4683 H 448.867 -2.41379 -5.98671 0
M  V30 4684 H 449.635 -4.21701 -7.01506 0
M  V30 4685 N 452.299 1.55045 -0.282633 0
M  V30 4686 C 453.229 2.2579 0.595066 0
M  V30 4687 C 454.21 1.25074 1.15284 0
M  V30 4688 O 455.395 1.5381 1.18559 0
M  V30 4689 C 452.525 2.98472 1.77572 0
M  V30 4690 C 451.479 4.0618 1.34914 0
M  V30 4691 C 450.805 4.66477 2.6135 0
M  V30 4692 C 452.105 5.1996 0.493821 0
M  V30 4693 H 453.799 2.994 0.00505653 0
M  V30 4694 H 451.345 1.44 0.000992001 0
M  V30 4695 H 453.298 3.46677 2.39568 0
M  V30 4696 H 452.022 2.2241 2.39168 0
M  V30 4697 H 450.681 3.58797 0.752338 0
M  V30 4698 H 450.329 3.87074 3.2122 0
M  V30 4699 H 450.029 5.39207 2.33516 0
M  V30 4700 H 451.553 5.17435 3.24181 0
M  V30 4701 H 452.967 5.64172 1.01898 0
M  V30 4702 H 451.364 5.99299 0.310047 0
M  V30 4703 H 452.434 4.82462 -0.485593 0
M  V30 4704 N 453.777 0.010035 1.57597 0
M  V30 4705 C 455.002 -0.687021 1.95691 0
M  V30 4706 C 455.427 -1.65952 0.885519 0
M  V30 4707 O 454.785 -1.80633 -0.15543 0
M  V30 4708 C 454.833 -1.3864 3.32884 0
M  V30 4709 O 453.937 -2.50115 3.27897 0
M  V30 4710 H 453.278 -0.181989 0.638573 0
M  V30 4711 H 455.808 0.0662122 2.04493 0
M  V30 4712 H 455.818 -1.74754 3.6868 0
M  V30 4713 H 454.493 -0.673411 4.10412 0
M  V30 4714 H 453.07 -2.16253 3.03791 0
M  V30 4715 N 455.255 -1.55392 -0.262866 0
M  V30 4716 C 456.202 -1.88966 -1.32516 0
M  V30 4717 C 457.172 -0.742187 -1.48596 0
M  V30 4718 O 458.357 -0.99439 -1.62839 0
M  V30 4719 C 455.497 -2.17592 -2.67858 0
M  V30 4720 C 454.61 -3.45061 -2.59917 0
M  V30 4721 C 453.745 -3.63336 -3.87505 0
M  V30 4722 C 452.784 -4.84462 -3.74116 0
M  V30 4723 N 451.921 -4.99342 -4.93561 0
M  V30 4724 H 456.761 -2.79566 -1.03184 0
M  V30 4725 H 454.298 -1.38404 -0.498285 0
M  V30 4726 H 456.256 -2.3219 -3.46617 0
M  V30 4727 H 454.886 -1.30215 -2.95371 0
M  V30 4728 H 453.938 -3.38881 -1.72812 0
M  V30 4729 H 455.25 -4.3396 -2.45926 0
M  V30 4730 H 454.404 -3.77807 -4.74707 0
M  V30 4731 H 453.143 -2.72641 -4.04374 0
M  V30 4732 H 452.148 -4.69985 -2.85297 0
M  V30 4733 H 453.373 -5.76603 -3.58757 0
M  V30 4734 H 451.319 -4.1158 -5.10821 0
M  V30 4735 H 451.236 -5.82303 -4.82141 0
M  V30 4736 H 452.504 -5.18208 -5.82306 0
M  V30 4737 N 456.733 0.527833 -1.48498 0
M  V30 4738 C 457.961 1.30823 -1.6029 0
M  V30 4739 C 458.376 1.86945 -0.263974 0
M  V30 4740 O 457.733 1.6651 0.747034 0
M  V30 4741 C 457.784 2.45756 -2.65116 0
M  V30 4742 O 457.505 1.91946 -3.93813 0
M  V30 4743 C 459.006 3.37543 -2.87367 0
M  V30 4744 H 456.226 0.397763 -0.540394 0
M  V30 4745 H 458.77 0.636529 -1.94341 0
M  V30 4746 H 456.925 3.08806 -2.33917 0
M  V30 4747 H 457.339 2.67195 -4.51339 0
M  V30 4748 H 458.813 4.14532 -3.6451 0
M  V30 4749 H 459.29 3.92905 -1.9627 0
M  V30 4750 H 459.896 2.80283 -3.19878 0
M  V30 4751 N 458.211 1.37122 0.776871 0
M  V30 4752 C 459.459 1.31787 1.53221 0
M  V30 4753 C 459.78 -0.0987589 1.9475 0
M  V30 4754 O 459.05 -1.0417 1.65908 0
M  V30 4755 H 457.63 0.484839 0.568278 0
M  V30 4756 H 460.292 1.71556 0.924917 0
M  V30 4757 H 459.388 1.95355 2.43398 0
M  V30 4758 N 459.689 -1.00246 1.21608 0
M  V30 4759 C 461.105 -1.26435 0.973975 0
M  V30 4760 C 461.305 -1.98642 -0.338143 0
M  V30 4761 O 460.361 -2.29026 -1.06317 0
M  V30 4762 C 461.674 -2.08551 2.16626 0
M  V30 4763 C 463.222 -2.21769 2.20879 0
M  V30 4764 C 463.697 -3.07267 3.39633 0
M  V30 4765 N 465.188 -3.14855 3.39736 0
M  V30 4766 C 465.923 -3.81274 4.28273 0
M  V30 4767 N 465.419 -4.497 5.27012 0
M  V30 4768 N 467.212 -3.7794 4.16074 0
M  V30 4769 H 459.363 -0.518089 2.05984 0
M  V30 4770 H 461.626 -0.291368 0.902113 0
M  V30 4771 H 461.332 -1.62847 3.11727 0
M  V30 4772 H 461.206 -3.09303 2.15897 0
M  V30 4773 H 463.593 -2.66691 1.26332 0
M  V30 4774 H 463.674 -1.20478 2.25652 0
M  V30 4775 H 463.318 -2.63047 4.34475 0
M  V30 4776 H 463.248 -4.08678 3.321 0
M  V30 4777 H 465.739 -2.66147 2.6828 0
M  V30 4778 H 466.052 -4.98092 5.90867 0
M  V30 4779 H 464.397 -4.48479 5.30935 0
M  V30 4780 H 467.588 -3.23638 3.38195 0
M  V30 4781 H 467.761 -4.29424 4.85282 0
M  V30 4782 N 461.167 -1.02423 -1.1978 0
M  V30 4783 C 462.077 -0.610919 -2.26506 0
M  V30 4784 C 463.093 0.355152 -1.70337 0
M  V30 4785 O 464.269 0.214195 -2.00258 0
M  V30 4786 C 461.334 0.0365921 -3.46681 0
M  V30 4787 C 460.395 -0.976389 -4.18049 0
M  V30 4788 C 459.628 -0.359683 -5.32487 0
M  V30 4789 O 459.851 0.838601 -5.64202 0
M  V30 4790 O 458.785 -1.08022 -5.92127 0
M  V30 4791 H 462.611 -1.49965 -2.64091 0
M  V30 4792 H 460.196 -0.794156 -1.26545 0
M  V30 4793 H 462.078 0.39786 -4.19518 0
M  V30 4794 H 460.753 0.899398 -3.10954 0
M  V30 4795 H 459.66 -1.38916 -3.47352 0
M  V30 4796 H 460.993 -1.80941 -4.57735 0
M  V30 4797 N 462.645 1.35699 -0.801477 0
M  V30 4798 C 463.922 1.9324 -0.302937 0
M  V30 4799 C 464.302 1.73209 1.20672 0
M  V30 4800 O 463.65 1.09809 2.00385 0
M  V30 4801 C 463.86 3.41728 -0.708747 0
M  V30 4802 C 465.208 4.18868 -0.695328 0
M  V30 4803 O 466.232 3.5022 -0.649971 0
M  V30 4804 O 465.091 5.41342 -0.749081 0
M  V30 4805 H 462.185 0.82331 -0.0780367 0
M  V30 4806 H 464.731 1.44806 -0.884832 0
M  V30 4807 H 463.503 3.50015 -1.74944 0
M  V30 4808 H 463.126 3.97471 -0.101384 0
M  V30 4809 N 464.123 0.554532 1.47522 0
M  V30 4810 C 465.372 0.0273458 2.01681 0
M  V30 4811 C 465.685 -1.32962 1.43459 0
M  V30 4812 O 466.891 -1.94657 1.89265 0
M  V30 4813 C 465.347 -0.00159057 3.599 0
M  V30 4814 C 464.955 1.35197 4.27113 0
M  V30 4815 C 466.699 -0.476311 4.21819 0
M  V30 4816 C 464.606 1.28229 5.77331 0
M  V30 4817 H 463.536 0.00645269 0.753972 0
M  V30 4818 H 466.187 0.701985 1.69542 0
M  V30 4819 H 464.569 -0.741821 3.8899 0
M  V30 4820 H 465.743 2.1097 4.09668 0
M  V30 4821 H 464.058 1.76441 3.77171 0
M  V30 4822 H 466.655 -0.5468 5.31897 0
M  V30 4823 H 466.998 -1.4877 3.8881 0
M  V30 4824 H 467.531 0.20898 3.97251 0
M  V30 4825 H 464.27 2.26959 6.14955 0
M  V30 4826 H 463.79 0.566314 5.97121 0
M  V30 4827 H 465.469 0.983226 6.39485 0
M  V30 4828 N 465.601 -1.54893 0.290851 0
M  V30 4829 C 466.564 -2.21824 -0.576784 0
M  V30 4830 C 467.564 -1.20104 -1.06919 0
M  V30 4831 O 468.754 -1.44906 -0.966843 0
M  V30 4832 C 465.886 -2.89662 -1.79747 0
M  V30 4833 H 467.079 -2.99899 0.00784051 0
M  V30 4834 H 464.632 -1.56245 0.0415934 0
M  V30 4835 H 465.367 -2.15639 -2.42219 0
M  V30 4836 H 465.152 -3.64219 -1.45214 0
M  V30 4837 H 466.642 -3.4075 -2.4141 0
M  V30 4838 N 467.08 -0.0183926 -1.57589 0
M  V30 4839 C 468.028 0.985111 -2.10709 0
M  V30 4840 C 469.022 1.34397 -1.0312 0
M  V30 4841 O 470.228 1.32746 -1.21567 0
M  V30 4842 H 466.603 0.335418 -0.673052 0
M  V30 4843 H 468.574 0.511689 -2.9398 0
M  V30 4844 C 467.323 2.26202 -2.64061 0
M  V30 4845 H 466.646 1.9946 -3.4649 0
M  V30 4846 H 468.086 2.94652 -3.04887 0
M  V30 4847 C 466.545 2.98444 -1.5631 0
M  V30 4848 O 467.075 3.90142 -0.956674 0
M  V30 4849 N 465.281 2.6059 -1.28612 0
M  V30 4850 H 464.828 1.86101 -1.78112 0
M  V30 4851 H 464.786 3.09238 -0.567406 0
M  V30 4852 N 468.558 1.5553 0.254621 0
M  V30 4853 C 469.488 1.9268 1.31897 0
M  V30 4854 C 470.469 0.790797 1.506 0
M  V30 4855 O 471.654 1.05045 1.63337 0
M  V30 4856 C 468.784 2.21477 2.67517 0
M  V30 4857 C 467.738 3.37256 2.63519 0
M  V30 4858 C 467.064 3.51576 4.02862 0
M  V30 4859 C 468.364 4.73157 2.21179 0
M  V30 4860 H 470.058 2.81832 1.01051 0
M  V30 4861 H 467.604 1.35599 0.484662 0
M  V30 4862 H 469.557 2.46055 3.42104 0
M  V30 4863 H 468.281 1.29144 2.99982 0
M  V30 4864 H 466.94 3.12675 1.9139 0
M  V30 4865 H 466.588 2.56676 4.32581 0
M  V30 4866 H 466.288 4.2943 4.01078 0
M  V30 4867 H 467.812 3.78467 4.79161 0
M  V30 4868 H 469.226 4.97158 2.85494 0
M  V30 4869 H 467.623 5.54058 2.30521 0
M  V30 4870 H 468.693 4.70739 1.16332 0
M  V30 4871 N 470.036 -0.519951 1.48776 0
M  V30 4872 C 470.999 -1.60574 1.6355 0
M  V30 4873 C 471.999 -1.52557 0.508234 0
M  V30 4874 O 473.189 -1.56047 0.774262 0
M  V30 4875 C 470.321 -3.00211 1.61512 0
M  V30 4876 H 471.514 -1.4881 2.60376 0
M  V30 4877 H 469.067 -0.742772 1.37523 0
M  V30 4878 H 469.802 -3.17471 0.662009 0
M  V30 4879 H 469.587 -3.07439 2.43359 0
M  V30 4880 H 471.077 -3.79134 1.75064 0
M  V30 4881 N 471.514 -1.37532 -0.769588 0
M  V30 4882 C 472.791 -1.23392 -1.51768 0
M  V30 4883 C 473.171 0.17157 -2.10402 0
M  V30 4884 O 472.519 1.17943 -1.95708 0
M  V30 4885 C 472.729 -2.33163 -2.59685 0
M  V30 4886 C 474.077 -2.70809 -3.27028 0
M  V30 4887 O 475.101 -2.32355 -2.69981 0
M  V30 4888 O 473.96 -3.37066 -4.30173 0
M  V30 4889 H 471.054 -0.481617 -0.67229 0
M  V30 4890 H 473.6 -1.49318 -0.806368 0
M  V30 4891 H 472.372 -3.27273 -2.14494 0
M  V30 4892 H 471.995 -2.08713 -3.38415 0
M  V30 4893 N 472.992 0.995999 -1.22138 0
M  V30 4894 C 473.902 2.11985 -1.00496 0
M  V30 4895 C 474.918 1.7394 0.0457701 0
M  V30 4896 O 476.094 2.00868 -0.146273 0
M  V30 4897 C 473.159 3.41779 -0.582086 0
M  V30 4898 C 472.22 3.93943 -1.70608 0
M  V30 4899 C 471.453 5.17542 -1.30328 0
M  V30 4900 O 471.676 5.70114 -0.180743 0
M  V30 4901 O 470.61 5.63382 -2.11861 0
M  V30 4902 H 474.436 2.33123 -1.94647 0
M  V30 4903 H 472.021 1.10358 -1.00705 0
M  V30 4904 H 473.903 4.1989 -0.356467 0
M  V30 4905 H 472.578 3.22007 0.330592 0
M  V30 4906 H 471.485 3.17019 -1.98619 0
M  V30 4907 H 472.818 4.18141 -2.59651 0
M  V30 4908 N 474.47 1.03057 1.19235 0
M  V30 4909 C 475.717 0.728019 1.88961 0
M  V30 4910 C 476.045 -0.743515 1.79728 0
M  V30 4911 O 475.3 -1.55729 1.1852 0
M  V30 4912 C 475.599 1.1268 3.39172 0
M  V30 4913 C 475.265 2.5969 3.68608 0
M  V30 4914 C 473.927 2.99854 3.76352 0
M  V30 4915 C 476.279 3.54793 3.81801 0
M  V30 4916 C 473.607 4.34031 3.94758 0
M  V30 4917 C 475.959 4.88675 4.0172 0
M  V30 4918 C 474.623 5.28526 4.07697 0
M  V30 4919 H 473.893 0.266401 0.691456 0
M  V30 4920 H 476.54 1.29373 1.41191 0
M  V30 4921 H 474.845 0.479722 3.88852 0
M  V30 4922 H 476.542 0.870203 3.91444 0
M  V30 4923 H 473.132 2.27575 3.63191 0
M  V30 4924 H 477.316 3.24914 3.7516 0
M  V30 4925 H 472.572 4.6444 3.97625 0
M  V30 4926 H 476.746 5.6228 4.1087 0
M  V30 4927 H 474.373 6.32506 4.21712 0
M  V30 4928 N 475.948 -1.35272 0.808662 0
M  V30 4929 C 476.895 -2.29764 0.218482 0
M  V30 4930 C 477.865 -1.52911 -0.648652 0
M  V30 4931 O 479.05 -1.81341 -0.593297 0
M  V30 4932 C 476.19 -3.39388 -0.625282 0
M  V30 4933 C 475.303 -4.31202 0.262516 0
M  V30 4934 C 474.438 -5.27919 -0.589451 0
M  V30 4935 C 473.477 -6.11371 0.298617 0
M  V30 4936 N 472.614 -7.0022 -0.513443 0
M  V30 4937 H 477.454 -2.79645 1.02968 0
M  V30 4938 H 474.991 -1.37629 0.519303 0
M  V30 4939 H 476.949 -4.01615 -1.12966 0
M  V30 4940 H 475.579 -2.90777 -1.40173 0
M  V30 4941 H 474.631 -3.69962 0.885013 0
M  V30 4942 H 475.943 -4.89748 0.945971 0
M  V30 4943 H 475.097 -5.95529 -1.15888 0
M  V30 4944 H 473.836 -4.69875 -1.30647 0
M  V30 4945 H 472.841 -5.42707 0.880301 0
M  V30 4946 H 474.066 -6.71494 1.01352 0
M  V30 4947 H 472.012 -6.44662 -1.21439 0
M  V30 4948 H 471.929 -7.55917 0.111922 0
M  V30 4949 H 473.197 -7.72175 -1.06608 0
M  V30 4950 N 477.426 -0.562348 -1.47226 0
M  V30 4951 C 478.703 0.0256985 -1.95583 0
M  V30 4952 C 479.083 1.48032 -1.50498 0
M  V30 4953 O 478.431 2.15973 -0.746181 0
M  V30 4954 C 478.641 -0.125129 -3.48776 0
M  V30 4955 C 479.989 0.0175728 -4.24596 0
M  V30 4956 O 481.013 -0.0529341 -3.56161 0
M  V30 4957 O 479.872 0.170145 -5.46235 0
M  V30 4958 H 476.966 0.0612565 -0.824728 0
M  V30 4959 H 479.512 -0.629233 -1.57603 0
M  V30 4960 H 478.284 -1.13715 -3.74412 0
M  V30 4961 H 477.907 0.567178 -3.93534 0
M  V30 4962 N 478.904 1.54736 -0.299062 0
M  V30 4963 C 479.854 2.20155 0.592932 0
M  V30 4964 C 480.838 1.1739 1.10038 0
M  V30 4965 O 482.03 1.43116 1.04147 0
M  V30 4966 C 479.159 2.94437 1.76527 0
M  V30 4967 C 478.245 4.04516 1.27388 0
M  V30 4968 N 478.636 5.03319 0.500339 0
M  V30 4969 C 476.934 4.18022 1.55478 0
M  V30 4970 C 477.635 5.81209 0.238909 0
M  V30 4971 N 476.611 5.37408 0.818163 0
M  V30 4972 H 480.413 2.93899 -0.00563596 0
M  V30 4973 H 477.927 1.62068 -0.103732 0
M  V30 4974 H 479.924 3.3977 2.41582 0
M  V30 4975 H 478.584 2.22209 2.36756 0
M  V30 4976 H 479.595 5.17696 0.145419 0
M  V30 4977 H 476.272 3.56998 2.16469 0
M  V30 4978 H 477.662 6.70812 -0.382223 0
M  V30 4979 N 480.382 0.0267497 1.57577 0
M  V30 4980 C 481.312 -0.954308 2.13108 0
M  V30 4981 C 482.293 -1.34088 1.04663 0
M  V30 4982 O 483.478 -1.41992 1.32484 0
M  V30 4983 C 480.608 -2.23744 2.65624 0
M  V30 4984 C 479.562 -1.99168 3.78835 0
M  V30 4985 C 478.888 -3.33726 4.17769 0
M  V30 4986 C 480.188 -1.33277 5.0501 0
M  V30 4987 H 481.882 -0.491848 2.95332 0
M  V30 4988 H 479.428 -0.23514 1.42067 0
M  V30 4989 H 481.381 -2.92754 3.03106 0
M  V30 4990 H 480.105 -2.72151 1.80558 0
M  V30 4991 H 478.764 -1.32577 3.41788 0
M  V30 4992 H 478.412 -3.79888 3.29688 0
M  V30 4993 H 478.112 -3.18089 4.94058 0
M  V30 4994 H 479.636 -4.04008 4.57832 0
M  V30 4995 H 481.05 -1.92283 5.40093 0
M  V30 4996 H 479.447 -1.28045 5.8628 0
M  V30 4997 H 480.517 -0.305411 4.83937 0
M  V30 4998 N 481.861 -1.55662 -0.24637 0
M  V30 4999 C 483.107 -1.77782 -0.975779 0
M  V30 5000 C 483.44 -0.592103 -1.84953 0
M  V30 5001 O 482.715 0.409588 -1.90138 0
M  V30 5002 C 482.998 -3.09788 -1.83584 0
M  V30 5003 C 482.851 -4.38764 -0.990241 0
M  V30 5004 C 484.17 -3.38029 -2.81823 0
M  V30 5005 H 481.289 -0.646789 -0.353317 0
M  V30 5006 H 483.931 -1.88398 -0.246248 0
M  V30 5007 H 482.081 -3.00869 -2.45784 0
M  V30 5008 H 483.753 -4.59675 -0.386897 0
M  V30 5009 H 481.996 -4.32798 -0.294626 0
M  V30 5010 H 482.667 -5.27514 -1.62584 0
M  V30 5011 H 485.143 -3.46915 -2.2976 0
M  V30 5012 H 484.019 -4.3161 -3.39122 0
M  V30 5013 H 484.28 -2.58968 -3.58313 0
M  V30 5014 N 483.339 0.512053 -1.4905 0
M  V30 5015 C 484.75 1.09376 -1.51307 0
M  V30 5016 C 485.101 1.94 -0.292971 0
M  V30 5017 O 484.226 2.07965 0.598277 0
M  V30 5018 C 484.821 1.99031 -2.74176 0
M  V30 5019 C 483.38 2.52385 -2.79247 0
M  V30 5020 C 482.527 1.29749 -2.45073 0
M  V30 5021 H 485.478 0.296467 -1.55906 0
M  V30 5022 H 485.499 2.83569 -2.53711 0
M  V30 5023 H 485.011 1.37412 -3.62959 0
M  V30 5024 H 483.112 3.17673 -1.94716 0
M  V30 5025 H 483.225 2.90293 -3.81139 0
M  V30 5026 H 481.589 1.61912 -1.96612 0
M  V30 5027 H 482.372 0.698555 -3.36118 0
M  V30 5028 N 484.817 1.37938 0.762283 0
M  V30 5029 C 486.094 1.24196 1.51112 0
M  V30 5030 C 486.474 -0.160409 2.1049 0
M  V30 5031 O 485.822 -1.16904 1.96331 0
M  V30 5032 C 486.032 2.34537 2.58445 0
M  V30 5033 C 487.38 2.7254 3.25588 0
M  V30 5034 O 488.404 2.33783 2.68745 0
M  V30 5035 O 487.263 3.39343 4.28379 0
M  V30 5036 H 484.357 0.485175 0.669727 0
M  V30 5037 H 486.903 1.49743 0.798438 0
M  V30 5038 H 485.675 3.28406 2.12756 0
M  V30 5039 H 485.298 2.10505 3.37303 0
M  V30 5040 N 486.295 -0.989507 1.22664 0
M  V30 5041 C 487.706 -1.54406 1.04955 0
M  V30 5042 C 488.057 -1.92366 -0.385951 0
M  V30 5043 O 487.182 -1.75111 -1.27142 0
M  V30 5044 C 487.777 -2.80578 1.89899 0
M  V30 5045 C 486.336 -3.32464 1.76478 0
M  V30 5046 C 485.483 -2.05524 1.86159 0
M  V30 5047 H 488.434 -0.810211 1.3646 0
M  V30 5048 H 488.455 -3.53075 1.4184 0
M  V30 5049 H 487.967 -2.52918 2.94371 0
M  V30 5050 H 486.068 -3.65024 0.747528 0
M  V30 5051 H 486.181 -4.02838 2.59342 0
M  V30 5052 H 484.545 -2.19241 1.29636 0
M  V30 5053 H 485.328 -1.80258 2.92168 0
M  V30 5054 N 487.773 -1.03688 -1.18687 0
M  V30 5055 C 489.021 -0.736572 -1.88199 0
M  V30 5056 C 489.342 0.737665 -1.80509 0
M  V30 5057 O 488.612 1.53204 -1.22088 0
M  V30 5058 H 487.192 -0.269466 -0.696704 0
M  V30 5059 H 489.854 -1.31282 -1.44052 0
M  V30 5060 H 488.95 -1.03802 -2.94332 0
M  V30 5061 N 489.251 1.34841 -0.815825 0
M  V30 5062 C 490.491 2.00321 -0.406297 0
M  V30 5063 C 490.855 1.63293 1.00992 0
M  V30 5064 O 492.056 2.21563 1.52195 0
M  V30 5065 C 490.327 3.52421 -0.594469 0
M  V30 5066 S 491.886 4.37926 -0.276735 0
M  V30 5067 H 488.704 0.694155 -0.153848 0
M  V30 5068 H 491.306 1.64263 -1.06009 0
M  V30 5069 H 490.01 3.76858 -1.625 0
M  V30 5070 H 489.541 3.9333 0.0743157 0
M  V30 5071 H 491.556 4.87743 0.912215 0
M  V30 5072 N 490.729 0.570148 1.46925 0
M  V30 5073 C 491.679 -0.190921 2.27199 0
M  V30 5074 C 492.663 -0.873457 1.35128 0
M  V30 5075 O 493.855 -0.769627 1.59392 0
M  V30 5076 C 490.984 -1.21204 3.21192 0
M  V30 5077 C 490.07 -0.532261 4.20747 0
M  V30 5078 N 490.461 0.405038 5.04176 0
M  V30 5079 C 488.759 -0.784582 4.39045 0
M  V30 5080 C 489.46 0.801149 5.76157 0
M  V30 5081 N 488.436 0.153082 5.43384 0
M  V30 5082 H 492.238 0.529535 2.8909 0
M  V30 5083 H 489.752 0.391019 1.57622 0
M  V30 5084 H 491.749 -1.77135 3.77398 0
M  V30 5085 H 490.409 -1.93345 2.6086 0
M  V30 5086 H 491.42 0.779903 5.11994 0
M  V30 5087 H 488.097 -1.49352 3.89872 0
M  V30 5088 H 489.487 1.57208 6.5325 0
M  V30 5089 N 492.207 -1.54576 0.307264 0
M  V30 5090 C 493.437 -2.04378 -0.302158 0
M  V30 5091 C 493.845 -1.18381 -1.47589 0
M  V30 5092 O 493.188 -0.20352 -1.82569 0
M  V30 5093 C 493.25 -3.50133 -0.815305 0
M  V30 5094 C 492.914 -4.56401 0.233977 0
M  V30 5095 C 493.911 -5.08884 1.06456 0
M  V30 5096 C 491.596 -5.0088 0.377478 0
M  V30 5097 C 493.59 -6.04394 2.02452 0
M  V30 5098 C 491.277 -5.96208 1.34088 0
M  V30 5099 C 492.275 -6.47849 2.16288 0
M  V30 5100 O 491.963 -7.41308 3.10994 0
M  V30 5101 H 491.695 -0.672502 -0.0686839 0
M  V30 5102 H 494.249 -2.00484 0.446682 0
M  V30 5103 H 492.479 -3.51371 -1.61478 0
M  V30 5104 H 494.168 -3.83098 -1.34129 0
M  V30 5105 H 494.934 -4.75311 0.964596 0
M  V30 5106 H 490.813 -4.60309 -0.252405 0
M  V30 5107 H 494.357 -6.44626 2.66652 0
M  V30 5108 H 490.254 -6.29198 1.44154 0
M  V30 5109 H 491.022 -7.5913 3.06045 0
M  V30 5110 N 493.685 -0.035106 -1.57561 0
M  V30 5111 C 494.962 0.681212 -1.83354 0
M  V30 5112 C 495.342 1.89986 -0.920252 0
M  V30 5113 O 494.69 2.28489 0.0226815 0
M  V30 5114 C 494.9 1.05376 -3.32712 0
M  V30 5115 C 496.248 1.44286 -3.99333 0
M  V30 5116 O 497.272 1.14656 -3.37242 0
M  V30 5117 O 496.131 1.99518 -5.08778 0
M  V30 5118 H 493.225 0.334741 -0.756226 0
M  V30 5119 H 495.771 -0.0632448 -1.69582 0
M  V30 5120 H 494.543 0.186668 -3.90854 0
M  V30 5121 H 494.166 1.85619 -3.51613 0
M  V30 5122 N 495.163 1.55791 0.238111 0
M  V30 5123 C 496.095 1.87513 1.31802 0
M  V30 5124 C 497.108 0.762053 1.43863 0
M  V30 5125 O 498.297 1.04024 1.45056 0
M  V30 5126 C 495.397 2.05402 2.69561 0
M  V30 5127 C 494.57 3.3632 2.79656 0
M  V30 5128 C 493.629 3.43844 3.98319 0
M  V30 5129 O 492.655 4.16994 3.87433 0
M  V30 5130 N 493.857 2.73777 5.11885 0
M  V30 5131 H 496.622 2.80734 1.04922 0
M  V30 5132 H 494.183 1.56135 0.428196 0
M  V30 5133 H 496.175 2.07769 3.47296 0
M  V30 5134 H 494.745 1.18884 2.89111 0
M  V30 5135 H 493.965 3.46195 1.88528 0
M  V30 5136 H 495.253 4.22594 2.83358 0
M  V30 5137 H 494.651 2.14094 5.23622 0
M  V30 5138 H 493.208 2.81825 5.87723 0
M  V30 5139 N 496.642 -0.504142 1.49319 0
M  V30 5140 C 497.572 -1.61473 1.68667 0
M  V30 5141 C 498.553 -1.61455 0.535378 0
M  V30 5142 O 499.738 -1.78245 0.770868 0
M  V30 5143 C 496.868 -2.99971 1.75028 0
M  V30 5144 C 495.822 -3.14854 2.89916 0
M  V30 5145 C 495.148 -4.54671 2.81387 0
M  V30 5146 C 496.448 -2.95176 4.30893 0
M  V30 5147 H 498.142 -1.45535 2.61648 0
M  V30 5148 H 495.688 -0.698711 1.25913 0
M  V30 5149 H 497.641 -3.77562 1.8715 0
M  V30 5150 H 496.365 -3.1699 0.786441 0
M  V30 5151 H 495.024 -2.39687 2.77391 0
M  V30 5152 H 494.672 -4.68562 1.82917 0
M  V30 5153 H 494.372 -4.6557 3.58494 0
M  V30 5154 H 495.896 -5.34327 2.95512 0
M  V30 5155 H 497.31 -3.62538 4.44116 0
M  V30 5156 H 495.707 -3.17549 5.09198 0
M  V30 5157 H 496.777 -1.91332 4.45556 0
M  V30 5158 N 498.12 -1.38341 -0.754957 0
M  V30 5159 C 499.369 -1.33791 -1.5094 0
M  V30 5160 C 499.682 0.0699267 -1.95475 0
M  V30 5161 O 500.888 0.237956 -2.70455 0
M  V30 5162 C 499.344 -2.34934 -2.72643 0
M  V30 5163 C 498.952 -3.81332 -2.35138 0
M  V30 5164 C 500.696 -2.39425 -3.50536 0
M  V30 5165 C 498.603 -4.74164 -3.53444 0
M  V30 5166 H 497.533 -0.497314 -0.566741 0
M  V30 5167 H 500.184 -1.63888 -0.825403 0
M  V30 5168 H 498.566 -1.97878 -3.43017 0
M  V30 5169 H 499.74 -4.27319 -1.7244 0
M  V30 5170 H 498.055 -3.79946 -1.70382 0
M  V30 5171 H 500.652 -3.0598 -4.38498 0
M  V30 5172 H 500.995 -1.41278 -3.91594 0
M  V30 5173 H 501.528 -2.75274 -2.87174 0
M  V30 5174 H 498.267 -5.73501 -3.17453 0
M  V30 5175 H 497.787 -4.3287 -4.15191 0
M  V30 5176 H 499.466 -4.92111 -4.20043 0
M  V30 5177 N 499.598 0.982988 -1.23187 0
M  V30 5178 C 500.508 2.10907 -1.02739 0
M  V30 5179 C 501.524 1.73979 0.0273188 0
M  V30 5180 O 502.7 2.00702 -0.16757 0
M  V30 5181 C 499.765 3.41142 -0.618304 0
M  V30 5182 C 498.826 3.92112 -1.74777 0
M  V30 5183 C 498.059 5.16131 -1.3581 0
M  V30 5184 O 498.282 5.6989 -0.241201 0
M  V30 5185 O 497.216 5.61103 -2.17824 0
M  V30 5186 H 501.042 2.31046 -1.97108 0
M  V30 5187 H 498.627 1.09284 -1.01869 0
M  V30 5188 H 500.509 4.19488 -0.400982 0
M  V30 5189 H 499.184 3.2234 0.296421 0
M  V30 5190 H 498.091 3.14895 -2.0197 0
M  V30 5191 H 499.424 4.15364 -2.64071 0
M  V30 5192 N 501.076 1.04316 1.18135 0
M  V30 5193 C 502.325 0.74319 1.87509 0
M  V30 5194 C 502.638 -0.732136 1.81381 0
M  V30 5195 O 503.844 -1.14572 2.46141 0
M  V30 5196 C 502.3 1.27913 3.36402 0
M  V30 5197 C 501.908 2.78326 3.51053 0
M  V30 5198 C 503.652 1.0558 4.11161 0
M  V30 5199 C 501.559 3.25266 4.93919 0
M  V30 5200 H 500.489 0.274313 0.702331 0
M  V30 5201 H 503.14 1.25931 1.33467 0
M  V30 5202 H 501.522 0.690853 3.89927 0
M  V30 5203 H 502.696 3.42933 3.07788 0
M  V30 5204 H 501.011 2.991 2.89704 0
M  V30 5205 H 503.608 1.38161 5.16542 0
M  V30 5206 H 503.951 -0.00684729 4.16299 0
M  V30 5207 H 504.484 1.60882 3.63816 0
M  V30 5208 H 501.223 4.30922 4.9395 0
M  V30 5209 H 500.743 2.65396 5.3789 0
M  V30 5210 H 502.422 3.19433 5.62647 0
M  V30 5211 N 502.554 -1.34406 0.822964 0
M  V30 5212 C 503.502 -2.31428 0.233165 0
M  V30 5213 C 504.496 -1.57404 -0.626118 0
M  V30 5214 O 505.702 -1.72402 -0.517453 0
M  V30 5215 H 502.077 -0.749863 0.0566557 0
M  V30 5216 H 504.048 -2.78699 1.06628 0
M  V30 5217 C 502.797 -3.42653 -0.590264 0
M  V30 5218 H 502.12 -3.99753 0.0616129 0
M  V30 5219 H 503.56 -4.12778 -0.969054 0
M  V30 5220 C 502.019 -2.87112 -1.76262 0
M  V30 5221 O 502.549 -2.81995 -2.8608 0
M  V30 5222 N 500.755 -2.43934 -1.57938 0
M  V30 5223 H 500.302 -2.48296 -0.686078 0
M  V30 5224 H 500.26 -2.07123 -2.36532 0
M  V30 5225 N 504.032 -0.577932 -1.46621 0
M  V30 5226 C 504.962 0.145917 -2.33044 0
M  V30 5227 C 505.943 0.888412 -1.45056 0
M  V30 5228 O 507.128 0.864812 -1.73881 0
M  V30 5229 C 504.258 1.16322 -3.27241 0
M  V30 5230 C 503.212 0.535868 -4.24632 0
M  V30 5231 C 502.538 1.65929 -5.08303 0
M  V30 5232 C 503.838 -0.523861 -5.19666 0
M  V30 5233 H 505.532 -0.575636 -2.93814 0
M  V30 5234 H 503.078 -0.278272 -1.41286 0
M  V30 5235 H 505.031 1.67793 -3.86553 0
M  V30 5236 H 503.755 1.91498 -2.64567 0
M  V30 5237 H 502.414 0.0422759 -3.66576 0
M  V30 5238 H 502.062 2.40061 -4.42018 0
M  V30 5239 H 501.762 1.2452 -5.74255 0
M  V30 5240 H 503.286 2.17686 -5.70478 0
M  V30 5241 H 504.7 -0.0944059 -5.73222 0
M  V30 5242 H 503.097 -0.858 -5.93935 0
M  V30 5243 H 504.167 -1.41197 -4.63887 0
M  V30 5244 N 505.51 1.54411 -0.315457 0
M  V30 5245 C 506.735 2.05299 0.294496 0
M  V30 5246 C 507.16 1.19052 1.4563 0
M  V30 5247 O 506.518 0.197804 1.80218 0
M  V30 5248 C 506.566 3.5345 0.714549 0
M  V30 5249 O 505.67 3.70175 1.81781 0
M  V30 5250 H 505.011 0.661743 0.0547019 0
M  V30 5251 H 507.541 1.99327 -0.461508 0
M  V30 5252 H 507.551 3.9557 0.999426 0
M  V30 5253 H 506.226 4.1568 -0.135244 0
M  V30 5254 H 504.803 3.3996 1.53236 0
M  V30 5255 N 506.988 0.0434614 1.5754 0
M  V30 5256 C 507.898 -0.94893 2.14552 0
M  V30 5257 C 508.914 -1.34707 1.10136 0
M  V30 5258 O 510.09 -1.42557 1.42266 0
M  V30 5259 C 507.155 -2.208 2.67298 0
M  V30 5260 C 506.216 -1.86893 3.86484 0
M  V30 5261 C 505.449 -3.06797 4.36705 0
M  V30 5262 O 505.672 -4.19921 3.86034 0
M  V30 5263 O 504.606 -2.8826 5.28384 0
M  V30 5264 H 508.432 -0.494099 2.99654 0
M  V30 5265 H 506.017 -0.177989 1.48336 0
M  V30 5266 H 507.899 -2.94686 3.01228 0
M  V30 5267 H 506.574 -2.65436 1.85272 0
M  V30 5268 H 505.481 -1.10347 3.57455 0
M  V30 5269 H 506.814 -1.47062 4.69716 0
M  V30 5270 N 508.466 -1.55915 -0.229846 0
M  V30 5271 C 509.396 -1.94754 -1.28815 0
M  V30 5272 C 510.377 -0.814657 -1.49323 0
M  V30 5273 O 511.562 -1.07631 -1.61645 0
M  V30 5274 C 508.692 -2.25705 -2.63959 0
M  V30 5275 C 507.646 -3.41406 -2.5812 0
M  V30 5276 C 506.972 -3.57941 -3.97218 0
M  V30 5277 C 508.272 -4.76616 -2.13623 0
M  V30 5278 H 509.966 -2.83404 -0.965547 0
M  V30 5279 H 507.512 -1.36353 -0.463028 0
M  V30 5280 H 509.465 -2.51467 -3.38146 0
M  V30 5281 H 508.189 -1.339 -2.9789 0
M  V30 5282 H 506.848 -3.1568 -1.86391 0
M  V30 5283 H 506.496 -2.63526 -4.28443 0
M  V30 5284 H 506.196 -4.35757 -3.94195 0
M  V30 5285 H 507.72 -3.86042 -4.73079 0
M  V30 5286 H 509.134 -5.01637 -2.77549 0
M  V30 5287 H 507.531 -5.57655 -2.21677 0
M  V30 5288 H 508.601 -4.7253 -1.08829 0
M  V30 5289 N 509.944 0.496216 -1.49584 0
M  V30 5290 C 510.891 1.59722 -1.66606 0
M  V30 5291 C 511.861 1.58158 -0.507477 0
M  V30 5292 O 513.046 1.76072 -0.735076 0
M  V30 5293 C 510.186 2.97844 -1.74308 0
M  V30 5294 C 509.299 3.09388 -3.01502 0
M  V30 5295 C 508.434 4.38271 -3.00153 0
M  V30 5296 C 507.473 4.43466 -4.21906 0
M  V30 5297 N 506.61 5.63784 -4.1844 0
M  V30 5298 H 511.45 1.44515 -2.60613 0
M  V30 5299 H 508.987 0.703048 -1.29212 0
M  V30 5300 H 510.945 3.77907 -1.76754 0
M  V30 5301 H 509.575 3.11743 -0.837619 0
M  V30 5302 H 508.627 2.22357 -3.08645 0
M  V30 5303 H 509.939 3.09085 -3.91494 0
M  V30 5304 H 509.093 5.2666 -3.01188 0
M  V30 5305 H 507.832 4.41146 -2.07947 0
M  V30 5306 H 506.837 3.53478 -4.21109 0
M  V30 5307 H 508.062 4.42303 -5.1531 0
M  V30 5308 H 506.008 5.67491 -3.29074 0
M  V30 5309 H 505.925 5.65118 -5.02173 0
M  V30 5310 H 507.193 6.54367 -4.23585 0
M  V30 5311 N 511.423 1.38739 0.74761 0
M  V30 5312 C 512.834 1.31507 1.32524 0
M  V30 5313 C 513.185 -0.0263963 1.96182 0
M  V30 5314 O 512.31 -0.92849 1.95469 0
M  V30 5315 C 512.905 2.38162 2.40966 0
M  V30 5316 C 511.464 2.34489 2.94434 0
M  V30 5317 C 510.611 2.20712 1.67873 0
M  V30 5318 H 513.562 1.4901 0.546043 0
M  V30 5319 H 513.583 2.04222 3.21051 0
M  V30 5320 H 513.095 3.35783 1.94605 0
M  V30 5321 H 511.196 1.40467 3.45108 0
M  V30 5322 H 511.309 3.28861 3.48407 0
M  V30 5323 H 509.673 1.67667 1.91729 0
M  V30 5324 H 510.456 3.20285 1.23582 0
M  V30 5325 N 512.901 -0.976442 1.23707 0
M  V30 5326 C 513.851 -2.0544 0.988851 0
M  V30 5327 C 514.835 -1.60762 -0.0665901 0
M  V30 5328 O 516.027 -1.76396 0.14604 0
M  V30 5329 C 513.156 -3.38258 0.586223 0
M  V30 5330 C 512.242 -3.89523 1.67728 0
M  V30 5331 N 512.633 -4.13823 2.90834 0
M  V30 5332 C 510.931 -4.18097 1.55277 0
M  V30 5333 C 511.632 -4.55731 3.61502 0
M  V30 5334 N 510.608 -4.60394 2.8903 0
M  V30 5335 H 514.41 -2.22191 1.92376 0
M  V30 5336 H 511.924 -1.15954 1.13704 0
M  V30 5337 H 513.921 -4.15075 0.389658 0
M  V30 5338 H 512.581 -3.22898 -0.341594 0
M  V30 5339 H 513.592 -4.01529 3.271 0
M  V30 5340 H 510.269 -4.11719 0.692351 0
M  V30 5341 H 511.659 -4.83018 4.67059 0
M  V30 5342 N 514.379 -1.04941 -1.1758 0
M  V30 5343 C 515.628 -0.753124 -1.87112 0
M  V30 5344 C 515.941 0.722507 -1.81767 0
M  V30 5345 O 517.147 1.13265 -2.46746 0
M  V30 5346 C 515.603 -1.29695 -3.35719 0
M  V30 5347 C 515.211 -2.80184 -3.49572 0
M  V30 5348 C 516.955 -1.07759 -4.10595 0
M  V30 5349 C 514.862 -3.2788 -4.92187 0
M  V30 5350 H 513.792 -0.278034 -0.700866 0
M  V30 5351 H 516.443 -1.26637 -1.32798 0
M  V30 5352 H 514.825 -0.711522 -3.89555 0
M  V30 5353 H 515.999 -3.44561 -3.05965 0
M  V30 5354 H 514.314 -3.00632 -2.88113 0
M  V30 5355 H 516.911 -1.40899 -5.15802 0
M  V30 5356 H 517.254 -0.0152302 -4.16297 0
M  V30 5357 H 517.787 -1.62809 -3.62957 0
M  V30 5358 H 514.526 -4.33535 -4.91658 0
M  V30 5359 H 514.046 -2.68245 -5.36475 0
M  V30 5360 H 515.725 -3.22412 -5.60945 0
M  V30 5361 N 515.857 1.33968 -0.830081 0
M  V30 5362 C 516.805 2.31301 -0.245435 0
M  V30 5363 C 517.799 1.57734 0.617762 0
M  V30 5364 O 519.005 1.72674 0.508303 0
M  V30 5365 H 515.38 0.749552 -0.0606316 0
M  V30 5366 H 517.351 2.78129 -1.08105 0
M  V30 5367 C 516.1 3.42961 0.572084 0
M  V30 5368 H 515.423 3.99714 -0.0828118 0
M  V30 5369 H 516.863 4.13286 0.94715 0
M  V30 5370 C 515.322 2.88043 1.74737 0
M  V30 5371 O 515.852 2.83508 2.8458 0
M  V30 5372 N 514.058 2.44768 1.56642 0
M  V30 5373 H 513.605 2.48656 0.672901 0
M  V30 5374 H 513.563 2.08375 2.3543 0
M  V30 5375 N 517.335 0.585699 1.46312 0
M  V30 5376 C 518.583 0.072278 2.01971 0
M  V30 5377 C 518.904 -1.29345 1.45928 0
M  V30 5378 O 518.174 -1.84973 0.645109 0
M  V30 5379 H 516.754 0.023729 0.746623 0
M  V30 5380 H 519.416 0.762155 1.7938 0
M  V30 5381 H 518.512 0.00552767 3.121 0
M  V30 5382 N 518.813 -1.54241 0.323641 0
M  V30 5383 C 520.224 -1.85975 -0.164405 0
M  V30 5384 C 520.575 -1.24529 -1.51615 0
M  V30 5385 O 519.7 -0.551351 -2.09258 0
M  V30 5386 C 520.295 -3.37424 -0.305091 0
M  V30 5387 C 518.854 -3.69107 -0.737358 0
M  V30 5388 C 518.001 -2.76942 0.140884 0
M  V30 5389 H 520.952 -1.49088 0.543922 0
M  V30 5390 H 520.973 -3.63147 -1.13598 0
M  V30 5391 H 520.485 -3.82116 0.678876 0
M  V30 5392 H 518.586 -3.29947 -1.73107 0
M  V30 5393 H 518.699 -4.76035 -0.541053 0
M  V30 5394 H 517.063 -2.51795 -0.383572 0
M  V30 5395 H 517.846 -3.24461 1.12162 0
M  V30 5396 N 520.291 -0.0518155 -1.57515 0
M  V30 5397 C 521.538 0.621823 -1.92716 0
M  V30 5398 C 521.866 1.70813 -0.930229 0
M  V30 5399 O 521.121 1.95616 0.0573708 0
M  V30 5400 C 521.42 1.25607 -3.34601 0
M  V30 5401 C 521.086 0.297901 -4.49915 0
M  V30 5402 C 519.748 0.034243 -4.81188 0
M  V30 5403 C 522.1 -0.358738 -5.19964 0
M  V30 5404 C 519.428 -0.893479 -5.79857 0
M  V30 5405 C 521.78 -1.27466 -6.19625 0
M  V30 5406 C 520.444 -1.54698 -6.49326 0
M  V30 5407 H 519.714 0.227541 -0.705199 0
M  V30 5408 H 522.361 -0.118432 -1.91133 0
M  V30 5409 H 520.666 2.07161 -3.32553 0
M  V30 5410 H 522.363 1.78424 -3.59118 0
M  V30 5411 H 518.953 0.513581 -4.25512 0
M  V30 5412 H 523.137 -0.168133 -4.96015 0
M  V30 5413 H 518.393 -1.11193 -6.01204 0
M  V30 5414 H 522.567 -1.78953 -6.73015 0
M  V30 5415 H 520.194 -2.26748 -7.25596 0
M  V30 5416 N 521.769 1.56035 0.221574 0
M  V30 5417 C 522.997 1.8313 0.962864 0
M  V30 5418 C 523.412 0.630934 1.77946 0
M  V30 5419 O 522.769 -0.400519 1.78051 0
M  V30 5420 C 522.82 3.08742 1.88045 0
M  V30 5421 O 522.541 4.24147 1.09686 0
M  V30 5422 C 524.042 3.48824 2.73563 0
M  V30 5423 H 521.262 0.608775 0.282194 0
M  V30 5424 H 523.806 2.03124 0.23681 0
M  V30 5425 H 521.961 2.90723 2.56045 0
M  V30 5426 H 522.375 4.95505 1.71974 0
M  V30 5427 H 523.849 4.39752 3.3365 0
M  V30 5428 H 524.326 2.70575 3.45956 0
M  V30 5429 H 524.932 3.69282 2.10976 0
M  V30 5430 N 523.247 -0.488276 1.49845 0
M  V30 5431 C 524.658 -1.06955 1.53028 0
M  V30 5432 C 525.009 -1.9351 0.323797 0
M  V30 5433 O 524.134 -2.08891 -0.565116 0
M  V30 5434 C 524.729 -1.94643 2.77307 0
M  V30 5435 C 523.288 -2.4791 2.83227 0
M  V30 5436 C 522.435 -1.25833 2.47106 0
M  V30 5437 H 525.386 -0.271626 1.56358 0
M  V30 5438 H 525.407 -2.79496 2.5819 0
M  V30 5439 H 524.919 -1.31621 3.65099 0
M  V30 5440 H 523.02 -3.14535 1.99745 0
M  V30 5441 H 523.133 -2.84193 3.85709 0
M  V30 5442 H 521.497 -1.58764 1.99163 0
M  V30 5443 H 522.28 -0.644993 3.37186 0
M  V30 5444 N 524.725 -1.39134 -0.740242 0
M  V30 5445 C 526.002 -1.26584 -1.49117 0
M  V30 5446 C 526.382 0.126902 -2.10718 0
M  V30 5447 O 525.73 1.13765 -1.98166 0
M  V30 5448 C 525.94 -2.38619 -2.54681 0
M  V30 5449 C 527.288 -2.77685 -3.21211 0
M  V30 5450 O 528.312 -2.38029 -2.64991 0
M  V30 5451 O 527.171 -3.46115 -4.22926 0
M  V30 5452 H 524.265 -0.495769 -0.661923 0
M  V30 5453 H 526.811 -1.50995 -0.774514 0
M  V30 5454 H 525.583 -3.3175 -2.07504 0
M  V30 5455 H 525.206 -2.15845 -3.33911 0
M  V30 5456 N 526.204 0.969867 -1.24223 0
M  V30 5457 C 527.134 2.08191 -1.05729 0
M  V30 5458 C 528.115 1.70075 0.0290765 0
M  V30 5459 O 529.3 1.93712 -0.137583 0
M  V30 5460 C 526.43 3.40991 -0.658995 0
M  V30 5461 C 525.384 3.93054 -1.69389 0
M  V30 5462 C 524.71 5.22171 -1.15072 0
M  V30 5463 C 526.01 4.21137 -3.08935 0
M  V30 5464 H 527.704 2.23921 -1.98746 0
M  V30 5465 H 525.25 1.07602 -0.956967 0
M  V30 5466 H 527.203 4.18221 -0.51662 0
M  V30 5467 H 525.927 3.25155 0.30686 0
M  V30 5468 H 524.586 3.17977 -1.82444 0
M  V30 5469 H 524.234 5.02694 -0.175539 0
M  V30 5470 H 523.934 5.57973 -1.84229 0
M  V30 5471 H 525.458 6.02013 -1.02042 0
M  V30 5472 H 526.872 4.8908 -2.99121 0
M  V30 5473 H 525.269 4.68163 -3.75425 0
M  V30 5474 H 526.339 3.27996 -3.57137 0
M  V30 5475 N 527.682 1.05563 1.17022 0
M  V30 5476 C 528.645 0.664098 2.19368 0
M  V30 5477 C 529.645 -0.286358 1.5823 0
M  V30 5478 O 530.835 -0.069728 1.7406 0
M  V30 5479 C 527.967 -0.0239932 3.40892 0
M  V30 5480 H 529.16 1.57 2.55521 0
M  V30 5481 H 526.713 0.849964 1.31169 0
M  V30 5482 H 527.448 -0.942988 3.10287 0
M  V30 5483 H 527.233 0.659351 3.86516 0
M  V30 5484 H 528.723 -0.283909 4.16634 0
M  V30 5485 N 529.16 -1.33526 0.837174 0
M  V30 5486 C 530.11 -2.2672 0.241269 0
M  V30 5487 C 531.094 -1.49183 -0.602756 0
M  V30 5488 O 532.286 -1.71052 -0.455002 0
M  V30 5489 C 529.415 -3.38294 -0.584125 0
M  V30 5490 C 528.501 -4.23231 0.271315 0
M  V30 5491 N 528.892 -4.87473 1.34922 0
M  V30 5492 C 527.19 -4.45962 0.0580589 0
M  V30 5493 C 527.891 -5.50685 1.87405 0
M  V30 5494 N 526.867 -5.30732 1.17578 0
M  V30 5495 H 530.669 -2.73903 1.06558 0
M  V30 5496 H 528.183 -1.47411 0.68145 0
M  V30 5497 H 530.18 -4.04044 -1.02731 0
M  V30 5498 H 528.84 -2.9266 -1.40643 0
M  V30 5499 H 529.851 -4.88077 1.7321 0
M  V30 5500 H 526.528 -4.11052 -0.730938 0
M  V30 5501 H 527.918 -6.11845 2.77661 0
M  V30 5502 N 530.638 -0.59345 -1.46 0
M  V30 5503 C 532.049 -0.169801 -1.85926 0
M  V30 5504 C 532.4 1.26984 -1.49565 0
M  V30 5505 O 531.525 1.96076 -0.915602 0
M  V30 5506 C 532.12 -0.301385 -3.37457 0
M  V30 5507 C 530.679 0.0674684 -3.7634 0
M  V30 5508 C 529.826 -0.632383 -2.69993 0
M  V30 5509 H 532.777 -0.801014 -1.37002 0
M  V30 5510 H 532.798 0.470331 -3.77582 0
M  V30 5511 H 532.31 -1.34927 -3.63891 0
M  V30 5512 H 530.411 1.11507 -3.55523 0
M  V30 5513 H 530.524 -0.316332 -4.78055 0
M  V30 5514 H 528.888 -0.0714961 -2.546 0
M  V30 5515 H 529.671 -1.68212 -2.99265 0
M  V30 5516 N 532.116 1.54067 -0.331816 0
M  V30 5517 C 533.362 2.01012 0.268667 0
M  V30 5518 C 533.695 1.2195 1.51136 0
M  V30 5519 O 532.97 0.303972 1.9211 0
M  V30 5520 C 533.253 3.55158 0.59456 0
M  V30 5521 C 533.106 4.4494 -0.659409 0
M  V30 5522 C 534.425 4.16939 1.4089 0
M  V30 5523 H 531.544 0.730698 0.0961756 0
M  V30 5524 H 534.186 1.84593 -0.450031 0
M  V30 5525 H 532.336 3.6928 1.20685 0
M  V30 5526 H 534.008 4.42675 -1.29756 0
M  V30 5527 H 532.251 4.1428 -1.28665 0
M  V30 5528 H 532.922 5.50643 -0.386804 0
M  V30 5529 H 535.398 4.06443 0.891272 0
M  V30 5530 H 534.274 5.24889 1.60569 0
M  V30 5531 H 534.535 3.70798 2.40752 0
M  V30 5532 N 533.594 0.0601682 1.57485 0
M  V30 5533 C 534.557 -0.896373 2.10945 0
M  V30 5534 C 535.557 -1.23402 1.03095 0
M  V30 5535 O 536.747 -1.16921 1.29132 0
M  V30 5536 C 533.879 -2.20346 2.60116 0
M  V30 5537 H 535.072 -0.432778 2.96761 0
M  V30 5538 H 532.625 -0.188372 1.55161 0
M  V30 5539 H 533.36 -2.71268 1.7772 0
M  V30 5540 H 533.145 -1.9714 3.38937 0
M  V30 5541 H 534.635 -2.88846 3.01592 0
M  V30 5542 N 535.072 -1.5615 -0.213296 0
M  V30 5543 C 535.982 -1.96265 -1.28519 0
M  V30 5544 C 536.998 -0.86765 -1.50824 0
M  V30 5545 O 538.174 -1.17191 -1.63793 0
M  V30 5546 C 535.239 -2.27836 -2.61327 0
M  V30 5547 C 534.3 -3.50949 -2.47252 0
M  V30 5548 C 533.533 -3.81004 -3.73727 0
M  V30 5549 O 533.756 -3.12612 -4.77106 0
M  V30 5550 O 532.69 -4.74477 -3.70344 0
M  V30 5551 H 536.516 -2.87631 -0.974795 0
M  V30 5552 H 534.101 -1.43467 -0.416832 0
M  V30 5553 H 535.983 -2.49299 -3.39747 0
M  V30 5554 H 534.658 -1.39643 -2.9203 0
M  V30 5555 H 533.565 -3.34754 -1.67004 0
M  V30 5556 H 534.898 -4.39551 -2.21486 0
M  V30 5557 N 536.55 0.480323 -1.50102 0
M  V30 5558 C 537.796 1.23489 -1.60867 0
M  V30 5559 C 538.129 1.91809 -0.303827 0
M  V30 5560 O 537.404 1.81694 0.694092 0
M  V30 5561 C 537.687 2.28578 -2.78252 0
M  V30 5562 C 537.54 1.64624 -4.18592 0
M  V30 5563 C 538.859 3.2997 -2.91218 0
M  V30 5564 H 535.978 0.447605 -0.585507 0
M  V30 5565 H 538.62 0.530005 -1.82458 0
M  V30 5566 H 536.77 2.88697 -2.59974 0
M  V30 5567 H 538.442 1.08173 -4.48438 0
M  V30 5568 H 536.685 0.949645 -4.23278 0
M  V30 5569 H 537.356 2.40946 -4.96638 0
M  V30 5570 H 539.832 2.79864 -3.07921 0
M  V30 5571 H 538.708 4.00839 -3.74993 0
M  V30 5572 H 538.969 3.93541 -2.0144 0
M  V30 5573 N 538.028 1.39524 0.732853 0
M  V30 5574 C 539.276 1.36594 1.48951 0
M  V30 5575 C 539.597 -0.0367507 1.94965 0
M  V30 5576 O 538.867 -0.988391 1.69138 0
M  V30 5577 H 537.447 0.502673 0.552566 0
M  V30 5578 H 540.109 1.74411 0.869869 0
M  V30 5579 H 539.205 2.03 2.3706 0
M  V30 5580 N 539.506 -0.963266 1.24736 0
M  V30 5581 C 540.453 -2.05857 1.04363 0
M  V30 5582 C 541.423 -1.6604 -0.0444951 0
M  V30 5583 O 542.608 -1.90477 0.110999 0
M  V30 5584 C 539.748 -3.38745 0.659235 0
M  V30 5585 C 538.861 -3.9173 1.82131 0
M  V30 5586 C 537.996 -5.12906 1.38208 0
M  V30 5587 C 537.035 -5.58098 2.51382 0
M  V30 5588 N 536.172 -6.7049 2.08295 0
M  V30 5589 H 541.012 -2.22616 1.98107 0
M  V30 5590 H 538.549 -1.09103 0.986661 0
M  V30 5591 H 540.507 -4.15107 0.417371 0
M  V30 5592 H 539.137 -3.21898 -0.241201 0
M  V30 5593 H 538.189 -3.11966 2.17672 0
M  V30 5594 H 539.501 -4.21225 2.67153 0
M  V30 5595 H 538.655 -5.96657 1.09935 0
M  V30 5596 H 537.394 -4.85105 0.502456 0
M  V30 5597 H 536.399 -4.72917 2.80409 0
M  V30 5598 H 537.624 -5.87911 3.39909 0
M  V30 5599 H 535.57 -6.44416 1.22737 0
M  V30 5600 H 535.487 -6.99458 2.86869 0
M  V30 5601 H 536.755 -7.57672 1.83175 0
M  V30 5602 N 540.985 -1.06182 -1.16461 0
M  V30 5603 C 542.231 -0.779015 -1.87241 0
M  V30 5604 C 542.564 0.692715 -1.81425 0
M  V30 5605 O 541.839 1.5074 -1.22913 0
M  V30 5606 C 542.122 -1.2728 -3.36856 0
M  V30 5607 C 541.975 -2.80821 -3.51368 0
M  V30 5608 C 543.294 -0.879799 -4.31216 0
M  V30 5609 H 540.413 -0.284464 -0.679889 0
M  V30 5610 H 543.055 -1.31755 -1.36896 0
M  V30 5611 H 541.205 -0.814673 -3.79862 0
M  V30 5612 H 542.877 -3.34833 -3.17308 0
M  V30 5613 H 541.12 -3.19606 -2.93316 0
M  V30 5614 H 541.791 -3.10435 -4.56436 0
M  V30 5615 H 544.267 -1.27436 -3.96105 0
M  V30 5616 H 543.143 -1.25278 -5.34412 0
M  V30 5617 H 543.404 0.215372 -4.41575 0
M  V30 5618 N 542.463 1.3308 -0.844243 0
M  V30 5619 C 543.426 2.27403 -0.286485 0
M  V30 5620 C 544.426 1.51179 0.547872 0
M  V30 5621 O 545.616 1.70421 0.360886 0
M  V30 5622 C 542.748 3.35653 0.595813 0
M  V30 5623 H 543.941 2.78248 -1.11885 0
M  V30 5624 H 541.494 1.43574 -0.617749 0
M  V30 5625 H 542.229 2.90058 1.4504 0
M  V30 5626 H 542.014 3.921 -0.00125994 0
M  V30 5627 H 543.504 4.05958 0.979168 0
M  V30 5628 N 543.941 0.601185 1.45683 0
M  V30 5629 C 544.851 -0.123395 2.34275 0
M  V30 5630 C 545.867 -0.86702 1.5086 0
M  V30 5631 O 547.043 -0.826049 1.8368 0
M  V30 5632 C 544.108 -1.11237 3.2837 0
M  V30 5633 C 543.169 -0.371405 4.2769 0
M  V30 5634 C 542.402 -1.31327 5.1729 0
M  V30 5635 O 542.625 -2.55078 5.10188 0
M  V30 5636 O 541.559 -0.813811 5.96373 0
M  V30 5637 H 545.385 0.604483 2.97623 0
M  V30 5638 H 542.97 0.361477 1.44961 0
M  V30 5639 H 544.852 -1.68214 3.8637 0
M  V30 5640 H 543.527 -1.82139 2.67595 0
M  V30 5641 H 542.434 0.24067 3.73325 0
M  V30 5642 H 543.767 0.296998 4.91303 0
M  V30 5643 N 545.419 -1.53889 0.339982 0
M  V30 5644 C 546.366 -2.24902 -0.518452 0
M  V30 5645 C 547.336 -1.24593 -1.09844 0
M  V30 5646 O 548.521 -1.53317 -1.13572 0
M  V30 5647 C 545.661 -3.02262 -1.66529 0
M  V30 5648 C 544.774 -4.17418 -1.11295 0
M  V30 5649 C 543.909 -4.82273 -2.2268 0
M  V30 5650 C 542.948 -5.89503 -1.6478 0
M  V30 5651 N 542.085 -6.48153 -2.69893 0
M  V30 5652 H 546.925 -2.97853 0.0936579 0
M  V30 5653 H 544.462 -1.46986 0.0579924 0
M  V30 5654 H 546.42 -3.45371 -2.3404 0
M  V30 5655 H 545.05 -2.31614 -2.24844 0
M  V30 5656 H 544.102 -3.78976 -0.328886 0
M  V30 5657 H 545.414 -4.94554 -0.649414 0
M  V30 5658 H 544.568 -5.28435 -2.98063 0
M  V30 5659 H 543.307 -4.04552 -2.72376 0
M  V30 5660 H 542.312 -5.42728 -0.879004 0
M  V30 5661 H 543.537 -6.6913 -1.1594 0
M  V30 5662 H 541.483 -5.73298 -3.1885 0
M  V30 5663 H 541.4 -7.20752 -2.28151 0
M  V30 5664 H 542.668 -6.98968 -3.45056 0
M  V30 5665 N 546.897 -0.0685191 -1.57451 0
M  V30 5666 C 547.807 0.914677 -2.16034 0
M  V30 5667 C 548.823 1.32938 -1.12265 0
M  V30 5668 O 549.999 1.40275 -1.44516 0
M  V30 5669 C 547.064 2.16519 -2.70777 0
M  V30 5670 C 546.125 1.80721 -3.89408 0
M  V30 5671 C 545.358 2.9981 -4.41531 0
M  V30 5672 O 545.581 4.13727 -3.92666 0
M  V30 5673 O 544.515 2.79817 -5.32903 0
M  V30 5674 H 548.341 0.446364 -3.00402 0
M  V30 5675 H 545.926 0.154367 -1.486 0
M  V30 5676 H 547.808 2.89856 -3.05878 0
M  V30 5677 H 546.483 2.62454 -1.89471 0
M  V30 5678 H 545.39 1.04646 -3.59166 0
M  V30 5679 H 546.723 1.39571 -4.71997 0
M  V30 5680 N 548.375 1.56261 0.205012 0
M  V30 5681 C 549.623 1.79684 0.925096 0
M  V30 5682 C 549.944 0.63989 1.84202 0
M  V30 5683 O 549.214 -0.342345 1.92885 0
M  V30 5684 H 547.794 0.662774 0.344587 0
M  V30 5685 H 550.456 1.93734 0.212899 0
M  V30 5686 H 549.552 2.72467 1.52211 0
M  V30 5687 N 549.853 -0.472356 1.50355 0
M  V30 5688 C 551.099 -1.22348 1.62488 0
M  V30 5689 C 551.454 -1.89711 0.320574 0
M  V30 5690 O 550.747 -1.79074 -0.68141 0
M  V30 5691 C 550.941 -2.29257 2.74182 0
M  V30 5692 C 550.77 -1.72383 4.15348 0
M  V30 5693 C 549.54 -1.52411 4.81766 0
M  V30 5694 C 551.738 -1.21949 4.99633 0
M  V30 5695 N 549.72 -0.907669 6.07153 0
M  V30 5696 C 551.091 -0.726191 6.15732 0
M  V30 5697 C 553.146 -1.10792 4.85417 0
M  V30 5698 C 551.849 -0.132322 7.19178 0
M  V30 5699 C 553.875 -0.52799 5.89038 0
M  V30 5700 C 553.237 -0.0450604 7.04386 0
M  V30 5701 H 549.336 -0.436631 0.648751 0
M  V30 5702 H 551.92 -0.525698 1.87469 0
M  V30 5703 H 550.091 -2.96464 2.50926 0
M  V30 5704 H 551.823 -2.9628 2.75681 0
M  V30 5705 H 548.578 -1.776 4.39039 0
M  V30 5706 H 549.002 -0.617897 6.74174 0
M  V30 5707 H 553.644 -1.46722 3.96525 0
M  V30 5708 H 551.362 0.239187 8.07746 0
M  V30 5709 H 554.948 -0.444046 5.80103 0
M  V30 5710 H 553.828 0.396659 7.83196 0
M  V30 5711 N 551.331 -1.39911 -0.725443 0
M  V30 5712 C 552.742 -1.33599 -1.30415 0
M  V30 5713 C 553.093 -0.00481792 -1.96199 0
M  V30 5714 O 552.218 0.897275 -1.96921 0
M  V30 5715 C 552.813 -2.41965 -2.37146 0
M  V30 5716 C 551.372 -2.39144 -2.90667 0
M  V30 5717 C 550.519 -2.23355 -1.64341 0
M  V30 5718 H 553.47 -1.4986 -0.522267 0
M  V30 5719 H 553.491 -2.09304 -3.17761 0
M  V30 5720 H 553.003 -3.38837 -1.89238 0
M  V30 5721 H 551.104 -1.4594 -3.4283 0
M  V30 5722 H 551.217 -3.34362 -3.43131 0
M  V30 5723 H 549.581 -1.70696 -1.89037 0
M  V30 5724 H 550.364 -3.2221 -1.18471 0
M  V30 5725 N 552.809 0.956637 -1.25245 0
M  V30 5726 C 553.739 2.07058 -1.07931 0
M  V30 5727 C 554.72 1.70096 0.0110361 0
M  V30 5728 O 555.905 1.93555 -0.158121 0
M  V30 5729 C 553.035 3.40272 -0.695124 0
M  V30 5730 C 551.989 3.91235 -1.73549 0
M  V30 5731 C 551.315 5.20921 -1.20604 0
M  V30 5732 C 552.615 4.17837 -3.13385 0
M  V30 5733 H 554.309 2.218 -2.01109 0
M  V30 5734 H 551.855 1.06581 -0.968326 0
M  V30 5735 H 553.808 4.1765 -0.560949 0
M  V30 5736 H 552.532 3.25462 0.272355 0
M  V30 5737 H 551.191 3.16025 -1.85807 0
M  V30 5738 H 550.839 5.02479 -0.228846 0
M  V30 5739 H 550.539 5.55987 -1.90136 0
M  V30 5740 H 552.063 6.00897 -1.08421 0
M  V30 5741 H 553.477 4.8588 -3.04292 0
M  V30 5742 H 551.874 4.64154 -3.80369 0
M  V30 5743 H 552.944 3.2419 -3.60595 0
M  V30 5744 N 554.287 1.06798 1.15896 0
M  V30 5745 C 555.564 0.701057 1.82605 0
M  V30 5746 C 555.944 -0.817066 1.94646 0
M  V30 5747 O 555.292 -1.72933 1.49353 0
M  V30 5748 C 555.502 1.40895 3.19296 0
M  V30 5749 C 556.85 1.55744 3.95005 0
M  V30 5750 O 557.874 1.36927 3.28831 0
M  V30 5751 O 556.733 1.86658 5.13635 0
M  V30 5752 H 553.827 0.248791 0.78869 0
M  V30 5753 H 556.373 1.16857 1.23055 0
M  V30 5754 H 555.145 2.4439 3.05596 0
M  V30 5755 H 554.768 0.931847 3.86526 0
M  V30 5756 N 555.766 -1.3263 0.851289 0
M  V30 5757 C 557.015 -1.96633 0.449267 0
M  V30 5758 C 557.328 -1.68131 -0.999562 0
M  V30 5759 O 558.534 -2.25845 -1.50685 0
M  V30 5760 C 556.99 -3.51946 0.752446 0
M  V30 5761 C 556.598 -3.89311 2.21678 0
M  V30 5762 C 558.342 -4.22437 0.417983 0
M  V30 5763 C 556.249 -5.37655 2.46336 0
M  V30 5764 H 555.179 -0.735888 0.164269 0
M  V30 5765 H 557.83 -1.51073 1.0416 0
M  V30 5766 H 556.212 -3.95899 0.0895858 0
M  V30 5767 H 557.386 -3.56378 2.92115 0
M  V30 5768 H 555.701 -3.31836 2.51543 0
M  V30 5769 H 558.298 -5.31549 0.579674 0
M  V30 5770 H 558.641 -4.11349 -0.640115 0
M  V30 5771 H 559.174 -3.84057 1.03659 0
M  V30 5772 H 555.913 -5.5376 3.50757 0
M  V30 5773 H 555.433 -5.72005 1.80473 0
M  V30 5774 H 557.112 -6.04695 2.30115 0
M  V30 5775 N 557.244 -0.608902 -1.45362 0
M  V30 5776 C 558.66 -0.272659 -1.57254 0
M  V30 5777 C 558.86 1.22477 -1.60005 0
M  V30 5778 O 557.916 2.00785 -1.53106 0
M  V30 5779 C 559.229 -0.944991 -2.85465 0
M  V30 5780 C 560.777 -0.921033 -2.99142 0
M  V30 5781 C 561.252 -1.5734 -4.30126 0
M  V30 5782 N 562.743 -1.53895 -4.36887 0
M  V30 5783 C 563.478 -2.01286 -5.36909 0
M  V30 5784 N 562.974 -2.56768 -6.43461 0
M  V30 5785 N 564.767 -1.92046 -5.28275 0
M  V30 5786 H 556.918 -1.58117 -1.4182 0
M  V30 5787 H 559.181 -0.662437 -0.678146 0
M  V30 5788 H 558.887 -1.99941 -2.89338 0
M  V30 5789 H 558.761 -0.469079 -3.74272 0
M  V30 5790 H 561.148 0.124846 -2.94836 0
M  V30 5791 H 561.229 -1.43522 -2.11743 0
M  V30 5792 H 560.873 -2.61862 -4.35191 0
M  V30 5793 H 560.803 -1.03422 -5.16344 0
M  V30 5794 H 563.294 -1.13366 -3.60495 0
M  V30 5795 H 563.607 -2.9072 -7.16032 0
M  V30 5796 H 561.952 -2.60808 -6.44208 0
M  V30 5797 H 565.143 -1.48439 -4.43941 0
M  V30 5798 H 565.316 -2.29293 -6.06077 0
M  V30 5799 N 558.722 1.53707 -0.348139 0
M  V30 5800 C 559.968 2.01286 0.247332 0
M  V30 5801 C 560.301 1.23546 1.49834 0
M  V30 5802 O 559.576 0.324331 1.91777 0
M  V30 5803 C 559.859 3.55768 0.556858 0
M  V30 5804 C 559.712 4.44216 -0.706564 0
M  V30 5805 C 561.031 4.1841 1.3646 0
M  V30 5806 H 558.15 0.731677 0.0884201 0
M  V30 5807 H 560.792 1.84106 -0.469584 0
M  V30 5808 H 558.942 3.70539 1.16761 0
M  V30 5809 H 560.614 4.41274 -1.34444 0
M  V30 5810 H 558.857 4.12892 -1.33052 0
M  V30 5811 H 559.528 5.50202 -0.445186 0
M  V30 5812 H 562.004 4.07365 0.848113 0
M  V30 5813 H 560.88 5.26563 1.54992 0
M  V30 5814 H 561.141 3.7333 2.36805 0
M  V30 5815 N 560.2 0.0768682 1.57412 0
M  V30 5816 C 561.448 -0.589918 1.93299 0
M  V30 5817 C 561.769 -1.69842 0.958049 0
M  V30 5818 O 561.039 -1.95899 0.00703261 0
M  V30 5819 H 559.619 -0.220901 0.713591 0
M  V30 5820 H 562.281 0.135917 1.94425 0
M  V30 5821 H 561.377 -1.01195 2.95239 0
M  V30 5822 N 561.678 -1.56367 -0.196722 0
M  V30 5823 C 562.608 -1.97442 -1.24655 0
M  V30 5824 C 563.589 -0.846147 -1.47561 0
M  V30 5825 O 564.774 -1.11035 -1.59326 0
M  V30 5826 C 561.904 -2.31253 -2.59112 0
M  V30 5827 C 560.858 -3.46804 -2.50821 0
M  V30 5828 C 560.184 -3.66286 -3.89536 0
M  V30 5829 C 561.484 -4.8104 -2.03465 0
M  V30 5830 H 563.178 -2.85388 -0.905216 0
M  V30 5831 H 560.724 -1.37304 -0.434002 0
M  V30 5832 H 562.677 -2.58583 -3.32736 0
M  V30 5833 H 561.401 -1.40188 -2.94983 0
M  V30 5834 H 560.06 -3.19563 -1.79653 0
M  V30 5835 H 559.708 -2.72555 -4.22756 0
M  V30 5836 H 559.408 -4.4402 -3.84864 0
M  V30 5837 H 560.932 -3.9599 -4.64784 0
M  V30 5838 H 562.346 -5.07411 -2.66846 0
M  V30 5839 H 560.743 -5.62232 -2.09798 0
M  V30 5840 H 561.813 -4.74732 -0.98781 0
M  V30 5841 N 563.156 0.464375 -1.50603 0
M  V30 5842 C 564.405 1.21277 -1.61167 0
M  V30 5843 C 564.718 1.92953 -0.320704 0
M  V30 5844 O 565.924 2.69778 -0.30534 0
M  V30 5845 C 564.38 2.20403 -2.84518 0
M  V30 5846 C 563.988 1.54499 -4.20516 0
M  V30 5847 C 565.732 2.95843 -3.0443 0
M  V30 5848 C 563.639 2.51951 -5.35047 0
M  V30 5849 H 562.569 0.456367 -0.600204 0
M  V30 5850 H 565.22 0.48254 -1.77042 0
M  V30 5851 H 563.602 2.96746 -2.62217 0
M  V30 5852 H 564.776 0.83899 -4.53098 0
M  V30 5853 H 563.091 0.913152 -4.06264 0
M  V30 5854 H 565.688 3.6879 -3.87167 0
M  V30 5855 H 566.031 3.55622 -2.16423 0
M  V30 5856 H 566.564 2.26611 -3.26944 0
M  V30 5857 H 563.303 1.96901 -6.25228 0
M  V30 5858 H 562.823 3.20683 -5.06875 0
M  V30 5859 H 564.502 3.13643 -5.65895 0
M  V30 5860 N 564.634 1.40294 0.718013 0
M  V30 5861 C 565.882 1.38167 1.47494 0
M  V30 5862 C 566.203 -0.01607 1.94993 0
M  V30 5863 O 565.473 -0.970396 1.70177 0
M  V30 5864 H 564.053 0.508505 0.547203 0
M  V30 5865 H 566.715 1.75324 0.851322 0
M  V30 5866 H 565.811 2.05503 2.34894 0
M  V30 5867 N 566.112 -0.949982 1.2575 0
M  V30 5868 C 567.337 -1.73503 1.13628 0
M  V30 5869 C 567.762 -1.85601 -0.30559 0
M  V30 5870 O 567.12 -1.33984 -1.22139 0
M  V30 5871 C 567.168 -3.1243 1.80055 0
M  V30 5872 O 566.272 -3.97916 1.08336 0
M  V30 5873 H 565.613 -0.532665 0.396439 0
M  V30 5874 H 568.143 -1.19043 1.66403 0
M  V30 5875 H 568.153 -3.62866 1.86527 0
M  V30 5876 H 566.828 -3.02941 2.84956 0
M  V30 5877 H 565.405 -3.56375 1.09777 0
M  V30 5878 N 567.59 -1.07411 -1.15328 0
M  V30 5879 C 568.83 -0.807011 -1.87794 0
M  V30 5880 C 569.194 0.654987 -1.80482 0
M  V30 5881 O 570.395 1.03716 -2.47985 0
M  V30 5882 C 568.666 -1.30198 -3.32841 0
M  V30 5883 S 570.225 -1.16564 -4.23034 0
M  V30 5884 H 567.043 -0.292429 -0.648079 0
M  V30 5885 H 569.645 -1.37334 -1.39139 0
M  V30 5886 H 568.349 -2.3607 -3.35707 0
M  V30 5887 H 567.88 -0.730881 -3.86551 0
M  V30 5888 H 569.895 -0.103557 -4.96092 0
M  V30 5889 N 569.068 1.32177 -0.85831 0
M  V30 5890 C 570.296 2.01313 -0.477582 0
M  V30 5891 C 570.711 1.6449 0.926736 0
M  V30 5892 O 570.068 0.868096 1.60531 0
M  V30 5893 C 570.119 3.56293 -0.611337 0
M  V30 5894 O 569.84 3.91794 -1.96034 0
M  V30 5895 C 571.341 4.42702 -0.230093 0
M  V30 5896 H 568.561 0.644323 -0.187322 0
M  V30 5897 H 571.105 1.68674 -1.15626 0
M  V30 5898 H 569.26 3.87395 0.0196494 0
M  V30 5899 H 569.674 4.86513 -1.95973 0
M  V30 5900 H 571.148 5.50727 -0.374674 0
M  V30 5901 H 571.625 4.3129 0.829779 0
M  V30 5902 H 572.231 4.16997 -0.836302 0
M  V30 5903 N 570.547 0.616602 1.45037 0
M  V30 5904 C 571.495 -0.109318 2.32343 0
M  V30 5905 C 572.489 -0.850543 1.465 0
M  V30 5906 O 573.695 -0.765088 1.62931 0
M  V30 5907 H 570.07 -0.0541091 0.750051 0
M  V30 5908 H 572.041 0.645326 2.91338 0
M  V30 5909 C 570.79 -1.0872 3.30266 0
M  V30 5910 H 570.113 -0.526267 3.96321 0
M  V30 5911 H 571.553 -1.56489 3.94065 0
M  V30 5912 C 570.012 -2.16525 2.58105 0
M  V30 5913 O 570.542 -3.244 2.36913 0
M  V30 5914 N 568.748 -1.92057 2.18088 0
M  V30 5915 H 568.295 -1.04337 2.35524 0
M  V30 5916 H 568.253 -2.64391 1.70131 0
M  V30 5917 N 572.025 -1.5352 0.356285 0
M  V30 5918 C 573.25 -2.06007 -0.239961 0
M  V30 5919 C 573.675 -1.22872 -1.42422 0
M  V30 5920 O 573.033 -0.245516 -1.7963 0
M  V30 5921 C 573.081 -3.5522 -0.620587 0
M  V30 5922 O 572.185 -3.74864 -1.71902 0
M  V30 5923 H 571.526 -0.662961 -0.0371377 0
M  V30 5924 H 574.056 -1.98033 0.514194 0
M  V30 5925 H 574.066 -3.98081 -0.894197 0
M  V30 5926 H 572.741 -4.15175 0.245407 0
M  V30 5927 H 571.318 -3.43904 -1.44169 0
M  V30 5928 N 573.503 -0.0852151 -1.57369 0
M  V30 5929 C 574.728 0.592872 -1.98746 0
M  V30 5930 C 575.153 1.61538 -0.963689 0
M  V30 5931 O 574.511 1.81168 0.069071 0
M  V30 5932 C 574.559 1.22599 -3.39119 0
M  V30 5933 O 573.663 2.34185 -3.39457 0
M  V30 5934 H 573.004 0.151314 -0.646529 0
M  V30 5935 H 575.534 -0.163703 -2.03944 0
M  V30 5936 H 575.544 1.56965 -3.76598 0
M  V30 5937 H 574.219 0.476831 -4.13158 0
M  V30 5938 H 572.796 2.01512 -3.13763 0
M  V30 5939 N 574.981 1.5647 0.188427 0
M  V30 5940 C 576.211 1.84863 0.922463 0
M  V30 5941 C 576.619 0.666413 1.77075 0
M  V30 5942 O 575.962 -0.374044 1.79852 0
M  V30 5943 C 576.024 3.07447 1.86324 0
M  V30 5944 C 575.688 4.41066 1.19625 0
M  V30 5945 C 576.685 5.16767 0.569946 0
M  V30 5946 C 574.37 4.87802 1.19811 0
M  V30 5947 C 576.364 6.37384 -0.045594 0
M  V30 5948 C 574.051 6.08353 0.57874 0
M  V30 5949 C 575.049 6.82987 -0.0420259 0
M  V30 5950 O 574.737 8.01254 -0.651675 0
M  V30 5951 H 574.469 0.61784 0.274316 0
M  V30 5952 H 577.023 2.04437 0.198613 0
M  V30 5953 H 575.253 2.83774 2.62696 0
M  V30 5954 H 576.942 3.2243 2.46564 0
M  V30 5955 H 577.708 4.81749 0.560601 0
M  V30 5956 H 573.587 4.29662 1.67069 0
M  V30 5957 H 577.131 6.95578 -0.530731 0
M  V30 5958 H 573.028 6.42838 0.58561 0
M  V30 5959 H 573.796 8.16655 -0.549236 0
M  V30 5960 N 576.459 -0.456382 1.50847 0
M  V30 5961 C 577.369 -1.57805 1.73594 0
M  V30 5962 C 578.385 -1.62599 0.619476 0
M  V30 5963 O 579.561 -1.80195 0.899532 0
M  V30 5964 C 576.626 -2.93926 1.8387 0
M  V30 5965 C 575.687 -2.99402 3.07663 0
M  V30 5966 C 574.92 -4.29031 3.1744 0
M  V30 5967 O 575.143 -5.20358 2.33631 0
M  V30 5968 O 574.077 -4.40401 4.10281 0
M  V30 5969 H 577.903 -1.41531 2.68705 0
M  V30 5970 H 575.488 -0.637422 1.3512 0
M  V30 5971 H 577.37 -3.74747 1.92725 0
M  V30 5972 H 576.045 -3.10368 0.91944 0
M  V30 5973 H 574.952 -2.17606 3.043 0
M  V30 5974 H 576.285 -2.87901 3.99216 0
M  V30 5975 N 577.937 -1.40673 -0.710563 0
M  V30 5976 C 579.214 -1.29718 -1.46398 0
M  V30 5977 C 579.594 0.082177 -2.1094 0
M  V30 5978 O 578.942 1.09536 -2.00534 0
M  V30 5979 C 579.152 -2.43967 -2.49562 0
M  V30 5980 C 580.5 -2.84436 -3.15248 0
M  V30 5981 O 581.524 -2.43597 -2.59883 0
M  V30 5982 O 580.383 -3.55008 -4.1549 0
M  V30 5983 H 577.477 -0.509697 -0.651258 0
M  V30 5984 H 580.023 -1.52603 -0.742312 0
M  V30 5985 H 578.795 -3.36076 -2.0042 0
M  V30 5986 H 578.418 -2.22879 -3.29258 0
M  V30 5987 N 579.415 0.9433 -1.26252 0
M  V30 5988 C 580.348 2.04162 -1.01946 0
M  V30 5989 C 581.326 1.62507 0.0550808 0
M  V30 5990 O 582.51 1.883 -0.0869025 0
M  V30 5991 C 579.637 3.34313 -0.54335 0
M  V30 5992 C 578.683 3.94939 -1.61013 0
M  V30 5993 S 579.516 4.29484 -3.19849 0
M  V30 5994 C 580.672 5.62738 -2.74001 0
M  V30 5995 H 580.905 2.24466 -1.94942 0
M  V30 5996 H 578.438 1.08441 -1.09909 0
M  V30 5997 H 580.396 4.09576 -0.275315 0
M  V30 5998 H 579.057 3.11957 0.36629 0
M  V30 5999 H 578.25 4.88812 -1.22795 0
M  V30 6000 H 577.852 3.26202 -1.82943 0
M  V30 6001 H 580.144 6.41356 -2.18333 0
M  V30 6002 H 581.087 6.05839 -3.66558 0
M  V30 6003 H 581.495 5.22514 -2.13634 0
M  V30 6004 N 580.893 1.08022 1.14757 0
M  V30 6005 C 582.141 0.805913 1.85336 0
M  V30 6006 C 582.462 -0.670162 1.83122 0
M  V30 6007 O 581.732 -1.48567 1.2769 0
M  V30 6008 H 580.312 0.295138 0.686223 0
M  V30 6009 H 582.974 1.36538 1.3908 0
M  V30 6010 H 582.07 1.14655 2.90277 0
M  V30 6011 N 582.371 -1.3172 0.865308 0
M  V30 6012 C 583.787 -1.4958 0.556596 0
M  V30 6013 C 583.987 -1.79763 -0.910353 0
M  V30 6014 O 583.043 -1.87351 -1.6928 0
M  V30 6015 C 584.356 -2.63277 1.45279 0
M  V30 6016 C 585.904 -2.77161 1.45433 0
M  V30 6017 C 586.379 -3.93949 2.33598 0
M  V30 6018 N 587.87 -4.01228 2.31453 0
M  V30 6019 C 588.605 -4.90855 2.96393 0
M  V30 6020 N 588.101 -5.85416 3.70486 0
M  V30 6021 N 589.894 -4.84063 2.85726 0
M  V30 6022 H 582.045 -1.10396 1.81456 0
M  V30 6023 H 584.308 -0.54507 0.775631 0
M  V30 6024 H 584.014 -2.47734 2.49641 0
M  V30 6025 H 583.888 -3.59309 1.14792 0
M  V30 6026 H 586.275 -2.9212 0.41831 0
M  V30 6027 H 586.356 -1.8181 1.79941 0
M  V30 6028 H 586 -3.79748 3.37274 0
M  V30 6029 H 585.93 -4.88598 1.96417 0
M  V30 6030 H 588.421 -3.3357 1.77593 0
M  V30 6031 H 588.734 -6.50525 4.17178 0
M  V30 6032 H 587.079 -5.85409 3.74594 0
M  V30 6033 H 590.27 -4.09163 2.27384 0
M  V30 6034 H 590.443 -5.53708 3.36617 0
M  V30 6035 N 583.85 -0.624285 -1.44708 0
M  V30 6036 C 585.075 -0.131171 -2.06985 0
M  V30 6037 C 585.5 1.18234 -1.46295 0
M  V30 6038 O 584.858 1.72375 -0.561842 0
M  V30 6039 C 584.906 -0.0226724 -3.60593 0
M  V30 6040 O 584.01 1.02314 -3.99507 0
M  V30 6041 H 583.351 -0.0816556 -0.65896 0
M  V30 6042 H 585.88 -0.859027 -1.85693 0
M  V30 6043 H 585.891 0.170138 -4.07645 0
M  V30 6044 H 584.566 -0.981685 -4.04148 0
M  V30 6045 H 583.143 0.805452 -3.64097 0
M  V30 6046 N 585.328 1.53329 -0.364422 0
M  V30 6047 C 586.291 2.24323 0.470292 0
M  V30 6048 C 587.291 1.25068 1.01067 0
M  V30 6049 O 588.481 1.49354 0.896605 0
M  V30 6050 C 585.613 2.97908 1.65722 0
M  V30 6051 H 586.806 2.9952 -0.150917 0
M  V30 6052 H 584.359 1.55868 -0.116092 0
M  V30 6053 H 585.094 2.2695 2.31655 0
M  V30 6054 H 584.879 3.70732 1.27671 0
M  V30 6055 H 586.369 3.5188 2.24878 0
M  V30 6056 N 586.806 0.0935595 1.57322 0
M  V30 6057 C 587.769 -0.851426 2.12799 0
M  V30 6058 C 588.769 -1.21187 1.0569 0
M  V30 6059 O 589.959 -1.14156 1.31583 0
M  V30 6060 C 587.091 -2.14779 2.64731 0
M  V30 6061 H 588.284 -0.369733 2.97612 0
M  V30 6062 H 585.837 -0.155417 1.55525 0
M  V30 6063 H 586.572 -2.67437 1.83434 0
M  V30 6064 H 586.357 -1.89907 3.43042 0
M  V30 6065 H 587.847 -2.82383 3.07651 0
M  V30 6066 N 588.284 -1.56567 -0.180126 0
M  V30 6067 C 589.53 -1.81761 -0.899497 0
M  V30 6068 C 589.863 -0.670015 -1.82276 0
M  V30 6069 O 589.138 0.328575 -1.91705 0
M  V30 6070 C 589.421 -3.17296 -1.7028 0
M  V30 6071 C 589.274 -4.4257 -0.803255 0
M  V30 6072 C 590.593 -3.49678 -2.67233 0
M  V30 6073 H 587.712 -0.661192 -0.325567 0
M  V30 6074 H 590.354 -1.89272 -0.16612 0
M  V30 6075 H 588.504 -3.11023 -2.32802 0
M  V30 6076 H 590.176 -4.60902 -0.191585 0
M  V30 6077 H 588.419 -4.33658 -0.110796 0
M  V30 6078 H 589.09 -5.33935 -1.40064 0
M  V30 6079 H 591.566 -3.56347 -2.14839 0
M  V30 6080 H 590.442 -4.45605 -3.20511 0
M  V30 6081 H 590.703 -2.73932 -3.47007 0
M  V30 6082 N 589.762 0.448376 -1.51087 0
M  V30 6083 C 590.725 1.52588 -1.71025 0
M  V30 6084 C 591.725 1.49958 -0.580442 0
M  V30 6085 O 592.915 1.52176 -0.847833 0
M  V30 6086 C 590.047 2.92163 -1.75652 0
M  V30 6087 H 591.24 1.36218 -2.67179 0
M  V30 6088 H 588.793 0.676313 -1.4091 0
M  V30 6089 H 589.528 3.13951 -0.812724 0
M  V30 6090 H 589.313 2.95478 -2.57751 0
M  V30 6091 H 590.803 3.70349 -1.92953 0
M  V30 6092 N 591.24 1.41047 0.703093 0
M  V30 6093 C 592.187 1.42302 1.81711 0
M  V30 6094 C 593.157 0.278336 1.63751 0
M  V30 6095 O 594.342 0.478266 1.84709 0
M  V30 6096 C 591.482 1.30362 3.19531 0
M  V30 6097 C 590.595 2.54638 3.48975 0
M  V30 6098 C 589.73 2.35047 4.76368 0
M  V30 6099 C 588.769 3.54837 4.98756 0
M  V30 6100 N 587.906 3.34363 6.1737 0
M  V30 6101 H 592.746 2.37516 1.79973 0
M  V30 6102 H 590.283 1.1795 0.878983 0
M  V30 6103 H 592.241 1.21443 3.99134 0
M  V30 6104 H 590.871 0.387602 3.20464 0
M  V30 6105 H 589.923 2.74037 2.63833 0
M  V30 6106 H 591.235 3.43766 3.61423 0
M  V30 6107 H 590.389 2.23552 5.64012 0
M  V30 6108 H 589.128 1.43363 4.66153 0
M  V30 6109 H 588.133 3.66795 4.09563 0
M  V30 6110 H 589.358 4.47464 5.10835 0
M  V30 6111 H 587.304 2.45373 6.08382 0
M  V30 6112 H 587.221 4.17063 6.30551 0
M  V30 6113 H 588.489 3.26626 7.07768 0
M  V30 6114 N 592.718 -0.936591 1.26751 0
M  V30 6115 C 593.65 -2.03991 1.045 0
M  V30 6116 C 594.663 -1.628 0.00394261 0
M  V30 6117 O 595.852 -1.76817 0.244526 0
M  V30 6118 C 592.952 -3.34218 0.561403 0
M  V30 6119 C 592.125 -4.04151 1.67274 0
M  V30 6120 C 591.184 -5.12651 1.1864 0
M  V30 6121 O 590.21 -5.37104 1.88437 0
M  V30 6122 N 591.412 -5.80488 0.037278 0
M  V30 6123 H 594.177 -2.23644 1.99508 0
M  V30 6124 H 591.738 -1.10638 1.18198 0
M  V30 6125 H 593.73 -4.04101 0.220136 0
M  V30 6126 H 592.3 -3.11203 -0.295211 0
M  V30 6127 H 591.52 -3.28121 2.18472 0
M  V30 6128 H 592.808 -4.47626 2.41885 0
M  V30 6129 H 592.206 -5.63064 -0.545494 0
M  V30 6130 H 590.763 -6.5134 -0.244877 0
M  V30 6131 N 594.196 -1.08629 -1.14182 0
M  V30 6132 C 595.159 -0.722027 -2.1753 0
M  V30 6133 C 596.159 0.244305 -1.58933 0
M  V30 6134 O 597.349 0.0235545 -1.74184 0
M  V30 6135 C 594.481 -0.0663966 -3.40835 0
M  V30 6136 H 595.674 -1.63719 -2.51269 0
M  V30 6137 H 593.227 -0.884442 -1.28869 0
M  V30 6138 H 593.962 0.860389 -3.12678 0
M  V30 6139 H 593.747 -0.761598 -3.84632 0
M  V30 6140 H 595.237 0.173346 -4.1724 0
M  V30 6141 N 595.674 1.31259 -0.872281 0
M  V30 6142 C 596.604 2.30929 -0.345554 0
M  V30 6143 C 597.585 1.60449 0.5648 0
M  V30 6144 O 598.77 1.8814 0.481335 0
M  V30 6145 C 595.9 3.44348 0.451823 0
M  V30 6146 C 594.854 4.26435 -0.365641 0
M  V30 6147 C 594.18 5.31785 0.557562 0
M  V30 6148 C 595.48 4.97159 -1.60095 0
M  V30 6149 H 597.174 2.75234 -1.17841 0
M  V30 6150 H 594.72 1.3232 -0.568094 0
M  V30 6151 H 596.673 4.13128 0.830854 0
M  V30 6152 H 595.397 2.98816 1.31821 0
M  V30 6153 H 594.056 3.59326 -0.726649 0
M  V30 6154 H 593.704 4.82502 1.4213 0
M  V30 6155 H 593.404 5.87598 0.0144878 0
M  V30 6156 H 594.928 6.03424 0.933387 0
M  V30 6157 H 596.342 5.58523 -1.29323 0
M  V30 6158 H 594.739 5.62779 -2.08327 0
M  V30 6159 H 595.809 4.24012 -2.35249 0
M  V30 6160 N 597.152 0.631951 1.44375 0
M  V30 6161 C 598.115 -0.0628142 2.29114 0
M  V30 6162 C 599.115 -0.771494 1.41084 0
M  V30 6163 O 600.305 -0.615959 1.62947 0
M  V30 6164 C 597.437 -1.09953 3.22681 0
M  V30 6165 H 598.63 0.682509 2.92031 0
M  V30 6166 H 596.183 0.392128 1.51301 0
M  V30 6167 H 596.918 -1.87481 2.64616 0
M  V30 6168 H 596.703 -0.595286 3.87555 0
M  V30 6169 H 598.193 -1.58538 3.86336 0
M  V30 6170 N 598.631 -1.53133 0.372548 0
M  V30 6171 C 599.581 -2.22733 -0.487218 0
M  V30 6172 C 600.565 -1.22506 -1.04312 0
M  V30 6173 O 601.757 -1.47923 -0.972005 0
M  V30 6174 C 598.886 -3.02524 -1.62278 0
M  V30 6175 C 597.972 -4.10133 -1.07943 0
M  V30 6176 N 598.363 -5.05133 -0.259629 0
M  V30 6177 C 596.661 -4.24964 -1.35356 0
M  V30 6178 C 597.362 -5.81687 0.0386656 0
M  V30 6179 N 596.338 -5.40699 -0.560827 0
M  V30 6180 H 600.14 -2.93538 0.145853 0
M  V30 6181 H 597.654 -1.61389 0.180938 0
M  V30 6182 H 599.651 -3.50909 -2.25096 0
M  V30 6183 H 598.311 -2.33252 -2.25884 0
M  V30 6184 H 599.322 -5.178 0.101746 0
M  V30 6185 H 595.999 -3.66919 -1.9919 0
M  V30 6186 H 597.389 -6.68224 0.701841 0
M  V30 6187 N 600.109 -0.101901 -1.5727 0
M  V30 6188 C 601.357 0.559091 -1.94213 0
M  V30 6189 C 601.678 1.68297 -0.984948 0
M  V30 6190 O 600.948 1.95863 -0.0381975 0
M  V30 6191 H 599.528 0.20952 -0.717015 0
M  V30 6192 H 602.19 -0.166831 -1.94185 0
M  V30 6193 H 601.286 0.96485 -2.96811 0
M  V30 6194 N 601.587 1.56661 0.17182 0
M  V30 6195 C 602.517 1.99401 1.21498 0
M  V30 6196 C 603.498 0.869516 1.46197 0
M  V30 6197 O 604.683 1.13556 1.57539 0
M  V30 6198 C 601.813 2.35346 2.55401 0
M  V30 6199 C 600.767 3.5075 2.45272 0
M  V30 6200 C 600.093 3.72437 3.8366 0
M  V30 6201 C 601.393 4.84216 1.95787 0
M  V30 6202 H 603.087 2.86792 0.859699 0
M  V30 6203 H 600.633 1.37977 0.412103 0
M  V30 6204 H 602.586 2.63843 3.2858 0
M  V30 6205 H 601.31 1.44864 2.92715 0
M  V30 6206 H 599.969 3.2238 1.74547 0
M  V30 6207 H 599.617 2.79246 4.18367 0
M  V30 6208 H 599.317 4.50087 3.77751 0
M  V30 6209 H 600.841 4.03334 4.58426 0
M  V30 6210 H 602.255 5.11592 2.5874 0
M  V30 6211 H 600.652 5.65498 2.00827 0
M  V30 6212 H 601.722 4.76243 0.912159 0
M  V30 6213 N 603.065 -0.440357 1.51323 0
M  V30 6214 C 604.012 -1.53429 1.72419 0
M  V30 6215 C 604.982 -1.56165 0.565826 0
M  V30 6216 O 606.167 -1.73222 0.799917 0
M  V30 6217 C 603.307 -2.91169 1.85242 0
M  V30 6218 C 602.42 -2.97985 3.12777 0
M  V30 6219 C 601.555 -4.26829 3.16212 0
M  V30 6220 C 600.594 -4.27501 4.38074 0
M  V30 6221 N 599.731 -5.47866 4.39076 0
M  V30 6222 H 604.571 -1.34743 2.65797 0
M  V30 6223 H 602.108 -0.654608 1.31732 0
M  V30 6224 H 604.066 -3.71087 1.90658 0
M  V30 6225 H 602.696 -3.0842 0.952744 0
M  V30 6226 H 601.748 -2.10749 3.16685 0
M  V30 6227 H 603.06 -2.94342 4.02696 0
M  V30 6228 H 602.214 -5.15118 3.20527 0
M  V30 6229 H 600.953 -4.33124 2.24176 0
M  V30 6230 H 599.958 -3.37606 4.33938 0
M  V30 6231 H 601.183 -4.22873 5.31371 0
M  V30 6232 H 599.129 -5.54887 3.49909 0
M  V30 6233 H 599.046 -5.46091 5.22801 0
M  V30 6234 H 600.314 -6.38195 4.4758 0
M  V30 6235 N 604.543 -1.41418 -0.695603 0
M  V30 6236 C 605.783 -1.42241 -1.46788 0
M  V30 6237 C 606.147 -0.0300827 -1.91976 0
M  V30 6238 O 607.348 0.0868914 -2.6866 0
M  V30 6239 C 605.619 -2.4011 -2.6473 0
M  V30 6240 S 607.178 -2.59462 -3.53871 0
M  V30 6241 H 603.996 -0.503893 -0.50161 0
M  V30 6242 H 606.598 -1.77855 -0.811654 0
M  V30 6243 H 605.302 -3.40073 -2.29736 0
M  V30 6244 H 604.833 -2.05849 -3.35246 0
M  V30 6245 H 606.848 -1.862 -4.59939 0
M  V30 6246 N 606.021 0.929856 -1.27246 0
M  V30 6247 C 606.968 2.03017 -1.09785 0
M  V30 6248 C 607.938 1.661 0.000456744 0
M  V30 6249 O 609.123 1.90116 -0.161462 0
M  V30 6250 C 606.263 3.36878 -0.748816 0
M  V30 6251 C 605.376 3.86763 -1.92453 0
M  V30 6252 C 604.511 5.09061 -1.51758 0
M  V30 6253 C 603.55 5.51237 -2.66091 0
M  V30 6254 N 602.687 6.64732 -2.25999 0
M  V30 6255 H 607.527 2.17285 -2.03939 0
M  V30 6256 H 605.064 1.06448 -1.01524 0
M  V30 6257 H 607.022 4.13855 -0.527283 0
M  V30 6258 H 605.652 3.22424 0.155771 0
M  V30 6259 H 604.704 3.06086 -2.25867 0
M  V30 6260 H 606.016 4.13994 -2.78227 0
M  V30 6261 H 605.17 5.93532 -1.25716 0
M  V30 6262 H 603.909 4.83602 -0.630896 0
M  V30 6263 H 602.914 4.65316 -2.92849 0
M  V30 6264 H 604.139 5.78692 -3.55377 0
M  V30 6265 H 602.085 6.40935 -1.3978 0
M  V30 6266 H 602.002 6.91607 -3.05313 0
M  V30 6267 H 603.27 7.52549 -2.03199 0
M  V30 6268 N 607.499 1.09233 1.13605 0
M  V30 6269 C 608.724 0.849067 1.89224 0
M  V30 6270 C 609.149 -0.593875 1.78479 0
M  V30 6271 O 608.507 -1.41703 1.13092 0
M  V30 6272 C 608.555 1.28642 3.36873 0
M  V30 6273 O 607.659 0.44363 4.10007 0
M  V30 6274 H 607 0.30767 0.588417 0
M  V30 6275 H 609.53 1.45595 1.43748 0
M  V30 6276 H 609.54 1.27096 3.87699 0
M  V30 6277 H 608.215 2.33729 3.44011 0
M  V30 6278 H 606.792 0.523241 3.69211 0
M  V30 6279 N 608.977 -1.30795 0.87923 0
M  V30 6280 C 609.909 -2.27241 0.299025 0
M  V30 6281 C 610.922 -1.53472 -0.543166 0
M  V30 6282 O 612.111 -1.74756 -0.363651 0
M  V30 6283 C 609.211 -3.33655 -0.593931 0
M  V30 6284 C 608.384 -4.36857 0.2179 0
M  V30 6285 C 607.443 -5.22715 -0.604646 0
M  V30 6286 O 606.469 -5.69192 -0.0293838 0
M  V30 6287 N 607.671 -5.48008 -1.91488 0
M  V30 6288 H 610.436 -2.77667 1.12788 0
M  V30 6289 H 607.997 -1.43914 0.741637 0
M  V30 6290 H 609.989 -3.88013 -1.15012 0
M  V30 6291 H 608.559 -2.83202 -1.32346 0
M  V30 6292 H 607.779 -3.82444 0.955536 0
M  V30 6293 H 609.067 -5.02869 0.774614 0
M  V30 6294 H 608.465 -5.1202 -2.40525 0
M  V30 6295 H 607.022 -6.05264 -2.41864 0
M  V30 6296 N 610.455 -0.639598 -1.44038 0
M  V30 6297 C 611.702 -0.14748 -2.01962 0
M  V30 6298 C 612.03 1.23372 -1.50365 0
M  V30 6299 O 611.285 1.8345 -0.681501 0
M  V30 6300 C 611.584 -0.0925348 -3.5728 0
M  V30 6301 C 611.25 -1.41365 -4.28167 0
M  V30 6302 C 609.912 -1.77545 -4.47248 0
M  V30 6303 C 612.264 -2.2853 -4.68427 0
M  V30 6304 C 609.592 -3.00583 -5.03852 0
M  V30 6305 C 611.944 -3.50846 -5.26393 0
M  V30 6306 C 610.608 -3.8724 -5.43692 0
M  V30 6307 H 609.878 -0.0539666 -0.739032 0
M  V30 6308 H 612.525 -0.827599 -1.72694 0
M  V30 6309 H 610.83 0.670987 -3.86012 0
M  V30 6310 H 612.527 0.304891 -3.99839 0
M  V30 6311 H 609.117 -1.1221 -4.13651 0
M  V30 6312 H 613.301 -2.0187 -4.5339 0
M  V30 6313 H 608.557 -3.28846 -5.15432 0
M  V30 6314 H 612.731 -4.18616 -5.56537 0
M  V30 6315 H 610.358 -4.8266 -5.87319 0
M  V30 6316 N 611.933 1.52934 -0.380664 0
M  V30 6317 C 613.161 2.05886 0.204599 0
M  V30 6318 C 613.576 1.25305 1.41223 0
M  V30 6319 O 612.933 0.297504 1.80059 0
M  V30 6320 C 612.984 3.56764 0.583249 0
M  V30 6321 O 612.705 4.34292 -0.576398 0
M  V30 6322 C 614.206 4.2603 1.2253 0
M  V30 6323 H 611.426 0.670193 0.0328991 0
M  V30 6324 H 613.97 1.97148 -0.543397 0
M  V30 6325 H 612.125 3.65603 1.28115 0
M  V30 6326 H 612.539 5.23819 -0.267119 0
M  V30 6327 H 614.013 5.32868 1.44068 0
M  V30 6328 H 614.49 3.80698 2.19011 0
M  V30 6329 H 615.096 4.21485 0.568407 0
M  V30 6330 N 613.412 0.11024 1.57214 0
M  V30 6331 C 614.661 -0.549638 1.94067 0
M  V30 6332 C 614.974 -1.68388 0.995234 0
M  V30 6333 O 616.18 -2.40593 1.25807 0
M  V30 6334 C 614.636 -1.02912 3.44873 0
M  V30 6335 C 614.244 0.0761861 4.47935 0
M  V30 6336 C 615.988 -1.66087 3.9066 0
M  V30 6337 C 613.895 -0.419502 5.8991 0
M  V30 6338 H 612.825 -0.209092 0.724428 0
M  V30 6339 H 615.476 0.188683 1.82527 0
M  V30 6340 H 613.858 -1.82159 3.51616 0
M  V30 6341 H 615.032 0.852185 4.52851 0
M  V30 6342 H 613.347 0.614052 4.11847 0
M  V30 6343 H 615.944 -2.04272 4.94143 0
M  V30 6344 H 616.287 -2.53591 3.30148 0
M  V30 6345 H 616.82 -0.933959 3.86681 0
M  V30 6346 H 613.559 0.419277 6.54158 0
M  V30 6347 H 613.079 -1.16217 5.88433 0
M  V30 6348 H 614.758 -0.883577 6.40938 0
M  V30 6349 N 614.89 -1.56749 -0.16351 0
M  V30 6350 C 616.118 -1.86577 -0.894233 0
M  V30 6351 C 616.533 -0.696543 -1.75481 0
M  V30 6352 O 615.89 0.334161 -1.79415 0
M  V30 6353 C 615.941 -3.15508 -1.76456 0
M  V30 6354 O 615.662 -4.27926 -0.938685 0
M  V30 6355 C 617.163 -3.58737 -2.60428 0
M  V30 6356 H 614.383 -0.618829 -0.259405 0
M  V30 6357 H 616.927 -2.03863 -0.161259 0
M  V30 6358 H 615.082 -3.00025 -2.45079 0
M  V30 6359 H 615.496 -5.01546 -1.53465 0
M  V30 6360 H 616.97 -4.51832 -3.17099 0
M  V30 6361 H 617.447 -2.83229 -3.35675 0
M  V30 6362 H 618.053 -3.76858 -1.97125 0
M  V30 6363 N 616.368 0.432326 -1.51554 0
M  V30 6364 C 617.779 1.01202 -1.56892 0
M  V30 6365 C 618.13 1.92175 -0.395394 0
M  V30 6366 O 617.255 2.10844 0.487198 0
M  V30 6367 C 617.85 1.84217 -2.8434 0
M  V30 6368 C 616.409 2.37228 -2.92233 0
M  V30 6369 C 615.556 1.16576 -2.51606 0
M  V30 6370 H 618.507 0.213407 -1.57259 0
M  V30 6371 H 618.528 2.69721 -2.68385 0
M  V30 6372 H 618.04 1.17979 -3.69733 0
M  V30 6373 H 616.141 3.06905 -2.11282 0
M  V30 6374 H 616.254 2.69682 -3.95991 0
M  V30 6375 H 614.618 1.51263 -2.04919 0
M  V30 6376 H 615.401 0.519404 -3.39348 0
M  V30 6377 N 617.846 1.41785 0.688094 0
M  V30 6378 C 619.094 1.41264 1.4453 0
M  V30 6379 C 619.415 0.0252946 1.94984 0
M  V30 6380 O 618.685 -0.934081 1.72197 0
M  V30 6381 H 617.265 0.519998 0.536294 0
M  V30 6382 H 619.927 1.7709 0.813941 0
M  V30 6383 H 619.023 2.10439 2.30482 0
M  V30 6384 N 619.324 -0.923095 1.27737 0
M  V30 6385 C 620.549 -1.71054 1.17283 0
M  V30 6386 C 620.974 -1.86208 -0.266153 0
M  V30 6387 O 620.332 -1.36545 -1.1927 0
M  V30 6388 C 620.38 -3.0854 1.86642 0
M  V30 6389 O 619.484 -3.95528 1.16752 0
M  V30 6390 H 618.825 -0.524136 0.407649 0
M  V30 6391 H 621.355 -1.15487 1.6889 0
M  V30 6392 H 621.365 -3.58828 1.94182 0
M  V30 6393 H 620.04 -2.96828 2.91317 0
M  V30 6394 H 618.617 -3.53967 1.17312 0
M  V30 6395 N 620.802 -1.09834 -1.13024 0
M  V30 6396 C 621.712 -0.753731 -2.22162 0
M  V30 6397 C 622.728 0.246105 -1.72251 0
M  V30 6398 O 623.904 0.0864051 -2.01215 0
M  V30 6399 C 620.969 -0.183958 -3.46212 0
M  V30 6400 C 620.03 -1.24028 -4.10993 0
M  V30 6401 C 619.263 -0.697597 -5.29121 0
M  V30 6402 O 619.486 0.478092 -5.68393 0
M  V30 6403 O 618.42 -1.4546 -5.84059 0
M  V30 6404 H 622.246 -1.66456 -2.5402 0
M  V30 6405 H 619.831 -0.873026 -1.21238 0
M  V30 6406 H 621.713 0.130257 -4.21199 0
M  V30 6407 H 620.388 0.699823 -3.16045 0
M  V30 6408 H 619.295 -1.60725 -3.37814 0
M  V30 6409 H 620.628 -2.09685 -4.45301 0
M  V30 6410 N 622.28 1.30327 -0.886154 0
M  V30 6411 C 623.212 2.27079 -0.311072 0
M  V30 6412 C 624.225 1.53758 0.53502 0
M  V30 6413 O 625.414 1.74947 0.354378 0
M  V30 6414 C 622.514 3.33965 0.576228 0
M  V30 6415 C 621.687 4.36735 -0.241064 0
M  V30 6416 C 620.746 5.23028 0.576916 0
M  V30 6417 O 619.772 5.692 -0.000802231 0
M  V30 6418 N 620.974 5.49016 1.88579 0
M  V30 6419 H 623.739 2.77065 -1.14259 0
M  V30 6420 H 621.3 1.43519 -0.749258 0
M  V30 6421 H 623.292 3.88618 1.12953 0
M  V30 6422 H 621.862 2.839 1.30842 0
M  V30 6423 H 621.082 3.81932 -0.975805 0
M  V30 6424 H 622.37 5.02451 -0.801272 0
M  V30 6425 H 621.768 5.13288 2.37806 0
M  V30 6426 H 620.325 6.06539 2.38651 0
M  V30 6427 N 623.758 0.647228 1.43697 0
M  V30 6428 C 625.007 0.155552 2.01099 0
M  V30 6429 C 625.32 -1.23569 1.51624 0
M  V30 6430 O 626.526 -1.82226 2.01261 0
M  V30 6431 C 624.982 0.227296 3.59182 0
M  V30 6432 C 624.59 1.62086 4.17651 0
M  V30 6433 C 626.334 -0.207085 4.23995 0
M  V30 6434 C 624.241 1.64685 5.68008 0
M  V30 6435 H 623.171 0.0543895 0.752036 0
M  V30 6436 H 625.822 0.808386 1.64734 0
M  V30 6437 H 624.204 -0.492937 3.9292 0
M  V30 6438 H 625.378 2.36597 3.95422 0
M  V30 6439 H 623.693 2.0007 3.65186 0
M  V30 6440 H 626.29 -0.207426 5.34298 0
M  V30 6441 H 626.633 -1.23742 3.97484 0
M  V30 6442 H 627.166 0.461193 3.95118 0
M  V30 6443 H 623.905 2.65608 5.99277 0
M  V30 6444 H 623.425 0.944914 5.9231 0
M  V30 6445 H 625.104 1.38792 6.31938 0
M  V30 6446 N 625.236 -1.5273 0.388769 0
M  V30 6447 C 626.652 -1.59553 0.0387049 0
M  V30 6448 C 626.852 -1.40278 -1.44652 0
M  V30 6449 O 625.908 -1.21951 -2.21098 0
M  V30 6450 C 627.221 -2.9625 0.515409 0
M  V30 6451 C 628.769 -3.09426 0.471621 0
M  V30 6452 C 629.244 -4.48572 0.924505 0
M  V30 6453 N 630.735 -4.54754 0.880496 0
M  V30 6454 C 631.47 -5.60653 1.20234 0
M  V30 6455 N 630.966 -6.74198 1.59463 0
M  V30 6456 N 632.759 -5.50755 1.12363 0
M  V30 6457 H 624.91 -1.63508 1.35569 0
M  V30 6458 H 627.173 -0.768097 0.555636 0
M  V30 6459 H 626.879 -3.15569 1.5527 0
M  V30 6460 H 626.753 -3.77102 -0.085792 0
M  V30 6461 H 629.14 -2.89804 -0.556588 0
M  V30 6462 H 629.221 -2.30528 1.10862 0
M  V30 6463 H 628.865 -4.68936 1.95094 0
M  V30 6464 H 628.795 -5.25935 0.264524 0
M  V30 6465 H 631.286 -3.73237 0.591815 0
M  V30 6466 H 631.599 -7.5097 1.82385 0
M  V30 6467 H 629.944 -6.75531 1.63349 0
M  V30 6468 H 633.135 -4.6093 0.816169 0
M  V30 6469 H 633.308 -6.33184 1.37777 0
M  V30 6470 N 626.714 -0.118576 -1.57153 0
M  V30 6471 C 627.677 0.817464 -2.14127 0
M  V30 6472 C 628.677 1.1949 -1.07604 0
M  V30 6473 O 629.867 1.12048 -1.33382 0
M  V30 6474 C 626.999 2.10541 -2.68115 0
M  V30 6475 H 628.192 0.322339 -2.98163 0
M  V30 6476 H 625.745 0.130655 -1.55753 0
M  V30 6477 H 626.48 2.64485 -1.87665 0
M  V30 6478 H 626.265 1.84425 -3.4602 0
M  V30 6479 H 627.755 2.77453 -3.12105 0
M  V30 6480 N 628.193 1.56834 0.155195 0
M  V30 6481 C 629.421 1.87049 0.884326 0
M  V30 6482 C 629.836 0.705839 1.7511 0
M  V30 6483 O 629.193 -0.324641 1.79589 0
M  V30 6484 C 629.244 3.1644 1.74781 0
M  V30 6485 O 628.965 4.28417 0.915978 0
M  V30 6486 C 630.466 3.60113 2.58522 0
M  V30 6487 H 627.686 0.620196 0.25612 0
M  V30 6488 H 630.23 2.03946 0.150445 0
M  V30 6489 H 628.385 3.01321 2.43484 0
M  V30 6490 H 628.799 5.02353 1.50803 0
M  V30 6491 H 630.273 4.53508 3.14698 0
M  V30 6492 H 630.75 2.85005 3.34169 0
M  V30 6493 H 631.356 3.77898 1.95124 0
M  V30 6494 N 629.671 -0.424282 1.51781 0
M  V30 6495 C 630.92 -1.16961 1.64326 0
M  V30 6496 C 631.233 -1.92035 0.371749 0
M  V30 6497 O 632.439 -2.68873 0.37676 0
M  V30 6498 C 630.895 -2.12782 2.90262 0
M  V30 6499 C 630.503 -1.43295 4.24465 0
M  V30 6500 C 632.247 -2.87667 3.12166 0
M  V30 6501 C 630.154 -2.37676 5.41538 0
M  V30 6502 H 629.084 -0.440293 0.612093 0
M  V30 6503 H 631.735 -0.435431 1.78259 0
M  V30 6504 H 630.117 -2.8969 2.69992 0
M  V30 6505 H 631.291 -0.718564 4.55163 0
M  V30 6506 H 629.606 -0.805118 4.08542 0
M  V30 6507 H 632.203 -3.58395 3.96808 0
M  V30 6508 H 632.546 -3.49758 2.25776 0
M  V30 6509 H 633.079 -2.17863 3.32837 0
M  V30 6510 H 629.818 -1.80255 6.30229 0
M  V30 6511 H 629.338 -3.07132 5.15199 0
M  V30 6512 H 631.017 -2.98529 5.74012 0
M  V30 6513 N 631.149 -1.42148 -0.680565 0
M  V30 6514 C 632.059 -1.47565 -1.82378 0
M  V30 6515 C 633.075 -0.36489 -1.70131 0
M  V30 6516 O 634.251 -0.614916 -1.91783 0
M  V30 6517 C 631.316 -1.37013 -3.18478 0
M  V30 6518 C 630.377 -2.58532 -3.42724 0
M  V30 6519 C 629.61 -2.48473 -4.72331 0
M  V30 6520 O 629.833 -1.51745 -5.49845 0
M  V30 6521 O 628.767 -3.38503 -4.97694 0
M  V30 6522 H 632.593 -2.44045 -1.80764 0
M  V30 6523 H 630.178 -1.23849 -0.835569 0
M  V30 6524 H 632.06 -1.33468 -3.99705 0
M  V30 6525 H 630.735 -0.436552 -3.20743 0
M  V30 6526 H 629.642 -2.67652 -2.61368 0
M  V30 6527 H 630.975 -3.50769 -3.45286 0
M  V30 6528 N 632.627 0.916307 -1.28225 0
M  V30 6529 C 634.043 1.19425 -1.05876 0
M  V30 6530 C 634.243 2.005 0.2005 0
M  V30 6531 O 633.299 2.35806 0.902873 0
M  V30 6532 C 634.612 1.93133 -2.30478 0
M  V30 6533 C 636.16 2.06026 -2.35632 0
M  V30 6534 C 636.635 2.83141 -3.59994 0
M  V30 6535 N 638.126 2.90704 -3.60618 0
M  V30 6536 C 638.861 3.50865 -4.53521 0
M  V30 6537 N 638.357 4.12327 -5.56739 0
M  V30 6538 N 640.15 3.48379 -4.41122 0
M  V30 6539 H 632.301 0.37496 -2.09064 0
M  V30 6540 H 634.564 0.228531 -0.920042 0
M  V30 6541 H 634.27 1.40985 -3.22205 0
M  V30 6542 H 634.144 2.93696 -2.36691 0
M  V30 6543 H 636.531 2.57355 -1.44404 0
M  V30 6544 H 636.612 1.04647 -2.33415 0
M  V30 6545 H 636.256 2.32492 -4.51564 0
M  V30 6546 H 636.186 3.84829 -3.59464 0
M  V30 6547 H 638.677 2.47034 -2.85977 0
M  V30 6548 H 638.99 4.56205 -6.23776 0
M  V30 6549 H 637.335 4.10839 -5.60568 0
M  V30 6550 H 640.526 2.99572 -3.59686 0
M  V30 6551 H 640.699 3.94974 -5.13712 0
M  V30 6552 N 634.105 1.10431 1.1244 0
M  V30 6553 C 635.382 0.758797 1.80282 0
M  V30 6554 C 635.762 -0.754727 1.97147 0
M  V30 6555 O 635.11 -1.68094 1.54779 0
M  V30 6556 C 635.32 1.50982 3.14651 0
M  V30 6557 C 636.668 1.68232 3.8985 0
M  V30 6558 O 637.692 1.47319 3.24308 0
M  V30 6559 O 636.551 2.02905 5.07437 0
M  V30 6560 H 633.645 0.273756 0.780376 0
M  V30 6561 H 636.191 1.20713 1.19275 0
M  V30 6562 H 634.963 2.53989 2.97666 0
M  V30 6563 H 634.586 1.05435 3.83366 0
M  V30 6564 N 635.583 -1.29855 0.893053 0
M  V30 6565 C 636.831 -1.9544 0.514566 0
M  V30 6566 C 637.152 -1.70795 -0.940959 0
M  V30 6567 O 636.422 -1.03601 -1.66264 0
M  V30 6568 H 635.002 -0.723137 0.187302 0
M  V30 6569 H 637.664 -1.58234 1.13789 0
M  V30 6570 H 636.76 -3.04341 0.691581 0
M  V30 6571 N 637.061 -0.65484 -1.43351 0
M  V30 6572 C 638.291 -0.176429 -2.05845 0
M  V30 6573 C 638.699 1.16375 -1.49176 0
M  V30 6574 O 638.042 1.72981 -0.618322 0
M  V30 6575 C 638.104 -0.0125844 -3.59498 0
M  V30 6576 C 637.768 -1.27831 -4.38758 0
M  V30 6577 C 638.765 -2.2074 -4.70712 0
M  V30 6578 C 636.45 -1.52035 -4.78739 0
M  V30 6579 C 638.444 -3.36145 -5.41558 0
M  V30 6580 C 636.131 -2.67732 -5.49329 0
M  V30 6581 C 637.129 -3.59612 -5.80662 0
M  V30 6582 O 636.817 -4.73289 -6.4981 0
M  V30 6583 H 636.549 -0.0879682 -0.670252 0
M  V30 6584 H 639.103 -0.896193 -1.84818 0
M  V30 6585 H 637.333 0.762567 -3.79107 0
M  V30 6586 H 639.022 0.423392 -4.03686 0
M  V30 6587 H 639.788 -2.03284 -4.40341 0
M  V30 6588 H 635.667 -0.813987 -4.53757 0
M  V30 6589 H 639.211 -4.07881 -5.65932 0
M  V30 6590 H 635.108 -2.85122 -5.79116 0
M  V30 6591 H 635.876 -4.72575 -6.68293 0
M  V30 6592 N 638.539 1.52521 -0.396863 0
M  V30 6593 C 639.502 2.2527 0.422604 0
M  V30 6594 C 640.502 1.27184 0.983913 0
M  V30 6595 O 641.692 1.51222 0.864723 0
M  V30 6596 C 638.824 3.01356 1.59365 0
M  V30 6597 H 640.017 2.99133 -0.214416 0
M  V30 6598 H 637.57 1.55587 -0.149128 0
M  V30 6599 H 638.305 2.31813 2.26789 0
M  V30 6600 H 638.09 3.73357 1.19779 0
M  V30 6601 H 639.58 3.56571 2.17363 0
M  V30 6602 N 640.017 0.126909 1.57088 0
M  V30 6603 C 640.949 -0.850973 2.12817 0
M  V30 6604 C 641.962 -1.22457 1.07276 0
M  V30 6605 O 643.151 -1.17215 1.34622 0
M  V30 6606 C 640.251 -2.15039 2.61938 0
M  V30 6607 C 639.424 -1.94726 3.91664 0
M  V30 6608 C 638.483 -3.0847 4.26301 0
M  V30 6609 O 637.509 -2.81038 4.94981 0
M  V30 6610 N 638.711 -4.35116 3.84259 0
M  V30 6611 H 641.476 -0.3748 2.97347 0
M  V30 6612 H 639.037 -0.0572793 1.61799 0
M  V30 6613 H 641.029 -2.90141 2.82135 0
M  V30 6614 H 639.599 -2.5398 1.82244 0
M  V30 6615 H 638.819 -1.03772 3.80296 0
M  V30 6616 H 640.107 -1.78469 4.76473 0
M  V30 6617 H 639.505 -4.60276 3.2888 0
M  V30 6618 H 638.062 -5.07064 4.09548 0
M  V30 6619 N 641.495 -1.56914 -0.146875 0
M  V30 6620 C 642.744 -1.82546 -0.857898 0
M  V30 6621 C 643.057 -0.708169 -1.8233 0
M  V30 6622 O 644.263 -0.850093 -2.57848 0
M  V30 6623 C 642.719 -3.23548 -1.57623 0
M  V30 6624 C 642.327 -4.43212 -0.653224 0
M  V30 6625 C 644.071 -3.58453 -2.27402 0
M  V30 6626 C 641.978 -5.75237 -1.37318 0
M  V30 6627 H 640.908 -0.680786 -0.32411 0
M  V30 6628 H 643.559 -1.83166 -0.110639 0
M  V30 6629 H 641.941 -3.17315 -2.36912 0
M  V30 6630 H 643.115 -4.60682 0.104452 0
M  V30 6631 H 641.43 -4.16351 -0.0638336 0
M  V30 6632 H 644.027 -4.54349 -2.81907 0
M  V30 6633 H 644.37 -2.84516 -3.03901 0
M  V30 6634 H 644.903 -3.66347 -1.55032 0
M  V30 6635 H 641.642 -6.52269 -0.650041 0
M  V30 6636 H 641.162 -5.61703 -2.10357 0
M  V30 6637 H 642.841 -6.18039 -1.91406 0
M  V30 6638 N 642.974 0.416227 -1.52004 0
M  V30 6639 C 643.904 1.51365 -1.77795 0
M  V30 6640 C 644.885 1.58059 -0.628601 0
M  V30 6641 O 646.07 1.73447 -0.873478 0
M  V30 6642 C 643.2 2.89256 -1.92219 0
M  V30 6643 C 642.154 2.97415 -3.0778 0
M  V30 6644 C 641.48 4.37492 -3.07417 0
M  V30 6645 C 642.78 2.69551 -4.47369 0
M  V30 6646 H 644.474 1.30033 -2.69688 0
M  V30 6647 H 642.02 0.624112 -1.29772 0
M  V30 6648 H 643.973 3.66008 -2.08845 0
M  V30 6649 H 642.697 3.11866 -0.969917 0
M  V30 6650 H 641.356 2.23107 -2.90893 0
M  V30 6651 H 641.004 4.571 -2.09925 0
M  V30 6652 H 640.704 4.43877 -3.85029 0
M  V30 6653 H 642.228 5.16188 -3.26162 0
M  V30 6654 H 643.642 3.36028 -4.64497 0
M  V30 6655 H 642.039 2.87321 -5.26846 0
M  V30 6656 H 643.109 1.65029 -4.55953 0
M  V30 6657 N 644.452 1.42507 0.673017 0
M  V30 6658 C 645.868 1.25472 0.986355 0
M  V30 6659 C 646.068 0.160181 2.00862 0
M  V30 6660 O 645.124 -0.467993 2.48125 0
M  V30 6661 C 646.437 2.61219 1.48947 0
M  V30 6662 C 647.985 2.68589 1.60715 0
M  V30 6663 C 648.46 4.04707 2.14422 0
M  V30 6664 N 649.951 4.0667 2.21752 0
M  V30 6665 C 650.686 5.0881 2.64386 0
M  V30 6666 N 650.182 6.21332 3.0646 0
M  V30 6667 N 651.975 4.96166 2.64151 0
M  V30 6668 H 644.126 2.124 -0.00378532 0
M  V30 6669 H 646.389 0.946046 0.0608367 0
M  V30 6670 H 646.095 3.42179 0.812812 0
M  V30 6671 H 645.969 2.85261 2.46791 0
M  V30 6672 H 648.356 1.87974 2.27486 0
M  V30 6673 H 648.437 2.48333 0.613552 0
M  V30 6674 H 648.081 4.8578 1.48258 0
M  V30 6675 H 648.011 4.22315 3.14575 0
M  V30 6676 H 650.502 3.25438 1.92089 0
M  V30 6677 H 650.815 6.95118 3.37684 0
M  V30 6678 H 649.16 6.24835 3.04313 0
M  V30 6679 H 652.351 4.07334 2.30644 0
M  V30 6680 H 652.524 5.759 2.97057 0
M  V30 6681 N 645.93 -0.909495 1.28709 0
M  V30 6682 C 647.207 -1.63865 1.06806 0
M  V30 6683 C 647.587 -2.07445 -0.391143 0
M  V30 6684 O 646.935 -1.82269 -1.37805 0
M  V30 6685 C 647.145 -2.82692 2.04661 0
M  V30 6686 C 648.493 -3.5361 2.35042 0
M  V30 6687 O 649.517 -2.92847 2.02779 0
M  V30 6688 O 648.376 -4.63131 2.90124 0
M  V30 6689 H 645.47 -0.719065 0.408502 0
M  V30 6690 H 648.016 -0.958424 1.40044 0
M  V30 6691 H 646.788 -2.47614 3.0299 0
M  V30 6692 H 646.411 -3.58426 1.72095 0
M  V30 6693 N 647.408 -1.11026 -1.11852 0
M  V30 6694 C 648.338 -0.786812 -2.19844 0
M  V30 6695 C 649.319 0.242935 -1.68356 0
M  V30 6696 O 650.504 0.107355 -1.93903 0
M  V30 6697 C 647.634 -0.224516 -3.46574 0
M  V30 6698 C 646.588 -1.18564 -4.1125 0
M  V30 6699 C 645.914 -0.484261 -5.32503 0
M  V30 6700 C 647.214 -2.53465 -4.56676 0
M  V30 6701 H 648.908 -1.68978 -2.47158 0
M  V30 6702 H 646.454 -0.813906 -1.18792 0
M  V30 6703 H 648.407 0.0139435 -4.21398 0
M  V30 6704 H 647.131 0.713722 -3.18706 0
M  V30 6705 H 645.79 -1.40966 -3.38414 0
M  V30 6706 H 645.438 0.458646 -5.00905 0
M  V30 6707 H 645.138 -1.12526 -5.76725 0
M  V30 6708 H 646.662 -0.254492 -6.10069 0
M  V30 6709 H 648.076 -2.35177 -5.22843 0
M  V30 6710 H 646.473 -3.13507 -5.11697 0
M  V30 6711 H 647.543 -3.13008 -3.70343 0
M  V30 6712 N 648.886 1.2938 -0.899927 0
M  V30 6713 C 650.134 1.95164 -0.524924 0
M  V30 6714 C 650.455 1.71292 0.931888 0
M  V30 6715 O 649.725 1.04481 1.65712 0
M  V30 6716 H 648.305 0.722133 -0.191135 0
M  V30 6717 H 650.967 1.57628 -1.14627 0
M  V30 6718 H 650.063 3.0397 -0.707711 0
M  V30 6719 N 650.364 0.662433 1.43002 0
M  V30 6720 C 651.612 0.179237 2.01304 0
M  V30 6721 C 651.933 -1.21428 1.52579 0
M  V30 6722 O 651.203 -1.81294 0.742252 0
M  V30 6723 H 649.783 0.0632725 0.744316 0
M  V30 6724 H 652.445 0.856169 1.75088 0
M  V30 6725 H 651.541 0.170957 3.11631 0
M  V30 6726 N 651.842 -1.52309 0.404946 0
M  V30 6727 C 653.091 -2.00952 -0.173529 0
M  V30 6728 C 653.404 -1.29512 -1.46581 0
M  V30 6729 O 654.61 -1.6895 -2.12528 0
M  V30 6730 C 653.066 -3.58097 -0.359801 0
M  V30 6731 C 652.674 -4.38449 0.920138 0
M  V30 6732 C 654.418 -4.14984 -0.893794 0
M  V30 6733 C 652.325 -5.87227 0.701285 0
M  V30 6734 H 651.255 -0.750871 -0.0686244 0
M  V30 6735 H 653.906 -1.75687 0.529749 0
M  V30 6736 H 652.288 -3.79675 -1.12531 0
M  V30 6737 H 653.462 -4.28633 1.69147 0
M  V30 6738 H 651.777 -3.92859 1.38024 0
M  V30 6739 H 654.374 -5.23813 -1.0735 0
M  V30 6740 H 654.717 -3.72072 -1.8673 0
M  V30 6741 H 655.25 -3.97358 -0.187453 0
M  V30 6742 H 651.989 -6.34491 1.64624 0
M  V30 6743 H 651.509 -5.99792 -0.0308288 0
M  V30 6744 H 653.188 -6.46096 0.341846 0
M  V30 6745 N 653.32 -0.135238 -1.57019 0
M  V30 6746 C 654.566 0.519563 -1.96032 0
M  V30 6747 C 654.899 1.65284 -1.01955 0
M  V30 6748 O 654.174 1.94408 -0.059727 0
M  V30 6749 C 654.457 1.0369 -3.44848 0
M  V30 6750 C 654.31 -0.0940754 -4.49702 0
M  V30 6751 C 655.629 1.92254 -3.95887 0
M  V30 6752 H 652.748 0.18739 -0.712779 0
M  V30 6753 H 655.39 -0.214086 -1.8879 0
M  V30 6754 H 653.54 1.66209 -3.5115 0
M  V30 6755 H 655.212 -0.73 -4.55487 0
M  V30 6756 H 653.455 -0.754924 -4.27181 0
M  V30 6757 H 654.126 0.309419 -5.51132 0
M  V30 6758 H 656.602 1.39581 -3.9199 0
M  V30 6759 H 655.478 2.25364 -5.00502 0
M  V30 6760 H 655.739 2.85513 -3.37543 0
M  V30 6761 N 654.798 1.5699 0.138552 0
M  V30 6762 C 655.728 2.01933 1.17241 0
M  V30 6763 C 656.709 0.90033 1.44319 0
M  V30 6764 O 657.894 1.16872 1.55095 0
M  V30 6765 C 655.024 2.40711 2.50351 0
M  V30 6766 C 653.978 3.55874 2.37776 0
M  V30 6767 C 653.304 3.80491 3.75674 0
M  V30 6768 C 654.604 4.8826 1.85472 0
M  V30 6769 H 656.298 2.88551 0.798672 0
M  V30 6770 H 653.844 1.3882 0.382743 0
M  V30 6771 H 655.797 2.70754 3.22909 0
M  V30 6772 H 654.521 1.5104 2.89576 0
M  V30 6773 H 653.18 3.2601 1.67669 0
M  V30 6774 H 652.828 2.88057 4.12349 0
M  V30 6775 H 652.528 4.57998 3.68119 0
M  V30 6776 H 654.052 4.12967 4.49767 0
M  V30 6777 H 655.466 5.16965 2.4783 0
M  V30 6778 H 653.863 5.69631 1.88787 0
M  V30 6779 H 654.933 4.78071 0.810935 0
M  V30 6780 N 656.276 -0.40816 1.52223 0
M  V30 6781 C 657.239 -1.48 1.7501 0
M  V30 6782 C 658.239 -1.48367 0.619996 0
M  V30 6783 O 659.429 -1.49874 0.887881 0
M  V30 6784 C 656.561 -2.87403 1.83336 0
M  V30 6785 H 657.754 -1.29086 2.70697 0
M  V30 6786 H 655.307 -0.638715 1.42654 0
M  V30 6787 H 656.042 -3.11686 0.895677 0
M  V30 6788 H 655.827 -2.8854 2.65494 0
M  V30 6789 H 657.317 -3.65103 2.02705 0
M  V30 6790 N 657.755 -1.42862 -0.66545 0
M  V30 6791 C 658.703 -1.47319 -1.8 0
M  V30 6792 C 659.697 -0.347963 -1.65788 0
M  V30 6793 O 660.903 -0.521406 -1.72283 0
M  V30 6794 H 657.278 -0.461588 -0.593667 0
M  V30 6795 H 659.249 -2.42876 -1.7336 0
M  V30 6796 C 657.998 -1.40152 -3.18203 0
M  V30 6797 H 657.321 -2.26035 -3.2977 0
M  V30 6798 H 658.761 -1.47331 -3.9758 0
M  V30 6799 C 657.22 -0.117493 -3.36695 0
M  V30 6800 O 657.75 0.826058 -3.93115 0
M  V30 6801 N 655.956 -0.0316218 -2.90583 0
M  V30 6802 H 655.503 -0.800247 -2.44855 0
M  V30 6803 H 655.461 0.826835 -3.03333 0
M  V30 6804 N 659.233 0.902656 -1.29189 0
M  V30 6805 C 660.196 1.98797 -1.14071 0
M  V30 6806 C 661.196 1.60615 -0.0770549 0
M  V30 6807 O 662.386 1.71165 -0.323753 0
M  V30 6808 C 659.518 3.32688 -0.743739 0
M  V30 6809 H 660.711 2.13637 -2.10473 0
M  V30 6810 H 658.264 1.08678 -1.12334 0
M  V30 6811 H 658.999 3.23549 0.220554 0
M  V30 6812 H 658.784 3.61765 -1.51223 0
M  V30 6813 H 660.274 4.12337 -0.660935 0
M  V30 6814 N 660.711 1.11618 1.11262 0
M  V30 6815 C 661.951 0.876154 1.8467 0
M  V30 6816 C 662.315 -0.587551 1.82789 0
M  V30 6817 O 663.516 -0.944411 2.51663 0
M  V30 6818 C 661.787 1.42461 3.2778 0
M  V30 6819 S 663.346 1.32185 4.18417 0
M  V30 6820 H 660.164 0.31628 0.636779 0
M  V30 6821 H 662.766 1.42404 1.33946 0
M  V30 6822 H 661.47 2.48367 3.26714 0
M  V30 6823 H 661.001 0.873844 3.83572 0
M  V30 6824 H 663.016 0.287607 4.95366 0
M  V30 6825 N 662.189 -1.289 0.906776 0
M  V30 6826 C 663.437 -1.94883 0.535266 0
M  V30 6827 C 663.758 -1.71784 -0.922791 0
M  V30 6828 O 663.028 -1.05359 -1.65156 0
M  V30 6829 H 661.608 -0.721109 0.194962 0
M  V30 6830 H 664.27 -1.57018 1.15461 0
M  V30 6831 H 663.366 -3.03591 0.723821 0
M  V30 6832 N 663.667 -0.670007 -1.42649 0
M  V30 6833 C 665.078 -0.268118 -1.84765 0
M  V30 6834 C 665.429 1.18877 -1.56086 0
M  V30 6835 O 664.554 1.90947 -1.01825 0
M  V30 6836 C 665.149 -0.47984 -3.35385 0
M  V30 6837 C 663.708 -0.132116 -3.76168 0
M  V30 6838 C 662.855 -0.774611 -2.66261 0
M  V30 6839 H 665.806 -0.872509 -1.32563 0
M  V30 6840 H 665.827 0.269522 -3.79544 0
M  V30 6841 H 665.339 -1.54026 -3.56227 0
M  V30 6842 H 663.44 0.92505 -3.60934 0
M  V30 6843 H 663.553 -0.569294 -4.75706 0
M  V30 6844 H 661.917 -0.206353 -2.53863 0
M  V30 6845 H 662.7 -1.83839 -2.89928 0
M  V30 6846 N 665.145 1.52092 -0.413018 0
M  V30 6847 C 666.385 2.03765 0.160975 0
M  V30 6848 C 666.749 1.29174 1.4205 0
M  V30 6849 O 667.95 1.71093 2.07318 0
M  V30 6850 C 666.221 3.55167 0.398871 0
M  V30 6851 S 667.78 4.28619 0.939755 0
M  V30 6852 H 664.598 0.709685 0.0432281 0
M  V30 6853 H 667.2 1.87102 -0.566831 0
M  V30 6854 H 665.904 4.07034 -0.524544 0
M  V30 6855 H 665.435 3.7608 1.15444 0
M  V30 6856 H 667.45 4.43773 2.21991 0
M  V30 6857 N 666.623 0.143563 1.56945 0
M  V30 6858 C 667.872 -0.50835 1.95189 0
M  V30 6859 C 668.185 -1.66239 1.03073 0
M  V30 6860 O 669.391 -2.3787 1.30882 0
M  V30 6861 C 667.847 -0.955735 3.46978 0
M  V30 6862 C 667.455 0.171183 4.47673 0
M  V30 6863 C 669.199 -1.57763 3.94095 0
M  V30 6864 C 667.106 -0.294279 5.90667 0
M  V30 6865 H 666.036 -0.193679 0.728701 0
M  V30 6866 H 668.687 0.227357 1.82086 0
M  V30 6867 H 667.069 -1.7466 3.55401 0
M  V30 6868 H 668.243 0.948049 4.50942 0
M  V30 6869 H 666.558 0.701273 4.10452 0
M  V30 6870 H 669.155 -1.93745 4.98364 0
M  V30 6871 H 669.498 -2.46531 3.35452 0
M  V30 6872 H 670.031 -0.851728 3.88575 0
M  V30 6873 H 666.77 0.557939 6.53121 0
M  V30 6874 H 666.29 -1.0371 5.90766 0
M  V30 6875 H 667.969 -0.747426 6.42668 0
M  V30 6876 N 668.101 -1.57061 -0.130224 0
M  V30 6877 C 669.349 -1.83893 -0.838313 0
M  V30 6878 C 669.67 -0.727046 -1.80939 0
M  V30 6879 O 668.94 0.249927 -1.94299 0
M  V30 6880 H 667.52 -0.67846 -0.312573 0
M  V30 6881 H 670.182 -1.94529 -0.120224 0
M  V30 6882 H 669.278 -2.79419 -1.39038 0
M  V30 6883 N 669.579 0.400081 -1.52437 0
M  V30 6884 C 670.511 1.50729 -1.72666 0
M  V30 6885 C 671.524 1.51058 -0.607075 0
M  V30 6886 O 672.713 1.5516 -0.88248 0
M  V30 6887 C 669.813 2.89604 -1.76019 0
M  V30 6888 C 668.986 3.13365 -3.05157 0
M  V30 6889 C 668.045 4.32163 -3.00203 0
M  V30 6890 O 667.071 4.29004 -3.74092 0
M  V30 6891 N 668.273 5.3776 -2.18619 0
M  V30 6892 H 671.038 1.33767 -2.68191 0
M  V30 6893 H 668.599 0.58948 -1.50787 0
M  V30 6894 H 670.591 3.67159 -1.70225 0
M  V30 6895 H 669.161 2.99979 -0.879284 0
M  V30 6896 H 668.381 2.23774 -3.24529 0
M  V30 6897 H 669.669 3.26089 -3.90568 0
M  V30 6898 H 669.067 5.43177 -1.58035 0
M  V30 6899 H 667.624 6.14023 -2.18674 0
M  V30 6900 N 671.057 1.43213 0.657864 0
M  V30 6901 C 672.303 1.45795 1.41829 0
M  V30 6902 C 672.658 0.0792176 1.92237 0
M  V30 6903 O 671.951 -0.901406 1.69072 0
M  V30 6904 C 672.145 2.43143 2.61947 0
M  V30 6905 C 671.974 3.90345 2.23295 0
M  V30 6906 C 670.744 4.58749 2.11843 0
M  V30 6907 C 672.942 4.80308 1.83873 0
M  V30 6908 N 670.924 5.90898 1.66473 0
M  V30 6909 C 672.295 6.01693 1.49549 0
M  V30 6910 C 674.35 4.67609 1.71015 0
M  V30 6911 C 673.053 7.11792 1.03657 0
M  V30 6912 C 675.079 5.77707 1.26527 0
M  V30 6913 C 674.441 6.98215 0.931379 0
M  V30 6914 H 670.54 0.588628 0.514822 0
M  V30 6915 H 673.124 1.7936 0.7575 0
M  V30 6916 H 671.295 2.11612 3.25692 0
M  V30 6917 H 673.027 2.36193 3.28626 0
M  V30 6918 H 669.782 4.1319 2.31453 0
M  V30 6919 H 670.206 6.61034 1.46163 0
M  V30 6920 H 674.848 3.74902 1.95469 0
M  V30 6921 H 672.566 8.04332 0.779502 0
M  V30 6922 H 676.152 5.69899 1.17074 0
M  V30 6923 H 675.032 7.81959 0.592379 0
M  V30 6924 N 672.536 -0.895792 1.29666 0
M  V30 6925 C 673.813 -1.62723 1.08538 0
M  V30 6926 C 674.193 -2.07848 -0.369119 0
M  V30 6927 O 673.541 -1.8372 -1.35864 0
M  V30 6928 C 673.751 -2.80505 2.07648 0
M  V30 6929 C 675.099 -3.51098 2.3878 0
M  V30 6930 O 676.123 -2.90679 2.05874 0
M  V30 6931 O 674.982 -4.60028 2.9502 0
M  V30 6932 H 672.076 -0.714692 0.416106 0
M  V30 6933 H 674.622 -0.943517 1.41053 0
M  V30 6934 H 673.394 -2.44386 3.05599 0
M  V30 6935 H 673.017 -3.5658 1.75887 0
M  V30 6936 N 674.014 -1.12206 -1.10668 0
M  V30 6937 C 675.43 -0.857619 -1.346 0
M  V30 6938 C 675.63 0.513542 -1.94846 0
M  V30 6939 O 674.686 1.26273 -2.18658 0
M  V30 6940 C 675.999 -1.97212 -2.26998 0
M  V30 6941 C 677.547 -2.00272 -2.40542 0
M  V30 6942 C 678.022 -3.10948 -3.36267 0
M  V30 6943 N 679.513 -3.10375 -3.43834 0
M  V30 6944 C 680.248 -3.92651 -4.17867 0
M  V30 6945 N 679.744 -4.84911 -4.94807 0
M  V30 6946 N 681.537 -3.80798 -4.1346 0
M  V30 6947 H 673.688 -2.00558 -0.699306 0
M  V30 6948 H 675.951 -0.872612 -0.370477 0
M  V30 6949 H 675.657 -2.96002 -1.89936 0
M  V30 6950 H 675.531 -1.87521 -3.27286 0
M  V30 6951 H 677.918 -1.02103 -2.76874 0
M  V30 6952 H 677.999 -2.14037 -1.40077 0
M  V30 6953 H 677.643 -4.09348 -3.00661 0
M  V30 6954 H 677.573 -2.94421 -4.36605 0
M  V30 6955 H 680.064 -2.43536 -2.88961 0
M  V30 6956 H 680.377 -5.44207 -5.48688 0
M  V30 6957 H 678.722 -4.88926 -4.93939 0
M  V30 6958 H 681.913 -3.08058 -3.52445 0
M  V30 6959 H 682.086 -4.4515 -4.70898 0
M  V30 6960 N 675.492 1.28418 -0.913599 0
M  V30 6961 C 676.439 2.27301 -0.400373 0
M  V30 6962 C 677.409 1.57582 0.52509 0
M  V30 6963 O 678.594 1.85482 0.447318 0
M  V30 6964 C 675.734 3.43284 0.35361 0
M  V30 6965 C 674.847 4.27752 -0.604341 0
M  V30 6966 C 673.982 5.30934 0.168075 0
M  V30 6967 C 673.021 6.07065 -0.783499 0
M  V30 6968 N 672.158 7.02086 -0.0446112 0
M  V30 6969 H 676.998 2.70579 -1.24865 0
M  V30 6970 H 674.535 1.33067 -0.627028 0
M  V30 6971 H 676.493 4.09322 0.806945 0
M  V30 6972 H 675.123 3.00997 1.16623 0
M  V30 6973 H 674.175 3.61759 -1.17621 0
M  V30 6974 H 675.487 4.80682 -1.33216 0
M  V30 6975 H 674.641 6.02855 0.681979 0
M  V30 6976 H 673.38 4.78771 0.928947 0
M  V30 6977 H 672.385 5.33995 -1.30878 0
M  V30 6978 H 673.61 6.61317 -1.54392 0
M  V30 6979 H 671.556 6.52273 0.698272 0
M  V30 6980 H 671.473 7.52637 -0.712258 0
M  V30 6981 H 672.741 7.78205 0.449102 0
M  V30 6982 N 676.97 0.677563 1.42291 0
M  V30 6983 C 678.247 0.129803 1.95169 0
M  V30 6984 C 678.627 -1.35605 1.61786 0
M  V30 6985 O 677.975 -2.09361 0.915444 0
M  V30 6986 C 678.185 0.401889 3.46678 0
M  V30 6987 C 679.533 0.319889 4.23393 0
M  V30 6988 O 680.557 0.33579 3.54614 0
M  V30 6989 O 679.416 0.264459 5.4586 0
M  V30 6990 H 676.51 0.00447433 0.826988 0
M  V30 6991 H 679.056 0.752483 1.52105 0
M  V30 6992 H 677.828 1.43108 3.64192 0
M  V30 6993 H 677.451 -0.252662 3.96796 0
M  V30 6994 N 678.448 -1.51871 0.421078 0
M  V30 6995 C 679.697 -2.01125 -0.152206 0
M  V30 6996 C 680.01 -1.3106 -1.45199 0
M  V30 6997 O 681.216 -1.71195 -2.10724 0
M  V30 6998 C 679.672 -3.58458 -0.3218 0
M  V30 6999 C 679.28 -4.37448 0.96659 0
M  V30 7000 C 681.024 -4.15908 -0.84973 0
M  V30 7001 C 678.931 -5.86451 0.763529 0
M  V30 7002 H 677.861 -0.751556 -0.0606565 0
M  V30 7003 H 680.512 -1.75115 0.548354 0
M  V30 7004 H 678.894 -3.80847 -1.08498 0
M  V30 7005 H 680.068 -4.26814 1.73684 0
M  V30 7006 H 678.383 -3.91373 1.42183 0
M  V30 7007 H 680.98 -5.24922 -1.01788 0
M  V30 7008 H 681.323 -3.74031 -1.82774 0
M  V30 7009 H 681.856 -3.97535 -0.145297 0
M  V30 7010 H 678.595 -6.3271 1.71344 0
M  V30 7011 H 678.115 -5.99791 0.0327889 0
M  V30 7012 H 679.794 -6.45697 0.410354 0
M  V30 7013 N 679.926 -0.151884 -1.56866 0
M  V30 7014 C 680.873 0.785936 -2.17006 0
M  V30 7015 C 681.843 1.2407 -1.10435 0
M  V30 7016 O 683.028 1.31235 -1.38499 0
M  V30 7017 C 680.168 2.01771 -2.79969 0
M  V30 7018 C 679.281 1.6083 -4.00946 0
M  V30 7019 C 678.416 2.79224 -4.51893 0
M  V30 7020 C 677.455 2.3468 -5.65324 0
M  V30 7021 N 676.592 3.461 -6.10867 0
M  V30 7022 H 681.432 0.266286 -2.96808 0
M  V30 7023 H 678.969 0.11972 -1.46612 0
M  V30 7024 H 680.927 2.73989 -3.14621 0
M  V30 7025 H 679.557 2.51139 -2.02803 0
M  V30 7026 H 678.609 0.783592 -3.72242 0
M  V30 7027 H 679.921 1.24119 -4.83111 0
M  V30 7028 H 679.075 3.59625 -4.88625 0
M  V30 7029 H 677.814 3.19183 -3.68746 0
M  V30 7030 H 676.819 1.52721 -5.28163 0
M  V30 7031 H 678.044 1.95801 -6.5026 0
M  V30 7032 H 675.99 3.85671 -5.30654 0
M  V30 7033 H 675.907 3.1342 -6.87971 0
M  V30 7034 H 677.175 4.26844 -6.52246 0
M  V30 7035 N 681.404 1.57128 0.121893 0
M  V30 7036 C 682.351 2.0013 1.14964 0
M  V30 7037 C 683.321 0.872959 1.4131 0
M  V30 7038 O 684.506 1.13696 1.53225 0
M  V30 7039 C 681.646 2.40824 2.4718 0
M  V30 7040 C 680.759 3.67061 2.27794 0
M  V30 7041 C 679.894 3.96749 3.53219 0
M  V30 7042 C 678.933 5.16178 3.28978 0
M  V30 7043 N 678.07 5.41751 4.46599 0
M  V30 7044 H 682.91 2.8772 0.775947 0
M  V30 7045 H 680.447 1.42328 0.371652 0
M  V30 7046 H 682.405 2.62454 3.24305 0
M  V30 7047 H 681.035 1.56279 2.82448 0
M  V30 7048 H 680.087 3.53063 1.416 0
M  V30 7049 H 681.399 4.5434 2.05857 0
M  V30 7050 H 680.553 4.19012 4.38764 0
M  V30 7051 H 679.292 3.07941 3.78185 0
M  V30 7052 H 678.297 4.93762 2.41824 0
M  V30 7053 H 679.522 6.06561 3.05386 0
M  V30 7054 H 677.468 4.55899 4.71691 0
M  V30 7055 H 677.385 6.23347 4.27756 0
M  V30 7056 H 678.653 5.68531 5.33285 0
M  V30 7057 N 682.882 -0.391992 1.52647 0
M  V30 7058 C 684.13 -1.13507 1.67214 0
M  V30 7059 C 684.451 -1.90575 0.41304 0
M  V30 7060 O 683.721 -1.87348 -0.572498 0
M  V30 7061 H 682.301 -0.422013 0.616372 0
M  V30 7062 H 684.963 -0.44502 1.89751 0
M  V30 7063 H 684.059 -1.83964 2.52118 0
M  V30 7064 N 684.36 -1.4356 -0.65026 0
M  V30 7065 C 685.27 -1.514 -1.79207 0
M  V30 7066 C 686.286 -0.400895 -1.69319 0
M  V30 7067 O 687.462 -0.655458 -1.90436 0
M  V30 7068 C 684.527 -1.43737 -3.155 0
M  V30 7069 C 683.588 -2.65743 -3.37163 0
M  V30 7070 C 682.821 -2.58436 -4.66954 0
M  V30 7071 O 683.044 -1.63374 -5.46503 0
M  V30 7072 O 681.978 -3.48984 -4.90402 0
M  V30 7073 H 685.804 -2.47825 -1.75547 0
M  V30 7074 H 683.389 -1.25594 -0.809111 0
M  V30 7075 H 685.271 -1.41916 -3.96784 0
M  V30 7076 H 683.946 -0.504488 -3.19745 0
M  V30 7077 H 682.853 -2.73136 -2.55632 0
M  V30 7078 H 684.186 -3.58014 -3.37768 0
M  V30 7079 N 685.838 0.888903 -1.30139 0
M  V30 7080 C 686.785 1.99422 -1.16188 0
M  V30 7081 C 687.755 1.66017 -0.0523869 0
M  V30 7082 O 688.94 1.89506 -0.221864 0
M  V30 7083 C 686.08 3.34325 -0.855612 0
M  V30 7084 C 685.193 3.80445 -2.0466 0
M  V30 7085 C 684.328 5.03975 -1.67876 0
M  V30 7086 C 683.367 5.42492 -2.83493 0
M  V30 7087 N 682.504 6.57206 -2.47032 0
M  V30 7088 H 687.344 2.10687 -2.10749 0
M  V30 7089 H 684.881 1.03165 -1.04859 0
M  V30 7090 H 686.839 4.11968 -0.658681 0
M  V30 7091 H 685.469 3.22756 0.0531155 0
M  V30 7092 H 684.521 2.98745 -2.3549 0
M  V30 7093 H 685.833 4.04933 -2.91257 0
M  V30 7094 H 684.987 5.89232 -1.44535 0
M  V30 7095 H 683.726 4.8135 -0.784431 0
M  V30 7096 H 682.731 4.55764 -3.07505 0
M  V30 7097 H 683.956 5.67093 -3.73607 0
M  V30 7098 H 681.902 6.36164 -1.601 0
M  V30 7099 H 681.819 6.81543 -3.27161 0
M  V30 7100 H 683.087 7.45704 -2.27038 0
M  V30 7101 N 687.317 1.12792 1.10072 0
M  V30 7102 C 688.265 0.794523 2.18609 0
M  V30 7103 C 689.259 -0.220271 1.67962 0
M  V30 7104 O 690.465 -0.0780938 1.79831 0
M  V30 7105 H 686.84 0.239123 0.712969 0
M  V30 7106 H 688.811 1.71823 2.43966 0
M  V30 7107 C 687.56 0.269548 3.46654 0
M  V30 7108 H 686.883 1.04171 3.8599 0
M  V30 7109 H 688.323 0.0746242 4.23934 0
M  V30 7110 C 686.782 -1.00333 3.21613 0
M  V30 7111 O 687.312 -2.08042 3.4363 0
M  V30 7112 N 685.518 -0.931763 2.75257 0
M  V30 7113 H 685.065 -0.0551197 2.57541 0
M  V30 7114 H 685.023 -1.78405 2.58881 0
M  V30 7115 N 688.795 -1.27931 0.920396 0
M  V30 7116 C 690.023 -1.98805 0.573087 0
M  V30 7117 C 690.438 -1.68724 -0.847201 0
M  V30 7118 O 689.795 -0.943699 -1.56207 0
M  V30 7119 C 689.846 -3.52971 0.780633 0
M  V30 7120 O 689.567 -3.81994 2.14504 0
M  V30 7121 C 691.068 -4.411 0.44105 0
M  V30 7122 H 688.288 -0.634651 0.21785 0
M  V30 7123 H 690.832 -1.62965 1.23542 0
M  V30 7124 H 688.987 -3.87048 0.165204 0
M  V30 7125 H 689.401 -4.76609 2.18962 0
M  V30 7126 H 690.875 -5.48312 0.637006 0
M  V30 7127 H 691.352 -4.34758 -0.62306 0
M  V30 7128 H 691.958 -4.12532 1.0343 0
M  V30 7129 N 690.273 -0.685099 -1.4193 0
M  V30 7130 C 691.522 -0.208816 -2.00616 0
M  V30 7131 C 691.835 1.19506 -1.54847 0
M  V30 7132 O 693.041 1.76826 -2.06021 0
M  V30 7133 C 691.497 -0.322446 -3.58453 0
M  V30 7134 C 691.105 -1.73102 -4.13206 0
M  V30 7135 C 692.849 0.0945979 -4.24395 0
M  V30 7136 C 690.756 -1.79687 -5.63442 0
M  V30 7137 H 689.686 -0.0743092 -0.750329 0
M  V30 7138 H 692.337 -0.851778 -1.62533 0
M  V30 7139 H 690.719 0.388588 -3.94089 0
M  V30 7140 H 691.893 -2.46997 -3.8901 0
M  V30 7141 H 690.208 -2.09682 -3.59753 0
M  V30 7142 H 692.805 0.0656937 -5.3466 0
M  V30 7143 H 693.148 1.1316 -4.00625 0
M  V30 7144 H 693.681 -0.56579 -3.93756 0
M  V30 7145 H 690.42 -2.81404 -5.92024 0
M  V30 7146 H 689.94 -1.10162 -5.89597 0
M  V30 7147 H 691.619 -1.55498 -6.28036 0
M  V30 7148 N 691.751 1.51645 -0.429126 0
M  V30 7149 C 692.997 2.02314 0.140286 0
M  V30 7150 C 693.33 1.31314 1.43074 0
M  V30 7151 O 692.605 0.425531 1.89788 0
M  V30 7152 C 692.888 3.5822 0.36749 0
M  V30 7153 C 692.741 4.39846 -0.941039 0
M  V30 7154 C 694.06 4.25055 1.14089 0
M  V30 7155 H 691.179 0.735335 0.0495112 0
M  V30 7156 H 693.821 1.81358 -0.566514 0
M  V30 7157 H 691.971 3.76207 0.969556 0
M  V30 7158 H 693.643 4.33527 -1.57646 0
M  V30 7159 H 691.886 4.05259 -1.54751 0
M  V30 7160 H 692.557 5.47069 -0.73621 0
M  V30 7161 H 695.033 4.11288 0.630986 0
M  V30 7162 H 693.909 5.34038 1.26863 0
M  V30 7163 H 694.17 3.85358 2.16683 0
M  V30 7164 N 693.229 0.160201 1.56784 0
M  V30 7165 C 694.457 -0.494165 2.00912 0
M  V30 7166 C 694.872 -1.57548 1.04038 0
M  V30 7167 O 694.229 -1.82457 0.0394581 0
M  V30 7168 C 694.28 -1.08271 3.44905 0
M  V30 7169 O 694.001 -0.0445704 4.38077 0
M  V30 7170 C 695.502 -1.8164 4.04378 0
M  V30 7171 H 692.722 -0.127498 0.658776 0
M  V30 7172 H 695.266 0.258665 2.02858 0
M  V30 7173 H 693.421 -1.78609 3.4377 0
M  V30 7174 H 693.835 -0.477544 5.22322 0
M  V30 7175 H 695.309 -2.18094 5.07089 0
M  V30 7176 H 695.786 -2.70727 3.45838 0
M  V30 7177 H 696.392 -1.15969 4.09184 0
M  V30 7178 N 694.707 -1.5719 -0.113559 0
M  V30 7179 C 695.932 -1.89702 -0.838336 0
M  V30 7180 C 696.357 -0.752679 -1.72384 0
M  V30 7181 O 695.715 0.296575 -1.78858 0
M  V30 7182 C 695.763 -3.20989 -1.64312 0
M  V30 7183 O 694.867 -3.07278 -2.75053 0
M  V30 7184 H 694.208 -0.622339 -0.231496 0
M  V30 7185 H 696.738 -2.04382 -0.0943228 0
M  V30 7186 H 696.748 -3.53843 -2.03123 0
M  V30 7187 H 695.423 -4.03869 -0.993119 0
M  V30 7188 H 694 -2.85901 -2.39406 0
M  V30 7189 N 696.185 0.383891 -1.52853 0
M  V30 7190 C 697.415 1.14783 -1.7178 0
M  V30 7191 C 697.823 1.84055 -0.438211 0
M  V30 7192 O 697.166 1.73713 0.597465 0
M  V30 7193 C 697.228 2.23543 -2.81547 0
M  V30 7194 C 696.892 1.74195 -4.22499 0
M  V30 7195 C 697.889 1.21591 -5.05481 0
M  V30 7196 C 695.574 1.80262 -4.6884 0
M  V30 7197 C 697.568 0.757104 -6.32888 0
M  V30 7198 C 695.255 1.33993 -5.96229 0
M  V30 7199 C 696.253 0.818049 -6.78083 0
M  V30 7200 O 695.941 0.362123 -8.03084 0
M  V30 7201 H 695.673 0.349908 -0.578395 0
M  V30 7202 H 698.227 0.454377 -2.00311 0
M  V30 7203 H 696.457 2.96328 -2.48449 0
M  V30 7204 H 698.146 2.8519 -2.88828 0
M  V30 7205 H 698.912 1.16257 -4.7086 0
M  V30 7206 H 694.791 2.19825 -4.05213 0
M  V30 7207 H 698.335 0.34908 -6.96726 0
M  V30 7208 H 694.232 1.39015 -6.30353 0
M  V30 7209 H 695 0.483134 -8.17073 0
M  V30 7210 N 697.663 1.43903 0.642637 0
M  V30 7211 C 698.611 1.50164 1.77634 0
M  V30 7212 C 699.605 0.374294 1.65213 0
M  V30 7213 O 700.811 0.548748 1.71431 0
M  V30 7214 H 697.186 0.470974 0.586249 0
M  V30 7215 H 699.157 2.45603 1.69474 0
M  V30 7216 C 697.906 1.45196 3.15933 0
M  V30 7217 H 697.229 2.31253 3.26132 0
M  V30 7218 H 698.669 1.53638 3.95185 0
M  V30 7219 C 697.128 0.171043 3.36466 0
M  V30 7220 O 697.658 -0.763413 3.94379 0
M  V30 7221 N 695.864 0.077847 2.90496 0
M  V30 7222 H 695.411 0.8391 2.43551 0
M  V30 7223 H 695.369 -0.778473 3.0461 0
M  V30 7224 N 699.141 -0.881989 1.30609 0
M  V30 7225 C 700.557 -1.16576 1.09005 0
M  V30 7226 C 700.757 -2.00961 -0.14727 0
M  V30 7227 O 699.813 -2.38117 -0.840036 0
M  V30 7228 C 701.126 -1.86954 2.35518 0
M  V30 7229 C 702.674 -1.99706 2.41011 0
M  V30 7230 C 703.149 -2.73497 3.67374 0
M  V30 7231 N 704.64 -2.8104 3.68199 0
M  V30 7232 C 705.375 -3.38718 4.62664 0
M  V30 7233 N 704.871 -3.97421 5.67475 0
M  V30 7234 N 706.664 -3.36561 4.50203 0
M  V30 7235 H 698.815 -0.319398 2.09985 0
M  V30 7236 H 701.078 -0.204058 0.925778 0
M  V30 7237 H 700.784 -1.32393 3.2583 0
M  V30 7238 H 700.658 -2.87317 2.44395 0
M  V30 7239 H 703.045 -2.53436 1.51176 0
M  V30 7240 H 703.126 -0.984218 2.36108 0
M  V30 7241 H 702.77 -2.20438 4.57569 0
M  V30 7242 H 702.7 -3.75163 3.6954 0
M  V30 7243 H 705.191 -2.39365 2.92426 0
M  V30 7244 H 705.504 -4.39507 6.35652 0
M  V30 7245 H 703.849 -3.95832 5.71264 0
M  V30 7246 H 707.04 -2.8993 3.67503 0
M  V30 7247 H 707.213 -3.81215 5.24003 0
M  V30 7248 N 700.619 -1.13374 -1.09472 0
M  V30 7249 C 701.567 -0.806105 -2.18185 0
M  V30 7250 C 702.561 0.21136 -1.68076 0
M  V30 7251 O 703.767 0.0685558 -1.79869 0
M  V30 7252 H 700.142 -0.242901 -0.71169 0
M  V30 7253 H 702.113 -1.73115 -2.43051 0
M  V30 7254 C 700.862 -0.287928 -3.46506 0
M  V30 7255 H 700.185 -1.06217 -3.85432 0
M  V30 7256 H 701.625 -0.0971054 -4.23889 0
M  V30 7257 C 700.084 0.986256 -3.22141 0
M  V30 7258 O 700.614 2.06217 -3.44728 0
M  V30 7259 N 698.82 0.917153 -2.75747 0
M  V30 7260 H 698.367 0.0414609 -2.57567 0
M  V30 7261 H 698.325 1.77029 -2.59823 0
M  V30 7262 N 702.098 1.27442 -0.927168 0
M  V30 7263 C 703.345 1.94391 -0.567324 0
M  V30 7264 C 703.673 1.72875 0.891321 0
M  V30 7265 O 702.928 1.05071 1.65102 0
M  V30 7266 C 703.227 3.47413 -0.838994 0
M  V30 7267 C 702.893 3.89049 -2.2793 0
M  V30 7268 C 701.555 4.00127 -2.67305 0
M  V30 7269 C 703.907 4.10154 -3.21595 0
M  V30 7270 C 701.235 4.29697 -3.99471 0
M  V30 7271 C 703.587 4.41208 -4.53341 0
M  V30 7272 C 702.251 4.50499 -4.92551 0
M  V30 7273 H 701.521 0.711325 -0.207598 0
M  V30 7274 H 704.168 1.51523 -1.17103 0
M  V30 7275 H 702.473 3.91503 -0.152609 0
M  V30 7276 H 704.17 3.97354 -0.53955 0
M  V30 7277 H 700.76 3.80962 -1.96381 0
M  V30 7278 H 704.944 4.01036 -2.92377 0
M  V30 7279 H 700.2 4.35099 -4.29533 0
M  V30 7280 H 704.374 4.56486 -5.25922 0
M  V30 7281 H 702.001 4.73167 -5.94994 0
M  V30 7282 N 703.576 0.692616 1.41565 0
M  V30 7283 C 704.804 0.231279 2.05603 0
M  V30 7284 C 705.219 -1.11837 1.52111 0
M  V30 7285 O 704.576 -1.6983 0.66813 0
M  V30 7286 C 704.627 0.177125 3.61066 0
M  V30 7287 O 704.348 1.47346 4.12578 0
M  V30 7288 C 705.849 -0.30556 4.42246 0
M  V30 7289 H 703.069 0.108238 0.662213 0
M  V30 7290 H 705.613 0.944369 1.81389 0
M  V30 7291 H 703.768 -0.486769 3.8433 0
M  V30 7292 H 704.182 1.35861 5.06599 0
M  V30 7293 H 705.656 -0.29233 5.51225 0
M  V30 7294 H 706.133 -1.34393 4.18133 0
M  V30 7295 H 706.739 0.327229 4.24039 0
M  V30 7296 N 705.054 -1.51416 0.437162 0
M  V30 7297 C 706.302 -2.01687 -0.129108 0
M  V30 7298 C 706.623 -1.32329 -1.43227 0
M  V30 7299 O 705.893 -0.457796 -1.90476 0
M  V30 7300 H 704.473 -0.745277 -0.0507023 0
M  V30 7301 H 707.135 -1.86075 0.579828 0
M  V30 7302 H 706.231 -3.10605 -0.305141 0
M  V30 7303 N 706.532 -0.168513 -1.56696 0
M  V30 7304 C 707.948 0.187686 -1.58493 0
M  V30 7305 C 708.148 1.63063 -1.18375 0
M  V30 7306 O 707.204 2.36142 -0.894042 0
M  V30 7307 C 708.517 -0.0905858 -3.00564 0
M  V30 7308 C 710.065 -0.028575 -3.12987 0
M  V30 7309 C 710.54 -0.279799 -4.57145 0
M  V30 7310 N 712.031 -0.227476 -4.62641 0
M  V30 7311 C 712.766 -0.396073 -5.7203 0
M  V30 7312 N 712.262 -0.623572 -6.89988 0
M  V30 7313 N 714.055 -0.332173 -5.61118 0
M  V30 7314 H 706.206 -1.11042 -1.81062 0
M  V30 7315 H 708.469 -0.441235 -0.839056 0
M  V30 7316 H 708.175 -1.09006 -3.34381 0
M  V30 7317 H 708.049 0.619078 -3.72085 0
M  V30 7318 H 710.436 0.961471 -2.78998 0
M  V30 7319 H 710.517 -0.770905 -2.43907 0
M  V30 7320 H 710.161 -1.26704 -4.91842 0
M  V30 7321 H 710.091 0.48311 -5.24379 0
M  V30 7322 H 712.582 -0.0571723 -3.77857 0
M  V30 7323 H 712.895 -0.741745 -7.69232 0
M  V30 7324 H 711.24 -0.660153 -6.91858 0
M  V30 7325 H 714.431 -0.155051 -4.67843 0
M  V30 7326 H 714.604 -0.466994 -6.46315 0
M  V30 7327 N 708.01 1.57248 0.105221 0
M  V30 7328 C 708.958 2.02337 1.14728 0
M  V30 7329 C 709.952 0.922652 1.42069 0
M  V30 7330 O 711.158 1.10785 1.41869 0
M  V30 7331 H 707.533 0.644682 0.387155 0
M  V30 7332 H 709.504 2.89063 0.740607 0
M  V30 7333 C 708.253 2.45513 2.46209 0
M  V30 7334 H 707.576 3.29785 2.26013 0
M  V30 7335 H 709.016 2.80846 3.1765 0
M  V30 7336 C 707.475 1.3243 3.09781 0
M  V30 7337 O 708.005 0.647841 3.96442 0
M  V30 7338 N 706.211 1.07785 2.69872 0
M  V30 7339 H 705.758 1.62973 1.99493 0
M  V30 7340 H 705.716 0.323204 3.12734 0
M  V30 7341 N 709.488 -0.375779 1.53054 0
M  V30 7342 C 710.765 -1.13453 1.59336 0
M  V30 7343 C 711.145 -2.07379 0.394614 0
M  V30 7344 O 710.493 -2.2004 -0.616 0
M  V30 7345 C 710.703 -1.8826 2.93869 0
M  V30 7346 C 712.051 -2.43155 3.48081 0
M  V30 7347 O 713.075 -1.984 2.95831 0
M  V30 7348 O 711.934 -3.24944 4.39401 0
M  V30 7349 H 709.028 -0.519856 0.643179 0
M  V30 7350 H 711.574 -0.379865 1.65394 0
M  V30 7351 H 710.346 -1.19652 3.72558 0
M  V30 7352 H 709.969 -2.70658 2.91256 0
M  V30 7353 N 710.966 -1.44241 -0.634997 0
M  V30 7354 C 711.929 -1.50457 -1.72903 0
M  V30 7355 C 712.929 -0.387058 -1.56072 0
M  V30 7356 O 714.119 -0.649531 -1.61638 0
M  V30 7357 C 711.251 -1.37477 -3.1195 0
M  V30 7358 H 712.444 -2.47907 -1.68767 0
M  V30 7359 H 709.997 -1.31276 -0.84831 0
M  V30 7360 H 710.732 -0.41106 -3.21684 0
M  V30 7361 H 710.517 -2.18506 -3.25573 0
M  V30 7362 H 712.007 -1.44799 -3.91692 0
M  V30 7363 N 712.444 0.87505 -1.31075 0
M  V30 7364 C 713.392 2.00317 -1.18219 0
M  V30 7365 C 714.386 1.69152 -0.0916872 0
M  V30 7366 O 715.592 1.7821 -0.253229 0
M  V30 7367 H 711.967 0.656981 -0.365895 0
M  V30 7368 H 713.938 2.08293 -2.13674 0
M  V30 7369 C 712.687 3.35821 -0.901095 0
M  V30 7370 H 712.01 3.6032 -1.73233 0
M  V30 7371 H 713.45 4.15366 -0.851295 0
M  V30 7372 C 711.909 3.34563 0.396114 0
M  V30 7373 O 712.439 3.75971 1.41452 0
M  V30 7374 N 710.645 2.87681 0.410832 0
M  V30 7375 H 710.192 2.54179 -0.418415 0
M  V30 7376 H 710.15 2.87223 1.27869 0
M  V30 7377 N 713.922 1.13953 1.08869 0
M  V30 7378 C 715.333 0.916649 1.62648 0
M  V30 7379 C 715.684 -0.545589 1.88462 0
M  V30 7380 O 714.809 -1.41351 1.63856 0
M  V30 7381 C 715.404 1.65751 2.95486 0
M  V30 7382 C 713.963 1.48034 3.46068 0
M  V30 7383 C 713.11 1.68305 2.20383 0
M  V30 7384 H 716.061 1.292 0.921572 0
M  V30 7385 H 716.082 1.11794 3.63707 0
M  V30 7386 H 715.594 2.72171 2.76667 0
M  V30 7387 H 713.695 0.439416 3.7 0
M  V30 7388 H 713.808 2.24719 4.23129 0
M  V30 7389 H 712.172 1.10833 2.29321 0
M  V30 7390 H 712.955 2.76057 2.04077 0
M  V30 7391 N 715.4 -1.26948 0.933913 0
M  V30 7392 C 716.31 -2.30366 0.443671 0
M  V30 7393 C 717.326 -1.67284 -0.478745 0
M  V30 7394 O 718.502 -1.98156 -0.360043 0
M  V30 7395 C 715.567 -3.45485 -0.289974 0
M  V30 7396 C 714.628 -4.24069 0.668114 0
M  V30 7397 C 713.861 -5.33691 -0.0306138 0
M  V30 7398 O 714.084 -5.5656 -1.24888 0
M  V30 7399 O 713.018 -5.98441 0.644384 0
M  V30 7400 H 716.844 -2.74349 1.30254 0
M  V30 7401 H 714.429 -1.32012 0.699506 0
M  V30 7402 H 716.311 -4.15486 -0.70353 0
M  V30 7403 H 714.986 -3.03546 -1.12435 0
M  V30 7404 H 713.893 -3.56579 1.13147 0
M  V30 7405 H 715.226 -4.69739 1.46989 0
M  V30 7406 N 716.879 -0.700114 -1.41195 0
M  V30 7407 C 718.107 -0.242179 -2.05478 0
M  V30 7408 C 718.522 1.11029 -1.52702 0
M  V30 7409 O 717.879 1.69473 -0.677127 0
M  V30 7410 C 717.93 -0.196271 -3.60967 0
M  V30 7411 O 717.651 -1.49532 -4.11791 0
M  V30 7412 C 719.152 0.282102 -4.42401 0
M  V30 7413 H 716.372 -0.111749 -0.661629 0
M  V30 7414 H 718.916 -0.953975 -1.80885 0
M  V30 7415 H 717.071 0.46638 -3.84582 0
M  V30 7416 H 717.485 -1.38545 -5.05871 0
M  V30 7417 H 718.959 0.263093 -5.51373 0
M  V30 7418 H 719.436 1.32174 -4.1884 0
M  V30 7419 H 720.042 -0.349712 -4.2386 0
M  V30 7420 N 718.357 1.51182 -0.445186 0
M  V30 7421 C 719.307 2.24804 0.380394 0
M  V30 7422 C 720.291 1.27344 0.983482 0
M  V30 7423 O 721.483 1.52392 0.900322 0
M  V30 7424 C 718.612 3.09922 1.4766 0
M  V30 7425 C 717.698 4.14816 0.882517 0
M  V30 7426 N 718.089 5.05797 0.0183278 0
M  V30 7427 C 716.387 4.30938 1.14927 0
M  V30 7428 C 717.088 5.8084 -0.316152 0
M  V30 7429 N 716.064 5.42759 0.302214 0
M  V30 7430 H 719.866 2.92508 -0.285737 0
M  V30 7431 H 717.38 1.60342 -0.257733 0
M  V30 7432 H 719.377 3.61249 2.08098 0
M  V30 7433 H 718.037 2.43763 2.14498 0
M  V30 7434 H 719.048 5.16725 -0.348679 0
M  V30 7435 H 715.725 3.76005 1.81457 0
M  V30 7436 H 717.115 6.64115 -1.01986 0
M  V30 7437 N 719.835 0.176821 1.56605 0
M  V30 7438 C 720.798 -0.737429 2.17013 0
M  V30 7439 C 721.798 -1.15414 1.11965 0
M  V30 7440 O 722.988 -1.0702 1.37449 0
M  V30 7441 C 720.12 -2.00445 2.75744 0
M  V30 7442 H 721.313 -0.211455 2.99154 0
M  V30 7443 H 718.866 -0.0727582 1.56131 0
M  V30 7444 H 719.601 -2.57338 1.97352 0
M  V30 7445 H 719.386 -1.71456 3.52626 0
M  V30 7446 H 720.876 -2.65679 3.22187 0
M  V30 7447 N 721.313 -1.57302 -0.09688 0
M  V30 7448 C 722.56 -1.85997 -0.800699 0
M  V30 7449 C 722.888 -0.765089 -1.7882 0
M  V30 7450 O 722.143 0.241492 -1.94204 0
M  V30 7451 C 722.442 -3.21272 -1.56586 0
M  V30 7452 C 722.108 -4.45104 -0.72064 0
M  V30 7453 C 720.77 -4.78723 -0.487632 0
M  V30 7454 C 723.122 -5.2103 -0.132948 0
M  V30 7455 C 720.45 -5.85697 0.34296 0
M  V30 7456 C 722.802 -6.28881 0.684957 0
M  V30 7457 C 721.466 -6.61017 0.928073 0
M  V30 7458 H 720.736 -0.680613 -0.292997 0
M  V30 7459 H 723.383 -1.91399 -0.0622474 0
M  V30 7460 H 721.688 -3.11547 -2.37583 0
M  V30 7461 H 723.385 -3.40702 -2.11478 0
M  V30 7462 H 719.975 -4.18777 -0.912359 0
M  V30 7463 H 724.159 -4.95392 -0.300132 0
M  V30 7464 H 719.415 -6.09008 0.540317 0
M  V30 7465 H 723.589 -6.86886 1.14721 0
M  V30 7466 H 721.216 -7.43738 1.57348 0
M  V30 7467 N 722.791 0.367657 -1.53252 0
M  V30 7468 C 724.037 1.11216 -1.69584 0
M  V30 7469 C 724.37 1.89026 -0.445269 0
M  V30 7470 O 723.645 1.86342 0.557404 0
M  V30 7471 C 723.928 2.07308 -2.94441 0
M  V30 7472 C 723.781 1.3312 -4.2965 0
M  V30 7473 C 725.1 3.07459 -3.14892 0
M  V30 7474 H 722.219 0.40294 -0.617096 0
M  V30 7475 H 724.861 0.393201 -1.85887 0
M  V30 7476 H 723.011 2.68617 -2.80673 0
M  V30 7477 H 724.683 0.746111 -4.55226 0
M  V30 7478 H 722.926 0.633051 -4.29156 0
M  V30 7479 H 723.597 2.03443 -5.13142 0
M  V30 7480 H 726.073 2.56252 -3.27832 0
M  V30 7481 H 724.949 3.71919 -4.03693 0
M  V30 7482 H 725.21 3.77514 -2.30077 0
M  V30 7483 N 724.269 1.44576 0.627338 0
M  V30 7484 C 725.497 1.51048 1.41394 0
M  V30 7485 C 725.912 0.136568 1.88305 0
M  V30 7486 O 725.269 -0.858251 1.6106 0
M  V30 7487 C 725.32 2.47837 2.63172 0
M  V30 7488 O 725.041 3.79887 2.18215 0
M  V30 7489 C 726.542 2.63811 3.56257 0
M  V30 7490 H 723.762 0.512171 0.4335 0
M  V30 7491 H 726.306 1.89576 0.766878 0
M  V30 7492 H 724.461 2.12433 3.23961 0
M  V30 7493 H 724.875 4.32177 2.97192 0
M  V30 7494 H 726.349 3.35554 4.38301 0
M  V30 7495 H 726.826 1.69169 4.05313 0
M  V30 7496 H 727.432 3.0013 3.01333 0
M  V30 7497 N 725.747 -0.868086 1.31537 0
M  V30 7498 C 726.972 -1.65926 1.24432 0
M  V30 7499 C 727.397 -1.87169 -0.186936 0
M  V30 7500 O 726.755 -1.4148 -1.13371 0
M  V30 7501 C 726.803 -3.00347 1.9956 0
M  V30 7502 O 725.907 -3.90221 1.33422 0
M  V30 7503 H 725.248 -0.506375 0.429512 0
M  V30 7504 H 727.778 -1.0822 1.73637 0
M  V30 7505 H 727.788 -3.50269 2.09226 0
M  V30 7506 H 726.463 -2.84205 3.03645 0
M  V30 7507 H 725.04 -3.48672 1.32219 0
M  V30 7508 N 727.225 -1.14528 -1.08264 0
M  V30 7509 C 728.636 -0.925261 -1.6216 0
M  V30 7510 C 728.987 0.535587 -1.88748 0
M  V30 7511 O 728.112 1.4048 -1.64604 0
M  V30 7512 C 728.707 -1.67316 -2.94603 0
M  V30 7513 C 727.266 -1.49868 -3.45278 0
M  V30 7514 C 726.413 -1.69471 -2.19487 0
M  V30 7515 H 729.364 -1.29687 -0.914707 0
M  V30 7516 H 729.385 -1.13721 -3.63109 0
M  V30 7517 H 728.897 -2.73635 -2.75219 0
M  V30 7518 H 726.998 -0.459032 -3.69762 0
M  V30 7519 H 727.111 -2.2696 -4.21931 0
M  V30 7520 H 725.475 -1.12048 -2.2873 0
M  V30 7521 H 726.258 -2.77136 -2.0261 0
M  V30 7522 N 728.703 1.26451 -0.940633 0
M  V30 7523 C 729.613 2.30128 -0.455881 0
M  V30 7524 C 730.629 1.67536 0.469867 0
M  V30 7525 O 731.805 1.98344 0.349529 0
M  V30 7526 C 728.87 3.45634 0.271648 0
M  V30 7527 C 727.931 4.23709 -0.690594 0
M  V30 7528 C 727.164 5.337 0.00231047 0
M  V30 7529 O 727.387 5.57215 1.21935 0
M  V30 7530 O 726.321 5.98091 -0.676111 0
M  V30 7531 H 730.147 2.73655 -1.31707 0
M  V30 7532 H 727.732 1.3164 -0.706497 0
M  V30 7533 H 729.614 4.15853 0.681486 0
M  V30 7534 H 728.289 3.04138 1.10824 0
M  V30 7535 H 727.196 3.55974 -1.15037 0
M  V30 7536 H 728.529 4.68953 -1.49478 0
M  V30 7537 N 730.181 0.707592 1.40822 0
M  V30 7538 C 731.43 0.240705 2.00259 0
M  V30 7539 C 731.743 -1.17027 1.56729 0
M  V30 7540 O 732.949 -1.73526 2.08809 0
M  V30 7541 C 731.405 0.379432 3.57894 0
M  V30 7542 C 731.013 1.79654 4.104 0
M  V30 7543 C 732.757 -0.0270684 4.24491 0
M  V30 7544 C 730.664 1.88628 5.60512 0
M  V30 7545 H 729.594 0.0862369 0.749052 0
M  V30 7546 H 732.245 0.877528 1.61157 0
M  V30 7547 H 730.627 -0.325842 3.94657 0
M  V30 7548 H 731.801 2.53155 3.85032 0
M  V30 7549 H 730.116 2.15379 3.56372 0
M  V30 7550 H 732.713 0.0193743 5.34696 0
M  V30 7551 H 733.056 -1.06772 4.02375 0
M  V30 7552 H 733.589 0.628361 3.92806 0
M  V30 7553 H 730.328 2.90787 5.87472 0
M  V30 7554 H 729.848 1.19528 5.8777 0
M  V30 7555 H 731.527 1.6547 6.25483 0
M  V30 7556 N 731.66 -1.50943 0.453197 0
M  V30 7557 C 732.906 -2.02512 -0.108082 0
M  V30 7558 C 733.239 -1.33574 -1.40967 0
M  V30 7559 O 732.514 -0.455671 -1.89087 0
M  V30 7560 C 732.797 -3.58759 -0.310453 0
M  V30 7561 C 732.65 -4.38293 1.0109 0
M  V30 7562 C 733.969 -4.26816 -1.07313 0
M  V30 7563 H 731.088 -0.73603 -0.0378064 0
M  V30 7564 H 733.73 -1.80433 0.595295 0
M  V30 7565 H 731.88 -3.77702 -0.909582 0
M  V30 7566 H 733.552 -4.30964 1.64523 0
M  V30 7567 H 731.795 -4.02745 1.61179 0
M  V30 7568 H 732.466 -5.45828 0.82315 0
M  V30 7569 H 734.942 -4.1224 -0.565473 0
M  V30 7570 H 733.818 -5.35989 -1.1835 0
M  V30 7571 H 734.079 -3.88757 -2.10525 0
M  V30 7572 N 733.138 -0.185124 -1.56509 0
M  V30 7573 C 734.366 0.462139 -2.01673 0
M  V30 7574 C 734.781 1.55873 -1.06532 0
M  V30 7575 O 734.138 1.82371 -0.0684805 0
M  V30 7576 C 734.189 1.0277 -3.46584 0
M  V30 7577 O 733.91 -0.0251296 -4.38093 0
M  V30 7578 C 735.411 1.75183 -4.07217 0
M  V30 7579 H 732.631 0.117001 -0.660721 0
M  V30 7580 H 735.175 -0.290905 -2.0242 0
M  V30 7581 H 733.33 1.73118 -3.46568 0
M  V30 7582 H 733.744 0.394387 -5.23015 0
M  V30 7583 H 735.218 2.09999 -5.10494 0
M  V30 7584 H 735.695 2.6519 -3.50101 0
M  V30 7585 H 736.301 1.09445 -4.10977 0
M  V30 7586 N 734.616 1.57351 0.0885366 0
M  V30 7587 C 735.579 2.01557 1.09121 0
M  V30 7588 C 736.579 0.910052 1.3257 0
M  V30 7589 O 737.769 1.17537 1.28572 0
M  V30 7590 C 734.901 2.38189 2.43883 0
M  V30 7591 H 736.094 2.91361 0.710562 0
M  V30 7592 H 733.647 1.52694 0.333779 0
M  V30 7593 H 734.382 1.5136 2.86811 0
M  V30 7594 H 734.167 3.18846 2.28209 0
M  V30 7595 H 735.657 2.73025 3.15986 0
M  V30 7596 N 736.094 -0.359525 1.53444 0
M  V30 7597 C 737.024 -1.44662 1.8329 0
M  V30 7598 C 738.005 -1.55617 0.68683 0
M  V30 7599 O 739.19 -1.70086 0.93725 0
M  V30 7600 C 736.32 -2.81923 2.02822 0
M  V30 7601 C 735.274 -2.85787 3.18606 0
M  V30 7602 C 734.6 -4.25781 3.23442 0
M  V30 7603 C 735.9 -2.52762 4.57065 0
M  V30 7604 H 737.594 -1.19934 2.74329 0
M  V30 7605 H 735.14 -0.575517 1.31999 0
M  V30 7606 H 737.093 -3.58005 2.22285 0
M  V30 7607 H 735.817 -3.08051 1.085 0
M  V30 7608 H 734.476 -2.12157 2.98973 0
M  V30 7609 H 734.124 -4.48994 2.26745 0
M  V30 7610 H 733.824 -4.29281 4.01238 0
M  V30 7611 H 735.348 -5.03727 3.45096 0
M  V30 7612 H 736.762 -3.18557 4.76649 0
M  V30 7613 H 735.159 -2.67569 5.37147 0
M  V30 7614 H 736.229 -1.47993 4.61764 0
M  V30 7615 N 737.572 -1.44907 -0.619662 0
M  V30 7616 C 738.535 -1.52282 -1.71297 0
M  V30 7617 C 739.535 -0.40359 -1.55653 0
M  V30 7618 O 740.725 -0.666638 -1.6094 0
M  V30 7619 C 737.857 -1.40778 -3.10474 0
M  V30 7620 H 739.05 -2.49683 -1.66128 0
M  V30 7621 H 736.603 -1.32168 -0.834339 0
M  V30 7622 H 737.338 -0.445156 -3.2123 0
M  V30 7623 H 737.123 -2.21947 -3.23237 0
M  V30 7624 H 738.613 -1.48946 -3.90135 0
M  V30 7625 N 739.05 0.861098 -1.31996 0
M  V30 7626 C 740.299 1.60965 -1.21545 0
M  V30 7627 C 740.612 1.94325 0.222972 0
M  V30 7628 O 741.818 2.67757 0.449272 0
M  V30 7629 C 740.274 2.90223 -2.12834 0
M  V30 7630 C 739.882 2.64313 -3.61722 0
M  V30 7631 C 741.626 3.68229 -2.11205 0
M  V30 7632 C 739.533 3.89532 -4.44993 0
M  V30 7633 H 738.463 0.603988 -0.451348 0
M  V30 7634 H 741.114 0.951358 -1.56912 0
M  V30 7635 H 739.496 3.57475 -1.70375 0
M  V30 7636 H 740.67 2.05413 -4.12483 0
M  V30 7637 H 738.985 1.99647 -3.65418 0
M  V30 7638 H 741.582 4.61138 -2.70658 0
M  V30 7639 H 741.925 4.01466 -1.1014 0
M  V30 7640 H 742.458 3.07873 -2.51911 0
M  V30 7641 H 739.197 3.61441 -5.46846 0
M  V30 7642 H 738.717 4.47851 -3.98985 0
M  V30 7643 H 740.396 4.57334 -4.57663 0
M  V30 7644 N 740.528 1.15101 1.07655 0
M  V30 7645 C 741.491 0.847625 2.12951 0
M  V30 7646 C 742.491 -0.151227 1.60087 0
M  V30 7647 O 743.681 0.0780399 1.74025 0
M  V30 7648 C 740.813 0.265 3.39868 0
M  V30 7649 H 742.006 1.7809 2.41296 0
M  V30 7650 H 739.559 0.958072 1.23494 0
M  V30 7651 H 740.294 -0.676625 3.17163 0
M  V30 7652 H 740.079 0.984554 3.79538 0
M  V30 7653 H 741.569 0.0702121 4.17541 0
M  V30 7654 N 742.006 -1.2595 0.947325 0
M  V30 7655 C 743.254 -1.93081 0.596996 0
M  V30 7656 C 743.575 -1.74632 -0.867672 0
M  V30 7657 O 742.845 -1.1056 -1.6172 0
M  V30 7658 H 741.425 -0.714542 0.217805 0
M  V30 7659 H 744.087 -1.53265 1.20398 0
M  V30 7660 H 743.183 -3.01134 0.82004 0
M  V30 7661 N 743.484 -0.715051 -1.40445 0
M  V30 7662 C 744.712 -0.263959 -2.05209 0
M  V30 7663 C 745.127 1.09403 -1.53871 0
M  V30 7664 O 744.484 1.68746 -0.695064 0
M  V30 7665 C 744.535 -0.234545 -3.60738 0
M  V30 7666 O 744.256 -1.53891 -4.10182 0
M  V30 7667 C 745.757 0.235164 -4.42676 0
M  V30 7668 H 742.977 -0.11876 -0.660407 0
M  V30 7669 H 745.521 -0.973107 -1.79864 0
M  V30 7670 H 743.676 0.425563 -3.85055 0
M  V30 7671 H 744.09 -1.43903 -5.04373 0
M  V30 7672 H 745.564 0.204598 -5.51621 0
M  V30 7673 H 746.041 1.27724 -4.20218 0
M  V30 7674 H 746.647 -0.394649 -4.23465 0
M  V30 7675 N 744.962 1.50701 -0.461195 0
M  V30 7676 C 745.892 2.31182 0.328184 0
M  V30 7677 C 746.873 1.37644 0.999408 0
M  V30 7678 O 748.058 1.66565 0.99848 0
M  V30 7679 C 745.188 3.17113 1.41621 0
M  V30 7680 C 744.142 4.19124 0.867148 0
M  V30 7681 C 743.468 4.93728 2.05272 0
M  V30 7682 C 744.768 5.22174 -0.114808 0
M  V30 7683 H 746.462 2.97423 -0.343501 0
M  V30 7684 H 744.008 1.43033 -0.166641 0
M  V30 7685 H 745.961 3.72208 1.97584 0
M  V30 7686 H 744.685 2.48739 2.11652 0
M  V30 7687 H 743.344 3.65116 0.329557 0
M  V30 7688 H 742.992 4.21835 2.73978 0
M  V30 7689 H 742.692 5.62724 1.69161 0
M  V30 7690 H 744.216 5.51654 2.61744 0
M  V30 7691 H 745.63 5.72198 0.355316 0
M  V30 7692 H 744.027 5.98833 -0.389689 0
M  V30 7693 H 745.097 4.7353 -1.04391 0
M  V30 7694 N 746.441 0.193421 1.56409 0
M  V30 7695 C 747.388 -0.728124 2.19014 0
M  V30 7696 C 748.358 -1.21098 1.13686 0
M  V30 7697 O 749.543 -1.27517 1.4193 0
M  V30 7698 C 746.683 -1.94277 2.8522 0
M  V30 7699 C 745.796 -1.50143 4.05069 0
M  V30 7700 C 744.931 -2.67145 4.59137 0
M  V30 7701 C 743.97 -2.19609 5.71348 0
M  V30 7702 N 743.107 -3.29782 6.19829 0
M  V30 7703 H 747.947 -0.187499 2.9741 0
M  V30 7704 H 745.484 -0.0808064 1.46878 0
M  V30 7705 H 747.442 -2.65551 3.21774 0
M  V30 7706 H 746.072 -2.45673 2.09391 0
M  V30 7707 H 745.124 -0.684624 3.74189 0
M  V30 7708 H 746.436 -1.11266 4.86232 0
M  V30 7709 H 745.59 -3.46544 4.97988 0
M  V30 7710 H 744.329 -3.09295 3.77078 0
M  V30 7711 H 743.334 -1.38664 5.32027 0
M  V30 7712 H 744.559 -1.78492 6.55223 0
M  V30 7713 H 742.505 -3.71466 5.40693 0
M  V30 7714 H 742.422 -2.95069 6.96039 0
M  V30 7715 H 743.69 -4.094 6.63334 0
M  V30 7716 N 747.919 -1.57396 -0.0801906 0
M  V30 7717 C 749.166 -1.86836 -0.780927 0
M  V30 7718 C 749.494 -0.784012 -1.77999 0
M  V30 7719 O 748.749 0.220881 -1.94449 0
M  V30 7720 C 749.048 -3.22915 -1.53169 0
M  V30 7721 C 748.714 -4.45843 -0.67339 0
M  V30 7722 C 747.376 -4.79213 -0.436829 0
M  V30 7723 C 749.728 -5.21142 -0.0776786 0
M  V30 7724 C 747.056 -5.853 0.405062 0
M  V30 7725 C 749.408 -6.28119 0.751619 0
M  V30 7726 C 748.072 -6.59995 0.998131 0
M  V30 7727 H 747.342 -0.683682 -0.285761 0
M  V30 7728 H 749.989 -1.91454 -0.0419435 0
M  V30 7729 H 748.294 -3.14049 -2.34265 0
M  V30 7730 H 749.991 -3.42926 -2.07853 0
M  V30 7731 H 746.581 -4.19721 -0.867891 0
M  V30 7732 H 750.765 -4.95682 -0.247572 0
M  V30 7733 H 746.021 -6.084 0.60488 0
M  V30 7734 H 750.195 -6.8563 1.22 0
M  V30 7735 H 747.822 -7.42027 1.65227 0
M  V30 7736 N 749.397 0.351382 -1.53633 0
M  V30 7737 C 750.345 1.45142 -1.8176 0
M  V30 7738 C 751.339 1.54819 -0.687571 0
M  V30 7739 O 752.545 1.57536 -0.870772 0
M  V30 7740 H 748.92 0.483789 -0.575719 0
M  V30 7741 H 750.891 1.1863 -2.73806 0
M  V30 7742 C 749.64 2.81779 -2.03706 0
M  V30 7743 H 748.963 2.75097 -2.90107 0
M  V30 7744 H 750.403 3.5789 -2.27356 0
M  V30 7745 C 748.862 3.26762 -0.820271 0
M  V30 7746 O 749.392 4.01697 -0.0158603 0
M  V30 7747 N 747.598 2.83472 -0.639699 0
M  V30 7748 H 747.145 2.22655 -1.29547 0
M  V30 7749 H 747.103 3.13924 0.172995 0
M  V30 7750 N 750.875 1.45233 0.611969 0
M  V30 7751 C 752.286 1.4354 1.19387 0
M  V30 7752 C 752.637 0.160713 1.95541 0
M  V30 7753 O 751.762 -0.737954 2.03429 0
M  V30 7754 C 752.357 2.60045 2.17169 0
M  V30 7755 C 750.916 2.61486 2.70744 0
M  V30 7756 C 750.063 2.35708 1.46072 0
M  V30 7757 H 753.014 1.53536 0.401529 0
M  V30 7758 H 753.035 2.33893 3.00124 0
M  V30 7759 H 752.547 3.52803 1.61714 0
M  V30 7760 H 750.648 1.72721 3.30149 0
M  V30 7761 H 750.761 3.60572 3.15476 0
M  V30 7762 H 749.125 1.85178 1.74875 0
M  V30 7763 H 749.908 3.30606 0.924922 0
M  V30 7764 N 752.353 -0.854086 1.3245 0
M  V30 7765 C 753.263 -1.99503 1.23434 0
M  V30 7766 C 754.279 -1.73371 0.147828 0
M  V30 7767 O 755.455 -1.97998 0.368609 0
M  V30 7768 C 752.52 -3.33192 0.958328 0
M  V30 7769 C 751.581 -3.72542 2.13333 0
M  V30 7770 C 750.814 -4.99852 1.8704 0
M  V30 7771 O 751.037 -5.64573 0.813239 0
M  V30 7772 O 749.971 -5.36345 2.73161 0
M  V30 7773 H 753.797 -2.10046 2.1935 0
M  V30 7774 H 751.382 -0.984823 1.12346 0
M  V30 7775 H 753.264 -4.13327 0.820918 0
M  V30 7776 H 751.939 -3.23687 0.0293299 0
M  V30 7777 H 750.846 -2.92981 2.32622 0
M  V30 7778 H 752.179 -3.86694 3.04514 0
M  V30 7779 N 753.831 -1.1567 -1.07043 0
M  V30 7780 C 755.059 -0.957471 -1.83412 0
M  V30 7781 C 755.474 0.494271 -1.82215 0
M  V30 7782 O 754.831 1.34288 -1.23584 0
M  V30 7783 C 754.882 -1.46784 -3.30359 0
M  V30 7784 O 754.603 -2.86271 -3.31633 0
M  V30 7785 C 756.104 -1.31054 -4.23485 0
M  V30 7786 H 753.324 -0.33986 -0.578564 0
M  V30 7787 H 755.868 -1.53518 -1.35102 0
M  V30 7788 H 754.023 -0.932586 -3.76007 0
M  V30 7789 H 754.437 -3.0948 -4.23465 0
M  V30 7790 H 755.911 -1.71605 -5.24648 0
M  V30 7791 H 756.388 -0.255107 -4.38458 0
M  V30 7792 H 756.994 -1.83503 -3.83676 0
M  V30 7793 N 755.309 1.25446 -0.953992 0
M  V30 7794 C 756.586 1.884 -0.525823 0
M  V30 7795 C 756.966 1.86079 0.996891 0
M  V30 7796 O 756.314 1.32389 1.8624 0
M  V30 7797 C 756.524 3.31154 -1.10172 0
M  V30 7798 C 757.872 4.07926 -1.17819 0
M  V30 7799 O 758.896 3.40273 -1.05323 0
M  V30 7800 O 757.755 5.28942 -1.37415 0
M  V30 7801 H 754.849 0.808629 -0.173345 0
M  V30 7802 H 757.395 1.33522 -1.04738 0
M  V30 7803 H 756.167 3.27271 -2.14499 0
M  V30 7804 H 755.79 3.93588 -0.56338 0
M  V30 7805 N 756.787 0.722489 1.40064 0
M  V30 7806 C 758.017 0.274439 2.04769 0
M  V30 7807 C 758.425 -1.09125 1.54559 0
M  V30 7808 O 757.768 -1.69834 0.700149 0
M  V30 7809 C 757.83 0.184091 3.59028 0
M  V30 7810 C 757.494 1.48619 4.32159 0
M  V30 7811 C 758.491 2.42947 4.59644 0
M  V30 7812 C 756.176 1.74703 4.7094 0
M  V30 7813 C 758.17 3.616 5.24904 0
M  V30 7814 C 755.857 2.93636 5.3593 0
M  V30 7815 C 756.855 3.86907 5.62843 0
M  V30 7816 O 756.543 5.03753 6.26489 0
M  V30 7817 H 756.275 0.119847 0.665292 0
M  V30 7818 H 758.829 0.983352 1.80331 0
M  V30 7819 H 757.059 -0.580821 3.82313 0
M  V30 7820 H 758.748 -0.230306 4.05246 0
M  V30 7821 H 759.514 2.24062 4.30141 0
M  V30 7822 H 755.393 1.02955 4.49356 0
M  V30 7823 H 758.937 4.34418 5.45827 0
M  V30 7824 H 754.834 3.12428 5.64853 0
M  V30 7825 H 755.602 5.03922 6.44984 0
M  V30 7826 N 758.265 -1.50454 0.469181 0
M  V30 7827 C 759.195 -2.31353 -0.31592 0
M  V30 7828 C 760.176 -1.38172 -0.992094 0
M  V30 7829 O 761.361 -1.67093 -0.989633 0
M  V30 7830 C 758.491 -3.1786 -1.39937 0
M  V30 7831 C 757.445 -4.19578 -0.844909 0
M  V30 7832 C 756.771 -4.9481 -2.0265 0
M  V30 7833 C 758.071 -5.22106 0.142499 0
M  V30 7834 H 759.765 -2.97237 0.359269 0
M  V30 7835 H 757.311 -1.42942 0.174224 0
M  V30 7836 H 759.264 -3.7325 -1.95607 0
M  V30 7837 H 757.988 -2.49858 -2.1033 0
M  V30 7838 H 756.647 -3.65285 -0.310189 0
M  V30 7839 H 756.295 -4.23282 -2.71737 0
M  V30 7840 H 755.995 -5.63613 -1.66174 0
M  V30 7841 H 757.519 -5.53035 -2.58815 0
M  V30 7842 H 758.933 -5.72378 -0.324966 0
M  V30 7843 H 757.33 -5.98618 0.421441 0
M  V30 7844 H 758.4 -4.7297 1.06901 0
M  V30 7845 N 759.743 -0.201713 -1.56304 0
M  V30 7846 C 760.971 0.440723 -2.02152 0
M  V30 7847 C 761.386 1.54735 -1.08179 0
M  V30 7848 O 760.743 1.82289 -0.0878196 0
M  V30 7849 C 760.794 0.990884 -3.47655 0
M  V30 7850 O 760.515 -0.0715937 -4.38041 0
M  V30 7851 C 762.016 1.70854 -4.09052 0
M  V30 7852 H 759.236 0.109987 -0.661924 0
M  V30 7853 H 761.78 -0.312358 -2.021 0
M  V30 7854 H 759.935 1.69432 -3.48384 0
M  V30 7855 H 760.349 0.338892 -5.23404 0
M  V30 7856 H 761.823 2.04572 -5.12693 0
M  V30 7857 H 762.3 2.61462 -3.52894 0
M  V30 7858 H 762.906 1.0508 -4.12114 0
M  V30 7859 N 761.222 1.57436 0.0718424 0
M  V30 7860 C 762.47 1.86878 0.769484 0
M  V30 7861 C 762.791 0.7937 1.78116 0
M  V30 7862 O 762.061 -0.177642 1.95093 0
M  V30 7863 H 760.641 0.689593 0.287177 0
M  V30 7864 H 763.303 1.94841 0.0479427 0
M  V30 7865 H 762.399 2.84387 1.28572 0
M  V30 7866 N 762.7 -0.34323 1.53817 0
M  V30 7867 C 763.928 -1.10348 1.75017 0
M  V30 7868 C 764.343 -1.82345 0.489475 0
M  V30 7869 O 763.7 -1.74362 -0.538886 0
M  V30 7870 C 763.751 -2.11672 2.93048 0
M  V30 7871 O 763.472 -1.42603 4.14241 0
M  V30 7872 C 764.973 -3.0007 3.26301 0
M  V30 7873 H 762.193 -0.329056 0.584776 0
M  V30 7874 H 764.737 -0.395339 2.00642 0
M  V30 7875 H 762.892 -2.78051 2.69753 0
M  V30 7876 H 763.306 -2.10294 4.80496 0
M  V30 7877 H 764.78 -3.67101 4.12239 0
M  V30 7878 H 765.257 -3.66105 2.42618 0
M  V30 7879 H 765.863 -2.3928 3.51604 0
M  V30 7880 N 764.178 -1.45556 -0.604258 0
M  V30 7881 C 765.455 -1.40221 -1.36373 0
M  V30 7882 C 765.835 -0.0745195 -2.10968 0
M  V30 7883 O 765.183 0.943594 -2.08107 0
M  V30 7884 C 765.393 -2.61807 -2.30777 0
M  V30 7885 C 766.741 -3.07037 -2.93281 0
M  V30 7886 O 767.765 -2.62203 -2.41097 0
M  V30 7887 O 766.624 -3.8485 -3.88011 0
M  V30 7888 H 763.718 -0.556602 -0.611656 0
M  V30 7889 H 766.264 -1.57689 -0.627069 0
M  V30 7890 H 765.036 -3.50017 -1.74939 0
M  V30 7891 H 764.659 -2.46688 -3.11818 0
M  V30 7892 N 765.656 0.84705 -1.32902 0
M  V30 7893 C 766.904 1.5986 -1.2365 0
M  V30 7894 C 767.225 1.93974 0.199789 0
M  V30 7895 O 766.495 1.60273 1.12648 0
M  V30 7896 H 765.075 0.592696 -0.454665 0
M  V30 7897 H 767.737 1.01278 -1.66519 0
M  V30 7898 H 766.833 2.53218 -1.82448 0
M  V30 7899 N 767.134 1.16236 1.06428 0
M  V30 7900 C 768.081 0.86769 2.13869 0
M  V30 7901 C 769.051 -0.183298 1.65086 0
M  V30 7902 O 770.236 -0.0488002 1.90738 0
M  V30 7903 C 767.376 0.373427 3.43074 0
M  V30 7904 C 766.489 1.48708 4.05598 0
M  V30 7905 C 765.624 0.947977 5.22673 0
M  V30 7906 C 764.663 2.03793 5.77178 0
M  V30 7907 N 763.8 1.51451 6.85571 0
M  V30 7908 H 768.64 1.78781 2.38414 0
M  V30 7909 H 766.177 0.891892 1.16977 0
M  V30 7910 H 768.135 0.0685035 4.17144 0
M  V30 7911 H 766.765 -0.509752 3.1875 0
M  V30 7912 H 765.817 1.908 3.29089 0
M  V30 7913 H 767.129 2.30964 4.42105 0
M  V30 7914 H 766.283 0.596154 6.03764 0
M  V30 7915 H 765.022 0.0947081 4.87608 0
M  V30 7916 H 764.027 2.39847 4.94726 0
M  V30 7917 H 765.252 2.89514 6.14295 0
M  V30 7918 H 763.198 0.683755 6.52427 0
M  V30 7919 H 763.115 2.27325 7.21013 0
M  V30 7920 H 764.383 1.19123 7.70344 0
M  V30 7921 N 768.612 -1.24939 0.960631 0
M  V30 7922 C 769.559 -2.25658 0.484459 0
M  V30 7923 C 770.529 -1.59422 -0.466242 0
M  V30 7924 O 771.714 -1.87015 -0.378169 0
M  V30 7925 C 768.854 -3.44359 -0.225958 0
M  V30 7926 C 767.967 -4.25214 0.762682 0
M  V30 7927 C 767.102 -5.31192 0.0290931 0
M  V30 7928 C 766.141 -6.03739 1.00827 0
M  V30 7929 N 765.278 -7.01437 0.305155 0
M  V30 7930 H 770.118 -2.65758 1.34821 0
M  V30 7931 H 767.655 -1.30648 0.675983 0
M  V30 7932 H 769.613 -4.12035 -0.654472 0
M  V30 7933 H 768.243 -3.05118 -1.05371 0
M  V30 7934 H 767.295 -3.57144 1.30966 0
M  V30 7935 H 768.607 -4.75406 1.50964 0
M  V30 7936 H 767.761 -6.04971 -0.457763 0
M  V30 7937 H 766.5 -4.81889 -0.750614 0
M  V30 7938 H 765.505 -5.2877 1.50607 0
M  V30 7939 H 766.73 -6.55131 1.7883 0
M  V30 7940 H 764.676 -6.54415 -0.455704 0
M  V30 7941 H 764.593 -7.49475 0.991104 0
M  V30 7942 H 765.861 -7.79336 -0.159966 0
M  V30 7943 N 770.09 -0.729906 -1.39679 0
M  V30 7944 C 771.337 -0.275622 -2.00615 0
M  V30 7945 C 771.665 1.13559 -1.57907 0
M  V30 7946 O 770.92 1.78745 -0.796789 0
M  V30 7947 C 771.219 -0.319564 -3.55968 0
M  V30 7948 C 770.885 -1.68308 -4.1831 0
M  V30 7949 C 769.547 -2.05629 -4.35052 0
M  V30 7950 C 771.899 -2.57857 -4.52945 0
M  V30 7951 C 769.227 -3.32018 -4.83716 0
M  V30 7952 C 771.579 -3.83613 -5.03015 0
M  V30 7953 C 770.243 -4.21033 -5.17965 0
M  V30 7954 H 769.513 -0.100857 -0.734104 0
M  V30 7955 H 772.16 -0.93575 -1.67081 0
M  V30 7956 H 770.465 0.42414 -3.89497 0
M  V30 7957 H 772.162 0.0499905 -4.00969 0
M  V30 7958 H 768.752 -1.3829 -4.05677 0
M  V30 7959 H 772.936 -2.30295 -4.39634 0
M  V30 7960 H 768.192 -3.6096 -4.93475 0
M  V30 7961 H 772.366 -4.53162 -5.28788 0
M  V30 7962 H 769.993 -5.19034 -5.55435 0
M  V30 7963 N 771.568 1.50203 -0.477153 0
M  V30 7964 C 772.984 1.59056 -0.131663 0
M  V30 7965 C 773.184 1.48473 1.36227 0
M  V30 7966 O 772.24 1.34635 2.13611 0
M  V30 7967 C 773.553 2.92741 -0.687254 0
M  V30 7968 C 775.101 3.0615 -0.651223 0
M  V30 7969 C 775.576 4.42419 -1.18446 0
M  V30 7970 N 777.067 4.48847 -1.14413 0
M  V30 7971 C 777.802 5.52689 -1.52717 0
M  V30 7972 N 777.298 6.63754 -1.98499 0
M  V30 7973 N 779.091 5.43267 -1.44282 0
M  V30 7974 H 771.242 1.55325 -1.44872 0
M  V30 7975 H 773.505 0.734395 -0.599473 0
M  V30 7976 H 773.211 3.0598 -1.73405 0
M  V30 7977 H 773.085 3.76961 -0.134215 0
M  V30 7978 H 775.472 2.92556 0.386677 0
M  V30 7979 H 775.553 2.23673 -1.24114 0
M  V30 7980 H 775.197 4.56763 -2.22103 0
M  V30 7981 H 775.127 5.23498 -0.570709 0
M  V30 7982 H 777.618 3.69152 -0.808416 0
M  V30 7983 H 777.931 7.39059 -2.25859 0
M  V30 7984 H 776.276 6.64858 -2.02456 0
M  V30 7985 H 779.467 4.55387 -1.08352 0
M  V30 7986 H 779.64 6.24074 -1.74459 0
M  V30 7987 N 773.046 0.209999 1.56195 0
M  V30 7988 C 773.976 -0.699746 2.22769 0
M  V30 7989 C 774.957 -1.20993 1.1956 0
M  V30 7990 O 776.142 -1.25605 1.48112 0
M  V30 7991 C 773.272 -1.91302 2.89863 0
M  V30 7992 C 772.226 -1.53715 3.99444 0
M  V30 7993 C 771.552 -2.82826 4.53777 0
M  V30 7994 C 772.852 -0.735836 5.17091 0
M  V30 7995 H 774.546 -0.144716 2.9905 0
M  V30 7996 H 772.092 -0.0681645 1.43839 0
M  V30 7997 H 774.045 -2.5548 3.35124 0
M  V30 7998 H 772.769 -2.49283 2.11011 0
M  V30 7999 H 771.428 -0.918892 3.54897 0
M  V30 8000 H 771.076 -3.38927 3.71669 0
M  V30 8001 H 770.776 -2.58415 5.27727 0
M  V30 8002 H 772.3 -3.47966 5.01749 0
M  V30 8003 H 773.714 -1.28105 5.58804 0
M  V30 8004 H 772.111 -0.589272 5.972 0
M  V30 8005 H 773.181 0.260004 4.84202 0
M  V30 8006 N 774.524 -1.57472 -0.0634922 0
M  V30 8007 C 775.434 -2.07621 -1.09227 0
M  V30 8008 C 776.45 -1.00746 -1.41867 0
M  V30 8009 O 777.626 -1.32269 -1.51878 0
M  V30 8010 C 774.691 -2.51707 -2.38421 0
M  V30 8011 C 773.752 -3.72917 -2.12676 0
M  V30 8012 C 772.985 -4.14891 -3.3571 0
M  V30 8013 O 773.208 -3.56663 -4.45137 0
M  V30 8014 O 772.142 -5.07616 -3.23434 0
M  V30 8015 H 775.968 -2.95612 -0.696205 0
M  V30 8016 H 773.553 -1.46787 -0.27819 0
M  V30 8017 H 775.435 -2.80547 -3.14438 0
M  V30 8018 H 774.11 -1.66842 -2.77391 0
M  V30 8019 H 773.017 -3.49148 -1.34337 0
M  V30 8020 H 774.35 -4.5866 -1.78583 0
M  V30 8021 N 776.003 0.335068 -1.53997 0
M  V30 8022 C 776.966 1.39481 -1.81872 0
M  V30 8023 C 777.966 1.4524 -0.690078 0
M  V30 8024 O 779.156 1.45467 -0.958377 0
M  V30 8025 C 776.288 2.78329 -1.9684 0
M  V30 8026 H 777.481 1.16024 -2.76547 0
M  V30 8027 H 775.034 0.569926 -1.45539 0
M  V30 8028 H 775.769 3.07058 -1.04337 0
M  V30 8029 H 775.554 2.75544 -2.78958 0
M  V30 8030 H 777.044 3.55016 -2.19894 0
M  V30 8031 N 777.481 1.45874 0.596531 0
M  V30 8032 C 778.892 1.44798 1.17857 0
M  V30 8033 C 779.243 0.181443 1.95359 0
M  V30 8034 O 778.368 -0.716336 2.042 0
M  V30 8035 C 778.963 2.62333 2.14398 0
M  V30 8036 C 777.522 2.64342 2.67955 0
M  V30 8037 C 776.669 2.37244 1.43564 0
M  V30 8038 H 779.62 1.53954 0.385222 0
M  V30 8039 H 779.641 2.37063 2.97626 0
M  V30 8040 H 779.153 3.54499 1.57963 0
M  V30 8041 H 777.254 1.76213 3.28298 0
M  V30 8042 H 777.367 3.63897 3.11634 0
M  V30 8043 H 775.731 1.87022 1.72901 0
M  V30 8044 H 776.514 3.31568 0.889805 0
M  V30 8045 N 778.959 -0.83999 1.33349 0
M  V30 8046 C 780.236 -1.57973 1.15342 0
M  V30 8047 C 780.616 -2.09226 -0.280632 0
M  V30 8048 O 779.964 -1.89317 -1.2795 0
M  V30 8049 C 780.174 -2.71446 2.19359 0
M  V30 8050 C 781.522 -3.40654 2.53456 0
M  V30 8051 O 782.546 -2.81686 2.18017 0
M  V30 8052 O 781.405 -4.47101 3.14266 0
M  V30 8053 H 778.499 -0.6964 0.446044 0
M  V30 8054 H 781.045 -0.882843 1.44927 0
M  V30 8055 H 779.817 -2.31205 3.1569 0
M  V30 8056 H 779.44 -3.488 1.90852 0
M  V30 8057 N 780.437 -1.16799 -1.0581 0
M  V30 8058 C 781.4 -0.881396 -2.11575 0
M  V30 8059 C 782.4 0.12574 -1.60308 0
M  V30 8060 O 783.59 -0.105716 -1.73879 0
M  V30 8061 C 780.722 -0.319037 -3.39404 0
M  V30 8062 H 781.915 -1.81907 -2.38432 0
M  V30 8063 H 779.468 -0.977597 -1.21954 0
M  V30 8064 H 780.203 0.626082 -3.18199 0
M  V30 8065 H 779.988 -1.04481 -3.77923 0
M  V30 8066 H 781.478 -0.13663 -4.17376 0
M  V30 8067 N 781.915 1.24427 -0.967243 0
M  V30 8068 C 783.192 1.87831 -0.545776 0
M  V30 8069 C 783.572 1.87126 0.977099 0
M  V30 8070 O 782.92 1.34357 1.84826 0
M  V30 8071 C 783.13 3.29967 -1.13679 0
M  V30 8072 C 784.478 4.06654 -1.22139 0
M  V30 8073 O 785.502 3.39136 -1.08926 0
M  V30 8074 O 784.361 5.27455 -1.43017 0
M  V30 8075 H 781.455 0.806745 -0.181912 0
M  V30 8076 H 784.001 1.32403 -1.06148 0
M  V30 8077 H 782.773 3.24977 -2.17958 0
M  V30 8078 H 782.396 3.92969 -0.605093 0
M  V30 8079 N 783.393 0.737304 1.3929 0
M  V30 8080 C 784.303 0.100464 2.34385 0
M  V30 8081 C 785.319 -0.719282 1.58437 0
M  V30 8082 O 786.495 -0.647216 1.90717 0
M  V30 8083 C 783.56 -0.794325 3.37478 0
M  V30 8084 C 782.621 0.0379345 4.29283 0
M  V30 8085 C 781.854 -0.814241 5.27452 0
M  V30 8086 O 782.077 -2.05288 5.32177 0
M  V30 8087 O 781.011 -0.241679 6.01415 0
M  V30 8088 H 784.837 0.885407 2.90507 0
M  V30 8089 H 782.422 0.497999 1.40856 0
M  V30 8090 H 784.304 -1.30622 4.00644 0
M  V30 8091 H 782.979 -1.55804 2.83737 0
M  V30 8092 H 781.886 0.595405 3.69331 0
M  V30 8093 H 783.219 0.763926 4.86236 0
M  V30 8094 N 784.871 -1.49948 0.485112 0
M  V30 8095 C 785.801 -2.31675 -0.291364 0
M  V30 8096 C 786.782 -1.39216 -0.977383 0
M  V30 8097 O 787.967 -1.68133 -0.971855 0
M  V30 8098 C 785.097 -3.19326 -1.36558 0
M  V30 8099 C 784.051 -4.2045 -0.800359 0
M  V30 8100 C 783.377 -4.96931 -1.97391 0
M  V30 8101 C 784.677 -5.21925 0.197867 0
M  V30 8102 H 786.371 -2.96839 0.390775 0
M  V30 8103 H 783.917 -1.42749 0.189375 0
M  V30 8104 H 785.87 -3.75304 -1.91638 0
M  V30 8105 H 784.594 -2.52074 -2.07668 0
M  V30 8106 H 783.253 -3.65594 -0.271428 0
M  V30 8107 H 782.901 -4.26141 -2.67232 0
M  V30 8108 H 782.601 -5.65344 -1.60187 0
M  V30 8109 H 784.125 -5.55749 -2.52935 0
M  V30 8110 H 785.539 -5.72691 -0.264239 0
M  V30 8111 H 783.936 -5.98138 0.484908 0
M  V30 8112 H 785.006 -4.71809 1.11912 0
M  V30 8113 N 786.349 -0.21828 -1.56081 0
M  V30 8114 C 787.76 0.290166 -1.84431 0
M  V30 8115 C 788.111 1.59712 -1.13958 0
M  V30 8116 O 787.236 2.12516 -0.40815 0
M  V30 8117 C 787.831 0.53325 -3.34577 0
M  V30 8118 C 786.39 0.986011 -3.63256 0
M  V30 8119 C 785.537 0.0472798 -2.7726 0
M  V30 8120 H 788.488 -0.441548 -1.52434 0
M  V30 8121 H 788.509 1.37967 -3.54606 0
M  V30 8122 H 788.021 -0.418137 -3.85841 0
M  V30 8123 H 786.122 1.95087 -3.17446 0
M  V30 8124 H 786.235 0.862684 -4.71269 0
M  V30 8125 H 784.599 0.553471 -2.48614 0
M  V30 8126 H 785.382 -0.898966 -3.31321 0
M  V30 8127 N 787.827 1.57504 0.0551401 0
M  V30 8128 C 788.774 2.04825 1.06373 0
M  V30 8129 C 789.744 0.932108 1.37481 0
M  V30 8130 O 790.929 1.20093 1.48265 0
M  V30 8131 C 788.069 2.51091 2.36743 0
M  V30 8132 C 787.182 3.76392 2.12021 0
M  V30 8133 C 786.317 4.11373 3.36074 0
M  V30 8134 C 785.356 5.29666 3.0679 0
M  V30 8135 N 784.493 5.60205 4.2322 0
M  V30 8136 H 789.333 2.90753 0.653216 0
M  V30 8137 H 786.87 1.43776 0.310951 0
M  V30 8138 H 788.828 2.75973 3.12881 0
M  V30 8139 H 787.458 1.68118 2.75565 0
M  V30 8140 H 786.51 3.58751 1.26498 0
M  V30 8141 H 787.822 4.62662 1.86401 0
M  V30 8142 H 786.976 4.37245 4.20597 0
M  V30 8143 H 785.715 3.23704 3.64784 0
M  V30 8144 H 784.72 5.03574 2.20664 0
M  V30 8145 H 785.945 6.18968 2.79385 0
M  V30 8146 H 783.891 4.75495 4.5193 0
M  V30 8147 H 783.808 6.40928 4.00933 0
M  V30 8148 H 785.076 5.90637 5.08692 0
M  V30 8149 N 789.305 -0.326896 1.54172 0
M  V30 8150 C 790.553 -1.06313 1.71878 0
M  V30 8151 C 790.874 -1.88652 0.493498 0
M  V30 8152 O 790.144 -1.89608 -0.492522 0
M  V30 8153 H 788.724 -0.39549 0.633716 0
M  V30 8154 H 791.386 -0.364139 1.91468 0
M  V30 8155 H 790.482 -1.73105 2.59694 0
M  V30 8156 N 790.784 -1.46188 -0.588786 0
M  V30 8157 C 791.694 -1.58865 -1.72624 0
M  V30 8158 C 792.71 -0.472348 -1.67466 0
M  V30 8159 O 793.886 -0.735638 -1.87484 0
M  V30 8160 C 790.951 -1.56989 -3.0912 0
M  V30 8161 C 790.012 -2.79804 -3.25589 0
M  V30 8162 C 789.245 -2.78009 -4.55573 0
M  V30 8163 O 789.468 -1.86406 -5.39082 0
M  V30 8164 O 788.402 -3.6947 -4.75159 0
M  V30 8165 H 792.228 -2.55047 -1.64878 0
M  V30 8166 H 789.813 -1.28912 -0.755115 0
M  V30 8167 H 791.695 -1.58618 -3.90408 0
M  V30 8168 H 790.37 -0.639648 -3.17317 0
M  V30 8169 H 789.277 -2.83732 -2.43818 0
M  V30 8170 H 790.61 -3.72017 -3.22279 0
M  V30 8171 N 792.262 0.832906 -1.33792 0
M  V30 8172 C 793.509 1.58853 -1.25586 0
M  V30 8173 C 793.837 1.93695 0.176807 0
M  V30 8174 O 793.092 1.59386 1.13554 0
M  V30 8175 C 793.391 2.9047 -2.08235 0
M  V30 8176 C 793.057 2.74965 -3.57358 0
M  V30 8177 C 791.719 2.70444 -3.98012 0
M  V30 8178 C 794.071 2.59347 -4.52093 0
M  V30 8179 C 791.399 2.48212 -5.31608 0
M  V30 8180 C 793.751 2.38649 -5.85858 0
M  V30 8181 C 792.415 2.32533 -6.25687 0
M  V30 8182 H 791.685 0.581285 -0.459553 0
M  V30 8183 H 794.332 0.964501 -1.65438 0
M  V30 8184 H 792.637 3.57111 -1.6118 0
M  V30 8185 H 794.334 3.48001 -1.99239 0
M  V30 8186 H 790.924 2.79319 -3.25083 0
M  V30 8187 H 795.108 2.6187 -4.2159 0
M  V30 8188 H 790.364 2.41929 -5.61498 0
M  V30 8189 H 794.538 2.25549 -6.58863 0
M  V30 8190 H 792.165 2.15067 -7.29143 0
M  V30 8191 N 793.74 1.17359 1.05189 0
M  V30 8192 C 795.017 0.871914 1.75091 0
M  V30 8193 C 795.397 -0.627821 2.01548 0
M  V30 8194 O 794.745 -1.5791 1.65156 0
M  V30 8195 C 794.955 1.70687 3.04413 0
M  V30 8196 C 796.303 1.92684 3.78362 0
M  V30 8197 O 797.327 1.67645 3.14282 0
M  V30 8198 O 796.186 2.34765 4.93505 0
M  V30 8199 H 793.28 0.322831 0.761386 0
M  V30 8200 H 795.826 1.28054 1.11357 0
M  V30 8201 H 794.598 2.72405 2.80911 0
M  V30 8202 H 794.221 1.29602 3.75884 0
M  V30 8203 N 795.218 -1.23913 0.973828 0
M  V30 8204 C 796.629 -1.73992 0.677021 0
M  V30 8205 C 796.98 -1.78833 -0.807036 0
M  V30 8206 O 796.105 -1.42183 -1.63135 0
M  V30 8207 C 796.7 -3.15985 1.22226 0
M  V30 8208 C 795.259 -3.63547 0.975228 0
M  V30 8209 C 794.406 -2.42001 1.35392 0
M  V30 8210 H 797.357 -1.09529 1.14844 0
M  V30 8211 H 797.378 -3.75875 0.591489 0
M  V30 8212 H 796.89 -3.12429 2.30238 0
M  V30 8213 H 794.991 -3.72493 -0.0891047 0
M  V30 8214 H 795.104 -4.50693 1.62518 0
M  V30 8215 H 793.468 -2.42708 0.772334 0
M  V30 8216 H 794.251 -2.41122 2.44367 0
M  V30 8217 N 796.696 -0.74468 -1.38897 0
M  V30 8218 C 797.944 -0.296298 -1.99916 0
M  V30 8219 C 798.265 1.12325 -1.59399 0
M  V30 8220 O 797.535 1.76658 -0.846689 0
M  V30 8221 H 796.115 -0.106561 -0.73936 0
M  V30 8222 H 798.777 -0.956793 -1.69798 0
M  V30 8223 H 797.873 -0.352356 -3.10105 0
M  V30 8224 N 798.174 1.49689 -0.493057 0
M  V30 8225 C 799.106 2.26867 0.326195 0
M  V30 8226 C 800.119 1.33083 0.937697 0
M  V30 8227 O 801.308 1.58427 0.822382 0
M  V30 8228 C 798.408 3.0519 1.4735 0
M  V30 8229 C 797.581 4.26491 0.970767 0
M  V30 8230 C 796.64 4.86926 1.99473 0
M  V30 8231 O 795.666 5.47221 1.56647 0
M  V30 8232 N 796.868 4.75871 3.32456 0
M  V30 8233 H 799.633 2.97816 -0.335547 0
M  V30 8234 H 797.194 1.58602 -0.325129 0
M  V30 8235 H 799.186 3.42496 2.15589 0
M  V30 8236 H 797.756 2.369 2.03954 0
M  V30 8237 H 796.976 3.94036 0.113529 0
M  V30 8238 H 798.264 5.05092 0.613156 0
M  V30 8239 H 797.662 4.2797 3.69944 0
M  V30 8240 H 796.219 5.17383 3.96431 0
M  V30 8241 N 799.652 0.226554 1.55963 0
M  V30 8242 C 800.929 -0.453058 1.90281 0
M  V30 8243 C 801.309 -1.77377 1.14458 0
M  V30 8244 O 800.657 -2.27067 0.255496 0
M  V30 8245 C 800.867 -0.641108 3.43061 0
M  V30 8246 C 802.215 -0.946265 4.13921 0
M  V30 8247 O 803.239 -0.727713 3.48687 0
M  V30 8248 O 802.098 -1.36131 5.29274 0
M  V30 8249 H 799.192 -0.240242 0.791336 0
M  V30 8250 H 801.738 0.26911 1.67553 0
M  V30 8251 H 800.51 0.290283 3.90222 0
M  V30 8252 H 800.133 -1.41458 3.71585 0
M  V30 8253 N 801.13 -1.57531 -0.0467866 0
M  V30 8254 C 802.358 -1.92696 -0.753371 0
M  V30 8255 C 802.773 -0.824792 -1.69831 0
M  V30 8256 O 802.13 0.200155 -1.81399 0
M  V30 8257 C 802.181 -3.27728 -1.52566 0
M  V30 8258 O 801.902 -4.3371 -0.618674 0
M  V30 8259 C 803.403 -3.77066 -2.33101 0
M  V30 8260 H 800.623 -0.636367 -0.212788 0
M  V30 8261 H 803.167 -2.04498 -0.00959361 0
M  V30 8262 H 801.322 -3.17378 -2.22148 0
M  V30 8263 H 801.736 -5.11548 -1.15839 0
M  V30 8264 H 803.21 -4.74109 -2.82709 0
M  V30 8265 H 803.687 -3.07348 -3.13741 0
M  V30 8266 H 804.293 -3.90442 -1.68628 0
M  V30 8267 N 802.608 0.318715 -1.54344 0
M  V30 8268 C 803.838 1.07394 -1.76494 0
M  V30 8269 C 804.246 1.82031 -0.515881 0
M  V30 8270 O 803.589 1.7609 0.52325 0
M  V30 8271 C 803.651 2.11401 -2.90775 0
M  V30 8272 C 803.315 1.56118 -4.29507 0
M  V30 8273 C 804.312 1.00043 -5.10184 0
M  V30 8274 C 801.997 1.60215 -4.76063 0
M  V30 8275 C 803.991 0.487993 -6.35529 0
M  V30 8276 C 801.678 1.08584 -6.01376 0
M  V30 8277 C 802.676 0.529714 -6.80943 0
M  V30 8278 O 802.364 0.0211823 -8.03897 0
M  V30 8279 H 802.096 0.325061 -0.592715 0
M  V30 8280 H 804.65 0.36901 -2.02058 0
M  V30 8281 H 802.88 2.85524 -2.60793 0
M  V30 8282 H 804.569 2.72683 -3.00664 0
M  V30 8283 H 805.335 0.961811 -4.75367 0
M  V30 8284 H 801.214 2.02441 -4.14172 0
M  V30 8285 H 804.758 0.0532608 -6.9758 0
M  V30 8286 H 800.655 1.12155 -6.35682 0
M  V30 8287 H 801.423 0.136151 -8.18387 0
M  V30 8288 N 804.086 1.46499 0.581025 0
M  V30 8289 C 805.018 1.53225 1.70455 0
M  V30 8290 C 806.031 0.420443 1.57277 0
M  V30 8291 O 807.22 0.688888 1.64671 0
M  V30 8292 C 804.32 1.39803 3.08721 0
M  V30 8293 C 803.493 2.65132 3.47884 0
M  V30 8294 C 802.552 2.45886 4.65217 0
M  V30 8295 O 801.578 3.19615 4.70993 0
M  V30 8296 N 802.78 1.5216 5.60203 0
M  V30 8297 H 805.545 2.50098 1.65139 0
M  V30 8298 H 803.106 1.42576 0.76705 0
M  V30 8299 H 805.098 1.24697 3.8501 0
M  V30 8300 H 803.668 0.51104 3.08394 0
M  V30 8301 H 802.888 2.95169 2.61284 0
M  V30 8302 H 804.176 3.48385 3.70817 0
M  V30 8303 H 803.574 0.913646 5.58273 0
M  V30 8304 H 802.131 1.43017 6.35916 0
M  V30 8305 N 805.565 -0.825799 1.34232 0
M  V30 8306 C 806.515 -1.92533 1.22128 0
M  V30 8307 C 807.499 -1.60444 0.121002 0
M  V30 8308 O 808.691 -1.73497 0.350385 0
M  V30 8309 C 805.82 -3.29134 0.975995 0
M  V30 8310 C 804.906 -3.6735 2.11931 0
M  V30 8311 N 805.297 -3.77154 3.37029 0
M  V30 8312 C 803.595 -3.97179 2.02891 0
M  V30 8313 C 804.296 -4.10552 4.12095 0
M  V30 8314 N 803.272 -4.23619 3.40658 0
M  V30 8315 H 807.074 -1.98287 2.16932 0
M  V30 8316 H 804.588 -1.01929 1.26429 0
M  V30 8317 H 806.585 -4.07717 0.870187 0
M  V30 8318 H 805.245 -3.24679 0.036606 0
M  V30 8319 H 806.256 -3.60723 3.71618 0
M  V30 8320 H 802.933 -4.00861 1.16692 0
M  V30 8321 H 804.323 -4.25365 5.2011 0
M  V30 8322 N 807.043 -1.17915 -1.04565 0
M  V30 8323 C 808.454 -0.976383 -1.59134 0
M  V30 8324 C 808.805 0.475267 -1.90357 0
M  V30 8325 O 807.93 1.35172 -1.6899 0
M  V30 8326 C 808.525 -1.76604 -2.89131 0
M  V30 8327 C 807.084 -1.60777 -3.40335 0
M  V30 8328 C 806.231 -1.76369 -2.13985 0
M  V30 8329 H 809.182 -1.32532 -0.872985 0
M  V30 8330 H 809.203 -1.25215 -3.59307 0
M  V30 8331 H 808.715 -2.82252 -2.66375 0
M  V30 8332 H 806.816 -0.576436 -3.68114 0
M  V30 8333 H 806.929 -2.40268 -4.14497 0
M  V30 8334 H 805.293 -1.19268 -2.25049 0
M  V30 8335 H 806.076 -2.83441 -1.9369 0
M  V30 8336 N 808.521 1.23394 -0.980386 0
M  V30 8337 C 809.932 1.73631 -0.686239 0
M  V30 8338 C 810.283 1.79259 0.797541 0
M  V30 8339 O 809.408 1.43046 1.62379 0
M  V30 8340 C 810.003 3.15332 -1.239 0
M  V30 8341 C 808.562 3.63024 -0.994494 0
M  V30 8342 C 807.709 2.41279 -1.36673 0
M  V30 8343 H 810.66 1.08918 -1.15423 0
M  V30 8344 H 810.681 3.75556 -0.611414 0
M  V30 8345 H 810.193 3.11204 -2.31892 0
M  V30 8346 H 808.294 3.72535 0.0693492 0
M  V30 8347 H 808.407 4.49825 -1.64906 0
M  V30 8348 H 806.771 2.42295 -0.785195 0
M  V30 8349 H 807.554 2.39822 -2.45642 0
M  V30 8350 N 809.999 0.752036 1.385 0
M  V30 8351 C 810.946 0.123288 2.3047 0
M  V30 8352 C 811.916 -0.711326 1.50098 0
M  V30 8353 O 813.101 -0.667775 1.78733 0
M  V30 8354 C 810.241 -0.765085 3.36512 0
M  V30 8355 C 809.354 0.0839885 4.31918 0
M  V30 8356 C 808.489 -0.807243 5.25031 0
M  V30 8357 C 807.528 0.0455583 6.12083 0
M  V30 8358 N 806.665 -0.802547 6.97498 0
M  V30 8359 H 811.505 0.913169 2.83664 0
M  V30 8360 H 809.042 0.46195 1.39658 0
M  V30 8361 H 811 -1.29476 3.966 0
M  V30 8362 H 809.63 -1.52077 2.84732 0
M  V30 8363 H 808.682 0.731276 3.73305 0
M  V30 8364 H 809.994 0.74265 4.9324 0
M  V30 8365 H 809.148 -1.40414 5.90228 0
M  V30 8366 H 807.887 -1.49964 4.64071 0
M  V30 8367 H 806.892 0.655137 5.45883 0
M  V30 8368 H 808.117 0.734994 6.75111 0
M  V30 8369 H 806.063 -1.47992 6.39089 0
M  V30 8370 H 805.98 -0.200747 7.55733 0
M  V30 8371 H 807.248 -1.38447 7.67107 0
M  V30 8372 N 811.477 -1.49425 0.500989 0
M  V30 8373 C 812.754 -1.9531 -0.106551 0
M  V30 8374 C 813.134 -1.44248 -1.54129 0
M  V30 8375 O 812.482 -0.656237 -2.18874 0
M  V30 8376 C 812.692 -3.48995 -0.0191972 0
M  V30 8377 C 814.04 -4.24161 -0.193129 0
M  V30 8378 O 815.064 -3.56075 -0.0943843 0
M  V30 8379 O 813.923 -5.45064 -0.395869 0
M  V30 8380 H 811.017 -0.82149 -0.0953068 0
M  V30 8381 H 813.563 -1.6007 0.563526 0
M  V30 8382 H 812.335 -3.78794 0.981353 0
M  V30 8383 H 811.958 -3.90852 -0.72942 0
M  V30 8384 N 812.955 -0.234822 -1.55841 0
M  V30 8385 C 814.18 0.400741 -2.03492 0
M  V30 8386 C 814.605 1.51618 -1.11327 0
M  V30 8387 O 813.963 1.81002 -0.103922 0
M  V30 8388 C 814.011 0.897184 -3.49261 0
M  V30 8389 O 813.115 2.00764 -3.60233 0
M  V30 8390 H 812.456 0.0890023 -0.658008 0
M  V30 8391 H 814.986 -0.357345 -2.01455 0
M  V30 8392 H 814.996 1.20356 -3.89844 0
M  V30 8393 H 813.671 0.0808639 -4.15821 0
M  V30 8394 H 812.248 1.70689 -3.31541 0
M  V30 8395 N 814.433 1.57553 0.0384317 0
M  V30 8396 C 815.658 1.93485 0.746872 0
M  V30 8397 C 816.083 0.834069 1.68597 0
M  V30 8398 O 815.441 -0.210902 1.80069 0
M  V30 8399 C 815.489 3.28463 1.4881 0
M  V30 8400 O 814.593 3.20051 2.60079 0
M  V30 8401 H 813.934 0.632675 0.201539 0
M  V30 8402 H 816.464 2.046 -0.00329815 0
M  V30 8403 H 816.474 3.63132 1.86009 0
M  V30 8404 H 815.149 4.08147 0.799297 0
M  V30 8405 H 813.726 2.96998 2.25492 0
M  V30 8406 N 815.911 -0.310526 1.54511 0
M  V30 8407 C 817.159 -1.04484 1.72996 0
M  V30 8408 C 817.48 -1.88118 0.513479 0
M  V30 8409 O 816.75 -1.90119 -0.472384 0
M  V30 8410 H 815.33 -0.388747 0.637875 0
M  V30 8411 H 817.992 -0.343811 1.91844 0
M  V30 8412 H 817.088 -1.70341 2.61515 0
M  V30 8413 N 817.389 -1.46805 -0.573248 0
M  V30 8414 C 818.321 -1.54127 -1.6964 0
M  V30 8415 C 819.334 -0.428778 -1.57052 0
M  V30 8416 O 820.523 -0.697612 -1.64303 0
M  V30 8417 C 817.623 -1.41438 -3.07975 0
M  V30 8418 C 816.796 -2.66974 -3.46474 0
M  V30 8419 C 815.855 -2.48349 -4.63906 0
M  V30 8420 O 814.881 -3.22109 -4.69292 0
M  V30 8421 N 816.083 -1.55129 -5.59388 0
M  V30 8422 H 818.848 -2.50971 -1.6381 0
M  V30 8423 H 816.409 -1.42981 -0.759479 0
M  V30 8424 H 818.401 -1.26737 -3.84343 0
M  V30 8425 H 816.971 -0.527388 -3.08119 0
M  V30 8426 H 816.191 -2.9655 -2.59715 0
M  V30 8427 H 817.479 -3.50347 -3.68964 0
M  V30 8428 H 816.877 -0.94324 -5.57781 0
M  V30 8429 H 815.434 -1.46387 -6.35149 0
M  V30 8430 N 818.867 0.818669 -1.34668 0
M  V30 8431 C 819.817 1.91882 -1.23147 0
M  V30 8432 C 820.801 1.60378 -0.129509 0
M  V30 8433 O 821.993 1.73309 -0.359581 0
M  V30 8434 C 819.122 3.28612 -0.993436 0
M  V30 8435 C 818.208 3.66221 -2.13876 0
M  V30 8436 N 818.599 3.75361 -3.39024 0
M  V30 8437 C 816.897 3.96098 -2.04994 0
M  V30 8438 C 817.598 4.0836 -4.14266 0
M  V30 8439 N 816.574 4.21806 -3.429 0
M  V30 8440 H 820.376 1.97133 -2.17981 0
M  V30 8441 H 817.89 1.01257 -1.26967 0
M  V30 8442 H 819.887 4.0725 -0.891797 0
M  V30 8443 H 818.547 3.24655 -0.053824 0
M  V30 8444 H 819.558 3.58747 -3.73525 0
M  V30 8445 H 816.235 4.00236 -1.18816 0
M  V30 8446 H 817.625 4.226 -5.22359 0
M  V30 8447 N 820.346 1.18468 1.03938 0
M  V30 8448 C 821.592 0.982286 1.77423 0
M  V30 8449 C 821.925 -0.48679 1.88 0
M  V30 8450 O 821.2 -1.36146 1.38905 0
M  V30 8451 C 821.483 1.63929 3.20623 0
M  V30 8452 C 821.336 3.18132 3.17982 0
M  V30 8453 C 822.655 1.3536 4.18767 0
M  V30 8454 H 819.774 0.358264 0.644062 0
M  V30 8455 H 822.416 1.46154 1.21405 0
M  V30 8456 H 820.566 1.2318 3.68455 0
M  V30 8457 H 822.238 3.68024 2.78129 0
M  V30 8458 H 820.481 3.50225 2.55978 0
M  V30 8459 H 821.152 3.5924 4.19107 0
M  V30 8460 H 823.628 1.70669 3.79488 0
M  V30 8461 H 822.504 1.83896 5.17178 0
M  V30 8462 H 822.765 0.276722 4.41233 0
M  V30 8463 N 821.824 -1.22873 0.986916 0
M  V30 8464 C 823.101 -1.86939 0.575589 0
M  V30 8465 C 823.481 -1.88656 -0.947205 0
M  V30 8466 O 822.829 -1.3728 -1.82665 0
M  V30 8467 C 823.039 -3.28117 1.18914 0
M  V30 8468 C 824.387 -4.04659 1.28593 0
M  V30 8469 O 825.411 -3.3736 1.14308 0
M  V30 8470 O 824.27 -5.25112 1.51391 0
M  V30 8471 H 821.364 -0.803748 0.194724 0
M  V30 8472 H 823.91 -1.30698 1.08241 0
M  V30 8473 H 822.682 -3.21468 2.231 0
M  V30 8474 H 822.305 -3.91956 0.667535 0
M  V30 8475 N 823.302 -0.75937 -1.38099 0
M  V30 8476 C 824.548 -0.318584 -2.00282 0
M  V30 8477 C 824.881 1.09854 -1.60143 0
M  V30 8478 O 824.156 1.75344 -0.841702 0
M  V30 8479 C 824.439 -0.448047 -3.57302 0
M  V30 8480 C 824.292 -1.9067 -4.07388 0
M  V30 8481 C 825.611 0.155119 -4.39827 0
M  V30 8482 H 822.73 -0.117233 -0.727616 0
M  V30 8483 H 825.372 -0.960097 -1.63958 0
M  V30 8484 H 823.522 0.0981003 -3.88376 0
M  V30 8485 H 825.194 -2.5116 -3.86932 0
M  V30 8486 H 823.437 -2.41979 -3.6004 0
M  V30 8487 H 824.108 -1.94841 -5.1647 0
M  V30 8488 H 826.584 -0.31073 -4.14938 0
M  V30 8489 H 825.46 0.0343264 -5.48889 0
M  V30 8490 H 825.721 1.24407 -4.24235 0
M  V30 8491 N 824.78 1.49157 -0.508906 0
M  V30 8492 C 826.005 2.07376 0.0315182 0
M  V30 8493 C 826.43 1.36575 1.2934 0
M  V30 8494 O 825.788 0.424963 1.76249 0
M  V30 8495 C 825.836 3.59661 0.260118 0
M  V30 8496 O 824.94 3.90255 1.33322 0
M  V30 8497 H 824.281 0.663334 -0.029739 0
M  V30 8498 H 826.811 1.91857 -0.710791 0
M  V30 8499 H 826.821 4.05056 0.489225 0
M  V30 8500 H 825.496 4.10601 -0.661794 0
M  V30 8501 H 824.073 3.56661 1.08844 0
M  V30 8502 N 826.258 0.243083 1.55714 0
M  V30 8503 C 827.669 -0.260788 1.8487 0
M  V30 8504 C 828.02 -1.57879 1.16485 0
M  V30 8505 O 827.145 -2.1184 0.441908 0
M  V30 8506 C 827.74 -0.479954 3.35383 0
M  V30 8507 C 826.299 -0.928096 3.64778 0
M  V30 8508 C 825.446 -0.00316416 2.773 0
M  V30 8509 H 828.397 0.465743 1.51712 0
M  V30 8510 H 828.418 -1.32308 3.56756 0
M  V30 8511 H 827.93 0.479468 3.85127 0
M  V30 8512 H 826.031 -1.90012 3.20509 0
M  V30 8513 H 826.144 -0.7876 4.72582 0
M  V30 8514 H 824.508 -0.513849 2.49463 0
M  V30 8515 H 825.291 0.951562 3.29849 0
M  V30 8516 N 827.736 -1.57571 -0.0300757 0
M  V30 8517 C 828.964 -1.93485 -0.732891 0
M  V30 8518 C 829.379 -0.842758 -1.68947 0
M  V30 8519 O 828.736 0.180904 -1.81601 0
M  V30 8520 C 828.787 -3.29328 -1.49082 0
M  V30 8521 O 828.508 -4.34341 -0.572639 0
M  V30 8522 C 830.009 -3.79517 -2.29088 0
M  V30 8523 H 827.229 -0.638588 -0.206026 0
M  V30 8524 H 829.773 -2.04496 0.0120966 0
M  V30 8525 H 827.928 -3.19716 -2.1877 0
M  V30 8526 H 828.342 -5.12748 -1.10406 0
M  V30 8527 H 829.816 -4.77081 -2.77665 0
M  V30 8528 H 830.293 -3.10659 -3.10464 0
M  V30 8529 H 830.899 -3.92208 -1.64477 0
M  V30 8530 N 829.214 0.302327 -1.54673 0
M  V30 8531 C 830.439 1.06103 -1.78205 0
M  V30 8532 C 830.864 1.80204 -0.53926 0
M  V30 8533 O 830.222 1.73975 0.510142 0
M  V30 8534 C 830.27 2.01829 -2.98827 0
M  V30 8535 O 829.374 3.10108 -2.71858 0
M  V30 8536 H 828.715 0.30487 -0.589873 0
M  V30 8537 H 831.245 0.340153 -2.01753 0
M  V30 8538 H 831.255 2.44319 -3.2676 0
M  V30 8539 H 829.93 1.473 -3.88942 0
M  V30 8540 H 828.507 2.72142 -2.54937 0
M  V30 8541 N 830.692 1.47107 0.565454 0
M  V30 8542 C 831.624 1.55024 1.6882 0
M  V30 8543 C 832.637 0.4371 1.56822 0
M  V30 8544 O 833.826 0.706315 1.63931 0
M  V30 8545 C 830.926 1.43069 3.0722 0
M  V30 8546 C 830.099 2.68807 3.45053 0
M  V30 8547 C 829.158 2.50806 4.62583 0
M  V30 8548 O 828.184 3.24593 4.67577 0
M  V30 8549 N 829.386 1.58093 5.58558 0
M  V30 8550 H 832.151 2.51836 1.62477 0
M  V30 8551 H 829.712 1.43382 0.751885 0
M  V30 8552 H 831.704 1.28773 3.83666 0
M  V30 8553 H 830.274 0.543721 3.07835 0
M  V30 8554 H 829.494 2.97923 2.58138 0
M  V30 8555 H 830.782 3.52298 3.67101 0
M  V30 8556 H 830.18 0.972807 5.57273 0
M  V30 8557 H 828.737 1.49753 6.34364 0
M  V30 8558 N 832.17 -0.811516 1.35101 0
M  V30 8559 C 833.586 -1.10634 1.15031 0
M  V30 8560 C 833.786 -2.01459 -0.0405379 0
M  V30 8561 O 832.842 -2.42235 -0.712635 0
M  V30 8562 C 834.155 -1.74207 2.45097 0
M  V30 8563 C 835.703 -1.8665 2.51258 0
M  V30 8564 C 836.178 -2.53638 3.81355 0
M  V30 8565 N 837.669 -2.61128 3.82579 0
M  V30 8566 C 838.404 -3.13717 4.79968 0
M  V30 8567 N 837.9 -3.66782 5.87744 0
M  V30 8568 N 839.693 -3.12224 4.67411 0
M  V30 8569 H 831.844 -0.207641 2.11383 0
M  V30 8570 H 834.107 -0.154697 0.935293 0
M  V30 8571 H 833.813 -1.14936 3.32389 0
M  V30 8572 H 833.687 -2.73958 2.59281 0
M  V30 8573 H 836.074 -2.45066 1.64398 0
M  V30 8574 H 836.155 -0.857678 2.40993 0
M  V30 8575 H 835.799 -1.95873 4.68611 0
M  V30 8576 H 835.729 -3.55047 3.88907 0
M  V30 8577 H 838.22 -2.23527 3.04703 0
M  V30 8578 H 838.533 -4.05194 6.58056 0
M  V30 8579 H 836.878 -3.64994 5.91443 0
M  V30 8580 H 840.069 -2.70042 3.82354 0
M  V30 8581 H 840.242 -3.52903 5.43474 0
M  V30 8582 N 833.648 -1.19017 -1.03309 0
M  V30 8583 C 834.578 -0.94772 -2.13402 0
M  V30 8584 C 835.559 0.117383 -1.69694 0
M  V30 8585 O 836.744 -0.0367733 -1.94165 0
M  V30 8586 C 833.874 -0.480977 -3.43953 0
M  V30 8587 C 832.828 -1.48743 -4.01322 0
M  V30 8588 C 832.154 -0.877924 -5.27443 0
M  V30 8589 C 833.454 -2.86642 -4.36616 0
M  V30 8590 H 835.148 -1.86846 -2.33942 0
M  V30 8591 H 832.694 -0.899781 -1.12427 0
M  V30 8592 H 834.647 -0.298677 -4.2034 0
M  V30 8593 H 833.371 0.475348 -3.23122 0
M  V30 8594 H 832.03 -1.65681 -3.27025 0
M  V30 8595 H 831.678 0.0858232 -5.02927 0
M  V30 8596 H 831.378 -1.54996 -5.66789 0
M  V30 8597 H 832.902 -0.706326 -6.06501 0
M  V30 8598 H 834.316 -2.73312 -5.03958 0
M  V30 8599 H 832.713 -3.50599 -4.87032 0
M  V30 8600 H 833.783 -3.39617 -3.46105 0
M  V30 8601 N 835.127 1.22348 -0.993418 0
M  V30 8602 C 836.059 2.23626 -0.502404 0
M  V30 8603 C 837.072 1.57739 0.402784 0
M  V30 8604 O 838.261 1.77321 0.204835 0
M  V30 8605 C 835.361 3.37647 0.291118 0
M  V30 8606 C 834.534 4.33121 -0.610332 0
M  V30 8607 C 833.593 5.26035 0.131572 0
M  V30 8608 O 832.619 5.67145 -0.483199 0
M  V30 8609 N 833.821 5.63023 1.41371 0
M  V30 8610 H 836.586 2.66385 -1.37329 0
M  V30 8611 H 834.147 1.36653 -0.868196 0
M  V30 8612 H 836.139 3.96792 0.796107 0
M  V30 8613 H 834.709 2.93967 1.0631 0
M  V30 8614 H 833.929 3.72287 -1.29598 0
M  V30 8615 H 835.217 4.93853 -1.22422 0
M  V30 8616 H 834.615 5.31596 1.93449 0
M  V30 8617 H 833.172 6.24582 1.86388 0
M  V30 8618 N 836.605 0.766683 1.37694 0
M  V30 8619 C 837.535 0.163432 2.32927 0
M  V30 8620 C 838.516 -0.688861 1.55527 0
M  V30 8621 O 839.701 -0.627363 1.83787 0
M  V30 8622 C 836.831 -0.720416 3.39746 0
M  V30 8623 C 835.785 0.0301718 4.27989 0
M  V30 8624 C 835.111 -0.972788 5.25776 0
M  V30 8625 C 836.411 1.20623 5.0818 0
M  V30 8626 H 838.105 0.958988 2.83626 0
M  V30 8627 H 835.651 0.462601 1.36367 0
M  V30 8628 H 837.604 -1.15221 4.05342 0
M  V30 8629 H 836.328 -1.54844 2.8756 0
M  V30 8630 H 834.987 0.442685 3.63917 0
M  V30 8631 H 834.635 -1.79522 4.69873 0
M  V30 8632 H 834.335 -0.475145 5.85676 0
M  V30 8633 H 835.859 -1.40362 5.94248 0
M  V30 8634 H 837.273 0.851341 5.66944 0
M  V30 8635 H 835.67 1.63561 5.7738 0
M  V30 8636 H 836.74 2.01281 4.41151 0
M  V30 8637 N 838.083 -1.48885 0.516809 0
M  V30 8638 C 839.013 -2.32241 -0.242157 0
M  V30 8639 C 839.994 -1.41258 -0.947633 0
M  V30 8640 O 841.179 -1.70156 -0.935973 0
M  V30 8641 C 838.309 -3.22151 -1.29754 0
M  V30 8642 C 837.263 -4.22053 -0.710995 0
M  V30 8643 C 836.589 -5.01007 -1.86806 0
M  V30 8644 C 837.889 -5.21388 0.30853 0
M  V30 8645 H 839.583 -2.95943 0.453651 0
M  V30 8646 H 837.129 -1.42316 0.219612 0
M  V30 8647 H 839.082 -3.79284 -1.83634 0
M  V30 8648 H 837.806 -2.56423 -2.02274 0
M  V30 8649 H 836.465 -3.66087 -0.193819 0
M  V30 8650 H 836.113 -4.31713 -2.58133 0
M  V30 8651 H 835.813 -5.68615 -1.48159 0
M  V30 8652 H 837.337 -5.60989 -2.4109 0
M  V30 8653 H 838.751 -5.73122 -0.142703 0
M  V30 8654 H 837.148 -5.96975 0.611673 0
M  V30 8655 H 838.218 -4.69329 1.21894 0
M  V30 8656 N 839.561 -0.251338 -1.55583 0
M  V30 8657 C 840.471 0.656978 -2.25213 0
M  V30 8658 C 841.487 1.18966 -1.26977 0
M  V30 8659 O 842.663 1.22499 -1.59862 0
M  V30 8660 C 839.728 1.83527 -2.94141 0
M  V30 8661 C 838.789 1.34162 -4.07798 0
M  V30 8662 C 838.022 2.46375 -4.73429 0
M  V30 8663 O 838.245 3.65205 -4.38157 0
M  V30 8664 O 837.179 2.15881 -5.61853 0
M  V30 8665 H 841.005 0.0936395 -3.03556 0
M  V30 8666 H 838.59 -0.0196638 -1.49387 0
M  V30 8667 H 840.472 2.52279 -3.3754 0
M  V30 8668 H 839.147 2.38614 -2.18735 0
M  V30 8669 H 838.054 0.621249 -3.68906 0
M  V30 8670 H 839.387 0.836779 -4.85035 0
M  V30 8671 N 841.039 1.57585 0.0217189 0
M  V30 8672 C 842.45 1.7787 0.567377 0
M  V30 8673 C 842.801 0.883337 1.7519 0
M  V30 8674 O 841.926 0.0800819 2.16252 0
M  V30 8675 C 842.521 3.2257 1.03606 0
M  V30 8676 C 841.08 3.44026 1.52718 0
M  V30 8677 C 840.227 2.73313 0.468545 0
M  V30 8678 H 843.178 1.57377 -0.2045 0
M  V30 8679 H 843.199 3.29488 1.9031 0
M  V30 8680 H 842.711 3.87711 0.173739 0
M  V30 8681 H 840.812 2.8407 2.41111 0
M  V30 8682 H 840.925 4.52659 1.56962 0
M  V30 8683 H 839.289 2.37299 0.925263 0
M  V30 8684 H 840.072 3.41141 -0.384438 0
M  V30 8685 N 842.517 -0.29412 1.54831 0
M  V30 8686 C 843.764 -1.02846 1.74439 0
M  V30 8687 C 844.092 -1.87029 0.533905 0
M  V30 8688 O 843.347 -1.8962 -0.484035 0
M  V30 8689 C 843.646 -1.95782 2.99006 0
M  V30 8690 C 843.312 -1.2752 4.32492 0
M  V30 8691 C 841.974 -1.08637 4.68777 0
M  V30 8692 C 844.326 -0.787761 5.15212 0
M  V30 8693 C 841.654 -0.39704 5.85355 0
M  V30 8694 C 844.006 -0.112123 6.32501 0
M  V30 8695 C 842.67 0.0886071 6.67441 0
M  V30 8696 H 841.94 -0.376341 0.638317 0
M  V30 8697 H 844.587 -0.302684 1.89093 0
M  V30 8698 H 842.892 -2.74911 2.79162 0
M  V30 8699 H 844.589 -2.52684 3.11371 0
M  V30 8700 H 841.179 -1.43226 4.03961 0
M  V30 8701 H 845.363 -0.921341 4.87673 0
M  V30 8702 H 840.619 -0.230597 6.10965 0
M  V30 8703 H 844.793 0.27344 6.95863 0
M  V30 8704 H 842.42 0.624748 7.57628 0
M  V30 8705 N 843.995 -1.47404 -0.557645 0
M  V30 8706 C 845.272 -1.44488 -1.31843 0
M  V30 8707 C 845.652 -0.1416 -2.10625 0
M  V30 8708 O 845 0.876908 -2.11004 0
M  V30 8709 C 845.21 -2.69016 -2.22331 0
M  V30 8710 C 846.558 -3.16212 -2.83364 0
M  V30 8711 O 847.582 -2.69741 -2.32634 0
M  V30 8712 O 846.441 -3.96999 -3.75571 0
M  V30 8713 H 843.535 -0.57578 -0.593639 0
M  V30 8714 H 846.081 -1.59605 -0.576584 0
M  V30 8715 H 844.853 -3.55406 -1.63715 0
M  V30 8716 H 844.476 -2.56484 -3.03812 0
M  V30 8717 N 845.473 0.80434 -1.35529 0
M  V30 8718 C 846.42 1.91629 -1.28635 0
M  V30 8719 C 847.39 1.65348 -0.157862 0
M  V30 8720 O 848.575 1.87711 -0.341934 0
M  V30 8721 C 845.715 3.28207 -1.0665 0
M  V30 8722 C 844.828 3.66659 -2.28441 0
M  V30 8723 C 843.963 4.92279 -1.99588 0
M  V30 8724 C 843.002 5.23365 -3.1742 0
M  V30 8725 N 842.139 6.40165 -2.88328 0
M  V30 8726 H 846.979 1.96858 -2.23721 0
M  V30 8727 H 844.516 0.962871 -1.11208 0
M  V30 8728 H 846.474 4.06945 -0.919343 0
M  V30 8729 H 845.104 3.22441 -0.152253 0
M  V30 8730 H 844.156 2.83164 -2.54013 0
M  V30 8731 H 845.468 3.8559 -3.1642 0
M  V30 8732 H 844.622 5.78847 -1.81715 0
M  V30 8733 H 843.361 4.75387 -1.08896 0
M  V30 8734 H 842.366 4.35285 -3.35867 0
M  V30 8735 H 843.591 5.42185 -4.08916 0
M  V30 8736 H 841.537 6.24694 -2.00233 0
M  V30 8737 H 841.454 6.59357 -3.69843 0
M  V30 8738 H 842.722 7.29755 -2.74002 0
M  V30 8739 N 846.951 1.19563 1.02676 0
M  V30 8740 C 848.197 1.01108 1.7649 0
M  V30 8741 C 848.552 -0.453152 1.86987 0
M  V30 8742 O 847.845 -1.33209 1.37717 0
M  V30 8743 C 848.039 1.61619 3.18769 0
M  V30 8744 C 847.868 3.13774 3.22142 0
M  V30 8745 C 846.638 3.82687 3.29968 0
M  V30 8746 C 848.836 4.11114 3.09014 0
M  V30 8747 N 846.818 5.2222 3.22737 0
M  V30 8748 C 848.189 5.37259 3.0944 0
M  V30 8749 C 850.244 4.02447 2.93157 0
M  V30 8750 C 848.947 6.55738 2.95636 0
M  V30 8751 C 850.973 5.20538 2.80703 0
M  V30 8752 C 850.335 6.45582 2.81785 0
M  V30 8753 H 846.434 0.424123 0.656996 0
M  V30 8754 H 849.018 1.5157 1.22207 0
M  V30 8755 H 847.189 1.13756 3.71368 0
M  V30 8756 H 848.921 1.36579 3.80957 0
M  V30 8757 H 845.676 3.3349 3.36275 0
M  V30 8758 H 846.1 5.95238 3.22523 0
M  V30 8759 H 850.742 3.0659 2.9114 0
M  V30 8760 H 848.46 7.51778 2.96403 0
M  V30 8761 H 852.046 5.15635 2.69466 0
M  V30 8762 H 850.926 7.35423 2.72254 0
M  V30 8763 N 848.429 -1.21819 0.999893 0
M  V30 8764 C 849.706 -1.86318 0.595384 0
M  V30 8765 C 850.086 -1.8965 -0.927143 0
M  V30 8766 O 849.434 -1.3921 -1.81199 0
M  V30 8767 C 849.644 -3.26837 1.22387 0
M  V30 8768 C 850.992 -4.03272 1.32878 0
M  V30 8769 O 852.016 -3.36129 1.1788 0
M  V30 8770 O 850.875 -5.23477 1.56952 0
M  V30 8771 H 847.969 -0.801638 0.203238 0
M  V30 8772 H 850.515 -1.29542 1.09622 0
M  V30 8773 H 849.287 -3.19084 2.26497 0
M  V30 8774 H 848.91 -3.91226 0.709069 0
M  V30 8775 N 849.908 -0.773975 -1.37286 0
M  V30 8776 C 851.156 -0.338636 -1.99243 0
M  V30 8777 C 851.477 1.08919 -1.61746 0
M  V30 8778 O 850.747 1.74822 -0.88397 0
M  V30 8779 H 849.327 -0.12222 -0.736934 0
M  V30 8780 H 851.989 -0.992595 -1.67731 0
M  V30 8781 H 851.085 -0.418055 -3.09287 0
M  V30 8782 N 851.386 1.48609 -0.524698 0
M  V30 8783 C 852.333 2.29539 0.240956 0
M  V30 8784 C 853.303 1.37033 0.938681 0
M  V30 8785 O 854.488 1.65996 0.940737 0
M  V30 8786 C 851.628 3.20278 1.28514 0
M  V30 8787 C 850.741 4.27858 0.596798 0
M  V30 8788 C 849.876 5.05784 1.62346 0
M  V30 8789 C 848.915 6.05173 0.918287 0
M  V30 8790 N 848.052 6.76176 1.89025 0
M  V30 8791 H 852.892 2.945 -0.455368 0
M  V30 8792 H 850.429 1.45188 -0.236403 0
M  V30 8793 H 852.387 3.71281 1.90279 0
M  V30 8794 H 851.017 2.57251 1.94992 0
M  V30 8795 H 850.069 3.80162 -0.134668 0
M  V30 8796 H 851.381 4.98782 0.0428506 0
M  V30 8797 H 850.535 5.60775 2.31553 0
M  V30 8798 H 849.274 4.34687 2.2113 0
M  V30 8799 H 848.279 5.49391 0.21212 0
M  V30 8800 H 849.504 6.78265 0.336633 0
M  V30 8801 H 847.45 6.07834 2.46726 0
M  V30 8802 H 847.367 7.43157 1.3876 0
M  V30 8803 H 848.635 7.35759 2.57446 0
M  V30 8804 N 852.864 0.259585 1.55447 0
M  V30 8805 C 854.141 -0.412595 1.91199 0
M  V30 8806 C 854.521 -1.74909 1.18194 0
M  V30 8807 O 853.869 -2.26474 0.303603 0
M  V30 8808 C 854.079 -0.568195 3.44344 0
M  V30 8809 C 855.427 -0.858253 4.15836 0
M  V30 8810 O 856.451 -0.653588 3.50152 0
M  V30 8811 O 855.31 -1.24874 5.32042 0
M  V30 8812 H 852.404 -0.223403 0.796254 0
M  V30 8813 H 854.95 0.30459 1.66944 0
M  V30 8814 H 853.722 0.372989 3.89518 0
M  V30 8815 H 853.345 -1.33544 3.74502 0
M  V30 8816 N 854.342 -1.57594 -0.0133615 0
M  V30 8817 C 855.272 -2.10611 -1.00823 0
M  V30 8818 C 856.253 -1.01217 -1.36708 0
M  V30 8819 O 857.438 -1.28827 -1.45318 0
M  V30 8820 C 854.568 -2.59844 -2.30431 0
M  V30 8821 C 853.522 -3.73644 -2.08745 0
M  V30 8822 C 852.848 -4.09141 -3.4425 0
M  V30 8823 C 854.148 -5.01454 -1.46086 0
M  V30 8824 H 855.842 -2.93985 -0.566849 0
M  V30 8825 H 853.388 -1.41423 -0.271219 0
M  V30 8826 H 855.341 -2.95557 -3.00373 0
M  V30 8827 H 854.065 -1.73573 -2.76658 0
M  V30 8828 H 852.724 -3.38303 -1.41232 0
M  V30 8829 H 852.372 -3.19914 -3.88155 0
M  V30 8830 H 852.072 -4.85802 -3.3056 0
M  V30 8831 H 853.596 -4.47402 -4.15528 0
M  V30 8832 H 855.01 -5.35024 -2.05966 0
M  V30 8833 H 853.407 -5.82832 -1.42924 0
M  V30 8834 H 854.477 -4.83003 -0.428471 0
M  V30 8835 N 855.82 0.285905 -1.54985 0
M  V30 8836 C 856.73 1.37534 -1.90057 0
M  V30 8837 C 857.746 1.54707 -0.796348 0
M  V30 8838 O 858.922 1.69082 -1.09423 0
M  V30 8839 C 855.987 2.7167 -2.15398 0
M  V30 8840 C 855.048 2.63354 -3.39033 0
M  V30 8841 C 854.281 3.91093 -3.63155 0
M  V30 8842 O 854.504 4.91169 -2.90015 0
M  V30 8843 O 853.438 3.92075 -4.56685 0
M  V30 8844 H 857.264 1.10791 -2.8277 0
M  V30 8845 H 854.849 0.483303 -1.41367 0
M  V30 8846 H 856.731 3.51006 -2.33179 0
M  V30 8847 H 855.406 2.98226 -1.25868 0
M  V30 8848 H 854.313 1.82438 -3.26599 0
M  V30 8849 H 855.646 2.41749 -4.2874 0
M  V30 8850 N 857.298 1.47698 0.54982 0
M  V30 8851 C 858.575 1.45185 1.31075 0
M  V30 8852 C 858.955 0.152768 2.10547 0
M  V30 8853 O 858.303 -0.865706 2.11466 0
M  V30 8854 C 858.513 2.70192 2.20902 0
M  V30 8855 C 859.861 3.1771 2.81683 0
M  V30 8856 O 860.885 2.70971 2.312 0
M  V30 8857 O 859.744 3.98986 3.7346 0
M  V30 8858 H 856.838 0.57892 0.590577 0
M  V30 8859 H 859.384 1.59908 0.568112 0
M  V30 8860 H 858.156 3.56269 1.61828 0
M  V30 8861 H 857.779 2.58091 3.02448 0
M  V30 8862 N 858.776 -0.797141 1.35954 0
M  V30 8863 C 859.706 -1.92387 1.32323 0
M  V30 8864 C 860.687 -1.68967 0.196007 0
M  V30 8865 O 861.872 -1.90193 0.39245 0
M  V30 8866 C 859.002 -3.29286 1.10398 0
M  V30 8867 C 857.956 -3.67212 2.19862 0
M  V30 8868 C 857.282 -5.02377 1.8309 0
M  V30 8869 C 858.582 -3.76602 3.61896 0
M  V30 8870 H 860.276 -1.95683 2.26602 0
M  V30 8871 H 857.822 -0.94007 1.09081 0
M  V30 8872 H 859.775 -4.07721 1.06495 0
M  V30 8873 H 858.499 -3.26358 0.125668 0
M  V30 8874 H 857.158 -2.91069 2.22878 0
M  V30 8875 H 856.806 -4.95961 0.838527 0
M  V30 8876 H 856.506 -5.28722 2.56372 0
M  V30 8877 H 858.03 -5.8324 1.80729 0
M  V30 8878 H 859.444 -4.45246 3.6115 0
M  V30 8879 H 857.841 -4.14425 4.34018 0
M  V30 8880 H 858.911 -2.77906 3.97361 0
M  V30 8881 N 860.254 -1.20106 -1.0204 0
M  V30 8882 C 861.186 -0.904236 -2.10609 0
M  V30 8883 C 862.199 0.106487 -1.62451 0
M  V30 8884 O 863.388 -0.124035 -1.78069 0
M  V30 8885 C 860.488 -0.333423 -3.37256 0
M  V30 8886 C 859.661 -1.39476 -4.14566 0
M  V30 8887 C 858.72 -0.835961 -5.19517 0
M  V30 8888 O 857.746 -1.51573 -5.48648 0
M  V30 8889 N 858.948 0.356531 -5.79404 0
M  V30 8890 H 861.713 -1.8388 -2.36661 0
M  V30 8891 H 859.274 -1.10422 -1.184 0
M  V30 8892 H 861.266 0.0544571 -4.04663 0
M  V30 8893 H 859.836 0.505608 -3.08484 0
M  V30 8894 H 859.056 -1.95714 -3.42184 0
M  V30 8895 H 860.344 -2.10967 -4.63001 0
M  V30 8896 H 859.742 0.926143 -5.58067 0
M  V30 8897 H 858.299 0.686093 -6.48179 0
M  V30 8898 N 861.732 1.21287 -1.00634 0
M  V30 8899 C 862.981 1.89706 -0.685178 0
M  V30 8900 C 863.294 1.79044 0.787566 0
M  V30 8901 O 864.5 2.42502 1.22086 0
M  V30 8902 C 862.956 3.40176 -1.17508 0
M  V30 8903 C 862.564 3.59446 -2.674 0
M  V30 8904 C 864.308 4.14213 -0.928869 0
M  V30 8905 C 862.215 5.03688 -3.09923 0
M  V30 8906 H 861.145 0.710434 -0.252586 0
M  V30 8907 H 863.796 1.37277 -1.21768 0
M  V30 8908 H 862.178 3.91867 -0.570622 0
M  V30 8909 H 863.352 3.18188 -3.33306 0
M  V30 8910 H 861.667 2.98764 -2.9005 0
M  V30 8911 H 864.264 5.20546 -1.22212 0
M  V30 8912 H 864.607 4.16082 0.134859 0
M  V30 8913 H 865.14 3.68591 -1.49619 0
M  V30 8914 H 861.879 5.06968 -4.15529 0
M  V30 8915 H 861.399 5.45796 -2.4873 0
M  V30 8916 H 863.078 5.72204 -3.0198 0
M  V30 8917 N 863.21 0.781244 1.36873 0
M  V30 8918 C 864.14 0.188128 2.32741 0
M  V30 8919 C 865.121 -0.672326 1.56249 0
M  V30 8920 O 866.306 -0.607835 1.84442 0
M  V30 8921 C 863.436 -0.684341 3.40491 0
M  V30 8922 C 862.39 0.0755641 4.27933 0
M  V30 8923 C 861.716 -0.916968 5.26779 0
M  V30 8924 C 863.016 1.26006 5.06873 0
M  V30 8925 H 864.71 0.989016 2.82593 0
M  V30 8926 H 862.256 0.477038 1.35869 0
M  V30 8927 H 864.209 -1.10915 4.06541 0
M  V30 8928 H 862.933 -1.51785 2.89187 0
M  V30 8929 H 861.592 0.481258 3.63427 0
M  V30 8930 H 861.24 -1.74528 4.71751 0
M  V30 8931 H 860.94 -0.413 5.86147 0
M  V30 8932 H 862.464 -1.34052 5.95703 0
M  V30 8933 H 863.878 0.911425 5.66009 0
M  V30 8934 H 862.275 1.69676 5.75613 0
M  V30 8935 H 863.345 2.05948 4.38991 0
M  V30 8936 N 864.689 -1.48329 0.532571 0
M  V30 8937 C 865.938 -2.017 -0.00259705 0
M  V30 8938 C 866.251 -1.41469 -1.35077 0
M  V30 8939 O 867.457 -1.86354 -1.97445 0
M  V30 8940 C 865.913 -3.59858 -0.0550179 0
M  V30 8941 C 865.521 -4.29073 1.28842 0
M  V30 8942 C 867.265 -4.21066 -0.538878 0
M  V30 8943 C 865.172 -5.79171 1.19644 0
M  V30 8944 H 864.102 -0.753985 -0.00474081 0
M  V30 8945 H 866.753 -1.70565 0.676739 0
M  V30 8946 H 865.135 -3.87846 -0.799486 0
M  V30 8947 H 866.309 -4.12755 2.04865 0
M  V30 8948 H 864.624 -3.79748 1.70822 0
M  V30 8949 H 867.221 -5.31026 -0.6257 0
M  V30 8950 H 867.564 -3.86559 -1.54525 0
M  V30 8951 H 868.097 -3.97517 0.149984 0
M  V30 8952 H 864.836 -6.18257 2.17805 0
M  V30 8953 H 864.356 -5.97895 0.477609 0
M  V30 8954 H 866.035 -6.40875 0.888186 0
M  V30 8955 N 866.167 -0.267825 -1.55308 0
M  V30 8956 C 867.114 0.6228 -2.22238 0
M  V30 8957 C 868.084 1.15536 -1.19334 0
M  V30 8958 O 869.269 1.206 -1.47852 0
M  V30 8959 C 866.409 1.80447 -2.94164 0
M  V30 8960 C 865.522 1.30646 -4.11771 0
M  V30 8961 C 864.657 2.44935 -4.7136 0
M  V30 8962 C 863.696 1.92099 -5.81175 0
M  V30 8963 N 862.833 2.99834 -6.34857 0
M  V30 8964 H 867.673 0.0453874 -2.97965 0
M  V30 8965 H 865.21 0.0106371 -1.47096 0
M  V30 8966 H 867.168 2.49896 -3.34078 0
M  V30 8967 H 865.798 2.35403 -2.20874 0
M  V30 8968 H 864.85 0.505314 -3.77029 0
M  V30 8969 H 866.162 0.879409 -4.90987 0
M  V30 8970 H 865.316 3.2239 -5.13955 0
M  V30 8971 H 864.055 2.90951 -3.91406 0
M  V30 8972 H 863.06 1.13122 -5.38037 0
M  V30 8973 H 864.285 1.47027 -6.62993 0
M  V30 8974 H 862.231 3.45246 -5.578 0
M  V30 8975 H 862.148 2.61524 -7.09324 0
M  V30 8976 H 863.416 3.77286 -6.82111 0
M  V30 8977 N 867.645 1.57599 0.00500368 0
M  V30 8978 C 868.891 1.90631 0.691919 0
M  V30 8979 C 869.224 0.868443 1.737 0
M  V30 8980 O 868.499 -0.113482 1.94169 0
M  V30 8981 C 868.782 3.34255 1.33961 0
M  V30 8982 C 868.635 4.48755 0.306413 0
M  V30 8983 C 869.954 3.77211 2.26715 0
M  V30 8984 H 867.073 0.693279 0.250066 0
M  V30 8985 H 869.715 1.89946 -0.0452634 0
M  V30 8986 H 867.865 3.3497 1.96793 0
M  V30 8987 H 869.537 4.60176 -0.321841 0
M  V30 8988 H 867.78 4.32203 -0.371852 0
M  V30 8989 H 868.451 5.46193 0.798554 0
M  V30 8990 H 870.927 3.78017 1.73904 0
M  V30 8991 H 869.803 4.78466 2.69002 0
M  V30 8992 H 870.064 3.10801 3.14413 0
M  V30 8993 N 869.123 -0.277682 1.55134 0
M  V30 8994 C 870.07 -1.34313 1.87693 0
M  V30 8995 C 871.04 -1.49298 0.727973 0
M  V30 8996 O 872.225 -1.6378 0.978807 0
M  V30 8997 C 869.365 -2.69922 2.15026 0
M  V30 8998 C 868.478 -2.63197 3.42565 0
M  V30 8999 C 867.613 -3.90955 3.59622 0
M  V30 9000 C 866.652 -3.78722 4.8087 0
M  V30 9001 N 865.789 -4.98303 4.94609 0
M  V30 9002 H 870.629 -1.05847 2.78569 0
M  V30 9003 H 868.166 -0.511469 1.37922 0
M  V30 9004 H 870.124 -3.48817 2.28872 0
M  V30 9005 H 868.754 -2.966 1.2739 0
M  V30 9006 H 867.806 -1.76038 3.37216 0
M  V30 9007 H 869.118 -2.50056 4.31594 0
M  V30 9008 H 868.272 -4.78291 3.7326 0
M  V30 9009 H 867.011 -4.06957 2.6877 0
M  V30 9010 H 866.016 -2.89769 4.67241 0
M  V30 9011 H 867.241 -3.64242 5.73153 0
M  V30 9012 H 865.187 -5.14725 4.06687 0
M  V30 9013 H 865.104 -4.87675 5.77676 0
M  V30 9014 H 866.372 -5.87225 5.12628 0
M  V30 9015 N 870.601 -1.47988 -0.541979 0
M  V30 9016 C 871.849 -1.55086 -1.29587 0
M  V30 9017 C 872.17 -0.221304 -1.9374 0
M  V30 9018 O 871.44 0.756128 -1.80719 0
M  V30 9019 H 870.02 -0.571307 -0.481266 0
M  V30 9020 H 872.682 -1.8438 -0.631675 0
M  V30 9021 H 871.778 -2.32556 -2.08144 0
M  V30 9022 N 872.079 0.78992 -1.36375 0
M  V30 9023 C 873.026 1.90254 -1.3066 0
M  V30 9024 C 873.996 1.65171 -0.17539 0
M  V30 9025 O 875.181 1.87338 -0.361824 0
M  V30 9026 C 872.321 3.27057 -1.10125 0
M  V30 9027 C 871.434 3.64215 -2.32317 0
M  V30 9028 C 870.569 4.90134 -2.04798 0
M  V30 9029 C 869.608 5.19969 -3.22953 0
M  V30 9030 N 868.745 6.37071 -2.95102 0
M  V30 9031 H 873.585 1.94474 -2.25796 0
M  V30 9032 H 871.122 0.951022 -1.12223 0
M  V30 9033 H 873.08 4.05947 -0.962453 0
M  V30 9034 H 871.71 3.22261 -0.186444 0
M  V30 9035 H 870.762 2.80454 -2.57002 0
M  V30 9036 H 872.074 3.82212 -3.20492 0
M  V30 9037 H 871.228 5.76888 -1.87845 0
M  V30 9038 H 869.967 4.74205 -1.13932 0
M  V30 9039 H 868.972 4.31699 -3.40465 0
M  V30 9040 H 870.197 5.37817 -4.14644 0
M  V30 9041 H 868.143 6.22535 -2.06848 0
M  V30 9042 H 868.06 6.55398 -3.76815 0
M  V30 9043 H 869.328 7.26808 -2.81727 0
M  V30 9044 N 873.557 1.20646 1.01402 0
M  V30 9045 C 874.797 1.02951 1.7658 0
M  V30 9046 C 875.161 -0.430522 1.87111 0
M  V30 9047 O 876.362 -0.727727 2.58762 0
M  V30 9048 C 874.633 1.69728 3.14527 0
M  V30 9049 S 876.192 1.6717 4.05709 0
M  V30 9050 H 873.01 0.36911 0.607683 0
M  V30 9051 H 875.612 1.53243 1.21395 0
M  V30 9052 H 874.316 2.75162 3.0449 0
M  V30 9053 H 873.847 1.19578 3.74786 0
M  V30 9054 H 875.862 0.706397 4.91146 0
M  V30 9055 N 875.035 -1.20752 1.01276 0
M  V30 9056 C 876.263 -1.94006 0.718976 0
M  V30 9057 C 876.678 -1.74544 -0.719711 0
M  V30 9058 O 876.035 -1.05697 -1.48776 0
M  V30 9059 C 876.086 -3.46208 1.04031 0
M  V30 9060 O 875.807 -3.65031 2.42248 0
M  V30 9061 C 877.308 -4.36614 0.767032 0
M  V30 9062 H 874.528 -0.616743 0.264327 0
M  V30 9063 H 877.072 -1.53352 1.3529 0
M  V30 9064 H 875.227 -3.84756 0.451852 0
M  V30 9065 H 875.641 -4.59054 2.53712 0
M  V30 9066 H 877.115 -5.42076 1.04198 0
M  V30 9067 H 877.592 -4.38182 -0.298851 0
M  V30 9068 H 878.198 -4.03723 1.33746 0
M  V30 9069 N 876.513 -0.788492 -1.36457 0
M  V30 9070 C 877.741 -0.372365 -2.03522 0
M  V30 9071 C 878.156 1.01093 -1.59454 0
M  V30 9072 O 877.513 1.64824 -0.783535 0
M  V30 9073 C 877.564 -0.425435 -3.58988 0
M  V30 9074 O 877.285 -1.75418 -4.01448 0
M  V30 9075 C 878.786 0.000180167 -4.433 0
M  V30 9076 H 876.006 -0.1536 -0.653183 0
M  V30 9077 H 878.55 -1.06708 -1.74452 0
M  V30 9078 H 876.705 0.220856 -3.8677 0
M  V30 9079 H 877.119 -1.70437 -4.96036 0
M  V30 9080 H 878.593 -0.0880919 -5.5193 0
M  V30 9081 H 879.07 1.05269 -4.26398 0
M  V30 9082 H 879.676 -0.618563 -4.20778 0
M  V30 9083 N 877.991 1.48044 -0.54043 0
M  V30 9084 C 879.268 1.95523 0.0547302 0
M  V30 9085 C 879.648 1.48284 1.5025 0
M  V30 9086 O 878.996 0.714037 2.17057 0
M  V30 9087 C 879.206 3.48923 -0.0733393 0
M  V30 9088 C 880.554 4.24523 0.0806026 0
M  V30 9089 O 881.578 3.562 -5.58687e-05 0
M  V30 9090 O 880.437 5.45922 0.251216 0
M  V30 9091 H 877.531 0.823728 0.073493 0
M  V30 9092 H 880.077 1.5852 -0.605768 0
M  V30 9093 H 878.849 3.76059 -1.08144 0
M  V30 9094 H 878.472 3.92648 0.625536 0
M  V30 9095 N 879.47 0.276058 1.55163 0
M  V30 9096 C 880.42 -0.625549 2.19251 0
M  V30 9097 C 881.404 -1.11769 1.15744 0
M  V30 9098 O 882.596 -1.0626 1.41555 0
M  V30 9099 C 879.725 -1.80879 2.91784 0
M  V30 9100 C 878.811 -1.33379 4.0258 0
M  V30 9101 N 879.202 -0.575002 5.02521 0
M  V30 9102 C 877.5 -1.61666 4.15668 0
M  V30 9103 C 878.201 -0.325164 5.8079 0
M  V30 9104 N 877.177 -0.897851 5.36134 0
M  V30 9105 H 880.979 -0.0379943 2.93875 0
M  V30 9106 H 878.493 0.079661 1.62205 0
M  V30 9107 H 880.49 -2.466 3.36146 0
M  V30 9108 H 879.15 -2.40028 2.1867 0
M  V30 9109 H 880.161 -0.222256 5.17423 0
M  V30 9110 H 876.838 -2.21745 3.53745 0
M  V30 9111 H 878.228 0.282598 6.71305 0
M  V30 9112 N 880.948 -1.576 0.00335426 0
M  V30 9113 C 882.197 -1.89892 -0.680001 0
M  V30 9114 C 882.51 -0.878731 -1.7475 0
M  V30 9115 O 883.716 -1.09199 -2.48572 0
M  V30 9116 C 882.172 -3.37098 -1.26066 0
M  V30 9117 C 881.78 -4.4742 -0.227807 0
M  V30 9118 C 883.524 -3.78495 -1.92202 0
M  V30 9119 C 881.431 -5.85706 -0.81865 0
M  V30 9120 H 880.361 -0.708578 -0.257746 0
M  V30 9121 H 883.012 -1.83387 0.0644472 0
M  V30 9122 H 881.394 -3.38451 -2.05589 0
M  V30 9123 H 882.568 -4.57589 0.54307 0
M  V30 9124 H 880.883 -4.15064 0.333297 0
M  V30 9125 H 883.48 -4.7915 -2.37318 0
M  V30 9126 H 883.823 -3.12187 -2.75399 0
M  V30 9127 H 884.356 -3.79456 -1.19408 0
M  V30 9128 H 881.095 -6.55495 -0.0253787 0
M  V30 9129 H 880.615 -5.79196 -1.55861 0
M  V30 9130 H 882.294 -6.33469 -1.31627 0
M  V30 9131 N 882.426 0.269451 -1.5528 0
M  V30 9132 C 883.651 1.02299 -1.80415 0
M  V30 9133 C 884.076 1.7902 -0.577363 0
M  V30 9134 O 883.434 1.75018 0.473125 0
M  V30 9135 C 883.482 1.95445 -3.0304 0
M  V30 9136 O 882.586 3.04271 -2.78375 0
M  V30 9137 H 881.927 0.292289 -0.596207 0
M  V30 9138 H 884.457 0.297282 -2.02429 0
M  V30 9139 H 884.467 2.37333 -3.31869 0
M  V30 9140 H 883.142 1.39017 -3.91978 0
M  V30 9141 H 881.719 2.66673 -2.60653 0
M  V30 9142 N 883.904 1.48273 0.534124 0
M  V30 9143 C 884.867 1.6201 1.62127 0
M  V30 9144 C 885.867 0.493653 1.53035 0
M  V30 9145 O 887.057 0.759337 1.56779 0
M  V30 9146 C 884.189 1.5864 3.01739 0
M  V30 9147 H 885.382 2.58944 1.51288 0
M  V30 9148 H 882.935 1.36808 0.755861 0
M  V30 9149 H 883.67 0.631685 3.18088 0
M  V30 9150 H 883.455 2.40415 3.09747 0
M  V30 9151 H 884.945 1.71438 3.80787 0
M  V30 9152 N 885.382 -0.782676 1.36792 0
M  V30 9153 C 886.345 -1.8772 1.31507 0
M  V30 9154 C 887.345 -1.59269 0.221349 0
M  V30 9155 O 888.535 -1.67555 0.476544 0
M  V30 9156 C 885.667 -3.24641 1.04025 0
M  V30 9157 H 886.86 -1.9382 2.28853 0
M  V30 9158 H 884.413 -0.981226 1.21662 0
M  V30 9159 H 885.148 -3.24221 0.0716439 0
M  V30 9160 H 884.933 -3.46681 1.8318 0
M  V30 9161 H 886.423 -4.04711 1.02949 0
M  V30 9162 N 886.86 -1.21182 -1.00761 0
M  V30 9163 C 888.108 -1.02543 -1.74153 0
M  V30 9164 C 888.429 0.442372 -1.89916 0
M  V30 9165 O 887.699 1.31927 -1.44818 0
M  V30 9166 H 886.279 -0.37644 -0.645214 0
M  V30 9167 H 888.941 -1.52446 -1.21434 0
M  V30 9168 H 888.037 -1.49122 -2.7417 0
M  V30 9169 N 888.338 1.20213 -1.01915 0
M  V30 9170 C 889.749 1.7136 -0.741131 0
M  V30 9171 C 890.1 1.81705 0.740107 0
M  V30 9172 O 889.225 1.48139 1.57746 0
M  V30 9173 C 889.82 3.11231 -1.33869 0
M  V30 9174 C 888.379 3.59677 -1.10948 0
M  V30 9175 C 887.526 2.36809 -1.4428 0
M  V30 9176 H 890.477 1.05191 -1.1883 0
M  V30 9177 H 890.498 3.7342 -0.730585 0
M  V30 9178 H 890.01 3.03669 -2.41675 0
M  V30 9179 H 888.111 3.72568 -0.0492052 0
M  V30 9180 H 888.224 4.44351 -1.79134 0
M  V30 9181 H 886.588 2.39674 -0.861881 0
M  V30 9182 H 887.371 2.31886 -2.53148 0
M  V30 9183 N 889.816 0.795718 1.36037 0
M  V30 9184 C 891.062 0.380668 1.99806 0
M  V30 9185 C 891.417 -1.03783 1.62009 0
M  V30 9186 O 890.71 -1.70819 0.867831 0
M  V30 9187 C 890.904 0.489038 3.54038 0
M  V30 9188 C 890.733 1.91652 4.06817 0
M  V30 9189 C 889.503 2.54252 4.36674 0
M  V30 9190 C 891.701 2.87956 4.26129 0
M  V30 9191 N 889.683 3.88523 4.75314 0
M  V30 9192 C 891.054 4.07074 4.67644 0
M  V30 9193 C 893.109 2.8493 4.08313 0
M  V30 9194 C 891.812 5.23583 4.93208 0
M  V30 9195 C 893.838 4.00632 4.35027 0
M  V30 9196 C 893.2 5.18496 4.76804 0
M  V30 9197 H 889.299 0.186842 0.759351 0
M  V30 9198 H 891.883 1.03465 1.64933 0
M  V30 9199 H 890.054 -0.134893 3.88166 0
M  V30 9200 H 891.786 0.0496256 4.0467 0
M  V30 9201 H 888.541 2.05685 4.26604 0
M  V30 9202 H 888.965 4.57623 4.98909 0
M  V30 9203 H 893.607 1.94964 3.75165 0
M  V30 9204 H 891.325 6.14129 5.25234 0
M  V30 9205 H 894.911 3.99659 4.22805 0
M  V30 9206 H 893.791 6.06538 4.97073 0
M  V30 9207 N 891.294 -1.47756 0.548274 0
M  V30 9208 C 892.224 -2.32702 -0.19284 0
M  V30 9209 C 893.205 -1.43237 -0.917457 0
M  V30 9210 O 894.39 -1.72103 -0.89967 0
M  V30 9211 C 891.52 -3.24831 -1.22891 0
M  V30 9212 C 890.474 -4.23466 -0.621312 0
M  V30 9213 C 889.8 -5.04856 -1.76137 0
M  V30 9214 C 891.1 -5.20616 0.419055 0
M  V30 9215 H 892.794 -2.94914 0.516323 0
M  V30 9216 H 890.34 -1.41818 0.24975 0
M  V30 9217 H 892.293 -3.83094 -1.75547 0
M  V30 9218 H 891.017 -2.60656 -1.9679 0
M  V30 9219 H 889.676 -3.66416 -0.116123 0
M  V30 9220 H 889.324 -4.37091 -2.48918 0
M  V30 9221 H 889.024 -5.71629 -1.36065 0
M  V30 9222 H 890.548 -5.65976 -2.29136 0
M  V30 9223 H 891.962 -5.73296 -0.0211034 0
M  V30 9224 H 890.359 -5.95543 0.738163 0
M  V30 9225 H 891.429 -4.66638 1.31822 0
M  V30 9226 N 892.772 -0.284283 -1.55015 0
M  V30 9227 C 893.719 0.599194 -2.22886 0
M  V30 9228 C 894.689 1.14264 -1.20553 0
M  V30 9229 O 895.874 1.19025 -1.49123 0
M  V30 9230 C 893.014 1.77317 -2.96062 0
M  V30 9231 C 892.127 1.26271 -4.13134 0
M  V30 9232 C 891.262 2.39922 -4.73931 0
M  V30 9233 C 890.301 1.85925 -5.8318 0
M  V30 9234 N 889.438 2.93084 -6.38002 0
M  V30 9235 H 894.278 0.0137816 -2.97997 0
M  V30 9236 H 891.815 -0.00496503 -1.47099 0
M  V30 9237 H 893.773 2.46339 -3.36709 0
M  V30 9238 H 892.403 2.33047 -2.23358 0
M  V30 9239 H 891.455 0.465296 -3.77544 0
M  V30 9240 H 892.767 0.827284 -4.91892 0
M  V30 9241 H 891.921 3.1692 -5.17346 0
M  V30 9242 H 890.66 2.86784 -3.9447 0
M  V30 9243 H 889.665 1.07409 -5.39206 0
M  V30 9244 H 890.89 1.39987 -6.64515 0
M  V30 9245 H 888.836 3.3931 -5.61431 0
M  V30 9246 H 888.753 2.53986 -7.12058 0
M  V30 9247 H 890.021 3.7003 -6.86075 0
M  V30 9248 N 894.251 1.57596 -0.0117121 0
M  V30 9249 C 895.498 1.91071 0.670667 0
M  V30 9250 C 895.826 0.886457 1.73125 0
M  V30 9251 O 895.081 -0.107135 1.95407 0
M  V30 9252 C 895.38 3.31296 1.34082 0
M  V30 9253 C 895.046 4.49011 0.412305 0
M  V30 9254 C 893.708 4.80945 0.156691 0
M  V30 9255 C 896.06 5.20709 -0.226294 0
M  V30 9256 C 893.388 5.81943 -0.745619 0
M  V30 9257 C 895.74 6.22668 -1.11655 0
M  V30 9258 C 894.404 6.53053 -1.38123 0
M  V30 9259 H 893.674 0.69918 0.245415 0
M  V30 9260 H 896.321 1.91373 -0.0697511 0
M  V30 9261 H 894.626 3.27174 2.15557 0
M  V30 9262 H 896.323 3.54461 1.87506 0
M  V30 9263 H 892.913 4.24067 0.621705 0
M  V30 9264 H 897.097 4.96282 -0.0418456 0
M  V30 9265 H 892.353 6.03839 -0.958566 0
M  V30 9266 H 896.527 6.77351 -1.61767 0
M  V30 9267 H 894.154 7.31132 -2.08208 0
M  V30 9268 N 895.729 -0.261212 1.5542 0
M  V30 9269 C 897.145 -0.609012 1.47524 0
M  V30 9270 C 897.345 -1.88986 0.699042 0
M  V30 9271 O 896.401 -2.51517 0.222628 0
M  V30 9272 C 897.714 -0.725025 2.91828 0
M  V30 9273 C 899.262 -0.818302 3.02114 0
M  V30 9274 C 899.737 -0.965996 4.47697 0
M  V30 9275 N 901.228 -1.03123 4.51575 0
M  V30 9276 C 901.963 -1.16451 5.6145 0
M  V30 9277 N 901.459 -1.26425 6.81167 0
M  V30 9278 N 903.252 -1.19655 5.49217 0
M  V30 9279 H 895.403 0.579807 2.04333 0
M  V30 9280 H 897.666 0.198072 0.927077 0
M  V30 9281 H 897.372 0.145871 3.51397 0
M  V30 9282 H 897.246 -1.60156 3.41511 0
M  V30 9283 H 899.633 -1.67966 2.42634 0
M  V30 9284 H 899.714 0.0830895 2.55665 0
M  V30 9285 H 899.358 -0.109251 5.07782 0
M  V30 9286 H 899.288 -1.88221 4.91813 0
M  V30 9287 H 901.779 -0.966072 3.65343 0
M  V30 9288 H 902.092 -1.36462 7.60656 0
M  V30 9289 H 900.437 -1.23408 6.83956 0
M  V30 9290 H 903.628 -1.11501 4.54626 0
M  V30 9291 H 903.801 -1.29698 6.34888 0
M  V30 9292 N 897.207 -1.48554 -0.526253 0
M  V30 9293 C 898.455 -1.56452 -1.27935 0
M  V30 9294 C 898.776 -0.24184 -1.93495 0
M  V30 9295 O 898.046 0.736917 -1.81511 0
M  V30 9296 H 896.626 -0.576379 -0.47518 0
M  V30 9297 H 899.288 -1.85039 -0.612083 0
M  V30 9298 H 898.384 -2.34751 -2.05666 0
M  V30 9299 N 898.685 0.775411 -1.37205 0
M  V30 9300 C 899.635 1.87867 -1.29189 0
M  V30 9301 C 900.619 1.59885 -0.180466 0
M  V30 9302 O 901.811 1.72077 -0.414536 0
M  V30 9303 C 898.94 3.25285 -1.09748 0
M  V30 9304 C 898.026 3.59231 -2.25419 0
M  V30 9305 N 898.417 3.64386 -3.50795 0
M  V30 9306 C 896.715 3.89375 -2.17492 0
M  V30 9307 C 897.416 3.94974 -4.27048 0
M  V30 9308 N 896.392 4.10684 -3.56146 0
M  V30 9309 H 900.194 1.90099 -2.24142 0
M  V30 9310 H 897.708 0.971667 -1.30125 0
M  V30 9311 H 899.705 4.04207 -1.02091 0
M  V30 9312 H 898.365 3.2432 -0.157083 0
M  V30 9313 H 899.376 3.46682 -3.8475 0
M  V30 9314 H 896.053 3.96254 -1.31489 0
M  V30 9315 H 897.443 4.05768 -5.35539 0
M  V30 9316 N 900.163 1.21714 1.00117 0
M  V30 9317 C 901.093 1.00397 2.10815 0
M  V30 9318 C 902.074 -0.0723502 1.69946 0
M  V30 9319 O 903.259 0.0882398 1.93999 0
M  V30 9320 C 900.389 0.572001 3.42557 0
M  V30 9321 C 899.343 1.59331 3.97237 0
M  V30 9322 C 898.669 1.01746 5.2493 0
M  V30 9323 C 899.969 2.98117 4.28863 0
M  V30 9324 H 901.663 1.92983 2.28906 0
M  V30 9325 H 899.209 0.929273 1.10002 0
M  V30 9326 H 901.162 0.410018 4.19401 0
M  V30 9327 H 899.886 -0.38951 3.24269 0
M  V30 9328 H 898.545 1.74293 3.22518 0
M  V30 9329 H 898.193 0.0475491 5.02978 0
M  V30 9330 H 897.893 1.69969 5.62481 0
M  V30 9331 H 899.417 0.866881 6.04415 0
M  V30 9332 H 900.831 2.86578 4.96534 0
M  V30 9333 H 899.228 3.63389 4.77565 0
M  V30 9334 H 900.298 3.48674 3.36979 0
M  V30 9335 N 901.641 -1.19671 1.02551 0
M  V30 9336 C 902.918 -1.85014 0.634771 0
M  V30 9337 C 903.298 -1.91574 -0.886706 0
M  V30 9338 O 902.646 -1.43022 -1.78205 0
M  V30 9339 C 902.856 -3.24167 1.29292 0
M  V30 9340 C 904.204 -4.00363 1.41402 0
M  V30 9341 O 905.228 -3.33553 1.24983 0
M  V30 9342 O 904.087 -5.2003 1.6802 0
M  V30 9343 H 901.181 -0.797147 0.220196 0
M  V30 9344 H 903.727 -1.27188 1.12345 0
M  V30 9345 H 902.499 -3.14208 2.33215 0
M  V30 9346 H 902.122 -3.89634 0.791895 0
M  V30 9347 N 903.119 -0.802921 -1.35613 0
M  V30 9348 C 904.067 -0.198783 -2.31749 0
M  V30 9349 C 905.061 0.649416 -1.56458 0
M  V30 9350 O 906.267 0.542989 -1.71615 0
M  V30 9351 H 902.642 -0.0455177 -0.750621 0
M  V30 9352 H 904.613 -1.02479 -2.80251 0
M  V30 9353 C 903.362 0.641066 -3.41739 0
M  V30 9354 H 902.685 -0.00226244 -3.998 0
M  V30 9355 H 904.125 1.03022 -4.11294 0
M  V30 9356 C 902.584 1.80505 -2.84464 0
M  V30 9357 O 903.114 2.90235 -2.77717 0
M  V30 9358 N 901.32 1.61542 -2.41563 0
M  V30 9359 H 900.867 0.722863 -2.4725 0
M  V30 9360 H 900.825 2.39581 -2.03589 0
M  V30 9361 N 904.597 1.47463 -0.556102 0
M  V30 9362 C 905.846 2.01678 -0.029492 0
M  V30 9363 C 906.159 1.436 1.32809 0
M  V30 9364 O 907.365 1.89472 1.94455 0
M  V30 9365 C 905.821 3.599 -0.00223937 0
M  V30 9366 C 905.429 4.26969 -1.35651 0
M  V30 9367 C 907.173 4.2187 0.471822 0
M  V30 9368 C 905.08 5.77194 -1.28843 0
M  V30 9369 H 904.01 0.753965 -0.00725504 0
M  V30 9370 H 906.661 1.69467 -0.703789 0
M  V30 9371 H 905.043 3.89068 0.737682 0
M  V30 9372 H 906.217 4.09444 -2.11406 0
M  V30 9373 H 904.532 3.76983 -1.76842 0
M  V30 9374 H 907.129 5.31955 0.541139 0
M  V30 9375 H 907.472 3.88968 1.48356 0
M  V30 9376 H 908.005 3.97228 -0.213207 0
M  V30 9377 H 904.744 6.14713 -2.27613 0
M  V30 9378 H 904.264 5.9706 -0.572668 0
M  V30 9379 H 905.943 6.3938 -0.990031 0
M  V30 9380 N 906.075 0.2925 1.54862 0
M  V30 9381 C 907.3 -0.32494 2.04839 0
M  V30 9382 C 907.725 -1.47381 1.16877 0
M  V30 9383 O 907.083 -1.80492 0.171028 0
M  V30 9384 C 907.131 -0.76694 3.5235 0
M  V30 9385 O 906.235 -1.87256 3.67436 0
M  V30 9386 H 905.576 -0.0645195 0.660858 0
M  V30 9387 H 908.106 0.431867 1.9999 0
M  V30 9388 H 908.116 -1.05804 3.94043 0
M  V30 9389 H 906.791 0.0735212 4.15835 0
M  V30 9390 H 905.368 -1.58266 3.37648 0
M  V30 9391 N 907.553 -1.57587 0.0200696 0
M  V30 9392 C 908.501 -2.10814 -0.982868 0
M  V30 9393 C 909.495 -1.03263 -1.34287 0
M  V30 9394 O 910.701 -1.21708 -1.32617 0
M  V30 9395 H 907.076 -0.673409 -0.334701 0
M  V30 9396 H 909.047 -2.94034 -0.50856 0
M  V30 9397 C 907.796 -2.64301 -2.25921 0
M  V30 9398 H 907.119 -3.46703 -1.99091 0
M  V30 9399 H 908.559 -3.052 -2.94328 0
M  V30 9400 C 907.018 -1.56628 -2.98277 0
M  V30 9401 O 907.548 -0.960825 -3.9004 0
M  V30 9402 N 905.754 -1.28889 -2.60453 0
M  V30 9403 H 905.301 -1.7831 -1.85912 0
M  V30 9404 H 905.259 -0.570697 -3.09177 0
M  V30 9405 N 909.032 0.252966 -1.55557 0
M  V30 9406 C 909.98 1.33289 -1.90622 0
M  V30 9407 C 910.974 1.50133 -0.784638 0
M  V30 9408 O 912.18 1.51679 -0.969196 0
M  V30 9409 H 908.555 0.446196 -0.605321 0
M  V30 9410 H 910.526 1.00977 -2.80796 0
M  V30 9411 C 909.275 2.68254 -2.21213 0
M  V30 9412 H 908.598 2.5609 -3.07014 0
M  V30 9413 H 910.038 3.42707 -2.49656 0
M  V30 9414 C 908.497 3.20884 -1.02642 0
M  V30 9415 O 909.027 4.00783 -0.271292 0
M  V30 9416 N 907.233 2.7883 -0.818682 0
M  V30 9417 H 906.78 2.13966 -1.43444 0
M  V30 9418 H 906.738 3.14388 -0.0269989 0
M  V30 9419 N 910.51 1.48831 0.518367 0
M  V30 9420 C 911.44 1.67119 1.63075 0
M  V30 9421 C 912.421 0.519948 1.61958 0
M  V30 9422 O 913.606 0.753824 1.78972 0
M  V30 9423 C 910.736 1.72158 3.01627 0
M  V30 9424 C 909.69 2.86898 3.17606 0
M  V30 9425 C 909.016 2.77035 4.57335 0
M  V30 9426 C 910.316 4.28057 2.99274 0
M  V30 9427 H 912.01 2.60248 1.48025 0
M  V30 9428 H 909.556 1.2524 0.710694 0
M  V30 9429 H 911.509 1.83539 3.7933 0
M  V30 9430 H 910.233 0.756157 3.17726 0
M  V30 9431 H 908.892 2.75091 2.42323 0
M  V30 9432 H 908.54 1.78438 4.70286 0
M  V30 9433 H 908.24 3.54036 4.6897 0
M  V30 9434 H 909.764 2.904 5.37122 0
M  V30 9435 H 911.178 4.40636 3.6676 0
M  V30 9436 H 909.575 5.06145 3.22393 0
M  V30 9437 H 910.645 4.4371 1.95574 0
M  V30 9438 N 911.988 -0.768124 1.37614 0
M  V30 9439 C 912.918 -1.89537 1.36374 0
M  V30 9440 C 913.899 -1.68513 0.231803 0
M  V30 9441 O 915.084 -1.89318 0.432705 0
M  V30 9442 C 912.214 -3.26871 1.17358 0
M  V30 9443 C 911.168 -3.62466 2.27602 0
M  V30 9444 C 910.494 -4.9838 1.93705 0
M  V30 9445 C 911.794 -3.68841 3.69802 0
M  V30 9446 H 913.488 -1.90832 2.30702 0
M  V30 9447 H 911.034 -0.91672 1.11051 0
M  V30 9448 H 912.987 -4.05371 1.15119 0
M  V30 9449 H 911.711 -3.26018 0.194865 0
M  V30 9450 H 910.37 -2.86276 2.29002 0
M  V30 9451 H 910.018 -4.94071 0.943539 0
M  V30 9452 H 909.718 -5.23165 2.6753 0
M  V30 9453 H 911.242 -5.79276 1.93059 0
M  V30 9454 H 912.656 -4.37485 3.70513 0
M  V30 9455 H 911.053 -4.05126 4.42711 0
M  V30 9456 H 912.123 -2.69415 4.03167 0
M  V30 9457 N 913.466 -1.22244 -0.994698 0
M  V30 9458 C 914.715 -1.04005 -1.72817 0
M  V30 9459 C 915.028 0.425413 -1.90918 0
M  V30 9460 O 916.234 0.727429 -2.61574 0
M  V30 9461 C 914.69 -1.81244 -3.10932 0
M  V30 9462 C 914.298 -3.32028 -3.00768 0
M  V30 9463 C 916.042 -1.71448 -3.88337 0
M  V30 9464 C 913.949 -4.01716 -4.34026 0
M  V30 9465 H 912.879 -0.385559 -0.647966 0
M  V30 9466 H 915.53 -1.46077 -1.11058 0
M  V30 9467 H 913.912 -1.3197 -3.73363 0
M  V30 9468 H 915.086 -3.88682 -2.47513 0
M  V30 9469 H 913.401 -3.4248 -2.36846 0
M  V30 9470 H 915.998 -2.20836 -4.86965 0
M  V30 9471 H 916.341 -0.674568 -4.10798 0
M  V30 9472 H 916.874 -2.18256 -3.3258 0
M  V30 9473 H 913.613 -5.05952 -4.16765 0
M  V30 9474 H 913.133 -3.49849 -4.87202 0
M  V30 9475 H 914.812 -4.0721 -5.02782 0
M  V30 9476 N 914.944 1.19125 -1.03184 0
M  V30 9477 C 916.192 1.8851 -0.728587 0
M  V30 9478 C 916.513 1.80195 0.74531 0
M  V30 9479 O 915.783 1.21437 1.5372 0
M  V30 9480 H 914.363 0.69784 -0.266511 0
M  V30 9481 H 917.025 1.44607 -1.3067 0
M  V30 9482 H 916.121 2.9477 -1.02554 0
M  V30 9483 N 916.422 0.810101 1.35185 0
M  V30 9484 C 917.385 0.22852 2.28058 0
M  V30 9485 C 918.385 -0.586168 1.49735 0
M  V30 9486 O 919.575 -0.40414 1.69447 0
M  V30 9487 C 916.707 -0.681041 3.34028 0
M  V30 9488 H 917.9 1.04768 2.81005 0
M  V30 9489 H 915.453 0.58101 1.451 0
M  V30 9490 H 916.188 -1.52375 2.86273 0
M  V30 9491 H 915.973 -0.0985276 3.91976 0
M  V30 9492 H 917.463 -1.08217 4.03335 0
M  V30 9493 N 917.9 -1.47166 0.563914 0
M  V30 9494 C 919.149 -2.0166 0.0401871 0
M  V30 9495 C 919.462 -1.44303 -1.32046 0
M  V30 9496 O 920.668 -1.905 -1.93448 0
M  V30 9497 C 919.124 -3.59894 0.0213257 0
M  V30 9498 C 918.732 -4.26244 1.37914 0
M  V30 9499 C 920.476 -4.22114 -0.449442 0
M  V30 9500 C 918.383 -5.76503 1.31902 0
M  V30 9501 H 917.313 -0.753916 0.0112534 0
M  V30 9502 H 919.964 -1.69091 0.712766 0
M  V30 9503 H 918.346 -3.89454 -0.717038 0
M  V30 9504 H 919.52 -4.08317 2.13574 0
M  V30 9505 H 917.835 -3.76039 1.78839 0
M  V30 9506 H 920.432 -5.32234 -0.51292 0
M  V30 9507 H 920.775 -3.89749 -1.46291 0
M  V30 9508 H 921.308 -3.9711 0.23427 0
M  V30 9509 H 918.047 -6.13498 2.3087 0
M  V30 9510 H 917.567 -5.96748 0.604324 0
M  V30 9511 H 919.246 -6.38846 1.02392 0
M  V30 9512 N 919.378 -0.300708 -1.54705 0
M  V30 9513 C 920.326 0.591264 -2.2496 0
M  V30 9514 C 921.32 1.13725 -1.2555 0
M  V30 9515 O 922.526 1.08793 -1.43402 0
M  V30 9516 H 918.901 0.209278 -0.722293 0
M  V30 9517 H 920.872 -0.0238175 -2.9839 0
M  V30 9518 C 919.621 1.75179 -3.00346 0
M  V30 9519 H 918.944 1.34089 -3.76643 0
M  V30 9520 H 920.384 2.35198 -3.52786 0
M  V30 9521 C 918.843 2.65574 -2.07298 0
M  V30 9522 O 919.373 3.6666 -1.64083 0
M  V30 9523 N 917.579 2.33301 -1.7326 0
M  V30 9524 H 917.126 1.51142 -2.08599 0
M  V30 9525 H 917.084 2.94049 -1.11278 0
M  V30 9526 N 920.856 1.57574 -0.0284266 0
M  V30 9527 C 922.105 1.9095 0.649704 0
M  V30 9528 C 922.418 0.906421 1.7333 0
M  V30 9529 O 923.624 1.1314 2.46803 0
M  V30 9530 C 922.08 3.39061 1.20687 0
M  V30 9531 C 921.688 4.47726 0.156597 0
M  V30 9532 C 923.432 3.81505 1.86156 0
M  V30 9533 C 921.339 5.86935 0.725365 0
M  V30 9534 H 920.269 0.712589 0.24644 0
M  V30 9535 H 922.92 1.83261 -0.0936143 0
M  V30 9536 H 921.302 3.41679 2.00178 0
M  V30 9537 H 922.476 4.56667 -0.6158 0
M  V30 9538 H 920.791 4.14481 -0.399288 0
M  V30 9539 H 923.388 4.82865 2.29665 0
M  V30 9540 H 923.731 3.16529 2.70398 0
M  V30 9541 H 924.264 3.81307 1.13356 0
M  V30 9542 H 921.003 6.55453 -0.0789081 0
M  V30 9543 H 920.523 5.81602 1.46627 0
M  V30 9544 H 922.202 6.35483 1.21532 0
M  V30 9545 N 922.334 -0.244713 1.55689 0
M  V30 9546 C 923.244 -1.32447 1.93636 0
M  V30 9547 C 924.26 -1.52541 0.837086 0
M  V30 9548 O 925.436 -1.66121 1.13867 0
M  V30 9549 C 922.501 -2.65864 2.22525 0
M  V30 9550 C 921.562 -2.54273 3.45896 0
M  V30 9551 C 920.795 -3.81327 3.73397 0
M  V30 9552 O 921.018 -4.83307 3.02936 0
M  V30 9553 O 919.952 -3.79829 4.66919 0
M  V30 9554 H 923.778 -1.03255 2.85608 0
M  V30 9555 H 921.363 -0.445652 1.42598 0
M  V30 9556 H 923.245 -3.447 2.42404 0
M  V30 9557 H 921.92 -2.94784 1.33731 0
M  V30 9558 H 920.827 -1.73715 3.31321 0
M  V30 9559 H 922.16 -2.30297 4.34999 0
M  V30 9560 N 923.813 -1.49104 -0.510467 0
M  V30 9561 C 924.761 -1.65547 -1.63392 0
M  V30 9562 C 925.755 -0.521522 -1.61172 0
M  V30 9563 O 926.961 -0.700865 -1.65795 0
M  V30 9564 H 923.336 -0.521843 -0.541464 0
M  V30 9565 H 925.307 -2.59864 -1.46673 0
M  V30 9566 C 924.056 -1.73051 -3.01577 0
M  V30 9567 H 923.379 -2.59676 -3.03987 0
M  V30 9568 H 924.819 -1.88594 -3.79748 0
M  V30 9569 C 923.278 -0.47328 -3.33559 0
M  V30 9570 O 923.808 0.405239 -3.99651 0
M  V30 9571 N 922.014 -0.339074 -2.88615 0
M  V30 9572 H 921.561 -1.05497 -2.35007 0
M  V30 9573 H 921.519 0.501061 -3.10382 0
M  V30 9574 N 925.291 0.760815 -1.38019 0
M  V30 9575 C 926.539 1.51673 -1.33566 0
M  V30 9576 C 926.86 1.94852 0.076024 0
M  V30 9577 O 926.13 1.67112 1.02227 0
M  V30 9578 H 924.71 0.562581 -0.491438 0
M  V30 9579 H 927.372 0.904832 -1.72623 0
M  V30 9580 H 926.468 2.41102 -1.98182 0
M  V30 9581 N 926.769 1.22769 0.988202 0
M  V30 9582 C 927.716 1.00195 2.07917 0
M  V30 9583 C 928.686 -0.0779391 1.65917 0
M  V30 9584 O 929.871 0.0726005 1.90662 0
M  V30 9585 C 927.011 0.590853 3.40004 0
M  V30 9586 C 926.124 1.74202 3.9532 0
M  V30 9587 C 925.259 1.27846 5.15586 0
M  V30 9588 C 924.298 2.40087 5.63049 0
M  V30 9589 N 923.435 1.94744 6.74551 0
M  V30 9590 H 928.275 1.93581 2.26562 0
M  V30 9591 H 925.812 0.96448 1.11068 0
M  V30 9592 H 927.77 0.333653 4.15864 0
M  V30 9593 H 926.4 -0.306007 3.21346 0
M  V30 9594 H 925.452 2.11342 3.16289 0
M  V30 9595 H 926.764 2.58612 4.26522 0
M  V30 9596 H 925.918 0.978919 5.9875 0
M  V30 9597 H 924.657 0.404617 4.86019 0
M  V30 9598 H 923.662 2.70824 4.78471 0
M  V30 9599 H 924.887 3.27995 5.9464 0
M  V30 9600 H 922.833 1.09729 6.46758 0
M  V30 9601 H 922.75 2.72718 7.05096 0
M  V30 9602 H 924.018 1.67873 7.61209 0
M  V30 9603 N 928.247 -1.18576 1.03814 0
M  V30 9604 C 929.21 -2.2033 0.63146 0
M  V30 9605 C 930.21 -1.57787 -0.309816 0
M  V30 9606 O 931.4 -1.73938 -0.0955598 0
M  V30 9607 C 928.532 -3.40818 -0.0745963 0
M  V30 9608 H 929.725 -2.57824 1.53189 0
M  V30 9609 H 927.278 -1.32416 0.830398 0
M  V30 9610 H 928.013 -3.08853 -0.988947 0
M  V30 9611 H 927.798 -3.87453 0.6019 0
M  V30 9612 H 929.288 -4.16166 -0.345727 0
M  V30 9613 N 929.725 -0.817259 -1.34754 0
M  V30 9614 C 930.673 -0.223352 -2.31525 0
M  V30 9615 C 931.667 0.632785 -1.57137 0
M  V30 9616 O 932.873 0.524757 -1.72181 0
M  V30 9617 H 929.248 -0.0534765 -0.750096 0
M  V30 9618 H 931.219 -1.05446 -2.79148 0
M  V30 9619 C 929.968 0.604784 -3.424 0
M  V30 9620 H 929.291 -0.0446664 -3.99775 0
M  V30 9621 H 930.731 0.986543 -4.12363 0
M  V30 9622 C 929.19 1.77478 -2.86362 0
M  V30 9623 O 929.72 2.87273 -2.8078 0
M  V30 9624 N 927.926 1.58971 -2.43263 0
M  V30 9625 H 927.473 0.696598 -2.48003 0
M  V30 9626 H 927.431 2.37408 -2.06119 0
M  V30 9627 N 931.203 1.46865 -0.571711 0
M  V30 9628 C 932.428 2.07323 -0.0564655 0
M  V30 9629 C 932.853 1.41938 1.23431 0
M  V30 9630 O 932.211 0.499334 1.74288 0
M  V30 9631 C 932.259 3.6044 0.107339 0
M  V30 9632 O 931.363 3.95558 1.1665 0
M  V30 9633 H 930.704 0.661475 -0.0578465 0
M  V30 9634 H 933.234 1.88669 -0.791524 0
M  V30 9635 H 933.244 4.06767 0.316987 0
M  V30 9636 H 931.919 4.07425 -0.835348 0
M  V30 9637 H 930.496 3.60957 0.936189 0
M  V30 9638 N 932.681 0.308908 1.54543 0
M  V30 9639 C 933.927 -0.298478 2.00592 0
M  V30 9640 C 934.26 -1.52929 1.19692 0
M  V30 9641 O 933.535 -1.9254 0.27542 0
M  V30 9642 C 933.818 -0.647218 3.54236 0
M  V30 9643 C 933.671 0.593284 4.4587 0
M  V30 9644 C 934.99 -1.47064 4.14801 0
M  V30 9645 H 932.109 -0.107012 0.72919 0
M  V30 9646 H 934.751 0.422578 1.85241 0
M  V30 9647 H 932.901 -1.26153 3.67447 0
M  V30 9648 H 934.573 1.2317 4.44552 0
M  V30 9649 H 932.816 1.22501 4.16144 0
M  V30 9650 H 933.487 0.305018 5.51157 0
M  V30 9651 H 935.963 -0.951511 4.05075 0
M  V30 9652 H 934.839 -1.68343 5.22448 0
M  V30 9653 H 935.1 -2.4623 3.67183 0
M  V30 9654 N 934.159 -1.57557 0.0367827 0
M  V30 9655 C 935.575 -1.56366 -0.31967 0
M  V30 9656 C 935.775 -1.04313 -1.72398 0
M  V30 9657 O 934.831 -0.693278 -2.42796 0
M  V30 9658 C 936.144 -3.00267 -0.161274 0
M  V30 9659 C 937.692 -3.12128 -0.233464 0
M  V30 9660 C 938.167 -4.57882 -0.103767 0
M  V30 9661 N 939.658 -4.62922 -0.160506 0
M  V30 9662 C 940.393 -5.73338 -0.0840493 0
M  V30 9663 N 939.889 -6.92786 0.043933 0
M  V30 9664 N 941.682 -5.61929 -0.138592 0
M  V30 9665 H 933.833 -1.8972 0.954996 0
M  V30 9666 H 936.096 -0.87304 0.369467 0
M  V30 9667 H 935.802 -3.42331 0.80639 0
M  V30 9668 H 935.676 -3.65599 -0.928304 0
M  V30 9669 H 938.063 -2.69972 -1.19159 0
M  V30 9670 H 938.144 -2.49503 0.564075 0
M  V30 9671 H 937.788 -5.0072 0.850973 0
M  V30 9672 H 937.718 -5.18496 -0.920268 0
M  V30 9673 H 940.209 -3.7701 -0.259257 0
M  V30 9674 H 940.522 -7.72741 0.095372 0
M  V30 9675 H 938.867 -6.94955 0.0788211 0
M  V30 9676 H 942.058 -4.67499 -0.237031 0
M  V30 9677 H 942.231 -6.47956 -0.075546 0
M  V30 9678 N 935.637 0.236453 -1.55816 0
M  V30 9679 C 936.585 1.31259 -1.92025 0
M  V30 9680 C 937.579 1.49292 -0.800518 0
M  V30 9681 O 938.785 1.50643 -0.985229 0
M  V30 9682 H 935.16 0.439751 -0.610019 0
M  V30 9683 H 937.131 0.979926 -2.81851 0
M  V30 9684 C 935.88 2.65892 -2.24046 0
M  V30 9685 H 935.203 2.5282 -3.09713 0
M  V30 9686 H 936.643 3.40039 -2.53277 0
M  V30 9687 C 935.102 3.19777 -1.0604 0
M  V30 9688 O 935.632 4.00473 -0.313786 0
M  V30 9689 N 933.838 2.77946 -0.848209 0
M  V30 9690 H 933.385 2.12433 -1.45706 0
M  V30 9691 H 933.343 3.14342 -0.0603424 0
M  V30 9692 N 937.115 1.49373 0.502552 0
M  V30 9693 C 938.078 1.65413 1.58654 0
M  V30 9694 C 939.078 0.526003 1.51953 0
M  V30 9695 O 940.268 0.792421 1.55133 0
M  V30 9696 C 937.4 1.65005 2.98306 0
M  V30 9697 H 938.593 2.62095 1.45762 0
M  V30 9698 H 936.146 1.38381 0.726672 0
M  V30 9699 H 936.881 0.699014 3.16677 0
M  V30 9700 H 936.666 2.46931 3.04578 0
M  V30 9701 H 938.156 1.79477 3.77065 0
M  V30 9702 N 938.594 -0.753485 1.38421 0
M  V30 9703 C 939.84 -1.51485 1.34834 0
M  V30 9704 C 940.173 -1.94102 -0.0615381 0
M  V30 9705 O 939.448 -1.65439 -1.02274 0
M  V30 9706 C 939.731 -2.76736 2.30411 0
M  V30 9707 C 939.584 -2.40256 3.80259 0
M  V30 9708 C 940.903 -3.7876 2.24119 0
M  V30 9709 H 938.022 -0.549534 0.491102 0
M  V30 9710 H 940.664 -0.863006 1.6927 0
M  V30 9711 H 938.814 -3.32357 2.01175 0
M  V30 9712 H 940.486 -1.90409 4.20169 0
M  V30 9713 H 938.729 -1.72714 3.97935 0
M  V30 9714 H 939.4 -3.29869 4.42595 0
M  V30 9715 H 941.876 -3.32679 2.49928 0
M  V30 9716 H 940.752 -4.64092 2.93104 0
M  V30 9717 H 941.013 -4.24352 1.24006 0
M  V30 9718 N 940.072 -1.23292 -0.981677 0
M  V30 9719 C 941.3 -1.09088 -1.75805 0
M  V30 9720 C 941.715 0.357746 -1.8538 0
M  V30 9721 O 941.072 1.24751 -1.33205 0
M  V30 9722 C 941.123 -1.70885 -3.1856 0
M  V30 9723 O 940.844 -3.10082 -3.09484 0
M  V30 9724 C 942.345 -1.62106 -4.12597 0
M  V30 9725 H 939.565 -0.38184 -0.55176 0
M  V30 9726 H 942.109 -1.63116 -1.23342 0
M  V30 9727 H 940.264 -1.20893 -3.68054 0
M  V30 9728 H 940.678 -3.40039 -3.99342 0
M  V30 9729 H 942.152 -2.10049 -5.10474 0
M  V30 9730 H 942.629 -0.579642 -4.35358 0
M  V30 9731 H 943.235 -2.11457 -3.69007 0
M  V30 9732 N 941.55 1.18024 -1.04442 0
M  V30 9733 C 942.482 2.21294 -0.596799 0
M  V30 9734 C 943.495 1.59305 0.33552 0
M  V30 9735 O 944.684 1.7803 0.129443 0
M  V30 9736 C 941.784 3.38578 0.147648 0
M  V30 9737 C 940.957 4.30143 -0.793484 0
M  V30 9738 C 940.016 5.2612 -0.0916561 0
M  V30 9739 O 939.042 5.64586 -0.72331 0
M  V30 9740 N 940.244 5.68512 1.17364 0
M  V30 9741 H 943.009 2.6032 -1.48504 0
M  V30 9742 H 940.57 1.32847 -0.925374 0
M  V30 9743 H 942.562 3.99812 0.627098 0
M  V30 9744 H 941.132 2.98212 0.937466 0
M  V30 9745 H 940.352 3.66456 -1.45272 0
M  V30 9746 H 941.64 4.88216 -1.43258 0
M  V30 9747 H 941.038 5.39322 1.70729 0
M  V30 9748 H 939.595 6.31925 1.5973 0
M  V30 9749 N 943.028 0.824394 1.34319 0
M  V30 9750 C 943.938 0.24932 2.33271 0
M  V30 9751 C 944.954 -0.617066 1.62691 0
M  V30 9752 O 946.13 -0.524616 1.94447 0
M  V30 9753 C 943.195 -0.578094 3.41846 0
M  V30 9754 C 942.256 0.310866 4.28173 0
M  V30 9755 C 941.489 -0.477153 5.31563 0
M  V30 9756 O 941.712 -1.71028 5.44156 0
M  V30 9757 O 940.646 0.141287 6.01734 0
M  V30 9758 H 944.472 1.06837 2.84288 0
M  V30 9759 H 942.057 0.58657 1.37403 0
M  V30 9760 H 943.939 -1.04878 4.0814 0
M  V30 9761 H 942.614 -1.37444 2.93071 0
M  V30 9762 H 941.521 0.829081 3.64797 0
M  V30 9763 H 942.854 1.07161 4.80393 0
M  V30 9764 N 944.506 -1.46559 0.579492 0
M  V30 9765 C 945.753 -2.02399 0.0638418 0
M  V30 9766 C 946.081 -1.45135 -1.29484 0
M  V30 9767 O 945.336 -0.605061 -1.86112 0
M  V30 9768 C 945.635 -3.57357 -0.0552803 0
M  V30 9769 C 945.301 -4.33646 1.23539 0
M  V30 9770 C 943.963 -4.54207 1.589 0
M  V30 9771 C 946.315 -4.77476 2.08965 0
M  V30 9772 C 943.643 -5.1585 2.79492 0
M  V30 9773 C 945.995 -5.4045 3.2878 0
M  V30 9774 C 944.659 -5.5924 3.64427 0
M  V30 9775 H 943.929 -0.740632 0.0233614 0
M  V30 9776 H 946.576 -1.75968 0.755482 0
M  V30 9777 H 944.881 -3.82907 -0.83003 0
M  V30 9778 H 946.578 -3.98237 -0.469964 0
M  V30 9779 H 943.168 -4.17937 0.9501 0
M  V30 9780 H 947.352 -4.61349 1.8295 0
M  V30 9781 H 942.608 -5.28589 3.07252 0
M  V30 9782 H 946.782 -5.73371 3.95245 0
M  V30 9783 H 944.409 -6.06775 4.57961 0
M  V30 9784 N 945.984 -0.3171 -1.54377 0
M  V30 9785 C 947.232 0.286842 -2.00054 0
M  V30 9786 C 947.553 1.53161 -1.20692 0
M  V30 9787 O 946.823 1.93479 -0.307045 0
M  V30 9788 H 945.403 0.108979 -0.739008 0
M  V30 9789 H 948.065 -0.432152 -1.90049 0
M  V30 9790 H 947.161 0.547729 -3.07256 0
M  V30 9791 N 947.462 1.57535 -0.0451378 0
M  V30 9792 C 948.873 1.80116 0.491426 0
M  V30 9793 C 949.224 0.956846 1.71286 0
M  V30 9794 O 948.349 0.17173 2.15718 0
M  V30 9795 C 948.944 3.26674 0.898315 0
M  V30 9796 C 947.503 3.50194 1.37989 0
M  V30 9797 C 946.65 2.75054 0.352202 0
M  V30 9798 H 949.601 1.56368 -0.271065 0
M  V30 9799 H 949.622 3.37263 1.76164 0
M  V30 9800 H 949.134 3.88099 0.009141 0
M  V30 9801 H 947.235 2.94041 2.28846 0
M  V30 9802 H 947.348 4.58909 1.37622 0
M  V30 9803 H 945.712 2.4101 0.823784 0
M  V30 9804 H 946.495 3.39203 -0.528782 0
M  V30 9805 N 948.94 -0.228186 1.55939 0
M  V30 9806 C 950.186 -0.954964 1.78909 0
M  V30 9807 C 950.519 -1.8425 0.613648 0
M  V30 9808 O 949.794 -1.90604 -0.38737 0
M  V30 9809 C 950.077 -1.79957 3.1191 0
M  V30 9810 C 949.93 -0.938968 4.3989 0
M  V30 9811 C 951.249 -2.77859 3.41295 0
M  V30 9812 H 948.368 -0.345745 0.650868 0
M  V30 9813 H 951.01 -0.224244 1.88672 0
M  V30 9814 H 949.16 -2.42256 3.03717 0
M  V30 9815 H 950.832 -0.333225 4.60095 0
M  V30 9816 H 949.075 -0.244096 4.33113 0
M  V30 9817 H 949.746 -1.56416 5.29375 0
M  V30 9818 H 952.222 -2.25695 3.49572 0
M  V30 9819 H 951.098 -3.34062 4.35538 0
M  V30 9820 H 951.359 -3.55266 2.63132 0
M  V30 9821 N 950.418 -1.49637 -0.494624 0
M  V30 9822 C 951.829 -1.52573 -1.07603 0
M  V30 9823 C 952.18 -0.315591 -1.93645 0
M  V30 9824 O 951.305 0.573966 -2.08649 0
M  V30 9825 C 951.9 -2.7648 -1.95817 0
M  V30 9826 C 950.459 -2.82173 -2.49109 0
M  V30 9827 C 949.606 -2.4657 -1.2688 0
M  V30 9828 H 952.557 -1.56242 -0.278251 0
M  V30 9829 H 952.578 -2.57003 -2.80588 0
M  V30 9830 H 952.09 -3.64538 -1.33167 0
M  V30 9831 H 950.191 -1.9841 -3.15379 0
M  V30 9832 H 950.304 -3.84501 -2.85825 0
M  V30 9833 H 948.668 -1.98489 -1.59607 0
M  V30 9834 H 949.451 -3.3691 -0.659281 0
M  V30 9835 N 951.896 0.746133 -1.38819 0
M  V30 9836 C 953.173 1.49652 -1.25951 0
M  V30 9837 C 953.553 2.10663 0.135833 0
M  V30 9838 O 952.901 1.97682 1.14604 0
M  V30 9839 C 953.111 2.5569 -2.37537 0
M  V30 9840 C 954.459 3.22385 -2.76321 0
M  V30 9841 O 955.483 2.65998 -2.36904 0
M  V30 9842 O 954.342 4.2439 -3.44319 0
M  V30 9843 H 951.436 0.664019 -0.492958 0
M  V30 9844 H 953.982 0.780908 -1.50665 0
M  V30 9845 H 952.754 2.08908 -3.30867 0
M  V30 9846 H 952.377 3.34823 -2.14427 0
M  V30 9847 N 953.375 1.23811 0.975125 0
M  V30 9848 C 954.603 1.10019 1.75224 0
M  V30 9849 C 955.018 -0.34791 1.85567 0
M  V30 9850 O 954.375 -1.24043 1.33864 0
M  V30 9851 C 954.426 1.72572 3.1765 0
M  V30 9852 O 954.147 3.11719 3.07836 0
M  V30 9853 C 955.648 1.64292 4.11732 0
M  V30 9854 H 952.868 0.38476 0.549728 0
M  V30 9855 H 955.412 1.63768 1.22476 0
M  V30 9856 H 953.567 1.22843 3.67408 0
M  V30 9857 H 953.981 3.42152 3.97533 0
M  V30 9858 H 955.455 2.12754 5.09352 0
M  V30 9859 H 955.932 0.602722 4.35045 0
M  V30 9860 H 956.538 2.13411 3.6788 0
M  V30 9861 N 954.853 -1.17469 1.05066 0
M  V30 9862 C 955.816 -2.19648 0.654793 0
M  V30 9863 C 956.816 -1.58107 -0.293063 0
M  V30 9864 O 958.006 -1.74029 -0.077106 0
M  V30 9865 C 955.138 -3.40878 -0.0384437 0
M  V30 9866 H 956.331 -2.56184 1.55915 0
M  V30 9867 H 953.884 -1.31528 0.844396 0
M  V30 9868 H 954.619 -3.09885 -0.956133 0
M  V30 9869 H 954.404 -3.86792 0.642961 0
M  V30 9870 H 955.894 -4.1651 -0.301568 0
M  V30 9871 N 956.331 -0.831506 -1.3388 0
M  V30 9872 C 957.747 -0.518349 -1.50948 0
M  V30 9873 C 957.947 0.955807 -1.77388 0
M  V30 9874 O 957.003 1.73993 -1.82983 0
M  V30 9875 C 958.316 -1.38531 -2.66889 0
M  V30 9876 C 959.864 -1.38332 -2.80772 0
M  V30 9877 C 960.339 -2.23497 -3.99766 0
M  V30 9878 N 961.83 -2.21167 -4.06988 0
M  V30 9879 C 962.565 -2.83805 -4.98239 0
M  V30 9880 N 962.061 -3.55468 -5.94655 0
M  V30 9881 N 963.854 -2.73314 -4.91178 0
M  V30 9882 H 956.005 -1.78588 -1.14978 0
M  V30 9883 H 958.268 -0.761508 -0.564633 0
M  V30 9884 H 957.974 -2.43255 -2.54007 0
M  V30 9885 H 957.848 -1.05611 -3.62114 0
M  V30 9886 H 960.235 -0.343832 -2.9309 0
M  V30 9887 H 960.316 -1.75256 -1.86331 0
M  V30 9888 H 959.96 -3.27501 -3.88208 0
M  V30 9889 H 959.89 -1.83919 -4.93438 0
M  V30 9890 H 962.381 -1.69046 -3.37982 0
M  V30 9891 H 962.694 -4.00487 -6.60931 0
M  V30 9892 H 961.039 -3.59575 -5.94753 0
M  V30 9893 H 964.23 -2.16897 -4.14817 0
M  V30 9894 H 964.403 -3.22416 -5.62096 0
M  V30 9895 N 957.809 1.4625 -0.587256 0
M  V30 9896 C 959.039 2.06444 -0.0802135 0
M  V30 9897 C 959.447 1.43585 1.23207 0
M  V30 9898 O 958.79 0.536956 1.75677 0
M  V30 9899 C 958.852 3.59165 0.155129 0
M  V30 9900 C 958.516 4.44243 -1.07225 0
M  V30 9901 C 959.513 4.80497 -1.98542 0
M  V30 9902 C 957.198 4.8531 -1.29537 0
M  V30 9903 C 959.192 5.56649 -3.10516 0
M  V30 9904 C 956.879 5.61221 -2.41815 0
M  V30 9905 C 957.877 5.96805 -3.32134 0
M  V30 9906 O 957.565 6.71181 -4.42461 0
M  V30 9907 H 957.297 0.673626 -0.0566063 0
M  V30 9908 H 959.851 1.88797 -0.809004 0
M  V30 9909 H 958.081 3.75137 0.938583 0
M  V30 9910 H 959.77 4.01271 0.611243 0
M  V30 9911 H 960.536 4.49345 -1.82522 0
M  V30 9912 H 956.415 4.5706 -0.601431 0
M  V30 9913 H 959.959 5.84343 -3.81037 0
M  V30 9914 H 955.856 5.91786 -2.57797 0
M  V30 9915 H 956.624 6.8961 -4.40886 0
M  V30 9916 N 959.287 0.325282 1.54207 0
M  V30 9917 C 960.517 -0.278285 2.04717 0
M  V30 9918 C 960.925 -1.46198 1.20095 0
M  V30 9919 O 960.268 -1.82319 0.224813 0
M  V30 9920 C 960.33 -0.774387 3.51061 0
M  V30 9921 C 959.994 0.287225 4.56096 0
M  V30 9922 C 960.991 1.12388 5.07607 0
M  V30 9923 C 958.676 0.435908 5.00405 0
M  V30 9924 C 960.67 2.09492 6.0199 0
M  V30 9925 C 958.357 1.41037 5.94602 0
M  V30 9926 C 959.355 2.23834 6.45281 0
M  V30 9927 O 959.043 3.19625 7.37628 0
M  V30 9928 H 958.775 -0.0608309 0.673257 0
M  V30 9929 H 961.329 0.470049 1.99949 0
M  V30 9930 H 959.559 -1.57366 3.53232 0
M  V30 9931 H 961.248 -1.29649 3.84637 0
M  V30 9932 H 962.014 1.02 4.74153 0
M  V30 9933 H 957.893 -0.198668 4.60572 0
M  V30 9934 H 961.437 2.74157 6.4147 0
M  V30 9935 H 957.334 1.51487 6.27473 0
M  V30 9936 H 958.102 3.14884 7.55507 0
M  V30 9937 N 960.765 -1.57509 0.0534917 0
M  V30 9938 C 961.712 -2.11667 -0.920101 0
M  V30 9939 C 962.682 -1.0246 -1.30733 0
M  V30 9940 O 963.867 -1.30021 -1.39639 0
M  V30 9941 C 961.007 -2.66803 -2.18883 0
M  V30 9942 C 960.12 -3.90104 -1.85588 0
M  V30 9943 C 959.255 -4.33547 -3.06937 0
M  V30 9944 C 958.294 -5.49542 -2.69573 0
M  V30 9945 N 957.431 -5.88029 -3.83623 0
M  V30 9946 H 962.271 -2.94562 -0.451371 0
M  V30 9947 H 959.808 -1.45576 -0.211168 0
M  V30 9948 H 961.766 -2.96871 -2.93127 0
M  V30 9949 H 960.396 -1.86702 -2.63329 0
M  V30 9950 H 959.448 -3.66613 -1.01484 0
M  V30 9951 H 960.76 -4.74404 -1.54087 0
M  V30 9952 H 959.914 -4.6518 -3.89477 0
M  V30 9953 H 958.653 -3.48064 -3.41618 0
M  V30 9954 H 957.658 -5.17579 -1.8545 0
M  V30 9955 H 958.883 -6.36743 -2.36082 0
M  V30 9956 H 956.829 -5.05498 -4.181 0
M  V30 9957 H 956.746 -6.67025 -3.55828 0
M  V30 9958 H 958.014 -6.24277 -4.66796 0
M  V30 9959 N 962.243 0.219913 -1.56058 0
M  V30 9960 C 963.19 1.27254 -1.92549 0
M  V30 9961 C 964.16 1.46493 -0.782883 0
M  V30 9962 O 965.345 1.60035 -1.03892 0
M  V30 9963 C 962.485 2.61756 -2.24896 0
M  V30 9964 C 961.598 2.50302 -3.52098 0
M  V30 9965 C 960.733 3.77338 -3.73884 0
M  V30 9966 C 959.772 3.60613 -4.94595 0
M  V30 9967 N 958.909 4.79603 -5.12763 0
M  V30 9968 H 963.749 0.954352 -2.82305 0
M  V30 9969 H 961.286 0.459928 -1.39725 0
M  V30 9970 H 963.244 3.40082 -2.4166 0
M  V30 9971 H 961.874 2.91668 -1.38311 0
M  V30 9972 H 960.926 1.63401 -3.43517 0
M  V30 9973 H 962.238 2.33866 -4.40577 0
M  V30 9974 H 961.392 4.64108 -3.90754 0
M  V30 9975 H 960.131 3.96702 -2.83689 0
M  V30 9976 H 959.136 2.72228 -4.77674 0
M  V30 9977 H 960.361 3.42719 -5.86277 0
M  V30 9978 H 958.307 4.99277 -4.2551 0
M  V30 9979 H 958.224 4.65899 -5.95377 0
M  V30 9980 H 959.492 5.67794 -5.34069 0
M  V30 9981 N 963.721 1.49897 0.486681 0
M  V30 9982 C 964.671 1.6401 1.58381 0
M  V30 9983 C 965.655 0.495215 1.5309 0
M  V30 9984 O 966.847 0.748876 1.60377 0
M  V30 9985 C 963.976 1.72321 2.96918 0
M  V30 9986 C 963.062 2.92435 3.07152 0
M  V30 9987 N 963.453 4.16326 2.87238 0
M  V30 9988 C 961.751 2.90669 3.38271 0
M  V30 9989 C 962.452 4.97144 3.02031 0
M  V30 9990 N 961.428 4.3079 3.31544 0
M  V30 9991 H 965.23 2.57506 1.41661 0
M  V30 9992 H 962.744 1.46867 0.693106 0
M  V30 9993 H 964.741 1.80532 3.75784 0
M  V30 9994 H 963.401 0.799724 3.14697 0
M  V30 9995 H 964.412 4.46076 2.63128 0
M  V30 9996 H 961.089 2.07758 3.62137 0
M  V30 9997 H 962.479 6.05611 2.91006 0
M  V30 9998 N 965.199 -0.738761 1.39212 0
M  V30 9999 C 966.447 -1.49529 1.35962 0
M  V30 10000 C 966.768 -1.94948 -0.0450152 0
M  V30 10001 O 966.038 -1.68717 -0.995552 0
M  V30 10002 H 964.618 -0.554692 0.500326 0
M  V30 10003 H 967.28 -0.877255 1.74041 0
M  V30 10004 H 966.376 -2.37919 2.01993 0
M  V30 10005 N 966.677 -1.24326 -0.968545 0
M  V30 10006 C 967.926 -1.07647 -1.70572 0
M  V30 10007 C 968.239 0.384821 -1.91777 0
M  V30 10008 O 969.445 0.671782 -2.63058 0
M  V30 10009 C 967.901 -1.87799 -3.07017 0
M  V30 10010 C 967.509 -3.38333 -2.93658 0
M  V30 10011 C 969.253 -1.79647 -3.84613 0
M  V30 10012 C 967.16 -4.10831 -4.25407 0
M  V30 10013 H 966.09 -0.399216 -0.639642 0
M  V30 10014 H 968.741 -1.484 -1.07934 0
M  V30 10015 H 967.123 -1.3986 -3.7048 0
M  V30 10016 H 968.297 -3.93845 -2.39213 0
M  V30 10017 H 966.612 -3.47427 -2.29528 0
M  V30 10018 H 969.209 -2.31116 -4.82172 0
M  V30 10019 H 969.552 -0.761553 -4.09275 0
M  V30 10020 H 970.085 -2.25261 -3.27875 0
M  V30 10021 H 966.824 -5.14679 -4.05939 0
M  V30 10022 H 966.344 -3.60105 -4.79671 0
M  V30 10023 H 968.023 -4.17783 -4.94031 0
M  V30 10024 N 968.156 1.1691 -1.05688 0
M  V30 10025 C 969.572 1.39288 -0.779167 0
M  V30 10026 C 969.772 1.91587 0.624231 0
M  V30 10027 O 968.828 2.11072 1.38582 0
M  V30 10028 C 970.141 2.37914 -1.83895 0
M  V30 10029 C 971.689 2.51611 -1.86175 0
M  V30 10030 C 972.164 3.53514 -2.9119 0
M  V30 10031 N 973.655 3.61036 -2.90184 0
M  V30 10032 C 974.39 4.39657 -3.68088 0
M  V30 10033 N 973.886 5.21752 -4.55793 0
M  V30 10034 N 975.679 4.3458 -3.56507 0
M  V30 10035 H 967.83 0.81296 -1.96226 0
M  V30 10036 H 970.093 0.419818 -0.849975 0
M  V30 10037 H 969.799 2.06568 -2.84645 0
M  V30 10038 H 969.673 3.37483 -1.68479 0
M  V30 10039 H 972.06 2.82264 -0.86087 0
M  V30 10040 H 972.141 1.52099 -2.05668 0
M  V30 10041 H 971.785 3.23599 -3.91467 0
M  V30 10042 H 971.715 4.52742 -2.68947 0
M  V30 10043 H 974.206 3.02428 -2.26596 0
M  V30 10044 H 974.519 5.78939 -5.11907 0
M  V30 10045 H 972.864 5.21116 -4.59851 0
M  V30 10046 H 976.055 3.69501 -2.87379 0
M  V30 10047 H 976.228 4.95607 -4.17466 0
M  V30 10048 N 969.634 0.838594 1.33437 0
M  V30 10049 C 970.88 0.444042 1.98494 0
M  V30 10050 C 971.235 -0.985759 1.65229 0
M  V30 10051 O 970.528 -1.67972 0.921736 0
M  V30 10052 C 970.722 0.601425 3.52303 0
M  V30 10053 C 970.551 2.04497 4.00513 0
M  V30 10054 C 969.321 2.68015 4.28364 0
M  V30 10055 C 971.519 3.01367 4.16752 0
M  V30 10056 N 969.501 4.03448 4.62713 0
M  V30 10057 C 970.872 4.21745 4.54457 0
M  V30 10058 C 972.927 2.97776 3.99041 0
M  V30 10059 C 971.63 5.39009 4.76301 0
M  V30 10060 C 973.656 4.14269 4.22061 0
M  V30 10061 C 973.018 5.33402 4.60067 0
M  V30 10062 H 969.117 0.210906 0.753022 0
M  V30 10063 H 971.701 1.0866 1.61558 0
M  V30 10064 H 969.872 -0.0113326 3.88398 0
M  V30 10065 H 971.604 0.178343 4.04307 0
M  V30 10066 H 968.359 2.19153 4.19844 0
M  V30 10067 H 968.783 4.73264 4.84098 0
M  V30 10068 H 973.425 2.06801 3.68773 0
M  V30 10069 H 971.143 6.30529 5.0543 0
M  V30 10070 H 974.729 4.12908 4.09876 0
M  V30 10071 H 973.609 6.22045 4.77525 0
M  V30 10072 N 971.112 -1.45937 0.595003 0
M  V30 10073 C 972.358 -2.0262 0.0854317 0
M  V30 10074 C 972.691 -1.46402 -1.27594 0
M  V30 10075 O 971.966 -0.633823 -1.83883 0
M  V30 10076 C 972.249 -3.60085 0.0329075 0
M  V30 10077 C 972.102 -4.26663 1.42405 0
M  V30 10078 C 973.421 -4.35101 -0.661426 0
M  V30 10079 H 970.54 -0.736282 0.0325196 0
M  V30 10080 H 973.182 -1.73938 0.764563 0
M  V30 10081 H 971.332 -3.84652 -0.545439 0
M  V30 10082 H 973.004 -4.13321 2.04851 0
M  V30 10083 H 971.247 -3.85549 1.98833 0
M  V30 10084 H 971.918 -5.35497 1.33965 0
M  V30 10085 H 974.394 -4.15753 -0.169977 0
M  V30 10086 H 973.27 -5.44829 -0.667243 0
M  V30 10087 H 973.531 -4.07053 -1.72513 0
M  V30 10088 N 972.59 -0.333456 -1.54032 0
M  V30 10089 C 973.836 0.266527 -2.01041 0
M  V30 10090 C 974.169 1.51006 -1.2211 0
M  V30 10091 O 973.444 1.92078 -0.306016 0
M  V30 10092 C 973.727 0.59078 -3.55221 0
M  V30 10093 C 973.58 -0.664143 -4.4487 0
M  V30 10094 C 974.899 1.40447 -4.17088 0
M  V30 10095 H 972.018 0.0953979 -0.7308 0
M  V30 10096 H 974.66 -0.451995 -1.84545 0
M  V30 10097 H 972.81 1.20292 -3.69408 0
M  V30 10098 H 974.482 -1.30227 -4.42537 0
M  V30 10099 H 972.725 -1.29106 -4.14143 0
M  V30 10100 H 973.396 -0.392664 -5.50602 0
M  V30 10101 H 975.872 0.886946 -4.06537 0
M  V30 10102 H 974.748 1.6001 -5.2506 0
M  V30 10103 H 975.009 2.40357 -3.71054 0
M  V30 10104 N 974.068 1.57479 -0.061844 0
M  V30 10105 C 975.317 1.92285 0.609055 0
M  V30 10106 C 975.63 0.942983 1.71369 0
M  V30 10107 O 976.836 1.18349 2.44348 0
M  V30 10108 C 975.292 3.41545 1.13468 0
M  V30 10109 C 974.9 4.47958 0.0615926 0
M  V30 10110 C 976.644 3.85368 1.78022 0
M  V30 10111 C 974.551 5.88341 0.600705 0
M  V30 10112 H 973.481 0.717656 0.23127 0
M  V30 10113 H 976.132 1.83021 -0.132466 0
M  V30 10114 H 974.514 3.45848 1.92886 0
M  V30 10115 H 975.688 4.55258 -0.712527 0
M  V30 10116 H 974.003 4.13541 -0.487116 0
M  V30 10117 H 976.6 4.87627 2.19371 0
M  V30 10118 H 976.943 3.22193 2.63623 0
M  V30 10119 H 977.476 3.83626 1.05242 0
M  V30 10120 H 974.215 6.55138 -0.217922 0
M  V30 10121 H 973.735 5.84581 1.34257 0
M  V30 10122 H 975.414 6.37918 1.08025 0
M  V30 10123 N 975.546 -0.211634 1.56173 0
M  V30 10124 C 976.794 -0.932704 1.7929 0
M  V30 10125 C 977.115 -1.84472 0.632076 0
M  V30 10126 O 976.385 -1.92739 -0.350519 0
M  V30 10127 H 974.965 -0.347393 0.661307 0
M  V30 10128 H 977.627 -0.22111 1.93642 0
M  V30 10129 H 976.723 -1.53365 2.71819 0
M  V30 10130 N 977.024 -1.50153 -0.478725 0
M  V30 10131 C 978.301 -1.51274 -1.23999 0
M  V30 10132 C 978.681 -0.253048 -2.09578 0
M  V30 10133 O 978.029 0.763827 -2.15355 0
M  V30 10134 C 978.239 -2.80423 -2.07759 0
M  V30 10135 C 979.587 -3.30788 -2.66204 0
M  V30 10136 O 980.611 -2.81693 -2.18008 0
M  V30 10137 O 979.47 -4.1635 -3.53999 0
M  V30 10138 H 976.564 -0.606438 -0.562283 0
M  V30 10139 H 979.11 -1.62436 -0.491171 0
M  V30 10140 H 977.882 -3.63584 -1.44645 0
M  V30 10141 H 977.505 -2.72228 -2.89789 0
M  V30 10142 N 978.502 0.731368 -1.39602 0
M  V30 10143 C 979.412 1.87579 -1.40894 0
M  V30 10144 C 980.428 1.71336 -0.303319 0
M  V30 10145 O 981.604 1.93875 -0.545377 0
M  V30 10146 C 978.669 3.23211 -1.25442 0
M  V30 10147 C 977.73 3.51822 -2.46008 0
M  V30 10148 C 976.963 4.80982 -2.31284 0
M  V30 10149 O 977.186 5.54958 -1.31824 0
M  V30 10150 O 976.12 5.09574 -3.20341 0
M  V30 10151 H 979.946 1.89444 -2.3737 0
M  V30 10152 H 977.531 0.879675 -1.20756 0
M  V30 10153 H 979.413 4.04257 -1.18972 0
M  V30 10154 H 978.088 3.22108 -0.320637 0
M  V30 10155 H 976.995 2.70847 -2.58055 0
M  V30 10156 H 978.328 3.57707 -3.38093 0
M  V30 10157 N 979.98 1.24838 0.961938 0
M  V30 10158 C 980.928 1.0436 2.07874 0
M  V30 10159 C 981.922 -0.0232531 1.69384 0
M  V30 10160 O 983.128 0.131773 1.79517 0
M  V30 10161 H 979.503 0.320492 0.680286 0
M  V30 10162 H 981.474 1.99055 2.22306 0
M  V30 10163 C 980.223 0.671246 3.41159 0
M  V30 10164 H 979.546 1.48395 3.7124 0
M  V30 10165 H 980.986 0.567608 4.20184 0
M  V30 10166 C 979.445 -0.622124 3.31106 0
M  V30 10167 O 979.975 -1.66627 3.65511 0
M  V30 10168 N 978.181 -0.605009 2.84232 0
M  V30 10169 H 977.728 0.245052 2.56432 0
M  V30 10170 H 977.686 -1.47056 2.77888 0
M  V30 10171 N 981.458 -1.16348 1.06306 0
M  V30 10172 C 982.688 -1.90505 0.799453 0
M  V30 10173 C 983.096 -1.77686 -0.649955 0
M  V30 10174 O 982.439 -1.11921 -1.45669 0
M  V30 10175 C 982.501 -3.41775 1.11492 0
M  V30 10176 C 982.165 -3.7838 2.56277 0
M  V30 10177 C 983.162 -3.80288 3.54509 0
M  V30 10178 C 980.847 -4.09007 2.9158 0
M  V30 10179 C 982.841 -4.12312 4.86084 0
M  V30 10180 C 980.528 -4.40697 4.23354 0
M  V30 10181 C 981.526 -4.4233 5.20416 0
M  V30 10182 O 981.214 -4.73267 6.49826 0
M  V30 10183 H 980.946 -0.61094 0.289359 0
M  V30 10184 H 983.5 -1.48409 1.41999 0
M  V30 10185 H 981.73 -3.84219 0.437306 0
M  V30 10186 H 983.419 -3.97207 0.835533 0
M  V30 10187 H 984.185 -3.56738 3.28577 0
M  V30 10188 H 980.064 -4.06901 2.16686 0
M  V30 10189 H 983.608 -4.13501 5.61838 0
M  V30 10190 H 979.505 -4.63713 4.49044 0
M  V30 10191 H 980.273 -4.91078 6.54817 0
M  V30 10192 N 982.937 -0.845659 -1.3299 0
M  V30 10193 C 984.185 -0.443774 -1.97168 0
M  V30 10194 C 984.506 1.00192 -1.67292 0
M  V30 10195 O 983.776 1.69891 -0.975397 0
M  V30 10196 H 982.356 -0.161111 -0.729419 0
M  V30 10197 H 985.018 -1.08011 -1.62233 0
M  V30 10198 H 984.114 -0.581414 -3.06637 0
M  V30 10199 N 984.415 1.45619 -0.602734 0
M  V30 10200 C 985.325 2.34288 0.120902 0
M  V30 10201 C 986.341 1.50952 0.865414 0
M  V30 10202 O 987.517 1.83768 0.824094 0
M  V30 10203 C 984.582 3.28489 1.10888 0
M  V30 10204 C 983.643 4.2773 0.366853 0
M  V30 10205 C 982.876 5.17429 1.30776 0
M  V30 10206 O 983.099 5.10459 2.54535 0
M  V30 10207 O 982.033 5.96459 0.807464 0
M  V30 10208 H 985.859 2.97559 -0.60765 0
M  V30 10209 H 983.444 1.44922 -0.363019 0
M  V30 10210 H 985.326 3.86549 1.67803 0
M  V30 10211 H 984.001 2.67789 1.81854 0
M  V30 10212 H 982.908 3.73299 -0.244643 0
M  V30 10213 H 984.241 4.91271 -0.302226 0
M  V30 10214 N 985.893 0.34162 1.53853 0
M  V30 10215 C 987.141 -0.254979 2.00485 0
M  V30 10216 C 987.462 -1.51222 1.23114 0
M  V30 10217 O 986.732 -1.92966 0.337787 0
M  V30 10218 H 985.312 -0.0972084 0.740648 0
M  V30 10219 H 987.974 0.462332 1.89337 0
M  V30 10220 H 987.07 -0.498778 3.08089 0
M  V30 10221 N 987.371 -1.57444 0.0701946 0
M  V30 10222 C 988.596 -1.98171 -0.61181 0
M  V30 10223 C 989.021 -0.94823 -1.62451 0
M  V30 10224 O 988.379 0.0863553 -1.81094 0
M  V30 10225 C 988.427 -3.37934 -1.2583 0
M  V30 10226 O 987.531 -3.37207 -2.37414 0
M  V30 10227 H 986.872 -0.645056 -0.157477 0
M  V30 10228 H 989.402 -2.04091 0.144235 0
M  V30 10229 H 989.412 -3.75083 -1.60552 0
M  V30 10230 H 988.087 -4.12684 -0.516234 0
M  V30 10231 H 986.664 -3.11826 -2.04497 0
M  V30 10232 N 988.849 0.203349 -1.56283 0
M  V30 10233 C 990.074 0.945548 -1.84592 0
M  V30 10234 C 990.499 1.7641 -0.652772 0
M  V30 10235 O 989.857 1.76867 0.398468 0
M  V30 10236 C 989.905 1.82416 -3.11057 0
M  V30 10237 O 989.009 2.92191 -2.9103 0
M  V30 10238 H 988.35 0.266739 -0.608068 0
M  V30 10239 H 990.88 0.211158 -2.03507 0
M  V30 10240 H 990.89 2.23044 -3.41636 0
M  V30 10241 H 989.565 1.22267 -3.97522 0
M  V30 10242 H 988.142 2.55378 -2.71728 0
M  V30 10243 N 990.327 1.50405 0.470755 0
M  V30 10244 C 991.743 1.37838 0.804534 0
M  V30 10245 C 991.943 0.434743 1.96754 0
M  V30 10246 O 990.999 -0.122507 2.52203 0
M  V30 10247 C 992.312 2.79212 1.11629 0
M  V30 10248 C 993.86 2.88129 1.22272 0
M  V30 10249 C 994.335 4.30337 1.5676 0
M  V30 10250 N 995.826 4.3329 1.63751 0
M  V30 10251 C 996.561 5.4032 1.91942 0
M  V30 10252 N 996.057 6.57558 2.18151 0
M  V30 10253 N 997.85 5.27764 1.93446 0
M  V30 10254 H 990.001 2.10332 -0.295689 0
M  V30 10255 H 992.264 0.945429 -0.0697733 0
M  V30 10256 H 991.97 3.50103 0.334778 0
M  V30 10257 H 991.844 3.16475 2.0524 0
M  V30 10258 H 994.231 2.17457 1.9949 0
M  V30 10259 H 994.312 2.54409 0.2664 0
M  V30 10260 H 993.956 5.01547 0.800817 0
M  V30 10261 H 993.886 4.61545 2.53543 0
M  V30 10262 H 996.377 3.48752 1.45535 0
M  V30 10263 H 996.69 7.34935 2.38936 0
M  V30 10264 H 995.035 6.60732 2.15542 0
M  V30 10265 H 998.226 4.35169 1.72468 0
M  V30 10266 H 998.399 6.11264 2.15081 0
M  V30 10267 N 991.805 -0.723954 1.39988 0
M  V30 10268 C 992.715 -1.86829 1.41887 0
M  V30 10269 C 993.731 -1.71173 0.312401 0
M  V30 10270 O 994.907 -1.93583 0.555651 0
M  V30 10271 C 991.972 -3.22541 1.27154 0
M  V30 10272 C 991.033 -3.50512 2.47871 0
M  V30 10273 C 990.266 -4.79749 2.33831 0
M  V30 10274 O 990.489 -5.54251 1.34765 0
M  V30 10275 O 989.423 -5.07868 3.23039 0
M  V30 10276 H 993.249 -1.88183 2.38371 0
M  V30 10277 H 990.834 -0.873259 1.21221 0
M  V30 10278 H 992.716 -4.0362 1.21114 0
M  V30 10279 H 991.391 -3.21933 0.337715 0
M  V30 10280 H 990.298 -2.69475 2.59488 0
M  V30 10281 H 991.631 -3.55909 3.39985 0
M  V30 10282 N 993.283 -1.25346 -0.955304 0
M  V30 10283 C 994.233 -1.02358 -2.03732 0
M  V30 10284 C 995.217 0.0392941 -1.60852 0
M  V30 10285 O 996.409 -0.175959 -1.76123 0
M  V30 10286 C 993.538 -0.643552 -3.37214 0
M  V30 10287 C 992.624 -1.74315 -3.8662 0
M  V30 10288 N 993.015 -2.97816 -4.08827 0
M  V30 10289 C 991.313 -1.62351 -4.15401 0
M  V30 10290 C 992.014 -3.69185 -4.4953 0
M  V30 10291 N 990.99 -2.96803 -4.55422 0
M  V30 10292 H 994.792 -1.96119 -2.18894 0
M  V30 10293 H 992.306 -1.15655 -1.14007 0
M  V30 10294 H 994.303 -0.460053 -4.14354 0
M  V30 10295 H 992.963 0.286738 -3.23431 0
M  V30 10296 H 993.974 -3.33868 -3.95919 0
M  V30 10297 H 990.651 -0.762133 -4.10485 0
M  V30 10298 H 992.041 -4.7519 -4.7502 0
M  V30 10299 N 994.761 1.15782 -1.06922 0
M  V30 10300 C 995.724 2.18578 -0.689654 0
M  V30 10301 C 996.724 1.58553 0.267872 0
M  V30 10302 O 997.914 1.7413 0.0494097 0
M  V30 10303 C 995.046 3.40896 -0.0157919 0
M  V30 10304 H 996.239 2.53672 -1.59971 0
M  V30 10305 H 993.792 1.30168 -0.865214 0
M  V30 10306 H 994.527 3.11367 0.906712 0
M  V30 10307 H 994.312 3.85721 -0.704415 0
M  V30 10308 H 995.802 4.16937 0.235266 0
M  V30 10309 N 996.239 0.8527 1.3254 0
M  V30 10310 C 997.202 0.300959 2.27215 0
M  V30 10311 C 998.202 -0.538235 1.51525 0
M  V30 10312 O 999.392 -0.350027 1.70647 0
M  V30 10313 C 996.524 -0.574428 3.36025 0
M  V30 10314 H 997.717 1.13655 2.77529 0
M  V30 10315 H 995.27 0.626878 1.43178 0
M  V30 10316 H 996.005 -1.43191 2.90976 0
M  V30 10317 H 995.79 0.0262265 3.92091 0
M  V30 10318 H 997.28 -0.9533 4.06573 0
M  V30 10319 N 997.718 -1.45297 0.610449 0
M  V30 10320 C 998.648 -2.33311 -0.0939698 0
M  V30 10321 C 999.629 -1.46999 -0.85588 0
M  V30 10322 O 1000.81 -1.75764 -0.825865 0
M  V30 10323 C 997.944 -3.29751 -1.09003 0
M  V30 10324 C 996.898 -4.2572 -0.441146 0
M  V30 10325 C 996.224 -5.11873 -1.54566 0
M  V30 10326 C 997.524 -5.1837 0.639489 0
M  V30 10327 H 999.218 -2.92459 0.640941 0
M  V30 10328 H 996.764 -1.40631 0.309675 0
M  V30 10329 H 998.717 -3.90195 -1.59141 0
M  V30 10330 H 997.441 -2.68768 -1.85557 0
M  V30 10331 H 996.1 -3.66579 0.0393908 0
M  V30 10332 H 995.748 -4.47256 -2.30155 0
M  V30 10333 H 995.448 -5.76886 -1.11698 0
M  V30 10334 H 996.972 -5.75185 -2.04925 0
M  V30 10335 H 998.386 -5.7287 0.22207 0
M  V30 10336 H 996.783 -5.91876 0.990089 0
M  V30 10337 H 997.853 -4.60627 1.51495 0
M  V30 10338 N 999.196 -0.349774 -1.5367 0
M  V30 10339 C 1000.11 0.512421 -2.28935 0
M  V30 10340 C 1001.12 1.1065 -1.34286 0
M  V30 10341 O 1002.3 1.12084 -1.67329 0
M  V30 10342 C 999.363 1.64449 -3.05217 0
M  V30 10343 C 998.424 1.07956 -4.15505 0
M  V30 10344 C 997.657 2.15768 -4.88139 0
M  V30 10345 O 997.88 3.366 -4.60496 0
M  V30 10346 O 996.814 1.79712 -5.74445 0
M  V30 10347 H 1000.64 -0.0996001 -3.03537 0
M  V30 10348 H 998.225 -0.114629 -1.4896 0
M  V30 10349 H 1000.11 2.30302 -3.52901 0
M  V30 10350 H 998.782 2.24221 -2.33467 0
M  V30 10351 H 997.689 0.385381 -3.7211 0
M  V30 10352 H 999.022 0.526621 -4.89375 0
M  V30 10353 N 1000.67 1.57404 -0.0785433 0
M  V30 10354 C 1002.08 1.81118 0.45311 0
M  V30 10355 C 1002.44 0.992963 1.69218 0
M  V30 10356 O 1001.56 0.217448 2.15305 0
M  V30 10357 C 1002.16 3.28506 0.82882 0
M  V30 10358 C 1000.71 3.53042 1.3053 0
M  V30 10359 C 999.862 2.75739 0.29378 0
M  V30 10360 H 1002.81 1.55758 -0.304171 0
M  V30 10361 H 1002.83 3.40924 1.68971 0
M  V30 10362 H 1002.35 3.88031 -0.0731826 0
M  V30 10363 H 1000.45 2.98829 2.22558 0
M  V30 10364 H 1000.56 4.61724 1.27857 0
M  V30 10365 H 998.924 2.42703 0.772477 0
M  V30 10366 H 999.707 3.38005 -0.600613 0
M  V30 10367 N 1002.15 -0.195058 1.56388 0
M  V30 10368 C 1003.57 -0.545894 1.49974 0
M  V30 10369 C 1003.77 -1.85851 0.778568 0
M  V30 10370 O 1002.82 -2.50346 0.329105 0
M  V30 10371 C 1004.14 -0.600599 2.94641 0
M  V30 10372 C 1005.68 -0.689429 3.05313 0
M  V30 10373 C 1006.16 -0.775243 4.51391 0
M  V30 10374 N 1007.65 -0.838769 4.55542 0
M  V30 10375 C 1008.39 -0.925337 5.65884 0
M  V30 10376 N 1007.88 -0.974204 6.85916 0
M  V30 10377 N 1009.67 -0.962528 5.53798 0
M  V30 10378 H 1001.83 0.66595 2.0169 0
M  V30 10379 H 1004.09 0.237215 0.917842 0
M  V30 10380 H 1003.79 0.29478 3.50462 0
M  V30 10381 H 1003.67 -1.45528 3.47996 0
M  V30 10382 H 1006.06 -1.57524 2.4954 0
M  V30 10383 H 1006.14 0.191451 2.55083 0
M  V30 10384 H 1005.78 0.106215 5.07789 0
M  V30 10385 H 1005.71 -1.67193 4.99354 0
M  V30 10386 H 1008.2 -0.810249 3.69112 0
M  V30 10387 H 1008.51 -1.04077 7.6576 0
M  V30 10388 H 1006.86 -0.942881 6.88574 0
M  V30 10389 H 1010.05 -0.921188 4.58946 0
M  V30 10390 H 1010.22 -1.02653 6.39817 0
M  V30 10391 N 1003.63 -1.50653 -0.462772 0
M  V30 10392 C 1004.58 -1.66509 -1.55752 0
M  V30 10393 C 1005.56 -0.519508 -1.52282 0
M  V30 10394 O 1006.76 -0.774296 -1.59166 0
M  V30 10395 C 1003.88 -1.77023 -2.94139 0
M  V30 10396 C 1002.97 -2.97284 -3.02461 0
M  V30 10397 N 1003.36 -4.20843 -2.80579 0
M  V30 10398 C 1001.66 -2.96014 -3.33604 0
M  V30 10399 C 1002.36 -5.01886 -2.94084 0
M  V30 10400 N 1001.34 -4.3601 -3.24648 0
M  V30 10401 H 1005.14 -2.59727 -1.37546 0
M  V30 10402 H 1002.65 -1.47951 -0.669653 0
M  V30 10403 H 1004.65 -1.86488 -3.72864 0
M  V30 10404 H 1003.31 -0.849688 -3.13385 0
M  V30 10405 H 1004.32 -4.50206 -2.55998 0
M  V30 10406 H 1001 -2.13493 -3.58786 0
M  V30 10407 H 1002.39 -6.10164 -2.81334 0
M  V30 10408 N 1005.11 0.71652 -1.4037 0
M  V30 10409 C 1006.04 1.84345 -1.43315 0
M  V30 10410 C 1007.02 1.67537 -0.294186 0
M  V30 10411 O 1008.2 1.87582 -0.502671 0
M  V30 10412 C 1005.33 3.2229 -1.29408 0
M  V30 10413 C 1004.29 3.53769 -2.40897 0
M  V30 10414 C 1003.61 4.90847 -2.12068 0
M  V30 10415 C 1004.91 3.54862 -3.83237 0
M  V30 10416 H 1006.61 1.82138 -2.37626 0
M  V30 10417 H 1004.15 0.874873 -1.14376 0
M  V30 10418 H 1006.11 4.00819 -1.30085 0
M  V30 10419 H 1004.83 3.2507 -0.31573 0
M  V30 10420 H 1003.49 2.77579 -2.39469 0
M  V30 10421 H 1003.14 4.90229 -1.12626 0
M  V30 10422 H 1002.84 5.12875 -2.86762 0
M  V30 10423 H 1004.36 5.71711 -2.14426 0
M  V30 10424 H 1005.78 4.23432 -3.86494 0
M  V30 10425 H 1004.17 3.88416 -4.57442 0
M  V30 10426 H 1005.24 2.54266 -4.12888 0
M  V30 10427 N 1006.59 1.25851 0.948643 0
M  V30 10428 C 1007.83 1.10735 1.69062 0
M  V30 10429 C 1008.16 -0.351257 1.9181 0
M  V30 10430 O 1007.43 -1.24867 1.50947 0
M  V30 10431 H 1006.01 0.406796 0.626519 0
M  V30 10432 H 1008.67 1.58066 1.14022 0
M  V30 10433 H 1007.76 1.62033 2.66743 0
M  V30 10434 N 1008.06 -1.15214 1.07534 0
M  V30 10435 C 1009.31 -1.85676 0.79805 0
M  V30 10436 C 1009.63 -1.82837 -0.677919 0
M  V30 10437 O 1008.9 -1.27059 -1.49107 0
M  V30 10438 H 1007.48 -0.687468 0.292227 0
M  V30 10439 H 1010.15 -1.39658 1.35947 0
M  V30 10440 H 1009.24 -2.9076 1.13423 0
M  V30 10441 N 1009.54 -0.859717 -1.32086 0
M  V30 10442 C 1010.96 -0.55025 -1.49815 0
M  V30 10443 C 1011.16 0.917966 -1.79376 0
M  V30 10444 O 1010.21 1.70073 -1.86632 0
M  V30 10445 C 1011.53 -1.44161 -2.6389 0
M  V30 10446 C 1013.08 -1.44257 -2.77775 0
M  V30 10447 C 1013.55 -2.31926 -3.94936 0
M  V30 10448 N 1015.04 -2.2975 -4.02206 0
M  V30 10449 C 1015.78 -2.9431 -4.92107 0
M  V30 10450 N 1015.27 -3.68001 -5.86981 0
M  V30 10451 N 1017.07 -2.83671 -4.8527 0
M  V30 10452 H 1009.22 -1.80987 -1.11164 0
M  V30 10453 H 1011.48 -0.773313 -0.548353 0
M  V30 10454 H 1011.19 -2.48588 -2.4879 0
M  V30 10455 H 1011.06 -1.13268 -3.59792 0
M  V30 10456 H 1013.45 -0.405923 -2.92295 0
M  V30 10457 H 1013.53 -1.79169 -1.82571 0
M  V30 10458 H 1013.17 -3.35661 -3.81174 0
M  V30 10459 H 1013.1 -1.94344 -4.89426 0
M  V30 10460 H 1015.59 -1.76177 -3.3432 0
M  V30 10461 H 1015.91 -4.14417 -6.52287 0
M  V30 10462 H 1014.25 -3.72109 -5.86992 0
M  V30 10463 H 1017.44 -2.25647 -4.10123 0
M  V30 10464 H 1017.61 -3.34267 -5.5513 0
M  V30 10465 N 1011.02 1.44971 -0.618145 0
M  V30 10466 C 1011.98 2.29044 0.0846739 0
M  V30 10467 C 1012.98 1.40341 0.784921 0
M  V30 10468 O 1014.17 1.62351 0.631479 0
M  V30 10469 C 1011.31 3.21617 1.13027 0
M  V30 10470 H 1012.5 2.92668 -0.654612 0
M  V30 10471 H 1010.05 1.51668 -0.377672 0
M  V30 10472 H 1010.79 2.62815 1.89997 0
M  V30 10473 H 1010.57 3.86969 0.63224 0
M  V30 10474 H 1012.06 3.84805 1.62218 0
M  V30 10475 N 1012.5 0.357919 1.53482 0
M  V30 10476 C 1013.75 -0.235241 2.00324 0
M  V30 10477 C 1014.06 -1.50494 1.24944 0
M  V30 10478 O 1015.27 -2.17623 1.62335 0
M  V30 10479 C 1013.72 -0.469748 3.56821 0
M  V30 10480 C 1013.33 0.784877 4.41071 0
M  V30 10481 C 1015.07 -1.02098 4.12039 0
M  V30 10482 C 1012.98 0.520377 5.89106 0
M  V30 10483 H 1011.91 -0.0916816 0.748405 0
M  V30 10484 H 1014.56 0.475474 1.77233 0
M  V30 10485 H 1012.94 -1.24153 3.76035 0
M  V30 10486 H 1014.12 1.55886 4.33631 0
M  V30 10487 H 1012.43 1.25878 3.96918 0
M  V30 10488 H 1015.03 -1.23406 5.20264 0
M  V30 10489 H 1015.37 -1.98084 3.66154 0
M  V30 10490 H 1015.91 -0.309554 3.96594 0
M  V30 10491 H 1012.65 1.45035 6.39254 0
M  V30 10492 H 1012.17 -0.215254 5.99414 0
M  V30 10493 H 1013.84 0.143006 6.46842 0
M  V30 10494 N 1013.98 -1.5736 0.0868897 0
M  V30 10495 C 1015.23 -1.93229 -0.578387 0
M  V30 10496 C 1015.54 -0.970127 -1.69847 0
M  V30 10497 O 1016.74 -1.22222 -2.42434 0
M  V30 10498 C 1015.2 -3.43307 -1.0802 0
M  V30 10499 C 1014.81 -4.47999 0.00968135 0
M  V30 10500 C 1016.55 -3.88151 -1.71868 0
M  V30 10501 C 1014.46 -5.89223 -0.507029 0
M  V30 10502 H 1013.39 -0.721245 -0.219823 0
M  V30 10503 H 1016.04 -1.82787 0.161566 0
M  V30 10504 H 1014.42 -3.48873 -1.87359 0
M  V30 10505 H 1015.6 -4.54067 0.784865 0
M  V30 10506 H 1013.91 -4.12714 0.552845 0
M  V30 10507 H 1016.51 -4.91056 -2.11585 0
M  V30 10508 H 1016.85 -3.26347 -2.58464 0
M  V30 10509 H 1017.38 -3.85252 -0.991259 0
M  V30 10510 H 1014.12 -6.54708 0.322121 0
M  V30 10511 H 1013.64 -5.86643 -1.2494 0
M  V30 10512 H 1015.32 -6.39556 -0.978628 0
M  V30 10513 N 1015.45 0.186762 -1.56489 0
M  V30 10514 C 1016.68 0.921832 -1.85229 0
M  V30 10515 C 1017.1 1.76496 -0.670416 0
M  V30 10516 O 1016.45 1.78899 0.360758 0
M  V30 10517 C 1016.51 1.81121 -3.12854 0
M  V30 10518 O 1016.23 1.00211 -4.26485 0
M  V30 10519 C 1017.73 2.65725 -3.54831 0
M  V30 10520 H 1014.95 0.268563 -0.61491 0
M  V30 10521 H 1017.49 0.191505 -2.03601 0
M  V30 10522 H 1015.65 2.49506 -2.96354 0
M  V30 10523 H 1016.06 1.60893 -4.99213 0
M  V30 10524 H 1017.53 3.23771 -4.47075 0
M  V30 10525 H 1018.01 3.39843 -2.78215 0
M  V30 10526 H 1018.62 2.02698 -3.7389 0
M  V30 10527 N 1016.93 1.50896 0.454776 0
M  V30 10528 C 1017.88 1.70947 1.55067 0
M  V30 10529 C 1018.85 0.550899 1.56698 0
M  V30 10530 O 1020.03 0.783352 1.73978 0
M  V30 10531 C 1017.17 1.82455 2.92924 0
M  V30 10532 C 1016.29 3.09919 3.00956 0
M  V30 10533 C 1015.42 3.12125 4.29827 0
M  V30 10534 C 1014.46 4.33975 4.31662 0
M  V30 10535 N 1013.6 4.33828 5.5203 0
M  V30 10536 H 1018.44 2.645 1.37273 0
M  V30 10537 H 1015.98 1.31101 0.667148 0
M  V30 10538 H 1017.93 1.87108 3.72889 0
M  V30 10539 H 1016.56 0.92327 3.09315 0
M  V30 10540 H 1015.62 3.14659 2.13761 0
M  V30 10541 H 1016.93 3.99869 2.98172 0
M  V30 10542 H 1016.08 3.15598 5.18154 0
M  V30 10543 H 1014.82 2.20033 4.35243 0
M  V30 10544 H 1013.83 4.30697 3.41731 0
M  V30 10545 H 1015.05 5.27312 4.27924 0
M  V30 10546 H 1013 3.44598 5.58201 0
M  V30 10547 H 1012.91 5.17566 5.51055 0
M  V30 10548 H 1014.18 4.4147 6.42437 0
M  V30 10549 N 1018.41 -0.709066 1.40748 0
M  V30 10550 C 1019.64 -1.50313 1.42901 0
M  V30 10551 C 1020.06 -1.88072 0.032213 0
M  V30 10552 O 1019.42 -1.53716 -0.96131 0
M  V30 10553 C 1019.47 -2.75074 2.33166 0
M  V30 10554 O 1018.57 -3.72036 1.7794 0
M  V30 10555 H 1017.91 -0.452934 0.485538 0
M  V30 10556 H 1020.44 -0.872712 1.85054 0
M  V30 10557 H 1020.45 -3.23532 2.48578 0
M  V30 10558 H 1019.13 -2.46927 3.34664 0
M  V30 10559 H 1017.7 -3.30911 1.71908 0
M  V30 10560 N 1019.89 -1.26353 -0.941956 0
M  V30 10561 C 1021.14 -1.11851 -1.68806 0
M  V30 10562 C 1021.46 0.33829 -1.91535 0
M  V30 10563 O 1020.72 1.26495 -1.49324 0
M  V30 10564 C 1021.02 -1.83195 -3.06879 0
M  V30 10565 C 1020.68 -3.33093 -3.03908 0
M  V30 10566 C 1019.35 -3.73982 -3.02805 0
M  V30 10567 C 1021.7 -4.28803 -2.96273 0
M  V30 10568 C 1019.03 -5.08971 -2.91832 0
M  V30 10569 C 1021.38 -5.6383 -2.86842 0
M  V30 10570 C 1020.04 -6.04032 -2.84081 0
M  V30 10571 H 1019.31 -0.409293 -0.617706 0
M  V30 10572 H 1021.96 -1.56785 -1.09957 0
M  V30 10573 H 1020.26 -1.30728 -3.69347 0
M  V30 10574 H 1021.96 -1.69416 -3.63455 0
M  V30 10575 H 1018.55 -3.00566 -3.05546 0
M  V30 10576 H 1022.74 -3.98195 -2.96234 0
M  V30 10577 H 1017.99 -5.39282 -2.88072 0
M  V30 10578 H 1022.17 -6.37676 -2.79898 0
M  V30 10579 H 1019.79 -7.08586 -2.75335 0
M  V30 10580 N 1021.37 1.14642 -1.08144 0
M  V30 10581 C 1022.33 2.17834 -0.712799 0
M  V30 10582 C 1023.33 1.58828 0.251041 0
M  V30 10583 O 1024.52 1.74173 0.0309381 0
M  V30 10584 C 1021.65 3.4086 -0.0519477 0
M  V30 10585 H 1022.85 2.51961 -1.62653 0
M  V30 10586 H 1020.4 1.29243 -0.878971 0
M  V30 10587 H 1021.13 3.12311 0.873636 0
M  V30 10588 H 1020.92 3.84952 -0.745286 0
M  V30 10589 H 1022.41 4.17163 0.191031 0
M  V30 10590 N 1022.85 0.866709 1.31628 0
M  V30 10591 C 1024.26 0.558188 1.49521 0
M  V30 10592 C 1024.46 -0.90844 1.7986 0
M  V30 10593 O 1023.52 -1.6908 1.87531 0
M  V30 10594 C 1024.83 1.45559 2.63122 0
M  V30 10595 C 1026.38 1.45728 2.77006 0
M  V30 10596 C 1026.85 2.34017 3.937 0
M  V30 10597 N 1028.34 2.31879 4.00982 0
M  V30 10598 C 1029.08 2.96915 4.90539 0
M  V30 10599 N 1028.58 3.71109 5.85021 0
M  V30 10600 N 1030.37 2.86241 4.83759 0
M  V30 10601 H 1022.52 1.81574 1.10203 0
M  V30 10602 H 1024.78 0.77621 0.544244 0
M  V30 10603 H 1024.49 2.49904 2.47469 0
M  V30 10604 H 1024.36 1.15174 3.59186 0
M  V30 10605 H 1026.75 0.421419 2.92075 0
M  V30 10606 H 1026.83 1.80134 1.81619 0
M  V30 10607 H 1026.47 3.37678 3.79389 0
M  V30 10608 H 1026.4 1.96937 4.88388 0
M  V30 10609 H 1028.9 1.77948 3.33381 0
M  V30 10610 H 1029.21 4.1787 6.5008 0
M  V30 10611 H 1027.55 3.75217 5.8501 0
M  V30 10612 H 1030.74 2.27819 4.08921 0
M  V30 10613 H 1030.92 3.37206 5.5335 0
M  V30 10614 N 1024.32 -1.44642 0.625825 0
M  V30 10615 C 1025.57 -2.01308 0.125682 0
M  V30 10616 C 1025.89 -1.49773 -1.25807 0
M  V30 10617 O 1027.09 -1.98533 -1.85194 0
M  V30 10618 C 1025.55 -3.59479 0.17395 0
M  V30 10619 C 1025.16 -4.20011 1.55868 0
M  V30 10620 C 1026.9 -4.2364 -0.270005 0
M  V30 10621 C 1024.81 -5.7039 1.56235 0
M  V30 10622 H 1023.74 -0.75276 0.0432194 0
M  V30 10623 H 1026.39 -1.65916 0.783842 0
M  V30 10624 H 1024.77 -3.92145 -0.551212 0
M  V30 10625 H 1025.94 -3.98891 2.307 0
M  V30 10626 H 1024.26 -3.68116 1.94627 0
M  V30 10627 H 1026.86 -5.33931 -0.28672 0
M  V30 10628 H 1027.2 -3.95603 -1.29629 0
M  V30 10629 H 1027.73 -3.95759 0.402487 0
M  V30 10630 H 1024.47 -6.03154 2.56683 0
M  V30 10631 H 1023.99 -5.93648 0.856881 0
M  V30 10632 H 1025.67 -6.33929 1.29396 0
M  V30 10633 N 1025.8 -0.366053 -1.5329 0
M  V30 10634 C 1026.75 0.496656 -2.22525 0
M  V30 10635 C 1027.74 1.0483 -1.22063 0
M  V30 10636 O 1028.93 0.978266 -1.47509 0
M  V30 10637 C 1026.06 1.63559 -3.01833 0
M  V30 10638 C 1025.14 1.0968 -4.09672 0
M  V30 10639 N 1025.53 0.28104 -5.05019 0
M  V30 10640 C 1023.83 1.37157 -4.24387 0
M  V30 10641 C 1024.53 -0.0140071 -5.81698 0
M  V30 10642 N 1023.51 0.583743 -5.40457 0
M  V30 10643 H 1027.31 -0.133408 -2.93597 0
M  V30 10644 H 1024.82 -0.174095 -1.61464 0
M  V30 10645 H 1026.82 2.26582 -3.49952 0
M  V30 10646 H 1025.48 2.26871 -2.32292 0
M  V30 10647 H 1026.49 -0.0797947 -5.17839 0
M  V30 10648 H 1023.17 2.00743 -3.66072 0
M  V30 10649 H 1024.56 -0.673508 -6.68516 0
M  V30 10650 N 1027.28 1.57312 -0.0952337 0
M  V30 10651 C 1028.19 2.17556 0.877877 0
M  V30 10652 C 1029.21 1.14505 1.31014 0
M  V30 10653 O 1030.38 1.46876 1.37802 0
M  V30 10654 C 1027.45 2.74413 2.11892 0
M  V30 10655 C 1026.51 3.92419 1.74085 0
M  V30 10656 C 1025.74 4.46556 2.92273 0
M  V30 10657 O 1025.96 3.99631 4.07002 0
M  V30 10658 O 1024.9 5.37576 2.70732 0
M  V30 10659 H 1028.72 3.01116 0.395312 0
M  V30 10660 H 1026.31 1.48841 0.129123 0
M  V30 10661 H 1028.19 3.10754 2.84622 0
M  V30 10662 H 1026.87 1.93899 2.59201 0
M  V30 10663 H 1025.77 3.6089 0.985346 0
M  V30 10664 H 1027.11 4.74298 1.31539 0
M  V30 10665 N 1028.76 -0.17846 1.56586 0
M  V30 10666 C 1029.99 -0.911996 1.85715 0
M  V30 10667 C 1030.4 -1.76138 0.679766 0
M  V30 10668 O 1029.76 -1.79088 -0.351266 0
M  V30 10669 C 1029.81 -1.79459 3.1381 0
M  V30 10670 O 1029.53 -0.979476 4.2701 0
M  V30 10671 C 1031.03 -2.6384 3.56235 0
M  V30 10672 H 1028.25 -0.265299 0.616326 0
M  V30 10673 H 1030.79 -0.180704 2.037 0
M  V30 10674 H 1028.95 -2.4793 2.97673 0
M  V30 10675 H 1029.36 -1.58244 5.00059 0
M  V30 10676 H 1030.84 -3.21396 4.48786 0
M  V30 10677 H 1031.31 -3.38363 2.80013 0
M  V30 10678 H 1031.92 -2.00712 3.7496 0
M  V30 10679 N 1030.24 -1.51135 -0.446768 0
M  V30 10680 C 1031.18 -1.72328 -1.56224 0
M  V30 10681 C 1032.18 -0.589411 -1.58815 0
M  V30 10682 O 1033.38 -0.770554 -1.62673 0
M  V30 10683 H 1029.76 -0.544339 -0.518844 0
M  V30 10684 H 1031.73 -2.65851 -1.3552 0
M  V30 10685 C 1030.48 -1.85686 -2.93966 0
M  V30 10686 H 1029.8 -2.72336 -2.927 0
M  V30 10687 H 1031.24 -2.0453 -3.71407 0
M  V30 10688 C 1029.7 -0.614328 -3.31252 0
M  V30 10689 O 1030.23 0.235369 -4.0101 0
M  V30 10690 N 1028.44 -0.461181 -2.86917 0
M  V30 10691 H 1027.98 -1.15369 -2.30321 0
M  V30 10692 H 1027.94 0.368966 -3.12227 0
M  V30 10693 N 1031.71 0.701592 -1.41122 0
M  V30 10694 C 1032.64 1.82815 -1.45262 0
M  V30 10695 C 1033.62 1.67215 -0.311939 0
M  V30 10696 O 1034.81 1.87038 -0.522538 0
M  V30 10697 C 1031.94 3.20899 -1.32819 0
M  V30 10698 C 1030.89 3.51194 -2.44636 0
M  V30 10699 C 1030.22 4.8857 -2.17263 0
M  V30 10700 C 1031.52 3.50777 -3.86979 0
M  V30 10701 H 1033.21 1.79608 -2.39544 0
M  V30 10702 H 1030.76 0.862693 -1.15298 0
M  V30 10703 H 1032.71 3.99417 -1.34329 0
M  V30 10704 H 1031.44 3.24717 -0.350191 0
M  V30 10705 H 1030.1 2.75024 -2.42399 0
M  V30 10706 H 1029.74 4.89007 -1.17819 0
M  V30 10707 H 1029.44 5.09805 -2.92186 0
M  V30 10708 H 1030.97 5.69405 -2.20478 0
M  V30 10709 H 1032.38 4.19309 -3.90964 0
M  V30 10710 H 1030.78 3.83542 -4.61536 0
M  V30 10711 H 1031.85 2.49873 -4.15562 0
M  V30 10712 N 1033.19 1.2685 0.935242 0
M  V30 10713 C 1034.14 1.08923 2.03481 0
M  V30 10714 C 1035.11 -0.00749786 1.66098 0
M  V30 10715 O 1036.29 0.153401 1.90182 0
M  V30 10716 C 1033.43 0.734529 3.37192 0
M  V30 10717 C 1032.55 1.90812 3.87576 0
M  V30 10718 C 1031.68 1.49599 5.097 0
M  V30 10719 C 1030.72 2.63752 5.5236 0
M  V30 10720 N 1029.86 2.23179 6.65684 0
M  V30 10721 H 1034.7 2.03016 2.18148 0
M  V30 10722 H 1032.23 1.01072 1.06878 0
M  V30 10723 H 1034.19 0.509734 4.14074 0
M  V30 10724 H 1032.82 -0.169438 3.22355 0
M  V30 10725 H 1031.87 2.24567 3.0704 0
M  V30 10726 H 1033.19 2.7647 4.1517 0
M  V30 10727 H 1032.34 1.23199 5.9406 0
M  V30 10728 H 1031.08 0.61039 4.83865 0
M  V30 10729 H 1030.08 2.90874 4.66554 0
M  V30 10730 H 1031.31 3.5292 5.80193 0
M  V30 10731 H 1029.26 1.37061 6.41522 0
M  V30 10732 H 1029.17 3.02379 6.92895 0
M  V30 10733 H 1030.44 2.00007 7.53404 0
M  V30 10734 N 1034.67 -1.14067 1.0875 0
M  V30 10735 C 1035.62 -2.19261 0.720633 0
M  V30 10736 C 1036.59 -1.63462 -0.294847 0
M  V30 10737 O 1037.77 -1.89967 -0.178058 0
M  V30 10738 C 1034.91 -3.44816 0.139873 0
M  V30 10739 C 1034.03 -4.1475 1.20856 0
M  V30 10740 C 1033.16 -5.27899 0.591285 0
M  V30 10741 C 1032.2 -5.89672 1.64176 0
M  V30 10742 N 1031.34 -6.94264 1.04603 0
M  V30 10743 H 1036.18 -2.49991 1.62198 0
M  V30 10744 H 1033.71 -1.22757 0.810497 0
M  V30 10745 H 1035.67 -4.16648 -0.214587 0
M  V30 10746 H 1034.3 -3.14558 -0.724774 0
M  V30 10747 H 1033.35 -3.41272 1.6804 0
M  V30 10748 H 1034.67 -4.56753 2.00446 0
M  V30 10749 H 1033.82 -6.06417 0.185271 0
M  V30 10750 H 1032.56 -4.87128 -0.236236 0
M  V30 10751 H 1031.56 -5.09854 2.05739 0
M  V30 10752 H 1032.79 -6.32517 2.47182 0
M  V30 10753 H 1030.73 -6.55562 0.239664 0
M  V30 10754 H 1030.65 -7.34771 1.77898 0
M  V30 10755 H 1031.92 -7.7665 0.665989 0
M  V30 10756 N 1036.15 -0.873678 -1.31166 0
M  V30 10757 C 1037.08 -0.289389 -2.27366 0
M  V30 10758 C 1038.09 0.549667 -1.5324 0
M  V30 10759 O 1039.28 0.371056 -1.74601 0
M  V30 10760 C 1036.38 0.60807 -3.334 0
M  V30 10761 C 1035.56 -0.199379 -4.36945 0
M  V30 10762 C 1034.61 0.626798 -5.22454 0
M  V30 10763 O 1033.64 0.0535121 -5.69175 0
M  V30 10764 N 1034.84 1.93809 -5.47191 0
M  V30 10765 H 1037.61 -1.1161 -2.78143 0
M  V30 10766 H 1035.17 -0.735529 -1.44228 0
M  V30 10767 H 1037.16 1.16656 -3.87522 0
M  V30 10768 H 1035.73 1.33545 -2.82638 0
M  V30 10769 H 1034.95 -0.939316 -3.82845 0
M  V30 10770 H 1036.24 -0.75329 -5.03193 0
M  V30 10771 H 1035.64 2.42693 -5.10995 0
M  V30 10772 H 1034.19 2.44428 -6.04234 0
M  V30 10773 N 1037.63 1.44308 -0.633487 0
M  V30 10774 C 1038.87 2.01624 -0.138643 0
M  V30 10775 C 1039.2 1.50101 1.24477 0
M  V30 10776 O 1038.47 0.705575 1.82752 0
M  V30 10777 H 1037.05 0.745439 -0.0482636 0
M  V30 10778 H 1039.71 1.76777 -0.820719 0
M  V30 10779 H 1038.8 3.11913 -0.108136 0
M  V30 10780 N 1039.1 0.374177 1.53094 0
M  V30 10781 C 1040.03 -0.459976 2.28925 0
M  V30 10782 C 1041.02 -1.07656 1.31698 0
M  V30 10783 O 1042.2 -1.09219 1.60577 0
M  V30 10784 C 1039.33 -1.5954 3.08487 0
M  V30 10785 C 1038.28 -1.10563 4.13473 0
M  V30 10786 C 1037.61 -2.33196 4.81169 0
M  V30 10787 C 1038.91 -0.184275 5.21975 0
M  V30 10788 H 1040.6 0.172692 2.98902 0
M  V30 10789 H 1038.15 0.0844956 1.43752 0
M  V30 10790 H 1040.1 -2.18565 3.60288 0
M  V30 10791 H 1038.83 -2.25543 2.36216 0
M  V30 10792 H 1037.49 -0.53801 3.62631 0
M  V30 10793 H 1037.13 -2.97675 4.05461 0
M  V30 10794 H 1036.83 -2.01094 5.52119 0
M  V30 10795 H 1038.36 -2.92892 5.35767 0
M  V30 10796 H 1039.77 -0.682262 5.69226 0
M  V30 10797 H 1038.17 0.0462746 6.00082 0
M  V30 10798 H 1039.24 0.771152 4.78729 0
M  V30 10799 N 1040.58 -1.57259 0.103575 0
M  V30 10800 C 1041.51 -2.17509 -0.84923 0
M  V30 10801 C 1042.49 -1.11079 -1.28824 0
M  V30 10802 O 1043.68 -1.39252 -1.35361 0
M  V30 10803 C 1040.81 -2.76221 -2.10522 0
M  V30 10804 C 1039.76 -3.88098 -1.80454 0
M  V30 10805 C 1039.09 -4.33549 -3.12952 0
M  V30 10806 C 1040.39 -5.10909 -1.08486 0
M  V30 10807 H 1042.08 -2.9738 -0.347217 0
M  V30 10808 H 1039.63 -1.43045 -0.165568 0
M  V30 10809 H 1041.58 -3.17024 -2.77621 0
M  V30 10810 H 1040.31 -1.93617 -2.63021 0
M  V30 10811 H 1038.96 -3.47847 -1.15749 0
M  V30 10812 H 1038.61 -3.47825 -3.63355 0
M  V30 10813 H 1038.31 -5.08984 -2.93614 0
M  V30 10814 H 1039.84 -4.76992 -3.81196 0
M  V30 10815 H 1041.25 -5.48828 -1.65711 0
M  V30 10816 H 1039.65 -5.91828 -0.992973 0
M  V30 10817 H 1040.72 -4.84851 -0.0690108 0
M  V30 10818 N 1042.06 0.170153 -1.56679 0
M  V30 10819 C 1043.47 0.732502 -1.7173 0
M  V30 10820 C 1043.82 1.82736 -0.71428 0
M  V30 10821 O 1042.95 2.16044 0.124102 0
M  V30 10822 C 1043.54 1.33548 -3.11368 0
M  V30 10823 C 1042.1 1.84464 -3.281 0
M  V30 10824 C 1041.25 0.724069 -2.6768 0
M  V30 10825 H 1044.2 -0.0552543 -1.58604 0
M  V30 10826 H 1044.22 2.20519 -3.10083 0
M  V30 10827 H 1043.73 0.5384 -3.84347 0
M  V30 10828 H 1041.83 2.66813 -2.6008 0
M  V30 10829 H 1041.95 1.98928 -4.35849 0
M  V30 10830 H 1040.31 1.14481 -2.27522 0
M  V30 10831 H 1041.09 -0.0611861 -3.43245 0
M  V30 10832 N 1043.54 1.5137 0.438746 0
M  V30 10833 C 1044.47 1.75528 1.53987 0
M  V30 10834 C 1045.45 0.605067 1.58975 0
M  V30 10835 O 1046.63 0.847634 1.74725 0
M  V30 10836 C 1043.76 1.87904 2.92078 0
M  V30 10837 C 1042.72 3.0333 3.01951 0
M  V30 10838 C 1042.04 3.00888 4.42007 0
M  V30 10839 C 1043.34 4.43319 2.76163 0
M  V30 10840 H 1045.04 2.67728 1.34022 0
M  V30 10841 H 1042.58 1.28831 0.643308 0
M  V30 10842 H 1044.54 2.03388 3.69068 0
M  V30 10843 H 1043.26 0.923514 3.13271 0
M  V30 10844 H 1041.92 2.87549 2.274 0
M  V30 10845 H 1041.57 2.03116 4.60166 0
M  V30 10846 H 1041.27 3.78397 4.49544 0
M  V30 10847 H 1042.79 3.18464 5.20973 0
M  V30 10848 H 1044.21 4.59458 3.42887 0
M  V30 10849 H 1042.6 5.22523 2.9511 0
M  V30 10850 H 1043.67 4.53453 1.71779 0
M  V30 10851 N 1045.02 -0.694098 1.41492 0
M  V30 10852 C 1046.24 -1.48286 1.44288 0
M  V30 10853 C 1046.66 -1.88737 0.0485783 0
M  V30 10854 O 1046.02 -1.56881 -0.932449 0
M  V30 10855 C 1046.07 -2.74446 2.3529 0
M  V30 10856 O 1045.79 -2.35698 3.69294 0
M  V30 10857 C 1047.29 -3.68175 2.46905 0
M  V30 10858 H 1044.51 -0.45692 0.491391 0
M  V30 10859 H 1047.05 -0.854477 1.85793 0
M  V30 10860 H 1045.21 -3.33518 1.9709 0
M  V30 10861 H 1045.62 -3.17029 4.17843 0
M  V30 10862 H 1047.1 -4.53476 3.14743 0
M  V30 10863 H 1047.57 -4.12763 1.50078 0
M  V30 10864 H 1048.18 -3.15006 2.85747 0
M  V30 10865 N 1046.49 -1.27344 -0.928501 0
M  V30 10866 C 1047.74 -1.13635 -1.6761 0
M  V30 10867 C 1048.07 0.317957 -1.91884 0
M  V30 10868 O 1047.32 1.24904 -1.50657 0
M  V30 10869 C 1047.62 -1.86439 -3.04918 0
M  V30 10870 C 1047.29 -3.36298 -3.00358 0
M  V30 10871 C 1045.95 -3.77173 -2.98821 0
M  V30 10872 C 1048.3 -4.31921 -2.91708 0
M  V30 10873 C 1045.63 -5.12037 -2.86417 0
M  V30 10874 C 1047.98 -5.66841 -2.80846 0
M  V30 10875 C 1046.65 -6.07011 -2.77659 0
M  V30 10876 H 1045.92 -0.415821 -0.61333 0
M  V30 10877 H 1048.56 -1.57943 -1.08288 0
M  V30 10878 H 1046.87 -1.34638 -3.6794 0
M  V30 10879 H 1048.57 -1.73261 -3.61637 0
M  V30 10880 H 1045.16 -3.0379 -3.0234 0
M  V30 10881 H 1049.34 -4.01314 -2.91994 0
M  V30 10882 H 1044.6 -5.42307 -2.82336 0
M  V30 10883 H 1048.77 -6.40608 -2.73119 0
M  V30 10884 H 1046.4 -7.11467 -2.67804 0
M  V30 10885 N 1047.97 1.13488 -1.09353 0
M  V30 10886 C 1048.94 2.17066 -0.735863 0
M  V30 10887 C 1049.94 1.59086 0.234181 0
M  V30 10888 O 1051.13 1.74196 0.012463 0
M  V30 10889 C 1048.26 3.40786 -0.0880975 0
M  V30 10890 H 1049.45 2.50221 -1.65316 0
M  V30 10891 H 1047 1.28304 -0.89263 0
M  V30 10892 H 1047.74 3.1322 0.840462 0
M  V30 10893 H 1047.52 3.8414 -0.786073 0
M  V30 10894 H 1049.01 4.17342 0.146775 0
M  V30 10895 N 1049.45 0.880621 1.30701 0
M  V30 10896 C 1050.73 0.41712 1.91101 0
M  V30 10897 C 1051.11 -1.10177 1.80067 0
M  V30 10898 O 1050.46 -1.93513 1.21511 0
M  V30 10899 C 1050.67 0.910364 3.36917 0
M  V30 10900 C 1052.01 0.942764 4.14001 0
M  V30 10901 O 1053.04 0.856733 3.45743 0
M  V30 10902 O 1051.9 1.06913 5.3594 0
M  V30 10903 H 1048.99 0.126775 0.817225 0
M  V30 10904 H 1051.54 0.969236 1.39298 0
M  V30 10905 H 1050.31 1.95414 3.39012 0
M  V30 10906 H 1049.93 0.337164 3.96168 0
M  V30 10907 N 1050.93 -1.4397 0.641131 0
M  V30 10908 C 1052.34 -1.85267 0.230838 0
M  V30 10909 C 1052.69 -1.53659 -1.21998 0
M  V30 10910 O 1051.82 -0.979572 -1.92959 0
M  V30 10911 C 1052.41 -3.36284 0.412171 0
M  V30 10912 C 1050.97 -3.76358 0.0563004 0
M  V30 10913 C 1050.12 -2.67768 0.720809 0
M  V30 10914 H 1053.07 -1.34294 0.845624 0
M  V30 10915 H 1053.09 -3.78924 -0.345936 0
M  V30 10916 H 1052.6 -3.59258 1.46818 0
M  V30 10917 H 1050.7 -3.58997 -0.997582 0
M  V30 10918 H 1050.82 -4.76756 0.473335 0
M  V30 10919 H 1049.18 -2.54227 0.155164 0
M  V30 10920 H 1049.96 -2.93573 1.77961 0
M  V30 10921 N 1052.41 -0.382291 -1.52893 0
M  V30 10922 C 1053.37 0.44408 -2.24857 0
M  V30 10923 C 1054.37 0.996004 -1.26239 0
M  V30 10924 O 1055.56 0.879114 -1.5039 0
M  V30 10925 C 1052.69 1.62234 -2.99822 0
M  V30 10926 H 1053.89 -0.185862 -2.99324 0
M  V30 10927 H 1051.44 -0.134275 -1.55722 0
M  V30 10928 H 1052.17 2.28991 -2.29638 0
M  V30 10929 H 1051.96 1.23336 -3.72197 0
M  V30 10930 H 1053.45 2.20756 -3.54481 0
M  V30 10931 N 1053.89 1.57202 -0.111913 0
M  V30 10932 C 1055.16 1.86459 0.590972 0
M  V30 10933 C 1055.54 1.01182 1.85271 0
M  V30 10934 O 1054.89 0.0887891 2.28327 0
M  V30 10935 C 1055.1 3.37455 0.890225 0
M  V30 10936 C 1056.45 4.05895 1.24638 0
M  V30 10937 O 1057.47 3.42433 0.980713 0
M  V30 10938 O 1056.33 5.17903 1.74466 0
M  V30 10939 H 1053.43 0.771652 0.297459 0
M  V30 10940 H 1055.97 1.69072 -0.145882 0
M  V30 10941 H 1054.74 3.913 -0.00419012 0
M  V30 10942 H 1054.37 3.60248 1.68248 0
M  V30 10943 N 1055.36 -0.161842 1.56767 0
M  V30 10944 C 1056.59 -0.890953 1.86402 0
M  V30 10945 C 1057 -1.75918 0.696373 0
M  V30 10946 O 1056.34 -1.80461 -0.343463 0
M  V30 10947 C 1056.41 -1.81079 3.10565 0
M  V30 10948 C 1056.07 -1.12121 4.43032 0
M  V30 10949 C 1057.07 -0.482152 5.17659 0
M  V30 10950 C 1054.75 -1.11514 4.89765 0
M  V30 10951 C 1056.75 0.153772 6.37214 0
M  V30 10952 C 1054.43 -0.4754 6.09248 0
M  V30 10953 C 1055.43 0.157944 6.82817 0
M  V30 10954 O 1055.12 0.787579 8.00033 0
M  V30 10955 H 1054.85 -0.26379 0.622407 0
M  V30 10956 H 1057.41 -0.163884 2.04745 0
M  V30 10957 H 1055.64 -2.57842 2.88192 0
M  V30 10958 H 1057.32 -2.41056 3.26568 0
M  V30 10959 H 1058.09 -0.478752 4.82631 0
M  V30 10960 H 1053.97 -1.59752 4.32435 0
M  V30 10961 H 1057.51 0.648716 6.94577 0
M  V30 10962 H 1053.41 -0.476416 6.43739 0
M  V30 10963 H 1054.18 0.687769 8.15605 0
M  V30 10964 N 1056.84 -1.516 -0.430713 0
M  V30 10965 C 1057.79 -1.73975 -1.54387 0
M  V30 10966 C 1058.78 -0.606222 -1.58181 0
M  V30 10967 O 1059.99 -0.787764 -1.61846 0
M  V30 10968 H 1056.36 -0.549811 -0.513041 0
M  V30 10969 H 1058.34 -2.67274 -1.32692 0
M  V30 10970 C 1057.08 -1.88794 -2.9198 0
M  V30 10971 H 1056.41 -2.75425 -2.89795 0
M  V30 10972 H 1057.85 -2.08458 -3.69217 0
M  V30 10973 C 1056.31 -0.649427 -3.30581 0
M  V30 10974 O 1056.84 0.192823 -4.01237 0
M  V30 10975 N 1055.04 -0.491586 -2.86412 0
M  V30 10976 H 1054.59 -1.17806 -2.29084 0
M  V30 10977 H 1054.55 0.33583 -3.12601 0
M  V30 10978 N 1058.32 0.686584 -1.41858 0
M  V30 10979 C 1059.27 1.80038 -1.44413 0
M  V30 10980 C 1060.24 1.63415 -0.297427 0
M  V30 10981 O 1061.42 1.84138 -0.499789 0
M  V30 10982 C 1058.56 3.17988 -1.34082 0
M  V30 10983 C 1057.67 3.45979 -2.58693 0
M  V30 10984 C 1056.81 4.73592 -2.4059 0
M  V30 10985 C 1055.85 4.94581 -3.60633 0
M  V30 10986 N 1054.99 6.13426 -3.41545 0
M  V30 10987 H 1059.83 1.77189 -2.396 0
M  V30 10988 H 1057.36 0.865158 -1.18968 0
M  V30 10989 H 1059.32 3.97689 -1.26092 0
M  V30 10990 H 1057.95 3.1999 -0.424975 0
M  V30 10991 H 1057 2.60617 -2.77097 0
M  V30 10992 H 1058.31 3.57386 -3.47961 0
M  V30 10993 H 1057.47 5.61364 -2.30119 0
M  V30 10994 H 1056.21 4.64448 -1.48794 0
M  V30 10995 H 1055.21 4.05254 -3.71549 0
M  V30 10996 H 1056.44 5.05578 -4.53395 0
M  V30 10997 H 1054.38 6.05477 -2.52456 0
M  V30 10998 H 1054.3 6.25641 -4.24393 0
M  V30 10999 H 1055.57 7.03908 -3.34864 0
M  V30 11000 N 1059.8 1.27835 0.921735 0
M  V30 11001 C 1061.05 1.13904 1.6646 0
M  V30 11002 C 1061.36 -0.313379 1.93073 0
M  V30 11003 O 1062.57 -0.573687 2.6537 0
M  V30 11004 C 1061.02 1.99064 2.99836 0
M  V30 11005 C 1060.63 3.48998 2.80899 0
M  V30 11006 C 1062.37 1.93797 3.77681 0
M  V30 11007 C 1060.28 4.26337 4.09867 0
M  V30 11008 H 1059.21 0.422681 0.624385 0
M  V30 11009 H 1061.86 1.52303 1.02352 0
M  V30 11010 H 1060.24 1.53514 3.65034 0
M  V30 11011 H 1061.42 4.02452 2.24431 0
M  V30 11012 H 1059.73 3.55707 2.16476 0
M  V30 11013 H 1062.33 2.48852 4.73262 0
M  V30 11014 H 1062.67 0.912928 4.06167 0
M  V30 11015 H 1063.21 2.37275 3.19289 0
M  V30 11016 H 1059.94 5.2939 3.86557 0
M  V30 11017 H 1059.46 3.77659 4.65976 0
M  V30 11018 H 1061.14 4.3583 4.78185 0
M  V30 11019 N 1061.28 -1.12907 1.09954 0
M  V30 11020 C 1062.23 -2.16558 0.713204 0
M  V30 11021 C 1063.21 -1.5853 -0.27515 0
M  V30 11022 O 1064.4 -1.76797 -0.0846643 0
M  V30 11023 C 1061.53 -3.43009 0.141224 0
M  V30 11024 C 1060.62 -4.08032 1.15632 0
M  V30 11025 N 1061.01 -4.48139 2.34531 0
M  V30 11026 C 1059.31 -4.34743 0.995701 0
M  V30 11027 C 1060.01 -4.98885 2.99147 0
M  V30 11028 N 1058.98 -4.9408 2.26684 0
M  V30 11029 H 1062.78 -2.45328 1.61838 0
M  V30 11030 H 1060.3 -1.29759 0.976539 0
M  V30 11031 H 1062.3 -4.16617 -0.153598 0
M  V30 11032 H 1060.96 -3.15711 -0.758729 0
M  V30 11033 H 1061.97 -4.40668 2.72089 0
M  V30 11034 H 1058.64 -4.17227 0.150888 0
M  V30 11035 H 1060.03 -5.3967 4.00257 0
M  V30 11036 N 1062.75 -0.88754 -1.30232 0
M  V30 11037 C 1064.16 -0.55745 -1.78184 0
M  V30 11038 C 1064.52 0.926474 -1.72948 0
M  V30 11039 O 1063.64 1.72403 -1.3079 0
M  V30 11040 C 1064.24 -1.00512 -3.23547 0
M  V30 11041 C 1062.79 -0.726402 -3.69324 0
M  V30 11042 C 1061.94 -1.18666 -2.50627 0
M  V30 11043 H 1064.89 -1.07151 -1.17066 0
M  V30 11044 H 1064.91 -0.335185 -3.79021 0
M  V30 11045 H 1064.43 -2.08517 -3.27326 0
M  V30 11046 H 1062.53 0.341548 -3.71031 0
M  V30 11047 H 1062.64 -1.31575 -4.60679 0
M  V30 11048 H 1061 -0.605936 -2.47387 0
M  V30 11049 H 1061.79 -2.2745 -2.57141 0
M  V30 11050 N 1064.23 1.43628 -0.648757 0
M  V30 11051 C 1065.48 2.02163 -0.160574 0
M  V30 11052 C 1065.81 1.51037 1.22072 0
M  V30 11053 O 1065.09 0.701633 1.81404 0
M  V30 11054 C 1065.37 3.59715 -0.166528 0
M  V30 11055 C 1065.22 4.21083 -1.58142 0
M  V30 11056 C 1066.54 4.37256 0.499485 0
M  V30 11057 H 1063.66 0.734568 -0.0598238 0
M  V30 11058 H 1066.3 1.70981 -0.828592 0
M  V30 11059 H 1064.45 3.86411 0.402302 0
M  V30 11060 H 1066.12 4.05433 -2.2005 0
M  V30 11061 H 1064.37 3.77904 -2.13005 0
M  V30 11062 H 1065.04 5.30156 -1.53748 0
M  V30 11063 H 1067.51 4.16097 0.0155561 0
M  V30 11064 H 1066.39 5.4693 0.464574 0
M  V30 11065 H 1066.65 4.13175 1.57286 0
M  V30 11066 N 1065.71 0.390394 1.52688 0
M  V30 11067 C 1066.99 -0.249068 1.94008 0
M  V30 11068 C 1067.37 -1.64263 1.32593 0
M  V30 11069 O 1066.72 -2.23086 0.494448 0
M  V30 11070 C 1066.93 -0.274318 3.4792 0
M  V30 11071 C 1068.27 -0.502743 4.21613 0
M  V30 11072 O 1069.3 -0.35448 3.54432 0
M  V30 11073 O 1068.16 -0.79334 5.40711 0
M  V30 11074 H 1065.25 -0.155116 0.812323 0
M  V30 11075 H 1067.8 0.44498 1.63762 0
M  V30 11076 H 1066.57 0.701766 3.84956 0
M  V30 11077 H 1066.19 -1.01324 3.84473 0
M  V30 11078 N 1067.19 -1.57141 0.120249 0
M  V30 11079 C 1068.14 -2.15379 -0.829497 0
M  V30 11080 C 1069.11 -1.07913 -1.2627 0
M  V30 11081 O 1070.29 -1.35827 -1.33999 0
M  V30 11082 C 1067.43 -2.75847 -2.0737 0
M  V30 11083 C 1066.54 -3.97624 -1.68875 0
M  V30 11084 C 1065.68 -4.46175 -2.88272 0
M  V30 11085 C 1064.72 -5.60481 -2.46023 0
M  V30 11086 N 1063.85 -6.0377 -3.58337 0
M  V30 11087 H 1068.69 -2.96211 -0.326031 0
M  V30 11088 H 1066.23 -1.46341 -0.149235 0
M  V30 11089 H 1068.19 -3.09037 -2.80272 0
M  V30 11090 H 1066.82 -1.97703 -2.55174 0
M  V30 11091 H 1065.87 -3.70588 -0.858431 0
M  V30 11092 H 1067.18 -4.80512 -1.33827 0
M  V30 11093 H 1066.34 -4.8128 -3.69397 0
M  V30 11094 H 1065.08 -3.6224 -3.26548 0
M  V30 11095 H 1064.08 -5.24979 -1.63331 0
M  V30 11096 H 1065.31 -6.46184 -2.08863 0
M  V30 11097 H 1063.25 -5.22776 -3.96284 0
M  V30 11098 H 1063.17 -6.81517 -3.27217 0
M  V30 11099 H 1064.44 -6.43514 -4.39898 0
M  V30 11100 N 1068.67 0.153526 -1.5685 0
M  V30 11101 C 1069.6 1.19162 -2.00805 0
M  V30 11102 C 1070.58 1.45172 -0.886518 0
M  V30 11103 O 1071.76 1.56203 -1.15387 0
M  V30 11104 C 1068.89 2.52637 -2.38311 0
M  V30 11105 C 1067.85 2.41161 -3.53589 0
M  V30 11106 C 1067.17 3.79287 -3.76889 0
M  V30 11107 C 1068.47 1.90122 -4.86468 0
M  V30 11108 H 1070.17 0.82617 -2.87776 0
M  V30 11109 H 1067.71 0.395972 -1.38449 0
M  V30 11110 H 1069.67 3.25478 -2.6766 0
M  V30 11111 H 1068.39 2.91005 -1.4827 0
M  V30 11112 H 1067.05 1.70772 -3.24395 0
M  V30 11113 H 1066.7 4.15079 -2.84109 0
M  V30 11114 H 1066.4 3.72472 -4.54465 0
M  V30 11115 H 1067.92 4.53687 -4.08657 0
M  V30 11116 H 1069.33 2.52752 -5.14577 0
M  V30 11117 H 1067.73 1.94214 -5.67804 0
M  V30 11118 H 1068.8 0.856517 -4.77275 0
M  V30 11119 N 1070.14 1.51827 0.422667 0
M  V30 11120 C 1071.37 1.69049 1.1929 0
M  V30 11121 C 1071.79 0.394095 1.84641 0
M  V30 11122 O 1071.14 -0.628731 1.71328 0
M  V30 11123 C 1071.2 2.81657 2.26609 0
M  V30 11124 O 1070.92 4.06275 1.63929 0
M  V30 11125 C 1072.42 3.10274 3.16615 0
M  V30 11126 H 1069.64 0.566894 0.358988 0
M  V30 11127 H 1072.18 1.98318 0.499029 0
M  V30 11128 H 1070.34 2.54945 2.91688 0
M  V30 11129 H 1070.75 4.68924 2.3497 0
M  V30 11130 H 1072.22 3.92613 3.88019 0
M  V30 11131 H 1072.7 2.23273 3.78214 0
M  V30 11132 H 1073.31 3.387 2.57221 0
M  V30 11133 N 1071.62 -0.679052 1.4222 0
M  V30 11134 C 1072.87 -1.43485 1.41757 0
M  V30 11135 C 1073.18 -1.95567 0.0358698 0
M  V30 11136 O 1074.39 -2.71346 -0.0913713 0
M  V30 11137 C 1072.85 -2.59541 2.49332 0
M  V30 11138 C 1072.45 -2.14176 3.93488 0
M  V30 11139 C 1074.2 -3.37078 2.58029 0
M  V30 11140 C 1072.11 -3.27289 4.92581 0
M  V30 11141 H 1071.04 -0.539022 0.52723 0
M  V30 11142 H 1073.69 -0.735581 1.68111 0
M  V30 11143 H 1072.07 -3.31815 2.16135 0
M  V30 11144 H 1073.24 -1.49082 4.36017 0
M  V30 11145 H 1071.56 -1.49589 3.88603 0
M  V30 11146 H 1074.15 -4.21312 3.29242 0
M  V30 11147 H 1074.5 -3.83383 1.62245 0
M  V30 11148 H 1075.03 -2.7187 2.90399 0
M  V30 11149 H 1071.77 -2.8598 5.89827 0
M  V30 11150 H 1071.29 -3.91178 4.54687 0
M  V30 11151 H 1072.97 -3.9282 5.14103 0
M  V30 11152 N 1073.1 -1.28322 -0.914942 0
M  V30 11153 C 1074.03 -1.07947 -2.02188 0
M  V30 11154 C 1075.05 -0.0315743 -1.62769 0
M  V30 11155 O 1076.23 -0.274503 -1.76377 0
M  V30 11156 C 1073.33 -0.61805 -3.33217 0
M  V30 11157 C 1072.51 -1.74109 -4.01254 0
M  V30 11158 C 1071.57 -1.27325 -5.10563 0
M  V30 11159 O 1070.59 -1.97526 -5.33828 0
M  V30 11160 N 1071.79 -0.1358 -5.80341 0
M  V30 11161 H 1074.56 -2.03275 -2.20225 0
M  V30 11162 H 1072.12 -1.20059 -1.08616 0
M  V30 11163 H 1074.11 -0.288693 -4.03669 0
M  V30 11164 H 1072.68 0.242348 -3.11659 0
M  V30 11165 H 1071.9 -2.2401 -3.24366 0
M  V30 11166 H 1073.19 -2.49448 -4.43456 0
M  V30 11167 H 1072.59 0.449846 -5.63909 0
M  V30 11168 H 1071.15 0.134289 -6.51662 0
M  V30 11169 N 1074.58 1.12322 -1.10551 0
M  V30 11170 C 1075.83 1.83495 -0.846998 0
M  V30 11171 C 1076.15 1.8457 0.629205 0
M  V30 11172 O 1075.42 1.30968 1.45686 0
M  V30 11173 H 1074 0.679479 -0.310351 0
M  V30 11174 H 1076.66 1.36004 -1.39602 0
M  V30 11175 H 1075.76 2.87651 -1.21092 0
M  V30 11176 N 1076.06 0.894434 1.2976 0
M  V30 11177 C 1076.99 0.3847 2.30309 0
M  V30 11178 C 1077.97 -0.537486 1.61385 0
M  V30 11179 O 1079.15 -0.449332 1.8893 0
M  V30 11180 C 1076.28 -0.393311 3.45066 0
M  V30 11181 C 1075.24 0.437968 4.25753 0
M  V30 11182 C 1074.56 -0.467221 5.32655 0
M  V30 11183 C 1075.86 1.6851 4.9437 0
M  V30 11184 H 1077.56 1.22496 2.73194 0
M  V30 11185 H 1075.1 0.590471 1.31337 0
M  V30 11186 H 1077.06 -0.760614 4.14479 0
M  V30 11187 H 1075.78 -1.2673 3.0101 0
M  V30 11188 H 1074.44 0.787533 3.58041 0
M  V30 11189 H 1074.09 -1.33919 4.84845 0
M  V30 11190 H 1073.79 0.0852482 5.87538 0
M  V30 11191 H 1075.31 -0.830833 6.04921 0
M  V30 11192 H 1076.72 1.38784 5.56248 0
M  V30 11193 H 1075.12 2.17849 5.59162 0
M  V30 11194 H 1076.19 2.42412 4.19958 0
M  V30 11195 N 1077.53 -1.43282 0.656365 0
M  V30 11196 C 1078.48 -2.30776 -0.0333155 0
M  V30 11197 C 1079.45 -1.44928 -0.811493 0
M  V30 11198 O 1080.64 -1.73792 -0.787465 0
M  V30 11199 C 1077.78 -3.30548 -0.991566 0
M  V30 11200 C 1076.89 -4.31493 -0.209159 0
M  V30 11201 C 1076.02 -5.18346 -1.16149 0
M  V30 11202 C 1075.06 -6.10983 -0.369699 0
M  V30 11203 N 1074.2 -6.90449 -1.27378 0
M  V30 11204 H 1079.04 -2.89204 0.718668 0
M  V30 11205 H 1076.58 -1.4247 0.366161 0
M  V30 11206 H 1078.54 -3.86905 -1.56078 0
M  V30 11207 H 1077.17 -2.73762 -1.71039 0
M  V30 11208 H 1076.22 -3.77405 0.476394 0
M  V30 11209 H 1077.53 -4.97142 0.406394 0
M  V30 11210 H 1076.68 -5.79345 -1.80124 0
M  V30 11211 H 1075.42 -4.52831 -1.81095 0
M  V30 11212 H 1074.43 -5.49069 0.283377 0
M  V30 11213 H 1075.65 -6.78541 0.275399 0
M  V30 11214 H 1073.6 -6.27579 -1.90999 0
M  V30 11215 H 1073.52 -7.52631 -0.71287 0
M  V30 11216 H 1074.78 -7.5595 -1.90158 0
M  V30 11217 N 1079.01 -0.398486 -1.52479 0
M  V30 11218 C 1080.29 0.238776 -1.94137 0
M  V30 11219 C 1080.67 1.63558 -1.33462 0
M  V30 11220 O 1080.02 2.22821 -0.506272 0
M  V30 11221 C 1080.23 0.255863 -3.48061 0
M  V30 11222 C 1081.58 0.480376 -4.21874 0
M  V30 11223 O 1082.6 0.335679 -3.54615 0
M  V30 11224 O 1081.46 0.764654 -5.41124 0
M  V30 11225 H 1078.55 0.150806 -0.813134 0
M  V30 11226 H 1081.1 -0.453659 -1.63524 0
M  V30 11227 H 1079.87 -0.722171 -3.84578 0
M  V30 11228 H 1079.49 0.99284 -3.85004 0
M  V30 11229 N 1080.49 1.57075 -0.12858 0
M  V30 11230 C 1081.74 1.9552 0.527087 0
M  V30 11231 C 1082.07 1.01243 1.66072 0
M  V30 11232 O 1081.32 0.0381076 1.95663 0
M  V30 11233 C 1081.62 3.40329 1.09138 0
M  V30 11234 C 1081.29 4.50832 0.0781039 0
M  V30 11235 C 1079.95 4.80782 -0.200493 0
M  V30 11236 C 1082.3 5.17595 -0.61192 0
M  V30 11237 C 1079.63 5.74809 -1.17524 0
M  V30 11238 C 1081.98 6.12671 -1.57536 0
M  V30 11239 C 1080.64 6.41008 -1.86184 0
M  V30 11240 H 1079.91 0.715458 0.192875 0
M  V30 11241 H 1082.56 1.90328 -0.211515 0
M  V30 11242 H 1080.87 3.42262 1.90694 0
M  V30 11243 H 1082.56 3.67393 1.60696 0
M  V30 11244 H 1079.15 4.2751 0.30543 0
M  V30 11245 H 1083.34 4.94605 -0.40986 0
M  V30 11246 H 1078.59 5.95065 -1.40384 0
M  V30 11247 H 1082.77 6.63486 -2.11565 0
M  V30 11248 H 1080.39 7.13673 -2.61868 0
M  V30 11249 N 1081.97 -0.145205 1.5693 0
M  V30 11250 C 1083.2 -0.872398 1.87608 0
M  V30 11251 C 1083.61 -1.74657 0.716975 0
M  V30 11252 O 1082.97 -1.79792 -0.3132 0
M  V30 11253 C 1083.02 -1.72762 3.17546 0
M  V30 11254 O 1082.74 -0.888681 4.28992 0
M  V30 11255 C 1084.24 -2.56224 3.61751 0
M  V30 11256 H 1081.46 -0.252166 0.621815 0
M  V30 11257 H 1084.01 -0.137456 2.04038 0
M  V30 11258 H 1082.16 -2.41561 3.02865 0
M  V30 11259 H 1082.58 -1.47601 5.03303 0
M  V30 11260 H 1084.05 -3.11804 4.55502 0
M  V30 11261 H 1084.53 -3.32347 2.87127 0
M  V30 11262 H 1085.13 -1.92714 3.79133 0
M  V30 11263 N 1083.45 -1.52049 -0.414609 0
M  V30 11264 C 1084.86 -1.58062 -0.993638 0
M  V30 11265 C 1085.21 -0.417795 -1.917 0
M  V30 11266 O 1084.33 0.462558 -2.11399 0
M  V30 11267 C 1084.93 -2.86471 -1.80886 0
M  V30 11268 C 1083.49 -2.94981 -2.33801 0
M  V30 11269 C 1082.64 -2.52949 -1.13631 0
M  V30 11270 H 1085.59 -1.57497 -0.19504 0
M  V30 11271 H 1085.61 -2.71515 -2.66571 0
M  V30 11272 H 1085.12 -3.71085 -1.13657 0
M  V30 11273 H 1083.22 -2.14849 -3.04419 0
M  V30 11274 H 1083.33 -3.99111 -2.65042 0
M  V30 11275 H 1081.7 -2.0667 -1.48861 0
M  V30 11276 H 1082.48 -3.39931 -0.479765 0
M  V30 11277 N 1084.93 0.6715 -1.42579 0
M  V30 11278 C 1086.17 1.42871 -1.42941 0
M  V30 11279 C 1086.49 1.94941 -0.0480483 0
M  V30 11280 O 1085.76 1.73275 0.913921 0
M  V30 11281 H 1084.34 0.530189 -0.526221 0
M  V30 11282 H 1087.01 0.793219 -1.78028 0
M  V30 11283 H 1086.1 2.2801 -2.13114 0
M  V30 11284 N 1086.4 1.28806 0.908124 0
M  V30 11285 C 1087.35 1.13215 2.01125 0
M  V30 11286 C 1088.32 0.0277357 1.66077 0
M  V30 11287 O 1089.51 0.193707 1.89814 0
M  V30 11288 C 1086.65 0.805887 3.35558 0
M  V30 11289 C 1085.76 1.9899 3.83441 0
M  V30 11290 C 1084.89 1.60376 5.06412 0
M  V30 11291 C 1083.93 2.75409 5.46641 0
M  V30 11292 N 1083.07 2.37249 6.60801 0
M  V30 11293 H 1087.91 2.07598 2.13792 0
M  V30 11294 H 1085.45 1.03316 1.0471 0
M  V30 11295 H 1087.4 0.597451 4.129 0
M  V30 11296 H 1086.03 -0.101023 3.22642 0
M  V30 11297 H 1085.09 2.31029 3.02208 0
M  V30 11298 H 1086.4 2.85214 4.09212 0
M  V30 11299 H 1085.55 1.35772 5.91313 0
M  V30 11300 H 1084.29 0.712888 4.82462 0
M  V30 11301 H 1083.3 3.00705 4.60279 0
M  V30 11302 H 1084.52 3.65148 5.72577 0
M  V30 11303 H 1082.47 1.50638 6.3847 0
M  V30 11304 H 1082.38 3.17008 6.86325 0
M  V30 11305 H 1083.65 2.15943 7.48992 0
M  V30 11306 N 1087.88 -1.11734 1.11145 0
M  V30 11307 C 1089.29 -1.64928 0.874959 0
M  V30 11308 C 1089.64 -1.87012 -0.593375 0
M  V30 11309 O 1088.77 -1.60206 -1.45475 0
M  V30 11310 C 1089.36 -2.99608 1.58178 0
M  V30 11311 C 1087.92 -3.49723 1.39179 0
M  V30 11312 C 1087.07 -2.24595 1.62642 0
M  V30 11313 H 1090.02 -0.954154 1.26813 0
M  V30 11314 H 1090.04 -3.66434 1.02501 0
M  V30 11315 H 1089.55 -2.83504 2.65042 0
M  V30 11316 H 1087.65 -3.70998 0.345111 0
M  V30 11317 H 1087.77 -4.28711 2.13878 0
M  V30 11318 H 1086.13 -2.32067 1.04961 0
M  V30 11319 H 1086.91 -2.11036 2.70774 0
M  V30 11320 N 1089.36 -0.901303 -1.29284 0
M  V30 11321 C 1090.29 -0.396909 -2.30102 0
M  V30 11322 C 1091.27 0.528919 -1.61668 0
M  V30 11323 O 1092.46 0.439306 -1.89166 0
M  V30 11324 C 1089.59 0.375006 -3.45269 0
M  V30 11325 C 1088.54 -0.46054 -4.25515 0
M  V30 11326 C 1087.87 0.438967 -5.32895 0
M  V30 11327 C 1089.17 -1.7113 -4.93469 0
M  V30 11328 H 1090.86 -1.23943 -2.72541 0
M  V30 11329 H 1088.41 -0.597428 -1.31022 0
M  V30 11330 H 1090.36 0.738622 -4.14876 0
M  V30 11331 H 1089.08 1.25132 -3.01678 0
M  V30 11332 H 1087.74 -0.80651 -3.57618 0
M  V30 11333 H 1087.39 1.31346 -4.85548 0
M  V30 11334 H 1087.09 -0.116406 -5.87485 0
M  V30 11335 H 1088.61 0.79874 -6.05353 0
M  V30 11336 H 1090.03 -1.41732 -5.55504 0
M  V30 11337 H 1088.42 -2.20811 -5.57999 0
M  V30 11338 H 1089.49 -2.44636 -4.18666 0
M  V30 11339 N 1090.84 1.42931 -0.663954 0
M  V30 11340 C 1091.78 2.3079 0.0210764 0
M  V30 11341 C 1092.75 1.45356 0.803796 0
M  V30 11342 O 1093.94 1.74207 0.778237 0
M  V30 11343 C 1091.08 3.31069 0.974023 0
M  V30 11344 C 1090.19 4.31598 0.186273 0
M  V30 11345 C 1089.33 5.18955 1.13399 0
M  V30 11346 C 1088.37 6.1117 0.337292 0
M  V30 11347 N 1087.5 6.91114 1.23715 0
M  V30 11348 H 1092.34 2.88819 -0.733995 0
M  V30 11349 H 1089.88 1.42274 -0.373711 0
M  V30 11350 H 1091.84 3.87727 1.54024 0
M  V30 11351 H 1090.47 2.74665 1.69585 0
M  V30 11352 H 1089.52 3.77147 -0.496402 0
M  V30 11353 H 1090.83 4.96919 -0.432753 0
M  V30 11354 H 1089.99 5.80292 1.77049 0
M  V30 11355 H 1088.73 4.53785 1.78691 0
M  V30 11356 H 1087.73 5.48911 -0.312492 0
M  V30 11357 H 1088.96 6.78386 -0.31138 0
M  V30 11358 H 1086.9 6.28583 1.87668 0
M  V30 11359 H 1086.82 7.52999 0.672946 0
M  V30 11360 H 1088.09 7.56948 1.86146 0
M  V30 11361 N 1092.32 0.406567 1.52266 0
M  V30 11362 C 1093.56 -0.169611 2.03695 0
M  V30 11363 C 1093.92 -1.42596 1.2857 0
M  V30 11364 O 1095.12 -2.08041 1.70212 0
M  V30 11365 C 1093.39 -0.413924 3.54995 0
M  V30 11366 S 1094.95 -0.957916 4.28217 0
M  V30 11367 H 1091.77 -0.0462362 0.709495 0
M  V30 11368 H 1094.37 0.558895 1.87341 0
M  V30 11369 H 1093.07 0.507285 4.07253 0
M  V30 11370 H 1092.61 -1.17038 3.75587 0
M  V30 11371 H 1094.62 -2.2387 4.42828 0
M  V30 11372 N 1093.79 -1.57004 0.136909 0
M  V30 11373 C 1095.04 -1.94972 -0.51662 0
M  V30 11374 C 1095.36 -1.02367 -1.66674 0
M  V30 11375 O 1096.56 -1.29873 -2.38423 0
M  V30 11376 C 1095.02 -3.4657 -0.970435 0
M  V30 11377 C 1094.63 -4.47741 0.152204 0
M  V30 11378 C 1096.37 -3.93423 -1.59432 0
M  V30 11379 C 1094.28 -5.90537 -0.319315 0
M  V30 11380 H 1093.21 -0.727873 -0.196766 0
M  V30 11381 H 1095.86 -1.82181 0.219637 0
M  V30 11382 H 1094.24 -3.54657 -1.76165 0
M  V30 11383 H 1095.41 -4.5134 0.928925 0
M  V30 11384 H 1093.73 -4.10746 0.683867 0
M  V30 11385 H 1096.33 -4.97539 -1.95856 0
M  V30 11386 H 1096.67 -3.34404 -2.47951 0
M  V30 11387 H 1097.2 -3.8821 -0.868193 0
M  V30 11388 H 1093.94 -6.53352 0.530248 0
M  V30 11389 H 1093.46 -5.90321 -1.06213 0
M  V30 11390 H 1095.14 -6.42346 -0.774662 0
M  V30 11391 N 1095.27 0.136881 -1.57004 0
M  V30 11392 C 1096.52 0.846257 -1.83088 0
M  V30 11393 C 1096.83 1.81876 -0.719765 0
M  V30 11394 O 1098.04 2.57302 -0.866494 0
M  V30 11395 C 1096.5 1.55559 -3.24545 0
M  V30 11396 C 1096.1 0.624989 -4.43619 0
M  V30 11397 C 1097.85 2.25115 -3.59893 0
M  V30 11398 C 1095.76 1.33653 -5.761 0
M  V30 11399 H 1094.69 0.319768 -0.682836 0
M  V30 11400 H 1097.34 0.0989741 -1.83233 0
M  V30 11401 H 1095.72 2.34887 -3.18817 0
M  V30 11402 H 1096.89 -0.133783 -4.60606 0
M  V30 11403 H 1095.21 0.0373216 -4.16383 0
M  V30 11404 H 1097.8 2.79008 -4.56134 0
M  V30 11405 H 1098.15 3.02084 -2.86446 0
M  V30 11406 H 1098.68 1.52696 -3.67327 0
M  V30 11407 H 1095.42 0.608495 -6.5267 0
M  V30 11408 H 1094.94 2.06776 -5.63031 0
M  V30 11409 H 1096.62 1.87467 -6.19246 0
M  V30 11410 N 1096.75 1.52266 0.40654 0
M  V30 11411 C 1097.7 1.75794 1.4955 0
M  V30 11412 C 1098.67 0.600472 1.54866 0
M  V30 11413 O 1099.85 0.838305 1.71397 0
M  V30 11414 C 1096.99 1.91682 2.86971 0
M  V30 11415 C 1096.11 3.19337 2.90943 0
M  V30 11416 C 1095.24 3.25641 4.1968 0
M  V30 11417 C 1094.28 4.47488 4.17637 0
M  V30 11418 N 1093.42 4.51171 5.37949 0
M  V30 11419 H 1098.26 2.68733 1.28789 0
M  V30 11420 H 1095.79 1.33157 0.625102 0
M  V30 11421 H 1097.75 1.98877 3.66748 0
M  V30 11422 H 1096.38 1.02121 3.06221 0
M  V30 11423 H 1095.43 3.21301 2.03642 0
M  V30 11424 H 1096.75 4.09153 2.85299 0
M  V30 11425 H 1095.9 3.31922 5.07851 0
M  V30 11426 H 1094.64 2.33769 4.28023 0
M  V30 11427 H 1093.64 4.41351 3.27856 0
M  V30 11428 H 1094.87 5.40659 4.10932 0
M  V30 11429 H 1092.81 3.62182 5.46955 0
M  V30 11430 H 1092.73 5.34835 5.3431 0
M  V30 11431 H 1094 4.61685 6.28066 0
M  V30 11432 N 1098.23 -0.663929 1.42933 0
M  V30 11433 C 1099.18 -1.77007 1.4371 0
M  V30 11434 C 1100.16 -1.57945 0.306948 0
M  V30 11435 O 1101.35 -1.68239 0.549967 0
M  V30 11436 C 1098.48 -3.15535 1.3525 0
M  V30 11437 C 1097.57 -3.40183 2.53252 0
M  V30 11438 N 1097.96 -3.35357 3.78641 0
M  V30 11439 C 1096.26 -3.70861 2.47746 0
M  V30 11440 C 1096.96 -3.5979 4.57085 0
M  V30 11441 N 1095.94 -3.81084 3.87655 0
M  V30 11442 H 1099.74 -1.71686 2.3854 0
M  V30 11443 H 1097.25 -0.865191 1.37434 0
M  V30 11444 H 1099.25 -3.94816 1.33888 0
M  V30 11445 H 1097.91 -3.22046 0.414308 0
M  V30 11446 H 1098.92 -3.15011 4.11082 0
M  V30 11447 H 1095.6 -3.84552 1.62561 0
M  V30 11448 H 1096.99 -3.61928 5.6609 0
M  V30 11449 N 1099.71 -1.29285 -0.901281 0
M  V30 11450 C 1101.12 -1.15499 -1.46686 0
M  V30 11451 C 1101.47 0.250446 -1.94595 0
M  V30 11452 O 1100.59 1.14581 -1.83576 0
M  V30 11453 C 1101.19 -2.0906 -2.66607 0
M  V30 11454 C 1099.75 -1.99301 -3.19306 0
M  V30 11455 C 1098.89 -2.00079 -1.91999 0
M  V30 11456 H 1101.85 -1.41793 -0.712773 0
M  V30 11457 H 1101.87 -1.6619 -3.42288 0
M  V30 11458 H 1101.38 -3.11341 -2.31707 0
M  V30 11459 H 1099.48 -1.00103 -3.58901 0
M  V30 11460 H 1099.59 -2.86885 -3.8371 0
M  V30 11461 H 1097.96 -1.44655 -2.09636 0
M  V30 11462 H 1098.74 -3.04061 -1.59379 0
M  V30 11463 N 1101.18 1.11143 -1.11736 0
M  V30 11464 C 1102.13 2.19358 -0.773626 0
M  V30 11465 C 1103.13 1.67744 0.236288 0
M  V30 11466 O 1104.33 1.79748 0.09525 0
M  V30 11467 H 1100.71 0.715218 -0.232309 0
M  V30 11468 H 1102.68 2.45594 -1.69487 0
M  V30 11469 C 1101.43 3.46895 -0.236457 0
M  V30 11470 H 1100.75 3.86967 -1.00483 0
M  V30 11471 H 1102.19 4.23986 -0.034168 0
M  V30 11472 C 1100.65 3.20641 1.03397 0
M  V30 11473 O 1101.18 3.41629 2.11312 0
M  V30 11474 N 1099.39 2.74356 0.957986 0
M  V30 11475 H 1098.93 2.57477 0.0796924 0
M  V30 11476 H 1098.89 2.57166 1.80867 0
M  V30 11477 N 1102.66 0.908147 1.28804 0
M  V30 11478 C 1103.91 0.53734 1.94826 0
M  V30 11479 C 1104.23 -0.920962 1.71882 0
M  V30 11480 O 1103.5 -1.65043 1.05534 0
M  V30 11481 H 1102.08 0.195729 0.720902 0
M  V30 11482 H 1104.74 1.15628 1.56895 0
M  V30 11483 H 1103.84 0.727052 3.03513 0
M  V30 11484 N 1104.14 -1.42577 0.671525 0
M  V30 11485 C 1105.37 -2.05924 0.200731 0
M  V30 11486 C 1105.78 -1.50434 -1.14083 0
M  V30 11487 O 1105.14 -0.642845 -1.70803 0
M  V30 11488 C 1105.19 -3.61289 0.123505 0
M  V30 11489 O 1104.91 -4.1472 1.41205 0
M  V30 11490 C 1106.41 -4.41743 -0.371178 0
M  V30 11491 H 1103.63 -0.663746 0.0983958 0
M  V30 11492 H 1106.18 -1.82771 0.917338 0
M  V30 11493 H 1104.33 -3.83565 -0.543769 0
M  V30 11494 H 1104.75 -5.0856 1.28325 0
M  V30 11495 H 1106.22 -5.50731 -0.374128 0
M  V30 11496 H 1106.7 -4.16092 -1.40585 0
M  V30 11497 H 1107.3 -4.24478 0.264244 0
M  V30 11498 N 1105.62 -0.414636 -1.52048 0
M  V30 11499 C 1106.55 0.443601 -2.24866 0
M  V30 11500 C 1107.56 1.00556 -1.28032 0
M  V30 11501 O 1108.75 0.903566 -1.53941 0
M  V30 11502 C 1105.85 1.63004 -2.97124 0
M  V30 11503 C 1105.03 1.191 -4.20873 0
M  V30 11504 C 1104.08 2.24497 -4.75907 0
M  V30 11505 O 1103.11 1.84861 -5.38345 0
M  V30 11506 N 1104.31 3.56727 -4.57959 0
M  V30 11507 H 1107.08 -0.180393 -2.99157 0
M  V30 11508 H 1104.64 -0.242305 -1.60077 0
M  V30 11509 H 1106.63 2.33089 -3.30835 0
M  V30 11510 H 1105.2 2.15984 -2.25986 0
M  V30 11511 H 1104.42 0.318059 -3.92915 0
M  V30 11512 H 1105.71 0.874699 -5.01225 0
M  V30 11513 H 1105.11 3.91675 -4.08175 0
M  V30 11514 H 1103.66 4.22772 -4.96092 0
M  V30 11515 N 1107.1 1.56929 -0.145233 0
M  V30 11516 C 1108.01 2.20238 0.808219 0
M  V30 11517 C 1109.02 1.18615 1.27304 0
M  V30 11518 O 1110.2 1.51186 1.3306 0
M  V30 11519 C 1107.26 2.81016 2.03055 0
M  V30 11520 C 1106.32 3.97759 1.61512 0
M  V30 11521 C 1105.56 4.55628 2.77918 0
M  V30 11522 O 1105.78 4.12378 3.94082 0
M  V30 11523 O 1104.71 5.45917 2.53492 0
M  V30 11524 H 1108.54 3.02221 0.299314 0
M  V30 11525 H 1106.13 1.49176 0.0817051 0
M  V30 11526 H 1108.01 3.19652 2.74592 0
M  V30 11527 H 1106.68 2.02047 2.52901 0
M  V30 11528 H 1105.59 3.63842 0.870033 0
M  V30 11529 H 1106.92 4.78242 1.16383 0
M  V30 11530 N 1108.58 -0.128553 1.57075 0
M  V30 11531 C 1109.8 -0.85245 1.88523 0
M  V30 11532 C 1110.22 -1.73886 0.735459 0
M  V30 11533 O 1109.58 -1.80114 -0.294113 0
M  V30 11534 C 1109.63 -1.69384 3.19361 0
M  V30 11535 O 1109.35 -0.84313 4.2991 0
M  V30 11536 C 1110.85 -2.52373 3.64449 0
M  V30 11537 H 1108.07 -0.245556 0.624454 0
M  V30 11538 H 1110.61 -0.115807 2.04172 0
M  V30 11539 H 1108.77 -2.38335 3.0541 0
M  V30 11540 H 1109.18 -1.42255 5.0484 0
M  V30 11541 H 1110.66 -3.06955 4.58784 0
M  V30 11542 H 1111.13 -3.29283 2.90636 0
M  V30 11543 H 1111.74 -1.88681 3.81155 0
M  V30 11544 N 1110.05 -1.5248 -0.398459 0
M  V30 11545 C 1111.3 -1.66287 -1.14155 0
M  V30 11546 C 1111.62 -0.40429 -1.91376 0
M  V30 11547 O 1112.82 -0.422341 -2.68195 0
M  V30 11548 C 1111.28 -2.93831 -2.07825 0
M  V30 11549 C 1110.89 -4.26836 -1.3607 0
M  V30 11550 C 1112.63 -3.17004 -2.82327 0
M  V30 11551 C 1110.54 -5.45495 -2.28451 0
M  V30 11552 H 1109.47 -0.619478 -0.42984 0
M  V30 11553 H 1112.12 -1.78972 -0.405112 0
M  V30 11554 H 1110.5 -2.7487 -2.85065 0
M  V30 11555 H 1111.67 -4.56317 -0.641205 0
M  V30 11556 H 1109.99 -4.0985 -0.735659 0
M  V30 11557 H 1112.59 -4.02834 -3.51609 0
M  V30 11558 H 1112.93 -2.3168 -3.45876 0
M  V30 11559 H 1113.46 -3.36487 -2.12183 0
M  V30 11560 H 1110.2 -6.33198 -1.69532 0
M  V30 11561 H 1109.72 -5.20338 -2.98343 0
M  V30 11562 H 1111.4 -5.78996 -2.88743 0
M  V30 11563 N 1111.53 0.65634 -1.43283 0
M  V30 11564 C 1112.46 1.78101 -1.51004 0
M  V30 11565 C 1113.44 1.66138 -0.36498 0
M  V30 11566 O 1114.63 1.85281 -0.581778 0
M  V30 11567 C 1111.76 3.16511 -1.42961 0
M  V30 11568 C 1110.71 3.43233 -2.55685 0
M  V30 11569 C 1110.04 4.81411 -2.32696 0
M  V30 11570 C 1111.34 3.38288 -3.97943 0
M  V30 11571 H 1113.03 1.71896 -2.45137 0
M  V30 11572 H 1110.58 0.825575 -1.17984 0
M  V30 11573 H 1112.53 3.94941 -1.46968 0
M  V30 11574 H 1111.25 3.23439 -0.45332 0
M  V30 11575 H 1109.91 2.67173 -2.51026 0
M  V30 11576 H 1109.56 4.85011 -1.33317 0
M  V30 11577 H 1109.26 5.00251 -3.08257 0
M  V30 11578 H 1110.79 5.62102 -2.38481 0
M  V30 11579 H 1112.2 4.06659 -4.04106 0
M  V30 11580 H 1110.6 3.68664 -4.73505 0
M  V30 11581 H 1111.67 2.36525 -4.23301 0
M  V30 11582 N 1113.01 1.29761 0.894412 0
M  V30 11583 C 1113.94 1.17902 2.01547 0
M  V30 11584 C 1114.92 0.0719402 1.69948 0
M  V30 11585 O 1116.11 0.252338 1.92554 0
M  V30 11586 C 1113.24 0.860262 3.36477 0
M  V30 11587 C 1112.19 1.92424 3.82305 0
M  V30 11588 C 1111.52 1.45868 5.14419 0
M  V30 11589 C 1112.82 3.33391 4.02054 0
M  V30 11590 H 1114.51 2.11688 2.11727 0
M  V30 11591 H 1112.06 1.01916 1.01731 0
M  V30 11592 H 1114.01 0.763987 4.14417 0
M  V30 11593 H 1112.73 -0.113289 3.26403 0
M  V30 11594 H 1111.39 2.00999 3.06586 0
M  V30 11595 H 1111.04 0.473654 5.00765 0
M  V30 11596 H 1110.74 2.17028 5.46052 0
M  V30 11597 H 1112.26 1.37601 5.94894 0
M  V30 11598 H 1113.68 3.27628 4.7046 0
M  V30 11599 H 1112.07 4.02555 4.4505 0
M  V30 11600 H 1113.14 3.75978 3.06216 0
M  V30 11601 N 1114.49 -1.10549 1.12324 0
M  V30 11602 C 1115.44 -2.18944 0.785248 0
M  V30 11603 C 1116.43 -1.67867 -0.227389 0
M  V30 11604 O 1117.64 -1.79796 -0.0857162 0
M  V30 11605 H 1114.01 -0.713976 0.236098 0
M  V30 11606 H 1115.98 -2.44692 1.70788 0
M  V30 11607 C 1114.73 -3.46765 0.25485 0
M  V30 11608 H 1114.05 -3.86428 1.02534 0
M  V30 11609 H 1115.49 -4.23962 0.0566526 0
M  V30 11610 C 1113.95 -3.21185 -1.01695 0
M  V30 11611 O 1114.48 -3.42745 -2.09497 0
M  V30 11612 N 1112.69 -2.7486 -0.943423 0
M  V30 11613 H 1112.24 -2.57515 -0.0660366 0
M  V30 11614 H 1112.19 -2.58122 -1.795 0
M  V30 11615 N 1115.97 -0.914965 -1.28321 0
M  V30 11616 C 1116.92 -0.375436 -2.24888 0
M  V30 11617 C 1117.9 0.51313 -1.52498 0
M  V30 11618 O 1119.09 0.352654 -1.73451 0
M  V30 11619 C 1116.22 0.382266 -3.41165 0
M  V30 11620 C 1115.31 -0.522089 -4.20874 0
M  V30 11621 N 1115.7 -1.63623 -4.78603 0
M  V30 11622 C 1114 -0.322703 -4.44831 0
M  V30 11623 C 1114.7 -2.19766 -5.38589 0
M  V30 11624 N 1113.67 -1.48878 -5.22816 0
M  V30 11625 H 1117.47 -1.2263 -2.67094 0
M  V30 11626 H 1114.99 -0.767759 -1.43106 0
M  V30 11627 H 1116.99 0.785641 -4.0943 0
M  V30 11628 H 1115.65 1.23021 -3.00493 0
M  V30 11629 H 1116.66 -2.01879 -4.76933 0
M  V30 11630 H 1113.33 0.485627 -4.14666 0
M  V30 11631 H 1114.72 -3.13494 -5.94282 0
M  V30 11632 N 1117.44 1.42219 -0.679077 0
M  V30 11633 C 1118.67 2.05815 -0.211649 0
M  V30 11634 C 1119.09 1.51037 1.13284 0
M  V30 11635 O 1118.44 0.651894 1.7046 0
M  V30 11636 C 1118.49 3.61218 -0.142663 0
M  V30 11637 O 1118.22 4.13965 -1.43402 0
M  V30 11638 C 1119.72 4.41934 0.347746 0
M  V30 11639 H 1116.94 0.663215 -0.101914 0
M  V30 11640 H 1119.48 1.82282 -0.927017 0
M  V30 11641 H 1117.64 3.83848 0.52342 0
M  V30 11642 H 1118.05 5.07872 -1.31021 0
M  V30 11643 H 1119.52 5.50921 0.344916 0
M  V30 11644 H 1120 4.16832 1.38377 0
M  V30 11645 H 1120.61 4.24332 -0.286751 0
M  V30 11646 N 1118.92 0.422693 1.51826 0
M  V30 11647 C 1120.17 -0.148641 2.01954 0
M  V30 11648 C 1120.5 -1.43982 1.30765 0
M  V30 11649 O 1119.75 -1.91428 0.406668 0
M  V30 11650 C 1120.05 -0.429516 3.5481 0
M  V30 11651 C 1119.72 0.774088 4.44206 0
M  V30 11652 C 1118.38 1.1042 4.6836 0
M  V30 11653 C 1120.73 1.5777 4.96747 0
M  V30 11654 C 1118.06 2.23887 5.42302 0
M  V30 11655 C 1120.41 2.70325 5.71933 0
M  V30 11656 C 1119.07 3.03807 5.94355 0
M  V30 11657 H 1118.34 -0.0543917 0.739001 0
M  V30 11658 H 1120.99 0.566892 1.82917 0
M  V30 11659 H 1119.3 -1.22678 3.72099 0
M  V30 11660 H 1120.99 -0.884761 3.91118 0
M  V30 11661 H 1117.58 0.506834 4.25593 0
M  V30 11662 H 1121.77 1.33589 4.77983 0
M  V30 11663 H 1117.02 2.50159 5.5788 0
M  V30 11664 H 1121.2 3.32974 6.11638 0
M  V30 11665 H 1118.82 3.91844 6.51431 0
M  V30 11666 N 1120.4 -1.5685 0.153553 0
M  V30 11667 C 1121.35 -2.18385 -0.800667 0
M  V30 11668 C 1122.34 -1.14272 -1.25053 0
M  V30 11669 O 1123.55 -1.32509 -1.21825 0
M  V30 11670 H 1119.92 -0.699352 -0.276425 0
M  V30 11671 H 1121.89 -2.97287 -0.257535 0
M  V30 11672 C 1120.64 -2.82497 -2.02708 0
M  V30 11673 H 1119.97 -3.62328 -1.68992 0
M  V30 11674 H 1121.41 -3.29047 -2.67403 0
M  V30 11675 C 1119.86 -1.81343 -2.8393 0
M  V30 11676 O 1120.39 -1.28793 -3.80493 0
M  V30 11677 N 1118.6 -1.50499 -2.48593 0
M  V30 11678 H 1118.15 -1.93425 -1.70131 0
M  V30 11679 H 1118.11 -0.830672 -3.03228 0
M  V30 11680 N 1121.88 0.120221 -1.57141 0
M  V30 11681 C 1122.79 1.16641 -2.03549 0
M  V30 11682 C 1123.8 1.45407 -0.955656 0
M  V30 11683 O 1124.98 1.56547 -1.26708 0
M  V30 11684 C 1122.04 2.4734 -2.42948 0
M  V30 11685 C 1121.11 2.25982 -3.65008 0
M  V30 11686 C 1120.34 3.50449 -4.02518 0
M  V30 11687 O 1120.56 4.57706 -3.40384 0
M  V30 11688 O 1119.5 3.41524 -4.95626 0
M  V30 11689 H 1123.32 0.802323 -2.9291 0
M  V30 11690 H 1120.91 0.330927 -1.45689 0
M  V30 11691 H 1122.79 3.24348 -2.69029 0
M  V30 11692 H 1121.46 2.83225 -1.56733 0
M  V30 11693 H 1120.37 1.46837 -3.44078 0
M  V30 11694 H 1121.7 1.95002 -4.51924 0
M  V30 11695 N 1123.36 1.52689 0.390367 0
M  V30 11696 C 1124.58 1.71541 1.15678 0
M  V30 11697 C 1125 0.433171 1.83764 0
M  V30 11698 O 1124.36 -0.592248 1.72623 0
M  V30 11699 C 1124.41 2.864 2.20584 0
M  V30 11700 O 1124.13 4.0966 1.55274 0
M  V30 11701 C 1125.63 3.1692 3.09962 0
M  V30 11702 H 1122.85 0.574381 0.346883 0
M  V30 11703 H 1125.39 1.99332 0.456851 0
M  V30 11704 H 1123.55 2.61075 2.86214 0
M  V30 11705 H 1123.96 4.73802 2.2497 0
M  V30 11706 H 1125.44 4.00755 3.79604 0
M  V30 11707 H 1125.91 2.31245 3.73393 0
M  V30 11708 H 1126.52 3.4408 2.49979 0
M  V30 11709 N 1124.83 -0.648732 1.43629 0
M  V30 11710 C 1125.77 -1.77417 1.45107 0
M  V30 11711 C 1126.78 -1.59067 0.346618 0
M  V30 11712 O 1127.97 -1.67705 0.611322 0
M  V30 11713 C 1125.07 -3.14906 1.25249 0
M  V30 11714 C 1124.24 -3.59874 2.48616 0
M  V30 11715 C 1123.3 -4.76181 2.23916 0
M  V30 11716 O 1122.33 -4.8539 2.97296 0
M  V30 11717 N 1123.53 -5.66691 1.25862 0
M  V30 11718 H 1126.29 -1.76626 2.42123 0
M  V30 11719 H 1123.85 -0.832725 1.38843 0
M  V30 11720 H 1125.85 -3.90408 1.06601 0
M  V30 11721 H 1124.42 -3.10443 0.366623 0
M  V30 11722 H 1123.64 -2.74768 2.82659 0
M  V30 11723 H 1124.92 -3.86665 3.30708 0
M  V30 11724 H 1124.32 -5.61927 0.652227 0
M  V30 11725 H 1122.88 -6.41895 1.13196 0
M  V30 11726 N 1126.31 -1.30234 -0.887518 0
M  V30 11727 C 1127.56 -1.18277 -1.63381 0
M  V30 11728 C 1127.87 0.262079 -1.93836 0
M  V30 11729 O 1129.08 0.503127 -2.66797 0
M  V30 11730 C 1127.54 -2.06944 -2.94452 0
M  V30 11731 C 1127.14 -3.56323 -2.71547 0
M  V30 11732 C 1128.89 -2.03743 -3.7241 0
M  V30 11733 C 1126.8 -4.37054 -3.98419 0
M  V30 11734 H 1125.73 -0.439087 -0.612959 0
M  V30 11735 H 1128.38 -1.54964 -0.982779 0
M  V30 11736 H 1126.76 -1.63138 -3.60835 0
M  V30 11737 H 1127.93 -4.08261 -2.13681 0
M  V30 11738 H 1126.25 -3.61321 -2.06969 0
M  V30 11739 H 1128.84 -2.61312 -4.66497 0
M  V30 11740 H 1129.19 -1.02029 -4.03603 0
M  V30 11741 H 1129.72 -2.45657 -3.12886 0
M  V30 11742 H 1126.46 -5.39453 -3.72385 0
M  V30 11743 H 1125.98 -3.89881 -4.55799 0
M  V30 11744 H 1127.66 -4.48356 -4.66462 0
M  V30 11745 N 1127.79 1.09952 -1.12909 0
M  V30 11746 C 1128.7 2.19999 -0.81471 0
M  V30 11747 C 1129.72 1.72864 0.19851 0
M  V30 11748 O 1130.89 2.01376 0.0308832 0
M  V30 11749 C 1127.96 3.45573 -0.279363 0
M  V30 11750 C 1127.02 4.07417 -1.35314 0
M  V30 11751 C 1126.25 5.26996 -0.843247 0
M  V30 11752 O 1126.47 5.69495 0.321164 0
M  V30 11753 O 1125.41 5.79826 -1.61511 0
M  V30 11754 H 1129.23 2.49333 -1.73398 0
M  V30 11755 H 1126.82 1.18784 -0.906128 0
M  V30 11756 H 1128.7 4.21398 0.0140531 0
M  V30 11757 H 1127.38 3.17854 0.612401 0
M  V30 11758 H 1126.28 3.33253 -1.6998 0
M  V30 11759 H 1127.62 4.39349 -2.21885 0
M  V30 11760 N 1129.27 0.921757 1.27833 0
M  V30 11761 C 1130.51 0.569378 1.95268 0
M  V30 11762 C 1130.87 -0.878685 1.71163 0
M  V30 11763 O 1130.16 -1.6177 1.02669 0
M  V30 11764 C 1130.36 0.824259 3.47765 0
M  V30 11765 C 1130.19 2.29555 3.86697 0
M  V30 11766 C 1128.96 2.94715 4.10452 0
M  V30 11767 C 1131.15 3.27261 3.96743 0
M  V30 11768 N 1129.14 4.32058 4.36118 0
M  V30 11769 C 1130.51 4.49793 4.26715 0
M  V30 11770 C 1132.56 3.2255 3.79296 0
M  V30 11771 C 1131.26 5.68208 4.41057 0
M  V30 11772 C 1133.29 4.40272 3.9486 0
M  V30 11773 C 1132.65 5.61581 4.25213 0
M  V30 11774 H 1128.75 0.258368 0.738085 0
M  V30 11775 H 1131.34 1.18715 1.54321 0
M  V30 11776 H 1129.51 0.235697 3.87684 0
M  V30 11777 H 1131.24 0.435106 4.02354 0
M  V30 11778 H 1127.99 2.4541 4.05057 0
M  V30 11779 H 1128.42 5.03092 4.5302 0
M  V30 11780 H 1133.06 2.29835 3.54875 0
M  V30 11781 H 1130.78 6.61396 4.64308 0
M  V30 11782 H 1134.36 4.38138 3.82787 0
M  V30 11783 H 1133.24 6.51154 4.36998 0
M  V30 11784 N 1130.75 -1.41857 0.686609 0
M  V30 11785 C 1131.99 -2.01368 0.213801 0
M  V30 11786 C 1132.32 -1.5434 -1.18361 0
M  V30 11787 O 1131.58 -0.741447 -1.81111 0
M  V30 11788 C 1131.88 -3.56783 0.209951 0
M  V30 11789 C 1131.54 -4.23288 1.55365 0
M  V30 11790 C 1130.2 -4.41169 1.92154 0
M  V30 11791 C 1132.56 -4.6066 2.43807 0
M  V30 11792 C 1129.88 -4.93697 3.16986 0
M  V30 11793 C 1132.24 -5.14573 3.67963 0
M  V30 11794 C 1130.9 -5.30667 4.04906 0
M  V30 11795 H 1130.17 -0.736858 0.0782352 0
M  V30 11796 H 1132.82 -1.69879 0.88393 0
M  V30 11797 H 1131.12 -3.88009 -0.543712 0
M  V30 11798 H 1132.82 -4.00625 -0.173267 0
M  V30 11799 H 1129.41 -4.09738 1.2575 0
M  V30 11800 H 1133.59 -4.46507 2.16668 0
M  V30 11801 H 1128.85 -5.04342 3.45615 0
M  V30 11802 H 1133.02 -5.42473 4.36687 0
M  V30 11803 H 1130.65 -5.71133 5.01709 0
M  V30 11804 N 1132.22 -0.430739 -1.51599 0
M  V30 11805 C 1133.64 -0.0826902 -1.59386 0
M  V30 11806 C 1133.84 1.40729 -1.44214 0
M  V30 11807 O 1132.9 2.1765 -1.28002 0
M  V30 11808 C 1134.21 -0.59691 -2.94716 0
M  V30 11809 C 1135.76 -0.556772 -3.08008 0
M  V30 11810 C 1136.23 -1.04786 -4.45852 0
M  V30 11811 N 1137.72 -1.00557 -4.52153 0
M  V30 11812 C 1138.46 -1.35649 -5.57124 0
M  V30 11813 N 1137.95 -1.77994 -6.69545 0
M  V30 11814 N 1139.75 -1.27508 -5.47447 0
M  V30 11815 H 1131.9 -1.40027 -1.59707 0
M  V30 11816 H 1134.16 -0.576606 -0.752482 0
M  V30 11817 H 1133.87 -1.63914 -3.11167 0
M  V30 11818 H 1133.74 -0.0182342 -3.77196 0
M  V30 11819 H 1136.13 0.476457 -2.91228 0
M  V30 11820 H 1136.21 -1.17177 -2.27383 0
M  V30 11821 H 1135.85 -2.07952 -4.63377 0
M  V30 11822 H 1135.78 -0.409461 -5.25006 0
M  V30 11823 H 1138.27 -0.694518 -3.71463 0
M  V30 11824 H 1138.59 -2.03026 -7.45654 0
M  V30 11825 H 1136.93 -1.81916 -6.70769 0
M  V30 11826 H 1140.12 -0.942969 -4.58504 0
M  V30 11827 H 1140.3 -1.55185 -6.29143 0
M  V30 11828 N 1133.7 1.56767 -0.161869 0
M  V30 11829 C 1134.67 2.16299 0.758104 0
M  V30 11830 C 1135.67 1.10859 1.16478 0
M  V30 11831 O 1136.86 1.36422 1.08327 0
M  V30 11832 C 1133.99 2.73819 2.03067 0
M  V30 11833 H 1135.18 2.98938 0.239992 0
M  V30 11834 H 1132.73 1.56054 0.0876532 0
M  V30 11835 H 1133.47 1.94887 2.59209 0
M  V30 11836 H 1133.25 3.50974 1.74813 0
M  V30 11837 H 1134.74 3.19638 2.68741 0
M  V30 11838 N 1135.18 -0.111886 1.57202 0
M  V30 11839 C 1136.43 -0.816794 1.84859 0
M  V30 11840 C 1136.75 -1.80079 0.748113 0
M  V30 11841 O 1136.02 -1.94578 -0.227235 0
M  V30 11842 H 1134.6 -0.304633 0.682061 0
M  V30 11843 H 1137.26 -0.097513 1.94656 0
M  V30 11844 H 1136.36 -1.35768 2.81022 0
M  V30 11845 N 1136.66 -1.52894 -0.382264 0
M  V30 11846 C 1137.88 -1.72453 -1.15216 0
M  V30 11847 C 1138.31 -0.444925 -1.82762 0
M  V30 11848 O 1137.67 0.599825 -1.7109 0
M  V30 11849 C 1137.71 -2.87939 -2.17079 0
M  V30 11850 O 1136.82 -2.55383 -3.23811 0
M  V30 11851 H 1136.16 -0.57324 -0.335099 0
M  V30 11852 H 1138.69 -1.99713 -0.444495 0
M  V30 11853 H 1138.7 -3.13628 -2.60963 0
M  V30 11854 H 1137.37 -3.80765 -1.67305 0
M  V30 11855 H 1135.95 -2.40457 -2.85018 0
M  V30 11856 N 1138.14 0.641106 -1.43971 0
M  V30 11857 C 1139.1 1.73539 -1.49723 0
M  V30 11858 C 1140.1 1.56235 -0.380438 0
M  V30 11859 O 1141.29 1.61912 -0.642673 0
M  V30 11860 C 1138.42 3.1253 -1.36153 0
M  V30 11861 H 1139.62 1.69816 -2.47189 0
M  V30 11862 H 1137.17 0.853867 -1.30915 0
M  V30 11863 H 1137.9 3.21856 -0.39742 0
M  V30 11864 H 1137.69 3.26496 -2.17124 0
M  V30 11865 H 1139.18 3.92303 -1.43138 0
M  V30 11866 N 1139.62 1.30703 0.880598 0
M  V30 11867 C 1140.55 1.20033 2.00286 0
M  V30 11868 C 1141.53 0.0899614 1.69862 0
M  V30 11869 O 1142.71 0.272747 1.92275 0
M  V30 11870 C 1139.84 0.895902 3.35546 0
M  V30 11871 C 1138.8 1.96468 3.80242 0
M  V30 11872 C 1138.12 1.51316 5.12843 0
M  V30 11873 C 1139.42 3.37637 3.98496 0
M  V30 11874 H 1141.12 2.13922 2.0947 0
M  V30 11875 H 1138.66 1.02989 1.00644 0
M  V30 11876 H 1140.61 0.807899 4.13583 0
M  V30 11877 H 1139.34 -0.0786636 3.26505 0
M  V30 11878 H 1138 2.0424 3.04437 0
M  V30 11879 H 1137.65 0.52674 5.00234 0
M  V30 11880 H 1137.35 2.22807 5.43719 0
M  V30 11881 H 1138.87 1.43903 5.93401 0
M  V30 11882 H 1140.28 3.326 4.66959 0
M  V30 11883 H 1138.68 4.07253 4.40755 0
M  V30 11884 H 1139.75 3.79205 3.02211 0
M  V30 11885 N 1141.09 -1.09351 1.1349 0
M  V30 11886 C 1142.04 -2.18099 0.808426 0
M  V30 11887 C 1143.04 -1.68099 -0.209571 0
M  V30 11888 O 1144.24 -1.79877 -0.0666417 0
M  V30 11889 H 1140.62 -0.711432 0.243658 0
M  V30 11890 H 1142.59 -2.42867 1.73373 0
M  V30 11891 C 1141.34 -3.46475 0.291615 0
M  V30 11892 H 1140.66 -3.85319 1.06627 0
M  V30 11893 H 1142.1 -4.23878 0.101616 0
M  V30 11894 C 1140.56 -3.22245 -0.982827 0
M  V30 11895 O 1141.09 -3.44947 -2.0585 0
M  V30 11896 N 1139.29 -2.75845 -0.914218 0
M  V30 11897 H 1138.84 -2.57571 -0.03872 0
M  V30 11898 H 1138.8 -2.60011 -1.76753 0
M  V30 11899 N 1142.57 -0.928524 -1.27343 0
M  V30 11900 C 1143.99 -0.62889 -1.46687 0
M  V30 11901 C 1144.19 0.821592 -1.83989 0
M  V30 11902 O 1143.24 1.59941 -1.95385 0
M  V30 11903 C 1144.56 -1.57947 -2.55878 0
M  V30 11904 C 1146.1 -1.58778 -2.69738 0
M  V30 11905 C 1146.58 -2.52535 -3.82087 0
M  V30 11906 N 1148.07 -2.50747 -3.89462 0
M  V30 11907 C 1148.81 -3.19981 -4.75814 0
M  V30 11908 N 1148.3 -3.98598 -5.66649 0
M  V30 11909 N 1150.09 -3.08996 -4.69551 0
M  V30 11910 H 1142.25 -1.86625 -1.01414 0
M  V30 11911 H 1144.51 -0.801293 -0.50659 0
M  V30 11912 H 1144.21 -2.61427 -2.35264 0
M  V30 11913 H 1144.09 -1.3218 -3.53282 0
M  V30 11914 H 1146.48 -0.560292 -2.89732 0
M  V30 11915 H 1146.56 -1.88594 -1.72817 0
M  V30 11916 H 1146.2 -3.55395 -3.62846 0
M  V30 11917 H 1146.13 -2.20015 -4.78436 0
M  V30 11918 H 1148.62 -1.93651 -3.24511 0
M  V30 11919 H 1148.93 -4.4841 -6.29403 0
M  V30 11920 H 1147.28 -4.02701 -5.66442 0
M  V30 11921 H 1150.47 -2.4707 -3.97585 0
M  V30 11922 H 1150.64 -3.63223 -5.36631 0
M  V30 11923 N 1144.05 1.41491 -0.694123 0
M  V30 11924 C 1144.98 2.28189 0.0226347 0
M  V30 11925 C 1145.96 1.42152 0.7894 0
M  V30 11926 O 1147.14 1.71581 0.780519 0
M  V30 11927 C 1144.27 3.22357 1.03942 0
M  V30 11928 C 1143.32 4.24927 0.365994 0
M  V30 11929 S 1144.15 5.28043 -0.890562 0
M  V30 11930 C 1145.31 6.25776 0.124665 0
M  V30 11931 H 1145.54 2.88631 -0.712698 0
M  V30 11932 H 1143.07 1.46607 -0.484344 0
M  V30 11933 H 1145.03 3.77143 1.62091 0
M  V30 11934 H 1143.69 2.61013 1.74732 0
M  V30 11935 H 1142.88 4.9108 1.13388 0
M  V30 11936 H 1142.49 3.73729 -0.142389 0
M  V30 11937 H 1144.78 6.70398 0.978393 0
M  V30 11938 H 1145.72 7.06312 -0.502901 0
M  V30 11939 H 1146.13 5.62466 0.478792 0
M  V30 11940 N 1145.53 0.438773 1.51369 0
M  V30 11941 C 1146.47 -0.37195 2.27783 0
M  V30 11942 C 1147.44 -1.01558 1.31435 0
M  V30 11943 O 1148.63 -1.03421 1.60339 0
M  V30 11944 C 1145.77 -1.46636 3.12397 0
M  V30 11945 C 1144.88 -0.840727 4.2374 0
M  V30 11946 C 1144.02 -1.91031 4.95662 0
M  V30 11947 C 1143.06 -1.26318 5.98924 0
M  V30 11948 N 1142.19 -2.27419 6.64248 0
M  V30 11949 H 1147.03 0.286048 2.96624 0
M  V30 11950 H 1144.57 0.152909 1.46303 0
M  V30 11951 H 1146.53 -2.11219 3.59781 0
M  V30 11952 H 1145.16 -2.09397 2.45668 0
M  V30 11953 H 1144.21 -0.0831588 3.80309 0
M  V30 11954 H 1145.52 -0.328285 4.97719 0
M  V30 11955 H 1144.68 -2.63272 5.46601 0
M  V30 11956 H 1143.42 -2.45649 4.21317 0
M  V30 11957 H 1142.42 -0.526246 5.47276 0
M  V30 11958 H 1143.65 -0.724324 6.75226 0
M  V30 11959 H 1141.59 -2.81114 5.92715 0
M  V30 11960 H 1141.51 -1.81071 7.33996 0
M  V30 11961 H 1142.78 -2.99139 7.19817 0
M  V30 11962 N 1147.01 -1.56678 0.170181 0
M  V30 11963 C 1147.92 -2.21496 -0.773079 0
M  V30 11964 C 1148.93 -1.20626 -1.25401 0
M  V30 11965 O 1150.11 -1.53283 -1.30638 0
M  V30 11966 C 1147.17 -2.8421 -1.98558 0
M  V30 11967 C 1146.23 -4.00278 -1.55164 0
M  V30 11968 C 1145.47 -4.59992 -2.70634 0
M  V30 11969 O 1145.69 -4.18595 -3.87472 0
M  V30 11970 O 1144.62 -5.49881 -2.44775 0
M  V30 11971 H 1148.45 -3.02659 -0.251195 0
M  V30 11972 H 1146.03 -1.49288 -0.0579621 0
M  V30 11973 H 1147.92 -3.2398 -2.69472 0
M  V30 11974 H 1146.59 -2.06045 -2.49654 0
M  V30 11975 H 1145.5 -3.6518 -0.812038 0
M  V30 11976 H 1146.83 -4.80033 -1.0876 0
M  V30 11977 N 1148.48 0.103547 -1.57259 0
M  V30 11978 C 1149.41 1.12714 -2.04494 0
M  V30 11979 C 1150.39 1.42278 -0.932255 0
M  V30 11980 O 1151.58 1.52453 -1.20298 0
M  V30 11981 C 1148.71 2.44927 -2.46228 0
M  V30 11982 C 1147.66 2.2979 -3.61082 0
M  V30 11983 C 1146.99 3.67105 -3.88765 0
M  V30 11984 C 1148.29 1.7455 -4.9227 0
M  V30 11985 H 1149.98 0.734198 -2.90258 0
M  V30 11986 H 1147.53 0.351725 -1.39638 0
M  V30 11987 H 1149.48 3.16798 -2.77879 0
M  V30 11988 H 1148.21 2.8614 -1.57453 0
M  V30 11989 H 1146.87 1.60366 -3.29664 0
M  V30 11990 H 1146.51 4.05831 -2.97171 0
M  V30 11991 H 1146.21 3.57825 -4.66084 0
M  V30 11992 H 1147.74 4.40456 -4.22884 0
M  V30 11993 H 1149.15 2.36253 -5.22358 0
M  V30 11994 H 1147.55 1.76051 -5.73695 0
M  V30 11995 H 1148.62 0.704242 -4.79759 0
M  V30 11996 N 1149.96 1.53094 0.37415 0
M  V30 11997 C 1150.89 1.75199 1.47776 0
M  V30 11998 C 1151.91 0.632627 1.50006 0
M  V30 11999 O 1153.1 0.908688 1.5364 0
M  V30 12000 C 1150.2 1.80909 2.86575 0
M  V30 12001 C 1149.37 3.10432 3.08141 0
M  V30 12002 C 1148.43 3.07495 4.27005 0
M  V30 12003 O 1147.45 3.81319 4.22592 0
M  V30 12004 N 1148.66 2.27715 5.33972 0
M  V30 12005 H 1151.42 2.70423 1.29196 0
M  V30 12006 H 1148.98 1.51766 0.563802 0
M  V30 12007 H 1150.97 1.76432 3.64217 0
M  V30 12008 H 1149.54 0.930074 2.98443 0
M  V30 12009 H 1148.76 3.2828 2.18233 0
M  V30 12010 H 1150.05 3.96047 3.19413 0
M  V30 12011 H 1149.45 1.67231 5.40417 0
M  V30 12012 H 1148.01 2.29065 6.10223 0
M  V30 12013 N 1151.44 -0.633461 1.44309 0
M  V30 12014 C 1152.37 -1.75868 1.4698 0
M  V30 12015 C 1153.38 -1.58691 0.363469 0
M  V30 12016 O 1154.57 -1.67048 0.629075 0
M  V30 12017 C 1151.67 -3.1356 1.28582 0
M  V30 12018 C 1150.85 -3.57217 2.52418 0
M  V30 12019 C 1149.91 -4.73779 2.28954 0
M  V30 12020 O 1148.93 -4.8221 3.02428 0
M  V30 12021 N 1150.13 -5.65324 1.31866 0
M  V30 12022 H 1152.9 -1.74048 2.43983 0
M  V30 12023 H 1150.46 -0.817952 1.39718 0
M  V30 12024 H 1152.45 -3.89255 1.10736 0
M  V30 12025 H 1151.02 -3.10036 0.399529 0
M  V30 12026 H 1150.24 -2.71755 2.85557 0
M  V30 12027 H 1151.53 -3.83136 3.3479 0
M  V30 12028 H 1150.93 -5.61204 0.71179 0
M  V30 12029 H 1149.48 -6.40659 1.19998 0
M  V30 12030 O 1152.96 -1.41587 -0.77688 0
M  V30 12031 H 1153.65 -1.31317 -1.42392 0
M  V30 END ATOM
M  V30 BEGIN BOND
M  V30 END BOND
M  V30 END CTAB
M  END
$$$$
