drugbank_target|P59846 Argininosuccinate synthase (DB02267; DB04395)
 OpenBabel12092119543D

  0  0  0     0  0            999 V3000
M  V30 BEGIN CTAB
M  V30 COUNTS 6304 6376 0 0 0
M  V30 BEGIN ATOM
M  V30 1 H -0.908 1.98254 -0.117106 0
M  V30 2 N 0 1.576 0 0
M  V30 3 C 0.933 2.03868 1.02534 0
M  V30 4 C 1.911 0.928543 1.3348 0
M  V30 5 O 3.095 1.19667 1.45644 0
M  V30 6 C 0.222 2.43627 2.35294 0
M  V30 7 C -0.732 3.65373 2.2001 0
M  V30 8 S 0.101 5.13292 1.52614 0
M  V30 9 C 1.257 5.56322 2.86805 0
M  V30 10 H 1.49 2.90518 0.631377 0
M  V30 11 H -0.977 1.52953 0.210867 0
M  V30 12 H 0.981 2.67203 3.11629 0
M  V30 13 H -0.358 1.57376 2.7183 0
M  V30 14 H -1.165 3.90944 3.18086 0
M  V30 15 H -1.563 3.418 1.51819 0
M  V30 16 H 0.729 5.58782 3.83104 0
M  V30 17 H 1.672 6.56266 2.65933 0
M  V30 18 H 2.08 4.83886 2.90714 0
M  V30 19 N 1.4781 -0.272755 1.55222 0
M  V30 20 C 2.4251 -1.33716 1.88119 0
M  V30 21 C 3.3951 -1.49066 0.73271 0
M  V30 22 O 4.5801 -1.63469 0.984002 0
M  V30 23 C 1.7201 -2.69238 2.15882 0
M  V30 24 C 0.8331 -2.62108 3.43399 0
M  V30 25 C -0.0319 -3.89811 3.60861 0
M  V30 26 C -0.9929 -3.77193 4.8207 0
M  V30 27 N -1.8559 -4.9673 4.96189 0
M  V30 28 H 2.9841 -1.04962 2.78903 0
M  V30 29 H 0.5211 -0.507088 1.38083 0
M  V30 30 H 2.4791 -3.48089 2.29978 0
M  V30 31 H 1.1091 -2.96194 1.28331 0
M  V30 32 H 0.1611 -1.74967 3.37773 0
M  V30 33 H 1.4731 -2.48685 4.32386 0
M  V30 34 H 0.6271 -4.77103 3.74777 0
M  V30 35 H -0.6339 -4.06102 2.7006 0
M  V30 36 H -1.6289 -2.88284 4.68159 0
M  V30 37 H -0.4039 -3.62421 5.74307 0
M  V30 38 H -2.4579 -5.13431 4.08319 0
M  V30 39 H -2.5409 -4.85839 5.79221 0
M  V30 40 H -1.2729 -5.85594 5.1449 0
M  V30 41 N 2.9562 -1.48159 -0.537278 0
M  V30 42 C 4.2052 -1.5506 -1.28993 0
M  V30 43 C 4.5182 -0.226211 -1.94288 0
M  V30 44 O 5.7242 -0.173395 -2.70946 0
M  V30 45 C 4.1802 -2.73429 -2.34018 0
M  V30 46 C 3.7882 -4.1248 -1.74825 0
M  V30 47 C 5.5322 -2.89638 -3.10339 0
M  V30 48 C 3.4392 -5.22121 -2.77747 0
M  V30 49 H 2.3692 -0.577231 -0.485098 0
M  V30 50 H 5.0202 -1.74478 -0.568317 0
M  V30 51 H 3.4022 -2.47431 -3.09182 0
M  V30 52 H 4.5762 -4.48466 -1.05899 0
M  V30 53 H 2.8912 -4.01327 -1.11022 0
M  V30 54 H 5.4882 -3.68718 -3.87235 0
M  V30 55 H 5.8312 -1.9882 -3.65754 0
M  V30 56 H 6.3642 -3.15502 -2.42288 0
M  V30 57 H 3.1032 -6.1488 -2.27161 0
M  V30 58 H 2.6232 -4.90631 -3.45024 0
M  V30 59 H 4.3022 -5.49924 -3.4087 0
M  V30 60 N 4.4343 0.785586 -1.36625 0
M  V30 61 C 5.6803 1.54591 -1.31261 0
M  V30 62 C 6.0133 1.93906 0.106823 0
M  V30 63 O 5.2883 1.63007 1.06108 0
M  V30 64 C 5.5713 2.82038 -2.23889 0
M  V30 65 C 5.4243 2.49066 -3.74548 0
M  V30 66 C 6.7433 3.83887 -2.15217 0
M  V30 67 H 3.8623 0.560846 -0.478143 0
M  V30 68 H 6.5043 0.902278 -1.67209 0
M  V30 69 H 4.6543 3.36961 -1.93363 0
M  V30 70 H 6.3263 2.00164 -4.15611 0
M  V30 71 H 4.5693 1.81954 -3.93796 0
M  V30 72 H 5.2403 3.40109 -4.34776 0
M  V30 73 H 7.7163 3.38421 -2.42096 0
M  V30 74 H 6.5923 4.70806 -2.82193 0
M  V30 75 H 6.8533 4.27131 -1.14068 0
M  V30 76 N 5.9124 1.20967 1.01018 0
M  V30 77 C 6.8424 0.988272 2.11555 0
M  V30 78 C 7.8234 -0.0849778 1.69888 0
M  V30 79 O 9.0084 0.0738202 1.9406 0
M  V30 80 C 6.1384 0.546528 3.42973 0
M  V30 81 C 5.0924 1.56375 3.9841 0
M  V30 82 C 4.4184 0.97842 5.25672 0
M  V30 83 C 5.7184 2.94922 4.31066 0
M  V30 84 H 7.4124 1.91276 2.30334 0
M  V30 85 H 4.9584 0.921073 1.1069 0
M  V30 86 H 6.9114 0.378839 4.19694 0
M  V30 87 H 5.6354 -0.413598 3.23971 0
M  V30 88 H 4.2944 1.71891 3.23804 0
M  V30 89 H 3.9424 0.0101688 5.02999 0
M  V30 90 H 3.6424 1.65784 5.63728 0
M  V30 91 H 5.1664 0.821939 6.05043 0
M  V30 92 H 6.5804 2.8288 4.9865 0
M  V30 93 H 4.9774 3.5983 4.80253 0
M  V30 94 H 6.0474 3.4616 3.39561 0
M  V30 95 N 7.3905 -1.2043 1.01659 0
M  V30 96 C 8.3535 -2.21433 0.591616 0
M  V30 97 C 9.3535 -1.57203 -0.338226 0
M  V30 98 O 10.5435 -1.73737 -0.126918 0
M  V30 99 C 7.6755 -3.40628 -0.136058 0
M  V30 100 H 8.8685 -2.60545 1.48514 0
M  V30 101 H 6.4215 -1.33893 0.806379 0
M  V30 102 H 7.1565 -3.07019 -1.04449 0
M  V30 103 H 6.9415 -3.88475 0.531917 0
M  V30 104 H 8.4315 -4.15475 -0.420735 0
M  V30 105 N 8.8686 -0.792821 -1.36206 0
M  V30 106 C 10.0986 -0.378275 -2.03107 0
M  V30 107 C 10.5066 1.01119 -1.59911 0
M  V30 108 O 9.8496 1.66052 -0.785658 0
M  V30 109 C 9.9116 -0.366535 -3.57627 0
M  V30 110 C 9.5756 -1.70416 -4.24037 0
M  V30 111 C 10.5726 -2.6602 -4.46687 0
M  V30 112 C 8.2576 -1.98439 -4.6144 0
M  V30 113 C 10.2516 -3.8784 -5.05825 0
M  V30 114 C 7.9386 -3.20525 -5.20295 0
M  V30 115 C 8.9366 -4.15044 -5.42427 0
M  V30 116 O 8.6246 -5.34978 -6.00045 0
M  V30 117 H 8.3566 -0.153543 -0.658332 0
M  V30 118 H 10.9106 -1.07383 -1.75094 0
M  V30 119 H 9.1406 0.385539 -3.84773 0
M  V30 120 H 10.8296 0.0238088 -4.05893 0
M  V30 121 H 11.5956 -2.45658 -4.18183 0
M  V30 122 H 7.4746 -1.25686 -4.43536 0
M  V30 123 H 11.0186 -4.61628 -5.23015 0
M  V30 124 H 6.9156 -3.40764 -5.48225 0
M  V30 125 H 7.6836 -5.36088 -6.18508 0
M  V30 126 N 10.3467 1.47872 -0.545128 0
M  V30 127 C 11.5717 2.07391 -0.0190611 0
M  V30 128 C 11.9967 1.39688 1.25971 0
M  V30 129 O 11.3547 0.467816 1.7516 0
M  V30 130 C 11.4027 3.60188 0.172335 0
M  V30 131 O 10.5067 3.9339 1.23766 0
M  V30 132 H 9.8477 0.662411 -0.0459059 0
M  V30 133 H 12.3777 1.90066 -0.757365 0
M  V30 134 H 12.3877 4.06129 0.390305 0
M  V30 135 H 11.0627 4.08865 -0.761725 0
M  V30 136 H 9.6397 3.5921 1.00114 0
M  V30 137 N 11.8248 0.280983 1.55075 0
M  V30 138 C 13.0728 -0.333455 1.9933 0
M  V30 139 C 13.3938 -1.55937 1.17085 0
M  V30 140 O 12.6638 -1.94143 0.261805 0
M  V30 141 H 11.2438 -0.126197 0.736263 0
M  V30 142 H 13.9058 0.387678 1.91005 0
M  V30 143 H 13.0018 -0.619292 3.05894 0
M  V30 144 N 13.3029 -1.57598 0.00835791 0
M  V30 145 C 14.5509 -1.90551 -0.6734 0
M  V30 146 C 14.8719 -0.883301 -1.73847 0
M  V30 147 O 14.1419 0.0781442 -1.95744 0
M  V30 148 H 12.7219 -0.703312 -0.251717 0
M  V30 149 H 15.3839 -1.94833 0.0512592 0
M  V30 150 H 14.4799 -2.9056 -1.13935 0
M  V30 151 N 14.781 0.264519 -1.55364 0
M  V30 152 C 15.711 1.33121 -1.91836 0
M  V30 153 C 16.692 1.51101 -0.781192 0
M  V30 154 O 17.877 1.64003 -1.04003 0
M  V30 155 C 15.007 2.68921 -2.19769 0
M  V30 156 C 13.961 2.65661 -3.35571 0
M  V30 157 C 13.287 4.05093 -3.49004 0
M  V30 158 C 14.587 2.24187 -4.71739 0
M  V30 159 H 16.281 1.02844 -2.81182 0
M  V30 160 H 13.827 0.493286 -1.35287 0
M  V30 161 H 15.78 3.43663 -2.43872 0
M  V30 162 H 14.504 3.00799 -1.27231 0
M  V30 163 H 13.163 1.93377 -3.1145 0
M  V30 164 H 12.811 4.34206 -2.53917 0
M  V30 165 H 12.511 4.03804 -4.26868 0
M  V30 166 H 14.035 4.81561 -3.75408 0
M  V30 167 H 15.449 2.88654 -4.9533 0
M  V30 168 H 13.846 2.34044 -5.52579 0
M  V30 169 H 14.916 1.19327 -4.69988 0
M  V30 170 N 16.2591 1.48442 0.529413 0
M  V30 171 C 17.5361 1.46978 1.29062 0
M  V30 172 C 17.9161 0.181769 2.10316 0
M  V30 173 O 17.2641 -0.836481 2.12639 0
M  V30 174 C 17.4741 2.7321 2.17157 0
M  V30 175 C 18.8221 3.21562 2.77278 0
M  V30 176 O 19.8461 2.74131 2.27444 0
M  V30 177 O 18.7051 4.04094 3.67927 0
M  V30 178 H 15.7991 0.587003 0.582543 0
M  V30 179 H 18.3451 1.60676 0.546021 0
M  V30 180 H 17.1171 3.58465 1.56903 0
M  V30 181 H 16.7401 2.62235 2.98862 0
M  V30 182 N 17.7372 -0.778329 1.37039 0
M  V30 183 C 18.9652 -1.56734 1.35063 0
M  V30 184 C 19.3802 -1.88686 -0.0655597 0
M  V30 185 O 18.7372 -1.5096 -1.02554 0
M  V30 186 C 18.7882 -2.88163 2.18276 0
M  V30 187 O 18.5092 -2.57583 3.54376 0
M  V30 188 C 20.0102 -3.82422 2.24206 0
M  V30 189 H 17.2302 -0.485778 0.462883 0
M  V30 190 H 19.7742 -0.965185 1.8029 0
M  V30 191 H 17.9292 -3.44818 1.76576 0
M  V30 192 H 18.3432 -3.41699 3.97922 0
M  V30 193 H 19.8172 -4.71667 2.86765 0
M  V30 194 H 20.2942 -4.21078 1.24861 0
M  V30 195 H 20.9002 -3.31697 2.6619 0
M  V30 196 N 19.2153 -1.21501 -1.00376 0
M  V30 197 C 20.4403 -1.05977 -1.78279 0
M  V30 198 C 20.8653 0.385994 -1.84097 0
M  V30 199 O 20.2233 1.27849 -1.28547 0
M  V30 200 C 20.2713 -1.66302 -3.19963 0
M  V30 201 O 19.3753 -0.909333 -4.0225 0
M  V30 202 H 18.7163 -0.372906 -0.549397 0
M  V30 203 H 21.2463 -1.6107 -1.26165 0
M  V30 204 H 21.2563 -1.70574 -3.70632 0
M  V30 205 H 19.9313 -2.71515 -3.15043 0
M  V30 206 H 18.5083 -0.941795 -3.60811 0
M  V30 207 N 20.6934 1.19889 -1.02296 0
M  V30 208 C 21.9424 1.88743 -0.711257 0
M  V30 209 C 22.2554 1.80112 0.762817 0
M  V30 210 O 23.4614 2.44161 1.18733 0
M  V30 211 C 21.9174 3.38525 -1.22185 0
M  V30 212 C 21.5254 3.55727 -2.72328 0
M  V30 213 C 23.2694 4.12893 -0.985864 0
M  V30 214 C 21.1764 4.99369 -3.16835 0
M  V30 215 H 20.1064 0.706885 -0.262353 0
M  V30 216 H 22.7574 1.35586 -1.23648 0
M  V30 217 H 21.1394 3.91044 -0.624571 0
M  V30 218 H 22.3134 3.13564 -3.3766 0
M  V30 219 H 20.6284 2.94739 -2.9414 0
M  V30 220 H 23.2254 5.18813 -1.29374 0
M  V30 221 H 23.5684 4.16228 0.0775055 0
M  V30 222 H 24.1014 3.66494 -1.54684 0
M  V30 223 H 20.8404 5.01193 -4.22476 0
M  V30 224 H 20.3604 5.42317 -2.56228 0
M  V30 225 H 22.0394 5.67988 -3.09837 0
M  V30 226 N 22.1715 0.800033 1.35784 0
M  V30 227 C 23.4205 0.37387 1.98205 0
M  V30 228 C 23.7335 -1.06302 1.64193 0
M  V30 229 O 24.9395 -1.59198 2.19928 0
M  V30 230 C 23.3955 0.617532 3.54562 0
M  V30 231 C 23.0035 2.06654 3.9749 0
M  V30 232 C 24.7475 0.256401 4.23725 0
M  V30 233 C 22.6545 2.2563 5.46667 0
M  V30 234 H 21.5845 0.136055 0.741623 0
M  V30 235 H 24.2355 0.983166 1.54939 0
M  V30 236 H 22.6175 -0.0616248 3.95952 0
M  V30 237 H 23.7915 2.78296 3.67271 0
M  V30 238 H 22.1065 2.38691 3.41197 0
M  V30 239 H 24.7035 0.376318 5.33374 0
M  V30 240 H 25.0465 -0.796692 4.08606 0
M  V30 241 H 25.5795 0.889214 3.87734 0
M  V30 242 H 22.3185 3.2936 5.66747 0
M  V30 243 H 21.8385 1.58504 5.78478 0
M  V30 244 H 23.5175 2.06861 6.1304 0
M  V30 245 N 23.6496 -1.47581 0.552962 0
M  V30 246 C 24.5796 -2.32762 -0.185451 0
M  V30 247 C 25.5606 -1.43527 -0.912905 0
M  V30 248 O 26.7456 -1.72388 -0.894201 0
M  V30 249 C 23.8756 -3.25219 -1.21859 0
M  V30 250 C 22.8296 -4.23661 -0.607864 0
M  V30 251 C 22.1556 -5.05413 -1.74533 0
M  V30 252 C 23.4556 -5.20481 0.435582 0
M  V30 253 H 25.1496 -2.94749 0.525684 0
M  V30 254 H 22.6956 -1.41738 0.254251 0
M  V30 255 H 24.6486 -3.8365 -1.7433 0
M  V30 256 H 23.3726 -2.61279 -1.95961 0
M  V30 257 H 22.0316 -3.66451 -0.104489 0
M  V30 258 H 21.6796 -4.3788 -2.47529 0
M  V30 259 H 21.3796 -5.72059 -1.34249 0
M  V30 260 H 22.9036 -5.66701 -2.27338 0
M  V30 261 H 24.3176 -5.733 -0.00290157 0
M  V30 262 H 22.7146 -5.95305 0.757067 0
M  V30 263 H 23.7846 -4.66217 1.33303 0
M  V30 264 N 25.1277 -0.289203 -1.54924 0
M  V30 265 C 26.0747 0.592115 -2.23075 0
M  V30 266 C 27.0447 1.13881 -1.20915 0
M  V30 267 O 28.2297 1.18551 -1.495 0
M  V30 268 C 25.3697 1.76376 -2.96623 0
M  V30 269 C 24.4827 1.24959 -4.13533 0
M  V30 270 C 23.6177 2.38416 -4.74691 0
M  V30 271 C 22.6567 1.84072 -5.83767 0
M  V30 272 N 21.7937 2.91057 -6.38929 0
M  V30 273 H 26.6337 0.00432038 -2.98 0
M  V30 274 H 24.1707 -0.00963529 -1.47097 0
M  V30 275 H 26.1287 2.45268 -3.3749 0
M  V30 276 H 24.7587 2.32337 -2.24097 0
M  V30 277 H 23.8107 0.453307 -3.77689 0
M  V30 278 H 25.1227 0.811662 -4.92152 0
M  V30 279 H 24.2767 3.15276 -5.18349 0
M  V30 280 H 23.0157 2.8553 -3.95378 0
M  V30 281 H 22.0207 1.05697 -5.39545 0
M  V30 282 H 23.2457 1.37877 -6.64956 0
M  V30 283 H 21.1917 3.37526 -5.62505 0
M  V30 284 H 21.1087 2.51724 -7.12861 0
M  V30 285 H 22.3767 3.6785 -6.87246 0
M  V30 286 N 26.6058 1.57591 -0.0167156 0
M  V30 287 C 27.8518 1.92399 0.659861 0
M  V30 288 C 28.2068 0.892561 1.70444 0
M  V30 289 O 27.4998 -0.0930755 1.91374 0
M  V30 290 C 27.6938 3.3172 1.33029 0
M  V30 291 C 27.5228 4.48319 0.352174 0
M  V30 292 C 26.2928 5.05281 -0.0434883 0
M  V30 293 C 28.4908 5.12831 -0.388474 0
M  V30 294 N 26.4728 6.05399 -1.01807 0
M  V30 295 C 27.8438 6.07934 -1.2172 0
M  V30 296 C 29.8988 4.95858 -0.450513 0
M  V30 297 C 28.6018 6.87891 -2.10235 0
M  V30 298 C 30.6278 5.76413 -1.32295 0
M  V30 299 C 29.9898 6.71123 -2.13948 0
M  V30 300 H 26.0888 0.752106 0.21415 0
M  V30 301 H 28.6728 1.94532 -0.0809846 0
M  V30 302 H 26.8438 3.3043 2.04134 0
M  V30 303 H 28.5758 3.5391 1.9629 0
M  V30 304 H 25.3308 4.7246 0.328384 0
M  V30 305 H 25.7548 6.60145 -1.50123 0
M  V30 306 H 30.3968 4.22472 0.166512 0
M  V30 307 H 28.1148 7.60591 -2.72997 0
M  V30 308 H 31.7008 5.65317 -1.37508 0
M  V30 309 H 30.5808 7.3237 -2.80364 0
M  V30 310 N 28.0839 -0.256276 1.55502 0
M  V30 311 C 29.0139 -1.32102 1.92539 0
M  V30 312 C 29.9949 -1.50684 0.789194 0
M  V30 313 O 31.1799 -1.63449 1.04872 0
M  V30 314 C 28.3099 -2.67752 2.21192 0
M  V30 315 C 27.2639 -2.63878 3.36975 0
M  V30 316 C 26.5899 -4.03236 3.51147 0
M  V30 317 C 27.8899 -2.21682 4.72921 0
M  V30 318 H 29.5839 -1.01351 2.81724 0
M  V30 319 H 27.1299 -0.486105 1.35547 0
M  V30 320 H 29.0829 -3.42365 2.45691 0
M  V30 321 H 27.8069 -3.0012 1.28824 0
M  V30 322 H 26.4659 -1.91722 3.12471 0
M  V30 323 H 26.1139 -4.32854 2.56216 0
M  V30 324 H 25.8139 -4.01535 4.29003 0
M  V30 325 H 27.3379 -4.79563 3.77957 0
M  V30 326 H 28.7519 -2.86023 4.96854 0
M  V30 327 H 27.1489 -2.3111 5.53812 0
M  V30 328 H 28.2189 -1.16833 4.70615 0
M  V30 329 N 29.562 -1.4872 -0.521534 0
M  V30 330 C 30.509 -1.63871 -1.62527 0
M  V30 331 C 31.479 -0.480559 -1.58996 0
M  V30 332 O 32.664 -0.705085 -1.77294 0
M  V30 333 C 29.804 -1.69227 -3.00759 0
M  V30 334 C 28.917 -2.96207 -3.14461 0
M  V30 335 C 28.052 -2.92671 -4.43303 0
M  V30 336 C 27.091 -4.14318 -4.50563 0
M  V30 337 N 26.228 -4.0881 -5.70805 0
M  V30 338 H 31.068 -2.58123 -1.48918 0
M  V30 339 H 28.605 -1.28 -0.724878 0
M  V30 340 H 30.563 -1.70314 -3.80853 0
M  V30 341 H 29.193 -0.784586 -3.1312 0
M  V30 342 H 28.245 -3.04826 -2.27564 0
M  V30 343 H 29.557 -3.86192 -3.15686 0
M  V30 344 H 28.711 -2.92206 -5.31696 0
M  V30 345 H 27.45 -2.00429 -4.44612 0
M  V30 346 H 26.455 -4.15049 -3.60575 0
M  V30 347 H 27.68 -5.07729 -4.50986 0
M  V30 348 H 25.626 -3.19394 -5.72995 0
M  V30 349 H 25.543 -4.92509 -5.7356 0
M  V30 350 H 26.811 -4.12418 -6.61462 0
M  V30 351 N 31.0401 0.771051 -1.3745 0
M  V30 352 C 31.9501 1.91538 -1.35464 0
M  V30 353 C 32.9661 1.72134 -0.254123 0
M  V30 354 O 34.1421 1.95358 -0.489626 0
M  V30 355 C 31.2071 3.26671 -1.16134 0
M  V30 356 C 30.2681 3.58723 -2.35831 0
M  V30 357 C 29.5011 4.87409 -2.17413 0
M  V30 358 O 29.7241 5.58506 -1.15876 0
M  V30 359 O 28.6581 5.18539 -3.05615 0
M  V30 360 H 32.4841 1.96165 -2.31847 0
M  V30 361 H 30.0691 0.9139 -1.18187 0
M  V30 362 H 31.9511 4.07499 -1.07345 0
M  V30 363 H 30.6261 3.22894 -0.228251 0
M  V30 364 H 29.5331 2.78127 -2.50192 0
M  V30 365 H 30.8661 3.67243 -3.27709 0
M  V30 366 N 32.5182 1.22032 0.997298 0
M  V30 367 C 33.7462 1.06841 1.7718 0
M  V30 368 C 34.1612 -0.381325 1.84909 0
M  V30 369 O 33.5182 -1.26437 1.31605 0
M  V30 370 C 33.5692 1.66814 3.20711 0
M  V30 371 O 33.2902 3.06116 3.13408 0
M  V30 372 C 34.7912 1.56838 4.14628 0
M  V30 373 H 32.0112 0.374782 0.556578 0
M  V30 374 H 34.5552 1.61532 1.2541 0
M  V30 375 H 32.7102 1.16196 3.69564 0
M  V30 376 H 33.1242 3.34926 4.0364 0
M  V30 377 H 34.5982 2.03532 5.13107 0
M  V30 378 H 35.0752 0.524155 4.36061 0
M  V30 379 H 35.6812 2.06741 3.7167 0
M  V30 380 N 33.9963 -1.19345 1.0293 0
M  V30 381 C 35.2263 -1.92717 0.744563 0
M  V30 382 C 35.6343 -1.75751 -0.700579 0
M  V30 383 O 34.9773 -1.07703 -1.48815 0
M  V30 384 C 35.0393 -3.44828 1.01657 0
M  V30 385 C 34.7033 -3.85564 2.45335 0
M  V30 386 C 35.7003 -3.90286 3.43472 0
M  V30 387 C 33.3853 -4.1719 2.79746 0
M  V30 388 C 35.3793 -4.26065 4.74075 0
M  V30 389 C 33.0663 -4.52642 4.10559 0
M  V30 390 C 34.0643 -4.57054 5.07534 0
M  V30 391 O 33.7523 -4.91685 6.36004 0
M  V30 392 H 33.4843 -0.618977 0.271742 0
M  V30 393 H 36.0383 -1.52415 1.37691 0
M  V30 394 H 34.2683 -3.85314 0.327084 0
M  V30 395 H 35.9573 -3.99437 0.721427 0
M  V30 396 H 36.7233 -3.66002 3.18225 0
M  V30 397 H 32.6023 -4.1294 2.04943 0
M  V30 398 H 36.1463 -4.29423 5.49765 0
M  V30 399 H 32.0433 -4.76383 4.35579 0
M  V30 400 H 32.8113 -5.09631 6.40483 0
M  V30 401 N 35.4744 -0.807222 -1.35358 0
M  V30 402 C 36.8904 -0.491038 -1.51858 0
M  V30 403 C 37.0904 0.987648 -1.75635 0
M  V30 404 O 36.1464 1.77265 -1.79815 0
M  V30 405 C 37.4594 -1.33695 -2.69344 0
M  V30 406 C 39.0074 -1.33246 -2.83222 0
M  V30 407 C 39.4824 -2.1625 -4.03733 0
M  V30 408 N 40.9734 -2.1379 -4.10911 0
M  V30 409 C 41.7084 -2.74772 -5.03277 0
M  V30 410 N 41.2044 -3.44684 -6.0097 0
M  V30 411 N 42.9974 -2.6441 -4.96028 0
M  V30 412 H 35.1484 -1.76485 -1.18181 0
M  V30 413 H 37.4114 -0.751199 -0.578276 0
M  V30 414 H 37.1174 -2.38634 -2.58354 0
M  V30 415 H 36.9914 -0.990618 -3.6396 0
M  V30 416 H 39.3784 -0.290911 -2.93663 0
M  V30 417 H 39.4594 -1.71866 -1.89461 0
M  V30 418 H 39.1034 -3.20445 -3.94052 0
M  V30 419 H 39.0334 -1.74989 -4.96675 0
M  V30 420 H 41.5244 -1.62923 -3.40976 0
M  V30 421 H 41.8374 -3.88501 -6.68047 0
M  V30 422 H 40.1824 -3.48788 -6.01142 0
M  V30 423 H 43.3734 -2.0938 -4.18662 0
M  V30 424 H 43.5464 -3.12225 -5.6782 0
M  V30 425 N 36.9525 1.47285 -0.560781 0
M  V30 426 C 37.9155 2.28535 0.174488 0
M  V30 427 C 38.9155 1.37153 0.839388 0
M  V30 428 O 40.1055 1.59748 0.694702 0
M  V30 429 C 37.2375 3.16934 1.25561 0
M  V30 430 H 38.4305 2.95012 -0.539262 0
M  V30 431 H 35.9835 1.53034 -0.317865 0
M  V30 432 H 36.7185 2.55157 2.00164 0
M  V30 433 H 36.5035 3.8419 0.783604 0
M  V30 434 H 37.9935 3.78143 1.77193 0
M  V30 435 N 38.4306 0.297415 1.54768 0
M  V30 436 C 39.3406 -0.58983 2.27064 0
M  V30 437 C 40.3566 -1.15144 1.30453 0
M  V30 438 O 41.5326 -1.17699 1.63428 0
M  V30 439 C 38.5976 -1.74714 2.9946 0
M  V30 440 C 37.6586 -1.21997 4.11601 0
M  V30 441 C 36.8916 -2.32212 4.80535 0
M  V30 442 O 37.1146 -3.52036 4.48806 0
M  V30 443 O 36.0486 -1.99106 5.68014 0
M  V30 444 H 39.8746 -0.00348199 3.037 0
M  V30 445 H 37.4596 0.0640035 1.49263 0
M  V30 446 H 39.3416 -2.42147 3.44881 0
M  V30 447 H 38.0166 -2.32016 2.25722 0
M  V30 448 H 36.9236 -0.511458 3.70587 0
M  V30 449 H 38.2566 -0.692419 4.87305 0
M  V30 450 N 39.9087 -1.5758 0.0250728 0
M  V30 451 C 41.1547 -1.91917 -0.655413 0
M  V30 452 C 41.4877 -0.901433 -1.72011 0
M  V30 453 O 40.7627 0.0764069 -1.9435 0
M  V30 454 C 41.0457 -3.36751 -1.27558 0
M  V30 455 C 40.8987 -4.49258 -0.220719 0
M  V30 456 C 42.2177 -3.81469 -2.19475 0
M  V30 457 H 39.3367 -0.697925 -0.23679 0
M  V30 458 H 41.9787 -1.89825 0.0815036 0
M  V30 459 H 40.1287 -3.38664 -1.90365 0
M  V30 460 H 41.8007 -4.59478 0.409601 0
M  V30 461 H 40.0437 -4.31415 0.454264 0
M  V30 462 H 40.7147 -5.47618 -0.694175 0
M  V30 463 H 43.1907 -3.81266 -1.66659 0
M  V30 464 H 42.0667 -4.83512 -2.59822 0
M  V30 465 H 42.3277 -3.16744 -3.08424 0
M  V30 466 N 41.3868 0.248026 -1.55636 0
M  V30 467 C 42.6358 0.974134 -1.76617 0
M  V30 468 C 42.9488 1.86528 -0.588796 0
M  V30 469 O 44.1548 2.62805 -0.681594 0
M  V30 470 C 42.6108 1.78213 -3.12679 0
M  V30 471 C 42.2188 0.93843 -4.38061 0
M  V30 472 C 43.9628 2.50104 -3.42999 0
M  V30 473 C 41.8698 1.74225 -5.65155 0
M  V30 474 H 40.7998 0.36745 -0.658405 0
M  V30 475 H 43.4508 0.22884 -1.82067 0
M  V30 476 H 41.8328 2.56933 -3.01333 0
M  V30 477 H 43.0068 0.193635 -4.60393 0
M  V30 478 H 41.3218 0.332905 -4.15067 0
M  V30 479 H 43.9188 3.10694 -4.3517 0
M  V30 480 H 44.2618 3.21662 -2.64271 0
M  V30 481 H 44.7948 1.78395 -3.55556 0
M  V30 482 H 41.5338 1.07043 -6.46701 0
M  V30 483 H 41.0538 2.46235 -5.46926 0
M  V30 484 H 42.7328 2.30967 -6.0437 0
M  V30 485 N 42.8649 1.48995 0.513639 0
M  V30 486 C 43.8279 1.64229 1.59879 0
M  V30 487 C 44.8279 0.514696 1.5234 0
M  V30 488 O 46.0179 0.78087 1.55718 0
M  V30 489 C 43.1499 1.62783 2.99524 0
M  V30 490 H 44.3429 2.61004 1.47705 0
M  V30 491 H 41.8959 1.37837 0.736936 0
M  V30 492 H 42.6309 0.675461 3.17188 0
M  V30 493 H 42.4159 2.4466 3.06404 0
M  V30 494 H 43.9059 1.76669 3.78388 0
M  V30 495 N 44.343 -0.763751 1.37857 0
M  V30 496 C 45.59 -1.52257 1.33506 0
M  V30 497 C 45.918 -1.94343 -0.078022 0
M  V30 498 O 45.173 -1.64958 -1.05297 0
M  V30 499 C 45.472 -2.79499 2.22745 0
M  V30 500 C 45.138 -2.56426 3.70886 0
M  V30 501 C 43.8 -2.49842 4.11257 0
M  V30 502 C 46.152 -2.36008 4.64704 0
M  V30 503 C 43.48 -2.20841 5.43549 0
M  V30 504 C 45.832 -2.0853 5.97242 0
M  V30 505 C 44.496 -2.00396 6.36709 0
M  V30 506 H 43.766 -0.557149 0.488534 0
M  V30 507 H 46.413 -0.879073 1.70131 0
M  V30 508 H 44.718 -3.48447 1.79142 0
M  V30 509 H 46.415 -3.37413 2.16688 0
M  V30 510 H 43.005 -2.62416 3.38874 0
M  V30 511 H 47.189 -2.40079 4.34368 0
M  V30 512 H 42.445 -2.13045 5.73081 0
M  V30 513 H 46.619 -1.91732 6.69486 0
M  V30 514 H 44.246 -1.77688 7.39142 0
M  V30 515 N 45.8211 -1.22559 -0.990812 0
M  V30 516 C 47.0491 -1.07779 -1.76611 0
M  V30 517 C 47.4641 0.371513 -1.85109 0
M  V30 518 O 46.8211 1.25737 -1.32274 0
M  V30 519 C 46.8721 -1.68512 -3.19822 0
M  V30 520 O 46.5931 -3.07774 -3.1178 0
M  V30 521 C 48.0941 -1.59035 -4.13791 0
M  V30 522 H 45.3141 -0.377729 -0.554583 0
M  V30 523 H 47.8581 -1.62195 -1.24551 0
M  V30 524 H 46.0131 -1.18154 -3.68942 0
M  V30 525 H 46.4271 -3.37062 -4.01858 0
M  V30 526 H 47.9011 -2.0625 -5.1202 0
M  V30 527 H 48.3781 -0.547273 -4.35777 0
M  V30 528 H 48.9841 -2.08709 -3.70568 0
M  V30 529 N 47.2992 1.18797 -1.03562 0
M  V30 530 C 48.2622 2.20464 -0.626769 0
M  V30 531 C 49.2622 1.57721 0.313173 0
M  V30 532 O 50.4522 1.73917 0.0992615 0
M  V30 533 C 47.5842 3.40802 0.0818498 0
M  V30 534 H 48.7772 2.58149 -1.5264 0
M  V30 535 H 46.3302 1.32593 -0.827578 0
M  V30 536 H 47.0652 3.08642 0.995518 0
M  V30 537 H 46.8502 3.8758 -0.593652 0
M  V30 538 H 48.3402 4.16092 0.354584 0
M  V30 539 N 48.7773 0.814389 1.34928 0
M  V30 540 C 50.0543 0.321363 1.92942 0
M  V30 541 C 50.4343 -1.19014 1.74353 0
M  V30 542 O 49.7823 -1.99328 1.11716 0
M  V30 543 C 49.9923 0.741323 3.41036 0
M  V30 544 C 51.3403 0.735266 4.18185 0
M  V30 545 O 52.3643 0.68336 3.49584 0
M  V30 546 O 51.2233 0.800703 5.40602 0
M  V30 547 H 48.3173 0.0858893 0.822528 0
M  V30 548 H 50.8633 0.898609 1.43955 0
M  V30 549 H 49.6353 1.78276 3.4833 0
M  V30 550 H 49.2583 0.139307 3.97356 0
M  V30 551 N 50.2554 -1.46986 0.568584 0
M  V30 552 C 51.5044 -2.01646 0.0465894 0
M  V30 553 C 51.8174 -1.44721 -1.31587 0
M  V30 554 O 53.0234 -1.91113 -1.92842 0
M  V30 555 C 51.4794 -3.59885 0.032752 0
M  V30 556 C 51.0874 -4.25804 1.39266 0
M  V30 557 C 52.8314 -4.22255 -0.436038 0
M  V30 558 C 50.7384 -5.76081 1.33732 0
M  V30 559 H 49.6684 -0.753876 0.013647 0
M  V30 560 H 52.3194 -1.68864 0.718131 0
M  V30 561 H 50.7014 -3.8968 -0.704669 0
M  V30 562 H 51.8754 -4.07637 2.1487 0
M  V30 563 H 50.1904 -3.7547 1.80032 0
M  V30 564 H 52.7874 -5.32394 -0.49602 0
M  V30 565 H 53.1304 -3.90212 -1.45053 0
M  V30 566 H 53.6634 -3.97033 0.246877 0
M  V30 567 H 50.4024 -6.12761 2.32817 0
M  V30 568 H 49.9224 -5.96553 0.623267 0
M  V30 569 H 51.6014 -6.38518 1.0442 0
M  V30 570 N 51.7335 -0.305618 -1.54608 0
M  V30 571 C 52.9815 0.301701 -1.99835 0
M  V30 572 C 53.3025 1.54054 -1.19551 0
M  V30 573 O 52.5725 1.93702 -0.292658 0
M  V30 574 H 51.1525 0.114468 -0.738178 0
M  V30 575 H 53.8145 -0.418016 -1.90364 0
M  V30 576 H 52.9105 0.570548 -3.06841 0
M  V30 577 N 53.2116 1.57565 -0.0334293 0
M  V30 578 C 54.1436 2.0739 0.975811 0
M  V30 579 C 55.1566 0.998166 1.2861 0
M  V30 580 O 56.3456 1.27426 1.25 0
M  V30 581 C 53.4456 2.4871 2.30209 0
M  V30 582 C 52.6186 3.79413 2.17634 0
M  V30 583 C 51.6776 4.07237 3.33233 0
M  V30 584 O 50.7036 4.77425 3.09927 0
M  V30 585 N 51.9056 3.5775 4.5716 0
M  V30 586 H 54.6706 2.94598 0.55066 0
M  V30 587 H 52.2316 1.61173 0.15323 0
M  V30 588 H 54.2236 2.64413 3.06378 0
M  V30 589 H 52.7936 1.66845 2.64351 0
M  V30 590 H 52.0136 3.73465 1.26165 0
M  V30 591 H 53.3016 4.65038 2.0644 0
M  V30 592 H 52.6996 3.00976 4.78989 0
M  V30 593 H 51.2566 3.78724 5.30482 0
M  V30 594 N 54.6897 -0.239769 1.55765 0
M  V30 595 C 55.9377 -0.964892 1.77579 0
M  V30 596 C 56.2587 -1.85582 0.598699 0
M  V30 597 O 55.5287 -1.92075 -0.385226 0
M  V30 598 H 54.1087 -0.359265 0.654933 0
M  V30 599 H 56.7707 -0.256001 1.93211 0
M  V30 600 H 55.8667 -1.58243 2.69009 0
M  V30 601 N 56.1678 -1.49265 -0.50573 0
M  V30 602 C 57.0778 -1.68312 -1.63427 0
M  V30 603 C 58.0938 -0.565682 -1.64548 0
M  V30 604 O 59.2698 -0.839801 -1.83055 0
M  V30 605 C 56.3348 -1.74107 -2.99813 0
M  V30 606 C 55.3958 -2.97653 -3.09356 0
M  V30 607 C 54.6288 -3.03163 -4.39236 0
M  V30 608 O 54.8518 -2.16396 -5.27758 0
M  V30 609 O 53.7858 -3.9558 -4.53652 0
M  V30 610 H 57.6118 -2.63907 -1.50289 0
M  V30 611 H 55.1968 -1.32951 -0.681502 0
M  V30 612 H 57.0788 -1.803 -3.80881 0
M  V30 613 H 55.7538 -0.816901 -3.13223 0
M  V30 614 H 54.6608 -2.96981 -2.27493 0
M  V30 615 H 55.9938 -3.89535 -3.00871 0
M  V30 616 N 57.6459 0.756429 -1.3826 0
M  V30 617 C 58.5559 1.9009 -1.37488 0
M  V30 618 C 59.5719 1.71855 -0.272366 0
M  V30 619 O 60.7479 1.94827 -0.510318 0
M  V30 620 C 57.8129 3.25421 -1.19592 0
M  V30 621 C 56.8739 3.56202 -2.39622 0
M  V30 622 C 56.1069 4.85075 -2.2257 0
M  V30 623 O 56.3299 5.57246 -1.21793 0
M  V30 624 O 55.2639 5.15269 -3.11098 0
M  V30 625 H 59.0899 1.93695 -2.33914 0
M  V30 626 H 56.6749 0.901313 -1.1915 0
M  V30 627 H 58.5569 4.06337 -1.11661 0
M  V30 628 H 57.2319 3.22634 -0.262486 0
M  V30 629 H 56.1389 2.75458 -2.53128 0
M  V30 630 H 57.4719 3.63747 -3.31586 0
M  V30 631 N 59.124 1.23083 0.984299 0
M  V30 632 C 60.37 1.06214 1.72761 0
M  V30 633 C 60.703 -0.400584 1.90024 0
M  V30 634 O 59.978 -1.29672 1.44967 0
M  V30 635 C 60.261 1.78375 3.12817 0
M  V30 636 C 60.114 3.32296 3.03149 0
M  V30 637 C 61.433 1.54309 4.12161 0
M  V30 638 H 58.552 0.387251 0.627061 0
M  V30 639 H 61.194 1.51536 1.14616 0
M  V30 640 H 59.344 1.39848 3.62457 0
M  V30 641 H 61.016 3.8032 2.61064 0
M  V30 642 H 59.259 3.6153 2.39747 0
M  V30 643 H 59.93 3.77972 4.02295 0
M  V30 644 H 62.406 1.87791 3.71314 0
M  V30 645 H 61.282 2.07281 5.08258 0
M  V30 646 H 61.543 0.477572 4.39513 0
M  V30 647 N 60.6021 -1.18246 1.0419 0
M  V30 648 C 61.5121 -2.25574 0.644476 0
M  V30 649 C 62.5281 -1.70845 -0.329826 0
M  V30 650 O 63.7041 -2.00554 -0.184443 0
M  V30 651 C 60.7691 -3.46697 0.014877 0
M  V30 652 C 59.8301 -4.16554 1.03834 0
M  V30 653 C 59.0631 -5.31894 0.438692 0
M  V30 654 O 59.2861 -5.65385 -0.754752 0
M  V30 655 O 58.2201 -5.90459 1.168 0
M  V30 656 H 62.0461 -2.61836 1.53869 0
M  V30 657 H 59.6311 -1.25352 0.812854 0
M  V30 658 H 61.5131 -4.20062 -0.335538 0
M  V30 659 H 60.1881 -3.12255 -0.853138 0
M  V30 660 H 59.0951 -3.45251 1.44057 0
M  V30 661 H 60.4281 -4.54998 1.87716 0
M  V30 662 N 62.0802 -0.821533 -1.34494 0
M  V30 663 C 62.9902 -0.244355 -2.33324 0
M  V30 664 C 64.0062 0.620527 -1.62559 0
M  V30 665 O 65.1822 0.528754 -1.94335 0
M  V30 666 C 62.2472 0.585368 -3.41723 0
M  V30 667 C 61.3082 -0.301752 -4.28238 0
M  V30 668 C 60.5412 0.488466 -5.3146 0
M  V30 669 O 60.7642 1.72186 -5.4379 0
M  V30 670 O 59.6982 -0.12848 -6.01763 0
M  V30 671 H 63.5242 -1.06231 -2.84515 0
M  V30 672 H 61.1092 -0.583645 -1.37528 0
M  V30 673 H 62.9912 1.05747 -4.07916 0
M  V30 674 H 61.6662 1.38068 -2.92778 0
M  V30 675 H 60.5732 -0.821315 -3.64973 0
M  V30 676 H 61.9062 -1.06138 -4.8062 0
M  V30 677 N 63.5583 1.46682 -0.576371 0
M  V30 678 C 64.5213 2.28707 0.150239 0
M  V30 679 C 65.5213 1.38035 0.824794 0
M  V30 680 O 66.7113 1.60476 0.677719 0
M  V30 681 C 63.8433 3.18248 1.22192 0
M  V30 682 H 65.0363 2.94423 -0.570521 0
M  V30 683 H 62.5893 1.52688 -0.334078 0
M  V30 684 H 63.3243 2.57265 1.97447 0
M  V30 685 H 63.1093 3.85 0.742812 0
M  V30 686 H 64.5993 3.80001 1.73172 0
M  V30 687 N 65.0364 0.313813 1.54444 0
M  V30 688 C 66.4524 -0.0391619 1.59552 0
M  V30 689 C 66.6524 -1.51322 1.33056 0
M  V30 690 O 65.7084 -2.26782 1.11022 0
M  V30 691 C 67.0214 0.370302 2.98411 0
M  V30 692 C 68.5694 0.320139 3.11358 0
M  V30 693 C 69.0444 0.704617 4.52547 0
M  V30 694 N 70.5354 0.657645 4.58508 0
M  V30 695 C 71.2704 0.927453 5.6585 0
M  V30 696 N 70.7664 1.26389 6.81174 0
M  V30 697 N 72.5594 0.853662 5.5558 0
M  V30 698 H 64.7104 1.27433 1.69925 0
M  V30 699 H 66.9734 0.517511 0.794284 0
M  V30 700 H 66.6794 1.39694 3.22767 0
M  V30 701 H 66.5534 -0.269619 3.76235 0
M  V30 702 H 68.9404 -0.697275 2.86744 0
M  V30 703 H 69.0214 0.99486 2.35661 0
M  V30 704 H 68.6654 1.7199 4.77893 0
M  V30 705 H 68.5954 0.00768843 5.26599 0
M  V30 706 H 71.0864 0.409067 3.75679 0
M  V30 707 H 71.3994 1.4554 7.58972 0
M  V30 708 H 69.7444 1.30206 6.82694 0
M  V30 709 H 72.9354 0.590383 4.64362 0
M  V30 710 H 73.1084 1.0673 6.3915 0
M  V30 711 N 66.5145 -1.57545 0.0417849 0
M  V30 712 C 67.4245 -2.14451 -0.951213 0
M  V30 713 C 68.4405 -1.09992 -1.34825 0
M  V30 714 O 69.6165 -1.42114 -1.42708 0
M  V30 715 C 66.6815 -2.67063 -2.21084 0
M  V30 716 C 65.7425 -3.86284 -1.87304 0
M  V30 717 C 64.9755 -4.36378 -3.07261 0
M  V30 718 O 65.1985 -3.85587 -4.20332 0
M  V30 719 O 64.1325 -5.28077 -2.88822 0
M  V30 720 H 67.9585 -2.99601 -0.497287 0
M  V30 721 H 65.5435 -1.48317 -0.179567 0
M  V30 722 H 67.4255 -3.00914 -2.95006 0
M  V30 723 H 66.1005 -1.84989 -2.65633 0
M  V30 724 H 65.0075 -3.57338 -1.10727 0
M  V30 725 H 66.3405 -4.6956 -1.47562 0
M  V30 726 N 67.9926 0.231505 -1.5589 0
M  V30 727 C 68.9396 1.28682 -1.91598 0
M  V30 728 C 69.9096 1.47071 -0.771974 0
M  V30 729 O 71.0946 1.60802 -1.027 0
M  V30 730 C 68.2346 2.6342 -2.22944 0
M  V30 731 C 67.3476 2.52912 -3.50228 0
M  V30 732 C 66.4826 3.80106 -3.7107 0
M  V30 733 C 65.5216 3.64279 -4.91902 0
M  V30 734 N 64.6586 4.834 -5.09184 0
M  V30 735 H 69.4986 0.975305 -2.81588 0
M  V30 736 H 67.0356 0.470299 -1.39379 0
M  V30 737 H 68.9936 3.41869 -2.39126 0
M  V30 738 H 67.6236 2.92687 -1.36139 0
M  V30 739 H 66.6756 1.6595 -3.42294 0
M  V30 740 H 67.9876 2.37133 -4.38827 0
M  V30 741 H 67.1416 4.66999 -3.87295 0
M  V30 742 H 65.8806 3.98799 -2.80733 0
M  V30 743 H 64.8856 2.7577 -4.75637 0
M  V30 744 H 66.1106 3.47067 -5.83714 0
M  V30 745 H 64.0566 5.02425 -4.21788 0
M  V30 746 H 63.9736 4.70311 -5.91898 0
M  V30 747 H 65.2416 5.71747 -5.29835 0
M  V30 748 N 69.4707 1.49531 0.497807 0
M  V30 749 C 70.4337 1.65916 1.58128 0
M  V30 750 C 71.4337 0.530825 1.51786 0
M  V30 751 O 72.6237 0.797342 1.54881 0
M  V30 752 C 69.7557 1.65951 2.9778 0
M  V30 753 H 70.9487 2.62556 1.44929 0
M  V30 754 H 68.5017 1.38611 0.722275 0
M  V30 755 H 69.2367 0.709065 3.16453 0
M  V30 756 H 69.0217 2.47897 3.03792 0
M  V30 757 H 70.5117 1.80673 3.76493 0
M  V30 758 N 70.9488 -0.749086 1.3866 0
M  V30 759 C 71.8788 -1.8764 1.38973 0
M  V30 760 C 72.8598 -1.68178 0.255004 0
M  V30 761 O 74.0448 -1.88704 0.458754 0
M  V30 762 C 71.1748 -3.25222 1.21851 0
M  V30 763 C 70.1288 -3.59295 2.32575 0
M  V30 764 C 69.4548 -4.95663 2.00555 0
M  V30 765 C 70.7548 -3.63709 3.7485 0
M  V30 766 H 72.4488 -1.87635 2.3331 0
M  V30 767 H 69.9948 -0.901329 1.12303 0
M  V30 768 H 71.9478 -4.03746 1.20695 0
M  V30 769 H 70.6718 -3.25719 0.239775 0
M  V30 770 H 69.3308 -2.83093 2.32925 0
M  V30 771 H 68.9788 -4.92724 1.01154 0
M  V30 772 H 68.6788 -5.19429 2.74714 0
M  V30 773 H 70.2028 -5.7656 2.01024 0
M  V30 774 H 71.6168 -4.32338 3.76506 0
M  V30 775 H 70.0138 -3.98986 4.48252 0
M  V30 776 H 71.0838 -2.63834 4.06841 0
M  V30 777 N 72.4269 -1.23603 -0.977757 0
M  V30 778 C 73.8429 -0.999251 -1.24447 0
M  V30 779 C 74.0429 0.298053 -1.99283 0
M  V30 780 O 73.0989 1.01681 -2.31122 0
M  V30 781 C 74.4119 -2.20784 -2.04144 0
M  V30 782 C 75.9599 -2.25303 -2.17273 0
M  V30 783 C 76.4349 -3.45755 -3.00362 0
M  V30 784 N 77.9259 -3.4601 -3.07947 0
M  V30 785 C 78.6609 -4.35868 -3.72568 0
M  V30 786 N 78.1569 -5.35966 -4.38991 0
M  V30 787 N 79.9499 -4.23605 -3.6948 0
M  V30 788 H 72.1009 -2.06986 -0.476483 0
M  V30 789 H 74.3639 -0.907801 -0.273134 0
M  V30 790 H 74.0699 -3.14945 -1.56533 0
M  V30 791 H 73.9439 -2.22085 -3.04891 0
M  V30 792 H 76.3309 -1.3168 -2.64092 0
M  V30 793 H 76.4119 -2.28033 -1.15907 0
M  V30 794 H 76.0559 -4.39687 -2.5424 0
M  V30 795 H 75.9859 -3.40266 -4.01904 0
M  V30 796 H 78.4769 -2.73588 -2.60688 0
M  V30 797 H 78.7899 -6.00783 -4.86086 0
M  V30 798 H 77.1349 -5.39863 -4.37691 0
M  V30 799 H 80.3259 -3.44647 -3.16759 0
M  V30 800 H 80.4989 -4.93836 -4.1956 0
M  V30 801 N 73.905 1.17692 -1.04816 0
M  V30 802 C 75.133 1.91786 -0.776254 0
M  V30 803 C 75.548 1.76604 0.667577 0
M  V30 804 O 74.905 1.10067 1.45573 0
M  V30 805 C 74.956 3.42967 -1.14263 0
M  V30 806 O 74.677 3.57678 -2.52978 0
M  V30 807 C 76.178 4.34144 -0.896311 0
M  V30 808 H 73.398 0.608624 -0.282519 0
M  V30 809 H 75.942 1.49268 -1.39783 0
M  V30 810 H 74.097 3.83245 -0.565874 0
M  V30 811 H 74.511 4.51319 -2.67229 0
M  V30 812 H 75.985 5.38744 -1.20244 0
M  V30 813 H 76.462 4.38876 0.168636 0
M  V30 814 H 77.068 3.99574 -1.45672 0
M  V30 815 N 75.3831 0.828654 1.34056 0
M  V30 816 C 76.6311 0.41863 1.97717 0
M  V30 817 C 76.9521 -1.02314 1.66002 0
M  V30 818 O 76.2221 -1.71119 0.953683 0
M  V30 819 H 74.8021 0.151809 0.731412 0
M  V30 820 H 77.4641 1.05936 1.63596 0
M  V30 821 H 76.5601 0.542318 3.07352 0
M  V30 822 N 76.8612 -1.46375 0.584142 0
M  V30 823 C 77.8242 -2.28784 -0.138108 0
M  V30 824 C 78.8242 -1.38471 -0.817462 0
M  V30 825 O 80.0142 -1.60833 -0.669199 0
M  V30 826 C 77.1462 -3.18892 -1.20503 0
M  V30 827 H 78.3392 -2.94117 0.586127 0
M  V30 828 H 75.8922 -1.52509 0.342171 0
M  V30 829 H 76.6272 -2.58309 -1.96079 0
M  V30 830 H 76.4122 -3.85388 -0.722384 0
M  V30 831 H 77.9022 -3.80914 -1.71155 0
M  V30 832 N 78.3393 -0.321999 -1.54275 0
M  V30 833 C 79.5643 0.285791 -2.05422 0
M  V30 834 C 79.9893 1.45124 -1.19669 0
M  V30 835 O 79.3473 1.80132 -0.205441 0
M  V30 836 C 79.3953 0.69956 -3.53749 0
M  V30 837 O 78.4993 1.8021 -3.70942 0
M  V30 838 H 77.8403 0.0518962 -0.661969 0
M  V30 839 H 80.3703 -0.469954 -1.9913 0
M  V30 840 H 80.3803 0.982649 -3.9599 0
M  V30 841 H 79.0553 -0.152864 -4.15619 0
M  V30 842 H 77.6323 1.51794 -3.40607 0
M  V30 843 N 79.8174 1.5752 -0.0501392 0
M  V30 844 C 80.7644 2.1147 0.924603 0
M  V30 845 C 81.7344 1.02182 1.30951 0
M  V30 846 O 82.9194 1.29723 1.39916 0
M  V30 847 C 80.0594 2.66337 2.19451 0
M  V30 848 C 79.1724 3.89708 1.86418 0
M  V30 849 C 78.3074 4.32893 3.07859 0
M  V30 850 C 77.3464 5.48967 2.70742 0
M  V30 851 N 76.4834 5.87211 3.84874 0
M  V30 852 H 81.3234 2.94465 0.457639 0
M  V30 853 H 78.8604 1.45531 0.214266 0
M  V30 854 H 80.8184 2.96247 2.93758 0
M  V30 855 H 79.4484 1.86141 2.63726 0
M  V30 856 H 78.5004 3.66396 1.02264 0
M  V30 857 H 79.8124 4.74074 1.55096 0
M  V30 858 H 78.9664 4.6435 3.90466 0
M  V30 859 H 77.7054 3.47336 3.42358 0
M  V30 860 H 76.7104 5.17183 1.86551 0
M  V30 861 H 77.9354 6.3624 2.37436 0
M  V30 862 H 75.8814 5.04607 4.19175 0
M  V30 863 H 75.7984 6.66266 3.57247 0
M  V30 864 H 77.0664 6.23282 4.68123 0
M  V30 865 N 81.2955 -0.223234 1.56011 0
M  V30 866 C 82.2585 -1.26014 1.9145 0
M  V30 867 C 83.2585 -1.3989 0.792937 0
M  V30 868 O 84.4485 -1.38184 1.0607 0
M  V30 869 C 81.5805 -2.63422 2.16383 0
M  V30 870 H 82.7735 -0.95796 2.84189 0
M  V30 871 H 80.3265 -0.463576 1.49267 0
M  V30 872 H 81.0615 -2.98741 1.2619 0
M  V30 873 H 80.8465 -2.54728 2.98088 0
M  V30 874 H 82.3365 -3.38249 2.44903 0
M  V30 875 N 82.7736 -1.49793 -0.48987 0
M  V30 876 C 84.0226 -1.59085 -1.23995 0
M  V30 877 C 84.3356 -0.287907 -1.9347 0
M  V30 878 O 85.5416 -0.259506 -2.70257 0
M  V30 879 C 83.9976 -2.80736 -2.252 0
M  V30 880 C 83.6056 -4.17833 -1.61614 0
M  V30 881 C 85.3496 -2.99364 -3.00967 0
M  V30 882 C 83.2566 -5.30693 -2.60996 0
M  V30 883 H 82.1866 -0.592372 -0.466488 0
M  V30 884 H 84.8376 -1.76197 -0.51252 0
M  V30 885 H 83.2196 -2.57142 -3.01154 0
M  V30 886 H 84.3936 -4.51608 -0.915774 0
M  V30 887 H 82.7086 -4.04656 -0.981977 0
M  V30 888 H 85.3056 -3.80851 -3.75308 0
M  V30 889 H 85.6486 -2.10356 -3.59244 0
M  V30 890 H 86.1816 -3.2305 -2.32128 0
M  V30 891 H 82.9206 -6.21796 -2.07485 0
M  V30 892 H 82.4406 -5.01359 -3.2924 0
M  V30 893 H 84.1196 -5.6049 -3.23202 0
M  V30 894 N 84.2517 0.741722 -1.39055 0
M  V30 895 C 85.2147 1.83733 -1.37021 0
M  V30 896 C 86.2147 1.58542 -0.268534 0
M  V30 897 O 87.4047 1.66067 -0.526076 0
M  V30 898 C 84.5367 3.2141 -1.13617 0
M  V30 899 H 85.7297 1.86941 -2.34506 0
M  V30 900 H 83.2827 0.944676 -1.24521 0
M  V30 901 H 84.0177 3.23865 -0.167863 0
M  V30 902 H 83.8027 3.4109 -1.93391 0
M  V30 903 H 85.2927 4.01477 -1.14918 0
M  V30 904 N 85.7298 1.2412 0.971189 0
M  V30 905 C 86.6598 1.05508 2.08304 0
M  V30 906 C 87.6408 -0.0308864 1.70072 0
M  V30 907 O 88.8258 0.135521 1.93727 0
M  V30 908 C 85.9558 0.655365 3.4106 0
M  V30 909 C 84.9098 1.68971 3.93234 0
M  V30 910 C 84.2358 1.14516 5.22293 0
M  V30 911 C 85.5358 3.08487 4.21465 0
M  V30 912 H 87.2298 1.98507 2.24132 0
M  V30 913 H 84.7758 0.955821 1.07704 0
M  V30 914 H 86.7288 0.51217 4.18276 0
M  V30 915 H 85.4528 -0.31032 3.25122 0
M  V30 916 H 84.1118 1.82106 3.18171 0
M  V30 917 H 83.7598 0.170189 5.02712 0
M  V30 918 H 83.4598 1.83635 5.58168 0
M  V30 919 H 84.9838 1.01401 6.02121 0
M  V30 920 H 86.3978 2.98601 4.89398 0
M  V30 921 H 84.7948 3.74926 4.68562 0
M  V30 922 H 85.8648 3.56787 3.28376 0
M  V30 923 N 87.2079 -1.17134 1.05439 0
M  V30 924 C 88.4849 -1.83411 0.679699 0
M  V30 925 C 88.8649 -1.9368 -0.839726 0
M  V30 926 O 88.2129 -1.47325 -1.74664 0
M  V30 927 C 88.4229 -3.20918 1.37159 0
M  V30 928 C 89.7709 -3.96796 1.51123 0
M  V30 929 O 90.7949 -3.30406 1.3308 0
M  V30 930 O 89.6539 -5.15778 1.80651 0
M  V30 931 H 86.7479 -0.79154 0.239569 0
M  V30 932 H 89.2939 -1.24411 1.15413 0
M  V30 933 H 88.0659 -3.08428 2.40807 0
M  V30 934 H 87.6889 -3.87587 0.886674 0
M  V30 935 N 88.686 -0.835752 -1.33615 0
M  V30 936 C 89.616 -0.281739 -2.31794 0
M  V30 937 C 90.597 0.608833 -1.58831 0
M  V30 938 O 91.782 0.533035 -1.86741 0
M  V30 939 C 88.912 0.546612 -3.42971 0
M  V30 940 C 87.866 -0.247904 -4.27281 0
M  V30 941 C 87.192 0.704001 -5.30045 0
M  V30 942 C 88.492 -1.46324 -5.01385 0
M  V30 943 H 90.186 -1.10206 -2.78379 0
M  V30 944 H 87.732 -0.531388 -1.33837 0
M  V30 945 H 89.685 0.944467 -4.1068 0
M  V30 946 H 88.409 1.40011 -2.95067 0
M  V30 947 H 87.068 -0.627281 -3.61194 0
M  V30 948 H 86.716 1.55381 -4.78399 0
M  V30 949 H 86.416 0.176524 -5.87335 0
M  V30 950 H 87.94 1.09944 -6.0062 0
M  V30 951 H 89.354 -1.13871 -5.61877 0
M  V30 952 H 87.751 -1.92728 -5.6831 0
M  V30 953 H 88.821 -2.23467 -4.30338 0
M  V30 954 N 90.1641 1.46063 -0.591896 0
M  V30 955 C 91.1111 2.30399 0.136069 0
M  V30 956 C 92.0811 1.41169 0.875238 0
M  V30 957 O 93.2661 1.70112 0.86409 0
M  V30 958 C 90.4061 3.25804 1.13781 0
M  V30 959 C 89.5191 4.30134 0.401137 0
M  V30 960 C 88.6541 5.12659 1.39121 0
M  V30 961 C 87.6931 6.0873 0.641462 0
M  V30 962 N 86.8301 6.8409 1.58004 0
M  V30 963 H 91.6701 2.92118 -0.589144 0
M  V30 964 H 89.2071 1.43959 -0.302342 0
M  V30 965 H 91.1651 3.79569 1.73156 0
M  V30 966 H 89.7951 2.65872 1.83062 0
M  V30 967 H 88.8471 3.79152 -0.307826 0
M  V30 968 H 90.1591 4.98458 -0.184565 0
M  V30 969 H 89.3131 5.70747 2.05749 0
M  V30 970 H 88.0521 4.44316 2.01084 0
M  V30 971 H 87.0571 5.49786 -0.0385419 0
M  V30 972 H 88.2821 6.79095 0.0270945 0
M  V30 973 H 86.2281 6.18449 2.18761 0
M  V30 974 H 86.1451 7.48709 1.04738 0
M  V30 975 H 87.4131 7.4673 2.23639 0
M  V30 976 N 91.6422 0.330177 1.54103 0
M  V30 977 C 92.5522 -0.541534 2.28264 0
M  V30 978 C 93.5682 -1.12351 1.32866 0
M  V30 979 O 94.7442 -1.14206 1.65888 0
M  V30 980 C 91.8092 -1.68322 3.03098 0
M  V30 981 C 90.8702 -1.13238 4.14096 0
M  V30 982 C 90.1032 -2.21966 4.85352 0
M  V30 983 O 90.3262 -3.42437 4.56172 0
M  V30 984 O 89.2602 -1.87013 5.7211 0
M  V30 985 H 93.0862 0.060938 3.03639 0
M  V30 986 H 90.6712 0.09565 1.49093 0
M  V30 987 H 92.5532 -2.34777 3.49939 0
M  V30 988 H 91.2282 -2.27176 2.30593 0
M  V30 989 H 90.1352 -0.432736 3.71589 0
M  V30 990 H 91.4682 -0.588898 4.88664 0
M  V30 991 N 93.1203 -1.57491 0.0584922 0
M  V30 992 C 94.0303 -2.15448 -0.928414 0
M  V30 993 C 95.0463 -1.11416 -1.3365 0
M  V30 994 O 96.2223 -1.4362 -1.41193 0
M  V30 995 C 93.2873 -2.69393 -2.18239 0
M  V30 996 C 92.3483 -3.88249 -1.83196 0
M  V30 997 C 91.5813 -4.39613 -3.02616 0
M  V30 998 O 91.8043 -3.90023 -4.16219 0
M  V30 999 O 90.7383 -5.31111 -2.83204 0
M  V30 1000 H 94.5643 -3.00112 -0.465483 0
M  V30 1001 H 92.1493 -1.48499 -0.163826 0
M  V30 1002 H 94.0313 -3.04026 -2.91798 0
M  V30 1003 H 92.7063 -1.87796 -2.63656 0
M  V30 1004 H 91.6133 -3.58492 -1.06931 0
M  V30 1005 H 92.9463 -4.71098 -1.42573 0
M  V30 1006 N 94.5984 0.214957 -1.56127 0
M  V30 1007 C 95.8454 0.938372 -1.79446 0
M  V30 1008 C 96.1734 1.8407 -0.628378 0
M  V30 1009 O 95.4284 1.91837 0.386925 0
M  V30 1010 C 95.7274 1.80314 -3.0858 0
M  V30 1011 C 95.3934 1.05349 -4.3842 0
M  V30 1012 C 94.0554 0.846435 -4.73697 0
M  V30 1013 C 96.4074 0.524588 -5.18553 0
M  V30 1014 C 93.7354 0.098683 -5.86617 0
M  V30 1015 C 96.0874 -0.209853 -6.32252 0
M  V30 1016 C 94.7514 -0.428102 -6.66126 0
M  V30 1017 H 94.0214 0.343375 -0.656639 0
M  V30 1018 H 96.6684 0.206077 -1.90388 0
M  V30 1019 H 94.9734 2.6035 -2.92789 0
M  V30 1020 H 96.6704 2.36513 -3.23825 0
M  V30 1021 H 93.2604 1.22486 -4.10725 0
M  V30 1022 H 97.4444 0.672008 -4.91729 0
M  V30 1023 H 92.7004 -0.0805753 -6.11347 0
M  V30 1024 H 96.8744 -0.627157 -6.9357 0
M  V30 1025 H 94.5014 -1.00944 -7.53468 0
M  V30 1026 N 96.0765 1.50051 0.48192 0
M  V30 1027 C 97.3225 1.60736 1.2366 0
M  V30 1028 C 97.6555 0.301786 1.91841 0
M  V30 1029 O 96.9305 -0.696025 1.8162 0
M  V30 1030 C 97.2135 2.78009 2.28874 0
M  V30 1031 C 97.0665 4.18416 1.65069 0
M  V30 1032 C 98.3855 2.90867 3.30279 0
M  V30 1033 H 95.5045 0.585031 0.448228 0
M  V30 1034 H 98.1465 1.82402 0.531946 0
M  V30 1035 H 96.2965 2.59667 2.88973 0
M  V30 1036 H 97.9685 4.48322 1.0865 0
M  V30 1037 H 96.2115 4.23177 0.954148 0
M  V30 1038 H 96.8825 4.96381 2.41474 0
M  V30 1039 H 99.3585 3.07623 2.80191 0
M  V30 1040 H 98.2345 3.74566 4.01238 0
M  V30 1041 H 98.4955 2.01021 3.93755 0
M  V30 1042 N 97.5546 -0.734337 1.39446 0
M  V30 1043 C 98.9706 -1.03997 1.21065 0
M  V30 1044 C 99.1706 -2.01369 0.0727019 0
M  V30 1045 O 98.2266 -2.45856 -0.575426 0
M  V30 1046 C 99.5396 -1.60163 2.54496 0
M  V30 1047 C 101.088 -1.7224 2.61347 0
M  V30 1048 C 101.563 -2.31814 3.95002 0
M  V30 1049 N 103.054 -2.39223 3.96644 0
M  V30 1050 C 103.789 -2.86258 4.96834 0
M  V30 1051 N 103.285 -3.33184 6.07421 0
M  V30 1052 N 105.078 -2.85473 4.84213 0
M  V30 1053 H 97.2286 -0.0885624 2.12215 0
M  V30 1054 H 99.4916 -0.10191 0.942506 0
M  V30 1055 H 99.1976 -0.960811 3.38321 0
M  V30 1056 H 99.0716 -2.5896 2.74262 0
M  V30 1057 H 101.459 -2.35443 1.77906 0
M  V30 1058 H 101.54 -0.720939 2.4543 0
M  V30 1059 H 101.184 -1.69238 4.78875 0
M  V30 1060 H 101.114 -3.32638 4.08239 0
M  V30 1061 H 103.605 -2.06057 3.16779 0
M  V30 1062 H 103.918 -3.67586 6.7978 0
M  V30 1063 H 102.263 -3.31191 6.11013 0
M  V30 1064 H 105.454 -2.48136 3.96921 0
M  V30 1065 H 105.627 -3.21814 5.62441 0
M  V30 1066 N 99.0327 -1.24633 -0.964593 0
M  V30 1067 C 100.31 -0.995809 -1.68354 0
M  V30 1068 C 100.69 0.480964 -2.05548 0
M  V30 1069 O 100.038 1.45599 -1.76105 0
M  V30 1070 C 100.248 -1.92177 -2.91323 0
M  V30 1071 C 101.596 -2.19446 -3.63495 0
M  V30 1072 O 102.62 -1.89855 -3.01386 0
M  V30 1073 O 101.479 -2.69714 -4.75307 0
M  V30 1074 H 98.5727 -0.376854 -0.736146 0
M  V30 1075 H 101.119 -1.35745 -1.0184 0
M  V30 1076 H 99.8907 -2.91938 -2.60553 0
M  V30 1077 H 99.5137 -1.56349 -3.65569 0
M  V30 1078 N 100.511 1.16574 -1.06058 0
M  V30 1079 C 101.758 1.87047 -0.775873 0
M  V30 1080 C 102.086 1.81562 0.697534 0
M  V30 1081 O 101.341 1.22445 1.52662 0
M  V30 1082 C 101.64 3.36195 -1.21275 0
M  V30 1083 C 101.306 3.6188 -2.68986 0
M  V30 1084 C 99.9678 3.68599 -3.09335 0
M  V30 1085 C 102.32 3.72648 -3.64394 0
M  V30 1086 C 99.6478 3.83584 -4.43937 0
M  V30 1087 C 102 3.89154 -4.98741 0
M  V30 1088 C 100.664 3.94114 -5.3873 0
M  V30 1089 H 99.9338 0.684452 -0.283912 0
M  V30 1090 H 102.581 1.37853 -1.32925 0
M  V30 1091 H 100.886 3.87505 -0.578528 0
M  V30 1092 H 102.583 3.89103 -0.969542 0
M  V30 1093 H 99.1728 3.57281 -2.36744 0
M  V30 1094 H 103.357 3.66769 -3.34356 0
M  V30 1095 H 98.6128 3.85677 -4.74409 0
M  V30 1096 H 102.787 3.96427 -5.72554 0
M  V30 1097 H 100.414 4.05478 -6.43033 0
M  V30 1098 N 101.989 0.842826 1.3317 0
M  V30 1099 C 103.235 0.441099 1.97945 0
M  V30 1100 C 103.568 -0.998024 1.66593 0
M  V30 1101 O 102.843 -1.69839 0.947898 0
M  V30 1102 C 103.126 0.666841 3.53872 0
M  V30 1103 C 102.979 2.15352 3.94897 0
M  V30 1104 C 104.298 0.115544 4.39948 0
M  V30 1105 H 101.417 0.161739 0.719034 0
M  V30 1106 H 104.059 1.05907 1.57746 0
M  V30 1107 H 102.209 0.140828 3.88245 0
M  V30 1108 H 103.881 2.7447 3.70761 0
M  V30 1109 H 102.124 2.63653 3.44484 0
M  V30 1110 H 102.795 2.26221 5.03516 0
M  V30 1111 H 105.271 0.565213 4.12243 0
M  V30 1112 H 104.147 0.303152 5.48062 0
M  V30 1113 H 104.408 -0.980935 4.3108 0
M  V30 1114 N 103.467 -1.45747 0.599634 0
M  V30 1115 C 104.714 -2.02292 0.0917284 0
M  V30 1116 C 105.042 -1.46906 -1.27472 0
M  V30 1117 O 104.297 -0.630652 -1.8526 0
M  V30 1118 C 104.596 -3.57399 -0.00602758 0
M  V30 1119 C 104.262 -4.31902 1.29503 0
M  V30 1120 C 102.924 -4.51974 1.65144 0
M  V30 1121 C 105.276 -4.74551 2.15525 0
M  V30 1122 C 102.604 -5.11949 2.86574 0
M  V30 1123 C 104.956 -5.35868 3.36196 0
M  V30 1124 C 103.62 -5.54165 3.72099 0
M  V30 1125 H 102.89 -0.740239 0.0335658 0
M  V30 1126 H 105.537 -1.7491 0.779661 0
M  V30 1127 H 103.842 -3.84014 -0.777183 0
M  V30 1128 H 105.539 -3.98846 -0.415038 0
M  V30 1129 H 102.129 -4.16588 1.00761 0
M  V30 1130 H 106.313 -4.58784 1.8929 0
M  V30 1131 H 101.569 -5.24305 3.14507 0
M  V30 1132 H 105.743 -5.6787 4.03109 0
M  V30 1133 H 103.37 -6.00406 4.6628 0
M  V30 1134 N 104.945 -0.338344 -1.53925 0
M  V30 1135 C 106.356 0.146651 -1.86123 0
M  V30 1136 C 106.707 1.5042 -1.2597 0
M  V30 1137 O 105.832 2.08723 -0.571294 0
M  V30 1138 C 106.427 0.272879 -3.37699 0
M  V30 1139 C 104.986 0.702103 -3.69794 0
M  V30 1140 C 104.133 -0.167304 -2.76795 0
M  V30 1141 H 107.084 -0.558123 -1.48562 0
M  V30 1142 H 107.105 1.10128 -3.64214 0
M  V30 1143 H 106.617 -0.715307 -3.81451 0
M  V30 1144 H 104.718 1.6995 -3.31584 0
M  V30 1145 H 104.831 0.495604 -4.7653 0
M  V30 1146 H 103.195 0.359527 -2.5215 0
M  V30 1147 H 103.978 -1.15253 -3.23375 0
M  V30 1148 N 106.423 1.57458 -0.0668435 0
M  V30 1149 C 107.356 2.08033 0.93795 0
M  V30 1150 C 108.334 0.984321 1.29421 0
M  V30 1151 O 109.518 1.25736 1.40437 0
M  V30 1152 C 106.645 2.53388 2.24749 0
M  V30 1153 C 105.691 3.74376 2.04315 0
M  V30 1154 S 106.524 5.19303 1.30706 0
M  V30 1155 C 107.68 5.67986 2.62951 0
M  V30 1156 H 107.913 2.92935 0.50759 0
M  V30 1157 H 105.446 1.5371 0.145804 0
M  V30 1158 H 107.404 2.8018 3.00016 0
M  V30 1159 H 106.065 1.68763 2.64911 0
M  V30 1160 H 105.258 4.04083 3.01218 0
M  V30 1161 H 104.86 3.47931 1.37186 0
M  V30 1162 H 107.152 5.74528 3.5906 0
M  V30 1163 H 108.095 6.66955 2.3786 0
M  V30 1164 H 108.503 4.95781 2.69929 0
M  V30 1165 N 107.901 -0.206675 1.56239 0
M  V30 1166 C 108.834 -1.28383 1.88661 0
M  V30 1167 C 109.812 -1.44504 0.745481 0
M  V30 1168 O 110.996 -1.60079 0.995336 0
M  V30 1169 C 108.123 -2.65211 2.10667 0
M  V30 1170 C 107.169 -2.66025 3.33366 0
M  V30 1171 S 108.002 -2.18609 4.88846 0
M  V30 1172 C 109.158 -3.57283 5.13906 0
M  V30 1173 H 109.391 -1.00691 2.7973 0
M  V30 1174 H 106.924 -0.409627 1.48867 0
M  V30 1175 H 108.882 -3.43979 2.24029 0
M  V30 1176 H 107.543 -2.90121 1.20369 0
M  V30 1177 H 106.736 -3.66607 3.45855 0
M  V30 1178 H 106.338 -1.95331 3.18938 0
M  V30 1179 H 108.63 -4.53074 5.03717 0
M  V30 1180 H 109.573 -3.49699 6.15724 0
M  V30 1181 H 109.981 -3.51659 4.41583 0
M  V30 1182 N 109.379 -1.50304 -0.473955 0
M  V30 1183 C 110.795 -1.37667 -0.807466 0
M  V30 1184 C 110.995 -0.430555 -1.96846 0
M  V30 1185 O 110.051 0.127874 -2.52176 0
M  V30 1186 C 111.364 -2.78974 -1.12223 0
M  V30 1187 C 112.912 -2.87868 -1.22885 0
M  V30 1188 C 113.387 -4.30003 -1.57676 0
M  V30 1189 N 114.878 -4.3294 -1.64673 0
M  V30 1190 C 115.613 -5.3991 -1.93091 0
M  V30 1191 N 115.109 -6.57092 -2.1955 0
M  V30 1192 N 116.902 -5.27351 -1.94569 0
M  V30 1193 H 109.053 -2.10394 0.291212 0
M  V30 1194 H 111.316 -0.945575 0.0677609 0
M  V30 1195 H 111.022 -3.50031 -0.342229 0
M  V30 1196 H 110.896 -3.16038 -2.05913 0
M  V30 1197 H 113.283 -2.17032 -1.99953 0
M  V30 1198 H 113.364 -2.54352 -0.271814 0
M  V30 1199 H 113.008 -5.01375 -0.81149 0
M  V30 1200 H 112.938 -4.61004 -2.54525 0
M  V30 1201 H 115.429 -3.48441 -1.46277 0
M  V30 1202 H 115.742 -7.34425 -2.405 0
M  V30 1203 H 114.087 -6.60272 -2.16948 0
M  V30 1204 H 117.278 -4.34801 -1.73394 0
M  V30 1205 H 117.451 -6.10805 -2.16381 0
M  V30 1206 N 110.857 0.726932 -1.39834 0
M  V30 1207 C 111.82 1.82269 -1.38962 0
M  V30 1208 C 112.82 1.58248 -0.285334 0
M  V30 1209 O 114.01 1.65499 -0.54366 0
M  V30 1210 C 111.142 3.20186 -1.17019 0
M  V30 1211 H 112.335 1.84443 -2.36476 0
M  V30 1212 H 109.888 0.931416 -1.25516 0
M  V30 1213 H 110.623 3.23669 -0.202204 0
M  V30 1214 H 110.408 3.3902 -1.96998 0
M  V30 1215 H 111.898 4.00235 -1.1917 0
M  V30 1216 N 112.336 1.25143 0.95797 0
M  V30 1217 C 113.584 1.09476 1.69881 0
M  V30 1218 C 113.905 -0.365502 1.91544 0
M  V30 1219 O 113.175 -1.25985 1.50015 0
M  V30 1220 H 111.755 0.402128 0.629525 0
M  V30 1221 H 114.417 1.57214 1.15194 0
M  V30 1222 H 113.513 1.60046 2.6794 0
M  V30 1223 N 113.814 -1.1601 1.06675 0
M  V30 1224 C 114.777 -2.18724 0.685001 0
M  V30 1225 C 115.777 -1.58496 -0.271246 0
M  V30 1226 O 116.967 -1.74119 -0.0531156 0
M  V30 1227 C 114.099 -3.40899 0.00853648 0
M  V30 1228 H 115.292 -2.54011 1.59431 0
M  V30 1229 H 112.845 -1.30352 0.862441 0
M  V30 1230 H 113.58 -3.11173 -0.913337 0
M  V30 1231 H 113.365 -3.8587 0.696204 0
M  V30 1232 H 114.855 -4.16886 -0.24414 0
M  V30 1233 N 115.292 -0.849877 -1.32721 0
M  V30 1234 C 116.538 -0.451591 -1.97708 0
M  V30 1235 C 116.871 0.989175 -1.6712 0
M  V30 1236 O 116.146 1.69334 -0.956891 0
M  V30 1237 C 116.429 -0.685598 -3.53513 0
M  V30 1238 C 116.282 -2.17444 -3.93749 0
M  V30 1239 C 117.601 -0.138874 -4.39881 0
M  V30 1240 H 114.72 -0.16555 -0.718166 0
M  V30 1241 H 117.362 -1.06742 -1.57182 0
M  V30 1242 H 115.512 -0.161416 -3.88165 0
M  V30 1243 H 117.184 -2.76433 -3.693 0
M  V30 1244 H 115.427 -2.65476 -3.43081 0
M  V30 1245 H 116.098 -2.28888 -5.02309 0
M  V30 1246 H 118.574 -0.587068 -4.11938 0
M  V30 1247 H 117.45 -0.332213 -5.47894 0
M  V30 1248 H 117.711 0.95806 -4.31594 0
M  V30 1249 N 116.77 1.45427 -0.607355 0
M  V30 1250 C 118 2.06314 -0.108656 0
M  V30 1251 C 118.408 1.45269 1.21217 0
M  V30 1252 O 117.751 0.561115 1.74921 0
M  V30 1253 C 117.813 3.59345 0.105618 0
M  V30 1254 C 117.477 4.42723 -1.13337 0
M  V30 1255 C 118.474 4.77715 -2.05145 0
M  V30 1256 C 116.159 4.83478 -1.36213 0
M  V30 1257 C 118.153 5.52317 -3.18158 0
M  V30 1258 C 115.84 5.57835 -2.49527 0
M  V30 1259 C 116.838 5.92171 -3.40327 0
M  V30 1260 O 116.526 6.65019 -4.51669 0
M  V30 1261 H 116.258 0.672782 -0.0658842 0
M  V30 1262 H 118.812 1.87664 -0.834945 0
M  V30 1263 H 117.042 3.76394 0.886796 0
M  V30 1264 H 118.731 4.02076 0.555886 0
M  V30 1265 H 119.497 4.46787 -1.88697 0
M  V30 1266 H 115.376 4.56188 -0.664362 0
M  V30 1267 H 118.92 5.79036 -3.89054 0
M  V30 1268 H 114.817 5.88177 -2.65928 0
M  V30 1269 H 115.585 6.83469 -4.50348 0
M  V30 1270 N 118.248 0.346503 1.53744 0
M  V30 1271 C 119.158 -0.517293 2.28826 0
M  V30 1272 C 120.174 -1.10935 1.3405 0
M  V30 1273 O 121.35 -1.1244 1.6709 0
M  V30 1274 C 118.415 -1.65098 3.04866 0
M  V30 1275 C 117.476 -1.0884 4.15274 0
M  V30 1276 C 116.709 -2.16806 4.87679 0
M  V30 1277 O 116.932 -3.3758 4.59778 0
M  V30 1278 O 115.866 -1.80934 5.74061 0
M  V30 1279 H 119.692 0.0931396 3.03557 0
M  V30 1280 H 117.277 0.111458 1.48984 0
M  V30 1281 H 119.159 -2.31053 3.5241 0
M  V30 1282 H 117.834 -2.24717 2.32989 0
M  V30 1283 H 116.741 -0.3933 3.72027 0
M  V30 1284 H 118.074 -0.537036 4.89261 0
M  V30 1285 N 119.726 -1.57421 0.075193 0
M  V30 1286 C 120.974 -1.93236 -0.591974 0
M  V30 1287 C 121.295 -0.956241 -1.69944 0
M  V30 1288 O 120.565 -0.00494792 -1.95899 0
M  V30 1289 H 119.145 -0.713355 -0.22166 0
M  V30 1290 H 121.807 -1.9444 0.133848 0
M  V30 1291 H 120.903 -2.95131 -1.01509 0
M  V30 1292 N 121.204 0.198386 -1.56346 0
M  V30 1293 C 122.434 0.934215 -1.84271 0
M  V30 1294 C 122.842 1.77496 -0.655125 0
M  V30 1295 O 122.185 1.7961 0.385488 0
M  V30 1296 C 122.247 1.88278 -3.06254 0
M  V30 1297 C 121.911 1.22431 -4.40295 0
M  V30 1298 C 122.908 0.602839 -5.16393 0
M  V30 1299 C 120.593 1.22915 -4.87029 0
M  V30 1300 C 122.587 -0.0050083 -6.374 0
M  V30 1301 C 120.274 0.617465 -6.07973 0
M  V30 1302 C 121.272 0.00146341 -6.83 0
M  V30 1303 O 120.96 -0.600642 -8.01653 0
M  V30 1304 H 120.692 0.278245 -0.616081 0
M  V30 1305 H 123.246 0.211626 -2.04307 0
M  V30 1306 H 121.476 2.64498 -2.82095 0
M  V30 1307 H 123.165 2.48612 -3.20853 0
M  V30 1308 H 123.931 0.591265 -4.81382 0
M  V30 1309 H 119.81 1.69801 -4.28589 0
M  V30 1310 H 123.354 -0.48643 -6.95902 0
M  V30 1311 H 119.251 0.62653 -6.42452 0
M  V30 1312 H 120.019 -0.497225 -8.16988 0
M  V30 1313 N 122.682 1.50554 0.465978 0
M  V30 1314 C 123.912 1.65323 1.23903 0
M  V30 1315 C 124.32 0.338051 1.86155 0
M  V30 1316 O 123.663 -0.690518 1.70228 0
M  V30 1317 C 123.725 2.69048 2.3844 0
M  V30 1318 C 123.389 4.12462 1.96784 0
M  V30 1319 C 124.386 4.98168 1.48745 0
M  V30 1320 C 122.071 4.58407 2.05349 0
M  V30 1321 C 124.065 6.27868 1.0982 0
M  V30 1322 C 121.752 5.88112 1.66035 0
M  V30 1323 C 122.75 6.72668 1.18349 0
M  V30 1324 O 122.438 7.99951 0.795825 0
M  V30 1325 H 122.17 0.558629 0.38067 0
M  V30 1326 H 124.724 1.97561 0.562022 0
M  V30 1327 H 122.954 2.32062 3.09328 0
M  V30 1328 H 124.643 2.72985 3.0039 0
M  V30 1329 H 125.409 4.63885 1.41546 0
M  V30 1330 H 121.288 3.92735 2.41414 0
M  V30 1331 H 124.832 6.93819 0.725293 0
M  V30 1332 H 120.729 6.21914 1.72895 0
M  V30 1333 H 121.497 8.13265 0.924222 0
M  V30 1334 N 124.16 -0.719506 1.40217 0
M  V30 1335 C 125.09 -1.8465 1.42922 0
M  V30 1336 C 126.071 -1.67599 0.29062 0
M  V30 1337 O 127.256 -1.87688 0.498677 0
M  V30 1338 C 124.386 -3.22565 1.28722 0
M  V30 1339 C 123.34 -3.54281 2.40144 0
M  V30 1340 C 122.666 -4.91298 2.11023 0
M  V30 1341 C 123.966 -3.55676 3.82481 0
M  V30 1342 H 125.66 -1.82644 2.37237 0
M  V30 1343 H 123.206 -0.877305 1.1419 0
M  V30 1344 H 125.159 -4.01095 1.29232 0
M  V30 1345 H 123.883 -3.25137 0.308811 0
M  V30 1346 H 122.542 -2.78088 2.38877 0
M  V30 1347 H 122.19 -4.90468 1.11582 0
M  V30 1348 H 121.89 -5.13485 2.8567 0
M  V30 1349 H 123.414 -5.72166 2.13209 0
M  V30 1350 H 124.828 -4.24254 3.85592 0
M  V30 1351 H 123.225 -3.89388 4.56614 0
M  V30 1352 H 124.295 -2.55144 4.12346 0
M  V30 1353 N 125.638 -1.25649 -0.95132 0
M  V30 1354 C 126.568 -1.08808 -2.06599 0
M  V30 1355 C 127.549 0.00382547 -1.701 0
M  V30 1356 O 128.734 -0.166325 -1.93486 0
M  V30 1357 C 125.864 -0.709542 -3.39975 0
M  V30 1358 C 124.818 -1.75206 -3.90496 0
M  V30 1359 C 124.144 -1.22811 -5.20405 0
M  V30 1360 C 125.444 -3.15153 -4.16504 0
M  V30 1361 H 127.138 -2.02048 -2.20946 0
M  V30 1362 H 124.684 -0.972835 -1.06169 0
M  V30 1363 H 126.637 -0.578649 -4.17408 0
M  V30 1364 H 125.361 0.258556 -3.25575 0
M  V30 1365 H 124.02 -1.87145 -3.15234 0
M  V30 1366 H 123.668 -0.250145 -5.02378 0
M  V30 1367 H 123.368 -1.92492 -5.55176 0
M  V30 1368 H 124.892 -1.10968 -6.00432 0
M  V30 1369 H 126.306 -3.06349 -4.84586 0
M  V30 1370 H 124.703 -3.82333 -4.62538 0
M  V30 1371 H 125.773 -3.61966 -3.22658 0
M  V30 1372 N 127.117 1.15442 -1.07289 0
M  V30 1373 C 128.365 1.85845 -0.794096 0
M  V30 1374 C 128.686 1.82692 0.681809 0
M  V30 1375 O 127.956 1.26741 1.49377 0
M  V30 1376 H 126.536 0.688089 -0.290763 0
M  V30 1377 H 129.198 1.39947 -1.3565 0
M  V30 1378 H 128.294 2.91001 -1.12804 0
M  V30 1379 N 128.595 0.856903 1.32268 0
M  V30 1380 C 129.823 0.475439 2.01363 0
M  V30 1381 C 130.238 -0.928486 1.64392 0
M  V30 1382 O 129.595 -1.60624 0.866387 0
M  V30 1383 C 129.646 0.607545 3.56358 0
M  V30 1384 O 129.367 1.95617 3.92002 0
M  V30 1385 C 130.868 0.225382 4.42727 0
M  V30 1386 H 128.088 0.186636 0.644521 0
M  V30 1387 H 130.632 1.15446 1.68797 0
M  V30 1388 H 128.787 -0.0237719 3.87393 0
M  V30 1389 H 129.201 1.95455 4.86721 0
M  V30 1390 H 130.675 0.368813 5.50767 0
M  V30 1391 H 131.152 -0.834369 4.31202 0
M  V30 1392 H 131.758 0.831864 4.17085 0
M  V30 1393 N 130.073 -1.45103 0.615059 0
M  V30 1394 C 131.298 -2.07064 0.117988 0
M  V30 1395 C 131.723 -1.4554 -1.19163 0
M  V30 1396 O 131.081 -0.550855 -1.72729 0
M  V30 1397 C 131.129 -3.606 -0.000288387 0
M  V30 1398 O 130.233 -3.98847 -1.04856 0
M  V30 1399 H 129.574 -0.659467 0.0774581 0
M  V30 1400 H 132.104 -1.86236 0.847186 0
M  V30 1401 H 132.114 -4.07529 -0.196091 0
M  V30 1402 H 130.789 -4.04765 0.955932 0
M  V30 1403 H 129.366 -3.63577 -0.828619 0
M  V30 1404 N 131.551 -0.354651 -1.53558 0
M  V30 1405 C 132.8 0.239504 -2.00273 0
M  V30 1406 C 133.113 1.50759 -1.24623 0
M  V30 1407 O 134.319 2.17968 -1.61871 0
M  V30 1408 C 132.775 0.477341 -3.5672 0
M  V30 1409 C 132.383 -0.775488 -4.41237 0
M  V30 1410 C 134.127 1.02975 -4.11821 0
M  V30 1411 C 132.034 -0.507838 -5.89216 0
M  V30 1412 H 130.964 0.0932743 -0.748208 0
M  V30 1413 H 133.615 -0.471701 -1.77334 0
M  V30 1414 H 131.997 1.24953 -3.7577 0
M  V30 1415 H 133.171 -1.54963 -4.33962 0
M  V30 1416 H 131.486 -1.25033 -3.97185 0
M  V30 1417 H 134.083 1.24513 -5.2 0
M  V30 1418 H 134.426 1.98862 -3.65731 0
M  V30 1419 H 134.959 0.317994 -3.96527 0
M  V30 1420 H 131.698 -1.43674 -6.39561 0
M  V30 1421 H 131.218 0.228011 -5.99366 0
M  V30 1422 H 132.897 -0.129238 -6.46871 0
M  V30 1423 N 133.029 1.57378 -0.0835403 0
M  V30 1424 C 133.992 2.12252 0.864959 0
M  V30 1425 C 134.992 1.04916 1.21858 0
M  V30 1426 O 136.182 1.30853 1.14991 0
M  V30 1427 C 133.314 2.63358 2.16461 0
M  V30 1428 H 134.507 2.97371 0.388676 0
M  V30 1429 H 132.06 1.55423 0.165317 0
M  V30 1430 H 132.795 1.81727 2.686 0
M  V30 1431 H 132.58 3.41826 1.92087 0
M  V30 1432 H 134.07 3.05847 2.84337 0
M  V30 1433 N 134.507 -0.190092 1.56449 0
M  V30 1434 C 135.923 -0.54113 1.50146 0
M  V30 1435 C 136.123 -1.85603 0.784465 0
M  V30 1436 O 135.179 -2.5024 0.337051 0
M  V30 1437 C 136.492 -0.591241 2.9483 0
M  V30 1438 C 138.04 -0.679732 3.0553 0
M  V30 1439 C 138.515 -0.760908 4.51635 0
M  V30 1440 N 140.006 -0.824302 4.55806 0
M  V30 1441 C 140.741 -0.907365 5.66175 0
M  V30 1442 N 140.237 -0.952422 6.86222 0
M  V30 1443 N 142.03 -0.94494 5.541 0
M  V30 1444 H 134.181 0.67235 2.01478 0
M  V30 1445 H 136.444 0.240127 0.917084 0
M  V30 1446 H 136.15 0.305905 3.50367 0
M  V30 1447 H 136.024 -1.44422 3.48457 0
M  V30 1448 H 138.411 -1.56731 2.50039 0
M  V30 1449 H 138.492 0.199549 2.5502 0
M  V30 1450 H 138.136 0.122336 5.07753 0
M  V30 1451 H 138.066 -1.65606 4.99882 0
M  V30 1452 H 140.557 -0.798526 3.69367 0
M  V30 1453 H 140.87 -1.01645 7.66086 0
M  V30 1454 H 139.215 -0.921014 6.8887 0
M  V30 1455 H 142.406 -0.906612 4.59236 0
M  V30 1456 H 142.579 -1.00622 6.4014 0
M  V30 1457 N 135.985 -1.50799 -0.457987 0
M  V30 1458 C 137.396 -1.55152 -1.0385 0
M  V30 1459 C 137.747 -0.362719 -1.92818 0
M  V30 1460 O 136.872 0.522915 -2.09987 0
M  V30 1461 C 137.467 -2.81173 -1.89017 0
M  V30 1462 C 136.026 -2.88164 -2.42154 0
M  V30 1463 C 135.173 -2.49591 -1.20829 0
M  V30 1464 H 138.124 -1.56874 -0.240068 0
M  V30 1465 H 138.145 -2.63769 -2.74238 0
M  V30 1466 H 137.657 -3.67677 -1.24238 0
M  V30 1467 H 135.758 -2.06042 -3.10447 0
M  V30 1468 H 135.871 -3.91356 -2.76364 0
M  V30 1469 H 134.235 -2.02322 -1.54719 0
M  V30 1470 H 135.018 -3.38418 -0.576927 0
M  V30 1471 N 137.463 0.71206 -1.40597 0
M  V30 1472 C 138.393 1.83889 -1.43899 0
M  V30 1473 C 139.374 1.67442 -0.299504 0
M  V30 1474 O 140.559 1.87421 -0.508624 0
M  V30 1475 C 137.689 3.21877 -1.30431 0
M  V30 1476 C 136.643 3.53002 -2.42019 0
M  V30 1477 C 135.969 4.90172 -2.13626 0
M  V30 1478 C 137.269 3.53643 -3.84362 0
M  V30 1479 H 138.963 1.81383 -2.38203 0
M  V30 1480 H 136.509 0.871237 -1.14654 0
M  V30 1481 H 138.462 4.00404 -1.31357 0
M  V30 1482 H 137.186 3.24968 -0.326049 0
M  V30 1483 H 135.845 2.76818 -2.40349 0
M  V30 1484 H 135.493 4.89869 -1.14182 0
M  V30 1485 H 135.193 5.11962 -2.88389 0
M  V30 1486 H 136.717 5.71028 -2.1624 0
M  V30 1487 H 138.131 4.22203 -3.87837 0
M  V30 1488 H 136.528 3.86961 -4.58673 0
M  V30 1489 H 137.598 2.52954 -4.13693 0
M  V30 1490 N 138.941 1.26152 0.944643 0
M  V30 1491 C 140.19 1.10883 1.68487 0
M  V30 1492 C 140.503 -0.348153 1.92477 0
M  V30 1493 O 141.709 -0.621459 2.64292 0
M  V30 1494 C 140.165 1.93624 3.03377 0
M  V30 1495 C 139.773 3.43875 2.87148 0
M  V30 1496 C 141.517 1.86954 3.81115 0
M  V30 1497 C 139.424 4.18875 4.1749 0
M  V30 1498 H 138.354 0.41135 0.631907 0
M  V30 1499 H 141.005 1.50433 1.05082 0
M  V30 1500 H 139.387 1.46904 3.67743 0
M  V30 1501 H 140.561 3.98338 2.31653 0
M  V30 1502 H 138.876 3.51744 2.22856 0
M  V30 1503 H 141.473 2.40275 4.77673 0
M  V30 1504 H 141.816 0.839518 4.07747 0
M  V30 1505 H 142.349 2.31477 3.23517 0
M  V30 1506 H 139.088 5.22332 3.96043 0
M  V30 1507 H 138.608 3.69193 4.72712 0
M  V30 1508 H 140.287 4.27134 4.85968 0
M  V30 1509 N 140.419 -1.14872 1.07899 0
M  V30 1510 C 141.382 -2.17986 0.708161 0
M  V30 1511 C 142.382 -1.58775 -0.25442 0
M  V30 1512 O 143.572 -1.74166 -0.034645 0
M  V30 1513 C 140.704 -3.40871 0.0446929 0
M  V30 1514 H 141.897 -2.52306 1.62116 0
M  V30 1515 H 139.45 -1.2943 0.876218 0
M  V30 1516 H 140.185 -3.12124 -0.880281 0
M  V30 1517 H 139.97 -3.8511 0.737091 0
M  V30 1518 H 141.46 -4.17121 -0.19991 0
M  V30 1519 N 141.898 -0.863906 -1.31812 0
M  V30 1520 C 142.845 -0.313303 -2.28664 0
M  V30 1521 C 143.815 0.584868 -1.55462 0
M  V30 1522 O 145 0.517805 -1.83639 0
M  V30 1523 C 142.14 0.48441 -3.41683 0
M  V30 1524 C 141.253 -0.440594 -4.29747 0
M  V30 1525 C 140.388 0.370652 -5.29905 0
M  V30 1526 C 139.427 -0.551164 -6.09613 0
M  V30 1527 N 138.564 0.223462 -7.01744 0
M  V30 1528 H 143.404 -1.14444 -2.75148 0
M  V30 1529 H 140.941 -0.575769 -1.35364 0
M  V30 1530 H 142.899 0.962627 -4.05943 0
M  V30 1531 H 141.529 1.28029 -2.96325 0
M  V30 1532 H 140.581 -1.03724 -3.65986 0
M  V30 1533 H 141.893 -1.14767 -4.85417 0
M  V30 1534 H 141.047 0.911638 -5.99812 0
M  V30 1535 H 139.786 1.11105 -4.74876 0
M  V30 1536 H 138.791 -1.10396 -5.38603 0
M  V30 1537 H 140.016 -1.29032 -6.66729 0
M  V30 1538 H 137.962 0.946787 -6.49132 0
M  V30 1539 H 137.879 -0.424399 -7.54808 0
M  V30 1540 H 139.147 0.745876 -7.75923 0
M  V30 1541 N 143.376 1.44774 -0.622745 0
M  V30 1542 C 144.326 2.2774 0.108889 0
M  V30 1543 C 145.31 1.38189 0.824175 0
M  V30 1544 O 146.502 1.62063 0.711664 0
M  V30 1545 C 143.631 3.25353 1.09546 0
M  V30 1546 C 142.717 4.22392 0.380232 0
M  V30 1547 N 143.108 5.02388 -0.586535 0
M  V30 1548 C 141.406 4.41588 0.625792 0
M  V30 1549 C 142.107 5.72894 -1.00834 0
M  V30 1550 N 141.083 5.42479 -0.348878 0
M  V30 1551 H 144.885 2.86993 -0.63341 0
M  V30 1552 H 142.399 1.5611 -0.447589 0
M  V30 1553 H 144.396 3.83538 1.63414 0
M  V30 1554 H 143.056 2.6766 1.83815 0
M  V30 1555 H 144.067 5.0885 -0.963975 0
M  V30 1556 H 140.744 3.95003 1.352 0
M  V30 1557 H 142.134 6.47158 -1.80656 0
M  V30 1558 N 144.854 0.36279 1.53368 0
M  V30 1559 C 145.784 -0.476976 2.28576 0
M  V30 1560 C 146.765 -1.08631 1.30894 0
M  V30 1561 O 147.95 -1.10409 1.59761 0
M  V30 1562 C 145.08 -1.61828 3.07293 0
M  V30 1563 C 144.034 -1.13633 4.1264 0
M  V30 1564 C 143.36 -2.36766 4.79423 0
M  V30 1565 C 144.66 -0.223061 5.21823 0
M  V30 1566 H 146.354 0.150474 2.99022 0
M  V30 1567 H 143.9 0.0738103 1.43811 0
M  V30 1568 H 145.853 -2.21237 3.58653 0
M  V30 1569 H 144.577 -2.27292 2.34533 0
M  V30 1570 H 143.236 -0.564945 3.62221 0
M  V30 1571 H 142.884 -3.0068 4.03238 0
M  V30 1572 H 142.584 -2.05192 5.50609 0
M  V30 1573 H 144.108 -2.96865 5.33576 0
M  V30 1574 H 145.522 -0.724545 5.68703 0
M  V30 1575 H 143.919 0.001678 6.001 0
M  V30 1576 H 144.989 0.735553 4.79289 0
M  V30 1577 N 146.332 -1.57332 0.0918853 0
M  V30 1578 C 147.578 -1.94524 -0.573425 0
M  V30 1579 C 147.911 -0.973578 -1.68033 0
M  V30 1580 O 147.186 -0.00609226 -1.94499 0
M  V30 1581 C 147.469 -3.41858 -1.13161 0
M  V30 1582 C 147.322 -4.4979 -0.0299747 0
M  V30 1583 C 148.641 -3.90435 -2.03098 0
M  V30 1584 H 145.76 -0.70734 -0.206975 0
M  V30 1585 H 148.402 -1.89309 0.161942 0
M  V30 1586 H 146.552 -3.46433 -1.7583 0
M  V30 1587 H 148.224 -4.57327 0.604112 0
M  V30 1588 H 146.467 -4.291 0.636833 0
M  V30 1589 H 147.138 -5.50069 -0.461287 0
M  V30 1590 H 149.614 -3.87992 -1.50338 0
M  V30 1591 H 148.49 -4.94097 -2.39081 0
M  V30 1592 H 148.751 -3.29541 -2.94712 0
M  V30 1593 N 147.81 0.181792 -1.56548 0
M  V30 1594 C 149.226 0.53316 -1.50431 0
M  V30 1595 C 149.426 1.85184 -0.794297 0
M  V30 1596 O 148.482 2.50058 -0.350318 0
M  V30 1597 C 149.795 0.575597 -2.9514 0
M  V30 1598 C 151.343 0.663519 -3.05886 0
M  V30 1599 C 151.818 0.736946 -4.52032 0
M  V30 1600 N 153.309 0.800118 -4.56237 0
M  V30 1601 C 154.044 0.877327 -5.66649 0
M  V30 1602 N 153.54 0.916016 -6.86718 0
M  V30 1603 N 155.333 0.915542 -5.54594 0
M  V30 1604 H 147.484 -0.683025 -2.01118 0
M  V30 1605 H 149.747 -0.244988 -0.915797 0
M  V30 1606 H 149.453 -0.324482 -3.502 0
M  V30 1607 H 149.327 1.42572 -3.49218 0
M  V30 1608 H 151.714 1.55403 -2.50867 0
M  V30 1609 H 151.795 -0.21307 -2.54911 0
M  V30 1610 H 151.439 -0.149262 -5.07681 0
M  V30 1611 H 151.369 1.62953 -5.00753 0
M  V30 1612 H 153.86 0.778926 -3.69785 0
M  V30 1613 H 154.173 0.975813 -7.66614 0
M  V30 1614 H 152.518 0.884469 -6.89349 0
M  V30 1615 H 155.709 0.882245 -4.59711 0
M  V30 1616 H 155.882 0.972253 -6.40665 0
M  V30 1617 N 149.288 1.51039 0.449983 0
M  V30 1618 C 150.537 1.62317 1.19733 0
M  V30 1619 C 150.85 0.339101 1.92638 0
M  V30 1620 O 152.056 0.331069 2.69474 0
M  V30 1621 C 150.512 2.86608 2.17678 0
M  V30 1622 C 150.12 4.21972 1.50479 0
M  V30 1623 C 151.864 3.07239 2.92924 0
M  V30 1624 C 149.771 5.37426 2.46834 0
M  V30 1625 H 148.701 0.604532 0.450619 0
M  V30 1626 H 151.352 1.77494 0.465625 0
M  V30 1627 H 149.734 2.65037 2.94231 0
M  V30 1628 H 150.908 4.53878 0.795716 0
M  V30 1629 H 149.223 4.07117 0.874344 0
M  V30 1630 H 151.82 3.90668 3.65079 0
M  V30 1631 H 152.163 2.19807 3.5354 0
M  V30 1632 H 152.696 3.29091 2.23481 0
M  V30 1633 H 149.435 6.27079 1.90926 0
M  V30 1634 H 148.955 5.09912 3.15832 0
M  V30 1635 H 150.634 5.68862 3.08228 0
M  V30 1636 N 150.766 -0.704594 1.40972 0
M  V30 1637 C 151.729 -1.80035 1.41845 0
M  V30 1638 C 152.729 -1.57774 0.310474 0
M  V30 1639 O 153.919 -1.64613 0.56992 0
M  V30 1640 C 151.051 -3.18284 1.22098 0
M  V30 1641 H 152.244 -1.80658 2.3938 0
M  V30 1642 H 149.797 -0.911329 1.26982 0
M  V30 1643 H 150.532 -3.23306 0.253672 0
M  V30 1644 H 150.317 -3.35843 2.02366 0
M  V30 1645 H 151.807 -3.98289 1.25522 0
M  V30 1646 N 152.244 -1.26651 -0.937939 0
M  V30 1647 C 153.154 -1.10276 -2.07066 0
M  V30 1648 C 154.17 -0.0354197 -1.73964 0
M  V30 1649 O 155.346 -0.239816 -1.99967 0
M  V30 1650 C 152.411 -0.740887 -3.38691 0
M  V30 1651 C 151.472 -1.88799 -3.85556 0
M  V30 1652 C 150.705 -1.54329 -5.10899 0
M  V30 1653 O 150.928 -0.446494 -5.6865 0
M  V30 1654 O 149.862 -2.37911 -5.52885 0
M  V30 1655 H 153.688 -2.05309 -2.23789 0
M  V30 1656 H 151.273 -1.05743 -1.0554 0
M  V30 1657 H 153.155 -0.55195 -4.1777 0
M  V30 1658 H 151.83 0.180022 -3.23199 0
M  V30 1659 H 150.737 -2.13191 -3.07409 0
M  V30 1660 H 152.07 -2.78874 -4.05574 0
M  V30 1661 N 153.722 1.14298 -1.08507 0
M  V30 1662 C 154.632 2.23027 -0.727753 0
M  V30 1663 C 155.648 1.71952 0.26619 0
M  V30 1664 O 156.824 2.011 0.109882 0
M  V30 1665 C 153.889 3.46403 -0.143541 0
M  V30 1666 C 152.95 4.12413 -1.19223 0
M  V30 1667 C 152.183 5.29899 -0.635798 0
M  V30 1668 O 152.406 5.67796 0.544393 0
M  V30 1669 O 151.34 5.85717 -1.38634 0
M  V30 1670 H 155.166 2.55945 -1.63481 0
M  V30 1671 H 152.751 1.22248 -0.858817 0
M  V30 1672 H 154.633 4.21018 0.179404 0
M  V30 1673 H 153.308 3.15206 0.736659 0
M  V30 1674 H 152.215 3.39667 -1.56772 0
M  V30 1675 H 153.548 4.47718 -2.04474 0
M  V30 1676 N 155.201 0.870884 1.31352 0
M  V30 1677 C 156.111 0.330783 2.32256 0
M  V30 1678 C 157.127 -0.559767 1.6475 0
M  V30 1679 O 158.303 -0.456263 1.96164 0
M  V30 1680 C 155.368 -0.458137 3.4366 0
M  V30 1681 C 154.429 0.460482 4.26823 0
M  V30 1682 C 153.662 -0.290881 5.32907 0
M  V30 1683 O 153.885 -1.51885 5.49806 0
M  V30 1684 O 152.819 0.351732 6.00871 0
M  V30 1685 H 156.645 1.16718 2.80376 0
M  V30 1686 H 154.23 0.634285 1.35267 0
M  V30 1687 H 156.112 -0.905343 4.1156 0
M  V30 1688 H 154.787 -1.27106 2.97701 0
M  V30 1689 H 153.694 0.956207 3.61673 0
M  V30 1690 H 155.027 1.23903 4.7635 0
M  V30 1691 N 156.679 -1.44442 0.630414 0
M  V30 1692 C 157.927 -2.01653 0.134351 0
M  V30 1693 C 158.248 -1.49836 -1.24796 0
M  V30 1694 O 157.518 -0.701684 -1.82902 0
M  V30 1695 H 156.098 -0.74554 0.0466769 0
M  V30 1696 H 158.76 -1.76952 0.816955 0
M  V30 1697 H 157.856 -3.11935 0.101498 0
M  V30 1698 N 158.157 -0.370918 -1.53173 0
M  V30 1699 C 159.12 0.460778 -2.24521 0
M  V30 1700 C 160.12 1.00536 -1.25496 0
M  V30 1701 O 161.31 0.890266 -1.49733 0
M  V30 1702 C 158.442 1.64457 -2.98608 0
M  V30 1703 H 159.635 -0.163613 -2.99453 0
M  V30 1704 H 157.188 -0.122699 -1.55818 0
M  V30 1705 H 157.923 2.30691 -2.2793 0
M  V30 1706 H 157.708 1.26099 -3.7127 0
M  V30 1707 H 159.198 2.23384 -3.5283 0
M  V30 1708 N 159.635 1.57281 -0.100228 0
M  V30 1709 C 160.545 2.17833 0.870965 0
M  V30 1710 C 161.561 1.14921 1.30649 0
M  V30 1711 O 162.737 1.47313 1.37335 0
M  V30 1712 C 159.802 2.75085 2.1102 0
M  V30 1713 C 158.863 3.9297 1.72838 0
M  V30 1714 C 158.096 4.47482 2.90854 0
M  V30 1715 O 158.319 4.00922 4.05731 0
M  V30 1716 O 157.253 5.38433 2.69023 0
M  V30 1717 H 161.079 3.0124 0.38575 0
M  V30 1718 H 158.664 1.48881 0.124397 0
M  V30 1719 H 160.546 3.11656 2.83634 0
M  V30 1720 H 159.221 1.94721 2.58584 0
M  V30 1721 H 158.128 3.61201 0.973883 0
M  V30 1722 H 159.461 4.74713 1.30033 0
M  V30 1723 N 161.113 -0.173488 1.56642 0
M  V30 1724 C 162.076 -1.19859 1.95362 0
M  V30 1725 C 163.076 -1.37296 0.83704 0
M  V30 1726 O 164.266 -1.34739 1.10413 0
M  V30 1727 C 161.398 -2.56405 2.24654 0
M  V30 1728 H 162.591 -0.867062 2.87092 0
M  V30 1729 H 160.144 -0.415853 1.50666 0
M  V30 1730 H 160.879 -2.94576 1.35631 0
M  V30 1731 H 160.664 -2.45115 3.06041 0
M  V30 1732 H 162.154 -3.30287 2.5554 0
M  V30 1733 N 162.591 -1.51276 -0.441967 0
M  V30 1734 C 163.84 -1.6295 -1.18871 0
M  V30 1735 C 164.153 -0.349312 -1.92456 0
M  V30 1736 O 165.359 -0.345355 -2.69295 0
M  V30 1737 C 163.815 -2.87759 -2.16155 0
M  V30 1738 C 163.423 -4.22764 -1.48239 0
M  V30 1739 C 165.167 -3.08788 -2.91291 0
M  V30 1740 C 163.074 -5.38728 -2.4398 0
M  V30 1741 H 162.004 -0.606913 -0.447406 0
M  V30 1742 H 164.655 -1.77739 -0.456205 0
M  V30 1743 H 163.037 -2.66593 -2.92821 0
M  V30 1744 H 164.211 -4.54293 -0.771635 0
M  V30 1745 H 162.526 -4.07575 -0.852741 0
M  V30 1746 H 165.123 -3.92599 -3.63002 0
M  V30 1747 H 165.466 -2.21679 -3.5237 0
M  V30 1748 H 165.999 -3.30272 -2.21733 0
M  V30 1749 H 162.738 -6.28082 -1.87598 0
M  V30 1750 H 162.258 -5.1158 -3.13123 0
M  V30 1751 H 163.937 -5.70489 -3.05207 0
M  V30 1752 N 164.069 0.697108 -1.41344 0
M  V30 1753 C 165.032 1.79281 -1.42797 0
M  V30 1754 C 166.032 1.57607 -0.318837 0
M  V30 1755 O 167.222 1.64309 -0.578642 0
M  V30 1756 C 164.354 3.17632 -1.23785 0
M  V30 1757 H 165.547 1.79385 -2.40335 0
M  V30 1758 H 163.1 0.904582 -1.27464 0
M  V30 1759 H 163.835 3.23167 -0.270814 0
M  V30 1760 H 163.62 3.34765 -2.04144 0
M  V30 1761 H 165.11 3.97617 -1.27633 0
M  V30 1762 N 165.547 1.27147 0.931209 0
M  V30 1763 C 166.497 1.06227 2.01742 0
M  V30 1764 C 167.481 -0.00859065 1.60898 0
M  V30 1765 O 168.673 0.209537 1.75755 0
M  V30 1766 C 165.802 0.707787 3.35924 0
M  V30 1767 C 164.888 1.81661 3.83223 0
M  V30 1768 N 165.279 3.05564 4.03069 0
M  V30 1769 C 163.577 1.70249 4.12227 0
M  V30 1770 C 164.278 3.77697 4.42403 0
M  V30 1771 N 163.254 3.0544 4.49675 0
M  V30 1772 H 167.056 2.00261 2.15111 0
M  V30 1773 H 164.57 1.1781 1.11779 0
M  V30 1774 H 166.567 0.539043 4.134 0
M  V30 1775 H 165.227 -0.224964 3.2392 0
M  V30 1776 H 166.238 3.41363 3.89476 0
M  V30 1777 H 162.915 0.840329 4.08956 0
M  V30 1778 H 164.305 4.84168 4.65866 0
M  V30 1779 N 167.025 -1.13721 1.09112 0
M  V30 1780 C 168.273 -1.84559 0.823562 0
M  V30 1781 C 168.594 -1.83754 -0.652658 0
M  V30 1782 O 167.864 -1.29102 -1.47342 0
M  V30 1783 H 166.444 -0.683376 0.301673 0
M  V30 1784 H 169.106 -1.37771 1.37859 0
M  V30 1785 H 168.202 -2.8917 1.17419 0
M  V30 1786 N 168.503 -0.877838 -1.30888 0
M  V30 1787 C 169.466 -0.344265 -2.266 0
M  V30 1788 C 170.466 0.50922 -1.52524 0
M  V30 1789 O 171.656 0.317398 -1.71284 0
M  V30 1790 C 168.788 0.510198 -3.37061 0
M  V30 1791 H 169.981 -1.1893 -2.7531 0
M  V30 1792 H 167.534 -0.654088 -1.41956 0
M  V30 1793 H 168.269 1.37612 -2.93655 0
M  V30 1794 H 168.054 -0.101047 -3.9197 0
M  V30 1795 H 169.544 0.875537 -4.08319 0
M  V30 1796 N 169.982 1.44106 -0.638065 0
M  V30 1797 C 171.21 2.06336 -0.152615 0
M  V30 1798 C 171.625 1.47731 1.17563 0
M  V30 1799 O 170.982 0.602806 1.72257 0
M  V30 1800 C 171.033 3.61479 -0.0391491 0
M  V30 1801 O 170.754 4.17903 -1.31487 0
M  V30 1802 C 172.255 4.40757 0.474176 0
M  V30 1803 H 169.475 0.665862 -0.0828776 0
M  V30 1804 H 172.019 1.84862 -0.87443 0
M  V30 1805 H 170.174 3.82191 0.633142 0
M  V30 1806 H 170.588 5.11416 -1.16421 0
M  V30 1807 H 172.062 5.49707 0.502562 0
M  V30 1808 H 172.539 4.12697 1.50258 0
M  V30 1809 H 173.145 4.24979 -0.165102 0
M  V30 1810 N 171.46 0.379036 1.52974 0
M  V30 1811 C 172.708 -0.206014 2.01047 0
M  V30 1812 C 173.029 -1.48175 1.26765 0
M  V30 1813 O 172.299 -1.92085 0.384743 0
M  V30 1814 H 170.879 -0.0791184 0.742798 0
M  V30 1815 H 173.541 0.508366 1.88153 0
M  V30 1816 H 172.637 -0.423501 3.09213 0
M  V30 1817 N 172.938 -1.57226 0.108567 0
M  V30 1818 C 173.885 -2.14756 -0.845481 0
M  V30 1819 C 174.855 -1.06971 -1.27068 0
M  V30 1820 O 176.04 -1.34827 -1.35005 0
M  V30 1821 C 173.18 -2.74298 -2.09415 0
M  V30 1822 C 172.293 -3.96358 -1.71826 0
M  V30 1823 C 171.428 -4.44021 -2.9158 0
M  V30 1824 C 170.467 -5.58637 -2.50181 0
M  V30 1825 N 169.604 -6.01091 -3.62814 0
M  V30 1826 H 174.444 -2.95961 -0.348035 0
M  V30 1827 H 171.981 -1.46226 -0.160106 0
M  V30 1828 H 173.939 -3.06945 -2.82561 0
M  V30 1829 H 172.569 -1.95801 -2.56636 0
M  V30 1830 H 171.621 -3.69939 -0.885947 0
M  V30 1831 H 172.933 -4.79504 -1.37394 0
M  V30 1832 H 172.087 -4.78522 -3.72963 0
M  V30 1833 H 170.826 -3.59803 -3.29231 0
M  V30 1834 H 169.831 -5.23751 -1.67228 0
M  V30 1835 H 171.056 -6.44613 -2.13659 0
M  V30 1836 H 169.002 -5.19817 -4.00158 0
M  V30 1837 H 168.919 -6.79066 -3.32273 0
M  V30 1838 H 170.187 -6.40227 -4.44668 0
M  V30 1839 N 174.416 0.165178 -1.56732 0
M  V30 1840 C 175.664 0.879068 -1.8198 0
M  V30 1841 C 175.985 1.82514 -0.686561 0
M  V30 1842 O 175.255 1.93694 0.293146 0
M  V30 1843 H 173.835 0.327608 -0.671329 0
M  V30 1844 H 176.497 0.163526 -1.94213 0
M  V30 1845 H 175.593 1.45228 -2.76252 0
M  V30 1846 N 175.894 1.51508 0.433938 0
M  V30 1847 C 176.842 1.73646 1.54757 0
M  V30 1848 C 177.836 0.602854 1.5831 0
M  V30 1849 O 179.042 0.784318 1.62014 0
M  V30 1850 H 175.417 0.548718 0.51421 0
M  V30 1851 H 177.388 2.66991 1.33261 0
M  V30 1852 C 176.137 1.88172 2.92381 0
M  V30 1853 H 175.46 2.74808 2.90381 0
M  V30 1854 H 176.9 2.07672 3.6966 0
M  V30 1855 C 175.359 0.64239 3.30719 0
M  V30 1856 O 175.889 -0.201362 4.01195 0
M  V30 1857 N 174.095 0.485489 2.86516 0
M  V30 1858 H 173.642 1.17318 2.29334 0
M  V30 1859 H 173.6 -0.342482 3.12529 0
M  V30 1860 N 177.372 -0.689602 1.41712 0
M  V30 1861 C 178.649 -1.44457 1.31877 0
M  V30 1862 C 179.029 -2.11039 -0.0508537 0
M  V30 1863 O 178.377 -2.02138 -1.06547 0
M  V30 1864 C 178.587 -2.45913 2.47645 0
M  V30 1865 C 179.935 -3.10991 2.89084 0
M  V30 1866 O 180.959 -2.56238 2.47428 0
M  V30 1867 O 179.818 -4.10174 3.61137 0
M  V30 1868 H 176.912 -0.64362 0.519309 0
M  V30 1869 H 179.458 -0.719576 1.53689 0
M  V30 1870 H 178.23 -1.95409 3.39015 0
M  V30 1871 H 177.853 -3.25913 2.27742 0
M  V30 1872 N 178.85 -1.27639 -0.924453 0
M  V30 1873 C 179.782 -1.06442 -2.02985 0
M  V30 1874 C 180.795 -0.0194771 -1.62788 0
M  V30 1875 O 181.984 -0.261388 -1.76576 0
M  V30 1876 C 179.084 -0.59327 -3.33667 0
M  V30 1877 C 178.257 -1.71123 -4.02537 0
M  V30 1878 C 177.316 -1.23527 -5.11495 0
M  V30 1879 O 176.342 -1.93553 -5.35281 0
M  V30 1880 N 177.544 -0.0926678 -5.80426 0
M  V30 1881 H 180.309 -2.01633 -2.2173 0
M  V30 1882 H 177.87 -1.19248 -1.09505 0
M  V30 1883 H 179.862 -0.258686 -4.03872 0
M  V30 1884 H 178.432 0.265502 -3.1147 0
M  V30 1885 H 177.652 -2.21593 -3.26022 0
M  V30 1886 H 178.94 -2.46145 -4.45298 0
M  V30 1887 H 178.338 0.491741 -5.63559 0
M  V30 1888 H 176.895 0.182714 -6.51544 0
M  V30 1889 N 180.328 1.1314 -1.09713 0
M  V30 1890 C 181.574 1.84757 -0.836224 0
M  V30 1891 C 181.907 1.8347 0.636598 0
M  V30 1892 O 181.182 1.27491 1.46889 0
M  V30 1893 C 181.465 3.32782 -1.37578 0
M  V30 1894 C 181.318 3.42567 -2.91493 0
M  V30 1895 C 182.637 4.28307 -1.01198 0
M  V30 1896 H 179.756 0.67082 -0.305236 0
M  V30 1897 H 182.398 1.3278 -1.35903 0
M  V30 1898 H 180.548 3.77177 -0.931097 0
M  V30 1899 H 182.22 3.06862 -3.44432 0
M  V30 1900 H 180.463 2.83349 -3.28475 0
M  V30 1901 H 181.134 4.46674 -3.24324 0
M  V30 1902 H 183.61 3.91999 -1.39556 0
M  V30 1903 H 182.486 5.30307 -1.41653 0
M  V30 1904 H 182.747 4.42029 0.0794833 0
M  V30 1905 N 181.806 0.884767 1.30421 0
M  V30 1906 C 183.222 0.57874 1.48737 0
M  V30 1907 C 183.422 -0.883567 1.81095 0
M  V30 1908 O 182.478 -1.6648 1.89844 0
M  V30 1909 C 183.791 1.49171 2.61091 0
M  V30 1910 C 185.339 1.49532 2.74971 0
M  V30 1911 C 185.814 2.39421 3.90438 0
M  V30 1912 N 187.305 2.37383 3.97748 0
M  V30 1913 C 188.04 3.03647 4.86401 0
M  V30 1914 N 187.536 3.79136 5.79852 0
M  V30 1915 N 189.329 2.9288 4.79768 0
M  V30 1916 H 181.48 1.83075 1.0769 0
M  V30 1917 H 183.743 0.783637 0.533495 0
M  V30 1918 H 183.449 2.53291 2.44001 0
M  V30 1919 H 183.323 1.20113 3.57565 0
M  V30 1920 H 185.71 0.46163 2.91467 0
M  V30 1921 H 185.791 1.8262 1.79119 0
M  V30 1922 H 185.435 3.42874 3.74699 0
M  V30 1923 H 185.365 2.03649 4.85628 0
M  V30 1924 H 187.856 1.82525 3.30897 0
M  V30 1925 H 188.169 4.26789 6.4426 0
M  V30 1926 H 186.514 3.83243 5.79784 0
M  V30 1927 H 189.705 2.33433 4.05742 0
M  V30 1928 H 189.878 3.448 5.4865 0
M  V30 1929 N 183.284 -1.43765 0.645699 0
M  V30 1930 C 184.531 -2.01898 0.15604 0
M  V30 1931 C 184.859 -1.50887 -1.22733 0
M  V30 1932 O 184.114 -0.689271 -1.8316 0
M  V30 1933 C 184.413 -3.57238 0.107679 0
M  V30 1934 C 184.079 -4.27564 1.43178 0
M  V30 1935 C 182.741 -4.46492 1.7944 0
M  V30 1936 C 185.093 -4.67454 2.30513 0
M  V30 1937 C 182.421 -5.02573 3.02716 0
M  V30 1938 C 184.773 -5.24901 3.53074 0
M  V30 1939 C 183.437 -5.42046 3.89541 0
M  V30 1940 H 182.707 -0.738797 0.057099 0
M  V30 1941 H 185.354 -1.72341 0.834912 0
M  V30 1942 H 183.659 -3.86293 -0.654618 0
M  V30 1943 H 185.356 -3.99965 -0.287938 0
M  V30 1944 H 181.946 -4.13171 1.13963 0
M  V30 1945 H 186.13 -4.5253 2.0379 0
M  V30 1946 H 181.386 -5.14033 3.31028 0
M  V30 1947 H 185.56 -5.54758 4.20971 0
M  V30 1948 H 183.187 -5.85268 4.85145 0
M  V30 1949 N 184.763 -0.387143 -1.52771 0
M  V30 1950 C 185.673 0.456442 -2.30117 0
M  V30 1951 C 186.689 1.07342 -1.36944 0
M  V30 1952 O 187.865 1.07971 -1.70013 0
M  V30 1953 C 184.93 1.56957 -3.09136 0
M  V30 1954 C 183.991 0.977916 -4.18014 0
M  V30 1955 C 183.224 2.038 -4.93256 0
M  V30 1956 O 183.447 3.25271 -4.68567 0
M  V30 1957 O 182.381 1.6565 -5.78657 0
M  V30 1958 H 186.207 -0.17359 -3.03203 0
M  V30 1959 H 183.792 -0.150919 -1.48636 0
M  V30 1960 H 185.674 2.21628 -3.58412 0
M  V30 1961 H 184.349 2.18461 -2.38865 0
M  V30 1962 H 183.256 0.294525 -3.72939 0
M  V30 1963 H 184.589 0.407128 -4.90513 0
M  V30 1964 N 186.241 1.57166 -0.116904 0
M  V30 1965 C 187.171 2.18222 0.830759 0
M  V30 1966 C 188.152 1.12167 1.27877 0
M  V30 1967 O 189.337 1.40394 1.34176 0
M  V30 1968 C 186.467 2.77996 2.08172 0
M  V30 1969 C 185.421 3.89614 1.77157 0
M  V30 1970 C 184.747 4.36187 3.09265 0
M  V30 1971 C 186.047 5.1181 1.04151 0
M  V30 1972 H 187.741 2.97664 0.321992 0
M  V30 1973 H 185.287 1.4318 0.153434 0
M  V30 1974 H 187.24 3.19366 2.74924 0
M  V30 1975 H 185.964 1.9584 2.6137 0
M  V30 1976 H 184.623 3.48816 1.12796 0
M  V30 1977 H 184.271 3.50893 3.60393 0
M  V30 1978 H 183.971 5.11455 2.89288 0
M  V30 1979 H 185.495 4.80207 3.77139 0
M  V30 1980 H 186.909 5.50214 1.61052 0
M  V30 1981 H 185.306 5.92648 0.942762 0
M  V30 1982 H 186.376 4.84892 0.0279022 0
M  V30 1983 N 187.719 -0.156864 1.56817 0
M  V30 1984 C 188.947 -0.886316 1.86955 0
M  V30 1985 C 189.362 -1.75185 0.703975 0
M  V30 1986 O 188.719 -1.79555 -0.326552 0
M  V30 1987 C 188.77 -1.75117 3.16253 0
M  V30 1988 O 188.491 -0.920537 4.2832 0
M  V30 1989 C 189.992 -2.58905 3.59837 0
M  V30 1990 H 187.212 -0.25678 0.619923 0
M  V30 1991 H 189.756 -0.152615 2.0393 0
M  V30 1992 H 187.911 -2.43805 3.01062 0
M  V30 1993 H 188.325 -1.51337 5.02192 0
M  V30 1994 H 189.799 -3.1518 4.53172 0
M  V30 1995 H 190.276 -3.34472 2.84649 0
M  V30 1996 H 190.882 -1.95526 3.7769 0
M  V30 1997 N 189.197 -1.51736 -0.425897 0
M  V30 1998 C 190.16 -1.73271 -1.50032 0
M  V30 1999 C 191.16 -0.602639 -1.4908 0
M  V30 2000 O 192.35 -0.87033 -1.509 0
M  V30 2001 C 189.482 -1.79969 -2.89523 0
M  V30 2002 H 190.675 -2.69172 -1.32237 0
M  V30 2003 H 188.228 -1.41899 -0.65532 0
M  V30 2004 H 188.963 -0.859241 -3.1271 0
M  V30 2005 H 188.748 -2.62109 -2.91619 0
M  V30 2006 H 190.238 -1.9843 -3.67444 0
M  V30 2007 N 190.675 0.682077 -1.42076 0
M  V30 2008 C 191.905 1.46844 -1.45329 0
M  V30 2009 C 192.313 1.89102 -0.0609328 0
M  V30 2010 O 191.656 1.58238 0.933082 0
M  V30 2011 C 191.718 2.75375 -2.31104 0
M  V30 2012 C 191.382 2.55238 -3.79081 0
M  V30 2013 C 192.379 2.20309 -4.70914 0
M  V30 2014 C 190.064 2.70459 -4.2327 0
M  V30 2015 C 192.058 2.00859 -6.04925 0
M  V30 2016 C 189.745 2.50624 -5.57343 0
M  V30 2017 C 190.743 2.15876 -6.47986 0
M  V30 2018 O 190.431 1.96227 -7.79583 0
M  V30 2019 H 190.163 0.4586 -0.496651 0
M  V30 2020 H 192.717 0.846131 -1.87162 0
M  V30 2021 H 190.947 3.40061 -1.84107 0
M  V30 2022 H 192.636 3.37231 -2.25898 0
M  V30 2023 H 193.402 2.08153 -4.38061 0
M  V30 2024 H 189.281 2.96485 -3.53012 0
M  V30 2025 H 192.825 1.7366 -6.75639 0
M  V30 2026 H 188.722 2.62375 -5.89771 0
M  V30 2027 H 189.49 2.10883 -7.90867 0
M  V30 2028 N 192.153 1.28127 0.917671 0
M  V30 2029 C 193.116 1.11744 2.00115 0
M  V30 2030 C 194.116 0.0583052 1.60694 0
M  V30 2031 O 195.306 0.303755 1.71531 0
M  V30 2032 C 192.438 0.704862 3.33533 0
M  V30 2033 H 193.631 2.07966 2.16079 0
M  V30 2034 H 191.184 1.11058 1.09981 0
M  V30 2035 H 191.919 -0.258299 3.2327 0
M  V30 2036 H 191.704 1.4699 3.63505 0
M  V30 2037 H 193.194 0.612768 4.1308 0
M  V30 2038 N 193.631 -1.12557 1.10312 0
M  V30 2039 C 194.561 -2.20341 0.772798 0
M  V30 2040 C 195.542 -1.68198 -0.25365 0
M  V30 2041 O 196.727 -1.93831 -0.119699 0
M  V30 2042 C 193.857 -3.46709 0.202443 0
M  V30 2043 C 192.811 -4.11996 1.15943 0
M  V30 2044 C 192.137 -5.328 0.450345 0
M  V30 2045 C 193.437 -4.5828 2.50552 0
M  V30 2046 H 195.131 -2.48229 1.674 0
M  V30 2047 H 192.677 -1.19308 0.806326 0
M  V30 2048 H 194.63 -4.2138 -0.0407752 0
M  V30 2049 H 193.354 -3.18245 -0.734001 0
M  V30 2050 H 192.013 -3.39305 1.38808 0
M  V30 2051 H 191.661 -5.00602 -0.490531 0
M  V30 2052 H 191.361 -5.7743 1.08851 0
M  V30 2053 H 192.885 -6.10219 0.215642 0
M  V30 2054 H 194.299 -5.2433 2.31843 0
M  V30 2055 H 192.696 -5.13683 3.10242 0
M  V30 2056 H 193.766 -3.72329 3.10643 0
M  V30 2057 N 195.109 -0.891671 -1.2995 0
M  V30 2058 C 196.056 -0.361736 -2.27948 0
M  V30 2059 C 197.026 0.551761 -1.56668 0
M  V30 2060 O 198.211 0.478736 -1.84696 0
M  V30 2061 C 195.351 0.411825 -3.42634 0
M  V30 2062 C 194.464 -0.531651 -4.28716 0
M  V30 2063 C 193.599 0.258167 -5.30572 0
M  V30 2064 C 192.638 -0.680349 -6.08307 0
M  V30 2065 N 191.775 0.0745613 -7.0206 0
M  V30 2066 H 196.615 -1.20254 -2.72659 0
M  V30 2067 H 194.152 -0.604352 -1.34112 0
M  V30 2068 H 196.11 0.876304 -4.07893 0
M  V30 2069 H 194.74 1.21715 -2.98974 0
M  V30 2070 H 193.792 -1.11463 -3.63703 0
M  V30 2071 H 195.104 -1.25038 -4.82874 0
M  V30 2072 H 194.258 0.784204 -6.0161 0
M  V30 2073 H 192.997 1.01008 -4.77126 0
M  V30 2074 H 192.002 -1.21796 -5.3614 0
M  V30 2075 H 193.227 -1.43145 -6.63842 0
M  V30 2076 H 191.173 0.808883 -6.50994 0
M  V30 2077 H 191.09 -0.584409 -7.53738 0
M  V30 2078 H 192.358 0.581123 -7.77331 0
M  V30 2079 N 196.587 1.43421 -0.653314 0
M  V30 2080 C 197.998 1.85065 -0.246537 0
M  V30 2081 C 198.349 1.54688 1.2069 0
M  V30 2082 O 197.474 0.995896 1.92122 0
M  V30 2083 C 198.069 3.35922 -0.440666 0
M  V30 2084 C 196.628 3.76297 -0.0882064 0
M  V30 2085 C 195.775 2.67147 -0.743484 0
M  V30 2086 H 198.726 1.33572 -0.856979 0
M  V30 2087 H 198.747 3.79204 0.313798 0
M  V30 2088 H 198.259 3.58 -1.49858 0
M  V30 2089 H 196.36 3.5983 0.96711 0
M  V30 2090 H 196.473 4.76338 -0.513738 0
M  V30 2091 H 194.837 2.54086 -0.176712 0
M  V30 2092 H 195.62 2.92053 -1.80443 0
M  V30 2093 N 198.065 0.39524 1.52563 0
M  V30 2094 C 199.342 -0.242908 1.94086 0
M  V30 2095 C 199.722 -1.63841 1.33114 0
M  V30 2096 O 199.07 -2.22928 0.501529 0
M  V30 2097 C 199.28 -0.26327 3.48006 0
M  V30 2098 C 200.628 -0.489354 4.21771 0
M  V30 2099 O 201.652 -0.343226 3.54543 0
M  V30 2100 O 200.511 -0.776169 5.4096 0
M  V30 2101 H 197.605 -0.152536 0.812811 0
M  V30 2102 H 200.151 0.450178 1.6362 0
M  V30 2103 H 198.923 0.713985 3.84731 0
M  V30 2104 H 198.546 -1.00103 3.84792 0
M  V30 2105 N 199.544 -1.57102 0.125237 0
M  V30 2106 C 200.793 -1.94582 -0.531095 0
M  V30 2107 C 201.106 -1.01126 -1.6743 0
M  V30 2108 O 202.312 -1.28097 -2.39381 0
M  V30 2109 C 200.768 -3.45839 -0.996164 0
M  V30 2110 C 200.376 -4.47842 0.118926 0
M  V30 2111 C 202.12 -3.92227 -1.62352 0
M  V30 2112 C 200.027 -5.90284 -0.363192 0
M  V30 2113 H 198.957 -0.726391 -0.20217 0
M  V30 2114 H 201.608 -1.82339 0.206092 0
M  V30 2115 H 199.99 -3.53338 -1.78796 0
M  V30 2116 H 201.164 -4.52018 0.895358 0
M  V30 2117 H 199.479 -4.11243 0.653324 0
M  V30 2118 H 202.076 -4.96069 -1.99548 0
M  V30 2119 H 202.419 -3.32552 -2.50429 0
M  V30 2120 H 202.952 -3.87554 -0.897019 0
M  V30 2121 H 199.691 -6.53728 0.481679 0
M  V30 2122 H 199.211 -5.89515 -1.10597 0
M  V30 2123 H 200.89 -6.41752 -0.822377 0
M  V30 2124 N 201.022 0.148545 -1.56898 0
M  V30 2125 C 201.969 1.18345 -1.98149 0
M  V30 2126 C 202.939 1.42772 -0.848848 0
M  V30 2127 O 204.124 1.55132 -1.11079 0
M  V30 2128 C 201.264 2.51231 -2.36594 0
M  V30 2129 C 200.377 2.33991 -3.63142 0
M  V30 2130 C 199.512 3.59902 -3.90697 0
M  V30 2131 C 198.551 3.37692 -5.1052 0
M  V30 2132 N 197.688 4.5573 -5.34092 0
M  V30 2133 H 202.528 0.82467 -2.86362 0
M  V30 2134 H 200.065 0.395756 -1.41676 0
M  V30 2135 H 202.023 3.28713 -2.56912 0
M  V30 2136 H 200.653 2.85059 -1.51463 0
M  V30 2137 H 199.705 1.47572 -3.50609 0
M  V30 2138 H 201.017 2.13539 -4.5078 0
M  V30 2139 H 200.171 4.45813 -4.11505 0
M  V30 2140 H 198.91 3.83357 -3.01477 0
M  V30 2141 H 197.915 2.5017 -4.89587 0
M  V30 2142 H 199.14 3.15637 -6.0129 0
M  V30 2143 H 197.086 4.79361 -4.47827 0
M  V30 2144 H 197.003 4.38274 -6.15996 0
M  V30 2145 H 198.271 5.42858 -5.59397 0
M  V30 2146 N 202.5 1.5196 0.417844 0
M  V30 2147 C 203.746 1.65836 1.16732 0
M  V30 2148 C 204.079 0.382881 1.90388 0
M  V30 2149 O 203.354 -0.618368 1.84408 0
M  V30 2150 C 203.637 2.87466 2.16876 0
M  V30 2151 C 203.49 4.25041 1.47174 0
M  V30 2152 C 204.809 3.04613 3.17646 0
M  V30 2153 H 201.928 0.603515 0.423011 0
M  V30 2154 H 204.57 1.84494 0.454105 0
M  V30 2155 H 202.72 2.71689 2.777 0
M  V30 2156 H 204.392 4.52527 0.895376 0
M  V30 2157 H 202.635 4.26843 0.773806 0
M  V30 2158 H 203.306 5.06176 2.20204 0
M  V30 2159 H 205.782 3.1923 2.66892 0
M  V30 2160 H 204.658 3.91247 3.8499 0
M  V30 2161 H 204.919 2.17541 3.84874 0
M  V30 2162 N 203.978 -0.674533 1.42435 0
M  V30 2163 C 205.227 -1.43034 1.42212 0
M  V30 2164 C 205.54 -1.95555 0.0420788 0
M  V30 2165 O 206.746 -2.71374 -0.0827558 0
M  V30 2166 C 205.202 -2.58748 2.50155 0
M  V30 2167 C 204.81 -2.12925 3.94166 0
M  V30 2168 C 206.554 -3.36257 2.59098 0
M  V30 2169 C 204.461 -3.25723 4.93618 0
M  V30 2170 H 203.391 -0.537345 0.528939 0
M  V30 2171 H 206.042 -0.73024 1.68344 0
M  V30 2172 H 204.424 -3.31128 2.17188 0
M  V30 2173 H 205.598 -1.47697 4.36488 0
M  V30 2174 H 203.913 -1.48354 3.89076 0
M  V30 2175 H 206.51 -4.20264 3.30578 0
M  V30 2176 H 206.853 -3.82866 1.63461 0
M  V30 2177 H 207.386 -2.70947 2.9126 0
M  V30 2178 H 204.125 -2.84105 5.90732 0
M  V30 2179 H 203.645 -3.89732 4.55926 0
M  V30 2180 H 205.324 -3.91186 5.15347 0
M  V30 2181 N 205.456 -1.28612 -0.910864 0
M  V30 2182 C 206.419 -1.12803 -1.9952 0
M  V30 2183 C 207.419 -0.0668264 -1.60661 0
M  V30 2184 O 208.609 -0.312847 -1.71368 0
M  V30 2185 C 205.741 -0.72254 -3.33155 0
M  V30 2186 H 206.934 -2.09109 -2.14973 0
M  V30 2187 H 204.487 -1.11639 -1.09391 0
M  V30 2188 H 205.222 0.241152 -3.23402 0
M  V30 2189 H 205.007 -1.48916 -3.62721 0
M  V30 2190 H 206.497 -0.634666 -4.12749 0
M  V30 2191 N 206.934 1.1197 -1.10907 0
M  V30 2192 C 208.345 1.65114 -0.871446 0
M  V30 2193 C 208.696 1.86885 0.597353 0
M  V30 2194 O 207.821 1.59896 1.45816 0
M  V30 2195 C 208.416 2.99944 -1.5754 0
M  V30 2196 C 206.975 3.50018 -1.38435 0
M  V30 2197 C 206.122 2.24941 -1.62164 0
M  V30 2198 H 209.073 0.956851 -1.2661 0
M  V30 2199 H 209.094 3.66651 -1.01721 0
M  V30 2200 H 208.606 2.84067 -2.64438 0
M  V30 2201 H 206.707 3.71071 -0.337214 0
M  V30 2202 H 206.82 4.29165 -2.12965 0
M  V30 2203 H 205.184 2.3229 -1.04467 0
M  V30 2204 H 205.967 2.11612 -2.70324 0
M  V30 2205 N 208.412 0.89855 1.29475 0
M  V30 2206 C 209.658 0.534065 1.96263 0
M  V30 2207 C 210.013 -0.909415 1.69551 0
M  V30 2208 O 209.306 -1.63596 0.997349 0
M  V30 2209 C 209.5 0.761398 3.49195 0
M  V30 2210 C 209.329 2.22542 3.90775 0
M  V30 2211 C 208.099 2.87264 4.15701 0
M  V30 2212 C 210.297 3.20051 4.02581 0
M  V30 2213 N 208.279 4.24121 4.4384 0
M  V30 2214 C 209.65 4.42023 4.34759 0
M  V30 2215 C 211.705 3.15657 3.85052 0
M  V30 2216 C 210.408 5.60161 4.51235 0
M  V30 2217 C 212.434 4.33078 4.02737 0
M  V30 2218 C 211.796 5.5382 4.35273 0
M  V30 2219 H 207.895 0.245013 0.742625 0
M  V30 2220 H 210.479 1.15912 1.56437 0
M  V30 2221 H 208.65 0.165732 3.88046 0
M  V30 2222 H 210.382 0.362462 4.03074 0
M  V30 2223 H 207.137 2.38064 4.09417 0
M  V30 2224 H 207.561 4.94839 4.6202 0
M  V30 2225 H 212.203 2.23396 3.58962 0
M  V30 2226 H 209.921 6.52913 4.76162 0
M  V30 2227 H 213.507 4.31163 3.90628 0
M  V30 2228 H 212.387 6.43166 4.48672 0
M  V30 2229 N 209.89 -1.43072 0.660911 0
M  V30 2230 C 211.306 -1.56169 0.329173 0
M  V30 2231 C 211.506 -1.64317 -1.16629 0
M  V30 2232 O 210.562 -1.60245 -1.95135 0
M  V30 2233 C 211.875 -2.81873 1.04729 0
M  V30 2234 C 213.423 -2.95627 1.02828 0
M  V30 2235 C 213.898 -4.24174 1.72744 0
M  V30 2236 N 215.389 -4.31055 1.69545 0
M  V30 2237 C 216.124 -5.29304 2.20511 0
M  V30 2238 N 215.62 -6.33786 2.79799 0
M  V30 2239 N 217.413 -5.21008 2.10966 0
M  V30 2240 H 209.564 -1.36027 1.63127 0
M  V30 2241 H 211.827 -0.653823 0.686454 0
M  V30 2242 H 211.533 -2.81942 2.10242 0
M  V30 2243 H 211.407 -3.72338 0.603702 0
M  V30 2244 H 213.794 -2.95094 -0.0184742 0
M  V30 2245 H 213.875 -2.06431 1.51063 0
M  V30 2246 H 213.519 -4.25467 2.7738 0
M  V30 2247 H 213.449 -5.1228 1.2197 0
M  V30 2248 H 215.94 -3.56174 1.26288 0
M  V30 2249 H 216.253 -7.05086 3.16344 0
M  V30 2250 H 214.598 -6.34387 2.83863 0
M  V30 2251 H 217.789 -4.38301 1.64347 0
M  V30 2252 H 217.962 -5.97416 2.50993 0
M  V30 2253 N 211.368 -0.403325 -1.52352 0
M  V30 2254 C 212.278 0.432009 -2.30588 0
M  V30 2255 C 213.294 1.05884 -1.38075 0
M  V30 2256 O 214.47 1.06161 -1.71148 0
M  V30 2257 C 211.535 1.53669 -3.10784 0
M  V30 2258 C 210.596 0.933525 -4.19027 0
M  V30 2259 C 209.829 1.98557 -4.9539 0
M  V30 2260 O 210.052 3.20283 -4.71991 0
M  V30 2261 O 208.986 1.59504 -5.80381 0
M  V30 2262 H 212.812 -0.205739 -3.03002 0
M  V30 2263 H 210.397 -0.166675 -1.48467 0
M  V30 2264 H 212.279 2.17814 -3.60742 0
M  V30 2265 H 210.954 2.15915 -2.41169 0
M  V30 2266 H 209.861 0.254954 -3.7323 0
M  V30 2267 H 211.194 0.35508 -4.90918 0
M  V30 2268 N 212.846 1.57033 -0.133567 0
M  V30 2269 C 214.092 1.96764 0.515326 0
M  V30 2270 C 214.447 1.01653 1.63353 0
M  V30 2271 O 213.74 0.0491374 1.91537 0
M  V30 2272 C 213.934 3.40674 1.08057 0
M  V30 2273 C 213.763 4.49696 0.0186522 0
M  V30 2274 C 212.533 5.03567 -0.418174 0
M  V30 2275 C 214.731 5.08536 -0.767809 0
M  V30 2276 N 212.713 5.9618 -1.46434 0
M  V30 2277 C 214.084 5.97231 -1.6648 0
M  V30 2278 C 216.139 4.9115 -0.817087 0
M  V30 2279 C 214.842 6.70401 -2.60681 0
M  V30 2280 C 216.868 5.65012 -1.74687 0
M  V30 2281 C 216.23 6.53403 -2.63141 0
M  V30 2282 H 212.329 0.765919 0.157771 0
M  V30 2283 H 214.913 1.93395 -0.22506 0
M  V30 2284 H 213.084 3.44662 1.79061 0
M  V30 2285 H 214.816 3.67495 1.69497 0
M  V30 2286 H 211.571 4.73594 -0.0229803 0
M  V30 2287 H 211.995 6.47191 -1.98678 0
M  V30 2288 H 216.637 4.22543 -0.147326 0
M  V30 2289 H 214.355 7.38245 -3.28664 0
M  V30 2290 H 217.941 5.53559 -1.79063 0
M  V30 2291 H 216.821 7.09556 -3.33917 0
M  V30 2292 N 214.325 -0.140222 1.56975 0
M  V30 2293 C 215.55 -0.870414 1.88251 0
M  V30 2294 C 215.975 -1.73637 0.723312 0
M  V30 2295 O 215.333 -1.78329 -0.32689 0
M  V30 2296 C 215.381 -1.69737 3.18154 0
M  V30 2297 O 214.485 -2.80229 3.02565 0
M  V30 2298 H 213.826 -0.242025 0.61832 0
M  V30 2299 H 216.356 -0.128999 2.04193 0
M  V30 2300 H 216.366 -2.09099 3.50345 0
M  V30 2301 H 215.041 -1.06152 4.02125 0
M  V30 2302 H 213.618 -2.44224 2.81796 0
M  V30 2303 N 215.803 -1.52179 -0.40978 0
M  V30 2304 C 217.05 -1.66206 -1.15679 0
M  V30 2305 C 217.378 -0.391674 -1.90516 0
M  V30 2306 O 216.633 0.62533 -1.8544 0
M  V30 2307 C 216.932 -2.83428 -2.17723 0
M  V30 2308 C 216.598 -4.21672 -1.59699 0
M  V30 2309 C 215.26 -4.59274 -1.43599 0
M  V30 2310 C 217.612 -5.07825 -1.17317 0
M  V30 2311 C 214.94 -5.80709 -0.836328 0
M  V30 2312 C 217.292 -6.29864 -0.587691 0
M  V30 2313 C 215.956 -6.66216 -0.413818 0
M  V30 2314 H 215.226 -0.608192 -0.423301 0
M  V30 2315 H 217.873 -1.86279 -0.444097 0
M  V30 2316 H 216.178 -2.57687 -2.95135 0
M  V30 2317 H 217.875 -2.91477 -2.75394 0
M  V30 2318 H 214.465 -3.9204 -1.73213 0
M  V30 2319 H 218.649 -4.79359 -1.28565 0
M  V30 2320 H 213.905 -6.07498 -0.689626 0
M  V30 2321 H 218.079 -6.95948 -0.250894 0
M  V30 2322 H 215.706 -7.60182 0.0529471 0
M  V30 2323 N 217.281 0.66697 -1.42791 0
M  V30 2324 C 218.213 1.7925 -1.42836 0
M  V30 2325 C 219.226 1.59496 -0.326333 0
M  V30 2326 O 220.415 1.6847 -0.589916 0
M  V30 2327 C 217.515 3.16476 -1.21229 0
M  V30 2328 C 216.688 3.63011 -2.44013 0
M  V30 2329 C 215.747 4.78993 -2.17834 0
M  V30 2330 O 214.773 4.89137 -2.91091 0
M  V30 2331 N 215.975 5.68248 -1.18635 0
M  V30 2332 H 218.74 1.79695 -2.39854 0
M  V30 2333 H 216.301 0.850338 -1.37771 0
M  V30 2334 H 218.293 3.91734 -1.01621 0
M  V30 2335 H 216.863 3.10884 -0.32706 0
M  V30 2336 H 216.083 2.78346 -2.79137 0
M  V30 2337 H 217.371 3.90845 -3.25757 0
M  V30 2338 H 216.769 5.62712 -0.580615 0
M  V30 2339 H 215.326 6.43285 -1.05013 0
M  V30 2340 N 218.759 1.29093 0.90403 0
M  V30 2341 C 220.007 1.16583 1.65085 0
M  V30 2342 C 220.328 -0.283933 1.92922 0
M  V30 2343 O 219.598 -1.19509 1.55224 0
M  V30 2344 H 218.178 0.428467 0.611903 0
M  V30 2345 H 220.84 1.61959 1.08422 0
M  V30 2346 H 219.936 1.71266 2.6091 0
M  V30 2347 N 220.237 -1.11381 1.11499 0
M  V30 2348 C 221.653 -1.35143 0.849031 0
M  V30 2349 C 221.853 -1.94515 -0.525938 0
M  V30 2350 O 220.909 -2.1785 -1.27662 0
M  V30 2351 C 222.222 -2.28249 1.95762 0
M  V30 2352 C 223.77 -2.41812 1.98736 0
M  V30 2353 C 224.245 -3.3824 3.088 0
M  V30 2354 N 225.736 -3.45803 3.08179 0
M  V30 2355 C 226.471 -4.20358 3.89982 0
M  V30 2356 N 225.967 -4.97884 4.8175 0
M  V30 2357 N 227.76 -4.15877 3.78157 0
M  V30 2358 H 219.911 -0.712062 2.00109 0
M  V30 2359 H 222.174 -0.376025 0.870235 0
M  V30 2360 H 221.88 -1.91817 2.94787 0
M  V30 2361 H 221.754 -3.28473 1.85433 0
M  V30 2362 H 224.141 -2.77518 1.00338 0
M  V30 2363 H 224.222 -1.41437 2.13141 0
M  V30 2364 H 223.866 -3.03261 4.07425 0
M  V30 2365 H 223.796 -4.38471 2.91635 0
M  V30 2366 H 226.287 -2.90506 2.41691 0
M  V30 2367 H 226.6 -5.52142 5.40702 0
M  V30 2368 H 224.945 -4.97043 4.85771 0
M  V30 2369 H 228.136 -3.544 3.05808 0
M  V30 2370 H 228.309 -4.73723 4.42143 0
M  V30 2371 N 221.715 -0.905404 -1.28997 0
M  V30 2372 C 222.662 -0.385892 -2.27551 0
M  V30 2373 C 223.632 0.535113 -1.57244 0
M  V30 2374 O 224.817 0.459119 -1.85194 0
M  V30 2375 C 221.957 0.375461 -3.43051 0
M  V30 2376 C 221.07 -0.577092 -4.28128 0
M  V30 2377 C 220.205 0.201879 -5.30816 0
M  V30 2378 C 219.244 -0.744829 -6.07551 0
M  V30 2379 N 218.381 9.42587e-05 -7.021 0
M  V30 2380 H 223.221 -1.23139 -2.71368 0
M  V30 2381 H 220.758 -0.618542 -1.33463 0
M  V30 2382 H 222.716 0.832992 -4.088 0
M  V30 2383 H 221.346 1.18537 -3.00248 0
M  V30 2384 H 220.398 -1.15315 -3.62501 0
M  V30 2385 H 221.71 -1.30152 -4.8152 0
M  V30 2386 H 220.864 0.720351 -6.02408 0
M  V30 2387 H 219.603 0.959413 -4.7817 0
M  V30 2388 H 218.608 -1.27475 -5.34818 0
M  V30 2389 H 219.833 -1.50178 -6.62286 0
M  V30 2390 H 217.779 0.739791 -6.51815 0
M  V30 2391 H 217.696 -0.664321 -7.53076 0
M  V30 2392 H 218.964 0.498644 -7.77903 0
M  V30 2393 N 223.193 1.4272 -0.668489 0
M  V30 2394 C 224.103 2.34596 0.0139753 0
M  V30 2395 C 225.119 1.5474 0.795703 0
M  V30 2396 O 226.295 1.87334 0.739466 0
M  V30 2397 C 223.36 3.33202 0.957982 0
M  V30 2398 C 222.421 4.28957 0.17149 0
M  V30 2399 C 221.654 5.22853 1.07053 0
M  V30 2400 O 221.877 5.21531 2.31001 0
M  V30 2401 O 220.811 5.9952 0.534727 0
M  V30 2402 H 224.637 2.9448 -0.742661 0
M  V30 2403 H 222.222 1.43117 -0.428705 0
M  V30 2404 H 224.104 3.93796 1.50008 0
M  V30 2405 H 222.779 2.758 1.69458 0
M  V30 2406 H 221.686 3.71796 -0.414558 0
M  V30 2407 H 223.019 4.89383 -0.52586 0
M  V30 2408 N 224.671 0.411399 1.52136 0
M  V30 2409 C 225.604 -0.457614 2.23565 0
M  V30 2410 C 226.582 -1.04613 1.24478 0
M  V30 2411 O 227.766 -1.09356 1.53536 0
M  V30 2412 C 224.893 -1.6354 2.96602 0
M  V30 2413 C 223.939 -1.17005 4.10137 0
M  V30 2414 S 224.772 -0.13333 5.35334 0
M  V30 2415 C 225.928 -1.31638 6.119 0
M  V30 2416 H 226.161 0.148883 2.96927 0
M  V30 2417 H 223.694 0.195713 1.53155 0
M  V30 2418 H 225.652 -2.31074 3.39286 0
M  V30 2419 H 224.313 -2.21324 2.22878 0
M  V30 2420 H 223.506 -2.05005 4.60422 0
M  V30 2421 H 223.108 -0.573319 3.6958 0
M  V30 2422 H 225.4 -2.23957 6.39413 0
M  V30 2423 H 226.343 -0.854014 7.02931 0
M  V30 2424 H 226.751 -1.54321 5.42997 0
M  V30 2425 N 226.149 -1.5696 0.141893 0
M  V30 2426 C 227.398 -1.95135 -0.510427 0
M  V30 2427 C 227.711 -1.02896 -1.66348 0
M  V30 2428 O 228.917 -1.30629 -2.38009 0
M  V30 2429 C 227.373 -3.46876 -0.959427 0
M  V30 2430 C 226.981 -4.47691 0.166419 0
M  V30 2431 C 228.725 -3.93927 -1.58183 0
M  V30 2432 C 226.632 -5.90636 -0.300565 0
M  V30 2433 H 225.562 -0.728494 -0.194454 0
M  V30 2434 H 228.213 -1.8211 0.22542 0
M  V30 2435 H 226.595 -3.55215 -1.75038 0
M  V30 2436 H 227.769 -4.51043 0.94325 0
M  V30 2437 H 226.084 -4.10527 0.696905 0
M  V30 2438 H 228.681 -4.98158 -1.94275 0
M  V30 2439 H 229.024 -3.3519 -2.46888 0
M  V30 2440 H 229.557 -3.88484 -0.855863 0
M  V30 2441 H 226.296 -6.5318 0.550989 0
M  V30 2442 H 225.816 -5.90655 -1.04338 0
M  V30 2443 H 227.495 -6.42588 -0.754265 0
M  V30 2444 N 227.627 0.131896 -1.57047 0
M  V30 2445 C 228.59 1.14638 -1.98471 0
M  V30 2446 C 229.59 1.35029 -0.873148 0
M  V30 2447 O 230.78 1.31764 -1.13946 0
M  V30 2448 C 227.912 2.50358 -2.31373 0
M  V30 2449 H 229.105 0.79064 -2.8929 0
M  V30 2450 H 226.658 0.375761 -1.51716 0
M  V30 2451 H 227.393 2.90876 -1.43393 0
M  V30 2452 H 227.178 2.36915 -3.12432 0
M  V30 2453 H 228.668 3.23395 -2.64207 0
M  V30 2454 N 229.106 1.52395 0.401703 0
M  V30 2455 C 230.336 1.70429 1.1678 0
M  V30 2456 C 230.744 0.416702 1.84554 0
M  V30 2457 O 230.087 -0.617697 1.73003 0
M  V30 2458 C 230.149 2.78919 2.26814 0
M  V30 2459 C 229.813 4.20437 1.79113 0
M  V30 2460 C 230.81 5.04028 1.27482 0
M  V30 2461 C 228.495 4.66704 1.85722 0
M  V30 2462 C 230.489 6.31961 0.830913 0
M  V30 2463 C 228.176 5.94625 1.40942 0
M  V30 2464 C 229.174 6.77082 0.897128 0
M  V30 2465 O 228.862 8.02607 0.455822 0
M  V30 2466 H 228.594 0.574272 0.356634 0
M  V30 2467 H 231.148 1.99767 0.477724 0
M  V30 2468 H 229.378 2.44973 2.99207 0
M  V30 2469 H 231.067 2.8548 2.88541 0
M  V30 2470 H 231.833 4.69471 1.21744 0
M  V30 2471 H 227.712 4.0262 2.24539 0
M  V30 2472 H 231.256 6.96271 0.430368 0
M  V30 2473 H 227.153 6.28688 1.46362 0
M  V30 2474 H 227.921 8.16453 0.578457 0
M  V30 2475 N 230.584 -0.659388 1.43143 0
M  V30 2476 C 231.547 -1.75432 1.47501 0
M  V30 2477 C 232.547 -1.56707 0.360512 0
M  V30 2478 O 233.737 -1.62717 0.622002 0
M  V30 2479 C 230.869 -3.14239 1.32162 0
M  V30 2480 H 232.062 -1.7295 2.45006 0
M  V30 2481 H 229.615 -0.870469 1.29817 0
M  V30 2482 H 230.35 -3.22336 0.356401 0
M  V30 2483 H 230.135 -3.29235 2.12948 0
M  V30 2484 H 231.625 -3.94094 1.3813 0
M  V30 2485 N 232.062 -1.29571 -0.897171 0
M  V30 2486 C 232.972 -1.16808 -2.03453 0
M  V30 2487 C 233.988 -0.0907471 -1.73763 0
M  V30 2488 O 235.164 -0.303312 -1.99103 0
M  V30 2489 C 232.229 -0.848264 -3.36163 0
M  V30 2490 C 231.29 -2.0097 -3.79354 0
M  V30 2491 C 230.523 -1.70505 -5.05731 0
M  V30 2492 O 230.746 -0.62718 -5.66941 0
M  V30 2493 O 229.68 -2.5538 -5.45036 0
M  V30 2494 H 233.506 -2.12325 -2.17144 0
M  V30 2495 H 231.091 -1.09047 -1.02123 0
M  V30 2496 H 232.973 -0.684581 -4.15802 0
M  V30 2497 H 231.648 0.0771071 -3.23608 0
M  V30 2498 H 230.555 -2.22863 -3.00471 0
M  V30 2499 H 231.888 -2.91636 -3.96496 0
M  V30 2500 N 233.54 1.10788 -1.12088 0
M  V30 2501 C 234.503 2.15207 -0.788577 0
M  V30 2502 C 235.503 1.59609 0.195317 0
M  V30 2503 O 236.693 1.74174 -0.0300193 0
M  V30 2504 C 233.825 3.4047 -0.171174 0
M  V30 2505 H 235.018 2.46116 -1.71368 0
M  V30 2506 H 232.571 1.26089 -0.923652 0
M  V30 2507 H 233.306 3.15176 0.763832 0
M  V30 2508 H 233.091 3.82109 -0.879514 0
M  V30 2509 H 234.581 4.17576 0.04496 0
M  V30 2510 N 235.018 0.912232 1.28515 0
M  V30 2511 C 235.968 0.370649 2.24967 0
M  V30 2512 C 236.952 -0.516375 1.52389 0
M  V30 2513 O 238.144 -0.356345 1.73376 0
M  V30 2514 C 235.273 -0.389526 3.41083 0
M  V30 2515 C 234.359 0.51313 4.20984 0
M  V30 2516 N 234.75 1.62604 4.78951 0
M  V30 2517 C 233.048 0.313235 4.44899 0
M  V30 2518 C 233.749 2.18619 5.39055 0
M  V30 2519 N 232.725 1.47765 5.23132 0
M  V30 2520 H 236.527 1.22061 2.67354 0
M  V30 2521 H 234.041 0.764712 1.43269 0
M  V30 2522 H 236.038 -0.794353 4.09262 0
M  V30 2523 H 234.698 -1.2366 3.0023 0
M  V30 2524 H 235.709 2.00864 4.77362 0
M  V30 2525 H 232.386 -0.494452 4.14562 0
M  V30 2526 H 233.776 3.12228 5.94948 0
M  V30 2527 N 236.496 -1.42363 0.676048 0
M  V30 2528 C 237.744 -2.01123 0.198437 0
M  V30 2529 C 238.065 -1.53731 -1.19966 0
M  V30 2530 O 237.335 -0.759518 -1.80577 0
M  V30 2531 H 235.915 -0.743678 0.0703721 0
M  V30 2532 H 238.577 -1.74263 0.872837 0
M  V30 2533 H 237.673 -3.11454 0.200686 0
M  V30 2534 N 237.974 -0.419461 -1.51915 0
M  V30 2535 C 239.223 0.154346 -2.01109 0
M  V30 2536 C 239.536 1.45338 -1.30905 0
M  V30 2537 O 240.742 2.10906 -1.7097 0
M  V30 2538 C 239.198 0.325615 -3.58424 0
M  V30 2539 C 238.806 -0.961934 -4.37551 0
M  V30 2540 C 240.55 0.854155 -4.15818 0
M  V30 2541 C 238.457 -0.757287 -5.86531 0
M  V30 2542 H 237.387 0.0614563 -0.751491 0
M  V30 2543 H 240.038 -0.54649 -1.75173 0
M  V30 2544 H 238.42 1.08903 -3.80731 0
M  V30 2545 H 239.594 -1.7323 -4.26999 0
M  V30 2546 H 237.909 -1.41766 -3.91524 0
M  V30 2547 H 240.506 1.02346 -5.24814 0
M  V30 2548 H 240.849 1.83172 -3.73837 0
M  V30 2549 H 241.382 0.149528 -3.97519 0
M  V30 2550 H 238.121 -1.70671 -6.32892 0
M  V30 2551 H 237.641 -0.0264061 -5.99794 0
M  V30 2552 H 239.32 -0.403482 -6.45741 0
M  V30 2553 N 239.452 1.56882 -0.150215 0
M  V30 2554 C 240.863 1.82995 0.370076 0
M  V30 2555 C 241.214 1.06907 1.64515 0
M  V30 2556 O 240.339 0.315369 2.1409 0
M  V30 2557 C 240.934 3.31942 0.678208 0
M  V30 2558 C 239.493 3.58625 1.14301 0
M  V30 2559 C 238.64 2.76792 0.167778 0
M  V30 2560 H 241.591 1.54209 -0.374858 0
M  V30 2561 H 241.612 3.48272 1.53254 0
M  V30 2562 H 241.124 3.87294 -0.249991 0
M  V30 2563 H 239.225 3.08664 2.08704 0
M  V30 2564 H 239.338 4.67073 1.06676 0
M  V30 2565 H 237.702 2.45972 0.661037 0
M  V30 2566 H 238.485 3.34916 -0.754069 0
M  V30 2567 N 240.93 -0.123565 1.57115 0
M  V30 2568 C 242.176 -0.833386 1.84885 0
M  V30 2569 C 242.509 -1.79742 0.735292 0
M  V30 2570 O 241.784 -1.92764 -0.25925 0
M  V30 2571 C 242.067 -1.5873 3.23228 0
M  V30 2572 C 241.92 -0.643183 4.45178 0
M  V30 2573 C 243.239 -2.54453 3.59085 0
M  V30 2574 H 240.358 -0.301518 0.6725 0
M  V30 2575 H 243 -0.097778 1.89748 0
M  V30 2576 H 241.15 -2.21438 3.19214 0
M  V30 2577 H 242.822 -0.0253015 4.61293 0
M  V30 2578 H 241.065 0.0456139 4.33776 0
M  V30 2579 H 241.736 -1.20724 5.38637 0
M  V30 2580 H 244.212 -2.01853 3.63861 0
M  V30 2581 H 243.088 -3.04238 4.5687 0
M  V30 2582 H 243.349 -3.36906 2.86264 0
M  V30 2583 N 242.408 -1.52605 -0.393616 0
M  V30 2584 C 243.819 -1.59417 -0.971761 0
M  V30 2585 C 244.17 -0.444173 -1.91106 0
M  V30 2586 O 243.295 0.433382 -2.12016 0
M  V30 2587 C 243.89 -2.88936 -1.76921 0
M  V30 2588 C 242.449 -2.98175 -2.29714 0
M  V30 2589 C 241.596 -2.54491 -1.10135 0
M  V30 2590 H 244.547 -1.57751 -0.173317 0
M  V30 2591 H 244.568 -2.75163 -2.62804 0
M  V30 2592 H 244.08 -3.72616 -1.08532 0
M  V30 2593 H 242.181 -2.19024 -3.01429 0
M  V30 2594 H 242.294 -4.02726 -2.59517 0
M  V30 2595 H 240.658 -2.08702 -1.45999 0
M  V30 2596 H 241.441 -3.4056 -0.432874 0
M  V30 2597 N 243.887 0.651787 -1.4349 0
M  V30 2598 C 245.133 1.41376 -1.45398 0
M  V30 2599 C 245.466 1.94041 -0.0784823 0
M  V30 2600 O 244.741 1.72379 0.900878 0
M  V30 2601 C 245.024 2.59414 -2.49752 0
M  V30 2602 C 244.877 2.12232 -3.96582 0
M  V30 2603 C 246.196 3.61626 -2.50827 0
M  V30 2604 H 243.315 0.512719 -0.529422 0
M  V30 2605 H 245.957 0.738796 -1.75048 0
M  V30 2606 H 244.107 3.16997 -2.246 0
M  V30 2607 H 245.779 1.59639 -4.32797 0
M  V30 2608 H 244.022 1.43592 -4.09346 0
M  V30 2609 H 244.693 2.9712 -4.65214 0
M  V30 2610 H 247.169 3.13805 -2.7325 0
M  V30 2611 H 246.045 4.41766 -3.25783 0
M  V30 2612 H 246.306 4.14314 -1.5426 0
M  V30 2613 N 245.365 1.30045 0.890287 0
M  V30 2614 C 246.593 1.21472 1.67487 0
M  V30 2615 C 247.008 -0.223241 1.87476 0
M  V30 2616 O 246.365 -1.14828 1.41847 0
M  V30 2617 C 246.416 1.93394 3.05419 0
M  V30 2618 O 246.137 3.31576 2.86337 0
M  V30 2619 C 247.638 1.91414 3.99844 0
M  V30 2620 H 244.858 0.420604 0.522813 0
M  V30 2621 H 247.402 1.7158 1.11268 0
M  V30 2622 H 245.557 1.47099 3.58386 0
M  V30 2623 H 245.971 3.67929 3.73802 0
M  V30 2624 H 247.445 2.46285 4.94012 0
M  V30 2625 H 247.922 0.891833 4.3005 0
M  V30 2626 H 248.528 2.37496 3.52811 0
M  V30 2627 N 246.843 -1.10192 1.12674 0
M  V30 2628 C 247.775 -2.16418 0.754701 0
M  V30 2629 C 248.788 -1.61309 -0.21986 0
M  V30 2630 O 249.977 -1.785 -0.000826841 0
M  V30 2631 C 247.077 -3.38762 0.096698 0
M  V30 2632 C 246.25 -4.23307 1.10136 0
M  V30 2633 C 245.309 -5.24092 0.470513 0
M  V30 2634 O 244.335 -5.57906 1.12824 0
M  V30 2635 N 245.537 -5.75491 -0.760948 0
M  V30 2636 H 248.302 -2.48943 1.66875 0
M  V30 2637 H 245.863 -1.25834 1.01869 0
M  V30 2638 H 247.855 -4.03291 -0.337384 0
M  V30 2639 H 246.425 -3.04192 -0.720153 0
M  V30 2640 H 245.645 -3.55036 1.71299 0
M  V30 2641 H 246.933 -4.76624 1.78064 0
M  V30 2642 H 246.331 -5.50222 -1.31424 0
M  V30 2643 H 244.888 -6.41792 -1.13781 0
M  V30 2644 N 248.321 -0.919034 -1.28029 0
M  V30 2645 C 249.231 -0.416756 -2.30869 0
M  V30 2646 C 250.247 0.498235 -1.66714 0
M  V30 2647 O 251.423 0.383144 -1.97722 0
M  V30 2648 C 248.488 0.330274 -3.45123 0
M  V30 2649 C 247.549 -0.618578 -4.2482 0
M  V30 2650 C 246.782 0.0928959 -5.33619 0
M  V30 2651 O 247.005 1.31375 -5.55065 0
M  V30 2652 O 245.939 -0.574499 -5.99152 0
M  V30 2653 H 249.765 -1.27043 -2.75851 0
M  V30 2654 H 247.35 -0.684052 -1.3282 0
M  V30 2655 H 249.232 0.751972 -4.14636 0
M  V30 2656 H 247.907 1.1597 -3.02213 0
M  V30 2657 H 246.814 -1.08978 -3.57875 0
M  V30 2658 H 248.147 -1.41497 -4.71423 0
M  V30 2659 N 249.799 1.42003 -0.683588 0
M  V30 2660 C 250.746 2.30798 -0.0107309 0
M  V30 2661 C 251.716 1.4645 0.783688 0
M  V30 2662 O 252.901 1.75263 0.754156 0
M  V30 2663 C 250.041 3.3238 0.928306 0
M  V30 2664 C 249.154 4.31814 0.126776 0
M  V30 2665 C 248.289 5.20468 1.06236 0
M  V30 2666 C 247.328 6.11577 0.253035 0
M  V30 2667 N 246.465 6.92754 1.14179 0
M  V30 2668 H 251.305 2.8778 -0.773727 0
M  V30 2669 H 248.842 1.41745 -0.393283 0
M  V30 2670 H 250.8 3.89813 1.48666 0
M  V30 2671 H 249.43 2.76976 1.65783 0
M  V30 2672 H 248.482 3.76427 -0.54833 0
M  V30 2673 H 249.794 4.96276 -0.501192 0
M  V30 2674 H 248.948 5.82677 1.69035 0
M  V30 2675 H 247.687 4.56204 1.7242 0
M  V30 2676 H 246.692 5.48428 -0.388108 0
M  V30 2677 H 247.917 6.77892 -0.404839 0
M  V30 2678 H 245.863 6.3111 1.78987 0
M  V30 2679 H 245.78 7.53855 0.569111 0
M  V30 2680 H 247.048 7.59441 1.75697 0
M  V30 2681 N 251.277 0.427512 1.51691 0
M  V30 2682 C 252.688 -0.0378867 1.86662 0
M  V30 2683 C 253.039 -1.42819 1.34525 0
M  V30 2684 O 252.164 -2.05037 0.692014 0
M  V30 2685 C 252.759 -0.0755266 3.38716 0
M  V30 2686 C 251.318 -0.485309 3.73258 0
M  V30 2687 C 250.465 0.328399 2.75349 0
M  V30 2688 H 253.416 0.64379 1.45055 0
M  V30 2689 H 253.437 -0.887056 3.70016 0
M  V30 2690 H 252.949 0.936487 3.76632 0
M  V30 2691 H 251.05 -1.50329 3.40928 0
M  V30 2692 H 251.163 -0.21693 4.78609 0
M  V30 2693 H 249.527 -0.211905 2.53817 0
M  V30 2694 H 250.31 1.3391 3.16106 0
M  V30 2695 N 252.755 -1.56801 0.158532 0
M  V30 2696 C 253.985 -2.00568 -0.495583 0
M  V30 2697 C 254.393 -1.03774 -1.58201 0
M  V30 2698 O 253.736 -0.0285797 -1.83678 0
M  V30 2699 C 253.798 -3.40768 -1.14532 0
M  V30 2700 C 253.462 -4.56553 -0.202101 0
M  V30 2701 C 254.459 -5.16714 0.574675 0
M  V30 2702 C 252.144 -5.02197 -0.101648 0
M  V30 2703 C 254.138 -6.20939 1.43924 0
M  V30 2704 C 251.825 -6.06274 0.766508 0
M  V30 2705 C 252.823 -6.65515 1.53555 0
M  V30 2706 O 252.511 -7.67575 2.38922 0
M  V30 2707 H 252.243 -0.662893 -0.13247 0
M  V30 2708 H 254.797 -2.03829 0.253559 0
M  V30 2709 H 253.027 -3.34381 -1.94233 0
M  V30 2710 H 254.716 -3.6857 -1.70033 0
M  V30 2711 H 255.482 -4.82341 0.507167 0
M  V30 2712 H 251.361 -4.55807 -0.689994 0
M  V30 2713 H 254.905 -6.67107 2.03996 0
M  V30 2714 H 250.802 -6.40073 0.835266 0
M  V30 2715 H 251.57 -7.84844 2.32296 0
M  V30 2716 N 254.233 0.115231 -1.57178 0
M  V30 2717 C 255.458 0.840354 -1.89612 0
M  V30 2718 C 255.883 1.72464 -0.750845 0
M  V30 2719 O 255.241 1.78826 0.298478 0
M  V30 2720 C 255.289 1.64654 -3.20814 0
M  V30 2721 O 254.393 2.7538 -3.06985 0
M  V30 2722 H 253.734 0.232158 -0.622092 0
M  V30 2723 H 256.264 0.0964977 -2.04372 0
M  V30 2724 H 256.274 2.03499 -3.53627 0
M  V30 2725 H 254.949 0.997416 -4.03763 0
M  V30 2726 H 253.526 2.3971 -2.85646 0
M  V30 2727 N 255.711 1.52812 0.385517 0
M  V30 2728 C 256.644 1.72592 1.49289 0
M  V30 2729 C 257.622 0.573819 1.52138 0
M  V30 2730 O 258.806 0.80404 1.70492 0
M  V30 2731 C 255.933 1.78669 2.87741 0
M  V30 2732 C 254.979 3.00455 3.02703 0
M  V30 2733 S 255.812 4.60366 2.73538 0
M  V30 2734 C 256.968 4.69263 4.14177 0
M  V30 2735 H 257.201 2.66248 1.32285 0
M  V30 2736 H 254.734 1.43148 0.578611 0
M  V30 2737 H 256.692 1.82855 3.67524 0
M  V30 2738 H 255.353 0.861 3.02069 0
M  V30 2739 H 254.546 3.01258 4.04054 0
M  V30 2740 H 254.148 2.94278 2.30817 0
M  V30 2741 H 256.44 4.48092 5.08153 0
M  V30 2742 H 257.383 5.71276 4.18388 0
M  V30 2743 H 257.791 3.98072 4.00249 0
M  V30 2744 N 257.189 -0.644168 1.43834 0
M  V30 2745 C 258.466 -1.40188 1.36406 0
M  V30 2746 C 258.846 -2.11094 0.0163124 0
M  V30 2747 O 258.194 -2.05426 -1.00062 0
M  V30 2748 C 258.404 -2.3791 2.55343 0
M  V30 2749 C 259.752 -3.01637 2.98832 0
M  V30 2750 O 260.776 -2.48237 2.55455 0
M  V30 2751 O 259.635 -3.98477 3.74003 0
M  V30 2752 H 256.729 -0.626773 0.539523 0
M  V30 2753 H 259.275 -0.670317 1.559 0
M  V30 2754 H 258.047 -1.84525 3.4506 0
M  V30 2755 H 257.67 -3.18503 2.37995 0
M  V30 2756 N 258.668 -1.30515 -0.883378 0
M  V30 2757 C 259.631 -1.1701 -1.97082 0
M  V30 2758 C 260.631 -0.10089 -1.60483 0
M  V30 2759 O 261.821 -0.349127 -1.70666 0
M  V30 2760 C 258.953 -0.793045 -3.31547 0
M  V30 2761 H 260.146 -2.13622 -2.10489 0
M  V30 2762 H 257.699 -1.13935 -1.06998 0
M  V30 2763 H 258.434 0.172499 -3.23841 0
M  V30 2764 H 258.219 -1.56576 -3.5948 0
M  V30 2765 H 259.709 -0.722073 -4.1131 0
M  V30 2766 N 260.146 1.09593 -1.13257 0
M  V30 2767 C 261.094 2.18271 -0.803783 0
M  V30 2768 C 262.088 1.68054 0.213148 0
M  V30 2769 O 263.294 1.79862 0.0704699 0
M  V30 2770 H 259.669 0.711949 -0.242143 0
M  V30 2771 H 261.64 2.43235 -1.72856 0
M  V30 2772 C 260.389 3.46536 -0.28424 0
M  V30 2773 H 259.712 3.85545 -1.05807 0
M  V30 2774 H 261.152 4.23899 -0.0925945 0
M  V30 2775 C 259.611 3.22036 0.989684 0
M  V30 2776 O 260.141 3.44509 2.06584 0
M  V30 2777 N 258.347 2.7565 0.920086 0
M  V30 2778 H 257.894 2.57562 0.0442019 0
M  V30 2779 H 257.852 2.59635 1.77306 0
M  V30 2780 N 261.624 0.925811 1.2754 0
M  V30 2781 C 262.554 0.440748 2.29303 0
M  V30 2782 C 263.535 -0.497971 1.62648 0
M  V30 2783 O 264.72 -0.403126 1.8997 0
M  V30 2784 C 261.85 -0.309048 3.45922 0
M  V30 2785 C 260.804 0.54166 4.24559 0
M  V30 2786 C 260.13 -0.337191 5.33636 0
M  V30 2787 C 261.43 1.80516 4.90114 0
M  V30 2788 H 263.124 1.29121 2.70126 0
M  V30 2789 H 260.67 0.622323 1.29858 0
M  V30 2790 H 262.623 -0.659315 4.1621 0
M  V30 2791 H 261.347 -1.19352 3.04011 0
M  V30 2792 H 260.006 0.874609 3.56014 0
M  V30 2793 H 259.654 -1.22056 4.87966 0
M  V30 2794 H 259.354 0.228497 5.87156 0
M  V30 2795 H 260.878 -0.683072 6.06767 0
M  V30 2796 H 262.292 1.52307 5.52698 0
M  V30 2797 H 260.689 2.3142 5.53683 0
M  V30 2798 H 261.759 2.52581 4.13921 0
M  V30 2799 N 263.102 -1.41638 0.69111 0
M  V30 2800 C 264.032 -2.3347 0.037248 0
M  V30 2801 C 265.013 -1.51575 -0.771947 0
M  V30 2802 O 266.198 -1.80126 -0.72582 0
M  V30 2803 C 263.328 -3.35354 -0.903064 0
M  V30 2804 C 262.282 -4.27526 -0.201288 0
M  V30 2805 C 261.608 -5.19747 -1.25565 0
M  V30 2806 C 262.908 -5.13959 0.929689 0
M  V30 2807 H 264.602 -2.88397 0.804227 0
M  V30 2808 H 262.148 -1.38669 0.388189 0
M  V30 2809 H 264.101 -3.98519 -1.36969 0
M  V30 2810 H 262.825 -2.78767 -1.70166 0
M  V30 2811 H 261.484 -3.65779 0.245265 0
M  V30 2812 H 261.132 -4.59479 -2.04666 0
M  V30 2813 H 260.832 -5.8225 -0.791128 0
M  V30 2814 H 262.356 -5.85789 -1.72288 0
M  V30 2815 H 263.77 -5.70718 0.543546 0
M  V30 2816 H 262.167 -5.85379 1.32103 0
M  V30 2817 H 263.237 -4.51389 1.77133 0
M  V30 2818 N 264.58 -0.43555 -1.51462 0
M  V30 2819 C 265.53 0.394701 -2.24558 0
M  V30 2820 C 266.514 0.99157 -1.26715 0
M  V30 2821 O 267.706 0.910007 -1.51815 0
M  V30 2822 C 264.835 1.4963 -3.08975 0
M  V30 2823 C 263.921 0.908912 -4.14246 0
M  V30 2824 N 264.312 0.0505335 -5.05775 0
M  V30 2825 C 262.61 1.17668 -4.30198 0
M  V30 2826 C 263.311 -0.279161 -5.8103 0
M  V30 2827 N 262.287 0.336767 -5.42556 0
M  V30 2828 H 266.089 -0.267106 -2.92684 0
M  V30 2829 H 263.603 -0.247518 -1.60503 0
M  V30 2830 H 265.6 2.10394 -3.59917 0
M  V30 2831 H 264.26 2.16046 -2.42393 0
M  V30 2832 H 265.271 -0.31577 -5.16936 0
M  V30 2833 H 261.948 1.83847 -3.74842 0
M  V30 2834 H 263.338 -0.977553 -6.64751 0
M  V30 2835 N 266.058 1.56714 -0.166846 0
M  V30 2836 C 267.307 1.95922 0.479318 0
M  V30 2837 C 267.62 1.05529 1.6469 0
M  V30 2838 O 268.826 1.34399 2.35901 0
M  V30 2839 C 267.282 3.48359 0.90412 0
M  V30 2840 C 266.89 4.47369 -0.237621 0
M  V30 2841 C 268.634 3.96394 1.51896 0
M  V30 2842 C 266.541 5.91039 0.206561 0
M  V30 2843 H 265.471 0.731495 0.18284 0
M  V30 2844 H 268.122 1.81728 -0.254363 0
M  V30 2845 H 266.504 3.57955 1.69365 0
M  V30 2846 H 267.678 4.49485 -1.01489 0
M  V30 2847 H 265.993 4.09366 -0.762128 0
M  V30 2848 H 268.59 5.01186 1.86325 0
M  V30 2849 H 268.933 3.39075 2.41524 0
M  V30 2850 H 269.466 3.89796 0.79395 0
M  V30 2851 H 266.205 6.52221 -0.654834 0
M  V30 2852 H 265.725 5.9224 0.949282 0
M  V30 2853 H 267.404 6.43707 0.651939 0
M  V30 2854 N 267.536 -0.106894 1.57237 0
M  V30 2855 C 268.761 -0.830287 1.90055 0
M  V30 2856 C 269.186 -1.72064 0.75998 0
M  V30 2857 O 268.544 -1.78982 -0.288991 0
M  V30 2858 C 268.592 -1.6295 3.21683 0
M  V30 2859 O 267.696 -2.73748 3.08441 0
M  V30 2860 H 267.037 -0.228855 0.623315 0
M  V30 2861 H 269.567 -0.085658 2.04421 0
M  V30 2862 H 269.577 -2.01621 3.54701 0
M  V30 2863 H 268.252 -0.975989 4.04286 0
M  V30 2864 H 266.829 -2.38192 2.86913 0
M  V30 2865 N 269.014 -1.53014 -0.377408 0
M  V30 2866 C 270.244 -1.72265 -1.14054 0
M  V30 2867 C 270.652 -0.44601 -1.83868 0
M  V30 2868 O 269.995 0.590095 -1.73964 0
M  V30 2869 C 270.057 -2.82492 -2.22348 0
M  V30 2870 C 269.721 -4.23233 -1.72402 0
M  V30 2871 C 270.718 -5.05992 -1.19448 0
M  V30 2872 C 268.403 -4.696 -1.78273 0
M  V30 2873 C 270.397 -6.33203 -0.730268 0
M  V30 2874 C 268.084 -5.96792 -1.31464 0
M  V30 2875 C 269.082 -6.78424 -0.789297 0
M  V30 2876 O 268.77 -8.0323 -0.328077 0
M  V30 2877 H 268.502 -0.579873 -0.347453 0
M  V30 2878 H 271.056 -2.00502 -0.445882 0
M  V30 2879 H 269.286 -2.49702 -2.95272 0
M  V30 2880 H 270.975 -2.90034 -2.83963 0
M  V30 2881 H 271.741 -4.71349 -1.14259 0
M  V30 2882 H 267.62 -4.06142 -2.18106 0
M  V30 2883 H 271.164 -6.96868 -0.319542 0
M  V30 2884 H 267.061 -6.30937 -1.36342 0
M  V30 2885 H 267.829 -8.1727 -0.448493 0
M  V30 2886 N 270.492 0.636531 -1.44174 0
M  V30 2887 C 271.402 1.77754 -1.53103 0
M  V30 2888 C 272.418 1.68928 -0.417034 0
M  V30 2889 O 273.594 1.89801 -0.6736 0
M  V30 2890 C 270.659 3.14115 -1.46741 0
M  V30 2891 C 269.72 3.34612 -2.68948 0
M  V30 2892 C 268.953 4.64467 -2.6288 0
M  V30 2893 O 269.176 5.44919 -1.68581 0
M  V30 2894 O 268.11 4.87049 -3.53648 0
M  V30 2895 H 271.936 1.73174 -2.49489 0
M  V30 2896 H 269.521 0.79709 -1.2636 0
M  V30 2897 H 271.403 3.95412 -1.45696 0
M  V30 2898 H 270.078 3.19249 -0.534975 0
M  V30 2899 H 268.985 2.53014 -2.75562 0
M  V30 2900 H 270.318 3.34336 -3.61221 0
M  V30 2901 N 271.97 1.30982 0.876444 0
M  V30 2902 C 273.218 1.20058 1.62575 0
M  V30 2903 C 273.539 -0.242947 1.93481 0
M  V30 2904 O 272.809 -1.1619 1.57724 0
M  V30 2905 H 271.389 0.44135 0.602677 0
M  V30 2906 H 274.051 1.64222 1.04962 0
M  V30 2907 H 273.147 1.76762 2.57219 0
M  V30 2908 N 273.449 -1.08991 1.13837 0
M  V30 2909 C 274.697 -1.80899 0.901098 0
M  V30 2910 C 275.018 -1.86356 -0.574134 0
M  V30 2911 O 274.288 -1.35235 -1.41733 0
M  V30 2912 H 272.868 -0.669966 0.330386 0
M  V30 2913 H 275.53 -1.318 1.43578 0
M  V30 2914 H 274.626 -2.83929 1.29578 0
M  V30 2915 N 274.927 -0.932562 -1.27047 0
M  V30 2916 C 276.173 -0.576412 -1.94436 0
M  V30 2917 C 276.506 0.880891 -1.73072 0
M  V30 2918 O 275.781 1.62905 -1.06264 0
M  V30 2919 C 276.064 -0.909031 -3.48437 0
M  V30 2920 C 275.917 -2.42044 -3.79123 0
M  V30 2921 C 277.236 -0.418341 -4.38107 0
M  V30 2922 H 274.355 -0.210888 -0.706184 0
M  V30 2923 H 276.997 -1.16522 -1.50075 0
M  V30 2924 H 275.147 -0.407947 -3.86352 0
M  V30 2925 H 276.819 -2.99359 -3.50973 0
M  V30 2926 H 275.062 -2.86758 -3.25503 0
M  V30 2927 H 275.733 -2.6037 -4.86736 0
M  V30 2928 H 278.209 -0.847856 -4.0737 0
M  V30 2929 H 277.085 -0.679981 -5.44672 0
M  V30 2930 H 277.346 0.681642 -4.36814 0
M  V30 2931 N 276.405 1.4127 -0.698611 0
M  V30 2932 C 277.335 2.33447 -0.049629 0
M  V30 2933 C 278.316 1.51982 0.763898 0
M  V30 2934 O 279.501 1.80509 0.716257 0
M  V30 2935 C 276.631 3.35828 0.885267 0
M  V30 2936 C 275.585 4.27627 0.178613 0
M  V30 2937 C 274.911 5.20406 1.22807 0
M  V30 2938 C 276.211 5.13459 -0.956933 0
M  V30 2939 H 277.905 2.87966 -0.81951 0
M  V30 2940 H 275.451 1.38461 -0.395538 0
M  V30 2941 H 277.404 3.9924 1.34854 0
M  V30 2942 H 276.128 2.79666 1.68685 0
M  V30 2943 H 274.787 3.65643 -0.26466 0
M  V30 2944 H 274.435 4.60558 2.02226 0
M  V30 2945 H 274.135 5.82661 0.760239 0
M  V30 2946 H 275.659 5.86695 1.69179 0
M  V30 2947 H 277.073 5.70421 -0.573805 0
M  V30 2948 H 275.47 5.8467 -1.35205 0
M  V30 2949 H 276.54 4.50443 -1.79524 0
M  V30 2950 N 277.883 0.443576 1.51229 0
M  V30 2951 C 278.793 -0.370721 2.31652 0
M  V30 2952 C 279.809 -1.02186 1.40833 0
M  V30 2953 O 280.985 -1.01586 1.73903 0
M  V30 2954 C 278.05 -1.45376 3.14749 0
M  V30 2955 C 277.111 -0.822099 4.21355 0
M  V30 2956 C 276.344 -1.85353 5.0048 0
M  V30 2957 O 276.567 -3.07656 4.80316 0
M  V30 2958 O 275.501 -1.4406 5.84406 0
M  V30 2959 H 279.327 0.286002 3.0235 0
M  V30 2960 H 276.912 0.20598 1.47973 0
M  V30 2961 H 278.794 -2.08173 3.66391 0
M  V30 2962 H 277.469 -2.09445 2.46809 0
M  V30 2963 H 276.376 -0.155909 3.73775 0
M  V30 2964 H 277.709 -0.224797 4.91686 0
M  V30 2965 N 279.361 -1.56624 0.175154 0
M  V30 2966 C 280.638 -1.88688 -0.515373 0
M  V30 2967 C 281.018 -1.08564 -1.81044 0
M  V30 2968 O 280.366 -0.180703 -2.27784 0
M  V30 2969 C 280.576 -3.40768 -0.753552 0
M  V30 2970 C 281.924 -4.10587 -1.08184 0
M  V30 2971 O 282.948 -3.46106 -0.841961 0
M  V30 2972 O 281.807 -5.24512 -1.53459 0
M  V30 2973 H 278.901 -0.78301 -0.26613 0
M  V30 2974 H 281.447 -1.68347 0.213877 0
M  V30 2975 H 280.219 -3.90965 0.161829 0
M  V30 2976 H 279.842 -3.66733 -1.53598 0
M  V30 2977 N 280.839 0.0985539 -1.57292 0
M  V30 2978 C 282.25 0.653457 -1.74891 0
M  V30 2979 C 282.601 1.7929 -0.796838 0
M  V30 2980 O 281.726 2.16385 0.0254886 0
M  V30 2981 C 282.321 1.19216 -3.17133 0
M  V30 2982 C 280.88 1.69316 -3.36168 0
M  V30 2983 C 280.027 0.601294 -2.70702 0
M  V30 2984 H 282.978 -0.127497 -1.58187 0
M  V30 2985 H 282.999 2.06154 -3.19814 0
M  V30 2986 H 282.511 0.362635 -3.86402 0
M  V30 2987 H 280.612 2.5468 -2.71972 0
M  V30 2988 H 280.725 1.78853 -4.44464 0
M  V30 2989 H 279.089 1.0399 -2.32504 0
M  V30 2990 H 279.872 -0.217592 -3.4261 0
M  V30 2991 N 282.317 1.53212 0.369288 0
M  V30 2992 C 283.563 1.70413 1.11046 0
M  V30 2993 C 283.918 0.448509 1.87099 0
M  V30 2994 O 283.211 -0.558382 1.83283 0
M  V30 2995 C 283.405 2.89101 2.10132 0
M  V30 2996 C 283.234 4.26084 1.43814 0
M  V30 2997 C 282.004 4.90994 1.19384 0
M  V30 2998 C 284.202 5.06754 0.877802 0
M  V30 2999 N 282.184 6.11911 0.49377 0
M  V30 3000 C 283.555 6.1924 0.306891 0
M  V30 3001 C 285.61 4.91814 0.776129 0
M  V30 3002 C 284.313 7.1842 -0.355774 0
M  V30 3003 C 286.339 5.91263 0.127252 0
M  V30 3004 C 285.701 7.03069 -0.432801 0
M  V30 3005 H 281.8 0.676872 0.391623 0
M  V30 3006 H 284.384 1.90603 0.397334 0
M  V30 3007 H 282.555 2.70456 2.78761 0
M  V30 3008 H 284.287 2.95142 2.76899 0
M  V30 3009 H 281.042 4.50074 1.47413 0
M  V30 3010 H 281.466 6.76813 0.159207 0
M  V30 3011 H 286.108 4.05564 1.19489 0
M  V30 3012 H 283.826 8.04264 -0.786499 0
M  V30 3013 H 287.412 5.81779 0.0495613 0
M  V30 3014 H 286.292 7.78702 -0.926958 0
M  V30 3015 N 283.795 -0.628877 1.44509 0
M  V30 3016 C 284.758 -1.72263 1.51188 0
M  V30 3017 C 285.758 -1.55907 0.39367 0
M  V30 3018 O 286.948 -1.61361 0.656377 0
M  V30 3019 C 284.08 -3.11365 1.38798 0
M  V30 3020 H 285.273 -1.67714 2.4862 0
M  V30 3021 H 282.826 -0.842737 1.31634 0
M  V30 3022 H 283.561 -3.21507 0.424693 0
M  V30 3023 H 283.346 -3.24644 2.19884 0
M  V30 3024 H 284.836 -3.91075 1.46458 0
M  V30 3025 N 285.273 -1.31445 -0.869486 0
M  V30 3026 C 286.183 -1.21097 -2.0093 0
M  V30 3027 C 287.199 -0.127584 -1.73532 0
M  V30 3028 O 288.375 -0.345477 -1.98415 0
M  V30 3029 C 285.44 -0.919378 -3.34288 0
M  V30 3030 C 284.501 -2.08971 -3.75006 0
M  V30 3031 C 283.734 -1.81194 -5.02001 0
M  V30 3032 O 283.957 -0.747296 -5.65484 0
M  V30 3033 O 282.891 -2.66883 -5.39497 0
M  V30 3034 H 286.717 -2.16883 -2.12592 0
M  V30 3035 H 284.302 -1.11189 -0.997868 0
M  V30 3036 H 286.184 -0.772625 -4.14257 0
M  V30 3037 H 284.859 0.00844772 -3.23699 0
M  V30 3038 H 283.766 -2.29187 -2.95676 0
M  V30 3039 H 285.099 -2.9998 -3.90221 0
M  V30 3040 N 286.751 1.08385 -1.14413 0
M  V30 3041 C 288.162 1.62258 -0.923535 0
M  V30 3042 C 288.513 1.88691 0.537595 0
M  V30 3043 O 287.638 1.64454 1.40655 0
M  V30 3044 C 288.233 2.94781 -1.67002 0
M  V30 3045 C 286.792 3.45437 -1.495 0
M  V30 3046 C 285.939 2.19668 -1.69238 0
M  V30 3047 H 288.89 0.916086 -1.2959 0
M  V30 3048 H 288.911 3.63229 -1.13334 0
M  V30 3049 H 288.423 2.7551 -2.73342 0
M  V30 3050 H 286.524 3.6981 -0.455097 0
M  V30 3051 H 286.637 4.22173 -2.2651 0
M  V30 3052 H 285.001 2.28849 -1.11804 0
M  V30 3053 H 285.784 2.02905 -2.7692 0
M  V30 3054 N 288.23 0.939286 1.26551 0
M  V30 3055 C 289.641 0.628782 1.75793 0
M  V30 3056 C 289.992 -0.856046 1.7654 0
M  V30 3057 O 289.117 -1.66994 1.3763 0
M  V30 3058 C 289.712 1.13465 3.19235 0
M  V30 3059 C 288.271 0.874601 3.66098 0
M  V30 3060 C 287.418 1.28667 2.45642 0
M  V30 3061 H 290.369 1.1178 1.12654 0
M  V30 3062 H 290.39 0.487609 3.77363 0
M  V30 3063 H 289.902 2.21535 3.1866 0
M  V30 3064 H 288.003 -0.191793 3.72106 0
M  V30 3065 H 288.116 1.50028 4.55004 0
M  V30 3066 H 286.48 0.705109 2.44745 0
M  V30 3067 H 287.263 2.37625 2.47769 0
M  V30 3068 N 289.708 -1.40897 0.706093 0
M  V30 3069 C 290.655 -2.30751 0.0474474 0
M  V30 3070 C 291.625 -1.47678 -0.76029 0
M  V30 3071 O 292.81 -1.76441 -0.726177 0
M  V30 3072 C 289.95 -3.33815 -0.875309 0
M  V30 3073 C 289.063 -4.31961 -0.0580623 0
M  V30 3074 C 288.198 -5.22093 -0.979425 0
M  V30 3075 C 287.237 -6.11902 -0.155706 0
M  V30 3076 N 286.374 -6.94482 -1.03144 0
M  V30 3077 H 291.214 -2.86513 0.819413 0
M  V30 3078 H 288.751 -1.41102 0.415783 0
M  V30 3079 H 290.709 -3.92129 -1.42446 0
M  V30 3080 H 289.339 -2.79579 -1.61356 0
M  V30 3081 H 288.391 -3.75507 0.608147 0
M  V30 3082 H 289.703 -4.95415 0.580082 0
M  V30 3083 H 288.857 -5.85292 -1.59744 0
M  V30 3084 H 287.596 -4.5889 -1.65141 0
M  V30 3085 H 286.601 -5.47742 0.475309 0
M  V30 3086 H 287.826 -6.77162 0.512635 0
M  V30 3087 H 285.772 -6.33877 -1.68924 0
M  V30 3088 H 285.689 -7.54665 -0.449108 0
M  V30 3089 H 286.957 -7.6214 -1.63593 0
M  V30 3090 N 291.186 -0.45159 -1.50991 0
M  V30 3091 C 292.434 0.109857 -2.01801 0
M  V30 3092 C 292.755 1.41958 -1.3369 0
M  V30 3093 O 292.025 1.9003 -0.475951 0
M  V30 3094 H 290.605 0.0435884 -0.745727 0
M  V30 3095 H 293.267 -0.597557 -1.85514 0
M  V30 3096 H 292.363 0.275489 -3.10882 0
M  V30 3097 N 292.664 1.56529 -0.183458 0
M  V30 3098 C 293.597 2.14417 0.781052 0
M  V30 3099 C 294.575 1.07761 1.21763 0
M  V30 3100 O 295.759 1.35807 1.30724 0
M  V30 3101 C 292.886 2.69361 2.05335 0
M  V30 3102 C 291.932 3.885 1.75982 0
M  V30 3103 S 292.765 5.27568 0.918256 0
M  V30 3104 C 293.921 5.85926 2.20095 0
M  V30 3105 H 294.154 2.95893 0.2889 0
M  V30 3106 H 291.687 1.54368 0.0313844 0
M  V30 3107 H 293.645 3.01662 2.78406 0
M  V30 3108 H 292.306 1.87949 2.51663 0
M  V30 3109 H 291.499 4.25314 2.70415 0
M  V30 3110 H 291.101 3.57149 1.10999 0
M  V30 3111 H 293.393 5.99579 3.15453 0
M  V30 3112 H 294.336 6.82761 1.87731 0
M  V30 3113 H 294.744 5.14438 2.32409 0
M  V30 3114 N 294.142 -0.090211 1.57342 0
M  V30 3115 C 295.389 -0.792807 1.86335 0
M  V30 3116 C 295.717 -1.78494 0.772662 0
M  V30 3117 O 294.972 -1.94305 -0.233258 0
M  V30 3118 C 295.271 -1.55222 3.21933 0
M  V30 3119 C 294.937 -0.701765 4.45406 0
M  V30 3120 C 293.599 -0.467334 4.78925 0
M  V30 3121 C 295.951 -0.11086 5.21082 0
M  V30 3122 C 293.279 0.367785 5.85546 0
M  V30 3123 C 295.631 0.711609 6.28585 0
M  V30 3124 C 294.295 0.956086 6.60617 0
M  V30 3125 H 293.565 -0.290109 0.681849 0
M  V30 3126 H 296.212 -0.0541332 1.91423 0
M  V30 3127 H 294.517 -2.3626 3.12551 0
M  V30 3128 H 296.214 -2.10032 3.41595 0
M  V30 3129 H 292.804 -0.894598 4.1916 0
M  V30 3130 H 296.988 -0.279129 4.95514 0
M  V30 3131 H 292.244 0.566128 6.08773 0
M  V30 3132 H 296.418 1.17632 6.86393 0
M  V30 3133 H 294.045 1.60499 7.43064 0
M  V30 3134 N 295.62 -1.53406 -0.361157 0
M  V30 3135 C 297.036 -1.43277 -0.703124 0
M  V30 3136 C 297.236 -0.575384 -1.9311 0
M  V30 3137 O 296.292 -0.0595362 -2.5243 0
M  V30 3138 C 297.605 -2.8653 -0.9122 0
M  V30 3139 C 299.153 -2.96191 -1.01193 0
M  V30 3140 C 299.628 -4.40514 -1.25345 0
M  V30 3141 N 301.119 -4.43962 -1.32105 0
M  V30 3142 C 301.854 -5.52746 -1.5251 0
M  V30 3143 N 301.35 -6.71567 -1.70203 0
M  V30 3144 N 303.143 -5.40331 -1.54916 0
M  V30 3145 H 295.294 -2.07654 0.446475 0
M  V30 3146 H 297.557 -0.937944 0.137715 0
M  V30 3147 H 297.263 -3.51605 -0.0816414 0
M  V30 3148 H 297.137 -3.30441 -1.81903 0
M  V30 3149 H 299.524 -2.31266 -1.83303 0
M  V30 3150 H 299.605 -2.55667 -0.0823929 0
M  V30 3151 H 299.249 -5.06014 -0.437346 0
M  V30 3152 H 299.179 -4.78614 -2.19627 0
M  V30 3153 H 301.67 -3.58332 -1.20028 0
M  V30 3154 H 301.983 -7.50241 -1.85359 0
M  V30 3155 H 300.328 -6.74545 -1.67373 0
M  V30 3156 H 303.519 -4.46465 -1.40663 0
M  V30 3157 H 303.692 -6.25173 -1.70477 0
M  V30 3158 N 297.098 0.621204 -1.44841 0
M  V30 3159 C 298.031 1.7459 -1.46947 0
M  V30 3160 C 299.009 1.59273 -0.327238 0
M  V30 3161 O 300.193 1.81021 -0.525706 0
M  V30 3162 C 297.32 3.12274 -1.31159 0
M  V30 3163 C 296.366 3.46216 -2.49072 0
M  V30 3164 S 297.199 3.4258 -4.11581 0
M  V30 3165 C 298.355 4.82867 -3.98233 0
M  V30 3166 H 298.588 1.72538 -2.42111 0
M  V30 3167 H 296.121 0.796683 -1.32259 0
M  V30 3168 H 298.079 3.91722 -1.22737 0
M  V30 3169 H 296.74 3.11855 -0.374885 0
M  V30 3170 H 295.933 4.4643 -2.33915 0
M  V30 3171 H 295.535 2.74253 -2.54286 0
M  V30 3172 H 297.827 5.7234 -3.62537 0
M  V30 3173 H 298.77 5.0308 -4.98313 0
M  V30 3174 H 299.178 4.57908 -3.30121 0
M  V30 3175 N 298.576 1.31904 0.862503 0
M  V30 3176 C 299.804 1.24998 1.64873 0
M  V30 3177 C 300.219 -0.183425 1.87907 0
M  V30 3178 O 299.576 -1.11794 1.44251 0
M  V30 3179 C 299.627 1.99829 3.01248 0
M  V30 3180 O 299.348 3.37575 2.79239 0
M  V30 3181 C 300.849 1.99852 3.95694 0
M  V30 3182 H 298.069 0.431599 0.513773 0
M  V30 3183 H 300.613 1.73901 1.07604 0
M  V30 3184 H 298.768 1.54668 3.55185 0
M  V30 3185 H 299.182 3.75776 3.65914 0
M  V30 3186 H 300.656 2.56709 4.88676 0
M  V30 3187 H 301.133 0.982852 4.28062 0
M  V30 3188 H 301.739 2.44926 3.47694 0
M  V30 3189 N 300.054 -1.07777 1.14986 0
M  V30 3190 C 300.986 -2.14769 0.800436 0
M  V30 3191 C 301.999 -1.61739 -0.185595 0
M  V30 3192 O 303.188 -1.78462 0.0370358 0
M  V30 3193 C 300.288 -3.38481 0.168533 0
M  V30 3194 C 299.461 -4.20876 1.1909 0
M  V30 3195 C 298.52 -5.22976 0.581575 0
M  V30 3196 O 297.546 -5.55388 1.24633 0
M  V30 3197 N 298.748 -5.76976 -0.638706 0
M  V30 3198 H 301.513 -2.45348 1.72118 0
M  V30 3199 H 299.074 -1.23645 1.04515 0
M  V30 3200 H 301.066 -4.03916 -0.251764 0
M  V30 3201 H 299.636 -3.05651 -0.655467 0
M  V30 3202 H 298.856 -3.51322 1.78791 0
M  V30 3203 H 300.144 -4.7274 1.88133 0
M  V30 3204 H 299.542 -5.52886 -1.19723 0
M  V30 3205 H 298.099 -6.44061 -1.00142 0
M  V30 3206 N 301.532 -0.945985 -1.26051 0
M  V30 3207 C 302.809 -0.513816 -1.88731 0
M  V30 3208 C 303.189 1.00872 -1.8544 0
M  V30 3209 O 302.537 1.8708 -1.312 0
M  V30 3210 C 302.747 -1.08062 -3.31849 0
M  V30 3211 C 304.095 -1.1522 -4.08668 0
M  V30 3212 O 305.119 -1.03155 -3.40936 0
M  V30 3213 O 303.978 -1.34044 -5.29806 0
M  V30 3214 H 301.072 -0.168193 -0.809716 0
M  V30 3215 H 303.618 -1.03886 -1.34186 0
M  V30 3216 H 302.39 -2.1241 -3.2863 0
M  V30 3217 H 302.013 -0.538307 -3.93939 0
M  V30 3218 N 303.011 1.40521 -0.713556 0
M  V30 3219 C 304.422 1.83853 -0.324807 0
M  V30 3220 C 304.773 1.59667 1.14021 0
M  V30 3221 O 303.898 1.07649 1.87725 0
M  V30 3222 C 304.493 3.33751 -0.582746 0
M  V30 3223 C 303.052 3.75584 -0.247727 0
M  V30 3224 C 302.199 2.63753 -0.856121 0
M  V30 3225 H 305.15 1.29817 -0.91286 0
M  V30 3226 H 305.171 3.80194 0.152682 0
M  V30 3227 H 304.683 3.51322 -1.64908 0
M  V30 3228 H 302.784 3.63608 0.813624 0
M  V30 3229 H 302.897 4.7373 -0.715307 0
M  V30 3230 H 301.261 2.53108 -0.28432 0
M  V30 3231 H 302.044 2.84137 -1.92668 0
M  V30 3232 N 304.489 0.459591 1.5075 0
M  V30 3233 C 305.399 -0.34613 2.32033 0
M  V30 3234 C 306.415 -1.00686 1.41909 0
M  V30 3235 O 307.591 -0.997361 1.7497 0
M  V30 3236 C 304.656 -1.42029 3.16273 0
M  V30 3237 C 303.717 -0.777362 4.22203 0
M  V30 3238 C 302.95 -1.80034 5.02418 0
M  V30 3239 O 303.173 -3.02544 4.83553 0
M  V30 3240 O 302.107 -1.37853 5.85901 0
M  V30 3241 H 305.933 0.318054 3.0203 0
M  V30 3242 H 303.518 0.221663 1.47746 0
M  V30 3243 H 305.4 -2.04275 3.68578 0
M  V30 3244 H 304.075 -2.06815 2.49016 0
M  V30 3245 H 302.982 -0.116256 3.73919 0
M  V30 3246 H 304.315 -0.172634 4.91897 0
M  V30 3247 N 305.967 -1.56429 0.191757 0
M  V30 3248 C 306.877 -2.22541 -0.742481 0
M  V30 3249 C 307.893 -1.22342 -1.23727 0
M  V30 3250 O 309.069 -1.55069 -1.28513 0
M  V30 3251 C 306.134 -2.8692 -1.94623 0
M  V30 3252 C 305.195 -4.02378 -1.49633 0
M  V30 3253 C 304.428 -4.63678 -2.6427 0
M  V30 3254 O 304.651 -4.23895 -3.81666 0
M  V30 3255 O 303.585 -5.53202 -2.37174 0
M  V30 3256 H 307.411 -3.02977 -0.209462 0
M  V30 3257 H 304.996 -1.49353 -0.0373832 0
M  V30 3258 H 306.878 -3.27663 -2.64982 0
M  V30 3259 H 305.553 -2.09466 -2.46791 0
M  V30 3260 H 304.46 -3.66265 -0.761636 0
M  V30 3261 H 305.793 -4.81487 -1.02134 0
M  V30 3262 N 307.445 0.0818655 -1.57387 0
M  V30 3263 C 308.408 1.08265 -2.02018 0
M  V30 3264 C 309.408 1.32183 -0.915664 0
M  V30 3265 O 310.598 1.28073 -1.18081 0
M  V30 3266 C 307.73 2.42871 -2.39221 0
M  V30 3267 H 308.923 0.698204 -2.91659 0
M  V30 3268 H 306.476 0.327303 -1.52835 0
M  V30 3269 H 307.211 2.86167 -1.52575 0
M  V30 3270 H 306.996 2.26855 -3.19811 0
M  V30 3271 H 308.486 3.14826 -2.74362 0
M  V30 3272 N 308.923 1.53595 0.353017 0
M  V30 3273 C 310.334 1.61937 0.929153 0
M  V30 3274 C 310.685 0.494686 1.89861 0
M  V30 3275 O 309.81 -0.377017 2.1309 0
M  V30 3276 C 310.405 2.93526 1.69199 0
M  V30 3277 C 308.964 3.04161 2.21727 0
M  V30 3278 C 308.111 2.57322 1.03348 0
M  V30 3279 H 311.062 1.58155 0.131431 0
M  V30 3280 H 311.083 2.82034 2.55416 0
M  V30 3281 H 310.595 3.75362 0.986144 0
M  V30 3282 H 308.696 2.26938 2.95516 0
M  V30 3283 H 308.809 4.09465 2.48748 0
M  V30 3284 H 307.173 2.12499 1.40414 0
M  V30 3285 H 307.956 3.41588 0.342428 0
M  V30 3286 N 310.401 -0.613514 1.45168 0
M  V30 3287 C 311.678 -1.37263 1.39349 0
M  V30 3288 C 312.058 -2.11012 0.0610848 0
M  V30 3289 O 311.406 -2.07502 -0.956825 0
M  V30 3290 C 311.616 -2.3244 2.60332 0
M  V30 3291 C 312.964 -2.9523 3.05163 0
M  V30 3292 O 313.988 -2.42762 2.60663 0
M  V30 3293 O 312.847 -3.90454 3.82372 0
M  V30 3294 H 309.941 -0.615188 0.552696 0
M  V30 3295 H 312.487 -0.637097 1.57287 0
M  V30 3296 H 311.259 -1.77164 3.48896 0
M  V30 3297 H 310.882 -3.13383 2.44698 0
M  V30 3298 N 311.879 -1.3236 -0.855495 0
M  V30 3299 C 312.842 -1.21164 -1.94556 0
M  V30 3300 C 313.842 -0.134908 -1.60233 0
M  V30 3301 O 315.032 -0.385249 -1.69887 0
M  V30 3302 C 312.164 -0.863192 -3.29791 0
M  V30 3303 H 313.357 -2.18038 -2.05911 0
M  V30 3304 H 310.91 -1.16179 -1.04557 0
M  V30 3305 H 311.645 0.103769 -3.24134 0
M  V30 3306 H 311.43 -1.64166 -3.56078 0
M  V30 3307 H 312.92 -0.809156 -4.09686 0
M  V30 3308 N 313.357 1.07166 -1.15556 0
M  V30 3309 C 314.768 1.6127 -0.940693 0
M  V30 3310 C 315.119 1.89251 0.517551 0
M  V30 3311 O 314.244 1.65937 1.38903 0
M  V30 3312 C 314.839 2.92993 -1.7012 0
M  V30 3313 C 313.398 3.43832 -1.53156 0
M  V30 3314 C 312.545 2.1786 -1.71558 0
M  V30 3315 H 315.496 0.90229 -1.30554 0
M  V30 3316 H 315.517 3.62007 -1.17181 0
M  V30 3317 H 315.029 2.72596 -2.76248 0
M  V30 3318 H 313.13 3.69307 -0.494294 0
M  V30 3319 H 313.243 4.19747 -2.30975 0
M  V30 3320 H 311.607 2.2765 -1.14225 0
M  V30 3321 H 312.39 1.99956 -2.79056 0
M  V30 3322 N 314.835 0.952656 1.25548 0
M  V30 3323 C 315.745 0.47782 2.29682 0
M  V30 3324 C 316.761 -0.453859 1.67977 0
M  V30 3325 O 317.937 -0.330587 1.98668 0
M  V30 3326 C 315.002 -0.238655 3.45878 0
M  V30 3327 C 314.063 0.730994 4.23031 0
M  V30 3328 C 313.296 0.0486165 5.33678 0
M  V30 3329 O 313.519 -1.16612 5.58353 0
M  V30 3330 O 312.453 0.733152 5.97418 0
M  V30 3331 H 316.279 1.34312 2.72386 0
M  V30 3332 H 313.864 0.719026 1.30959 0
M  V30 3333 H 315.746 -0.641774 4.16484 0
M  V30 3334 H 314.421 -1.07916 3.05181 0
M  V30 3335 H 313.328 1.18428 3.5486 0
M  V30 3336 H 314.661 1.53946 4.67506 0
M  V30 3337 N 316.313 -1.40141 0.720998 0
M  V30 3338 C 317.543 -2.04798 0.27226 0
M  V30 3339 C 317.951 -1.54442 -1.09289 0
M  V30 3340 O 317.294 -0.698342 -1.69908 0
M  V30 3341 C 317.356 -3.59048 0.18027 0
M  V30 3342 C 317.02 -4.32317 1.48159 0
M  V30 3343 C 318.017 -4.59902 2.42458 0
M  V30 3344 C 315.702 -4.71125 1.74202 0
M  V30 3345 C 317.696 -5.25288 3.61042 0
M  V30 3346 C 315.383 -5.36242 2.93066 0
M  V30 3347 C 316.381 -5.63254 3.86308 0
M  V30 3348 O 316.069 -6.27024 5.03086 0
M  V30 3349 H 315.801 -0.665419 0.119139 0
M  V30 3350 H 318.355 -1.80436 0.981432 0
M  V30 3351 H 316.585 -3.82251 -0.58489 0
M  V30 3352 H 318.274 -4.05221 -0.234618 0
M  V30 3353 H 319.04 -4.30379 2.23604 0
M  V30 3354 H 314.919 -4.49466 1.02477 0
M  V30 3355 H 318.463 -5.46289 4.33837 0
M  V30 3356 H 314.36 -5.65185 3.11826 0
M  V30 3357 H 315.128 -6.4552 5.03235 0
M  V30 3358 N 317.792 -0.46758 -1.50504 0
M  V30 3359 C 319.038 0.0887532 -2.02606 0
M  V30 3360 C 319.371 1.39686 -1.34913 0
M  V30 3361 O 318.646 1.88644 -0.473694 0
M  V30 3362 C 318.929 0.276206 -3.59039 0
M  V30 3363 C 318.782 -1.05267 -4.37309 0
M  V30 3364 C 320.101 1.03235 -4.27821 0
M  V30 3365 H 317.22 0.0307814 -0.736357 0
M  V30 3366 H 319.862 -0.612485 -1.79857 0
M  V30 3367 H 318.012 0.8735 -3.78553 0
M  V30 3368 H 319.684 -1.68628 -4.29374 0
M  V30 3369 H 317.927 -1.65015 -4.01189 0
M  V30 3370 H 318.598 -0.875197 -5.45018 0
M  V30 3371 H 321.074 0.526111 -4.12761 0
M  V30 3372 H 319.95 1.1323 -5.37094 0
M  V30 3373 H 320.211 2.06806 -3.90748 0
M  V30 3374 N 319.27 1.56325 -0.20005 0
M  V30 3375 C 320.18 2.22931 0.730668 0
M  V30 3376 C 321.196 1.22997 1.23076 0
M  V30 3377 O 322.372 1.55748 1.27689 0
M  V30 3378 C 319.437 2.87948 1.93098 0
M  V30 3379 C 318.498 4.03166 1.47497 0
M  V30 3380 C 317.731 4.65073 2.61807 0
M  V30 3381 O 317.954 4.25913 3.79413 0
M  V30 3382 O 316.888 5.54452 2.34237 0
M  V30 3383 H 320.714 3.03084 0.193391 0
M  V30 3384 H 318.299 1.49371 0.0294621 0
M  V30 3385 H 320.181 3.29063 2.6324 0
M  V30 3386 H 318.856 2.10771 2.45677 0
M  V30 3387 H 317.763 3.66664 0.742201 0
M  V30 3388 H 319.096 4.82022 0.995796 0
M  V30 3389 N 320.748 -0.0735177 1.57428 0
M  V30 3390 C 321.994 -0.774145 1.87443 0
M  V30 3391 C 322.327 -1.77311 0.792103 0
M  V30 3392 O 321.602 -1.93492 -0.197793 0
M  V30 3393 C 321.885 -1.48367 3.28115 0
M  V30 3394 C 321.738 -0.501227 4.46999 0
M  V30 3395 C 323.057 -2.429 3.66998 0
M  V30 3396 H 320.176 -0.279971 0.681752 0
M  V30 3397 H 322.818 -0.0373616 1.89963 0
M  V30 3398 H 320.968 -2.11171 3.26097 0
M  V30 3399 H 322.64 0.121468 4.6114 0
M  V30 3400 H 320.883 0.183593 4.33411 0
M  V30 3401 H 321.554 -1.03526 5.42205 0
M  V30 3402 H 324.03 -1.90175 3.70098 0
M  V30 3403 H 322.906 -2.89549 4.66318 0
M  V30 3404 H 323.167 -3.27628 2.96837 0
M  V30 3405 N 322.226 -1.5378 -0.344866 0
M  V30 3406 C 323.136 -1.84667 -1.4469 0
M  V30 3407 C 324.152 -0.736704 -1.57635 0
M  V30 3408 O 325.328 -1.02888 -1.73136 0
M  V30 3409 C 322.393 -2.04869 -2.79696 0
M  V30 3410 C 321.454 -3.28731 -2.76106 0
M  V30 3411 C 320.687 -3.4796 -4.04673 0
M  V30 3412 O 320.91 -2.71052 -5.01883 0
M  V30 3413 O 319.844 -4.41383 -4.09224 0
M  V30 3414 H 323.67 -2.78334 -1.21506 0
M  V30 3415 H 321.255 -1.39418 -0.536921 0
M  V30 3416 H 323.137 -2.19609 -3.59652 0
M  V30 3417 H 321.812 -1.14391 -3.02814 0
M  V30 3418 H 320.719 -3.19396 -1.94774 0
M  V30 3419 H 322.052 -4.19198 -2.57941 0
M  V30 3420 N 323.704 0.605807 -1.45491 0
M  V30 3421 C 324.951 1.36476 -1.49601 0
M  V30 3422 C 325.279 1.94007 -0.138452 0
M  V30 3423 O 324.534 1.75638 0.863114 0
M  V30 3424 C 324.833 2.53012 -2.52428 0
M  V30 3425 C 324.499 2.13617 -3.97087 0
M  V30 3426 C 323.161 2.02587 -4.36477 0
M  V30 3427 C 325.513 1.82899 -4.88055 0
M  V30 3428 C 322.841 1.59064 -5.64726 0
M  V30 3429 C 325.193 1.40861 -6.16718 0
M  V30 3430 C 323.857 1.28391 -6.55036 0
M  V30 3431 H 323.127 0.499402 -0.547429 0
M  V30 3432 H 325.774 0.684546 -1.78847 0
M  V30 3433 H 324.079 3.26379 -2.16758 0
M  V30 3434 H 325.776 3.1124 -2.52845 0
M  V30 3435 H 322.366 2.23129 -3.65939 0
M  V30 3436 H 326.55 1.90317 -4.58359 0
M  V30 3437 H 321.806 1.48034 -5.93208 0
M  V30 3438 H 325.98 1.16138 -6.86648 0
M  V30 3439 H 323.607 0.944403 -7.54311 0
M  V30 3440 N 325.182 1.32811 0.848464 0
M  V30 3441 C 326.429 1.23724 1.60308 0
M  V30 3442 C 326.757 -0.1994 1.93475 0
M  V30 3443 O 326.012 -1.15406 1.5805 0
M  V30 3444 C 326.311 2.04831 2.92881 0
M  V30 3445 C 325.977 3.54125 2.79117 0
M  V30 3446 C 324.639 3.94829 2.7507 0
M  V30 3447 C 326.991 4.49036 2.64606 0
M  V30 3448 C 324.319 5.28675 2.544 0
M  V30 3449 C 326.671 5.83033 2.4547 0
M  V30 3450 C 325.335 6.22931 2.39819 0
M  V30 3451 H 324.605 0.452737 0.586609 0
M  V30 3452 H 327.252 1.64301 0.983743 0
M  V30 3453 H 325.557 1.57001 3.58968 0
M  V30 3454 H 327.254 1.95164 3.50303 0
M  V30 3455 H 323.844 3.21801 2.83094 0
M  V30 3456 H 328.028 4.18505 2.66772 0
M  V30 3457 H 323.284 5.58637 2.48465 0
M  V30 3458 H 327.458 6.56186 2.33222 0
M  V30 3459 H 325.085 7.26584 2.23562 0
M  V30 3460 N 326.66 -1.06551 1.16123 0
M  V30 3461 C 327.57 -2.17484 0.879662 0
M  V30 3462 C 328.586 -1.73377 -0.147104 0
M  V30 3463 O 329.762 -2.01379 0.0289128 0
M  V30 3464 C 326.827 -3.44591 0.381829 0
M  V30 3465 C 325.888 -4.0322 1.4735 0
M  V30 3466 C 325.121 -5.24261 0.999324 0
M  V30 3467 O 325.344 -5.70198 -0.151957 0
M  V30 3468 O 324.278 -5.74775 1.78653 0
M  V30 3469 H 328.104 -2.44075 1.80724 0
M  V30 3470 H 325.689 -1.16042 0.940992 0
M  V30 3471 H 327.571 -4.21254 0.111053 0
M  V30 3472 H 326.246 -3.19532 -0.51777 0
M  V30 3473 H 325.153 -3.2806 1.79798 0
M  V30 3474 H 326.486 -4.32568 2.34831 0
M  V30 3475 N 328.138 -0.959301 -1.25041 0
M  V30 3476 C 329.386 -0.615393 -1.92503 0
M  V30 3477 C 329.707 0.850969 -1.75452 0
M  V30 3478 O 328.977 1.60658 -1.12098 0
M  V30 3479 H 327.557 -0.224613 -0.712431 0
M  V30 3480 H 330.219 -1.21855 -1.5211 0
M  V30 3481 H 329.315 -0.848738 -3.00338 0
M  V30 3482 N 329.616 1.39756 -0.72842 0
M  V30 3483 C 330.893 1.94574 -0.200079 0
M  V30 3484 C 331.273 1.66569 1.29684 0
M  V30 3485 O 330.621 0.990326 2.05924 0
M  V30 3486 C 330.831 3.45004 -0.526608 0
M  V30 3487 C 332.179 4.21965 -0.472318 0
M  V30 3488 O 333.203 3.53173 -0.463413 0
M  V30 3489 O 332.062 5.44552 -0.461075 0
M  V30 3490 H 329.156 0.826289 -0.0342851 0
M  V30 3491 H 331.702 1.49293 -0.806829 0
M  V30 3492 H 330.474 3.58796 -1.56144 0
M  V30 3493 H 330.097 3.97449 0.109449 0
M  V30 3494 N 331.094 0.475555 1.50254 0
M  V30 3495 C 332.505 0.0215174 1.86688 0
M  V30 3496 C 332.856 -1.38467 1.39001 0
M  V30 3497 O 331.981 -2.02732 0.756894 0
M  V30 3498 C 332.576 0.0322715 3.38785 0
M  V30 3499 C 331.135 -0.366314 3.74613 0
M  V30 3500 C 330.282 0.415832 2.74164 0
M  V30 3501 H 333.233 0.689612 1.42934 0
M  V30 3502 H 333.254 -0.76889 3.7265 0
M  V30 3503 H 332.766 1.05584 3.73462 0
M  V30 3504 H 330.867 -1.39406 3.45538 0
M  V30 3505 H 330.98 -0.064555 4.79057 0
M  V30 3506 H 329.344 -0.131048 2.54363 0
M  V30 3507 H 330.127 1.43899 3.11686 0
M  V30 3508 N 332.573 -1.56217 0.208337 0
M  V30 3509 C 333.819 -1.98242 -0.427552 0
M  V30 3510 C 334.152 -1.09554 -1.60348 0
M  V30 3511 O 333.427 -0.15035 -1.93918 0
M  V30 3512 C 333.71 -3.4931 -0.874907 0
M  V30 3513 C 333.563 -4.48773 0.303751 0
M  V30 3514 C 334.882 -4.04424 -1.73577 0
M  V30 3515 H 332.001 -0.720744 -0.153936 0
M  V30 3516 H 334.643 -1.87586 0.30192 0
M  V30 3517 H 332.793 -3.58522 -1.49648 0
M  V30 3518 H 334.465 -4.51586 0.941682 0
M  V30 3519 H 332.708 -4.23194 0.953375 0
M  V30 3520 H 333.379 -5.51976 -0.0519883 0
M  V30 3521 H 335.855 -3.98075 -1.21143 0
M  V30 3522 H 334.731 -5.1047 -2.01771 0
M  V30 3523 H 334.992 -3.50494 -2.69456 0
M  V30 3524 N 334.051 0.0651679 -1.57465 0
M  V30 3525 C 335.014 1.06117 -2.03155 0
M  V30 3526 C 336.014 1.31204 -0.929632 0
M  V30 3527 O 337.204 1.26813 -1.19432 0
M  V30 3528 C 334.336 2.4032 -2.41783 0
M  V30 3529 H 335.529 0.667231 -2.92383 0
M  V30 3530 H 333.082 0.311075 -1.53173 0
M  V30 3531 H 333.817 2.84532 -1.55601 0
M  V30 3532 H 333.602 2.23451 -3.22199 0
M  V30 3533 H 335.092 3.11898 -2.77685 0
M  V30 3534 N 335.529 1.53961 0.336706 0
M  V30 3535 C 336.775 1.7179 1.07777 0
M  V30 3536 C 337.108 0.483263 1.88091 0
M  V30 3537 O 336.383 -0.519747 1.87427 0
M  V30 3538 C 336.666 2.98558 2.01334 0
M  V30 3539 C 336.519 4.32245 1.24437 0
M  V30 3540 C 337.838 3.21023 3.01052 0
M  V30 3541 H 334.957 0.625089 0.390426 0
M  V30 3542 H 337.599 1.86641 0.35567 0
M  V30 3543 H 335.749 2.86028 2.62908 0
M  V30 3544 H 337.421 4.56637 0.654243 0
M  V30 3545 H 335.664 4.30344 0.546458 0
M  V30 3546 H 336.335 5.17137 1.93063 0
M  V30 3547 H 338.811 3.32929 2.49595 0
M  V30 3548 H 337.687 4.11104 3.6371 0
M  V30 3549 H 337.948 2.37637 3.72802 0
M  V30 3550 N 337.007 -0.598083 1.45811 0
M  V30 3551 C 337.955 -1.72932 1.55555 0
M  V30 3552 C 338.949 -1.63984 0.424921 0
M  V30 3553 O 340.155 -1.69663 0.601205 0
M  V30 3554 H 336.53 -0.571489 0.488779 0
M  V30 3555 H 338.501 -1.61842 2.50699 0
M  V30 3556 C 337.25 -3.11318 1.54843 0
M  V30 3557 H 336.573 -3.18867 2.41172 0
M  V30 3558 H 338.013 -3.90274 1.65717 0
M  V30 3559 C 336.472 -3.3578 0.274427 0
M  V30 3560 O 337.002 -3.9654 -0.641778 0
M  V30 3561 N 335.208 -2.90119 0.167139 0
M  V30 3562 H 334.755 -2.40855 0.913596 0
M  V30 3563 H 334.713 -3.0686 -0.684435 0
M  V30 3564 N 338.485 -1.33259 -0.841409 0
M  V30 3565 C 339.733 -1.24326 -1.59334 0
M  V30 3566 C 340.054 0.191564 -1.94057 0
M  V30 3567 O 339.324 1.11967 -1.60749 0
M  V30 3568 H 337.904 -0.457174 -0.590763 0
M  V30 3569 H 340.566 -1.66947 -1.00571 0
M  V30 3570 H 339.662 -1.8352 -2.52442 0
M  V30 3571 N 339.963 1.05934 -1.16686 0
M  V30 3572 C 340.873 2.17014 -0.891183 0
M  V30 3573 C 341.889 1.73453 0.137907 0
M  V30 3574 O 343.065 2.01361 -0.039592 0
M  V30 3575 C 340.13 3.44384 -0.400099 0
M  V30 3576 C 339.191 4.02433 -1.49486 0
M  V30 3577 C 338.424 5.23723 -1.02711 0
M  V30 3578 O 338.647 5.7027 0.121716 0
M  V30 3579 O 337.581 5.7382 -1.81699 0
M  V30 3580 H 341.407 2.43113 -1.82015 0
M  V30 3581 H 338.992 1.15541 -0.947132 0
M  V30 3582 H 340.874 4.21189 -0.133392 0
M  V30 3583 H 339.549 3.19802 0.500817 0
M  V30 3584 H 338.456 3.27102 -1.81535 0
M  V30 3585 H 339.789 4.31317 -2.37121 0
M  V30 3586 N 341.441 0.965919 1.2453 0
M  V30 3587 C 342.857 0.67216 1.44756 0
M  V30 3588 C 343.057 -0.766609 1.86347 0
M  V30 3589 O 342.113 -1.5407 2.00047 0
M  V30 3590 C 343.426 1.65473 2.51076 0
M  V30 3591 C 344.974 1.66716 2.64905 0
M  V30 3592 C 345.449 2.63766 3.74421 0
M  V30 3593 N 346.94 2.62198 3.81846 0
M  V30 3594 C 347.675 3.33966 4.66106 0
M  V30 3595 N 347.171 4.15245 5.54566 0
M  V30 3596 N 348.964 3.22799 4.60171 0
M  V30 3597 H 341.115 1.89553 0.958293 0
M  V30 3598 H 343.378 0.815979 0.482579 0
M  V30 3599 H 343.084 2.68296 2.27399 0
M  V30 3600 H 342.958 1.4261 3.49202 0
M  V30 3601 H 345.345 0.646057 2.87941 0
M  V30 3602 H 345.426 1.93642 1.67142 0
M  V30 3603 H 345.07 3.6601 3.52135 0
M  V30 3604 H 345 2.34121 4.71694 0
M  V30 3605 H 347.491 2.032 3.18619 0
M  V30 3606 H 347.804 4.66898 6.15814 0
M  V30 3607 H 346.149 4.1934 5.54237 0
M  V30 3608 H 349.34 2.58764 3.90075 0
M  V30 3609 H 349.513 3.78994 5.25612 0
M  V30 3610 N 342.919 -1.39368 0.735821 0
M  V30 3611 C 343.849 -2.33234 0.111506 0
M  V30 3612 C 344.83 -1.53954 -0.723334 0
M  V30 3613 O 346.015 -1.82344 -0.668147 0
M  V30 3614 C 343.145 -3.38057 -0.795917 0
M  V30 3615 C 342.099 -4.2795 -0.065172 0
M  V30 3616 C 341.425 -5.23479 -1.08967 0
M  V30 3617 C 342.725 -5.10741 1.09273 0
M  V30 3618 H 344.419 -2.85692 0.895571 0
M  V30 3619 H 341.965 -1.37364 0.432109 0
M  V30 3620 H 343.918 -4.02675 -1.24221 0
M  V30 3621 H 342.642 -2.8404 -1.61211 0
M  V30 3622 H 341.301 -3.64813 0.361511 0
M  V30 3623 H 340.949 -4.65758 -1.89944 0
M  V30 3624 H 340.649 -5.84472 -0.605489 0
M  V30 3625 H 342.173 -5.90974 -1.53565 0
M  V30 3626 H 343.587 -5.68699 0.724841 0
M  V30 3627 H 341.984 -5.8088 1.50659 0
M  V30 3628 H 343.054 -4.45525 1.91404 0
M  V30 3629 N 344.397 -0.483516 -1.5 0
M  V30 3630 C 345.622 0.0667119 -2.07293 0
M  V30 3631 C 346.047 1.3164 -1.3436 0
M  V30 3632 O 345.405 1.76945 -0.394987 0
M  V30 3633 C 345.453 0.321126 -3.59167 0
M  V30 3634 O 344.557 1.39927 -3.87936 0
M  V30 3635 H 343.898 -0.0184758 -0.663743 0
M  V30 3636 H 346.428 -0.678125 -1.93035 0
M  V30 3637 H 346.438 0.557906 -4.04168 0
M  V30 3638 H 345.113 -0.592007 -4.11665 0
M  V30 3639 H 343.69 1.14882 -3.54763 0
M  V30 3640 N 345.875 1.56104 -0.216619 0
M  V30 3641 C 347.286 1.844 0.292128 0
M  V30 3642 C 347.637 1.13788 1.59833 0
M  V30 3643 O 346.762 0.405888 2.12559 0
M  V30 3644 C 347.357 3.3452 0.53681 0
M  V30 3645 C 345.916 3.63151 0.989876 0
M  V30 3646 C 345.063 2.77255 0.0502302 0
M  V30 3647 H 348.014 1.52481 -0.439926 0
M  V30 3648 H 348.035 3.54459 1.38345 0
M  V30 3649 H 347.547 3.85885 -0.414031 0
M  V30 3650 H 345.648 3.17238 1.95425 0
M  V30 3651 H 345.761 4.71177 0.867698 0
M  V30 3652 H 344.125 2.48555 0.556117 0
M  V30 3653 H 344.908 3.31416 -0.89544 0
M  V30 3654 N 347.353 -0.0568162 1.57498 0
M  V30 3655 C 348.316 -1.05038 2.03715 0
M  V30 3656 C 349.316 -1.30709 0.936577 0
M  V30 3657 O 350.506 -1.26178 1.20103 0
M  V30 3658 C 347.638 -2.39034 2.43055 0
M  V30 3659 H 348.831 -0.651715 2.92733 0
M  V30 3660 H 346.384 -0.302947 1.53336 0
M  V30 3661 H 347.119 -2.83703 1.57108 0
M  V30 3662 H 346.904 -2.21739 3.2338 0
M  V30 3663 H 348.394 -3.10421 2.79336 0
M  V30 3664 N 348.832 -1.54138 -0.328536 0
M  V30 3665 C 349.795 -1.82462 -1.38709 0
M  V30 3666 C 350.795 -0.696229 -1.44946 0
M  V30 3667 O 351.985 -0.964535 -1.4506 0
M  V30 3668 C 349.117 -1.98018 -2.77492 0
M  V30 3669 H 350.31 -2.77037 -1.14851 0
M  V30 3670 H 347.863 -1.45779 -0.563751 0
M  V30 3671 H 348.598 -1.05637 -3.06613 0
M  V30 3672 H 348.383 -2.80124 -2.74359 0
M  V30 3673 H 349.873 -2.21396 -3.54081 0
M  V30 3674 N 350.31 0.590341 -1.46126 0
M  V30 3675 C 351.24 1.71032 -1.58966 0
M  V30 3676 C 352.221 1.64302 -0.440335 0
M  V30 3677 O 353.406 1.82436 -0.665634 0
M  V30 3678 C 350.536 3.09665 -1.57241 0
M  V30 3679 C 349.49 3.31221 -2.71066 0
M  V30 3680 C 348.816 4.70303 -2.54399 0
M  V30 3681 C 350.116 3.19796 -4.1295 0
M  V30 3682 H 351.81 1.60543 -2.52718 0
M  V30 3683 H 349.356 0.770933 -1.21625 0
M  V30 3684 H 351.309 3.87831 -1.64819 0
M  V30 3685 H 350.033 3.21036 -0.600289 0
M  V30 3686 H 348.692 2.55452 -2.62944 0
M  V30 3687 H 348.34 4.78429 -1.55288 0
M  V30 3688 H 348.04 4.85679 -3.30741 0
M  V30 3689 H 349.564 5.50647 -2.63857 0
M  V30 3690 H 350.978 3.87815 -4.22223 0
M  V30 3691 H 349.375 3.46696 -4.89818 0
M  V30 3692 H 350.445 2.16983 -4.33643 0
M  V30 3693 N 351.788 1.33704 0.83433 0
M  V30 3694 C 352.718 1.26967 1.95963 0
M  V30 3695 C 353.699 0.149337 1.69443 0
M  V30 3696 O 354.884 0.339852 1.91203 0
M  V30 3697 C 352.014 1.01275 3.32206 0
M  V30 3698 C 350.968 2.09652 3.73136 0
M  V30 3699 C 350.294 1.69166 5.07235 0
M  V30 3700 C 351.594 3.51372 3.86439 0
M  V30 3701 H 353.288 2.2112 2.01857 0
M  V30 3702 H 350.834 1.06447 0.969793 0
M  V30 3703 H 352.787 0.952106 4.10503 0
M  V30 3704 H 351.511 0.0356203 3.26581 0
M  V30 3705 H 350.17 2.14766 2.97104 0
M  V30 3706 H 349.818 0.701437 4.98085 0
M  V30 3707 H 349.518 2.41694 5.35591 0
M  V30 3708 H 351.042 1.64576 5.88003 0
M  V30 3709 H 352.456 3.48734 4.55036 0
M  V30 3710 H 350.853 4.22425 4.26236 0
M  V30 3711 H 351.923 3.89546 2.88759 0
M  V30 3712 N 353.266 -1.05314 1.17247 0
M  V30 3713 C 354.198 -2.13023 0.845812 0
M  V30 3714 C 355.211 -1.62096 -0.151246 0
M  V30 3715 O 356.4 -1.78343 0.0748818 0
M  V30 3716 C 353.5 -3.38047 0.240292 0
M  V30 3717 C 352.673 -4.18255 1.27991 0
M  V30 3718 C 351.732 -5.21625 0.692375 0
M  V30 3719 O 350.758 -5.52619 1.36385 0
M  V30 3720 N 351.96 -5.78201 -0.516178 0
M  V30 3721 H 354.725 -2.41642 1.77283 0
M  V30 3722 H 352.286 -1.21401 1.07115 0
M  V30 3723 H 354.278 -4.04359 -0.16603 0
M  V30 3724 H 352.848 -3.06972 -0.590487 0
M  V30 3725 H 352.068 -3.47451 1.86203 0
M  V30 3726 H 353.356 -4.68643 1.98119 0
M  V30 3727 H 352.754 -5.55301 -1.07969 0
M  V30 3728 H 351.311 -6.4604 -0.86458 0
M  V30 3729 N 354.744 -0.972509 -1.24016 0
M  V30 3730 C 356.16 -0.679827 -1.44397 0
M  V30 3731 C 356.36 0.756716 -1.86751 0
M  V30 3732 O 355.416 1.53007 -2.00861 0
M  V30 3733 C 356.729 -1.66803 -2.50195 0
M  V30 3734 C 358.277 -1.68119 -2.64017 0
M  V30 3735 C 358.752 -2.65748 -3.73017 0
M  V30 3736 N 360.243 -2.64219 -3.8045 0
M  V30 3737 C 360.978 -3.36433 -4.64328 0
M  V30 3738 N 360.474 -4.1818 -5.52356 0
M  V30 3739 N 362.267 -3.25235 -4.58453 0
M  V30 3740 H 354.418 -1.90059 -0.948228 0
M  V30 3741 H 356.681 -0.818527 -0.478245 0
M  V30 3742 H 356.387 -2.69498 -2.25973 0
M  V30 3743 H 356.261 -1.4446 -3.48441 0
M  V30 3744 H 358.648 -0.661319 -2.87594 0
M  V30 3745 H 358.729 -1.94525 -1.66113 0
M  V30 3746 H 358.373 -3.67872 -3.50189 0
M  V30 3747 H 358.303 -2.36619 -4.70446 0
M  V30 3748 H 360.794 -2.04887 -3.17537 0
M  V30 3749 H 361.107 -4.70157 -6.13329 0
M  V30 3750 H 359.452 -4.22273 -5.52006 0
M  V30 3751 H 362.643 -2.60829 -3.88698 0
M  V30 3752 H 362.816 -3.81776 -5.23594 0
M  V30 3753 N 356.222 1.38976 -0.743202 0
M  V30 3754 C 357.152 2.33171 -0.123873 0
M  V30 3755 C 358.133 1.54336 0.71516 0
M  V30 3756 O 359.318 1.82696 0.658467 0
M  V30 3757 C 356.448 3.38474 0.777978 0
M  V30 3758 C 355.402 4.27979 0.0424758 0
M  V30 3759 C 354.728 5.2405 1.06189 0
M  V30 3760 C 356.028 5.10155 -1.1198 0
M  V30 3761 H 357.722 2.85213 -0.910709 0
M  V30 3762 H 355.268 1.37133 -0.439388 0
M  V30 3763 H 357.221 4.03328 1.22084 0
M  V30 3764 H 355.945 2.84891 1.59702 0
M  V30 3765 H 354.604 3.64616 -0.380853 0
M  V30 3766 H 354.252 4.66758 1.87472 0
M  V30 3767 H 353.952 5.84785 0.574485 0
M  V30 3768 H 355.476 5.9178 1.50428 0
M  V30 3769 H 356.89 5.68307 -0.75499 0
M  V30 3770 H 355.287 5.80073 -1.53738 0
M  V30 3771 H 356.357 4.44504 -1.93764 0
M  V30 3772 N 357.7 0.491464 1.49741 0
M  V30 3773 C 358.648 -0.305837 2.30581 0
M  V30 3774 C 359.642 -0.971642 1.38764 0
M  V30 3775 O 360.848 -0.90042 1.5586 0
M  V30 3776 H 357.223 -0.117482 0.742767 0
M  V30 3777 H 359.194 0.396093 2.95759 0
M  V30 3778 C 357.943 -1.36319 3.19863 0
M  V30 3779 H 357.266 -0.860258 3.90435 0
M  V30 3780 H 358.706 -1.89323 3.79385 0
M  V30 3781 C 357.165 -2.37621 2.38826 0
M  V30 3782 O 357.695 -3.43311 2.08567 0
M  V30 3783 N 355.901 -2.09849 2.01026 0
M  V30 3784 H 355.448 -1.23922 2.25834 0
M  V30 3785 H 355.406 -2.77859 1.47112 0
M  V30 3786 N 359.178 -1.55987 0.224894 0
M  V30 3787 C 360.088 -2.24066 -0.69511 0
M  V30 3788 C 361.104 -1.24939 -1.21104 0
M  V30 3789 O 362.28 -1.5776 -1.25195 0
M  V30 3790 C 359.345 -2.90983 -1.88493 0
M  V30 3791 C 358.406 -4.05462 -1.41064 0
M  V30 3792 C 357.639 -4.69179 -2.54375 0
M  V30 3793 O 357.862 -4.31895 -3.72589 0
M  V30 3794 O 356.796 -5.58108 -2.25386 0
M  V30 3795 H 360.622 -3.03353 -0.145149 0
M  V30 3796 H 358.207 -1.49399 -0.00569476 0
M  V30 3797 H 360.089 -3.33209 -2.57972 0
M  V30 3798 H 358.764 -2.14653 -2.42293 0
M  V30 3799 H 357.671 -3.67798 -0.683774 0
M  V30 3800 H 359.004 -4.83545 -0.918985 0
M  V30 3801 N 360.656 0.0484629 -1.57525 0
M  V30 3802 C 361.905 0.742065 -1.87553 0
M  V30 3803 C 362.218 1.77545 -0.820802 0
M  V30 3804 O 363.424 2.52027 -1.00967 0
M  V30 3805 C 361.88 1.37081 -3.32771 0
M  V30 3806 C 361.488 0.374786 -4.4643 0
M  V30 3807 C 363.232 2.04542 -3.71972 0
M  V30 3808 C 361.139 1.01077 -5.82698 0
M  V30 3809 H 360.069 0.280903 -0.699721 0
M  V30 3810 H 362.72 -0.00411877 -1.835 0
M  V30 3811 H 361.102 2.16605 -3.31509 0
M  V30 3812 H 362.276 -0.392331 -4.59127 0
M  V30 3813 H 360.591 -0.196653 -4.15935 0
M  V30 3814 H 363.188 2.52943 -4.71088 0
M  V30 3815 H 363.531 2.85515 -3.02964 0
M  V30 3816 H 364.064 1.31819 -3.75325 0
M  V30 3817 H 360.803 0.240878 -6.55057 0
M  V30 3818 H 360.323 1.74819 -5.73758 0
M  V30 3819 H 362.002 1.52383 -6.28799 0
M  V30 3820 N 362.134 1.5431 0.320358 0
M  V30 3821 C 363.382 1.72327 1.05583 0
M  V30 3822 C 363.703 0.50149 1.88441 0
M  V30 3823 O 362.973 -0.48448 1.89815 0
M  V30 3824 H 361.553 0.635387 0.3928 0
M  V30 3825 H 364.215 1.91621 0.356019 0
M  V30 3826 H 363.311 2.60426 1.72003 0
M  V30 3827 N 363.613 -0.582584 1.46437 0
M  V30 3828 C 364.861 -1.33814 1.51453 0
M  V30 3829 C 365.182 -1.94277 0.167792 0
M  V30 3830 O 364.452 -1.78566 -0.805677 0
M  V30 3831 H 363.032 -0.496838 0.557818 0
M  V30 3832 H 365.694 -0.682281 1.82568 0
M  V30 3833 H 364.79 -2.14479 2.26728 0
M  V30 3834 N 365.091 -1.34144 -0.827227 0
M  V30 3835 C 366.507 -1.13732 -1.11969 0
M  V30 3836 C 366.707 0.0640463 -2.01398 0
M  V30 3837 O 365.763 0.740856 -2.41387 0
M  V30 3838 C 367.076 -2.43047 -1.77055 0
M  V30 3839 C 368.624 -2.49063 -1.89569 0
M  V30 3840 C 369.099 -3.78369 -2.58072 0
M  V30 3841 N 370.59 -3.79505 -2.65575 0
M  V30 3842 C 371.325 -4.76274 -3.19297 0
M  V30 3843 N 370.821 -5.83424 -3.73616 0
M  V30 3844 N 372.614 -4.63735 -3.17658 0
M  V30 3845 H 364.765 -2.11126 -0.232296 0
M  V30 3846 H 367.028 -0.933424 -0.165602 0
M  V30 3847 H 366.734 -3.31025 -1.18807 0
M  V30 3848 H 366.608 -2.56066 -2.76966 0
M  V30 3849 H 368.995 -1.61527 -2.46968 0
M  V30 3850 H 369.076 -2.39975 -0.885745 0
M  V30 3851 H 368.72 -4.66293 -2.01329 0
M  V30 3852 H 368.65 -3.84737 -3.59562 0
M  V30 3853 H 371.141 -3.02074 -2.27068 0
M  V30 3854 H 371.454 -6.53282 -4.12846 0
M  V30 3855 H 369.799 -5.87143 -3.71871 0
M  V30 3856 H 372.99 -3.79177 -2.74486 0
M  V30 3857 H 373.163 -5.39318 -3.59221 0
M  V30 3858 N 366.569 1.04691 -1.17803 0
M  V30 3859 C 367.519 2.10856 -0.867391 0
M  V30 3860 C 368.503 1.601 0.160206 0
M  V30 3861 O 369.695 1.76948 -0.042947 0
M  V30 3862 C 366.824 3.411 -0.388012 0
M  V30 3863 C 365.91 3.9864 -1.44732 0
M  V30 3864 N 366.301 4.30075 -2.66212 0
M  V30 3865 C 364.599 4.26439 -1.30637 0
M  V30 3866 C 365.3 4.76033 -3.34317 0
M  V30 3867 N 364.276 4.76462 -2.61696 0
M  V30 3868 H 368.078 2.33029 -1.79094 0
M  V30 3869 H 365.592 1.22386 -1.0675 0
M  V30 3870 H 367.589 4.16641 -0.146994 0
M  V30 3871 H 366.249 3.20357 0.529271 0
M  V30 3872 H 367.26 4.19917 -3.03134 0
M  V30 3873 H 363.937 4.15056 -0.451129 0
M  V30 3874 H 365.327 5.09427 -4.38103 0
M  V30 3875 N 368.047 0.979072 1.23499 0
M  V30 3876 C 369.295 0.645941 1.91499 0
M  V30 3877 C 369.616 -0.822948 1.76784 0
M  V30 3878 O 368.886 -1.58854 1.14639 0
M  V30 3879 H 367.466 0.235919 0.708767 0
M  V30 3880 H 370.128 1.2426 1.50152 0
M  V30 3881 H 369.224 0.896411 2.9895 0
M  V30 3882 N 369.525 -1.3858 0.750561 0
M  V30 3883 C 370.771 -2.00481 0.305825 0
M  V30 3884 C 371.104 -1.5944 -1.10872 0
M  V30 3885 O 370.379 -0.83052 -1.75877 0
M  V30 3886 C 370.662 -3.5758 0.425287 0
M  V30 3887 C 370.515 -4.08594 1.88072 0
M  V30 3888 C 371.834 -4.39719 -0.183122 0
M  V30 3889 H 368.953 -0.728348 0.112598 0
M  V30 3890 H 371.595 -1.64566 0.949638 0
M  V30 3891 H 369.745 -3.88306 -0.122828 0
M  V30 3892 H 371.417 -3.88523 2.48691 0
M  V30 3893 H 369.66 -3.61574 2.39681 0
M  V30 3894 H 370.331 -5.177 1.91548 0
M  V30 3895 H 372.807 -4.15128 0.284303 0
M  V30 3896 H 371.683 -5.48856 -0.0692757 0
M  V30 3897 H 371.944 -4.23434 -1.27106 0
M  V30 3898 N 371.003 -0.499398 -1.49478 0
M  V30 3899 C 372.251 0.0455996 -2.02049 0
M  V30 3900 C 372.572 1.37633 -1.38138 0
M  V30 3901 O 371.842 1.8842 -0.536166 0
M  V30 3902 H 370.422 0.0198416 -0.746736 0
M  V30 3903 H 373.084 -0.656274 -1.83519 0
M  V30 3904 H 372.18 0.176445 -3.11601 0
M  V30 3905 N 372.481 1.55866 -0.233164 0
M  V30 3906 C 373.897 1.59133 0.121988 0
M  V30 3907 C 374.097 1.25016 1.58029 0
M  V30 3908 O 373.153 0.990922 2.32243 0
M  V30 3909 C 374.466 2.99932 -0.214792 0
M  V30 3910 C 376.014 3.12601 -0.157971 0
M  V30 3911 C 376.489 4.55597 -0.46859 0
M  V30 3912 N 377.98 4.61305 -0.418585 0
M  V30 3913 C 378.715 5.69903 -0.63227 0
M  V30 3914 N 378.211 6.86819 -0.90835 0
M  V30 3915 N 380.004 5.59264 -0.563913 0
M  V30 3916 H 372.155 1.76315 -1.18434 0
M  V30 3917 H 374.418 0.820093 -0.475553 0
M  V30 3918 H 374.124 3.29588 -1.22739 0
M  V30 3919 H 373.998 3.74327 0.464691 0
M  V30 3920 H 376.385 2.82735 0.845283 0
M  V30 3921 H 376.466 2.40511 -0.871102 0
M  V30 3922 H 376.11 4.86182 -1.46934 0
M  V30 3923 H 376.04 5.25928 0.265865 0
M  V30 3924 H 378.531 3.77297 -0.213368 0
M  V30 3925 H 378.844 7.65507 -1.05919 0
M  V30 3926 H 377.189 6.88536 -0.945673 0
M  V30 3927 H 380.38 4.66802 -0.348372 0
M  V30 3928 H 380.553 6.43831 -0.733847 0
M  V30 3929 N 373.959 -0.0401083 1.57549 0
M  V30 3930 C 375.205 -0.734211 1.89043 0
M  V30 3931 C 375.538 -1.75591 0.829535 0
M  V30 3932 O 374.813 -1.93868 -0.156706 0
M  V30 3933 C 375.096 -1.41374 3.31188 0
M  V30 3934 C 374.949 -0.406299 4.47961 0
M  V30 3935 C 376.268 -2.35061 3.72068 0
M  V30 3936 H 373.387 -0.265447 0.687537 0
M  V30 3937 H 376.029 0.00294087 1.9 0
M  V30 3938 H 374.179 -2.04206 3.30503 0
M  V30 3939 H 375.851 0.219255 4.60779 0
M  V30 3940 H 374.094 0.275485 4.32924 0
M  V30 3941 H 374.765 -0.920022 5.44279 0
M  V30 3942 H 377.241 -1.82282 3.74049 0
M  V30 3943 H 376.117 -2.79593 4.72355 0
M  V30 3944 H 376.378 -3.21258 3.0372 0
M  V30 3945 N 375.437 -1.54477 -0.31217 0
M  V30 3946 C 376.714 -1.63891 -1.06767 0
M  V30 3947 C 377.094 -0.480028 -2.0557 0
M  V30 3948 O 376.442 0.524487 -2.22399 0
M  V30 3949 C 376.652 -3.01402 -1.75948 0
M  V30 3950 C 378 -3.57838 -2.28554 0
M  V30 3951 O 379.024 -3.03782 -1.85998 0
M  V30 3952 O 377.883 -4.52462 -3.06497 0
M  V30 3953 H 374.977 -0.664125 -0.492816 0
M  V30 3954 H 377.523 -1.66823 -0.311149 0
M  V30 3955 H 376.295 -3.77187 -1.04144 0
M  V30 3956 H 375.918 -3.02199 -2.58383 0
M  V30 3957 N 376.915 0.57481 -1.46744 0
M  V30 3958 C 378.164 1.32898 -1.51727 0
M  V30 3959 C 378.477 1.948 -0.176692 0
M  V30 3960 O 379.683 2.71299 -0.104385 0
M  V30 3961 C 378.139 2.40901 -2.67385 0
M  V30 3962 C 377.747 1.85266 -4.07898 0
M  V30 3963 C 379.491 3.17609 -2.81646 0
M  V30 3964 C 377.398 2.90945 -5.14883 0
M  V30 3965 H 376.328 0.499631 -0.564699 0
M  V30 3966 H 378.979 0.612536 -1.72975 0
M  V30 3967 H 377.361 3.15379 -2.39483 0
M  V30 3968 H 378.535 1.17278 -4.45626 0
M  V30 3969 H 376.85 1.21199 -3.98371 0
M  V30 3970 H 379.447 3.96493 -3.58744 0
M  V30 3971 H 379.79 3.70696 -1.89448 0
M  V30 3972 H 380.323 2.50239 -3.09233 0
M  V30 3973 H 377.062 2.42736 -6.089 0
M  V30 3974 H 376.582 3.57398 -4.81691 0
M  V30 3975 H 378.261 3.54755 -5.41071 0
M  V30 3976 N 378.394 1.34581 0.820102 0
M  V30 3977 C 379.64 1.27285 1.57881 0
M  V30 3978 C 379.973 -0.156137 1.93571 0
M  V30 3979 O 379.248 -1.10222 1.60254 0
M  V30 3980 C 379.531 2.16639 2.87645 0
M  V30 3981 C 379.384 3.68088 2.58517 0
M  V30 3982 C 380.703 2.05378 3.8924 0
M  V30 3983 H 377.822 0.463714 0.572833 0
M  V30 3984 H 380.464 1.64859 0.944539 0
M  V30 3985 H 378.614 1.84725 3.41773 0
M  V30 3986 H 380.286 4.10382 2.10676 0
M  V30 3987 H 378.529 3.89038 1.91917 0
M  V30 3988 H 379.2 4.2598 3.51063 0
M  V30 3989 H 381.676 2.33404 3.44473 0
M  V30 3990 H 380.552 2.7012 4.77835 0
M  V30 3991 H 380.813 1.0316 4.29896 0
M  V30 3992 N 379.872 -1.04064 1.18357 0
M  V30 3993 C 380.782 -2.15569 0.925596 0
M  V30 3994 C 381.798 -1.7365 -0.110295 0
M  V30 3995 O 382.974 -2.01273 0.0716218 0
M  V30 3996 C 380.039 -3.43704 0.454836 0
M  V30 3997 C 379.1 -4.00004 1.55869 0
M  V30 3998 C 378.333 -5.22023 1.1103 0
M  V30 3999 O 378.556 -5.70392 -0.0309756 0
M  V30 4000 O 377.49 -5.70856 1.90805 0
M  V30 4001 H 381.316 -2.40187 1.8586 0
M  V30 4002 H 378.901 -1.1402 0.965394 0
M  V30 4003 H 380.783 -4.20923 0.200382 0
M  V30 4004 H 379.458 -3.20559 -0.449876 0
M  V30 4005 H 378.365 -3.24172 1.86716 0
M  V30 4006 H 379.698 -4.2749 2.43953 0
M  V30 4007 N 381.35 -0.985608 -1.22978 0
M  V30 4008 C 382.298 -0.522631 -2.26652 0
M  V30 4009 C 383.292 0.422998 -1.64034 0
M  V30 4010 O 384.498 0.296319 -1.77544 0
M  V30 4011 H 380.873 -0.150597 -0.736766 0
M  V30 4012 H 382.844 -1.40863 -2.63059 0
M  V30 4013 C 381.593 0.154238 -3.47358 0
M  V30 4014 H 380.916 -0.564329 -3.95797 0
M  V30 4015 H 382.356 0.441744 -4.21693 0
M  V30 4016 C 380.815 1.38719 -3.07016 0
M  V30 4017 O 381.345 2.48307 -3.15764 0
M  V30 4018 N 379.551 1.25975 -2.61875 0
M  V30 4019 H 379.098 0.368068 -2.54957 0
M  V30 4020 H 379.056 2.08578 -2.3525 0
M  V30 4021 N 382.828 1.3818 -0.7579 0
M  V30 4022 C 384.244 1.5353 -0.435972 0
M  V30 4023 C 384.444 1.71961 1.05032 0
M  V30 4024 O 383.5 1.73307 1.83633 0
M  V30 4025 C 384.813 2.73989 -1.23898 0
M  V30 4026 C 386.361 2.87841 -1.22949 0
M  V30 4027 C 386.836 4.11266 -2.01554 0
M  V30 4028 N 388.327 4.18352 -1.98837 0
M  V30 4029 C 389.062 5.12856 -2.5645 0
M  V30 4030 N 388.558 6.13005 -3.22794 0
M  V30 4031 N 390.351 5.05238 -2.46356 0
M  V30 4032 H 382.502 1.24467 -1.7211 0
M  V30 4033 H 384.765 0.604982 -0.729864 0
M  V30 4034 H 384.471 2.66789 -2.29165 0
M  V30 4035 H 384.345 3.67294 -0.858764 0
M  V30 4036 H 386.732 2.9452 -0.184854 0
M  V30 4037 H 386.813 1.95534 -1.64924 0
M  V30 4038 H 386.457 4.05349 -3.06031 0
M  V30 4039 H 386.387 5.02661 -1.5697 0
M  V30 4040 H 388.878 3.46628 -1.50524 0
M  V30 4041 H 389.191 6.81619 -3.64165 0
M  V30 4042 H 387.536 6.13325 -3.2689 0
M  V30 4043 H 390.727 4.25938 -1.9415 0
M  V30 4044 H 390.9 5.78707 -2.91552 0
M  V30 4045 N 384.306 0.507319 1.49211 0
M  V30 4046 C 385.553 -0.0349529 2.0247 0
M  V30 4047 C 385.881 -1.36409 1.38647 0
M  V30 4048 O 385.136 -1.88841 0.513566 0
M  V30 4049 C 385.435 -0.229513 3.56662 0
M  V30 4050 C 385.101 1.02241 4.39156 0
M  V30 4051 C 383.763 1.36557 4.61417 0
M  V30 4052 C 386.115 1.85428 4.871 0
M  V30 4053 C 383.443 2.53999 5.28868 0
M  V30 4054 C 385.795 3.02028 5.55843 0
M  V30 4055 C 384.459 3.36717 5.76349 0
M  V30 4056 H 383.729 -0.0127902 0.74089 0
M  V30 4057 H 386.376 0.668756 1.79443 0
M  V30 4058 H 384.681 -1.0158 3.78403 0
M  V30 4059 H 386.378 -0.663641 3.9547 0
M  V30 4060 H 382.968 0.745124 4.22073 0
M  V30 4061 H 387.152 1.6023 4.69723 0
M  V30 4062 H 382.408 2.81105 5.42946 0
M  V30 4063 H 386.582 3.66808 5.91967 0
M  V30 4064 H 384.209 4.27821 6.28389 0
M  V30 4065 N 385.784 -1.5574 0.241426 0
M  V30 4066 C 387.03 -1.99104 -0.385406 0
M  V30 4067 C 387.363 -1.1293 -1.57988 0
M  V30 4068 O 386.638 -0.191449 -1.93555 0
M  V30 4069 C 386.921 -3.51087 -0.800616 0
M  V30 4070 C 386.774 -4.48028 0.398874 0
M  V30 4071 C 388.093 -4.08015 -1.64959 0
M  V30 4072 H 385.212 -0.723848 -0.138614 0
M  V30 4073 H 387.854 -1.86903 0.341642 0
M  V30 4074 H 386.004 -3.61615 -1.4201 0
M  V30 4075 H 387.676 -4.49487 1.03726 0
M  V30 4076 H 385.919 -4.21077 1.04293 0
M  V30 4077 H 386.59 -5.51962 0.0651056 0
M  V30 4078 H 389.066 -4.00555 -1.12672 0
M  V30 4079 H 387.942 -5.14635 -1.90898 0
M  V30 4080 H 388.203 -3.56131 -2.61961 0
M  V30 4081 N 387.262 0.0317525 -1.57568 0
M  V30 4082 C 388.51 0.721676 -1.88776 0
M  V30 4083 C 388.831 1.76039 -0.838772 0
M  V30 4084 O 388.101 1.95482 0.127935 0
M  V30 4085 H 386.681 0.269534 -0.696678 0
M  V30 4086 H 389.343 -0.00165879 -1.949 0
M  V30 4087 H 388.439 1.21293 -2.87566 0
M  V30 4088 N 388.74 1.54641 0.303973 0
M  V30 4089 C 389.673 1.80263 1.3993 0
M  V30 4090 C 390.651 0.653657 1.48883 0
M  V30 4091 O 391.835 0.893284 1.6599 0
M  V30 4092 C 388.962 1.9367 2.77866 0
M  V30 4093 C 388.008 3.16078 2.86351 0
M  V30 4094 S 388.841 4.74219 2.4875 0
M  V30 4095 C 389.997 4.90558 3.88721 0
M  V30 4096 H 390.23 2.72886 1.17986 0
M  V30 4097 H 387.763 1.46014 0.501918 0
M  V30 4098 H 389.721 2.0208 3.57315 0
M  V30 4099 H 388.382 1.01991 2.9708 0
M  V30 4100 H 387.575 3.22252 3.87517 0
M  V30 4101 H 387.177 3.06099 2.14893 0
M  V30 4102 H 389.469 4.74398 4.83687 0
M  V30 4103 H 390.412 5.92651 3.87518 0
M  V30 4104 H 390.82 4.18728 3.78585 0
M  V30 4105 N 390.218 -0.567019 1.47046 0
M  V30 4106 C 391.165 -1.67489 1.58796 0
M  V30 4107 C 392.135 -1.60399 0.43144 0
M  V30 4108 O 393.32 -1.79378 0.650233 0
M  V30 4109 C 390.46 -3.05821 1.59899 0
M  V30 4110 C 389.573 -3.2342 2.86397 0
M  V30 4111 C 388.708 -4.52093 2.789 0
M  V30 4112 C 387.747 -4.6309 4.00267 0
M  V30 4113 N 386.884 -5.83106 3.91064 0
M  V30 4114 H 391.724 -1.56785 2.53422 0
M  V30 4115 H 389.261 -0.763896 1.2571 0
M  V30 4116 H 391.219 -3.8591 1.58522 0
M  V30 4117 H 389.849 -3.15384 0.687929 0
M  V30 4118 H 388.901 -2.3683 2.97684 0
M  V30 4119 H 390.213 -3.27412 3.76301 0
M  V30 4120 H 389.367 -5.4043 2.75718 0
M  V30 4121 H 388.106 -4.50565 1.86662 0
M  V30 4122 H 387.111 -3.73168 4.03765 0
M  V30 4123 H 388.336 -4.66386 4.93621 0
M  V30 4124 H 386.282 -5.82546 3.01623 0
M  V30 4125 H 386.199 -5.88434 4.74638 0
M  V30 4126 H 387.467 -6.73831 3.91882 0
M  V30 4127 N 391.696 -1.35014 -0.812953 0
M  V30 4128 C 392.921 -1.31187 -1.60639 0
M  V30 4129 C 393.346 0.109382 -1.87782 0
M  V30 4130 O 392.704 1.07424 -1.46047 0
M  V30 4131 C 392.752 -2.11809 -2.91838 0
M  V30 4132 O 391.856 -1.49444 -3.8437 0
M  V30 4133 H 391.197 -0.450084 -0.488181 0
M  V30 4134 H 393.727 -1.77963 -1.00947 0
M  V30 4135 H 393.737 -2.23531 -3.41318 0
M  V30 4136 H 392.412 -3.15137 -2.71407 0
M  V30 4137 H 390.989 -1.46524 -3.42907 0
M  V30 4138 N 393.175 1.03435 -1.18907 0
M  V30 4139 C 394.591 1.28973 -0.940111 0
M  V30 4140 C 394.791 1.97676 0.390691 0
M  V30 4141 O 393.847 2.26127 1.12352 0
M  V30 4142 C 395.16 2.14221 -2.11021 0
M  V30 4143 C 396.708 2.27547 -2.14922 0
M  V30 4144 C 397.183 3.16164 -3.31367 0
M  V30 4145 N 398.674 3.23752 -3.31269 0
M  V30 4146 C 399.409 3.92495 -4.18014 0
M  V30 4147 N 398.905 4.63515 -5.14904 0
M  V30 4148 N 400.698 3.88838 -4.05908 0
M  V30 4149 H 392.849 0.57252 -2.04538 0
M  V30 4150 H 395.112 0.315184 -0.894071 0
M  V30 4151 H 394.818 1.71054 -3.073 0
M  V30 4152 H 394.692 3.14919 -2.0762 0
M  V30 4153 H 397.079 2.69947 -1.19217 0
M  V30 4154 H 397.16 1.26418 -2.22378 0
M  V30 4155 H 396.804 2.74474 -4.27348 0
M  V30 4156 H 396.734 4.17339 -3.21148 0
M  V30 4157 H 399.225 2.73167 -2.61129 0
M  V30 4158 H 399.538 5.13583 -5.77453 0
M  V30 4159 H 397.883 4.62398 -5.18857 0
M  V30 4160 H 401.074 3.32491 -3.29495 0
M  V30 4161 H 401.247 4.4214 -4.73726 0
M  V30 4162 N 394.653 0.992116 1.22453 0
M  V30 4163 C 395.901 0.666215 1.90804 0
M  V30 4164 C 396.222 -0.804152 1.77647 0
M  V30 4165 O 395.492 -1.57629 1.16318 0
M  V30 4166 H 394.072 0.243423 0.706225 0
M  V30 4167 H 396.734 1.25845 1.48825 0
M  V30 4168 H 395.83 0.928069 2.97982 0
M  V30 4169 N 396.131 -1.37776 0.765217 0
M  V30 4170 C 397.377 -2.00145 0.327072 0
M  V30 4171 C 397.71 -1.60607 -1.09175 0
M  V30 4172 O 396.985 -0.849127 -1.74986 0
M  V30 4173 C 397.268 -3.57109 0.46319 0
M  V30 4174 C 397.121 -4.06576 1.92395 0
M  V30 4175 C 398.44 -4.39888 -0.136473 0
M  V30 4176 H 395.559 -0.727113 0.120316 0
M  V30 4177 H 398.201 -1.63549 0.967039 0
M  V30 4178 H 396.351 -3.88414 -0.0816358 0
M  V30 4179 H 398.023 -3.85864 2.52798 0
M  V30 4180 H 396.266 -3.59011 2.43503 0
M  V30 4181 H 396.937 -5.15639 1.97028 0
M  V30 4182 H 399.413 -4.14803 0.328317 0
M  V30 4183 H 398.289 -5.48899 -0.0110582 0
M  V30 4184 H 398.55 -4.24758 -1.22608 0
M  V30 4185 N 397.609 -0.515225 -1.4894 0
M  V30 4186 C 398.839 0.0205735 -2.0659 0
M  V30 4187 C 399.247 1.30064 -1.37405 0
M  V30 4188 O 398.59 1.78087 -0.450632 0
M  V30 4189 C 398.652 0.330124 -3.57981 0
M  V30 4190 C 398.316 -0.854295 -4.48944 0
M  V30 4191 C 399.313 -1.7487 -4.89609 0
M  V30 4192 C 396.998 -1.05712 -4.9105 0
M  V30 4193 C 398.992 -2.82996 -5.71132 0
M  V30 4194 C 396.679 -2.14154 -5.72347 0
M  V30 4195 C 397.677 -3.0263 -6.12294 0
M  V30 4196 O 397.365 -4.09198 -6.91962 0
M  V30 4197 H 397.097 -0.0236833 -0.675585 0
M  V30 4198 H 399.651 -0.715956 -1.92518 0
M  V30 4199 H 397.881 1.12044 -3.70112 0
M  V30 4200 H 399.57 0.806233 -3.97812 0
M  V30 4201 H 400.336 -1.60388 -4.57712 0
M  V30 4202 H 396.215 -0.377788 -4.59449 0
M  V30 4203 H 399.759 -3.52083 -6.02232 0
M  V30 4204 H 395.656 -2.28626 -6.03656 0
M  V30 4205 H 396.424 -4.06726 -7.10293 0
M  V30 4206 N 399.087 1.5561 -0.249682 0
M  V30 4207 C 399.997 2.25143 0.659375 0
M  V30 4208 C 401.013 1.2685 1.19101 0
M  V30 4209 O 402.189 1.59732 1.22669 0
M  V30 4210 C 399.254 2.93945 1.8384 0
M  V30 4211 C 398.315 4.07655 1.34596 0
M  V30 4212 C 397.548 4.73167 2.46878 0
M  V30 4213 O 397.771 4.37768 3.65671 0
M  V30 4214 O 396.705 5.61623 2.16478 0
M  V30 4215 H 400.531 3.03545 0.0968698 0
M  V30 4216 H 398.116 1.49389 -0.018074 0
M  V30 4217 H 399.998 3.37271 2.52638 0
M  V30 4218 H 398.673 2.18481 2.38847 0
M  V30 4219 H 397.58 3.68839 0.625174 0
M  V30 4220 H 398.913 4.84946 0.841941 0
M  V30 4221 N 400.565 -0.0233959 1.57583 0
M  V30 4222 C 401.793 -0.724682 1.93794 0
M  V30 4223 C 402.208 -1.68588 0.849912 0
M  V30 4224 O 401.565 -1.81676 -0.173204 0
M  V30 4225 C 401.616 -1.47684 3.29957 0
M  V30 4226 O 401.337 -0.554222 4.3458 0
M  V30 4227 C 402.838 -2.27477 3.80485 0
M  V30 4228 H 400.058 -0.203317 0.639455 0
M  V30 4229 H 402.602 0.0207653 2.04489 0
M  V30 4230 H 400.757 -2.17412 3.20641 0
M  V30 4231 H 401.171 -1.08232 5.13212 0
M  V30 4232 H 402.645 -2.7564 4.78254 0
M  V30 4233 H 403.122 -3.09144 3.11972 0
M  V30 4234 H 403.728 -1.62813 3.92902 0
M  V30 4235 N 402.043 -1.548 -0.295768 0
M  V30 4236 C 403.454 -1.65274 -0.868411 0
M  V30 4237 C 403.805 -0.56481 -1.87894 0
M  V30 4238 O 402.93 0.29767 -2.14343 0
M  V30 4239 C 403.525 -2.99603 -1.58188 0
M  V30 4240 C 402.084 -3.12181 -2.10286 0
M  V30 4241 C 401.231 -2.6098 -0.93727 0
M  V30 4242 H 404.182 -1.58534 -0.0726422 0
M  V30 4243 H 404.203 -2.91319 -2.44772 0
M  V30 4244 H 403.715 -3.78764 -0.846151 0
M  V30 4245 H 401.816 -2.3775 -2.8689 0
M  V30 4246 H 401.929 -4.18415 -2.33379 0
M  V30 4247 H 400.293 -2.17564 -1.32431 0
M  V30 4248 H 401.076 -3.42623 -0.215414 0
M  V30 4249 N 403.521 0.559213 -1.47345 0
M  V30 4250 C 404.769 1.31388 -1.53563 0
M  V30 4251 C 405.09 1.93985 -0.198678 0
M  V30 4252 O 404.36 1.79825 0.777167 0
M  V30 4253 H 402.94 0.487901 -0.565652 0
M  V30 4254 H 405.602 0.65315 -1.8363 0
M  V30 4255 H 404.698 2.10844 -2.30111 0
M  V30 4256 N 404.999 1.35443 0.805782 0
M  V30 4257 C 406.247 1.28507 1.55982 0
M  V30 4258 C 406.568 -0.140046 1.94496 0
M  V30 4259 O 405.838 -1.07666 1.63661 0
M  V30 4260 H 404.418 0.472676 0.578434 0
M  V30 4261 H 407.08 1.69555 0.961098 0
M  V30 4262 H 406.176 1.90148 2.47488 0
M  V30 4263 N 406.477 -1.02803 1.19454 0
M  V30 4264 C 407.705 -1.79841 1.02297 0
M  V30 4265 C 408.12 -1.83879 -0.428259 0
M  V30 4266 O 407.477 -1.28345 -1.29745 0
M  V30 4267 C 407.528 -3.24852 1.58598 0
M  V30 4268 O 407.249 -3.21097 2.98041 0
M  V30 4269 C 408.75 -4.18485 1.46236 0
M  V30 4270 H 405.97 -0.565936 0.360496 0
M  V30 4271 H 408.514 -1.2948 1.58288 0
M  V30 4272 H 406.669 -3.72401 1.06753 0
M  V30 4273 H 407.083 -4.12033 3.24545 0
M  V30 4274 H 408.557 -5.18121 1.90407 0
M  V30 4275 H 409.034 -4.37254 0.41301 0
M  V30 4276 H 409.64 -3.76811 1.97215 0
M  V30 4277 N 407.956 -0.998596 -1.21925 0
M  V30 4278 C 409.205 -0.673085 -1.90138 0
M  V30 4279 C 409.518 0.79895 -1.78539 0
M  V30 4280 O 410.724 1.23628 -2.4172 0
M  V30 4281 C 409.18 -1.15339 -3.40918 0
M  V30 4282 C 408.788 -2.65106 -3.61141 0
M  V30 4283 C 410.532 -0.902476 -4.14796 0
M  V30 4284 C 408.439 -3.0671 -5.05651 0
M  V30 4285 H 407.369 -0.248057 -0.712028 0
M  V30 4286 H 410.02 -1.20891 -1.38049 0
M  V30 4287 H 408.402 -0.545658 -3.92223 0
M  V30 4288 H 409.576 -3.31274 -3.20304 0
M  V30 4289 H 407.891 -2.88142 -3.00605 0
M  V30 4290 H 410.488 -1.18895 -5.21314 0
M  V30 4291 H 410.831 0.161349 -4.15987 0
M  V30 4292 H 411.364 -1.47269 -3.69536 0
M  V30 4293 H 408.103 -4.12292 -5.09603 0
M  V30 4294 H 407.623 -2.45249 -5.47369 0
M  V30 4295 H 409.302 -2.9833 -5.74115 0
M  V30 4296 N 409.434 1.37368 -0.772513 0
M  V30 4297 C 410.364 2.32856 -0.173304 0
M  V30 4298 C 411.345 1.55818 0.682262 0
M  V30 4299 O 412.53 1.84052 0.619566 0
M  V30 4300 C 409.66 3.40048 0.706007 0
M  V30 4301 C 408.614 4.27973 -0.0483144 0
M  V30 4302 C 407.94 5.26184 0.950491 0
M  V30 4303 C 409.24 5.07665 -1.22776 0
M  V30 4304 H 410.934 2.83217 -0.971002 0
M  V30 4305 H 408.48 1.3617 -0.468377 0
M  V30 4306 H 410.433 4.05827 1.13501 0
M  V30 4307 H 409.157 2.88214 1.53623 0
M  V30 4308 H 407.816 3.63726 -0.458107 0
M  V30 4309 H 407.464 4.7063 1.77529 0
M  V30 4310 H 407.164 5.85872 0.450314 0
M  V30 4311 H 408.688 5.94838 1.37842 0
M  V30 4312 H 410.102 5.66578 -0.875366 0
M  V30 4313 H 408.499 5.76681 -1.66007 0
M  V30 4314 H 409.569 4.40294 -2.03149 0
M  V30 4315 N 410.912 0.523116 1.48665 0
M  V30 4316 C 412.142 -0.00961724 2.06598 0
M  V30 4317 C 412.55 -1.29333 1.38093 0
M  V30 4318 O 411.893 -1.77846 0.46007 0
M  V30 4319 C 411.955 -0.311135 3.58151 0
M  V30 4320 C 411.619 0.878092 4.48485 0
M  V30 4321 C 412.616 1.77464 4.88674 0
M  V30 4322 C 410.301 1.08315 4.90483 0
M  V30 4323 C 412.295 2.86021 5.69623 0
M  V30 4324 C 409.982 2.17187 5.71203 0
M  V30 4325 C 410.98 3.05873 6.10681 0
M  V30 4326 O 410.668 4.12862 6.89783 0
M  V30 4327 H 410.4 0.0272658 0.67545 0
M  V30 4328 H 412.954 0.726156 1.92136 0
M  V30 4329 H 411.184 -1.10079 3.70701 0
M  V30 4330 H 412.873 -0.785125 3.98234 0
M  V30 4331 H 413.639 1.62813 4.56855 0
M  V30 4332 H 409.518 0.402149 4.59243 0
M  V30 4333 H 413.062 3.55272 6.00356 0
M  V30 4334 H 408.959 2.31824 6.02435 0
M  V30 4335 H 409.727 4.10487 7.08126 0
M  V30 4336 N 412.39 -1.55475 0.257931 0
M  V30 4337 C 413.34 -2.18506 -0.651094 0
M  V30 4338 C 414.324 -1.14431 -1.13112 0
M  V30 4339 O 415.516 -1.40305 -1.07905 0
M  V30 4340 C 412.645 -2.89653 -1.84272 0
M  V30 4341 C 411.731 -4.00996 -1.38068 0
M  V30 4342 N 412.122 -5.01816 -0.633609 0
M  V30 4343 C 410.42 -4.13753 -1.66506 0
M  V30 4344 C 411.121 -5.80371 -0.392922 0
M  V30 4345 N 410.097 -5.3505 -0.960359 0
M  V30 4346 H 413.899 -2.93811 -0.0722883 0
M  V30 4347 H 411.413 -1.62286 0.0607256 0
M  V30 4348 H 413.41 -3.33245 -2.50506 0
M  V30 4349 H 412.07 -2.15854 -2.42564 0
M  V30 4350 H 413.081 -5.17128 -0.282626 0
M  V30 4351 H 409.758 -3.51133 -2.25858 0
M  V30 4352 H 411.148 -6.7159 0.204235 0
M  V30 4353 N 413.868 0.0150385 -1.57593 0
M  V30 4354 C 414.831 0.995996 -2.06428 0
M  V30 4355 C 415.831 1.2818 -0.970903 0
M  V30 4356 O 417.021 1.22949 -1.23406 0
M  V30 4357 C 414.153 2.32506 -2.49307 0
M  V30 4358 H 415.346 0.573873 -2.94358 0
M  V30 4359 H 412.899 0.262186 -1.54085 0
M  V30 4360 H 413.634 2.79438 -1.64575 0
M  V30 4361 H 413.419 2.13087 -3.29145 0
M  V30 4362 H 414.909 3.02906 -2.87468 0
M  V30 4363 N 415.346 1.54954 0.287554 0
M  V30 4364 C 416.762 1.46469 0.633964 0
M  V30 4365 C 416.962 0.666865 1.90145 0
M  V30 4366 O 416.018 0.179906 2.51858 0
M  V30 4367 C 417.331 2.90556 0.774454 0
M  V30 4368 C 418.879 3.00681 0.869462 0
M  V30 4369 C 419.354 4.45993 1.04184 0
M  V30 4370 N 420.845 4.4976 1.10772 0
M  V30 4371 C 421.58 5.59393 1.25964 0
M  V30 4372 N 421.076 6.78923 1.37968 0
M  V30 4373 N 422.869 5.47107 1.28959 0
M  V30 4374 H 415.02 2.05288 -0.545041 0
M  V30 4375 H 417.283 0.930305 -0.182308 0
M  V30 4376 H 416.989 3.51594 -0.086207 0
M  V30 4377 H 416.863 3.38743 1.6593 0
M  V30 4378 H 419.25 2.39749 1.7206 0
M  V30 4379 H 419.331 2.55769 -0.0396831 0
M  V30 4380 H 418.975 5.07524 0.195422 0
M  V30 4381 H 418.905 4.88548 1.96542 0
M  V30 4382 H 421.396 3.63651 1.02794 0
M  V30 4383 H 421.709 7.58231 1.49353 0
M  V30 4384 H 420.054 6.81763 1.34999 0
M  V30 4385 H 423.245 4.52668 1.19202 0
M  V30 4386 H 423.418 6.32595 1.40455 0
M  V30 4387 N 416.824 -0.551391 1.4764 0
M  V30 4388 C 418.24 -0.877887 1.33287 0
M  V30 4389 C 418.44 -1.98817 0.327721 0
M  V30 4390 O 417.496 -2.51171 -0.258695 0
M  V30 4391 C 418.809 -1.26563 2.72768 0
M  V30 4392 C 420.357 -1.37673 2.81097 0
M  V30 4393 C 420.832 -1.79799 4.21232 0
M  V30 4394 N 422.323 -1.8694 4.23802 0
M  V30 4395 C 423.058 -2.20876 5.29151 0
M  V30 4396 N 422.554 -2.53386 6.448 0
M  V30 4397 N 424.347 -2.217 5.16532 0
M  V30 4398 H 416.498 0.18153 2.11623 0
M  V30 4399 H 418.761 0.0185514 0.947818 0
M  V30 4400 H 418.467 -0.523591 3.47781 0
M  V30 4401 H 418.341 -2.22052 3.04915 0
M  V30 4402 H 420.728 -2.10956 2.06353 0
M  V30 4403 H 420.809 -0.40357 2.52596 0
M  V30 4404 H 420.453 -1.07083 4.96483 0
M  V30 4405 H 420.383 -2.78128 4.4716 0
M  V30 4406 H 422.874 -1.64179 3.40373 0
M  V30 4407 H 423.187 -2.78325 7.20941 0
M  V30 4408 H 421.532 -2.50953 6.48111 0
M  V30 4409 H 424.723 -1.95745 4.25207 0
M  V30 4410 H 424.896 -2.47818 5.98741 0
M  V30 4411 N 418.302 -1.35869 -0.798587 0
M  V30 4412 C 419.265 -1.29307 -1.89242 0
M  V30 4413 C 420.265 -0.202747 -1.59517 0
M  V30 4414 O 421.455 -0.456957 -1.681 0
M  V30 4415 C 418.587 -1.00229 -3.25833 0
M  V30 4416 H 419.78 -2.26576 -1.96478 0
M  V30 4417 H 417.333 -1.20509 -0.995358 0
M  V30 4418 H 418.068 -0.033801 -3.24282 0
M  V30 4419 H 417.853 -1.79121 -3.48795 0
M  V30 4420 H 419.343 -0.98219 -4.05885 0
M  V30 4421 N 419.78 1.02168 -1.19998 0
M  V30 4422 C 421.026 1.75945 -1.00852 0
M  V30 4423 C 421.359 1.88702 0.458828 0
M  V30 4424 O 420.634 1.40911 1.34069 0
M  V30 4425 C 420.917 3.18154 -1.68671 0
M  V30 4426 C 420.77 3.13224 -3.22817 0
M  V30 4427 C 422.089 4.16711 -1.41561 0
M  V30 4428 H 419.208 0.638673 -0.367785 0
M  V30 4429 H 421.85 1.19222 -1.4794 0
M  V30 4430 H 420 3.66586 -1.28636 0
M  V30 4431 H 421.672 2.72635 -3.72112 0
M  V30 4432 H 419.915 2.50751 -3.53986 0
M  V30 4433 H 420.586 4.13728 -3.65422 0
M  V30 4434 H 423.062 3.76913 -1.76284 0
M  V30 4435 H 421.938 5.14391 -1.91553 0
M  V30 4436 H 422.199 4.40774 -0.342193 0
M  V30 4437 N 421.258 1.00505 1.21394 0
M  V30 4438 C 422.168 0.574806 2.27449 0
M  V30 4439 C 423.184 -0.382206 1.6975 0
M  V30 4440 O 424.36 -0.246027 1.99892 0
M  V30 4441 C 421.425 -0.0917414 3.46579 0
M  V30 4442 C 420.486 0.909758 4.1955 0
M  V30 4443 C 419.719 0.274924 5.32991 0
M  V30 4444 O 419.942 -0.928254 5.62796 0
M  V30 4445 O 418.876 0.985877 5.93771 0
M  V30 4446 H 422.702 1.45744 2.66444 0
M  V30 4447 H 420.287 0.773923 1.27792 0
M  V30 4448 H 422.169 -0.464551 4.18832 0
M  V30 4449 H 420.844 -0.948755 3.09484 0
M  V30 4450 H 419.751 1.33372 3.49518 0
M  V30 4451 H 421.084 1.73636 4.60555 0
M  V30 4452 N 422.737 -1.36956 0.779787 0
M  V30 4453 C 423.962 -2.04283 0.358224 0
M  V30 4454 C 424.387 -1.58422 -1.01411 0
M  V30 4455 O 423.745 -0.748179 -1.65142 0
M  V30 4456 C 423.793 -3.58152 0.419479 0
M  V30 4457 O 422.897 -4.08342 -0.577142 0
M  V30 4458 H 422.238 -0.645967 0.153698 0
M  V30 4459 H 424.768 -1.75108 1.05822 0
M  V30 4460 H 424.778 -4.07041 0.279636 0
M  V30 4461 H 423.453 -3.90886 1.42061 0
M  V30 4462 H 422.03 -3.70751 -0.399755 0
M  V30 4463 N 424.215 -0.530993 -1.48385 0
M  V30 4464 C 425.145 0.219985 -2.32461 0
M  V30 4465 C 426.126 0.934111 -1.42156 0
M  V30 4466 O 427.311 0.919694 -1.71042 0
M  V30 4467 C 424.441 1.26674 -3.23375 0
M  V30 4468 C 423.395 0.67069 -4.22712 0
M  V30 4469 C 422.721 1.82017 -5.02766 0
M  V30 4470 C 424.021 -0.358268 -5.2107 0
M  V30 4471 H 425.715 -0.48187 -2.95497 0
M  V30 4472 H 423.261 -0.233182 -1.42099 0
M  V30 4473 H 425.214 1.80006 -3.81019 0
M  V30 4474 H 423.938 1.99818 -2.58341 0
M  V30 4475 H 422.597 0.158878 -3.66256 0
M  V30 4476 H 422.245 2.54002 -4.34157 0
M  V30 4477 H 421.945 1.42727 -5.70003 0
M  V30 4478 H 423.469 2.35725 -5.63264 0
M  V30 4479 H 424.883 0.0880081 -5.73232 0
M  V30 4480 H 423.28 -0.66861 -5.96364 0
M  V30 4481 H 424.35 -1.26367 -4.68145 0
M  V30 4482 N 425.693 1.55336 -0.266172 0
M  V30 4483 C 426.921 2.03801 0.356756 0
M  V30 4484 C 427.336 1.14485 1.50129 0
M  V30 4485 O 426.693 0.163121 1.8177 0
M  V30 4486 C 426.744 3.51455 0.846281 0
M  V30 4487 O 426.465 4.37371 -0.252663 0
M  V30 4488 C 427.966 4.15767 1.53794 0
M  V30 4489 H 425.186 0.665906 0.0825218 0
M  V30 4490 H 427.73 2.00636 -0.39566 0
M  V30 4491 H 425.885 3.55092 1.54881 0
M  V30 4492 H 426.299 5.24358 0.122173 0
M  V30 4493 H 427.773 5.20714 1.83198 0
M  V30 4494 H 428.25 3.63404 2.46646 0
M  V30 4495 H 428.856 4.16107 0.879488 0
M  V30 4496 N 427.171 -0.0066808 1.57599 0
M  V30 4497 C 428.101 -0.999296 2.11036 0
M  V30 4498 C 429.082 -1.36278 1.01795 0
M  V30 4499 O 430.267 -1.4477 1.29442 0
M  V30 4500 C 427.397 -2.29328 2.60818 0
M  V30 4501 C 426.351 -2.07159 3.74525 0
M  V30 4502 C 425.677 -3.42512 4.10596 0
M  V30 4503 C 426.977 -1.43959 5.02069 0
M  V30 4504 H 428.671 -0.554382 2.94223 0
M  V30 4505 H 426.217 -0.265221 1.41536 0
M  V30 4506 H 428.17 -2.99117 2.96828 0
M  V30 4507 H 426.894 -2.7592 1.74745 0
M  V30 4508 H 425.553 -1.39797 3.38899 0
M  V30 4509 H 425.201 -3.86795 3.21556 0
M  V30 4510 H 424.901 -3.28498 4.87199 0
M  V30 4511 H 426.425 -4.13628 4.4916 0
M  V30 4512 H 427.839 -2.03696 5.35893 0
M  V30 4513 H 426.236 -1.40452 5.83432 0
M  V30 4514 H 427.306 -0.407992 4.83181 0
M  V30 4515 N 428.649 -1.55105 -0.279332 0
M  V30 4516 C 429.926 -1.66119 -1.03267 0
M  V30 4517 C 430.306 -0.523525 -2.04505 0
M  V30 4518 O 429.654 0.477194 -2.23462 0
M  V30 4519 C 429.864 -3.05067 -1.69515 0
M  V30 4520 C 431.212 -3.62606 -2.20912 0
M  V30 4521 O 432.236 -3.07659 -1.79512 0
M  V30 4522 O 431.095 -4.58861 -2.96831 0
M  V30 4523 H 428.189 -0.674429 -0.478618 0
M  V30 4524 H 430.735 -1.67446 -0.275694 0
M  V30 4525 H 429.507 -3.79311 -0.9612 0
M  V30 4526 H 429.13 -3.07611 -2.51915 0
M  V30 4527 N 430.127 0.543554 -1.4793 0
M  V30 4528 C 431.543 0.870806 -1.3375 0
M  V30 4529 C 431.743 1.9864 -0.338261 0
M  V30 4530 O 430.799 2.51305 0.245371 0
M  V30 4531 C 432.112 1.25114 -2.73435 0
M  V30 4532 C 433.66 1.3618 -2.81823 0
M  V30 4533 C 434.135 1.77563 -4.22179 0
M  V30 4534 N 435.626 1.8469 -4.24787 0
M  V30 4535 C 436.361 2.18067 -5.30315 0
M  V30 4536 N 435.857 2.49963 -6.46135 0
M  V30 4537 N 437.65 2.18958 -5.17701 0
M  V30 4538 H 429.801 -0.19275 -2.11524 0
M  V30 4539 H 432.064 -0.0235777 -0.947707 0
M  V30 4540 H 431.77 0.50514 -3.48053 0
M  V30 4541 H 431.644 2.20431 -3.06088 0
M  V30 4542 H 434.031 2.09859 -2.07468 0
M  V30 4543 H 434.112 0.390169 -2.52807 0
M  V30 4544 H 433.756 1.04449 -4.97044 0
M  V30 4545 H 433.686 2.75753 -4.48629 0
M  V30 4546 H 436.177 1.62372 -3.41239 0
M  V30 4547 H 436.49 2.74497 -7.22406 0
M  V30 4548 H 434.835 2.47513 -6.49432 0
M  V30 4549 H 438.026 1.93488 -4.2624 0
M  V30 4550 H 438.199 2.44639 -6.00047 0
M  V30 4551 N 431.605 1.3629 0.791371 0
M  V30 4552 C 432.515 1.32606 1.93527 0
M  V30 4553 C 433.531 0.228541 1.72493 0
M  V30 4554 O 434.707 0.460571 1.96063 0
M  V30 4555 C 431.772 1.11271 3.28359 0
M  V30 4556 C 430.833 2.3048 3.62185 0
M  V30 4557 C 430.066 2.10154 4.90583 0
M  V30 4558 O 430.289 1.07572 5.60165 0
M  V30 4559 O 429.223 2.97884 5.23019 0
M  V30 4560 H 433.049 2.28909 1.99585 0
M  V30 4561 H 430.634 1.16818 0.931344 0
M  V30 4562 H 432.516 1.01283 4.09047 0
M  V30 4563 H 431.191 0.180292 3.23198 0
M  V30 4564 H 430.098 2.46036 2.81811 0
M  V30 4565 H 431.431 3.22221 3.72068 0
M  V30 4566 N 433.083 -1.0153 1.20538 0
M  V30 4567 C 434.329 -1.75408 1.01783 0
M  V30 4568 C 434.662 -1.88943 -0.448814 0
M  V30 4569 O 433.937 -1.4162 -1.33319 0
M  V30 4570 C 434.22 -3.17255 1.70356 0
M  V30 4571 C 434.073 -3.11508 3.24473 0
M  V30 4572 C 435.392 -4.15955 1.43769 0
M  V30 4573 H 432.511 -0.636713 0.371167 0
M  V30 4574 H 435.153 -1.18436 1.4857 0
M  V30 4575 H 433.303 -3.65898 1.30578 0
M  V30 4576 H 434.975 -2.70658 3.73553 0
M  V30 4577 H 433.218 -2.4887 3.55311 0
M  V30 4578 H 433.889 -4.11784 3.67611 0
M  V30 4579 H 436.365 -3.75973 1.7828 0
M  V30 4580 H 435.241 -5.13368 1.94279 0
M  V30 4581 H 435.502 -4.40586 0.365564 0
M  V30 4582 N 434.561 -1.01147 -1.20859 0
M  V30 4583 C 435.491 -0.597663 -2.25722 0
M  V30 4584 C 436.472 0.384744 -1.65692 0
M  V30 4585 O 437.657 0.271303 -1.92296 0
M  V30 4586 C 434.787 0.0700149 -3.47229 0
M  V30 4587 C 433.741 -0.832843 -4.19819 0
M  V30 4588 C 433.067 -0.0312202 -5.34691 0
M  V30 4589 C 434.367 -2.1385 -4.76514 0
M  V30 4590 H 436.061 -1.47423 -2.60589 0
M  V30 4591 H 433.607 -0.710301 -1.25263 0
M  V30 4592 H 435.56 0.37103 -4.19763 0
M  V30 4593 H 434.284 0.981259 -3.11511 0
M  V30 4594 H 432.943 -1.11778 -3.49144 0
M  V30 4595 H 432.591 0.881515 -4.95215 0
M  V30 4596 H 432.291 -0.632434 -5.84187 0
M  V30 4597 H 433.815 0.26346 -6.10031 0
M  V30 4598 H 435.229 -1.9002 -5.40893 0
M  V30 4599 H 433.626 -2.69012 -5.36426 0
M  V30 4600 H 434.696 -2.80495 -3.95538 0
M  V30 4601 N 436.039 1.36541 -0.78704 0
M  V30 4602 C 436.989 2.27459 -0.156957 0
M  V30 4603 C 437.973 1.46843 0.657709 0
M  V30 4604 O 439.165 1.69245 0.518173 0
M  V30 4605 C 436.294 3.35893 0.709278 0
M  V30 4606 C 435.38 4.23947 -0.114049 0
M  V30 4607 N 435.771 4.92145 -1.16736 0
M  V30 4608 C 434.069 4.4587 0.107497 0
M  V30 4609 C 434.77 5.57261 -1.66837 0
M  V30 4610 N 433.746 5.3473 -0.977992 0
M  V30 4611 H 437.548 2.77669 -0.963185 0
M  V30 4612 H 435.062 1.49839 -0.62627 0
M  V30 4613 H 437.059 3.99953 1.17656 0
M  V30 4614 H 435.719 2.87238 1.51408 0
M  V30 4615 H 436.73 4.94169 -1.54976 0
M  V30 4616 H 433.407 4.08056 0.882994 0
M  V30 4617 H 434.797 6.21728 -2.54762 0
M  V30 4618 N 437.518 0.538854 1.48102 0
M  V30 4619 C 438.45 -0.256278 2.27763 0
M  V30 4620 C 439.463 -0.89633 1.35904 0
M  V30 4621 O 440.652 -0.773275 1.60881 0
M  V30 4622 C 437.752 -1.37896 3.09577 0
M  V30 4623 C 436.925 -0.839159 4.29275 0
M  V30 4624 C 435.984 -1.84405 4.9283 0
M  V30 4625 O 435.01 -1.39746 5.51779 0
M  V30 4626 N 436.212 -3.17666 4.85869 0
M  V30 4627 H 438.977 0.426968 2.96643 0
M  V30 4628 H 436.538 0.373747 1.57527 0
M  V30 4629 H 438.53 -2.04955 3.48963 0
M  V30 4630 H 437.1 -1.96572 2.4306 0
M  V30 4631 H 436.32 0.00769287 3.94199 0
M  V30 4632 H 437.608 -0.457548 5.06739 0
M  V30 4633 H 437.006 -3.56609 4.39143 0
M  V30 4634 H 435.563 -3.80334 5.29329 0
M  V30 4635 N 438.996 -1.55193 0.274407 0
M  V30 4636 C 440.412 -1.59401 -0.0797543 0
M  V30 4637 C 440.612 -1.29162 -1.54659 0
M  V30 4638 O 439.668 -1.05215 -2.29534 0
M  V30 4639 C 440.981 -2.99257 0.294238 0
M  V30 4640 C 442.529 -3.12072 0.240796 0
M  V30 4641 C 443.004 -4.54194 0.589218 0
M  V30 4642 N 444.495 -4.60033 0.540744 0
M  V30 4643 C 445.23 -5.68027 0.783147 0
M  V30 4644 N 444.726 -6.8417 1.09013 0
M  V30 4645 N 446.519 -5.57572 0.711993 0
M  V30 4646 H 438.67 -1.73113 1.23067 0
M  V30 4647 H 440.933 -0.807197 0.497129 0
M  V30 4648 H 440.639 -3.26217 1.31435 0
M  V30 4649 H 440.513 -3.75427 -0.365281 0
M  V30 4650 H 442.9 -2.84877 -0.770024 0
M  V30 4651 H 442.981 -2.38117 0.934563 0
M  V30 4652 H 442.625 -4.82115 1.59772 0
M  V30 4653 H 442.555 -5.26448 -0.126331 0
M  V30 4654 H 445.046 -3.76599 0.313327 0
M  V30 4655 H 445.359 -7.6243 1.26178 0
M  V30 4656 H 443.704 -6.85787 1.12789 0
M  V30 4657 H 446.895 -4.65714 0.472014 0
M  V30 4658 H 447.068 -6.41659 0.90429 0
M  V30 4659 N 440.474 -0.00167713 -1.576 0
M  V30 4660 C 441.751 0.719951 -1.81868 0
M  V30 4661 C 442.131 1.91895 -0.879747 0
M  V30 4662 O 441.479 2.28389 0.0711423 0
M  V30 4663 C 441.689 1.12409 -3.30402 0
M  V30 4664 C 443.037 1.52724 -3.96182 0
M  V30 4665 O 444.061 1.21784 -3.34734 0
M  V30 4666 O 442.92 2.10265 -5.04431 0
M  V30 4667 H 440.014 0.350707 -0.748955 0
M  V30 4668 H 442.56 -0.0272597 -1.69678 0
M  V30 4669 H 441.332 0.269532 -3.90371 0
M  V30 4670 H 440.955 1.93035 -3.47596 0
M  V30 4671 N 441.952 1.55251 0.271103 0
M  V30 4672 C 442.885 1.83191 1.36075 0
M  V30 4673 C 443.863 0.685091 1.47463 0
M  V30 4674 O 445.047 0.928292 1.64058 0
M  V30 4675 C 442.174 1.99521 2.73696 0
M  V30 4676 C 441.22 3.22081 2.79582 0
M  V30 4677 S 442.053 4.79388 2.38636 0
M  V30 4678 C 443.209 4.98693 3.78228 0
M  V30 4679 H 443.442 2.75327 1.12171 0
M  V30 4680 H 440.975 1.47046 0.470833 0
M  V30 4681 H 442.933 2.09613 3.52948 0
M  V30 4682 H 441.594 1.0827 2.9485 0
M  V30 4683 H 440.787 3.304 3.80594 0
M  V30 4684 H 440.389 3.10589 2.08352 0
M  V30 4685 H 442.681 4.84551 4.73515 0
M  V30 4686 H 443.624 6.00738 3.7486 0
M  V30 4687 H 444.032 4.26665 3.69618 0
M  V30 4688 N 443.43 -0.535701 1.48216 0
M  V30 4689 C 444.36 -1.65014 1.65204 0
M  V30 4690 C 445.341 -1.62554 0.501011 0
M  V30 4691 O 446.526 -1.7984 0.732886 0
M  V30 4692 C 443.656 -3.03616 1.68626 0
M  V30 4693 C 442.61 -3.20932 2.83172 0
M  V30 4694 C 441.936 -4.60537 2.71679 0
M  V30 4695 C 443.236 -3.04249 4.24535 0
M  V30 4696 H 444.93 -1.51053 2.58502 0
M  V30 4697 H 442.476 -0.725262 1.24402 0
M  V30 4698 H 444.429 -3.81446 1.79099 0
M  V30 4699 H 443.153 -3.18587 0.719026 0
M  V30 4700 H 441.812 -2.45517 2.72244 0
M  V30 4701 H 441.46 -4.72336 1.72937 0
M  V30 4702 H 441.16 -4.73069 3.48538 0
M  V30 4703 H 442.684 -5.40475 2.84112 0
M  V30 4704 H 444.098 -3.71877 4.36326 0
M  V30 4705 H 442.495 -3.28278 5.02348 0
M  V30 4706 H 443.565 -2.00739 4.41397 0
M  V30 4707 N 444.908 -1.36708 -0.784132 0
M  V30 4708 C 446.133 -1.34565 -1.5782 0
M  V30 4709 C 446.558 0.0695257 -1.87971 0
M  V30 4710 O 445.916 1.04302 -1.48293 0
M  V30 4711 C 445.964 -2.17952 -2.87279 0
M  V30 4712 O 445.068 -1.57563 -3.81114 0
M  V30 4713 H 444.409 -0.460337 -0.478524 0
M  V30 4714 H 446.939 -1.80064 -0.971495 0
M  V30 4715 H 446.949 -2.30721 -3.365 0
M  V30 4716 H 445.624 -3.20823 -2.64661 0
M  V30 4717 H 444.201 -1.53764 -3.39722 0
M  V30 4718 N 446.386 1.0089 -1.21074 0
M  V30 4719 C 447.797 1.56056 -1.02486 0
M  V30 4720 C 448.148 1.91728 0.416506 0
M  V30 4721 O 447.273 1.73066 1.29912 0
M  V30 4722 C 447.868 2.83563 -1.85411 0
M  V30 4723 C 446.427 3.3523 -1.71166 0
M  V30 4724 C 445.574 2.0846 -1.82865 0
M  V30 4725 H 448.525 0.831818 -1.35154 0
M  V30 4726 H 448.546 3.55286 -1.36205 0
M  V30 4727 H 448.058 2.57569 -2.9031 0
M  V30 4728 H 446.159 3.66167 -0.689361 0
M  V30 4729 H 446.272 4.06913 -2.52901 0
M  V30 4730 H 444.636 2.21275 -1.26132 0
M  V30 4731 H 445.419 1.84883 -2.89263 0
M  V30 4732 N 447.864 1.01787 1.20321 0
M  V30 4733 C 448.811 0.589197 2.23153 0
M  V30 4734 C 449.781 -0.391367 1.61423 0
M  V30 4735 O 450.966 -0.290518 1.88575 0
M  V30 4736 C 448.106 -0.0650747 3.45039 0
M  V30 4737 C 447.219 0.960207 4.21194 0
M  V30 4738 C 446.354 0.276854 5.30478 0
M  V30 4739 C 445.393 1.2888 5.98378 0
M  V30 4740 N 444.53 0.632031 6.99249 0
M  V30 4741 H 449.37 1.47071 2.59179 0
M  V30 4742 H 446.907 0.736192 1.27352 0
M  V30 4743 H 448.865 -0.461552 4.14639 0
M  V30 4744 H 447.495 -0.910233 3.09701 0
M  V30 4745 H 446.547 1.47484 3.50646 0
M  V30 4746 H 447.859 1.72977 4.67847 0
M  V30 4747 H 447.013 -0.175056 6.06447 0
M  V30 4748 H 445.752 -0.525004 4.84866 0
M  V30 4749 H 444.757 1.75109 5.21169 0
M  V30 4750 H 445.982 2.09196 6.46076 0
M  V30 4751 H 443.928 -0.149935 6.55829 0
M  V30 4752 H 443.845 1.33964 7.44036 0
M  V30 4753 H 445.113 0.203755 7.79234 0
M  V30 4754 N 449.342 -1.36122 0.79427 0
M  V30 4755 C 450.572 -2.03067 0.380437 0
M  V30 4756 C 450.98 -1.60018 -1.00949 0
M  V30 4757 O 450.323 -0.787425 -1.65968 0
M  V30 4758 C 450.385 -3.57587 0.37034 0
M  V30 4759 C 450.049 -4.23855 1.70867 0
M  V30 4760 C 451.046 -4.46404 2.66496 0
M  V30 4761 C 448.731 -4.61229 1.9893 0
M  V30 4762 C 450.725 -5.05412 3.88378 0
M  V30 4763 C 448.412 -5.19953 3.21079 0
M  V30 4764 C 449.41 -5.41985 4.15621 0
M  V30 4765 O 449.098 -5.99475 5.35616 0
M  V30 4766 H 448.83 -0.658168 0.154243 0
M  V30 4767 H 451.384 -1.7498 1.0757 0
M  V30 4768 H 449.614 -3.84814 -0.381444 0
M  V30 4769 H 451.303 -4.05895 -0.0194894 0
M  V30 4770 H 452.069 -4.17921 2.46103 0
M  V30 4771 H 447.948 -4.43402 1.26158 0
M  V30 4772 H 451.492 -5.22524 4.62185 0
M  V30 4773 H 447.389 -5.47862 3.41347 0
M  V30 4774 H 448.157 -6.17937 5.36745 0
M  V30 4775 N 450.82 -0.546701 -1.47814 0
M  V30 4776 C 451.783 0.196287 -2.28358 0
M  V30 4777 C 452.783 0.852437 -1.36346 0
M  V30 4778 O 453.973 0.709913 -1.59078 0
M  V30 4779 C 451.105 1.28579 -3.15722 0
M  V30 4780 H 452.298 -0.511086 -2.95513 0
M  V30 4781 H 449.851 -0.303248 -1.5333 0
M  V30 4782 H 450.586 2.0259 -2.53235 0
M  V30 4783 H 450.371 0.820229 -3.83425 0
M  V30 4784 H 451.861 1.80793 -3.76435 0
M  V30 4785 N 452.299 1.55045 -0.282633 0
M  V30 4786 C 453.209 2.26491 0.61147 0
M  V30 4787 C 454.225 1.29348 1.16384 0
M  V30 4788 O 455.401 1.62298 1.19253 0
M  V30 4789 C 452.466 2.97779 1.77563 0
M  V30 4790 C 451.527 4.10418 1.25919 0
M  V30 4791 C 450.76 4.78297 2.36786 0
M  V30 4792 O 450.983 4.45426 3.56303 0
M  V30 4793 O 449.917 5.66089 2.04517 0
M  V30 4794 H 453.743 3.03683 0.0324615 0
M  V30 4795 H 451.328 1.49317 -0.0497576 0
M  V30 4796 H 453.21 3.42554 2.45427 0
M  V30 4797 H 451.885 2.23498 2.34159 0
M  V30 4798 H 450.792 3.70082 0.546797 0
M  V30 4799 H 452.125 4.86622 0.738887 0
M  V30 4800 N 453.777 0.010035 1.57597 0
M  V30 4801 C 454.707 -0.976857 2.12084 0
M  V30 4802 C 455.688 -1.35191 1.03235 0
M  V30 4803 O 456.873 -1.43389 1.3097 0
M  V30 4804 C 454.003 -2.26548 2.63236 0
M  V30 4805 C 452.957 -2.03175 3.76701 0
M  V30 4806 C 452.283 -3.38138 4.14206 0
M  V30 4807 C 453.583 -1.38625 5.03568 0
M  V30 4808 H 455.277 -0.523145 2.94794 0
M  V30 4809 H 452.823 -0.250195 1.4181 0
M  V30 4810 H 454.776 -2.95952 2.99984 0
M  V30 4811 H 453.5 -2.74051 1.77661 0
M  V30 4812 H 452.159 -1.36195 3.40362 0
M  V30 4813 H 451.807 -3.83363 3.25641 0
M  V30 4814 H 451.507 -3.23312 4.90656 0
M  V30 4815 H 453.031 -4.08841 4.53521 0
M  V30 4816 H 454.445 -1.98 5.38023 0
M  V30 4817 H 452.842 -1.34256 5.84889 0
M  V30 4818 H 453.912 -0.356722 4.83586 0
M  V30 4819 N 455.255 -1.55392 -0.262866 0
M  V30 4820 C 456.501 -1.76737 -0.99458 0
M  V30 4821 C 456.834 -0.572453 -1.85571 0
M  V30 4822 O 456.109 0.429732 -1.89693 0
M  V30 4823 C 456.392 -3.07824 -1.8686 0
M  V30 4824 C 456.245 -4.3769 -1.03672 0
M  V30 4825 C 457.564 -3.35021 -2.85393 0
M  V30 4826 H 454.683 -0.643005 -0.360157 0
M  V30 4827 H 457.325 -1.88126 -0.266216 0
M  V30 4828 H 455.475 -2.98245 -2.48962 0
M  V30 4829 H 457.147 -4.59238 -0.43563 0
M  V30 4830 H 455.39 -4.32461 -0.340513 0
M  V30 4831 H 456.061 -5.25759 -1.6817 0
M  V30 4832 H 458.537 -3.44458 -2.33426 0
M  V30 4833 H 457.413 -4.27989 -3.43681 0
M  V30 4834 H 457.674 -2.55153 -3.61039 0
M  V30 4835 N 456.733 0.527833 -1.48498 0
M  V30 4836 C 457.963 1.30633 -1.60058 0
M  V30 4837 C 458.371 1.87394 -0.260786 0
M  V30 4838 O 457.714 1.67227 0.760317 0
M  V30 4839 C 457.776 2.49361 -2.58958 0
M  V30 4840 C 457.44 2.13671 -4.03972 0
M  V30 4841 C 458.437 1.69217 -4.91591 0
M  V30 4842 C 456.122 2.24129 -4.49524 0
M  V30 4843 C 458.116 1.35689 -6.2279 0
M  V30 4844 C 455.803 1.90212 -5.80743 0
M  V30 4845 C 456.801 1.46063 -6.67199 0
M  V30 4846 O 456.489 1.12593 -7.95976 0
M  V30 4847 H 456.221 0.403444 -0.54241 0
M  V30 4848 H 458.775 0.643233 -1.95068 0
M  V30 4849 H 457.005 3.18659 -2.19073 0
M  V30 4850 H 458.694 3.11421 -2.6033 0
M  V30 4851 H 459.46 1.60607 -4.57636 0
M  V30 4852 H 455.339 2.57447 -3.82416 0
M  V30 4853 H 458.883 1.01157 -6.90227 0
M  V30 4854 H 454.78 1.98464 -6.14233 0
M  V30 4855 H 455.548 1.25972 -8.08748 0
M  V30 4856 N 458.211 1.37122 0.776871 0
M  V30 4857 C 459.441 1.35034 1.56363 0
M  V30 4858 C 459.849 -0.0674681 1.8908 0
M  V30 4859 O 459.192 -1.03826 1.51545 0
M  V30 4860 C 459.254 2.11894 2.90415 0
M  V30 4861 C 458.918 3.60897 2.80362 0
M  V30 4862 C 459.915 4.54887 2.51742 0
M  V30 4863 C 457.6 4.03951 2.98545 0
M  V30 4864 C 459.594 5.89909 2.41426 0
M  V30 4865 C 457.281 5.3906 2.87849 0
M  V30 4866 C 458.279 6.31852 2.5933 0
M  V30 4867 O 457.967 7.64479 2.48651 0
M  V30 4868 H 457.699 0.464402 0.49123 0
M  V30 4869 H 460.253 1.80992 0.971127 0
M  V30 4870 H 458.483 1.60618 3.51765 0
M  V30 4871 H 460.172 2.02505 3.51776 0
M  V30 4872 H 460.938 4.22934 2.37385 0
M  V30 4873 H 456.817 3.3209 3.19746 0
M  V30 4874 H 460.361 6.62304 2.19086 0
M  V30 4875 H 456.258 5.70617 3.01773 0
M  V30 4876 H 457.026 7.74742 2.64039 0
M  V30 4877 N 459.689 -1.00246 1.21608 0
M  V30 4878 C 460.937 -1.73717 1.0328 0
M  V30 4879 C 461.258 -1.90102 -0.434318 0
M  V30 4880 O 460.528 -1.45376 -1.31311 0
M  V30 4881 H 459.108 -0.643613 0.379172 0
M  V30 4882 H 461.77 -1.20787 1.52959 0
M  V30 4883 H 460.866 -2.73535 1.50283 0
M  V30 4884 N 461.167 -1.02423 -1.1978 0
M  V30 4885 C 462.414 -0.717988 -1.89344 0
M  V30 4886 C 462.742 0.753036 -1.79331 0
M  V30 4887 O 461.997 1.56355 -1.17692 0
M  V30 4888 C 462.296 -1.1088 -3.39765 0
M  V30 4889 C 461.962 -2.57731 -3.6998 0
M  V30 4890 C 460.624 -2.97854 -3.77937 0
M  V30 4891 C 462.976 -3.52763 -3.83677 0
M  V30 4892 C 460.304 -4.31931 -3.97054 0
M  V30 4893 C 462.656 -4.86538 -4.04306 0
M  V30 4894 C 461.32 -5.26356 -4.10494 0
M  V30 4895 H 460.59 -0.26273 -0.692859 0
M  V30 4896 H 463.237 -1.28623 -1.41875 0
M  V30 4897 H 461.542 -0.459094 -3.89101 0
M  V30 4898 H 463.239 -0.849432 -3.919 0
M  V30 4899 H 459.829 -2.25646 -3.64393 0
M  V30 4900 H 464.013 -3.2292 -3.76877 0
M  V30 4901 H 459.269 -4.62324 -4.00083 0
M  V30 4902 H 463.443 -5.60093 -4.13846 0
M  V30 4903 H 461.07 -6.3026 -4.2506 0
M  V30 4904 N 462.645 1.35699 -0.801477 0
M  V30 4905 C 463.891 1.99643 -0.389135 0
M  V30 4906 C 464.246 1.62447 1.03095 0
M  V30 4907 O 463.539 0.875064 1.7045 0
M  V30 4908 C 463.733 3.53828 -0.504041 0
M  V30 4909 C 463.562 4.06 -1.93375 0
M  V30 4910 C 462.332 4.35592 -2.561 0
M  V30 4911 C 464.53 4.24905 -2.89759 0
M  V30 4912 N 462.512 4.73663 -3.90534 0
M  V30 4913 C 463.883 4.65914 -4.09052 0
M  V30 4914 C 465.938 4.07101 -2.86658 0
M  V30 4915 C 464.641 4.90984 -5.25669 0
M  V30 4916 C 466.667 4.33324 -4.02472 0
M  V30 4917 C 466.029 4.74601 -5.20512 0
M  V30 4918 H 462.128 0.758552 -0.19006 0
M  V30 4919 H 464.712 1.64493 -1.04164 0
M  V30 4920 H 462.883 3.88219 0.118437 0
M  V30 4921 H 464.615 4.04645 -0.0667794 0
M  V30 4922 H 461.37 4.25728 -2.07492 0
M  V30 4923 H 461.794 4.96965 -4.59734 0
M  V30 4924 H 466.436 3.74335 -1.96552 0
M  V30 4925 H 464.154 5.22626 -6.1635 0
M  V30 4926 H 467.74 4.21107 -4.01447 0
M  V30 4927 H 466.62 4.94497 -6.08639 0
M  V30 4928 N 464.123 0.554532 1.47522 0
M  V30 4929 C 465.353 0.0342074 2.06572 0
M  V30 4930 C 465.761 -1.26375 1.40805 0
M  V30 4931 O 465.104 -1.7683 0.49769 0
M  V30 4932 C 465.166 -0.235096 3.5873 0
M  V30 4933 C 464.83 0.973024 4.46521 0
M  V30 4934 C 465.827 1.8779 4.848 0
M  V30 4935 C 463.512 1.18694 4.88075 0
M  V30 4936 C 465.506 2.98039 5.63428 0
M  V30 4937 C 463.193 2.29254 5.66468 0
M  V30 4938 C 464.191 3.18757 6.04055 0
M  V30 4939 O 463.879 4.27401 6.8087 0
M  V30 4940 H 463.611 0.041587 0.67472 0
M  V30 4941 H 466.165 0.766748 1.90552 0
M  V30 4942 H 464.395 -1.02191 3.72953 0
M  V30 4943 H 466.084 -0.700477 3.9981 0
M  V30 4944 H 466.85 1.72467 4.53299 0
M  V30 4945 H 462.729 0.49947 4.58286 0
M  V30 4946 H 466.273 3.67926 5.92685 0
M  V30 4947 H 462.17 2.4455 5.97382 0
M  V30 4948 H 462.938 4.25415 6.9926 0
M  V30 4949 N 465.601 -1.54893 0.290851 0
M  V30 4950 C 466.564 -2.21824 -0.576784 0
M  V30 4951 C 467.564 -1.20104 -1.06919 0
M  V30 4952 O 468.754 -1.44906 -0.966843 0
M  V30 4953 C 465.886 -2.89662 -1.79747 0
M  V30 4954 H 467.079 -2.99899 0.00784051 0
M  V30 4955 H 464.632 -1.56245 0.0415934 0
M  V30 4956 H 465.367 -2.15639 -2.42219 0
M  V30 4957 H 465.152 -3.64219 -1.45214 0
M  V30 4958 H 466.642 -3.4075 -2.4141 0
M  V30 4959 N 467.08 -0.0183926 -1.57589 0
M  V30 4960 C 468.491 0.521927 -1.79256 0
M  V30 4961 C 468.842 1.72885 -0.927636 0
M  V30 4962 O 467.967 2.15978 -0.135091 0
M  V30 4963 C 468.562 0.953632 -3.25102 0
M  V30 4964 C 467.121 1.43913 -3.47801 0
M  V30 4965 C 466.268 0.398837 -2.74417 0
M  V30 4966 H 469.219 -0.244485 -1.56805 0
M  V30 4967 H 469.24 1.81863 -3.34224 0
M  V30 4968 H 468.752 0.0750123 -3.88028 0
M  V30 4969 H 466.853 2.33804 -2.90115 0
M  V30 4970 H 466.966 1.45391 -4.56507 0
M  V30 4971 H 465.33 0.864572 -2.39577 0
M  V30 4972 H 466.113 -0.471132 -3.40052 0
M  V30 4973 N 468.558 1.5553 0.254621 0
M  V30 4974 C 469.468 1.92789 1.33677 0
M  V30 4975 C 470.484 0.827356 1.53071 0
M  V30 4976 O 471.66 1.12807 1.66843 0
M  V30 4977 C 468.725 2.20827 2.67275 0
M  V30 4978 C 467.786 3.4427 2.5647 0
M  V30 4979 C 467.019 3.70961 3.83697 0
M  V30 4980 O 467.242 2.99852 4.85227 0
M  V30 4981 O 466.176 4.64491 3.82794 0
M  V30 4982 H 470.002 2.84945 1.05071 0
M  V30 4983 H 467.587 1.42312 0.454723 0
M  V30 4984 H 469.469 2.40204 3.46237 0
M  V30 4985 H 468.144 1.31851 2.9563 0
M  V30 4986 H 467.051 3.30209 1.75821 0
M  V30 4987 H 468.384 4.33524 2.33062 0
M  V30 4988 N 470.036 -0.519951 1.48776 0
M  V30 4989 C 471.452 -0.849418 1.35119 0
M  V30 4990 C 471.652 -1.98077 0.36982 0
M  V30 4991 O 470.708 -2.51664 -0.205359 0
M  V30 4992 C 472.021 -1.20748 2.75391 0
M  V30 4993 C 473.569 -1.31679 2.83954 0
M  V30 4994 C 474.044 -1.70824 4.24951 0
M  V30 4995 N 475.535 -1.77908 4.27672 0
M  V30 4996 C 476.27 -2.09603 5.33717 0
M  V30 4997 N 475.766 -2.39652 6.5003 0
M  V30 4998 N 477.559 -2.10694 5.21119 0
M  V30 4999 H 469.71 0.226377 2.1119 0
M  V30 5000 H 471.973 0.0386519 0.947212 0
M  V30 5001 H 471.679 -0.449703 3.48813 0
M  V30 5002 H 471.553 -2.15534 3.09556 0
M  V30 5003 H 473.94 -2.06532 2.10781 0
M  V30 5004 H 474.021 -0.3499 2.53396 0
M  V30 5005 H 473.665 -0.965282 4.98643 0
M  V30 5006 H 473.595 -2.6858 4.52959 0
M  V30 5007 H 476.086 -1.56923 3.43779 0
M  V30 5008 H 476.399 -2.6297 7.26682 0
M  V30 5009 H 474.744 -2.37149 6.53288 0
M  V30 5010 H 477.935 -1.86682 4.29264 0
M  V30 5011 H 478.108 -2.35062 6.03863 0
M  V30 5012 N 471.514 -1.37532 -0.769588 0
M  V30 5013 C 472.424 -1.35668 -1.91393 0
M  V30 5014 C 473.44 -0.255954 -1.72107 0
M  V30 5015 O 474.616 -0.491704 -1.95305 0
M  V30 5016 C 471.681 -1.16481 -3.26547 0
M  V30 5017 C 470.742 -2.36212 -3.58472 0
M  V30 5018 C 469.975 -2.17932 -4.87177 0
M  V30 5019 O 470.198 -1.1647 -5.58382 0
M  V30 5020 O 469.132 -3.06167 -5.18214 0
M  V30 5021 H 472.958 -2.32055 -1.95918 0
M  V30 5022 H 470.543 -1.18284 -0.912641 0
M  V30 5023 H 472.425 -1.07778 -4.07384 0
M  V30 5024 H 471.1 -0.231687 -3.2287 0
M  V30 5025 H 470.007 -2.50488 -2.77861 0
M  V30 5026 H 471.34 -3.281 -3.66894 0
M  V30 5027 N 472.992 0.995999 -1.22138 0
M  V30 5028 C 473.955 2.06711 -0.990109 0
M  V30 5029 C 474.955 1.60744 0.0422978 0
M  V30 5030 O 476.145 1.73095 -0.195895 0
M  V30 5031 C 473.277 3.37288 -0.49491 0
M  V30 5032 H 474.47 2.28661 -1.94047 0
M  V30 5033 H 472.023 1.16711 -1.03963 0
M  V30 5034 H 472.758 3.21022 0.459948 0
M  V30 5035 H 472.543 3.71986 -1.23971 0
M  V30 5036 H 474.033 4.16103 -0.353253 0
M  V30 5037 N 474.47 1.03057 1.19235 0
M  V30 5038 C 475.4 0.633497 2.24742 0
M  V30 5039 C 476.381 -0.358335 1.66283 0
M  V30 5040 O 477.566 -0.240676 1.92703 0
M  V30 5041 C 474.696 -0.0147648 3.47297 0
M  V30 5042 C 473.65 0.899527 4.18441 0
M  V30 5043 C 472.976 0.116281 5.34574 0
M  V30 5044 C 474.276 2.21404 4.73051 0
M  V30 5045 H 475.97 1.5155 2.58211 0
M  V30 5046 H 473.516 0.73014 1.24117 0
M  V30 5047 H 475.469 -0.304202 4.20301 0
M  V30 5048 H 474.193 -0.931577 3.13032 0
M  V30 5049 H 472.852 1.17319 3.47321 0
M  V30 5050 H 472.5 -0.802619 4.96555 0
M  V30 5051 H 472.2 0.725293 5.83107 0
M  V30 5052 H 473.724 -0.166376 6.10373 0
M  V30 5053 H 475.138 1.98601 5.37802 0
M  V30 5054 H 473.535 2.77512 5.32078 0
M  V30 5055 H 474.605 2.86752 3.91026 0
M  V30 5056 N 475.948 -1.35272 0.808662 0
M  V30 5057 C 476.88 -2.28507 0.178149 0
M  V30 5058 C 477.893 -1.50377 -0.623754 0
M  V30 5059 O 479.082 -1.72583 -0.455774 0
M  V30 5060 C 476.182 -3.30038 -0.769959 0
M  V30 5061 C 475.355 -4.37398 -0.0139749 0
M  V30 5062 C 474.414 -5.18775 -0.880875 0
M  V30 5063 O 473.44 -5.68236 -0.331059 0
M  V30 5064 N 474.642 -5.37087 -2.20267 0
M  V30 5065 H 477.407 -2.83255 0.979106 0
M  V30 5066 H 474.968 -1.47643 0.664308 0
M  V30 5067 H 476.96 -3.81371 -1.35418 0
M  V30 5068 H 475.53 -2.75789 -1.47171 0
M  V30 5069 H 474.75 -3.86971 0.751468 0
M  V30 5070 H 476.038 -5.06268 0.506965 0
M  V30 5071 H 475.436 -4.9855 -2.67328 0
M  V30 5072 H 473.993 -5.91593 -2.73608 0
M  V30 5073 N 477.426 -0.562348 -1.47226 0
M  V30 5074 C 478.389 0.172056 -2.28553 0
M  V30 5075 C 479.389 0.837928 -1.37242 0
M  V30 5076 O 480.579 0.693001 -1.59822 0
M  V30 5077 C 477.711 1.25223 -3.17068 0
M  V30 5078 H 478.904 -0.542401 -2.94954 0
M  V30 5079 H 476.457 -0.319493 -1.53 0
M  V30 5080 H 477.192 1.99892 -2.55369 0
M  V30 5081 H 476.977 0.779515 -3.84273 0
M  V30 5082 H 478.467 1.76791 -3.78332 0
M  V30 5083 N 478.904 1.54736 -0.299062 0
M  V30 5084 C 480.134 2.04215 0.312992 0
M  V30 5085 C 480.542 1.17596 1.48215 0
M  V30 5086 O 479.885 0.193835 1.82674 0
M  V30 5087 C 479.947 3.49696 0.833862 0
M  V30 5088 C 479.611 4.56518 -0.20977 0
M  V30 5089 C 480.608 5.09442 -1.03756 0
M  V30 5090 C 478.293 5.01073 -0.35091 0
M  V30 5091 C 480.287 6.05459 -1.99244 0
M  V30 5092 C 477.974 5.9691 -1.30924 0
M  V30 5093 C 478.972 6.48987 -2.1285 0
M  V30 5094 O 478.66 7.42947 -3.07059 0
M  V30 5095 H 478.392 0.672128 0.0722494 0
M  V30 5096 H 480.946 2.00718 -0.436043 0
M  V30 5097 H 479.176 3.5051 1.63339 0
M  V30 5098 H 480.865 3.82381 1.36159 0
M  V30 5099 H 481.631 4.75816 -0.939376 0
M  V30 5100 H 477.51 4.60168 0.276813 0
M  V30 5101 H 481.054 6.46031 -2.63229 0
M  V30 5102 H 476.951 6.29953 -1.40815 0
M  V30 5103 H 477.719 7.60743 -3.02015 0
M  V30 5104 N 480.382 0.0267497 1.57577 0
M  V30 5105 C 481.629 -0.652404 1.91703 0
M  V30 5106 C 481.957 -1.72271 0.902936 0
M  V30 5107 O 481.212 -1.955 -0.0884843 0
M  V30 5108 C 481.511 -1.30914 3.3256 0
M  V30 5109 C 481.177 -0.369441 4.49384 0
M  V30 5110 C 479.839 -0.110791 4.81072 0
M  V30 5111 C 482.191 0.275971 5.20469 0
M  V30 5112 C 479.519 0.801116 5.81205 0
M  V30 5113 C 481.871 1.17592 6.21575 0
M  V30 5114 C 480.535 1.44348 6.51705 0
M  V30 5115 H 479.805 -0.238732 0.70149 0
M  V30 5116 H 482.452 0.0880091 1.91298 0
M  V30 5117 H 480.757 -2.12425 3.29216 0
M  V30 5118 H 482.454 -1.84115 3.56234 0
M  V30 5119 H 479.044 -0.581211 4.24641 0
M  V30 5120 H 483.228 0.0892 4.9622 0
M  V30 5121 H 478.484 1.01614 6.02897 0
M  V30 5122 H 482.658 1.68223 6.75777 0
M  V30 5123 H 480.285 2.15176 7.29111 0
M  V30 5124 N 481.861 -1.55662 -0.24637 0
M  V30 5125 C 483.138 -1.68272 -0.997198 0
M  V30 5126 C 483.518 -0.566785 -2.03349 0
M  V30 5127 O 482.866 0.429688 -2.24424 0
M  V30 5128 C 483.076 -3.08594 -1.63006 0
M  V30 5129 C 484.424 -3.6721 -2.13171 0
M  V30 5130 O 485.448 -3.11397 -1.72946 0
M  V30 5131 O 484.307 -4.65054 -2.87031 0
M  V30 5132 H 481.401 -0.684429 -0.464205 0
M  V30 5133 H 483.947 -1.67993 -0.240114 0
M  V30 5134 H 482.719 -3.81264 -0.880527 0
M  V30 5135 H 482.342 -3.12886 -2.45333 0
M  V30 5136 N 483.339 0.512053 -1.4905 0
M  V30 5137 C 484.289 1.61142 -1.61298 0
M  V30 5138 C 485.273 1.53908 -0.46916 0
M  V30 5139 O 486.465 1.61625 -0.721547 0
M  V30 5140 C 483.594 2.998 -1.67256 0
M  V30 5141 C 482.68 3.12072 -2.87179 0
M  V30 5142 N 483.071 2.94263 -4.11391 0
M  V30 5143 C 481.369 3.43156 -2.84886 0
M  V30 5144 C 482.07 3.10426 -4.91946 0
M  V30 5145 N 481.046 3.38808 -4.251 0
M  V30 5146 H 484.848 1.46011 -2.55065 0
M  V30 5147 H 482.362 0.717934 -1.45669 0
M  V30 5148 H 484.359 3.78794 -1.74128 0
M  V30 5149 H 483.019 3.1601 -0.746195 0
M  V30 5150 H 484.03 2.70661 -4.41546 0
M  V30 5151 H 480.707 3.65611 -2.01581 0
M  V30 5152 H 482.097 3.01243 -6.00585 0
M  V30 5153 N 484.817 1.37938 0.762283 0
M  V30 5154 C 486.063 1.33866 1.52341 0
M  V30 5155 C 486.396 -0.0738961 1.94059 0
M  V30 5156 O 485.671 -1.03326 1.64785 0
M  V30 5157 C 485.954 2.28644 2.78197 0
M  V30 5158 C 485.807 3.78722 2.42672 0
M  V30 5159 C 487.126 2.21702 3.80179 0
M  V30 5160 H 484.245 0.487593 0.55265 0
M  V30 5161 H 486.887 1.68717 0.873767 0
M  V30 5162 H 485.037 1.99055 3.33631 0
M  V30 5163 H 486.709 4.18948 1.93081 0
M  V30 5164 H 484.952 3.96827 1.75244 0
M  V30 5165 H 485.623 4.40486 3.3268 0
M  V30 5166 H 488.099 2.47805 3.34263 0
M  V30 5167 H 486.975 2.90143 4.65949 0
M  V30 5168 H 487.236 1.21301 4.25133 0
M  V30 5169 N 486.295 -0.989507 1.22664 0
M  V30 5170 C 487.258 -2.06183 1.00106 0
M  V30 5171 C 488.258 -1.60765 -0.0337726 0
M  V30 5172 O 489.448 -1.72989 0.205072 0
M  V30 5173 C 486.58 -3.37021 0.51279 0
M  V30 5174 H 487.773 -2.27629 1.95256 0
M  V30 5175 H 485.326 -1.16158 1.0458 0
M  V30 5176 H 486.061 -3.21261 -0.442917 0
M  V30 5177 H 485.846 -3.71323 1.25942 0
M  V30 5178 H 487.336 -4.1591 0.375315 0
M  V30 5179 N 487.773 -1.03688 -1.18687 0
M  V30 5180 C 489.189 -0.755413 -1.4059 0
M  V30 5181 C 489.389 0.656659 -1.905 0
M  V30 5182 O 488.445 1.42144 -2.08689 0
M  V30 5183 C 489.758 -1.7983 -2.41001 0
M  V30 5184 C 491.306 -1.81877 -2.54735 0
M  V30 5185 C 491.781 -2.85148 -3.58406 0
M  V30 5186 N 493.272 -2.84015 -3.6591 0
M  V30 5187 C 494.007 -3.60573 -4.45841 0
M  V30 5188 N 493.503 -4.46871 -5.29413 0
M  V30 5189 N 495.296 -3.49079 -4.40568 0
M  V30 5190 H 487.447 -1.94818 -0.846148 0
M  V30 5191 H 489.71 -0.842727 -0.434184 0
M  V30 5192 H 489.416 -2.81097 -2.1137 0
M  V30 5193 H 489.29 -1.62727 -3.40294 0
M  V30 5194 H 491.677 -0.812836 -2.83685 0
M  V30 5195 H 491.758 -2.03057 -1.55568 0
M  V30 5196 H 491.402 -3.85918 -3.30197 0
M  V30 5197 H 491.332 -2.61224 -4.57241 0
M  V30 5198 H 493.823 -2.21431 -3.0623 0
M  V30 5199 H 494.136 -5.02007 -5.87545 0
M  V30 5200 H 492.481 -4.5094 -5.28846 0
M  V30 5201 H 495.672 -2.81066 -3.74325 0
M  V30 5202 H 495.845 -4.08994 -5.02621 0
M  V30 5203 N 489.251 1.34841 -0.815825 0
M  V30 5204 C 490.476 2.03261 -0.41226 0
M  V30 5205 C 490.901 1.61055 0.971751 0
M  V30 5206 O 490.259 0.7917 1.63101 0
M  V30 5207 C 490.307 3.56914 -0.514289 0
M  V30 5208 O 489.411 4.09728 0.468675 0
M  V30 5209 H 488.752 0.641664 -0.170771 0
M  V30 5210 H 491.282 1.72241 -1.10427 0
M  V30 5211 H 491.292 4.06156 -0.387457 0
M  V30 5212 H 489.967 3.86982 -1.52375 0
M  V30 5213 H 488.544 3.71681 0.301316 0
M  V30 5214 N 490.729 0.570148 1.46925 0
M  V30 5215 C 491.975 0.0510284 2.02736 0
M  V30 5216 C 492.308 -1.3006 1.44215 0
M  V30 5217 O 491.583 -1.84932 0.602521 0
M  V30 5218 C 491.866 -0.028215 3.60089 0
M  V30 5219 C 491.719 1.35142 4.29018 0
M  V30 5220 C 493.038 -0.735181 4.33916 0
M  V30 5221 H 490.157 0.0200178 0.736728 0
M  V30 5222 H 492.799 0.73493 1.75211 0
M  V30 5223 H 490.949 -0.610648 3.83671 0
M  V30 5224 H 492.621 1.97806 4.16738 0
M  V30 5225 H 490.864 1.9226 3.88868 0
M  V30 5226 H 491.535 1.24857 5.37694 0
M  V30 5227 H 494.011 -0.240519 4.15404 0
M  V30 5228 H 492.887 -0.759622 5.43618 0
M  V30 5229 H 493.148 -1.79397 4.04066 0
M  V30 5230 N 492.207 -1.54576 0.307264 0
M  V30 5231 C 493.435 -2.04675 -0.302597 0
M  V30 5232 C 493.85 -1.18425 -1.47041 0
M  V30 5233 O 493.207 -0.211257 -1.81273 0
M  V30 5234 C 493.258 -3.53575 -0.752801 0
M  V30 5235 O 492.979 -4.36547 0.368536 0
M  V30 5236 C 494.48 -4.19699 -1.42717 0
M  V30 5237 H 491.7 -0.66786 -0.0648374 0
M  V30 5238 H 494.244 -1.99516 0.448716 0
M  V30 5239 H 492.399 -3.59074 -1.45412 0
M  V30 5240 H 492.813 -5.24497 0.0168937 0
M  V30 5241 H 494.287 -5.25388 -1.69327 0
M  V30 5242 H 494.764 -3.69815 -2.36925 0
M  V30 5243 H 495.37 -4.18293 -0.768856 0
M  V30 5244 N 493.685 -0.035106 -1.57561 0
M  V30 5245 C 494.933 0.64096 -1.91667 0
M  V30 5246 C 495.254 1.72323 -0.912681 0
M  V30 5247 O 494.524 1.95849 0.0449089 0
M  V30 5248 H 493.104 0.239743 -0.707483 0
M  V30 5249 H 495.766 -0.084321 -1.94718 0
M  V30 5250 H 494.862 1.08987 -2.92452 0
M  V30 5251 N 495.163 1.55791 0.238111 0
M  V30 5252 C 496.409 1.78297 0.966337 0
M  V30 5253 C 496.742 0.601903 1.84637 0
M  V30 5254 O 496.017 -0.399499 1.90353 0
M  V30 5255 C 496.3 3.10758 1.81939 0
M  V30 5256 C 496.153 4.39283 0.966958 0
M  V30 5257 C 497.472 3.39519 2.80027 0
M  V30 5258 H 494.591 0.648654 0.349882 0
M  V30 5259 H 497.233 1.88525 0.236253 0
M  V30 5260 H 495.383 3.02168 2.44185 0
M  V30 5261 H 497.055 4.59873 0.362514 0
M  V30 5262 H 495.298 4.32948 0.271669 0
M  V30 5263 H 495.969 5.28368 1.59784 0
M  V30 5264 H 498.445 3.48128 2.27917 0
M  V30 5265 H 497.321 4.33402 3.36829 0
M  V30 5266 H 497.582 2.60864 3.56934 0
M  V30 5267 N 496.642 -0.504142 1.49319 0
M  V30 5268 C 497.605 -1.5883 1.65244 0
M  V30 5269 C 498.605 -1.52009 0.524386 0
M  V30 5270 O 499.795 -1.55218 0.79077 0
M  V30 5271 C 496.927 -2.98481 1.64687 0
M  V30 5272 H 498.12 -1.4604 2.61939 0
M  V30 5273 H 495.673 -0.728144 1.38303 0
M  V30 5274 H 496.408 -3.16751 0.695644 0
M  V30 5275 H 496.193 -3.0484 2.46607 0
M  V30 5276 H 497.683 -3.77256 1.79075 0
M  V30 5277 N 498.12 -1.38341 -0.754957 0
M  V30 5278 C 499.536 -1.19508 -1.05783 0
M  V30 5279 C 499.736 -0.0428005 -2.01455 0
M  V30 5280 O 498.792 0.611861 -2.44975 0
M  V30 5281 C 500.105 -2.52091 -1.63923 0
M  V30 5282 C 501.653 -2.58762 -1.76101 0
M  V30 5283 C 502.128 -3.91517 -2.37652 0
M  V30 5284 N 503.619 -3.93049 -2.45085 0
M  V30 5285 C 504.354 -4.9253 -2.93602 0
M  V30 5286 N 503.85 -6.02408 -3.42165 0
M  V30 5287 N 505.643 -4.79921 -2.92629 0
M  V30 5288 H 497.794 -2.1206 -0.120056 0
M  V30 5289 H 500.057 -0.94089 -0.11589 0
M  V30 5290 H 499.763 -3.36858 -1.01093 0
M  V30 5291 H 499.637 -2.70388 -2.63003 0
M  V30 5292 H 502.024 -1.74391 -2.38058 0
M  V30 5293 H 502.105 -2.44333 -0.757294 0
M  V30 5294 H 501.749 -4.76309 -1.76329 0
M  V30 5295 H 501.679 -4.03256 -3.38662 0
M  V30 5296 H 504.17 -3.13685 -2.10736 0
M  V30 5297 H 504.483 -6.74248 -3.77637 0
M  V30 5298 H 502.828 -6.0603 -3.40225 0
M  V30 5299 H 506.019 -3.93194 -2.54001 0
M  V30 5300 H 506.192 -5.57601 -3.30128 0
M  V30 5301 N 499.598 0.982988 -1.23187 0
M  V30 5302 C 500.528 2.09301 -1.03515 0
M  V30 5303 C 501.509 1.70035 0.0471136 0
M  V30 5304 O 502.694 1.93847 -0.117029 0
M  V30 5305 C 499.824 3.4167 -0.622791 0
M  V30 5306 C 498.778 3.94828 -1.65211 0
M  V30 5307 C 498.104 5.23362 -1.09527 0
M  V30 5308 C 499.404 4.2439 -3.04451 0
M  V30 5309 H 501.098 2.26016 -1.96359 0
M  V30 5310 H 498.644 1.08611 -0.945501 0
M  V30 5311 H 500.597 4.18746 -0.472233 0
M  V30 5312 H 499.321 3.24811 0.341329 0
M  V30 5313 H 497.98 3.19895 -1.79061 0
M  V30 5314 H 497.628 5.02852 -0.122211 0
M  V30 5315 H 497.328 5.59895 -1.783 0
M  V30 5316 H 498.852 6.03062 -0.956511 0
M  V30 5317 H 500.266 4.92225 -2.93917 0
M  V30 5318 H 498.663 4.72118 -3.70438 0
M  V30 5319 H 499.733 3.31765 -3.53638 0
M  V30 5320 N 501.076 1.04316 1.18135 0
M  V30 5321 C 502.023 0.636398 2.21853 0
M  V30 5322 C 502.993 -0.357039 1.62217 0
M  V30 5323 O 504.178 -0.250453 1.89149 0
M  V30 5324 C 501.318 0.00812779 3.45099 0
M  V30 5325 C 500.431 1.04933 4.19062 0
M  V30 5326 C 499.566 0.389313 5.29771 0
M  V30 5327 C 498.605 1.41544 5.9551 0
M  V30 5328 N 497.742 0.78021 6.97751 0
M  V30 5329 H 502.582 1.52536 2.56002 0
M  V30 5330 H 500.119 0.76304 1.25762 0
M  V30 5331 H 502.077 -0.373497 4.15525 0
M  V30 5332 H 500.707 -0.844336 3.11562 0
M  V30 5333 H 499.759 1.54888 3.47439 0
M  V30 5334 H 501.071 1.82862 4.64072 0
M  V30 5335 H 500.225 -0.0463805 6.06682 0
M  V30 5336 H 498.964 -0.422038 4.8587 0
M  V30 5337 H 497.969 1.86124 5.17337 0
M  V30 5338 H 499.194 2.22854 6.41493 0
M  V30 5339 H 497.14 -0.0107899 6.55999 0
M  V30 5340 H 497.057 1.49716 7.41027 0
M  V30 5341 H 498.325 0.368996 7.78626 0
M  V30 5342 N 502.554 -1.34406 0.822964 0
M  V30 5343 C 503.484 -2.32052 0.259608 0
M  V30 5344 C 504.465 -1.58243 -0.623961 0
M  V30 5345 O 505.65 -1.86224 -0.55083 0
M  V30 5346 C 502.78 -3.42434 -0.579314 0
M  V30 5347 C 501.734 -4.27499 0.20712 0
M  V30 5348 C 501.06 -5.29349 -0.754547 0
M  V30 5349 C 502.36 -5.02758 1.41533 0
M  V30 5350 H 504.054 -2.79418 1.07545 0
M  V30 5351 H 501.6 -1.34338 0.518593 0
M  V30 5352 H 503.553 -4.0976 -0.983612 0
M  V30 5353 H 502.277 -2.93717 -1.4282 0
M  V30 5354 H 500.936 -3.61776 0.592787 0
M  V30 5355 H 500.584 -4.76895 -1.59939 0
M  V30 5356 H 500.284 -5.8714 -0.232561 0
M  V30 5357 H 501.808 -5.99544 -1.1567 0
M  V30 5358 H 503.222 -5.62938 1.08504 0
M  V30 5359 H 501.619 -5.70123 1.87296 0
M  V30 5360 H 502.689 -4.32451 2.1935 0
M  V30 5361 N 504.032 -0.577932 -1.46621 0
M  V30 5362 C 505.262 -0.0670668 -2.06491 0
M  V30 5363 C 505.67 1.24119 -1.42798 0
M  V30 5364 O 505.013 1.76016 -0.525759 0
M  V30 5365 C 505.075 0.177995 -3.59059 0
M  V30 5366 C 504.739 -1.04394 -4.44917 0
M  V30 5367 C 505.736 -1.95479 -4.81751 0
M  V30 5368 C 503.421 -1.26444 -4.86125 0
M  V30 5369 C 505.415 -3.06965 -5.58615 0
M  V30 5370 C 503.102 -2.38237 -5.62749 0
M  V30 5371 C 504.1 -3.28327 -5.98908 0
M  V30 5372 O 503.788 -4.38179 -6.73984 0
M  V30 5373 H 503.52 -0.0523159 -0.673973 0
M  V30 5374 H 506.074 -0.796966 -1.89308 0
M  V30 5375 H 504.304 0.962451 -3.74531 0
M  V30 5376 H 505.993 0.636782 -4.00874 0
M  V30 5377 H 506.759 -1.79657 -4.50498 0
M  V30 5378 H 502.638 -0.572316 -4.57434 0
M  V30 5379 H 506.182 -3.77309 -5.86757 0
M  V30 5380 H 502.079 -2.54023 -5.93416 0
M  V30 5381 H 502.847 -4.36486 -6.92403 0
M  V30 5382 N 505.51 1.54411 -0.315457 0
M  V30 5383 C 506.457 2.24048 0.554166 0
M  V30 5384 C 507.427 1.2283 1.11812 0
M  V30 5385 O 508.612 1.51491 1.15997 0
M  V30 5386 C 505.752 2.99574 1.71316 0
M  V30 5387 C 504.865 4.15594 1.17922 0
M  V30 5388 C 504 4.78669 2.30324 0
M  V30 5389 C 503.039 5.86807 1.74137 0
M  V30 5390 N 502.176 6.43777 2.8017 0
M  V30 5391 H 507.016 2.97964 -0.0462602 0
M  V30 5392 H 504.553 1.47059 -0.0346009 0
M  V30 5393 H 506.511 3.41604 2.39505 0
M  V30 5394 H 505.141 2.28008 2.285 0
M  V30 5395 H 504.193 3.78404 0.389136 0
M  V30 5396 H 505.505 4.93459 0.728012 0
M  V30 5397 H 504.659 5.23626 3.06433 0
M  V30 5398 H 503.398 4.00168 2.78778 0
M  V30 5399 H 502.403 5.41261 0.965236 0
M  V30 5400 H 503.628 6.67201 1.2657 0
M  V30 5401 H 501.574 5.68153 3.2793 0
M  V30 5402 H 501.491 7.17031 2.39588 0
M  V30 5403 H 502.759 6.9339 3.56132 0
M  V30 5404 N 506.988 0.0434614 1.5754 0
M  V30 5405 C 508.236 -0.630786 1.92004 0
M  V30 5406 C 508.557 -1.71836 0.921807 0
M  V30 5407 O 507.827 -1.9587 -0.034522 0
M  V30 5408 H 506.407 -0.235988 0.708745 0
M  V30 5409 H 509.069 0.0946462 1.9467 0
M  V30 5410 H 508.165 -1.07434 2.93026 0
M  V30 5411 N 508.466 -1.55915 -0.229846 0
M  V30 5412 C 509.414 -1.9258 -1.30444 0
M  V30 5413 C 510.408 -0.806839 -1.48951 0
M  V30 5414 O 511.614 -0.991606 -1.50224 0
M  V30 5415 H 507.989 -0.611878 -0.437161 0
M  V30 5416 H 509.96 -2.82264 -0.96797 0
M  V30 5417 C 508.709 -2.25171 -2.6494 0
M  V30 5418 H 508.032 -3.10782 -2.51504 0
M  V30 5419 H 509.472 -2.54716 -3.38963 0
M  V30 5420 C 507.931 -1.07394 -3.19324 0
M  V30 5421 O 508.461 -0.330759 -4.00336 0
M  V30 5422 N 506.667 -0.859984 -2.77584 0
M  V30 5423 H 506.214 -1.46605 -2.11813 0
M  V30 5424 H 506.172 -0.0736671 -3.14314 0
M  V30 5425 N 509.944 0.496216 -1.49584 0
M  V30 5426 C 511.19 1.25189 -1.59548 0
M  V30 5427 C 511.523 1.9212 -0.283466 0
M  V30 5428 O 510.798 1.80947 0.713324 0
M  V30 5429 C 511.081 2.31516 -2.75812 0
M  V30 5430 C 510.934 1.69054 -4.16822 0
M  V30 5431 C 512.253 3.3304 -2.87702 0
M  V30 5432 H 509.372 0.45379 -0.580727 0
M  V30 5433 H 512.014 0.549327 -1.81886 0
M  V30 5434 H 510.164 2.91438 -2.56897 0
M  V30 5435 H 511.836 1.12923 -4.47265 0
M  V30 5436 H 510.079 0.994485 -4.22247 0
M  V30 5437 H 510.75 2.462 -4.94054 0
M  V30 5438 H 513.226 2.83114 -3.04936 0
M  V30 5439 H 512.102 4.04794 -3.7072 0
M  V30 5440 H 512.363 3.95655 -1.97255 0
M  V30 5441 N 511.423 1.38739 0.74761 0
M  V30 5442 C 512.653 1.3832 1.53464 0
M  V30 5443 C 513.061 -0.0273464 1.8918 0
M  V30 5444 O 512.404 -1.00588 1.53713 0
M  V30 5445 C 512.466 2.18007 2.85855 0
M  V30 5446 C 512.13 3.66762 2.72644 0
M  V30 5447 C 513.127 4.60124 2.42037 0
M  V30 5448 C 510.812 4.10193 2.89909 0
M  V30 5449 C 512.806 5.94897 2.28859 0
M  V30 5450 C 510.493 5.45045 2.7635 0
M  V30 5451 C 511.491 6.37211 2.45869 0
M  V30 5452 O 511.179 7.69581 2.3238 0
M  V30 5453 H 510.911 0.474718 0.481268 0
M  V30 5454 H 513.465 1.83012 0.932518 0
M  V30 5455 H 511.695 1.68043 3.48279 0
M  V30 5456 H 513.384 2.09921 3.47402 0
M  V30 5457 H 514.15 4.27874 2.28361 0
M  V30 5458 H 510.029 3.38797 3.1263 0
M  V30 5459 H 513.573 6.66802 2.04989 0
M  V30 5460 H 509.47 5.76889 2.89601 0
M  V30 5461 H 510.238 7.80169 2.47546 0
M  V30 5462 N 512.901 -0.976442 1.23707 0
M  V30 5463 C 514.147 -1.72081 1.07312 0
M  V30 5464 C 514.48 -1.90275 -0.388476 0
M  V30 5465 O 513.755 -1.4579 -1.28746 0
M  V30 5466 C 514.038 -3.11675 1.80363 0
M  V30 5467 C 513.891 -3.01027 3.3422 0
M  V30 5468 C 515.21 -4.1117 1.5693 0
M  V30 5469 H 512.329 -0.624583 0.391236 0
M  V30 5470 H 514.971 -1.13649 1.52263 0
M  V30 5471 H 513.121 -3.61559 1.42153 0
M  V30 5472 H 514.793 -2.58637 3.81975 0
M  V30 5473 H 513.036 -2.3744 3.63049 0
M  V30 5474 H 513.707 -3.9988 3.80525 0
M  V30 5475 H 516.183 -3.7011 1.90151 0
M  V30 5476 H 515.059 -5.06928 2.10513 0
M  V30 5477 H 515.32 -4.392 0.505548 0
M  V30 5478 N 514.379 -1.04941 -1.1758 0
M  V30 5479 C 515.625 -0.759112 -1.88057 0
M  V30 5480 C 515.958 0.711918 -1.8068 0
M  V30 5481 O 515.233 1.52035 -1.21308 0
M  V30 5482 C 515.516 -1.237 -3.38187 0
M  V30 5483 C 515.369 -2.77078 -3.54327 0
M  V30 5484 C 516.688 -0.834014 -4.32125 0
M  V30 5485 H 513.807 -0.277237 -0.682868 0
M  V30 5486 H 516.449 -1.30296 -1.38286 0
M  V30 5487 H 514.599 -0.774337 -3.80705 0
M  V30 5488 H 516.271 -3.31449 -3.20842 0
M  V30 5489 H 514.514 -3.16477 -2.96689 0
M  V30 5490 H 515.185 -3.05577 -4.59703 0
M  V30 5491 H 517.661 -1.23228 -3.97434 0
M  V30 5492 H 516.537 -1.19603 -5.35711 0
M  V30 5493 H 516.798 0.262195 -4.41322 0
M  V30 5494 N 515.857 1.33968 -0.830081 0
M  V30 5495 C 517.105 1.97672 -0.420734 0
M  V30 5496 C 517.426 1.66111 1.02138 0
M  V30 5497 O 516.696 0.955503 1.71017 0
M  V30 5498 H 515.276 0.73125 -0.152587 0
M  V30 5499 H 517.938 1.63483 -1.0611 0
M  V30 5500 H 517.034 3.07294 -0.545588 0
M  V30 5501 N 517.335 0.585699 1.46312 0
M  V30 5502 C 518.751 0.247607 1.57668 0
M  V30 5503 C 518.951 -1.25007 1.58037 0
M  V30 5504 O 518.007 -2.03196 1.49893 0
M  V30 5505 C 519.32 0.899456 2.86933 0
M  V30 5506 C 520.868 0.873326 3.00569 0
M  V30 5507 C 521.343 1.50477 4.32574 0
M  V30 5508 N 522.834 1.46925 4.3928 0
M  V30 5509 C 523.569 1.92719 5.40044 0
M  V30 5510 N 523.065 2.46499 6.47464 0
M  V30 5511 N 524.858 1.83617 5.31264 0
M  V30 5512 H 517.009 1.55841 1.44317 0
M  V30 5513 H 519.272 0.651564 0.688599 0
M  V30 5514 H 518.978 1.95313 2.92482 0
M  V30 5515 H 518.852 0.409476 3.74971 0
M  V30 5516 H 521.239 -0.171736 2.946 0
M  V30 5517 H 521.32 1.40136 2.13999 0
M  V30 5518 H 520.964 2.54905 4.39302 0
M  V30 5519 H 520.894 0.951944 5.17924 0
M  V30 5520 H 523.385 1.07616 3.62253 0
M  V30 5521 H 523.698 2.79291 7.20567 0
M  V30 5522 H 522.043 2.50526 6.48276 0
M  V30 5523 H 525.234 1.41358 4.46246 0
M  V30 5524 H 525.407 2.19622 6.09648 0
M  V30 5525 N 518.813 -1.54241 0.323641 0
M  V30 5526 C 519.76 -2.24339 -0.542277 0
M  V30 5527 C 520.73 -1.23421 -1.11159 0
M  V30 5528 O 521.915 -1.52104 -1.15192 0
M  V30 5529 C 519.055 -3.00479 -1.69725 0
M  V30 5530 C 518.168 -4.16214 -1.15716 0
M  V30 5531 C 517.303 -4.79884 -2.27783 0
M  V30 5532 C 516.342 -5.87722 -1.71023 0
M  V30 5533 N 515.479 -6.45254 -2.76752 0
M  V30 5534 H 520.319 -2.97935 0.0620613 0
M  V30 5535 H 517.856 -1.47039 0.0423993 0
M  V30 5536 H 519.814 -3.42869 -2.3769 0
M  V30 5537 H 518.444 -2.29217 -2.27288 0
M  V30 5538 H 517.496 -3.78605 -0.369063 0
M  V30 5539 H 518.808 -4.93838 -0.701832 0
M  V30 5540 H 517.962 -5.25243 -3.03651 0
M  V30 5541 H 516.701 -4.01641 -2.76652 0
M  V30 5542 H 515.706 -5.41765 -0.936518 0
M  V30 5543 H 516.931 -6.67863 -1.2303 0
M  V30 5544 H 514.877 -5.69884 -3.24912 0
M  V30 5545 H 514.794 -7.18292 -2.35782 0
M  V30 5546 H 516.062 -6.95269 -3.5245 0
M  V30 5547 N 520.291 -0.0518155 -1.57515 0
M  V30 5548 C 521.254 0.907547 -2.10467 0
M  V30 5549 C 522.254 1.23947 -1.02439 0
M  V30 5550 O 523.444 1.17604 -1.2851 0
M  V30 5551 C 520.576 2.21723 -2.58944 0
M  V30 5552 H 521.769 0.44851 -2.96527 0
M  V30 5553 H 519.322 0.196598 -1.55059 0
M  V30 5554 H 520.057 2.72206 -1.76279 0
M  V30 5555 H 519.842 1.98935 -3.37886 0
M  V30 5556 H 521.332 2.90441 -3.00056 0
M  V30 5557 N 521.769 1.56035 0.221574 0
M  V30 5558 C 523.18 1.69229 0.788567 0
M  V30 5559 C 523.531 0.653814 1.84986 0
M  V30 5560 O 522.656 -0.195065 2.15519 0
M  V30 5561 C 523.251 3.06809 1.43713 0
M  V30 5562 C 521.81 3.21858 1.95152 0
M  V30 5563 C 520.957 2.65155 0.811685 0
M  V30 5564 H 523.908 1.587 -0.00307894 0
M  V30 5565 H 523.929 3.02666 2.30594 0
M  V30 5566 H 523.441 3.82369 0.664475 0
M  V30 5567 H 521.542 2.51167 2.7522 0
M  V30 5568 H 521.655 4.29073 2.1315 0
M  V30 5569 H 520.019 2.23635 1.21899 0
M  V30 5570 H 520.802 3.43261 0.0516987 0
M  V30 5571 N 523.247 -0.488276 1.49845 0
M  V30 5572 C 524.194 -1.58836 1.67451 0
M  V30 5573 C 525.164 -1.57886 0.515857 0
M  V30 5574 O 526.349 -1.75679 0.744403 0
M  V30 5575 C 523.489 -2.96915 1.75885 0
M  V30 5576 C 522.602 -3.07784 3.03138 0
M  V30 5577 C 521.737 -4.36673 3.02473 0
M  V30 5578 C 520.776 -4.41222 4.24252 0
M  V30 5579 N 519.913 -5.61557 4.21424 0
M  V30 5580 H 524.753 -1.43131 2.61376 0
M  V30 5581 H 522.29 -0.696186 1.29583 0
M  V30 5582 H 524.248 -3.76965 1.78755 0
M  V30 5583 H 522.878 -3.11295 0.85414 0
M  V30 5584 H 521.93 -2.20717 3.09819 0
M  V30 5585 H 523.242 -3.07005 3.93128 0
M  V30 5586 H 522.396 -5.25055 3.03977 0
M  V30 5587 H 521.135 -4.40037 2.10283 0
M  V30 5588 H 520.14 -3.5124 4.22978 0
M  V30 5589 H 521.365 -4.39564 5.17649 0
M  V30 5590 H 519.311 -5.65738 3.32078 0
M  V30 5591 H 519.228 -5.62447 5.05163 0
M  V30 5592 H 520.496 -6.52111 4.2705 0
M  V30 5593 N 524.725 -1.39134 -0.740242 0
M  V30 5594 C 525.95 -1.39518 -1.53459 0
M  V30 5595 C 526.375 0.00968883 -1.88098 0
M  V30 5596 O 525.733 0.995312 -1.51536 0
M  V30 5597 C 525.781 -2.26981 -2.802 0
M  V30 5598 O 524.885 -1.69609 -3.75908 0
M  V30 5599 H 524.226 -0.475328 -0.463637 0
M  V30 5600 H 526.756 -1.83064 -0.913717 0
M  V30 5601 H 526.766 -2.41309 -3.28989 0
M  V30 5602 H 525.441 -3.29081 -2.5432 0
M  V30 5603 H 524.018 -1.64495 -3.34658 0
M  V30 5604 N 526.204 0.969867 -1.24223 0
M  V30 5605 C 527.134 2.08191 -1.05729 0
M  V30 5606 C 528.115 1.70075 0.0290765 0
M  V30 5607 O 529.3 1.93712 -0.137583 0
M  V30 5608 C 526.43 3.40991 -0.658995 0
M  V30 5609 C 525.384 3.93054 -1.69389 0
M  V30 5610 C 524.71 5.22171 -1.15072 0
M  V30 5611 C 526.01 4.21137 -3.08935 0
M  V30 5612 H 527.704 2.23921 -1.98746 0
M  V30 5613 H 525.25 1.07602 -0.956967 0
M  V30 5614 H 527.203 4.18221 -0.51662 0
M  V30 5615 H 525.927 3.25155 0.30686 0
M  V30 5616 H 524.586 3.17977 -1.82444 0
M  V30 5617 H 524.234 5.02694 -0.175539 0
M  V30 5618 H 523.934 5.57973 -1.84229 0
M  V30 5619 H 525.458 6.02013 -1.02042 0
M  V30 5620 H 526.872 4.8908 -2.99121 0
M  V30 5621 H 525.269 4.68163 -3.75425 0
M  V30 5622 H 526.339 3.27996 -3.57137 0
M  V30 5623 N 527.682 1.05563 1.17022 0
M  V30 5624 C 528.912 0.787307 1.91011 0
M  V30 5625 C 529.32 -0.661256 1.77268 0
M  V30 5626 O 528.663 -1.46379 1.10991 0
M  V30 5627 C 528.725 1.09313 3.42478 0
M  V30 5628 C 528.389 2.53863 3.80004 0
M  V30 5629 C 529.386 3.52081 3.82538 0
M  V30 5630 C 527.071 2.88969 4.10855 0
M  V30 5631 C 529.065 4.83449 4.15399 0
M  V30 5632 C 526.752 4.2054 4.43384 0
M  V30 5633 C 527.75 5.17589 4.45635 0
M  V30 5634 O 527.438 6.46799 4.77395 0
M  V30 5635 H 527.17 0.285463 0.61277 0
M  V30 5636 H 529.724 1.41051 1.49311 0
M  V30 5637 H 527.954 0.412833 3.8449 0
M  V30 5638 H 529.643 0.810224 3.97731 0
M  V30 5639 H 530.409 3.26299 3.58823 0
M  V30 5640 H 526.288 2.1409 4.08272 0
M  V30 5641 H 529.832 5.59194 4.1707 0
M  V30 5642 H 525.729 4.46083 4.66563 0
M  V30 5643 H 526.497 6.51677 4.95237 0
M  V30 5644 N 529.16 -1.33526 0.837174 0
M  V30 5645 C 530.576 -1.50727 0.524743 0
M  V30 5646 C 530.776 -1.77792 -0.948279 0
M  V30 5647 O 529.832 -1.83719 -1.73216 0
M  V30 5648 C 531.145 -2.66299 1.39661 0
M  V30 5649 C 532.693 -2.80183 1.39521 0
M  V30 5650 C 533.168 -3.98815 2.25189 0
M  V30 5651 N 534.659 -4.06047 2.2289 0
M  V30 5652 C 535.394 -4.97032 2.85915 0
M  V30 5653 N 534.89 -5.93143 3.57985 0
M  V30 5654 N 536.683 -4.90015 2.75394 0
M  V30 5655 H 528.834 -1.1422 1.79074 0
M  V30 5656 H 531.097 -0.561399 0.763894 0
M  V30 5657 H 530.803 -2.52974 2.4433 0
M  V30 5658 H 530.677 -3.61663 1.07145 0
M  V30 5659 H 533.064 -2.92942 0.356253 0
M  V30 5660 H 533.145 -1.85586 1.76044 0
M  V30 5661 H 532.789 -3.86817 3.29143 0
M  V30 5662 H 532.719 -4.92654 1.86009 0
M  V30 5663 H 535.21 -3.37262 1.70478 0
M  V30 5664 H 535.523 -6.59227 4.03286 0
M  V30 5665 H 533.868 -5.93223 3.62093 0
M  V30 5666 H 537.059 -4.13894 2.18654 0
M  V30 5667 H 537.232 -5.60724 3.24796 0
M  V30 5668 N 530.638 -0.59345 -1.46 0
M  V30 5669 C 531.57 0.171569 -2.28557 0
M  V30 5670 C 532.583 0.845273 -1.39137 0
M  V30 5671 O 533.772 0.713033 -1.6364 0
M  V30 5672 C 530.872 1.26311 -3.14482 0
M  V30 5673 C 530.045 0.679258 -4.32094 0
M  V30 5674 C 529.104 1.65987 -4.99334 0
M  V30 5675 O 528.13 1.19171 -5.56585 0
M  V30 5676 N 529.332 2.99414 -4.97324 0
M  V30 5677 H 532.097 -0.536771 -2.94854 0
M  V30 5678 H 529.658 -0.431954 -1.56031 0
M  V30 5679 H 531.65 1.91863 -3.5633 0
M  V30 5680 H 530.22 1.87416 -2.50188 0
M  V30 5681 H 529.44 -0.153992 -3.93899 0
M  V30 5682 H 530.728 0.26916 -5.08088 0
M  V30 5683 H 530.126 3.40064 -4.52076 0
M  V30 5684 H 528.683 3.60426 -5.4308 0
M  V30 5685 N 532.116 1.54067 -0.331816 0
M  V30 5686 C 533.393 1.92915 0.322955 0
M  V30 5687 C 533.773 1.26225 1.69205 0
M  V30 5688 O 533.121 0.408919 2.24811 0
M  V30 5689 C 533.331 3.46619 0.406946 0
M  V30 5690 C 534.679 4.19386 0.663339 0
M  V30 5691 O 535.703 3.5282 0.489536 0
M  V30 5692 O 534.562 5.37288 0.999193 0
M  V30 5693 H 531.656 0.805808 0.186016 0
M  V30 5694 H 534.202 1.65342 -0.382135 0
M  V30 5695 H 532.974 3.87354 -0.554287 0
M  V30 5696 H 532.597 3.80324 1.15929 0
M  V30 5697 N 533.594 0.0601682 1.57485 0
M  V30 5698 C 534.524 -0.90889 2.15085 0
M  V30 5699 C 535.505 -1.31838 1.07484 0
M  V30 5700 O 536.69 -1.3915 1.35466 0
M  V30 5701 C 533.82 -2.18059 2.7031 0
M  V30 5702 C 532.774 -1.91088 3.82974 0
M  V30 5703 C 532.1 -3.24789 4.24754 0
M  V30 5704 C 533.4 -1.22535 5.07723 0
M  V30 5705 H 535.094 -0.429093 2.96309 0
M  V30 5706 H 532.64 -0.204952 1.42534 0
M  V30 5707 H 534.593 -2.86258 3.09248 0
M  V30 5708 H 533.317 -2.6826 1.8629 0
M  V30 5709 H 531.976 -1.25297 3.44523 0
M  V30 5710 H 531.624 -3.72809 3.37672 0
M  V30 5711 H 531.324 -3.07538 5.00694 0
M  V30 5712 H 532.848 -3.94205 4.66299 0
M  V30 5713 H 534.262 -1.80783 5.4405 0
M  V30 5714 H 532.659 -1.1558 5.88864 0
M  V30 5715 H 533.729 -0.202692 4.84476 0
M  V30 5716 N 535.072 -1.5615 -0.213296 0
M  V30 5717 C 536.318 -1.79812 -0.937849 0
M  V30 5718 C 536.651 -0.631201 -1.83656 0
M  V30 5719 O 535.926 0.369165 -1.90964 0
M  V30 5720 C 536.209 -3.13613 -1.76972 0
M  V30 5721 C 536.062 -4.40766 -0.89695 0
M  V30 5722 C 537.381 -3.43931 -2.7459 0
M  V30 5723 H 534.5 -0.654138 -0.339518 0
M  V30 5724 H 537.142 -1.88877 -0.20623 0
M  V30 5725 H 535.292 -3.06015 -2.39347 0
M  V30 5726 H 536.964 -4.60392 -0.289306 0
M  V30 5727 H 535.207 -4.33326 -0.202756 0
M  V30 5728 H 535.878 -5.30843 -1.51358 0
M  V30 5729 H 538.354 -3.5171 -2.22349 0
M  V30 5730 H 537.23 -4.38706 -3.29891 0
M  V30 5731 H 537.491 -2.6651 -3.52739 0
M  V30 5732 N 536.55 0.480323 -1.50102 0
M  V30 5733 C 537.775 1.26126 -1.64642 0
M  V30 5734 C 538.2 1.85257 -0.325823 0
M  V30 5735 O 537.558 1.66854 0.709194 0
M  V30 5736 C 537.606 2.35243 -2.73301 0
M  V30 5737 O 536.71 3.39646 -2.33911 0
M  V30 5738 H 536.051 0.371463 -0.550374 0
M  V30 5739 H 538.581 0.572696 -1.96421 0
M  V30 5740 H 538.591 2.80695 -2.96098 0
M  V30 5741 H 537.266 1.91574 -3.6915 0
M  V30 5742 H 535.843 2.99969 -2.21525 0
M  V30 5743 N 538.028 1.39524 0.732853 0
M  V30 5744 C 539.275 1.36865 1.49246 0
M  V30 5745 C 539.603 -0.0347118 1.94469 0
M  V30 5746 O 538.858 -1.01596 1.67262 0
M  V30 5747 C 539.157 2.28916 2.74468 0
M  V30 5748 C 538.823 3.76506 2.481 0
M  V30 5749 C 537.485 4.16721 2.40619 0
M  V30 5750 C 539.837 4.69846 2.25598 0
M  V30 5751 C 537.165 5.48334 2.08679 0
M  V30 5752 C 539.517 6.01739 1.95174 0
M  V30 5753 C 538.181 6.41015 1.86163 0
M  V30 5754 H 537.451 0.500824 0.546129 0
M  V30 5755 H 540.098 1.72047 0.840958 0
M  V30 5756 H 538.403 1.86859 3.4437 0
M  V30 5757 H 540.1 2.2415 3.32502 0
M  V30 5758 H 536.69 3.44635 2.54803 0
M  V30 5759 H 540.874 4.39608 2.30344 0
M  V30 5760 H 536.13 5.77685 2.00226 0
M  V30 5761 H 540.304 6.73591 1.76771 0
M  V30 5762 H 537.931 7.42917 1.61179 0
M  V30 5763 N 539.506 -0.963266 1.24736 0
M  V30 5764 C 540.783 -1.68248 0.9976 0
M  V30 5765 C 541.163 -2.05599 -0.478776 0
M  V30 5766 O 540.511 -1.7626 -1.45412 0
M  V30 5767 C 540.721 -2.91118 1.92487 0
M  V30 5768 C 542.069 -3.63261 2.19833 0
M  V30 5769 O 543.093 -3.01184 1.90176 0
M  V30 5770 O 541.952 -4.75019 2.7022 0
M  V30 5771 H 539.046 -0.735744 0.377637 0
M  V30 5772 H 541.592 -1.01696 1.35853 0
M  V30 5773 H 540.364 -2.60242 2.92215 0
M  V30 5774 H 539.987 -3.65402 1.56738 0
M  V30 5775 N 540.985 -1.06182 -1.16461 0
M  V30 5776 C 541.895 -0.682671 -2.24448 0
M  V30 5777 C 542.911 0.30078 -1.71381 0
M  V30 5778 O 544.087 0.150376 -2.00838 0
M  V30 5779 C 541.152 -0.0737202 -3.46622 0
M  V30 5780 C 540.213 -1.10889 -4.14731 0
M  V30 5781 C 539.446 -0.528908 -5.31073 0
M  V30 5782 O 539.669 0.65868 -5.66584 0
M  V30 5783 O 538.603 -1.26805 -5.88391 0
M  V30 5784 H 542.429 -1.58291 -2.59187 0
M  V30 5785 H 540.014 -0.834013 -1.23954 0
M  V30 5786 H 541.896 0.264192 -4.20571 0
M  V30 5787 H 540.571 0.800015 -3.13658 0
M  V30 5788 H 539.478 -1.49896 -3.42756 0
M  V30 5789 H 540.811 -1.95412 -4.51747 0
M  V30 5790 N 542.463 1.3308 -0.844243 0
M  V30 5791 C 543.426 2.27403 -0.286485 0
M  V30 5792 C 544.426 1.51179 0.547872 0
M  V30 5793 O 545.616 1.70421 0.360886 0
M  V30 5794 C 542.748 3.35653 0.595813 0
M  V30 5795 H 543.941 2.78248 -1.11885 0
M  V30 5796 H 541.494 1.43574 -0.617749 0
M  V30 5797 H 542.229 2.90058 1.4504 0
M  V30 5798 H 542.014 3.921 -0.00125994 0
M  V30 5799 H 543.504 4.05958 0.979168 0
M  V30 5800 N 543.941 0.601185 1.45683 0
M  V30 5801 C 545.189 0.0936957 2.01883 0
M  V30 5802 C 545.51 -1.2779 1.47291 0
M  V30 5803 O 544.78 -1.84279 0.664691 0
M  V30 5804 H 543.36 0.0316466 0.746329 0
M  V30 5805 H 546.022 0.781137 1.78562 0
M  V30 5806 H 545.118 0.0386297 3.12076 0
M  V30 5807 N 545.419 -1.53889 0.339982 0
M  V30 5808 C 546.667 -2.00458 -0.257112 0
M  V30 5809 C 546.988 -1.22953 -1.51353 0
M  V30 5810 O 546.258 -0.335734 -1.93002 0
M  V30 5811 H 544.838 -0.740544 -0.0979965 0
M  V30 5812 H 547.5 -1.89386 0.460317 0
M  V30 5813 H 546.596 -3.08035 -0.502057 0
M  V30 5814 N 546.897 -0.0685191 -1.57451 0
M  V30 5815 C 548.127 0.609577 -1.97402 0
M  V30 5816 C 548.535 1.63882 -0.945489 0
M  V30 5817 O 547.878 1.8354 0.0766052 0
M  V30 5818 C 547.94 1.3385 -3.33653 0
M  V30 5819 C 547.604 0.463103 -4.54648 0
M  V30 5820 C 548.601 -0.277964 -5.19156 0
M  V30 5821 C 546.286 0.388941 -5.00792 0
M  V30 5822 C 548.28 -1.08145 -6.28159 0
M  V30 5823 C 545.967 -0.418217 -6.09667 0
M  V30 5824 C 546.965 -1.15208 -6.73213 0
M  V30 5825 O 546.653 -1.94594 -7.79993 0
M  V30 5826 H 546.385 0.170197 -0.654224 0
M  V30 5827 H 548.939 -0.13647 -2.04946 0
M  V30 5828 H 547.169 2.13055 -3.22714 0
M  V30 5829 H 548.858 1.90851 -3.58233 0
M  V30 5830 H 549.624 -0.230241 -4.84453 0
M  V30 5831 H 545.503 0.949769 -4.5111 0
M  V30 5832 H 549.047 -1.65476 -6.7769 0
M  V30 5833 H 544.944 -0.467515 -6.43805 0
M  V30 5834 H 545.712 -1.8699 -7.96854 0
M  V30 5835 N 548.375 1.56261 0.205012 0
M  V30 5836 C 549.652 1.70856 0.952233 0
M  V30 5837 C 550.032 0.620501 2.01775 0
M  V30 5838 O 549.38 -0.370035 2.25484 0
M  V30 5839 C 549.59 3.12807 1.54767 0
M  V30 5840 C 550.938 3.72733 2.0336 0
M  V30 5841 O 551.962 3.15873 1.64629 0
M  V30 5842 O 550.821 4.72501 2.746 0
M  V30 5843 H 547.915 0.696496 0.445895 0
M  V30 5844 H 550.461 1.6857 0.195489 0
M  V30 5845 H 549.233 3.83465 0.779132 0
M  V30 5846 H 548.856 3.1928 2.36951 0
M  V30 5847 N 549.853 -0.472356 1.50355 0
M  V30 5848 C 550.785 -1.58795 1.65278 0
M  V30 5849 C 551.798 -1.53782 0.534313 0
M  V30 5850 O 552.987 -1.59193 0.807446 0
M  V30 5851 C 550.087 -2.97672 1.62001 0
M  V30 5852 C 549.26 -3.27568 2.89859 0
M  V30 5853 C 548.319 -4.45993 2.79242 0
M  V30 5854 O 547.345 -4.46364 3.53197 0
M  V30 5855 N 548.547 -5.47578 1.92713 0
M  V30 5856 H 551.312 -1.46411 2.61503 0
M  V30 5857 H 548.873 -0.660751 1.47803 0
M  V30 5858 H 550.865 -3.74862 1.52513 0
M  V30 5859 H 549.435 -3.03832 0.735159 0
M  V30 5860 H 548.655 -2.39003 3.13483 0
M  V30 5861 H 549.943 -3.44352 3.74565 0
M  V30 5862 H 549.341 -5.50099 1.31939 0
M  V30 5863 H 547.898 -6.23757 1.8913 0
M  V30 5864 N 551.331 -1.39911 -0.725443 0
M  V30 5865 C 552.278 -1.39393 -1.83952 0
M  V30 5866 C 553.248 -0.252249 -1.64173 0
M  V30 5867 O 554.433 -0.44882 -1.85446 0
M  V30 5868 C 551.573 -1.25262 -3.21564 0
M  V30 5869 C 550.686 -2.49054 -3.52982 0
M  V30 5870 C 549.821 -2.27439 -4.80047 0
M  V30 5871 C 548.86 -3.46857 -5.04338 0
M  V30 5872 N 547.997 -3.24499 -6.22611 0
M  V30 5873 H 552.837 -2.34622 -1.83729 0
M  V30 5874 H 550.374 -1.16537 -0.897636 0
M  V30 5875 H 552.332 -1.15077 -4.01015 0
M  V30 5876 H 550.962 -0.33657 -3.21041 0
M  V30 5877 H 550.014 -2.69805 -2.6816 0
M  V30 5878 H 551.326 -3.37973 -3.66846 0
M  V30 5879 H 550.48 -2.14551 -5.67497 0
M  V30 5880 H 549.219 -1.35929 -4.68374 0
M  V30 5881 H 548.224 -3.60232 -4.15346 0
M  V30 5882 H 549.449 -4.3928 -5.17889 0
M  V30 5883 H 547.395 -2.35663 -6.12208 0
M  V30 5884 H 547.312 -4.06978 -6.37106 0
M  V30 5885 H 548.58 -3.15325 -7.12875 0
M  V30 5886 N 552.809 0.956637 -1.25245 0
M  V30 5887 C 554.086 1.67716 -1.00651 0
M  V30 5888 C 554.466 2.0585 0.467866 0
M  V30 5889 O 553.814 1.77029 1.44475 0
M  V30 5890 C 554.024 2.90093 -1.94028 0
M  V30 5891 C 555.372 3.6209 -2.21756 0
M  V30 5892 O 556.396 3.00171 -1.9177 0
M  V30 5893 O 555.255 4.7358 -2.72735 0
M  V30 5894 H 552.349 0.733731 -0.381533 0
M  V30 5895 H 554.895 1.00974 -1.3639 0
M  V30 5896 H 553.667 2.58689 -2.93591 0
M  V30 5897 H 553.29 3.64566 -1.58674 0
M  V30 5898 N 554.287 1.06798 1.15896 0
M  V30 5899 C 555.25 0.687328 2.18651 0
M  V30 5900 C 556.25 -0.269559 1.58524 0
M  V30 5901 O 557.44 -0.0512627 1.74125 0
M  V30 5902 C 554.572 0.0121642 3.40898 0
M  V30 5903 H 555.765 1.59701 2.53842 0
M  V30 5904 H 553.318 0.863828 1.3026 0
M  V30 5905 H 554.053 -0.910025 3.1127 0
M  V30 5906 H 553.838 0.700309 3.85795 0
M  V30 5907 H 555.328 -0.239703 4.16911 0
M  V30 5908 N 555.766 -1.3263 0.851289 0
M  V30 5909 C 556.676 -2.32722 0.296268 0
M  V30 5910 C 557.692 -1.63901 -0.584162 0
M  V30 5911 O 558.868 -1.95465 -0.485334 0
M  V30 5912 C 555.933 -3.42942 -0.509103 0
M  V30 5913 C 554.994 -4.2746 0.397069 0
M  V30 5914 C 554.227 -5.32416 -0.36996 0
M  V30 5915 O 554.45 -5.47491 -1.6003 0
M  V30 5916 O 553.384 -6.01327 0.262493 0
M  V30 5917 H 557.21 -2.82078 1.12543 0
M  V30 5918 H 554.795 -1.36194 0.614135 0
M  V30 5919 H 556.677 -4.1017 -0.96634 0
M  V30 5920 H 555.352 -2.95781 -1.31512 0
M  V30 5921 H 554.259 -3.63053 0.902411 0
M  V30 5922 H 555.592 -4.78136 1.16818 0
M  V30 5923 N 557.244 -0.608902 -1.45362 0
M  V30 5924 C 558.492 -0.104401 -2.0183 0
M  V30 5925 C 558.813 1.27007 -1.47967 0
M  V30 5926 O 558.083 1.83924 -0.674455 0
M  V30 5927 H 556.663 -0.0356042 -0.746151 0
M  V30 5928 H 559.325 -0.790596 -1.78145 0
M  V30 5929 H 558.421 -0.0551793 -3.12051 0
M  V30 5930 N 558.722 1.53707 -0.348139 0
M  V30 5931 C 559.969 2.00988 0.246966 0
M  V30 5932 C 560.297 1.23586 1.50189 0
M  V30 5933 O 559.552 0.312817 1.93184 0
M  V30 5934 C 559.851 3.52292 0.602061 0
M  V30 5935 C 559.517 4.47453 -0.556509 0
M  V30 5936 C 558.179 4.73188 -0.874446 0
M  V30 5937 C 560.531 5.03851 -1.33354 0
M  V30 5938 C 557.859 5.52577 -1.9717 0
M  V30 5939 C 560.211 5.84437 -2.42108 0
M  V30 5940 C 558.875 6.08465 -2.74456 0
M  V30 5941 H 558.145 0.735469 0.0903712 0
M  V30 5942 H 560.792 1.85464 -0.477001 0
M  V30 5943 H 559.097 3.65672 1.40681 0
M  V30 5944 H 560.794 3.86337 1.07447 0
M  V30 5945 H 557.384 4.27558 -0.298652 0
M  V30 5946 H 561.568 4.8393 -1.10117 0
M  V30 5947 H 556.824 5.69418 -2.22651 0
M  V30 5948 H 560.998 6.27151 -3.02745 0
M  V30 5949 H 558.625 6.69768 -3.59604 0
M  V30 5950 N 560.2 0.0768682 1.57412 0
M  V30 5951 C 561.449 -0.590679 1.92857 0
M  V30 5952 C 561.762 -1.70461 0.959293 0
M  V30 5953 O 562.968 -2.43207 1.20675 0
M  V30 5954 C 561.424 -1.10204 3.42612 0
M  V30 5955 C 561.032 -0.0188447 4.47996 0
M  V30 5956 C 562.776 -1.74336 3.87049 0
M  V30 5957 C 560.683 -0.544536 5.88888 0
M  V30 5958 H 559.613 -0.224411 0.71983 0
M  V30 5959 H 562.264 0.149924 1.82887 0
M  V30 5960 H 560.646 -1.89577 3.47673 0
M  V30 5961 H 561.82 0.755936 4.54557 0
M  V30 5962 H 560.135 0.526555 4.13057 0
M  V30 5963 H 562.732 -2.14708 4.89699 0
M  V30 5964 H 563.075 -2.60537 3.24694 0
M  V30 5965 H 563.608 -1.01577 3.84613 0
M  V30 5966 H 560.347 0.280426 6.549 0
M  V30 5967 H 559.867 -1.28673 5.85836 0
M  V30 5968 H 561.546 -1.01933 6.3892 0
M  V30 5969 N 561.678 -1.56367 -0.196722 0
M  V30 5970 C 562.625 -1.94417 -1.24382 0
M  V30 5971 C 563.595 -0.804543 -1.45315 0
M  V30 5972 O 564.78 -1.06256 -1.58475 0
M  V30 5973 C 561.92 -2.28757 -2.58388 0
M  V30 5974 C 561.033 -3.55775 -2.45047 0
M  V30 5975 C 560.168 -3.79445 -3.71746 0
M  V30 5976 C 559.207 -4.99894 -3.53231 0
M  V30 5977 N 558.344 -5.19826 -4.71938 0
M  V30 5978 H 563.184 -2.83691 -0.912338 0
M  V30 5979 H 560.721 -1.40392 -0.439135 0
M  V30 5980 H 562.679 -2.46682 -3.36457 0
M  V30 5981 H 561.309 -1.42625 -2.89582 0
M  V30 5982 H 560.361 -3.45905 -1.58284 0
M  V30 5983 H 561.673 -4.44 -2.27299 0
M  V30 5984 H 560.827 -3.97601 -4.58256 0
M  V30 5985 H 559.566 -2.89546 -3.92446 0
M  V30 5986 H 558.571 -4.81662 -2.65107 0
M  V30 5987 H 559.796 -5.913 -3.33978 0
M  V30 5988 H 557.742 -4.32875 -4.92905 0
M  V30 5989 H 557.659 -6.02228 -4.57009 0
M  V30 5990 H 558.927 -5.42439 -5.59803 0
M  V30 5991 N 563.156 0.464375 -1.50603 0
M  V30 5992 C 564.405 1.21277 -1.61167 0
M  V30 5993 C 564.718 1.92953 -0.320704 0
M  V30 5994 O 565.924 2.69778 -0.30534 0
M  V30 5995 C 564.38 2.20403 -2.84518 0
M  V30 5996 C 563.988 1.54499 -4.20516 0
M  V30 5997 C 565.732 2.95843 -3.0443 0
M  V30 5998 C 563.639 2.51951 -5.35047 0
M  V30 5999 H 562.569 0.456367 -0.600204 0
M  V30 6000 H 565.22 0.48254 -1.77042 0
M  V30 6001 H 563.602 2.96746 -2.62217 0
M  V30 6002 H 564.776 0.83899 -4.53098 0
M  V30 6003 H 563.091 0.913152 -4.06264 0
M  V30 6004 H 565.688 3.6879 -3.87167 0
M  V30 6005 H 566.031 3.55622 -2.16423 0
M  V30 6006 H 566.564 2.26611 -3.26944 0
M  V30 6007 H 563.303 1.96901 -6.25228 0
M  V30 6008 H 562.823 3.20683 -5.06875 0
M  V30 6009 H 564.502 3.13643 -5.65895 0
M  V30 6010 N 564.634 1.40294 0.718013 0
M  V30 6011 C 565.566 1.36281 1.84283 0
M  V30 6012 C 566.579 0.268621 1.60569 0
M  V30 6013 O 567.768 0.528798 1.70487 0
M  V30 6014 C 564.868 1.09741 3.2064 0
M  V30 6015 C 564.041 2.30767 3.71571 0
M  V30 6016 C 563.1 2.00424 4.86535 0
M  V30 6017 O 562.126 2.73268 4.99313 0
M  V30 6018 N 563.328 0.980724 5.72156 0
M  V30 6019 H 566.093 2.3322 1.88225 0
M  V30 6020 H 563.654 1.34616 0.899453 0
M  V30 6021 H 565.646 0.874322 3.95143 0
M  V30 6022 H 564.216 0.214771 3.11861 0
M  V30 6023 H 563.436 2.68921 2.88228 0
M  V30 6024 H 564.724 3.11455 4.02335 0
M  V30 6025 H 564.122 0.377375 5.6444 0
M  V30 6026 H 562.679 0.817538 6.46653 0
M  V30 6027 N 566.112 -0.949982 1.2575 0
M  V30 6028 C 567.075 -2.02894 1.06615 0
M  V30 6029 C 568.075 -1.60791 0.0173905 0
M  V30 6030 O 569.265 -1.72249 0.260003 0
M  V30 6031 C 566.397 -3.35219 0.619751 0
M  V30 6032 H 567.59 -2.21302 2.02399 0
M  V30 6033 H 565.143 -1.12772 1.08223 0
M  V30 6034 H 565.878 -3.22508 -0.340486 0
M  V30 6035 H 565.663 -3.67129 1.37692 0
M  V30 6036 H 567.153 -4.14505 0.507443 0
M  V30 6037 N 567.59 -1.07411 -1.15328 0
M  V30 6038 C 568.52 -0.716472 -2.22236 0
M  V30 6039 C 569.501 0.296373 -1.67498 0
M  V30 6040 O 570.686 0.168989 -1.93463 0
M  V30 6041 C 567.816 -0.114142 -3.47112 0
M  V30 6042 C 566.77 -1.05421 -4.14814 0
M  V30 6043 C 566.096 -0.314604 -5.33774 0
M  V30 6044 C 567.396 -2.38808 -4.64508 0
M  V30 6045 H 569.09 -1.61029 -2.52408 0
M  V30 6046 H 566.636 -0.775702 -1.21321 0
M  V30 6047 H 568.589 0.148001 -4.2114 0
M  V30 6048 H 567.313 0.814755 -3.16274 0
M  V30 6049 H 565.972 -1.30128 -3.42728 0
M  V30 6050 H 565.62 0.617772 -4.99192 0
M  V30 6051 H 565.32 -0.941209 -5.80013 0
M  V30 6052 H 566.844 -0.0602747 -6.1057 0
M  V30 6053 H 568.258 -2.18424 -5.3006 0
M  V30 6054 H 566.655 -2.97069 -5.21412 0
M  V30 6055 H 567.725 -3.01067 -3.80114 0
M  V30 6056 N 569.068 1.32177 -0.85831 0
M  V30 6057 C 570.484 1.49873 -0.548656 0
M  V30 6058 C 570.684 1.79278 0.919874 0
M  V30 6059 O 569.74 1.86451 1.70271 0
M  V30 6060 C 571.053 2.64043 -1.4388 0
M  V30 6061 C 572.601 2.77928 -1.43961 0
M  V30 6062 C 573.076 3.95182 -2.31506 0
M  V30 6063 N 574.567 4.0245 -2.29321 0
M  V30 6064 C 575.302 4.9242 -2.93786 0
M  V30 6065 N 574.798 5.87373 -3.67376 0
M  V30 6066 N 576.591 4.85572 -2.83155 0
M  V30 6067 H 568.742 1.11357 -1.80868 0
M  V30 6068 H 571.005 0.549175 -0.772729 0
M  V30 6069 H 570.711 2.49055 -2.48324 0
M  V30 6070 H 570.585 3.59912 -1.12885 0
M  V30 6071 H 572.972 2.92338 -0.402813 0
M  V30 6072 H 573.053 1.82762 -1.78974 0
M  V30 6073 H 572.697 3.81531 -3.35256 0
M  V30 6074 H 572.627 4.89633 -1.93823 0
M  V30 6075 H 575.118 3.34507 -1.75822 0
M  V30 6076 H 575.431 6.52728 -4.13722 0
M  V30 6077 H 573.776 5.87388 -3.71484 0
M  V30 6078 H 576.967 4.10363 -2.25211 0
M  V30 6079 H 577.14 5.55486 -3.33676 0
M  V30 6080 N 570.547 0.616602 1.45037 0
M  V30 6081 C 571.477 -0.0840787 2.33349 0
M  V30 6082 C 572.458 -0.849641 1.4736 0
M  V30 6083 O 573.643 -0.818407 1.76113 0
M  V30 6084 C 570.773 -1.07604 3.3021 0
M  V30 6085 C 569.727 -0.423096 4.25904 0
M  V30 6086 C 569.053 -1.52394 5.12523 0
M  V30 6087 C 570.353 0.661457 5.18095 0
M  V30 6088 H 572.047 0.653333 2.92185 0
M  V30 6089 H 569.593 0.315634 1.40498 0
M  V30 6090 H 571.546 -1.57485 3.90866 0
M  V30 6091 H 570.27 -1.84416 2.69552 0
M  V30 6092 H 568.929 0.05493 3.66559 0
M  V30 6093 H 568.577 -2.28257 4.48227 0
M  V30 6094 H 568.277 -1.09251 5.77354 0
M  V30 6095 H 569.801 -2.02485 5.76049 0
M  V30 6096 H 571.215 0.246353 5.7277 0
M  V30 6097 H 569.612 1.01517 5.91451 0
M  V30 6098 H 570.682 1.53446 4.59981 0
M  V30 6099 N 572.025 -1.5352 0.356285 0
M  V30 6100 C 573.441 -1.59599 0.00485267 0
M  V30 6101 C 573.641 -1.37179 -1.47595 0
M  V30 6102 O 572.697 -1.17234 -2.23635 0
M  V30 6103 C 574.01 -2.97277 0.452454 0
M  V30 6104 C 575.558 -3.10357 0.405881 0
M  V30 6105 C 576.033 -4.50432 0.829148 0
M  V30 6106 N 577.524 -4.5652 0.783838 0
M  V30 6107 C 578.259 -5.63077 1.08315 0
M  V30 6108 N 577.755 -6.77429 1.45126 0
M  V30 6109 N 579.548 -5.53014 1.00655 0
M  V30 6110 H 571.699 -1.66346 1.32071 0
M  V30 6111 H 573.962 -0.77971 0.539218 0
M  V30 6112 H 573.668 -3.18792 1.48542 0
M  V30 6113 H 573.542 -3.76836 -0.165762 0
M  V30 6114 H 575.929 -2.88558 -0.617934 0
M  V30 6115 H 576.01 -2.32828 1.05947 0
M  V30 6116 H 575.654 -4.72968 1.85103 0
M  V30 6117 H 575.584 -5.26378 0.152906 0
M  V30 6118 H 578.075 -3.74408 0.512513 0
M  V30 6119 H 578.388 -7.54669 1.66415 0
M  V30 6120 H 576.733 -6.78844 1.48983 0
M  V30 6121 H 579.924 -4.62557 0.718215 0
M  V30 6122 H 580.097 -6.35964 1.24315 0
M  V30 6123 N 573.503 -0.0852151 -1.57369 0
M  V30 6124 C 574.749 0.581666 -1.94279 0
M  V30 6125 C 575.082 1.68444 -0.966446 0
M  V30 6126 O 574.357 1.945 0.00215277 0
M  V30 6127 C 574.64 1.14609 -3.41375 0
M  V30 6128 C 574.493 0.0490414 -4.49773 0
M  V30 6129 C 575.812 2.04751 -3.8957 0
M  V30 6130 H 572.931 0.209972 -0.706456 0
M  V30 6131 H 575.573 -0.153915 -1.89376 0
M  V30 6132 H 573.723 1.77297 -3.45685 0
M  V30 6133 H 575.395 -0.584721 -4.57579 0
M  V30 6134 H 573.638 -0.618638 -4.29366 0
M  V30 6135 H 574.309 0.484601 -5.49869 0
M  V30 6136 H 576.785 1.51981 -3.87351 0
M  V30 6137 H 575.661 2.41173 -4.93079 0
M  V30 6138 H 575.922 2.96107 -3.28288 0
M  V30 6139 N 574.981 1.5647 0.188427 0
M  V30 6140 C 576.397 1.50204 0.539532 0
M  V30 6141 C 576.597 0.78644 1.85519 0
M  V30 6142 O 575.653 0.339714 2.50204 0
M  V30 6143 C 576.966 2.94893 0.588103 0
M  V30 6144 C 578.514 3.05602 0.67648 0
M  V30 6145 C 578.989 4.51716 0.756101 0
M  V30 6146 N 580.48 4.55894 0.819451 0
M  V30 6147 C 581.215 5.66272 0.90134 0
M  V30 6148 N 580.711 6.86323 0.945118 0
M  V30 6149 N 582.504 5.54201 0.939043 0
M  V30 6150 H 574.655 2.01406 -0.674493 0
M  V30 6151 H 576.918 0.916828 -0.241103 0
M  V30 6152 H 576.624 3.50334 -0.309633 0
M  V30 6153 H 576.498 3.4861 1.44051 0
M  V30 6154 H 578.885 2.50206 1.56465 0
M  V30 6155 H 578.966 2.54999 -0.202262 0
M  V30 6156 H 578.61 5.07739 -0.12774 0
M  V30 6157 H 578.54 5.00058 1.65074 0
M  V30 6158 H 581.031 3.69452 0.794594 0
M  V30 6159 H 581.344 7.66194 1.0083 0
M  V30 6160 H 579.689 6.88968 0.913683 0
M  V30 6161 H 582.88 4.59333 0.901725 0
M  V30 6162 H 583.053 6.40247 0.999402 0
M  V30 6163 N 576.459 -0.456382 1.50847 0
M  V30 6164 C 577.422 -1.53493 1.70213 0
M  V30 6165 C 578.422 -1.50264 0.572481 0
M  V30 6166 O 579.612 -1.52623 0.839751 0
M  V30 6167 C 576.744 -2.93091 1.741 0
M  V30 6168 H 577.937 -1.37633 2.66453 0
M  V30 6169 H 575.49 -0.683776 1.4055 0
M  V30 6170 H 576.225 -3.14378 0.796063 0
M  V30 6171 H 576.01 -2.9684 2.5618 0
M  V30 6172 H 577.5 -3.71368 1.90987 0
M  V30 6173 N 577.937 -1.40673 -0.710563 0
M  V30 6174 C 578.867 -1.44095 -1.83736 0
M  V30 6175 C 579.848 -0.301286 -1.67411 0
M  V30 6176 O 581.033 -0.510618 -1.87367 0
M  V30 6177 C 578.163 -1.30773 -3.21738 0
M  V30 6178 C 577.117 -2.42395 -3.52745 0
M  V30 6179 C 576.443 -2.14147 -4.89944 0
M  V30 6180 C 577.743 -3.84738 -3.53234 0
M  V30 6181 H 579.437 -2.38396 -1.81129 0
M  V30 6182 H 576.983 -1.14746 -0.870017 0
M  V30 6183 H 578.936 -1.31783 -4.00264 0
M  V30 6184 H 577.66 -0.329507 -3.24934 0
M  V30 6185 H 576.319 -2.40643 -2.76562 0
M  V30 6186 H 575.967 -1.14703 -4.89747 0
M  V30 6187 H 575.667 -2.88934 -5.11655 0
M  V30 6188 H 577.191 -2.16848 -5.70797 0
M  V30 6189 H 578.605 -3.88286 -4.2179 0
M  V30 6190 H 577.002 -4.59085 -3.86473 0
M  V30 6191 H 578.072 -4.13962 -2.52514 0
M  V30 6192 N 579.415 0.9433 -1.26252 0
M  V30 6193 C 580.661 1.69175 -1.11837 0
M  V30 6194 C 580.994 1.91238 0.337891 0
M  V30 6195 O 580.269 1.49152 1.24836 0
M  V30 6196 C 580.552 3.06783 -1.88563 0
M  V30 6197 C 580.405 2.9206 -3.42083 0
M  V30 6198 C 581.724 4.06865 -1.67776 0
M  V30 6199 H 578.843 0.61399 -0.407658 0
M  V30 6200 H 581.485 1.09572 -1.55222 0
M  V30 6201 H 579.635 3.57663 -1.51689 0
M  V30 6202 H 581.307 2.48419 -3.88698 0
M  V30 6203 H 579.55 2.27731 -3.69217 0
M  V30 6204 H 580.221 3.89651 -3.90994 0
M  V30 6205 H 582.697 3.64939 -1.99897 0
M  V30 6206 H 581.573 5.01168 -2.23879 0
M  V30 6207 H 581.834 4.37705 -0.621816 0
M  V30 6208 N 580.893 1.08022 1.14757 0
M  V30 6209 C 581.803 0.718292 2.23333 0
M  V30 6210 C 582.819 -0.273477 1.71837 0
M  V30 6211 O 583.995 -0.118406 2.01052 0
M  V30 6212 C 581.06 0.128855 3.4646 0
M  V30 6213 C 580.121 1.17473 4.12915 0
M  V30 6214 C 579.354 0.61333 5.30164 0
M  V30 6215 O 579.577 -0.568458 5.6756 0
M  V30 6216 O 578.511 1.3615 5.86299 0
M  V30 6217 H 582.337 1.62394 2.56636 0
M  V30 6218 H 579.922 0.853628 1.22611 0
M  V30 6219 H 581.804 -0.197249 4.20938 0
M  V30 6220 H 580.479 -0.750014 3.14891 0
M  V30 6221 H 579.386 1.5533 3.40328 0
M  V30 6222 H 580.719 2.02574 4.48581 0
M  V30 6223 N 582.371 -1.3172 0.865308 0
M  V30 6224 C 583.787 -1.4958 0.556596 0
M  V30 6225 C 583.987 -1.79763 -0.910353 0
M  V30 6226 O 583.043 -1.87351 -1.6928 0
M  V30 6227 C 584.356 -2.63277 1.45279 0
M  V30 6228 C 585.904 -2.77161 1.45433 0
M  V30 6229 C 586.379 -3.93949 2.33598 0
M  V30 6230 N 587.87 -4.01228 2.31453 0
M  V30 6231 C 588.605 -4.90855 2.96393 0
M  V30 6232 N 588.101 -5.85416 3.70486 0
M  V30 6233 N 589.894 -4.84063 2.85726 0
M  V30 6234 H 582.045 -1.10396 1.81456 0
M  V30 6235 H 584.308 -0.54507 0.775631 0
M  V30 6236 H 584.014 -2.47734 2.49641 0
M  V30 6237 H 583.888 -3.59309 1.14792 0
M  V30 6238 H 586.275 -2.9212 0.41831 0
M  V30 6239 H 586.356 -1.8181 1.79941 0
M  V30 6240 H 586 -3.79748 3.37274 0
M  V30 6241 H 585.93 -4.88598 1.96417 0
M  V30 6242 H 588.421 -3.3357 1.77593 0
M  V30 6243 H 588.734 -6.50525 4.17178 0
M  V30 6244 H 587.079 -5.85409 3.74594 0
M  V30 6245 H 590.27 -4.09163 2.27384 0
M  V30 6246 H 590.443 -5.53708 3.36617 0
M  V30 6247 N 583.85 -0.624285 -1.44708 0
M  V30 6248 C 584.76 0.0861083 -2.34442 0
M  V30 6249 C 585.776 0.84291 -1.5222 0
M  V30 6250 O 586.952 0.796723 -1.84971 0
M  V30 6251 C 584.017 1.05999 -3.30099 0
M  V30 6252 C 583.077 0.303316 -4.28227 0
M  V30 6253 C 582.311 1.23081 -5.19314 0
M  V30 6254 O 582.534 2.46929 -5.14181 0
M  V30 6255 O 581.468 0.71883 -5.97592 0
M  V30 6256 H 585.293 -0.651756 -2.96624 0
M  V30 6257 H 582.879 -0.384493 -1.44368 0
M  V30 6258 H 584.76 1.62046 -3.88997 0
M  V30 6259 H 583.436 1.77859 -2.70459 0
M  V30 6260 H 582.343 -0.300033 -3.72895 0
M  V30 6261 H 583.676 -0.375123 -4.90768 0
M  V30 6262 N 585.328 1.53329 -0.364422 0
M  V30 6263 C 586.576 2.00842 0.225189 0
M  V30 6264 C 586.897 1.25345 1.49378 0
M  V30 6265 O 586.167 0.366396 1.92443 0
M  V30 6266 H 584.747 0.742009 0.0862027 0
M  V30 6267 H 587.409 1.8863 -0.490389 0
M  V30 6268 H 586.505 3.08795 0.452987 0
M  V30 6269 N 586.806 0.0935595 1.57322 0
M  V30 6270 C 587.756 -0.876521 2.10478 0
M  V30 6271 C 588.74 -1.24482 1.01946 0
M  V30 6272 O 589.932 -1.22016 1.28223 0
M  V30 6273 C 587.061 -2.13615 2.68745 0
M  V30 6274 C 586.147 -1.79335 3.84317 0
M  V30 6275 N 586.538 -1.15606 4.92411 0
M  V30 6276 C 584.836 -2.08954 3.94023 0
M  V30 6277 C 585.537 -0.999036 5.73057 0
M  V30 6278 N 584.513 -1.51585 5.22037 0
M  V30 6279 H 588.315 -0.379829 2.91435 0
M  V30 6280 H 585.829 -0.109699 1.62029 0
M  V30 6281 H 587.826 -2.84053 3.05155 0
M  V30 6282 H 586.486 -2.63851 1.89242 0
M  V30 6283 H 587.497 -0.823063 5.11318 0
M  V30 6284 H 584.174 -2.61416 3.25527 0
M  V30 6285 H 585.564 -0.500772 6.70031 0
M  V30 6286 N 588.284 -1.56567 -0.180126 0
M  V30 6287 C 589.532 -1.81133 -0.896392 0
M  V30 6288 C 589.853 -0.669114 -1.83161 0
M  V30 6289 O 589.123 0.311616 -1.93406 0
M  V30 6290 H 587.703 -0.668172 -0.333999 0
M  V30 6291 H 590.365 -1.94048 -0.182051 0
M  V30 6292 H 589.461 -2.74854 -1.47857 0
M  V30 6293 N 589.762 0.448376 -1.51087 0
M  V30 6294 C 590.725 1.52588 -1.71025 0
M  V30 6295 C 591.725 1.49958 -0.580442 0
M  V30 6296 O 592.915 1.52176 -0.847833 0
M  V30 6297 C 590.047 2.92163 -1.75652 0
M  V30 6298 H 591.24 1.36218 -2.67179 0
M  V30 6299 H 588.793 0.676313 -1.4091 0
M  V30 6300 H 589.528 3.13951 -0.812724 0
M  V30 6301 H 589.313 2.95478 -2.57751 0
M  V30 6302 H 590.803 3.70349 -1.92953 0
M  V30 6303 O 591.279 1.50177 0.59407 0
M  V30 6304 H 591.97 1.48064 1.24887 0
M  V30 END ATOM
M  V30 BEGIN BOND
M  V30 END BOND
M  V30 END CTAB
M  END
$$$$
