drugbank_target|P27914 Genome polyprotein (DB04473)
 OpenBabel12092119563D

  0  0  0     0  0            999 V3000
M  V30 BEGIN CTAB
M  V30 COUNTS 26420 26698 0 0 0
M  V30 BEGIN ATOM
M  V30 1 H -0.908 1.98254 -0.117106 0
M  V30 2 N 0 1.576 0 0
M  V30 3 C 0.933 2.03868 1.02534 0
M  V30 4 C 1.911 0.928543 1.3348 0
M  V30 5 O 3.095 1.19667 1.45644 0
M  V30 6 C 0.222 2.43627 2.35294 0
M  V30 7 C -0.732 3.65373 2.2001 0
M  V30 8 S 0.101 5.13292 1.52614 0
M  V30 9 C 1.257 5.56322 2.86805 0
M  V30 10 H 1.49 2.90518 0.631377 0
M  V30 11 H -0.977 1.52953 0.210867 0
M  V30 12 H 0.981 2.67203 3.11629 0
M  V30 13 H -0.358 1.57376 2.7183 0
M  V30 14 H -1.165 3.90944 3.18086 0
M  V30 15 H -1.563 3.418 1.51819 0
M  V30 16 H 0.729 5.58782 3.83104 0
M  V30 17 H 1.672 6.56266 2.65933 0
M  V30 18 H 2.08 4.83886 2.90714 0
M  V30 19 N 1.4781 -0.272755 1.55222 0
M  V30 20 C 2.8941 -0.619959 1.47067 0
M  V30 21 C 3.0941 -1.895 0.684978 0
M  V30 22 O 2.1501 -2.51675 0.203931 0
M  V30 23 C 3.4631 -0.746693 2.91282 0
M  V30 24 C 5.0111 -0.840731 3.01497 0
M  V30 25 C 5.4861 -0.99924 4.46967 0
M  V30 26 N 6.9771 -1.06476 4.50796 0
M  V30 27 C 7.7121 -1.20621 5.6057 0
M  V30 28 N 7.2081 -1.31483 6.80209 0
M  V30 29 N 9.0011 -1.23733 5.48312 0
M  V30 30 H 1.1521 0.564606 2.04758 0
M  V30 31 H 3.4151 0.191177 0.928523 0
M  V30 32 H 3.1211 0.119753 3.51496 0
M  V30 33 H 2.9951 -1.6269 3.40311 0
M  V30 34 H 5.3821 -1.69764 2.41379 0
M  V30 35 H 5.4631 0.0640874 2.5572 0
M  V30 36 H 5.1071 -0.146984 5.07687 0
M  V30 37 H 5.0371 -1.91871 4.90401 0
M  V30 38 H 7.5281 -0.993196 3.64615 0
M  V30 39 H 7.8411 -1.42111 7.59621 0
M  V30 40 H 6.1861 -1.28487 6.8302 0
M  V30 41 H 9.3771 -1.14877 4.53785 0
M  V30 42 H 9.5501 -1.34412 6.33906 0
M  V30 43 N 2.9562 -1.48159 -0.537278 0
M  V30 44 C 4.1962 -1.57397 -1.30405 0
M  V30 45 C 4.5602 -0.239202 -1.90504 0
M  V30 46 O 5.7612 -0.206528 -2.68005 0
M  V30 47 C 4.0322 -2.6754 -2.36974 0
M  V30 48 S 5.5912 -2.96496 -3.23475 0
M  V30 49 H 2.4092 -0.555577 -0.443684 0
M  V30 50 H 5.0112 -1.85644 -0.612912 0
M  V30 51 H 3.7152 -3.63092 -1.91291 0
M  V30 52 H 3.2462 -2.41172 -3.10805 0
M  V30 53 H 5.2612 -2.35234 -4.36897 0
M  V30 54 N 4.4343 0.785586 -1.36625 0
M  V30 55 C 5.6833 1.53883 -1.30396 0
M  V30 56 C 5.9963 1.95271 0.113452 0
M  V30 57 O 7.2023 2.69858 0.298142 0
M  V30 58 C 5.6583 2.77808 -2.28802 0
M  V30 59 C 5.2663 2.43574 -3.75999 0
M  V30 60 C 7.0103 3.55783 -2.31558 0
M  V30 61 C 4.9173 3.63919 -4.66173 0
M  V30 62 H 3.8473 0.577678 -0.484566 0
M  V30 63 H 6.4983 0.861705 -1.62009 0
M  V30 64 H 4.8803 3.47339 -1.90188 0
M  V30 65 H 6.0543 1.81916 -4.23371 0
M  V30 66 H 4.3693 1.78803 -3.76056 0
M  V30 67 H 6.9663 4.45205 -2.96137 0
M  V30 68 H 7.3093 3.94644 -1.3252 0
M  V30 69 H 7.8423 2.93235 -2.68809 0
M  V30 70 H 4.5813 3.3015 -5.66287 0
M  V30 71 H 4.1013 4.2473 -4.23515 0
M  V30 72 H 5.7803 4.30901 -4.82632 0
M  V30 73 N 5.9124 1.20967 1.01018 0
M  V30 74 C 7.1604 1.02172 1.74371 0
M  V30 75 C 7.4814 -0.446414 1.89821 0
M  V30 76 O 6.7514 -1.32234 1.44537 0
M  V30 77 H 5.3314 0.375066 0.646014 0
M  V30 78 H 7.9934 1.52187 1.21758 0
M  V30 79 H 7.0894 1.48538 2.74487 0
M  V30 80 N 7.3905 -1.2043 1.01659 0
M  V30 81 C 8.6395 -1.89118 0.701237 0
M  V30 82 C 8.9525 -1.79705 -0.772358 0
M  V30 83 O 10.1585 -2.43528 -1.20026 0
M  V30 84 C 8.6145 -3.39168 1.20388 0
M  V30 85 C 8.2225 -3.57166 2.70438 0
M  V30 86 C 9.9665 -4.1341 0.963953 0
M  V30 87 C 7.8735 -5.01042 3.14183 0
M  V30 88 H 6.8035 -0.708267 0.2586 0
M  V30 89 H 9.4545 -1.36239 1.22927 0
M  V30 90 H 7.8365 -3.91369 0.603824 0
M  V30 91 H 9.0105 -3.15351 3.35992 0
M  V30 92 H 7.3255 -2.96294 2.92572 0
M  V30 93 H 9.9225 -5.19491 1.26621 0
M  V30 94 H 10.2655 -4.16181 -0.099578 0
M  V30 95 H 10.7985 -3.67309 1.52738 0
M  V30 96 H 7.5375 -5.03426 4.19812 0
M  V30 97 H 7.0575 -5.43668 2.53348 0
M  V30 98 H 8.7365 -5.69623 3.0682 0
M  V30 99 N 8.8686 -0.792821 -1.36206 0
M  V30 100 C 10.0936 -0.377701 -2.03932 0
M  V30 101 C 10.5186 0.998947 -1.59382 0
M  V30 102 O 9.8766 1.64421 -0.763903 0
M  V30 103 C 9.9246 -0.453635 -3.57735 0
M  V30 104 O 9.0286 0.538151 -4.08874 0
M  V30 105 H 8.3696 -0.159855 -0.644471 0
M  V30 106 H 10.8996 -1.07488 -1.7409 0
M  V30 107 H 10.9096 -0.318464 -4.06755 0
M  V30 108 H 9.5846 -1.45784 -3.89512 0
M  V30 109 H 8.1616 0.364359 -3.71116 0
M  V30 110 N 10.3467 1.47872 -0.545128 0
M  V30 111 C 11.2947 2.31533 0.222512 0
M  V30 112 C 12.2887 1.42177 0.920985 0
M  V30 113 O 13.4947 1.59005 0.843645 0
M  V30 114 H 9.8697 0.746519 0.0906278 0
M  V30 115 H 11.8407 2.94139 -0.50246 0
M  V30 116 C 10.5897 3.2457 1.24699 0
M  V30 117 H 9.9127 3.93283 0.718944 0
M  V30 118 H 11.3527 3.85963 1.75523 0
M  V30 119 C 9.8117 2.47237 2.28856 0
M  V30 120 O 10.3417 2.20808 3.35569 0
M  V30 121 N 8.5477 2.08461 2.02466 0
M  V30 122 H 8.0947 2.30155 1.157 0
M  V30 123 H 8.0527 1.57033 2.72375 0
M  V30 124 N 11.8248 0.280983 1.55075 0
M  V30 125 C 13.2408 -0.0729964 1.59433 0
M  V30 126 C 13.4408 -1.5411 1.29817 0
M  V30 127 O 12.4968 -2.29086 1.06187 0
M  V30 128 C 13.8098 0.306921 2.9913 0
M  V30 129 C 15.3578 0.254023 3.11968 0
M  V30 130 C 15.8328 0.608467 4.5394 0
M  V30 131 N 17.3238 0.560241 4.59799 0
M  V30 132 C 18.0588 0.80722 5.6769 0
M  V30 133 N 17.5548 1.11912 6.83701 0
M  V30 134 N 19.3478 0.735623 5.57266 0
M  V30 135 H 11.4988 1.238 1.7259 0
M  V30 136 H 13.7618 0.500547 0.805082 0
M  V30 137 H 13.4678 1.32816 3.25657 0
M  V30 138 H 13.3418 -0.349363 3.75579 0
M  V30 139 H 15.7288 -0.75794 2.852 0
M  V30 140 H 15.8098 0.944649 2.37718 0
M  V30 141 H 15.4538 1.61814 4.81434 0
M  V30 142 H 15.3838 -0.104013 5.26497 0
M  V30 143 H 17.8748 0.329288 3.76463 0
M  V30 144 H 18.1878 1.29409 7.61888 0
M  V30 145 H 16.5328 1.15695 6.85303 0
M  V30 146 H 19.7238 0.491752 4.6551 0
M  V30 147 H 19.8968 0.931482 6.4127 0
M  V30 148 N 13.3029 -1.57598 0.00835791 0
M  V30 149 C 14.5799 -1.82172 -0.712235 0
M  V30 150 C 14.9599 -0.887873 -1.9152 0
M  V30 151 O 14.3079 0.06146 -2.28417 0
M  V30 152 C 14.5179 -3.30875 -1.11008 0
M  V30 153 C 15.8659 -3.96826 -1.51044 0
M  V30 154 O 16.8899 -3.35248 -1.20364 0
M  V30 155 O 15.7489 -5.05318 -2.08125 0
M  V30 156 H 12.8429 -0.750435 -0.347529 0
M  V30 157 H 15.3889 -1.69665 0.0344523 0
M  V30 158 H 14.1609 -3.90481 -0.252982 0
M  V30 159 H 13.7839 -3.48412 -1.9156 0
M  V30 160 N 14.781 0.264519 -1.55364 0
M  V30 161 C 16.028 0.994986 -1.7637 0
M  V30 162 C 16.356 1.85976 -0.5695 0
M  V30 163 O 15.611 1.90509 0.44776 0
M  V30 164 C 15.91 1.9004 -3.02687 0
M  V30 165 C 15.576 1.19243 -4.34847 0
M  V30 166 C 14.238 0.996709 -4.70764 0
M  V30 167 C 16.59 0.689296 -5.16622 0
M  V30 168 C 13.918 0.285261 -5.86006 0
M  V30 169 C 16.27 -0.00860079 -6.32599 0
M  V30 170 C 14.934 -0.215963 -6.67151 0
M  V30 171 H 14.204 0.364091 -0.645383 0
M  V30 172 H 16.851 0.266543 -1.89636 0
M  V30 173 H 15.156 2.69533 -2.84357 0
M  V30 174 H 16.853 2.46695 -3.16137 0
M  V30 175 H 13.443 1.3549 -4.06621 0
M  V30 176 H 17.627 0.828108 -4.89342 0
M  V30 177 H 12.883 0.113961 -6.11294 0
M  V30 178 H 17.057 -0.406186 -6.95214 0
M  V30 179 H 14.684 -0.769217 -7.56298 0
M  V30 180 N 16.2591 1.48442 0.529413 0
M  V30 181 C 17.5051 1.5672 1.28711 0
M  V30 182 C 17.8381 0.2406 1.92704 0
M  V30 183 O 17.1131 -0.753454 1.79313 0
M  V30 184 C 17.3961 2.70587 2.37603 0
M  V30 185 C 17.2491 4.12953 1.78297 0
M  V30 186 C 18.5681 2.80212 3.39366 0
M  V30 187 H 15.6871 0.570474 0.466613 0
M  V30 188 H 18.3291 1.80617 0.589706 0
M  V30 189 H 16.4791 2.50342 2.97088 0
M  V30 190 H 18.1511 4.44639 1.22858 0
M  V30 191 H 16.3941 4.19927 1.0883 0
M  V30 192 H 17.0651 4.88448 2.57144 0
M  V30 193 H 19.5411 2.98553 2.89836 0
M  V30 194 H 18.4171 3.61611 4.12951 0
M  V30 195 H 18.6781 1.88393 3.99951 0
M  V30 196 N 17.7372 -0.778329 1.37039 0
M  V30 197 C 18.6472 -1.92253 1.34446 0
M  V30 198 C 19.6632 -1.72267 0.244991 0
M  V30 199 O 20.8392 -1.95615 0.479258 0
M  V30 200 C 17.9042 -3.27282 1.144 0
M  V30 201 C 16.9652 -3.59969 2.33925 0
M  V30 202 C 16.1982 -4.88555 2.14825 0
M  V30 203 O 16.4212 -5.59113 1.12912 0
M  V30 204 O 15.3552 -5.20153 3.02861 0
M  V30 205 H 19.1812 -1.97392 2.30803 0
M  V30 206 H 16.7662 -0.920154 1.17701 0
M  V30 207 H 18.6482 -4.08062 1.05182 0
M  V30 208 H 17.3232 -3.23011 0.211124 0
M  V30 209 H 16.2302 -2.7945 2.48714 0
M  V30 210 H 17.5632 -3.68976 3.25757 0
M  V30 211 N 19.2153 -1.21501 -1.00376 0
M  V30 212 C 20.4633 -1.03095 -1.73827 0
M  V30 213 C 20.7843 0.436341 -1.90055 0
M  V30 214 O 20.0543 1.31466 -1.45236 0
M  V30 215 H 18.6343 -0.378487 -0.644016 0
M  V30 216 H 21.2963 -1.52831 -1.20949 0
M  V30 217 H 20.3923 -1.49991 -2.73695 0
M  V30 218 N 20.6934 1.19889 -1.02296 0
M  V30 219 C 21.9394 1.89701 -0.717033 0
M  V30 220 C 22.2724 1.7905 0.751989 0
M  V30 221 O 21.5474 1.17891 1.547 0
M  V30 222 C 21.8304 3.40858 -1.16136 0
M  V30 223 C 21.6834 3.60411 -2.69117 0
M  V30 224 C 23.0024 4.33876 -0.737549 0
M  V30 225 H 20.1214 0.688874 -0.261957 0
M  V30 226 H 22.7634 1.41154 -1.27183 0
M  V30 227 H 20.9134 3.82335 -0.689342 0
M  V30 228 H 22.5854 3.28145 -3.2422 0
M  V30 229 H 20.8284 3.03665 -3.0979 0
M  V30 230 H 21.4994 4.66396 -2.95261 0
M  V30 231 H 23.9754 4.00081 -1.14344 0
M  V30 232 H 22.8514 5.38242 -1.0764 0
M  V30 233 H 23.1124 4.40628 0.360436 0
M  V30 234 N 22.1715 0.800033 1.35784 0
M  V30 235 C 23.3965 0.388511 2.03729 0
M  V30 236 C 23.8215 -0.990481 1.5991 0
M  V30 237 O 23.1795 -1.64013 0.772612 0
M  V30 238 C 23.2275 0.4726 3.5749 0
M  V30 239 O 22.3315 -0.51646 4.09153 0
M  V30 240 H 21.6725 0.163271 0.643614 0
M  V30 241 H 24.2025 1.0841 1.73518 0
M  V30 242 H 24.2125 0.34003 4.06581 0
M  V30 243 H 22.8875 1.47848 3.88734 0
M  V30 244 H 21.4645 -0.344673 3.71304 0
M  V30 245 N 23.6496 -1.47581 0.552962 0
M  V30 246 C 24.8976 -2.02082 0.0272703 0
M  V30 247 C 25.2186 -1.4301 -1.32563 0
M  V30 248 O 24.4886 -0.603745 -1.86365 0
M  V30 249 H 23.0686 -0.746966 0.00709182 0
M  V30 250 H 25.7306 -1.81033 0.722008 0
M  V30 251 H 24.8266 -3.12034 -0.0639951 0
M  V30 252 N 25.1277 -0.289203 -1.54924 0
M  V30 253 C 26.3757 0.322879 -1.99504 0
M  V30 254 C 26.6967 1.55313 -1.1791 0
M  V30 255 O 25.9667 1.94001 -0.272097 0
M  V30 256 H 24.5467 0.122291 -0.736922 0
M  V30 257 H 27.2087 -0.397802 -1.90797 0
M  V30 258 H 26.3047 0.603061 -3.06218 0
M  V30 259 N 26.6058 1.57591 -0.0167156 0
M  V30 260 C 27.8308 1.9598 0.67872 0
M  V30 261 C 28.2558 0.892546 1.65575 0
M  V30 262 O 27.6138 -0.147772 1.80697 0
M  V30 263 C 27.6618 3.33468 1.37227 0
M  V30 264 O 26.7658 3.28954 2.48722 0
M  V30 265 H 26.1068 0.639339 0.17928 0
M  V30 266 H 28.6368 2.04463 -0.0748802 0
M  V30 267 H 28.6468 3.69417 1.7319 0
M  V30 268 H 27.3218 4.10694 0.656007 0
M  V30 269 H 25.8988 3.04705 2.14963 0
M  V30 270 N 28.0839 -0.256276 1.55502 0
M  V30 271 C 29.3299 -0.982884 1.78076 0
M  V30 272 C 29.6849 -1.83319 0.584109 0
M  V30 273 O 28.9779 -1.86875 -0.422877 0
M  V30 274 C 29.1719 -1.88432 3.03691 0
M  V30 275 C 29.0009 -1.12276 4.35459 0
M  V30 276 C 27.7709 -0.831647 4.98409 0
M  V30 277 C 29.9689 -0.504933 5.11815 0
M  V30 278 N 27.9509 -0.0450423 6.13883 0
M  V30 279 C 29.3219 0.146696 6.19826 0
M  V30 280 C 31.3769 -0.414455 4.96172 0
M  V30 281 C 30.0799 0.880103 7.13895 0
M  V30 282 C 32.1059 0.305398 5.90611 0
M  V30 283 C 31.4679 0.945701 6.98023 0
M  V30 284 H 27.5669 -0.341084 0.703694 0
M  V30 285 H 30.1509 -0.256909 1.92998 0
M  V30 286 H 28.3219 -2.58241 2.90114 0
M  V30 287 H 30.0539 -2.54579 3.14598 0
M  V30 288 H 26.8089 -1.14111 4.59647 0
M  V30 289 H 27.2329 0.336079 6.76165 0
M  V30 290 H 31.8749 -0.895163 4.13215 0
M  V30 291 H 29.5929 1.37244 7.9636 0
M  V30 292 H 33.1789 0.375946 5.80584 0
M  V30 293 H 32.0589 1.49383 7.6984 0
M  V30 294 N 29.562 -1.4872 -0.521534 0
M  V30 295 C 30.808 -1.574 -1.27879 0
M  V30 296 C 31.141 -0.250817 -1.92573 0
M  V30 297 O 30.416 0.743934 -1.79711 0
M  V30 298 C 30.699 -2.71843 -2.36164 0
M  V30 299 C 30.552 -4.13893 -1.76105 0
M  V30 300 C 31.871 -2.82008 -3.37875 0
M  V30 301 H 28.99 -0.572941 -0.463581 0
M  V30 302 H 31.632 -1.80927 -0.580119 0
M  V30 303 H 29.782 -2.51914 -2.95756 0
M  V30 304 H 31.454 -4.45284 -1.20499 0
M  V30 305 H 29.697 -4.20498 -1.06601 0
M  V30 306 H 30.368 -4.89804 -2.5455 0
M  V30 307 H 32.844 -3.00086 -2.88249 0
M  V30 308 H 31.72 -3.63796 -4.11028 0
M  V30 309 H 31.981 -1.90511 -3.98946 0
M  V30 310 N 31.0401 0.771051 -1.3745 0
M  V30 311 C 32.3171 1.519 -1.23231 0
M  V30 312 C 32.6971 2.10383 0.173809 0
M  V30 313 O 32.0451 1.95583 1.18151 0
M  V30 314 C 32.2551 2.59933 -2.32886 0
M  V30 315 C 33.6031 3.27316 -2.70461 0
M  V30 316 O 34.6271 2.70228 -2.32068 0
M  V30 317 O 33.4861 4.30531 -3.36608 0
M  V30 318 H 30.5801 0.672803 -0.480901 0
M  V30 319 H 33.1261 0.807957 -1.49232 0
M  V30 320 H 31.8981 2.14842 -3.27045 0
M  V30 321 H 31.5211 3.38637 -2.08353 0
M  V30 322 N 32.5182 1.22032 0.997298 0
M  V30 323 C 33.7672 1.03637 1.73038 0
M  V30 324 C 34.0802 -0.429475 1.90827 0
M  V30 325 O 35.2862 -0.732995 2.61418 0
M  V30 326 C 33.7422 1.80582 3.11317 0
M  V30 327 C 33.3502 3.31387 3.01474 0
M  V30 328 C 35.0942 1.70621 3.88701 0
M  V30 329 C 33.0012 4.00791 4.3488 0
M  V30 330 H 31.9312 0.384179 0.648785 0
M  V30 331 H 34.5822 1.4584 1.11368 0
M  V30 332 H 32.9642 1.31175 3.73643 0
M  V30 333 H 34.1382 3.88155 2.4834 0
M  V30 334 H 32.4532 3.41976 2.37575 0
M  V30 335 H 35.0502 2.19799 4.87434 0
M  V30 336 H 35.3932 0.665823 4.10941 0
M  V30 337 H 35.9262 2.17547 3.33044 0
M  V30 338 H 32.6652 5.05064 4.1784 0
M  V30 339 H 32.1852 3.48811 4.87945 0
M  V30 340 H 33.8642 4.06139 5.03647 0
M  V30 341 N 33.9963 -1.19345 1.0293 0
M  V30 342 C 35.2423 -1.89318 0.727083 0
M  V30 343 C 35.5753 -1.79446 -0.742483 0
M  V30 344 O 34.8503 -1.1871 -1.54072 0
M  V30 345 C 35.1333 -3.40238 1.17942 0
M  V30 346 C 34.9863 -3.58979 2.71024 0
M  V30 347 C 36.3053 -4.33479 0.760548 0
M  V30 348 H 33.4243 -0.687475 0.265606 0
M  V30 349 H 36.0663 -1.40477 1.2793 0
M  V30 350 H 34.2163 -3.81964 0.709608 0
M  V30 351 H 35.8883 -3.26421 3.25955 0
M  V30 352 H 34.1313 -3.02018 3.11396 0
M  V30 353 H 34.8023 -4.64823 2.9773 0
M  V30 354 H 37.2783 -3.99469 1.16464 0
M  V30 355 H 36.1543 -5.37664 1.10493 0
M  V30 356 H 36.4153 -4.40813 -0.337063 0
M  V30 357 N 35.4744 -0.807222 -1.35358 0
M  V30 358 C 36.4044 -0.232509 -2.3234 0
M  V30 359 C 37.3854 0.642386 -1.57504 0
M  V30 360 O 38.5704 0.572526 -1.85569 0
M  V30 361 C 35.7004 0.619238 -3.41735 0
M  V30 362 C 34.6544 -0.157215 -4.27711 0
M  V30 363 C 33.9804 0.816273 -5.28433 0
M  V30 364 C 35.2804 -1.35656 -5.04376 0
M  V30 365 H 36.9744 -1.04276 -2.80654 0
M  V30 366 H 34.5204 -0.50288 -1.34934 0
M  V30 367 H 36.4734 1.03137 -4.08584 0
M  V30 368 H 35.1974 1.46239 -2.92031 0
M  V30 369 H 33.8564 -0.550525 -3.62443 0
M  V30 370 H 33.5044 1.65494 -4.74996 0
M  V30 371 H 33.2044 0.301067 -5.86828 0
M  V30 372 H 34.7284 1.22659 -5.98153 0
M  V30 373 H 36.1424 -1.01927 -5.64166 0
M  V30 374 H 34.5394 -1.8063 -5.7227 0
M  V30 375 H 35.6094 -2.14288 -4.34981 0
M  V30 376 N 36.9525 1.47285 -0.560781 0
M  V30 377 C 37.8625 2.33846 0.187954 0
M  V30 378 C 38.8785 1.48412 0.908293 0
M  V30 379 O 40.0545 1.81332 0.876388 0
M  V30 380 C 37.1195 3.25178 1.2025 0
M  V30 381 C 36.1805 4.26504 0.489208 0
M  V30 382 C 35.4135 5.13472 1.45542 0
M  V30 383 O 35.6365 5.02959 2.6905 0
M  V30 384 O 34.5705 5.93902 0.977963 0
M  V30 385 H 38.3965 2.99177 -0.522177 0
M  V30 386 H 35.9815 1.45903 -0.321364 0
M  V30 387 H 37.8635 3.81584 1.78805 0
M  V30 388 H 36.5385 2.6247 1.89449 0
M  V30 389 H 35.4455 3.73847 -0.137627 0
M  V30 390 H 36.7785 4.91935 -0.161399 0
M  V30 391 N 38.4306 0.297415 1.54768 0
M  V30 392 C 39.3806 -0.595275 2.20092 0
M  V30 393 C 40.3646 -1.10163 1.17273 0
M  V30 394 O 41.5566 -1.043 1.43006 0
M  V30 395 C 38.6856 -1.7684 2.94249 0
M  V30 396 C 37.7716 -1.27818 4.0438 0
M  V30 397 N 38.1626 -0.505695 5.03266 0
M  V30 398 C 36.4606 -1.55923 4.17857 0
M  V30 399 C 37.1616 -0.245094 5.81183 0
M  V30 400 N 36.1376 -0.823881 5.3732 0
M  V30 401 H 39.9396 0.00250837 2.939 0
M  V30 402 H 37.4536 0.102007 1.62079 0
M  V30 403 H 39.4506 -2.41944 3.39513 0
M  V30 404 H 38.1106 -2.36992 2.21957 0
M  V30 405 H 39.1216 -0.150928 5.1768 0
M  V30 406 H 35.7986 -2.16849 3.56767 0
M  V30 407 H 37.1886 0.375084 6.70852 0
M  V30 408 N 39.9087 -1.5758 0.0250728 0
M  V30 409 C 41.1567 -1.91255 -0.653151 0
M  V30 410 C 41.4777 -0.901691 -1.729 0
M  V30 411 O 40.7477 0.0573785 -1.95816 0
M  V30 412 H 39.3277 -0.705942 -0.244243 0
M  V30 413 H 41.9897 -1.94767 0.0719209 0
M  V30 414 H 41.0857 -2.91752 -1.10847 0
M  V30 415 N 41.3868 0.248026 -1.55636 0
M  V30 416 C 42.6118 0.998028 -1.81808 0
M  V30 417 C 43.0368 1.78207 -0.601979 0
M  V30 418 O 42.3948 1.75653 0.448961 0
M  V30 419 C 42.4428 1.9125 -3.05705 0
M  V30 420 O 41.5468 3.00406 -2.82542 0
M  V30 421 H 40.8878 0.284045 -0.600179 0
M  V30 422 H 43.4178 0.269357 -2.02819 0
M  V30 423 H 43.4278 2.32737 -3.35108 0
M  V30 424 H 42.1028 1.33602 -3.93857 0
M  V30 425 H 40.6798 2.63056 -2.64303 0
M  V30 426 N 42.8649 1.48995 0.513639 0
M  V30 427 C 44.1049 1.59452 1.27885 0
M  V30 428 C 44.4689 0.269479 1.90099 0
M  V30 429 O 45.6699 0.249139 2.67643 0
M  V30 430 C 43.9409 2.71277 2.32688 0
M  V30 431 S 45.4999 3.01604 3.18717 0
M  V30 432 H 42.3179 0.562565 0.434789 0
M  V30 433 H 44.9199 1.86595 0.583301 0
M  V30 434 H 43.6239 3.66089 1.8549 0
M  V30 435 H 43.1549 2.46086 3.06929 0
M  V30 436 H 45.1699 2.42155 4.331 0
M  V30 437 N 44.343 -0.763751 1.37857 0
M  V30 438 C 45.589 -1.52483 1.33704 0
M  V30 439 C 45.922 -1.94051 -0.0759612 0
M  V30 440 O 45.197 -1.64675 -1.03501 0
M  V30 441 C 45.48 -2.78441 2.28348 0
M  V30 442 C 45.333 -2.43075 3.78463 0
M  V30 443 C 46.652 -3.80415 2.21298 0
M  V30 444 H 43.771 -0.553169 0.487005 0
M  V30 445 H 46.413 -0.875562 1.68624 0
M  V30 446 H 44.563 -3.33842 1.987 0
M  V30 447 H 46.235 -1.93527 4.18742 0
M  V30 448 H 44.478 -1.75666 3.96641 0
M  V30 449 H 45.149 -3.33149 4.40132 0
M  V30 450 H 47.625 -3.34527 2.47449 0
M  V30 451 H 46.501 -4.66257 2.89647 0
M  V30 452 H 46.762 -4.25262 1.20849 0
M  V30 453 N 45.8211 -1.22559 -0.990812 0
M  V30 454 C 47.0491 -1.07779 -1.76611 0
M  V30 455 C 47.4641 0.371513 -1.85109 0
M  V30 456 O 46.8211 1.25737 -1.32274 0
M  V30 457 C 46.8721 -1.68512 -3.19822 0
M  V30 458 O 46.5931 -3.07774 -3.1178 0
M  V30 459 C 48.0941 -1.59035 -4.13791 0
M  V30 460 H 45.3141 -0.377729 -0.554583 0
M  V30 461 H 47.8581 -1.62195 -1.24551 0
M  V30 462 H 46.0131 -1.18154 -3.68942 0
M  V30 463 H 46.4271 -3.37062 -4.01858 0
M  V30 464 H 47.9011 -2.0625 -5.1202 0
M  V30 465 H 48.3781 -0.547273 -4.35777 0
M  V30 466 H 48.9841 -2.08709 -3.70568 0
M  V30 467 N 47.2992 1.18797 -1.03562 0
M  V30 468 C 48.5272 1.92599 -0.755869 0
M  V30 469 C 48.9422 1.75886 0.686271 0
M  V30 470 O 48.2992 1.08517 1.46732 0
M  V30 471 C 48.3502 3.44159 -1.10619 0
M  V30 472 O 48.0712 3.60341 -2.4917 0
M  V30 473 C 49.5722 4.3507 -0.850214 0
M  V30 474 H 46.7922 0.611587 -0.276048 0
M  V30 475 H 49.3362 1.50742 -1.38192 0
M  V30 476 H 47.4912 3.83823 -0.525194 0
M  V30 477 H 47.9052 4.54128 -2.62427 0
M  V30 478 H 49.3792 5.39989 -1.14523 0
M  V30 479 H 49.8562 4.38673 0.215176 0
M  V30 480 H 50.4622 4.01097 -1.41426 0
M  V30 481 N 48.7773 0.814389 1.34928 0
M  V30 482 C 49.7103 0.175641 2.27523 0
M  V30 483 C 50.6883 -0.662953 1.48471 0
M  V30 484 O 51.8723 -0.628545 1.77712 0
M  V30 485 C 48.9993 -0.755516 3.30166 0
M  V30 486 C 48.0453 0.00445305 4.265 0
M  V30 487 S 48.8783 1.34582 5.18313 0
M  V30 488 C 50.0343 0.419315 6.24494 0
M  V30 489 H 50.2673 0.960691 2.8135 0
M  V30 490 H 47.8003 0.609846 1.41846 0
M  V30 491 H 49.7583 -1.28723 3.89796 0
M  V30 492 H 48.4193 -1.51402 2.75202 0
M  V30 493 H 47.6123 -0.703077 4.99072 0
M  V30 494 H 47.2143 0.466447 3.7108 0
M  V30 495 H 49.5063 -0.392432 6.76362 0
M  V30 496 H 50.4493 1.11446 6.99275 0
M  V30 497 H 50.8573 0.0115389 5.64499 0
M  V30 498 N 50.2554 -1.46986 0.568584 0
M  V30 499 C 51.2184 -2.28624 -0.162366 0
M  V30 500 C 52.2184 -1.37596 -0.832103 0
M  V30 501 O 53.4084 -1.60115 -0.68622 0
M  V30 502 C 50.5404 -3.17596 -1.23878 0
M  V30 503 H 51.7334 -2.94722 0.554899 0
M  V30 504 H 49.2864 -1.52863 0.325976 0
M  V30 505 H 50.0214 -2.56214 -1.98808 0
M  V30 506 H 49.8064 -3.846 -0.763219 0
M  V30 507 H 51.2964 -3.79078 -1.75185 0
M  V30 508 N 51.7335 -0.305618 -1.54608 0
M  V30 509 C 52.6805 0.568421 -2.23691 0
M  V30 510 C 53.6505 1.12592 -1.22116 0
M  V30 511 O 54.8355 1.16959 -1.50749 0
M  V30 512 C 51.9755 1.7322 -2.98477 0
M  V30 513 C 51.0885 1.20566 -4.14835 0
M  V30 514 C 50.2235 2.33368 -4.77193 0
M  V30 515 C 49.2625 1.7787 -5.85686 0
M  V30 516 N 48.3995 2.84263 -6.4198 0
M  V30 517 H 53.2395 -0.0272867 -2.97988 0
M  V30 518 H 50.7765 -0.0252363 -1.47078 0
M  V30 519 H 52.7345 2.41675 -3.40072 0
M  V30 520 H 51.3645 2.29947 -2.26548 0
M  V30 521 H 50.4165 0.413223 -3.78149 0
M  V30 522 H 51.7285 0.759417 -4.92985 0
M  V30 523 H 50.8825 3.09761 -5.21664 0
M  V30 524 H 49.6215 2.8132 -3.98385 0
M  V30 525 H 48.6265 0.99968 -5.40635 0
M  V30 526 H 49.8515 1.30816 -6.66381 0
M  V30 527 H 47.7975 3.31541 -5.66053 0
M  V30 528 H 47.7145 2.44149 -7.15491 0
M  V30 529 H 48.9825 3.6054 -6.91109 0
M  V30 530 N 53.2116 1.57565 -0.0334293 0
M  V30 531 C 54.1596 2.1164 0.96496 0
M  V30 532 C 55.1536 1.04398 1.33407 0
M  V30 533 O 56.3596 1.22828 1.3158 0
M  V30 534 H 52.7346 0.676222 0.32898 0
M  V30 535 H 54.7056 2.94455 0.483614 0
M  V30 536 C 53.4546 2.66207 2.23672 0
M  V30 537 H 52.7776 3.48378 1.96145 0
M  V30 538 H 54.2176 3.07685 2.9173 0
M  V30 539 C 52.6766 1.59151 2.96939 0
M  V30 540 O 53.2066 0.993858 3.89211 0
M  V30 541 N 51.4126 1.31093 2.59351 0
M  V30 542 H 50.9596 1.7988 1.84393 0
M  V30 543 H 50.9176 0.596889 3.08682 0
M  V30 544 N 54.6897 -0.239769 1.55765 0
M  V30 545 C 55.6367 -1.29696 1.90913 0
M  V30 546 C 56.6067 -1.47478 0.764164 0
M  V30 547 O 57.7917 -1.61345 1.01845 0
M  V30 548 C 54.9317 -2.64598 2.21544 0
M  V30 549 C 54.0447 -2.54765 3.48882 0
M  V30 550 C 53.1797 -3.82069 3.69049 0
M  V30 551 C 52.2187 -3.66883 4.89963 0
M  V30 552 N 51.3557 -4.86094 5.06614 0
M  V30 553 H 56.1957 -0.990224 2.81067 0
M  V30 554 H 53.7327 -0.477684 1.39128 0
M  V30 555 H 55.6907 -3.43132 2.3731 0
M  V30 556 H 54.3207 -2.93405 1.34585 0
M  V30 557 H 53.3727 -1.67763 3.41409 0
M  V30 558 H 54.6847 -2.39457 4.37563 0
M  V30 559 H 53.8387 -4.69046 3.84812 0
M  V30 560 H 52.5777 -4.00282 2.78614 0
M  V30 561 H 51.5827 -2.78289 4.74168 0
M  V30 562 H 52.8077 -3.50157 5.81865 0
M  V30 563 H 50.7537 -5.04655 4.19117 0
M  V30 564 H 50.6707 -4.73443 5.89396 0
M  V30 565 H 51.9387 -5.74549 5.26795 0
M  V30 566 N 56.1678 -1.49265 -0.50573 0
M  V30 567 C 57.5788 -1.51769 -1.08734 0
M  V30 568 C 57.9298 -0.301192 -1.93874 0
M  V30 569 O 57.0548 0.589456 -2.08217 0
M  V30 570 C 57.6498 -2.75017 -1.97867 0
M  V30 571 C 56.2088 -2.80314 -2.51199 0
M  V30 572 C 55.3558 -2.4562 -1.28709 0
M  V30 573 H 58.3068 -1.56031 -0.289855 0
M  V30 574 H 58.3278 -2.5491 -2.82491 0
M  V30 575 H 57.8398 -3.63539 -1.35873 0
M  V30 576 H 55.9408 -1.96061 -3.16845 0
M  V30 577 H 56.0538 -3.82366 -2.88675 0
M  V30 578 H 54.4178 -1.97297 -1.61078 0
M  V30 579 H 55.2008 -3.36411 -0.6843 0
M  V30 580 N 57.6459 0.756429 -1.3826 0
M  V30 581 C 58.8739 1.54565 -1.3754 0
M  V30 582 C 59.2889 1.88767 0.0355331 0
M  V30 583 O 58.6459 1.52572 1.0014 0
M  V30 584 C 58.6969 2.84654 -2.22833 0
M  V30 585 O 58.4179 2.51912 -3.5843 0
M  V30 586 C 59.9189 3.78807 -2.30261 0
M  V30 587 H 57.1389 0.478353 -0.470553 0
M  V30 588 H 59.6829 0.936381 -1.81803 0
M  V30 589 H 57.8379 3.41965 -1.8204 0
M  V30 590 H 58.2519 3.35325 -4.03308 0
M  V30 591 H 59.7259 4.67045 -2.94233 0
M  V30 592 H 60.2029 4.19038 -1.31545 0
M  V30 593 H 60.8089 3.2742 -2.71433 0
M  V30 594 N 59.124 1.23083 0.984299 0
M  V30 595 C 60.054 1.03292 2.09411 0
M  V30 596 C 61.035 -0.048923 1.7003 0
M  V30 597 O 62.22 0.114967 1.93859 0
M  V30 598 C 59.35 0.619155 3.41736 0
M  V30 599 C 58.304 1.64791 3.95004 0
M  V30 600 C 57.63 1.0897 5.23478 0
M  V30 601 C 58.93 3.03999 4.24714 0
M  V30 602 H 60.624 1.96119 2.26225 0
M  V30 603 H 58.17 0.944344 1.08711 0
M  V30 604 H 60.123 0.467777 4.18796 0
M  V30 605 H 58.847 -0.344786 3.24775 0
M  V30 606 H 57.506 1.78721 3.20085 0
M  V30 607 H 57.154 0.11686 5.02864 0
M  V30 608 H 56.854 1.77704 5.60085 0
M  V30 609 H 58.378 0.950093 6.03163 0
M  V30 610 H 59.792 2.93393 4.92538 0
M  V30 611 H 58.189 3.69936 4.72512 0
M  V30 612 H 59.259 3.53285 3.32142 0
M  V30 613 N 60.6021 -1.18246 1.0419 0
M  V30 614 C 61.8791 -1.84121 0.660208 0
M  V30 615 C 62.2591 -1.92778 -0.860221 0
M  V30 616 O 61.6071 -1.45464 -1.76217 0
M  V30 617 C 61.8171 -3.22355 1.33747 0
M  V30 618 C 63.1651 -3.98376 1.46906 0
M  V30 619 O 64.1891 -3.31799 1.29568 0
M  V30 620 O 63.0481 -5.17665 1.75171 0
M  V30 621 H 60.1421 -0.794036 0.231161 0
M  V30 622 H 62.6881 -1.25628 1.14087 0
M  V30 623 H 61.4601 -3.10964 2.37522 0
M  V30 624 H 61.0831 -3.88506 0.845515 0
M  V30 625 N 62.0802 -0.821533 -1.34494 0
M  V30 626 C 63.3272 -0.408946 -1.98328 0
M  V30 627 C 63.6552 1.02764 -1.65136 0
M  V30 628 O 62.9102 1.73026 -0.914349 0
M  V30 629 C 63.2092 -0.556512 -3.53041 0
M  V30 630 C 62.8752 -1.95861 -4.0614 0
M  V30 631 C 61.5372 -2.34217 -4.20352 0
M  V30 632 C 63.8892 -2.87523 -4.34718 0
M  V30 633 C 61.2172 -3.63572 -4.6047 0
M  V30 634 C 63.5692 -4.1634 -4.76281 0
M  V30 635 C 62.2332 -4.54675 -4.88699 0
M  V30 636 H 61.5032 -0.149644 -0.725732 0
M  V30 637 H 64.1502 -1.04521 -1.6046 0
M  V30 638 H 62.4552 0.163148 -3.9146 0
M  V30 639 H 64.1522 -0.217826 -4.00408 0
M  V30 640 H 60.7422 -1.65066 -3.95539 0
M  V30 641 H 64.9262 -2.59133 -4.23277 0
M  V30 642 H 60.1822 -3.93101 -4.68275 0
M  V30 643 H 64.3562 -4.87455 -4.97354 0
M  V30 644 H 61.9832 -5.54959 -5.19542 0
M  V30 645 N 63.5583 1.46682 -0.576371 0
M  V30 646 C 64.4683 2.34032 0.163141 0
M  V30 647 C 65.4843 1.49367 0.892501 0
M  V30 648 O 66.6603 1.82252 0.857106 0
M  V30 649 C 63.7253 3.26435 1.16795 0
M  V30 650 C 62.7863 4.26998 0.443944 0
M  V30 651 C 62.0193 5.14986 1.40088 0
M  V30 652 O 62.2423 5.05785 2.637 0
M  V30 653 O 61.1763 5.94906 0.914917 0
M  V30 654 H 65.0023 2.98607 -0.55388 0
M  V30 655 H 62.5873 1.45554 -0.336821 0
M  V30 656 H 64.4693 3.83459 1.74748 0
M  V30 657 H 63.1443 2.64465 1.86655 0
M  V30 658 H 62.0513 3.7368 -0.177271 0
M  V30 659 H 63.3843 4.91736 -0.213566 0
M  V30 660 N 65.0364 0.313813 1.54444 0
M  V30 661 C 65.9664 -0.549454 2.26943 0
M  V30 662 C 66.9474 -1.12741 1.27372 0
M  V30 663 O 68.1324 -1.15436 1.56167 0
M  V30 664 C 65.2624 -1.71523 3.01989 0
M  V30 665 C 64.2164 -1.26703 4.08816 0
M  V30 666 C 63.5424 -2.51898 4.71647 0
M  V30 667 C 64.8424 -0.388962 5.2085 0
M  V30 668 H 66.5364 0.0552661 2.99349 0
M  V30 669 H 64.0824 0.0280207 1.43973 0
M  V30 670 H 66.0354 -2.32535 3.51433 0
M  V30 671 H 64.7594 -2.34639 2.27183 0
M  V30 672 H 63.4184 -0.679896 3.6024 0
M  V30 673 H 63.0664 -3.13356 3.93468 0
M  V30 674 H 62.7664 -2.22605 5.43802 0
M  V30 675 H 64.2904 -3.1369 5.23861 0
M  V30 676 H 65.7044 -0.905107 5.6611 0
M  V30 677 H 64.1014 -0.18924 5.99802 0
M  V30 678 H 65.1714 0.582699 4.81386 0
M  V30 679 N 66.5145 -1.57545 0.0417849 0
M  V30 680 C 67.7635 -1.91494 -0.633492 0
M  V30 681 C 68.0765 -0.921084 -1.72556 0
M  V30 682 O 69.2825 -1.15228 -2.45835 0
M  V30 683 C 67.7385 -3.40072 -1.17808 0
M  V30 684 C 67.3465 -4.47843 -0.118633 0
M  V30 685 C 69.0905 -3.8307 -1.82915 0
M  V30 686 C 66.9975 -5.87529 -0.675578 0
M  V30 687 H 65.9275 -0.714653 -0.24039 0
M  V30 688 H 68.5785 -1.83175 0.109148 0
M  V30 689 H 66.9605 -3.43364 -1.97274 0
M  V30 690 H 68.1345 -4.56128 0.654494 0
M  V30 691 H 66.4495 -4.14128 0.434414 0
M  V30 692 H 69.0465 -4.84794 -2.25563 0
M  V30 693 H 69.3895 -3.1881 -2.67705 0
M  V30 694 H 69.9225 -3.82255 -1.10119 0
M  V30 695 H 66.6615 -6.55362 0.134475 0
M  V30 696 H 66.1815 -5.82824 -1.4169 0
M  V30 697 H 67.8605 -6.36491 -1.1614 0
M  V30 698 N 67.9926 0.231505 -1.5589 0
M  V30 699 C 68.9396 1.28682 -1.91598 0
M  V30 700 C 69.9096 1.47071 -0.771974 0
M  V30 701 O 71.0946 1.60802 -1.027 0
M  V30 702 C 68.2346 2.6342 -2.22944 0
M  V30 703 C 67.3476 2.52912 -3.50228 0
M  V30 704 C 66.4826 3.80106 -3.7107 0
M  V30 705 C 65.5216 3.64279 -4.91902 0
M  V30 706 N 64.6586 4.834 -5.09184 0
M  V30 707 H 69.4986 0.975305 -2.81588 0
M  V30 708 H 67.0356 0.470299 -1.39379 0
M  V30 709 H 68.9936 3.41869 -2.39126 0
M  V30 710 H 67.6236 2.92687 -1.36139 0
M  V30 711 H 66.6756 1.6595 -3.42294 0
M  V30 712 H 67.9876 2.37133 -4.38827 0
M  V30 713 H 67.1416 4.66999 -3.87295 0
M  V30 714 H 65.8806 3.98799 -2.80733 0
M  V30 715 H 64.8856 2.7577 -4.75637 0
M  V30 716 H 66.1106 3.47067 -5.83714 0
M  V30 717 H 64.0566 5.02425 -4.21788 0
M  V30 718 H 63.9736 4.70311 -5.91898 0
M  V30 719 H 65.2416 5.71747 -5.29835 0
M  V30 720 N 69.4707 1.49531 0.497807 0
M  V30 721 C 70.6987 1.62893 1.27567 0
M  V30 722 C 71.1137 0.301585 1.86376 0
M  V30 723 O 70.4707 -0.713335 1.67982 0
M  V30 724 C 70.5217 2.70013 2.40364 0
M  V30 725 O 70.2427 3.976 1.83972 0
M  V30 726 C 71.7437 2.94109 3.31685 0
M  V30 727 H 68.9637 0.548298 0.386794 0
M  V30 728 H 71.5077 1.95584 0.597245 0
M  V30 729 H 69.6627 2.40092 3.04031 0
M  V30 730 H 70.0767 4.56631 2.58047 0
M  V30 731 H 71.5507 3.72788 4.07104 0
M  V30 732 H 72.0277 2.04147 3.88871 0
M  V30 733 H 72.6337 3.2546 2.73781 0
M  V30 734 N 70.9488 -0.749086 1.3866 0
M  V30 735 C 71.8588 -1.89358 1.38494 0
M  V30 736 C 72.8748 -1.71708 0.281476 0
M  V30 737 O 74.0508 -1.94554 0.520643 0
M  V30 738 C 71.1158 -3.24782 1.21316 0
M  V30 739 C 70.1768 -3.54926 2.41508 0
M  V30 740 C 69.4098 -4.83888 2.2514 0
M  V30 741 O 69.6328 -5.56592 1.24746 0
M  V30 742 O 68.5668 -5.13612 3.13826 0
M  V30 743 H 72.3928 -1.92452 2.34938 0
M  V30 744 H 69.9778 -0.894981 1.19626 0
M  V30 745 H 71.8598 -4.05739 1.13814 0
M  V30 746 H 70.5348 -3.2249 0.279592 0
M  V30 747 H 69.4418 -2.74112 2.54585 0
M  V30 748 H 70.7748 -3.61983 3.3351 0
M  V30 749 N 72.4269 -1.23603 -0.977757 0
M  V30 750 C 73.3899 -1.02069 -2.05218 0
M  V30 751 C 74.3899 0.0184305 -1.60789 0
M  V30 752 O 75.5799 -0.221569 -1.72785 0
M  V30 753 C 72.7119 -0.544926 -3.36517 0
M  V30 754 H 73.9049 -1.9742 -2.25755 0
M  V30 755 H 71.4579 -1.05684 -1.15155 0
M  V30 756 H 72.1929 0.412241 -3.21669 0
M  V30 757 H 71.9779 -1.2948 -3.70105 0
M  V30 758 H 73.4679 -0.414985 -4.15533 0
M  V30 759 N 73.905 1.17692 -1.04816 0
M  V30 760 C 74.852 2.21581 -0.645797 0
M  V30 761 C 75.822 1.62367 0.350159 0
M  V30 762 O 77.007 1.89254 0.242433 0
M  V30 763 C 74.147 3.45092 -0.0227568 0
M  V30 764 C 73.26 4.18613 -1.06709 0
M  V30 765 C 72.395 5.29602 -0.411767 0
M  V30 766 C 71.434 5.94904 -1.44067 0
M  V30 767 N 70.571 6.97414 -0.809781 0
M  V30 768 H 75.411 2.55353 -1.5362 0
M  V30 769 H 72.948 1.25438 -0.768364 0
M  V30 770 H 74.906 4.15679 0.35588 0
M  V30 771 H 73.536 3.11917 0.831122 0
M  V30 772 H 72.588 3.46779 -1.5636 0
M  V30 773 H 73.9 4.63293 -1.84827 0
M  V30 774 H 73.054 6.06696 0.0206623 0
M  V30 775 H 71.793 4.86045 0.401438 0
M  V30 776 H 70.798 5.16544 -1.88316 0
M  V30 777 H 72.023 6.40542 -2.25571 0
M  V30 778 H 69.969 6.55998 -0.0170186 0
M  V30 779 H 69.886 7.40386 -1.52856 0
M  V30 780 H 71.154 7.78463 -0.401999 0
M  V30 781 N 75.3831 0.828654 1.34056 0
M  V30 782 C 76.3151 0.212052 2.28217 0
M  V30 783 C 77.3281 -0.601362 1.51286 0
M  V30 784 O 78.5171 -0.430104 1.73241 0
M  V30 785 C 75.6171 -0.72088 3.31144 0
M  V30 786 C 74.7901 0.0509587 4.3737 0
M  V30 787 C 73.8491 -0.803766 5.20025 0
M  V30 788 O 72.8751 -0.246667 5.68665 0
M  V30 789 N 74.0771 -2.1227 5.40298 0
M  V30 790 H 76.8421 1.02105 2.81771 0
M  V30 791 H 74.4031 0.686153 1.46641 0
M  V30 792 H 76.3951 -1.29742 3.8334 0
M  V30 793 H 74.9651 -1.43061 2.77943 0
M  V30 794 H 74.1851 0.808831 3.85813 0
M  V30 795 H 75.4731 0.582065 5.0546 0
M  V30 796 H 74.8711 -2.59898 5.02464 0
M  V30 797 H 73.4281 -2.64796 5.95589 0
M  V30 798 N 76.8612 -1.46375 0.584142 0
M  V30 799 C 78.2722 -1.86031 0.157959 0
M  V30 800 C 78.6232 -1.48753 -1.27933 0
M  V30 801 O 77.7482 -0.903098 -1.96655 0
M  V30 802 C 78.3432 -3.37642 0.279892 0
M  V30 803 C 76.9022 -3.76289 -0.09143 0
M  V30 804 C 76.0492 -2.7039 0.615178 0
M  V30 805 H 79.0002 -1.37509 0.792274 0
M  V30 806 H 79.0212 -3.77275 -0.494364 0
M  V30 807 H 78.5332 -3.64742 1.32607 0
M  V30 808 H 76.6342 -3.54806 -1.13769 0
M  V30 809 H 76.7472 -4.78246 0.285886 0
M  V30 810 H 75.1112 -2.5464 0.0552833 0
M  V30 811 H 75.8942 -3.0033 1.66303 0
M  V30 812 N 78.3393 -0.321999 -1.54275 0
M  V30 813 C 79.3023 0.531975 -2.22941 0
M  V30 814 C 80.3023 1.04478 -1.22234 0
M  V30 815 O 81.4923 0.937452 -1.46825 0
M  V30 816 C 78.6243 1.73874 -2.93224 0
M  V30 817 H 79.8173 -0.0682612 -2.99822 0
M  V30 818 H 77.3703 -0.0730644 -1.56129 0
M  V30 819 H 78.1053 2.37825 -2.20476 0
M  V30 820 H 77.8903 1.37847 -3.6707 0
M  V30 821 H 79.3803 2.34496 -3.45545 0
M  V30 822 N 79.8174 1.5752 -0.0501392 0
M  V30 823 C 81.0454 1.96963 0.633492 0
M  V30 824 C 81.4604 0.927631 1.6444 0
M  V30 825 O 80.8174 -0.0882665 1.82286 0
M  V30 826 C 80.8684 3.36487 1.32132 0
M  V30 827 O 80.5894 4.36693 0.350894 0
M  V30 828 C 82.0904 3.90682 2.09481 0
M  V30 829 H 79.3104 0.648244 0.173266 0
M  V30 830 H 81.8544 2.0417 -0.116134 0
M  V30 831 H 80.0094 3.30434 2.02218 0
M  V30 832 H 80.4234 5.17702 0.841735 0
M  V30 833 H 81.8974 4.90591 2.5303 0
M  V30 834 H 82.3744 3.26053 2.94255 0
M  V30 835 H 82.9804 4.00069 1.44307 0
M  V30 836 N 81.2955 -0.223234 1.56011 0
M  V30 837 C 82.2255 -1.27988 1.95298 0
M  V30 838 C 83.2065 -1.48976 0.820979 0
M  V30 839 O 84.3915 -1.61188 1.08315 0
M  V30 840 C 81.5215 -2.63 2.26822 0
M  V30 841 C 80.4755 -2.56671 3.42497 0
M  V30 842 C 79.8015 -3.95697 3.59622 0
M  V30 843 C 81.1015 -2.11601 4.77517 0
M  V30 844 H 82.7955 -0.953525 2.8381 0
M  V30 845 H 80.3415 -0.457244 1.36548 0
M  V30 846 H 82.2945 -3.37077 2.52898 0
M  V30 847 H 81.0185 -2.9732 1.35161 0
M  V30 848 H 79.6775 -1.85051 3.16467 0
M  V30 849 H 79.3255 -4.27322 2.6534 0
M  V30 850 H 79.0255 -3.92345 4.37424 0
M  V30 851 H 80.5495 -4.71438 3.88044 0
M  V30 852 H 81.9635 -2.7542 5.02809 0
M  V30 853 H 80.3605 -2.19311 5.5859 0
M  V30 854 H 81.4305 -1.06824 4.72987 0
M  V30 855 N 82.7736 -1.49793 -0.48987 0
M  V30 856 C 84.1896 -1.36803 -0.822022 0
M  V30 857 C 84.3896 -0.409652 -1.97292 0
M  V30 858 O 83.4456 0.154614 -2.52026 0
M  V30 859 C 84.7586 -2.77768 -1.15175 0
M  V30 860 C 86.3066 -2.86549 -1.25931 0
M  V30 861 C 86.7816 -4.28306 -1.62228 0
M  V30 862 N 88.2726 -4.31169 -1.69256 0
M  V30 863 C 89.0076 -5.37832 -1.98807 0
M  V30 864 N 88.5036 -6.54726 -2.26507 0
M  V30 865 N 90.2966 -5.25258 -2.00152 0
M  V30 866 H 82.4476 -2.10691 0.268881 0
M  V30 867 H 84.7106 -0.946241 0.057728 0
M  V30 868 H 84.4166 -3.49648 -0.379335 0
M  V30 869 H 84.2906 -3.13836 -2.09253 0
M  V30 870 H 86.6776 -2.14899 -2.02243 0
M  V30 871 H 86.7586 -2.54049 -0.298776 0
M  V30 872 H 86.4026 -5.00486 -0.864622 0
M  V30 873 H 86.3326 -4.58279 -2.594 0
M  V30 874 H 88.8236 -3.4687 -1.49965 0
M  V30 875 H 89.1366 -7.31833 -2.48276 0
M  V30 876 H 87.4816 -6.57933 -2.23939 0
M  V30 877 H 90.6726 -4.32938 -1.77996 0
M  V30 878 H 90.8456 -6.08476 -2.22848 0
M  V30 879 N 84.2517 0.741722 -1.39055 0
M  V30 880 C 85.1987 1.85566 -1.37237 0
M  V30 881 C 86.1687 1.64457 -0.233072 0
M  V30 882 O 87.3537 1.85957 -0.427147 0
M  V30 883 C 84.4937 3.23004 -1.215 0
M  V30 884 C 83.6067 3.55864 -2.44918 0
M  V30 885 C 82.7417 4.82669 -2.21821 0
M  V30 886 C 81.7807 5.08351 -3.40948 0
M  V30 887 N 80.9177 6.26356 -3.17211 0
M  V30 888 H 85.7577 1.86455 -2.32462 0
M  V30 889 H 83.2947 0.911176 -1.15482 0
M  V30 890 H 85.2527 4.02331 -1.10389 0
M  V30 891 H 83.8827 3.21411 -0.29908 0
M  V30 892 H 82.9347 2.7129 -2.66657 0
M  V30 893 H 84.2467 3.70765 -3.33668 0
M  V30 894 H 83.4007 5.69962 -2.07914 0
M  V30 895 H 82.1397 4.69929 -1.30454 0
M  V30 896 H 81.1447 4.19522 -3.55361 0
M  V30 897 H 82.3697 5.22981 -4.33207 0
M  V30 898 H 80.3157 6.14917 -2.28502 0
M  V30 899 H 80.2327 6.41813 -3.99515 0
M  V30 900 H 81.5007 7.16506 -3.06984 0
M  V30 901 N 85.7298 1.2412 0.971189 0
M  V30 902 C 86.9598 1.10415 1.7462 0
M  V30 903 C 87.3678 -0.346462 1.86001 0
M  V30 904 O 86.7108 -1.25104 1.34517 0
M  V30 905 C 86.7728 1.66596 3.18568 0
M  V30 906 C 86.4368 3.15446 3.3067 0
M  V30 907 C 87.4338 4.12636 3.16271 0
M  V30 908 C 85.1188 3.55337 3.55022 0
M  V30 909 C 87.1128 5.47699 3.26044 0
M  V30 910 C 84.7998 4.90542 3.64434 0
M  V30 911 C 85.7978 5.86532 3.49956 0
M  V30 912 O 85.4858 7.19279 3.59017 0
M  V30 913 H 85.2178 0.386616 0.55453 0
M  V30 914 H 87.7718 1.64633 1.22821 0
M  V30 915 H 86.0018 1.06808 3.71657 0
M  V30 916 H 87.6908 1.48232 3.77865 0
M  V30 917 H 88.4568 3.8316 2.97344 0
M  V30 918 H 84.3358 2.8113 3.65359 0
M  V30 919 H 87.8798 6.22603 3.14661 0
M  V30 920 H 83.7768 5.19691 3.82873 0
M  V30 921 H 84.5448 7.27153 3.75754 0
M  V30 922 N 87.2079 -1.17134 1.05439 0
M  V30 923 C 88.4479 -1.89137 0.77502 0
M  V30 924 C 88.8119 -1.79345 -0.685526 0
M  V30 925 O 90.0129 -2.46188 -1.0791 0
M  V30 926 C 88.2839 -3.35003 1.2453 0
M  V30 927 S 89.8429 -4.24952 1.09367 0
M  V30 928 H 86.6609 -0.652949 0.281387 0
M  V30 929 H 89.2629 -1.4145 1.34953 0
M  V30 930 H 87.9669 -3.39666 2.30338 0
M  V30 931 H 87.4979 -3.87736 0.665166 0
M  V30 932 H 89.5129 -4.96196 0.0193397 0
M  V30 933 N 88.686 -0.835752 -1.33615 0
M  V30 934 C 89.935 -0.426289 -1.97144 0
M  V30 935 C 90.248 1.01912 -1.66953 0
M  V30 936 O 91.454 1.53311 -2.24072 0
M  V30 937 C 89.91 -0.711321 -3.52801 0
M  V30 938 C 89.518 -2.1712 -3.91871 0
M  V30 939 C 91.262 -0.368654 -4.22896 0
M  V30 940 C 89.169 -2.40044 -5.40493 0
M  V30 941 H 88.099 -0.15567 -0.737755 0
M  V30 942 H 90.75 -1.0239 -1.52278 0
M  V30 943 H 89.132 -0.0433766 -3.95976 0
M  V30 944 H 90.306 -2.87936 -3.59763 0
M  V30 945 H 88.621 -2.47654 -3.34749 0
M  V30 946 H 91.218 -0.517601 -5.32189 0
M  V30 947 H 91.561 0.688078 -4.10574 0
M  V30 948 H 92.094 -0.991702 -3.8524 0
M  V30 949 H 88.833 -3.44271 -5.57815 0
M  V30 950 H 88.353 -1.73785 -5.74072 0
M  V30 951 H 90.032 -2.23042 -6.0734 0
M  V30 952 N 90.1641 1.46063 -0.591896 0
M  V30 953 C 91.0741 2.34192 0.13831 0
M  V30 954 C 92.0901 1.50305 0.876608 0
M  V30 955 O 93.2661 1.8315 0.837728 0
M  V30 956 C 90.3311 3.27656 1.13326 0
M  V30 957 C 89.3921 4.27445 0.39863 0
M  V30 958 C 88.6251 5.16443 1.34618 0
M  V30 959 O 88.8481 5.08553 2.58321 0
M  V30 960 O 87.7821 5.95843 0.851768 0
M  V30 961 H 91.6081 2.98002 -0.58552 0
M  V30 962 H 89.1931 1.45188 -0.352239 0
M  V30 963 H 91.0751 3.85291 1.70671 0
M  V30 964 H 89.7501 2.6643 1.83839 0
M  V30 965 H 88.6571 3.73471 -0.216895 0
M  V30 966 H 89.9901 4.91482 -0.265709 0
M  V30 967 N 91.6422 0.330177 1.54103 0
M  V30 968 C 92.6052 -0.520144 2.2322 0
M  V30 969 C 93.6052 -1.03828 1.22786 0
M  V30 970 O 94.7952 -0.929652 1.4732 0
M  V30 971 C 91.9272 -1.72317 2.94142 0
M  V30 972 H 93.1202 0.0841605 2.99782 0
M  V30 973 H 90.6732 0.0813433 1.56088 0
M  V30 974 H 91.4082 -2.36653 2.21734 0
M  V30 975 H 91.1932 -1.35898 3.67796 0
M  V30 976 H 92.6832 -2.3266 3.46784 0
M  V30 977 N 93.1203 -1.57491 0.0584922 0
M  V30 978 C 94.0673 -2.11958 -0.913376 0
M  V30 979 C 95.0373 -1.02875 -1.30407 0
M  V30 980 O 96.2223 -1.30464 -1.39226 0
M  V30 981 C 93.3623 -2.67497 -2.18035 0
M  V30 982 C 92.4753 -3.90691 -1.84349 0
M  V30 983 C 91.6103 -4.3452 -3.05559 0
M  V30 984 C 90.6493 -5.50395 -2.67827 0
M  V30 985 N 89.7863 -5.89244 -3.81754 0
M  V30 986 H 94.6263 -2.94704 -0.442017 0
M  V30 987 H 92.1633 -1.45643 -0.206545 0
M  V30 988 H 94.1213 -2.978 -2.92183 0
M  V30 989 H 92.7513 -1.87537 -2.62735 0
M  V30 990 H 91.8033 -3.66934 -1.00319 0
M  V30 991 H 93.1153 -4.7489 -1.5258 0
M  V30 992 H 92.2693 -4.66414 -3.87998 0
M  V30 993 H 91.0083 -3.49147 -3.40511 0
M  V30 994 H 90.0133 -5.18165 -1.83806 0
M  V30 995 H 91.2383 -6.3749 -2.34059 0
M  V30 996 H 89.1843 -5.06823 -4.16493 0
M  V30 997 H 89.1013 -6.68151 -3.53708 0
M  V30 998 H 90.3693 -6.25756 -4.64811 0
M  V30 999 N 94.5984 0.214957 -1.56127 0
M  V30 1000 C 95.5284 1.2695 -1.95974 0
M  V30 1001 C 96.5094 1.48539 -0.828868 0
M  V30 1002 O 97.6944 1.60611 -1.09168 0
M  V30 1003 C 94.8244 2.61794 -2.28214 0
M  V30 1004 C 93.7784 2.54851 -3.43853 0
M  V30 1005 C 93.1044 3.93785 -3.61715 0
M  V30 1006 C 94.4044 2.09065 -4.78632 0
M  V30 1007 H 96.0984 0.93846 -2.84312 0
M  V30 1008 H 93.6444 0.449996 -1.36788 0
M  V30 1009 H 95.5974 3.35731 -2.54682 0
M  V30 1010 H 94.3214 2.96599 -1.36736 0
M  V30 1011 H 92.9804 1.8337 -3.17444 0
M  V30 1012 H 92.6284 4.25908 -2.67602 0
M  V30 1013 H 92.3284 3.90019 -4.39498 0
M  V30 1014 H 93.8524 4.69374 -3.90539 0
M  V30 1015 H 95.2664 2.7275 -5.04262 0
M  V30 1016 H 93.6634 2.16346 -5.59745 0
M  V30 1017 H 94.7334 1.04315 -4.73547 0
M  V30 1018 N 96.0765 1.50051 0.48192 0
M  V30 1019 C 97.3045 1.64237 1.25832 0
M  V30 1020 C 97.7195 0.321336 1.86045 0
M  V30 1021 O 97.0765 -0.695478 1.68729 0
M  V30 1022 C 97.1275 2.72548 2.37487 0
M  V30 1023 O 96.8485 3.99529 1.79745 0
M  V30 1024 C 98.3495 2.9761 3.28547 0
M  V30 1025 H 95.5695 0.55237 0.380957 0
M  V30 1026 H 98.1135 1.96207 0.576467 0
M  V30 1027 H 96.2685 2.43303 3.01467 0
M  V30 1028 H 96.6825 4.59342 2.5319 0
M  V30 1029 H 98.1565 3.77084 4.03127 0
M  V30 1030 H 98.6335 2.0826 3.86684 0
M  V30 1031 H 99.2395 3.28345 2.70314 0
M  V30 1032 N 97.5546 -0.734337 1.39446 0
M  V30 1033 C 98.5026 -1.86971 1.38364 0
M  V30 1034 C 99.4966 -1.67288 0.266687 0
M  V30 1035 O 100.703 -1.74621 0.436755 0
M  V30 1036 H 97.0776 -0.615474 0.432082 0
M  V30 1037 H 99.0486 -1.85 2.34132 0
M  V30 1038 C 97.7976 -3.2466 1.24465 0
M  V30 1039 H 97.1206 -3.40402 2.09682 0
M  V30 1040 H 98.5606 -4.04292 1.27764 0
M  V30 1041 C 97.0196 -3.36867 -0.0468674 0
M  V30 1042 O 97.5496 -3.88618 -1.01681 0
M  V30 1043 N 95.7556 -2.90391 -0.110145 0
M  V30 1044 H 95.3026 -2.48466 0.679868 0
M  V30 1045 H 95.2606 -2.98939 -0.973799 0
M  V30 1046 N 99.0327 -1.24633 -0.964593 0
M  V30 1047 C 100.261 -1.11501 -1.74285 0
M  V30 1048 C 100.676 0.332165 -1.85855 0
M  V30 1049 O 100.033 1.22903 -1.34911 0
M  V30 1050 C 100.084 -1.75258 -3.16175 0
M  V30 1051 O 99.8047 -3.14318 -3.05182 0
M  V30 1052 C 101.306 -1.67776 -4.10324 0
M  V30 1053 H 98.5257 -0.389407 -0.546446 0
M  V30 1054 H 101.07 -1.64801 -1.21083 0
M  V30 1055 H 99.2247 -1.25954 -3.66353 0
M  V30 1056 H 99.6387 -3.4551 -3.94618 0
M  V30 1057 H 101.113 -2.17064 -5.0753 0
M  V30 1058 H 101.59 -0.639584 -4.34518 0
M  V30 1059 H 102.196 -2.16522 -3.66058 0
M  V30 1060 N 100.511 1.16574 -1.06058 0
M  V30 1061 C 101.739 1.90952 -0.796552 0
M  V30 1062 C 102.154 1.77302 0.648808 0
M  V30 1063 O 101.511 1.11605 1.44397 0
M  V30 1064 C 101.562 3.41736 -1.17894 0
M  V30 1065 O 101.283 3.54975 -2.56758 0
M  V30 1066 C 102.784 4.33169 -0.942308 0
M  V30 1067 H 100.004 0.605594 -0.288959 0
M  V30 1068 H 102.548 1.47777 -1.41358 0
M  V30 1069 H 100.703 3.82623 -0.606491 0
M  V30 1070 H 101.117 4.4846 -2.72 0
M  V30 1071 H 102.591 5.37439 -1.25952 0
M  V30 1072 H 103.068 4.3903 0.122078 0
M  V30 1073 H 103.674 3.98007 -1.49902 0
M  V30 1074 N 101.989 0.842826 1.3317 0
M  V30 1075 C 103.217 0.454055 2.01856 0
M  V30 1076 C 103.632 -0.94587 1.63397 0
M  V30 1077 O 102.989 -1.61534 0.849302 0
M  V30 1078 C 103.04 0.569715 3.56982 0
M  V30 1079 O 102.761 1.91448 3.94055 0
M  V30 1080 C 104.262 0.178412 4.42941 0
M  V30 1081 H 101.482 0.17979 0.646465 0
M  V30 1082 H 104.026 1.1365 1.70012 0
M  V30 1083 H 102.181 -0.0648587 3.87346 0
M  V30 1084 H 102.595 1.90282 4.88767 0
M  V30 1085 H 104.069 0.310376 5.51127 0
M  V30 1086 H 104.546 -0.880056 4.30293 0
M  V30 1087 H 105.152 0.787579 4.17944 0
M  V30 1088 N 103.467 -1.45747 0.599634 0
M  V30 1089 C 104.744 -1.95585 0.0240846 0
M  V30 1090 C 105.124 -1.54217 -1.44154 0
M  V30 1091 O 104.472 -0.800903 -2.14004 0
M  V30 1092 C 104.682 -3.48344 0.21385 0
M  V30 1093 C 106.03 -4.24504 0.0904902 0
M  V30 1094 O 107.054 -3.55911 0.143558 0
M  V30 1095 O 105.913 -5.46491 -0.0310766 0
M  V30 1096 H 103.007 -0.82602 -0.0402478 0
M  V30 1097 H 105.553 -1.55951 0.669139 0
M  V30 1098 H 104.325 -3.71397 1.23206 0
M  V30 1099 H 103.948 -3.9485 -0.466842 0
M  V30 1100 N 104.945 -0.338344 -1.53925 0
M  V30 1101 C 106.17 0.263987 -2.05713 0
M  V30 1102 C 106.595 1.43847 -1.21201 0
M  V30 1103 O 105.953 1.79904 -0.224535 0
M  V30 1104 C 106.001 0.662 -3.54471 0
M  V30 1105 O 105.105 1.76265 -3.72833 0
M  V30 1106 H 104.446 0.0448722 -0.662482 0
M  V30 1107 H 106.976 -0.491048 -1.9862 0
M  V30 1108 H 106.986 0.940594 -3.9701 0
M  V30 1109 H 105.661 -0.196937 -4.15433 0
M  V30 1110 H 104.238 1.48173 -3.42198 0
M  V30 1111 N 106.423 1.57458 -0.0668435 0
M  V30 1112 C 107.839 1.56947 0.289772 0
M  V30 1113 C 108.039 1.07584 1.70376 0
M  V30 1114 O 107.095 0.739486 2.41429 0
M  V30 1115 C 108.408 3.0052 0.103943 0
M  V30 1116 C 109.956 3.12517 0.173857 0
M  V30 1117 C 110.431 4.57997 0.0163682 0
M  V30 1118 N 111.922 4.63144 0.0721352 0
M  V30 1119 C 112.657 5.73394 -0.0253794 0
M  V30 1120 N 112.153 6.92576 -0.176133 0
M  V30 1121 N 113.946 5.62091 0.0313305 0
M  V30 1122 H 106.097 1.87863 -0.991027 0
M  V30 1123 H 108.36 0.86583 -0.38606 0
M  V30 1124 H 108.066 3.40729 -0.871572 0
M  V30 1125 H 107.94 3.67304 0.858366 0
M  V30 1126 H 110.327 2.72197 1.13985 0
M  V30 1127 H 110.408 2.48381 -0.611586 0
M  V30 1128 H 110.052 4.99005 -0.946374 0
M  V30 1129 H 109.982 5.20158 0.821153 0
M  V30 1130 H 112.473 3.77436 0.187263 0
M  V30 1131 H 112.786 7.72418 -0.242821 0
M  V30 1132 H 111.131 6.94678 -0.211429 0
M  V30 1133 H 114.322 4.67867 0.147773 0
M  V30 1134 H 114.495 6.47982 -0.048121 0
M  V30 1135 N 107.901 -0.206675 1.56239 0
M  V30 1136 C 109.141 -0.93574 1.81723 0
M  V30 1137 C 109.505 -1.80927 0.642609 0
M  V30 1138 O 110.706 -2.57323 0.777081 0
M  V30 1139 C 108.977 -1.74012 3.12177 0
M  V30 1140 S 110.536 -2.52279 3.59028 0
M  V30 1141 H 107.354 -0.314065 0.637875 0
M  V30 1142 H 109.956 -0.200071 1.94474 0
M  V30 1143 H 108.66 -1.0888 3.95693 0
M  V30 1144 H 108.191 -2.51782 3.02274 0
M  V30 1145 H 110.206 -3.76209 3.23545 0
M  V30 1146 N 109.379 -1.50304 -0.473955 0
M  V30 1147 C 110.79 -1.54042 -1.0549 0
M  V30 1148 C 111.141 -0.342248 -1.93192 0
M  V30 1149 O 110.266 0.545157 -2.09421 0
M  V30 1150 C 110.861 -2.79152 -1.91989 0
M  V30 1151 C 109.42 -2.8558 -2.45196 0
M  V30 1152 C 108.567 -2.48295 -1.2347 0
M  V30 1153 H 111.518 -1.5661 -0.256693 0
M  V30 1154 H 111.539 -2.60845 -2.7702 0
M  V30 1155 H 111.051 -3.66339 -1.28131 0
M  V30 1156 H 109.152 -2.02738 -3.12615 0
M  V30 1157 H 109.265 -3.88403 -2.80499 0
M  V30 1158 H 107.629 -2.00669 -1.56856 0
M  V30 1159 H 108.412 -3.37787 -0.612789 0
M  V30 1160 N 110.857 0.726932 -1.39834 0
M  V30 1161 C 112.085 1.51613 -1.40787 0
M  V30 1162 C 112.5 1.88799 -0.00451505 0
M  V30 1163 O 111.857 1.54662 0.968809 0
M  V30 1164 C 111.908 2.79863 -2.28821 0
M  V30 1165 O 111.629 2.44253 -3.63692 0
M  V30 1166 C 113.13 3.73837 -2.38245 0
M  V30 1167 H 110.35 0.468264 -0.480593 0
M  V30 1168 H 112.894 0.897607 -1.83748 0
M  V30 1169 H 111.049 3.38027 -1.89252 0
M  V30 1170 H 111.463 3.26695 -4.1033 0
M  V30 1171 H 112.937 4.60699 -3.04073 0
M  V30 1172 H 113.414 4.16153 -1.40403 0
M  V30 1173 H 114.02 3.21589 -2.78317 0
M  V30 1174 N 112.336 1.25143 0.95797 0
M  V30 1175 C 113.268 1.01023 2.05735 0
M  V30 1176 C 114.281 -0.0236902 1.62783 0
M  V30 1177 O 115.47 0.21448 1.77207 0
M  V30 1178 C 112.57 0.504595 3.35122 0
M  V30 1179 C 111.743 1.6039 4.06932 0
M  V30 1180 C 110.802 1.09922 5.14591 0
M  V30 1181 O 109.828 1.79293 5.40225 0
M  V30 1182 N 111.03 -0.0612545 5.80468 0
M  V30 1183 H 113.795 1.95683 2.26998 0
M  V30 1184 H 111.356 1.16303 1.12629 0
M  V30 1185 H 113.348 0.151516 4.04416 0
M  V30 1186 H 111.918 -0.347989 3.10657 0
M  V30 1187 H 111.138 2.12872 3.31782 0
M  V30 1188 H 112.426 2.34252 4.51667 0
M  V30 1189 H 111.824 -0.640985 5.62057 0
M  V30 1190 H 110.381 -0.355395 6.5083 0
M  V30 1191 N 113.814 -1.1601 1.06675 0
M  V30 1192 C 115.062 -1.86264 0.784229 0
M  V30 1193 C 115.383 -1.82328 -0.691488 0
M  V30 1194 O 114.653 -1.25947 -1.50047 0
M  V30 1195 H 113.233 -0.689621 0.28711 0
M  V30 1196 H 115.895 -1.40664 1.34906 0
M  V30 1197 H 114.991 -2.91595 1.11259 0
M  V30 1198 N 115.292 -0.849877 -1.32721 0
M  V30 1199 C 116.202 -0.293791 -2.32753 0
M  V30 1200 C 117.218 0.585906 -1.63839 0
M  V30 1201 O 118.394 0.487413 -1.95413 0
M  V30 1202 C 115.459 0.512752 -3.42887 0
M  V30 1203 C 114.52 -0.39252 -4.27502 0
M  V30 1204 C 113.753 0.375625 -5.32377 0
M  V30 1205 O 113.976 1.60613 -5.4732 0
M  V30 1206 O 112.91 -0.256094 -6.01355 0
M  V30 1207 H 116.736 -1.12242 -2.82197 0
M  V30 1208 H 114.321 -0.612685 -1.36259 0
M  V30 1209 H 116.203 0.970704 -4.10067 0
M  V30 1210 H 114.878 1.31826 -2.95641 0
M  V30 1211 H 113.785 -0.898547 -3.63149 0
M  V30 1212 H 115.118 -1.16309 -4.7826 0
M  V30 1213 N 116.77 1.45427 -0.607355 0
M  V30 1214 C 118.181 1.85756 -0.187535 0
M  V30 1215 C 118.532 1.5077 1.25551 0
M  V30 1216 O 117.657 0.93427 1.95193 0
M  V30 1217 C 118.252 3.37154 -0.333572 0
M  V30 1218 C 116.811 3.76387 0.0315542 0
M  V30 1219 C 115.958 2.69377 -0.658117 0
M  V30 1220 H 118.909 1.36231 -0.81405 0
M  V30 1221 H 118.93 3.78014 0.43428 0
M  V30 1222 H 118.442 3.62586 -1.38393 0
M  V30 1223 H 116.543 3.56571 1.0811 0
M  V30 1224 H 116.656 4.77731 -0.361935 0
M  V30 1225 H 115.02 2.5452 -0.0957873 0
M  V30 1226 H 115.803 2.97646 -1.7106 0
M  V30 1227 N 118.248 0.346503 1.53744 0
M  V30 1228 C 119.476 -0.25041 2.05379 0
M  V30 1229 C 119.891 -1.43979 1.22129 0
M  V30 1230 O 119.248 -1.80677 0.257321 0
M  V30 1231 C 119.299 -0.662575 3.55376 0
M  V30 1232 O 119.02 0.479515 4.35468 0
M  V30 1233 C 120.521 -1.31989 4.23195 0
M  V30 1234 H 117.741 -0.0478198 0.669294 0
M  V30 1235 H 120.285 0.499346 1.9831 0
M  V30 1236 H 118.44 -1.36227 3.62658 0
M  V30 1237 H 118.854 0.15037 5.24284 0
M  V30 1238 H 120.328 -1.55902 5.29527 0
M  V30 1239 H 120.805 -2.27436 3.75725 0
M  V30 1240 H 121.411 -0.662154 4.20114 0
M  V30 1241 N 119.726 -1.57421 0.075193 0
M  V30 1242 C 120.656 -2.15942 -0.888324 0
M  V30 1243 C 121.637 -1.08737 -1.30806 0
M  V30 1244 O 122.822 -1.36787 -1.37851 0
M  V30 1245 C 119.952 -2.72379 -2.1547 0
M  V30 1246 C 118.906 -3.8478 -1.87425 0
M  V30 1247 C 118.232 -4.27834 -3.20721 0
M  V30 1248 C 119.532 -5.08869 -1.17684 0
M  V30 1249 H 121.226 -2.96705 -0.400799 0
M  V30 1250 H 118.772 -1.42723 -0.191342 0
M  V30 1251 H 120.725 -3.11965 -2.83295 0
M  V30 1252 H 119.449 -1.88841 -2.6647 0
M  V30 1253 H 118.108 -3.45703 -1.22004 0
M  V30 1254 H 117.756 -3.41214 -3.6957 0
M  V30 1255 H 117.456 -5.03605 -3.02746 0
M  V30 1256 H 118.98 -4.70039 -3.89738 0
M  V30 1257 H 120.394 -5.4575 -1.75584 0
M  V30 1258 H 118.791 -5.8994 -1.09956 0
M  V30 1259 H 119.861 -4.84648 -0.156453 0
M  V30 1260 N 121.204 0.198386 -1.56346 0
M  V30 1261 C 122.152 1.26538 -1.95169 0
M  V30 1262 C 123.146 1.47295 -0.836685 0
M  V30 1263 O 124.352 1.48195 -1.02167 0
M  V30 1264 H 120.727 0.424744 -0.620561 0
M  V30 1265 H 122.698 0.910904 -2.84157 0
M  V30 1266 C 121.447 2.6035 -2.30463 0
M  V30 1267 H 120.77 2.45192 -3.15786 0
M  V30 1268 H 122.21 3.33762 -2.61494 0
M  V30 1269 C 120.669 3.17096 -1.13806 0
M  V30 1270 O 121.199 3.99588 -0.41135 0
M  V30 1271 N 119.405 2.75795 -0.915736 0
M  V30 1272 H 118.952 2.08816 -1.50843 0
M  V30 1273 H 118.91 3.14101 -0.136979 0
M  V30 1274 N 122.682 1.50554 0.465978 0
M  V30 1275 C 123.592 1.72585 1.58907 0
M  V30 1276 C 124.608 0.60911 1.6299 0
M  V30 1277 O 125.784 0.88804 1.80765 0
M  V30 1278 C 122.849 1.81995 2.95091 0
M  V30 1279 C 121.91 3.05751 3.01355 0
M  V30 1280 C 121.143 3.14702 4.31043 0
M  V30 1281 O 121.366 2.30313 5.21835 0
M  V30 1282 O 120.3 4.07468 4.43005 0
M  V30 1283 H 124.126 2.67799 1.43239 0
M  V30 1284 H 121.711 1.34711 0.646013 0
M  V30 1285 H 123.593 1.90335 3.75966 0
M  V30 1286 H 122.268 0.899659 3.10947 0
M  V30 1287 H 121.175 3.02908 2.19539 0
M  V30 1288 H 122.508 3.97375 2.90437 0
M  V30 1289 N 124.16 -0.719506 1.40217 0
M  V30 1290 C 125.07 -1.86378 1.42479 0
M  V30 1291 C 126.086 -1.71073 0.317834 0
M  V30 1292 O 127.262 -1.93406 0.561794 0
M  V30 1293 C 124.327 -3.22136 1.28178 0
M  V30 1294 C 123.388 -3.49723 2.48982 0
M  V30 1295 C 122.621 -4.79004 2.35353 0
M  V30 1296 O 122.844 -5.53821 1.36524 0
M  V30 1297 O 121.778 -5.06839 3.2465 0
M  V30 1298 H 125.604 -1.87425 2.38968 0
M  V30 1299 H 123.189 -0.869405 1.21498 0
M  V30 1300 H 125.071 -4.03234 1.22395 0
M  V30 1301 H 123.746 -3.21825 0.347934 0
M  V30 1302 H 122.653 -2.6865 2.60342 0
M  V30 1303 H 123.986 -3.54828 3.41113 0
M  V30 1304 N 125.638 -1.25649 -0.95132 0
M  V30 1305 C 126.57 -1.02112 -2.05197 0
M  V30 1306 C 127.583 0.0150571 -1.62793 0
M  V30 1307 O 128.772 -0.223874 -1.77091 0
M  V30 1308 C 125.872 -0.522361 -3.3485 0
M  V30 1309 C 125.045 -1.62546 -4.06076 0
M  V30 1310 C 124.104 -1.12649 -5.14001 0
M  V30 1311 O 123.13 -1.82156 -5.39266 0
M  V30 1312 N 124.332 0.03047 -5.80492 0
M  V30 1313 H 127.097 -1.96885 -2.25957 0
M  V30 1314 H 124.658 -1.16899 -1.1201 0
M  V30 1315 H 126.65 -0.172961 -4.0433 0
M  V30 1316 H 125.22 0.33151 -3.10837 0
M  V30 1317 H 124.44 -2.14628 -3.30649 0
M  V30 1318 H 125.728 -2.36644 -4.50419 0
M  V30 1319 H 125.126 0.611169 -5.62389 0
M  V30 1320 H 123.683 0.320875 -6.5101 0
M  V30 1321 N 127.117 1.15442 -1.07289 0
M  V30 1322 C 128.394 1.82306 -0.708792 0
M  V30 1323 C 128.774 1.94991 0.808807 0
M  V30 1324 O 128.122 1.50085 1.72298 0
M  V30 1325 C 128.332 3.18695 -1.42247 0
M  V30 1326 C 129.68 3.94341 -1.57417 0
M  V30 1327 O 130.704 3.28247 -1.38319 0
M  V30 1328 O 129.563 5.12839 -1.88834 0
M  V30 1329 H 126.657 0.787628 -0.252132 0
M  V30 1330 H 129.203 1.22559 -1.17377 0
M  V30 1331 H 127.975 3.04557 -2.45684 0
M  V30 1332 H 127.598 3.86128 -0.948223 0
M  V30 1333 N 128.595 0.856903 1.32268 0
M  V30 1334 C 129.542 0.301172 2.28827 0
M  V30 1335 C 130.512 -0.593104 1.5515 0
M  V30 1336 O 131.697 -0.527537 1.83362 0
M  V30 1337 C 128.837 -0.502523 3.41422 0
M  V30 1338 C 127.95 0.417797 4.29975 0
M  V30 1339 C 127.085 -0.398749 5.29701 0
M  V30 1340 C 126.124 0.518827 6.09897 0
M  V30 1341 N 125.261 -0.260674 7.01616 0
M  V30 1342 H 130.101 1.12983 2.75751 0
M  V30 1343 H 127.638 0.568582 1.35667 0
M  V30 1344 H 129.596 -0.984141 4.05426 0
M  V30 1345 H 128.226 -1.29599 2.95642 0
M  V30 1346 H 127.278 1.01781 3.66531 0
M  V30 1347 H 128.59 1.12191 4.86019 0
M  V30 1348 H 127.744 -0.943435 5.9932 0
M  V30 1349 H 126.483 -1.13622 4.7428 0
M  V30 1350 H 125.488 1.07538 5.39181 0
M  V30 1351 H 126.713 1.25495 6.67404 0
M  V30 1352 H 124.659 -0.981198 6.4862 0
M  V30 1353 H 124.576 0.384364 7.55022 0
M  V30 1354 H 125.844 -0.787014 7.75517 0
M  V30 1355 N 130.073 -1.45103 0.615059 0
M  V30 1356 C 131.489 -1.57137 0.279322 0
M  V30 1357 C 131.689 -1.60523 -1.21797 0
M  V30 1358 O 130.745 -1.53956 -2.00134 0
M  V30 1359 C 132.058 -2.85062 0.957083 0
M  V30 1360 C 133.606 -2.98749 0.933706 0
M  V30 1361 C 134.081 -4.29455 1.59162 0
M  V30 1362 N 135.572 -4.36231 1.55746 0
M  V30 1363 C 136.307 -5.36051 2.0356 0
M  V30 1364 N 135.803 -6.42367 2.59494 0
M  V30 1365 N 137.596 -5.27456 1.94284 0
M  V30 1366 H 129.747 -1.41148 1.58717 0
M  V30 1367 H 132.01 -0.675331 0.665306 0
M  V30 1368 H 131.716 -2.88488 2.01166 0
M  V30 1369 H 131.59 -3.7407 0.48494 0
M  V30 1370 H 133.977 -2.94886 -0.112347 0
M  V30 1371 H 134.058 -2.11132 1.44419 0
M  V30 1372 H 133.702 -4.34077 2.63704 0
M  V30 1373 H 133.632 -5.15901 1.0561 0
M  V30 1374 H 136.123 -3.60011 1.14893 0
M  V30 1375 H 136.436 -7.14793 2.93752 0
M  V30 1376 H 134.781 -6.43097 2.63537 0
M  V30 1377 H 137.972 -4.43308 1.5032 0
M  V30 1378 H 138.145 -6.05099 2.3186 0
M  V30 1379 N 131.551 -0.354651 -1.53558 0
M  V30 1380 C 132.798 0.238443 -2.01091 0
M  V30 1381 C 133.126 1.49663 -1.24222 0
M  V30 1382 O 132.381 1.93049 -0.321003 0
M  V30 1383 C 132.68 0.587121 -3.52545 0
M  V30 1384 C 132.346 -0.575472 -4.47213 0
M  V30 1385 C 131.008 -0.894497 -4.72813 0
M  V30 1386 C 133.36 -1.35489 -5.03281 0
M  V30 1387 C 130.688 -1.99511 -5.51736 0
M  V30 1388 C 133.04 -2.44583 -5.83405 0
M  V30 1389 C 131.704 -2.77033 -6.07296 0
M  V30 1390 H 130.974 0.0872526 -0.735845 0
M  V30 1391 H 133.621 -0.484859 -1.8526 0
M  V30 1392 H 131.926 1.39129 -3.66265 0
M  V30 1393 H 133.623 1.05809 -3.86789 0
M  V30 1394 H 130.213 -0.316774 -4.27428 0
M  V30 1395 H 134.397 -1.12167 -4.83459 0
M  V30 1396 H 129.653 -2.25063 -5.68469 0
M  V30 1397 H 133.827 -3.05401 -6.25862 0
M  V30 1398 H 131.454 -3.6244 -6.68237 0
M  V30 1399 N 133.029 1.57378 -0.0835403 0
M  V30 1400 C 134.275 1.94217 0.583733 0
M  V30 1401 C 134.608 0.964653 1.68547 0
M  V30 1402 O 133.883 -0.00422258 1.945 0
M  V30 1403 C 134.166 3.41253 1.14972 0
M  V30 1404 C 134.019 4.49768 0.0538277 0
M  V30 1405 C 135.338 3.89352 2.05166 0
M  V30 1406 H 132.457 0.706233 0.210724 0
M  V30 1407 H 135.099 1.89392 -0.1519 0
M  V30 1408 H 133.249 3.45496 1.77665 0
M  V30 1409 H 134.921 4.57641 -0.579851 0
M  V30 1410 H 133.164 4.29432 -0.614068 0
M  V30 1411 H 133.835 5.49817 0.490452 0
M  V30 1412 H 136.311 3.87189 1.52393 0
M  V30 1413 H 135.187 4.92822 2.41698 0
M  V30 1414 H 135.448 3.27973 2.96456 0
M  V30 1415 N 134.507 -0.190092 1.56449 0
M  V30 1416 C 135.747 -0.916414 1.82705 0
M  V30 1417 C 136.111 -1.80235 0.661763 0
M  V30 1418 O 137.312 -2.56484 0.80433 0
M  V30 1419 C 135.583 -1.70691 3.14005 0
M  V30 1420 S 137.142 -2.48457 3.61683 0
M  V30 1421 H 133.96 -0.307281 0.64117 0
M  V30 1422 H 136.562 -0.179433 1.94675 0
M  V30 1423 H 135.266 -1.04677 3.96826 0
M  V30 1424 H 134.797 -2.48562 3.04927 0
M  V30 1425 H 136.812 -3.72756 3.27517 0
M  V30 1426 N 135.985 -1.50799 -0.457987 0
M  V30 1427 C 136.932 -1.70617 -1.5543 0
M  V30 1428 C 137.902 -0.547562 -1.56815 0
M  V30 1429 O 139.087 -0.779647 -1.74144 0
M  V30 1430 C 136.227 -1.81831 -2.93311 0
M  V30 1431 C 135.34 -3.09278 -3.01615 0
M  V30 1432 C 134.475 -3.11209 -4.30491 0
M  V30 1433 C 133.514 -4.33055 -4.32585 0
M  V30 1434 N 132.651 -4.32652 -5.52952 0
M  V30 1435 H 137.491 -2.64207 -1.37836 0
M  V30 1436 H 135.028 -1.30959 -0.669937 0
M  V30 1437 H 136.986 -1.86314 -3.73287 0
M  V30 1438 H 135.616 -0.916685 -3.0951 0
M  V30 1439 H 134.668 -3.14203 -2.1443 0
M  V30 1440 H 135.98 -3.99233 -2.99022 0
M  V30 1441 H 135.134 -3.14494 -5.18824 0
M  V30 1442 H 133.873 -2.19106 -4.35711 0
M  V30 1443 H 132.878 -4.29969 -3.42647 0
M  V30 1444 H 134.103 -5.264 -4.29046 0
M  V30 1445 H 132.049 -3.43409 -5.58933 0
M  V30 1446 H 131.966 -5.16392 -5.52155 0
M  V30 1447 H 133.234 -4.40101 -6.43375 0
M  V30 1448 N 137.463 0.71206 -1.40597 0
M  V30 1449 C 138.413 1.81783 -1.37619 0
M  V30 1450 C 139.397 1.58896 -0.253162 0
M  V30 1451 O 140.589 1.70009 -0.492547 0
M  V30 1452 C 137.718 3.19944 -1.24462 0
M  V30 1453 C 136.804 3.48582 -2.4156 0
M  V30 1454 N 137.195 3.48016 -3.67041 0
M  V30 1455 C 135.493 3.79056 -2.35016 0
M  V30 1456 C 136.194 3.75096 -4.44609 0
M  V30 1457 N 135.17 3.94022 -3.74497 0
M  V30 1458 H 138.972 1.79683 -2.32575 0
M  V30 1459 H 136.486 0.91134 -1.34419 0
M  V30 1460 H 138.483 3.99133 -1.20411 0
M  V30 1461 H 137.143 3.23267 -0.304762 0
M  V30 1462 H 138.154 3.28782 -4.00153 0
M  V30 1463 H 134.831 3.89848 -1.49415 0
M  V30 1464 H 136.221 3.80934 -5.53479 0
M  V30 1465 N 138.941 1.26152 0.944643 0
M  V30 1466 C 140.166 1.14363 1.7302 0
M  V30 1467 C 140.591 -0.29772 1.85729 0
M  V30 1468 O 139.949 -1.2157 1.34501 0
M  V30 1469 C 139.997 1.81378 3.11664 0
M  V30 1470 O 139.101 1.10022 3.97453 0
M  V30 1471 H 138.442 0.398694 0.53098 0
M  V30 1472 H 140.972 1.66906 1.18337 0
M  V30 1473 H 140.982 1.88064 3.62072 0
M  V30 1474 H 139.657 2.86237 3.0173 0
M  V30 1475 H 138.234 1.11287 3.55907 0
M  V30 1476 N 140.419 -1.14872 1.07899 0
M  V30 1477 C 141.352 -2.18794 0.64841 0
M  V30 1478 C 142.33 -1.59065 -0.337189 0
M  V30 1479 O 143.514 -1.86936 -0.242284 0
M  V30 1480 C 140.641 -3.38667 -0.0470417 0
M  V30 1481 C 139.687 -4.16942 0.897884 0
M  V30 1482 S 140.52 -4.78615 2.40183 0
M  V30 1483 C 141.676 -6.0185 1.71834 0
M  V30 1484 H 141.909 -2.5498 1.52881 0
M  V30 1485 H 139.442 -1.25922 0.893484 0
M  V30 1486 H 141.4 -4.08113 -0.442027 0
M  V30 1487 H 140.061 -3.00814 -0.903861 0
M  V30 1488 H 139.254 -5.02726 0.358096 0
M  V30 1489 H 138.856 -3.53073 1.23352 0
M  V30 1490 H 141.148 -6.69574 1.03328 0
M  V30 1491 H 142.091 -6.60408 2.55473 0
M  V30 1492 H 142.499 -5.5173 1.19392 0
M  V30 1493 N 141.898 -0.863906 -1.31812 0
M  V30 1494 C 143.144 -0.472535 -1.97218 0
M  V30 1495 C 143.477 0.971394 -1.68159 0
M  V30 1496 O 142.752 1.68309 -0.974798 0
M  V30 1497 C 143.035 -0.723054 -3.52766 0
M  V30 1498 C 142.888 -2.21608 -3.91421 0
M  V30 1499 C 144.207 -0.185522 -4.39709 0
M  V30 1500 H 141.326 -0.173158 -0.71637 0
M  V30 1501 H 143.968 -1.08403 -1.56041 0
M  V30 1502 H 142.118 -0.202577 -3.87971 0
M  V30 1503 H 143.79 -2.80334 -3.66347 0
M  V30 1504 H 142.033 -2.691 -3.40246 0
M  V30 1505 H 142.704 -2.34203 -4.99853 0
M  V30 1506 H 145.18 -0.630726 -4.11292 0
M  V30 1507 H 144.056 -0.390306 -5.47511 0
M  V30 1508 H 144.317 0.912229 -4.32586 0
M  V30 1509 N 143.376 1.44774 -0.622745 0
M  V30 1510 C 144.653 1.95522 -0.0551974 0
M  V30 1511 C 145.033 1.5649 1.41683 0
M  V30 1512 O 144.381 0.834848 2.12703 0
M  V30 1513 C 144.591 3.4796 -0.269242 0
M  V30 1514 C 145.939 4.24306 -0.158014 0
M  V30 1515 O 146.963 3.55637 -0.200162 0
M  V30 1516 O 145.822 5.46471 -0.0558693 0
M  V30 1517 H 142.916 0.826556 0.0271015 0
M  V30 1518 H 145.462 1.54866 -0.693864 0
M  V30 1519 H 144.234 3.6939 -1.29099 0
M  V30 1520 H 143.857 3.95543 0.403966 0
M  V30 1521 N 144.854 0.36279 1.53368 0
M  V30 1522 C 146.27 0.0116182 1.59596 0
M  V30 1523 C 146.47 -1.47012 1.37803 0
M  V30 1524 O 145.526 -2.23136 1.18181 0
M  V30 1525 C 146.839 0.465052 2.97082 0
M  V30 1526 C 148.387 0.419033 3.10182 0
M  V30 1527 C 148.862 0.848235 4.50077 0
M  V30 1528 N 150.353 0.803183 4.56183 0
M  V30 1529 C 151.088 1.107 5.62613 0
M  V30 1530 N 150.584 1.47996 6.76808 0
M  V30 1531 N 152.377 1.02998 5.52583 0
M  V30 1532 H 144.528 1.32775 1.65785 0
M  V30 1533 H 146.791 0.542518 0.777417 0
M  V30 1534 H 146.497 1.49892 3.18159 0
M  V30 1535 H 146.371 -0.149786 3.76902 0
M  V30 1536 H 148.758 -0.605696 2.88817 0
M  V30 1537 H 148.839 1.06933 2.32377 0
M  V30 1538 H 148.483 1.87107 4.7218 0
M  V30 1539 H 148.413 0.175218 5.26308 0
M  V30 1540 H 150.904 0.52838 3.74188 0
M  V30 1541 H 151.217 1.69613 7.53957 0
M  V30 1542 H 149.562 1.51859 6.78206 0
M  V30 1543 H 152.753 0.737817 4.62249 0
M  V30 1544 H 152.926 1.2701 6.35431 0
M  V30 1545 N 146.332 -1.57332 0.0918853 0
M  V30 1546 C 147.58 -1.93853 -0.571446 0
M  V30 1547 C 147.901 -0.974212 -1.6892 0
M  V30 1548 O 147.171 -0.0257254 -1.95883 0
M  V30 1549 H 145.751 -0.715666 -0.214082 0
M  V30 1550 H 148.413 -1.94287 0.154464 0
M  V30 1551 H 147.509 -2.96191 -0.983729 0
M  V30 1552 N 147.81 0.181792 -1.56548 0
M  V30 1553 C 149.056 0.896803 -1.82562 0
M  V30 1554 C 149.411 1.80324 -0.670908 0
M  V30 1555 O 148.704 1.8868 0.333235 0
M  V30 1556 C 148.898 1.73728 -3.12335 0
M  V30 1557 C 148.727 0.913714 -4.4032 0
M  V30 1558 C 147.497 0.592903 -5.01809 0
M  V30 1559 C 149.695 0.260164 -5.13642 0
M  V30 1560 N 147.677 -0.247901 -6.13399 0
M  V30 1561 C 149.048 -0.442256 -6.18421 0
M  V30 1562 C 151.103 0.177253 -4.97584 0
M  V30 1563 C 149.806 -1.21971 -7.08883 0
M  V30 1564 C 151.832 -0.586839 -5.88481 0
M  V30 1565 C 151.194 -1.27766 -6.92716 0
M  V30 1566 H 147.293 0.307122 -0.719166 0
M  V30 1567 H 149.877 0.164535 -1.94004 0
M  V30 1568 H 148.048 2.44105 -3.02105 0
M  V30 1569 H 149.78 2.39279 -3.26386 0
M  V30 1570 H 146.535 0.920502 -4.64568 0
M  V30 1571 H 146.959 -0.658304 -6.73792 0
M  V30 1572 H 151.601 0.696993 -4.17015 0
M  V30 1573 H 149.319 -1.75083 -7.88905 0
M  V30 1574 H 152.905 -0.652522 -5.78129 0
M  V30 1575 H 151.785 -1.85943 -7.61836 0
M  V30 1576 N 149.288 1.51039 0.449983 0
M  V30 1577 C 150.536 1.62759 1.19808 0
M  V30 1578 C 150.857 0.339981 1.92013 0
M  V30 1579 O 150.127 -0.643606 1.85026 0
M  V30 1580 H 148.707 0.599811 0.445237 0
M  V30 1581 H 151.369 1.87914 0.517138 0
M  V30 1582 H 150.465 2.44911 1.93455 0
M  V30 1583 N 150.766 -0.704594 1.40972 0
M  V30 1584 C 151.714 -1.83994 1.42299 0
M  V30 1585 C 152.708 -1.66684 0.302111 0
M  V30 1586 O 153.914 -1.73655 0.473697 0
M  V30 1587 H 150.289 -0.606171 0.44504 0
M  V30 1588 H 152.26 -1.79992 2.38003 0
M  V30 1589 C 151.009 -3.21946 1.31323 0
M  V30 1590 H 150.332 -3.35878 2.16855 0
M  V30 1591 H 151.772 -4.01491 1.36311 0
M  V30 1592 C 150.231 -3.36891 0.0245977 0
M  V30 1593 O 150.761 -3.90687 -0.934153 0
M  V30 1594 N 148.967 -2.90559 -0.0485243 0
M  V30 1595 H 148.514 -2.46968 0.732419 0
M  V30 1596 H 148.472 -3.00937 -0.910171 0
M  V30 1597 N 152.244 -1.26651 -0.937939 0
M  V30 1598 C 153.492 -1.12165 -1.68118 0
M  V30 1599 C 153.813 0.334983 -1.92101 0
M  V30 1600 O 153.083 1.23583 -1.52 0
M  V30 1601 H 151.663 -0.412093 -0.623048 0
M  V30 1602 H 154.325 -1.59027 -1.12678 0
M  V30 1603 H 153.421 -1.64289 -2.6536 0
M  V30 1604 N 153.722 1.14298 -1.08507 0
M  V30 1605 C 154.962 1.87016 -0.824894 0
M  V30 1606 C 155.326 1.81099 0.637735 0
M  V30 1607 O 156.527 2.48963 1.01345 0
M  V30 1608 C 154.798 3.31584 -1.33368 0
M  V30 1609 S 156.357 4.21903 -1.20596 0
M  V30 1610 H 153.175 0.645259 -0.2986 0
M  V30 1611 H 155.777 1.37822 -1.38656 0
M  V30 1612 H 154.481 3.33439 -2.39262 0
M  V30 1613 H 154.012 3.85836 -0.767734 0
M  V30 1614 H 156.027 4.95971 -0.150891 0
M  V30 1615 N 155.201 0.870884 1.31352 0
M  V30 1616 C 156.449 0.48132 1.96285 0
M  V30 1617 C 156.77 -0.969813 1.69173 0
M  V30 1618 O 156.04 -1.67998 1.00764 0
M  V30 1619 H 154.62 0.175002 0.726212 0
M  V30 1620 H 157.282 1.11087 1.60143 0
M  V30 1621 H 156.378 0.639825 3.05471 0
M  V30 1622 N 156.679 -1.44442 0.630414 0
M  V30 1623 C 157.609 -2.33418 -0.0618083 0
M  V30 1624 C 158.59 -1.48165 -0.835541 0
M  V30 1625 O 159.775 -1.76886 -0.801564 0
M  V30 1626 C 156.905 -3.31222 -1.04449 0
M  V30 1627 C 155.859 -4.26288 -0.382436 0
M  V30 1628 C 155.185 -5.13954 -1.47497 0
M  V30 1629 C 156.485 -5.1744 0.710865 0
M  V30 1630 H 158.179 -2.91548 0.681184 0
M  V30 1631 H 155.725 -1.40191 0.329026 0
M  V30 1632 H 157.678 -3.92351 -1.53748 0
M  V30 1633 H 156.402 -2.71299 -1.81836 0
M  V30 1634 H 155.061 -3.6649 0.0899054 0
M  V30 1635 H 154.709 -4.50385 -2.2397 0
M  V30 1636 H 154.409 -5.7837 -1.03737 0
M  V30 1637 H 155.933 -5.77955 -1.96979 0
M  V30 1638 H 157.347 -5.72509 0.300996 0
M  V30 1639 H 155.744 -5.90455 1.07156 0
M  V30 1640 H 156.814 -4.58496 1.57829 0
M  V30 1641 N 158.157 -0.370918 -1.53173 0
M  V30 1642 C 159.404 0.217102 -2.01333 0
M  V30 1643 C 159.732 1.48338 -1.25802 0
M  V30 1644 O 158.987 1.92698 -0.34146 0
M  V30 1645 C 159.286 0.549696 -3.53147 0
M  V30 1646 C 158.952 -0.622872 -4.46577 0
M  V30 1647 C 157.614 -0.944595 -4.71838 0
M  V30 1648 C 159.966 -1.40819 -5.01816 0
M  V30 1649 C 157.294 -2.05351 -5.49589 0
M  V30 1650 C 159.646 -2.50757 -5.80778 0
M  V30 1651 C 158.31 -2.83458 -6.04324 0
M  V30 1652 H 157.58 0.0794431 -0.736729 0
M  V30 1653 H 160.227 -0.504481 -1.84736 0
M  V30 1654 H 158.532 1.35237 -3.6772 0
M  V30 1655 H 160.229 1.017 -3.87889 0
M  V30 1656 H 156.819 -0.36209 -4.27068 0
M  V30 1657 H 161.003 -1.17289 -4.82242 0
M  V30 1658 H 156.259 -2.3108 -5.6605 0
M  V30 1659 H 160.433 -3.12022 -6.22588 0
M  V30 1660 H 158.06 -3.69508 -6.64355 0
M  V30 1661 N 159.635 1.57281 -0.100228 0
M  V30 1662 C 160.883 1.94153 0.561157 0
M  V30 1663 C 161.204 0.983157 1.68401 0
M  V30 1664 O 160.474 0.0361132 1.95867 0
M  V30 1665 H 159.054 0.716791 0.210283 0
M  V30 1666 H 161.716 1.94202 -0.164765 0
M  V30 1667 H 160.812 2.96709 0.968008 0
M  V30 1668 N 161.113 -0.173488 1.56642 0
M  V30 1669 C 162.06 -1.21482 1.96242 0
M  V30 1670 C 163.03 -1.44104 0.826027 0
M  V30 1671 O 164.215 -1.5688 1.08597 0
M  V30 1672 C 161.355 -2.54964 2.32567 0
M  V30 1673 C 160.468 -2.39739 3.59373 0
M  V30 1674 C 159.603 -3.66072 3.84921 0
M  V30 1675 C 158.642 -3.45771 5.05083 0
M  V30 1676 N 157.779 -4.64169 5.26775 0
M  V30 1677 H 162.619 -0.870123 2.85014 0
M  V30 1678 H 160.156 -0.418245 1.41029 0
M  V30 1679 H 162.114 -3.32758 2.5165 0
M  V30 1680 H 160.744 -2.87433 1.46908 0
M  V30 1681 H 159.796 -1.53131 3.48217 0
M  V30 1682 H 161.108 -2.20683 4.47326 0
M  V30 1683 H 160.262 -4.52303 4.0436 0
M  V30 1684 H 159.001 -3.88105 2.9534 0
M  V30 1685 H 158.006 -2.57927 4.85545 0
M  V30 1686 H 159.231 -3.25163 5.96193 0
M  V30 1687 H 157.177 -4.86425 4.40144 0
M  V30 1688 H 157.094 -4.48019 6.08946 0
M  V30 1689 H 158.362 -5.51689 5.5069 0
M  V30 1690 N 162.591 -1.51276 -0.441967 0
M  V30 1691 C 163.839 -1.63392 -1.18943 0
M  V30 1692 C 164.16 -0.350159 -1.9183 0
M  V30 1693 O 163.43 0.633784 -1.85364 0
M  V30 1694 H 162.01 -0.602164 -0.442049 0
M  V30 1695 H 164.672 -1.88186 -0.507165 0
M  V30 1696 H 163.768 -2.45934 -1.92154 0
M  V30 1697 N 164.069 0.697108 -1.41344 0
M  V30 1698 C 165.317 1.45426 -1.40341 0
M  V30 1699 C 165.638 1.94996 -0.0128787 0
M  V30 1700 O 164.908 1.71599 0.945027 0
M  V30 1701 H 163.488 0.539594 -0.516573 0
M  V30 1702 H 166.15 0.825201 -1.76569 0
M  V30 1703 H 165.246 2.31817 -2.08967 0
M  V30 1704 N 165.547 1.27147 0.931209 0
M  V30 1705 C 166.796 1.12664 1.67302 0
M  V30 1706 C 167.109 -0.327718 1.92835 0
M  V30 1707 O 168.315 -0.593392 2.64936 0
M  V30 1708 C 166.771 1.9683 3.01307 0
M  V30 1709 C 166.379 3.46901 2.83485 0
M  V30 1710 C 168.123 1.90985 3.79111 0
M  V30 1711 C 166.03 4.23279 4.13024 0
M  V30 1712 H 164.96 0.41803 0.627509 0
M  V30 1713 H 167.611 1.51539 1.03481 0
M  V30 1714 H 165.993 1.50797 3.66164 0
M  V30 1715 H 167.167 4.00773 2.27415 0
M  V30 1716 H 165.482 3.54088 2.19113 0
M  V30 1717 H 168.079 2.45328 4.75098 0
M  V30 1718 H 168.422 0.882718 4.06834 0
M  V30 1719 H 168.955 2.34895 3.21044 0
M  V30 1720 H 165.694 5.26503 3.90481 0
M  V30 1721 H 165.214 3.74186 4.6877 0
M  V30 1722 H 166.893 4.32265 4.81411 0
M  V30 1723 N 167.025 -1.13721 1.09112 0
M  V30 1724 C 168.271 -1.85198 0.826414 0
M  V30 1725 C 168.604 -1.83129 -0.646319 0
M  V30 1726 O 167.879 -1.2671 -1.47563 0
M  V30 1727 C 168.162 -3.33507 1.35812 0
M  V30 1728 C 168.015 -3.44108 2.89672 0
M  V30 1729 C 169.334 -4.28838 0.989256 0
M  V30 1730 H 166.453 -0.67243 0.301675 0
M  V30 1731 H 169.095 -1.33499 1.35197 0
M  V30 1732 H 167.245 -3.77666 0.911082 0
M  V30 1733 H 168.917 -3.08684 3.428 0
M  V30 1734 H 167.16 -2.85087 3.26967 0
M  V30 1735 H 167.831 -4.48388 3.21951 0
M  V30 1736 H 170.307 -3.92734 1.37475 0
M  V30 1737 H 169.183 -5.31051 1.38838 0
M  V30 1738 H 169.444 -4.4198 -0.102924 0
M  V30 1739 N 168.503 -0.877838 -1.30888 0
M  V30 1740 C 169.731 -0.507414 -2.00581 0
M  V30 1741 C 170.146 0.902216 -1.65848 0
M  V30 1742 O 169.503 1.59225 -0.891831 0
M  V30 1743 C 169.554 -0.664162 -3.55347 0
M  V30 1744 O 169.275 -2.01829 -3.8884 0
M  V30 1745 C 170.776 -0.295787 -4.42312 0
M  V30 1746 H 167.996 -0.196866 -0.641471 0
M  V30 1747 H 170.54 -1.18117 -1.66939 0
M  V30 1748 H 168.695 -0.0378619 -3.87381 0
M  V30 1749 H 169.109 -2.03174 -4.8355 0
M  V30 1750 H 170.583 -0.456388 -5.5011 0
M  V30 1751 H 171.06 0.765663 -4.32475 0
M  V30 1752 H 171.666 -0.898113 -4.15709 0
M  V30 1753 N 169.982 1.44106 -0.638065 0
M  V30 1754 C 171.222 2.03858 -0.148733 0
M  V30 1755 C 171.586 1.49153 1.20903 0
M  V30 1756 O 172.787 2.00452 1.79088 0
M  V30 1757 C 171.058 3.57117 -0.142314 0
M  V30 1758 S 172.617 4.37897 0.281385 0
M  V30 1759 H 169.435 0.708069 -0.0644912 0
M  V30 1760 H 172.037 1.7639 -0.843009 0
M  V30 1761 H 170.741 3.94436 -1.13349 0
M  V30 1762 H 170.272 3.89205 0.572988 0
M  V30 1763 H 172.287 4.72218 1.52395 0
M  V30 1764 N 171.46 0.379036 1.52974 0
M  V30 1765 C 172.423 -0.448865 2.24762 0
M  V30 1766 C 173.423 -0.998689 1.26027 0
M  V30 1767 O 174.613 -0.882313 1.50203 0
M  V30 1768 C 171.745 -1.62872 2.99476 0
M  V30 1769 H 172.938 0.179491 2.99362 0
M  V30 1770 H 170.491 0.13096 1.5575 0
M  V30 1771 H 171.226 -2.29479 2.29151 0
M  V30 1772 H 171.011 -1.24128 3.71934 0
M  V30 1773 H 172.501 -2.2151 3.5401 0
M  V30 1774 N 172.938 -1.57226 0.108567 0
M  V30 1775 C 173.871 -2.10447 -0.882464 0
M  V30 1776 C 174.849 -1.01829 -1.26766 0
M  V30 1777 O 176.033 -1.29415 -1.37054 0
M  V30 1778 C 173.16 -2.59258 -2.17952 0
M  V30 1779 C 172.206 -3.79662 -1.94318 0
M  V30 1780 S 173.039 -5.22586 -1.16892 0
M  V30 1781 C 174.195 -5.74758 -2.47799 0
M  V30 1782 H 174.428 -2.94178 -0.429745 0
M  V30 1783 H 171.961 -1.54043 -0.105 0
M  V30 1784 H 173.919 -2.88036 -2.92482 0
M  V30 1785 H 172.58 -1.75728 -2.60343 0
M  V30 1786 H 171.773 -4.11928 -2.90399 0
M  V30 1787 H 171.375 -3.51446 -1.27913 0
M  V30 1788 H 173.667 -5.83846 -3.43701 0
M  V30 1789 H 174.61 -6.73027 -2.20093 0
M  V30 1790 H 175.018 -5.02763 -2.56689 0
M  V30 1791 N 174.416 0.165178 -1.56732 0
M  V30 1792 C 175.663 0.880807 -1.8234 0
M  V30 1793 C 175.991 1.81977 -0.686621 0
M  V30 1794 O 175.246 1.92971 0.325697 0
M  V30 1795 C 175.545 1.70405 -3.1416 0
M  V30 1796 C 175.211 0.913475 -4.4155 0
M  V30 1797 C 173.873 0.695303 -4.7615 0
M  V30 1798 C 176.225 0.359349 -5.1996 0
M  V30 1799 C 173.553 -0.0879947 -5.86634 0
M  V30 1800 C 175.905 -0.410893 -6.31264 0
M  V30 1801 C 174.569 -0.639808 -6.64427 0
M  V30 1802 H 173.839 0.32231 -0.667231 0
M  V30 1803 H 176.486 0.145402 -1.90947 0
M  V30 1804 H 174.791 2.50903 -3.00923 0
M  V30 1805 H 176.488 2.26091 -3.31186 0
M  V30 1806 H 173.078 1.09357 -4.14414 0
M  V30 1807 H 177.262 0.515228 -4.93618 0
M  V30 1808 H 172.518 -0.27503 -6.10781 0
M  V30 1809 H 176.692 -0.847494 -6.91224 0
M  V30 1810 H 174.319 -1.24864 -7.49875 0
M  V30 1811 N 175.894 1.51508 0.433938 0
M  V30 1812 C 177.122 1.68157 1.20543 0
M  V30 1813 C 177.537 0.380362 1.84929 0
M  V30 1814 O 176.894 -0.641446 1.70856 0
M  V30 1815 C 176.945 2.79965 2.28696 0
M  V30 1816 O 176.666 4.05045 1.66943 0
M  V30 1817 C 178.167 3.07912 3.18912 0
M  V30 1818 H 175.387 0.56421 0.363191 0
M  V30 1819 H 177.931 1.97941 0.513754 0
M  V30 1820 H 176.086 2.5277 2.93574 0
M  V30 1821 H 176.5 4.67165 2.38448 0
M  V30 1822 H 177.974 3.89719 3.90926 0
M  V30 1823 H 178.451 2.20456 3.79863 0
M  V30 1824 H 179.057 3.36779 2.59731 0
M  V30 1825 N 177.372 -0.689602 1.41712 0
M  V30 1826 C 178.612 -1.46184 1.42862 0
M  V30 1827 C 178.976 -1.91962 0.0382204 0
M  V30 1828 O 180.177 -2.68694 -0.0755019 0
M  V30 1829 C 178.448 -2.6371 2.4123 0
M  V30 1830 S 180.007 -3.52768 2.6096 0
M  V30 1831 H 176.825 -0.49947 0.506015 0
M  V30 1832 H 179.427 -0.804107 1.78198 0
M  V30 1833 H 178.131 -2.28293 3.41044 0
M  V30 1834 H 177.662 -3.3437 2.07269 0
M  V30 1835 H 179.677 -4.59146 1.88148 0
M  V30 1836 N 178.85 -1.27639 -0.924453 0
M  V30 1837 C 179.797 -1.10644 -2.0255 0
M  V30 1838 C 180.767 -0.00658438 -1.66099 0
M  V30 1839 O 181.952 -0.16952 -1.90045 0
M  V30 1840 C 179.092 -0.76309 -3.36557 0
M  V30 1841 C 178.205 -1.94091 -3.85944 0
M  V30 1842 C 177.34 -1.53914 -5.08413 0
M  V30 1843 C 176.379 -2.68425 -5.50104 0
M  V30 1844 N 175.516 -2.28815 -6.63768 0
M  V30 1845 H 180.356 -2.04858 -2.16419 0
M  V30 1846 H 177.893 -1.01974 -1.06017 0
M  V30 1847 H 179.851 -0.544822 -4.13627 0
M  V30 1848 H 178.481 0.142102 -3.22487 0
M  V30 1849 H 177.533 -2.27162 -3.05125 0
M  V30 1850 H 178.845 -2.7998 -4.12811 0
M  V30 1851 H 177.999 -1.28231 -5.92994 0
M  V30 1852 H 176.738 -0.651391 -4.8333 0
M  V30 1853 H 175.743 -2.94819 -4.64071 0
M  V30 1854 H 176.968 -3.57826 -5.7718 0
M  V30 1855 H 174.914 -1.42495 -6.40337 0
M  V30 1856 H 174.831 -3.08242 -6.90306 0
M  V30 1857 H 176.099 -2.06387 -7.51681 0
M  V30 1858 N 180.328 1.1314 -1.09713 0
M  V30 1859 C 181.275 2.18642 -0.739196 0
M  V30 1860 C 182.245 1.63706 0.280978 0
M  V30 1861 O 183.43 1.90111 0.161946 0
M  V30 1862 C 180.57 3.44685 -0.169102 0
M  V30 1863 C 179.683 4.13711 -1.24367 0
M  V30 1864 C 178.818 5.27379 -0.636019 0
M  V30 1865 C 177.857 5.88259 -1.69169 0
M  V30 1866 N 176.994 6.93352 -1.10485 0
M  V30 1867 H 181.834 2.48607 -1.64312 0
M  V30 1868 H 179.371 1.22066 -0.820875 0
M  V30 1869 H 181.329 4.16815 0.179256 0
M  V30 1870 H 179.959 3.15161 0.698079 0
M  V30 1871 H 179.011 3.39835 -1.70927 0
M  V30 1872 H 180.323 4.55037 -2.04311 0
M  V30 1873 H 179.477 6.06238 -0.236677 0
M  V30 1874 H 178.216 4.8731 0.194928 0
M  V30 1875 H 177.221 5.08092 -2.10055 0
M  V30 1876 H 178.446 6.30399 -2.52536 0
M  V30 1877 H 176.392 6.55335 -0.295234 0
M  V30 1878 H 176.309 7.33236 -1.84121 0
M  V30 1879 H 177.577 7.76057 -0.73181 0
M  V30 1880 N 181.806 0.884767 1.30421 0
M  V30 1881 C 182.754 0.340869 2.30089 0
M  V30 1882 C 183.748 -0.55201 1.60154 0
M  V30 1883 O 184.954 -0.436467 1.74628 0
M  V30 1884 H 181.329 0.0915739 0.746404 0
M  V30 1885 H 183.3 1.19513 2.73421 0
M  V30 1886 C 182.049 -0.429779 3.45034 0
M  V30 1887 H 181.372 0.248024 3.9903 0
M  V30 1888 H 182.812 -0.775445 4.16849 0
M  V30 1889 C 181.271 -1.62677 2.95022 0
M  V30 1890 O 181.801 -2.72614 2.95033 0
M  V30 1891 N 180.007 -1.46387 2.51036 0
M  V30 1892 H 179.554 -0.569506 2.51226 0
M  V30 1893 H 179.512 -2.26612 2.17932 0
M  V30 1894 N 183.284 -1.43765 0.645699 0
M  V30 1895 C 184.217 -2.2798 -0.100072 0
M  V30 1896 C 185.195 -1.39391 -0.837194 0
M  V30 1897 O 186.379 -1.68833 -0.838306 0
M  V30 1898 C 183.506 -3.18643 -1.14823 0
M  V30 1899 C 182.552 -4.2344 -0.510009 0
M  V30 1900 S 183.385 -5.30761 0.710824 0
M  V30 1901 C 184.541 -6.24992 -0.33699 0
M  V30 1902 H 184.774 -2.90884 0.614322 0
M  V30 1903 H 182.307 -1.48166 0.434304 0
M  V30 1904 H 184.265 -3.71424 -1.74799 0
M  V30 1905 H 182.926 -2.54932 -1.8349 0
M  V30 1906 H 182.119 -4.86948 -1.29991 0
M  V30 1907 H 181.721 -3.73997 0.0154577 0
M  V30 1908 H 184.013 -6.66691 -1.20537 0
M  V30 1909 H 184.956 -7.07612 0.262879 0
M  V30 1910 H 185.364 -5.60517 -0.669425 0
M  V30 1911 N 184.763 -0.387143 -1.52771 0
M  V30 1912 C 185.673 0.456442 -2.30117 0
M  V30 1913 C 186.689 1.07342 -1.36944 0
M  V30 1914 O 187.865 1.07971 -1.70013 0
M  V30 1915 C 184.93 1.56957 -3.09136 0
M  V30 1916 C 183.991 0.977916 -4.18014 0
M  V30 1917 C 183.224 2.038 -4.93256 0
M  V30 1918 O 183.447 3.25271 -4.68567 0
M  V30 1919 O 182.381 1.6565 -5.78657 0
M  V30 1920 H 186.207 -0.17359 -3.03203 0
M  V30 1921 H 183.792 -0.150919 -1.48636 0
M  V30 1922 H 185.674 2.21628 -3.58412 0
M  V30 1923 H 184.349 2.18461 -2.38865 0
M  V30 1924 H 183.256 0.294525 -3.72939 0
M  V30 1925 H 184.589 0.407128 -4.90513 0
M  V30 1926 N 186.241 1.57166 -0.116904 0
M  V30 1927 C 187.489 1.94737 0.540533 0
M  V30 1928 C 187.81 1.00096 1.67349 0
M  V30 1929 O 187.08 0.0568854 1.95817 0
M  V30 1930 H 185.66 0.718981 0.202669 0
M  V30 1931 H 188.322 1.94017 -0.185353 0
M  V30 1932 H 187.418 2.97719 0.936483 0
M  V30 1933 N 187.719 -0.156864 1.56817 0
M  V30 1934 C 188.666 -1.19394 1.97519 0
M  V30 1935 C 189.636 -1.4322 0.841265 0
M  V30 1936 O 190.821 -1.55719 1.10255 0
M  V30 1937 C 187.961 -2.52483 2.35258 0
M  V30 1938 C 187.074 -2.35914 3.61896 0
M  V30 1939 C 186.209 -3.61969 3.88782 0
M  V30 1940 C 185.248 -3.40395 5.08722 0
M  V30 1941 N 184.385 -4.58556 5.31668 0
M  V30 1942 H 189.225 -0.839845 2.85921 0
M  V30 1943 H 186.762 -0.403264 1.41464 0
M  V30 1944 H 188.72 -3.30071 2.55165 0
M  V30 1945 H 187.35 -2.85859 1.49949 0
M  V30 1946 H 186.402 -1.49429 3.49821 0
M  V30 1947 H 187.714 -2.15926 4.49641 0
M  V30 1948 H 186.868 -4.47989 4.09135 0
M  V30 1949 H 185.607 -3.84951 2.9944 0
M  V30 1950 H 184.612 -2.52763 4.88253 0
M  V30 1951 H 185.837 -3.18822 5.99608 0
M  V30 1952 H 183.783 -4.81729 4.45279 0
M  V30 1953 H 183.7 -4.41535 6.13664 0
M  V30 1954 H 184.968 -5.45817 5.5651 0
M  V30 1955 N 189.197 -1.51736 -0.425897 0
M  V30 1956 C 190.446 -1.64201 -1.17136 0
M  V30 1957 C 190.759 -0.369705 -1.92074 0
M  V30 1958 O 191.965 -0.373898 -2.68913 0
M  V30 1959 C 190.421 -2.90035 -2.13091 0
M  V30 1960 C 190.029 -4.24312 -1.43747 0
M  V30 1961 C 191.773 -3.1186 -2.87999 0
M  V30 1962 C 189.68 -5.41285 -2.38253 0
M  V30 1963 H 188.61 -0.611624 -0.440944 0
M  V30 1964 H 191.261 -1.78212 -0.437328 0
M  V30 1965 H 189.643 -2.69684 -2.89977 0
M  V30 1966 H 190.817 -4.55086 -0.723408 0
M  V30 1967 H 189.132 -4.08456 -0.809465 0
M  V30 1968 H 191.729 -3.96427 -3.58817 0
M  V30 1969 H 192.072 -2.25403 -3.49999 0
M  V30 1970 H 192.605 -3.32605 -2.18217 0
M  V30 1971 H 189.344 -6.30037 -1.80925 0
M  V30 1972 H 188.864 -5.14872 -3.0768 0
M  V30 1973 H 190.543 -5.73694 -2.99139 0
M  V30 1974 N 190.675 0.682077 -1.42076 0
M  V30 1975 C 191.921 1.44428 -1.42367 0
M  V30 1976 C 192.254 1.94164 -0.0373056 0
M  V30 1977 O 191.529 1.70429 0.937239 0
M  V30 1978 C 191.812 2.64654 -2.44194 0
M  V30 1979 C 191.665 2.20596 -3.91991 0
M  V30 1980 C 192.984 3.66865 -2.431 0
M  V30 1981 H 190.103 0.523834 -0.518428 0
M  V30 1982 H 192.745 0.77576 -1.73442 0
M  V30 1983 H 190.895 3.2169 -2.17826 0
M  V30 1984 H 192.567 1.68783 -4.29313 0
M  V30 1985 H 190.81 1.52242 -4.06208 0
M  V30 1986 H 191.481 3.06921 -4.58807 0
M  V30 1987 H 193.957 3.19531 -2.66532 0
M  V30 1988 H 192.833 4.48577 -3.16339 0
M  V30 1989 H 193.094 4.17493 -1.45437 0
M  V30 1990 N 192.153 1.28127 0.917671 0
M  V30 1991 C 193.085 1.07517 2.02417 0
M  V30 1992 C 194.098 0.0281099 1.62776 0
M  V30 1993 O 195.287 0.270748 1.76435 0
M  V30 1994 C 192.387 0.610957 3.33347 0
M  V30 1995 C 191.56 1.73255 4.01624 0
M  V30 1996 C 190.619 1.26238 5.10833 0
M  V30 1997 O 189.645 1.96389 5.34247 0
M  V30 1998 N 190.847 0.123448 5.80369 0
M  V30 1999 H 193.612 2.02806 2.20658 0
M  V30 2000 H 191.173 1.19827 1.08871 0
M  V30 2001 H 193.165 0.280101 4.0373 0
M  V30 2002 H 191.735 -0.24898 3.11607 0
M  V30 2003 H 190.955 2.23319 3.24842 0
M  V30 2004 H 192.243 2.48503 4.43986 0
M  V30 2005 H 191.641 -0.461847 5.63812 0
M  V30 2006 H 190.198 -0.148158 6.51632 0
M  V30 2007 N 193.631 -1.12557 1.10312 0
M  V30 2008 C 195.042 -1.65574 0.862678 0
M  V30 2009 C 195.393 -1.86566 -0.607256 0
M  V30 2010 O 194.518 -1.59121 -1.46662 0
M  V30 2011 C 195.113 -3.00776 1.55947 0
M  V30 2012 C 193.672 -3.50748 1.36576 0
M  V30 2013 C 192.819 -2.25797 1.60968 0
M  V30 2014 H 195.77 -0.963552 1.26101 0
M  V30 2015 H 195.791 -3.67185 0.997753 0
M  V30 2016 H 195.303 -2.85465 2.62928 0
M  V30 2017 H 193.404 -3.71245 0.317531 0
M  V30 2018 H 193.517 -4.30289 2.10686 0
M  V30 2019 H 191.881 -2.32841 1.03234 0
M  V30 2020 H 192.664 -2.13043 2.69198 0
M  V30 2021 N 195.109 -0.891671 -1.2995 0
M  V30 2022 C 196.019 -0.367691 -2.31701 0
M  V30 2023 C 197.035 0.533486 -1.6562 0
M  V30 2024 O 198.211 0.424997 -1.96865 0
M  V30 2025 C 195.276 0.403406 -3.44345 0
M  V30 2026 C 194.337 -0.528328 -4.26037 0
M  V30 2027 C 193.57 0.206063 -5.33302 0
M  V30 2028 O 193.793 1.43119 -5.52153 0
M  V30 2029 O 192.727 -0.447281 -6.00236 0
M  V30 2030 H 196.553 -1.21163 -2.78484 0
M  V30 2031 H 194.138 -0.655725 -1.34241 0
M  V30 2032 H 196.02 0.839753 -4.12948 0
M  V30 2033 H 194.695 1.22354 -2.99685 0
M  V30 2034 H 193.602 -1.01362 -3.60106 0
M  V30 2035 H 194.935 -1.31465 -4.74318 0
M  V30 2036 N 196.587 1.43421 -0.653314 0
M  V30 2037 C 197.535 2.32546 0.0501531 0
M  V30 2038 C 198.529 1.48617 0.812985 0
M  V30 2039 O 199.735 1.64825 0.723375 0
M  V30 2040 H 196.11 0.751185 0.0350032 0
M  V30 2041 H 198.081 2.89602 -0.719261 0
M  V30 2042 C 196.83 3.32925 1.00279 0
M  V30 2043 H 196.153 3.97532 0.425236 0
M  V30 2044 H 197.593 3.9792 1.46409 0
M  V30 2045 C 196.052 2.63532 2.09886 0
M  V30 2046 O 196.582 2.45092 3.18265 0
M  V30 2047 N 194.788 2.22905 1.86445 0
M  V30 2048 H 194.335 2.38103 0.98309 0
M  V30 2049 H 194.293 1.76805 2.59976 0
M  V30 2050 N 198.065 0.39524 1.52563 0
M  V30 2051 C 198.995 -0.428384 2.29537 0
M  V30 2052 C 199.976 -1.05831 1.33169 0
M  V30 2053 O 201.161 -1.06995 1.62067 0
M  V30 2054 C 198.291 -1.55274 3.10656 0
M  V30 2055 C 197.245 -1.04855 4.14957 0
M  V30 2056 C 196.571 -2.26543 4.84337 0
M  V30 2057 C 197.871 -0.112324 5.22179 0
M  V30 2058 H 199.565 0.213867 2.98635 0
M  V30 2059 H 197.111 0.104298 1.43622 0
M  V30 2060 H 199.064 -2.1358 3.63265 0
M  V30 2061 H 197.788 -2.22266 2.39302 0
M  V30 2062 H 196.447 -0.487985 3.63338 0
M  V30 2063 H 196.095 -2.92059 4.09525 0
M  V30 2064 H 195.795 -1.93466 5.54837 0
M  V30 2065 H 197.319 -2.85481 5.39753 0
M  V30 2066 H 198.733 -0.603752 5.70112 0
M  V30 2067 H 197.13 0.128968 5.99961 0
M  V30 2068 H 198.2 0.837052 4.77621 0
M  V30 2069 N 199.544 -1.57102 0.125237 0
M  V30 2070 C 200.454 -2.19191 -0.8362 0
M  V30 2071 C 201.47 -1.16985 -1.28805 0
M  V30 2072 O 202.646 -1.49479 -1.34974 0
M  V30 2073 C 199.711 -2.78407 -2.06617 0
M  V30 2074 C 198.772 -3.9567 -1.66565 0
M  V30 2075 C 198.005 -4.52052 -2.83698 0
M  V30 2076 O 198.228 -4.07326 -3.99302 0
M  V30 2077 O 197.162 -5.42645 -2.60423 0
M  V30 2078 H 200.988 -3.01816 -0.337776 0
M  V30 2079 H 198.573 -1.4906 -0.100695 0
M  V30 2080 H 200.455 -3.16129 -2.7864 0
M  V30 2081 H 199.13 -1.9881 -2.55453 0
M  V30 2082 H 198.037 -3.62705 -0.916296 0
M  V30 2083 H 199.37 -4.76722 -1.22464 0
M  V30 2084 N 201.022 0.148545 -1.56898 0
M  V30 2085 C 202.252 0.875118 -1.8715 0
M  V30 2086 C 202.66 1.75322 -0.711262 0
M  V30 2087 O 202.003 1.80745 0.328151 0
M  V30 2088 C 202.065 1.7844 -3.12089 0
M  V30 2089 C 201.729 1.08361 -4.43967 0
M  V30 2090 C 202.726 0.438247 -5.1805 0
M  V30 2091 C 200.411 1.07358 -4.90693 0
M  V30 2092 C 202.405 -0.20779 -6.37061 0
M  V30 2093 C 200.092 0.42373 -6.09629 0
M  V30 2094 C 201.09 -0.215829 -6.82659 0
M  V30 2095 O 200.778 -0.855378 -7.99336 0
M  V30 2096 H 200.51 0.258504 -0.624621 0
M  V30 2097 H 203.064 0.14652 -2.04877 0
M  V30 2098 H 201.294 2.55389 -2.90367 0
M  V30 2099 H 202.983 2.38279 -3.286 0
M  V30 2100 H 203.749 0.437817 -4.8302 0
M  V30 2101 H 199.628 1.5608 -4.33774 0
M  V30 2102 H 203.172 -0.70758 -6.94002 0
M  V30 2103 H 199.069 0.421822 -6.4412 0
M  V30 2104 H 199.837 -0.756892 -8.14993 0
M  V30 2105 N 202.5 1.5196 0.417844 0
M  V30 2106 C 203.728 1.69426 1.18753 0
M  V30 2107 C 204.143 0.399955 1.84515 0
M  V30 2108 O 203.5 -0.623288 1.71527 0
M  V30 2109 C 203.551 2.82375 2.25714 0
M  V30 2110 O 203.272 4.06793 1.62638 0
M  V30 2111 C 204.773 3.11277 3.15628 0
M  V30 2112 H 201.993 0.568031 0.357186 0
M  V30 2113 H 204.537 1.98475 0.49273 0
M  V30 2114 H 202.692 2.5587 2.90877 0
M  V30 2115 H 203.106 4.69667 2.3348 0
M  V30 2116 H 204.58 3.93843 3.86771 0
M  V30 2117 H 205.057 2.24473 3.77503 0
M  V30 2118 H 205.663 3.39515 2.56144 0
M  V30 2119 N 203.978 -0.674533 1.42435 0
M  V30 2120 C 205.224 -1.43671 1.43131 0
M  V30 2121 C 205.557 -1.94142 0.0476021 0
M  V30 2122 O 204.832 -1.70924 -0.928188 0
M  V30 2123 C 205.115 -2.63355 2.45594 0
M  V30 2124 C 204.968 -2.18514 3.93156 0
M  V30 2125 C 206.287 -3.65571 2.45043 0
M  V30 2126 H 203.406 -0.521077 0.521198 0
M  V30 2127 H 206.048 -0.766551 1.7385 0
M  V30 2128 H 204.198 -3.2053 2.19528 0
M  V30 2129 H 205.87 -1.66504 4.30202 0
M  V30 2130 H 204.113 -1.50086 4.07009 0
M  V30 2131 H 204.784 -3.04484 4.60428 0
M  V30 2132 H 207.26 -3.18113 2.68223 0
M  V30 2133 H 206.136 -4.46893 3.18713 0
M  V30 2134 H 206.397 -4.16716 1.47649 0
M  V30 2135 N 205.456 -1.28612 -0.910864 0
M  V30 2136 C 206.702 -1.16106 -1.66274 0
M  V30 2137 C 207.035 0.289113 -1.92036 0
M  V30 2138 O 206.31 1.21 -1.52281 0
M  V30 2139 C 206.593 -1.96309 -3.01885 0
M  V30 2140 C 206.446 -3.49405 -2.8326 0
M  V30 2141 C 207.765 -1.78076 -4.02463 0
M  V30 2142 H 204.884 -0.423152 -0.603417 0
M  V30 2143 H 207.526 -1.57961 -1.05586 0
M  V30 2144 H 205.676 -1.60742 -3.53687 0
M  V30 2145 H 207.348 -3.94894 -2.38446 0
M  V30 2146 H 205.591 -3.74893 -2.18261 0
M  V30 2147 H 206.262 -4.00784 -3.79574 0
M  V30 2148 H 208.738 -2.0912 -3.59733 0
M  V30 2149 H 207.614 -2.36561 -4.95308 0
M  V30 2150 H 207.875 -0.733008 -4.35981 0
M  V30 2151 N 206.934 1.1197 -1.10907 0
M  V30 2152 C 208.183 1.82947 -0.849302 0
M  V30 2153 C 208.496 1.85275 0.627112 0
M  V30 2154 O 209.702 2.52296 1.00295 0
M  V30 2155 C 208.158 3.28529 -1.46959 0
M  V30 2156 C 207.766 3.34546 -2.97965 0
M  V30 2157 C 209.51 4.04443 -1.28942 0
M  V30 2158 C 207.417 4.74491 -3.53004 0
M  V30 2159 H 206.347 0.685477 -0.314065 0
M  V30 2160 H 208.998 1.2604 -1.33365 0
M  V30 2161 H 207.38 3.85333 -0.912917 0
M  V30 2162 H 208.554 2.87654 -3.59989 0
M  V30 2163 H 206.869 2.72108 -3.15192 0
M  V30 2164 H 209.466 5.07787 -1.67502 0
M  V30 2165 H 209.809 4.15656 -0.231456 0
M  V30 2166 H 210.342 3.5401 -1.81443 0
M  V30 2167 H 207.081 4.68474 -4.58489 0
M  V30 2168 H 206.601 5.21816 -2.9575 0
M  V30 2169 H 208.28 5.4344 -3.51115 0
M  V30 2170 N 208.412 0.89855 1.29475 0
M  V30 2171 C 209.64 0.539261 1.99749 0
M  V30 2172 C 210.055 -0.875716 1.67262 0
M  V30 2173 O 209.412 -1.57786 0.917049 0
M  V30 2174 C 209.463 0.72061 3.54245 0
M  V30 2175 O 209.184 2.07989 3.8558 0
M  V30 2176 C 210.685 0.366118 4.41786 0
M  V30 2177 H 207.905 0.207047 0.638258 0
M  V30 2178 H 210.449 1.20758 1.65039 0
M  V30 2179 H 208.604 0.0994862 3.87272 0
M  V30 2180 H 209.018 2.10841 4.80257 0
M  V30 2181 H 210.492 0.543848 5.49314 0
M  V30 2182 H 210.969 -0.696763 4.33638 0
M  V30 2183 H 211.575 0.964135 4.14228 0
M  V30 2184 N 209.89 -1.43072 0.660911 0
M  V30 2185 C 211.301 -1.84932 0.256348 0
M  V30 2186 C 211.652 -1.55325 -1.19868 0
M  V30 2187 O 210.777 -1.00607 -1.91591 0
M  V30 2188 C 211.372 -3.35684 0.458475 0
M  V30 2189 C 209.931 -3.76245 0.108161 0
M  V30 2190 C 209.078 -2.66749 0.757641 0
M  V30 2191 H 212.029 -1.33116 0.864051 0
M  V30 2192 H 212.05 -3.79365 -0.293683 0
M  V30 2193 H 211.562 -3.572 1.51755 0
M  V30 2194 H 209.663 -3.60338 -0.948014 0
M  V30 2195 H 209.776 -4.76058 0.538992 0
M  V30 2196 H 208.14 -2.53989 0.190185 0
M  V30 2197 H 208.923 -2.91092 1.81989 0
M  V30 2198 N 211.368 -0.403325 -1.52352 0
M  V30 2199 C 212.318 0.442244 -2.2367 0
M  V30 2200 C 213.302 1.01823 -1.24583 0
M  V30 2201 O 214.494 0.942005 -1.49851 0
M  V30 2202 C 211.623 1.5615 -3.05732 0
M  V30 2203 C 210.709 0.996575 -4.12225 0
M  V30 2204 N 211.1 0.157804 -5.05554 0
M  V30 2205 C 209.398 1.26767 -4.27605 0
M  V30 2206 C 210.099 -0.155853 -5.81491 0
M  V30 2207 N 209.075 0.451775 -5.41719 0
M  V30 2208 H 212.877 -0.204964 -2.93184 0
M  V30 2209 H 210.391 -0.213418 -1.60992 0
M  V30 2210 H 212.388 2.17981 -3.55373 0
M  V30 2211 H 211.048 2.21139 -2.37755 0
M  V30 2212 H 212.059 -0.206049 -5.1749 0
M  V30 2213 H 208.736 1.91757 -3.70858 0
M  V30 2214 H 210.126 -0.836329 -6.66675 0
M  V30 2215 N 212.846 1.57033 -0.133567 0
M  V30 2216 C 214.071 2.00475 0.531477 0
M  V30 2217 C 214.496 1.01291 1.58499 0
M  V30 2218 O 213.854 -0.0133279 1.81295 0
M  V30 2219 C 213.902 3.42729 1.12113 0
M  V30 2220 O 213.006 3.46498 2.23636 0
M  V30 2221 H 212.347 0.650876 0.131362 0
M  V30 2222 H 214.877 2.03344 -0.22634 0
M  V30 2223 H 214.887 3.81246 1.4531 0
M  V30 2224 H 213.562 4.14428 0.349557 0
M  V30 2225 H 212.139 3.19811 1.91769 0
M  V30 2226 N 214.325 -0.140222 1.56975 0
M  V30 2227 C 215.573 -0.850005 1.83356 0
M  V30 2228 C 215.894 -1.81399 0.71551 0
M  V30 2229 O 215.164 -1.94136 -0.262294 0
M  V30 2230 H 213.744 -0.316886 0.676456 0
M  V30 2231 H 216.406 -0.132608 1.94448 0
M  V30 2232 H 215.502 -1.40814 2.78528 0
M  V30 2233 N 215.803 -1.52179 -0.40978 0
M  V30 2234 C 216.713 -1.78364 -1.52392 0
M  V30 2235 C 217.729 -0.669183 -1.60617 0
M  V30 2236 O 218.905 -0.954518 -1.77344 0
M  V30 2237 C 215.97 -1.92822 -2.88133 0
M  V30 2238 C 215.031 -3.16725 -2.898 0
M  V30 2239 C 214.264 -3.30483 -4.19067 0
M  V30 2240 O 214.487 -2.49522 -5.12928 0
M  V30 2241 O 213.421 -4.2363 -4.27576 0
M  V30 2242 H 217.247 -2.72931 -1.33201 0
M  V30 2243 H 214.832 -1.37016 -0.59557 0
M  V30 2244 H 216.714 -2.04157 -3.68643 0
M  V30 2245 H 215.389 -1.01444 -3.07393 0
M  V30 2246 H 214.296 -3.10848 -2.08146 0
M  V30 2247 H 215.629 -4.07881 -2.75489 0
M  V30 2248 N 217.281 0.66697 -1.42791 0
M  V30 2249 C 218.191 1.80962 -1.49299 0
M  V30 2250 C 219.207 1.69775 -0.381108 0
M  V30 2251 O 220.383 1.91188 -0.633188 0
M  V30 2252 C 217.448 3.17156 -1.40045 0
M  V30 2253 C 216.509 3.40242 -2.6179 0
M  V30 2254 C 215.742 4.69939 -2.52969 0
M  V30 2255 O 215.965 5.48372 -1.56985 0
M  V30 2256 O 214.899 4.94441 -3.43237 0
M  V30 2257 H 218.725 1.78427 -2.45759 0
M  V30 2258 H 216.31 0.823713 -1.24641 0
M  V30 2259 H 218.192 3.98413 -1.37276 0
M  V30 2260 H 216.867 3.20312 -0.467138 0
M  V30 2261 H 215.774 2.58802 -2.70134 0
M  V30 2262 H 217.107 3.41923 -3.54047 0
M  V30 2263 N 218.759 1.29093 0.90403 0
M  V30 2264 C 219.709 1.10482 1.99443 0
M  V30 2265 C 220.693 0.0255401 1.6088 0
M  V30 2266 O 221.885 0.24677 1.75271 0
M  V30 2267 C 219.014 0.778882 3.34348 0
M  V30 2268 C 218.1 1.89749 3.79284 0
M  V30 2269 N 218.491 3.14045 3.96497 0
M  V30 2270 C 216.789 1.78955 4.08523 0
M  V30 2271 C 217.49 3.86996 4.34292 0
M  V30 2272 N 216.466 3.14909 4.43095 0
M  V30 2273 H 220.268 2.04778 2.10815 0
M  V30 2274 H 217.782 1.20155 1.09255 0
M  V30 2275 H 219.779 0.62661 4.12164 0
M  V30 2276 H 218.439 -0.156205 3.24324 0
M  V30 2277 H 219.45 3.49548 3.82148 0
M  V30 2278 H 216.127 0.926886 4.07081 0
M  V30 2279 H 217.517 4.93941 4.55491 0
M  V30 2280 N 220.237 -1.11381 1.11499 0
M  V30 2281 C 221.2 -2.15622 0.777153 0
M  V30 2282 C 222.2 -1.59504 -0.203779 0
M  V30 2283 O 223.39 -1.74188 0.020782 0
M  V30 2284 C 220.522 -3.40556 0.153116 0
M  V30 2285 H 221.715 -2.47021 1.70061 0
M  V30 2286 H 219.268 -1.26577 0.916952 0
M  V30 2287 H 220.003 -3.14767 -0.780536 0
M  V30 2288 H 219.788 -3.8257 0.859238 0
M  V30 2289 H 221.278 -4.17546 -0.0671044 0
M  V30 2290 N 221.715 -0.905404 -1.28997 0
M  V30 2291 C 222.961 -0.535039 -1.95615 0
M  V30 2292 C 223.294 0.917404 -1.71165 0
M  V30 2293 O 222.569 1.65123 -1.02785 0
M  V30 2294 C 222.852 -0.834918 -3.50287 0
M  V30 2295 C 222.705 -2.33948 -3.84172 0
M  V30 2296 C 224.024 -0.325318 -4.38896 0
M  V30 2297 H 221.143 -0.195861 -0.710498 0
M  V30 2298 H 223.785 -1.13313 -1.52513 0
M  V30 2299 H 221.935 -0.325904 -3.87131 0
M  V30 2300 H 223.607 -2.91847 -3.57243 0
M  V30 2301 H 221.85 -2.79789 -3.31513 0
M  V30 2302 H 222.521 -2.49987 -4.92149 0
M  V30 2303 H 224.997 -0.761256 -4.09077 0
M  V30 2304 H 223.873 -0.564295 -5.45992 0
M  V30 2305 H 224.134 0.774144 -4.35269 0
M  V30 2306 N 223.193 1.4272 -0.668489 0
M  V30 2307 C 224.441 2.01226 -0.187769 0
M  V30 2308 C 224.762 1.53092 1.2078 0
M  V30 2309 O 224.032 0.74993 1.80977 0
M  V30 2310 H 222.612 0.744041 -0.0664272 0
M  V30 2311 H 225.274 1.74723 -0.863583 0
M  V30 2312 H 224.37 3.11556 -0.184166 0
M  V30 2313 N 224.671 0.411399 1.52136 0
M  V30 2314 C 225.619 -0.427633 2.28635 0
M  V30 2315 C 226.613 -1.04383 1.33419 0
M  V30 2316 O 227.819 -0.981772 1.50868 0
M  V30 2317 H 224.194 -0.156689 0.735495 0
M  V30 2318 H 226.165 0.238761 2.97443 0
M  V30 2319 C 224.914 -1.53082 3.12188 0
M  V30 2320 H 224.237 -1.06601 3.85326 0
M  V30 2321 H 225.677 -2.09167 3.68816 0
M  V30 2322 C 224.136 -2.49946 2.25895 0
M  V30 2323 O 224.666 -3.53884 1.90076 0
M  V30 2324 N 222.872 -2.2021 1.8962 0
M  V30 2325 H 222.419 -1.35719 2.18948 0
M  V30 2326 H 222.377 -2.85266 1.32176 0
M  V30 2327 N 226.149 -1.5696 0.141893 0
M  V30 2328 C 227.426 -1.87553 -0.555281 0
M  V30 2329 C 227.806 -1.04699 -1.83306 0
M  V30 2330 O 227.154 -0.132346 -2.28116 0
M  V30 2331 C 227.364 -3.39093 -0.825664 0
M  V30 2332 C 228.712 -4.08199 -1.16869 0
M  V30 2333 O 229.736 -3.44242 -0.915185 0
M  V30 2334 O 228.595 -5.21139 -1.6455 0
M  V30 2335 H 225.689 -0.777188 -0.282679 0
M  V30 2336 H 228.235 -1.68763 0.17812 0
M  V30 2337 H 227.007 -3.91221 0.0788633 0
M  V30 2338 H 226.63 -3.63393 -1.61343 0
M  V30 2339 N 227.627 0.131896 -1.57047 0
M  V30 2340 C 228.855 0.856461 -1.88341 0
M  V30 2341 C 229.27 1.74042 -0.731757 0
M  V30 2342 O 228.627 1.80051 0.297945 0
M  V30 2343 C 228.678 1.70064 -3.18999 0
M  V30 2344 O 228.399 0.852278 -4.2973 0
M  V30 2345 C 229.9 2.53148 -3.63911 0
M  V30 2346 H 227.12 0.246885 -0.62393 0
M  V30 2347 H 229.664 0.120152 -2.04147 0
M  V30 2348 H 227.819 2.38984 -3.04902 0
M  V30 2349 H 228.233 1.43329 -5.04537 0
M  V30 2350 H 229.707 3.07931 -4.58129 0
M  V30 2351 H 230.184 3.29901 -2.89935 0
M  V30 2352 H 230.79 1.89492 -3.80753 0
M  V30 2353 N 229.106 1.52395 0.401703 0
M  V30 2354 C 230.354 1.66488 1.14569 0
M  V30 2355 C 230.675 0.400897 1.90835 0
M  V30 2356 O 229.945 -0.584415 1.8698 0
M  V30 2357 H 228.525 0.613672 0.425929 0
M  V30 2358 H 231.187 1.89464 0.457093 0
M  V30 2359 H 230.283 2.50942 1.85566 0
M  V30 2360 N 230.584 -0.659388 1.43143 0
M  V30 2361 C 231.531 -1.77249 1.47822 0
M  V30 2362 C 232.501 -1.62818 0.328558 0
M  V30 2363 O 233.686 -1.83151 0.534838 0
M  V30 2364 C 230.826 -3.15371 1.40126 0
M  V30 2365 C 229.939 -3.4098 2.65249 0
M  V30 2366 C 229.074 -4.68915 2.49584 0
M  V30 2367 C 228.113 -4.87608 3.70006 0
M  V30 2368 N 227.25 -6.06796 3.53189 0
M  V30 2369 H 232.09 -1.72584 2.42938 0
M  V30 2370 H 229.627 -0.842297 1.20598 0
M  V30 2371 H 231.585 -3.9521 1.33659 0
M  V30 2372 H 230.215 -3.19121 0.485964 0
M  V30 2373 H 229.267 -2.55282 2.8202 0
M  V30 2374 H 230.579 -3.50681 3.54717 0
M  V30 2375 H 229.733 -5.56871 2.4079 0
M  V30 2376 H 228.472 -4.61524 1.5763 0
M  V30 2377 H 227.477 -3.9809 3.79215 0
M  V30 2378 H 228.702 -4.96834 4.62961 0
M  V30 2379 H 226.648 -6.00549 2.63965 0
M  V30 2380 H 226.565 -6.17428 4.36255 0
M  V30 2381 H 227.833 -6.9739 3.48236 0
M  V30 2382 N 232.062 -1.29571 -0.897171 0
M  V30 2383 C 233.012 -1.11539 -1.98855 0
M  V30 2384 C 233.996 -0.0340716 -1.60864 0
M  V30 2385 O 235.188 -0.256062 -1.75138 0
M  V30 2386 C 232.317 -0.796603 -3.3393 0
M  V30 2387 C 231.403 -1.91758 -3.78272 0
M  V30 2388 N 231.794 -3.16143 -3.94826 0
M  V30 2389 C 230.092 -1.81119 -4.07568 0
M  V30 2390 C 230.793 -3.89293 -4.32233 0
M  V30 2391 N 229.769 -3.17255 -4.41419 0
M  V30 2392 H 233.571 -2.05894 -2.09726 0
M  V30 2393 H 231.085 -1.20732 -1.08616 0
M  V30 2394 H 233.082 -0.648459 -4.11826 0
M  V30 2395 H 231.742 0.139003 -3.24402 0
M  V30 2396 H 232.753 -3.5157 -3.80288 0
M  V30 2397 H 229.43 -0.948461 -4.06584 0
M  V30 2398 H 230.82 -4.9635 -4.52865 0
M  V30 2399 N 233.54 1.10788 -1.12088 0
M  V30 2400 C 234.788 1.8231 -0.872205 0
M  V30 2401 C 235.109 1.85419 0.603709 0
M  V30 2402 O 234.379 1.32963 1.43867 0
M  V30 2403 H 232.959 0.675137 -0.319686 0
M  V30 2404 H 235.621 1.34068 -1.41463 0
M  V30 2405 H 234.717 2.85955 -1.25045 0
M  V30 2406 N 235.018 0.912232 1.28515 0
M  V30 2407 C 235.965 0.397954 2.27343 0
M  V30 2408 C 236.935 -0.526766 1.57526 0
M  V30 2409 O 238.12 -0.449292 1.85435 0
M  V30 2410 C 235.26 -0.357263 3.43246 0
M  V30 2411 C 234.373 0.599788 4.27816 0
M  V30 2412 C 233.508 -0.173725 5.30916 0
M  V30 2413 C 232.547 0.777039 6.07148 0
M  V30 2414 N 231.684 0.0371398 7.0209 0
M  V30 2415 H 236.524 1.24577 2.70711 0
M  V30 2416 H 234.061 0.625612 1.33133 0
M  V30 2417 H 236.019 -0.8113 4.09236 0
M  V30 2418 H 234.649 -1.16943 3.00872 0
M  V30 2419 H 233.701 1.17235 3.61884 0
M  V30 2420 H 235.013 1.32704 4.80823 0
M  V30 2421 H 234.167 -0.688394 6.02782 0
M  V30 2422 H 232.906 -0.934041 4.78672 0
M  V30 2423 H 231.911 1.3031 5.34134 0
M  V30 2424 H 233.136 1.53689 6.61481 0
M  V30 2425 H 231.082 -0.705213 6.52198 0
M  V30 2426 H 230.999 0.704249 7.52713 0
M  V30 2427 H 232.267 -0.457383 7.78157 0
M  V30 2428 N 236.496 -1.42363 0.676048 0
M  V30 2429 C 237.406 -2.346 -0.00153389 0
M  V30 2430 C 238.422 -1.5516 -0.787485 0
M  V30 2431 O 239.598 -1.87723 -0.729521 0
M  V30 2432 C 236.663 -3.33705 -0.940298 0
M  V30 2433 C 235.724 -4.29042 -0.148739 0
M  V30 2434 C 234.957 -5.23413 -1.04279 0
M  V30 2435 O 235.18 -5.22749 -2.28232 0
M  V30 2436 O 234.114 -5.99795 -0.502925 0
M  V30 2437 H 237.94 -2.94082 0.758268 0
M  V30 2438 H 235.525 -1.42888 0.436289 0
M  V30 2439 H 237.407 -3.94586 -1.47917 0
M  V30 2440 H 236.082 -2.76695 -1.67993 0
M  V30 2441 H 234.989 -3.71571 0.43427 0
M  V30 2442 H 236.322 -4.89097 0.551805 0
M  V30 2443 N 237.974 -0.419461 -1.51915 0
M  V30 2444 C 239.22 0.153166 -2.02221 0
M  V30 2445 C 239.553 1.43907 -1.30401 0
M  V30 2446 O 238.828 1.90055 -0.413438 0
M  V30 2447 C 239.111 0.390291 -3.57979 0
M  V30 2448 C 238.964 -0.913014 -4.40436 0
M  V30 2449 C 240.283 1.16794 -4.2432 0
M  V30 2450 H 237.402 0.0541924 -0.735005 0
M  V30 2451 H 240.044 -0.554955 -1.81715 0
M  V30 2452 H 238.194 0.993491 -3.75582 0
M  V30 2453 H 239.866 -1.54882 -4.34522 0
M  V30 2454 H 238.109 -1.52168 -4.06236 0
M  V30 2455 H 238.78 -0.701361 -5.47526 0
M  V30 2456 H 241.256 0.657161 -4.10878 0
M  V30 2457 H 240.132 1.3026 -5.3322 0
M  V30 2458 H 240.393 2.19132 -3.83971 0
M  V30 2459 N 239.452 1.56882 -0.150215 0
M  V30 2460 C 240.399 2.16922 0.788244 0
M  V30 2461 C 241.369 1.10303 1.24187 0
M  V30 2462 O 242.554 1.38359 1.31383 0
M  V30 2463 C 239.694 2.79754 2.02068 0
M  V30 2464 C 238.807 4.00775 1.61257 0
M  V30 2465 C 237.942 4.51595 2.79705 0
M  V30 2466 C 236.981 5.65074 2.35282 0
M  V30 2467 N 236.118 6.10499 3.4675 0
M  V30 2468 H 240.958 2.96779 0.269444 0
M  V30 2469 H 238.495 1.46599 0.12128 0
M  V30 2470 H 240.453 3.14329 2.74323 0
M  V30 2471 H 239.083 2.02536 2.51354 0
M  V30 2472 H 238.135 3.72158 0.787553 0
M  V30 2473 H 239.447 4.82978 1.24633 0
M  V30 2474 H 238.601 4.88242 3.60145 0
M  V30 2475 H 237.34 3.68406 3.19576 0
M  V30 2476 H 236.345 5.28 1.53283 0
M  V30 2477 H 237.57 6.50052 1.96493 0
M  V30 2478 H 235.516 5.30243 3.86236 0
M  V30 2479 H 235.433 6.87637 3.14152 0
M  V30 2480 H 236.701 6.51791 4.27537 0
M  V30 2481 N 240.93 -0.123565 1.57115 0
M  V30 2482 C 242.179 -0.830704 1.83799 0
M  V30 2483 C 242.492 -1.81259 0.735158 0
M  V30 2484 O 243.698 -2.56558 0.888278 0
M  V30 2485 C 242.154 -1.52802 3.25852 0
M  V30 2486 C 241.762 -0.587356 4.44133 0
M  V30 2487 C 243.506 -2.22056 3.61789 0
M  V30 2488 C 241.413 -1.28764 5.77212 0
M  V30 2489 H 240.343 -0.313967 0.685522 0
M  V30 2490 H 242.994 -0.0834359 1.8331 0
M  V30 2491 H 241.376 -2.32175 3.20797 0
M  V30 2492 H 242.55 0.172829 4.60476 0
M  V30 2493 H 240.865 -0.00201892 4.164 0
M  V30 2494 H 243.462 -2.75131 4.58483 0
M  V30 2495 H 243.805 -2.99644 2.88997 0
M  V30 2496 H 244.338 -1.49576 3.68608 0
M  V30 2497 H 241.077 -0.55314 6.53162 0
M  V30 2498 H 240.597 -2.01995 5.64764 0
M  V30 2499 H 242.276 -1.8221 6.20813 0
M  V30 2500 N 242.408 -1.52605 -0.393616 0
M  V30 2501 C 243.636 -1.71294 -1.16043 0
M  V30 2502 C 244.051 -0.429259 -1.83855 0
M  V30 2503 O 243.408 0.595921 -1.72496 0
M  V30 2504 C 243.459 -2.8593 -2.21193 0
M  V30 2505 O 243.18 -4.09329 -1.56146 0
M  V30 2506 C 244.681 -3.16259 -3.10636 0
M  V30 2507 H 241.901 -0.573641 -0.348104 0
M  V30 2508 H 244.445 -1.99234 -0.461092 0
M  V30 2509 H 242.6 -2.60465 -2.86769 0
M  V30 2510 H 243.014 -4.73323 -2.25978 0
M  V30 2511 H 244.488 -3.99946 -3.80456 0
M  V30 2512 H 244.965 -2.3045 -3.73884 0
M  V30 2513 H 245.571 -3.43547 -2.50711 0
M  V30 2514 N 243.887 0.651787 -1.4349 0
M  V30 2515 C 245.298 1.233 -1.40193 0
M  V30 2516 C 245.649 1.9591 -0.106727 0
M  V30 2517 O 244.774 2.01316 0.793773 0
M  V30 2518 C 245.369 2.24257 -2.53957 0
M  V30 2519 C 243.928 2.77852 -2.5392 0
M  V30 2520 C 243.075 1.52517 -2.3159 0
M  V30 2521 H 246.026 0.443717 -1.52371 0
M  V30 2522 H 246.047 3.0646 -2.25528 0
M  V30 2523 H 245.559 1.71382 -3.4821 0
M  V30 2524 H 243.66 3.34786 -1.63551 0
M  V30 2525 H 243.773 3.25299 -3.51735 0
M  V30 2526 H 242.137 1.79915 -1.80285 0
M  V30 2527 H 242.92 1.01574 -3.27929 0
M  V30 2528 N 245.365 1.30045 0.890287 0
M  V30 2529 C 246.297 1.11786 2.00091 0
M  V30 2530 C 247.31 0.0626307 1.62679 0
M  V30 2531 O 248.499 0.308112 1.75821 0
M  V30 2532 C 245.599 0.681527 3.31977 0
M  V30 2533 C 244.772 1.81735 3.97858 0
M  V30 2534 C 243.831 1.37045 5.08041 0
M  V30 2535 O 242.857 2.07677 5.29961 0
M  V30 2536 N 244.059 0.246525 5.79976 0
M  V30 2537 H 246.824 2.07441 2.16306 0
M  V30 2538 H 244.385 1.2211 1.06305 0
M  V30 2539 H 246.377 0.365675 4.03045 0
M  V30 2540 H 244.947 -0.182828 3.12065 0
M  V30 2541 H 244.167 2.30159 3.20032 0
M  V30 2542 H 245.455 2.57865 4.38615 0
M  V30 2543 H 244.853 -0.34215 5.64664 0
M  V30 2544 H 243.41 -0.00990438 6.51799 0
M  V30 2545 N 246.843 -1.10192 1.12674 0
M  V30 2546 C 248.068 -1.86523 0.906853 0
M  V30 2547 C 248.493 -1.80221 -0.538711 0
M  V30 2548 O 247.851 -1.17396 -1.38158 0
M  V30 2549 C 247.899 -3.32758 1.3894 0
M  V30 2550 O 247.003 -4.08449 0.5695 0
M  V30 2551 H 246.344 -0.578678 0.325619 0
M  V30 2552 H 248.874 -1.39203 1.49946 0
M  V30 2553 H 248.884 -3.83608 1.38958 0
M  V30 2554 H 247.559 -3.36661 2.44197 0
M  V30 2555 H 246.136 -3.67427 0.636528 0
M  V30 2556 N 248.321 -0.919034 -1.28029 0
M  V30 2557 C 249.546 -0.570357 -1.99403 0
M  V30 2558 C 249.971 0.842486 -1.68178 0
M  V30 2559 O 249.329 1.56391 -0.917141 0
M  V30 2560 C 249.377 -0.792541 -3.51783 0
M  V30 2561 O 248.481 0.145988 -4.12142 0
M  V30 2562 H 247.822 -0.220555 -0.6263 0
M  V30 2563 H 250.352 -1.23592 -1.63053 0
M  V30 2564 H 250.362 -0.704708 -4.01868 0
M  V30 2565 H 249.037 -1.82247 -3.73844 0
M  V30 2566 H 247.614 0.00897528 -3.72899 0
M  V30 2567 N 249.799 1.42003 -0.683588 0
M  V30 2568 C 251.048 2.00638 -0.206681 0
M  V30 2569 C 251.361 1.5472 1.19671 0
M  V30 2570 O 252.567 2.05833 1.77045 0
M  V30 2571 C 251.023 3.58487 -0.318632 0
M  V30 2572 C 250.631 4.1339 -1.72663 0
M  V30 2573 C 252.375 4.24384 0.0991141 0
M  V30 2574 C 250.282 5.63633 -1.79087 0
M  V30 2575 H 249.212 0.750408 -0.0735107 0
M  V30 2576 H 251.863 1.62624 -0.850048 0
M  V30 2577 H 250.245 3.94047 0.392781 0
M  V30 2578 H 251.419 3.89273 -2.46583 0
M  V30 2579 H 249.734 3.59976 -2.09299 0
M  V30 2580 H 252.331 5.34652 0.0713833 0
M  V30 2581 H 252.674 4.00505 1.13586 0
M  V30 2582 H 253.207 3.93816 -0.561599 0
M  V30 2583 H 249.946 5.92323 -2.80774 0
M  V30 2584 H 249.466 5.89714 -1.09535 0
M  V30 2585 H 251.145 6.28201 -1.5483 0
M  V30 2586 N 251.277 0.427512 1.51691 0
M  V30 2587 C 252.505 -0.141191 2.06418 0
M  V30 2588 C 252.92 -1.37303 1.29589 0
M  V30 2589 O 252.277 -1.79059 0.352732 0
M  V30 2590 C 252.328 -0.473266 3.58389 0
M  V30 2591 O 252.049 0.709673 4.32314 0
M  V30 2592 C 253.55 -1.09371 4.29596 0
M  V30 2593 H 250.77 -0.0122747 0.670888 0
M  V30 2594 H 253.314 0.603764 1.95384 0
M  V30 2595 H 251.469 -1.16812 3.69369 0
M  V30 2596 H 251.883 0.42807 5.2275 0
M  V30 2597 H 253.357 -1.27613 5.37046 0
M  V30 2598 H 253.834 -2.072 3.87253 0
M  V30 2599 H 254.44 -0.43853 4.23033 0
M  V30 2600 N 252.755 -1.56801 0.158532 0
M  V30 2601 C 253.665 -2.20916 -0.789518 0
M  V30 2602 C 254.681 -1.1969 -1.26294 0
M  V30 2603 O 255.857 -1.52308 -1.31773 0
M  V30 2604 C 252.922 -2.82727 -2.00665 0
M  V30 2605 C 251.983 -3.99114 -1.58134 0
M  V30 2606 C 251.216 -4.57968 -2.74045 0
M  V30 2607 O 251.439 -4.15704 -3.90572 0
M  V30 2608 O 250.373 -5.48047 -2.48855 0
M  V30 2609 H 254.199 -3.02464 -0.273681 0
M  V30 2610 H 251.784 -1.4924 -0.0690548 0
M  V30 2611 H 253.666 -3.21968 -2.71872 0
M  V30 2612 H 252.341 -2.04184 -2.51179 0
M  V30 2613 H 251.248 -3.64567 -0.839155 0
M  V30 2614 H 252.581 -4.79212 -1.12325 0
M  V30 2615 N 254.233 0.115231 -1.57178 0
M  V30 2616 C 255.196 1.12526 -1.99676 0
M  V30 2617 C 256.196 1.34095 -0.88742 0
M  V30 2618 O 257.386 1.30548 -1.15337 0
M  V30 2619 C 254.518 2.4789 -2.34015 0
M  V30 2620 H 255.711 0.759912 -2.90113 0
M  V30 2621 H 253.264 0.359648 -1.52106 0
M  V30 2622 H 253.999 2.89339 -1.4647 0
M  V30 2623 H 253.784 2.33588 -3.14927 0
M  V30 2624 H 255.274 3.20575 -2.67622 0
M  V30 2625 N 255.711 1.52812 0.385517 0
M  V30 2626 C 256.621 1.80766 1.49535 0
M  V30 2627 C 257.637 0.694651 1.59532 0
M  V30 2628 O 258.813 0.982611 1.75803 0
M  V30 2629 C 255.878 1.97381 2.85029 0
M  V30 2630 C 254.939 3.21295 2.84724 0
M  V30 2631 C 254.172 3.37108 4.13756 0
M  V30 2632 O 254.395 2.5765 5.08893 0
M  V30 2633 O 253.329 4.30378 4.20783 0
M  V30 2634 H 257.155 2.75015 1.28842 0
M  V30 2635 H 254.74 1.37946 0.573697 0
M  V30 2636 H 256.622 2.09996 3.65349 0
M  V30 2637 H 255.297 1.06322 3.05741 0
M  V30 2638 H 254.204 3.1412 2.03174 0
M  V30 2639 H 255.537 4.12212 2.68965 0
M  V30 2640 N 257.189 -0.644168 1.43834 0
M  V30 2641 C 258.119 -1.76814 1.52509 0
M  V30 2642 C 259.1 -1.65823 0.379052 0
M  V30 2643 O 260.285 -1.84781 0.597466 0
M  V30 2644 C 257.415 -3.15288 1.4564 0
M  V30 2645 C 256.369 -3.41053 2.58586 0
M  V30 2646 C 255.695 -4.79421 2.36769 0
M  V30 2647 C 256.995 -3.34902 4.00797 0
M  V30 2648 H 258.689 -1.69812 2.46586 0
M  V30 2649 H 256.235 -0.815542 1.1868 0
M  V30 2650 H 258.188 -3.93681 1.50311 0
M  V30 2651 H 256.912 -3.23043 0.480725 0
M  V30 2652 H 255.571 -2.65035 2.53282 0
M  V30 2653 H 255.219 -4.83863 1.37424 0
M  V30 2654 H 254.919 -4.9762 3.12487 0
M  V30 2655 H 256.443 -5.6006 2.43238 0
M  V30 2656 H 257.857 -4.03218 4.07539 0
M  V30 2657 H 256.254 -3.64637 4.76613 0
M  V30 2658 H 257.324 -2.32928 4.25291 0
M  V30 2659 N 258.668 -1.30515 -0.883378 0
M  V30 2660 C 259.896 -1.22359 -1.66841 0
M  V30 2661 C 260.311 0.213296 -1.87591 0
M  V30 2662 O 259.668 1.14075 -1.42454 0
M  V30 2663 C 259.719 -1.95011 -3.04389 0
M  V30 2664 O 259.44 -3.3309 -2.84575 0
M  V30 2665 C 260.941 -1.93532 -3.98824 0
M  V30 2666 H 258.161 -0.423371 -0.520575 0
M  V30 2667 H 260.705 -1.72167 -1.10357 0
M  V30 2668 H 258.86 -1.48997 -3.57601 0
M  V30 2669 H 259.274 -3.69907 -3.71846 0
M  V30 2670 H 260.748 -2.48902 -4.92699 0
M  V30 2671 H 261.225 -0.914627 -4.29571 0
M  V30 2672 H 261.831 -2.39364 -3.51547 0
M  V30 2673 N 260.146 1.09593 -1.13257 0
M  V30 2674 C 261.394 1.81375 -0.891492 0
M  V30 2675 C 261.715 1.86049 0.584009 0
M  V30 2676 O 260.985 1.34481 1.42449 0
M  V30 2677 H 259.565 0.671708 -0.326828 0
M  V30 2678 H 262.227 1.3256 -1.42877 0
M  V30 2679 H 261.323 2.84612 -1.28071 0
M  V30 2680 N 261.624 0.925811 1.2754 0
M  V30 2681 C 262.854 0.580666 1.98272 0
M  V30 2682 C 263.262 -0.845207 1.69272 0
M  V30 2683 O 262.605 -1.57306 0.948707 0
M  V30 2684 C 262.667 0.724418 3.52126 0
M  V30 2685 C 262.331 2.12206 4.04744 0
M  V30 2686 C 263.328 3.09604 4.17662 0
M  V30 2687 C 261.013 2.4385 4.39138 0
M  V30 2688 C 263.007 4.36755 4.64246 0
M  V30 2689 C 260.694 3.71237 4.85414 0
M  V30 2690 C 261.692 4.67503 4.97926 0
M  V30 2691 O 261.38 5.92624 5.43187 0
M  V30 2692 H 261.112 0.218987 0.639547 0
M  V30 2693 H 263.666 1.24452 1.63404 0
M  V30 2694 H 261.896 0.0034663 3.867 0
M  V30 2695 H 263.585 0.384607 4.04074 0
M  V30 2696 H 264.351 2.86478 3.91351 0
M  V30 2697 H 260.23 1.69665 4.28643 0
M  V30 2698 H 263.774 5.11898 4.73927 0
M  V30 2699 H 259.671 3.94182 5.11166 0
M  V30 2700 H 260.439 5.95585 5.61445 0
M  V30 2701 N 263.102 -1.41638 0.69111 0
M  V30 2702 C 264.35 -2.00902 0.219758 0
M  V30 2703 C 264.671 -1.54994 -1.18329 0
M  V30 2704 O 263.941 -0.778628 -1.79762 0
M  V30 2705 H 262.521 -0.74289 0.0782558 0
M  V30 2706 H 265.183 -1.73327 0.891271 0
M  V30 2707 H 264.279 -3.11224 0.233708 0
M  V30 2708 N 264.58 -0.43555 -1.51462 0
M  V30 2709 C 265.808 0.130242 -2.0649 0
M  V30 2710 C 266.223 1.36614 -1.30315 0
M  V30 2711 O 265.58 1.78869 -0.362223 0
M  V30 2712 C 265.631 0.454253 -3.58635 0
M  V30 2713 O 265.352 -0.73259 -4.31931 0
M  V30 2714 C 266.853 1.07091 -4.3017 0
M  V30 2715 H 264.073 0.00871669 -0.670943 0
M  V30 2716 H 266.617 -0.614117 -1.95061 0
M  V30 2717 H 264.772 1.14851 -3.69984 0
M  V30 2718 H 265.186 -0.455787 -5.22516 0
M  V30 2719 H 266.66 1.24764 -5.37716 0
M  V30 2720 H 267.137 2.05144 -3.88346 0
M  V30 2721 H 267.743 0.416089 -4.2326 0
M  V30 2722 N 266.058 1.56714 -0.166846 0
M  V30 2723 C 267.304 1.97039 0.479962 0
M  V30 2724 C 267.637 1.05264 1.63197 0
M  V30 2725 O 266.912 0.0988833 1.94248 0
M  V30 2726 C 267.195 3.46867 0.967212 0
M  V30 2727 C 267.048 4.49421 -0.18466 0
M  V30 2728 C 268.367 3.9968 1.84238 0
M  V30 2729 H 265.486 0.71641 0.172992 0
M  V30 2730 H 268.128 1.8832 -0.252079 0
M  V30 2731 H 266.278 3.54428 1.59101 0
M  V30 2732 H 267.95 4.53924 -0.821621 0
M  V30 2733 H 266.193 4.25573 -0.840837 0
M  V30 2734 H 266.864 5.51644 0.198317 0
M  V30 2735 H 269.34 3.94723 1.31655 0
M  V30 2736 H 268.216 5.04941 2.15234 0
M  V30 2737 H 268.477 3.43226 2.78654 0
M  V30 2738 N 267.536 -0.106894 1.57237 0
M  V30 2739 C 268.764 -0.826389 1.8968 0
M  V30 2740 C 269.179 -1.72856 0.759353 0
M  V30 2741 O 268.536 -1.80503 -0.269263 0
M  V30 2742 C 268.587 -1.64967 3.21665 0
M  V30 2743 O 268.308 -0.783804 4.31031 0
M  V30 2744 C 269.809 -2.47326 3.67892 0
M  V30 2745 H 267.029 -0.236927 0.627779 0
M  V30 2746 H 269.573 -0.0876593 2.04312 0
M  V30 2747 H 267.728 -2.34103 3.08666 0
M  V30 2748 H 268.142 -1.35284 5.06753 0
M  V30 2749 H 269.616 -3.00604 4.6297 0
M  V30 2750 H 270.093 -3.25247 2.95146 0
M  V30 2751 H 270.699 -1.83411 3.83719 0
M  V30 2752 N 269.014 -1.53014 -0.377408 0
M  V30 2753 C 269.947 -1.73382 -1.48371 0
M  V30 2754 C 270.925 -0.581879 -1.51832 0
M  V30 2755 O 272.109 -0.81307 -1.70063 0
M  V30 2756 C 269.236 -1.80192 -2.8679 0
M  V30 2757 C 268.282 -3.02056 -3.01105 0
M  V30 2758 S 269.115 -4.61811 -2.71093 0
M  V30 2759 C 270.271 -4.71453 -4.11683 0
M  V30 2760 H 270.504 -2.66946 -1.30872 0
M  V30 2761 H 268.037 -1.43453 -0.571012 0
M  V30 2762 H 269.995 -1.84802 -3.6655 0
M  V30 2763 H 268.656 -0.877008 -3.01608 0
M  V30 2764 H 267.849 -3.03396 -4.02451 0
M  V30 2765 H 267.451 -2.95498 -2.29253 0
M  V30 2766 H 269.743 -4.50781 -5.0577 0
M  V30 2767 H 270.686 -5.73487 -4.15353 0
M  V30 2768 H 271.094 -4.00189 -3.98132 0
M  V30 2769 N 270.492 0.636531 -1.44174 0
M  V30 2770 C 271.402 1.77754 -1.53103 0
M  V30 2771 C 272.418 1.68928 -0.417034 0
M  V30 2772 O 273.594 1.89801 -0.6736 0
M  V30 2773 C 270.659 3.14115 -1.46741 0
M  V30 2774 C 269.72 3.34612 -2.68948 0
M  V30 2775 C 268.953 4.64467 -2.6288 0
M  V30 2776 O 269.176 5.44919 -1.68581 0
M  V30 2777 O 268.11 4.87049 -3.53648 0
M  V30 2778 H 271.936 1.73174 -2.49489 0
M  V30 2779 H 269.521 0.79709 -1.2636 0
M  V30 2780 H 271.403 3.95412 -1.45696 0
M  V30 2781 H 270.078 3.19249 -0.534975 0
M  V30 2782 H 268.985 2.53014 -2.75562 0
M  V30 2783 H 270.318 3.34336 -3.61221 0
M  V30 2784 N 271.97 1.30982 0.876444 0
M  V30 2785 C 273.21 1.21589 1.64303 0
M  V30 2786 C 273.574 -0.223962 1.90689 0
M  V30 2787 O 274.775 -0.44128 2.65153 0
M  V30 2788 C 273.046 2.03007 2.94148 0
M  V30 2789 S 274.605 2.10405 3.85065 0
M  V30 2790 H 271.423 0.433161 0.563819 0
M  V30 2791 H 274.025 1.65565 1.03964 0
M  V30 2792 H 272.729 3.06719 2.72675 0
M  V30 2793 H 272.26 1.59725 3.59515 0
M  V30 2794 H 274.275 1.23765 4.80517 0
M  V30 2795 N 273.449 -1.08991 1.13837 0
M  V30 2796 C 274.674 -1.85551 0.926585 0
M  V30 2797 C 275.099 -1.80782 -0.519566 0
M  V30 2798 O 274.457 -1.18855 -1.36906 0
M  V30 2799 C 274.505 -3.31266 1.42462 0
M  V30 2800 O 273.609 -4.07822 0.612789 0
M  V30 2801 H 272.95 -0.575192 0.331738 0
M  V30 2802 H 275.48 -1.37604 1.51414 0
M  V30 2803 H 275.49 -3.82112 1.43019 0
M  V30 2804 H 274.165 -3.34052 2.47754 0
M  V30 2805 H 272.742 -3.66731 0.675463 0
M  V30 2806 N 274.927 -0.932562 -1.27047 0
M  V30 2807 C 276.338 -0.619451 -1.76124 0
M  V30 2808 C 276.689 0.865397 -1.76083 0
M  V30 2809 O 275.814 1.67722 -1.36742 0
M  V30 2810 C 276.409 -1.11771 -3.19832 0
M  V30 2811 C 274.968 -0.855174 -3.66557 0
M  V30 2812 C 274.115 -1.27362 -2.46321 0
M  V30 2813 H 277.066 -1.11181 -1.13245 0
M  V30 2814 H 277.087 -0.46759 -3.77616 0
M  V30 2815 H 276.599 -2.19842 -3.1983 0
M  V30 2816 H 274.7 0.211524 -3.71999 0
M  V30 2817 H 274.813 -1.47613 -4.55793 0
M  V30 2818 H 273.177 -0.692119 -2.45116 0
M  V30 2819 H 273.96 -2.36307 -2.49025 0
M  V30 2820 N 276.405 1.4127 -0.698611 0
M  V30 2821 C 277.821 1.55241 -0.370462 0
M  V30 2822 C 278.021 1.67351 1.12231 0
M  V30 2823 O 277.077 1.65363 1.90818 0
M  V30 2824 C 278.39 2.78997 -1.12165 0
M  V30 2825 C 279.938 2.92797 -1.1063 0
M  V30 2826 C 280.413 4.19445 -1.8393 0
M  V30 2827 N 281.904 4.26409 -1.80914 0
M  V30 2828 C 282.639 5.23271 -2.34467 0
M  V30 2829 N 282.135 6.26145 -2.96504 0
M  V30 2830 N 283.928 5.15232 -2.24706 0
M  V30 2831 H 276.079 1.31654 -1.66676 0
M  V30 2832 H 278.342 0.635393 -0.703548 0
M  V30 2833 H 278.048 2.76268 -2.17644 0
M  V30 2834 H 277.922 3.70606 -0.702209 0
M  V30 2835 H 280.309 2.95039 -0.0597713 0
M  V30 2836 H 280.39 2.02353 -1.56483 0
M  V30 2837 H 280.034 4.17964 -2.88563 0
M  V30 2838 H 279.964 5.08866 -1.35509 0
M  V30 2839 H 282.455 3.527 -1.35687 0
M  V30 2840 H 282.768 6.96451 -3.34927 0
M  V30 2841 H 281.113 6.26638 -3.00583 0
M  V30 2842 H 284.304 4.33789 -1.7591 0
M  V30 2843 H 284.477 5.90552 -2.66745 0
M  V30 2844 N 277.883 0.443576 1.51229 0
M  V30 2845 C 279.111 -0.11929 2.06556 0
M  V30 2846 C 279.526 -1.35921 1.31038 0
M  V30 2847 O 278.883 -1.78675 0.371704 0
M  V30 2848 C 278.934 -0.435228 3.5887 0
M  V30 2849 O 278.655 0.755486 4.31537 0
M  V30 2850 C 280.156 -1.04808 4.30732 0
M  V30 2851 H 277.376 -0.0051584 0.67098 0
M  V30 2852 H 279.92 0.624453 1.94733 0
M  V30 2853 H 278.075 -1.12887 3.70588 0
M  V30 2854 H 278.489 0.483491 5.22267 0
M  V30 2855 H 279.963 -1.2191 5.3837 0
M  V30 2856 H 280.44 -2.03081 3.89429 0
M  V30 2857 H 281.046 -0.393637 4.23474 0
M  V30 2858 N 279.361 -1.56624 0.175154 0
M  V30 2859 C 280.609 -1.96609 -0.467885 0
M  V30 2860 C 280.93 -1.06238 -1.63519 0
M  V30 2861 O 280.2 -0.129523 -1.95471 0
M  V30 2862 H 278.78 -0.726008 -0.175845 0
M  V30 2863 H 281.442 -1.93195 0.257234 0
M  V30 2864 H 280.538 -3.00989 -0.825342 0
M  V30 2865 N 280.839 0.0985539 -1.57292 0
M  V30 2866 C 281.769 1.12064 -2.04851 0
M  V30 2867 C 282.75 1.41981 -0.936767 0
M  V30 2868 O 283.935 1.52071 -1.20781 0
M  V30 2869 C 281.065 2.44144 -2.47004 0
M  V30 2870 C 280.019 2.28643 -3.6181 0
M  V30 2871 C 279.345 3.65869 -3.89929 0
M  V30 2872 C 280.645 1.72986 -4.92822 0
M  V30 2873 H 282.339 0.724979 -2.9049 0
M  V30 2874 H 279.885 0.34729 -1.39749 0
M  V30 2875 H 281.838 3.15914 -2.78884 0
M  V30 2876 H 280.562 2.85639 -1.5836 0
M  V30 2877 H 279.221 1.59318 -3.30172 0
M  V30 2878 H 278.869 4.04885 -2.98458 0
M  V30 2879 H 278.569 3.56344 -4.67218 0
M  V30 2880 H 280.093 4.39112 -4.2428 0
M  V30 2881 H 281.507 2.34593 -5.23105 0
M  V30 2882 H 279.904 1.74229 -5.74251 0
M  V30 2883 H 280.974 0.689007 -4.7998 0
M  V30 2884 N 282.317 1.53212 0.369288 0
M  V30 2885 C 283.594 1.59815 1.12776 0
M  V30 2886 C 283.974 0.403402 2.0721 0
M  V30 2887 O 283.322 -0.606667 2.20299 0
M  V30 2888 C 283.532 2.94664 1.87013 0
M  V30 2889 C 284.88 3.49109 2.41677 0
M  V30 2890 O 285.904 2.96669 1.97144 0
M  V30 2891 O 284.763 4.40775 3.23079 0
M  V30 2892 H 281.857 0.645376 0.517125 0
M  V30 2893 H 284.403 1.65553 0.37285 0
M  V30 2894 H 283.175 3.73061 1.18071 0
M  V30 2895 H 282.798 2.92401 2.69421 0
M  V30 2896 N 283.795 -0.628877 1.44509 0
M  V30 2897 C 285.042 -1.38839 1.47411 0
M  V30 2898 C 285.37 -1.94202 0.10757 0
M  V30 2899 O 284.625 -1.74243 -0.890947 0
M  V30 2900 C 284.924 -2.56995 2.48371 0
M  V30 2901 C 284.59 -2.19908 3.93639 0
M  V30 2902 C 283.252 -2.09506 4.33198 0
M  V30 2903 C 285.604 -1.9064 4.85083 0
M  V30 2904 C 282.932 -1.68028 5.62124 0
M  V30 2905 C 285.284 -1.50655 6.14399 0
M  V30 2906 C 283.948 -1.38796 6.5291 0
M  V30 2907 H 283.218 -0.508048 0.539414 0
M  V30 2908 H 285.865 -0.712913 1.77735 0
M  V30 2909 H 284.17 -3.29786 2.11538 0
M  V30 2910 H 285.867 -3.15223 2.47861 0
M  V30 2911 H 282.457 -2.28922 3.62343 0
M  V30 2912 H 286.641 -1.97585 4.55273 0
M  V30 2913 H 281.897 -1.57452 5.90778 0
M  V30 2914 H 286.071 -1.27048 6.84713 0
M  V30 2915 H 283.698 -1.06429 7.52713 0
M  V30 2916 N 285.273 -1.31445 -0.869486 0
M  V30 2917 C 286.221 -1.19067 -1.99814 0
M  V30 2918 C 287.215 -0.0988569 -1.69111 0
M  V30 2919 O 288.421 -0.260781 -1.78101 0
M  V30 2920 H 284.796 -0.368677 -0.655425 0
M  V30 2921 H 286.767 -2.14555 -2.07385 0
M  V30 2922 C 285.516 -0.915323 -3.35436 0
M  V30 2923 H 284.839 -1.74759 -3.59582 0
M  V30 2924 H 286.279 -0.868895 -4.15001 0
M  V30 2925 C 284.738 0.381928 -3.34728 0
M  V30 2926 O 285.268 1.39857 -3.76567 0
M  V30 2927 N 283.474 0.398633 -2.87853 0
M  V30 2928 H 283.021 -0.429186 -2.54 0
M  V30 2929 H 282.979 1.26651 -2.87762 0
M  V30 2930 N 286.751 1.08385 -1.14413 0
M  V30 2931 C 287.661 2.18856 -0.844951 0
M  V30 2932 C 288.677 1.73121 0.174668 0
M  V30 2933 O 289.853 2.014 0.00312857 0
M  V30 2934 C 286.918 3.45155 -0.32696 0
M  V30 2935 C 285.979 4.05513 -1.40916 0
M  V30 2936 C 285.212 5.25784 -0.915793 0
M  V30 2937 O 285.435 5.69884 0.242651 0
M  V30 2938 O 284.369 5.77545 -1.69487 0
M  V30 2939 H 288.195 2.46919 -1.76818 0
M  V30 2940 H 285.78 1.17524 -0.922411 0
M  V30 2941 H 287.662 4.21377 -0.0440211 0
M  V30 2942 H 286.337 3.18668 0.568539 0
M  V30 2943 H 285.244 3.30879 -1.74556 0
M  V30 2944 H 286.577 4.3625 -2.27919 0
M  V30 2945 N 288.23 0.939286 1.26551 0
M  V30 2946 C 289.163 0.391702 2.24813 0
M  V30 2947 C 290.141 -0.518421 1.54114 0
M  V30 2948 O 291.325 -0.456299 1.82894 0
M  V30 2949 C 288.452 -0.437382 3.35864 0
M  V30 2950 C 287.498 0.410946 4.24516 0
M  V30 2951 S 288.331 1.83372 5.03125 0
M  V30 2952 C 289.487 1.01264 6.17654 0
M  V30 2953 H 289.72 1.22448 2.70913 0
M  V30 2954 H 287.253 0.742269 1.35387 0
M  V30 2955 H 289.211 -0.909837 4.0029 0
M  V30 2956 H 287.872 -1.24482 2.8838 0
M  V30 2957 H 287.065 -0.224191 5.03501 0
M  V30 2958 H 286.667 0.818014 3.64945 0
M  V30 2959 H 288.959 0.254023 6.77024 0
M  V30 2960 H 289.902 1.77589 6.85469 0
M  V30 2961 H 290.31 0.549532 5.61819 0
M  V30 2962 N 289.708 -1.40897 0.706093 0
M  V30 2963 C 290.954 -2.01352 0.241889 0
M  V30 2964 C 291.287 -1.55832 -1.15888 0
M  V30 2965 O 290.562 -0.774145 -1.7843 0
M  V30 2966 C 290.845 -3.58752 0.311311 0
M  V30 2967 C 290.698 -4.1437 1.74978 0
M  V30 2968 C 292.017 -4.38914 -0.322922 0
M  V30 2969 H 289.136 -0.731562 0.0893687 0
M  V30 2970 H 291.778 -1.67504 0.896802 0
M  V30 2971 H 289.928 -3.87718 -0.246302 0
M  V30 2972 H 291.6 -3.96239 2.36205 0
M  V30 2973 H 289.843 -3.69016 2.28057 0
M  V30 2974 H 290.514 -5.23532 1.74981 0
M  V30 2975 H 292.99 -4.15822 0.152089 0
M  V30 2976 H 291.866 -5.48358 -0.243855 0
M  V30 2977 H 292.127 -4.19176 -1.40513 0
M  V30 2978 N 291.186 -0.45159 -1.50991 0
M  V30 2979 C 292.116 0.342898 -2.30969 0
M  V30 2980 C 293.097 1.00815 -1.37005 0
M  V30 2981 O 294.282 1.00907 -1.65926 0
M  V30 2982 C 291.412 1.43637 -3.16205 0
M  V30 2983 C 290.366 0.893818 -4.18563 0
M  V30 2984 C 289.692 2.08411 -4.92411 0
M  V30 2985 C 290.992 -0.0815568 -5.22236 0
M  V30 2986 H 292.686 -0.324556 -2.97636 0
M  V30 2987 H 290.232 -0.157531 -1.43136 0
M  V30 2988 H 292.185 1.9995 -3.70942 0
M  V30 2989 H 290.909 2.13232 -2.47386 0
M  V30 2990 H 289.568 0.352798 -3.64898 0
M  V30 2991 H 289.216 2.76658 -4.20082 0
M  V30 2992 H 288.916 1.72741 -5.61636 0
M  V30 2993 H 290.44 2.65251 -5.49976 0
M  V30 2994 H 291.854 0.391742 -5.7196 0
M  V30 2995 H 290.251 -0.351551 -5.99069 0
M  V30 2996 H 291.321 -1.01374 -4.74185 0
M  V30 2997 N 292.664 1.56529 -0.183458 0
M  V30 2998 C 293.594 2.21549 0.737456 0
M  V30 2999 C 294.575 1.17489 1.23005 0
M  V30 3000 O 295.76 1.45959 1.281 0
M  V30 3001 C 292.89 2.86575 1.96194 0
M  V30 3002 C 291.844 3.96778 1.60473 0
M  V30 3003 C 291.17 4.48911 2.90487 0
M  V30 3004 C 292.47 5.15767 0.823497 0
M  V30 3005 H 294.164 2.98761 0.195453 0
M  V30 3006 H 291.71 1.43702 0.0925686 0
M  V30 3007 H 293.663 3.30739 2.61131 0
M  V30 3008 H 292.387 2.06749 2.52828 0
M  V30 3009 H 291.046 3.53286 0.978997 0
M  V30 3010 H 290.694 3.65862 3.45186 0
M  V30 3011 H 290.394 5.23265 2.67335 0
M  V30 3012 H 291.918 4.95771 3.56432 0
M  V30 3013 H 293.332 5.56549 1.37571 0
M  V30 3014 H 291.729 5.96114 0.690551 0
M  V30 3015 H 292.799 4.84574 -0.177782 0
M  V30 3016 N 294.142 -0.090211 1.57342 0
M  V30 3017 C 295.074 -1.13541 1.99101 0
M  V30 3018 C 296.087 -1.3604 0.894258 0
M  V30 3019 O 297.276 -1.34606 1.17233 0
M  V30 3020 C 294.376 -2.49001 2.29895 0
M  V30 3021 C 293.549 -2.46712 3.61182 0
M  V30 3022 C 292.608 -3.64136 3.79857 0
M  V30 3023 O 291.634 -3.46405 4.51655 0
M  V30 3024 N 292.836 -4.83802 3.20806 0
M  V30 3025 H 295.601 -0.779942 2.89373 0
M  V30 3026 H 293.162 -0.279125 1.59476 0
M  V30 3027 H 295.154 -3.26166 2.39578 0
M  V30 3028 H 293.724 -2.76619 1.45605 0
M  V30 3029 H 292.944 -1.55058 3.62423 0
M  V30 3030 H 294.232 -2.42265 4.4742 0
M  V30 3031 H 293.63 -5.01112 2.62494 0
M  V30 3032 H 292.187 -5.58543 3.35966 0
M  V30 3033 N 295.62 -1.53406 -0.361157 0
M  V30 3034 C 296.553 -1.74946 -1.46524 0
M  V30 3035 C 297.531 -0.59795 -1.51206 0
M  V30 3036 O 298.715 -0.831062 -1.69191 0
M  V30 3037 C 295.842 -1.83224 -2.84863 0
M  V30 3038 C 294.888 -3.05233 -2.97885 0
M  V30 3039 S 295.721 -4.6466 -2.66179 0
M  V30 3040 C 296.877 -4.75793 -4.06659 0
M  V30 3041 H 297.11 -2.68319 -1.28033 0
M  V30 3042 H 294.643 -1.44051 -0.555764 0
M  V30 3043 H 296.601 -1.88679 -3.64569 0
M  V30 3044 H 295.262 -0.908948 -3.00661 0
M  V30 3045 H 294.455 -3.07648 -3.9921 0
M  V30 3046 H 294.057 -2.97913 -2.26106 0
M  V30 3047 H 296.349 -4.5612 -5.0096 0
M  V30 3048 H 297.292 -5.7786 -4.09247 0
M  V30 3049 H 297.7 -4.04389 -3.93865 0
M  V30 3050 N 297.098 0.621204 -1.44841 0
M  V30 3051 C 298.008 1.7612 -1.5498 0
M  V30 3052 C 299.024 1.68477 -0.434927 0
M  V30 3053 O 300.2 1.89076 -0.693693 0
M  V30 3054 C 297.265 3.1254 -1.50065 0
M  V30 3055 C 296.326 3.31741 -2.72482 0
M  V30 3056 C 295.559 4.61653 -2.67792 0
M  V30 3057 O 295.782 5.431 -1.74352 0
M  V30 3058 O 294.716 4.83271 -3.58794 0
M  V30 3059 H 298.542 1.70518 -2.51311 0
M  V30 3060 H 296.127 0.783643 -1.27198 0
M  V30 3061 H 298.009 3.93844 -1.49882 0
M  V30 3062 H 296.684 3.18663 -0.568806 0
M  V30 3063 H 295.591 2.50077 -2.7823 0
M  V30 3064 H 296.924 3.30486 -3.64746 0
M  V30 3065 N 298.576 1.31904 0.862503 0
M  V30 3066 C 299.853 1.12644 1.59908 0
M  V30 3067 C 300.233 -0.316104 2.0872 0
M  V30 3068 O 299.581 -1.31145 1.87118 0
M  V30 3069 C 299.791 2.1472 2.7513 0
M  V30 3070 C 301.139 2.47637 3.44907 0
M  V30 3071 O 302.163 2.13205 2.85346 0
M  V30 3072 O 301.022 3.06632 4.52371 0
M  V30 3073 H 298.116 0.43416 0.703871 0
M  V30 3074 H 300.662 1.43408 0.907314 0
M  V30 3075 H 299.434 3.1172 2.3653 0
M  V30 3076 H 299.057 1.84905 3.51989 0
M  V30 3077 N 300.054 -1.07777 1.14986 0
M  V30 3078 C 301.001 -2.14867 0.842672 0
M  V30 3079 C 301.971 -1.6486 -0.202552 0
M  V30 3080 O 303.156 -1.90668 -0.0710568 0
M  V30 3081 C 300.296 -3.43486 0.333363 0
M  V30 3082 C 299.409 -4.07306 1.43965 0
M  V30 3083 C 298.544 -5.23744 0.886914 0
M  V30 3084 C 297.583 -5.79517 1.97043 0
M  V30 3085 N 296.72 -6.87291 1.4344 0
M  V30 3086 H 301.56 -2.40485 1.75986 0
M  V30 3087 H 299.097 -1.1801 0.878179 0
M  V30 3088 H 301.055 -4.17195 0.0198163 0
M  V30 3089 H 299.685 -3.18133 -0.546916 0
M  V30 3090 H 298.737 -3.31293 1.86946 0
M  V30 3091 H 300.049 -4.44771 2.25788 0
M  V30 3092 H 299.203 -6.04419 0.525651 0
M  V30 3093 H 297.942 -4.87685 0.0377957 0
M  V30 3094 H 296.947 -4.97491 2.34057 0
M  V30 3095 H 298.172 -6.17632 2.82325 0
M  V30 3096 H 296.118 -6.5318 0.607567 0
M  V30 3097 H 296.035 -7.23617 2.18895 0
M  V30 3098 H 297.303 -7.71682 1.10124 0
M  V30 3099 N 301.532 -0.945985 -1.26051 0
M  V30 3100 C 302.495 -0.463897 -2.24456 0
M  V30 3101 C 303.495 0.427655 -1.55009 0
M  V30 3102 O 304.685 0.226157 -1.72726 0
M  V30 3103 C 301.817 0.330812 -3.39291 0
M  V30 3104 H 303.01 -1.33357 -2.68619 0
M  V30 3105 H 300.563 -0.728416 -1.38289 0
M  V30 3106 H 301.298 1.21852 -3.00537 0
M  V30 3107 H 301.083 -0.308679 -3.90883 0
M  V30 3108 H 302.573 0.657865 -4.12386 0
M  V30 3109 N 303.011 1.40521 -0.713556 0
M  V30 3110 C 304.257 2.01714 -0.261382 0
M  V30 3111 C 304.612 1.55562 1.13217 0
M  V30 3112 O 303.905 0.764893 1.7567 0
M  V30 3113 C 304.099 3.56317 -0.278 0
M  V30 3114 C 303.928 4.17476 -1.67163 0
M  V30 3115 C 302.698 4.50998 -2.2788 0
M  V30 3116 C 304.896 4.42472 -2.6215 0
M  V30 3117 N 302.878 4.9754 -3.5962 0
M  V30 3118 C 304.249 4.90985 -3.78594 0
M  V30 3119 C 306.304 4.24508 -2.60188 0
M  V30 3120 C 305.007 5.2342 -4.9338 0
M  V30 3121 C 307.033 4.58043 -3.741 0
M  V30 3122 C 306.395 5.06743 -4.89276 0
M  V30 3123 H 302.494 0.769104 -0.141434 0
M  V30 3124 H 305.078 1.70785 -0.934915 0
M  V30 3125 H 303.249 3.8668 0.36509 0
M  V30 3126 H 304.981 4.0425 0.190695 0
M  V30 3127 H 301.736 4.38062 -1.79997 0
M  V30 3128 H 302.16 5.25196 -4.27198 0
M  V30 3129 H 306.802 3.86078 -1.72348 0
M  V30 3130 H 304.52 5.60765 -5.81866 0
M  V30 3131 H 308.106 4.45785 -3.73854 0
M  V30 3132 H 306.986 5.32204 -5.75959 0
M  V30 3133 N 304.489 0.459591 1.5075 0
M  V30 3134 C 305.419 -0.330644 2.31147 0
M  V30 3135 C 306.4 -1.00087 1.37538 0
M  V30 3136 O 307.585 -1.00025 1.66459 0
M  V30 3137 C 304.715 -1.41958 3.16962 0
M  V30 3138 C 303.669 -0.871608 4.19031 0
M  V30 3139 C 302.995 -2.05797 4.9351 0
M  V30 3140 C 304.295 0.109251 5.22186 0
M  V30 3141 H 305.989 0.340336 2.97459 0
M  V30 3142 H 303.535 0.165119 1.4305 0
M  V30 3143 H 305.488 -1.9798 3.71997 0
M  V30 3144 H 304.212 -2.11917 2.48513 0
M  V30 3145 H 302.871 -0.333442 3.6508 0
M  V30 3146 H 302.519 -2.74427 4.21544 0
M  V30 3147 H 302.219 -1.6976 5.62544 0
M  V30 3148 H 303.743 -2.62331 5.51375 0
M  V30 3149 H 305.157 -0.361405 5.7216 0
M  V30 3150 H 303.554 0.383316 5.98875 0
M  V30 3151 H 304.624 1.03887 4.73641 0
M  V30 3152 N 305.967 -1.56429 0.191757 0
M  V30 3153 C 307.213 -1.97777 -0.448554 0
M  V30 3154 C 307.546 -1.07847 -1.61501 0
M  V30 3155 O 306.821 -0.129774 -1.94067 0
M  V30 3156 C 307.104 -3.48362 -0.911906 0
M  V30 3157 C 306.957 -4.4907 0.256136 0
M  V30 3158 C 308.276 -4.02561 -1.77857 0
M  V30 3159 H 305.395 -0.719071 -0.161572 0
M  V30 3160 H 308.037 -1.87896 0.282007 0
M  V30 3161 H 306.187 -3.56914 -1.53442 0
M  V30 3162 H 307.859 -4.5256 0.893733 0
M  V30 3163 H 306.102 -4.24181 0.908436 0
M  V30 3164 H 306.773 -5.51889 -0.11053 0
M  V30 3165 H 309.249 -3.96767 -1.25359 0
M  V30 3166 H 308.125 -5.08301 -2.07174 0
M  V30 3167 H 308.386 -3.47616 -2.73158 0
M  V30 3168 N 307.445 0.0818655 -1.57387 0
M  V30 3169 C 308.395 1.10501 -1.99433 0
M  V30 3170 C 309.379 1.35041 -0.874798 0
M  V30 3171 O 310.571 1.35511 -1.13868 0
M  V30 3172 C 307.7 2.42159 -2.43339 0
M  V30 3173 C 306.786 2.20937 -3.62005 0
M  V30 3174 N 307.177 1.69616 -4.76512 0
M  V30 3175 C 305.475 2.51451 -3.68359 0
M  V30 3176 C 306.176 1.62973 -5.58404 0
M  V30 3177 N 305.152 2.08664 -5.01956 0
M  V30 3178 H 308.954 0.701373 -2.85408 0
M  V30 3179 H 306.468 0.289096 -1.59806 0
M  V30 3180 H 308.465 3.16208 -2.71695 0
M  V30 3181 H 307.125 2.83249 -1.58746 0
M  V30 3182 H 308.136 1.38624 -4.99003 0
M  V30 3183 H 304.813 2.95975 -2.94457 0
M  V30 3184 H 306.203 1.24233 -6.60315 0
M  V30 3185 N 308.923 1.53595 0.353017 0
M  V30 3186 C 310.339 1.43648 0.695516 0
M  V30 3187 C 310.539 0.585617 1.92802 0
M  V30 3188 O 309.595 0.0729223 2.52395 0
M  V30 3189 C 310.908 2.8701 0.896991 0
M  V30 3190 C 312.456 2.96723 0.996209 0
M  V30 3191 C 312.931 4.41173 1.23007 0
M  V30 3192 N 314.422 4.44657 1.29749 0
M  V30 3193 C 315.157 5.53547 1.49577 0
M  V30 3194 N 314.653 6.72461 1.66639 0
M  V30 3195 N 316.446 5.41145 1.52048 0
M  V30 3196 H 308.597 2.07415 -0.457481 0
M  V30 3197 H 310.86 0.9372 -0.142687 0
M  V30 3198 H 310.566 3.51644 0.0629938 0
M  V30 3199 H 310.44 3.31401 1.80148 0
M  V30 3200 H 312.827 2.32235 1.82074 0
M  V30 3201 H 312.908 2.55707 0.0688331 0
M  V30 3202 H 312.552 5.06238 0.410505 0
M  V30 3203 H 312.482 4.79772 2.17086 0
M  V30 3204 H 314.973 3.58963 1.18126 0
M  V30 3205 H 315.286 7.51214 1.81378 0
M  V30 3206 H 313.631 6.75423 1.63794 0
M  V30 3207 H 316.822 4.47205 1.38294 0
M  V30 3208 H 316.995 6.26068 1.67159 0
M  V30 3209 N 310.401 -0.613514 1.45168 0
M  V30 3210 C 311.333 -1.73825 1.4939 0
M  V30 3211 C 312.346 -1.58175 0.385304 0
M  V30 3212 O 313.535 -1.66165 0.652036 0
M  V30 3213 C 310.635 -3.11758 1.32891 0
M  V30 3214 C 309.808 -3.53704 2.57317 0
M  V30 3215 C 308.867 -4.70579 2.35462 0
M  V30 3216 O 307.893 -4.77996 3.09044 0
M  V30 3217 N 309.095 -5.63454 1.39644 0
M  V30 3218 H 311.86 -1.70669 2.46358 0
M  V30 3219 H 309.421 -0.79862 1.40832 0
M  V30 3220 H 311.413 -3.87692 1.1609 0
M  V30 3221 H 309.983 -3.09456 0.442218 0
M  V30 3222 H 309.203 -2.67794 2.89275 0
M  V30 3223 H 310.491 -3.78486 3.40038 0
M  V30 3224 H 309.889 -5.6017 0.789062 0
M  V30 3225 H 308.446 -6.38944 1.28816 0
M  V30 3226 N 311.879 -1.3236 -0.855495 0
M  V30 3227 C 313.125 -1.24064 -1.61182 0
M  V30 3228 C 313.48 0.195914 -1.914 0
M  V30 3229 O 312.773 1.13345 -1.54478 0
M  V30 3230 C 312.967 -2.03275 -2.93963 0
M  V30 3231 C 312.796 -3.54486 -2.76712 0
M  V30 3232 C 311.566 -4.23824 -2.75139 0
M  V30 3233 C 313.764 -4.49154 -2.50531 0
M  V30 3234 N 311.746 -5.61095 -2.4909 0
M  V30 3235 C 313.117 -5.74195 -2.3388 0
M  V30 3236 C 315.172 -4.3842 -2.35992 0
M  V30 3237 C 313.875 -6.89716 -2.04168 0
M  V30 3238 C 315.901 -5.53739 -2.0767 0
M  V30 3239 C 315.263 -6.77779 -1.9182 0
M  V30 3240 H 311.362 -0.509139 -0.59355 0
M  V30 3241 H 313.946 -1.66715 -1.00569 0
M  V30 3242 H 312.117 -1.6297 -3.52555 0
M  V30 3243 H 313.849 -1.86881 -3.58967 0
M  V30 3244 H 310.604 -3.75934 -2.88047 0
M  V30 3245 H 311.028 -6.33411 -2.38996 0
M  V30 3246 H 315.67 -3.43172 -2.46967 0
M  V30 3247 H 313.388 -7.84977 -1.9193 0
M  V30 3248 H 316.974 -5.4736 -1.97201 0
M  V30 3249 H 315.854 -7.65504 -1.70217 0
M  V30 3250 N 313.357 1.07166 -1.15556 0
M  V30 3251 C 314.604 1.79798 -0.931604 0
M  V30 3252 C 314.932 1.8682 0.54115 0
M  V30 3253 O 314.187 1.34942 1.41736 0
M  V30 3254 C 314.486 3.24707 -1.49332 0
M  V30 3255 C 314.152 3.37781 -2.98688 0
M  V30 3256 C 312.814 3.41057 -3.39461 0
M  V30 3257 C 315.166 3.40424 -3.94665 0
M  V30 3258 C 312.494 3.4458 -4.74849 0
M  V30 3259 C 314.846 3.45485 -5.29927 0
M  V30 3260 C 313.51 3.47039 -5.70193 0
M  V30 3261 H 312.78 0.657928 -0.340898 0
M  V30 3262 H 315.427 1.26091 -1.44129 0
M  V30 3263 H 313.732 3.81208 -0.904859 0
M  V30 3264 H 315.429 3.79486 -1.29582 0
M  V30 3265 H 312.019 3.35932 -2.66172 0
M  V30 3266 H 316.203 3.37113 -3.64237 0
M  V30 3267 H 311.459 3.44083 -5.05388 0
M  V30 3268 H 315.633 3.46476 -6.04092 0
M  V30 3269 H 313.26 3.49522 -6.75084 0
M  V30 3270 N 314.835 0.952656 1.25548 0
M  V30 3271 C 315.765 0.489287 2.28316 0
M  V30 3272 C 316.746 -0.463359 1.63667 0
M  V30 3273 O 317.931 -0.36274 1.90782 0
M  V30 3274 C 315.061 -0.235603 3.465 0
M  V30 3275 C 314.015 0.631593 4.23314 0
M  V30 3276 C 313.341 -0.223923 5.34231 0
M  V30 3277 C 314.641 1.90871 4.86174 0
M  V30 3278 H 316.335 1.34822 2.67326 0
M  V30 3279 H 313.881 0.649728 1.28509 0
M  V30 3280 H 315.834 -0.570882 4.17515 0
M  V30 3281 H 314.558 -1.12877 3.06474 0
M  V30 3282 H 313.217 0.949929 3.54079 0
M  V30 3283 H 312.865 -1.11678 4.90446 0
M  V30 3284 H 312.565 0.35299 5.86539 0
M  V30 3285 H 314.089 -0.554214 6.0808 0
M  V30 3286 H 315.503 1.63997 5.49343 0
M  V30 3287 H 313.9 2.43112 5.4865 0
M  V30 3288 H 314.97 2.61304 4.08471 0
M  V30 3289 N 316.313 -1.40141 0.720998 0
M  V30 3290 C 317.59 -1.94677 0.189757 0
M  V30 3291 C 317.97 -1.65879 -1.30566 0
M  V30 3292 O 317.318 -0.979391 -2.06447 0
M  V30 3293 C 317.528 -3.45279 0.508304 0
M  V30 3294 C 318.876 -4.22209 0.449934 0
M  V30 3295 O 319.9 -3.53413 0.444677 0
M  V30 3296 O 318.759 -5.44788 0.432189 0
M  V30 3297 H 315.853 -0.826459 0.0299026 0
M  V30 3298 H 318.399 -1.49719 0.7989 0
M  V30 3299 H 317.171 -3.59619 1.54239 0
M  V30 3300 H 316.794 -3.97386 -0.130525 0
M  V30 3301 N 317.792 -0.46758 -1.50504 0
M  V30 3302 C 318.722 0.318381 -2.31319 0
M  V30 3303 C 319.703 0.993564 -1.38066 0
M  V30 3304 O 320.888 0.991411 -1.66987 0
M  V30 3305 C 318.018 1.40275 -3.17711 0
M  V30 3306 C 316.972 0.849373 -4.19487 0
M  V30 3307 C 316.298 2.03177 -4.94594 0
M  V30 3308 C 317.598 -0.136942 -5.2212 0
M  V30 3309 H 319.292 -0.356106 -2.97275 0
M  V30 3310 H 316.838 -0.172703 -1.42961 0
M  V30 3311 H 318.791 1.96004 -3.73042 0
M  V30 3312 H 317.515 2.10596 -2.49634 0
M  V30 3313 H 316.174 0.314076 -3.65252 0
M  V30 3314 H 315.822 2.72187 -4.22993 0
M  V30 3315 H 315.522 1.66774 -5.63436 0
M  V30 3316 H 317.046 2.59403 -5.52759 0
M  V30 3317 H 318.46 0.331056 -5.72343 0
M  V30 3318 H 316.857 -0.41507 -5.98663 0
M  V30 3319 H 317.927 -1.06398 -4.73083 0
M  V30 3320 N 319.27 1.56325 -0.20005 0
M  V30 3321 C 320.681 1.8408 0.31167 0
M  V30 3322 C 321.032 1.12087 1.61031 0
M  V30 3323 O 320.157 0.38332 2.12978 0
M  V30 3324 C 320.752 3.33932 0.57226 0
M  V30 3325 C 319.311 3.6208 1.02834 0
M  V30 3326 C 318.458 2.77186 0.079634 0
M  V30 3327 H 321.409 1.52939 -0.423729 0
M  V30 3328 H 321.43 3.52971 1.42096 0
M  V30 3329 H 320.942 3.86303 -0.37308 0
M  V30 3330 H 319.043 3.15147 1.98778 0
M  V30 3331 H 319.156 4.7023 0.917624 0
M  V30 3332 H 317.52 2.47951 0.582448 0
M  V30 3333 H 318.303 3.32347 -0.860238 0
M  V30 3334 N 320.748 -0.0735177 1.57428 0
M  V30 3335 C 321.678 -1.0879 2.06608 0
M  V30 3336 C 322.659 -1.40473 0.959237 0
M  V30 3337 O 323.844 -1.5013 1.23185 0
M  V30 3338 C 320.974 -2.40183 2.50857 0
M  V30 3339 C 319.928 -2.22858 3.65402 0
M  V30 3340 C 319.254 -3.59619 3.957 0
M  V30 3341 C 320.554 -1.65123 4.95511 0
M  V30 3342 H 322.248 -0.678673 2.91607 0
M  V30 3343 H 319.794 -0.325013 1.40284 0
M  V30 3344 H 321.747 -3.11437 2.83874 0
M  V30 3345 H 320.471 -2.83083 1.62885 0
M  V30 3346 H 319.13 -1.54045 3.32664 0
M  V30 3347 H 318.778 -4.00086 3.04861 0
M  V30 3348 H 318.478 -3.48866 4.72828 0
M  V30 3349 H 320.002 -4.32306 4.31212 0
M  V30 3350 H 321.416 -2.26241 5.26771 0
M  V30 3351 H 319.813 -1.65071 5.7695 0
M  V30 3352 H 320.883 -0.612559 4.81015 0
M  V30 3353 N 322.226 -1.5378 -0.344866 0
M  V30 3354 C 323.637 -1.62428 -0.920552 0
M  V30 3355 C 323.988 -0.504747 -1.89596 0
M  V30 3356 O 323.113 0.365711 -2.13287 0
M  V30 3357 C 323.708 -2.94419 -1.67639 0
M  V30 3358 C 322.267 -3.05333 -2.20111 0
M  V30 3359 C 321.414 -2.57866 -1.01982 0
M  V30 3360 H 324.365 -1.58222 -0.123042 0
M  V30 3361 H 324.386 -2.83384 -2.53917 0
M  V30 3362 H 323.898 -3.7588 -0.966224 0
M  V30 3363 H 321.999 -2.28502 -2.94308 0
M  V30 3364 H 322.112 -4.10778 -2.46573 0
M  V30 3365 H 320.476 -2.13241 -1.39285 0
M  V30 3366 H 321.259 -3.41765 -0.324308 0
M  V30 3367 N 323.704 0.605807 -1.45491 0
M  V30 3368 C 324.95 1.36481 -1.50813 0
M  V30 3369 C 325.305 1.91826 -0.148469 0
M  V30 3370 O 324.598 1.72211 0.839869 0
M  V30 3371 C 324.792 2.53012 -2.52428 0
M  V30 3372 C 324.621 2.09078 -3.98141 0
M  V30 3373 C 323.391 1.95167 -4.66088 0
M  V30 3374 C 325.589 1.66438 -4.86624 0
M  V30 3375 N 323.571 1.45062 -5.96515 0
M  V30 3376 C 324.942 1.27761 -6.06694 0
M  V30 3377 C 326.997 1.54046 -4.7347 0
M  V30 3378 C 325.7 0.779286 -7.15066 0
M  V30 3379 C 327.726 1.05618 -5.81892 0
M  V30 3380 C 327.088 0.67906 -7.01119 0
M  V30 3381 H 323.187 0.493267 -0.606805 0
M  V30 3382 H 325.771 0.692347 -1.81974 0
M  V30 3383 H 323.942 3.17851 -2.23215 0
M  V30 3384 H 325.674 3.19897 -2.47887 0
M  V30 3385 H 322.429 2.16407 -4.21266 0
M  V30 3386 H 322.853 1.22237 -6.65873 0
M  V30 3387 H 327.495 1.81827 -3.81705 0
M  V30 3388 H 325.213 0.489026 -8.06619 0
M  V30 3389 H 328.799 0.964529 -5.73749 0
M  V30 3390 H 327.679 0.310091 -7.83587 0
M  V30 3391 N 325.182 1.32811 0.848464 0
M  V30 3392 C 326.112 1.24882 1.97299 0
M  V30 3393 C 327.093 0.131357 1.69592 0
M  V30 3394 O 328.278 0.319553 1.91553 0
M  V30 3395 C 325.408 0.97746 3.33261 0
M  V30 3396 C 324.362 2.05682 3.75338 0
M  V30 3397 C 323.688 1.63777 5.09 0
M  V30 3398 C 324.988 3.47254 3.90144 0
M  V30 3399 H 326.682 2.18966 2.04191 0
M  V30 3400 H 324.228 1.05413 0.981029 0
M  V30 3401 H 326.181 0.908513 4.1149 0
M  V30 3402 H 324.905 0.000980011 3.266 0
M  V30 3403 H 323.564 2.11603 2.99366 0
M  V30 3404 H 323.212 0.648569 4.98801 0
M  V30 3405 H 322.912 2.36 5.38124 0
M  V30 3406 H 324.436 1.5833 5.89715 0
M  V30 3407 H 325.85 3.43888 4.58709 0
M  V30 3408 H 324.247 4.1788 4.30693 0
M  V30 3409 H 325.317 3.86462 2.92874 0
M  V30 3410 N 326.66 -1.06551 1.16123 0
M  V30 3411 C 328.071 -1.60768 0.949232 0
M  V30 3412 C 328.422 -1.89523 -0.507508 0
M  V30 3413 O 327.547 -1.66671 -1.38021 0
M  V30 3414 C 328.142 -2.92086 1.71671 0
M  V30 3415 C 326.701 -3.43015 1.54977 0
M  V30 3416 C 325.848 -2.16947 1.72711 0
M  V30 3417 H 328.799 -0.895354 1.31031 0
M  V30 3418 H 328.82 -3.6138 1.19099 0
M  V30 3419 H 328.332 -2.71127 2.7769 0
M  V30 3420 H 326.433 -3.69039 0.513873 0
M  V30 3421 H 326.546 -4.18516 2.33198 0
M  V30 3422 H 324.91 -2.27041 1.15431 0
M  V30 3423 H 325.693 -1.98473 2.80113 0
M  V30 3424 N 328.138 -0.959301 -1.25041 0
M  V30 3425 C 329.386 -0.615393 -1.92503 0
M  V30 3426 C 329.707 0.850969 -1.75452 0
M  V30 3427 O 328.977 1.60658 -1.12098 0
M  V30 3428 H 327.557 -0.224613 -0.712431 0
M  V30 3429 H 330.219 -1.21855 -1.5211 0
M  V30 3430 H 329.315 -0.848738 -3.00338 0
M  V30 3431 N 329.616 1.39756 -0.72842 0
M  V30 3432 C 330.579 2.29012 -0.0927297 0
M  V30 3433 C 331.579 1.45992 0.674025 0
M  V30 3434 O 332.769 1.66749 0.50402 0
M  V30 3435 C 329.901 3.29396 0.878137 0
M  V30 3436 H 331.094 2.86729 -0.879011 0
M  V30 3437 H 328.647 1.48293 -0.493847 0
M  V30 3438 H 329.382 2.76722 1.69101 0
M  V30 3439 H 329.167 3.907 0.331051 0
M  V30 3440 H 330.657 3.96199 1.3197 0
M  V30 3441 N 331.094 0.475555 1.50254 0
M  V30 3442 C 332.371 -0.139685 1.95101 0
M  V30 3443 C 332.751 -1.56555 1.41611 0
M  V30 3444 O 332.099 -2.19956 0.618993 0
M  V30 3445 C 332.309 -0.0784298 3.48912 0
M  V30 3446 C 333.657 -0.265095 4.23772 0
M  V30 3447 O 334.681 -0.154808 3.55863 0
M  V30 3448 O 333.54 -0.488327 5.44314 0
M  V30 3449 H 330.634 -0.109236 0.819754 0
M  V30 3450 H 333.18 0.536276 1.61004 0
M  V30 3451 H 331.952 0.916918 3.80405 0
M  V30 3452 H 331.575 -0.795655 3.89558 0
M  V30 3453 N 332.573 -1.56217 0.208337 0
M  V30 3454 C 333.801 -2.02337 -0.43215 0
M  V30 3455 C 334.216 -1.08834 -1.54275 0
M  V30 3456 O 333.573 -0.0955462 -1.8225 0
M  V30 3457 C 333.624 -3.48072 -0.976138 0
M  V30 3458 O 333.345 -4.38007 0.0901621 0
M  V30 3459 C 334.846 -4.09773 -1.69119 0
M  V30 3460 H 332.066 -0.662385 -0.10718 0
M  V30 3461 H 334.61 -2.01966 0.320923 0
M  V30 3462 H 332.765 -3.49099 -1.67954 0
M  V30 3463 H 333.179 -5.23543 -0.316701 0
M  V30 3464 H 334.653 -5.13556 -2.02397 0
M  V30 3465 H 335.13 -3.53999 -2.59964 0
M  V30 3466 H 335.736 -4.12556 -1.03332 0
M  V30 3467 N 334.051 0.0651679 -1.57465 0
M  V30 3468 C 334.983 1.10359 -2.00882 0
M  V30 3469 C 335.996 1.346 -0.915788 0
M  V30 3470 O 337.185 1.32723 -1.1936 0
M  V30 3471 C 334.285 2.45312 -2.33828 0
M  V30 3472 C 333.458 2.40934 -3.65061 0
M  V30 3473 C 332.517 3.58047 -3.85602 0
M  V30 3474 O 331.543 3.39175 -4.57109 0
M  V30 3475 N 332.745 4.78637 -3.28462 0
M  V30 3476 H 335.51 0.733807 -2.90578 0
M  V30 3477 H 333.071 0.253719 -1.599 0
M  V30 3478 H 335.063 3.22314 -2.44737 0
M  V30 3479 H 333.633 2.74267 -1.49988 0
M  V30 3480 H 332.853 1.49273 -3.64844 0
M  V30 3481 H 334.141 2.35117 -4.51218 0
M  V30 3482 H 333.539 4.96872 -2.70433 0
M  V30 3483 H 332.096 5.53127 -3.44809 0
M  V30 3484 N 335.529 1.53961 0.336706 0
M  V30 3485 C 336.777 1.71197 1.07405 0
M  V30 3486 C 337.098 0.481475 1.88962 0
M  V30 3487 O 336.368 -0.504585 1.8929 0
M  V30 3488 H 334.948 0.631185 0.399517 0
M  V30 3489 H 337.61 1.91232 0.376323 0
M  V30 3490 H 336.706 2.58587 1.74755 0
M  V30 3491 N 337.007 -0.598083 1.45811 0
M  V30 3492 C 338.232 -1.3881 1.54099 0
M  V30 3493 C 338.657 -1.8726 0.177578 0
M  V30 3494 O 338.015 -1.6069 -0.839541 0
M  V30 3495 C 338.063 -2.56217 2.53743 0
M  V30 3496 O 337.167 -3.5716 2.06182 0
M  V30 3497 H 336.508 -0.414024 0.519115 0
M  V30 3498 H 339.038 -0.726971 1.91249 0
M  V30 3499 H 339.048 -3.03337 2.72856 0
M  V30 3500 H 337.723 -2.20303 3.5276 0
M  V30 3501 H 336.3 -3.16624 1.96987 0
M  V30 3502 N 338.485 -1.33259 -0.841409 0
M  V30 3503 C 339.433 -1.23279 -1.97244 0
M  V30 3504 C 340.427 -0.134706 -1.68864 0
M  V30 3505 O 341.633 -0.298501 -1.77508 0
M  V30 3506 H 338.008 -0.382497 -0.647457 0
M  V30 3507 H 339.979 -2.18906 -2.02787 0
M  V30 3508 C 338.728 -0.986268 -3.33419 0
M  V30 3509 H 338.051 -1.82347 -3.55794 0
M  V30 3510 H 339.491 -0.956728 -4.13065 0
M  V30 3511 C 337.95 0.310842 -3.35463 0
M  V30 3512 O 338.48 1.31838 -3.79449 0
M  V30 3513 N 336.686 0.337485 -2.88634 0
M  V30 3514 H 336.233 -0.482967 -2.53032 0
M  V30 3515 H 336.191 1.20518 -2.90384 0
M  V30 3516 N 339.963 1.05934 -1.16686 0
M  V30 3517 C 341.209 1.79211 -0.962023 0
M  V30 3518 C 341.564 1.85667 0.504545 0
M  V30 3519 O 340.857 1.33991 1.36956 0
M  V30 3520 C 341.051 3.23105 -1.52767 0
M  V30 3521 C 340.88 3.30673 -3.04771 0
M  V30 3522 C 339.65 3.40395 -3.73442 0
M  V30 3523 C 341.848 3.20234 -4.02436 0
M  V30 3524 N 339.83 3.37015 -5.13122 0
M  V30 3525 C 341.201 3.24138 -5.28521 0
M  V30 3526 C 343.256 3.04143 -3.9421 0
M  V30 3527 C 341.959 3.13607 -6.47336 0
M  V30 3528 C 343.985 2.94951 -5.12599 0
M  V30 3529 C 343.347 2.99481 -6.37566 0
M  V30 3530 H 339.446 0.668442 -0.405844 0
M  V30 3531 H 342.03 1.26341 -1.48142 0
M  V30 3532 H 340.201 3.74364 -1.03471 0
M  V30 3533 H 341.933 3.84579 -1.26021 0
M  V30 3534 H 338.688 3.45344 -3.2409 0
M  V30 3535 H 339.112 3.38815 -5.86117 0
M  V30 3536 H 343.754 2.99484 -2.98445 0
M  V30 3537 H 341.472 3.17022 -7.43319 0
M  V30 3538 H 345.058 2.83583 -5.08008 0
M  V30 3539 H 343.938 2.92431 -7.27636 0
M  V30 3540 N 341.441 0.965919 1.2453 0
M  V30 3541 C 342.69 0.622437 1.91856 0
M  V30 3542 C 343.003 -0.846006 1.76358 0
M  V30 3543 O 344.209 -1.29993 2.38357 0
M  V30 3544 C 342.665 1.0626 3.43856 0
M  V30 3545 C 342.273 2.55437 3.68043 0
M  V30 3546 C 344.017 0.792183 4.17043 0
M  V30 3547 C 341.924 2.93196 5.13605 0
M  V30 3548 H 340.854 0.229092 0.718354 0
M  V30 3549 H 343.505 1.17189 1.41206 0
M  V30 3550 H 341.887 0.441476 3.93531 0
M  V30 3551 H 343.061 3.22665 3.28974 0
M  V30 3552 H 341.376 2.8007 3.08139 0
M  V30 3553 H 343.973 1.05031 5.24283 0
M  V30 3554 H 344.316 -0.271584 4.15413 0
M  V30 3555 H 344.849 1.37419 3.73311 0
M  V30 3556 H 341.588 3.98636 5.20355 0
M  V30 3557 H 341.108 2.30651 5.53679 0
M  V30 3558 H 342.787 2.83004 5.81823 0
M  V30 3559 N 342.919 -1.39368 0.735821 0
M  V30 3560 C 343.851 -2.2913 0.0567723 0
M  V30 3561 C 344.864 -1.46859 -0.702589 0
M  V30 3562 O 346.053 -1.69925 -0.546616 0
M  V30 3563 C 343.153 -3.25492 -0.943823 0
M  V30 3564 C 342.326 -4.36709 -0.24581 0
M  V30 3565 C 341.385 -5.13376 -1.15463 0
M  V30 3566 O 340.411 -5.65683 -0.631803 0
M  V30 3567 N 341.613 -5.24656 -2.48427 0
M  V30 3568 H 344.378 -2.88047 0.827582 0
M  V30 3569 H 341.939 -1.50957 0.585112 0
M  V30 3570 H 343.931 -3.73657 -1.55443 0
M  V30 3571 H 342.501 -2.676 -1.61583 0
M  V30 3572 H 341.721 -3.9041 0.545286 0
M  V30 3573 H 343.009 -5.08244 0.237891 0
M  V30 3574 H 342.407 -4.83679 -2.93379 0
M  V30 3575 H 340.964 -5.76258 -3.04582 0
M  V30 3576 N 344.397 -0.483516 -1.5 0
M  V30 3577 C 345.344 0.304164 -2.28787 0
M  V30 3578 C 346.314 0.976114 -1.34392 0
M  V30 3579 O 347.499 0.986156 -1.63339 0
M  V30 3580 C 344.639 1.37298 -3.16612 0
M  V30 3581 C 343.752 0.714561 -4.26049 0
M  V30 3582 C 342.887 1.76232 -5.01114 0
M  V30 3583 C 341.926 1.08483 -6.0241 0
M  V30 3584 N 341.063 2.076 -6.70706 0
M  V30 3585 H 345.903 -0.373981 -2.95644 0
M  V30 3586 H 343.44 -0.196275 -1.45785 0
M  V30 3587 H 345.398 2.00445 -3.65893 0
M  V30 3588 H 344.028 2.02012 -2.51776 0
M  V30 3589 H 343.08 -0.0297798 -3.80388 0
M  V30 3590 H 344.392 0.180383 -4.98474 0
M  V30 3591 H 343.546 2.46929 -5.54176 0
M  V30 3592 H 342.285 2.33033 -4.28424 0
M  V30 3593 H 341.29 0.363545 -5.48597 0
M  V30 3594 H 342.515 0.523551 -6.77079 0
M  V30 3595 H 340.461 2.63394 -6.00799 0
M  V30 3596 H 340.378 1.59201 -7.39047 0
M  V30 3597 H 341.646 2.77639 -7.2838 0
M  V30 3598 N 345.875 1.56104 -0.216619 0
M  V30 3599 C 346.785 2.23694 0.706982 0
M  V30 3600 C 347.801 1.24295 1.21765 0
M  V30 3601 O 348.977 1.57094 1.2603 0
M  V30 3602 C 346.042 2.8998 1.90033 0
M  V30 3603 C 345.103 4.04708 1.43213 0
M  V30 3604 C 344.336 4.67824 2.56859 0
M  V30 3605 O 344.559 4.29913 3.74874 0
M  V30 3606 O 343.493 5.56905 2.28343 0
M  V30 3607 H 347.319 3.03272 0.161235 0
M  V30 3608 H 344.904 1.49394 0.0136177 0
M  V30 3609 H 346.786 3.31837 2.59735 0
M  V30 3610 H 345.461 2.13365 2.43428 0
M  V30 3611 H 344.368 3.6743 0.70327 0
M  V30 3612 H 345.701 4.83051 0.944615 0
M  V30 3613 N 347.353 -0.0568162 1.57498 0
M  V30 3614 C 348.581 -0.765626 1.92213 0
M  V30 3615 C 348.996 -1.70353 0.813961 0
M  V30 3616 O 348.353 -1.81268 -0.211701 0
M  V30 3617 C 348.404 -1.5465 3.2675 0
M  V30 3618 O 348.125 -0.646278 4.33307 0
M  V30 3619 C 349.626 -2.35497 3.75574 0
M  V30 3620 H 346.846 -0.216835 0.634999 0
M  V30 3621 H 349.39 -0.0226146 2.04487 0
M  V30 3622 H 347.545 -2.24165 3.15957 0
M  V30 3623 H 347.959 -1.19093 5.108 0
M  V30 3624 H 349.433 -2.85722 4.72299 0
M  V30 3625 H 349.91 -3.15692 3.05344 0
M  V30 3626 H 350.516 -1.7111 3.8936 0
M  V30 3627 N 348.832 -1.54138 -0.328536 0
M  V30 3628 C 349.762 -1.86167 -1.40939 0
M  V30 3629 C 350.743 -0.718044 -1.54202 0
M  V30 3630 O 351.928 -0.971328 -1.68163 0
M  V30 3631 C 349.058 -2.08461 -2.77779 0
M  V30 3632 C 348.012 -3.24299 -2.7931 0
M  V30 3633 C 347.338 -3.31955 -4.19178 0
M  V30 3634 C 348.638 -4.62065 -2.43502 0
M  V30 3635 H 350.332 -2.76689 -1.14383 0
M  V30 3636 H 347.878 -1.33132 -0.548806 0
M  V30 3637 H 349.831 -2.29453 -3.53454 0
M  V30 3638 H 348.555 -1.14684 -3.05802 0
M  V30 3639 H 347.214 -3.03187 -2.0609 0
M  V30 3640 H 346.862 -2.35745 -4.44335 0
M  V30 3641 H 346.562 -4.09805 -4.2111 0
M  V30 3642 H 348.086 -3.55175 -4.96672 0
M  V30 3643 H 349.5 -4.8297 -3.08889 0
M  V30 3644 H 347.897 -5.42429 -2.56693 0
M  V30 3645 H 348.967 -4.64652 -1.38659 0
M  V30 3646 N 350.31 0.590341 -1.46126 0
M  V30 3647 C 351.556 1.35082 -1.51264 0
M  V30 3648 C 351.889 1.93534 -0.160711 0
M  V30 3649 O 351.164 1.76045 0.826956 0
M  V30 3650 C 351.447 2.48588 -2.6053 0
M  V30 3651 C 351.3 1.95221 -4.05227 0
M  V30 3652 C 352.619 3.50662 -2.6594 0
M  V30 3653 H 349.738 0.489803 -0.550692 0
M  V30 3654 H 352.38 0.663887 -1.78024 0
M  V30 3655 H 350.53 3.07186 -2.37843 0
M  V30 3656 H 352.202 1.41139 -4.39178 0
M  V30 3657 H 350.445 1.26101 -4.15068 0
M  V30 3658 H 351.116 2.77121 -4.77397 0
M  V30 3659 H 353.592 3.01934 -2.86313 0
M  V30 3660 H 352.468 4.27551 -3.44226 0
M  V30 3661 H 352.729 4.07399 -1.71694 0
M  V30 3662 N 351.788 1.33704 0.83433 0
M  V30 3663 C 353.016 1.28467 1.62185 0
M  V30 3664 C 353.431 -0.143526 1.88254 0
M  V30 3665 O 352.788 -1.08709 1.4659 0
M  V30 3666 C 352.839 2.06174 2.96942 0
M  V30 3667 O 352.56 3.43422 2.72016 0
M  V30 3668 C 354.061 2.08201 3.91366 0
M  V30 3669 H 351.281 0.4424 0.504503 0
M  V30 3670 H 353.825 1.76145 1.03891 0
M  V30 3671 H 351.98 1.62167 3.51825 0
M  V30 3672 H 352.394 3.83453 3.57861 0
M  V30 3673 H 353.868 2.67017 4.83121 0
M  V30 3674 H 354.345 1.07343 4.2588 0
M  V30 3675 H 354.951 2.52246 3.42421 0
M  V30 3676 N 353.266 -1.05314 1.17247 0
M  V30 3677 C 354.513 -1.78293 0.960091 0
M  V30 3678 C 354.841 -1.87658 -0.51136 0
M  V30 3679 O 354.096 -1.3718 -1.39571 0
M  V30 3680 C 354.395 -3.2229 1.54479 0
M  V30 3681 C 354.061 -3.32987 3.04024 0
M  V30 3682 C 352.723 -3.35613 3.44844 0
M  V30 3683 C 355.075 -3.34102 4.00031 0
M  V30 3684 C 352.403 -3.36982 4.8027 0
M  V30 3685 C 354.755 -3.3701 5.35357 0
M  V30 3686 C 353.419 -3.37923 5.75642 0
M  V30 3687 H 352.689 -0.652422 0.351322 0
M  V30 3688 H 355.336 -1.23782 1.46117 0
M  V30 3689 H 353.641 -3.7972 0.965391 0
M  V30 3690 H 355.338 -3.77376 1.35603 0
M  V30 3691 H 351.928 -3.31655 2.71483 0
M  V30 3692 H 356.112 -3.31276 3.69554 0
M  V30 3693 H 351.368 -3.35999 5.10798 0
M  V30 3694 H 355.542 -3.36822 6.09528 0
M  V30 3695 H 353.169 -3.38738 6.80559 0
M  V30 3696 N 354.744 -0.972509 -1.24016 0
M  V30 3697 C 355.691 -0.505969 -2.25186 0
M  V30 3698 C 356.661 0.451009 -1.5986 0
M  V30 3699 O 357.846 0.360307 -1.87367 0
M  V30 3700 C 354.986 0.193089 -3.44559 0
M  V30 3701 C 354.099 -0.803222 -4.24467 0
M  V30 3702 C 353.234 -0.0797793 -5.3114 0
M  V30 3703 C 352.273 -1.06583 -6.02749 0
M  V30 3704 N 351.41 -0.372074 -7.01113 0
M  V30 3705 H 356.25 -1.37351 -2.64459 0
M  V30 3706 H 353.787 -0.688419 -1.29997 0
M  V30 3707 H 355.745 0.615125 -4.1264 0
M  V30 3708 H 354.375 1.02455 -3.06109 0
M  V30 3709 H 353.427 -1.34368 -3.55878 0
M  V30 3710 H 354.739 -1.55494 -4.73944 0
M  V30 3711 H 353.893 0.400015 -6.0538 0
M  V30 3712 H 352.632 0.704597 -4.82583 0
M  V30 3713 H 351.637 -1.55645 -5.27309 0
M  V30 3714 H 352.862 -1.85074 -6.53395 0
M  V30 3715 H 350.808 0.393238 -6.5482 0
M  V30 3716 H 350.725 -1.06258 -7.48495 0
M  V30 3717 H 351.993 0.0855932 -7.79453 0
M  V30 3718 N 356.222 1.38976 -0.743202 0
M  V30 3719 C 357.17 2.32394 -0.0978389 0
M  V30 3720 C 358.164 1.53486 0.716824 0
M  V30 3721 O 359.37 1.69092 0.617088 0
M  V30 3722 H 355.745 0.75189 -0.0128402 0
M  V30 3723 H 357.716 2.84441 -0.901981 0
M  V30 3724 C 356.465 3.38629 0.789036 0
M  V30 3725 H 355.788 3.99432 0.171559 0
M  V30 3726 H 357.228 4.06426 1.20807 0
M  V30 3727 C 355.687 2.76347 1.92702 0
M  V30 3728 O 356.217 2.64836 3.02034 0
M  V30 3729 N 354.423 2.34311 1.71891 0
M  V30 3730 H 353.97 2.43873 0.829675 0
M  V30 3731 H 353.928 1.9298 2.48205 0
M  V30 3732 N 357.7 0.491464 1.49741 0
M  V30 3733 C 359.111 0.0413169 1.86654 0
M  V30 3734 C 359.462 -1.36985 1.40462 0
M  V30 3735 O 358.587 -2.01917 0.778354 0
M  V30 3736 C 359.182 0.0682023 3.38731 0
M  V30 3737 C 357.741 -0.32656 3.74981 0
M  V30 3738 C 356.888 0.444888 2.73708 0
M  V30 3739 H 359.839 0.704733 1.42194 0
M  V30 3740 H 359.86 -0.729322 3.73445 0
M  V30 3741 H 359.372 1.09539 3.72321 0
M  V30 3742 H 357.473 -1.35734 3.46997 0
M  V30 3743 H 357.586 -0.013741 4.79098 0
M  V30 3744 H 355.95 -0.104062 2.54487 0
M  V30 3745 H 356.733 1.47197 3.10142 0
M  V30 3746 N 359.178 -1.55987 0.224894 0
M  V30 3747 C 360.128 -2.17076 -0.697296 0
M  V30 3748 C 361.112 -1.12006 -1.15514 0
M  V30 3749 O 362.304 -1.37985 -1.10857 0
M  V30 3750 C 359.433 -2.85679 -1.90374 0
M  V30 3751 C 358.519 -3.97977 -1.46543 0
M  V30 3752 N 358.91 -5.00359 -0.739909 0
M  V30 3753 C 357.208 -4.10128 -1.75245 0
M  V30 3754 C 357.909 -5.79407 -0.515939 0
M  V30 3755 N 356.885 -5.32892 -1.07364 0
M  V30 3756 H 360.687 -2.93592 -0.134594 0
M  V30 3757 H 358.201 -1.62379 0.0262885 0
M  V30 3758 H 360.198 -3.27857 -2.57518 0
M  V30 3759 H 358.858 -2.1066 -2.47088 0
M  V30 3760 H 359.869 -5.16412 -0.392253 0
M  V30 3761 H 356.546 -3.46263 -2.33255 0
M  V30 3762 H 357.936 -6.71872 0.0617349 0
M  V30 3763 N 360.656 0.0484629 -1.57525 0
M  V30 3764 C 361.619 1.03956 -2.04269 0
M  V30 3765 C 362.619 1.30211 -0.943496 0
M  V30 3766 O 363.809 1.25539 -1.20771 0
M  V30 3767 C 360.941 2.37742 -2.44319 0
M  V30 3768 H 362.134 0.636182 -2.93075 0
M  V30 3769 H 359.687 0.294811 -1.53494 0
M  V30 3770 H 360.422 2.82866 -1.5861 0
M  V30 3771 H 360.207 2.20021 -3.24551 0
M  V30 3772 H 361.697 3.08936 -2.80978 0
M  V30 3773 N 362.134 1.5431 0.320358 0
M  V30 3774 C 363.081 1.83918 1.39438 0
M  V30 3775 C 364.051 0.686525 1.51248 0
M  V30 3776 O 365.236 0.933269 1.66417 0
M  V30 3777 C 362.376 2.075 2.75749 0
M  V30 3778 C 361.489 3.35177 2.72544 0
M  V30 3779 C 360.624 3.48704 4.00723 0
M  V30 3780 C 359.663 4.70244 3.91838 0
M  V30 3781 N 358.8 4.80679 5.11754 0
M  V30 3782 H 363.64 2.75544 1.13489 0
M  V30 3783 H 361.177 1.36459 0.549309 0
M  V30 3784 H 363.135 2.19166 3.54996 0
M  V30 3785 H 361.765 1.19163 3 0
M  V30 3786 H 360.817 3.32233 1.85271 0
M  V30 3787 H 362.129 4.24534 2.61863 0
M  V30 3788 H 361.283 3.59928 4.88402 0
M  V30 3789 H 360.022 2.57445 4.14214 0
M  V30 3790 H 359.027 4.59072 3.02544 0
M  V30 3791 H 360.252 5.6289 3.7991 0
M  V30 3792 H 358.198 3.92337 5.25745 0
M  V30 3793 H 358.115 5.64007 5.0342 0
M  V30 3794 H 359.383 4.96239 6.01138 0
M  V30 3795 N 363.613 -0.582584 1.46437 0
M  V30 3796 C 364.56 -1.69164 1.5701 0
M  V30 3797 C 365.53 -1.60847 0.414403 0
M  V30 3798 O 366.715 -1.80058 0.631171 0
M  V30 3799 C 363.855 -3.075 1.56646 0
M  V30 3800 C 362.968 -3.2644 2.82951 0
M  V30 3801 C 362.103 -4.55026 2.7409 0
M  V30 3802 C 361.142 -4.6731 3.95333 0
M  V30 3803 N 360.279 -5.87221 3.84858 0
M  V30 3804 H 365.119 -1.59464 2.51744 0
M  V30 3805 H 362.656 -0.777186 1.24893 0
M  V30 3806 H 364.614 -3.8757 1.5442 0
M  V30 3807 H 363.244 -3.16096 0.654439 0
M  V30 3808 H 362.296 -2.39974 2.95155 0
M  V30 3809 H 363.608 -3.31385 3.72808 0
M  V30 3810 H 362.762 -5.43324 2.6997 0
M  V30 3811 H 361.501 -4.52519 1.81873 0
M  V30 3812 H 360.506 -3.77429 3.99784 0
M  V30 3813 H 361.731 -4.71595 4.88646 0
M  V30 3814 H 359.677 -5.85712 2.95427 0
M  V30 3815 H 359.594 -5.93435 4.6837 0
M  V30 3816 H 360.862 -6.7795 3.84713 0
M  V30 3817 N 365.091 -1.34144 -0.827227 0
M  V30 3818 C 366.023 -1.21206 -1.9453 0
M  V30 3819 C 367.036 -0.140176 -1.62195 0
M  V30 3820 O 368.225 -0.391647 -1.7415 0
M  V30 3821 C 365.325 -0.839141 -3.28347 0
M  V30 3822 C 364.498 -2.0051 -3.88734 0
M  V30 3823 C 363.557 -1.61128 -5.00923 0
M  V30 3824 O 362.583 -2.32726 -5.19449 0
M  V30 3825 N 363.785 -0.522958 -5.7814 0
M  V30 3826 H 366.55 -2.17525 -2.06162 0
M  V30 3827 H 364.111 -1.27043 -1.00358 0
M  V30 3828 H 366.103 -0.557556 -4.00841 0
M  V30 3829 H 364.673 0.0337293 -3.12582 0
M  V30 3830 H 363.893 -2.45166 -3.08686 0
M  V30 3831 H 365.181 -2.78498 -4.25812 0
M  V30 3832 H 364.579 0.0723518 -5.65654 0
M  V30 3833 H 363.136 -0.301089 -6.51104 0
M  V30 3834 N 366.569 1.04691 -1.17803 0
M  V30 3835 C 367.846 1.7472 -0.879328 0
M  V30 3836 C 368.226 2.01812 0.619271 0
M  V30 3837 O 367.574 1.65824 1.57209 0
M  V30 3838 C 367.784 3.03686 -1.71976 0
M  V30 3839 C 369.132 3.77542 -1.94286 0
M  V30 3840 O 370.156 3.13569 -1.68976 0
M  V30 3841 O 369.015 4.92506 -2.36855 0
M  V30 3842 H 366.109 0.760011 -0.326056 0
M  V30 3843 H 368.655 1.10813 -1.28525 0
M  V30 3844 H 367.427 2.79754 -2.73594 0
M  V30 3845 H 367.05 3.75332 -1.31194 0
M  V30 3846 N 368.047 0.979072 1.23499 0
M  V30 3847 C 369.293 0.648178 1.92163 0
M  V30 3848 C 369.626 -0.816049 1.76222 0
M  V30 3849 O 368.901 -1.58849 1.12237 0
M  V30 3850 C 369.184 1.03773 3.44824 0
M  V30 3851 C 369.037 2.55948 3.69879 0
M  V30 3852 C 370.356 0.580653 4.36253 0
M  V30 3853 H 367.475 0.236952 0.69787 0
M  V30 3854 H 370.117 1.22012 1.45647 0
M  V30 3855 H 368.267 0.551058 3.84572 0
M  V30 3856 H 369.939 3.12179 3.3962 0
M  V30 3857 H 368.182 2.98641 3.14636 0
M  V30 3858 H 368.853 2.78255 4.76737 0
M  V30 3859 H 371.329 0.998465 4.03943 0
M  V30 3860 H 370.205 0.881663 5.41773 0
M  V30 3861 H 370.466 -0.519052 4.39042 0
M  V30 3862 N 369.525 -1.3858 0.750561 0
M  V30 3863 C 370.771 -2.00481 0.305825 0
M  V30 3864 C 371.104 -1.5944 -1.10872 0
M  V30 3865 O 370.379 -0.83052 -1.75877 0
M  V30 3866 C 370.662 -3.5758 0.425287 0
M  V30 3867 C 370.515 -4.08594 1.88072 0
M  V30 3868 C 371.834 -4.39719 -0.183122 0
M  V30 3869 H 368.953 -0.728348 0.112598 0
M  V30 3870 H 371.595 -1.64566 0.949638 0
M  V30 3871 H 369.745 -3.88306 -0.122828 0
M  V30 3872 H 371.417 -3.88523 2.48691 0
M  V30 3873 H 369.66 -3.61574 2.39681 0
M  V30 3874 H 370.331 -5.177 1.91548 0
M  V30 3875 H 372.807 -4.15128 0.284303 0
M  V30 3876 H 371.683 -5.48856 -0.0692757 0
M  V30 3877 H 371.944 -4.23434 -1.27106 0
M  V30 3878 N 371.003 -0.499398 -1.49478 0
M  V30 3879 C 372.249 0.0457576 -2.02748 0
M  V30 3880 C 372.582 1.36793 -1.37846 0
M  V30 3881 O 371.857 1.87596 -0.513601 0
M  V30 3882 C 372.14 0.199986 -3.59544 0
M  V30 3883 C 371.993 -1.1452 -4.34977 0
M  V30 3884 C 373.312 0.94137 -4.29914 0
M  V30 3885 H 370.431 0.0151552 -0.736844 0
M  V30 3886 H 373.073 -0.650498 -1.78518 0
M  V30 3887 H 371.223 0.793007 -3.8032 0
M  V30 3888 H 372.895 -1.77697 -4.25701 0
M  V30 3889 H 371.138 -1.73488 -3.97598 0
M  V30 3890 H 371.809 -0.990607 -5.43039 0
M  V30 3891 H 374.285 0.43844 -4.13784 0
M  V30 3892 H 373.161 1.01812 -5.39375 0
M  V30 3893 H 373.422 1.98471 -3.95046 0
M  V30 3894 N 372.481 1.55866 -0.233164 0
M  V30 3895 C 373.411 2.23783 0.666599 0
M  V30 3896 C 374.392 1.21343 1.19205 0
M  V30 3897 O 375.577 1.4996 1.23392 0
M  V30 3898 C 372.707 2.92671 1.86978 0
M  V30 3899 C 371.661 4.01682 1.47768 0
M  V30 3900 C 370.987 4.57926 2.76058 0
M  V30 3901 C 372.287 5.18126 0.658993 0
M  V30 3902 H 373.981 2.99232 0.100306 0
M  V30 3903 H 371.527 1.43924 0.046804 0
M  V30 3904 H 373.48 3.3888 2.50476 0
M  V30 3905 H 372.204 2.14688 2.46123 0
M  V30 3906 H 370.863 3.56222 0.866106 0
M  V30 3907 H 370.511 3.76659 3.33372 0
M  V30 3908 H 370.211 5.31505 2.50552 0
M  V30 3909 H 371.735 5.06859 3.40479 0
M  V30 3910 H 373.149 5.60644 1.19795 0
M  V30 3911 H 371.546 5.98009 0.500552 0
M  V30 3912 H 372.616 4.83763 -0.331856 0
M  V30 3913 N 373.959 -0.0401083 1.57549 0
M  V30 3914 C 375.207 -0.731677 1.8839 0
M  V30 3915 C 375.528 -1.76481 0.829425 0
M  V30 3916 O 374.798 -1.95411 -0.1383 0
M  V30 3917 H 373.378 -0.273225 0.695239 0
M  V30 3918 H 376.04 -0.00867725 1.94898 0
M  V30 3919 H 375.136 -1.22816 2.86919 0
M  V30 3920 N 375.437 -1.54477 -0.31217 0
M  V30 3921 C 376.662 -1.77526 -1.07235 0
M  V30 3922 C 377.087 -0.527775 -1.80544 0
M  V30 3923 O 376.445 0.52121 -1.73646 0
M  V30 3924 C 376.493 -2.97535 -2.03728 0
M  V30 3925 O 375.597 -2.69878 -3.11833 0
M  V30 3926 H 374.938 -0.58792 -0.30862 0
M  V30 3927 H 377.468 -2.01532 -0.352993 0
M  V30 3928 H 377.478 -3.25198 -2.46395 0
M  V30 3929 H 376.153 -3.87996 -1.49774 0
M  V30 3930 H 374.73 -2.53199 -2.7376 0
M  V30 3931 N 376.915 0.57481 -1.46744 0
M  V30 3932 C 377.847 1.69804 -1.53946 0
M  V30 3933 C 378.86 1.57098 -0.427106 0
M  V30 3934 O 380.049 1.64378 -0.695863 0
M  V30 3935 C 377.149 3.08125 -1.4111 0
M  V30 3936 C 376.322 3.46757 -2.66605 0
M  V30 3937 C 375.381 4.6417 -2.47855 0
M  V30 3938 O 374.407 4.69634 -3.21609 0
M  V30 3939 N 375.609 5.59553 -1.54534 0
M  V30 3940 H 378.374 1.64077 -2.50796 0
M  V30 3941 H 375.935 0.761 -1.429 0
M  V30 3942 H 377.927 3.84478 -1.26328 0
M  V30 3943 H 376.497 3.08175 -0.524109 0
M  V30 3944 H 375.717 2.6003 -2.96274 0
M  V30 3945 H 377.005 3.69337 -3.49954 0
M  V30 3946 H 376.403 5.57881 -0.937304 0
M  V30 3947 H 374.96 6.35304 -1.45711 0
M  V30 3948 N 378.394 1.34581 0.820102 0
M  V30 3949 C 379.304 1.28471 1.96297 0
M  V30 3950 C 380.32 0.191902 1.72939 0
M  V30 3951 O 381.496 0.418879 1.96996 0
M  V30 3952 C 378.561 1.04281 3.30645 0
M  V30 3953 C 377.622 2.22745 3.66992 0
M  V30 3954 C 376.855 1.997 4.9493 0
M  V30 3955 O 377.078 0.956656 5.6232 0
M  V30 3956 O 376.012 2.86723 5.2922 0
M  V30 3957 H 379.838 2.24624 2.04396 0
M  V30 3958 H 377.423 1.14816 0.955913 0
M  V30 3959 H 379.305 0.925841 4.11104 0
M  V30 3960 H 377.98 0.111697 3.23507 0
M  V30 3961 H 376.887 2.40003 2.86966 0
M  V30 3962 H 378.22 3.14257 3.78819 0
M  V30 3963 N 379.872 -1.04064 1.18357 0
M  V30 3964 C 381.12 -1.76915 0.977013 0
M  V30 3965 C 381.441 -1.88624 -0.494577 0
M  V30 3966 O 380.711 -1.41125 -1.3587 0
M  V30 3967 H 379.291 -0.65535 0.358504 0
M  V30 3968 H 381.953 -1.25592 1.49039 0
M  V30 3969 H 381.049 -2.78178 1.41504 0
M  V30 3970 N 381.35 -0.985608 -1.22978 0
M  V30 3971 C 382.313 -0.535071 -2.22867 0
M  V30 3972 C 383.313 0.378123 -1.56291 0
M  V30 3973 O 384.503 0.171092 -1.73358 0
M  V30 3974 C 381.635 0.222702 -3.40172 0
M  V30 3975 H 382.828 -1.41835 -2.6424 0
M  V30 3976 H 380.381 -0.772042 -1.35901 0
M  V30 3977 H 381.116 1.12229 -3.04262 0
M  V30 3978 H 380.901 -0.43288 -3.89703 0
M  V30 3979 H 382.391 0.526335 -4.1427 0
M  V30 3980 N 382.828 1.3818 -0.7579 0
M  V30 3981 C 383.761 2.28055 -0.0814093 0
M  V30 3982 C 384.739 1.45603 0.723779 0
M  V30 3983 O 385.923 1.74961 0.701491 0
M  V30 3984 C 383.05 3.2676 0.891394 0
M  V30 3985 C 382.096 4.26153 0.171909 0
M  V30 3986 S 382.929 5.23434 -1.13035 0
M  V30 3987 C 384.085 6.25694 -0.160727 0
M  V30 3988 H 384.318 2.85082 -0.84353 0
M  V30 3989 H 381.851 1.44246 -0.550671 0
M  V30 3990 H 383.809 3.8414 1.44731 0
M  V30 3991 H 382.47 2.68706 1.62652 0
M  V30 3992 H 381.663 4.95738 0.908843 0
M  V30 3993 H 381.265 3.72691 -0.312606 0
M  V30 3994 H 383.557 6.74161 0.671773 0
M  V30 3995 H 384.5 7.03285 -0.824353 0
M  V30 3996 H 384.908 5.64064 0.221892 0
M  V30 3997 N 384.306 0.507319 1.49211 0
M  V30 3998 C 385.256 -0.287112 2.26185 0
M  V30 3999 C 386.24 -0.929983 1.31302 0
M  V30 4000 O 387.432 -0.836538 1.55984 0
M  V30 4001 C 384.561 -1.34718 3.15763 0
M  V30 4002 C 383.647 -0.710235 4.18111 0
M  V30 4003 N 384.038 0.190836 5.0544 0
M  V30 4004 C 382.336 -0.97009 4.35322 0
M  V30 4005 C 383.037 0.55606 5.79036 0
M  V30 4006 N 382.013 -0.0775232 5.43545 0
M  V30 4007 H 385.815 0.406445 2.91076 0
M  V30 4008 H 383.329 0.323814 1.59139 0
M  V30 4009 H 385.326 -1.92982 3.69545 0
M  V30 4010 H 383.986 -2.04235 2.52424 0
M  V30 4011 H 384.997 0.562047 5.14841 0
M  V30 4012 H 381.674 -1.65753 3.83187 0
M  V30 4013 H 383.064 1.2936 6.5933 0
M  V30 4014 N 385.784 -1.5574 0.241426 0
M  V30 4015 C 387.012 -2.03208 -0.389134 0
M  V30 4016 C 387.427 -1.12082 -1.51931 0
M  V30 4017 O 386.784 -0.134183 -1.82006 0
M  V30 4018 C 386.835 -3.50064 -0.902087 0
M  V30 4019 O 386.556 -4.37717 0.18305 0
M  V30 4020 C 388.057 -4.13268 -1.60389 0
M  V30 4021 H 385.277 -0.664509 -0.0931053 0
M  V30 4022 H 387.821 -2.0124 0.36369 0
M  V30 4023 H 385.976 -3.52583 -1.60511 0
M  V30 4024 H 386.39 -5.24097 -0.205579 0
M  V30 4025 H 387.864 -5.17733 -1.91458 0
M  V30 4026 H 388.341 -3.59434 -2.52397 0
M  V30 4027 H 388.947 -4.14655 -0.945576 0
M  V30 4028 N 387.262 0.0317525 -1.57568 0
M  V30 4029 C 388.225 1.01783 -2.0536 0
M  V30 4030 C 389.225 1.29203 -0.957253 0
M  V30 4031 O 390.415 1.24251 -1.22095 0
M  V30 4032 C 387.547 2.35137 -2.46827 0
M  V30 4033 H 388.74 0.605062 -2.93733 0
M  V30 4034 H 386.293 0.278514 -1.53799 0
M  V30 4035 H 387.028 2.81168 -1.61602 0
M  V30 4036 H 386.813 2.16566 -3.26866 0
M  V30 4037 H 388.303 3.05938 -2.84239 0
M  V30 4038 N 388.74 1.54641 0.303973 0
M  V30 4039 C 389.67 1.88386 1.3796 0
M  V30 4040 C 390.651 0.742485 1.5304 0
M  V30 4041 O 391.836 0.997959 1.66597 0
M  V30 4042 C 388.966 2.12854 2.74427 0
M  V30 4043 C 387.92 3.28702 2.74115 0
M  V30 4044 C 387.246 3.38582 4.13844 0
M  V30 4045 C 388.546 4.65881 2.3612 0
M  V30 4046 H 390.24 2.78474 1.09966 0
M  V30 4047 H 387.786 1.33988 0.527556 0
M  V30 4048 H 389.739 2.35047 3.49758 0
M  V30 4049 H 388.463 1.19535 3.03939 0
M  V30 4050 H 387.122 3.06428 2.0124 0
M  V30 4051 H 386.77 2.42784 4.40528 0
M  V30 4052 H 386.47 4.16453 4.14537 0
M  V30 4053 H 387.994 3.63031 4.90959 0
M  V30 4054 H 389.408 4.87823 3.01167 0
M  V30 4055 H 387.805 5.46444 2.48031 0
M  V30 4056 H 388.875 4.66799 1.3125 0
M  V30 4057 N 390.218 -0.567019 1.47046 0
M  V30 4058 C 391.446 -1.35027 1.56765 0
M  V30 4059 C 391.861 -1.8758 0.214316 0
M  V30 4060 O 391.218 -1.64471 -0.790919 0
M  V30 4061 C 391.269 -2.52698 2.58507 0
M  V30 4062 O 390.99 -2.0232 3.88585 0
M  V30 4063 C 392.491 -3.45043 2.78316 0
M  V30 4064 H 389.711 -0.41195 0.529658 0
M  V30 4065 H 392.255 -0.687832 1.92585 0
M  V30 4066 H 390.41 -3.149 2.25648 0
M  V30 4067 H 390.824 -2.79068 4.44096 0
M  V30 4068 H 392.298 -4.2405 3.53391 0
M  V30 4069 H 392.775 -3.97971 1.85784 0
M  V30 4070 H 393.381 -2.88665 3.12334 0
M  V30 4071 N 391.696 -1.35014 -0.812953 0
M  V30 4072 C 392.944 -1.27678 -1.56661 0
M  V30 4073 C 393.265 0.150359 -1.94419 0
M  V30 4074 O 392.535 1.08532 -1.63088 0
M  V30 4075 H 391.115 -0.469602 -0.580933 0
M  V30 4076 H 393.777 -1.69043 -0.970076 0
M  V30 4077 H 392.873 -1.88833 -2.48492 0
M  V30 4078 N 393.175 1.03435 -1.18907 0
M  V30 4079 C 394.138 2.09756 -0.923844 0
M  V30 4080 C 395.138 1.60528 0.093416 0
M  V30 4081 O 396.328 1.73631 -0.140727 0
M  V30 4082 C 393.46 3.38692 -0.387354 0
M  V30 4083 H 394.653 2.34719 -1.86674 0
M  V30 4084 H 392.206 1.19959 -1.00197 0
M  V30 4085 H 392.941 3.19396 0.561845 0
M  V30 4086 H 392.726 3.75742 -1.12074 0
M  V30 4087 H 394.216 4.17016 -0.220694 0
M  V30 4088 N 394.653 0.992116 1.22453 0
M  V30 4089 C 395.881 0.685944 1.95198 0
M  V30 4090 C 396.296 -0.749233 1.73297 0
M  V30 4091 O 395.653 -1.50549 1.03156 0
M  V30 4092 C 395.704 0.981395 3.47924 0
M  V30 4093 O 395.425 2.36018 3.6909 0
M  V30 4094 C 396.926 0.692815 4.37853 0
M  V30 4095 H 394.146 0.253821 0.621141 0
M  V30 4096 H 396.69 1.32668 1.55626 0
M  V30 4097 H 394.845 0.386481 3.85467 0
M  V30 4098 H 395.259 2.45884 4.63294 0
M  V30 4099 H 396.733 0.949818 5.43767 0
M  V30 4100 H 397.21 -0.373181 4.37612 0
M  V30 4101 H 397.816 1.26874 4.05935 0
M  V30 4102 N 396.131 -1.37776 0.765217 0
M  V30 4103 C 397.041 -2.34135 0.147666 0
M  V30 4104 C 398.057 -1.59854 -0.687215 0
M  V30 4105 O 399.233 -1.91983 -0.608659 0
M  V30 4106 C 396.298 -3.3901 -0.72617 0
M  V30 4107 C 395.359 -4.2912 0.124417 0
M  V30 4108 C 394.592 -5.28986 -0.707807 0
M  V30 4109 O 394.815 -5.36205 -1.94525 0
M  V30 4110 O 393.749 -6.01779 -0.12046 0
M  V30 4111 H 397.575 -2.88664 0.943758 0
M  V30 4112 H 395.16 -1.39824 0.526277 0
M  V30 4113 H 397.042 -4.03195 -1.22524 0
M  V30 4114 H 395.717 -2.86819 -1.50056 0
M  V30 4115 H 394.624 -3.68057 0.669696 0
M  V30 4116 H 395.957 -4.84598 0.861736 0
M  V30 4117 N 397.609 -0.515225 -1.4894 0
M  V30 4118 C 398.858 0.0261361 -2.01683 0
M  V30 4119 C 399.171 1.36719 -1.39883 0
M  V30 4120 O 400.377 1.99606 -1.84037 0
M  V30 4121 C 398.833 0.0970111 -3.59769 0
M  V30 4122 C 398.441 -1.23825 -4.30548 0
M  V30 4123 C 400.185 0.587981 -4.20408 0
M  V30 4124 C 398.092 -1.12877 -5.80528 0
M  V30 4125 H 397.022 0.0135398 -0.753878 0
M  V30 4126 H 399.673 -0.656787 -1.71343 0
M  V30 4127 H 398.055 0.844694 -3.86886 0
M  V30 4128 H 399.229 -2.00034 -4.15118 0
M  V30 4129 H 397.544 -1.66379 -3.81716 0
M  V30 4130 H 400.141 0.68763 -5.3026 0
M  V30 4131 H 400.484 1.59026 -3.84729 0
M  V30 4132 H 401.017 -0.103582 -3.97665 0
M  V30 4133 H 397.756 -2.10575 -6.20756 0
M  V30 4134 H 397.276 -0.407799 -5.98412 0
M  V30 4135 H 398.955 -0.813332 -6.41868 0
M  V30 4136 N 399.087 1.5561 -0.249682 0
M  V30 4137 C 400.019 2.18834 0.681496 0
M  V30 4138 C 401.032 1.16546 1.1367 0
M  V30 4139 O 402.221 1.43397 1.06299 0
M  V30 4140 C 399.321 2.77992 1.9384 0
M  V30 4141 C 398.494 4.05725 1.63419 0
M  V30 4142 C 397.553 4.49174 2.74096 0
M  V30 4143 O 396.579 5.15492 2.41364 0
M  V30 4144 N 397.781 4.17191 4.03649 0
M  V30 4145 H 400.546 2.9937 0.140514 0
M  V30 4146 H 398.107 1.6175 -0.0697541 0
M  V30 4147 H 400.099 3.04015 2.67127 0
M  V30 4148 H 398.669 2.01596 2.38909 0
M  V30 4149 H 397.889 3.87261 0.736358 0
M  V30 4150 H 399.177 4.88999 1.40562 0
M  V30 4151 H 398.575 3.63955 4.33074 0
M  V30 4152 H 397.132 4.48043 4.73393 0
M  V30 4153 N 400.565 -0.0233959 1.57583 0
M  V30 4154 C 401.498 -1.05549 2.02323 0
M  V30 4155 C 402.476 -1.34843 0.908626 0
M  V30 4156 O 403.66 -1.47404 1.17491 0
M  V30 4157 C 400.787 -2.38885 2.40108 0
M  V30 4158 C 399.833 -2.2541 3.62067 0
M  V30 4159 S 400.666 -1.60217 5.1097 0
M  V30 4160 C 401.822 -2.95032 5.52003 0
M  V30 4161 H 402.055 -0.674435 2.89549 0
M  V30 4162 H 399.588 -0.23355 1.52623 0
M  V30 4163 H 401.546 -3.15562 2.62547 0
M  V30 4164 H 400.207 -2.74137 1.53323 0
M  V30 4165 H 399.4 -3.23854 3.86179 0
M  V30 4166 H 399.002 -1.56876 3.39508 0
M  V30 4167 H 401.294 -3.91357 5.53033 0
M  V30 4168 H 402.237 -2.75646 6.52246 0
M  V30 4169 H 402.645 -2.97865 4.79517 0
M  V30 4170 N 402.043 -1.548 -0.295768 0
M  V30 4171 C 403.268 -1.78653 -1.05346 0
M  V30 4172 C 403.693 -0.546894 -1.79974 0
M  V30 4173 O 403.051 0.502763 -1.7419 0
M  V30 4174 C 403.099 -2.99679 -2.00561 0
M  V30 4175 O 402.203 -2.7317 -3.08953 0
M  V30 4176 H 401.544 -0.59116 -0.302367 0
M  V30 4177 H 404.074 -2.01895 -0.331598 0
M  V30 4178 H 404.084 -3.27793 -2.42932 0
M  V30 4179 H 402.759 -3.89562 -1.4565 0
M  V30 4180 H 401.336 -2.56089 -2.71059 0
M  V30 4181 N 403.521 0.559213 -1.47345 0
M  V30 4182 C 404.746 1.34676 -1.57725 0
M  V30 4183 C 405.171 1.86723 -0.227164 0
M  V30 4184 O 404.529 1.6286 0.796642 0
M  V30 4185 C 404.577 2.49399 -2.60447 0
M  V30 4186 O 403.681 3.51567 -2.15578 0
M  V30 4187 H 403.022 0.400115 -0.52991 0
M  V30 4188 H 405.552 0.676009 -1.93109 0
M  V30 4189 H 405.562 2.95996 -2.80803 0
M  V30 4190 H 404.237 2.10873 -3.58477 0
M  V30 4191 H 402.814 3.11289 -2.05313 0
M  V30 4192 N 404.999 1.35443 0.805782 0
M  V30 4193 C 406.247 1.28507 1.55982 0
M  V30 4194 C 406.568 -0.140046 1.94496 0
M  V30 4195 O 405.838 -1.07666 1.63661 0
M  V30 4196 H 404.418 0.472676 0.578434 0
M  V30 4197 H 407.08 1.69555 0.961098 0
M  V30 4198 H 406.176 1.90148 2.47488 0
M  V30 4199 N 406.477 -1.02803 1.19454 0
M  V30 4200 C 407.425 -2.13213 0.929673 0
M  V30 4201 C 408.419 -1.69011 -0.114806 0
M  V30 4202 O 409.625 -1.79967 0.0345147 0
M  V30 4203 H 406 -0.69662 0.28324 0
M  V30 4204 H 407.971 -2.32744 1.86743 0
M  V30 4205 C 406.72 -3.4429 0.485797 0
M  V30 4206 H 406.043 -3.7872 1.28105 0
M  V30 4207 H 407.483 -4.22638 0.339582 0
M  V30 4208 C 405.942 -3.27258 -0.800244 0
M  V30 4209 O 406.472 -3.55967 -1.86146 0
M  V30 4210 N 404.678 -2.80545 -0.75781 0
M  V30 4211 H 404.225 -2.57382 0.106039 0
M  V30 4212 H 404.183 -2.6953 -1.61867 0
M  V30 4213 N 407.956 -0.998596 -1.21925 0
M  V30 4214 C 408.886 -0.573688 -2.26343 0
M  V30 4215 C 409.867 0.402296 -1.65274 0
M  V30 4216 O 411.052 0.291683 -1.91997 0
M  V30 4217 C 408.182 0.106839 -3.47136 0
M  V30 4218 C 407.136 -0.788269 -4.20678 0
M  V30 4219 C 406.462 0.0254927 -5.34694 0
M  V30 4220 C 407.762 -2.08784 -4.78755 0
M  V30 4221 H 409.456 -1.44651 -2.62138 0
M  V30 4222 H 407.002 -0.696975 -1.26009 0
M  V30 4223 H 408.955 0.415531 -4.19346 0
M  V30 4224 H 407.679 1.01424 -3.10452 0
M  V30 4225 H 406.338 -1.08069 -3.50309 0
M  V30 4226 H 405.986 0.933989 -4.94253 0
M  V30 4227 H 405.686 -0.570437 -5.84825 0
M  V30 4228 H 407.21 0.328147 -6.09718 0
M  V30 4229 H 408.624 -1.84272 -5.42878 0
M  V30 4230 H 407.021 -2.63307 -5.39249 0
M  V30 4231 H 408.091 -2.76284 -3.98491 0
M  V30 4232 N 409.434 1.37368 -0.772513 0
M  V30 4233 C 410.364 2.32856 -0.173304 0
M  V30 4234 C 411.345 1.55818 0.682262 0
M  V30 4235 O 412.53 1.84052 0.619566 0
M  V30 4236 C 409.66 3.40048 0.706007 0
M  V30 4237 C 408.614 4.27973 -0.0483144 0
M  V30 4238 C 407.94 5.26184 0.950491 0
M  V30 4239 C 409.24 5.07665 -1.22776 0
M  V30 4240 H 410.934 2.83217 -0.971002 0
M  V30 4241 H 408.48 1.3617 -0.468377 0
M  V30 4242 H 410.433 4.05827 1.13501 0
M  V30 4243 H 409.157 2.88214 1.53623 0
M  V30 4244 H 407.816 3.63726 -0.458107 0
M  V30 4245 H 407.464 4.7063 1.77529 0
M  V30 4246 H 407.164 5.85872 0.450314 0
M  V30 4247 H 408.688 5.94838 1.37842 0
M  V30 4248 H 410.102 5.66578 -0.875366 0
M  V30 4249 H 408.499 5.76681 -1.66007 0
M  V30 4250 H 409.569 4.40294 -2.03149 0
M  V30 4251 N 410.912 0.523116 1.48665 0
M  V30 4252 C 412.159 -0.0134763 2.02496 0
M  V30 4253 C 412.487 -1.3493 1.40086 0
M  V30 4254 O 411.742 -1.88286 0.533567 0
M  V30 4255 C 412.041 -0.191671 3.56886 0
M  V30 4256 C 411.707 1.06893 4.38046 0
M  V30 4257 C 410.369 1.41443 4.59943 0
M  V30 4258 C 412.721 1.90584 4.85106 0
M  V30 4259 C 410.049 2.59594 5.26144 0
M  V30 4260 C 412.401 3.07907 5.52609 0
M  V30 4261 C 411.065 3.42811 5.72745 0
M  V30 4262 H 410.335 -0.00493133 0.740984 0
M  V30 4263 H 412.982 0.687751 1.78724 0
M  V30 4264 H 411.287 -0.97561 3.79459 0
M  V30 4265 H 412.984 -0.621659 3.96152 0
M  V30 4266 H 409.574 0.789848 4.21259 0
M  V30 4267 H 413.758 1.65203 4.67997 0
M  V30 4268 H 409.014 2.86847 5.39934 0
M  V30 4269 H 413.188 3.73066 5.88043 0
M  V30 4270 H 410.815 4.34462 6.23816 0
M  V30 4271 N 412.39 -1.55475 0.257931 0
M  V30 4272 C 413.618 -2.03609 -0.367559 0
M  V30 4273 C 414.033 -1.13687 -1.50734 0
M  V30 4274 O 413.39 -0.153479 -1.81853 0
M  V30 4275 C 413.441 -3.51001 -0.864908 0
M  V30 4276 O 413.162 -4.37499 0.229465 0
M  V30 4277 C 414.663 -4.14946 -1.55997 0
M  V30 4278 H 411.883 -0.665459 -0.0860521 0
M  V30 4279 H 414.427 -2.00843 0.385014 0
M  V30 4280 H 412.582 -3.54266 -1.56762 0
M  V30 4281 H 412.996 -5.24286 -0.14998 0
M  V30 4282 H 414.47 -5.19735 -1.85956 0
M  V30 4283 H 414.947 -3.6209 -2.4857 0
M  V30 4284 H 415.553 -4.15635 -0.901543 0
M  V30 4285 N 413.868 0.0150385 -1.57593 0
M  V30 4286 C 415.116 0.701613 -1.8953 0
M  V30 4287 C 415.437 1.75139 -0.857396 0
M  V30 4288 O 414.707 1.95607 0.107194 0
M  V30 4289 H 413.287 0.26213 -0.699498 0
M  V30 4290 H 415.949 -0.0223304 -1.94887 0
M  V30 4291 H 415.045 1.18236 -2.88837 0
M  V30 4292 N 415.346 1.54954 0.287554 0
M  V30 4293 C 416.296 1.8322 1.357 0
M  V30 4294 C 417.28 0.690152 1.45347 0
M  V30 4295 O 418.472 0.951137 1.49273 0
M  V30 4296 C 415.601 2.09481 2.71979 0
M  V30 4297 C 414.687 3.29906 2.66502 0
M  V30 4298 N 415.078 4.50154 2.30641 0
M  V30 4299 C 413.376 3.32203 2.97585 0
M  V30 4300 C 414.077 5.32209 2.34794 0
M  V30 4301 N 413.053 4.70258 2.72688 0
M  V30 4302 H 416.855 2.73746 1.0696 0
M  V30 4303 H 414.369 1.54635 0.496167 0
M  V30 4304 H 416.366 2.27882 3.49107 0
M  V30 4305 H 415.026 1.2023 3.0162 0
M  V30 4306 H 416.037 4.76515 2.02865 0
M  V30 4307 H 412.714 2.53101 3.32034 0
M  V30 4308 H 414.104 6.38321 2.09753 0
M  V30 4309 N 416.824 -0.551391 1.4764 0
M  V30 4310 C 417.754 -1.66757 1.63445 0
M  V30 4311 C 418.735 -1.63077 0.483742 0
M  V30 4312 O 419.92 -1.80607 0.71377 0
M  V30 4313 C 417.05 -3.05387 1.65396 0
M  V30 4314 C 416.004 -3.23918 2.79752 0
M  V30 4315 C 415.33 -4.63393 2.66779 0
M  V30 4316 C 416.63 -3.08735 4.21284 0
M  V30 4317 H 418.324 -1.53786 2.56886 0
M  V30 4318 H 415.87 -0.738415 1.23626 0
M  V30 4319 H 417.823 -3.83325 1.75043 0
M  V30 4320 H 416.547 -3.19332 0.685195 0
M  V30 4321 H 415.206 -2.48391 2.69625 0
M  V30 4322 H 414.854 -4.74144 1.67918 0
M  V30 4323 H 414.554 -4.7674 3.43501 0
M  V30 4324 H 416.078 -5.43458 2.78364 0
M  V30 4325 H 417.492 -3.76484 4.32357 0
M  V30 4326 H 415.889 -3.33588 4.98838 0
M  V30 4327 H 416.959 -2.0541 4.39243 0
M  V30 4328 N 418.302 -1.35869 -0.798587 0
M  V30 4329 C 419.249 -1.29446 -1.91082 0
M  V30 4330 C 420.219 -0.16487 -1.6528 0
M  V30 4331 O 421.404 -0.349888 -1.87564 0
M  V30 4332 C 418.544 -1.0804 -3.27752 0
M  V30 4333 C 417.657 -2.29993 -3.65687 0
M  V30 4334 C 416.792 -2.01673 -4.91428 0
M  V30 4335 C 415.831 -3.19636 -5.22015 0
M  V30 4336 N 414.968 -2.91039 -6.38937 0
M  V30 4337 H 419.808 -2.24553 -1.95907 0
M  V30 4338 H 417.345 -1.11615 -0.958148 0
M  V30 4339 H 419.303 -0.936586 -4.06551 0
M  V30 4340 H 417.933 -0.16592 -3.22373 0
M  V30 4341 H 416.985 -2.55211 -2.82085 0
M  V30 4342 H 418.297 -3.18052 -3.84245 0
M  V30 4343 H 417.451 -1.84168 -5.78072 0
M  V30 4344 H 416.19 -1.10911 -4.74921 0
M  V30 4345 H 415.195 -3.37709 -4.33858 0
M  V30 4346 H 416.42 -4.11211 -5.40447 0
M  V30 4347 H 414.366 -2.0288 -6.2384 0
M  V30 4348 H 414.283 -3.72635 -6.57784 0
M  V30 4349 H 415.551 -2.77093 -7.28587 0
M  V30 4350 N 419.78 1.02168 -1.19998 0
M  V30 4351 C 421.02 1.77232 -1.01825 0
M  V30 4352 C 421.384 1.86833 0.442428 0
M  V30 4353 O 422.585 2.58293 0.744189 0
M  V30 4354 C 420.856 3.15601 -1.67722 0
M  V30 4355 S 422.415 4.06765 -1.64584 0
M  V30 4356 H 419.233 0.610021 -0.365233 0
M  V30 4357 H 421.835 1.22368 -1.52467 0
M  V30 4358 H 420.539 3.06235 -2.73218 0
M  V30 4359 H 420.07 3.7554 -1.17189 0
M  V30 4360 H 422.085 4.91586 -0.67511 0
M  V30 4361 N 421.258 1.00505 1.21394 0
M  V30 4362 C 422.674 0.717873 1.42544 0
M  V30 4363 C 422.874 -0.706936 1.88692 0
M  V30 4364 O 421.93 -1.47627 2.04847 0
M  V30 4365 C 423.243 1.73377 2.45684 0
M  V30 4366 C 424.791 1.75059 2.59467 0
M  V30 4367 C 425.266 2.75545 3.6584 0
M  V30 4368 N 426.757 2.74213 3.73311 0
M  V30 4369 C 427.492 3.48626 4.55245 0
M  V30 4370 N 426.988 4.32678 5.41075 0
M  V30 4371 N 428.781 3.37276 4.49668 0
M  V30 4372 H 420.932 1.92506 0.897503 0
M  V30 4373 H 423.195 0.830919 0.456375 0
M  V30 4374 H 422.901 2.75395 2.18748 0
M  V30 4375 H 422.775 1.53647 3.44489 0
M  V30 4376 H 425.162 0.737337 2.8574 0
M  V30 4377 H 425.243 1.98861 1.60897 0
M  V30 4378 H 424.887 3.77028 3.40313 0
M  V30 4379 H 424.817 2.49009 4.64007 0
M  V30 4380 H 427.308 2.13234 3.11993 0
M  V30 4381 H 427.621 4.86253 6.00648 0
M  V30 4382 H 425.966 4.3676 5.40616 0
M  V30 4383 H 429.157 2.71043 3.81646 0
M  V30 4384 H 429.33 3.95524 5.13288 0
M  V30 4385 N 422.737 -1.36956 0.779787 0
M  V30 4386 C 423.667 -2.32761 0.185651 0
M  V30 4387 C 424.648 -1.56177 -0.673989 0
M  V30 4388 O 425.833 -1.84378 -0.609797 0
M  V30 4389 C 422.963 -3.40418 -0.687964 0
M  V30 4390 C 421.917 -4.27941 0.0710102 0
M  V30 4391 C 421.243 -5.26681 -0.922573 0
M  V30 4392 C 422.543 -5.07006 1.25467 0
M  V30 4393 H 424.237 -2.82698 0.986008 0
M  V30 4394 H 421.783 -1.3592 0.475592 0
M  V30 4395 H 423.736 -4.06423 -1.11348 0
M  V30 4396 H 422.46 -2.89025 -1.52093 0
M  V30 4397 H 421.119 -3.63478 0.47739 0
M  V30 4398 H 420.767 -4.71565 -1.7503 0
M  V30 4399 H 420.467 -5.86103 -0.419237 0
M  V30 4400 H 421.991 -5.9556 -1.34686 0
M  V30 4401 H 423.405 -5.66105 0.905401 0
M  V30 4402 H 421.802 -5.75793 1.69063 0
M  V30 4403 H 422.872 -4.3921 2.05481 0
M  V30 4404 N 424.215 -0.530993 -1.48385 0
M  V30 4405 C 425.631 -0.188919 -1.58478 0
M  V30 4406 C 425.831 1.30786 -1.53288 0
M  V30 4407 O 424.887 2.08619 -1.42248 0
M  V30 4408 C 426.2 -0.792343 -2.90073 0
M  V30 4409 C 427.748 -0.76117 -3.03604 0
M  V30 4410 C 428.223 -1.34319 -4.37861 0
M  V30 4411 N 429.714 -1.3052 -4.44431 0
M  V30 4412 C 430.449 -1.72543 -5.46824 0
M  V30 4413 N 429.945 -2.22299 -6.56167 0
M  V30 4414 N 431.738 -1.63773 -5.37712 0
M  V30 4415 H 423.889 -1.50377 -1.50002 0
M  V30 4416 H 426.152 -0.625559 -0.712306 0
M  V30 4417 H 425.858 -1.84323 -2.99529 0
M  V30 4418 H 425.732 -0.270026 -3.76232 0
M  V30 4419 H 428.119 0.280957 -2.93759 0
M  V30 4420 H 428.2 -1.32097 -2.19053 0
M  V30 4421 H 427.844 -2.38425 -4.4846 0
M  V30 4422 H 427.774 -0.759064 -5.21101 0
M  V30 4423 H 430.265 -0.940973 -3.65997 0
M  V30 4424 H 430.578 -2.52356 -7.30436 0
M  V30 4425 H 428.923 -2.26293 -6.57127 0
M  V30 4426 H 432.114 -1.24698 -4.51185 0
M  V30 4427 H 432.287 -1.96844 -6.17379 0
M  V30 4428 N 425.693 1.55336 -0.266172 0
M  V30 4429 C 426.626 2.18256 0.666296 0
M  V30 4430 C 427.604 1.14064 1.1588 0
M  V30 4431 O 428.788 1.42546 1.23341 0
M  V30 4432 C 425.915 2.79867 1.90768 0
M  V30 4433 C 424.961 3.97283 1.55141 0
M  V30 4434 S 425.794 5.31694 0.637313 0
M  V30 4435 C 426.95 5.96769 1.88727 0
M  V30 4436 H 427.183 2.97008 0.131647 0
M  V30 4437 H 424.716 1.54317 -0.0504869 0
M  V30 4438 H 426.674 3.15996 2.62025 0
M  V30 4439 H 425.335 2.01025 2.41346 0
M  V30 4440 H 424.528 4.3905 2.4749 0
M  V30 4441 H 424.13 3.6253 0.919113 0
M  V30 4442 H 426.422 6.15458 2.83227 0
M  V30 4443 H 427.365 6.91752 1.51276 0
M  V30 4444 H 427.773 5.26034 2.04814 0
M  V30 4445 N 427.171 -0.0066808 1.57599 0
M  V30 4446 C 428.448 -0.729586 1.81484 0
M  V30 4447 C 428.828 -1.92359 0.869558 0
M  V30 4448 O 428.176 -2.28348 -0.0832533 0
M  V30 4449 C 428.386 -1.1416 3.29801 0
M  V30 4450 C 429.734 -1.54823 3.95367 0
M  V30 4451 O 430.758 -1.23558 3.34084 0
M  V30 4452 O 429.617 -2.12937 5.03309 0
M  V30 4453 H 426.711 -0.354674 0.747085 0
M  V30 4454 H 429.257 0.0182609 1.6969 0
M  V30 4455 H 428.029 -0.290231 3.90222 0
M  V30 4456 H 427.652 -1.94876 3.46568 0
M  V30 4457 N 428.649 -1.55105 -0.279332 0
M  V30 4458 C 429.596 -1.8755 -1.34513 0
M  V30 4459 C 430.566 -0.726384 -1.49375 0
M  V30 4460 O 431.751 -0.977063 -1.63884 0
M  V30 4461 C 428.891 -2.14738 -2.70151 0
M  V30 4462 C 428.004 -3.42285 -2.63562 0
M  V30 4463 C 427.139 -3.59206 -3.91337 0
M  V30 4464 C 426.178 -4.80467 -3.79233 0
M  V30 4465 N 425.315 -4.94079 -4.98829 0
M  V30 4466 H 430.155 -2.78456 -1.06143 0
M  V30 4467 H 427.692 -1.37867 -0.512936 0
M  V30 4468 H 429.65 -2.28501 -3.49061 0
M  V30 4469 H 428.28 -1.27075 -2.96735 0
M  V30 4470 H 427.332 -3.37029 -1.76397 0
M  V30 4471 H 428.644 -4.31328 -2.50515 0
M  V30 4472 H 427.798 -3.72751 -4.78687 0
M  V30 4473 H 426.537 -2.68337 -4.07243 0
M  V30 4474 H 425.542 -4.66932 -2.90266 0
M  V30 4475 H 426.767 -5.72765 -3.64852 0
M  V30 4476 H 424.713 -4.06139 -5.15158 0
M  V30 4477 H 424.63 -5.77156 -4.8829 0
M  V30 4478 H 425.898 -5.12003 -5.8777 0
M  V30 4479 N 430.127 0.543554 -1.4793 0
M  V30 4480 C 431.057 1.65888 -1.64327 0
M  V30 4481 C 432.038 1.62818 -0.492383 0
M  V30 4482 O 433.223 1.80226 -0.723338 0
M  V30 4483 C 430.353 3.04506 -1.67013 0
M  V30 4484 C 429.307 3.2243 -2.81466 0
M  V30 4485 C 428.633 4.61972 -2.69233 0
M  V30 4486 C 429.933 3.06496 -4.22915 0
M  V30 4487 H 431.627 1.52421 -2.57698 0
M  V30 4488 H 429.173 0.731849 -1.24016 0
M  V30 4489 H 431.126 3.82391 -1.77074 0
M  V30 4490 H 429.85 3.18964 -0.70212 0
M  V30 4491 H 428.509 2.46957 -2.70938 0
M  V30 4492 H 428.157 4.73247 -1.7043 0
M  V30 4493 H 427.857 4.74911 -3.46025 0
M  V30 4494 H 429.381 5.41974 -2.81242 0
M  V30 4495 H 430.795 3.74186 -4.34348 0
M  V30 4496 H 429.192 3.30938 -5.006 0
M  V30 4497 H 430.262 2.03077 -4.40327 0
M  V30 4498 N 431.605 1.3629 0.791371 0
M  V30 4499 C 432.537 1.26321 1.91248 0
M  V30 4500 C 433.55 0.18313 1.61767 0
M  V30 4501 O 434.739 0.437682 1.73051 0
M  V30 4502 C 431.839 0.925901 3.26007 0
M  V30 4503 C 431.012 2.10746 3.83281 0
M  V30 4504 C 430.071 1.74352 4.96475 0
M  V30 4505 O 429.097 2.46416 5.13096 0
M  V30 4506 N 430.299 0.676058 5.7655 0
M  V30 4507 H 433.064 2.22915 2.00323 0
M  V30 4508 H 430.625 1.29659 0.969546 0
M  V30 4509 H 432.617 0.663636 3.99222 0
M  V30 4510 H 431.187 0.0491581 3.12561 0
M  V30 4511 H 430.407 2.53264 3.02077 0
M  V30 4512 H 431.695 2.8969 4.18279 0
M  V30 4513 H 431.093 0.0776467 5.65647 0
M  V30 4514 H 429.65 0.473612 6.50077 0
M  V30 4515 N 433.083 -1.0153 1.20538 0
M  V30 4516 C 434.013 -2.11972 0.979295 0
M  V30 4517 C 434.994 -1.6985 -0.0921787 0
M  V30 4518 O 436.179 -1.94089 0.0655932 0
M  V30 4519 C 433.309 -3.43201 0.531984 0
M  V30 4520 C 432.263 -3.9907 1.54685 0
M  V30 4521 C 431.589 -5.26082 0.956127 0
M  V30 4522 C 432.889 -4.32313 2.93092 0
M  V30 4523 H 434.583 -2.31143 1.90298 0
M  V30 4524 H 432.129 -1.11079 0.916372 0
M  V30 4525 H 434.082 -4.1985 0.361044 0
M  V30 4526 H 432.806 -3.23792 -0.427327 0
M  V30 4527 H 431.465 -3.2453 1.70517 0
M  V30 4528 H 431.113 -5.02999 -0.0111538 0
M  V30 4529 H 430.813 -5.64426 1.63393 0
M  V30 4530 H 432.337 -6.05386 0.796284 0
M  V30 4531 H 433.751 -4.99845 2.80763 0
M  V30 4532 H 432.148 -4.81774 3.57791 0
M  V30 4533 H 433.218 -3.41025 3.44717 0
M  V30 4534 N 434.561 -1.01147 -1.20859 0
M  V30 4535 C 435.508 -0.577354 -2.23462 0
M  V30 4536 C 436.478 0.399922 -1.61214 0
M  V30 4537 O 437.663 0.300515 -1.88419 0
M  V30 4538 C 434.803 0.083372 -3.44999 0
M  V30 4539 C 433.916 -0.937856 -4.21697 0
M  V30 4540 C 433.051 -0.248717 -5.30617 0
M  V30 4541 C 432.09 -1.25705 -5.99053 0
M  V30 4542 N 431.227 -0.594939 -6.99575 0
M  V30 4543 H 436.067 -1.45695 -2.59956 0
M  V30 4544 H 433.604 -0.729428 -1.27741 0
M  V30 4545 H 435.562 0.483535 -4.14388 0
M  V30 4546 H 434.192 0.926645 -3.09214 0
M  V30 4547 H 433.244 -1.45622 -3.51423 0
M  V30 4548 H 434.556 -1.70493 -4.68757 0
M  V30 4549 H 433.71 0.207215 -6.06346 0
M  V30 4550 H 432.449 0.55071 -4.84581 0
M  V30 4551 H 431.454 -1.72343 -5.2209 0
M  V30 4552 H 432.679 -2.05767 -6.47176 0
M  V30 4553 H 430.625 0.184713 -6.5574 0
M  V30 4554 H 430.542 -1.30017 -7.44736 0
M  V30 4555 H 431.81 -0.162427 -7.79331 0
M  V30 4556 N 436.039 1.36541 -0.78704 0
M  V30 4557 C 437.287 1.98911 -0.357633 0
M  V30 4558 C 437.608 1.62778 1.07371 0
M  V30 4559 O 436.878 0.900612 1.73971 0
M  V30 4560 H 435.458 0.735734 -0.129246 0
M  V30 4561 H 438.12 1.66776 -1.00855 0
M  V30 4562 H 437.216 3.08874 -0.447549 0
M  V30 4563 N 437.518 0.538854 1.48102 0
M  V30 4564 C 438.451 -0.266495 2.26639 0
M  V30 4565 C 439.429 -0.93687 1.32897 0
M  V30 4566 O 440.613 -0.959507 1.62252 0
M  V30 4567 C 437.74 -1.37814 3.09394 0
M  V30 4568 C 436.786 -0.818247 4.18577 0
M  V30 4569 S 437.619 0.320848 5.34538 0
M  V30 4570 C 438.775 -0.793059 6.20855 0
M  V30 4571 H 439.008 0.399994 2.94597 0
M  V30 4572 H 436.541 0.324808 1.50945 0
M  V30 4573 H 438.499 -2.01488 3.57649 0
M  V30 4574 H 437.16 -2.01639 2.40833 0
M  V30 4575 H 436.353 -1.65247 4.7614 0
M  V30 4576 H 435.955 -0.258036 3.73109 0
M  V30 4577 H 438.247 -1.68961 6.56093 0
M  V30 4578 H 439.19 -0.255204 7.0764 0
M  V30 4579 H 439.598 -1.07746 5.54122 0
M  V30 4580 N 438.996 -1.55193 0.274407 0
M  V30 4581 C 440.221 -2.04446 -0.348824 0
M  V30 4582 C 440.646 -1.15149 -1.48735 0
M  V30 4583 O 440.004 -0.149952 -1.80679 0
M  V30 4584 C 440.052 -3.51431 -0.808009 0
M  V30 4585 O 439.156 -3.65225 -1.91531 0
M  V30 4586 H 438.497 -0.66006 -0.0722276 0
M  V30 4587 H 441.027 -2.00481 0.408498 0
M  V30 4588 H 441.037 -3.92781 -1.10395 0
M  V30 4589 H 439.712 -4.15892 0.0249865 0
M  V30 4590 H 438.289 -3.35778 -1.62196 0
M  V30 4591 N 440.474 -0.00167713 -1.576 0
M  V30 4592 C 441.704 0.692754 -1.94639 0
M  V30 4593 C 442.112 1.67744 -0.87513 0
M  V30 4594 O 441.455 1.8305 0.154382 0
M  V30 4595 C 441.517 1.47881 -3.27676 0
M  V30 4596 C 441.181 0.655518 -4.52274 0
M  V30 4597 C 442.178 -0.0575214 -5.19868 0
M  V30 4598 C 439.863 0.600994 -4.98692 0
M  V30 4599 C 441.857 -0.814052 -6.3218 0
M  V30 4600 C 439.544 -0.15926 -6.10892 0
M  V30 4601 C 440.542 -0.865515 -6.77494 0
M  V30 4602 O 440.23 -1.61336 -7.87544 0
M  V30 4603 H 439.962 0.197792 -0.646417 0
M  V30 4604 H 442.516 -0.049423 -2.05341 0
M  V30 4605 H 440.746 2.2655 -3.13388 0
M  V30 4606 H 442.435 2.05874 -3.49816 0
M  V30 4607 H 443.201 -0.0245611 -4.84994 0
M  V30 4608 H 439.08 1.14025 -4.46676 0
M  V30 4609 H 442.624 -1.36584 -6.84098 0
M  V30 4610 H 438.521 -0.194035 -6.45208 0
M  V30 4611 H 439.289 -1.53025 -8.04068 0
M  V30 4612 N 441.952 1.55251 0.271103 0
M  V30 4613 C 443.177 1.80306 1.02491 0
M  V30 4614 C 443.602 0.575457 1.79081 0
M  V30 4615 O 442.96 -0.474987 1.74967 0
M  V30 4616 C 443.008 3.02832 1.95768 0
M  V30 4617 O 442.112 2.78051 3.04568 0
M  V30 4618 H 441.453 0.595896 0.292923 0
M  V30 4619 H 443.983 2.02397 0.299436 0
M  V30 4620 H 443.993 3.31616 2.37686 0
M  V30 4621 H 442.668 3.9183 1.39434 0
M  V30 4622 H 441.245 2.60369 2.66951 0
M  V30 4623 N 443.43 -0.535701 1.48216 0
M  V30 4624 C 444.363 -1.65726 1.56876 0
M  V30 4625 C 445.341 -1.57094 0.419542 0
M  V30 4626 O 446.525 -1.77648 0.630352 0
M  V30 4627 C 443.652 -3.04096 1.49142 0
M  V30 4628 C 442.698 -3.31105 2.68834 0
M  V30 4629 S 443.531 -3.18001 4.30854 0
M  V30 4630 C 444.687 -4.58828 4.25709 0
M  V30 4631 H 444.92 -1.58129 2.51759 0
M  V30 4632 H 442.453 -0.718218 1.36678 0
M  V30 4633 H 444.411 -3.839 1.45366 0
M  V30 4634 H 443.072 -3.09139 0.556067 0
M  V30 4635 H 442.265 -4.32033 2.59545 0
M  V30 4636 H 441.867 -2.58961 2.69843 0
M  V30 4637 H 444.159 -5.5023 3.95289 0
M  V30 4638 H 445.102 -4.73172 5.26796 0
M  V30 4639 H 445.51 -4.37883 3.56257 0
M  V30 4640 N 444.908 -1.36708 -0.784132 0
M  V30 4641 C 446.148 -1.32618 -1.55537 0
M  V30 4642 C 446.512 0.0920681 -1.91779 0
M  V30 4643 O 447.713 0.257573 -2.67563 0
M  V30 4644 C 445.984 -2.22788 -2.79464 0
M  V30 4645 S 447.543 -2.36432 -3.69656 0
M  V30 4646 H 444.361 -0.470973 -0.53264 0
M  V30 4647 H 446.963 -1.72333 -0.92312 0
M  V30 4648 H 445.667 -3.24774 -2.50899 0
M  V30 4649 H 445.198 -1.84112 -3.47658 0
M  V30 4650 H 447.213 -1.56573 -4.7085 0
M  V30 4651 N 446.386 1.0089 -1.21074 0
M  V30 4652 C 447.614 1.78191 -1.05145 0
M  V30 4653 C 448.029 1.84537 0.398952 0
M  V30 4654 O 447.386 1.30393 1.27687 0
M  V30 4655 C 447.437 3.22288 -1.63746 0
M  V30 4656 O 447.158 3.16315 -3.03111 0
M  V30 4657 C 448.659 4.16106 -1.52875 0
M  V30 4658 H 445.879 0.560129 -0.369454 0
M  V30 4659 H 448.423 1.26945 -1.60328 0
M  V30 4660 H 446.578 3.70655 -1.12664 0
M  V30 4661 H 446.992 4.06817 -3.31059 0
M  V30 4662 H 448.466 5.15026 -1.98626 0
M  V30 4663 H 448.943 4.36541 -0.482521 0
M  V30 4664 H 449.549 3.73625 -2.03185 0
M  V30 4665 N 447.864 1.01787 1.20321 0
M  V30 4666 C 449.112 0.706538 1.89347 0
M  V30 4667 C 449.433 -0.766289 1.79313 0
M  V30 4668 O 448.703 -1.55126 1.19635 0
M  V30 4669 H 447.283 0.258348 0.700903 0
M  V30 4670 H 449.945 1.28974 1.46122 0
M  V30 4671 H 449.041 0.991066 2.95946 0
M  V30 4672 N 449.342 -1.36122 0.79427 0
M  V30 4673 C 450.289 -2.29982 0.194101 0
M  V30 4674 C 451.259 -1.52214 -0.664833 0
M  V30 4675 O 452.444 -1.80702 -0.612498 0
M  V30 4676 C 449.584 -3.38706 -0.661244 0
M  V30 4677 C 448.697 -4.31456 0.216766 0
M  V30 4678 C 447.832 -5.27265 -0.645411 0
M  V30 4679 C 446.871 -6.11653 0.233756 0
M  V30 4680 N 446.008 -6.99636 -0.587682 0
M  V30 4681 H 450.848 -2.80722 0.999965 0
M  V30 4682 H 448.385 -1.38172 0.504677 0
M  V30 4683 H 450.343 -4.00394 -1.17219 0
M  V30 4684 H 448.973 -2.89274 -1.43249 0
M  V30 4685 H 448.025 -3.7088 0.845724 0
M  V30 4686 H 449.337 -4.90724 0.893973 0
M  V30 4687 H 448.491 -5.94266 -1.22198 0
M  V30 4688 H 447.23 -4.68463 -1.35623 0
M  V30 4689 H 446.235 -5.4361 0.82269 0
M  V30 4690 H 447.46 -6.72531 0.942247 0
M  V30 4691 H 445.406 -6.43337 -1.2827 0
M  V30 4692 H 445.323 -7.55993 0.0317402 0
M  V30 4693 H 446.591 -7.71001 -1.14792 0
M  V30 4694 N 450.82 -0.546701 -1.47814 0
M  V30 4695 C 452.067 -0.0187407 -2.02491 0
M  V30 4696 C 452.395 1.32685 -1.42215 0
M  V30 4697 O 451.65 1.87413 -0.563454 0
M  V30 4698 C 451.949 0.134869 -3.57145 0
M  V30 4699 C 451.615 -1.13849 -4.3629 0
M  V30 4700 C 450.277 -1.48743 -4.57634 0
M  V30 4701 C 452.629 -1.98277 -4.82012 0
M  V30 4702 C 449.957 -2.67932 -5.21948 0
M  V30 4703 C 452.309 -3.16659 -5.4764 0
M  V30 4704 C 450.973 -3.51879 -5.67219 0
M  V30 4705 H 450.243 -0.0068577 -0.740968 0
M  V30 4706 H 452.89 -0.716097 -1.77607 0
M  V30 4707 H 451.195 0.915118 -3.80963 0
M  V30 4708 H 452.892 0.558556 -3.97091 0
M  V30 4709 H 449.482 -0.856767 -4.19949 0
M  V30 4710 H 453.666 -1.72628 -4.6531 0
M  V30 4711 H 448.922 -2.95401 -5.35302 0
M  V30 4712 H 453.096 -3.82374 -5.82033 0
M  V30 4713 H 450.723 -4.44331 -6.16825 0
M  V30 4714 N 452.299 1.55045 -0.282633 0
M  V30 4715 C 453.246 2.22822 0.601566 0
M  V30 4716 C 454.216 1.20431 1.14392 0
M  V30 4717 O 455.401 1.48996 1.19184 0
M  V30 4718 C 452.541 2.95873 1.77632 0
M  V30 4719 C 451.654 4.12999 1.26711 0
M  V30 4720 C 450.789 4.73676 2.40426 0
M  V30 4721 C 449.828 5.82981 1.86545 0
M  V30 4722 N 448.965 6.3769 2.93762 0
M  V30 4723 H 453.805 2.97995 0.0169528 0
M  V30 4724 H 451.342 1.471 -0.00339964 0
M  V30 4725 H 453.3 3.36447 2.46697 0
M  V30 4726 H 451.93 2.2311 2.33285 0
M  V30 4727 H 450.982 3.77494 0.469314 0
M  V30 4728 H 452.294 4.91803 0.832518 0
M  V30 4729 H 451.448 5.17008 3.17471 0
M  V30 4730 H 450.187 3.94164 2.87203 0
M  V30 4731 H 449.192 5.39092 1.07983 0
M  V30 4732 H 450.417 6.64366 1.40694 0
M  V30 4733 H 448.363 5.61069 3.39908 0
M  V30 4734 H 448.28 7.11788 2.54744 0
M  V30 4735 H 449.548 6.8568 3.7076 0
M  V30 4736 N 453.777 0.010035 1.57597 0
M  V30 4737 C 455.026 -0.671945 1.90178 0
M  V30 4738 C 455.339 -1.74376 0.886131 0
M  V30 4739 O 456.545 -2.48107 1.10252 0
M  V30 4740 C 455.001 -1.24636 3.3763 0
M  V30 4741 C 454.609 -0.208838 4.47513 0
M  V30 4742 C 456.353 -1.90595 3.79307 0
M  V30 4743 C 454.26 -0.793814 5.86048 0
M  V30 4744 H 453.19 -0.25474 0.709665 0
M  V30 4745 H 455.841 0.0722206 1.83358 0
M  V30 4746 H 454.223 -2.04152 3.3932 0
M  V30 4747 H 455.397 0.562463 4.57354 0
M  V30 4748 H 453.712 0.350889 4.14919 0
M  V30 4749 H 456.309 -2.35284 4.80151 0
M  V30 4750 H 456.652 -2.74074 3.13352 0
M  V30 4751 H 457.185 -1.17798 3.79958 0
M  V30 4752 H 453.924 0.00240855 6.555 0
M  V30 4753 H 453.444 -1.53404 5.79851 0
M  V30 4754 H 455.123 -1.2894 6.34022 0
M  V30 4755 N 455.255 -1.55392 -0.262866 0
M  V30 4756 C 456.501 -1.76737 -0.99458 0
M  V30 4757 C 456.834 -0.572453 -1.85571 0
M  V30 4758 O 456.109 0.429732 -1.89693 0
M  V30 4759 C 456.392 -3.07824 -1.8686 0
M  V30 4760 C 456.245 -4.3769 -1.03672 0
M  V30 4761 C 457.564 -3.35021 -2.85393 0
M  V30 4762 H 454.683 -0.643005 -0.360157 0
M  V30 4763 H 457.325 -1.88126 -0.266216 0
M  V30 4764 H 455.475 -2.98245 -2.48962 0
M  V30 4765 H 457.147 -4.59238 -0.43563 0
M  V30 4766 H 455.39 -4.32461 -0.340513 0
M  V30 4767 H 456.061 -5.25759 -1.6817 0
M  V30 4768 H 458.537 -3.44458 -2.33426 0
M  V30 4769 H 457.413 -4.27989 -3.43681 0
M  V30 4770 H 457.674 -2.55153 -3.61039 0
M  V30 4771 N 456.733 0.527833 -1.48498 0
M  V30 4772 C 457.68 1.6322 -1.6318 0
M  V30 4773 C 458.65 1.59199 -0.473815 0
M  V30 4774 O 459.835 1.77591 -0.697563 0
M  V30 4775 C 456.975 3.01474 -1.67951 0
M  V30 4776 C 456.088 3.15713 -2.94871 0
M  V30 4777 C 455.223 4.44539 -2.90789 0
M  V30 4778 C 454.262 4.52315 -4.12404 0
M  V30 4779 N 453.399 5.72533 -4.06387 0
M  V30 4780 H 458.239 1.50011 -2.57489 0
M  V30 4781 H 455.776 0.730298 -1.27691 0
M  V30 4782 H 457.734 3.81572 -1.68698 0
M  V30 4783 H 456.364 3.1345 -0.771306 0
M  V30 4784 H 455.416 2.28854 -3.03859 0
M  V30 4785 H 456.728 3.1732 -3.8485 0
M  V30 4786 H 455.882 5.3293 -2.89949 0
M  V30 4787 H 454.621 4.45457 -1.98542 0
M  V30 4788 H 453.626 3.62331 -4.13517 0
M  V30 4789 H 454.851 4.53134 -5.05812 0
M  V30 4790 H 452.797 5.74344 -3.16962 0
M  V30 4791 H 452.714 5.75643 -4.90073 0
M  V30 4792 H 453.982 6.63204 -4.0961 0
M  V30 4793 N 458.211 1.37122 0.776871 0
M  V30 4794 C 459.121 1.34651 1.9211 0
M  V30 4795 C 460.137 0.246824 1.7224 0
M  V30 4796 O 461.313 0.48134 1.95563 0
M  V30 4797 C 458.378 1.14748 3.2716 0
M  V30 4798 C 457.439 2.34308 3.5972 0
M  V30 4799 C 456.672 2.15345 4.88326 0
M  V30 4800 O 456.895 1.13507 5.58992 0
M  V30 4801 O 455.829 3.03414 5.1983 0
M  V30 4802 H 459.655 2.31013 1.97146 0
M  V30 4803 H 457.24 1.17799 0.918901 0
M  V30 4804 H 459.122 1.05616 4.0795 0
M  V30 4805 H 457.797 0.214562 3.22988 0
M  V30 4806 H 456.704 2.49011 2.79185 0
M  V30 4807 H 458.037 3.26149 3.68629 0
M  V30 4808 N 459.689 -1.00246 1.21608 0
M  V30 4809 C 460.938 -1.73476 1.02902 0
M  V30 4810 C 461.251 -1.90643 -0.437561 0
M  V30 4811 O 462.457 -2.61105 -0.74407 0
M  V30 4812 C 460.913 -3.12079 1.79261 0
M  V30 4813 C 460.521 -3.02877 3.30106 0
M  V30 4814 C 462.265 -3.89421 1.68972 0
M  V30 4815 C 460.172 -4.36575 3.98944 0
M  V30 4816 H 459.102 -0.650408 0.381425 0
M  V30 4817 H 461.753 -1.11985 1.45367 0
M  V30 4818 H 460.135 -3.74196 1.2959 0
M  V30 4819 H 461.309 -2.49983 3.87098 0
M  V30 4820 H 459.624 -2.39022 3.40965 0
M  V30 4821 H 462.221 -4.88362 2.17731 0
M  V30 4822 H 462.564 -4.1122 0.648397 0
M  V30 4823 H 463.097 -3.33963 2.16133 0
M  V30 4824 H 459.836 -4.19978 5.03288 0
M  V30 4825 H 459.356 -4.8942 3.4674 0
M  V30 4826 H 461.035 -5.05364 4.04 0
M  V30 4827 N 461.167 -1.02423 -1.1978 0
M  V30 4828 C 462.13 -0.605703 -2.21052 0
M  V30 4829 C 463.13 0.328209 -1.57415 0
M  V30 4830 O 464.32 0.115853 -1.73814 0
M  V30 4831 C 461.452 0.114366 -3.40708 0
M  V30 4832 H 462.645 -1.5017 -2.59594 0
M  V30 4833 H 460.198 -0.814888 -1.33376 0
M  V30 4834 H 460.933 1.02492 -3.07678 0
M  V30 4835 H 460.718 -0.556641 -3.88129 0
M  V30 4836 H 462.208 0.394272 -4.15735 0
M  V30 4837 N 462.645 1.35699 -0.801477 0
M  V30 4838 C 463.555 2.33661 -0.209691 0
M  V30 4839 C 464.571 1.6162 0.644591 0
M  V30 4840 O 465.747 1.93529 0.557545 0
M  V30 4841 C 462.812 3.40816 0.636033 0
M  V30 4842 C 461.873 4.28639 -0.238147 0
M  V30 4843 C 461.106 5.30676 0.567307 0
M  V30 4844 O 461.329 5.41174 1.8024 0
M  V30 4845 O 460.263 6.01887 -0.0391336 0
M  V30 4846 H 464.089 2.8606 -1.01996 0
M  V30 4847 H 461.674 1.38379 -0.563164 0
M  V30 4848 H 463.556 4.06301 1.11791 0
M  V30 4849 H 462.231 2.90696 1.42399 0
M  V30 4850 H 461.138 3.66152 -0.767044 0
M  V30 4851 H 462.471 4.82143 -0.989915 0
M  V30 4852 N 464.123 0.554532 1.47522 0
M  V30 4853 C 465.351 0.034257 2.06872 0
M  V30 4854 C 465.766 -1.25826 1.40759 0
M  V30 4855 O 465.123 -1.75425 0.503217 0
M  V30 4856 C 465.174 -0.167827 3.6111 0
M  V30 4857 O 464.895 1.07351 4.24744 0
M  V30 4858 C 466.396 -0.72569 4.3732 0
M  V30 4859 H 463.616 0.0446275 0.669514 0
M  V30 4860 H 466.16 0.767181 1.89564 0
M  V30 4861 H 464.315 -0.850872 3.7794 0
M  V30 4862 H 464.729 0.869563 5.17242 0
M  V30 4863 H 466.203 -0.816394 5.45929 0
M  V30 4864 H 466.68 -1.73635 4.0342 0
M  V30 4865 H 467.286 -0.0784292 4.25228 0
M  V30 4866 N 465.601 -1.54893 0.290851 0
M  V30 4867 C 466.533 -2.20564 -0.623236 0
M  V30 4868 C 467.546 -1.19519 -1.1054 0
M  V30 4869 O 468.735 -1.46165 -1.02459 0
M  V30 4870 C 465.835 -2.83033 -1.86401 0
M  V30 4871 C 465.008 -4.09916 -1.52604 0
M  V30 4872 C 464.067 -4.56284 -2.62091 0
M  V30 4873 O 463.093 -5.2171 -2.27612 0
M  V30 4874 N 464.295 -4.27746 -3.92446 0
M  V30 4875 H 467.06 -2.99638 -0.0610915 0
M  V30 4876 H 464.621 -1.61508 0.112615 0
M  V30 4877 H 466.613 -3.1099 -2.58973 0
M  V30 4878 H 465.183 -2.0786 -2.33481 0
M  V30 4879 H 464.403 -3.89078 -0.633424 0
M  V30 4880 H 465.691 -4.92554 -1.27547 0
M  V30 4881 H 465.089 -3.7531 -4.23272 0
M  V30 4882 H 463.646 -4.60437 -4.61347 0
M  V30 4883 N 467.08 -0.0183926 -1.57589 0
M  V30 4884 C 468.03 0.975944 -2.06057 0
M  V30 4885 C 469.014 1.29204 -0.958908 0
M  V30 4886 O 470.206 1.27995 -1.22255 0
M  V30 4887 C 467.335 2.26194 -2.58247 0
M  V30 4888 C 466.421 1.97467 -3.75323 0
M  V30 4889 N 466.812 1.38968 -4.86335 0
M  V30 4890 C 465.11 2.27515 -3.83605 0
M  V30 4891 C 465.811 1.27131 -5.67638 0
M  V30 4892 N 464.787 1.76319 -5.14211 0
M  V30 4893 H 468.589 0.518444 -2.89291 0
M  V30 4894 H 466.103 0.18688 -1.61321 0
M  V30 4895 H 468.1 2.98289 -2.91255 0
M  V30 4896 H 466.76 2.7258 -1.76438 0
M  V30 4897 H 467.771 1.06608 -5.06809 0
M  V30 4898 H 464.448 2.76649 -3.12684 0
M  V30 4899 H 465.838 0.819882 -6.66879 0
M  V30 4900 N 468.558 1.5553 0.254621 0
M  V30 4901 C 469.806 1.7665 0.981793 0
M  V30 4902 C 470.127 0.580963 1.86145 0
M  V30 4903 O 469.397 -0.403537 1.91699 0
M  V30 4904 H 467.977 0.651475 0.365498 0
M  V30 4905 H 470.639 1.92958 0.274426 0
M  V30 4906 H 469.735 2.67486 1.60802 0
M  V30 4907 N 470.036 -0.519951 1.48776 0
M  V30 4908 C 471.264 -1.29971 1.60982 0
M  V30 4909 C 471.679 -1.86803 0.273885 0
M  V30 4910 O 471.036 -1.66904 -0.738193 0
M  V30 4911 C 471.087 -2.44346 2.66415 0
M  V30 4912 O 470.808 -1.89855 3.94825 0
M  V30 4913 C 472.309 -3.36014 2.89153 0
M  V30 4914 H 469.529 -0.394891 0.542496 0
M  V30 4915 H 472.073 -0.626214 1.94676 0
M  V30 4916 H 470.228 -3.07562 2.35552 0
M  V30 4917 H 470.642 -2.64798 4.5275 0
M  V30 4918 H 472.116 -4.12593 3.66703 0
M  V30 4919 H 472.593 -3.91859 1.98351 0
M  V30 4920 H 473.199 -2.78582 3.21359 0
M  V30 4921 N 471.514 -1.37532 -0.769588 0
M  V30 4922 C 472.763 -1.32183 -1.5235 0
M  V30 4923 C 473.076 0.0906555 -1.9539 0
M  V30 4924 O 474.282 0.266628 -2.70188 0
M  V30 4925 C 472.738 -2.32029 -2.75119 0
M  V30 4926 C 472.346 -3.78816 -2.3917 0
M  V30 4927 C 474.09 -2.35694 -3.53056 0
M  V30 4928 C 471.997 -4.70388 -3.58453 0
M  V30 4929 H 470.927 -0.491275 -0.571984 0
M  V30 4930 H 473.578 -1.63004 -0.842739 0
M  V30 4931 H 471.96 -1.94229 -3.45096 0
M  V30 4932 H 473.134 -4.25466 -1.76962 0
M  V30 4933 H 471.449 -3.78117 -1.74402 0
M  V30 4934 H 474.046 -3.01312 -4.41718 0
M  V30 4935 H 474.389 -1.37117 -3.93071 0
M  V30 4936 H 474.922 -2.72212 -2.90078 0
M  V30 4937 H 471.661 -5.70102 -3.23518 0
M  V30 4938 H 471.181 -4.28442 -4.19758 0
M  V30 4939 H 472.86 -4.87628 -4.25239 0
M  V30 4940 N 472.992 0.995999 -1.22138 0
M  V30 4941 C 474.238 1.73767 -1.04561 0
M  V30 4942 C 474.571 1.89633 0.418698 0
M  V30 4943 O 473.846 1.43723 1.3105 0
M  V30 4944 C 474.129 3.14505 -1.75382 0
M  V30 4945 C 473.982 3.06306 -3.29388 0
M  V30 4946 C 475.301 4.13615 -1.50369 0
M  V30 4947 H 472.42 0.630728 -0.38125 0
M  V30 4948 H 475.062 1.16057 -1.50435 0
M  V30 4949 H 473.212 3.63775 -1.36383 0
M  V30 4950 H 474.884 2.64681 -3.77812 0
M  V30 4951 H 473.127 2.43186 -3.59226 0
M  V30 4952 H 473.798 4.05884 -3.74116 0
M  V30 4953 H 476.274 3.73089 -1.84239 0
M  V30 4954 H 475.15 5.10212 -2.02421 0
M  V30 4955 H 475.411 4.39949 -0.435611 0
M  V30 4956 N 474.47 1.03057 1.19235 0
M  V30 4957 C 475.719 0.72326 1.88287 0
M  V30 4958 C 476.032 -0.751333 1.80594 0
M  V30 4959 O 477.238 -1.17176 2.44912 0
M  V30 4960 C 475.694 1.24338 3.3774 0
M  V30 4961 C 475.302 2.74587 3.53986 0
M  V30 4962 C 477.046 1.01213 4.12257 0
M  V30 4963 C 474.953 3.20009 4.97341 0
M  V30 4964 H 473.883 0.266848 0.705201 0
M  V30 4965 H 476.534 1.24509 1.34795 0
M  V30 4966 H 474.916 0.649457 3.90638 0
M  V30 4967 H 476.09 3.39649 3.11408 0
M  V30 4968 H 474.405 2.9601 2.9286 0
M  V30 4969 H 477.002 1.32675 5.17978 0
M  V30 4970 H 477.345 -0.051001 4.16269 0
M  V30 4971 H 477.878 1.57014 3.65501 0
M  V30 4972 H 474.617 4.25659 4.98493 0
M  V30 4973 H 474.137 2.59676 5.40674 0
M  V30 4974 H 475.816 3.13447 5.66003 0
M  V30 4975 N 475.948 -1.35272 0.808662 0
M  V30 4976 C 477.364 -1.51806 0.492653 0
M  V30 4977 C 477.564 -1.7574 -0.985778 0
M  V30 4978 O 476.62 -1.80003 -1.77074 0
M  V30 4979 C 477.933 -2.69202 1.33981 0
M  V30 4980 C 479.481 -2.8308 1.33547 0
M  V30 4981 C 479.956 -4.03502 2.16679 0
M  V30 4982 N 481.447 -4.10684 2.14227 0
M  V30 4983 C 482.182 -5.02984 2.75308 0
M  V30 4984 N 481.678 -6.00603 3.45323 0
M  V30 4985 N 483.471 -4.95746 2.64938 0
M  V30 4986 H 475.622 -1.17993 1.76611 0
M  V30 4987 H 477.885 -0.577476 0.751814 0
M  V30 4988 H 477.591 -2.581 2.38909 0
M  V30 4989 H 477.465 -3.63854 0.994491 0
M  V30 4990 H 479.852 -2.93631 0.294036 0
M  V30 4991 H 479.933 -1.89278 1.72068 0
M  V30 4992 H 479.577 -3.93711 3.20864 0
M  V30 4993 H 479.507 -4.96489 1.75517 0
M  V30 4994 H 481.998 -3.40802 1.63285 0
M  V30 4995 H 482.311 -6.67633 3.89212 0
M  V30 4996 H 480.656 -6.0077 3.49428 0
M  V30 4997 H 483.847 -4.18439 2.09825 0
M  V30 4998 H 484.02 -5.67487 3.12829 0
M  V30 4999 N 477.426 -0.562348 -1.47226 0
M  V30 5000 C 478.672 -0.0402761 -2.0276 0
M  V30 5001 C 479.005 1.30823 -1.43523 0
M  V30 5002 O 478.28 1.85249 -0.592705 0
M  V30 5003 C 478.563 0.047311 -3.60069 0
M  V30 5004 C 478.416 -1.32865 -4.29729 0
M  V30 5005 C 479.735 0.758182 -4.3352 0
M  V30 5006 H 476.854 -0.0161105 -0.736824 0
M  V30 5007 H 479.496 -0.725628 -1.75598 0
M  V30 5008 H 477.646 0.630986 -3.83342 0
M  V30 5009 H 479.318 -1.95593 -4.17781 0
M  V30 5010 H 477.561 -1.90195 -3.89882 0
M  V30 5011 H 478.232 -1.22004 -5.38349 0
M  V30 5012 H 480.708 0.262546 -4.15271 0
M  V30 5013 H 479.584 0.78844 -5.43208 0
M  V30 5014 H 479.845 1.81537 -4.03109 0
M  V30 5015 N 478.904 1.54736 -0.299062 0
M  V30 5016 C 479.836 2.20891 0.61153 0
M  V30 5017 C 480.849 1.20104 1.09904 0
M  V30 5018 O 482.038 1.46707 1.01683 0
M  V30 5019 C 479.138 2.84018 1.84897 0
M  V30 5020 C 478.311 4.10719 1.50428 0
M  V30 5021 C 477.37 4.57667 2.59667 0
M  V30 5022 O 476.396 5.2291 2.24842 0
M  V30 5023 N 477.598 4.29821 3.90172 0
M  V30 5024 H 480.363 2.99666 0.0452001 0
M  V30 5025 H 477.924 1.61446 -0.121178 0
M  V30 5026 H 479.916 3.1236 2.5732 0
M  V30 5027 H 478.486 2.09095 2.32375 0
M  V30 5028 H 477.706 3.89408 0.612781 0
M  V30 5029 H 478.994 4.93223 1.24934 0
M  V30 5030 H 478.392 3.77549 4.21276 0
M  V30 5031 H 476.949 4.62877 4.58899 0
M  V30 5032 N 480.382 0.0267497 1.57577 0
M  V30 5033 C 481.612 -0.6617 1.95717 0
M  V30 5034 C 482.02 -1.66331 0.901706 0
M  V30 5035 O 481.363 -1.83273 -0.125241 0
M  V30 5036 C 481.425 -1.42649 3.29987 0
M  V30 5037 C 481.089 -0.583482 4.5326 0
M  V30 5038 C 482.086 0.140221 5.19711 0
M  V30 5039 C 479.771 -0.521581 4.99585 0
M  V30 5040 C 481.765 0.914523 6.30805 0
M  V30 5041 C 479.452 0.256428 6.10562 0
M  V30 5042 C 480.45 0.973189 6.76031 0
M  V30 5043 O 480.138 1.73845 7.84878 0
M  V30 5044 H 479.87 -0.187483 0.649481 0
M  V30 5045 H 482.424 0.0820847 2.05236 0
M  V30 5046 H 480.654 -2.21536 3.16952 0
M  V30 5047 H 482.343 -2.00282 3.53047 0
M  V30 5048 H 483.109 0.101716 4.84893 0
M  V30 5049 H 478.988 -1.06904 4.48433 0
M  V30 5050 H 482.532 1.4745 6.81839 0
M  V30 5051 H 478.429 0.296657 6.44818 0
M  V30 5052 H 479.197 1.65797 8.01532 0
M  V30 5053 N 481.861 -1.55662 -0.24637 0
M  V30 5054 C 482.771 -1.93495 -1.32653 0
M  V30 5055 C 483.787 -0.835462 -1.5263 0
M  V30 5056 O 484.963 -1.1369 -1.66242 0
M  V30 5057 C 482.028 -2.22242 -2.66101 0
M  V30 5058 C 481.089 -3.45625 -2.54641 0
M  V30 5059 C 480.322 -3.72991 -3.81724 0
M  V30 5060 O 480.545 -3.02421 -4.8363 0
M  V30 5061 O 479.479 -4.66515 -3.80325 0
M  V30 5062 H 483.305 -2.85498 -1.03559 0
M  V30 5063 H 480.89 -1.42551 -0.44717 0
M  V30 5064 H 482.772 -2.42037 -3.44958 0
M  V30 5065 H 481.447 -1.33417 -2.94926 0
M  V30 5066 H 480.354 -3.31136 -1.74067 0
M  V30 5067 H 481.687 -4.34754 -2.3076 0
M  V30 5068 N 483.339 0.512053 -1.4905 0
M  V30 5069 C 484.587 1.26436 -1.57665 0
M  V30 5070 C 484.908 1.93255 -0.260293 0
M  V30 5071 O 484.178 1.82206 0.719564 0
M  V30 5072 H 482.758 0.469658 -0.580888 0
M  V30 5073 H 485.42 0.594398 -1.85615 0
M  V30 5074 H 484.516 2.03417 -2.36702 0
M  V30 5075 N 484.817 1.37938 0.762283 0
M  V30 5076 C 486.094 1.24196 1.51112 0
M  V30 5077 C 486.474 -0.160409 2.1049 0
M  V30 5078 O 485.822 -1.16904 1.96331 0
M  V30 5079 C 486.032 2.34537 2.58445 0
M  V30 5080 C 487.38 2.7254 3.25588 0
M  V30 5081 O 488.404 2.33783 2.68745 0
M  V30 5082 O 487.263 3.39343 4.28379 0
M  V30 5083 H 484.357 0.485175 0.669727 0
M  V30 5084 H 486.903 1.49743 0.798438 0
M  V30 5085 H 485.675 3.28406 2.12756 0
M  V30 5086 H 485.298 2.10505 3.37303 0
M  V30 5087 N 486.295 -0.989507 1.22664 0
M  V30 5088 C 487.543 -1.72612 1.05117 0
M  V30 5089 C 487.864 -1.90552 -0.414131 0
M  V30 5090 O 487.134 -1.4676 -1.29762 0
M  V30 5091 H 485.714 -0.639555 0.385977 0
M  V30 5092 H 488.376 -1.19158 1.54232 0
M  V30 5093 H 487.472 -2.71926 1.53175 0
M  V30 5094 N 487.773 -1.03688 -1.18687 0
M  V30 5095 C 488.998 -0.757819 -1.93059 0
M  V30 5096 C 489.423 0.678353 -1.75442 0
M  V30 5097 O 488.781 1.46938 -1.06203 0
M  V30 5098 C 488.829 -1.12423 -3.42627 0
M  V30 5099 O 487.933 -0.247505 -4.11657 0
M  V30 5100 H 487.274 -0.279245 -0.602427 0
M  V30 5101 H 489.804 -1.3857 -1.5053 0
M  V30 5102 H 489.814 -1.08454 -3.93322 0
M  V30 5103 H 488.489 -2.17049 -3.54771 0
M  V30 5104 H 487.066 -0.34649 -3.71287 0
M  V30 5105 N 489.251 1.34841 -0.815825 0
M  V30 5106 C 490.662 1.80937 -0.46029 0
M  V30 5107 C 491.013 1.67685 1.01863 0
M  V30 5108 O 490.138 1.21277 1.79223 0
M  V30 5109 C 490.733 3.28509 -0.828708 0
M  V30 5110 C 489.292 3.72712 -0.525644 0
M  V30 5111 C 488.439 2.56676 -1.04941 0
M  V30 5112 H 491.39 1.22688 -1.00664 0
M  V30 5113 H 491.411 3.80279 -0.129757 0
M  V30 5114 H 490.923 3.38122 -1.90513 0
M  V30 5115 H 489.024 3.68642 0.541666 0
M  V30 5116 H 489.137 4.67119 -1.06474 0
M  V30 5117 H 487.501 2.50302 -0.471286 0
M  V30 5118 H 488.284 2.69063 -2.13214 0
M  V30 5119 N 490.729 0.570148 1.46925 0
M  V30 5120 C 491.969 0.0534743 2.0433 0
M  V30 5121 C 492.333 -1.27729 1.4335 0
M  V30 5122 O 493.534 -1.88244 1.91879 0
M  V30 5123 C 491.805 -0.0244296 3.57392 0
M  V30 5124 S 493.364 -0.485351 4.36108 0
M  V30 5125 H 490.182 0.0313908 0.710307 0
M  V30 5126 H 492.784 0.759808 1.80131 0
M  V30 5127 H 491.488 0.948261 3.99295 0
M  V30 5128 H 491.019 -0.753922 3.86108 0
M  V30 5129 H 493.034 -1.74258 4.64595 0
M  V30 5130 N 492.207 -1.54576 0.307264 0
M  V30 5131 C 493.154 -2.23751 -0.56604 0
M  V30 5132 C 494.124 -1.22235 -1.12462 0
M  V30 5133 O 495.309 -1.50873 -1.16799 0
M  V30 5134 C 492.449 -2.98661 -1.72903 0
M  V30 5135 C 491.562 -4.14963 -1.20124 0
M  V30 5136 C 490.697 -4.77441 -2.3286 0
M  V30 5137 C 489.736 -5.85875 -1.77247 0
M  V30 5138 N 488.873 -6.42282 -2.8358 0
M  V30 5139 H 493.713 -2.97984 0.0304578 0
M  V30 5140 H 491.25 -1.47076 0.0268015 0
M  V30 5141 H 493.208 -3.40329 -2.41313 0
M  V30 5142 H 491.838 -2.26793 -2.29706 0
M  V30 5143 H 490.89 -3.78193 -0.409198 0
M  V30 5144 H 492.202 -4.93066 -0.754171 0
M  V30 5145 H 491.356 -5.21993 -3.09205 0
M  V30 5146 H 490.095 -3.98684 -2.80896 0
M  V30 5147 H 489.1 -5.40741 -0.993926 0
M  V30 5148 H 490.325 -6.6652 -1.30107 0
M  V30 5149 H 488.271 -5.66406 -3.30939 0
M  V30 5150 H 488.188 -7.1575 -2.43388 0
M  V30 5151 H 489.456 -6.91492 -3.59804 0
M  V30 5152 N 493.685 -0.035106 -1.57561 0
M  V30 5153 C 494.934 0.641604 -1.91223 0
M  V30 5154 C 495.247 1.72944 -0.913761 0
M  V30 5155 O 496.453 2.46321 -1.14185 0
M  V30 5156 C 494.909 1.19249 -3.3957 0
M  V30 5157 C 494.517 0.137616 -4.47789 0
M  V30 5158 C 496.261 1.84537 -3.82291 0
M  V30 5159 C 494.168 0.700478 -5.87237 0
M  V30 5160 H 493.098 0.243417 -0.713627 0
M  V30 5161 H 495.749 -0.101382 -1.8322 0
M  V30 5162 H 494.131 1.98728 -3.42525 0
M  V30 5163 H 495.305 -0.635153 -4.56402 0
M  V30 5164 H 493.62 -0.416855 -4.14308 0
M  V30 5165 H 496.217 2.27616 -4.83834 0
M  V30 5166 H 496.56 2.69054 -3.17672 0
M  V30 5167 H 497.093 1.11739 -3.81784 0
M  V30 5168 H 493.832 -0.106693 -6.55413 0
M  V30 5169 H 493.352 1.4416 -5.82218 0
M  V30 5170 H 495.031 1.18837 -6.35993 0
M  V30 5171 N 495.163 1.55791 0.238111 0
M  V30 5172 C 496.574 1.68383 0.806472 0
M  V30 5173 C 496.925 0.634157 1.85669 0
M  V30 5174 O 496.05 -0.217913 2.153 0
M  V30 5175 C 496.645 3.05268 1.46959 0
M  V30 5176 C 495.204 3.1977 1.98555 0
M  V30 5177 C 494.351 2.64279 0.839763 0
M  V30 5178 H 497.302 1.58694 0.0137535 0
M  V30 5179 H 497.323 3.00203 2.33792 0
M  V30 5180 H 496.835 3.81643 0.704993 0
M  V30 5181 H 494.936 2.48234 2.77868 0
M  V30 5182 H 495.049 4.26788 2.17689 0
M  V30 5183 H 493.413 2.22329 1.24265 0
M  V30 5184 H 494.196 3.43187 0.0881032 0
M  V30 5185 N 496.642 -0.504142 1.49319 0
M  V30 5186 C 497.889 -1.25846 1.58647 0
M  V30 5187 C 498.217 -1.92592 0.27177 0
M  V30 5188 O 497.472 -1.81167 -0.74007 0
M  V30 5189 C 497.771 -2.35021 2.69258 0
M  V30 5190 C 497.437 -1.85755 4.1086 0
M  V30 5191 C 496.099 -1.72038 4.49395 0
M  V30 5192 C 498.451 -1.48844 4.99495 0
M  V30 5193 C 495.779 -1.19783 5.74342 0
M  V30 5194 C 498.131 -0.980422 6.24956 0
M  V30 5195 C 496.795 -0.829622 6.62324 0
M  V30 5196 H 496.065 -0.460505 0.580531 0
M  V30 5197 H 498.712 -0.559716 1.83138 0
M  V30 5198 H 497.017 -3.10672 2.38726 0
M  V30 5199 H 498.714 -2.93083 2.73685 0
M  V30 5200 H 495.304 -1.9739 3.80441 0
M  V30 5201 H 499.488 -1.5829 4.70381 0
M  V30 5202 H 494.744 -1.06817 6.01997 0
M  V30 5203 H 498.918 -0.685608 6.93017 0
M  V30 5204 H 496.545 -0.42253 7.59025 0
M  V30 5205 N 498.12 -1.38341 -0.754957 0
M  V30 5206 C 499.03 -1.3769 -1.89944 0
M  V30 5207 C 500.046 -0.274194 -1.71826 0
M  V30 5208 O 501.222 -0.512391 -1.94773 0
M  V30 5209 C 498.287 -1.19938 -3.25293 0
M  V30 5210 C 497.348 -2.40001 -3.55946 0
M  V30 5211 C 496.581 -2.23087 -4.84838 0
M  V30 5212 O 496.804 -1.22386 -5.57116 0
M  V30 5213 O 495.738 -3.11646 -5.14937 0
M  V30 5214 H 499.564 -2.3412 -1.93446 0
M  V30 5215 H 497.149 -1.19246 -0.900044 0
M  V30 5216 H 499.031 -1.12093 -4.06218 0
M  V30 5217 H 497.706 -0.265919 -3.22606 0
M  V30 5218 H 496.613 -2.53421 -2.75188 0
M  V30 5219 H 497.946 -3.31973 -3.63394 0
M  V30 5220 N 499.598 0.982988 -1.23187 0
M  V30 5221 C 500.847 1.71817 -1.05649 0
M  V30 5222 C 501.16 1.91315 0.407176 0
M  V30 5223 O 502.366 2.62256 0.702436 0
M  V30 5224 C 500.822 3.09188 -1.84203 0
M  V30 5225 C 500.43 2.97586 -3.34882 0
M  V30 5226 C 502.174 3.86684 -1.75146 0
M  V30 5227 C 500.081 4.30173 -4.05839 0
M  V30 5228 H 499.011 0.644258 -0.391724 0
M  V30 5229 H 501.662 1.09659 -1.4713 0
M  V30 5230 H 500.044 3.72087 -1.35527 0
M  V30 5231 H 501.218 2.43793 -3.91026 0
M  V30 5232 H 499.533 2.33567 -3.44725 0
M  V30 5233 H 502.13 4.84836 -2.25473 0
M  V30 5234 H 502.473 4.10136 -0.713737 0
M  V30 5235 H 503.006 3.30482 -2.21419 0
M  V30 5236 H 499.745 4.11918 -5.09906 0
M  V30 5237 H 499.265 4.83841 -3.54482 0
M  V30 5238 H 500.944 4.98873 -4.11989 0
M  V30 5239 N 501.076 1.04316 1.18135 0
M  V30 5240 C 502.009 0.580823 2.20685 0
M  V30 5241 C 502.987 -0.385943 1.57953 0
M  V30 5242 O 504.171 -0.299654 1.86103 0
M  V30 5243 C 501.298 -0.151162 3.38363 0
M  V30 5244 C 500.344 0.769247 4.19505 0
M  V30 5245 S 501.177 2.25352 4.85774 0
M  V30 5246 C 502.333 1.53246 6.0685 0
M  V30 5247 H 502.566 1.44968 2.5956 0
M  V30 5248 H 500.099 0.85434 1.28609 0
M  V30 5249 H 502.057 -0.567315 4.06561 0
M  V30 5250 H 500.718 -0.995936 2.97892 0
M  V30 5251 H 499.911 0.203335 5.0359 0
M  V30 5252 H 499.513 1.12436 3.56699 0
M  V30 5253 H 501.805 0.82689 6.72435 0
M  V30 5254 H 502.748 2.35044 6.67952 0
M  V30 5255 H 503.156 1.0237 5.5514 0
M  V30 5256 N 502.554 -1.34406 0.822964 0
M  V30 5257 C 503.831 -1.92733 0.333641 0
M  V30 5258 C 504.211 -1.75107 -1.17901 0
M  V30 5259 O 503.559 -1.12983 -1.98613 0
M  V30 5260 C 503.769 -3.40557 0.763023 0
M  V30 5261 C 505.117 -4.17709 0.761879 0
M  V30 5262 O 506.141 -3.49141 0.705606 0
M  V30 5263 O 505 -5.40082 0.835109 0
M  V30 5264 H 502.094 -0.821964 0.0911249 0
M  V30 5265 H 504.64 -1.4338 0.907757 0
M  V30 5266 H 503.412 -3.47187 1.8049 0
M  V30 5267 H 503.035 -3.97259 0.164605 0
M  V30 5268 N 504.032 -0.577932 -1.46621 0
M  V30 5269 C 504.962 0.145917 -2.33044 0
M  V30 5270 C 505.943 0.888412 -1.45056 0
M  V30 5271 O 507.128 0.864812 -1.73881 0
M  V30 5272 C 504.258 1.16322 -3.27241 0
M  V30 5273 C 503.212 0.535868 -4.24632 0
M  V30 5274 C 502.538 1.65929 -5.08303 0
M  V30 5275 C 503.838 -0.523861 -5.19666 0
M  V30 5276 H 505.532 -0.575636 -2.93814 0
M  V30 5277 H 503.078 -0.278272 -1.41286 0
M  V30 5278 H 505.031 1.67793 -3.86553 0
M  V30 5279 H 503.755 1.91498 -2.64567 0
M  V30 5280 H 502.414 0.0422759 -3.66576 0
M  V30 5281 H 502.062 2.40061 -4.42018 0
M  V30 5282 H 501.762 1.2452 -5.74255 0
M  V30 5283 H 503.286 2.17686 -5.70478 0
M  V30 5284 H 504.7 -0.0944059 -5.73222 0
M  V30 5285 H 503.097 -0.858 -5.93935 0
M  V30 5286 H 504.167 -1.41197 -4.63887 0
M  V30 5287 N 505.51 1.54411 -0.315457 0
M  V30 5288 C 506.42 2.27737 0.56329 0
M  V30 5289 C 507.436 1.31787 1.13614 0
M  V30 5290 O 508.612 1.64791 1.15784 0
M  V30 5291 C 505.677 3.01478 1.71207 0
M  V30 5292 C 504.738 4.12997 1.17185 0
M  V30 5293 C 503.971 4.83212 2.26588 0
M  V30 5294 O 504.194 4.52884 3.46775 0
M  V30 5295 O 503.128 5.70299 1.92463 0
M  V30 5296 H 506.954 3.03683 -0.0319614 0
M  V30 5297 H 504.539 1.49178 -0.0814188 0
M  V30 5298 H 506.421 3.47683 2.38106 0
M  V30 5299 H 505.096 2.28414 2.29366 0
M  V30 5300 H 504.003 3.71159 0.468174 0
M  V30 5301 H 505.336 4.8808 0.635501 0
M  V30 5302 N 506.988 0.0434614 1.5754 0
M  V30 5303 C 507.935 -0.93356 2.11077 0
M  V30 5304 C 508.905 -1.31383 1.01626 0
M  V30 5305 O 510.09 -1.40465 1.29129 0
M  V30 5306 C 507.23 -2.20578 2.65404 0
M  V30 5307 C 506.343 -1.88068 3.88914 0
M  V30 5308 C 505.478 -3.09691 4.31584 0
M  V30 5309 C 504.517 -2.73067 5.47815 0
M  V30 5310 N 503.654 -3.87359 5.85574 0
M  V30 5311 H 508.494 -0.470118 2.94268 0
M  V30 5312 H 506.031 -0.220434 1.45439 0
M  V30 5313 H 507.989 -2.95011 2.94999 0
M  V30 5314 H 506.619 -2.64513 1.85021 0
M  V30 5315 H 505.671 -1.03816 3.6596 0
M  V30 5316 H 506.983 -1.57104 4.73413 0
M  V30 5317 H 506.137 -3.92431 4.62691 0
M  V30 5318 H 504.876 -3.43827 3.45882 0
M  V30 5319 H 503.881 -1.88742 5.16388 0
M  V30 5320 H 505.106 -2.40131 6.35227 0
M  V30 5321 H 503.052 -4.21311 5.02825 0
M  V30 5322 H 502.969 -3.60068 6.64746 0
M  V30 5323 H 504.237 -4.70761 6.21292 0
M  V30 5324 N 508.466 -1.55915 -0.229846 0
M  V30 5325 C 509.882 -1.48721 -0.579166 0
M  V30 5326 C 510.082 -0.736976 -1.87539 0
M  V30 5327 O 509.138 -0.273258 -2.51017 0
M  V30 5328 C 510.451 -2.9323 -0.666082 0
M  V30 5329 C 511.999 -3.03701 -0.757267 0
M  V30 5330 C 512.474 -4.49552 -0.8756 0
M  V30 5331 N 513.965 -4.53561 -0.940035 0
M  V30 5332 C 514.7 -5.63683 -1.05116 0
M  V30 5333 N 514.196 -6.83576 -1.12675 0
M  V30 5334 N 515.989 -5.51516 -1.08565 0
M  V30 5335 H 508.14 -2.03123 0.620857 0
M  V30 5336 H 510.403 -0.922898 0.21671 0
M  V30 5337 H 510.109 -3.51032 0.21664 0
M  V30 5338 H 509.983 -3.44668 -1.53243 0
M  V30 5339 H 512.37 -2.45969 -1.63043 0
M  V30 5340 H 512.451 -2.55446 0.134583 0
M  V30 5341 H 512.095 -5.079 -0.00692351 0
M  V30 5342 H 512.025 -4.95506 -1.78274 0
M  V30 5343 H 514.516 -3.67215 -0.892269 0
M  V30 5344 H 514.829 -7.63251 -1.21109 0
M  V30 5345 H 513.174 -6.86303 -1.09603 0
M  V30 5346 H 516.365 -4.5678 -1.02319 0
M  V30 5347 H 516.538 -6.37372 -1.1688 0
M  V30 5348 N 509.944 0.496216 -1.49584 0
M  V30 5349 C 510.894 1.59422 -1.62999 0
M  V30 5350 C 511.878 1.53402 -0.485457 0
M  V30 5351 O 513.07 1.60851 -0.738649 0
M  V30 5352 C 510.199 2.98009 -1.70427 0
M  V30 5353 C 509.285 3.09008 -2.90473 0
M  V30 5354 N 509.676 2.89884 -4.14489 0
M  V30 5355 C 507.974 3.40115 -2.8851 0
M  V30 5356 C 508.675 3.0519 -4.95211 0
M  V30 5357 N 507.651 3.3428 -4.2867 0
M  V30 5358 H 511.453 1.43297 -2.56599 0
M  V30 5359 H 508.967 0.702443 -1.46422 0
M  V30 5360 H 510.964 3.76926 -1.78136 0
M  V30 5361 H 509.624 3.152 -0.77967 0
M  V30 5362 H 510.635 2.65963 -4.44392 0
M  V30 5363 H 507.312 3.63452 -2.05448 0
M  V30 5364 H 508.702 2.94856 -6.03746 0
M  V30 5365 N 511.423 1.38739 0.74761 0
M  V30 5366 C 512.669 1.35475 1.50912 0
M  V30 5367 C 513.002 -0.0533093 1.94127 0
M  V30 5368 O 512.277 -1.01572 1.65871 0
M  V30 5369 C 512.56 2.31582 2.75757 0
M  V30 5370 C 512.413 3.81274 2.38642 0
M  V30 5371 C 513.732 2.25722 3.77806 0
M  V30 5372 H 510.851 0.493427 0.547447 0
M  V30 5373 H 513.493 1.69634 0.855823 0
M  V30 5374 H 511.643 2.02582 3.31501 0
M  V30 5375 H 513.315 4.20972 1.88626 0
M  V30 5376 H 511.558 3.98664 1.71025 0
M  V30 5377 H 512.229 4.4399 3.27989 0
M  V30 5378 H 514.705 2.51336 3.31616 0
M  V30 5379 H 513.581 2.95069 4.62845 0
M  V30 5380 H 513.842 1.25803 4.23823 0
M  V30 5381 N 512.901 -0.976442 1.23707 0
M  V30 5382 C 513.831 -2.08749 1.04624 0
M  V30 5383 C 514.812 -1.70057 -0.0380956 0
M  V30 5384 O 515.997 -1.93782 0.127308 0
M  V30 5385 C 513.127 -3.41335 0.640902 0
M  V30 5386 C 512.081 -3.93947 1.67302 0
M  V30 5387 C 511.407 -5.22774 1.12301 0
M  V30 5388 C 512.707 -4.22769 3.06697 0
M  V30 5389 H 514.401 -2.24972 1.97555 0
M  V30 5390 H 511.947 -1.08108 0.951247 0
M  V30 5391 H 513.9 -4.18489 0.494434 0
M  V30 5392 H 512.624 -3.24988 -0.324099 0
M  V30 5393 H 511.283 -3.18941 1.80755 0
M  V30 5394 H 510.931 -5.0278 0.148877 0
M  V30 5395 H 510.631 -5.58942 1.81267 0
M  V30 5396 H 512.155 -6.02546 0.988479 0
M  V30 5397 H 513.569 -4.90659 2.96524 0
M  V30 5398 H 511.966 -4.70147 3.72937 0
M  V30 5399 H 513.036 -3.29885 3.55392 0
M  V30 5400 N 514.379 -1.04941 -1.1758 0
M  V30 5401 C 515.627 -0.756492 -1.87408 0
M  V30 5402 C 515.948 0.718478 -1.81281 0
M  V30 5403 O 515.218 1.519 -1.23706 0
M  V30 5404 H 513.798 -0.276841 -0.693807 0
M  V30 5405 H 516.46 -1.32803 -1.42652 0
M  V30 5406 H 515.556 -1.06918 -2.93215 0
M  V30 5407 N 515.857 1.33968 -0.830081 0
M  V30 5408 C 517.273 1.51003 -0.516742 0
M  V30 5409 C 517.473 1.77286 0.957694 0
M  V30 5410 O 516.529 1.82797 1.74188 0
M  V30 5411 C 517.842 2.67036 -1.38247 0
M  V30 5412 C 519.39 2.80919 -1.38034 0
M  V30 5413 C 519.865 4.00004 -2.23071 0
M  V30 5414 N 521.356 4.07224 -2.20733 0
M  V30 5415 C 522.091 4.98541 -2.83275 0
M  V30 5416 N 521.587 5.95033 -3.54835 0
M  V30 5417 N 523.38 4.91469 -2.72791 0
M  V30 5418 H 515.531 1.15168 -1.78466 0
M  V30 5419 H 517.794 0.565443 -0.760906 0
M  V30 5420 H 517.5 2.54266 -2.42985 0
M  V30 5421 H 517.374 3.62226 -1.05225 0
M  V30 5422 H 519.761 2.93127 -0.340713 0
M  V30 5423 H 519.842 1.86517 -1.75057 0
M  V30 5424 H 519.486 3.88557 -3.27087 0
M  V30 5425 H 519.416 4.93634 -1.83394 0
M  V30 5426 H 521.907 3.38162 -1.68687 0
M  V30 5427 H 522.22 6.61357 -3.99784 0
M  V30 5428 H 520.565 5.95135 -3.58942 0
M  V30 5429 H 523.756 4.15048 -2.16456 0
M  V30 5430 H 523.929 5.62439 -3.21818 0
M  V30 5431 N 517.335 0.585699 1.46312 0
M  V30 5432 C 518.265 -0.133556 2.33118 0
M  V30 5433 C 519.246 -0.880707 1.45525 0
M  V30 5434 O 520.431 -0.855579 1.74337 0
M  V30 5435 C 517.561 -1.14585 3.27853 0
M  V30 5436 C 516.515 -0.513341 4.2491 0
M  V30 5437 C 515.841 -1.63231 5.09175 0
M  V30 5438 C 517.141 0.551413 5.19381 0
M  V30 5439 H 518.835 0.59121 2.93505 0
M  V30 5440 H 516.381 0.285761 1.41136 0
M  V30 5441 H 518.334 -1.65741 3.87438 0
M  V30 5442 H 517.058 -1.90093 2.65579 0
M  V30 5443 H 515.717 -0.0228349 3.66593 0
M  V30 5444 H 515.365 -2.37713 4.43285 0
M  V30 5445 H 515.065 -1.21473 5.74907 0
M  V30 5446 H 516.589 -2.14658 5.71624 0
M  V30 5447 H 518.003 0.124804 5.73164 0
M  V30 5448 H 516.4 0.889486 5.93471 0
M  V30 5449 H 517.47 1.43655 4.63132 0
M  V30 5450 N 518.813 -1.54241 0.323641 0
M  V30 5451 C 520.062 -1.9975 -0.279806 0
M  V30 5452 C 520.375 -1.2156 -1.5324 0
M  V30 5453 O 521.581 -1.57447 -2.21185 0
M  V30 5454 C 520.037 -3.55686 -0.549115 0
M  V30 5455 C 519.645 -4.4271 0.686432 0
M  V30 5456 C 521.389 -4.09663 -1.11251 0
M  V30 5457 C 519.296 -5.90119 0.389022 0
M  V30 5458 H 518.226 -0.746177 -0.10833 0
M  V30 5459 H 520.877 -1.78248 0.435877 0
M  V30 5460 H 519.259 -3.73176 -1.32499 0
M  V30 5461 H 520.433 -4.36996 1.46188 0
M  V30 5462 H 518.748 -3.99623 1.17005 0
M  V30 5463 H 521.345 -5.17386 -1.34965 0
M  V30 5464 H 521.688 -3.61651 -2.06191 0
M  V30 5465 H 522.221 -3.95806 -0.39782 0
M  V30 5466 H 518.96 -6.42326 1.30759 0
M  V30 5467 H 518.48 -5.98785 -0.348722 0
M  V30 5468 H 520.159 -6.47 -0.0011164 0
M  V30 5469 N 520.291 -0.0518155 -1.57515 0
M  V30 5470 C 521.519 0.631395 -1.9703 0
M  V30 5471 C 521.934 1.64341 -0.92938 0
M  V30 5472 O 521.291 1.82296 0.0863266 0
M  V30 5473 C 521.342 1.31774 -3.36627 0
M  V30 5474 O 521.063 0.346247 -4.3673 0
M  V30 5475 C 522.564 2.09065 -3.90905 0
M  V30 5476 H 519.784 0.172576 -0.648428 0
M  V30 5477 H 522.328 -0.118306 -2.04158 0
M  V30 5478 H 520.483 2.01867 -3.30649 0
M  V30 5479 H 520.897 0.836226 -5.17791 0
M  V30 5480 H 522.371 2.52508 -4.9086 0
M  V30 5481 H 522.848 2.93908 -3.26366 0
M  V30 5482 H 523.454 1.43882 -4.00223 0
M  V30 5483 N 521.769 1.56035 0.221574 0
M  V30 5484 C 523.015 1.79312 0.947372 0
M  V30 5485 C 523.348 0.621453 1.83988 0
M  V30 5486 O 522.623 -0.379287 1.90766 0
M  V30 5487 C 522.906 3.1267 1.78633 0
M  V30 5488 C 522.759 4.40284 0.920312 0
M  V30 5489 C 524.078 3.4247 2.7641 0
M  V30 5490 H 521.197 0.652328 0.342982 0
M  V30 5491 H 523.839 1.88765 0.216244 0
M  V30 5492 H 521.989 3.04741 2.40967 0
M  V30 5493 H 523.661 4.60232 0.313718 0
M  V30 5494 H 521.904 4.33212 0.225734 0
M  V30 5495 H 522.575 5.30033 1.54171 0
M  V30 5496 H 525.051 3.50526 2.24211 0
M  V30 5497 H 523.927 4.3695 3.32213 0
M  V30 5498 H 524.188 2.64635 3.54148 0
M  V30 5499 N 523.247 -0.488276 1.49845 0
M  V30 5500 C 524.195 -1.60917 1.67954 0
M  V30 5501 C 525.189 -1.6038 0.54539 0
M  V30 5502 O 526.395 -1.64736 0.7254 0
M  V30 5503 H 522.77 -0.533658 0.529824 0
M  V30 5504 H 524.741 -1.428 2.62013 0
M  V30 5505 C 523.49 -2.98975 1.77509 0
M  V30 5506 H 522.813 -3.00099 2.6416 0
M  V30 5507 H 524.253 -3.76906 1.9421 0
M  V30 5508 C 522.712 -3.3282 0.522745 0
M  V30 5509 O 523.242 -4.00208 -0.345866 0
M  V30 5510 N 521.448 -2.8808 0.381882 0
M  V30 5511 H 520.995 -2.33415 1.08974 0
M  V30 5512 H 520.953 -3.11091 -0.454929 0
M  V30 5513 N 524.725 -1.39134 -0.740242 0
M  V30 5514 C 526.136 -1.32208 -1.31825 0
M  V30 5515 C 526.487 0.0159919 -1.96193 0
M  V30 5516 O 525.612 0.918111 -1.95958 0
M  V30 5517 C 526.207 -2.39436 -2.39699 0
M  V30 5518 C 524.766 -2.36048 -2.93187 0
M  V30 5519 C 523.913 -2.21599 -1.66701 0
M  V30 5520 H 526.864 -1.49298 -0.538133 0
M  V30 5521 H 526.885 -2.05922 -3.19963 0
M  V30 5522 H 526.397 -3.36811 -1.92821 0
M  V30 5523 H 524.498 -1.42295 -3.44359 0
M  V30 5524 H 524.611 -3.30704 -3.46658 0
M  V30 5525 H 522.975 -1.68681 -1.90837 0
M  V30 5526 H 523.758 -3.20936 -1.21882 0
M  V30 5527 N 526.204 0.969867 -1.24223 0
M  V30 5528 C 527.453 1.70687 -1.07466 0
M  V30 5529 C 527.766 1.91736 0.386861 0
M  V30 5530 O 528.972 2.62986 0.674581 0
M  V30 5531 C 527.428 3.07217 -1.87472 0
M  V30 5532 C 527.036 2.94018 -3.3802 0
M  V30 5533 C 528.78 3.84804 -1.79237 0
M  V30 5534 C 526.687 4.25844 -4.10379 0
M  V30 5535 H 525.617 0.640067 -0.398536 0
M  V30 5536 H 528.268 1.08092 -1.48285 0
M  V30 5537 H 526.65 3.70628 -1.39466 0
M  V30 5538 H 527.824 2.39632 -3.9359 0
M  V30 5539 H 526.139 2.29898 -3.47183 0
M  V30 5540 H 528.736 4.82417 -2.30603 0
M  V30 5541 H 529.079 4.09356 -0.757197 0
M  V30 5542 H 529.612 3.28115 -2.24912 0
M  V30 5543 H 526.351 4.06486 -5.14246 0
M  V30 5544 H 525.871 4.80054 -3.59594 0
M  V30 5545 H 527.55 4.94475 -4.17257 0
M  V30 5546 N 527.682 1.05563 1.17022 0
M  V30 5547 C 528.928 0.769074 1.87652 0
M  V30 5548 C 529.261 -0.702326 1.81055 0
M  V30 5549 O 528.536 -1.5139 1.22112 0
M  V30 5550 C 528.819 1.25492 3.37526 0
M  V30 5551 C 528.672 2.78953 3.52853 0
M  V30 5552 C 529.991 0.856919 4.31677 0
M  V30 5553 H 527.11 0.280854 0.681388 0
M  V30 5554 H 529.752 1.31027 1.37593 0
M  V30 5555 H 527.902 0.794516 3.80289 0
M  V30 5556 H 529.574 3.33146 3.19079 0
M  V30 5557 H 527.817 3.18046 2.95007 0
M  V30 5558 H 528.488 3.08011 4.58076 0
M  V30 5559 H 530.964 1.25334 3.96775 0
M  V30 5560 H 529.84 1.22443 5.35069 0
M  V30 5561 H 530.101 -0.238787 4.41455 0
M  V30 5562 N 529.16 -1.33526 0.837174 0
M  V30 5563 C 530.388 -2.02047 0.445494 0
M  V30 5564 C 530.803 -1.62995 -0.952788 0
M  V30 5565 O 530.16 -0.842447 -1.61892 0
M  V30 5566 C 530.211 -3.57221 0.554577 0
M  V30 5567 O 529.932 -3.94863 1.89776 0
M  V30 5568 C 531.433 -4.43012 0.159634 0
M  V30 5569 H 528.653 -0.647221 0.177048 0
M  V30 5570 H 531.197 -1.70492 1.12928 0
M  V30 5571 H 529.352 -3.87315 -0.0812781 0
M  V30 5572 H 529.766 -4.89569 1.88208 0
M  V30 5573 H 531.24 -5.51253 0.28701 0
M  V30 5574 H 531.717 -4.29916 -0.898289 0
M  V30 5575 H 532.323 -4.18274 0.769855 0
M  V30 5576 N 530.638 -0.59345 -1.46 0
M  V30 5577 C 531.548 0.135817 -2.34207 0
M  V30 5578 C 532.564 0.875008 -1.50398 0
M  V30 5579 O 533.74 0.835778 -1.83239 0
M  V30 5580 C 530.805 1.12977 -3.27776 0
M  V30 5581 C 529.866 0.394081 -4.27487 0
M  V30 5582 C 529.099 1.34068 -5.16586 0
M  V30 5583 O 529.322 2.5778 -5.08828 0
M  V30 5584 O 528.256 0.845426 -5.95933 0
M  V30 5585 H 532.082 -0.588691 -2.9794 0
M  V30 5586 H 529.667 -0.353784 -1.45151 0
M  V30 5587 H 531.549 1.70261 -3.85473 0
M  V30 5588 H 530.224 1.83556 -2.66625 0
M  V30 5589 H 529.131 -0.220869 -3.73447 0
M  V30 5590 H 530.464 -0.270939 -4.91454 0
M  V30 5591 N 532.116 1.54067 -0.331816 0
M  V30 5592 C 533.063 2.24623 0.530372 0
M  V30 5593 C 534.033 1.24009 1.10503 0
M  V30 5594 O 535.218 1.52712 1.14384 0
M  V30 5595 C 532.358 3.01374 1.68129 0
M  V30 5596 C 531.471 4.16821 1.13507 0
M  V30 5597 C 530.606 4.81085 2.25234 0
M  V30 5598 C 529.645 5.88621 1.67903 0
M  V30 5599 N 528.782 6.46713 2.73326 0
M  V30 5600 H 533.622 2.97898 -0.0778607 0
M  V30 5601 H 531.159 1.47014 -0.0501965 0
M  V30 5602 H 533.117 3.44125 2.35868 0
M  V30 5603 H 531.747 2.30419 2.26069 0
M  V30 5604 H 530.799 3.78796 0.348979 0
M  V30 5605 H 532.111 4.94203 0.675633 0
M  V30 5606 H 531.265 5.26846 3.00862 0
M  V30 5607 H 530.004 4.03102 2.74518 0
M  V30 5608 H 529.009 5.42254 0.907773 0
M  V30 5609 H 530.234 6.68506 1.19487 0
M  V30 5610 H 528.18 5.71599 3.21886 0
M  V30 5611 H 528.097 7.19532 2.3197 0
M  V30 5612 H 529.365 6.97129 3.48758 0
M  V30 5613 N 533.594 0.0601682 1.57485 0
M  V30 5614 C 534.871 -0.651956 1.84415 0
M  V30 5615 C 535.251 -1.88498 0.950361 0
M  V30 5616 O 534.599 -2.28496 0.0136719 0
M  V30 5617 C 534.809 -1.00069 3.34346 0
M  V30 5618 C 536.157 -1.37915 4.01578 0
M  V30 5619 O 537.181 -1.09277 3.39024 0
M  V30 5620 O 536.04 -1.91399 5.11887 0
M  V30 5621 H 533.134 -0.322668 0.761455 0
M  V30 5622 H 535.68 0.0902159 1.6946 0
M  V30 5623 H 534.452 -0.124463 3.91102 0
M  V30 5624 H 534.075 -1.80001 3.54521 0
M  V30 5625 N 535.072 -1.5615 -0.213296 0
M  V30 5626 C 536.297 -1.83986 -0.957282 0
M  V30 5627 C 536.722 -0.641526 -1.76822 0
M  V30 5628 O 536.08 0.409722 -1.7661 0
M  V30 5629 C 536.128 -3.09889 -1.84393 0
M  V30 5630 O 535.232 -2.89163 -2.94038 0
M  V30 5631 H 534.573 -0.606357 -0.270605 0
M  V30 5632 H 537.103 -2.03369 -0.224111 0
M  V30 5633 H 537.113 -3.40209 -2.25215 0
M  V30 5634 H 535.788 -3.96735 -1.24795 0
M  V30 5635 H 534.365 -2.70097 -2.57103 0
M  V30 5636 N 536.55 0.480323 -1.50102 0
M  V30 5637 C 537.961 1.06142 -1.53593 0
M  V30 5638 C 538.312 1.93335 -0.334055 0
M  V30 5639 O 537.437 2.09188 0.55403 0
M  V30 5640 C 538.032 1.9317 -2.78336 0
M  V30 5641 C 536.591 2.46405 -2.84538 0
M  V30 5642 C 535.738 1.24521 -2.4777 0
M  V30 5643 H 538.689 0.26333 -1.565 0
M  V30 5644 H 538.71 2.78123 -2.59669 0
M  V30 5645 H 538.222 1.29683 -3.65792 0
M  V30 5646 H 536.323 3.13472 -2.01411 0
M  V30 5647 H 536.436 2.82143 -3.87211 0
M  V30 5648 H 534.8 1.57706 -2.00003 0
M  V30 5649 H 535.583 0.627102 -3.37524 0
M  V30 5650 N 538.028 1.39524 0.732853 0
M  V30 5651 C 539.274 1.37068 1.49467 0
M  V30 5652 C 539.607 -0.0327166 1.94172 0
M  V30 5653 O 538.882 -0.998071 1.66939 0
M  V30 5654 C 539.165 2.34494 2.73285 0
M  V30 5655 C 539.018 3.83784 2.34585 0
M  V30 5656 C 540.337 2.29717 3.75391 0
M  V30 5657 H 537.456 0.499206 0.542183 0
M  V30 5658 H 540.098 1.70532 0.837783 0
M  V30 5659 H 538.248 2.06087 3.29333 0
M  V30 5660 H 539.92 4.22949 1.84151 0
M  V30 5661 H 538.163 4.00455 1.66787 0
M  V30 5662 H 538.834 4.47444 3.23262 0
M  V30 5663 H 541.31 2.54839 3.28932 0
M  V30 5664 H 540.186 2.99962 4.59689 0
M  V30 5665 H 540.447 1.30291 4.22465 0
M  V30 5666 N 539.506 -0.963266 1.24736 0
M  V30 5667 C 540.454 -2.07985 1.04139 0
M  V30 5668 C 541.448 -1.69381 -0.0250556 0
M  V30 5669 O 542.654 -1.79531 0.129863 0
M  V30 5670 H 539.029 -0.680627 0.319768 0
M  V30 5671 H 541 -2.22517 1.98818 0
M  V30 5672 C 539.749 -3.4123 0.667615 0
M  V30 5673 H 539.072 -3.71397 1.48 0
M  V30 5674 H 540.512 -4.20244 0.563136 0
M  V30 5675 C 538.971 -3.3104 -0.625647 0
M  V30 5676 O 539.501 -3.65334 -1.67016 0
M  V30 5677 N 537.707 -2.84168 -0.608033 0
M  V30 5678 H 537.254 -2.56458 0.242323 0
M  V30 5679 H 537.212 -2.77732 -1.47352 0
M  V30 5680 N 540.985 -1.06182 -1.16461 0
M  V30 5681 C 542.234 -0.772927 -1.86303 0
M  V30 5682 C 542.547 0.703187 -1.82523 0
M  V30 5683 O 543.753 1.10641 -2.47933 0
M  V30 5684 C 542.209 -1.33249 -3.34324 0
M  V30 5685 C 541.817 -2.83876 -3.46581 0
M  V30 5686 C 543.561 -1.12108 -4.09429 0
M  V30 5687 C 541.468 -3.33082 -4.88682 0
M  V30 5688 H 540.398 -0.285452 -0.697878 0
M  V30 5689 H 543.049 -1.28039 -1.31447 0
M  V30 5690 H 541.431 -0.7528 -3.88779 0
M  V30 5691 H 542.605 -3.47786 -3.02293 0
M  V30 5692 H 540.92 -3.03671 -2.84909 0
M  V30 5693 H 543.517 -1.46361 -5.14279 0
M  V30 5694 H 543.86 -0.0593832 -4.16258 0
M  V30 5695 H 544.393 -1.6665 -3.6121 0
M  V30 5696 H 541.132 -4.38726 -4.87032 0
M  V30 5697 H 540.652 -2.73919 -5.33599 0
M  V30 5698 H 542.331 -3.28344 -5.57494 0
M  V30 5699 N 542.463 1.3308 -0.844243 0
M  V30 5700 C 543.373 2.32876 -0.283922 0
M  V30 5701 C 544.389 1.63589 0.592846 0
M  V30 5702 O 545.565 1.95205 0.495693 0
M  V30 5703 C 542.63 3.42667 0.527283 0
M  V30 5704 C 541.691 4.27664 -0.374394 0
M  V30 5705 C 540.924 5.32212 0.39819 0
M  V30 5706 O 541.147 5.46635 1.62932 0
M  V30 5707 O 540.081 6.01458 -0.2306 0
M  V30 5708 H 543.907 2.82671 -1.11045 0
M  V30 5709 H 541.492 1.36518 -0.606903 0
M  V30 5710 H 543.374 4.09652 0.988078 0
M  V30 5711 H 542.049 2.95079 1.33078 0
M  V30 5712 H 540.956 3.63526 -0.883144 0
M  V30 5713 H 542.289 4.78749 -1.1428 0
M  V30 5714 N 543.941 0.601185 1.45683 0
M  V30 5715 C 544.904 -0.111398 2.28929 0
M  V30 5716 C 545.904 -0.801246 1.39416 0
M  V30 5717 O 547.094 -0.650383 1.61603 0
M  V30 5718 C 544.226 -1.16773 3.20276 0
M  V30 5719 H 545.419 0.620412 2.93413 0
M  V30 5720 H 542.972 0.359946 1.52099 0
M  V30 5721 H 543.707 -1.93051 2.60579 0
M  V30 5722 H 543.492 -0.677358 3.86205 0
M  V30 5723 H 544.982 -1.66698 3.82886 0
M  V30 5724 N 545.419 -1.53889 0.339982 0
M  V30 5725 C 546.329 -2.28604 -0.526988 0
M  V30 5726 C 547.345 -1.33578 -1.11503 0
M  V30 5727 O 548.521 -1.66612 -1.13148 0
M  V30 5728 C 545.586 -3.04164 -1.66389 0
M  V30 5729 C 544.647 -4.14809 -1.10599 0
M  V30 5730 C 543.88 -4.86756 -2.18871 0
M  V30 5731 O 544.103 -4.58343 -3.39526 0
M  V30 5732 O 543.037 -5.73289 -1.83366 0
M  V30 5733 H 546.863 -3.03594 0.0802707 0
M  V30 5734 H 544.448 -1.4903 0.105141 0
M  V30 5735 H 546.33 -3.51427 -2.32544 0
M  V30 5736 H 545.005 -2.32035 -2.25703 0
M  V30 5737 H 543.912 -3.71857 -0.409067 0
M  V30 5738 H 545.245 -4.89029 -0.557771 0
M  V30 5739 N 546.897 -0.0685191 -1.57451 0
M  V30 5740 C 548.308 0.464634 -1.80826 0
M  V30 5741 C 548.659 1.69847 -0.982169 0
M  V30 5742 O 547.784 2.15439 -0.203734 0
M  V30 5743 C 548.379 0.849721 -3.27971 0
M  V30 5744 C 546.938 1.32776 -3.52204 0
M  V30 5745 C 546.085 0.311332 -2.75547 0
M  V30 5746 H 549.036 -0.294248 -1.55948 0
M  V30 5747 H 549.057 1.71138 -3.39841 0
M  V30 5748 H 548.569 -0.0484736 -3.8807 0
M  V30 5749 H 546.67 2.24456 -2.97406 0
M  V30 5750 H 546.783 1.30794 -4.60901 0
M  V30 5751 H 545.147 0.787915 -2.42206 0
M  V30 5752 H 545.93 -0.579078 -3.38381 0
M  V30 5753 N 548.375 1.56261 0.205012 0
M  V30 5754 C 549.786 1.70056 0.770574 0
M  V30 5755 C 550.137 0.673398 1.84282 0
M  V30 5756 O 549.262 -0.172196 2.15714 0
M  V30 5757 C 549.857 3.08316 1.40451 0
M  V30 5758 C 548.416 3.2391 1.91727 0
M  V30 5759 C 547.563 2.66001 0.783516 0
M  V30 5760 H 550.514 1.58688 -0.019911 0
M  V30 5761 H 550.535 3.05094 2.27371 0
M  V30 5762 H 550.047 3.83053 0.623882 0
M  V30 5763 H 548.148 2.54072 2.7254 0
M  V30 5764 H 548.261 4.3131 2.08588 0
M  V30 5765 H 546.625 2.24915 1.19521 0
M  V30 5766 H 547.408 3.43297 0.0152883 0
M  V30 5767 N 549.853 -0.472356 1.50355 0
M  V30 5768 C 551.1 -1.22453 1.61281 0
M  V30 5769 C 551.428 -1.91972 0.31256 0
M  V30 5770 O 550.683 -1.82696 -0.701475 0
M  V30 5771 C 550.982 -2.29257 2.74182 0
M  V30 5772 C 550.648 -1.76999 4.14708 0
M  V30 5773 C 549.31 -1.62467 4.52944 0
M  V30 5774 C 551.662 -1.38215 5.0254 0
M  V30 5775 C 548.99 -1.07574 5.76754 0
M  V30 5776 C 551.342 -0.847638 6.26895 0
M  V30 5777 C 550.006 -0.688946 6.63935 0
M  V30 5778 H 549.276 -0.448087 0.590168 0
M  V30 5779 H 551.923 -0.520744 1.84284 0
M  V30 5780 H 550.228 -3.05538 2.45263 0
M  V30 5781 H 551.925 -2.87212 2.7984 0
M  V30 5782 H 548.515 -1.89276 3.84542 0
M  V30 5783 H 552.699 -1.48276 4.73633 0
M  V30 5784 H 547.955 -0.940237 6.04127 0
M  V30 5785 H 552.129 -0.538455 6.94315 0
M  V30 5786 H 549.756 -0.261435 7.5975 0
M  V30 5787 N 551.331 -1.39911 -0.725443 0
M  V30 5788 C 552.579 -1.37382 -1.48224 0
M  V30 5789 C 552.9 0.0264107 -1.94982 0
M  V30 5790 O 552.17 0.979408 -1.6966 0
M  V30 5791 H 550.75 -0.505596 -0.549892 0
M  V30 5792 H 553.412 -1.7487 -0.860608 0
M  V30 5793 H 552.508 -2.04254 -2.3598 0
M  V30 5794 N 552.809 0.956637 -1.25245 0
M  V30 5795 C 554.086 1.67716 -1.00651 0
M  V30 5796 C 554.466 2.0585 0.467866 0
M  V30 5797 O 553.814 1.77029 1.44475 0
M  V30 5798 C 554.024 2.90093 -1.94028 0
M  V30 5799 C 555.372 3.6209 -2.21756 0
M  V30 5800 O 556.396 3.00171 -1.9177 0
M  V30 5801 O 555.255 4.7358 -2.72735 0
M  V30 5802 H 552.349 0.733731 -0.381533 0
M  V30 5803 H 554.895 1.00974 -1.3639 0
M  V30 5804 H 553.667 2.58689 -2.93591 0
M  V30 5805 H 553.29 3.64566 -1.58674 0
M  V30 5806 N 554.287 1.06798 1.15896 0
M  V30 5807 C 555.512 0.808739 1.90982 0
M  V30 5808 C 555.937 -0.6316 1.77179 0
M  V30 5809 O 555.295 -1.4407 1.10061 0
M  V30 5810 C 555.343 1.21468 3.39526 0
M  V30 5811 O 554.447 0.356562 4.10856 0
M  V30 5812 H 553.788 0.29512 0.594811 0
M  V30 5813 H 556.318 1.42513 1.46804 0
M  V30 5814 H 556.328 1.18844 3.90308 0
M  V30 5815 H 555.003 2.26379 3.48891 0
M  V30 5816 H 553.58 0.444808 3.70238 0
M  V30 5817 N 555.766 -1.3263 0.851289 0
M  V30 5818 C 556.996 -2.01271 0.466222 0
M  V30 5819 C 557.404 -1.64156 -0.940714 0
M  V30 5820 O 556.747 -0.857109 -1.62479 0
M  V30 5821 C 556.809 -3.55695 0.521672 0
M  V30 5822 C 556.473 -4.16227 1.88691 0
M  V30 5823 C 557.47 -4.34699 2.85189 0
M  V30 5824 C 555.155 -4.52377 2.18313 0
M  V30 5825 C 557.149 -4.88484 4.09465 0
M  V30 5826 C 554.836 -5.05868 3.42843 0
M  V30 5827 C 555.834 -5.23869 4.38235 0
M  V30 5828 O 555.522 -5.76218 5.6056 0
M  V30 5829 H 555.254 -0.651034 0.18202 0
M  V30 5830 H 557.808 -1.7026 1.14894 0
M  V30 5831 H 556.038 -3.86086 -0.217888 0
M  V30 5832 H 557.727 -4.05613 0.152682 0
M  V30 5833 H 558.493 -4.07107 2.63607 0
M  V30 5834 H 554.372 -4.37652 1.44851 0
M  V30 5835 H 557.916 -5.02451 4.83931 0
M  V30 5836 H 553.813 -5.32891 3.64277 0
M  V30 5837 H 554.581 -5.94616 5.62471 0
M  V30 5838 N 557.244 -0.608902 -1.45362 0
M  V30 5839 C 558.493 -0.10218 -2.01441 0
M  V30 5840 C 558.806 1.27546 -1.48295 0
M  V30 5841 O 560.012 1.87498 -1.96359 0
M  V30 5842 C 558.468 -0.131985 -3.59658 0
M  V30 5843 C 558.076 -1.50956 -4.21801 0
M  V30 5844 C 559.82 0.319427 -4.23296 0
M  V30 5845 C 557.727 -1.49568 -5.72174 0
M  V30 5846 H 556.657 -0.0344314 -0.753213 0
M  V30 5847 H 559.308 -0.764426 -1.6682 0
M  V30 5848 H 557.69 0.596939 -3.91475 0
M  V30 5849 H 558.864 -2.26029 -4.01556 0
M  V30 5850 H 557.179 -1.90318 -3.70362 0
M  V30 5851 H 559.776 0.349013 -5.3356 0
M  V30 5852 H 560.119 1.34237 -3.94064 0
M  V30 5853 H 560.652 -0.356273 -3.96201 0
M  V30 5854 H 557.391 -2.49626 -6.06108 0
M  V30 5855 H 556.911 -0.787542 -5.94607 0
M  V30 5856 H 558.59 -1.21989 -6.35396 0
M  V30 5857 N 558.722 1.53707 -0.348139 0
M  V30 5858 C 559.971 2.0017 0.247992 0
M  V30 5859 C 560.284 1.23983 1.51286 0
M  V30 5860 O 561.49 1.60946 2.18652 0
M  V30 5861 C 559.946 3.56515 0.492459 0
M  V30 5862 C 559.554 4.41562 -0.756777 0
M  V30 5863 C 561.298 4.11381 1.0472 0
M  V30 5864 C 559.205 5.89426 -0.482856 0
M  V30 5865 H 558.135 0.747806 0.0964452 0
M  V30 5866 H 560.786 1.77532 -0.464179 0
M  V30 5867 H 559.168 3.75236 1.26545 0
M  V30 5868 H 560.342 4.34615 -1.53122 0
M  V30 5869 H 558.657 3.97711 -1.23348 0
M  V30 5870 H 561.254 5.19468 1.26717 0
M  V30 5871 H 561.597 3.64885 2.00411 0
M  V30 5872 H 562.13 3.96389 0.334801 0
M  V30 5873 H 558.869 6.40164 -1.40962 0
M  V30 5874 H 558.389 5.99264 0.253416 0
M  V30 5875 H 560.068 6.4692 -0.101816 0
M  V30 5876 N 560.2 0.0768682 1.57412 0
M  V30 5877 C 561.449 -0.590679 1.92857 0
M  V30 5878 C 561.762 -1.70461 0.959293 0
M  V30 5879 O 562.968 -2.43207 1.20675 0
M  V30 5880 C 561.424 -1.10204 3.42612 0
M  V30 5881 C 561.032 -0.0188447 4.47996 0
M  V30 5882 C 562.776 -1.74336 3.87049 0
M  V30 5883 C 560.683 -0.544536 5.88888 0
M  V30 5884 H 559.613 -0.224411 0.71983 0
M  V30 5885 H 562.264 0.149924 1.82887 0
M  V30 5886 H 560.646 -1.89577 3.47673 0
M  V30 5887 H 561.82 0.755936 4.54557 0
M  V30 5888 H 560.135 0.526555 4.13057 0
M  V30 5889 H 562.732 -2.14708 4.89699 0
M  V30 5890 H 563.075 -2.60537 3.24694 0
M  V30 5891 H 563.608 -1.01577 3.84613 0
M  V30 5892 H 560.347 0.280426 6.549 0
M  V30 5893 H 559.867 -1.28673 5.85836 0
M  V30 5894 H 561.546 -1.01933 6.3892 0
M  V30 5895 N 561.678 -1.56367 -0.196722 0
M  V30 5896 C 562.926 -1.80172 -0.915554 0
M  V30 5897 C 563.247 -0.649649 -1.8386 0
M  V30 5898 O 562.517 0.332111 -1.93064 0
M  V30 5899 H 561.097 -0.664592 -0.341067 0
M  V30 5900 H 563.759 -1.93844 -0.202622 0
M  V30 5901 H 562.855 -2.7327 -1.50764 0
M  V30 5902 N 563.156 0.464375 -1.50603 0
M  V30 5903 C 564.402 1.21776 -1.62168 0
M  V30 5904 C 564.735 1.91476 -0.324154 0
M  V30 5905 O 564.01 1.8242 0.674782 0
M  V30 5906 C 564.293 2.25614 -2.80661 0
M  V30 5907 C 564.146 1.60175 -4.20314 0
M  V30 5908 C 565.465 3.26862 -2.94702 0
M  V30 5909 H 562.584 0.44137 -0.590222 0
M  V30 5910 H 565.226 0.510623 -1.8301 0
M  V30 5911 H 563.376 2.85923 -2.63021 0
M  V30 5912 H 565.048 1.03411 -4.4956 0
M  V30 5913 H 563.291 0.904697 -4.24261 0
M  V30 5914 H 563.962 2.35665 -4.99165 0
M  V30 5915 H 566.438 2.76582 -3.10872 0
M  V30 5916 H 565.314 3.96839 -3.79223 0
M  V30 5917 H 565.575 3.91382 -2.05603 0
M  V30 5918 N 564.634 1.40294 0.718013 0
M  V30 5919 C 565.544 1.42678 1.86226 0
M  V30 5920 C 566.56 0.319655 1.71039 0
M  V30 5921 O 567.736 0.563852 1.93346 0
M  V30 5922 C 564.801 1.2852 3.21999 0
M  V30 5923 C 563.862 2.49354 3.49458 0
M  V30 5924 C 563.095 2.35863 4.78753 0
M  V30 5925 O 563.318 1.37114 5.53675 0
M  V30 5926 O 562.252 3.25189 5.06494 0
M  V30 5927 H 566.078 2.39167 1.87171 0
M  V30 5928 H 563.663 1.2159 0.868112 0
M  V30 5929 H 565.545 1.22824 4.03103 0
M  V30 5930 H 564.22 0.351359 3.21787 0
M  V30 5931 H 563.127 2.60628 2.68373 0
M  V30 5932 H 564.46 3.41491 3.54464 0
M  V30 5933 N 566.112 -0.949982 1.2575 0
M  V30 5934 C 567.523 -1.50989 1.09815 0
M  V30 5935 C 567.874 -1.93497 -0.324556 0
M  V30 5936 O 566.999 -1.79068 -1.21506 0
M  V30 5937 C 567.594 -2.74394 1.98729 0
M  V30 5938 C 566.153 -3.26682 1.86965 0
M  V30 5939 C 565.3 -1.99498 1.92603 0
M  V30 5940 H 568.251 -0.766387 1.38968 0
M  V30 5941 H 568.272 -3.48383 1.53001 0
M  V30 5942 H 567.784 -2.43425 3.02268 0
M  V30 5943 H 565.885 -3.62461 0.863279 0
M  V30 5944 H 565.998 -3.94383 2.72027 0
M  V30 5945 H 564.362 -2.15005 1.36546 0
M  V30 5946 H 565.145 -1.70871 2.97755 0
M  V30 5947 N 567.59 -1.07411 -1.15328 0
M  V30 5948 C 568.838 -0.796073 -1.85761 0
M  V30 5949 C 569.159 0.679864 -1.82764 0
M  V30 5950 O 568.429 1.49242 -1.269 0
M  V30 5951 H 567.009 -0.291495 -0.687779 0
M  V30 5952 H 569.671 -1.35799 -1.39802 0
M  V30 5953 H 568.767 -1.13114 -2.90881 0
M  V30 5954 N 569.068 1.32177 -0.85831 0
M  V30 5955 C 570 2.27688 -0.262835 0
M  V30 5956 C 571.013 1.52588 0.567513 0
M  V30 5957 O 572.202 1.74156 0.391407 0
M  V30 5958 C 569.302 3.32668 0.646937 0
M  V30 5959 C 568.475 4.37148 -0.148372 0
M  V30 5960 C 567.534 5.21686 0.687728 0
M  V30 5961 O 566.56 5.69074 0.119934 0
M  V30 5962 N 567.762 5.44892 2.00182 0
M  V30 5963 H 570.527 2.79426 -1.08356 0
M  V30 5964 H 568.088 1.45076 -0.718647 0
M  V30 5965 H 570.08 3.86134 1.2117 0
M  V30 5966 H 568.65 2.81061 1.36834 0
M  V30 5967 H 567.87 3.83915 -0.894572 0
M  V30 5968 H 569.158 5.04038 -0.694514 0
M  V30 5969 H 568.556 5.08128 2.4864 0
M  V30 5970 H 567.113 6.0134 2.51463 0
M  V30 5971 N 570.547 0.616602 1.45037 0
M  V30 5972 C 571.477 -0.0840787 2.33349 0
M  V30 5973 C 572.458 -0.849641 1.4736 0
M  V30 5974 O 573.643 -0.818407 1.76113 0
M  V30 5975 C 570.773 -1.07604 3.3021 0
M  V30 5976 C 569.727 -0.423096 4.25904 0
M  V30 5977 C 569.053 -1.52394 5.12523 0
M  V30 5978 C 570.353 0.661457 5.18095 0
M  V30 5979 H 572.047 0.653333 2.92185 0
M  V30 5980 H 569.593 0.315634 1.40498 0
M  V30 5981 H 571.546 -1.57485 3.90866 0
M  V30 5982 H 570.27 -1.84416 2.69552 0
M  V30 5983 H 568.929 0.05493 3.66559 0
M  V30 5984 H 568.577 -2.28257 4.48227 0
M  V30 5985 H 568.277 -1.09251 5.77354 0
M  V30 5986 H 569.801 -2.02485 5.76049 0
M  V30 5987 H 571.215 0.246353 5.7277 0
M  V30 5988 H 569.612 1.01517 5.91451 0
M  V30 5989 H 570.682 1.53446 4.59981 0
M  V30 5990 N 572.025 -1.5352 0.356285 0
M  V30 5991 C 572.972 -2.25439 -0.494569 0
M  V30 5992 C 573.942 -1.25752 -1.08516 0
M  V30 5993 O 575.127 -1.54513 -1.1194 0
M  V30 5994 C 572.267 -3.04011 -1.63313 0
M  V30 5995 C 571.38 -4.18574 -1.06862 0
M  V30 5996 C 570.515 -4.84607 -2.17552 0
M  V30 5997 C 569.554 -5.91218 -1.58518 0
M  V30 5998 N 568.691 -6.50979 -2.63003 0
M  V30 5999 H 573.531 -2.97737 0.125244 0
M  V30 6000 H 571.068 -1.46916 0.0735789 0
M  V30 6001 H 573.026 -3.47834 -2.30363 0
M  V30 6002 H 571.656 -2.33986 -2.22374 0
M  V30 6003 H 570.708 -3.79303 -0.288672 0
M  V30 6004 H 572.02 -4.95215 -0.596924 0
M  V30 6005 H 571.174 -5.31566 -2.92442 0
M  V30 6006 H 569.913 -4.07418 -2.6807 0
M  V30 6007 H 568.918 -5.4363 -0.821391 0
M  V30 6008 H 570.143 -6.70322 -1.08836 0
M  V30 6009 H 568.089 -5.76648 -3.12751 0
M  V30 6010 H 568.006 -7.23131 -2.20493 0
M  V30 6011 H 569.274 -7.02589 -3.37623 0
M  V30 6012 N 573.503 -0.0852151 -1.57369 0
M  V30 6013 C 574.433 0.874556 -2.16503 0
M  V30 6014 C 575.414 1.30111 -1.09568 0
M  V30 6015 O 576.599 1.36977 -1.37662 0
M  V30 6016 C 573.729 2.13731 -2.73745 0
M  V30 6017 C 572.683 1.84971 -3.85966 0
M  V30 6018 C 572.009 3.17991 -4.29867 0
M  V30 6019 C 573.309 1.14442 -5.09608 0
M  V30 6020 H 575.003 0.381899 -2.96954 0
M  V30 6021 H 572.549 0.18225 -1.42842 0
M  V30 6022 H 574.502 2.81302 -3.13763 0
M  V30 6023 H 573.226 2.65263 -1.90534 0
M  V30 6024 H 571.885 1.19801 -3.46473 0
M  V30 6025 H 571.533 3.6739 -3.4356 0
M  V30 6026 H 571.233 2.99534 -5.05523 0
M  V30 6027 H 572.757 3.86737 -4.72511 0
M  V30 6028 H 574.171 1.72105 -5.46857 0
M  V30 6029 H 572.568 1.06197 -5.90629 0
M  V30 6030 H 573.638 0.12559 -4.84737 0
M  V30 6031 N 574.981 1.5647 0.188427 0
M  V30 6032 C 576.258 1.71857 0.934058 0
M  V30 6033 C 576.638 0.641867 2.01105 0
M  V30 6034 O 575.986 -0.346098 2.25864 0
M  V30 6035 C 576.196 3.14431 1.5144 0
M  V30 6036 C 577.544 3.74869 1.99396 0
M  V30 6037 O 578.568 3.17601 1.61269 0
M  V30 6038 O 577.427 4.75387 2.69573 0
M  V30 6039 H 574.521 0.701186 0.438483 0
M  V30 6040 H 577.067 1.68768 0.177599 0
M  V30 6041 H 575.839 3.8427 0.738416 0
M  V30 6042 H 575.462 3.21775 2.33552 0
M  V30 6043 N 576.459 -0.456382 1.50847 0
M  V30 6044 C 577.705 -1.20618 1.63777 0
M  V30 6045 C 578.06 -1.8936 0.340677 0
M  V30 6046 O 577.353 -1.79786 -0.662378 0
M  V30 6047 C 577.547 -2.26336 2.76599 0
M  V30 6048 C 577.376 -1.67968 4.17153 0
M  V30 6049 C 576.146 -1.47293 4.83356 0
M  V30 6050 C 578.344 -1.16643 5.00898 0
M  V30 6051 N 576.326 -0.843222 6.08081 0
M  V30 6052 C 577.697 -0.660843 6.16468 0
M  V30 6053 C 579.752 -1.05637 4.86565 0
M  V30 6054 C 578.455 -0.0560365 7.19278 0
M  V30 6055 C 580.481 -0.465485 5.89565 0
M  V30 6056 C 579.843 0.0296516 7.04394 0
M  V30 6057 H 575.942 -0.429725 0.653345 0
M  V30 6058 H 578.526 -0.505784 1.88016 0
M  V30 6059 H 576.697 -2.93785 2.54056 0
M  V30 6060 H 578.429 -2.9334 2.78808 0
M  V30 6061 H 575.184 -1.72934 4.40898 0
M  V30 6062 H 575.608 -0.546357 6.74792 0
M  V30 6063 H 580.25 -1.42508 3.98059 0
M  V30 6064 H 577.968 0.324845 8.07447 0
M  V30 6065 H 581.554 -0.382493 5.80541 0
M  V30 6066 H 580.434 0.479705 7.82731 0
M  V30 6067 N 577.937 -1.40673 -0.710563 0
M  V30 6068 C 579.184 -1.39222 -1.47049 0
M  V30 6069 C 579.512 0.0037691 -1.945 0
M  V30 6070 O 578.767 0.989224 -1.68857 0
M  V30 6071 C 579.066 -2.33253 -2.70791 0
M  V30 6072 C 578.732 -3.80406 -2.42079 0
M  V30 6073 C 577.394 -4.20496 -2.33959 0
M  V30 6074 C 579.746 -4.73375 -2.18094 0
M  V30 6075 C 577.074 -5.51584 -1.99929 0
M  V30 6076 C 579.426 -6.04768 -1.85576 0
M  V30 6077 C 578.09 -6.43895 -1.75941 0
M  V30 6078 H 577.36 -0.509449 -0.538092 0
M  V30 6079 H 580.007 -1.73363 -0.81348 0
M  V30 6080 H 578.312 -1.92314 -3.41354 0
M  V30 6081 H 580.009 -2.29412 -3.28894 0
M  V30 6082 H 576.599 -3.48645 -2.49288 0
M  V30 6083 H 580.783 -4.43217 -2.23321 0
M  V30 6084 H 576.039 -5.80797 -1.91011 0
M  V30 6085 H 580.213 -6.76318 -1.66033 0
M  V30 6086 H 577.84 -7.45387 -1.4934 0
M  V30 6087 N 579.415 0.9433 -1.26252 0
M  V30 6088 C 580.362 2.0417 -1.07625 0
M  V30 6089 C 581.332 1.6609 0.0180738 0
M  V30 6090 O 582.517 1.90276 -0.141289 0
M  V30 6091 C 579.657 3.37653 -0.713043 0
M  V30 6092 C 578.77 3.88783 -1.8834 0
M  V30 6093 C 577.905 5.10642 -1.4635 0
M  V30 6094 C 576.944 5.54028 -2.60229 0
M  V30 6095 N 576.081 6.67092 -2.18936 0
M  V30 6096 H 580.921 2.19436 -2.01623 0
M  V30 6097 H 578.458 1.07519 -1.00389 0
M  V30 6098 H 580.416 4.14391 -0.483358 0
M  V30 6099 H 579.046 3.22241 0.18996 0
M  V30 6100 H 578.098 3.08464 -2.22608 0
M  V30 6101 H 579.41 4.16922 -2.73821 0
M  V30 6102 H 578.564 5.94832 -1.19414 0
M  V30 6103 H 577.303 4.84244 -0.579568 0
M  V30 6104 H 576.308 4.68396 -2.87898 0
M  V30 6105 H 577.533 5.82429 -3.49219 0
M  V30 6106 H 575.479 6.42381 -1.32974 0
M  V30 6107 H 575.396 6.94806 -2.97961 0
M  V30 6108 H 576.664 7.54662 -1.95206 0
M  V30 6109 N 580.893 1.08022 1.14757 0
M  V30 6110 C 581.84 0.706657 2.19716 0
M  V30 6111 C 582.81 -0.30525 1.63271 0
M  V30 6112 O 583.995 -0.19015 1.8985 0
M  V30 6113 C 581.135 0.117914 3.44898 0
M  V30 6114 C 580.248 1.18212 4.15512 0
M  V30 6115 C 579.383 0.557659 5.28265 0
M  V30 6116 C 578.422 1.60418 5.90705 0
M  V30 6117 N 577.559 1.0018 6.94916 0
M  V30 6118 H 582.399 1.60603 2.51019 0
M  V30 6119 H 579.936 0.802664 1.23271 0
M  V30 6120 H 581.894 -0.241112 4.16503 0
M  V30 6121 H 580.524 -0.744788 3.1409 0
M  V30 6122 H 579.576 1.65863 3.42335 0
M  V30 6123 H 580.888 1.97533 4.5802 0
M  V30 6124 H 580.042 0.146654 6.06523 0
M  V30 6125 H 578.781 -0.267249 4.86967 0
M  V30 6126 H 577.786 2.02489 5.11154 0
M  V30 6127 H 579.011 2.43149 6.34078 0
M  V30 6128 H 576.957 0.197917 6.55701 0
M  V30 6129 H 576.874 1.73216 7.35889 0
M  V30 6130 H 578.142 0.616523 7.77058 0
M  V30 6131 N 582.371 -1.3172 0.865308 0
M  V30 6132 C 583.619 -1.96487 0.472995 0
M  V30 6133 C 583.94 -1.68761 -0.976975 0
M  V30 6134 O 583.21 -1.00051 -1.68424 0
M  V30 6135 H 581.79 -0.726947 0.171922 0
M  V30 6136 H 584.452 -1.60612 1.10407 0
M  V30 6137 H 583.548 -3.0574 0.62687 0
M  V30 6138 N 583.85 -0.624285 -1.44708 0
M  V30 6139 C 585.075 -0.131171 -2.06985 0
M  V30 6140 C 585.5 1.18234 -1.46295 0
M  V30 6141 O 584.858 1.72375 -0.561842 0
M  V30 6142 C 584.906 -0.0226724 -3.60593 0
M  V30 6143 O 584.01 1.02314 -3.99507 0
M  V30 6144 H 583.351 -0.0816556 -0.65896 0
M  V30 6145 H 585.88 -0.859027 -1.85693 0
M  V30 6146 H 585.891 0.170138 -4.07645 0
M  V30 6147 H 584.566 -0.981685 -4.04148 0
M  V30 6148 H 583.143 0.805452 -3.64097 0
M  V30 6149 N 585.328 1.53329 -0.364422 0
M  V30 6150 C 586.553 2.06132 0.229033 0
M  V30 6151 C 586.978 1.23625 1.41769 0
M  V30 6152 O 586.336 0.255038 1.79497 0
M  V30 6153 C 586.384 3.55544 0.60174 0
M  V30 6154 O 585.488 3.75771 1.69912 0
M  V30 6155 H 584.829 0.663148 0.0336213 0
M  V30 6156 H 587.359 1.97758 -0.524689 0
M  V30 6157 H 587.369 3.98549 0.873073 0
M  V30 6158 H 586.044 4.15039 -0.267421 0
M  V30 6159 H 584.621 3.44663 1.42343 0
M  V30 6160 N 586.806 0.0935595 1.57322 0
M  V30 6161 C 588.055 -0.570191 1.93473 0
M  V30 6162 C 588.368 -1.69434 0.977318 0
M  V30 6163 O 589.574 -2.41914 1.23248 0
M  V30 6164 C 588.03 -1.06564 3.43762 0
M  V30 6165 C 587.638 0.0286723 4.47991 0
M  V30 6166 C 589.382 -1.70221 3.88877 0
M  V30 6167 C 587.289 -0.482046 5.89432 0
M  V30 6168 H 586.219 -0.216764 0.72217 0
M  V30 6169 H 588.87 0.169313 1.82717 0
M  V30 6170 H 587.252 -1.85878 3.49664 0
M  V30 6171 H 588.426 0.804106 4.5373 0
M  V30 6172 H 586.741 0.570336 4.12476 0
M  V30 6173 H 589.338 -2.09502 4.91948 0
M  V30 6174 H 589.681 -2.57078 3.27439 0
M  V30 6175 H 590.214 -0.974919 3.85668 0
M  V30 6176 H 586.953 0.349871 6.54566 0
M  V30 6177 H 586.473 -1.22452 5.87167 0
M  V30 6178 H 588.152 -0.951508 6.39965 0
M  V30 6179 N 588.284 -1.56567 -0.180126 0
M  V30 6180 C 589.532 -1.81133 -0.896392 0
M  V30 6181 C 589.853 -0.669114 -1.83161 0
M  V30 6182 O 589.123 0.311616 -1.93406 0
M  V30 6183 H 587.703 -0.668172 -0.333999 0
M  V30 6184 H 590.365 -1.94048 -0.182051 0
M  V30 6185 H 589.461 -2.74854 -1.47857 0
M  V30 6186 N 589.762 0.448376 -1.51087 0
M  V30 6187 C 590.694 1.56146 -1.67783 0
M  V30 6188 C 591.707 1.52913 -0.55871 0
M  V30 6189 O 592.896 1.57889 -0.83267 0
M  V30 6190 C 589.996 2.95057 -1.66716 0
M  V30 6191 C 589.169 3.22915 -2.95033 0
M  V30 6192 C 588.228 4.41495 -2.86302 0
M  V30 6193 O 587.254 4.40688 -3.60254 0
M  V30 6194 N 588.456 5.44443 -2.014 0
M  V30 6195 H 591.221 1.42232 -2.638 0
M  V30 6196 H 588.782 0.637153 -1.48835 0
M  V30 6197 H 590.774 3.72388 -1.58458 0
M  V30 6198 H 589.344 3.02624 -0.783403 0
M  V30 6199 H 588.564 2.33985 -3.17245 0
M  V30 6200 H 589.852 3.38349 -3.79996 0
M  V30 6201 H 589.25 5.4793 -1.40674 0
M  V30 6202 H 587.807 6.2067 -1.99029 0
M  V30 6203 N 591.24 1.41047 0.703093 0
M  V30 6204 C 592.173 1.36713 1.82715 0
M  V30 6205 C 593.151 0.235533 1.60885 0
M  V30 6206 O 594.335 0.421227 1.83733 0
M  V30 6207 C 591.462 1.13069 3.1927 0
M  V30 6208 C 590.508 2.28846 3.59905 0
M  V30 6209 S 591.341 3.91297 3.65578 0
M  V30 6210 C 592.497 3.69941 5.04871 0
M  V30 6211 H 592.73 2.31838 1.86114 0
M  V30 6212 H 590.263 1.27481 0.871083 0
M  V30 6213 H 592.221 1.00113 3.98105 0
M  V30 6214 H 590.882 0.195763 3.13489 0
M  V30 6215 H 590.075 2.07977 4.59088 0
M  V30 6216 H 589.677 2.3817 2.88359 0
M  V30 6217 H 591.969 3.29181 5.92154 0
M  V30 6218 H 592.912 4.68699 5.30779 0
M  V30 6219 H 593.32 3.03369 4.76054 0
M  V30 6220 N 592.718 -0.936591 1.26751 0
M  V30 6221 C 593.965 -1.68331 1.12566 0
M  V30 6222 C 594.293 -1.91677 -0.330168 0
M  V30 6223 O 593.548 -1.49859 -1.2586 0
M  V30 6224 C 593.847 -3.06099 1.84494 0
M  V30 6225 C 593.513 -3.02493 3.34378 0
M  V30 6226 C 592.175 -3.01217 3.75262 0
M  V30 6227 C 594.527 -2.94453 4.30055 0
M  V30 6228 C 591.855 -2.89672 5.10203 0
M  V30 6229 C 594.207 -2.84449 5.65041 0
M  V30 6230 C 592.871 -2.81518 6.0523 0
M  V30 6231 H 592.141 -0.615965 0.411907 0
M  V30 6232 H 594.788 -1.09292 1.5725 0
M  V30 6233 H 593.093 -3.6879 1.32292 0
M  V30 6234 H 594.79 -3.62733 1.70955 0
M  V30 6235 H 591.38 -3.04269 3.01858 0
M  V30 6236 H 595.564 -2.94544 3.99447 0
M  V30 6237 H 590.82 -2.85783 5.40498 0
M  V30 6238 H 594.994 -2.77192 6.38856 0
M  V30 6239 H 592.621 -2.72329 7.09747 0
M  V30 6240 N 594.196 -1.08629 -1.14182 0
M  V30 6241 C 595.106 -0.730126 -2.22949 0
M  V30 6242 C 596.122 0.26436 -1.7198 0
M  V30 6243 O 597.298 0.107742 -2.01112 0
M  V30 6244 C 594.363 -0.147227 -3.46387 0
M  V30 6245 C 593.424 -1.19662 -4.12286 0
M  V30 6246 C 592.657 -0.641437 -5.29831 0
M  V30 6247 O 592.88 0.538351 -5.67854 0
M  V30 6248 O 591.814 -1.39257 -5.85569 0
M  V30 6249 H 595.64 -1.63753 -2.55771 0
M  V30 6250 H 593.225 -0.860118 -1.22157 0
M  V30 6251 H 595.107 0.174923 -4.21037 0
M  V30 6252 H 593.782 0.733304 -3.15285 0
M  V30 6253 H 592.689 -1.57133 -3.395 0
M  V30 6254 H 594.022 -2.0495 -4.475 0
M  V30 6255 N 595.674 1.31259 -0.872281 0
M  V30 6256 C 596.902 2.00795 -0.498907 0
M  V30 6257 C 597.317 1.65464 0.909238 0
M  V30 6258 O 596.674 0.885073 1.59602 0
M  V30 6259 C 596.725 3.55625 -0.649092 0
M  V30 6260 O 596.446 3.89692 -2.00179 0
M  V30 6261 C 597.947 4.42434 -0.277034 0
M  V30 6262 H 595.167 0.642299 -0.194145 0
M  V30 6263 H 597.711 1.67438 -1.17408 0
M  V30 6264 H 595.866 3.87394 -0.0214402 0
M  V30 6265 H 596.28 4.84407 -2.01122 0
M  V30 6266 H 597.754 5.50299 -0.433064 0
M  V30 6267 H 598.231 4.32146 0.783989 0
M  V30 6268 H 598.837 4.16086 -0.880483 0
M  V30 6269 N 597.152 0.631951 1.44375 0
M  V30 6270 C 598.38 0.143867 2.06399 0
M  V30 6271 C 598.795 -1.18188 1.47231 0
M  V30 6272 O 598.152 -1.72511 0.595498 0
M  V30 6273 C 598.203 0.0238253 3.61492 0
M  V30 6274 O 597.924 1.29715 4.18456 0
M  V30 6275 C 599.425 -0.492856 4.40552 0
M  V30 6276 H 596.645 0.0800542 0.666207 0
M  V30 6277 H 599.189 0.866586 1.85231 0
M  V30 6278 H 597.344 -0.649338 3.81919 0
M  V30 6279 H 597.758 1.14252 5.11905 0
M  V30 6280 H 599.232 -0.525861 5.49489 0
M  V30 6281 H 599.709 -1.52006 4.12057 0
M  V30 6282 H 600.315 0.147085 4.25046 0
M  V30 6283 N 598.631 -1.53133 0.372548 0
M  V30 6284 C 599.564 -2.22328 -0.514361 0
M  V30 6285 C 600.542 -1.21776 -1.07747 0
M  V30 6286 O 601.726 -1.50704 -1.13228 0
M  V30 6287 C 598.853 -2.92343 -1.71035 0
M  V30 6288 C 597.899 -4.07026 -1.27405 0
M  V30 6289 S 598.732 -5.34821 -0.269526 0
M  V30 6290 C 599.888 -6.08352 -1.47168 0
M  V30 6291 H 600.121 -2.9721 0.0732683 0
M  V30 6292 H 597.654 -1.53603 0.156673 0
M  V30 6293 H 599.612 -3.33296 -2.39634 0
M  V30 6294 H 598.273 -2.17173 -2.26925 0
M  V30 6295 H 597.466 -4.55056 -2.16656 0
M  V30 6296 H 597.068 -3.68001 -0.66719 0
M  V30 6297 H 599.36 -6.33507 -2.40157 0
M  V30 6298 H 600.303 -7.0053 -1.03263 0
M  V30 6299 H 600.711 -5.38893 -1.6809 0
M  V30 6300 N 600.109 -0.101901 -1.5727 0
M  V30 6301 C 601.525 0.254739 -1.57554 0
M  V30 6302 C 601.725 1.67937 -1.11352 0
M  V30 6303 O 600.781 2.39722 -0.793081 0
M  V30 6304 C 602.094 0.036975 -3.00677 0
M  V30 6305 C 603.642 0.104199 -3.12827 0
M  V30 6306 C 604.117 -0.0856565 -4.5792 0
M  V30 6307 N 605.608 -0.0310498 -4.6319 0
M  V30 6308 C 606.343 -0.153099 -5.73196 0
M  V30 6309 N 605.839 -0.330364 -6.92012 0
M  V30 6310 N 607.632 -0.0938854 -5.62022 0
M  V30 6311 H 599.783 -1.03263 -1.85609 0
M  V30 6312 H 602.046 -0.405251 -0.857016 0
M  V30 6313 H 601.752 -0.947254 -3.38703 0
M  V30 6314 H 601.626 0.776335 -3.69124 0
M  V30 6315 H 604.013 1.07894 -2.74669 0
M  V30 6316 H 604.094 -0.666762 -2.46957 0
M  V30 6317 H 603.738 -1.05729 -4.96773 0
M  V30 6318 H 603.668 0.705082 -5.21858 0
M  V30 6319 H 606.159 0.103141 -3.77759 0
M  V30 6320 H 606.472 -0.41482 -7.71686 0
M  V30 6321 H 604.817 -0.366119 -6.94035 0
M  V30 6322 H 608.008 0.0435168 -4.6808 0
M  V30 6323 H 608.181 -0.19245 -6.47714 0
M  V30 6324 N 601.587 1.56661 0.17182 0
M  V30 6325 C 602.835 1.81606 0.886774 0
M  V30 6326 C 603.156 0.678818 1.82803 0
M  V30 6327 O 602.426 -0.301354 1.93568 0
M  V30 6328 H 601.006 0.669934 0.330451 0
M  V30 6329 H 603.668 1.94142 0.171757 0
M  V30 6330 H 602.764 2.75634 1.46398 0
M  V30 6331 N 603.065 -0.440357 1.51323 0
M  V30 6332 C 604.028 -1.51679 1.71832 0
M  V30 6333 C 605.028 -1.49648 0.588386 0
M  V30 6334 O 606.218 -1.51724 0.855891 0
M  V30 6335 C 603.35 -2.91228 1.77199 0
M  V30 6336 H 604.543 -1.34799 2.67898 0
M  V30 6337 H 602.096 -0.66883 1.41267 0
M  V30 6338 H 602.831 -3.13516 0.829363 0
M  V30 6339 H 602.616 -2.94107 2.59314 0
M  V30 6340 H 604.106 -3.69321 1.94915 0
M  V30 6341 N 604.543 -1.41418 -0.695603 0
M  V30 6342 C 605.49 -1.43264 -1.80954 0
M  V30 6343 C 606.46 -0.287016 -1.63601 0
M  V30 6344 O 607.645 -0.488054 -1.84452 0
M  V30 6345 C 604.785 -1.32054 -3.18835 0
M  V30 6346 C 603.898 -2.56485 -3.4762 0
M  V30 6347 C 603.033 -2.3757 -4.75115 0
M  V30 6348 C 602.072 -3.57477 -4.96867 0
M  V30 6349 N 601.209 -3.37632 -6.15588 0
M  V30 6350 H 606.049 -2.38467 -1.78711 0
M  V30 6351 H 603.586 -1.18415 -0.872715 0
M  V30 6352 H 605.544 -1.23558 -3.98484 0
M  V30 6353 H 604.174 -0.404592 -3.20254 0
M  V30 6354 H 603.226 -2.75432 -2.62376 0
M  V30 6355 H 604.538 -3.45678 -3.59594 0
M  V30 6356 H 603.692 -2.2654 -5.62818 0
M  V30 6357 H 602.431 -1.45834 -4.65386 0
M  V30 6358 H 601.436 -3.68961 -4.07612 0
M  V30 6359 H 602.661 -4.50167 -5.08455 0
M  V30 6360 H 600.607 -2.48596 -6.07072 0
M  V30 6361 H 600.524 -4.20401 -6.2833 0
M  V30 6362 H 601.792 -3.30375 -7.06026 0
M  V30 6363 N 606.021 0.929856 -1.27246 0
M  V30 6364 C 607.437 1.20542 -1.04603 0
M  V30 6365 C 607.637 2.00276 0.221754 0
M  V30 6366 O 606.693 2.34835 0.927833 0
M  V30 6367 C 608.006 1.95566 -2.28417 0
M  V30 6368 C 609.554 2.08513 -2.33433 0
M  V30 6369 C 610.029 2.86943 -3.5697 0
M  V30 6370 N 611.52 2.94512 -3.57515 0
M  V30 6371 C 612.255 3.55656 -4.49774 0
M  V30 6372 N 611.751 4.18209 -5.52334 0
M  V30 6373 N 613.544 3.53038 -4.37402 0
M  V30 6374 H 605.695 0.397113 -2.08655 0
M  V30 6375 H 607.958 0.238277 -0.917566 0
M  V30 6376 H 607.664 1.44395 -3.20691 0
M  V30 6377 H 607.538 2.9619 -2.33563 0
M  V30 6378 H 609.925 2.58872 -1.41666 0
M  V30 6379 H 610.006 1.07117 -2.32292 0
M  V30 6380 H 609.65 2.37268 -4.49072 0
M  V30 6381 H 609.58 3.8862 -3.55362 0
M  V30 6382 H 612.071 2.50053 -2.83341 0
M  V30 6383 H 612.384 4.62796 -6.18902 0
M  V30 6384 H 610.729 4.16761 -5.56179 0
M  V30 6385 H 613.92 3.0337 -3.56489 0
M  V30 6386 H 614.093 4.004 -5.09493 0
M  V30 6387 N 607.499 1.09233 1.13605 0
M  V30 6388 C 608.432 0.6739 2.18023 0
M  V30 6389 C 609.41 -0.318603 1.59448 0
M  V30 6390 O 610.594 -0.220452 1.87206 0
M  V30 6391 C 607.721 -0.00751458 3.38699 0
M  V30 6392 C 606.767 0.946481 4.15865 0
M  V30 6393 S 607.6 2.45753 4.75779 0
M  V30 6394 C 608.756 1.78846 5.99804 0
M  V30 6395 H 608.989 1.55846 2.53178 0
M  V30 6396 H 606.522 0.908118 1.2487 0
M  V30 6397 H 608.48 -0.394368 4.08601 0
M  V30 6398 H 607.141 -0.868693 3.01849 0
M  V30 6399 H 606.334 0.416742 5.02274 0
M  V30 6400 H 605.936 1.27464 3.51609 0
M  V30 6401 H 608.228 1.11135 6.68323 0
M  V30 6402 H 609.171 2.63163 6.57382 0
M  V30 6403 H 609.579 1.25823 5.50299 0
M  V30 6404 N 608.977 -1.30795 0.87923 0
M  V30 6405 C 609.94 -2.26563 0.346676 0
M  V30 6406 C 610.94 -1.52578 -0.507597 0
M  V30 6407 O 612.13 -1.71318 -0.315575 0
M  V30 6408 C 609.262 -3.37115 -0.506611 0
M  V30 6409 H 610.455 -2.75183 1.19223 0
M  V30 6410 H 608.008 -1.41886 0.655598 0
M  V30 6411 H 608.743 -2.93802 -1.37299 0
M  V30 6412 H 608.528 -3.91959 0.105218 0
M  V30 6413 H 610.018 -4.08412 -0.871192 0
M  V30 6414 N 610.455 -0.639598 -1.44038 0
M  V30 6415 C 611.704 -0.144885 -2.01179 0
M  V30 6416 C 612.017 1.24372 -1.50967 0
M  V30 6417 O 613.223 1.83291 -2.00292 0
M  V30 6418 C 611.679 -0.208244 -3.59297 0
M  V30 6419 C 611.287 -1.59869 -4.18504 0
M  V30 6420 C 613.031 0.229568 -4.23879 0
M  V30 6421 C 610.938 -1.61671 -5.68873 0
M  V30 6422 H 609.868 -0.0504005 -0.752314 0
M  V30 6423 H 612.519 -0.799639 -1.65161 0
M  V30 6424 H 610.901 0.513767 -3.92653 0
M  V30 6425 H 612.075 -2.34496 -3.96671 0
M  V30 6426 H 610.39 -1.98131 -3.66242 0
M  V30 6427 H 612.987 0.235758 -5.3418 0
M  V30 6428 H 613.33 1.25848 -3.96822 0
M  V30 6429 H 613.863 -0.440233 -3.95357 0
M  V30 6430 H 610.602 -2.62427 -6.00677 0
M  V30 6431 H 610.122 -0.913489 -5.92803 0
M  V30 6432 H 611.801 -1.35439 -6.32665 0
M  V30 6433 N 611.933 1.52934 -0.380664 0
M  V30 6434 C 612.863 2.29118 0.450268 0
M  V30 6435 C 613.844 1.32153 1.07096 0
M  V30 6436 O 615.029 1.61038 1.08537 0
M  V30 6437 C 612.159 3.09161 1.58231 0
M  V30 6438 C 611.113 4.13938 1.0881 0
M  V30 6439 C 610.439 4.82153 2.31155 0
M  V30 6440 C 611.739 5.22048 0.162146 0
M  V30 6441 H 613.433 2.98826 -0.185361 0
M  V30 6442 H 610.979 1.43715 -0.0905886 0
M  V30 6443 H 612.932 3.61211 2.17036 0
M  V30 6444 H 611.656 2.3717 2.2454 0
M  V30 6445 H 610.315 3.62855 0.522633 0
M  V30 6446 H 609.963 4.06719 2.95953 0
M  V30 6447 H 609.663 5.52966 1.98752 0
M  V30 6448 H 611.187 5.37004 2.90618 0
M  V30 6449 H 612.601 5.6951 0.658126 0
M  V30 6450 H 610.998 6.00057 -0.0717122 0
M  V30 6451 H 612.068 4.78398 -0.791438 0
M  V30 6452 N 613.412 0.11024 1.57214 0
M  V30 6453 C 614.66 -0.548783 1.94506 0
M  V30 6454 C 614.981 -1.67772 0.99386 0
M  V30 6455 O 614.251 -1.9584 0.0485841 0
M  V30 6456 H 612.831 -0.205715 0.718116 0
M  V30 6457 H 615.493 0.177127 1.94093 0
M  V30 6458 H 614.589 -0.949096 2.97319 0
M  V30 6459 N 614.89 -1.56749 -0.16351 0
M  V30 6460 C 616.167 -1.73321 -0.906599 0
M  V30 6461 C 616.547 -0.673779 -2.00059 0
M  V30 6462 O 615.895 0.310121 -2.26386 0
M  V30 6463 C 616.105 -3.168 -1.46419 0
M  V30 6464 C 617.453 -3.77993 -1.93407 0
M  V30 6465 O 618.477 -3.20127 -1.56196 0
M  V30 6466 O 617.336 -4.79615 -2.61976 0
M  V30 6467 H 614.43 -0.708073 -0.427272 0
M  V30 6468 H 616.976 -1.69029 -0.150727 0
M  V30 6469 H 615.748 -3.85396 -0.677189 0
M  V30 6470 H 615.371 -3.2545 -2.28403 0
M  V30 6471 N 616.368 0.432326 -1.51554 0
M  V30 6472 C 617.596 1.20364 -1.68286 0
M  V30 6473 C 618.011 1.84888 -0.38233 0
M  V30 6474 O 617.368 1.70924 0.639627 0
M  V30 6475 C 617.419 2.28398 -2.80208 0
M  V30 6476 O 617.14 1.66512 -4.05223 0
M  V30 6477 C 618.641 3.18584 -3.08251 0
M  V30 6478 H 615.861 0.36259 -0.564596 0
M  V30 6479 H 618.405 0.511647 -1.97996 0
M  V30 6480 H 616.56 2.93305 -2.53083 0
M  V30 6481 H 616.974 2.37951 -4.67418 0
M  V30 6482 H 618.448 3.90511 -3.90135 0
M  V30 6483 H 618.925 3.79628 -2.2086 0
M  V30 6484 H 619.531 2.59372 -3.37055 0
M  V30 6485 N 617.846 1.41785 0.688094 0
M  V30 6486 C 618.809 1.43936 1.78368 0
M  V30 6487 C 619.809 0.328866 1.57401 0
M  V30 6488 O 620.999 0.589093 1.63937 0
M  V30 6489 C 618.131 1.25804 3.16838 0
M  V30 6490 H 619.324 2.41472 1.77852 0
M  V30 6491 H 616.877 1.28037 0.896448 0
M  V30 6492 H 617.612 0.291386 3.22988 0
M  V30 6493 H 617.397 2.06272 3.33458 0
M  V30 6494 H 618.887 1.30162 3.96797 0
M  V30 6495 N 619.324 -0.923095 1.27737 0
M  V30 6496 C 620.57 -1.67409 1.15524 0
M  V30 6497 C 620.925 -1.90124 -0.295072 0
M  V30 6498 O 620.218 -1.48382 -1.21216 0
M  V30 6499 C 620.412 -3.04125 1.8773 0
M  V30 6500 C 620.241 -2.94752 3.39634 0
M  V30 6501 C 619.011 -2.96783 4.0896 0
M  V30 6502 C 621.209 -2.73524 4.35533 0
M  V30 6503 N 619.191 -2.779 5.47398 0
M  V30 6504 C 620.562 -2.63391 5.61271 0
M  V30 6505 C 622.617 -2.58447 4.2557 0
M  V30 6506 C 621.32 -2.3972 6.78179 0
M  V30 6507 C 623.346 -2.36154 5.42204 0
M  V30 6508 C 622.708 -2.26768 6.669 0
M  V30 6509 H 618.807 -0.619196 0.477619 0
M  V30 6510 H 621.391 -1.09094 1.61266 0
M  V30 6511 H 619.562 -3.60545 1.44436 0
M  V30 6512 H 621.294 -3.6819 1.67982 0
M  V30 6513 H 618.049 -3.07186 3.60463 0
M  V30 6514 H 618.473 -2.71576 6.20141 0
M  V30 6515 H 623.115 -2.6446 3.2988 0
M  V30 6516 H 620.833 -2.32447 7.73947 0
M  V30 6517 H 624.419 -2.25367 5.36378 0
M  V30 6518 H 623.299 -2.09751 7.55628 0
M  V30 6519 N 620.802 -1.09834 -1.13024 0
M  V30 6520 C 622.079 -0.749225 -1.80682 0
M  V30 6521 C 622.459 0.765171 -1.96744 0
M  V30 6522 O 621.807 1.68912 -1.53886 0
M  V30 6523 C 622.017 -1.49311 -3.15448 0
M  V30 6524 C 623.365 -1.66162 -3.90737 0
M  V30 6525 O 624.389 -1.45597 -3.25085 0
M  V30 6526 O 623.248 -2.00211 -5.08505 0
M  V30 6527 H 620.342 -0.269614 -0.781817 0
M  V30 6528 H 622.888 -1.20078 -1.19914 0
M  V30 6529 H 621.66 -2.52407 -2.99009 0
M  V30 6530 H 621.283 -1.034 -3.8392 0
M  V30 6531 N 622.28 1.30327 -0.886154 0
M  V30 6532 C 623.527 1.96097 -0.505192 0
M  V30 6533 C 623.855 1.69952 0.945868 0
M  V30 6534 O 623.11 0.997653 1.68361 0
M  V30 6535 C 623.409 3.49906 -0.728042 0
M  V30 6536 C 623.075 3.96103 -2.15437 0
M  V30 6537 C 621.737 4.08428 -2.5444 0
M  V30 6538 C 624.089 4.20177 -3.08384 0
M  V30 6539 C 621.417 4.42189 -3.85598 0
M  V30 6540 C 623.769 4.55407 -4.39075 0
M  V30 6541 C 622.433 4.65941 -4.7797 0
M  V30 6542 H 621.703 0.71757 -0.184863 0
M  V30 6543 H 624.35 1.55171 -1.12223 0
M  V30 6544 H 622.655 3.9179 -0.027978 0
M  V30 6545 H 624.352 3.98869 -0.412862 0
M  V30 6546 H 620.942 3.87017 -1.84162 0
M  V30 6547 H 625.126 4.10134 -2.7947 0
M  V30 6548 H 620.382 4.48544 -4.15473 0
M  V30 6549 H 624.556 4.72986 -5.11133 0
M  V30 6550 H 622.183 4.91856 -5.79639 0
M  V30 6551 N 623.758 0.647228 1.43697 0
M  V30 6552 C 625.006 0.157876 2.01482 0
M  V30 6553 C 625.327 -1.23039 1.51282 0
M  V30 6554 O 624.597 -1.82071 0.722982 0
M  V30 6555 H 623.177 0.0553745 0.744945 0
M  V30 6556 H 625.839 0.83755 1.75986 0
M  V30 6557 H 624.935 0.137895 3.11795 0
M  V30 6558 N 625.236 -1.5273 0.388769 0
M  V30 6559 C 626.461 -2.0647 -0.19621 0
M  V30 6560 C 626.886 -1.25865 -1.39784 0
M  V30 6561 O 626.244 -0.283562 -1.79069 0
M  V30 6562 C 626.292 -3.56456 -0.5451 0
M  V30 6563 O 625.396 -3.78426 -1.63912 0
M  V30 6564 H 624.737 -0.663599 -0.023067 0
M  V30 6565 H 627.267 -1.96898 0.556084 0
M  V30 6566 H 627.277 -3.99888 -0.809557 0
M  V30 6567 H 625.952 -4.14561 0.333417 0
M  V30 6568 H 624.529 -3.46884 -1.36842 0
M  V30 6569 N 626.714 -0.118576 -1.57153 0
M  V30 6570 C 627.644 0.828436 -2.1831 0
M  V30 6571 C 628.625 1.27758 -1.12303 0
M  V30 6572 O 629.81 1.34026 -1.40537 0
M  V30 6573 C 626.94 2.07876 -2.78217 0
M  V30 6574 C 625.894 1.76742 -3.89803 0
M  V30 6575 C 625.22 3.08801 -4.36516 0
M  V30 6576 C 626.52 1.03606 -5.11921 0
M  V30 6577 H 628.214 0.318824 -2.97698 0
M  V30 6578 H 625.76 0.151911 -1.43196 0
M  V30 6579 H 627.713 2.74584 -3.19659 0
M  V30 6580 H 626.437 2.61161 -1.96118 0
M  V30 6581 H 625.096 1.12424 -3.48936 0
M  V30 6582 H 624.744 3.6002 -3.51276 0
M  V30 6583 H 624.444 2.88743 -5.11763 0
M  V30 6584 H 625.968 3.76627 -4.80608 0
M  V30 6585 H 627.382 1.60467 -5.50385 0
M  V30 6586 H 625.779 0.936454 -5.92748 0
M  V30 6587 H 626.849 0.0227421 -4.84895 0
M  V30 6588 N 628.193 1.56834 0.155195 0
M  V30 6589 C 629.441 1.82536 0.867462 0
M  V30 6590 C 629.762 0.698168 1.82073 0
M  V30 6591 O 629.032 -0.280807 1.93877 0
M  V30 6592 H 627.612 0.673401 0.323327 0
M  V30 6593 H 630.274 1.94313 0.151156 0
M  V30 6594 H 629.37 2.77171 1.43466 0
M  V30 6595 N 629.671 -0.424282 1.51781 0
M  V30 6596 C 630.919 -1.17028 1.64769 0
M  V30 6597 C 631.24 -1.91409 0.372523 0
M  V30 6598 O 630.51 -1.86091 -0.612108 0
M  V30 6599 H 629.09 -0.434992 0.607282 0
M  V30 6600 H 631.752 -0.485169 1.88765 0
M  V30 6601 H 630.848 -1.8927 2.4816 0
M  V30 6602 N 631.149 -1.42148 -0.680565 0
M  V30 6603 C 632.395 -1.42521 -1.44277 0
M  V30 6604 C 632.728 -0.0393718 -1.9416 0
M  V30 6605 O 632.003 0.935425 -1.70529 0
M  V30 6606 C 632.286 -2.44475 -2.64394 0
M  V30 6607 C 632.139 -3.92226 -2.20179 0
M  V30 6608 C 633.458 -2.43491 -3.66606 0
M  V30 6609 H 630.577 -0.518985 -0.523282 0
M  V30 6610 H 633.219 -1.73524 -0.773914 0
M  V30 6611 H 631.369 -2.18168 -3.21458 0
M  V30 6612 H 633.041 -4.29493 -1.68327 0
M  V30 6613 H 631.284 -4.0637 -1.5181 0
M  V30 6614 H 631.955 -4.59133 -3.06433 0
M  V30 6615 H 634.431 -2.66872 -3.19247 0
M  V30 6616 H 633.307 -3.16816 -4.4824 0
M  V30 6617 H 633.568 -1.45881 -4.17338 0
M  V30 6618 N 632.627 0.916307 -1.28225 0
M  V30 6619 C 633.874 1.66518 -1.1523 0
M  V30 6620 C 634.202 1.92178 0.299632 0
M  V30 6621 O 633.457 1.51842 1.2346 0
M  V30 6622 C 633.756 3.03125 -1.8934 0
M  V30 6623 C 633.422 2.97135 -3.39148 0
M  V30 6624 C 632.084 2.95208 -3.80007 0
M  V30 6625 C 634.436 2.87574 -4.34685 0
M  V30 6626 C 631.764 2.81518 -5.14747 0
M  V30 6627 C 634.116 2.75424 -5.69495 0
M  V30 6628 C 632.78 2.71854 -6.09632 0
M  V30 6629 H 632.05 0.609334 -0.421655 0
M  V30 6630 H 634.697 1.06776 -1.58969 0
M  V30 6631 H 633.002 3.66639 -1.38143 0
M  V30 6632 H 634.699 3.59968 -1.76704 0
M  V30 6633 H 631.289 2.99428 -3.06661 0
M  V30 6634 H 635.473 2.88152 -4.04082 0
M  V30 6635 H 630.729 2.77148 -5.44976 0
M  V30 6636 H 634.903 2.66993 -6.43185 0
M  V30 6637 H 632.53 2.61003 -7.1399 0
M  V30 6638 N 634.105 1.10431 1.1244 0
M  V30 6639 C 635.333 0.868872 1.87772 0
M  V30 6640 C 635.748 -0.580645 1.7965 0
M  V30 6641 O 635.105 -1.40031 1.17036 0
M  V30 6642 C 635.156 1.30855 3.36986 0
M  V30 6643 O 634.877 2.70123 3.44914 0
M  V30 6644 C 636.378 1.107 4.29256 0
M  V30 6645 H 633.598 0.311868 0.59412 0
M  V30 6646 H 636.142 1.46897 1.42273 0
M  V30 6647 H 634.297 0.752126 3.80029 0
M  V30 6648 H 634.711 2.88923 4.37748 0
M  V30 6649 H 636.185 1.46378 5.32238 0
M  V30 6650 H 636.662 0.0456228 4.39176 0
M  V30 6651 H 637.268 1.64988 3.91994 0
M  V30 6652 N 635.583 -1.29855 0.893053 0
M  V30 6653 C 636.808 -2.00512 0.530066 0
M  V30 6654 C 637.233 -1.66446 -0.876199 0
M  V30 6655 O 636.591 -0.885446 -1.58207 0
M  V30 6656 C 636.639 -3.53308 0.721505 0
M  V30 6657 O 635.743 -4.11764 -0.228994 0
M  V30 6658 H 635.084 -0.630617 0.207891 0
M  V30 6659 H 637.614 -1.6551 1.20282 0
M  V30 6660 H 637.624 -4.03206 0.623599 0
M  V30 6661 H 636.299 -3.77439 1.74678 0
M  V30 6662 H 634.876 -3.72805 -0.0841034 0
M  V30 6663 N 637.061 -0.65484 -1.43351 0
M  V30 6664 C 638.31 -0.166215 -2.01014 0
M  V30 6665 C 638.623 1.22764 -1.52278 0
M  V30 6666 O 639.829 1.81156 -2.02224 0
M  V30 6667 C 638.285 -0.246341 -3.59056 0
M  V30 6668 C 637.893 -1.64299 -4.16785 0
M  V30 6669 C 639.637 0.184597 -4.24098 0
M  V30 6670 C 637.544 -1.67695 -5.67126 0
M  V30 6671 H 636.474 -0.0583769 -0.751737 0
M  V30 6672 H 639.125 -0.817111 -1.64303 0
M  V30 6673 H 637.507 0.472092 -3.93176 0
M  V30 6674 H 638.681 -2.3869 -3.94162 0
M  V30 6675 H 636.996 -2.02004 -3.6412 0
M  V30 6676 H 639.593 0.179088 -5.344 0
M  V30 6677 H 639.936 1.21632 -3.98135 0
M  V30 6678 H 640.469 -0.482141 -3.94867 0
M  V30 6679 H 637.208 -2.68783 -5.9786 0
M  V30 6680 H 636.728 -0.976313 -5.91801 0
M  V30 6681 H 638.407 -1.42142 -6.31193 0
M  V30 6682 N 638.539 1.52521 -0.396863 0
M  V30 6683 C 639.787 2.01274 0.182536 0
M  V30 6684 C 640.108 1.28485 1.46685 0
M  V30 6685 O 639.378 0.407134 1.91623 0
M  V30 6686 H 637.958 0.743671 0.0704442 0
M  V30 6687 H 640.62 1.87547 -0.530289 0
M  V30 6688 H 639.716 3.09687 0.387385 0
M  V30 6689 N 640.017 0.126909 1.57088 0
M  V30 6690 C 640.964 -0.82036 2.15728 0
M  V30 6691 C 641.934 -1.25811 1.08447 0
M  V30 6692 O 643.119 -1.33422 1.36393 0
M  V30 6693 C 640.259 -2.06199 2.76724 0
M  V30 6694 C 639.372 -1.67188 3.98337 0
M  V30 6695 C 638.507 -2.86378 4.47393 0
M  V30 6696 C 637.546 -2.43644 5.61519 0
M  V30 6697 N 636.683 -3.55775 6.05284 0
M  V30 6698 H 641.523 -0.313472 2.96347 0
M  V30 6699 H 639.06 -0.14303 1.46403 0
M  V30 6700 H 641.018 -2.78959 3.10222 0
M  V30 6701 H 639.648 -2.54333 1.98782 0
M  V30 6702 H 638.7 -0.842714 3.70948 0
M  V30 6703 H 640.012 -1.31789 4.81075 0
M  V30 6704 H 639.166 -3.67353 4.82842 0
M  V30 6705 H 637.905 -3.25009 3.63621 0
M  V30 6706 H 636.91 -1.61104 5.25667 0
M  V30 6707 H 638.135 -2.06122 6.47063 0
M  V30 6708 H 636.081 -3.94065 5.24451 0
M  V30 6709 H 635.998 -3.24325 6.82898 0
M  V30 6710 H 637.266 -4.37166 6.45373 0
M  V30 6711 N 641.495 -1.56914 -0.146875 0
M  V30 6712 C 642.458 -1.97368 -1.16526 0
M  V30 6713 C 643.458 -0.860223 -1.35856 0
M  V30 6714 O 644.648 -1.12684 -1.32846 0
M  V30 6715 C 641.78 -2.28974 -2.52555 0
M  V30 6716 H 642.973 -2.88523 -0.818209 0
M  V30 6717 H 640.526 -1.5135 -0.390221 0
M  V30 6718 H 641.261 -1.40611 -2.92231 0
M  V30 6719 H 641.046 -3.10157 -2.39886 0
M  V30 6720 H 642.536 -2.61109 -3.25902 0
M  V30 6721 N 642.974 0.416227 -1.52004 0
M  V30 6722 C 643.904 1.51365 -1.77795 0
M  V30 6723 C 644.885 1.58059 -0.628601 0
M  V30 6724 O 646.07 1.73447 -0.873478 0
M  V30 6725 C 643.2 2.89256 -1.92219 0
M  V30 6726 C 642.154 2.97415 -3.0778 0
M  V30 6727 C 641.48 4.37492 -3.07417 0
M  V30 6728 C 642.78 2.69551 -4.47369 0
M  V30 6729 H 644.474 1.30033 -2.69688 0
M  V30 6730 H 642.02 0.624112 -1.29772 0
M  V30 6731 H 643.973 3.66008 -2.08845 0
M  V30 6732 H 642.697 3.11866 -0.969917 0
M  V30 6733 H 641.356 2.23107 -2.90893 0
M  V30 6734 H 641.004 4.571 -2.09925 0
M  V30 6735 H 640.704 4.43877 -3.85029 0
M  V30 6736 H 642.228 5.16188 -3.26162 0
M  V30 6737 H 643.642 3.36028 -4.64497 0
M  V30 6738 H 642.039 2.87321 -5.26846 0
M  V30 6739 H 643.109 1.65029 -4.55953 0
M  V30 6740 N 644.452 1.42507 0.673017 0
M  V30 6741 C 645.402 1.4258 1.77919 0
M  V30 6742 C 646.386 0.296885 1.58137 0
M  V30 6743 O 647.578 0.539243 1.68586 0
M  V30 6744 C 644.707 1.33238 3.1639 0
M  V30 6745 C 643.793 2.51081 3.41788 0
M  V30 6746 N 644.184 3.76498 3.37761 0
M  V30 6747 C 642.482 2.4538 3.72431 0
M  V30 6748 C 643.183 4.54784 3.62693 0
M  V30 6749 N 642.159 3.8522 3.83544 0
M  V30 6750 H 645.961 2.37442 1.73201 0
M  V30 6751 H 643.475 1.36881 0.873924 0
M  V30 6752 H 645.472 1.31372 3.9566 0
M  V30 6753 H 644.132 0.393794 3.22303 0
M  V30 6754 H 645.143 4.09068 3.17622 0
M  V30 6755 H 641.82 1.60109 3.85579 0
M  V30 6756 H 643.21 5.63774 3.65525 0
M  V30 6757 N 645.93 -0.909495 1.28709 0
M  V30 6758 C 646.862 -2.01729 1.08804 0
M  V30 6759 C 647.875 -1.62755 0.0384739 0
M  V30 6760 O 649.064 -1.76259 0.281977 0
M  V30 6761 C 646.164 -3.32952 0.63217 0
M  V30 6762 C 645.337 -4.00512 1.75809 0
M  V30 6763 C 644.396 -5.10019 1.29488 0
M  V30 6764 O 643.422 -5.32986 1.99787 0
M  V30 6765 N 644.624 -5.80278 0.1604 0
M  V30 6766 H 647.389 -2.19362 2.04207 0
M  V30 6767 H 644.95 -1.08106 1.20518 0
M  V30 6768 H 646.942 -4.03543 0.305802 0
M  V30 6769 H 645.512 -3.11759 -0.229134 0
M  V30 6770 H 644.732 -3.23413 2.25383 0
M  V30 6771 H 646.02 -4.42395 2.51325 0
M  V30 6772 H 645.418 -5.64094 -0.425937 0
M  V30 6773 H 643.975 -6.51713 -0.106663 0
M  V30 6774 N 647.408 -1.11026 -1.11852 0
M  V30 6775 C 648.654 -0.857729 -1.83768 0
M  V30 6776 C 648.987 0.615143 -1.842 0
M  V30 6777 O 648.262 1.45391 -1.29196 0
M  V30 6778 C 648.545 -1.41453 -3.31154 0
M  V30 6779 C 648.398 -2.95471 -3.39142 0
M  V30 6780 C 649.717 -1.0619 -4.27097 0
M  V30 6781 H 646.836 -0.313044 -0.667212 0
M  V30 6782 H 649.478 -1.37443 -1.31185 0
M  V30 6783 H 647.628 -0.975052 -3.76065 0
M  V30 6784 H 649.3 -3.4799 -3.02821 0
M  V30 6785 H 647.543 -3.31759 -2.79497 0
M  V30 6786 H 648.214 -3.29515 -4.42859 0
M  V30 6787 H 650.69 -1.44122 -3.90344 0
M  V30 6788 H 649.566 -1.47832 -5.28618 0
M  V30 6789 H 649.827 0.0278912 -4.42091 0
M  V30 6790 N 648.886 1.2938 -0.899927 0
M  V30 6791 C 650.133 1.9555 -0.525963 0
M  V30 6792 C 650.461 1.70945 0.927789 0
M  V30 6793 O 649.716 1.01545 1.67293 0
M  V30 6794 C 650.015 3.49114 -0.765113 0
M  V30 6795 C 649.681 3.93796 -2.19626 0
M  V30 6796 C 648.343 4.05707 -2.58758 0
M  V30 6797 C 650.695 4.16883 -3.12823 0
M  V30 6798 C 648.023 4.38074 -3.90267 0
M  V30 6799 C 650.375 4.50725 -4.4388 0
M  V30 6800 C 649.039 4.60845 -4.82885 0
M  V30 6801 H 648.309 0.715569 -0.192463 0
M  V30 6802 H 650.956 1.53972 -1.13863 0
M  V30 6803 H 649.261 3.91738 -0.069531 0
M  V30 6804 H 650.958 3.98409 -0.455144 0
M  V30 6805 H 647.548 3.85042 -1.88256 0
M  V30 6806 H 651.732 4.07147 -2.83804 0
M  V30 6807 H 646.988 4.44112 -4.20207 0
M  V30 6808 H 651.162 4.67538 -5.16121 0
M  V30 6809 H 648.789 4.85681 -5.84823 0
M  V30 6810 N 650.364 0.662433 1.43002 0
M  V30 6811 C 651.612 0.179237 2.01304 0
M  V30 6812 C 651.933 -1.21428 1.52579 0
M  V30 6813 O 651.203 -1.81294 0.742252 0
M  V30 6814 H 649.783 0.0632725 0.744316 0
M  V30 6815 H 652.445 0.856169 1.75088 0
M  V30 6816 H 651.541 0.170957 3.11631 0
M  V30 6817 N 651.842 -1.52309 0.404946 0
M  V30 6818 C 652.805 -2.25491 -0.410651 0
M  V30 6819 C 653.805 -1.27704 -0.977154 0
M  V30 6820 O 654.995 -1.51679 -0.856691 0
M  V30 6821 C 652.127 -3.02197 -1.57765 0
M  V30 6822 H 653.32 -2.99015 0.230277 0
M  V30 6823 H 650.873 -1.55506 0.157377 0
M  V30 6824 H 651.608 -2.33013 -2.25556 0
M  V30 6825 H 651.393 -3.73987 -1.17797 0
M  V30 6826 H 652.883 -3.57719 -2.15469 0
M  V30 6827 N 653.32 -0.135238 -1.57019 0
M  V30 6828 C 654.569 0.518694 -1.94917 0
M  V30 6829 C 654.882 1.66783 -1.0219 0
M  V30 6830 O 656.088 2.38561 -1.29619 0
M  V30 6831 C 654.544 0.974123 -3.46466 0
M  V30 6832 C 654.152 -0.147439 -4.47757 0
M  V30 6833 C 655.896 1.59851 -3.93253 0
M  V30 6834 C 653.803 0.325599 -5.90503 0
M  V30 6835 H 652.733 0.19754 -0.727663 0
M  V30 6836 H 655.384 -0.217698 -1.82204 0
M  V30 6837 H 653.766 1.76542 -3.5447 0
M  V30 6838 H 654.94 -0.924122 -4.51438 0
M  V30 6839 H 653.255 -0.679496 -4.10818 0
M  V30 6840 H 655.852 1.96385 -4.9733 0
M  V30 6841 H 656.195 2.48306 -3.3414 0
M  V30 6842 H 656.728 0.872323 -3.88118 0
M  V30 6843 H 653.467 -0.523295 -6.53408 0
M  V30 6844 H 652.987 1.06841 -5.90208 0
M  V30 6845 H 654.666 0.781498 -6.42263 0
M  V30 6846 N 654.798 1.5699 0.138552 0
M  V30 6847 C 656.028 1.87704 0.863184 0
M  V30 6848 C 656.436 0.722411 1.74865 0
M  V30 6849 O 655.779 -0.316636 1.80951 0
M  V30 6850 C 655.841 3.13219 1.76449 0
M  V30 6851 C 655.505 4.44648 1.05532 0
M  V30 6852 C 656.502 5.18318 0.405252 0
M  V30 6853 C 654.187 4.91367 1.04231 0
M  V30 6854 C 656.181 6.36916 -0.24835 0
M  V30 6855 C 653.868 6.09887 0.384904 0
M  V30 6856 C 654.866 6.82508 -0.259292 0
M  V30 6857 O 654.554 7.98775 -0.906258 0
M  V30 6858 H 654.286 0.626255 0.254521 0
M  V30 6859 H 656.84 2.04966 0.133472 0
M  V30 6860 H 655.07 2.91988 2.53535 0
M  V30 6861 H 656.759 3.30111 2.36181 0
M  V30 6862 H 657.525 4.83289 0.407053 0
M  V30 6863 H 653.404 4.34759 1.53315 0
M  V30 6864 H 656.948 6.93538 -0.751755 0
M  V30 6865 H 652.845 6.44376 0.380799 0
M  V30 6866 H 653.613 8.14494 -0.80877 0
M  V30 6867 N 656.276 -0.40816 1.52223 0
M  V30 6868 C 657.524 -1.15274 1.66001 0
M  V30 6869 C 657.845 -1.91003 0.392803 0
M  V30 6870 O 657.115 -1.8673 -0.592336 0
M  V30 6871 H 655.695 -0.428526 0.611861 0
M  V30 6872 H 658.357 -0.46512 1.89269 0
M  V30 6873 H 657.453 -1.86628 2.50153 0
M  V30 6874 N 657.755 -1.42862 -0.66545 0
M  V30 6875 C 658.718 -1.46756 -1.76055 0
M  V30 6876 C 659.718 -0.353866 -1.56858 0
M  V30 6877 O 660.908 -0.615099 -1.62979 0
M  V30 6878 C 658.04 -1.30829 -3.14796 0
M  V30 6879 H 659.233 -2.44271 -1.73987 0
M  V30 6880 H 656.786 -1.29447 -0.875965 0
M  V30 6881 H 657.521 -0.342733 -3.22484 0
M  V30 6882 H 657.306 -2.11551 -3.30134 0
M  V30 6883 H 658.796 -1.36458 -3.94676 0
M  V30 6884 N 659.233 0.902656 -1.29189 0
M  V30 6885 C 660.196 1.98797 -1.14071 0
M  V30 6886 C 661.196 1.60615 -0.0770549 0
M  V30 6887 O 662.386 1.71165 -0.323753 0
M  V30 6888 C 659.518 3.32688 -0.743739 0
M  V30 6889 H 660.711 2.13637 -2.10473 0
M  V30 6890 H 658.264 1.08678 -1.12334 0
M  V30 6891 H 658.999 3.23549 0.220554 0
M  V30 6892 H 658.784 3.61765 -1.51223 0
M  V30 6893 H 660.274 4.12337 -0.660935 0
M  V30 6894 N 660.711 1.11618 1.11262 0
M  V30 6895 C 661.958 0.86618 1.8304 0
M  V30 6896 C 662.286 -0.608149 1.84748 0
M  V30 6897 O 661.541 -1.46508 1.29745 0
M  V30 6898 C 661.84 1.37529 3.2988 0
M  V30 6899 C 661.506 2.86317 3.4833 0
M  V30 6900 C 660.168 3.26945 3.53073 0
M  V30 6901 C 662.52 3.82136 3.54431 0
M  V30 6902 C 659.848 4.62117 3.61475 0
M  V30 6903 C 662.2 5.17128 3.64365 0
M  V30 6904 C 660.864 5.57312 3.67369 0
M  V30 6905 H 660.134 0.316958 0.66979 0
M  V30 6906 H 662.781 1.3949 1.31205 0
M  V30 6907 H 661.086 0.766842 3.84222 0
M  V30 6908 H 662.783 1.15817 3.83911 0
M  V30 6909 H 659.373 2.53889 3.45309 0
M  V30 6910 H 663.557 3.51847 3.50025 0
M  V30 6911 H 658.813 4.92655 3.62079 0
M  V30 6912 H 662.987 5.91208 3.68029 0
M  V30 6913 H 660.614 6.62045 3.73632 0
M  V30 6914 N 662.189 -1.289 0.906776 0
M  V30 6915 C 663.414 -1.99939 0.551303 0
M  V30 6916 C 663.839 -1.67366 -0.858496 0
M  V30 6917 O 663.197 -0.902176 -1.57259 0
M  V30 6918 C 663.245 -3.52523 0.758937 0
M  V30 6919 O 662.349 -4.11983 -0.185308 0
M  V30 6920 H 661.69 -0.628376 0.214568 0
M  V30 6921 H 664.22 -1.64225 1.2203 0
M  V30 6922 H 664.23 -4.02522 0.666329 0
M  V30 6923 H 662.905 -3.75566 1.78671 0
M  V30 6924 H 661.482 -3.72873 -0.0445577 0
M  V30 6925 N 663.667 -0.670007 -1.42649 0
M  V30 6926 C 664.915 -0.18991 -2.01206 0
M  V30 6927 C 665.236 1.20617 -1.53221 0
M  V30 6928 O 664.506 1.80898 -0.751856 0
M  V30 6929 H 663.086 -0.0672189 -0.743969 0
M  V30 6930 H 665.748 -0.865442 -1.74631 0
M  V30 6931 H 664.844 -0.187481 -3.11536 0
M  V30 6932 N 665.145 1.52092 -0.413018 0
M  V30 6933 C 666.391 2.02154 0.161737 0
M  V30 6934 C 666.724 1.29789 1.44459 0
M  V30 6935 O 665.999 0.405378 1.90229 0
M  V30 6936 C 666.282 3.5781 0.405463 0
M  V30 6937 C 666.135 4.40819 -0.894335 0
M  V30 6938 C 667.454 4.23821 1.18591 0
M  V30 6939 H 664.573 0.734769 0.0573077 0
M  V30 6940 H 667.215 1.81948 -0.547247 0
M  V30 6941 H 665.365 3.75158 1.0094 0
M  V30 6942 H 667.037 4.35175 -1.53039 0
M  V30 6943 H 665.28 4.06877 -1.50444 0
M  V30 6944 H 665.951 5.47819 -0.678144 0
M  V30 6945 H 668.427 4.10596 0.674573 0
M  V30 6946 H 667.303 5.32663 1.3252 0
M  V30 6947 H 667.564 3.83038 2.20758 0
M  V30 6948 N 666.623 0.143563 1.56945 0
M  V30 6949 C 667.848 -0.518701 2.00809 0
M  V30 6950 C 668.273 -1.5785 1.02298 0
M  V30 6951 O 667.631 -1.813 -0.0017839 0
M  V30 6952 C 667.679 -1.09929 3.43436 0
M  V30 6953 O 666.783 -2.21425 3.47915 0
M  V30 6954 H 666.124 -0.127215 0.6517 0
M  V30 6955 H 668.654 0.239283 2.03196 0
M  V30 6956 H 668.664 -1.4288 3.82164 0
M  V30 6957 H 667.339 -0.323162 4.14643 0
M  V30 6958 H 665.916 -1.89728 3.21026 0
M  V30 6959 N 668.101 -1.57061 -0.130224 0
M  V30 6960 C 669.347 -1.85412 -0.836295 0
M  V30 6961 C 669.702 -0.729831 -1.7802 0
M  V30 6962 O 668.995 0.271021 -1.89673 0
M  V30 6963 C 669.189 -3.17878 -1.63365 0
M  V30 6964 C 669.018 -4.43086 -0.768453 0
M  V30 6965 C 667.788 -5.03488 -0.427598 0
M  V30 6966 C 669.986 -5.14219 -0.0911495 0
M  V30 6967 N 667.968 -6.12253 0.449439 0
M  V30 6968 C 669.339 -6.16632 0.645341 0
M  V30 6969 C 671.394 -4.97898 -0.0135625 0
M  V30 6970 C 670.097 -7.0449 1.45212 0
M  V30 6971 C 672.123 -5.86234 0.780001 0
M  V30 6972 C 671.485 -6.88141 1.50472 0
M  V30 6973 H 667.584 -0.728875 -0.283311 0
M  V30 6974 H 670.168 -1.9444 -0.100662 0
M  V30 6975 H 668.339 -3.09967 -2.3404 0
M  V30 6976 H 670.071 -3.34076 -2.28419 0
M  V30 6977 H 666.826 -4.67344 -0.767264 0
M  V30 6978 H 667.25 -6.71263 0.879476 0
M  V30 6979 H 671.892 -4.19082 -0.559511 0
M  V30 6980 H 669.61 -7.82722 2.00926 0
M  V30 6981 H 673.196 -5.75671 0.842246 0
M  V30 6982 H 672.076 -7.55311 2.1089 0
M  V30 6983 N 669.579 0.400081 -1.52437 0
M  V30 6984 C 670.807 1.16768 -1.70801 0
M  V30 6985 C 671.222 1.84036 -0.421462 0
M  V30 6986 O 670.579 1.72242 0.603228 0
M  V30 6987 C 670.63 2.22403 -2.8499 0
M  V30 6988 O 670.351 1.57879 -4.08663 0
M  V30 6989 C 671.852 3.11974 -3.1494 0
M  V30 6990 H 669.072 0.350533 -0.57216 0
M  V30 6991 H 671.616 0.469534 -1.99037 0
M  V30 6992 H 669.771 2.87871 -2.59247 0
M  V30 6993 H 670.185 2.27982 -4.7236 0
M  V30 6994 H 671.659 3.82148 -3.9833 0
M  V30 6995 H 672.136 3.74858 -2.28863 0
M  V30 6996 H 672.742 2.52165 -3.42481 0
M  V30 6997 N 671.057 1.43213 0.657864 0
M  V30 6998 C 671.99 1.42456 1.78273 0
M  V30 6999 C 672.968 0.286598 1.60054 0
M  V30 7000 O 674.152 0.479467 1.823 0
M  V30 7001 C 671.279 1.23169 3.15511 0
M  V30 7002 C 670.325 2.40181 3.52442 0
M  V30 7003 S 671.158 4.02729 3.52944 0
M  V30 7004 C 672.314 3.85816 4.92846 0
M  V30 7005 H 672.547 2.37642 1.78644 0
M  V30 7006 H 670.08 1.30188 0.830084 0
M  V30 7007 H 672.038 1.12728 3.94719 0
M  V30 7008 H 670.699 0.295398 3.12708 0
M  V30 7009 H 669.892 2.22478 4.52239 0
M  V30 7010 H 669.494 2.47224 2.80636 0
M  V30 7011 H 671.786 3.47853 5.81381 0
M  V30 7012 H 672.729 4.85348 5.15599 0
M  V30 7013 H 673.137 3.18361 4.66162 0
M  V30 7014 N 672.536 -0.895792 1.29666 0
M  V30 7015 C 673.483 -2.00035 1.15129 0
M  V30 7016 C 674.453 -1.66043 0.0435819 0
M  V30 7017 O 675.638 -1.89621 0.211811 0
M  V30 7018 C 672.778 -3.34774 0.83787 0
M  V30 7019 C 671.891 -3.81525 2.0264 0
M  V30 7020 C 671.026 -5.04858 1.65201 0
M  V30 7021 C 670.065 -5.43988 2.80612 0
M  V30 7022 N 669.202 -6.58507 2.43544 0
M  V30 7023 H 674.042 -2.11802 2.09628 0
M  V30 7024 H 671.579 -1.03719 1.04311 0
M  V30 7025 H 673.537 -4.12311 0.636824 0
M  V30 7026 H 672.167 -3.22724 -0.0702314 0
M  V30 7027 H 671.219 -2.9999 2.33903 0
M  V30 7028 H 672.531 -4.06472 2.89106 0
M  V30 7029 H 671.685 -5.8999 1.41408 0
M  V30 7030 H 670.424 -4.81759 0.758893 0
M  V30 7031 H 669.429 -4.57388 3.05083 0
M  V30 7032 H 670.654 -5.69066 3.70595 0
M  V30 7033 H 668.6 -6.37004 1.56724 0
M  V30 7034 H 668.517 -6.83269 3.23542 0
M  V30 7035 H 669.785 -7.46897 2.2308 0
M  V30 7036 N 674.014 -1.12206 -1.10668 0
M  V30 7037 C 675.263 -0.870595 -1.81944 0
M  V30 7038 C 675.576 0.605447 -1.85994 0
M  V30 7039 O 676.782 0.973433 -2.53449 0
M  V30 7040 C 675.238 -1.50783 -3.26791 0
M  V30 7041 C 674.846 -3.01849 -3.31046 0
M  V30 7042 C 676.59 -1.33653 -4.02911 0
M  V30 7043 C 674.497 -3.58518 -4.70339 0
M  V30 7044 H 673.427 -0.322043 -0.681765 0
M  V30 7045 H 676.078 -1.34827 -1.24475 0
M  V30 7046 H 674.46 -0.957825 -3.84242 0
M  V30 7047 H 675.634 -3.63321 -2.83433 0
M  V30 7048 H 673.949 -3.18346 -2.68411 0
M  V30 7049 H 676.546 -1.73416 -5.05797 0
M  V30 7050 H 676.889 -0.279949 -4.15358 0
M  V30 7051 H 677.422 -1.85562 -3.51868 0
M  V30 7052 H 674.161 -4.63925 -4.63091 0
M  V30 7053 H 673.681 -3.01819 -5.18329 0
M  V30 7054 H 675.36 -3.57434 -5.39305 0
M  V30 7055 N 675.492 1.28418 -0.913599 0
M  V30 7056 C 676.422 2.29713 -0.418847 0
M  V30 7057 C 677.403 1.62165 0.513469 0
M  V30 7058 O 678.588 1.89576 0.421235 0
M  V30 7059 C 675.718 3.45612 0.342042 0
M  V30 7060 C 674.672 4.25056 -0.501123 0
M  V30 7061 C 673.998 5.3329 0.388097 0
M  V30 7062 C 675.298 4.91814 -1.75831 0
M  V30 7063 H 676.992 2.71346 -1.26538 0
M  V30 7064 H 674.538 1.30446 -0.609903 0
M  V30 7065 H 676.491 4.15562 0.699 0
M  V30 7066 H 675.215 3.02858 1.22248 0
M  V30 7067 H 673.874 3.56833 -0.840598 0
M  V30 7068 H 673.522 4.8678 1.26707 0
M  V30 7069 H 673.222 5.87347 -0.172459 0
M  V30 7070 H 674.746 6.06088 0.74094 0
M  V30 7071 H 676.16 5.54126 -1.47026 0
M  V30 7072 H 674.557 5.55866 -2.26126 0
M  V30 7073 H 675.627 4.16313 -2.4862 0
M  V30 7074 N 676.97 0.677563 1.42291 0
M  V30 7075 C 678.219 0.198173 2.00724 0
M  V30 7076 C 678.532 -1.20325 1.54211 0
M  V30 7077 O 679.738 -1.77916 2.05081 0
M  V30 7078 C 678.194 0.303432 3.58619 0
M  V30 7079 C 677.802 1.70909 4.14119 0
M  V30 7080 C 679.546 -0.117103 4.24338 0
M  V30 7081 C 677.453 1.76696 5.64387 0
M  V30 7082 H 676.383 0.070329 0.750713 0
M  V30 7083 H 679.034 0.843147 1.62982 0
M  V30 7084 H 677.416 -0.409482 3.93877 0
M  V30 7085 H 678.59 2.44931 3.90315 0
M  V30 7086 H 676.905 2.07771 3.6086 0
M  V30 7087 H 679.502 -0.0940471 5.34617 0
M  V30 7088 H 679.845 -1.15283 4.00019 0
M  V30 7089 H 680.378 0.5449 3.9405 0
M  V30 7090 H 677.117 2.7826 5.93508 0
M  V30 7091 H 676.637 1.07034 5.90173 0
M  V30 7092 H 678.316 1.52166 6.28852 0
M  V30 7093 N 678.448 -1.51871 0.421078 0
M  V30 7094 C 679.696 -2.01539 -0.150492 0
M  V30 7095 C 680.017 -1.30803 -1.44623 0
M  V30 7096 O 679.287 -0.437568 -1.90951 0
M  V30 7097 H 677.867 -0.744698 -0.0586041 0
M  V30 7098 H 680.529 -1.8668 0.560059 0
M  V30 7099 H 679.625 -3.10264 -0.338068 0
M  V30 7100 N 679.926 -0.151884 -1.56866 0
M  V30 7101 C 681.172 0.498742 -1.96572 0
M  V30 7102 C 681.505 1.64194 -1.03702 0
M  V30 7103 O 680.78 1.94334 -0.0803432 0
M  V30 7104 C 681.063 1.00027 -3.45929 0
M  V30 7105 C 680.916 -0.141767 -4.49577 0
M  V30 7106 C 682.235 1.88044 -3.97904 0
M  V30 7107 H 679.354 0.17982 -0.714726 0
M  V30 7108 H 681.996 -0.234097 -1.88552 0
M  V30 7109 H 680.146 1.62476 -3.52894 0
M  V30 7110 H 681.818 -0.778269 -4.54687 0
M  V30 7111 H 680.061 -0.80019 -4.26356 0
M  V30 7112 H 680.732 0.250947 -5.51429 0
M  V30 7113 H 683.208 1.35416 -3.93449 0
M  V30 7114 H 682.084 2.20043 -5.02864 0
M  V30 7115 H 682.345 2.81916 -3.40552 0
M  V30 7116 N 681.404 1.57128 0.121893 0
M  V30 7117 C 682.653 1.83888 0.828748 0
M  V30 7118 C 682.966 0.737087 1.81181 0
M  V30 7119 O 684.172 0.891007 2.56463 0
M  V30 7120 C 682.628 3.26014 1.52455 0
M  V30 7121 C 682.236 4.44195 0.58263 0
M  V30 7122 C 683.98 3.62025 2.21671 0
M  V30 7123 C 681.887 5.77349 1.28149 0
M  V30 7124 H 680.817 0.685856 0.313238 0
M  V30 7125 H 683.468 1.83319 0.0814851 0
M  V30 7126 H 681.85 3.21044 2.31834 0
M  V30 7127 H 683.024 4.60457 -0.177729 0
M  V30 7128 H 681.339 4.164 -0.00241228 0
M  V30 7129 H 683.936 4.58776 2.74643 0
M  V30 7130 H 684.279 2.89315 2.99337 0
M  V30 7131 H 684.812 3.68767 1.49184 0
M  V30 7132 H 681.551 6.53221 0.546189 0
M  V30 7133 H 681.071 5.64978 2.01394 0
M  V30 7134 H 682.75 6.21006 1.81549 0
M  V30 7135 N 682.882 -0.391992 1.52647 0
M  V30 7136 C 684.131 -1.13449 1.6677 0
M  V30 7137 C 684.444 -1.91203 0.412399 0
M  V30 7138 O 685.65 -2.68013 0.433707 0
M  V30 7139 C 684.106 -2.06577 2.9471 0
M  V30 7140 C 683.714 -1.3426 4.27409 0
M  V30 7141 C 685.458 -2.80981 3.18198 0
M  V30 7142 C 683.365 -2.26136 5.46458 0
M  V30 7143 H 682.295 -0.427211 0.621295 0
M  V30 7144 H 684.946 -0.397522 1.79142 0
M  V30 7145 H 683.328 -2.83898 2.76076 0
M  V30 7146 H 684.502 -0.621856 4.56585 0
M  V30 7147 H 682.817 -0.718279 4.10158 0
M  V30 7148 H 685.414 -3.49898 4.04321 0
M  V30 7149 H 685.757 -3.44891 2.33144 0
M  V30 7150 H 686.29 -2.10754 3.37383 0
M  V30 7151 H 683.029 -1.66846 6.33911 0
M  V30 7152 H 682.549 -2.96134 5.21598 0
M  V30 7153 H 684.228 -2.86286 5.80215 0
M  V30 7154 N 684.36 -1.4356 -0.65026 0
M  V30 7155 C 685.588 -1.48779 -1.43779 0
M  V30 7156 C 686.003 -0.106593 -1.88499 0
M  V30 7157 O 685.36 0.883766 -1.59674 0
M  V30 7158 C 685.411 -2.43618 -2.67081 0
M  V30 7159 O 685.132 -3.76367 -2.24231 0
M  V30 7160 C 686.633 -2.5811 -3.60409 0
M  V30 7161 H 683.853 -0.50521 -0.441593 0
M  V30 7162 H 686.397 -1.88332 -0.796941 0
M  V30 7163 H 684.552 -2.07253 -3.273 0
M  V30 7164 H 684.966 -4.27394 -3.0403 0
M  V30 7165 H 686.44 -3.28539 -4.43583 0
M  V30 7166 H 686.917 -1.627 -4.07953 0
M  V30 7167 H 687.523 -2.95298 -3.0607 0
M  V30 7168 N 685.838 0.888903 -1.30139 0
M  V30 7169 C 687.084 1.64288 -1.19922 0
M  V30 7170 C 687.439 1.90839 0.244561 0
M  V30 7171 O 686.732 1.51544 1.17239 0
M  V30 7172 C 686.926 2.99041 -1.95728 0
M  V30 7173 C 686.755 2.85644 -3.47329 0
M  V30 7174 C 685.525 2.85836 -4.16685 0
M  V30 7175 C 687.723 2.6188 -4.42632 0
M  V30 7176 N 685.705 2.63289 -5.54574 0
M  V30 7177 C 687.076 2.48418 -5.68057 0
M  V30 7178 C 689.131 2.47073 -4.32272 0
M  V30 7179 C 687.834 2.21655 -6.84296 0
M  V30 7180 C 689.86 2.21695 -5.48275 0
M  V30 7181 C 689.222 2.09007 -6.72678 0
M  V30 7182 H 685.321 0.606315 -0.493868 0
M  V30 7183 H 687.905 1.0478 -1.64102 0
M  V30 7184 H 686.076 3.56589 -1.53945 0
M  V30 7185 H 687.808 3.63607 -1.77685 0
M  V30 7186 H 684.563 2.97521 -3.68481 0
M  V30 7187 H 684.987 2.55039 -6.27124 0
M  V30 7188 H 689.629 2.55621 -3.36776 0
M  V30 7189 H 687.347 2.11845 -7.79838 0
M  V30 7190 H 690.933 2.11067 -5.42164 0
M  V30 7191 H 689.813 1.89643 -7.60924 0
M  V30 7192 N 687.317 1.12792 1.10072 0
M  V30 7193 C 688.566 0.880232 1.81479 0
M  V30 7194 C 688.879 -0.595575 1.86312 0
M  V30 7195 O 690.085 -0.959979 2.53962 0
M  V30 7196 C 688.541 1.52514 3.25987 0
M  V30 7197 C 688.149 3.036 3.29441 0
M  V30 7198 C 689.893 1.35788 4.02196 0
M  V30 7199 C 687.8 3.61007 4.68431 0
M  V30 7200 H 686.73 0.325654 0.680048 0
M  V30 7201 H 689.381 1.35485 1.23758 0
M  V30 7202 H 687.763 0.978188 3.83728 0
M  V30 7203 H 688.937 3.64819 2.81502 0
M  V30 7204 H 687.252 3.19765 2.66719 0
M  V30 7205 H 689.849 1.76096 5.0487 0
M  V30 7206 H 690.192 0.301972 4.15203 0
M  V30 7207 H 690.725 1.87426 3.50879 0
M  V30 7208 H 687.464 4.66375 4.60625 0
M  V30 7209 H 686.984 3.04564 5.16721 0
M  V30 7210 H 688.663 3.60289 5.37402 0
M  V30 7211 N 688.795 -1.27931 0.920396 0
M  V30 7212 C 690.043 -1.94304 0.555906 0
M  V30 7213 C 690.364 -1.72753 -0.904519 0
M  V30 7214 O 689.634 -1.07104 -1.64029 0
M  V30 7215 H 688.214 -0.719001 0.202599 0
M  V30 7216 H 690.876 -1.55785 1.1712 0
M  V30 7217 H 689.972 -3.02806 0.755981 0
M  V30 7218 N 690.273 -0.685099 -1.4193 0
M  V30 7219 C 691.206 0.0371639 -2.2817 0
M  V30 7220 C 692.184 0.798436 -1.41647 0
M  V30 7221 O 693.368 0.791428 -1.71081 0
M  V30 7222 C 690.495 1.05993 -3.21688 0
M  V30 7223 C 689.541 0.393043 -4.24685 0
M  V30 7224 S 690.374 -0.856921 -5.28599 0
M  V30 7225 C 691.53 0.164508 -6.25684 0
M  V30 7226 H 691.763 -0.694305 -2.89079 0
M  V30 7227 H 689.296 -0.474999 -1.46912 0
M  V30 7228 H 691.254 1.64489 -3.76103 0
M  V30 7229 H 689.915 1.7639 -2.59895 0
M  V30 7230 H 689.108 1.16513 -4.90348 0
M  V30 7231 H 688.71 -0.118589 -3.73812 0
M  V30 7232 H 691.002 1.02106 -6.69762 0
M  V30 7233 H 691.945 -0.457917 -7.06618 0
M  V30 7234 H 692.353 0.514596 -5.6215 0
M  V30 7235 N 691.751 1.51645 -0.429126 0
M  V30 7236 C 692.699 2.29119 0.400921 0
M  V30 7237 C 693.693 1.34628 1.02819 0
M  V30 7238 O 694.899 1.52004 0.964098 0
M  V30 7239 H 691.274 0.737273 0.148095 0
M  V30 7240 H 693.245 2.97144 -0.273457 0
M  V30 7241 C 691.994 3.13953 1.49429 0
M  V30 7242 H 691.317 3.86544 1.02097 0
M  V30 7243 H 692.757 3.71232 2.04849 0
M  V30 7244 C 691.216 2.28796 2.47293 0
M  V30 7245 O 691.746 1.94193 3.51642 0
M  V30 7246 N 689.952 1.92177 2.17982 0
M  V30 7247 H 689.499 2.20517 1.33154 0
M  V30 7248 H 689.457 1.35497 2.83704 0
M  V30 7249 N 693.229 0.160201 1.56784 0
M  V30 7250 C 694.454 -0.497373 2.01348 0
M  V30 7251 C 694.879 -1.56757 1.03966 0
M  V30 7252 O 694.237 -1.81292 0.0174455 0
M  V30 7253 C 694.285 -1.0628 3.44582 0
M  V30 7254 O 693.389 -2.17723 3.50244 0
M  V30 7255 H 692.73 -0.120295 0.653012 0
M  V30 7256 H 695.26 0.260821 2.02931 0
M  V30 7257 H 695.27 -1.38819 3.83658 0
M  V30 7258 H 693.945 -0.279166 4.14962 0
M  V30 7259 H 692.522 -1.86313 3.2302 0
M  V30 7260 N 694.707 -1.5719 -0.113559 0
M  V30 7261 C 696.123 -1.52607 -0.467253 0
M  V30 7262 C 696.323 -0.874058 -1.81556 0
M  V30 7263 O 695.379 -0.458703 -2.48299 0
M  V30 7264 C 696.692 -2.97363 -0.446736 0
M  V30 7265 C 698.24 -3.08482 -0.529903 0
M  V30 7266 C 698.715 -4.54809 -0.539721 0
M  V30 7267 N 700.206 -4.59284 -0.601005 0
M  V30 7268 C 700.941 -5.69927 -0.630138 0
M  V30 7269 N 700.437 -6.90051 -0.616589 0
M  V30 7270 N 702.23 -5.5805 -0.673558 0
M  V30 7271 H 694.381 -1.97958 0.769819 0
M  V30 7272 H 696.644 -0.90428 0.284572 0
M  V30 7273 H 696.35 -3.48458 0.47643 0
M  V30 7274 H 696.224 -3.55086 -1.27254 0
M  V30 7275 H 698.611 -2.57386 -1.44349 0
M  V30 7276 H 698.692 -2.53744 0.323695 0
M  V30 7277 H 698.336 -5.06552 0.369843 0
M  V30 7278 H 698.266 -5.07364 -1.41028 0
M  V30 7279 H 700.757 -3.72822 -0.617419 0
M  V30 7280 H 701.07 -7.70132 -0.641592 0
M  V30 7281 H 699.415 -6.92543 -0.583927 0
M  V30 7282 H 702.606 -4.63112 -0.681544 0
M  V30 7283 H 702.779 -6.44286 -0.692794 0
M  V30 7284 N 696.185 0.383891 -1.52853 0
M  V30 7285 C 697.41 1.154 -1.7233 0
M  V30 7286 C 697.835 1.82809 -0.44298 0
M  V30 7287 O 697.193 1.71026 0.601645 0
M  V30 7288 C 697.241 2.17386 -2.87708 0
M  V30 7289 O 696.345 3.24082 -2.55038 0
M  V30 7290 H 695.686 0.335709 -0.572883 0
M  V30 7291 H 698.216 0.44662 -1.99666 0
M  V30 7292 H 698.226 2.61296 -3.1335 0
M  V30 7293 H 696.901 1.6771 -3.80587 0
M  V30 7294 H 695.478 2.85273 -2.40153 0
M  V30 7295 N 697.663 1.43903 0.642637 0
M  V30 7296 C 698.891 1.4954 1.42988 0
M  V30 7297 C 699.306 0.116588 1.8844 0
M  V30 7298 O 698.663 -0.875285 1.60141 0
M  V30 7299 C 698.714 2.45031 2.65785 0
M  V30 7300 O 698.435 3.77551 2.22232 0
M  V30 7301 C 699.936 2.60017 3.59035 0
M  V30 7302 H 697.156 0.507544 0.438907 0
M  V30 7303 H 699.7 1.88752 0.786942 0
M  V30 7304 H 697.855 2.08985 3.26196 0
M  V30 7305 H 698.269 4.29001 3.01759 0
M  V30 7306 H 699.743 3.30887 4.41835 0
M  V30 7307 H 700.22 1.64861 4.07084 0
M  V30 7308 H 700.826 2.96918 3.045 0
M  V30 7309 N 699.141 -0.881989 1.30609 0
M  V30 7310 C 700.366 -1.67236 1.22665 0
M  V30 7311 C 700.791 -1.8696 -0.206777 0
M  V30 7312 O 700.149 -1.4027 -1.14865 0
M  V30 7313 C 700.197 -3.02446 1.96363 0
M  V30 7314 O 699.301 -3.91614 1.29276 0
M  V30 7315 H 698.642 -0.510902 0.424117 0
M  V30 7316 H 701.172 -1.10055 1.72479 0
M  V30 7317 H 701.182 -3.52468 2.055 0
M  V30 7318 H 699.857 -2.8741 3.00613 0
M  V30 7319 H 698.434 -3.50055 1.28514 0
M  V30 7320 N 700.619 -1.13374 -1.09472 0
M  V30 7321 C 701.549 -0.833268 -2.18126 0
M  V30 7322 C 702.53 0.207169 -1.68834 0
M  V30 7323 O 703.715 0.0662012 -1.94087 0
M  V30 7324 C 700.845 -0.297979 -3.46019 0
M  V30 7325 C 699.799 -1.27261 -4.08642 0
M  V30 7326 C 699.125 -0.597104 -5.31356 0
M  V30 7327 C 700.425 -2.63095 -4.51197 0
M  V30 7328 H 702.119 -1.74182 -2.43518 0
M  V30 7329 H 699.665 -0.838921 -1.17039 0
M  V30 7330 H 701.618 -0.0754444 -4.21332 0
M  V30 7331 H 700.342 0.645959 -3.20148 0
M  V30 7332 H 699.001 -1.48113 -3.35348 0
M  V30 7333 H 698.649 0.352293 -5.01765 0
M  V30 7334 H 698.349 -1.24734 -5.74208 0
M  V30 7335 H 699.873 -0.38384 -6.09392 0
M  V30 7336 H 701.287 -2.46214 -5.17737 0
M  V30 7337 H 699.684 -3.2429 -5.04932 0
M  V30 7338 H 700.754 -3.20793 -3.6362 0
M  V30 7339 N 702.098 1.27442 -0.927168 0
M  V30 7340 C 703.323 1.99036 -0.583042 0
M  V30 7341 C 703.748 1.68711 0.83176 0
M  V30 7342 O 703.106 0.927081 1.55804 0
M  V30 7343 C 703.154 3.51271 -0.814925 0
M  V30 7344 O 702.258 4.12226 0.119742 0
M  V30 7345 H 701.599 0.624883 -0.224538 0
M  V30 7346 H 704.129 1.62263 -1.24628 0
M  V30 7347 H 704.139 4.01411 -0.730282 0
M  V30 7348 H 702.814 3.72676 -1.84623 0
M  V30 7349 H 701.391 3.72897 -0.0147688 0
M  V30 7350 N 703.576 0.692616 1.41565 0
M  V30 7351 C 704.822 0.222664 2.01574 0
M  V30 7352 C 705.155 -1.1737 1.54719 0
M  V30 7353 O 704.43 -1.79161 0.757084 0
M  V30 7354 C 704.713 0.277064 3.59033 0
M  V30 7355 C 704.566 1.71016 4.16021 0
M  V30 7356 C 705.885 -0.36479 4.38586 0
M  V30 7357 H 703.004 0.0823839 0.732381 0
M  V30 7358 H 705.646 0.880778 1.68352 0
M  V30 7359 H 703.796 -0.283288 3.87466 0
M  V30 7360 H 705.468 2.32413 3.98475 0
M  V30 7361 H 703.711 2.24525 3.71175 0
M  V30 7362 H 704.382 1.69978 5.25178 0
M  V30 7363 H 706.858 0.112404 4.15948 0
M  V30 7364 H 705.734 -0.296169 5.481 0
M  V30 7365 H 705.995 -1.44506 4.17816 0
M  V30 7366 N 705.054 -1.51416 0.437162 0
M  V30 7367 C 706.279 -2.0699 -0.130424 0
M  V30 7368 C 706.704 -1.30249 -1.35709 0
M  V30 7369 O 706.062 -0.340388 -1.78076 0
M  V30 7370 C 706.11 -3.5801 -0.43142 0
M  V30 7371 O 705.214 -3.8345 -1.5179 0
M  V30 7372 H 704.555 -0.663997 -0.00194339 0
M  V30 7373 H 707.085 -1.95029 0.618445 0
M  V30 7374 H 707.095 -4.02261 -0.681926 0
M  V30 7375 H 705.77 -4.13291 0.465137 0
M  V30 7376 H 704.347 -3.51062 -1.25737 0
M  V30 7377 N 706.532 -0.168513 -1.56696 0
M  V30 7378 C 707.462 0.758563 -2.20835 0
M  V30 7379 C 708.443 1.24121 -1.1631 0
M  V30 7380 O 709.628 1.29487 -1.4473 0
M  V30 7381 C 706.758 1.9892 -2.8469 0
M  V30 7382 C 705.712 1.64252 -3.95228 0
M  V30 7383 C 705.038 2.94757 -4.46119 0
M  V30 7384 C 706.338 0.872675 -5.14958 0
M  V30 7385 H 708.032 0.223953 -2.98561 0
M  V30 7386 H 705.578 0.106277 -1.43607 0
M  V30 7387 H 707.531 2.64275 -3.28233 0
M  V30 7388 H 706.255 2.5479 -2.04327 0
M  V30 7389 H 704.914 1.01266 -3.52336 0
M  V30 7390 H 704.562 3.48662 -3.62552 0
M  V30 7391 H 704.262 2.72316 -5.2069 0
M  V30 7392 H 705.786 3.61147 -4.92347 0
M  V30 7393 H 707.2 1.42875 -5.55211 0
M  V30 7394 H 705.597 0.747402 -5.95428 0
M  V30 7395 H 706.667 -0.131535 -4.84722 0
M  V30 7396 N 708.01 1.57248 0.105221 0
M  V30 7397 C 709.256 1.85845 0.811753 0
M  V30 7398 C 709.589 0.756219 1.78871 0
M  V30 7399 O 708.864 -0.236736 1.93054 0
M  V30 7400 C 709.147 3.25059 1.54947 0
M  V30 7401 C 709 4.45898 0.591185 0
M  V30 7402 C 710.319 3.6203 2.50245 0
M  V30 7403 H 707.438 0.675973 0.293649 0
M  V30 7404 H 710.08 1.89849 0.0756269 0
M  V30 7405 H 708.23 3.21776 2.17698 0
M  V30 7406 H 709.902 4.61291 -0.0285352 0
M  V30 7407 H 708.145 4.33693 -0.0962343 0
M  V30 7408 H 708.816 5.40009 1.1443 0
M  V30 7409 H 711.292 3.66192 1.97593 0
M  V30 7410 H 710.168 4.60389 2.98886 0
M  V30 7411 H 710.429 2.90176 3.33542 0
M  V30 7412 N 709.488 -0.375779 1.53054 0
M  V30 7413 C 710.418 -1.46598 1.81745 0
M  V30 7414 C 711.399 -1.56337 0.670286 0
M  V30 7415 O 712.584 -1.71071 0.919158 0
M  V30 7416 C 709.714 -2.84058 1.99821 0
M  V30 7417 C 708.668 -2.8915 3.15557 0
M  V30 7418 C 707.994 -4.29187 3.18908 0
M  V30 7419 C 709.294 -2.57595 4.54359 0
M  V30 7420 H 710.988 -1.22837 2.73041 0
M  V30 7421 H 708.534 -0.589485 1.31381 0
M  V30 7422 H 710.487 -3.60342 2.18475 0
M  V30 7423 H 709.211 -3.09184 1.05226 0
M  V30 7424 H 707.87 -2.15316 2.96706 0
M  V30 7425 H 707.518 -4.51374 2.2197 0
M  V30 7426 H 707.218 -4.33512 3.96662 0
M  V30 7427 H 708.742 -5.07359 3.39734 0
M  V30 7428 H 710.156 -3.23595 4.73243 0
M  V30 7429 H 708.553 -2.73252 5.34279 0
M  V30 7430 H 709.623 -1.52882 4.60169 0
M  V30 7431 N 710.966 -1.44241 -0.634997 0
M  V30 7432 C 712.212 -1.47038 -1.39669 0
M  V30 7433 C 712.545 -0.101122 -1.93937 0
M  V30 7434 O 711.82 0.880699 -1.73418 0
M  V30 7435 C 712.103 -2.52763 -2.56482 0
M  V30 7436 C 711.956 -3.99032 -2.07589 0
M  V30 7437 C 713.275 -2.55031 -3.58674 0
M  V30 7438 H 710.394 -0.53537 -0.506506 0
M  V30 7439 H 713.036 -1.75898 -0.718317 0
M  V30 7440 H 711.186 -2.28284 -3.14354 0
M  V30 7441 H 712.858 -4.3463 -1.54577 0
M  V30 7442 H 711.101 -4.10994 -1.38804 0
M  V30 7443 H 711.772 -4.68649 -2.91671 0
M  V30 7444 H 714.248 -2.76893 -3.10595 0
M  V30 7445 H 713.124 -3.30916 -4.37934 0
M  V30 7446 H 713.385 -1.59085 -4.12486 0
M  V30 7447 N 712.444 0.87505 -1.31075 0
M  V30 7448 C 713.692 1.62447 -1.20231 0
M  V30 7449 C 714.013 1.93506 0.240888 0
M  V30 7450 O 713.283 1.57847 1.16022 0
M  V30 7451 H 711.863 0.602207 -0.441991 0
M  V30 7452 H 714.525 1.04788 -1.64334 0
M  V30 7453 H 713.621 2.57031 -1.77036 0
M  V30 7454 N 713.922 1.13953 1.08869 0
M  V30 7455 C 715.171 0.899431 1.80536 0
M  V30 7456 C 715.484 -0.575781 1.86933 0
M  V30 7457 O 716.69 -0.932988 2.54966 0
M  V30 7458 C 715.146 1.55963 3.24351 0
M  V30 7459 C 714.754 3.07077 3.26202 0
M  V30 7460 C 716.498 1.40046 4.00733 0
M  V30 7461 C 714.405 3.65955 4.64576 0
M  V30 7462 H 713.335 0.332849 0.676556 0
M  V30 7463 H 715.986 1.3679 1.22314 0
M  V30 7464 H 714.368 1.01883 3.82669 0
M  V30 7465 H 715.542 3.67785 2.77617 0
M  V30 7466 H 713.857 3.22576 2.63312 0
M  V30 7467 H 716.454 1.81441 5.02974 0
M  V30 7468 H 716.797 0.345993 4.1486 0
M  V30 7469 H 717.33 1.91137 3.48872 0
M  V30 7470 H 714.069 4.71234 4.55652 0
M  V30 7471 H 713.589 3.10027 5.13462 0
M  V30 7472 H 715.268 3.65968 5.33551 0
M  V30 7473 N 715.4 -1.26948 0.933913 0
M  V30 7474 C 716.646 -1.94374 0.57848 0
M  V30 7475 C 716.979 -1.73166 -0.879048 0
M  V30 7476 O 716.254 -1.06438 -1.62792 0
M  V30 7477 C 716.537 -3.4834 0.912739 0
M  V30 7478 C 716.39 -3.78866 2.42448 0
M  V30 7479 C 717.709 -4.38062 0.423003 0
M  V30 7480 H 714.828 -0.705959 0.211639 0
M  V30 7481 H 717.47 -1.49951 1.16682 0
M  V30 7482 H 715.62 -3.86309 0.412058 0
M  V30 7483 H 717.292 -3.50654 2.99733 0
M  V30 7484 H 715.535 -3.25198 2.87104 0
M  V30 7485 H 716.206 -4.86458 2.60887 0
M  V30 7486 H 718.682 -4.0728 0.852191 0
M  V30 7487 H 717.558 -5.44599 0.685776 0
M  V30 7488 H 717.819 -4.36886 -0.676994 0
M  V30 7489 N 716.879 -0.700114 -1.41195 0
M  V30 7490 C 718.107 -0.242179 -2.05478 0
M  V30 7491 C 718.522 1.11029 -1.52702 0
M  V30 7492 O 717.879 1.69473 -0.677127 0
M  V30 7493 C 717.93 -0.196271 -3.60967 0
M  V30 7494 O 717.651 -1.49532 -4.11791 0
M  V30 7495 C 719.152 0.282102 -4.42401 0
M  V30 7496 H 716.372 -0.111749 -0.661629 0
M  V30 7497 H 718.916 -0.953975 -1.80885 0
M  V30 7498 H 717.071 0.46638 -3.84582 0
M  V30 7499 H 717.485 -1.38545 -5.05871 0
M  V30 7500 H 718.959 0.263093 -5.51373 0
M  V30 7501 H 719.436 1.32174 -4.1884 0
M  V30 7502 H 720.042 -0.349712 -4.2386 0
M  V30 7503 N 718.357 1.51182 -0.445186 0
M  V30 7504 C 719.287 2.30821 0.352686 0
M  V30 7505 C 720.268 1.36576 1.01395 0
M  V30 7506 O 721.453 1.65497 1.01609 0
M  V30 7507 C 718.583 3.15593 1.44976 0
M  V30 7508 C 717.537 4.1818 0.911553 0
M  V30 7509 C 716.863 4.91523 2.10497 0
M  V30 7510 C 718.163 5.22266 -0.059418 0
M  V30 7511 H 719.857 2.97771 -0.311936 0
M  V30 7512 H 717.403 1.43201 -0.151461 0
M  V30 7513 H 719.356 3.70091 2.01521 0
M  V30 7514 H 718.08 2.4648 2.14278 0
M  V30 7515 H 716.739 3.64746 0.368264 0
M  V30 7516 H 716.387 4.18906 2.78437 0
M  V30 7517 H 716.087 5.60898 1.7512 0
M  V30 7518 H 717.611 5.48847 2.6758 0
M  V30 7519 H 719.025 5.71789 0.415985 0
M  V30 7520 H 717.422 5.99213 -0.326152 0
M  V30 7521 H 718.492 4.7461 -0.993631 0
M  V30 7522 N 719.835 0.176821 1.56605 0
M  V30 7523 C 721.065 -0.472142 2.01133 0
M  V30 7524 C 721.473 -1.56979 1.05614 0
M  V30 7525 O 720.816 -1.83632 0.0500137 0
M  V30 7526 C 720.878 -1.10547 3.42081 0
M  V30 7527 C 720.542 -0.148806 4.56758 0
M  V30 7528 C 721.539 0.634939 5.16008 0
M  V30 7529 C 719.224 -0.0430325 5.02282 0
M  V30 7530 C 721.218 1.5116 6.19217 0
M  V30 7531 C 718.905 0.83721 6.05338 0
M  V30 7532 C 719.903 1.61311 6.63677 0
M  V30 7533 O 719.591 2.47863 7.64735 0
M  V30 7534 H 719.323 -0.124725 0.664394 0
M  V30 7535 H 721.877 0.277329 2.03519 0
M  V30 7536 H 720.107 -1.90318 3.36625 0
M  V30 7537 H 721.796 -1.6572 3.70529 0
M  V30 7538 H 722.562 0.563424 4.81716 0
M  V30 7539 H 718.441 -0.636753 4.56581 0
M  V30 7540 H 721.985 2.11767 6.64681 0
M  V30 7541 H 717.882 0.909908 6.39055 0
M  V30 7542 H 718.65 2.4144 7.8208 0
M  V30 7543 N 721.313 -1.57302 -0.09688 0
M  V30 7544 C 722.243 -2.0497 -1.11846 0
M  V30 7545 C 723.224 -0.938278 -1.41882 0
M  V30 7546 O 724.409 -1.20943 -1.51942 0
M  V30 7547 C 721.539 -2.47264 -2.43881 0
M  V30 7548 C 720.493 -3.62053 -2.28257 0
M  V30 7549 C 719.819 -3.90318 -3.65453 0
M  V30 7550 C 721.119 -4.93005 -1.72461 0
M  V30 7551 H 722.813 -2.90567 -0.721888 0
M  V30 7552 H 720.359 -1.39786 -0.345803 0
M  V30 7553 H 722.312 -2.7922 -3.15617 0
M  V30 7554 H 721.036 -1.58664 -2.8547 0
M  V30 7555 H 719.695 -3.30341 -1.58967 0
M  V30 7556 H 719.343 -2.98889 -4.04567 0
M  V30 7557 H 719.043 -4.67597 -3.55846 0
M  V30 7558 H 720.567 -4.24747 -4.3866 0
M  V30 7559 H 721.981 -5.23354 -2.34036 0
M  V30 7560 H 720.378 -5.74436 -1.73618 0
M  V30 7561 H 721.448 -4.80053 -0.683898 0
M  V30 7562 N 722.791 0.367657 -1.53252 0
M  V30 7563 C 724.039 1.10832 -1.68999 0
M  V30 7564 C 724.36 1.89894 -0.443306 0
M  V30 7565 O 723.63 1.88235 0.54262 0
M  V30 7566 H 722.21 0.412153 -0.623008 0
M  V30 7567 H 724.872 0.414775 -1.90435 0
M  V30 7568 H 723.968 1.7993 -2.55013 0
M  V30 7569 N 724.269 1.44576 0.627338 0
M  V30 7570 C 725.515 1.47777 1.38888 0
M  V30 7571 C 725.848 0.111406 1.9388 0
M  V30 7572 O 725.123 -0.87149 1.73883 0
M  V30 7573 C 725.406 2.54119 2.55138 0
M  V30 7574 C 725.259 4.00128 2.0547 0
M  V30 7575 C 726.578 2.56929 3.57317 0
M  V30 7576 H 723.697 0.538048 0.50366 0
M  V30 7577 H 726.339 1.76277 0.708978 0
M  V30 7578 H 724.489 2.29948 3.13139 0
M  V30 7579 H 726.161 4.35444 1.5227 0
M  V30 7580 H 724.404 4.11724 1.36623 0
M  V30 7581 H 725.075 4.7019 2.89181 0
M  V30 7582 H 727.551 2.78536 3.09122 0
M  V30 7583 H 726.427 3.33234 4.36173 0
M  V30 7584 H 726.688 1.6127 4.11636 0
M  V30 7585 N 725.747 -0.868086 1.31537 0
M  V30 7586 C 726.68 -1.97871 1.13676 0
M  V30 7587 C 727.658 -1.62551 0.0397589 0
M  V30 7588 O 728.842 -1.87473 0.196539 0
M  V30 7589 C 725.969 -3.30577 0.73734 0
M  V30 7590 C 725.015 -3.8488 1.83765 0
M  V30 7591 S 725.848 -4.10106 3.44345 0
M  V30 7592 C 727.004 -5.45806 3.06344 0
M  V30 7593 H 727.237 -2.12719 2.07697 0
M  V30 7594 H 724.77 -1.01849 1.16044 0
M  V30 7595 H 726.728 -4.07274 0.513641 0
M  V30 7596 H 725.389 -3.13562 -0.183787 0
M  V30 7597 H 724.582 -4.80821 1.51085 0
M  V30 7598 H 724.184 -3.14981 2.01651 0
M  V30 7599 H 726.476 -6.27535 2.55354 0
M  V30 7600 H 727.419 -5.83437 4.01257 0
M  V30 7601 H 727.827 -5.0917 2.43734 0
M  V30 7602 N 727.225 -1.14528 -1.08264 0
M  V30 7603 C 728.471 -0.91576 -1.80947 0
M  V30 7604 C 728.804 0.55623 -1.86064 0
M  V30 7605 O 728.079 1.41207 -1.33756 0
M  V30 7606 C 728.362 -1.51917 -3.26486 0
M  V30 7607 C 728.215 -3.06111 -3.2957 0
M  V30 7608 C 729.534 -1.19724 -4.23502 0
M  V30 7609 H 726.653 -0.334113 -0.656915 0
M  V30 7610 H 729.295 -1.41547 -1.26746 0
M  V30 7611 H 727.445 -1.0942 -3.72773 0
M  V30 7612 H 729.117 -3.57448 -2.91597 0
M  V30 7613 H 727.36 -3.40483 -2.688 0
M  V30 7614 H 728.031 -3.43438 -4.32151 0
M  V30 7615 H 730.507 -1.56467 -3.85561 0
M  V30 7616 H 729.383 -1.64575 -5.23647 0
M  V30 7617 H 729.644 -0.112771 -4.41956 0
M  V30 7618 N 728.703 1.26451 -0.940633 0
M  V30 7619 C 729.635 2.25556 -0.407104 0
M  V30 7620 C 730.648 1.55888 0.469324 0
M  V30 7621 O 731.837 1.76292 0.279858 0
M  V30 7622 C 728.937 3.36109 0.434064 0
M  V30 7623 C 728.11 4.3532 -0.426082 0
M  V30 7624 C 727.169 5.25004 0.354563 0
M  V30 7625 O 726.195 5.68684 -0.242219 0
M  V30 7626 N 727.397 5.5652 1.65123 0
M  V30 7627 H 730.162 2.7197 -1.25907 0
M  V30 7628 H 727.723 1.40212 -0.809456 0
M  V30 7629 H 729.715 3.93059 0.963684 0
M  V30 7630 H 728.285 2.89194 1.18683 0
M  V30 7631 H 727.505 3.77449 -1.13692 0
M  V30 7632 H 728.793 4.986 -1.01366 0
M  V30 7633 H 728.191 5.22912 2.15822 0
M  V30 7634 H 726.748 6.16115 2.12711 0
M  V30 7635 N 730.181 0.707592 1.40822 0
M  V30 7636 C 731.144 0.0587224 2.29125 0
M  V30 7637 C 732.144 -0.695624 1.44975 0
M  V30 7638 O 733.334 -0.528718 1.65983 0
M  V30 7639 C 730.466 -0.926939 3.28056 0
M  V30 7640 H 731.659 0.836349 2.88002 0
M  V30 7641 H 729.212 0.471778 1.4901 0
M  V30 7642 H 729.947 -1.7319 2.74182 0
M  V30 7643 H 729.732 -0.389015 3.90165 0
M  V30 7644 H 731.222 -1.37837 3.94196 0
M  V30 7645 N 731.66 -1.50943 0.453197 0
M  V30 7646 C 732.937 -1.94872 -0.168633 0
M  V30 7647 C 733.317 -1.39272 -1.5864 0
M  V30 7648 O 732.665 -0.586272 -2.20851 0
M  V30 7649 C 732.875 -3.48757 -0.130217 0
M  V30 7650 C 734.223 -4.23331 -0.327975 0
M  V30 7651 O 735.247 -3.55594 -0.207619 0
M  V30 7652 O 734.106 -5.43529 -0.569077 0
M  V30 7653 H 731.2 -0.818042 -0.121394 0
M  V30 7654 H 733.746 -1.61782 0.512316 0
M  V30 7655 H 732.518 -3.81725 0.860346 0
M  V30 7656 H 732.141 -3.88333 -0.853397 0
M  V30 7657 N 733.138 -0.185124 -1.56509 0
M  V30 7658 C 734.363 0.465278 -2.02114 0
M  V30 7659 C 734.788 1.55083 -1.06447 0
M  V30 7660 O 734.146 1.81241 -0.0462852 0
M  V30 7661 C 734.194 1.00784 -3.46229 0
M  V30 7662 O 733.298 2.12123 -3.53663 0
M  V30 7663 H 732.639 0.109891 -0.654843 0
M  V30 7664 H 735.169 -0.293072 -2.0249 0
M  V30 7665 H 735.179 1.32697 -3.85818 0
M  V30 7666 H 733.854 0.213113 -4.15354 0
M  V30 7667 H 732.431 1.8115 -3.25943 0
M  V30 7668 N 734.616 1.57351 0.0885366 0
M  V30 7669 C 735.864 1.86051 0.789262 0
M  V30 7670 C 736.185 0.774763 1.78948 0
M  V30 7671 O 735.455 -0.198324 1.94894 0
M  V30 7672 H 734.035 0.686508 0.294475 0
M  V30 7673 H 736.697 1.94779 0.0686055 0
M  V30 7674 H 735.793 2.83007 1.31581 0
M  V30 7675 N 736.094 -0.359525 1.53444 0
M  V30 7676 C 737.334 -1.11014 1.71625 0
M  V30 7677 C 737.698 -1.86376 0.46132 0
M  V30 7678 O 738.899 -2.63724 0.519908 0
M  V30 7679 C 737.17 -2.03907 2.93524 0
M  V30 7680 S 738.729 -2.86408 3.3244 0
M  V30 7681 H 735.547 -0.375352 0.603847 0
M  V30 7682 H 738.149 -0.390604 1.91558 0
M  V30 7683 H 736.853 -1.47316 3.83048 0
M  V30 7684 H 736.384 -2.80324 2.76011 0
M  V30 7685 H 738.399 -4.06241 2.84926 0
M  V30 7686 N 737.572 -1.44907 -0.619662 0
M  V30 7687 C 738.818 -1.48512 -1.38102 0
M  V30 7688 C 739.151 -0.121686 -1.93818 0
M  V30 7689 O 738.426 0.862256 -1.74343 0
M  V30 7690 C 738.709 -2.55469 -2.53787 0
M  V30 7691 C 738.562 -4.01212 -2.03345 0
M  V30 7692 C 739.881 -2.58821 -3.55949 0
M  V30 7693 H 737 -0.540712 -0.500799 0
M  V30 7694 H 739.642 -1.7665 -0.69962 0
M  V30 7695 H 737.792 -2.31606 -3.11915 0
M  V30 7696 H 739.464 -4.36245 -1.49959 0
M  V30 7697 H 737.707 -4.12443 -1.34438 0
M  V30 7698 H 738.378 -4.71717 -2.86683 0
M  V30 7699 H 740.854 -2.80172 -3.07641 0
M  V30 7700 H 739.73 -3.35542 -4.34399 0
M  V30 7701 H 739.991 -1.63451 -4.10775 0
M  V30 7702 N 739.05 0.861098 -1.31996 0
M  V30 7703 C 740.296 1.61721 -1.22369 0
M  V30 7704 C 740.629 1.93 0.215587 0
M  V30 7705 O 739.904 1.56789 1.15098 0
M  V30 7706 C 740.187 2.9417 -2.07691 0
M  V30 7707 C 740.04 2.69714 -3.59965 0
M  V30 7708 C 741.359 3.95372 -1.93312 0
M  V30 7709 H 738.478 0.586822 -0.44588 0
M  V30 7710 H 741.12 0.994788 -1.61876 0
M  V30 7711 H 739.27 3.47292 -1.74128 0
M  V30 7712 H 740.942 2.23196 -4.03709 0
M  V30 7713 H 739.185 2.03789 -3.82952 0
M  V30 7714 H 739.856 3.63996 -4.14983 0
M  V30 7715 H 742.332 3.51487 -2.22701 0
M  V30 7716 H 741.208 4.85916 -2.55298 0
M  V30 7717 H 741.469 4.32865 -0.898922 0
M  V30 7718 N 740.528 1.15101 1.07655 0
M  V30 7719 C 741.753 0.948177 1.84457 0
M  V30 7720 C 742.178 -0.498432 1.81376 0
M  V30 7721 O 741.536 -1.35509 1.20445 0
M  V30 7722 C 741.584 1.46318 3.29581 0
M  V30 7723 O 740.688 0.660342 4.07079 0
M  V30 7724 H 740.029 0.338428 0.571281 0
M  V30 7725 H 742.559 1.5301 1.35828 0
M  V30 7726 H 742.569 1.47468 3.80417 0
M  V30 7727 H 741.244 2.51635 3.31138 0
M  V30 7728 H 739.821 0.718216 3.65918 0
M  V30 7729 N 742.006 -1.2595 0.947325 0
M  V30 7730 C 743.252 -1.94081 0.608604 0
M  V30 7731 C 743.607 -1.72899 -0.844021 0
M  V30 7732 O 742.9 -1.05908 -1.59669 0
M  V30 7733 C 743.094 -3.46034 0.894158 0
M  V30 7734 C 742.923 -3.81994 2.37299 0
M  V30 7735 C 741.693 -4.04431 3.02925 0
M  V30 7736 C 743.891 -3.90069 3.35188 0
M  V30 7737 N 741.873 -4.27325 4.40757 0
M  V30 7738 C 743.244 -4.17567 4.58299 0
M  V30 7739 C 745.299 -3.72721 3.30127 0
M  V30 7740 C 744.002 -4.2952 5.76979 0
M  V30 7741 C 746.028 -3.8591 4.48138 0
M  V30 7742 C 745.39 -4.13812 5.70034 0
M  V30 7743 H 741.489 -0.73273 0.273187 0
M  V30 7744 H 744.073 -1.51898 1.218 0
M  V30 7745 H 742.244 -3.87131 0.313758 0
M  V30 7746 H 743.976 -4.01396 0.516082 0
M  V30 7747 H 740.731 -4.0003 2.53521 0
M  V30 7748 H 741.155 -4.42792 5.12118 0
M  V30 7749 H 745.797 -3.50172 2.36938 0
M  V30 7750 H 743.515 -4.50888 6.70616 0
M  V30 7751 H 747.101 -3.73882 4.45762 0
M  V30 7752 H 745.981 -4.23791 6.59827 0
M  V30 7753 N 743.484 -0.715051 -1.40445 0
M  V30 7754 C 744.431 -0.0621393 -2.30716 0
M  V30 7755 C 745.401 0.750871 -1.48159 0
M  V30 7756 O 746.586 0.714928 -1.76899 0
M  V30 7757 C 743.726 0.854036 -3.34365 0
M  V30 7758 C 742.839 0.0305565 -4.31989 0
M  V30 7759 C 741.974 0.946162 -5.22706 0
M  V30 7760 C 741.013 0.116741 -6.11989 0
M  V30 7761 N 740.15 0.987194 -6.95125 0
M  V30 7762 H 744.99 -0.83764 -2.85985 0
M  V30 7763 H 742.527 -0.424759 -1.40834 0
M  V30 7764 H 744.485 1.39946 -3.93028 0
M  V30 7765 H 743.115 1.59572 -2.806 0
M  V30 7766 H 742.167 -0.632044 -3.75112 0
M  V30 7767 H 743.479 -0.611615 -4.95036 0
M  V30 7768 H 742.633 1.56014 -5.86297 0
M  V30 7769 H 741.372 1.62216 -4.59932 0
M  V30 7770 H 740.377 -0.510176 -5.47428 0
M  V30 7771 H 741.602 -0.555742 -6.76822 0
M  V30 7772 H 739.548 1.64885 -6.3494 0
M  V30 7773 H 739.465 0.401046 -7.54936 0
M  V30 7774 H 740.733 1.58737 -7.63166 0
M  V30 7775 N 744.962 1.50701 -0.461195 0
M  V30 7776 C 745.91 2.29918 0.352231 0
M  V30 7777 C 746.904 1.36778 0.999403 0
M  V30 7778 O 748.11 1.54015 0.931639 0
M  V30 7779 H 744.485 0.740249 0.132423 0
M  V30 7780 H 746.456 2.96497 -0.336424 0
M  V30 7781 C 745.205 3.17052 1.42736 0
M  V30 7782 H 744.528 3.88623 0.938747 0
M  V30 7783 H 745.968 3.75493 1.96928 0
M  V30 7784 C 744.427 2.3399 2.42384 0
M  V30 7785 O 744.957 2.01608 3.47444 0
M  V30 7786 N 743.163 1.96758 2.13857 0
M  V30 7787 H 742.71 2.23292 1.28447 0
M  V30 7788 H 742.668 1.41484 2.80766 0
M  V30 7789 N 746.441 0.193421 1.56409 0
M  V30 7790 C 747.388 -0.728124 2.19014 0
M  V30 7791 C 748.358 -1.21098 1.13686 0
M  V30 7792 O 749.543 -1.27517 1.4193 0
M  V30 7793 C 746.683 -1.94277 2.8522 0
M  V30 7794 C 745.796 -1.50143 4.05069 0
M  V30 7795 C 744.931 -2.67145 4.59137 0
M  V30 7796 C 743.97 -2.19609 5.71348 0
M  V30 7797 N 743.107 -3.29782 6.19829 0
M  V30 7798 H 747.947 -0.187499 2.9741 0
M  V30 7799 H 745.484 -0.0808064 1.46878 0
M  V30 7800 H 747.442 -2.65551 3.21774 0
M  V30 7801 H 746.072 -2.45673 2.09391 0
M  V30 7802 H 745.124 -0.684624 3.74189 0
M  V30 7803 H 746.436 -1.11266 4.86232 0
M  V30 7804 H 745.59 -3.46544 4.97988 0
M  V30 7805 H 744.329 -3.09295 3.77078 0
M  V30 7806 H 743.334 -1.38664 5.32027 0
M  V30 7807 H 744.559 -1.78492 6.55223 0
M  V30 7808 H 742.505 -3.71466 5.40693 0
M  V30 7809 H 742.422 -2.95069 6.96039 0
M  V30 7810 H 743.69 -4.094 6.63334 0
M  V30 7811 N 747.919 -1.57396 -0.0801906 0
M  V30 7812 C 748.829 -2.06451 -1.11423 0
M  V30 7813 C 749.845 -0.992352 -1.42928 0
M  V30 7814 O 751.021 -1.30651 -1.53272 0
M  V30 7815 C 748.086 -2.49164 -2.41077 0
M  V30 7816 C 747.147 -3.70641 -2.16619 0
M  V30 7817 C 746.38 -4.11307 -3.40092 0
M  V30 7818 O 746.603 -3.51922 -4.48895 0
M  V30 7819 O 745.537 -5.04157 -3.288 0
M  V30 7820 H 749.363 -2.94857 -0.727519 0
M  V30 7821 H 746.948 -1.46484 -0.293743 0
M  V30 7822 H 748.83 -2.77196 -3.17396 0
M  V30 7823 H 747.505 -1.6389 -2.79145 0
M  V30 7824 H 746.412 -3.47703 -1.38033 0
M  V30 7825 H 747.745 -4.5674 -1.83437 0
M  V30 7826 N 749.397 0.351382 -1.53633 0
M  V30 7827 C 750.327 1.43688 -1.84055 0
M  V30 7828 C 751.308 1.55251 -0.695073 0
M  V30 7829 O 752.493 1.69587 -0.946257 0
M  V30 7830 C 749.623 2.80843 -2.04315 0
M  V30 7831 C 748.577 2.84094 -3.20117 0
M  V30 7832 C 747.903 4.2406 -3.25696 0
M  V30 7833 C 749.203 2.50334 -4.58399 0
M  V30 7834 H 750.897 1.18478 -2.74961 0
M  V30 7835 H 748.443 0.568509 -1.32303 0
M  V30 7836 H 750.396 3.56821 -2.2418 0
M  V30 7837 H 749.12 3.07471 -1.10132 0
M  V30 7838 H 747.779 2.10568 -3.00094 0
M  V30 7839 H 747.427 4.47785 -2.29123 0
M  V30 7840 H 747.127 4.27147 -4.03509 0
M  V30 7841 H 748.651 5.0189 -3.47762 0
M  V30 7842 H 750.065 3.16025 -4.78332 0
M  V30 7843 H 748.462 2.64717 -5.38558 0
M  V30 7844 H 749.532 1.45542 -4.62543 0
M  V30 7845 N 750.875 1.45233 0.611969 0
M  V30 7846 C 751.822 1.5357 1.72293 0
M  V30 7847 C 752.792 0.381912 1.6165 0
M  V30 7848 O 753.977 0.594765 1.81293 0
M  V30 7849 C 751.117 1.50419 3.10593 0
M  V30 7850 C 750.23 2.76316 3.32074 0
M  V30 7851 C 749.365 2.64866 4.60456 0
M  V30 7852 C 748.404 3.85838 4.7518 0
M  V30 7853 N 747.541 3.72949 5.94856 0
M  V30 7854 H 752.381 2.4848 1.64504 0
M  V30 7855 H 749.918 1.23302 0.802191 0
M  V30 7856 H 751.876 1.4658 3.90602 0
M  V30 7857 H 750.506 0.590621 3.17351 0
M  V30 7858 H 749.558 2.90261 2.45872 0
M  V30 7859 H 750.87 3.66055 3.38829 0
M  V30 7860 H 750.024 2.58969 5.48653 0
M  V30 7861 H 748.763 1.72719 4.56092 0
M  V30 7862 H 747.768 3.92099 3.85407 0
M  V30 7863 H 748.993 4.79045 4.81344 0
M  V30 7864 H 746.939 2.83567 5.91545 0
M  V30 7865 H 746.856 4.56319 6.02751 0
M  V30 7866 H 748.124 3.70976 6.85563 0
M  V30 7867 N 752.353 -0.854086 1.3245 0
M  V30 7868 C 753.593 -1.62216 1.2436 0
M  V30 7869 C 753.957 -1.91042 -0.191564 0
M  V30 7870 O 755.158 -2.65864 -0.396211 0
M  V30 7871 C 753.429 -2.9066 2.0797 0
M  V30 7872 S 754.988 -3.81438 2.16911 0
M  V30 7873 H 751.806 -0.556386 0.442669 0
M  V30 7874 H 754.408 -1.01139 1.67305 0
M  V30 7875 H 753.112 -2.6743 3.11302 0
M  V30 7876 H 752.643 -3.56753 1.65805 0
M  V30 7877 H 754.658 -4.78347 1.31903 0
M  V30 7878 N 753.831 -1.1567 -1.07043 0
M  V30 7879 C 755.079 -0.931673 -1.79344 0
M  V30 7880 C 755.4 0.542421 -1.87304 0
M  V30 7881 O 754.67 1.39418 -1.37621 0
M  V30 7882 H 753.25 -0.34171 -0.664262 0
M  V30 7883 H 755.912 -1.45795 -1.29344 0
M  V30 7884 H 755.008 -1.34379 -2.81689 0
M  V30 7885 N 755.309 1.25446 -0.953992 0
M  V30 7886 C 756.534 1.97755 -0.625129 0
M  V30 7887 C 756.959 1.70437 0.795787 0
M  V30 7888 O 756.317 0.95992 1.53803 0
M  V30 7889 C 756.365 3.49463 -0.889251 0
M  V30 7890 O 755.469 4.12387 0.0322757 0
M  V30 7891 H 754.81 0.61998 -0.237742 0
M  V30 7892 H 757.34 1.59582 -1.28041 0
M  V30 7893 H 757.35 3.99772 -0.815263 0
M  V30 7894 H 756.025 3.68676 -1.92487 0
M  V30 7895 H 754.602 3.72782 -0.0938625 0
M  V30 7896 N 756.787 0.722489 1.40064 0
M  V30 7897 C 758.035 0.264455 2.00362 0
M  V30 7898 C 758.356 -1.14847 1.57592 0
M  V30 7899 O 757.626 -1.77982 0.818477 0
M  V30 7900 H 756.206 0.0947846 0.740962 0
M  V30 7901 H 758.868 0.929659 1.71299 0
M  V30 7902 H 757.964 0.302977 3.10626 0
M  V30 7903 N 758.265 -1.50454 0.469181 0
M  V30 7904 C 759.514 -2.01507 -0.0881425 0
M  V30 7905 C 759.827 -1.35613 -1.40956 0
M  V30 7906 O 761.033 -1.77812 -2.05171 0
M  V30 7907 C 759.489 -3.59301 -0.207596 0
M  V30 7908 C 759.097 -4.34152 1.10527 0
M  V30 7909 C 760.841 -4.18401 -0.716981 0
M  V30 7910 C 758.748 -5.83725 0.949717 0
M  V30 7911 H 757.678 -0.753106 -0.0367156 0
M  V30 7912 H 760.329 -1.73282 0.603788 0
M  V30 7913 H 758.711 -3.84106 -0.963265 0
M  V30 7914 H 759.885 -4.21073 1.87175 0
M  V30 7915 H 758.2 -3.86652 1.54562 0
M  V30 7916 H 760.797 -5.27895 -0.850363 0
M  V30 7917 H 761.14 -3.79657 -1.70782 0
M  V30 7918 H 761.673 -3.97796 -0.0187511 0
M  V30 7919 H 758.412 -6.26938 1.91387 0
M  V30 7920 H 757.932 -5.99383 0.223591 0
M  V30 7921 H 759.611 -6.44065 0.61557 0
M  V30 7922 N 759.743 -0.201713 -1.56304 0
M  V30 7923 C 760.99 0.435307 -1.97766 0
M  V30 7924 C 761.318 1.61169 -1.0888 0
M  V30 7925 O 760.573 1.95272 -0.12934 0
M  V30 7926 C 760.872 0.931432 -3.45049 0
M  V30 7927 C 760.538 -0.132287 -4.50706 0
M  V30 7928 C 759.2 -0.424552 -4.79323 0
M  V30 7929 C 761.552 -0.852703 -5.14177 0
M  V30 7930 C 758.88 -1.4421 -5.68701 0
M  V30 7931 C 761.232 -1.85944 -6.04655 0
M  V30 7932 C 759.896 -2.15884 -6.31625 0
M  V30 7933 H 759.166 0.15929 -0.723676 0
M  V30 7934 H 761.813 -0.300069 -1.89134 0
M  V30 7935 H 760.118 1.7452 -3.50785 0
M  V30 7936 H 761.815 1.43383 -3.74489 0
M  V30 7937 H 758.405 0.105671 -4.2847 0
M  V30 7938 H 762.589 -0.640139 -4.92154 0
M  V30 7939 H 757.845 -1.6799 -5.87869 0
M  V30 7940 H 762.019 -2.42286 -6.52894 0
M  V30 7941 H 759.646 -2.94875 -7.0068 0
M  V30 7942 N 761.222 1.57436 0.0718424 0
M  V30 7943 C 762.468 1.87525 0.772149 0
M  V30 7944 C 762.801 0.79399 1.77227 0
M  V30 7945 O 762.076 -0.195733 1.93513 0
M  V30 7946 C 762.359 3.28272 1.48018 0
M  V30 7947 C 762.212 4.47052 0.49647 0
M  V30 7948 C 763.531 3.67256 2.42509 0
M  V30 7949 H 760.65 0.682049 0.279245 0
M  V30 7950 H 763.292 1.89967 0.03534 0
M  V30 7951 H 761.442 3.26321 2.10824 0
M  V30 7952 H 763.114 4.61127 -0.126375 0
M  V30 7953 H 761.357 4.33392 -0.188205 0
M  V30 7954 H 762.028 5.42315 1.02949 0
M  V30 7955 H 764.504 3.70301 1.89781 0
M  V30 7956 H 763.38 4.66626 2.89053 0
M  V30 7957 H 763.641 2.97186 3.27312 0
M  V30 7958 N 762.7 -0.34323 1.53817 0
M  V30 7959 C 763.928 -1.10348 1.75017 0
M  V30 7960 C 764.343 -1.82345 0.489475 0
M  V30 7961 O 763.7 -1.74362 -0.538886 0
M  V30 7962 C 763.751 -2.11672 2.93048 0
M  V30 7963 O 763.472 -1.42603 4.14241 0
M  V30 7964 C 764.973 -3.0007 3.26301 0
M  V30 7965 H 762.193 -0.329056 0.584776 0
M  V30 7966 H 764.737 -0.395339 2.00642 0
M  V30 7967 H 762.892 -2.78051 2.69753 0
M  V30 7968 H 763.306 -2.10294 4.80496 0
M  V30 7969 H 764.78 -3.67101 4.12239 0
M  V30 7970 H 765.257 -3.66105 2.42618 0
M  V30 7971 H 765.863 -2.3928 3.51604 0
M  V30 7972 N 764.178 -1.45556 -0.604258 0
M  V30 7973 C 765.455 -1.40221 -1.36373 0
M  V30 7974 C 765.835 -0.0745195 -2.10968 0
M  V30 7975 O 765.183 0.943594 -2.08107 0
M  V30 7976 C 765.393 -2.61807 -2.30777 0
M  V30 7977 C 766.741 -3.07037 -2.93281 0
M  V30 7978 O 767.765 -2.62203 -2.41097 0
M  V30 7979 O 766.624 -3.8485 -3.88011 0
M  V30 7980 H 763.718 -0.556602 -0.611656 0
M  V30 7981 H 766.264 -1.57689 -0.627069 0
M  V30 7982 H 765.036 -3.50017 -1.74939 0
M  V30 7983 H 764.659 -2.46688 -3.11818 0
M  V30 7984 N 765.656 0.84705 -1.32902 0
M  V30 7985 C 766.604 1.97765 -1.22441 0
M  V30 7986 C 767.598 1.68919 -0.127546 0
M  V30 7987 O 768.804 1.77633 -0.290973 0
M  V30 7988 H 765.179 0.649072 -0.379748 0
M  V30 7989 H 767.15 2.03713 -2.18044 0
M  V30 7990 C 765.899 3.33834 -0.972125 0
M  V30 7991 H 765.222 3.56564 -1.80837 0
M  V30 7992 H 766.662 4.13467 -0.939209 0
M  V30 7993 C 765.121 3.35328 0.325059 0
M  V30 7994 O 765.651 3.78887 1.33445 0
M  V30 7995 N 763.857 2.88488 0.349718 0
M  V30 7996 H 763.404 2.53234 -0.472236 0
M  V30 7997 H 763.362 2.8987 1.21748 0
M  V30 7998 N 767.134 1.16236 1.06428 0
M  V30 7999 C 768.38 0.944431 1.79467 0
M  V30 8000 C 768.713 -0.526558 1.86925 0
M  V30 8001 O 767.988 -1.39061 1.35986 0
M  V30 8002 C 768.271 1.57092 3.24028 0
M  V30 8003 C 768.124 3.11315 3.24658 0
M  V30 8004 C 769.443 1.26447 4.21544 0
M  V30 8005 H 766.562 0.344521 0.651517 0
M  V30 8006 H 769.204 1.43545 1.24478 0
M  V30 8007 H 767.354 1.15337 3.70985 0
M  V30 8008 H 769.026 3.62042 2.85873 0
M  V30 8009 H 767.269 3.44716 2.6335 0
M  V30 8010 H 767.94 3.50269 4.26633 0
M  V30 8011 H 770.416 1.62581 3.83023 0
M  V30 8012 H 769.292 1.72885 5.20963 0
M  V30 8013 H 769.553 0.183068 4.41721 0
M  V30 8014 N 768.612 -1.24939 0.960631 0
M  V30 8015 C 769.562 -2.23388 0.456266 0
M  V30 8016 C 770.546 -1.54249 -0.45782 0
M  V30 8017 O 771.738 -1.7461 -0.289894 0
M  V30 8018 C 768.867 -3.42321 -0.259024 0
M  V30 8019 C 767.953 -4.18718 0.673478 0
M  V30 8020 N 768.344 -4.72394 1.8077 0
M  V30 8021 C 766.642 -4.43378 0.482859 0
M  V30 8022 C 767.343 -5.30316 2.3904 0
M  V30 8023 N 766.319 -5.17109 1.67629 0
M  V30 8024 H 770.121 -2.62499 1.32179 0
M  V30 8025 H 767.635 -1.40245 0.818851 0
M  V30 8026 H 769.632 -4.11997 -0.637527 0
M  V30 8027 H 768.292 -3.04732 -1.12108 0
M  V30 8028 H 769.303 -4.69345 2.18942 0
M  V30 8029 H 765.98 -4.16147 -0.335821 0
M  V30 8030 H 767.37 -5.82594 3.34715 0
M  V30 8031 N 770.09 -0.729906 -1.39679 0
M  V30 8032 C 771.318 -0.285709 -2.04918 0
M  V30 8033 C 771.733 1.07765 -1.55023 0
M  V30 8034 O 771.09 1.67999 -0.712923 0
M  V30 8035 C 771.141 -0.272793 -3.60469 0
M  V30 8036 O 770.862 -1.58233 -4.08527 0
M  V30 8037 C 772.363 0.188199 -4.429 0
M  V30 8038 H 769.583 -0.125758 -0.65911 0
M  V30 8039 H 772.127 -0.992129 -1.78821 0
M  V30 8040 H 770.282 0.384699 -3.85485 0
M  V30 8041 H 770.696 -1.49245 -5.02818 0
M  V30 8042 H 772.17 0.14608 -5.51807 0
M  V30 8043 H 772.647 1.2326 -4.21549 0
M  V30 8044 H 773.253 -0.439541 -4.23023 0
M  V30 8045 N 771.568 1.50203 -0.477153 0
M  V30 8046 C 772.814 2.03286 0.0679442 0
M  V30 8047 C 773.169 1.35227 1.36863 0
M  V30 8048 O 772.462 0.471029 1.8572 0
M  V30 8049 C 772.656 3.56127 0.301325 0
M  V30 8050 C 772.485 4.38999 -0.975188 0
M  V30 8051 C 771.255 4.81889 -1.52022 0
M  V30 8052 C 773.453 4.79013 -1.8722 0
M  V30 8053 N 771.435 5.49105 -2.74513 0
M  V30 8054 C 772.806 5.45701 -2.94296 0
M  V30 8055 C 774.861 4.60967 -1.88185 0
M  V30 8056 C 773.564 5.96255 -4.02333 0
M  V30 8057 C 775.59 5.12466 -2.95183 0
M  V30 8058 C 774.952 5.79134 -4.00977 0
M  V30 8059 H 771.051 0.78185 -0.015318 0
M  V30 8060 H 773.635 1.83646 -0.64671 0
M  V30 8061 H 771.806 3.75702 0.985021 0
M  V30 8062 H 773.538 3.95859 0.841304 0
M  V30 8063 H 770.293 4.61387 -1.06858 0
M  V30 8064 H 770.717 5.87315 -3.36734 0
M  V30 8065 H 775.359 4.0885 -1.07708 0
M  V30 8066 H 773.077 6.47406 -4.83623 0
M  V30 8067 H 776.663 5.00329 -2.96921 0
M  V30 8068 H 775.543 6.18265 -4.82409 0
M  V30 8069 N 773.046 0.209999 1.56195 0
M  V30 8070 C 774.274 -0.429996 2.02382 0
M  V30 8071 C 774.689 -1.54159 1.08998 0
M  V30 8072 O 774.046 -1.82239 0.0974856 0
M  V30 8073 C 774.097 -0.972433 3.48175 0
M  V30 8074 O 773.818 0.0948231 4.37997 0
M  V30 8075 C 775.319 -1.68683 4.09952 0
M  V30 8076 H 772.539 -0.106475 0.662498 0
M  V30 8077 H 775.083 0.323072 2.01932 0
M  V30 8078 H 773.238 -1.67582 3.49278 0
M  V30 8079 H 773.652 -0.31113 5.23576 0
M  V30 8080 H 775.126 -2.01851 5.13771 0
M  V30 8081 H 775.603 -2.59587 3.54276 0
M  V30 8082 H 776.209 -1.02893 4.12666 0
M  V30 8083 N 774.524 -1.57472 -0.0634922 0
M  V30 8084 C 775.434 -2.07621 -1.09227 0
M  V30 8085 C 776.45 -1.00746 -1.41867 0
M  V30 8086 O 777.626 -1.32269 -1.51878 0
M  V30 8087 C 774.691 -2.51707 -2.38421 0
M  V30 8088 C 773.752 -3.72917 -2.12676 0
M  V30 8089 C 772.985 -4.14891 -3.3571 0
M  V30 8090 O 773.208 -3.56663 -4.45137 0
M  V30 8091 O 772.142 -5.07616 -3.23434 0
M  V30 8092 H 775.968 -2.95612 -0.696205 0
M  V30 8093 H 773.553 -1.46787 -0.27819 0
M  V30 8094 H 775.435 -2.80547 -3.14438 0
M  V30 8095 H 774.11 -1.66842 -2.77391 0
M  V30 8096 H 773.017 -3.49148 -1.34337 0
M  V30 8097 H 774.35 -4.5866 -1.78583 0
M  V30 8098 N 776.003 0.335068 -1.53997 0
M  V30 8099 C 776.935 1.4327 -1.78903 0
M  V30 8100 C 777.948 1.48347 -0.670598 0
M  V30 8101 O 779.137 1.51277 -0.947494 0
M  V30 8102 C 776.237 2.81878 -1.88144 0
M  V30 8103 C 775.41 3.00141 -3.18174 0
M  V30 8104 C 774.469 4.19041 -3.18263 0
M  V30 8105 O 773.495 4.12751 -3.9195 0
M  V30 8106 N 774.697 5.28004 -2.41231 0
M  V30 8107 H 777.462 1.22272 -2.73623 0
M  V30 8108 H 775.023 0.524996 -1.53152 0
M  V30 8109 H 777.015 3.59609 -1.85644 0
M  V30 8110 H 775.585 2.9598 -1.00572 0
M  V30 8111 H 774.805 2.09808 -3.33728 0
M  V30 8112 H 776.093 3.0923 -4.04047 0
M  V30 8113 H 775.491 5.35986 -1.8093 0
M  V30 8114 H 774.048 6.04196 -2.44521 0
M  V30 8115 N 777.481 1.45874 0.596531 0
M  V30 8116 C 778.711 1.5379 1.37958 0
M  V30 8117 C 779.119 0.173086 1.88407 0
M  V30 8118 O 778.462 -0.837498 1.63498 0
M  V30 8119 C 778.524 2.47044 2.61169 0
M  V30 8120 C 778.188 3.93565 2.32283 0
M  V30 8121 C 779.185 4.83162 1.91965 0
M  V30 8122 C 776.87 4.38579 2.44854 0
M  V30 8123 C 778.864 6.15782 1.64593 0
M  V30 8124 C 776.551 5.71238 2.17095 0
M  V30 8125 C 777.549 6.59659 1.77028 0
M  V30 8126 O 777.237 7.89857 1.49601 0
M  V30 8127 H 776.969 0.523 0.428307 0
M  V30 8128 H 779.523 1.91855 0.733529 0
M  V30 8129 H 777.753 2.0397 3.28532 0
M  V30 8130 H 779.442 2.4552 3.23226 0
M  V30 8131 H 780.208 4.49646 1.8178 0
M  V30 8132 H 776.087 3.6999 2.75006 0
M  V30 8133 H 779.631 6.84757 1.33245 0
M  V30 8134 H 775.528 6.04306 2.26901 0
M  V30 8135 H 776.296 8.01991 1.63561 0
M  V30 8136 N 778.959 -0.83999 1.33349 0
M  V30 8137 C 779.906 -1.94972 1.23509 0
M  V30 8138 C 780.876 -1.65709 0.113967 0
M  V30 8139 O 782.061 -1.88552 0.292045 0
M  V30 8140 C 779.201 -3.30919 0.979105 0
M  V30 8141 C 778.314 -3.72587 2.18639 0
M  V30 8142 C 777.449 -4.97397 1.86465 0
M  V30 8143 C 776.488 -5.31597 3.03432 0
M  V30 8144 N 775.625 -6.47584 2.71254 0
M  V30 8145 H 780.465 -2.0272 2.18423 0
M  V30 8146 H 778.002 -0.992017 1.08616 0
M  V30 8147 H 779.96 -4.09239 0.811126 0
M  V30 8148 H 778.59 -3.22731 0.0667099 0
M  V30 8149 H 777.642 -2.89799 2.46416 0
M  V30 8150 H 778.954 -3.93844 3.06086 0
M  V30 8151 H 778.108 -5.83462 1.66305 0
M  V30 8152 H 776.847 -4.78107 0.96254 0
M  V30 8153 H 775.852 -4.44037 3.24208 0
M  V30 8154 H 777.077 -5.52836 3.94397 0
M  V30 8155 H 775.023 -6.29783 1.836 0
M  V30 8156 H 774.94 -6.68931 3.52231 0
M  V30 8157 H 776.208 -7.36764 2.54558 0
M  V30 8158 N 780.437 -1.16799 -1.0581 0
M  V30 8159 C 781.684 -0.952524 -1.78699 0
M  V30 8160 C 782.012 0.51931 -1.87439 0
M  V30 8161 O 781.267 1.40151 -1.36587 0
M  V30 8162 C 781.566 -1.53111 -3.22942 0
M  V30 8163 C 781.232 -3.0261 -3.34273 0
M  V30 8164 C 779.894 -3.43418 -3.37072 0
M  V30 8165 C 782.246 -3.98611 -3.35795 0
M  V30 8166 C 779.574 -4.78838 -3.39015 0
M  V30 8167 C 781.926 -5.33923 -3.39277 0
M  V30 8168 C 780.59 -5.74205 -3.40361 0
M  V30 8169 H 779.86 -0.348553 -0.653905 0
M  V30 8170 H 782.507 -1.45591 -1.244 0
M  V30 8171 H 780.812 -0.949286 -3.80126 0
M  V30 8172 H 782.509 -1.34002 -3.77948 0
M  V30 8173 H 779.099 -2.70075 -3.32803 0
M  V30 8174 H 783.283 -3.68146 -3.32839 0
M  V30 8175 H 778.539 -5.09369 -3.38161 0
M  V30 8176 H 782.713 -6.08094 -3.39403 0
M  V30 8177 H 780.34 -6.79117 -3.4162 0
M  V30 8178 N 781.915 1.24427 -0.967243 0
M  V30 8179 C 782.847 2.24641 -0.454856 0
M  V30 8180 C 783.86 1.56849 0.436152 0
M  V30 8181 O 785.049 1.76846 0.242401 0
M  V30 8182 C 782.149 3.36954 0.362672 0
M  V30 8183 C 781.322 4.34318 -0.518324 0
M  V30 8184 C 780.381 5.25638 0.243122 0
M  V30 8185 O 779.407 5.68043 -0.362791 0
M  V30 8186 N 780.609 5.59897 1.53282 0
M  V30 8187 H 783.374 2.69238 -1.31648 0
M  V30 8188 H 780.935 1.38464 -0.839015 0
M  V30 8189 H 782.927 3.95014 0.880094 0
M  V30 8190 H 781.497 2.91646 1.12522 0
M  V30 8191 H 780.717 3.74953 -1.21672 0
M  V30 8192 H 782.005 4.96338 -1.11919 0
M  V30 8193 H 781.403 5.27373 2.04682 0
M  V30 8194 H 779.96 6.20488 1.99594 0
M  V30 8195 N 783.393 0.737304 1.3929 0
M  V30 8196 C 784.804 0.355966 1.83275 0
M  V30 8197 C 785.155 -1.11295 1.6158 0
M  V30 8198 O 784.28 -1.85871 1.10819 0
M  V30 8199 C 784.875 0.63931 3.32713 0
M  V30 8200 C 783.434 0.31144 3.75109 0
M  V30 8201 C 782.581 0.900765 2.62262 0
M  V30 8202 H 785.532 0.934763 1.28249 0
M  V30 8203 H 785.553 -0.0881293 3.80398 0
M  V30 8204 H 785.065 1.70847 3.48472 0
M  V30 8205 H 783.166 -0.751791 3.64937 0
M  V30 8206 H 783.279 0.795611 4.72448 0
M  V30 8207 H 781.643 0.327239 2.52589 0
M  V30 8208 H 782.426 1.97463 2.80826 0
M  V30 8209 N 784.871 -1.49948 0.485112 0
M  V30 8210 C 785.781 -2.32587 -0.306697 0
M  V30 8211 C 786.797 -1.43598 -0.982632 0
M  V30 8212 O 787.973 -1.76638 -0.967519 0
M  V30 8213 C 785.038 -3.18638 -1.3664 0
M  V30 8214 C 784.099 -4.23462 -0.705589 0
M  V30 8215 C 783.332 -5.05401 -1.7148 0
M  V30 8216 O 783.555 -4.88618 -2.94293 0
M  V30 8217 O 782.489 -5.88157 -1.27889 0
M  V30 8218 H 786.315 -3.01447 0.369272 0
M  V30 8219 H 783.9 -1.47349 0.246709 0
M  V30 8220 H 785.782 -3.71992 -1.9799 0
M  V30 8221 H 784.457 -2.52491 -2.02559 0
M  V30 8222 H 783.364 -3.74063 -0.0527733 0
M  V30 8223 H 784.697 -4.92119 -0.0891187 0
M  V30 8224 N 786.349 -0.21828 -1.56081 0
M  V30 8225 C 787.574 0.422302 -2.03055 0
M  V30 8226 C 787.999 1.5279 -1.09713 0
M  V30 8227 O 787.357 1.81102 -0.0847187 0
M  V30 8228 C 787.405 0.934177 -3.48289 0
M  V30 8229 O 786.509 2.04574 -3.58083 0
M  V30 8230 H 785.85 0.0959764 -0.657027 0
M  V30 8231 H 788.38 -0.335958 -2.01823 0
M  V30 8232 H 788.39 1.24484 -3.88546 0
M  V30 8233 H 787.065 0.124963 -4.15712 0
M  V30 8234 H 785.642 1.74196 -3.29712 0
M  V30 8235 N 787.827 1.57504 0.0551401 0
M  V30 8236 C 789.238 1.76626 0.604979 0
M  V30 8237 C 789.589 0.845978 1.77024 0
M  V30 8238 O 788.714 0.0341936 2.16373 0
M  V30 8239 C 789.309 3.203 1.10425 0
M  V30 8240 C 787.868 3.4071 1.59981 0
M  V30 8241 C 787.015 2.72258 0.526414 0
M  V30 8242 H 789.966 1.57775 -0.171072 0
M  V30 8243 H 789.987 3.25377 1.97256 0
M  V30 8244 H 789.499 3.87255 0.255939 0
M  V30 8245 H 787.6 2.78892 2.47083 0
M  V30 8246 H 787.713 4.49227 1.66528 0
M  V30 8247 H 786.077 2.35283 0.97539 0
M  V30 8248 H 786.86 3.41879 -0.311991 0
M  V30 8249 N 789.305 -0.326896 1.54172 0
M  V30 8250 C 790.53 -1.08924 1.76494 0
M  V30 8251 C 790.955 -1.81039 0.510523 0
M  V30 8252 O 790.313 -1.73141 -0.537756 0
M  V30 8253 C 790.361 -2.06558 2.95578 0
M  V30 8254 O 789.465 -3.14394 2.6689 0
M  V30 8255 H 788.806 -0.314216 0.584948 0
M  V30 8256 H 791.336 -0.372207 2.01186 0
M  V30 8257 H 791.346 -2.49487 3.22832 0
M  V30 8258 H 790.021 -1.53469 3.86549 0
M  V30 8259 H 788.598 -2.76164 2.50576 0
M  V30 8260 N 790.784 -1.46188 -0.588786 0
M  V30 8261 C 791.731 -1.56292 -1.69828 0
M  V30 8262 C 792.701 -0.407581 -1.61022 0
M  V30 8263 O 793.886 -0.623532 -1.80324 0
M  V30 8264 C 791.026 -1.55341 -3.08161 0
M  V30 8265 C 790.139 -2.81564 -3.27636 0
M  V30 8266 C 789.274 -2.72158 -4.56183 0
M  V30 8267 C 788.313 -3.93348 -4.68981 0
M  V30 8268 N 787.45 -3.82365 -5.88848 0
M  V30 8269 H 792.29 -2.51066 -1.6053 0
M  V30 8270 H 789.827 -1.24562 -0.782474 0
M  V30 8271 H 791.785 -1.52776 -3.88221 0
M  V30 8272 H 790.415 -0.641034 -3.16371 0
M  V30 8273 H 789.467 -2.94136 -2.41223 0
M  V30 8274 H 790.779 -3.714 -3.32962 0
M  V30 8275 H 789.933 -2.67665 -5.44464 0
M  V30 8276 H 788.672 -1.79953 -4.53286 0
M  V30 8277 H 787.677 -3.98181 -3.7912 0
M  V30 8278 H 788.902 -4.86643 -4.73662 0
M  V30 8279 H 786.848 -2.92942 -5.86959 0
M  V30 8280 H 786.765 -4.65851 -5.95415 0
M  V30 8281 H 788.033 -3.81836 -6.79575 0
M  V30 8282 N 792.262 0.832906 -1.33792 0
M  V30 8283 C 793.192 1.95828 -1.27176 0
M  V30 8284 C 794.173 1.69427 -0.15114 0
M  V30 8285 O 795.358 1.91167 -0.341886 0
M  V30 8286 C 792.488 3.32098 -1.01629 0
M  V30 8287 C 791.442 3.72912 -2.10049 0
M  V30 8288 C 790.768 5.07054 -1.69706 0
M  V30 8289 C 792.068 3.86064 -3.51783 0
M  V30 8290 H 793.762 2.01622 -2.21334 0
M  V30 8291 H 791.308 0.96866 -1.0655 0
M  V30 8292 H 793.261 4.10402 -0.956474 0
M  V30 8293 H 791.985 3.26577 -0.0390956 0
M  V30 8294 H 790.644 2.96876 -2.15082 0
M  V30 8295 H 790.292 4.9801 -0.706737 0
M  V30 8296 H 789.992 5.35333 -2.42264 0
M  V30 8297 H 791.516 5.87827 -1.65202 0
M  V30 8298 H 792.93 4.54665 -3.49218 0
M  V30 8299 H 791.327 4.25787 -4.22878 0
M  V30 8300 H 792.397 2.88344 -3.89854 0
M  V30 8301 N 793.74 1.17359 1.05189 0
M  V30 8302 C 794.703 0.892604 2.11105 0
M  V30 8303 C 795.703 -0.117236 1.60372 0
M  V30 8304 O 796.893 0.114936 1.7382 0
M  V30 8305 C 794.025 0.337032 3.3923 0
M  V30 8306 H 795.218 1.83169 2.37464 0
M  V30 8307 H 792.771 0.984051 1.21434 0
M  V30 8308 H 793.506 -0.609198 3.18527 0
M  V30 8309 H 793.291 1.06484 3.77364 0
M  V30 8310 H 794.781 0.158763 4.17298 0
M  V30 8311 N 795.218 -1.23913 0.973828 0
M  V30 8312 C 796.443 -1.96735 0.656511 0
M  V30 8313 C 796.868 -1.71682 -0.768571 0
M  V30 8314 O 796.226 -0.984267 -1.52256 0
M  V30 8315 C 796.274 -3.48004 0.944735 0
M  V30 8316 O 795.378 -4.12387 0.0333357 0
M  V30 8317 H 794.719 -0.616119 0.247575 0
M  V30 8318 H 797.249 -1.57525 1.30564 0
M  V30 8319 H 797.259 -3.98424 0.87876 0
M  V30 8320 H 795.934 -3.65567 1.98328 0
M  V30 8321 H 794.511 -3.72585 0.153157 0
M  V30 8322 N 796.696 -0.74468 -1.38897 0
M  V30 8323 C 797.659 -0.11945 -2.28889 0
M  V30 8324 C 798.659 0.656942 -1.46768 0
M  V30 8325 O 799.849 0.484525 -1.67326 0
M  V30 8326 C 796.981 0.839635 -3.30398 0
M  V30 8327 H 798.174 -0.912414 -2.85683 0
M  V30 8328 H 795.727 -0.511119 -1.47707 0
M  V30 8329 H 796.462 1.6586 -2.78677 0
M  V30 8330 H 796.247 0.285432 -3.9106 0
M  V30 8331 H 797.737 1.27337 -3.97712 0
M  V30 8332 N 798.174 1.49689 -0.493057 0
M  V30 8333 C 799.423 2.01622 0.0560733 0
M  V30 8334 C 799.736 1.37838 1.3878 0
M  V30 8335 O 800.942 1.81054 2.02316 0
M  V30 8336 C 799.398 3.59586 0.150409 0
M  V30 8337 C 799.006 4.32338 -1.1742 0
M  V30 8338 C 800.75 4.19489 0.650327 0
M  V30 8339 C 798.657 5.8214 -1.04246 0
M  V30 8340 H 797.587 0.753594 0.0247297 0
M  V30 8341 H 800.238 1.723 -0.631279 0
M  V30 8342 H 798.62 3.8559 0.902035 0
M  V30 8343 H 799.794 4.18042 -1.9385 0
M  V30 8344 H 798.109 3.84144 -1.60694 0
M  V30 8345 H 800.706 5.29181 0.766272 0
M  V30 8346 H 801.049 3.82326 1.6472 0
M  V30 8347 H 801.582 3.97775 -0.0445371 0
M  V30 8348 H 798.321 6.23814 -2.01336 0
M  V30 8349 H 797.841 5.98952 -0.31892 0
M  V30 8350 H 799.52 6.43004 -0.717957 0
M  V30 8351 N 799.652 0.226554 1.55963 0
M  V30 8352 C 800.584 -0.713907 2.17798 0
M  V30 8353 C 801.597 -1.15387 1.14846 0
M  V30 8354 O 802.786 -1.08416 1.41804 0
M  V30 8355 C 799.886 -1.97945 2.75084 0
M  V30 8356 C 799.059 -1.69424 4.03255 0
M  V30 8357 C 798.118 -2.80734 4.45056 0
M  V30 8358 O 797.144 -2.4899 5.11852 0
M  V30 8359 N 798.346 -4.09797 4.11152 0
M  V30 8360 H 801.111 -0.18494 2.99129 0
M  V30 8361 H 798.672 0.0457346 1.61835 0
M  V30 8362 H 800.664 -2.71611 3.00016 0
M  V30 8363 H 799.234 -2.41876 1.98027 0
M  V30 8364 H 798.454 -0.793767 3.86126 0
M  V30 8365 H 799.742 -1.47806 4.86858 0
M  V30 8366 H 799.14 -4.38429 3.57486 0
M  V30 8367 H 797.697 -4.79992 4.40966 0
M  V30 8368 N 801.13 -1.57531 -0.0467866 0
M  V30 8369 C 802.077 -2.05387 -1.05285 0
M  V30 8370 C 803.047 -0.939385 -1.36985 0
M  V30 8371 O 804.232 -1.20877 -1.47626 0
M  V30 8372 C 801.372 -2.52343 -2.35408 0
M  V30 8373 C 800.485 -3.77512 -2.10022 0
M  V30 8374 C 799.62 -4.1315 -3.33887 0
M  V30 8375 C 798.659 -5.31286 -3.03976 0
M  V30 8376 N 797.796 -5.62441 -4.20243 0
M  V30 8377 H 802.636 -2.91095 -0.637788 0
M  V30 8378 H 800.173 -1.43939 -0.303322 0
M  V30 8379 H 802.131 -2.77628 -3.11413 0
M  V30 8380 H 800.761 -1.69577 -2.7467 0
M  V30 8381 H 799.813 -3.59417 -1.24594 0
M  V30 8382 H 801.125 -4.63644 -1.83945 0
M  V30 8383 H 800.279 -4.39469 -4.18273 0
M  V30 8384 H 799.018 -3.25634 -3.63062 0
M  V30 8385 H 798.023 -5.04738 -2.17991 0
M  V30 8386 H 799.248 -6.20441 -2.76098 0
M  V30 8387 H 797.194 -4.77885 -4.49402 0
M  V30 8388 H 797.111 -6.43046 -3.97528 0
M  V30 8389 H 798.379 -5.93327 -5.05553 0
M  V30 8390 N 802.608 0.318715 -1.54344 0
M  V30 8391 C 803.571 1.37545 -1.83342 0
M  V30 8392 C 804.571 1.445 -0.705444 0
M  V30 8393 O 805.761 1.44443 -0.973752 0
M  V30 8394 C 802.893 2.76225 -1.99781 0
M  V30 8395 H 804.086 1.13084 -2.77762 0
M  V30 8396 H 801.639 0.554457 -1.46135 0
M  V30 8397 H 802.374 3.05934 -1.07588 0
M  V30 8398 H 802.159 2.7257 -2.81865 0
M  V30 8399 H 803.649 3.52664 -2.23647 0
M  V30 8400 N 804.086 1.46499 0.581025 0
M  V30 8401 C 805.036 1.53606 1.68491 0
M  V30 8402 C 806.02 0.396853 1.55929 0
M  V30 8403 O 807.212 0.645366 1.64815 0
M  V30 8404 C 804.341 1.53089 3.07276 0
M  V30 8405 C 803.427 2.72309 3.25128 0
M  V30 8406 N 803.818 3.97216 3.13134 0
M  V30 8407 C 802.116 2.68568 3.56072 0
M  V30 8408 C 802.817 4.7693 3.33036 0
M  V30 8409 N 801.793 4.08833 3.58269 0
M  V30 8410 H 805.595 2.47976 1.5775 0
M  V30 8411 H 803.109 1.42161 0.785104 0
M  V30 8412 H 805.106 1.56268 3.86505 0
M  V30 8413 H 803.766 0.597969 3.19146 0
M  V30 8414 H 804.777 4.28439 2.90964 0
M  V30 8415 H 801.454 1.84307 3.74616 0
M  V30 8416 H 802.844 5.85879 3.28932 0
M  V30 8417 N 805.565 -0.825799 1.34232 0
M  V30 8418 C 806.475 -1.9684 1.27638 0
M  V30 8419 C 807.491 -1.73018 0.184569 0
M  V30 8420 O 808.667 -1.97172 0.410525 0
M  V30 8421 C 805.732 -3.31084 1.02879 0
M  V30 8422 C 804.793 -3.67933 2.21188 0
M  V30 8423 C 804.026 -4.95772 1.976 0
M  V30 8424 O 804.249 -5.62721 0.93281 0
M  V30 8425 O 803.183 -5.30431 2.84477 0
M  V30 8426 H 807.009 -2.05346 2.23756 0
M  V30 8427 H 804.594 -0.960772 1.1441 0
M  V30 8428 H 806.476 -4.11492 0.908406 0
M  V30 8429 H 805.151 -3.23552 0.0979821 0
M  V30 8430 H 804.058 -2.87981 2.38784 0
M  V30 8431 H 805.391 -3.80147 3.12648 0
M  V30 8432 N 807.043 -1.17915 -1.04565 0
M  V30 8433 C 807.953 -0.916449 -2.15959 0
M  V30 8434 C 808.969 0.117655 -1.73602 0
M  V30 8435 O 810.145 -0.063089 -2.01301 0
M  V30 8436 C 807.21 -0.440262 -3.43893 0
M  V30 8437 C 806.271 -1.54172 -4.00661 0
M  V30 8438 C 805.504 -1.08816 -5.22489 0
M  V30 8439 O 805.727 0.0551547 -5.70373 0
M  V30 8440 O 804.661 -1.88383 -5.7166 0
M  V30 8441 H 808.487 -1.8484 -2.40972 0
M  V30 8442 H 806.072 -0.960552 -1.14428 0
M  V30 8443 H 807.954 -0.182537 -4.21004 0
M  V30 8444 H 806.629 0.46346 -3.20365 0
M  V30 8445 H 805.536 -1.85341 -3.24961 0
M  V30 8446 H 806.869 -2.42139 -4.2852 0
M  V30 8447 N 808.521 1.23394 -0.980386 0
M  V30 8448 C 809.769 1.91431 -0.647978 0
M  V30 8449 C 810.09 1.76871 0.821066 0
M  V30 8450 O 809.36 1.14808 1.58732 0
M  V30 8451 H 807.94 0.708516 -0.236673 0
M  V30 8452 H 810.602 1.50019 -1.2442 0
M  V30 8453 H 809.698 2.98854 -0.899592 0
M  V30 8454 N 809.999 0.752036 1.385 0
M  V30 8455 C 811.248 0.304294 1.99391 0
M  V30 8456 C 811.561 -1.11982 1.60373 0
M  V30 8457 O 812.767 -1.66795 2.14223 0
M  V30 8458 C 811.223 0.493101 3.56506 0
M  V30 8459 C 810.831 1.9262 4.04477 0
M  V30 8460 C 812.575 0.107994 4.24363 0
M  V30 8461 C 810.482 2.06365 5.54227 0
M  V30 8462 H 809.412 0.110024 0.745929 0
M  V30 8463 H 812.063 0.928355 1.58284 0
M  V30 8464 H 810.445 -0.20012 3.95494 0
M  V30 8465 H 811.619 2.65276 3.76783 0
M  V30 8466 H 809.934 2.26608 3.49339 0
M  V30 8467 H 812.531 0.189474 5.34364 0
M  V30 8468 H 812.874 -0.939165 4.05568 0
M  V30 8469 H 813.407 0.753011 3.90608 0
M  V30 8470 H 810.146 3.0933 5.77923 0
M  V30 8471 H 809.666 1.38167 5.83669 0
M  V30 8472 H 811.345 1.85286 6.19902 0
M  V30 8473 N 811.477 -1.49425 0.500989 0
M  V30 8474 C 812.717 -2.04357 -0.0419004 0
M  V30 8475 C 813.081 -1.37236 -1.34277 0
M  V30 8476 O 814.282 -1.82889 -1.9699 0
M  V30 8477 C 812.553 -3.56889 -0.19112 0
M  V30 8478 S 814.112 -4.33369 -0.688259 0
M  V30 8479 H 810.93 -0.710998 -0.00177796 0
M  V30 8480 H 813.532 -1.83479 0.674953 0
M  V30 8481 H 812.236 -4.03283 0.760964 0
M  V30 8482 H 811.767 -3.82171 -0.933214 0
M  V30 8483 H 813.782 -4.55961 -1.9574 0
M  V30 8484 N 812.955 -0.234822 -1.55841 0
M  V30 8485 C 814.203 0.392483 -1.98252 0
M  V30 8486 C 814.524 1.59344 -1.12404 0
M  V30 8487 O 813.794 1.94834 -0.204055 0
M  V30 8488 H 812.374 0.147999 -0.732192 0
M  V30 8489 H 815.036 -0.330804 -1.92072 0
M  V30 8490 H 814.132 0.709829 -3.03921 0
M  V30 8491 N 814.433 1.57553 0.0384317 0
M  V30 8492 C 815.682 1.88022 0.730108 0
M  V30 8493 C 815.995 0.83209 1.77019 0
M  V30 8494 O 817.201 1.0257 2.51379 0
M  V30 8495 C 815.657 3.33637 1.3496 0
M  V30 8496 C 815.265 4.46659 0.346352 0
M  V30 8497 C 817.009 3.73266 2.02169 0
M  V30 8498 C 814.916 5.8333 0.973652 0
M  V30 8499 H 813.846 0.701496 0.276442 0
M  V30 8500 H 816.497 1.83493 -0.0158028 0
M  V30 8501 H 814.879 3.32882 2.1449 0
M  V30 8502 H 816.053 4.58868 -0.421558 0
M  V30 8503 H 814.368 4.15802 -0.223133 0
M  V30 8504 H 816.965 4.72689 2.49938 0
M  V30 8505 H 817.308 3.04776 2.8358 0
M  V30 8506 H 817.841 3.76156 1.29427 0
M  V30 8507 H 814.58 6.55197 0.199163 0
M  V30 8508 H 814.1 5.7486 1.71162 0
M  V30 8509 H 815.779 6.29757 1.48376 0
M  V30 8510 N 815.911 -0.310526 1.54511 0
M  V30 8511 C 817.327 -0.655637 1.45511 0
M  V30 8512 C 817.527 -1.91114 0.638564 0
M  V30 8513 O 816.583 -2.52098 0.142497 0
M  V30 8514 C 817.896 -0.817501 2.89374 0
M  V30 8515 C 819.444 -0.914003 2.99358 0
M  V30 8516 C 819.919 -1.10794 4.44397 0
M  V30 8517 N 821.41 -1.17437 4.48066 0
M  V30 8518 C 822.145 -1.34255 5.57461 0
M  V30 8519 N 821.641 -1.48032 6.768 0
M  V30 8520 N 823.434 -1.37067 5.45132 0
M  V30 8521 H 815.585 0.514506 2.06074 0
M  V30 8522 H 817.848 0.168478 0.932909 0
M  V30 8523 H 817.554 0.034003 3.51684 0
M  V30 8524 H 817.428 -1.7094 3.36243 0
M  V30 8525 H 819.815 -1.756 2.37168 0
M  V30 8526 H 819.896 0.00170958 2.558 0
M  V30 8527 H 819.54 -0.270743 5.07178 0
M  V30 8528 H 819.47 -2.03773 4.85576 0
M  V30 8529 H 821.961 -1.08181 3.62084 0
M  V30 8530 H 822.274 -1.60593 7.5593 0
M  V30 8531 H 820.619 -1.45105 6.79683 0
M  V30 8532 H 823.81 -1.25909 4.50849 0
M  V30 8533 H 823.983 -1.49831 6.3044 0
M  V30 8534 N 817.389 -1.46805 -0.573248 0
M  V30 8535 C 818.614 -1.56433 -1.36175 0
M  V30 8536 C 819.039 -0.209336 -1.86932 0
M  V30 8537 O 818.397 0.812146 -1.62092 0
M  V30 8538 C 818.445 -2.58055 -2.51873 0
M  V30 8539 O 817.549 -2.12214 -3.53609 0
M  V30 8540 H 816.89 -0.526068 -0.405153 0
M  V30 8541 H 819.42 -1.92456 -0.694405 0
M  V30 8542 H 819.43 -2.77966 -2.98662 0
M  V30 8543 H 818.105 -3.56448 -2.14284 0
M  V30 8544 H 816.682 -2.02333 -3.13234 0
M  V30 8545 N 818.867 0.818669 -1.34668 0
M  V30 8546 C 820.113 1.57746 -1.27453 0
M  V30 8547 C 820.446 1.93588 0.154077 0
M  V30 8548 O 819.721 1.60371 1.10051 0
M  V30 8549 C 820.004 2.87414 -2.16945 0
M  V30 8550 C 819.857 2.58125 -3.68363 0
M  V30 8551 C 821.176 3.89021 -2.05792 0
M  V30 8552 H 818.295 0.572339 -0.464324 0
M  V30 8553 H 820.937 0.942784 -1.64959 0
M  V30 8554 H 819.087 3.41576 -1.85089 0
M  V30 8555 H 820.759 2.10239 -4.10606 0
M  V30 8556 H 819.002 1.91503 -3.89242 0
M  V30 8557 H 819.673 3.5061 -4.26353 0
M  V30 8558 H 822.149 3.44224 -2.33771 0
M  V30 8559 H 821.025 4.77548 -2.70628 0
M  V30 8560 H 821.286 4.29786 -1.03618 0
M  V30 8561 N 820.346 1.18468 1.03938 0
M  V30 8562 C 821.574 1.00576 1.80809 0
M  V30 8563 C 821.989 -0.445786 1.83462 0
M  V30 8564 O 821.346 -1.30964 1.27101 0
M  V30 8565 C 821.397 1.55491 3.26351 0
M  V30 8566 O 821.118 2.94963 3.23926 0
M  V30 8567 C 822.619 1.42236 4.19862 0
M  V30 8568 H 819.839 0.35508 0.56935 0
M  V30 8569 H 822.383 1.57046 1.30984 0
M  V30 8570 H 820.538 1.03195 3.73403 0
M  V30 8571 H 820.952 3.20598 4.15111 0
M  V30 8572 H 822.426 1.85455 5.19914 0
M  V30 8573 H 822.903 0.371267 4.37628 0
M  V30 8574 H 823.509 1.9361 3.78675 0
M  V30 8575 N 821.824 -1.22873 0.986916 0
M  V30 8576 C 823.24 -1.43594 0.696633 0
M  V30 8577 C 823.44 -1.87622 -0.734869 0
M  V30 8578 O 822.496 -2.02633 -1.50652 0
M  V30 8579 C 823.809 -2.48231 1.69711 0
M  V30 8580 C 825.357 -2.62037 1.71188 0
M  V30 8581 C 825.832 -3.6989 2.70084 0
M  V30 8582 N 827.323 -3.77341 2.68641 0
M  V30 8583 C 828.058 -4.6037 3.41829 0
M  V30 8584 N 827.554 -5.47438 4.24598 0
M  V30 8585 N 829.347 -4.54626 3.30563 0
M  V30 8586 H 821.498 -0.925982 1.91153 0
M  V30 8587 H 823.761 -0.46866 0.824052 0
M  V30 8588 H 823.467 -2.22812 2.72117 0
M  V30 8589 H 823.341 -3.46731 1.48516 0
M  V30 8590 H 825.728 -2.86803 0.694837 0
M  V30 8591 H 825.809 -1.63831 1.96451 0
M  V30 8592 H 825.453 -3.45872 3.71934 0
M  V30 8593 H 825.383 -4.67652 2.42093 0
M  V30 8594 H 827.874 -3.15124 2.08578 0
M  V30 8595 H 828.187 -6.078 4.77283 0
M  V30 8596 H 826.532 -5.4704 4.28687 0
M  V30 8597 H 829.723 -3.85627 2.65347 0
M  V30 8598 H 829.896 -5.19103 3.8786 0
M  V30 8599 N 823.302 -0.75937 -1.38099 0
M  V30 8600 C 824.232 -0.151077 -2.33011 0
M  V30 8601 C 825.213 0.697099 -1.5516 0
M  V30 8602 O 826.398 0.637101 -1.83452 0
M  V30 8603 C 823.528 0.738423 -3.39359 0
M  V30 8604 C 822.482 -0.0074741 -4.27999 0
M  V30 8605 C 821.808 1.00066 -5.25253 0
M  V30 8606 C 823.108 -1.17926 -5.08813 0
M  V30 8607 H 824.802 -0.943933 -2.84131 0
M  V30 8608 H 822.348 -0.455362 -1.36611 0
M  V30 8609 H 824.301 1.17369 -4.04725 0
M  V30 8610 H 823.025 1.56366 -2.86735 0
M  V30 8611 H 821.684 -0.423379 -3.64147 0
M  V30 8612 H 821.332 1.82012 -4.68914 0
M  V30 8613 H 821.032 0.506199 -5.85416 0
M  V30 8614 H 822.556 1.43512 -5.93495 0
M  V30 8615 H 823.97 -0.821262 -5.67387 0
M  V30 8616 H 822.367 -1.60497 -5.78239 0
M  V30 8617 H 823.437 -1.98938 -4.42212 0
M  V30 8618 N 824.78 1.49157 -0.508906 0
M  V30 8619 C 825.69 2.33045 0.269656 0
M  V30 8620 C 826.706 1.45143 0.959662 0
M  V30 8621 O 827.882 1.78155 0.939295 0
M  V30 8622 C 824.947 3.20772 1.31554 0
M  V30 8623 C 824.008 4.24531 0.638131 0
M  V30 8624 C 823.241 5.08065 1.63418 0
M  V30 8625 O 823.464 4.93238 2.86483 0
M  V30 8626 O 822.398 5.90117 1.18516 0
M  V30 8627 H 826.224 3.00821 -0.417183 0
M  V30 8628 H 823.809 1.46938 -0.270119 0
M  V30 8629 H 825.691 3.75095 1.92047 0
M  V30 8630 H 824.366 2.55681 1.98516 0
M  V30 8631 H 823.273 3.74099 -0.00674357 0
M  V30 8632 H 824.606 4.92199 0.0108155 0
M  V30 8633 N 826.258 0.243083 1.55714 0
M  V30 8634 C 827.206 -0.674349 2.2261 0
M  V30 8635 C 828.2 -1.18307 1.21243 0
M  V30 8636 O 829.406 -1.1404 1.39265 0
M  V30 8637 H 825.781 -0.235941 0.714028 0
M  V30 8638 H 827.752 -0.0869446 2.98273 0
M  V30 8639 C 826.501 -1.86206 2.93637 0
M  V30 8640 H 825.824 -1.47975 3.71407 0
M  V30 8641 H 827.264 -2.4813 3.43813 0
M  V30 8642 C 825.723 -2.73084 1.97298 0
M  V30 8643 O 826.253 -3.72497 1.50361 0
M  V30 8644 N 824.459 -2.39571 1.64482 0
M  V30 8645 H 824.006 -1.5878 2.02846 0
M  V30 8646 H 823.964 -2.97976 1.00288 0
M  V30 8647 N 827.736 -1.57571 -0.0300757 0
M  V30 8648 C 828.666 -2.0953 -1.03051 0
M  V30 8649 C 829.647 -0.99761 -1.37774 0
M  V30 8650 O 830.832 -1.27279 -1.46676 0
M  V30 8651 C 827.962 -2.57385 -2.33174 0
M  V30 8652 C 826.916 -3.71409 -2.12696 0
M  V30 8653 C 826.242 -4.05467 -3.4857 0
M  V30 8654 C 827.542 -4.99877 -1.51396 0
M  V30 8655 H 829.236 -2.93367 -0.597999 0
M  V30 8656 H 826.782 -1.41127 -0.286203 0
M  V30 8657 H 828.735 -2.92355 -3.03491 0
M  V30 8658 H 827.459 -1.70629 -2.78484 0
M  V30 8659 H 826.118 -3.36786 -1.44813 0
M  V30 8660 H 825.766 -3.15779 -3.91526 0
M  V30 8661 H 825.466 -4.82269 -3.35694 0
M  V30 8662 H 826.99 -4.4297 -4.2025 0
M  V30 8663 H 828.404 -5.3281 -2.11629 0
M  V30 8664 H 826.801 -5.81283 -1.49098 0
M  V30 8665 H 827.871 -4.82522 -0.479676 0
M  V30 8666 N 829.214 0.302327 -1.54673 0
M  V30 8667 C 830.147 1.39738 -1.80412 0
M  V30 8668 C 831.125 1.48813 -0.655241 0
M  V30 8669 O 832.309 1.65895 -0.89505 0
M  V30 8670 C 829.436 2.7766 -1.93966 0
M  V30 8671 C 828.482 2.86014 -3.16383 0
M  V30 8672 S 829.315 2.48246 -4.74483 0
M  V30 8673 C 830.471 3.88198 -4.90971 0
M  V30 8674 H 830.704 1.17696 -2.73011 0
M  V30 8675 H 828.237 0.500364 -1.46068 0
M  V30 8676 H 830.195 3.571 -2.0246 0
M  V30 8677 H 828.856 2.96971 -1.02307 0
M  V30 8678 H 828.049 3.87174 -3.22664 0
M  V30 8679 H 827.651 2.14568 -3.06328 0
M  V30 8680 H 829.943 4.83181 -4.74913 0
M  V30 8681 H 830.886 3.86887 -5.93063 0
M  V30 8682 H 831.294 3.78139 -4.19131 0
M  V30 8683 N 830.692 1.47107 0.565454 0
M  V30 8684 C 831.938 1.54519 1.3227 0
M  V30 8685 C 832.293 0.201313 1.91344 0
M  V30 8686 O 831.586 -0.792058 1.74462 0
M  V30 8687 C 831.78 2.59309 2.45954 0
M  V30 8688 C 831.609 4.03756 1.98019 0
M  V30 8689 C 830.379 4.71293 1.8224 0
M  V30 8690 C 832.577 4.91029 1.52955 0
M  V30 8691 N 830.559 6.00288 1.28557 0
M  V30 8692 C 831.93 6.09986 1.10981 0
M  V30 8693 C 833.985 4.77539 1.4093 0
M  V30 8694 C 832.688 7.16943 0.581796 0
M  V30 8695 C 834.714 5.84584 0.895307 0
M  V30 8696 C 834.076 7.02725 0.485454 0
M  V30 8697 H 830.175 0.620177 0.476345 0
M  V30 8698 H 832.759 1.83814 0.641901 0
M  V30 8699 H 830.93 2.31896 3.11575 0
M  V30 8700 H 832.662 2.56614 3.1294 0
M  V30 8701 H 829.417 4.27074 2.04707 0
M  V30 8702 H 829.841 6.68991 1.03828 0
M  V30 8703 H 834.483 3.86574 1.71231 0
M  V30 8704 H 832.201 8.07661 0.266399 0
M  V30 8705 H 835.787 5.76191 0.805939 0
M  V30 8706 H 834.667 7.84144 0.0938828 0
M  V30 8707 N 832.17 -0.811516 1.35101 0
M  V30 8708 C 833.117 -1.92308 1.27617 0
M  V30 8709 C 834.087 -1.6543 0.149091 0
M  V30 8710 O 835.272 -1.8789 0.331974 0
M  V30 8711 C 832.412 -3.28768 1.04908 0
M  V30 8712 C 831.525 -3.67865 2.26493 0
M  V30 8713 C 830.66 -4.9333 1.96974 0
M  V30 8714 C 829.699 -5.25041 3.1464 0
M  V30 8715 N 828.836 -6.41685 2.84929 0
M  V30 8716 H 833.676 -1.98041 2.22674 0
M  V30 8717 H 831.213 -0.968755 1.10696 0
M  V30 8718 H 833.171 -4.07426 0.897749 0
M  V30 8719 H 831.801 -3.22517 0.135151 0
M  V30 8720 H 830.853 -2.84507 2.52507 0
M  V30 8721 H 832.165 -3.87263 3.14371 0
M  V30 8722 H 831.319 -5.79803 1.78643 0
M  V30 8723 H 830.058 -4.75958 1.06374 0
M  V30 8724 H 829.063 -4.3706 3.33554 0
M  V30 8725 H 830.288 -5.44346 4.06035 0
M  V30 8726 H 828.234 -6.25747 1.96918 0
M  V30 8727 H 828.151 -6.6131 3.66341 0
M  V30 8728 H 829.419 -7.31198 2.70128 0
M  V30 8729 N 833.648 -1.19017 -1.03309 0
M  V30 8730 C 834.58 -0.881847 -2.11556 0
M  V30 8731 C 835.593 0.123711 -1.62329 0
M  V30 8732 O 836.782 -0.105141 -1.7819 0
M  V30 8733 C 833.882 -0.297634 -3.37591 0
M  V30 8734 C 833.055 -1.35072 -4.16022 0
M  V30 8735 C 832.114 -0.780812 -5.20375 0
M  V30 8736 O 831.14 -1.45745 -5.50224 0
M  V30 8737 N 832.342 0.417964 -5.78993 0
M  V30 8738 H 835.107 -1.81359 -2.38598 0
M  V30 8739 H 832.668 -1.0916 -1.19565 0
M  V30 8740 H 834.66 0.097374 -4.04583 0
M  V30 8741 H 833.23 0.538299 -3.0793 0
M  V30 8742 H 832.45 -1.92074 -3.4424 0
M  V30 8743 H 833.738 -2.06044 -4.65213 0
M  V30 8744 H 833.136 0.985281 -5.57054 0
M  V30 8745 H 831.693 0.754802 -6.47415 0
M  V30 8746 N 835.127 1.22348 -0.993418 0
M  V30 8747 C 836.376 1.90422 -0.665019 0
M  V30 8748 C 836.689 1.78199 0.806512 0
M  V30 8749 O 837.895 2.41193 1.24652 0
M  V30 8750 C 836.351 3.41403 -1.13893 0
M  V30 8751 C 835.959 3.62262 -2.63572 0
M  V30 8752 C 837.703 4.15175 -0.884884 0
M  V30 8753 C 835.61 5.06947 -3.04564 0
M  V30 8754 H 834.54 0.713073 -0.245037 0
M  V30 8755 H 837.191 1.3856 -1.20305 0
M  V30 8756 H 835.573 3.9245 -0.529027 0
M  V30 8757 H 836.747 3.21705 -3.29913 0
M  V30 8758 H 835.062 3.01824 -2.86865 0
M  V30 8759 H 837.659 5.21813 -1.16684 0
M  V30 8760 H 838.002 4.15915 0.178982 0
M  V30 8761 H 838.535 3.70157 -1.45701 0
M  V30 8762 H 835.274 5.11346 -4.10128 0
M  V30 8763 H 834.794 5.48404 -2.42927 0
M  V30 8764 H 836.473 5.75374 -2.95894 0
M  V30 8765 N 836.605 0.766683 1.37694 0
M  V30 8766 C 837.833 0.339939 2.04088 0
M  V30 8767 C 838.248 -1.03617 1.57826 0
M  V30 8768 O 837.605 -1.6605 0.757214 0
M  V30 8769 C 837.656 0.368269 3.59619 0
M  V30 8770 O 837.377 1.69009 4.04188 0
M  V30 8771 C 838.878 -0.0707053 4.43244 0
M  V30 8772 H 836.098 0.143189 0.655544 0
M  V30 8773 H 838.642 1.03919 1.76128 0
M  V30 8774 H 836.797 -0.282359 3.8637 0
M  V30 8775 H 837.211 1.62523 4.98685 0
M  V30 8776 H 838.685 0.000273538 5.52 0
M  V30 8777 H 839.162 -1.1204 4.24669 0
M  V30 8778 H 839.768 0.551543 4.21709 0
M  V30 8779 N 838.083 -1.48885 0.516809 0
M  V30 8780 C 839.308 -2.0739 -0.0205201 0
M  V30 8781 C 839.733 -1.37259 -1.28614 0
M  V30 8782 O 839.091 -0.434304 -1.76021 0
M  V30 8783 C 839.139 -3.59793 -0.24104 0
M  V30 8784 O 838.243 -3.90957 -1.31251 0
M  V30 8785 H 837.584 -0.663167 0.0332564 0
M  V30 8786 H 840.114 -1.91477 0.720956 0
M  V30 8787 H 840.124 -4.0531 -0.467737 0
M  V30 8788 H 838.799 -4.10244 0.68356 0
M  V30 8789 H 837.376 -3.57234 -1.06951 0
M  V30 8790 N 839.561 -0.251338 -1.55583 0
M  V30 8791 C 840.471 0.656978 -2.25213 0
M  V30 8792 C 841.487 1.18966 -1.26977 0
M  V30 8793 O 842.663 1.22499 -1.59862 0
M  V30 8794 C 839.728 1.83527 -2.94141 0
M  V30 8795 C 838.789 1.34162 -4.07798 0
M  V30 8796 C 838.022 2.46375 -4.73429 0
M  V30 8797 O 838.245 3.65205 -4.38157 0
M  V30 8798 O 837.179 2.15881 -5.61853 0
M  V30 8799 H 841.005 0.0936395 -3.03556 0
M  V30 8800 H 838.59 -0.0196638 -1.49387 0
M  V30 8801 H 840.472 2.52279 -3.3754 0
M  V30 8802 H 839.147 2.38614 -2.18735 0
M  V30 8803 H 838.054 0.621249 -3.68906 0
M  V30 8804 H 839.387 0.836779 -4.85035 0
M  V30 8805 N 841.039 1.57585 0.0217189 0
M  V30 8806 C 841.969 2.10073 1.01939 0
M  V30 8807 C 842.95 1.0049 1.37243 0
M  V30 8808 O 844.135 1.28055 1.45999 0
M  V30 8809 C 841.265 2.58618 2.31806 0
M  V30 8810 C 840.219 3.72531 2.10724 0
M  V30 8811 C 839.545 4.07309 3.46415 0
M  V30 8812 C 840.845 5.00672 1.48743 0
M  V30 8813 H 842.539 2.9368 0.582432 0
M  V30 8814 H 840.085 1.41277 0.278715 0
M  V30 8815 H 842.038 2.9396 3.01936 0
M  V30 8816 H 840.762 1.72104 2.77575 0
M  V30 8817 H 839.421 3.37549 1.43025 0
M  V30 8818 H 839.069 3.17851 3.89846 0
M  V30 8819 H 838.769 4.84042 3.33132 0
M  V30 8820 H 840.293 4.45192 4.17895 0
M  V30 8821 H 841.707 5.33925 2.088 0
M  V30 8822 H 840.104 5.82065 1.46013 0
M  V30 8823 H 841.174 4.82769 0.45408 0
M  V30 8824 N 842.517 -0.29412 1.54831 0
M  V30 8825 C 843.465 -1.38296 1.87021 0
M  V30 8826 C 844.459 -1.5216 0.744557 0
M  V30 8827 O 845.665 -1.54196 0.92864 0
M  V30 8828 H 842.04 -0.462088 0.593278 0
M  V30 8829 H 844.011 -1.08386 2.7802 0
M  V30 8830 C 842.76 -2.74024 2.14023 0
M  V30 8831 H 842.083 -2.6414 3.00117 0
M  V30 8832 H 843.523 -3.49205 2.40482 0
M  V30 8833 C 841.982 -3.23492 0.940982 0
M  V30 8834 O 842.512 -4.01361 0.164937 0
M  V30 8835 N 840.718 -2.80902 0.744467 0
M  V30 8836 H 840.265 -2.17694 1.37721 0
M  V30 8837 H 840.223 -3.14349 -0.0563652 0
M  V30 8838 N 843.995 -1.47404 -0.557645 0
M  V30 8839 C 844.945 -1.56267 -1.66026 0
M  V30 8840 C 845.929 -0.42161 -1.55278 0
M  V30 8841 O 847.121 -0.671505 -1.63768 0
M  V30 8842 C 844.25 -1.57958 -3.04802 0
M  V30 8843 C 843.336 -2.77447 -3.20755 0
M  V30 8844 N 843.727 -4.02148 -3.06775 0
M  V30 8845 C 842.025 -2.74199 -3.51754 0
M  V30 8846 C 842.726 -4.82168 -3.25406 0
M  V30 8847 N 841.702 -4.14481 -3.5172 0
M  V30 8848 H 845.504 -2.50454 -1.53785 0
M  V30 8849 H 843.018 -1.43392 -0.762388 0
M  V30 8850 H 845.015 -1.62397 -3.8397 0
M  V30 8851 H 843.675 -0.648667 -3.18155 0
M  V30 8852 H 844.686 -4.33014 -2.84111 0
M  V30 8853 H 841.363 -1.90243 -3.71637 0
M  V30 8854 H 842.753 -5.91037 -3.19569 0
M  V30 8855 N 845.473 0.80434 -1.35529 0
M  V30 8856 C 846.722 1.55665 -1.28263 0
M  V30 8857 C 847.035 1.95096 0.140352 0
M  V30 8858 O 848.241 2.69422 0.335303 0
M  V30 8859 C 846.697 2.80935 -2.24952 0
M  V30 8860 C 846.305 2.48733 -3.72607 0
M  V30 8861 C 848.049 3.5894 -2.26632 0
M  V30 8862 C 845.956 3.70308 -4.61114 0
M  V30 8863 H 844.886 0.584301 -0.476559 0
M  V30 8864 H 847.537 0.88395 -1.60806 0
M  V30 8865 H 845.919 3.49927 -1.85383 0
M  V30 8866 H 847.093 1.87733 -4.20824 0
M  V30 8867 H 845.408 1.83969 -3.73557 0
M  V30 8868 H 848.005 4.49244 -2.89973 0
M  V30 8869 H 848.348 3.96433 -1.27069 0
M  V30 8870 H 848.881 2.96912 -2.64742 0
M  V30 8871 H 845.62 3.37922 -5.61684 0
M  V30 8872 H 845.14 4.30526 -4.17621 0
M  V30 8873 H 846.819 4.37511 -4.76648 0
M  V30 8874 N 846.951 1.19563 1.02676 0
M  V30 8875 C 847.881 0.959024 2.12897 0
M  V30 8876 C 848.862 -0.108382 1.69754 0
M  V30 8877 O 850.047 0.0470698 1.94143 0
M  V30 8878 C 847.177 0.499211 3.43693 0
M  V30 8879 C 846.131 1.5087 4.00528 0
M  V30 8880 C 845.457 0.905884 5.2697 0
M  V30 8881 C 846.757 2.88954 4.3509 0
M  V30 8882 H 848.451 1.88084 2.32948 0
M  V30 8883 H 845.997 0.905731 1.11949 0
M  V30 8884 H 847.95 0.320965 4.20176 0
M  V30 8885 H 846.674 -0.458205 3.2337 0
M  V30 8886 H 845.333 1.67413 3.26142 0
M  V30 8887 H 844.981 -0.0591506 5.02965 0
M  V30 8888 H 844.681 1.58 5.65959 0
M  V30 8889 H 846.205 0.73848 6.06118 0
M  V30 8890 H 847.619 2.75981 5.02501 0
M  V30 8891 H 846.016 3.53177 4.85166 0
M  V30 8892 H 847.086 3.41447 3.44299 0
M  V30 8893 N 848.429 -1.21819 0.999893 0
M  V30 8894 C 849.654 -1.95298 0.698094 0
M  V30 8895 C 850.079 -1.73273 -0.731982 0
M  V30 8896 O 849.437 -1.01634 -1.50134 0
M  V30 8897 C 849.485 -3.45922 1.01834 0
M  V30 8898 O 848.589 -4.12223 0.120801 0
M  V30 8899 H 847.93 -0.610729 0.260588 0
M  V30 8900 H 850.46 -1.5472 1.33876 0
M  V30 8901 H 850.47 -3.96471 0.963074 0
M  V30 8902 H 849.145 -3.61278 2.06037 0
M  V30 8903 H 847.722 -3.72177 0.232153 0
M  V30 8904 N 849.908 -0.773975 -1.37286 0
M  V30 8905 C 850.818 -0.162571 -2.34036 0
M  V30 8906 C 851.834 0.677022 -1.60289 0
M  V30 8907 O 853.01 0.596423 -1.92366 0
M  V30 8908 C 850.075 0.70457 -3.39465 0
M  V30 8909 C 849.136 -0.151738 -4.29032 0
M  V30 8910 C 848.369 0.674111 -5.29426 0
M  V30 8911 O 848.592 1.91107 -5.37433 0
M  V30 8912 O 847.526 0.0821398 -6.01844 0
M  V30 8913 H 851.352 -0.962119 -2.88057 0
M  V30 8914 H 848.937 -0.53517 -1.39486 0
M  V30 8915 H 850.819 1.19954 -4.03967 0
M  V30 8916 H 849.494 1.48227 -2.87768 0
M  V30 8917 H 848.401 -0.693118 -3.67623 0
M  V30 8918 H 849.734 -0.892575 -4.84039 0
M  V30 8919 N 851.386 1.48609 -0.524698 0
M  V30 8920 C 852.334 2.31205 0.254398 0
M  V30 8921 C 853.328 1.40894 0.940491 0
M  V30 8922 O 854.534 1.57827 0.865478 0
M  V30 8923 H 850.909 0.745199 0.100907 0
M  V30 8924 H 852.88 2.94804 -0.461876 0
M  V30 8925 C 851.629 3.2282 1.2916 0
M  V30 8926 H 850.952 3.92255 0.773074 0
M  V30 8927 H 852.392 3.83508 1.80825 0
M  V30 8928 C 850.851 2.4406 2.32242 0
M  V30 8929 O 851.381 2.16163 3.3858 0
M  V30 8930 N 849.587 2.05651 2.05319 0
M  V30 8931 H 849.134 2.28539 1.18861 0
M  V30 8932 H 849.092 1.53265 2.74513 0
M  V30 8933 N 852.864 0.259585 1.55447 0
M  V30 8934 C 853.774 -0.645026 2.25558 0
M  V30 8935 C 854.79 -1.18291 1.27606 0
M  V30 8936 O 855.966 -1.21649 1.6051 0
M  V30 8937 C 853.031 -1.81964 2.9511 0
M  V30 8938 C 852.092 -1.31997 4.08504 0
M  V30 8939 C 851.325 -2.43861 4.74729 0
M  V30 8940 O 851.548 -3.62876 4.40088 0
M  V30 8941 O 850.482 -2.12898 5.6299 0
M  V30 8942 H 854.308 -0.0775399 3.03601 0
M  V30 8943 H 851.893 0.0275859 1.49375 0
M  V30 8944 H 853.775 -2.50485 3.38873 0
M  V30 8945 H 852.45 -2.37451 2.19997 0
M  V30 8946 H 851.357 -0.601676 3.6923 0
M  V30 8947 H 852.69 -0.811045 4.85472 0
M  V30 8948 N 854.342 -1.57594 -0.0133615 0
M  V30 8949 C 855.588 -1.90262 -0.702019 0
M  V30 8950 C 855.921 -0.859219 -1.74158 0
M  V30 8951 O 855.196 0.123778 -1.94106 0
M  V30 8952 C 855.479 -3.3354 -1.35732 0
M  V30 8953 C 855.332 -4.48586 -0.330208 0
M  V30 8954 C 856.651 -3.76004 -2.28712 0
M  V30 8955 H 853.77 -0.691943 -0.253739 0
M  V30 8956 H 856.412 -1.89967 0.0351894 0
M  V30 8957 H 854.562 -3.33921 -1.98567 0
M  V30 8958 H 856.234 -4.6034 0.297433 0
M  V30 8959 H 854.477 -4.32394 0.348926 0
M  V30 8960 H 855.148 -5.45762 -0.827508 0
M  V30 8961 H 857.624 -3.77089 -1.75906 0
M  V30 8962 H 856.5 -4.77032 -2.71535 0
M  V30 8963 H 856.761 -3.09129 -3.16056 0
M  V30 8964 N 855.82 0.285905 -1.54985 0
M  V30 8965 C 856.767 1.35306 -1.86978 0
M  V30 8966 C 857.737 1.49682 -0.720046 0
M  V30 8967 O 858.922 1.64297 -0.970107 0
M  V30 8968 C 856.062 2.71059 -2.13591 0
M  V30 8969 C 855.175 2.6501 -3.41165 0
M  V30 8970 C 854.31 3.92856 -3.57544 0
M  V30 8971 C 853.349 3.81266 -4.78855 0
M  V30 8972 N 852.486 5.00919 -4.9196 0
M  V30 8973 H 857.326 1.07323 -2.78003 0
M  V30 8974 H 854.863 0.518776 -1.37649 0
M  V30 8975 H 856.821 3.50026 -2.27019 0
M  V30 8976 H 855.451 2.97271 -1.25816 0
M  V30 8977 H 854.503 1.77824 -3.36278 0
M  V30 8978 H 855.815 2.52342 -4.30262 0
M  V30 8979 H 854.969 4.80263 -3.70718 0
M  V30 8980 H 853.708 4.08377 -2.66608 0
M  V30 8981 H 852.713 2.92243 -4.65698 0
M  V30 8982 H 853.938 3.67277 -5.71213 0
M  V30 8983 H 851.884 5.16875 -4.03951 0
M  V30 8984 H 851.801 4.90732 -5.75081 0
M  V30 8985 H 853.069 5.89935 -5.09507 0
M  V30 8986 N 857.298 1.47698 0.54982 0
M  V30 8987 C 858.228 1.63622 1.66583 0
M  V30 8988 C 859.209 0.485477 1.63025 0
M  V30 8989 O 860.394 0.715692 1.80531 0
M  V30 8990 C 857.524 1.65721 3.05211 0
M  V30 8991 C 856.478 2.80097 3.2362 0
M  V30 8992 C 855.804 2.67272 4.63109 0
M  V30 8993 C 857.104 4.21612 3.08286 0
M  V30 8994 H 858.798 2.57049 1.53512 0
M  V30 8995 H 856.344 1.23705 0.737099 0
M  V30 8996 H 858.297 1.75451 3.83138 0
M  V30 8997 H 857.021 0.688593 3.19258 0
M  V30 8998 H 855.68 2.69889 2.48104 0
M  V30 8999 H 855.328 1.68422 4.73965 0
M  V30 9000 H 855.028 3.44008 4.76374 0
M  V30 9001 H 856.552 2.78942 5.43161 0
M  V30 9002 H 857.966 4.32758 3.76024 0
M  V30 9003 H 856.363 4.99193 3.33057 0
M  V30 9004 H 857.433 4.39462 2.04942 0
M  V30 9005 N 858.776 -0.797141 1.35954 0
M  V30 9006 C 860.004 -1.5858 1.32891 0
M  V30 9007 C 860.419 -1.88578 -0.0915564 0
M  V30 9008 O 859.776 -1.49532 -1.04625 0
M  V30 9009 C 859.827 -2.91143 2.14284 0
M  V30 9010 O 859.548 -2.62442 3.50793 0
M  V30 9011 C 861.049 -3.85476 2.18914 0
M  V30 9012 H 858.269 -0.492111 0.456144 0
M  V30 9013 H 860.813 -0.98994 1.78943 0
M  V30 9014 H 858.968 -3.47219 1.71807 0
M  V30 9015 H 859.382 -3.4715 3.93175 0
M  V30 9016 H 860.856 -4.75574 2.80238 0
M  V30 9017 H 861.333 -4.22758 1.19047 0
M  V30 9018 H 861.939 -3.35334 2.61593 0
M  V30 9019 N 860.254 -1.20106 -1.0204 0
M  V30 9020 C 861.503 -1.00316 -1.74985 0
M  V30 9021 C 861.816 0.465814 -1.89972 0
M  V30 9022 O 863.022 0.782749 -2.59972 0
M  V30 9023 C 861.478 -1.74608 -3.14706 0
M  V30 9024 C 861.086 -3.25573 -3.07744 0
M  V30 9025 C 862.83 -1.63172 -3.91887 0
M  V30 9026 C 860.737 -3.92419 -4.42449 0
M  V30 9027 H 859.667 -0.371728 -0.655999 0
M  V30 9028 H 862.318 -1.43688 -1.14131 0
M  V30 9029 H 860.7 -1.24021 -3.76078 0
M  V30 9030 H 861.874 -3.83345 -2.55702 0
M  V30 9031 H 860.189 -3.3738 -2.44057 0
M  V30 9032 H 862.786 -2.10457 -4.9154 0
M  V30 9033 H 863.129 -0.58728 -4.12137 0
M  V30 9034 H 863.662 -2.11152 -3.37135 0
M  V30 9035 H 860.401 -4.96998 -4.27403 0
M  V30 9036 H 859.921 -3.39436 -4.94513 0
M  V30 9037 H 861.6 -3.96453 -5.11306 0
M  V30 9038 N 861.732 1.21287 -1.00634 0
M  V30 9039 C 862.665 2.22366 -0.512687 0
M  V30 9040 C 863.643 1.56692 0.434332 0
M  V30 9041 O 864.827 1.85094 0.35674 0
M  V30 9042 C 861.954 3.37738 0.255139 0
M  V30 9043 C 861 4.21673 -0.639883 0
M  V30 9044 S 861.833 4.92474 -2.10308 0
M  V30 9045 C 862.989 6.11275 -1.34512 0
M  V30 9046 H 863.222 2.63896 -1.36918 0
M  V30 9047 H 860.755 1.31176 -0.814387 0
M  V30 9048 H 862.713 4.04624 0.692067 0
M  V30 9049 H 861.374 2.94689 1.08707 0
M  V30 9050 H 860.567 5.03977 -0.0483821 0
M  V30 9051 H 860.169 3.59988 -1.01414 0
M  V30 9052 H 862.461 6.7466 -0.619721 0
M  V30 9053 H 863.404 6.74864 -2.14393 0
M  V30 9054 H 863.812 5.58026 -0.852506 0
M  V30 9055 N 863.21 0.781244 1.36873 0
M  V30 9056 C 864.438 0.361566 2.03716 0
M  V30 9057 C 864.853 -1.01937 1.58916 0
M  V30 9058 O 864.21 -1.65237 0.774783 0
M  V30 9059 C 864.261 0.406391 3.59208 0
M  V30 9060 O 863.982 1.73286 4.02372 0
M  V30 9061 C 865.483 -0.0236894 4.43294 0
M  V30 9062 H 862.703 0.150133 0.653988 0
M  V30 9063 H 865.247 1.05781 1.75016 0
M  V30 9064 H 863.402 -0.241364 3.86647 0
M  V30 9065 H 863.816 1.67804 4.96933 0
M  V30 9066 H 865.29 0.0588205 5.51969 0
M  V30 9067 H 865.767 -1.07529 4.25833 0
M  V30 9068 H 866.373 0.59624 4.211 0
M  V30 9069 N 864.689 -1.48329 0.532571 0
M  V30 9070 C 865.937 -2.021 -0.000581206 0
M  V30 9071 C 866.258 -1.4117 -1.34522 0
M  V30 9072 O 865.528 -0.578005 -1.87179 0
M  V30 9073 H 864.108 -0.746993 -0.00320281 0
M  V30 9074 H 866.77 -1.82011 0.696991 0
M  V30 9075 H 865.866 -3.11917 -0.106991 0
M  V30 9076 N 866.167 -0.267825 -1.55308 0
M  V30 9077 C 867.444 0.402449 -1.91415 0
M  V30 9078 C 867.824 1.7428 -1.1912 0
M  V30 9079 O 867.172 2.2631 -0.315609 0
M  V30 9080 C 867.382 0.549926 -3.4464 0
M  V30 9081 C 868.73 0.836188 -4.16285 0
M  V30 9082 O 869.754 0.635009 -3.50494 0
M  V30 9083 O 868.613 1.22051 -5.32697 0
M  V30 9084 H 865.707 0.219177 -0.797427 0
M  V30 9085 H 868.253 -0.313439 -1.6678 0
M  V30 9086 H 867.025 -0.393641 -3.89315 0
M  V30 9087 H 866.648 1.31556 -3.75205 0
M  V30 9088 N 867.645 1.57599 0.00500368 0
M  V30 9089 C 868.894 1.89528 0.690061 0
M  V30 9090 C 869.207 0.869451 1.75214 0
M  V30 9091 O 870.413 1.07879 2.49147 0
M  V30 9092 C 868.869 3.36425 1.27852 0
M  V30 9093 C 868.477 4.47293 0.251531 0
M  V30 9094 C 870.221 3.77471 1.94206 0
M  V30 9095 C 868.128 5.85264 0.8497 0
M  V30 9096 H 867.058 0.707201 0.2615 0
M  V30 9097 H 869.709 1.83418 -0.0547209 0
M  V30 9098 H 868.091 3.37356 2.07381 0
M  V30 9099 H 869.265 4.5787 -0.518796 0
M  V30 9100 H 867.58 4.15235 -0.311281 0
M  V30 9101 H 870.177 4.77884 2.39855 0
M  V30 9102 H 870.52 3.10722 2.77051 0
M  V30 9103 H 871.053 3.78817 1.21419 0
M  V30 9104 H 867.792 6.55472 0.0601408 0
M  V30 9105 H 867.312 5.78361 1.5893 0
M  V30 9106 H 868.991 6.32762 1.34984 0
M  V30 9107 N 869.123 -0.277682 1.55134 0
M  V30 9108 C 870.07 -1.34313 1.87693 0
M  V30 9109 C 871.04 -1.49298 0.727973 0
M  V30 9110 O 872.225 -1.6378 0.978807 0
M  V30 9111 C 869.365 -2.69922 2.15026 0
M  V30 9112 C 868.478 -2.63197 3.42565 0
M  V30 9113 C 867.613 -3.90955 3.59622 0
M  V30 9114 C 866.652 -3.78722 4.8087 0
M  V30 9115 N 865.789 -4.98303 4.94609 0
M  V30 9116 H 870.629 -1.05847 2.78569 0
M  V30 9117 H 868.166 -0.511469 1.37922 0
M  V30 9118 H 870.124 -3.48817 2.28872 0
M  V30 9119 H 868.754 -2.966 1.2739 0
M  V30 9120 H 867.806 -1.76038 3.37216 0
M  V30 9121 H 869.118 -2.50056 4.31594 0
M  V30 9122 H 868.272 -4.78291 3.7326 0
M  V30 9123 H 867.011 -4.06957 2.6877 0
M  V30 9124 H 866.016 -2.89769 4.67241 0
M  V30 9125 H 867.241 -3.64242 5.73153 0
M  V30 9126 H 865.187 -5.14725 4.06687 0
M  V30 9127 H 865.104 -4.87675 5.77676 0
M  V30 9128 H 866.372 -5.87225 5.12628 0
M  V30 9129 N 870.601 -1.47988 -0.541979 0
M  V30 9130 C 871.849 -1.55086 -1.29587 0
M  V30 9131 C 872.17 -0.221304 -1.9374 0
M  V30 9132 O 871.44 0.756128 -1.80719 0
M  V30 9133 H 870.02 -0.571307 -0.481266 0
M  V30 9134 H 872.682 -1.8438 -0.631675 0
M  V30 9135 H 871.778 -2.32556 -2.08144 0
M  V30 9136 N 872.079 0.78992 -1.36375 0
M  V30 9137 C 873.328 1.54296 -1.29906 0
M  V30 9138 C 873.641 1.95234 0.119651 0
M  V30 9139 O 874.847 2.69762 0.306708 0
M  V30 9140 C 873.303 2.78533 -2.27919 0
M  V30 9141 C 872.911 2.44767 -3.75224 0
M  V30 9142 C 874.655 3.56516 -2.30427 0
M  V30 9143 C 872.562 3.65397 -4.65015 0
M  V30 9144 H 871.492 0.579214 -0.482729 0
M  V30 9145 H 874.143 0.866845 -1.61735 0
M  V30 9146 H 872.525 3.47941 -1.89084 0
M  V30 9147 H 873.699 1.83259 -4.22792 0
M  V30 9148 H 872.014 1.79996 -3.75487 0
M  V30 9149 H 874.611 4.46143 -2.94722 0
M  V30 9150 H 874.954 3.95063 -1.31266 0
M  V30 9151 H 875.487 2.94087 -2.67876 0
M  V30 9152 H 872.226 3.31946 -5.65236 0
M  V30 9153 H 871.746 4.26072 -4.22164 0
M  V30 9154 H 873.425 4.32431 -4.81261 0
M  V30 9155 N 873.557 1.20646 1.01402 0
M  V30 9156 C 874.49 0.900926 2.09663 0
M  V30 9157 C 875.468 -0.14801 1.61925 0
M  V30 9158 O 876.652 -0.0210235 1.88488 0
M  V30 9159 C 873.779 0.351097 3.36875 0
M  V30 9160 C 872.825 1.38142 4.03508 0
M  V30 9161 S 873.658 2.94741 4.47089 0
M  V30 9162 C 874.814 2.41341 5.77499 0
M  V30 9163 H 875.047 1.81773 2.35257 0
M  V30 9164 H 872.58 1.03521 1.14555 0
M  V30 9165 H 874.538 0.0404201 4.1048 0
M  V30 9166 H 873.199 -0.544255 3.09349 0
M  V30 9167 H 872.392 0.94614 4.9504 0
M  V30 9168 H 871.994 1.63971 3.36139 0
M  V30 9169 H 874.286 1.81263 6.52802 0
M  V30 9170 H 875.229 3.31278 6.25828 0
M  V30 9171 H 875.637 1.83374 5.33886 0
M  V30 9172 N 875.035 -1.20752 1.01276 0
M  V30 9173 C 875.967 -2.22798 0.537917 0
M  V30 9174 C 876.98 -1.5836 -0.377638 0
M  V30 9175 O 878.169 -1.77624 -0.176599 0
M  V30 9176 C 875.269 -3.38068 -0.237364 0
M  V30 9177 C 874.442 -4.32095 0.679161 0
M  V30 9178 C 873.501 -5.26178 -0.0478676 0
M  V30 9179 O 872.527 -5.66305 0.573366 0
M  V30 9180 N 873.729 -5.65201 -1.32396 0
M  V30 9181 H 876.494 -2.64166 1.4155 0
M  V30 9182 H 874.055 -1.35254 0.889826 0
M  V30 9183 H 876.047 -3.98009 -0.73288 0
M  V30 9184 H 874.617 -2.95622 -1.0162 0
M  V30 9185 H 873.837 -3.70179 1.35505 0
M  V30 9186 H 875.125 -4.91842 1.30263 0
M  V30 9187 H 874.523 -5.34606 -1.84968 0
M  V30 9188 H 873.08 -6.27468 -1.76428 0
M  V30 9189 N 876.513 -0.788492 -1.36457 0
M  V30 9190 C 877.759 -0.360995 -1.99561 0
M  V30 9191 C 878.092 1.06433 -1.62437 0
M  V30 9192 O 877.367 1.7352 -0.878705 0
M  V30 9193 C 877.65 -0.523735 -3.56271 0
M  V30 9194 C 877.503 -1.99268 -4.03252 0
M  V30 9195 C 878.822 0.0617908 -4.40057 0
M  V30 9196 H 875.941 -0.13264 -0.724966 0
M  V30 9197 H 878.583 -0.994659 -1.61884 0
M  V30 9198 H 876.733 0.0156979 -3.88497 0
M  V30 9199 H 878.405 -2.59311 -3.81518 0
M  V30 9200 H 876.648 -2.49561 -3.54826 0
M  V30 9201 H 877.319 -2.05752 -5.12221 0
M  V30 9202 H 879.795 -0.398674 -4.14186 0
M  V30 9203 H 878.671 -0.0821089 -5.48839 0
M  V30 9204 H 878.932 1.15381 -4.26778 0
M  V30 9205 N 877.991 1.48044 -0.54043 0
M  V30 9206 C 879.239 2.02097 -0.0101367 0
M  V30 9207 C 879.56 1.41881 1.33771 0
M  V30 9208 O 878.83 0.587923 1.8687 0
M  V30 9209 H 877.41 0.747 -0.000758716 0
M  V30 9210 H 880.072 1.81639 -0.706634 0
M  V30 9211 H 879.168 3.11969 0.0904474 0
M  V30 9212 N 879.47 0.276058 1.55163 0
M  V30 9213 C 880.417 -0.611006 2.22565 0
M  V30 9214 C 881.387 -1.14902 1.19945 0
M  V30 9215 O 882.572 -1.19815 1.48489 0
M  V30 9216 C 879.712 -1.78885 2.95117 0
M  V30 9217 C 878.825 -1.2846 4.12458 0
M  V30 9218 C 877.96 -2.42432 4.72652 0
M  V30 9219 C 876.999 -1.89015 5.82185 0
M  V30 9220 N 876.136 -2.96463 6.36439 0
M  V30 9221 H 880.976 -0.0295849 2.97985 0
M  V30 9222 H 878.513 -0.00283607 1.471 0
M  V30 9223 H 880.471 -2.48121 3.35398 0
M  V30 9224 H 879.101 -2.34229 2.22119 0
M  V30 9225 H 878.153 -0.485312 3.77292 0
M  V30 9226 H 879.465 -0.853358 4.91446 0
M  V30 9227 H 878.619 -3.19659 5.15658 0
M  V30 9228 H 877.358 -2.88872 3.92943 0
M  V30 9229 H 876.363 -1.10267 5.38629 0
M  V30 9230 H 877.588 -1.43509 6.63763 0
M  V30 9231 H 875.534 -3.42283 5.59623 0
M  V30 9232 H 875.451 -2.57759 7.10701 0
M  V30 9233 H 876.719 -3.73663 6.84103 0
M  V30 9234 N 880.948 -1.576 0.00335426 0
M  V30 9235 C 882.364 -1.55653 -0.352766 0
M  V30 9236 C 882.564 -1.00632 -1.74572 0
M  V30 9237 O 881.62 -0.641621 -2.44212 0
M  V30 9238 C 882.933 -2.99858 -0.224929 0
M  V30 9239 C 884.481 -3.11563 -0.299619 0
M  V30 9240 C 884.956 -4.57559 -0.200868 0
M  V30 9241 N 886.447 -4.62477 -0.258663 0
M  V30 9242 C 887.182 -5.73031 -0.205644 0
M  V30 9243 N 886.678 -6.92723 -0.103027 0
M  V30 9244 N 888.471 -5.61509 -0.257754 0
M  V30 9245 H 880.622 -1.91703 0.914539 0
M  V30 9246 H 882.885 -0.88068 0.350865 0
M  V30 9247 H 882.591 -3.43964 0.733595 0
M  V30 9248 H 882.465 -3.63547 -1.00564 0
M  V30 9249 H 884.852 -2.67384 -1.24859 0
M  V30 9250 H 884.933 -2.50644 0.511025 0
M  V30 9251 H 884.577 -5.02413 0.744572 0
M  V30 9252 H 884.507 -5.16428 -1.03004 0
M  V30 9253 H 886.998 -3.76375 -0.339168 0
M  V30 9254 H 887.311 -7.7277 -0.0685593 0
M  V30 9255 H 885.656 -6.94966 -0.0686069 0
M  V30 9256 H 888.847 -4.66892 -0.336142 0
M  V30 9257 H 889.02 -6.4765 -0.21297 0
M  V30 9258 N 882.426 0.269451 -1.5528 0
M  V30 9259 C 883.651 1.02299 -1.80415 0
M  V30 9260 C 884.076 1.7902 -0.577363 0
M  V30 9261 O 883.434 1.75018 0.473125 0
M  V30 9262 C 883.482 1.95445 -3.0304 0
M  V30 9263 O 882.586 3.04271 -2.78375 0
M  V30 9264 H 881.927 0.292289 -0.596207 0
M  V30 9265 H 884.457 0.297282 -2.02429 0
M  V30 9266 H 884.467 2.37333 -3.31869 0
M  V30 9267 H 883.142 1.39017 -3.91978 0
M  V30 9268 H 881.719 2.66673 -2.60653 0
M  V30 9269 N 883.904 1.48273 0.534124 0
M  V30 9270 C 884.834 1.6538 1.64839 0
M  V30 9271 C 885.815 0.502741 1.62501 0
M  V30 9272 O 887 0.734799 1.79762 0
M  V30 9273 C 884.13 1.68949 3.03436 0
M  V30 9274 C 883.084 2.83513 3.20631 0
M  V30 9275 C 882.41 2.72169 4.60248 0
M  V30 9276 C 883.71 4.24858 3.03797 0
M  V30 9277 H 885.404 2.58663 1.50777 0
M  V30 9278 H 882.95 1.24479 0.723937 0
M  V30 9279 H 884.903 1.79505 3.81256 0
M  V30 9280 H 883.627 0.722415 3.1851 0
M  V30 9281 H 882.286 2.72505 2.45227 0
M  V30 9282 H 881.934 1.7344 4.72152 0
M  V30 9283 H 881.634 3.49042 4.72698 0
M  V30 9284 H 883.158 2.84687 5.40172 0
M  V30 9285 H 884.572 4.36721 3.71413 0
M  V30 9286 H 882.969 5.02697 3.27743 0
M  V30 9287 H 884.039 4.41611 2.0027 0
M  V30 9288 N 885.382 -0.782676 1.36792 0
M  V30 9289 C 886.798 -1.08169 1.17352 0
M  V30 9290 C 886.998 -2.015 0.0022037 0
M  V30 9291 O 886.054 -2.43692 -0.661093 0
M  V30 9292 C 887.367 -1.68969 2.48737 0
M  V30 9293 C 888.915 -1.81278 2.55161 0
M  V30 9294 C 889.39 -2.45492 3.86649 0
M  V30 9295 N 890.881 -2.52954 3.88032 0
M  V30 9296 C 891.616 -3.03465 4.86515 0
M  V30 9297 N 891.112 -3.54232 5.95392 0
M  V30 9298 N 892.905 -3.02239 4.73928 0
M  V30 9299 H 885.056 -0.162757 2.11775 0
M  V30 9300 H 887.319 -0.134823 0.938364 0
M  V30 9301 H 887.025 -1.07859 3.34753 0
M  V30 9302 H 886.899 -2.68397 2.65034 0
M  V30 9303 H 889.286 -2.41524 1.69559 0
M  V30 9304 H 889.367 -0.806367 2.42758 0
M  V30 9305 H 889.011 -1.85889 4.7266 0
M  V30 9306 H 888.941 -3.46718 3.96351 0
M  V30 9307 H 891.432 -2.17014 3.09376 0
M  V30 9308 H 891.745 -3.91145 6.66503 0
M  V30 9309 H 890.09 -3.52366 5.99052 0
M  V30 9310 H 893.281 -2.61871 3.87996 0
M  V30 9311 H 893.454 -3.41295 5.50837 0
M  V30 9312 N 886.86 -1.21182 -1.00761 0
M  V30 9313 C 888.271 -1.02652 -1.55947 0
M  V30 9314 C 888.622 0.414466 -1.91772 0
M  V30 9315 O 887.747 1.29727 -1.73204 0
M  V30 9316 C 888.342 -1.85713 -2.83366 0
M  V30 9317 C 886.901 -1.71523 -3.35048 0
M  V30 9318 C 886.048 -1.83087 -2.08265 0
M  V30 9319 H 888.999 -1.35242 -0.830379 0
M  V30 9320 H 889.02 -1.36583 -3.55141 0
M  V30 9321 H 888.532 -2.90584 -2.5726 0
M  V30 9322 H 886.633 -0.693257 -3.66094 0
M  V30 9323 H 886.746 -2.53333 -4.06644 0
M  V30 9324 H 885.11 -1.26367 -2.21141 0
M  V30 9325 H 885.893 -2.8946 -1.84575 0
M  V30 9326 N 888.338 1.20213 -1.01915 0
M  V30 9327 C 889.27 2.2251 -0.549725 0
M  V30 9328 C 890.283 1.58558 0.369235 0
M  V30 9329 O 891.472 1.77715 0.167176 0
M  V30 9330 C 888.572 3.38189 0.219432 0
M  V30 9331 C 887.745 4.31729 -0.702066 0
M  V30 9332 C 886.804 5.26196 0.0199624 0
M  V30 9333 O 885.83 5.65993 -0.60339 0
M  V30 9334 N 887.032 5.65895 1.29397 0
M  V30 9335 H 889.797 2.63412 -1.42948 0
M  V30 9336 H 887.358 1.3478 -0.896987 0
M  V30 9337 H 889.35 3.98392 0.711763 0
M  V30 9338 H 887.92 2.96156 1.00051 0
M  V30 9339 H 887.14 3.69455 -1.37466 0
M  V30 9340 H 888.428 4.91145 -1.3287 0
M  V30 9341 H 887.826 5.35579 1.8213 0
M  V30 9342 H 886.383 6.28395 1.73098 0
M  V30 9343 N 889.816 0.795718 1.36037 0
M  V30 9344 C 891.227 0.433379 1.816 0
M  V30 9345 C 891.578 -1.04341 1.66155 0
M  V30 9346 O 890.703 -1.81004 1.18603 0
M  V30 9347 C 891.298 0.77985 3.29703 0
M  V30 9348 C 889.857 0.470256 3.73451 0
M  V30 9349 C 889.004 1.01119 2.58206 0
M  V30 9350 H 891.955 0.988317 1.24169 0
M  V30 9351 H 891.976 0.0732898 3.80429 0
M  V30 9352 H 891.488 1.85473 3.40913 0
M  V30 9353 H 889.589 -0.596332 3.67797 0
M  V30 9354 H 889.702 0.995276 4.68648 0
M  V30 9355 H 888.066 0.434077 2.50974 0
M  V30 9356 H 888.849 2.09196 2.72198 0
M  V30 9357 N 891.294 -1.47756 0.548274 0
M  V30 9358 C 892.522 -2.06884 0.0254873 0
M  V30 9359 C 892.937 -1.40225 -1.26422 0
M  V30 9360 O 892.294 -0.495776 -1.75637 0
M  V30 9361 C 892.345 -3.61036 -0.183134 0
M  V30 9362 O 892.066 -4.25195 1.05549 0
M  V30 9363 C 893.567 -4.37008 -0.744222 0
M  V30 9364 H 890.787 -0.669697 0.041789 0
M  V30 9365 H 893.331 -1.89888 0.759138 0
M  V30 9366 H 891.486 -3.77576 -0.866886 0
M  V30 9367 H 891.9 -5.17606 0.847629 0
M  V30 9368 H 893.374 -5.45579 -0.839529 0
M  V30 9369 H 893.851 -4.0268 -1.75344 0
M  V30 9370 H 894.457 -4.25191 -0.0964542 0
M  V30 9371 N 892.772 -0.284283 -1.55015 0
M  V30 9372 C 893.682 0.60906 -2.26556 0
M  V30 9373 C 894.698 1.16246 -1.29472 0
M  V30 9374 O 895.874 1.1908 -1.62425 0
M  V30 9375 C 892.939 1.77246 -2.97968 0
M  V30 9376 C 892 1.25482 -4.10552 0
M  V30 9377 C 891.233 2.36277 -4.78549 0
M  V30 9378 O 891.456 3.55829 -4.45805 0
M  V30 9379 O 890.39 2.03914 -5.66306 0
M  V30 9380 H 894.216 0.0292298 -3.03686 0
M  V30 9381 H 891.801 -0.0513466 -1.49312 0
M  V30 9382 H 893.683 2.45062 -3.42815 0
M  V30 9383 H 892.358 2.33921 -2.23747 0
M  V30 9384 H 891.265 0.542859 -3.7014 0
M  V30 9385 H 892.598 0.733708 -4.86701 0
M  V30 9386 N 894.251 1.57596 -0.0117121 0
M  V30 9387 C 895.181 2.12188 0.9746 0
M  V30 9388 C 896.162 1.03379 1.35081 0
M  V30 9389 O 897.347 1.31123 1.4325 0
M  V30 9390 C 894.477 2.63477 2.26268 0
M  V30 9391 C 893.431 3.76917 2.02774 0
M  V30 9392 C 892.757 4.14566 3.37697 0
M  V30 9393 C 894.057 5.03715 1.38089 0
M  V30 9394 H 895.751 2.9485 0.520007 0
M  V30 9395 H 893.297 1.41836 0.248685 0
M  V30 9396 H 895.25 3.00299 2.95633 0
M  V30 9397 H 893.974 1.77953 2.73862 0
M  V30 9398 H 892.633 3.40507 1.35832 0
M  V30 9399 H 892.281 3.26048 3.83016 0
M  V30 9400 H 891.981 4.91 3.22789 0
M  V30 9401 H 893.505 4.53956 4.08358 0
M  V30 9402 H 894.919 5.38233 1.97428 0
M  V30 9403 H 893.316 5.85032 1.33634 0
M  V30 9404 H 894.386 4.83624 0.351575 0
M  V30 9405 N 895.729 -0.261212 1.5542 0
M  V30 9406 C 897.145 -0.609012 1.47524 0
M  V30 9407 C 897.345 -1.88986 0.699042 0
M  V30 9408 O 896.401 -2.51517 0.222628 0
M  V30 9409 C 897.714 -0.725025 2.91828 0
M  V30 9410 C 899.262 -0.818302 3.02114 0
M  V30 9411 C 899.737 -0.965996 4.47697 0
M  V30 9412 N 901.228 -1.03123 4.51575 0
M  V30 9413 C 901.963 -1.16451 5.6145 0
M  V30 9414 N 901.459 -1.26425 6.81167 0
M  V30 9415 N 903.252 -1.19655 5.49217 0
M  V30 9416 H 895.403 0.579807 2.04333 0
M  V30 9417 H 897.666 0.198072 0.927077 0
M  V30 9418 H 897.372 0.145871 3.51397 0
M  V30 9419 H 897.246 -1.60156 3.41511 0
M  V30 9420 H 899.633 -1.67966 2.42634 0
M  V30 9421 H 899.714 0.0830895 2.55665 0
M  V30 9422 H 899.358 -0.109251 5.07782 0
M  V30 9423 H 899.288 -1.88221 4.91813 0
M  V30 9424 H 901.779 -0.966072 3.65343 0
M  V30 9425 H 902.092 -1.36462 7.60656 0
M  V30 9426 H 900.437 -1.23408 6.83956 0
M  V30 9427 H 903.628 -1.11501 4.54626 0
M  V30 9428 H 903.801 -1.29698 6.34888 0
M  V30 9429 N 897.207 -1.48554 -0.526253 0
M  V30 9430 C 898.437 -1.60197 -1.30463 0
M  V30 9431 C 898.845 -0.26278 -1.87366 0
M  V30 9432 O 898.188 0.758537 -1.67308 0
M  V30 9433 C 898.25 -2.59223 -2.49085 0
M  V30 9434 C 897.914 -4.04199 -2.13241 0
M  V30 9435 C 898.911 -4.91771 -1.68694 0
M  V30 9436 C 896.596 -4.49762 -2.2365 0
M  V30 9437 C 898.59 -6.22934 -1.35026 0
M  V30 9438 C 896.277 -5.80945 -1.89594 0
M  V30 9439 C 897.275 -6.67354 -1.45353 0
M  V30 9440 O 896.963 -7.96096 -1.11745 0
M  V30 9441 H 896.695 -0.54284 -0.402866 0
M  V30 9442 H 899.249 -1.95137 -0.641157 0
M  V30 9443 H 897.479 -2.19412 -3.18426 0
M  V30 9444 H 899.168 -2.60661 -3.11144 0
M  V30 9445 H 899.934 -4.57806 -1.6012 0
M  V30 9446 H 895.813 -3.8269 -2.5704 0
M  V30 9447 H 899.357 -6.90334 -1.00422 0
M  V30 9448 H 895.254 -6.14444 -1.9781 0
M  V30 9449 H 896.022 -8.08882 -1.25111 0
M  V30 9450 N 898.685 0.775411 -1.37205 0
M  V30 9451 C 899.91 1.5696 -1.35567 0
M  V30 9452 C 900.335 1.88012 0.0575554 0
M  V30 9453 O 899.693 1.48954 1.03355 0
M  V30 9454 C 899.741 2.85886 -2.19776 0
M  V30 9455 O 898.845 3.80103 -1.59987 0
M  V30 9456 H 898.186 0.475583 -0.463375 0
M  V30 9457 H 900.716 0.96001 -1.80679 0
M  V30 9458 H 900.726 3.35024 -2.32859 0
M  V30 9459 H 899.401 2.62613 -3.22502 0
M  V30 9460 H 897.978 3.38736 -1.55924 0
M  V30 9461 N 900.163 1.21714 1.00117 0
M  V30 9462 C 901.409 1.04829 1.74306 0
M  V30 9463 C 901.764 -0.413387 1.87907 0
M  V30 9464 O 901.057 -1.30258 1.40512 0
M  V30 9465 C 901.251 1.68345 3.15269 0
M  V30 9466 C 901.08 3.20537 3.15414 0
M  V30 9467 C 899.85 3.896 3.21776 0
M  V30 9468 C 902.048 4.17576 3.00224 0
M  V30 9469 N 900.03 5.28949 3.11587 0
M  V30 9470 C 901.401 5.43701 2.97974 0
M  V30 9471 C 903.456 4.08575 2.84554 0
M  V30 9472 C 902.159 6.61861 2.8166 0
M  V30 9473 C 904.185 5.26375 2.69598 0
M  V30 9474 C 903.547 6.51414 2.68028 0
M  V30 9475 H 899.646 0.437964 0.647852 0
M  V30 9476 H 902.23 1.54128 1.18965 0
M  V30 9477 H 900.401 1.21607 3.68872 0
M  V30 9478 H 902.133 1.44629 3.77974 0
M  V30 9479 H 898.888 3.40548 3.29126 0
M  V30 9480 H 899.312 6.01945 3.09825 0
M  V30 9481 H 903.954 3.12696 2.84571 0
M  V30 9482 H 901.672 7.57896 2.8039 0
M  V30 9483 H 905.258 5.21235 2.58468 0
M  V30 9484 H 904.138 7.41033 2.56593 0
M  V30 9485 N 901.641 -1.19671 1.02551 0
M  V30 9486 C 902.588 -2.22773 0.603394 0
M  V30 9487 C 903.558 -1.61669 -0.381081 0
M  V30 9488 O 904.743 -1.88756 -0.278505 0
M  V30 9489 C 901.883 -3.45073 -0.0431034 0
M  V30 9490 C 900.996 -4.20574 0.987006 0
M  V30 9491 C 900.131 -5.30291 0.310626 0
M  V30 9492 C 899.17 -5.97545 1.32688 0
M  V30 9493 N 898.307 -6.98833 0.676542 0
M  V30 9494 H 903.147 -2.58238 1.48719 0
M  V30 9495 H 900.684 -1.26881 0.744286 0
M  V30 9496 H 902.642 -4.14925 -0.435141 0
M  V30 9497 H 901.272 -3.10274 -0.890495 0
M  V30 9498 H 900.324 -3.497 1.49713 0
M  V30 9499 H 901.636 -4.66736 1.75952 0
M  V30 9500 H 900.79 -6.06547 -0.136438 0
M  V30 9501 H 899.529 -4.8519 -0.49412 0
M  V30 9502 H 898.534 -5.20043 1.78424 0
M  V30 9503 H 899.759 -6.4473 2.13306 0
M  V30 9504 H 897.705 -6.55911 -0.108172 0
M  V30 9505 H 897.622 -7.43168 1.38699 0
M  V30 9506 H 898.89 -7.79088 0.253367 0
M  V30 9507 N 903.119 -0.802921 -1.35613 0
M  V30 9508 C 904.347 -0.39393 -2.03115 0
M  V30 9509 C 904.762 0.993961 -1.60517 0
M  V30 9510 O 904.119 1.63984 -0.800973 0
M  V30 9511 C 904.17 -0.463486 -3.58516 0
M  V30 9512 O 903.891 -1.79666 -3.99565 0
M  V30 9513 C 905.392 -0.0468377 -4.43275 0
M  V30 9514 H 902.612 -0.160519 -0.651517 0
M  V30 9515 H 905.156 -1.08552 -1.73311 0
M  V30 9516 H 903.311 0.179821 -3.86982 0
M  V30 9517 H 903.725 -1.75688 -4.942 0
M  V30 9518 H 905.199 -0.146626 -5.51805 0
M  V30 9519 H 905.676 1.00741 -4.2749 0
M  V30 9520 H 906.282 -0.663158 -4.20098 0
M  V30 9521 N 904.597 1.47463 -0.556102 0
M  V30 9522 C 905.843 2.03361 -0.039909 0
M  V30 9523 C 906.198 1.42292 1.29502 0
M  V30 9524 O 905.491 0.568813 1.82962 0
M  V30 9525 C 905.685 3.57224 0.112126 0
M  V30 9526 C 905.514 4.33213 -1.20652 0
M  V30 9527 C 904.284 4.73153 -1.77352 0
M  V30 9528 C 906.482 4.68415 -2.12348 0
M  V30 9529 N 904.464 5.33781 -3.03233 0
M  V30 9530 C 905.835 5.29334 -3.22808 0
M  V30 9531 C 907.89 4.50344 -2.12356 0
M  V30 9532 C 906.593 5.7409 -4.33374 0
M  V30 9533 C 908.619 4.96098 -3.21933 0
M  V30 9534 C 907.981 5.57065 -4.31112 0
M  V30 9535 H 904.08 0.779939 -0.0567407 0
M  V30 9536 H 906.664 1.79959 -0.743147 0
M  V30 9537 H 904.835 3.80395 0.784485 0
M  V30 9538 H 906.567 3.99762 0.630285 0
M  V30 9539 H 903.322 4.55074 -1.31165 0
M  V30 9540 H 903.746 5.6864 -3.67393 0
M  V30 9541 H 908.388 4.02566 -1.29229 0
M  V30 9542 H 906.106 6.2086 -5.17261 0
M  V30 9543 H 909.692 4.83887 -3.23024 0
M  V30 9544 H 908.572 5.91824 -5.14504 0
M  V30 9545 N 906.075 0.2925 1.54862 0
M  V30 9546 C 907.323 -0.318633 1.99572 0
M  V30 9547 C 907.644 -1.55062 1.1824 0
M  V30 9548 O 906.914 -1.93943 0.276226 0
M  V30 9549 H 905.494 -0.120722 0.737181 0
M  V30 9550 H 908.156 0.401862 1.90712 0
M  V30 9551 H 907.252 -0.596542 3.06346 0
M  V30 9552 N 907.553 -1.57587 0.0200696 0
M  V30 9553 C 908.5 -2.09667 -0.964791 0
M  V30 9554 C 909.47 -0.99664 -1.32877 0
M  V30 9555 O 910.655 -1.2703 -1.42366 0
M  V30 9556 C 907.795 -2.62101 -2.24493 0
M  V30 9557 C 906.908 -3.8608 -1.93821 0
M  V30 9558 C 906.043 -4.26939 -3.16064 0
M  V30 9559 C 905.082 -5.43701 -2.81169 0
M  V30 9560 N 904.219 -5.79759 -3.9601 0
M  V30 9561 H 909.059 -2.93538 -0.513751 0
M  V30 9562 H 906.596 -1.45096 -0.242 0
M  V30 9563 H 908.554 -2.90587 -2.99358 0
M  V30 9564 H 907.184 -1.81074 -2.6723 0
M  V30 9565 H 906.236 -3.64378 -1.09237 0
M  V30 9566 H 907.548 -4.71028 -1.64115 0
M  V30 9567 H 906.702 -4.56814 -3.99257 0
M  V30 9568 H 905.441 -3.40739 -3.48924 0
M  V30 9569 H 904.446 -5.13529 -1.96387 0
M  V30 9570 H 905.671 -6.31593 -2.49535 0
M  V30 9571 H 903.617 -4.96516 -4.28729 0
M  V30 9572 H 903.534 -6.59327 -3.69896 0
M  V30 9573 H 904.802 -6.14235 -4.79933 0
M  V30 9574 N 909.032 0.252966 -1.55557 0
M  V30 9575 C 909.995 1.29645 -1.8901 0
M  V30 9576 C 910.995 1.41378 -0.766096 0
M  V30 9577 O 912.185 1.40183 -1.03414 0
M  V30 9578 C 909.317 2.67504 -2.11316 0
M  V30 9579 H 910.51 1.01202 -2.82309 0
M  V30 9580 H 908.063 0.491977 -1.48355 0
M  V30 9581 H 908.798 3.01095 -1.20466 0
M  V30 9582 H 908.583 2.6037 -2.93172 0
M  V30 9583 H 910.073 3.42861 -2.38403 0
M  V30 9584 N 910.51 1.48831 0.518367 0
M  V30 9585 C 911.457 1.64216 1.62178 0
M  V30 9586 C 912.427 0.483942 1.58894 0
M  V30 9587 O 913.612 0.708857 1.77144 0
M  V30 9588 C 910.752 1.69867 3.00399 0
M  V30 9589 C 909.865 2.96875 3.1383 0
M  V30 9590 C 909 2.93613 4.42679 0
M  V30 9591 C 908.039 4.15276 4.4968 0
M  V30 9592 N 907.176 4.10024 5.69934 0
M  V30 9593 H 912.016 2.58439 1.48368 0
M  V30 9594 H 909.553 1.28154 0.722152 0
M  V30 9595 H 911.511 1.71124 3.8049 0
M  V30 9596 H 910.141 0.791249 3.12952 0
M  V30 9597 H 909.193 3.0531 2.26914 0
M  V30 9598 H 910.505 3.86863 3.14863 0
M  V30 9599 H 909.659 2.93337 5.31073 0
M  V30 9600 H 908.398 2.01375 4.44184 0
M  V30 9601 H 907.403 4.15816 3.59691 0
M  V30 9602 H 908.628 5.08687 4.49904 0
M  V30 9603 H 906.574 3.20613 5.72314 0
M  V30 9604 H 906.491 4.93728 5.72511 0
M  V30 9605 H 907.759 4.13824 6.60583 0
M  V30 9606 N 911.988 -0.768124 1.37614 0
M  V30 9607 C 912.921 -1.88894 1.2804 0
M  V30 9608 C 913.899 -1.61809 0.160226 0
M  V30 9609 O 915.083 -1.85498 0.33506 0
M  V30 9610 C 912.21 -3.24197 0.980523 0
M  V30 9611 C 911.256 -3.70188 2.11808 0
M  V30 9612 S 912.089 -3.83433 3.73817 0
M  V30 9613 C 913.245 -5.21578 3.45987 0
M  V30 9614 H 913.478 -1.96726 2.22904 0
M  V30 9615 H 911.011 -0.929602 1.23279 0
M  V30 9616 H 912.969 -4.02342 0.814331 0
M  V30 9617 H 911.63 -3.14061 0.0493122 0
M  V30 9618 H 910.823 -4.6829 1.86335 0
M  V30 9619 H 910.425 -2.99155 2.2446 0
M  V30 9620 H 912.717 -6.06865 3.012 0
M  V30 9621 H 913.66 -5.52065 4.43429 0
M  V30 9622 H 914.068 -4.89687 2.80832 0
M  V30 9623 N 913.466 -1.22244 -0.994698 0
M  V30 9624 C 914.396 -1.01513 -2.10279 0
M  V30 9625 C 915.377 0.0633365 -1.69982 0
M  V30 9626 O 916.562 -0.0985268 -1.9395 0
M  V30 9627 C 913.692 -0.59016 -3.42249 0
M  V30 9628 C 912.646 -1.61436 -3.96387 0
M  V30 9629 C 911.972 -1.04528 -5.24383 0
M  V30 9630 C 913.272 -3.00388 -4.27276 0
M  V30 9631 H 914.966 -1.94194 -2.2788 0
M  V30 9632 H 912.512 -0.935094 -1.09508 0
M  V30 9633 H 914.465 -0.432254 -4.19177 0
M  V30 9634 H 913.189 0.372308 -3.24471 0
M  V30 9635 H 911.848 -1.76001 -3.21589 0
M  V30 9636 H 911.496 -0.0742225 -5.02945 0
M  V30 9637 H 911.196 -1.72949 -5.61571 0
M  V30 9638 H 912.72 -0.898922 -6.03947 0
M  V30 9639 H 914.134 -2.89207 -4.95007 0
M  V30 9640 H 912.531 -3.65916 -4.75631 0
M  V30 9641 H 913.601 -3.50456 -3.35125 0
M  V30 9642 N 914.944 1.19125 -1.03184 0
M  V30 9643 C 916.169 1.93379 -0.749628 0
M  V30 9644 C 916.594 1.75153 0.685785 0
M  V30 9645 O 915.952 1.05579 1.47386 0
M  V30 9646 C 916 3.43101 -1.1097 0
M  V30 9647 O 915.104 4.11758 -0.230053 0
M  V30 9648 H 914.445 0.603605 -0.276689 0
M  V30 9649 H 916.975 1.51116 -1.37931 0
M  V30 9650 H 916.985 3.93778 -1.06785 0
M  V30 9651 H 915.66 3.55688 -2.15544 0
M  V30 9652 H 914.237 3.7143 -0.330748 0
M  V30 9653 N 916.422 0.810101 1.35185 0
M  V30 9654 C 917.65 0.404696 2.02903 0
M  V30 9655 C 918.065 -0.985434 1.61042 0
M  V30 9656 O 917.422 -1.63557 0.809658 0
M  V30 9657 C 917.473 0.482493 3.58266 0
M  V30 9658 O 917.194 1.81782 3.98606 0
M  V30 9659 C 918.695 0.070345 4.43244 0
M  V30 9660 H 915.915 0.163972 0.650657 0
M  V30 9661 H 918.459 1.0947 1.72733 0
M  V30 9662 H 916.614 -0.159296 3.87072 0
M  V30 9663 H 917.028 1.78306 4.93262 0
M  V30 9664 H 918.502 0.175888 5.5172 0
M  V30 9665 H 918.979 -0.984724 4.28018 0
M  V30 9666 H 919.585 0.685427 4.1974 0
M  V30 9667 N 917.9 -1.47166 0.563914 0
M  V30 9668 C 918.81 -2.33885 -0.182977 0
M  V30 9669 C 919.826 -1.48605 -0.905132 0
M  V30 9670 O 921.002 -1.81518 -0.872527 0
M  V30 9671 C 918.067 -3.25433 -1.19558 0
M  V30 9672 C 917.128 -4.26607 -0.480129 0
M  V30 9673 C 916.361 -5.1378 -1.44449 0
M  V30 9674 O 916.584 -5.03531 -2.67979 0
M  V30 9675 O 915.518 -5.94109 -0.965321 0
M  V30 9676 H 919.344 -2.99065 0.528544 0
M  V30 9677 H 916.929 -1.45834 0.324468 0
M  V30 9678 H 918.811 -3.81964 -1.77993 0
M  V30 9679 H 917.486 -2.62873 -1.8889 0
M  V30 9680 H 916.393 -3.73817 0.145583 0
M  V30 9681 H 917.726 -4.919 0.171868 0
M  V30 9682 N 919.378 -0.300708 -1.54705 0
M  V30 9683 C 920.308 0.568675 -2.26469 0
M  V30 9684 C 921.289 1.13817 -1.26411 0
M  V30 9685 O 922.474 1.16756 -1.55183 0
M  V30 9686 C 919.604 1.74077 -3.00524 0
M  V30 9687 C 918.558 1.30165 -4.07727 0
M  V30 9688 C 917.884 2.55888 -4.69495 0
M  V30 9689 C 919.184 0.433106 -5.20501 0
M  V30 9690 H 920.878 -0.0298851 -2.99385 0
M  V30 9691 H 918.424 -0.0158135 -1.43991 0
M  V30 9692 H 920.377 2.35506 -3.49449 0
M  V30 9693 H 919.101 2.36556 -2.25186 0
M  V30 9694 H 917.76 0.710414 -3.59651 0
M  V30 9695 H 917.408 3.16681 -3.90797 0
M  V30 9696 H 917.108 2.27207 -5.41895 0
M  V30 9697 H 918.632 3.18121 -5.21183 0
M  V30 9698 H 920.046 0.95307 -5.65322 0
M  V30 9699 H 918.443 0.240085 -5.9962 0
M  V30 9700 H 919.513 -0.541866 -4.81863 0
M  V30 9701 N 920.856 1.57574 -0.0284266 0
M  V30 9702 C 921.806 2.06674 0.962804 0
M  V30 9703 C 922.79 0.967115 1.28591 0
M  V30 9704 O 923.982 1.23068 1.27214 0
M  V30 9705 C 921.111 2.59682 2.24545 0
M  V30 9706 C 920.197 3.76573 1.95073 0
M  V30 9707 N 920.588 4.8721 1.35869 0
M  V30 9708 C 918.886 3.85046 2.25068 0
M  V30 9709 C 919.587 5.68436 1.23514 0
M  V30 9710 N 918.563 5.15323 1.73041 0
M  V30 9711 H 922.365 2.89615 0.500013 0
M  V30 9712 H 919.879 1.61437 0.176604 0
M  V30 9713 H 921.876 2.93148 2.96428 0
M  V30 9714 H 920.536 1.7817 2.71451 0
M  V30 9715 H 921.547 5.07477 1.03379 0
M  V30 9716 H 918.224 3.14439 2.74653 0
M  V30 9717 H 919.614 6.67387 0.777403 0
M  V30 9718 N 922.334 -0.244713 1.55689 0
M  V30 9719 C 923.282 -1.32276 1.91326 0
M  V30 9720 C 924.276 -1.49714 0.792589 0
M  V30 9721 O 925.482 -1.51163 0.977227 0
M  V30 9722 H 921.857 -0.442979 0.607679 0
M  V30 9723 H 923.828 -0.99486 2.81327 0
M  V30 9724 C 922.577 -2.67077 2.22633 0
M  V30 9725 H 921.9 -2.54458 3.08368 0
M  V30 9726 H 923.34 -3.41378 2.5147 0
M  V30 9727 C 921.799 -3.20335 1.04342 0
M  V30 9728 O 922.329 -4.00633 0.292543 0
M  V30 9729 N 920.535 -2.78392 0.833457 0
M  V30 9730 H 920.082 -2.13202 1.44577 0
M  V30 9731 H 920.04 -3.1437 0.0436713 0
M  V30 9732 N 923.813 -1.49104 -0.510467 0
M  V30 9733 C 924.745 -1.61183 -1.6295 0
M  V30 9734 C 925.758 -0.495003 -1.55092 0
M  V30 9735 O 926.947 -0.766671 -1.61197 0
M  V30 9736 C 924.047 -1.54373 -3.01699 0
M  V30 9737 C 923.22 -2.81428 -3.34838 0
M  V30 9738 C 922.279 -2.67802 -4.52956 0
M  V30 9739 O 921.305 -3.41723 -4.55208 0
M  V30 9740 N 922.507 -1.78715 -5.52305 0
M  V30 9741 H 925.272 -2.57693 -1.53018 0
M  V30 9742 H 922.833 -1.46073 -0.698152 0
M  V30 9743 H 924.825 -1.42924 -3.78622 0
M  V30 9744 H 923.395 -0.657597 -3.05605 0
M  V30 9745 H 922.615 -3.07299 -2.46903 0
M  V30 9746 H 923.903 -3.6568 -3.53773 0
M  V30 9747 H 923.301 -1.17897 -5.53278 0
M  V30 9748 H 921.858 -1.73194 -6.28369 0
M  V30 9749 N 925.291 0.760815 -1.38019 0
M  V30 9750 C 926.519 1.55001 -1.37048 0
M  V30 9751 C 926.934 1.88754 0.0415261 0
M  V30 9752 O 926.291 1.52254 1.00624 0
M  V30 9753 C 926.342 2.8536 -2.21928 0
M  V30 9754 O 926.063 2.53049 -3.57628 0
M  V30 9755 C 927.564 3.79536 -2.29057 0
M  V30 9756 H 924.784 0.479844 -0.469032 0
M  V30 9757 H 927.328 0.942148 -1.81504 0
M  V30 9758 H 925.483 3.42542 -1.80953 0
M  V30 9759 H 925.897 3.36604 -4.02241 0
M  V30 9760 H 927.371 4.67977 -2.92749 0
M  V30 9761 H 927.848 4.19453 -1.30213 0
M  V30 9762 H 928.454 3.28281 -2.70392 0
M  V30 9763 N 926.769 1.22769 0.988202 0
M  V30 9764 C 928.016 1.05509 1.72841 0
M  V30 9765 C 928.344 -0.409145 1.90148 0
M  V30 9766 O 927.599 -1.3195 1.44526 0
M  V30 9767 C 927.898 1.71679 3.13466 0
M  V30 9768 C 927.564 3.21584 3.16061 0
M  V30 9769 C 926.226 3.62486 3.16476 0
M  V30 9770 C 928.578 4.17511 3.11984 0
M  V30 9771 C 925.906 4.97789 3.10521 0
M  V30 9772 C 928.258 5.52796 3.0757 0
M  V30 9773 C 926.922 5.93072 3.06304 0
M  V30 9774 H 926.192 0.386085 0.632471 0
M  V30 9775 H 928.839 1.52596 1.157 0
M  V30 9776 H 927.144 1.1693 3.73945 0
M  V30 9777 H 928.841 1.55809 3.69492 0
M  V30 9778 H 925.431 2.89019 3.1649 0
M  V30 9779 H 929.615 3.86926 3.10809 0
M  V30 9780 H 924.871 5.28218 3.07888 0
M  V30 9781 H 929.045 6.26848 3.03372 0
M  V30 9782 H 926.672 6.97879 3.01444 0
M  V30 9783 N 928.247 -1.18576 1.03814 0
M  V30 9784 C 929.177 -2.24334 0.647795 0
M  V30 9785 C 930.158 -1.66508 -0.34774 0
M  V30 9786 O 931.343 -1.92852 -0.228401 0
M  V30 9787 C 928.473 -3.47299 0.00734922 0
M  V30 9788 C 927.427 -4.17859 0.926152 0
M  V30 9789 C 926.753 -5.34489 0.150317 0
M  V30 9790 C 928.053 -4.71632 2.24411 0
M  V30 9791 H 929.747 -2.57241 1.53191 0
M  V30 9792 H 927.293 -1.23649 0.738028 0
M  V30 9793 H 929.246 -4.20486 -0.277434 0
M  V30 9794 H 927.97 -3.13619 -0.911626 0
M  V30 9795 H 926.629 -3.46567 1.19528 0
M  V30 9796 H 926.277 -4.97056 -0.770985 0
M  V30 9797 H 925.977 -5.82633 0.762407 0
M  V30 9798 H 927.501 -6.10467 -0.127508 0
M  V30 9799 H 928.915 -5.36526 2.02021 0
M  V30 9800 H 927.312 -5.303 2.80894 0
M  V30 9801 H 928.382 -3.89192 2.89236 0
M  V30 9802 N 929.725 -0.817259 -1.34754 0
M  V30 9803 C 930.974 -0.39908 -1.97713 0
M  V30 9804 C 931.287 1.04203 -1.65533 0
M  V30 9805 O 932.493 1.56384 -2.21937 0
M  V30 9806 C 930.949 -0.662634 -3.53747 0
M  V30 9807 C 930.557 -2.11699 -3.94826 0
M  V30 9808 C 932.301 -0.31034 -4.23364 0
M  V30 9809 C 930.208 -2.32573 -5.4375 0
M  V30 9810 H 929.138 -0.145488 -0.739831 0
M  V30 9811 H 931.789 -1.00282 -1.53674 0
M  V30 9812 H 930.171 0.0111972 -3.95998 0
M  V30 9813 H 931.345 -2.82951 -3.63697 0
M  V30 9814 H 929.66 -2.43017 -3.3813 0
M  V30 9815 H 932.257 -0.44421 -5.32852 0
M  V30 9816 H 932.6 0.744594 -4.09587 0
M  V30 9817 H 933.133 -0.938518 -3.8657 0
M  V30 9818 H 929.872 -3.36551 -5.62507 0
M  V30 9819 H 929.392 -1.65858 -5.76412 0
M  V30 9820 H 931.071 -2.14651 -6.10356 0
M  V30 9821 N 931.203 1.46865 -0.571711 0
M  V30 9822 C 932.48 1.95596 0.0132445 0
M  V30 9823 C 932.86 1.51438 1.47071 0
M  V30 9824 O 932.208 0.759917 2.15494 0
M  V30 9825 C 932.418 3.48689 -0.147335 0
M  V30 9826 C 933.766 4.24599 -0.00946329 0
M  V30 9827 O 934.79 3.5612 -0.0756112 0
M  V30 9828 O 933.649 5.46332 0.135361 0
M  V30 9829 H 930.743 0.825102 0.0560039 0
M  V30 9830 H 933.289 1.57199 -0.639256 0
M  V30 9831 H 932.061 3.73681 -1.16096 0
M  V30 9832 H 931.684 3.93887 0.542109 0
M  V30 9833 N 932.681 0.308908 1.54543 0
M  V30 9834 C 933.929 -0.297447 1.99899 0
M  V30 9835 C 934.25 -1.53799 1.19878 0
M  V30 9836 O 933.52 -1.93639 0.29678 0
M  V30 9837 H 932.1 -0.112897 0.738419 0
M  V30 9838 H 934.762 0.422067 1.90275 0
M  V30 9839 H 933.858 -0.564016 3.06961 0
M  V30 9840 N 934.159 -1.57557 0.0367827 0
M  V30 9841 C 935.57 -1.79853 -0.500971 0
M  V30 9842 C 935.921 -0.947749 -1.71791 0
M  V30 9843 O 935.046 -0.160287 -2.15806 0
M  V30 9844 C 935.641 -3.26193 -0.915626 0
M  V30 9845 C 934.2 -3.49457 -1.39845 0
M  V30 9846 C 933.347 -2.74864 -0.366784 0
M  V30 9847 H 936.298 -1.56509 0.262768 0
M  V30 9848 H 936.319 -3.36324 -1.7795 0
M  V30 9849 H 935.831 -3.88089 -0.0297227 0
M  V30 9850 H 933.932 -2.92823 -2.30402 0
M  V30 9851 H 934.045 -4.58172 -1.40054 0
M  V30 9852 H 932.409 -2.4057 -0.836554 0
M  V30 9853 H 933.192 -3.39479 0.510785 0
M  V30 9854 N 935.637 0.236453 -1.55816 0
M  V30 9855 C 936.547 1.31418 -1.94336 0
M  V30 9856 C 937.563 1.52095 -0.845164 0
M  V30 9857 O 938.739 1.65515 -1.14746 0
M  V30 9858 C 935.804 2.6468 -2.23932 0
M  V30 9859 C 934.865 2.52435 -3.47239 0
M  V30 9860 C 934.098 3.79342 -3.75414 0
M  V30 9861 O 934.321 4.81694 -3.05495 0
M  V30 9862 O 933.255 3.77347 -4.68927 0
M  V30 9863 H 937.081 1.01739 -2.86152 0
M  V30 9864 H 934.666 0.438084 -1.42833 0
M  V30 9865 H 936.548 3.4341 -2.44228 0
M  V30 9866 H 935.223 2.94071 -1.35292 0
M  V30 9867 H 934.13 1.71955 -3.32238 0
M  V30 9868 H 935.463 2.27987 -4.36214 0
M  V30 9869 N 937.115 1.49373 0.502552 0
M  V30 9870 C 938.343 1.62488 1.28084 0
M  V30 9871 C 938.758 0.295667 1.86471 0
M  V30 9872 O 938.115 -0.718664 1.67754 0
M  V30 9873 C 938.166 2.69249 2.4122 0
M  V30 9874 O 937.887 3.97014 1.85234 0
M  V30 9875 C 939.388 2.93054 3.32617 0
M  V30 9876 H 936.608 0.547068 0.388533 0
M  V30 9877 H 939.152 1.95394 0.603452 0
M  V30 9878 H 937.307 2.39125 3.04792 0
M  V30 9879 H 937.721 4.55809 2.59496 0
M  V30 9880 H 939.195 3.71493 4.08285 0
M  V30 9881 H 939.672 2.02911 3.89517 0
M  V30 9882 H 940.278 3.24589 2.74813 0
M  V30 9883 N 938.594 -0.753485 1.38421 0
M  V30 9884 C 939.557 -1.84888 1.35459 0
M  V30 9885 C 940.557 -1.58764 0.255083 0
M  V30 9886 O 941.747 -1.66507 0.511978 0
M  V30 9887 C 938.879 -3.22361 1.10888 0
M  V30 9888 H 940.072 -1.88922 2.32913 0
M  V30 9889 H 937.625 -0.955199 1.23716 0
M  V30 9890 H 938.36 -3.23996 0.1404 0
M  V30 9891 H 938.145 -3.42717 1.90492 0
M  V30 9892 H 939.635 -4.02437 1.1151 0
M  V30 9893 N 940.072 -1.23292 -0.981677 0
M  V30 9894 C 940.982 -1.02964 -2.10798 0
M  V30 9895 C 941.998 0.0254674 -1.73981 0
M  V30 9896 O 943.174 -0.169706 -2.00684 0
M  V30 9897 C 940.239 -0.621934 -3.41076 0
M  V30 9898 C 939.3 -1.75194 -3.91926 0
M  V30 9899 C 938.533 -1.36359 -5.15986 0
M  V30 9900 O 938.756 -0.247265 -5.69864 0
M  V30 9901 O 937.69 -2.18421 -5.60871 0
M  V30 9902 H 941.516 -1.97354 -2.30836 0
M  V30 9903 H 939.101 -1.01986 -1.09175 0
M  V30 9904 H 940.983 -0.405446 -4.19445 0
M  V30 9905 H 939.658 0.29299 -3.22371 0
M  V30 9906 H 938.565 -2.02305 -3.1468 0
M  V30 9907 H 939.898 -2.64513 -4.15083 0
M  V30 9908 N 941.55 1.18024 -1.04442 0
M  V30 9909 C 942.79 1.89787 -0.758957 0
M  V30 9910 C 943.154 1.78757 0.700707 0
M  V30 9911 O 944.355 2.45265 1.09994 0
M  V30 9912 C 942.626 3.36047 -1.21685 0
M  V30 9913 S 944.185 4.25864 -1.05761 0
M  V30 9914 H 941.003 0.655311 -0.275841 0
M  V30 9915 H 943.605 1.42589 -1.33749 0
M  V30 9916 H 942.309 3.41606 -2.2745 0
M  V30 9917 H 941.84 3.88286 -0.63227 0
M  V30 9918 H 943.855 4.96195 0.022729 0
M  V30 9919 N 943.028 0.824394 1.34319 0
M  V30 9920 C 944.439 0.471802 1.8064 0
M  V30 9921 C 944.79 -1.00793 1.6833 0
M  V30 9922 O 943.915 -1.78447 1.22416 0
M  V30 9923 C 944.51 0.849609 3.27974 0
M  V30 9924 C 943.069 0.549365 3.72369 0
M  V30 9925 C 942.216 1.06573 2.56003 0
M  V30 9926 H 945.167 1.01443 1.22045 0
M  V30 9927 H 945.188 0.153968 3.80188 0
M  V30 9928 H 944.7 1.92663 3.36902 0
M  V30 9929 H 942.801 -0.518182 3.68979 0
M  V30 9930 H 942.914 1.09446 4.66432 0
M  V30 9931 H 941.278 0.487214 2.49997 0
M  V30 9932 H 942.061 2.14923 2.677 0
M  V30 9933 N 944.506 -1.46559 0.579492 0
M  V30 9934 C 945.454 -2.3199 -0.168413 0
M  V30 9935 C 946.448 -1.44288 -0.887551 0
M  V30 9936 O 947.654 -1.60931 -0.806305 0
M  V30 9937 H 944.029 -0.748431 -0.0731799 0
M  V30 9938 H 946 -2.92886 0.570973 0
M  V30 9939 C 944.749 -3.27392 -1.1709 0
M  V30 9940 H 944.072 -3.94853 -0.626958 0
M  V30 9941 H 945.512 -3.89955 -1.66467 0
M  V30 9942 C 943.971 -2.52511 -2.23024 0
M  V30 9943 O 944.501 -2.2858 -3.30324 0
M  V30 9944 N 942.707 -2.1313 -1.97545 0
M  V30 9945 H 942.254 -2.32793 -1.10297 0
M  V30 9946 H 942.212 -1.63348 -2.68635 0
M  V30 9947 N 945.984 -0.3171 -1.54377 0
M  V30 9948 C 947.212 0.289558 -2.04864 0
M  V30 9949 C 947.627 1.46284 -1.19359 0
M  V30 9950 O 946.984 1.81135 -0.222795 0
M  V30 9951 C 947.035 0.730273 -3.54047 0
M  V30 9952 O 946.756 -0.396325 -4.36304 0
M  V30 9953 C 948.257 1.40041 -4.20599 0
M  V30 9954 H 945.477 0.0605836 -0.668259 0
M  V30 9955 H 948.021 -0.461411 -1.99227 0
M  V30 9956 H 946.176 1.43123 -3.59992 0
M  V30 9957 H 946.59 -0.0502901 -5.24476 0
M  V30 9958 H 948.064 1.65979 -5.26455 0
M  V30 9959 H 948.541 2.34565 -3.71316 0
M  V30 9960 H 949.147 0.742206 -4.18774 0
M  V30 9961 N 947.462 1.57535 -0.0451378 0
M  V30 9962 C 948.41 2.12351 0.949205 0
M  V30 9963 C 949.404 1.05386 1.32628 0
M  V30 9964 O 950.61 1.23802 1.30664 0
M  V30 9965 H 946.985 0.678648 0.323945 0
M  V30 9966 H 948.956 2.94806 0.461718 0
M  V30 9967 C 947.705 2.67862 2.21687 0
M  V30 9968 H 947.028 3.49826 1.93551 0
M  V30 9969 H 948.468 3.09844 2.89435 0
M  V30 9970 C 946.927 1.61353 2.95748 0
M  V30 9971 O 947.457 1.02276 3.88462 0
M  V30 9972 N 945.663 1.33017 2.5837 0
M  V30 9973 H 945.21 1.81246 1.83051 0
M  V30 9974 H 945.168 0.619812 3.0823 0
M  V30 9975 N 948.94 -0.228186 1.55939 0
M  V30 9976 C 950.356 -0.577583 1.48782 0
M  V30 9977 C 950.556 -1.87461 0.738972 0
M  V30 9978 O 949.612 -2.50988 0.275929 0
M  V30 9979 C 950.925 -0.662961 2.93301 0
M  V30 9980 C 952.473 -0.754035 3.03782 0
M  V30 9981 C 952.948 -0.870815 4.49645 0
M  V30 9982 N 954.439 -0.935208 4.53661 0
M  V30 9983 C 955.174 -1.04516 5.63794 0
M  V30 9984 N 954.67 -1.11948 6.83696 0
M  V30 9985 N 956.463 -1.07978 5.51631 0
M  V30 9986 H 948.614 0.623018 2.03057 0
M  V30 9987 H 950.877 0.217692 0.922667 0
M  V30 9988 H 950.583 0.220375 3.51009 0
M  V30 9989 H 950.457 -1.52876 3.44831 0
M  V30 9990 H 952.844 -1.62782 2.46143 0
M  V30 9991 H 952.925 0.137301 2.55431 0
M  V30 9992 H 952.569 -0.0015186 5.079 0
M  V30 9993 H 952.499 -1.77747 4.95695 0
M  V30 9994 H 954.99 -0.88836 3.6731 0
M  V30 9995 H 955.303 -1.20297 7.6338 0
M  V30 9996 H 953.648 -1.08873 6.8642 0
M  V30 9997 H 956.839 -1.01833 4.56889 0
M  V30 9998 H 957.012 -1.16202 6.37496 0
M  V30 9999 N 950.418 -1.49637 -0.494624 0
M  V30 10000 C 951.381 -1.66252 -1.57775 0
M  V30 10001 C 952.381 -0.534054 -1.51672 0
M  V30 10002 O 953.571 -0.800637 -1.54711 0
M  V30 10003 C 950.703 -1.66584 -2.97426 0
M  V30 10004 H 951.896 -2.62864 -1.4437 0
M  V30 10005 H 949.449 -1.38764 -0.719323 0
M  V30 10006 H 950.184 -0.715798 -3.16302 0
M  V30 10007 H 949.969 -2.48543 -3.03264 0
M  V30 10008 H 951.459 -1.81474 -3.76108 0
M  V30 10009 N 951.896 0.746133 -1.38819 0
M  V30 10010 C 953.142 1.50669 -1.3664 0
M  V30 10011 C 953.497 1.92356 0.0411513 0
M  V30 10012 O 952.79 1.63104 1.00537 0
M  V30 10013 C 952.984 2.76639 -2.26286 0
M  V30 10014 C 952.813 2.47268 -3.75618 0
M  V30 10015 C 951.583 2.40116 -4.44603 0
M  V30 10016 C 953.781 2.13548 -4.67869 0
M  V30 10017 N 951.763 2.03098 -5.79331 0
M  V30 10018 C 953.134 1.86883 -5.91164 0
M  V30 10019 C 955.189 1.99922 -4.56 0
M  V30 10020 C 953.892 1.47965 -7.03917 0
M  V30 10021 C 955.918 1.62406 -5.68664 0
M  V30 10022 C 955.28 1.36618 -6.91025 0
M  V30 10023 H 951.379 0.550624 -0.555282 0
M  V30 10024 H 953.963 0.868179 -1.74272 0
M  V30 10025 H 952.134 3.38287 -1.9083 0
M  V30 10026 H 953.866 3.42753 -2.1518 0
M  V30 10027 H 950.621 2.56839 -3.97908 0
M  V30 10028 H 951.045 1.87214 -6.506 0
M  V30 10029 H 955.687 2.18531 -3.61945 0
M  V30 10030 H 953.405 1.28096 -7.97883 0
M  V30 10031 H 956.991 1.52483 -5.61462 0
M  V30 10032 H 955.871 1.08021 -7.76725 0
M  V30 10033 N 953.375 1.23811 0.975125 0
M  V30 10034 C 954.323 1.02149 2.0897 0
M  V30 10035 C 955.317 -0.0412172 1.6935 0
M  V30 10036 O 956.523 0.112726 1.79647 0
M  V30 10037 H 952.898 0.313259 0.683647 0
M  V30 10038 H 954.869 1.96686 2.24404 0
M  V30 10039 C 953.618 0.635023 3.41852 0
M  V30 10040 H 952.941 1.44449 3.72793 0
M  V30 10041 H 954.381 0.52301 4.20762 0
M  V30 10042 C 952.84 -0.657207 3.30428 0
M  V30 10043 O 953.37 -1.70494 3.63723 0
M  V30 10044 N 951.576 -0.635122 2.83575 0
M  V30 10045 H 951.123 0.21784 2.56677 0
M  V30 10046 H 951.081 -1.49995 2.76313 0
M  V30 10047 N 954.853 -1.17469 1.05066 0
M  V30 10048 C 956.078 -1.92162 0.780298 0
M  V30 10049 C 956.503 -1.76222 -0.657832 0
M  V30 10050 O 955.861 -1.0791 -1.45688 0
M  V30 10051 C 955.909 -3.41292 1.16414 0
M  V30 10052 O 955.013 -4.1134 0.295531 0
M  V30 10053 H 954.354 -0.599127 0.286257 0
M  V30 10054 H 956.884 -1.48903 1.40318 0
M  V30 10055 H 956.894 -3.92029 1.13036 0
M  V30 10056 H 955.569 -3.52214 2.21175 0
M  V30 10057 H 954.146 -3.70857 0.389797 0
M  V30 10058 N 956.331 -0.831506 -1.3388 0
M  V30 10059 C 957.261 -0.274378 -2.31882 0
M  V30 10060 C 958.242 0.613872 -1.58637 0
M  V30 10061 O 959.427 0.538961 -1.86571 0
M  V30 10062 C 956.557 0.557498 -3.42796 0
M  V30 10063 C 955.511 -0.234337 -4.27358 0
M  V30 10064 C 954.837 0.720825 -5.29819 0
M  V30 10065 C 956.137 -1.44732 -5.01847 0
M  V30 10066 H 957.831 -1.09322 -2.78728 0
M  V30 10067 H 955.377 -0.527136 -1.34005 0
M  V30 10068 H 957.33 0.957501 -4.10378 0
M  V30 10069 H 956.054 1.40947 -2.94621 0
M  V30 10070 H 954.713 -0.61581 -3.61391 0
M  V30 10071 H 954.361 1.569 -4.77903 0
M  V30 10072 H 954.061 0.195171 -5.87276 0
M  V30 10073 H 955.585 1.1185 -6.00268 0
M  V30 10074 H 956.999 -1.12087 -5.62236 0
M  V30 10075 H 955.396 -1.90923 -5.68919 0
M  V30 10076 H 956.466 -2.22099 -4.31045 0
M  V30 10077 N 957.809 1.4625 -0.587256 0
M  V30 10078 C 958.719 2.34147 0.145744 0
M  V30 10079 C 959.735 1.50026 0.881376 0
M  V30 10080 O 960.911 1.82884 0.843539 0
M  V30 10081 C 957.976 3.27294 1.14366 0
M  V30 10082 C 957.037 4.27317 0.412199 0
M  V30 10083 C 956.27 5.16013 1.36257 0
M  V30 10084 O 956.493 5.0773 2.59934 0
M  V30 10085 O 955.427 5.95569 0.870681 0
M  V30 10086 H 959.253 2.98187 -0.576055 0
M  V30 10087 H 956.838 1.45299 -0.347628 0
M  V30 10088 H 958.72 3.84747 1.71894 0
M  V30 10089 H 957.395 2.65845 1.84684 0
M  V30 10090 H 956.302 3.73538 -0.205036 0
M  V30 10091 H 957.635 4.91564 -0.250104 0
M  V30 10092 N 959.287 0.325282 1.54207 0
M  V30 10093 C 960.533 -0.277185 2.00897 0
M  V30 10094 C 960.866 -1.51651 1.21308 0
M  V30 10095 O 960.141 -1.92237 0.295825 0
M  V30 10096 C 960.424 -0.60961 3.54902 0
M  V30 10097 C 960.277 0.640542 4.45216 0
M  V30 10098 C 961.596 -1.42656 4.16338 0
M  V30 10099 H 958.715 -0.0992722 0.730284 0
M  V30 10100 H 961.357 0.442201 1.84783 0
M  V30 10101 H 959.507 -1.22249 3.68765 0
M  V30 10102 H 961.179 1.27878 4.43221 0
M  V30 10103 H 959.422 1.26908 4.14821 0
M  V30 10104 H 960.093 0.363459 5.50802 0
M  V30 10105 H 962.569 -0.908494 4.06061 0
M  V30 10106 H 961.445 -1.62792 5.24204 0
M  V30 10107 H 961.706 -2.42321 3.69774 0
M  V30 10108 N 960.765 -1.57509 0.0534917 0
M  V30 10109 C 961.675 -2.15152 -0.935249 0
M  V30 10110 C 962.691 -1.10991 -1.34003 0
M  V30 10111 O 963.867 -1.43171 -1.41648 0
M  V30 10112 C 960.932 -2.68699 -2.19093 0
M  V30 10113 C 959.993 -3.87666 -1.84428 0
M  V30 10114 C 959.226 -4.3865 -3.0401 0
M  V30 10115 O 959.449 -3.887 -4.17455 0
M  V30 10116 O 958.383 -5.30209 -2.84889 0
M  V30 10117 H 962.209 -2.99962 -0.475009 0
M  V30 10118 H 959.794 -1.48446 -0.16854 0
M  V30 10119 H 961.676 -3.03098 -2.92762 0
M  V30 10120 H 960.351 -1.86958 -2.6425 0
M  V30 10121 H 959.258 -3.58151 -1.08068 0
M  V30 10122 H 960.591 -4.70643 -1.44068 0
M  V30 10123 N 962.243 0.219913 -1.56058 0
M  V30 10124 C 963.52 0.968493 -1.6994 0
M  V30 10125 C 963.9 2.02358 -0.601219 0
M  V30 10126 O 963.248 2.25121 0.391534 0
M  V30 10127 C 963.458 1.57745 -3.11316 0
M  V30 10128 C 964.806 2.06908 -3.70775 0
M  V30 10129 O 965.83 1.67636 -3.14288 0
M  V30 10130 O 964.689 2.79096 -4.69859 0
M  V30 10131 H 961.783 0.452521 -0.692209 0
M  V30 10132 H 964.329 0.211566 -1.68376 0
M  V30 10133 H 963.101 0.815687 -3.82704 0
M  V30 10134 H 962.724 2.39987 -3.17005 0
M  V30 10135 N 963.721 1.49897 0.486681 0
M  V30 10136 C 964.951 1.63599 1.2617 0
M  V30 10137 C 965.359 0.312365 1.86604 0
M  V30 10138 O 964.702 -0.713911 1.6926 0
M  V30 10139 C 964.764 2.65736 2.42125 0
M  V30 10140 C 964.428 4.09711 2.0245 0
M  V30 10141 C 965.425 4.9607 1.55596 0
M  V30 10142 C 963.11 4.55534 2.11647 0
M  V30 10143 C 965.104 6.26295 1.18462 0
M  V30 10144 C 962.791 5.85768 1.74124 0
M  V30 10145 C 963.789 6.70973 1.27608 0
M  V30 10146 O 963.477 7.98778 0.905991 0
M  V30 10147 H 963.209 0.55333 0.388332 0
M  V30 10148 H 965.763 1.96768 0.589195 0
M  V30 10149 H 963.993 2.27778 3.12497 0
M  V30 10150 H 965.682 2.68819 3.04123 0
M  V30 10151 H 966.448 4.61891 1.47925 0
M  V30 10152 H 962.327 3.8937 2.46803 0
M  V30 10153 H 965.871 6.92754 0.820839 0
M  V30 10154 H 961.768 6.19473 1.8145 0
M  V30 10155 H 962.536 8.11914 1.03621 0
M  V30 10156 N 965.199 -0.738761 1.39212 0
M  V30 10157 C 966.447 -1.49529 1.35962 0
M  V30 10158 C 966.768 -1.94948 -0.0450152 0
M  V30 10159 O 966.038 -1.68717 -0.995552 0
M  V30 10160 H 964.618 -0.554692 0.500326 0
M  V30 10161 H 967.28 -0.877255 1.74041 0
M  V30 10162 H 966.376 -2.37919 2.01993 0
M  V30 10163 N 966.677 -1.24326 -0.968545 0
M  V30 10164 C 967.924 -1.08245 -1.71141 0
M  V30 10165 C 968.252 0.378842 -1.90775 0
M  V30 10166 O 967.507 1.29634 -1.46607 0
M  V30 10167 C 967.806 -1.76644 -3.10695 0
M  V30 10168 C 967.472 -3.26572 -3.10905 0
M  V30 10169 C 966.134 -3.67475 -3.10669 0
M  V30 10170 C 968.486 -4.22422 -3.05302 0
M  V30 10171 C 965.814 -5.02666 -3.02562 0
M  V30 10172 C 968.166 -5.57619 -2.98737 0
M  V30 10173 C 966.83 -5.9787 -2.9683 0
M  V30 10174 H 966.1 -0.396098 -0.626249 0
M  V30 10175 H 968.747 -1.54418 -1.13258 0
M  V30 10176 H 967.052 -1.22864 -3.72037 0
M  V30 10177 H 968.749 -1.61668 -3.66967 0
M  V30 10178 H 965.339 -2.94017 -3.11852 0
M  V30 10179 H 969.523 -3.91821 -3.04614 0
M  V30 10180 H 964.779 -5.3305 -2.99446 0
M  V30 10181 H 968.953 -6.31595 -2.93361 0
M  V30 10182 H 966.58 -7.02587 -2.90303 0
M  V30 10183 N 968.156 1.1691 -1.05688 0
M  V30 10184 C 969.404 1.86922 -0.768409 0
M  V30 10185 C 969.725 1.81735 0.706921 0
M  V30 10186 O 968.995 1.24671 1.51109 0
M  V30 10187 H 967.575 0.69203 -0.281253 0
M  V30 10188 H 970.237 1.41803 -1.33708 0
M  V30 10189 H 969.333 2.92528 -1.08783 0
M  V30 10190 N 969.634 0.838594 1.33437 0
M  V30 10191 C 970.88 0.434813 1.98084 0
M  V30 10192 C 971.213 -1.00331 1.66275 0
M  V30 10193 O 970.488 -1.70139 0.942501 0
M  V30 10194 C 970.771 0.655602 3.54082 0
M  V30 10195 C 970.624 2.14097 3.95578 0
M  V30 10196 C 971.943 0.101576 4.39983 0
M  V30 10197 H 969.062 0.159456 0.719544 0
M  V30 10198 H 971.704 1.05406 1.58081 0
M  V30 10199 H 969.854 0.128501 3.88287 0
M  V30 10200 H 971.526 2.73292 3.71631 0
M  V30 10201 H 969.769 2.62558 3.4532 0
M  V30 10202 H 970.44 2.24621 5.04231 0
M  V30 10203 H 972.916 0.552122 4.12421 0
M  V30 10204 H 971.792 0.28575 5.48156 0
M  V30 10205 H 972.053 -0.994616 4.30767 0
M  V30 10206 N 971.112 -1.45937 0.595003 0
M  V30 10207 C 972.359 -2.0232 0.0853053 0
M  V30 10208 C 972.687 -1.465 -1.27937 0
M  V30 10209 O 971.942 -0.624767 -1.85459 0
M  V30 10210 C 972.241 -3.57396 -0.0173747 0
M  V30 10211 C 971.907 -4.32311 1.28131 0
M  V30 10212 C 970.569 -4.52496 1.63708 0
M  V30 10213 C 972.921 -4.75233 2.14017 0
M  V30 10214 C 970.249 -5.12857 2.84947 0
M  V30 10215 C 972.601 -5.36933 3.34493 0
M  V30 10216 C 971.265 -5.55343 3.70338 0
M  V30 10217 H 970.535 -0.740342 0.0312154 0
M  V30 10218 H 973.182 -1.75157 0.774103 0
M  V30 10219 H 971.487 -3.83766 -0.789371 0
M  V30 10220 H 973.184 -3.98713 -0.427699 0
M  V30 10221 H 969.774 -4.16905 0.994374 0
M  V30 10222 H 973.958 -4.59383 1.87833 0
M  V30 10223 H 969.214 -5.253 3.12841 0
M  V30 10224 H 973.388 -5.69147 4.01304 0
M  V30 10225 H 971.015 -6.01883 4.64371 0
M  V30 10226 N 972.59 -0.333456 -1.54032 0
M  V30 10227 C 973.818 0.267813 -2.05159 0
M  V30 10228 C 974.233 1.4501 -1.20903 0
M  V30 10229 O 973.59 1.80888 -0.241994 0
M  V30 10230 C 973.641 0.69268 -3.54802 0
M  V30 10231 O 973.362 -0.442579 -4.35859 0
M  V30 10232 C 974.863 1.35572 -4.2206 0
M  V30 10233 H 972.083 0.0534924 -0.668864 0
M  V30 10234 H 974.627 -0.482515 -1.98726 0
M  V30 10235 H 972.782 1.39297 -3.6149 0
M  V30 10236 H 973.196 -0.105915 -5.24393 0
M  V30 10237 H 974.67 1.60385 -5.28186 0
M  V30 10238 H 975.147 2.30614 -3.73783 0
M  V30 10239 H 975.753 0.697748 -4.19537 0
M  V30 10240 N 974.068 1.57479 -0.061844 0
M  V30 10241 C 975.296 1.97429 0.618837 0
M  V30 10242 C 975.711 0.939826 1.63746 0
M  V30 10243 O 975.068 -0.0747173 1.82347 0
M  V30 10244 C 975.119 3.3746 1.29628 0
M  V30 10245 O 974.84 4.36941 0.318431 0
M  V30 10246 C 976.341 3.92228 2.06572 0
M  V30 10247 H 973.561 0.649513 0.168444 0
M  V30 10248 H 976.105 2.04078 -0.131303 0
M  V30 10249 H 974.26 3.31928 1.99757 0
M  V30 10250 H 974.674 5.18313 0.803239 0
M  V30 10251 H 976.148 4.92458 2.49377 0
M  V30 10252 H 976.625 3.28231 2.91824 0
M  V30 10253 H 977.231 4.01131 1.4133 0
M  V30 10254 N 975.546 -0.211634 1.56173 0
M  V30 10255 C 976.494 -1.28188 1.94089 0
M  V30 10256 C 977.488 -1.47999 0.824167 0
M  V30 10257 O 978.694 -1.49056 1.00907 0
M  V30 10258 H 975.069 -0.42999 0.616938 0
M  V30 10259 H 977.04 -0.934962 2.83374 0
M  V30 10260 C 975.789 -2.62294 2.28248 0
M  V30 10261 H 975.112 -2.4786 3.13696 0
M  V30 10262 H 976.552 -3.35967 2.58655 0
M  V30 10263 C 975.011 -3.18049 1.11113 0
M  V30 10264 O 975.541 -3.99923 0.377458 0
M  V30 10265 N 973.747 -2.76561 0.892321 0
M  V30 10266 H 973.294 -2.10088 1.49067 0
M  V30 10267 H 973.252 -3.14206 0.110344 0
M  V30 10268 N 977.024 -1.50153 -0.478725 0
M  V30 10269 C 978.273 -1.60002 -1.22809 0
M  V30 10270 C 978.586 -0.302277 -1.9325 0
M  V30 10271 O 979.792 -0.279583 -2.70057 0
M  V30 10272 C 978.248 -2.82402 -2.23108 0
M  V30 10273 C 977.856 -4.19023 -1.58505 0
M  V30 10274 C 979.6 -3.01593 -2.98734 0
M  V30 10275 C 977.507 -5.32618 -2.57045 0
M  V30 10276 H 976.437 -0.595822 -0.462073 0
M  V30 10277 H 979.088 -1.76573 -0.499412 0
M  V30 10278 H 977.47 -2.59373 -2.99235 0
M  V30 10279 H 978.644 -4.52277 -0.882187 0
M  V30 10280 H 976.959 -4.05374 -0.951877 0
M  V30 10281 H 979.556 -3.8363 -3.72468 0
M  V30 10282 H 979.899 -2.1302 -3.57671 0
M  V30 10283 H 980.432 -3.24766 -2.29721 0
M  V30 10284 H 977.171 -6.23321 -2.02858 0
M  V30 10285 H 976.691 -5.03792 -3.25505 0
M  V30 10286 H 978.37 -5.62877 -3.19028 0
M  V30 10287 N 978.502 0.731368 -1.39602 0
M  V30 10288 C 979.748 1.49211 -1.38231 0
M  V30 10289 C 980.103 1.92389 0.020747 0
M  V30 10290 O 979.396 1.64161 0.988014 0
M  V30 10291 C 979.59 2.74224 -2.29208 0
M  V30 10292 C 979.419 2.4327 -3.78219 0
M  V30 10293 C 978.189 2.35387 -4.47125 0
M  V30 10294 C 980.387 2.08574 -4.70108 0
M  V30 10295 N 978.369 1.96942 -5.81452 0
M  V30 10296 C 979.74 1.80603 -5.93113 0
M  V30 10297 C 981.795 1.95074 -4.58095 0
M  V30 10298 C 980.498 1.40491 -7.05447 0
M  V30 10299 C 982.524 1.56365 -5.70354 0
M  V30 10300 C 981.886 1.29281 -6.92435 0
M  V30 10301 H 977.985 0.544703 -0.56109 0
M  V30 10302 H 980.569 0.849647 -1.75183 0
M  V30 10303 H 978.74 3.36244 -1.94408 0
M  V30 10304 H 980.472 3.40451 -2.18803 0
M  V30 10305 H 977.227 2.52604 -4.0061 0
M  V30 10306 H 977.651 1.80303 -6.52549 0
M  V30 10307 H 982.293 2.1468 -3.64242 0
M  V30 10308 H 980.011 1.19626 -7.99197 0
M  V30 10309 H 983.597 1.4652 -5.63048 0
M  V30 10310 H 982.477 0.997769 -7.77827 0
M  V30 10311 N 979.98 1.24838 0.961938 0
M  V30 10312 C 980.91 1.07053 2.07514 0
M  V30 10313 C 981.891 -0.0182465 1.7009 0
M  V30 10314 O 983.076 0.149915 1.9362 0
M  V30 10315 C 980.206 0.680693 3.40564 0
M  V30 10316 C 979.16 1.71889 3.91967 0
M  V30 10317 C 978.486 1.18395 5.21428 0
M  V30 10318 C 979.786 3.1161 4.19161 0
M  V30 10319 H 981.48 2.00167 2.22651 0
M  V30 10320 H 979.026 0.963799 1.0699 0
M  V30 10321 H 980.979 0.54324 4.17884 0
M  V30 10322 H 979.703 -0.28615 3.25344 0
M  V30 10323 H 978.362 1.84465 3.16809 0
M  V30 10324 H 978.01 0.207543 5.02572 0
M  V30 10325 H 977.71 1.87778 5.56788 0
M  V30 10326 H 979.234 1.05873 6.01351 0
M  V30 10327 H 980.648 3.0223 4.87165 0
M  V30 10328 H 979.045 3.78398 4.65763 0
M  V30 10329 H 980.115 3.59218 3.25715 0
M  V30 10330 N 981.458 -1.16348 1.06306 0
M  V30 10331 C 982.874 -1.38873 0.786543 0
M  V30 10332 C 983.074 -1.91915 -0.614061 0
M  V30 10333 O 982.13 -2.11804 -1.3746 0
M  V30 10334 C 983.443 -2.36936 1.85154 0
M  V30 10335 C 984.991 -2.5062 1.87506 0
M  V30 10336 C 985.466 -3.51965 2.9306 0
M  V30 10337 N 986.957 -3.59492 2.92095 0
M  V30 10338 C 987.692 -4.37699 3.70415 0
M  V30 10339 N 987.188 -5.19327 4.58553 0
M  V30 10340 N 988.981 -4.32683 3.58806 0
M  V30 10341 H 981.132 -0.802542 1.96655 0
M  V30 10342 H 983.395 -0.415304 0.852189 0
M  V30 10343 H 983.101 -2.05056 2.85736 0
M  V30 10344 H 982.975 -3.36585 1.70267 0
M  V30 10345 H 985.362 -2.81804 0.875827 0
M  V30 10346 H 985.443 -1.51006 2.06472 0
M  V30 10347 H 985.087 -3.21518 3.93177 0
M  V30 10348 H 985.017 -4.51309 2.71344 0
M  V30 10349 H 987.508 -3.01222 2.28197 0
M  V30 10350 H 987.821 -5.76216 5.1497 0
M  V30 10351 H 986.166 -5.1867 4.62608 0
M  V30 10352 H 989.357 -3.67971 2.89335 0
M  V30 10353 H 989.53 -4.93386 4.20088 0
M  V30 10354 N 982.937 -0.845659 -1.3299 0
M  V30 10355 C 983.867 -0.298957 -2.31578 0
M  V30 10356 C 984.848 0.597012 -1.59279 0
M  V30 10357 O 986.033 0.519142 -1.87132 0
M  V30 10358 C 983.163 0.521109 -3.43368 0
M  V30 10359 C 982.117 -0.279651 -4.27085 0
M  V30 10360 C 981.443 0.664591 -5.30554 0
M  V30 10361 C 982.743 -1.50046 -5.00283 0
M  V30 10362 H 984.437 -1.12272 -2.77552 0
M  V30 10363 H 981.983 -0.54132 -1.33438 0
M  V30 10364 H 983.936 0.913921 -4.1137 0
M  V30 10365 H 982.66 1.37815 -2.96099 0
M  V30 10366 H 981.319 -0.654106 -3.60717 0
M  V30 10367 H 980.967 1.51822 -4.79541 0
M  V30 10368 H 980.667 0.132871 -5.8745 0
M  V30 10369 H 982.191 1.05477 -6.01421 0
M  V30 10370 H 983.605 -1.18044 -5.61016 0
M  V30 10371 H 982.002 -1.96946 -5.66862 0
M  V30 10372 H 983.072 -2.26659 -4.28665 0
M  V30 10373 N 984.415 1.45619 -0.602734 0
M  V30 10374 C 985.831 1.57368 -0.26599 0
M  V30 10375 C 986.031 1.59485 1.23154 0
M  V30 10376 O 985.087 1.52254 2.01432 0
M  V30 10377 C 986.4 2.85863 -0.932881 0
M  V30 10378 C 987.948 2.9953 -0.908344 0
M  V30 10379 C 988.423 4.30789 -1.55515 0
M  V30 10380 N 989.914 4.37536 -1.52042 0
M  V30 10381 C 990.649 5.37758 -1.99008 0
M  V30 10382 N 990.145 6.44544 -2.54038 0
M  V30 10383 N 991.938 5.29085 -1.89805 0
M  V30 10384 H 984.089 1.42489 -1.57514 0
M  V30 10385 H 986.352 0.680948 -0.659556 0
M  V30 10386 H 986.058 2.90183 -1.98713 0
M  V30 10387 H 985.932 3.74467 -0.453209 0
M  V30 10388 H 988.319 2.9478 0.137344 0
M  V30 10389 H 988.4 2.12349 -1.42623 0
M  V30 10390 H 988.044 4.36297 -2.60014 0
M  V30 10391 H 987.974 5.16778 -1.01232 0
M  V30 10392 H 990.465 3.60972 -1.11837 0
M  V30 10393 H 990.778 7.17258 -2.87682 0
M  V30 10394 H 989.123 6.45308 -2.58075 0
M  V30 10395 H 992.314 4.44566 -1.46556 0
M  V30 10396 H 992.487 6.07043 -2.26722 0
M  V30 10397 N 985.893 0.34162 1.53853 0
M  V30 10398 C 986.803 -0.524555 2.2866 0
M  V30 10399 C 987.819 -1.1136 1.33697 0
M  V30 10400 O 988.995 -1.1297 1.66732 0
M  V30 10401 C 986.06 -1.66065 3.04341 0
M  V30 10402 C 985.121 -1.10158 4.14926 0
M  V30 10403 C 984.354 -2.18353 4.86988 0
M  V30 10404 O 984.577 -3.39038 4.58704 0
M  V30 10405 O 983.511 -1.82756 5.73484 0
M  V30 10406 H 987.337 0.0835014 3.03585 0
M  V30 10407 H 984.922 0.106727 1.49018 0
M  V30 10408 H 986.804 -2.3217 3.51674 0
M  V30 10409 H 985.479 -2.25456 2.32275 0
M  V30 10410 H 984.386 -0.405109 3.719 0
M  V30 10411 H 985.719 -0.552567 4.89088 0
M  V30 10412 N 987.371 -1.57444 0.0701946 0
M  V30 10413 C 988.318 -2.12631 -0.897599 0
M  V30 10414 C 989.288 -1.03841 -1.29639 0
M  V30 10415 O 990.473 -1.31495 -1.38253 0
M  V30 10416 C 987.613 -2.6911 -2.16041 0
M  V30 10417 C 986.726 -3.9205 -1.8144 0
M  V30 10418 C 985.861 -4.36778 -3.02321 0
M  V30 10419 C 984.9 -5.52371 -2.63729 0
M  V30 10420 N 984.037 -5.92065 -3.77364 0
M  V30 10421 H 988.877 -2.95024 -0.420104 0
M  V30 10422 H 986.414 -1.45792 -0.195716 0
M  V30 10423 H 988.372 -2.99963 -2.89962 0
M  V30 10424 H 987.002 -1.89484 -2.61334 0
M  V30 10425 H 986.054 -3.67669 -0.975896 0
M  V30 10426 H 987.366 -4.76011 -1.49046 0
M  V30 10427 H 986.52 -4.69285 -3.84521 0
M  V30 10428 H 985.259 -3.51668 -3.37907 0
M  V30 10429 H 984.264 -5.19517 -1.7995 0
M  V30 10430 H 985.489 -6.39212 -2.29315 0
M  V30 10431 H 983.435 -5.09904 -4.12715 0
M  V30 10432 H 983.352 -6.70762 -3.48733 0
M  V30 10433 H 984.62 -6.29193 -4.60148 0
M  V30 10434 N 988.849 0.203349 -1.56283 0
M  V30 10435 C 989.781 1.27592 -1.90402 0
M  V30 10436 C 990.794 1.4213 -0.79391 0
M  V30 10437 O 991.983 1.42703 -1.07229 0
M  V30 10438 C 989.083 2.64919 -2.11356 0
M  V30 10439 C 988.256 2.72095 -3.42466 0
M  V30 10440 C 987.315 3.9056 -3.52631 0
M  V30 10441 O 986.341 3.78048 -4.25521 0
M  V30 10442 N 987.543 5.0566 -2.85111 0
M  V30 10443 H 990.308 0.986423 -2.83001 0
M  V30 10444 H 987.869 0.39331 -1.5705 0
M  V30 10445 H 989.861 3.42581 -2.15453 0
M  V30 10446 H 988.431 2.86391 -1.25295 0
M  V30 10447 H 987.651 1.8077 -3.50308 0
M  V30 10448 H 988.939 2.73874 -4.28801 0
M  V30 10449 H 988.337 5.18723 -2.25705 0
M  V30 10450 H 986.894 5.81299 -2.94847 0
M  V30 10451 N 990.327 1.50405 0.470755 0
M  V30 10452 C 991.604 1.51929 1.23195 0
M  V30 10453 C 991.984 0.264159 2.09441 0
M  V30 10454 O 991.332 -0.752395 2.15757 0
M  V30 10455 C 991.542 2.81521 2.06269 0
M  V30 10456 C 992.89 3.32195 2.64446 0
M  V30 10457 O 993.914 2.82845 2.16511 0
M  V30 10458 O 992.773 4.18221 3.51786 0
M  V30 10459 H 989.867 0.609411 0.559059 0
M  V30 10460 H 992.413 1.62695 0.482549 0
M  V30 10461 H 991.185 3.64346 1.42715 0
M  V30 10462 H 990.808 2.7376 2.88342 0
M  V30 10463 N 991.805 -0.723954 1.39988 0
M  V30 10464 C 993.051 -1.48591 1.38017 0
M  V30 10465 C 993.384 -1.94189 -0.0203522 0
M  V30 10466 O 992.659 -1.67572 -0.987422 0
M  V30 10467 C 992.942 -2.71786 2.36229 0
M  V30 10468 C 992.795 -2.32136 3.8527 0
M  V30 10469 C 994.114 -3.73921 2.32102 0
M  V30 10470 H 991.233 -0.538993 0.502648 0
M  V30 10471 H 993.875 -0.826908 1.71062 0
M  V30 10472 H 992.025 -3.28015 2.0818 0
M  V30 10473 H 993.697 -1.81454 4.24113 0
M  V30 10474 H 991.94 -1.64234 4.01509 0
M  V30 10475 H 992.611 -3.20406 4.49493 0
M  V30 10476 H 995.087 -3.27303 2.56928 0
M  V30 10477 H 993.963 -4.5777 3.02882 0
M  V30 10478 H 994.224 -4.21627 1.32979 0
M  V30 10479 N 993.283 -1.25346 -0.955304 0
M  V30 10480 C 994.53 -1.10055 -1.69983 0
M  V30 10481 C 994.858 0.358586 -1.91166 0
M  V30 10482 O 994.113 1.28071 -1.47974 0
M  V30 10483 C 994.412 -1.7993 -3.08804 0
M  V30 10484 C 994.078 -3.29851 -3.07424 0
M  V30 10485 C 992.74 -3.7075 -3.06754 0
M  V30 10486 C 995.092 -4.25636 -3.00805 0
M  V30 10487 C 992.42 -5.05847 -2.97214 0
M  V30 10488 C 994.772 -5.60756 -2.92806 0
M  V30 10489 C 993.436 -6.00984 -2.90472 0
M  V30 10490 H 992.706 -0.402718 -0.622012 0
M  V30 10491 H 995.353 -1.5561 -1.11614 0
M  V30 10492 H 993.658 -1.26803 -3.70713 0
M  V30 10493 H 995.355 -1.65551 -3.65231 0
M  V30 10494 H 991.945 -2.97308 -3.08716 0
M  V30 10495 H 996.129 -3.9503 -3.00441 0
M  V30 10496 H 991.385 -5.36196 -2.93775 0
M  V30 10497 H 995.559 -6.34671 -2.86645 0
M  V30 10498 H 993.186 -7.05626 -2.82835 0
M  V30 10499 N 994.761 1.15782 -1.06922 0
M  V30 10500 C 996.001 1.88135 -0.799043 0
M  V30 10501 C 996.365 1.80203 0.662632 0
M  V30 10502 O 997.566 2.47543 1.04767 0
M  V30 10503 C 995.837 3.3339 -1.28786 0
M  V30 10504 S 997.396 4.23525 -1.1477 0
M  V30 10505 H 994.214 0.649313 -0.289679 0
M  V30 10506 H 996.816 1.3972 -1.36743 0
M  V30 10507 H 995.52 3.36705 -2.34645 0
M  V30 10508 H 995.051 3.86857 -0.714489 0
M  V30 10509 H 997.066 4.96131 -0.0825264 0
M  V30 10510 N 996.239 0.8527 1.3254 0
M  V30 10511 C 997.516 0.376491 1.91942 0
M  V30 10512 C 997.896 -1.13972 1.7769 0
M  V30 10513 O 997.244 -1.96047 1.17379 0
M  V30 10514 C 997.454 0.838694 3.38773 0
M  V30 10515 C 998.802 0.854736 4.15908 0
M  V30 10516 O 999.826 0.783203 3.47483 0
M  V30 10517 O 998.685 0.955207 5.38087 0
M  V30 10518 H 995.779 0.109412 0.81973 0
M  V30 10519 H 998.325 0.93947 1.41322 0
M  V30 10520 H 997.097 1.88179 3.43081 0
M  V30 10521 H 996.72 0.253055 3.96794 0
M  V30 10522 N 997.718 -1.45297 0.610449 0
M  V30 10523 C 998.943 -2.07101 0.111414 0
M  V30 10524 C 999.368 -1.45161 -1.19625 0
M  V30 10525 O 998.726 -0.545368 -1.72903 0
M  V30 10526 C 998.774 -3.60598 -0.0117372 0
M  V30 10527 O 997.878 -3.98512 -1.06122 0
M  V30 10528 H 997.219 -0.659709 0.075364 0
M  V30 10529 H 999.749 -1.86504 0.841269 0
M  V30 10530 H 999.759 -4.07464 -0.209028 0
M  V30 10531 H 998.434 -4.05067 0.943076 0
M  V30 10532 H 997.011 -3.63312 -0.840158 0
M  V30 10533 N 999.196 -0.349774 -1.5367 0
M  V30 10534 C 1000.14 0.504121 -2.25227 0
M  V30 10535 C 1001.11 1.09048 -1.2529 0
M  V30 10536 O 1002.3 1.12594 -1.54037 0
M  V30 10537 C 999.438 1.64601 -3.03316 0
M  V30 10538 C 998.551 1.08635 -4.18118 0
M  V30 10539 C 997.686 2.19605 -4.83681 0
M  V30 10540 C 996.725 1.61023 -5.90541 0
M  V30 10541 N 995.862 2.6576 -6.49858 0
M  V30 10542 H 1000.7 -0.112621 -2.97787 0
M  V30 10543 H 998.239 -0.0673503 -1.46946 0
M  V30 10544 H 1000.2 2.31836 -3.46854 0
M  V30 10545 H 998.827 2.23364 -2.33041 0
M  V30 10546 H 997.879 0.304748 -3.79177 0
M  V30 10547 H 999.191 0.617911 -4.94958 0
M  V30 10548 H 998.345 2.94693 -5.30322 0
M  V30 10549 H 997.084 2.69795 -4.06278 0
M  V30 10550 H 996.089 0.844428 -5.43277 0
M  V30 10551 H 997.314 1.11677 -6.69855 0
M  V30 10552 H 995.26 3.15193 -5.75317 0
M  V30 10553 H 995.177 2.23557 -7.2219 0
M  V30 10554 H 996.445 3.40598 -7.01151 0
M  V30 10555 N 1000.67 1.57404 -0.0785433 0
M  V30 10556 C 1001.6 2.16131 0.883726 0
M  V30 10557 C 1002.58 1.09015 1.30575 0
M  V30 10558 O 1003.77 1.3708 1.37559 0
M  V30 10559 C 1000.9 2.72836 2.1489 0
M  V30 10560 C 999.854 3.85178 1.86605 0
M  V30 10561 C 999.18 4.28516 3.1981 0
M  V30 10562 C 1000.48 5.09118 1.16601 0
M  V30 10563 H 1002.17 2.9679 0.394484 0
M  V30 10564 H 999.72 1.42763 0.188304 0
M  V30 10565 H 1001.67 3.12567 2.8263 0
M  V30 10566 H 1000.4 1.89408 2.66068 0
M  V30 10567 H 999.056 3.45962 1.21268 0
M  V30 10568 H 998.704 3.42 3.68843 0
M  V30 10569 H 998.404 5.04249 3.01674 0
M  V30 10570 H 999.928 4.70868 3.88737 0
M  V30 10571 H 1001.34 5.46123 1.74422 0
M  V30 10572 H 999.739 5.90173 1.087 0
M  V30 10573 H 1000.81 4.8468 0.146138 0
M  V30 10574 N 1002.15 -0.195058 1.56388 0
M  V30 10575 C 1003.08 -1.26978 1.8961 0
M  V30 10576 C 1004.06 -1.43946 0.756199 0
M  V30 10577 O 1005.25 -1.59335 1.0072 0
M  V30 10578 C 1002.37 -2.63638 2.12632 0
M  V30 10579 C 1001.42 -2.6354 3.35334 0
M  V30 10580 S 1002.25 -2.1497 4.90457 0
M  V30 10581 C 1003.41 -3.53454 5.16547 0
M  V30 10582 H 1003.64 -0.986091 2.8047 0
M  V30 10583 H 1001.17 -0.398552 1.49167 0
M  V30 10584 H 1003.13 -3.42304 2.26579 0
M  V30 10585 H 1001.79 -2.89218 1.22522 0
M  V30 10586 H 1000.99 -3.64027 3.48569 0
M  V30 10587 H 1000.59 -1.92956 3.20381 0
M  V30 10588 H 1002.88 -4.49318 5.0707 0
M  V30 10589 H 1003.82 -3.45113 6.18306 0
M  V30 10590 H 1004.23 -3.48368 4.44185 0
M  V30 10591 N 1003.63 -1.50653 -0.462772 0
M  V30 10592 C 1004.85 -1.66103 -1.24196 0
M  V30 10593 C 1005.28 -0.347421 -1.84864 0
M  V30 10594 O 1004.64 0.689673 -1.6767 0
M  V30 10595 C 1004.69 -2.76027 -2.32037 0
M  V30 10596 O 1003.79 -2.37859 -3.36893 0
M  V30 10597 H 1003.13 -0.554672 -0.365014 0
M  V30 10598 H 1005.66 -1.97076 -0.549734 0
M  V30 10599 H 1005.67 -2.99354 -2.77221 0
M  V30 10600 H 1004.35 -3.71361 -1.87253 0
M  V30 10601 H 1002.92 -2.2501 -2.97363 0
M  V30 10602 N 1005.11 0.71652 -1.4037 0
M  V30 10603 C 1006.07 1.81231 -1.40313 0
M  V30 10604 C 1007.07 1.58032 -0.297087 0
M  V30 10605 O 1008.26 1.65091 -0.555944 0
M  V30 10606 C 1005.39 3.19308 -1.19395 0
M  V30 10607 H 1006.59 1.8268 -2.3784 0
M  V30 10608 H 1004.14 0.922062 -1.26205 0
M  V30 10609 H 1004.87 3.2351 -0.226252 0
M  V30 10610 H 1004.66 3.37546 -1.99512 0
M  V30 10611 H 1006.15 3.99339 -1.22141 0
M  V30 10612 N 1006.59 1.25851 0.948643 0
M  V30 10613 C 1007.55 1.0683 2.0278 0
M  V30 10614 C 1008.55 0.0191016 1.60789 0
M  V30 10615 O 1009.74 0.261836 1.72221 0
M  V30 10616 C 1006.87 0.623318 3.35153 0
M  V30 10617 H 1008.06 2.02635 2.21086 0
M  V30 10618 H 1005.62 1.08343 1.12657 0
M  V30 10619 H 1006.35 -0.337053 3.22544 0
M  V30 10620 H 1006.14 1.38082 3.66982 0
M  V30 10621 H 1007.63 0.511854 4.14451 0
M  V30 10622 N 1008.06 -1.15214 1.07534 0
M  V30 10623 C 1009.31 -1.85388 0.794617 0
M  V30 10624 C 1009.63 -1.83331 -0.681838 0
M  V30 10625 O 1010.83 -2.49207 -1.0774 0
M  V30 10626 C 1009.29 -3.32747 1.37141 0
M  V30 10627 C 1008.9 -3.43244 2.87902 0
M  V30 10628 C 1010.64 -4.08093 1.16879 0
M  V30 10629 C 1008.55 -4.84762 3.38763 0
M  V30 10630 H 1007.48 -0.694499 0.293577 0
M  V30 10631 H 1010.13 -1.29944 1.29564 0
M  V30 10632 H 1008.51 -3.87874 0.798121 0
M  V30 10633 H 1009.68 -2.98214 3.51291 0
M  V30 10634 H 1008 -2.81345 3.06975 0
M  V30 10635 H 1010.6 -5.12535 1.52353 0
M  V30 10636 H 1010.94 -4.1616 0.107958 0
M  V30 10637 H 1011.47 -3.59241 1.70854 0
M  V30 10638 H 1008.21 -4.81879 4.4438 0
M  V30 10639 H 1007.73 -5.30366 2.80128 0
M  V30 10640 H 1009.41 -5.53624 3.34827 0
M  V30 10641 N 1009.54 -0.859717 -1.32086 0
M  V30 10642 C 1010.49 -0.306042 -2.28762 0
M  V30 10643 C 1011.46 0.589801 -1.55276 0
M  V30 10644 O 1012.64 0.523633 -1.83474 0
M  V30 10645 C 1009.78 0.495256 -3.41528 0
M  V30 10646 C 1008.9 -0.426947 -4.29885 0
M  V30 10647 C 1008.03 0.387474 -5.29785 0
M  V30 10648 C 1007.07 -0.531807 -6.09785 0
M  V30 10649 N 1006.21 0.245741 -7.0167 0
M  V30 10650 H 1011.05 -1.1357 -2.7551 0
M  V30 10651 H 1008.59 -0.571468 -1.35546 0
M  V30 10652 H 1010.54 0.97551 -4.05635 0
M  V30 10653 H 1009.17 1.28969 -2.95917 0
M  V30 10654 H 1008.23 -1.02561 -3.66313 0
M  V30 10655 H 1009.54 -1.13226 -4.85779 0
M  V30 10656 H 1008.69 0.930677 -5.99519 0
M  V30 10657 H 1007.43 1.12612 -4.74521 0
M  V30 10658 H 1006.44 -1.08685 -5.3895 0
M  V30 10659 H 1007.66 -1.26915 -6.67135 0
M  V30 10660 H 1005.61 0.967391 -6.48828 0
M  V30 10661 H 1005.52 -0.400432 -7.54939 0
M  V30 10662 H 1006.79 0.770507 -7.75683 0
M  V30 10663 N 1011.02 1.44971 -0.618145 0
M  V30 10664 C 1012.3 1.95539 -0.0489895 0
M  V30 10665 C 1012.68 1.5604 1.42179 0
M  V30 10666 O 1012.03 0.82809 2.12967 0
M  V30 10667 C 1012.24 3.48044 -0.258193 0
M  V30 10668 C 1013.58 4.24354 -0.144541 0
M  V30 10669 O 1014.61 3.55699 -0.18887 0
M  V30 10670 O 1013.47 5.46486 -0.038519 0
M  V30 10671 H 1010.56 0.826466 0.0297256 0
M  V30 10672 H 1013.11 1.55086 -0.688944 0
M  V30 10673 H 1011.88 3.69798 -1.27926 0
M  V30 10674 H 1011.5 3.95412 0.416522 0
M  V30 10675 N 1012.5 0.357919 1.53482 0
M  V30 10676 C 1013.45 -0.507364 2.26999 0
M  V30 10677 C 1014.44 -1.08987 1.29685 0
M  V30 10678 O 1015.65 -1.03396 1.47341 0
M  V30 10679 H 1012.02 -0.182326 0.729562 0
M  V30 10680 H 1013.99 0.134547 2.98097 0
M  V30 10681 C 1012.74 -1.63911 3.06641 0
M  V30 10682 H 1012.06 -1.20017 3.81361 0
M  V30 10683 H 1013.5 -2.21943 3.61272 0
M  V30 10684 C 1011.96 -2.57697 2.17011 0
M  V30 10685 O 1012.49 -3.60318 1.77578 0
M  V30 10686 N 1010.7 -2.2671 1.818 0
M  V30 10687 H 1010.25 -1.43296 2.14065 0
M  V30 10688 H 1010.2 -2.89716 1.22115 0
M  V30 10689 N 1013.98 -1.5736 0.0868897 0
M  V30 10690 C 1015.39 -1.57304 -0.269762 0
M  V30 10691 C 1015.59 -1.09745 -1.68992 0
M  V30 10692 O 1014.65 -0.77017 -2.40468 0
M  V30 10693 C 1015.96 -3.00628 -0.0656646 0
M  V30 10694 C 1017.51 -3.12713 -0.134045 0
M  V30 10695 C 1017.98 -4.57981 0.0419569 0
M  V30 10696 N 1019.48 -4.63198 -0.0131501 0
M  V30 10697 C 1020.21 -5.73316 0.0983964 0
M  V30 10698 N 1019.71 -6.92296 0.264315 0
M  V30 10699 N 1021.5 -5.62086 0.0402517 0
M  V30 10700 H 1013.65 -1.86585 1.01487 0
M  V30 10701 H 1015.91 -0.860843 0.397055 0
M  V30 10702 H 1015.62 -3.39592 0.914891 0
M  V30 10703 H 1015.49 -3.68367 -0.811522 0
M  V30 10704 H 1017.88 -2.73627 -1.1051 0
M  V30 10705 H 1017.96 -2.47582 0.643167 0
M  V30 10706 H 1017.61 -4.9776 1.00984 0
M  V30 10707 H 1017.54 -5.21162 -0.754847 0
M  V30 10708 H 1020.03 -3.77644 -0.139183 0
M  V30 10709 H 1020.34 -7.72047 0.341165 0
M  V30 10710 H 1018.68 -6.94353 0.299876 0
M  V30 10711 H 1021.88 -4.68017 -0.0881801 0
M  V30 10712 H 1022.05 -6.47868 0.130635 0
M  V30 10713 N 1015.45 0.186762 -1.56489 0
M  V30 10714 C 1016.42 1.21511 -1.94339 0
M  V30 10715 C 1017.42 1.38001 -0.82537 0
M  V30 10716 O 1018.61 1.3567 -1.09266 0
M  V30 10717 C 1015.74 2.583 -2.22472 0
M  V30 10718 H 1016.93 0.891371 -2.86347 0
M  V30 10719 H 1014.49 0.428612 -1.50308 0
M  V30 10720 H 1015.22 2.95715 -1.33129 0
M  V30 10721 H 1015.01 2.47701 -3.03951 0
M  V30 10722 H 1016.5 3.32441 -2.5273 0
M  V30 10723 N 1016.93 1.50896 0.454776 0
M  V30 10724 C 1018.18 1.6294 1.20741 0
M  V30 10725 C 1018.51 0.336339 1.91265 0
M  V30 10726 O 1017.79 -0.663153 1.82846 0
M  V30 10727 C 1018.07 2.82092 2.23822 0
M  V30 10728 C 1017.92 4.21326 1.57495 0
M  V30 10729 C 1019.24 2.96777 3.24979 0
M  V30 10730 H 1016.36 0.59302 0.437603 0
M  V30 10731 H 1019 1.83331 0.498959 0
M  V30 10732 H 1017.15 2.64837 2.84243 0
M  V30 10733 H 1018.82 4.50209 1.00546 0
M  V30 10734 H 1017.07 4.24829 0.877664 0
M  V30 10735 H 1017.74 5.00656 2.32482 0
M  V30 10736 H 1020.21 3.12627 2.74597 0
M  V30 10737 H 1019.09 3.81742 3.94416 0
M  V30 10738 H 1019.35 2.08091 3.90065 0
M  V30 10739 N 1018.41 -0.709066 1.40748 0
M  V30 10740 C 1019.36 -1.8149 1.38005 0
M  V30 10741 C 1020.34 -1.58842 0.256544 0
M  V30 10742 O 1021.54 -1.69904 0.496164 0
M  V30 10743 C 1018.67 -3.19678 1.25143 0
M  V30 10744 C 1017.75 -3.48067 2.42301 0
M  V30 10745 N 1018.14 -3.47234 3.6778 0
M  V30 10746 C 1016.44 -3.78555 2.35822 0
M  V30 10747 C 1017.14 -3.74149 4.45407 0
M  V30 10748 N 1016.12 -3.93224 3.75335 0
M  V30 10749 H 1019.92 -1.79188 2.32957 0
M  V30 10750 H 1017.43 -0.908477 1.34612 0
M  V30 10751 H 1019.43 -3.98875 1.2126 0
M  V30 10752 H 1018.09 -3.23201 0.311642 0
M  V30 10753 H 1019.1 -3.2793 4.00852 0
M  V30 10754 H 1015.78 -3.89529 1.50245 0
M  V30 10755 H 1017.17 -3.79755 5.54289 0
M  V30 10756 N 1019.89 -1.26353 -0.941956 0
M  V30 10757 C 1020.85 -1.07904 -2.02211 0
M  V30 10758 C 1021.85 -0.0276283 -1.60776 0
M  V30 10759 O 1023.04 -0.270965 -1.7208 0
M  V30 10760 C 1020.17 -0.641084 -3.34818 0
M  V30 10761 H 1021.37 -2.03804 -2.20009 0
M  V30 10762 H 1018.92 -1.08939 -1.12081 0
M  V30 10763 H 1019.66 0.319943 -3.22718 0
M  V30 10764 H 1019.44 -1.40027 -3.66244 0
M  V30 10765 H 1020.93 -0.533826 -4.14174 0
M  V30 10766 N 1021.37 1.14642 -1.08144 0
M  V30 10767 C 1022.64 1.81774 -0.72232 0
M  V30 10768 C 1023.02 1.95587 0.794294 0
M  V30 10769 O 1022.37 1.51361 1.71178 0
M  V30 10770 C 1022.58 3.1763 -1.44611 0
M  V30 10771 C 1023.93 3.93161 -1.60343 0
M  V30 10772 O 1024.95 3.2721 -1.40755 0
M  V30 10773 O 1023.81 5.11422 -1.9264 0
M  V30 10774 H 1020.91 0.785733 -0.257978 0
M  V30 10775 H 1023.45 1.21683 -1.18285 0
M  V30 10776 H 1022.23 3.02723 -2.4794 0
M  V30 10777 H 1021.85 3.85412 -0.976892 0
M  V30 10778 N 1022.85 0.866709 1.31628 0
M  V30 10779 C 1023.78 0.264788 2.26659 0
M  V30 10780 C 1024.76 -0.604181 1.50958 0
M  V30 10781 O 1025.94 -0.558324 1.80042 0
M  V30 10782 C 1023.07 -0.625373 3.32877 0
M  V30 10783 C 1022.11 0.171813 4.26154 0
M  V30 10784 S 1022.95 1.54818 5.12632 0
M  V30 10785 C 1024.1 0.66405 6.22367 0
M  V30 10786 H 1024.34 1.07036 2.77364 0
M  V30 10787 H 1021.87 0.665038 1.39343 0
M  V30 10788 H 1023.83 -1.13327 3.94547 0
M  V30 10789 H 1022.49 -1.40486 2.80932 0
M  V30 10790 H 1021.68 -0.506694 5.01447 0
M  V30 10791 H 1021.28 0.611704 3.68964 0
M  V30 10792 H 1023.57 -0.126717 6.77381 0
M  V30 10793 H 1024.52 1.388 6.94363 0
M  V30 10794 H 1024.93 0.233046 5.64019 0
M  V30 10795 N 1024.32 -1.44642 0.625825 0
M  V30 10796 C 1025.57 -2.01695 0.127948 0
M  V30 10797 C 1025.89 -1.49439 -1.25271 0
M  V30 10798 O 1025.16 -0.695873 -1.83124 0
M  V30 10799 H 1023.74 -0.745685 0.0443096 0
M  V30 10800 H 1026.4 -1.7721 0.811332 0
M  V30 10801 H 1025.5 -3.11966 0.0915933 0
M  V30 10802 N 1025.8 -0.366053 -1.5329 0
M  V30 10803 C 1027.03 0.22391 -2.05383 0
M  V30 10804 C 1027.44 1.42962 -1.23929 0
M  V30 10805 O 1026.78 1.81659 -0.273072 0
M  V30 10806 C 1026.84 0.681038 -3.5299 0
M  V30 10807 C 1026.51 -0.40805 -4.55175 0
M  V30 10808 C 1027.51 -1.25806 -5.04449 0
M  V30 10809 C 1025.19 -0.568428 -4.99073 0
M  V30 10810 C 1027.18 -2.25379 -5.96224 0
M  V30 10811 C 1024.87 -1.56752 -5.90654 0
M  V30 10812 C 1025.87 -2.40864 -6.39119 0
M  V30 10813 O 1025.56 -3.39069 -7.28895 0
M  V30 10814 H 1025.29 0.0429593 -0.674634 0
M  V30 10815 H 1027.84 -0.522897 -1.98633 0
M  V30 10816 H 1026.07 1.47945 -3.5728 0
M  V30 10817 H 1027.76 1.19406 -3.8794 0
M  V30 10818 H 1028.53 -1.14536 -4.71282 0
M  V30 10819 H 1024.41 0.0764858 -4.60937 0
M  V30 10820 H 1027.95 -2.91068 -6.33976 0
M  V30 10821 H 1023.85 -1.6807 -6.23236 0
M  V30 10822 H 1024.62 -3.34804 -7.46893 0
M  V30 10823 N 1027.28 1.57312 -0.0952337 0
M  V30 10824 C 1028.53 1.95449 0.563155 0
M  V30 10825 C 1028.88 0.976396 1.65784 0
M  V30 10826 O 1028.17 0.00241533 1.916 0
M  V30 10827 C 1028.37 3.37937 1.16332 0
M  V30 10828 C 1028.2 4.49517 0.128308 0
M  V30 10829 C 1026.97 5.04437 -0.295252 0
M  V30 10830 C 1029.16 5.10257 -0.643571 0
M  V30 10831 N 1027.15 5.99573 -1.31852 0
M  V30 10832 C 1028.52 6.01113 -1.51867 0
M  V30 10833 C 1030.57 4.92996 -0.697074 0
M  V30 10834 C 1029.28 6.76559 -2.44256 0
M  V30 10835 C 1031.3 5.69104 -1.60857 0
M  V30 10836 C 1030.66 6.59626 -2.47129 0
M  V30 10837 H 1026.76 0.761844 0.176402 0
M  V30 10838 H 1029.35 1.93886 -0.177833 0
M  V30 10839 H 1027.52 3.40193 1.87413 0
M  V30 10840 H 1029.25 3.63253 1.78408 0
M  V30 10841 H 1026 4.7351 0.0925153 0
M  V30 10842 H 1026.43 6.51843 -1.82836 0
M  V30 10843 H 1031.07 4.22777 -0.0442422 0
M  V30 10844 H 1028.79 7.4604 -3.10564 0
M  V30 10845 H 1032.37 5.57761 -1.65511 0
M  V30 10846 H 1031.25 7.17487 -3.16515 0
M  V30 10847 N 1028.76 -0.17846 1.56586 0
M  V30 10848 C 1030.01 -0.894502 1.8078 0
M  V30 10849 C 1030.32 -1.8372 0.67129 0
M  V30 10850 O 1031.53 -2.59509 0.797971 0
M  V30 10851 C 1029.98 -1.64109 3.20306 0
M  V30 10852 C 1029.59 -0.742387 4.41806 0
M  V30 10853 C 1031.33 -2.34578 3.53798 0
M  V30 10854 C 1029.24 -1.4888 5.72354 0
M  V30 10855 H 1028.17 -0.33776 0.674117 0
M  V30 10856 H 1030.82 -0.14752 1.82906 0
M  V30 10857 H 1029.2 -2.43257 3.12477 0
M  V30 10858 H 1030.38 0.011615 4.60799 0
M  V30 10859 H 1028.69 -0.147705 4.16138 0
M  V30 10860 H 1031.29 -2.91004 4.48577 0
M  V30 10861 H 1031.63 -3.09572 2.78336 0
M  V30 10862 H 1032.17 -1.62381 3.63149 0
M  V30 10863 H 1028.9 -0.781325 6.50827 0
M  V30 10864 H 1028.42 -2.21631 5.57351 0
M  V30 10865 H 1030.1 -2.03819 6.14058 0
M  V30 10866 N 1030.24 -1.51135 -0.446768 0
M  V30 10867 C 1031.15 -1.74595 -1.56696 0
M  V30 10868 C 1032.16 -0.629816 -1.62201 0
M  V30 10869 O 1033.34 -0.910987 -1.79619 0
M  V30 10870 C 1030.4 -1.85738 -2.9275 0
M  V30 10871 C 1029.46 -3.09564 -2.97437 0
M  V30 10872 C 1028.7 -3.20165 -4.27001 0
M  V30 10873 O 1028.92 -2.36939 -5.1886 0
M  V30 10874 O 1027.85 -4.13077 -4.3778 0
M  V30 10875 H 1031.68 -2.69601 -1.39817 0
M  V30 10876 H 1029.26 -1.35523 -0.628805 0
M  V30 10877 H 1031.15 -1.95107 -3.73512 0
M  V30 10878 H 1029.82 -0.939184 -3.09776 0
M  V30 10879 H 1028.73 -3.05679 -2.15664 0
M  V30 10880 H 1030.06 -4.01041 -2.85353 0
M  V30 10881 N 1031.71 0.701592 -1.41122 0
M  V30 10882 C 1032.94 1.49553 -1.43696 0
M  V30 10883 C 1033.36 1.88053 -0.0421865 0
M  V30 10884 O 1032.72 1.54223 0.953144 0
M  V30 10885 C 1032.77 2.73834 -2.34622 0
M  V30 10886 O 1031.87 3.71088 -1.7991 0
M  V30 10887 H 1031.21 0.450352 -0.487933 0
M  V30 10888 H 1033.74 0.862886 -1.85514 0
M  V30 10889 H 1033.75 3.22209 -2.5029 0
M  V30 10890 H 1032.43 2.45149 -3.35969 0
M  V30 10891 H 1031.01 3.29994 -1.73661 0
M  V30 10892 N 1033.19 1.2685 0.935242 0
M  V30 10893 C 1034.15 1.08975 2.01636 0
M  V30 10894 C 1035.15 0.0361543 1.60759 0
M  V30 10895 O 1036.34 0.280087 1.71934 0
M  V30 10896 C 1033.48 0.658831 3.34473 0
M  V30 10897 H 1034.67 2.04968 2.18925 0
M  V30 10898 H 1032.22 1.09531 1.11501 0
M  V30 10899 H 1032.96 -0.302824 3.22883 0
M  V30 10900 H 1032.74 1.41967 3.65497 0
M  V30 10901 H 1034.23 0.555783 4.13885 0
M  V30 10902 N 1034.67 -1.14067 1.0875 0
M  V30 10903 C 1035.6 -2.21385 0.74236 0
M  V30 10904 C 1036.58 -1.67833 -0.276805 0
M  V30 10905 O 1037.77 -1.93647 -0.1464 0
M  V30 10906 C 1034.9 -3.46956 0.154644 0
M  V30 10907 C 1033.85 -4.13555 1.10255 0
M  V30 10908 C 1033.18 -5.3337 0.376877 0
M  V30 10909 C 1034.48 -4.6169 2.44213 0
M  V30 10910 H 1036.17 -2.50512 1.63964 0
M  V30 10911 H 1033.72 -1.20408 0.789807 0
M  V30 10912 H 1035.67 -4.21284 -0.0988419 0
M  V30 10913 H 1034.39 -3.17203 -0.777789 0
M  V30 10914 H 1033.05 -3.41186 1.34119 0
M  V30 10915 H 1032.7 -4.99879 -0.559472 0
M  V30 10916 H 1032.4 -5.78875 1.00884 0
M  V30 10917 H 1033.92 -6.10458 0.131527 0
M  V30 10918 H 1035.34 -5.27475 2.24595 0
M  V30 10919 H 1033.74 -5.17909 3.03134 0
M  V30 10920 H 1034.81 -3.76574 3.05483 0
M  V30 10921 N 1036.15 -0.873678 -1.31166 0
M  V30 10922 C 1037.1 -0.321349 -2.3037 0
M  V30 10923 C 1038.09 0.565568 -1.5968 0
M  V30 10924 O 1039.3 0.451257 -1.74252 0
M  V30 10925 H 1035.67 -0.0852425 -0.747153 0
M  V30 10926 H 1037.64 -1.17191 -2.74425 0
M  V30 10927 C 1036.39 0.459016 -3.44657 0
M  V30 10928 H 1035.71 -0.214185 -3.99226 0
M  V30 10929 H 1037.15 0.810758 -4.16176 0
M  V30 10930 C 1035.61 1.65173 -2.93632 0
M  V30 10931 O 1036.14 2.75105 -2.92711 0
M  V30 10932 N 1034.35 1.4851 -2.49786 0
M  V30 10933 H 1033.9 0.590785 -2.50734 0
M  V30 10934 H 1033.85 2.28452 -2.16002 0
M  V30 10935 N 1037.63 1.44308 -0.633487 0
M  V30 10936 C 1038.9 1.95476 -0.0697262 0
M  V30 10937 C 1039.28 1.57539 1.40516 0
M  V30 10938 O 1038.63 0.850632 2.12077 0
M  V30 10939 C 1038.84 3.4775 -0.295093 0
M  V30 10940 C 1040.19 4.24177 -0.189542 0
M  V30 10941 O 1041.21 3.55479 -0.226586 0
M  V30 10942 O 1040.07 5.46415 -0.096479 0
M  V30 10943 H 1037.17 0.826734 0.0209582 0
M  V30 10944 H 1039.71 1.54347 -0.705354 0
M  V30 10945 H 1038.48 3.6842 -1.31841 0
M  V30 10946 H 1038.11 3.95832 0.37456 0
M  V30 10947 N 1039.1 0.374177 1.53094 0
M  V30 10948 C 1040.33 -0.213325 2.05797 0
M  V30 10949 C 1040.75 -1.41753 1.24706 0
M  V30 10950 O 1040.1 -1.80183 0.289868 0
M  V30 10951 C 1040.16 -0.598367 3.56513 0
M  V30 10952 O 1039.88 0.557983 4.34532 0
M  V30 10953 C 1041.38 -1.24334 4.25507 0
M  V30 10954 H 1038.6 -0.0357398 0.670048 0
M  V30 10955 H 1041.14 0.535035 1.97377 0
M  V30 10956 H 1039.3 -1.29663 3.65056 0
M  V30 10957 H 1039.71 0.244911 5.23928 0
M  V30 10958 H 1041.18 -1.46325 5.32253 0
M  V30 10959 H 1041.66 -2.20622 3.79766 0
M  V30 10960 H 1042.27 -0.586269 4.2124 0
M  V30 10961 N 1040.58 -1.57259 0.103575 0
M  V30 10962 C 1041.83 -1.95744 -0.552781 0
M  V30 10963 C 1042.18 -0.985175 -1.65264 0
M  V30 10964 O 1041.48 -0.0125763 -1.91596 0
M  V30 10965 C 1041.67 -3.38549 -1.14538 0
M  V30 10966 C 1041.5 -4.49579 -0.104467 0
M  V30 10967 C 1040.27 -5.04273 0.321999 0
M  V30 10968 C 1042.47 -5.09909 0.670622 0
M  V30 10969 N 1040.45 -5.98866 1.3503 0
M  V30 10970 C 1041.82 -6.00299 1.55052 0
M  V30 10971 C 1043.88 -4.9262 0.723209 0
M  V30 10972 C 1042.58 -6.75254 2.4784 0
M  V30 10973 C 1044.6 -5.68243 1.63873 0
M  V30 10974 C 1043.97 -6.58306 2.50624 0
M  V30 10975 H 1040.07 -0.762769 -0.172359 0
M  V30 10976 H 1042.65 -1.93789 0.188113 0
M  V30 10977 H 1040.82 -3.41182 -1.85606 0
M  V30 10978 H 1042.55 -3.64194 -1.7648 0
M  V30 10979 H 1039.31 -4.73552 -0.0674026 0
M  V30 10980 H 1039.73 -6.50865 1.86291 0
M  V30 10981 H 1044.37 -4.22747 0.0666625 0
M  V30 10982 H 1042.09 -7.44383 3.14516 0
M  V30 10983 H 1045.68 -5.56876 1.68466 0
M  V30 10984 H 1044.56 -7.15799 3.20315 0
M  V30 10985 N 1042.06 0.170153 -1.56679 0
M  V30 10986 C 1043.01 1.21064 -1.965 0
M  V30 10987 C 1043.98 1.43928 -0.829092 0
M  V30 10988 O 1045.16 1.56649 -1.08931 0
M  V30 10989 C 1042.3 2.54468 -2.33109 0
M  V30 10990 C 1041.42 2.38974 -3.59883 0
M  V30 10991 C 1040.55 3.65252 -3.857 0
M  V30 10992 C 1039.59 3.44696 -5.05817 0
M  V30 10993 N 1038.73 4.63047 -5.27761 0
M  V30 10994 H 1043.57 0.864055 -2.85198 0
M  V30 10995 H 1041.1 0.415243 -1.41117 0
M  V30 10996 H 1043.06 3.32222 -2.52358 0
M  V30 10997 H 1041.69 2.8712 -1.4752 0
M  V30 10998 H 1040.74 1.5239 -3.48542 0
M  V30 10999 H 1042.06 2.19731 -4.47794 0
M  V30 11000 H 1041.21 4.51441 -4.05322 0
M  V30 11001 H 1039.95 3.87475 -2.96166 0
M  V30 11002 H 1038.95 2.56893 -4.86092 0
M  V30 11003 H 1040.18 3.23894 -5.96883 0
M  V30 11004 H 1038.12 4.85487 -4.41179 0
M  V30 11005 H 1038.04 4.46722 -6.09898 0
M  V30 11006 H 1039.31 5.50516 -5.51863 0
M  V30 11007 N 1043.54 1.5137 0.438746 0
M  V30 11008 C 1044.79 1.63202 1.18524 0
M  V30 11009 C 1045.1 0.353408 1.92381 0
M  V30 11010 O 1046.31 0.351086 2.6922 0
M  V30 11011 C 1044.76 2.88218 2.15542 0
M  V30 11012 C 1044.37 4.23078 1.47339 0
M  V30 11013 C 1046.11 3.09407 2.90633 0
M  V30 11014 C 1044.02 5.39246 2.42833 0
M  V30 11015 H 1042.95 0.607864 0.446114 0
M  V30 11016 H 1045.6 1.77835 0.452421 0
M  V30 11017 H 1043.98 2.67216 2.92253 0
M  V30 11018 H 1045.16 4.54457 0.761964 0
M  V30 11019 H 1043.47 4.07755 0.844065 0
M  V30 11020 H 1046.07 3.9337 3.62165 0
M  V30 11021 H 1046.41 2.22428 3.51897 0
M  V30 11022 H 1046.95 3.30743 2.21029 0
M  V30 11023 H 1043.69 6.2848 1.8626 0
M  V30 11024 H 1043.21 5.12245 3.12034 0
M  V30 11025 H 1044.88 5.71137 3.03992 0
M  V30 11026 N 1045.02 -0.694098 1.41492 0
M  V30 11027 C 1045.93 -1.83778 1.45818 0
M  V30 11028 C 1046.94 -1.70471 0.348639 0
M  V30 11029 O 1048.12 -1.92361 0.596588 0
M  V30 11030 C 1045.18 -3.19771 1.33967 0
M  V30 11031 C 1044.24 -3.45175 2.5525 0
M  V30 11032 C 1043.48 -4.74681 2.43955 0
M  V30 11033 O 1043.7 -5.51268 1.46491 0
M  V30 11034 O 1042.63 -5.00901 3.33739 0
M  V30 11035 H 1046.46 -1.83084 2.42309 0
M  V30 11036 H 1044.05 -0.847349 1.23046 0
M  V30 11037 H 1045.93 -4.00961 1.29648 0
M  V30 11038 H 1044.6 -3.21145 0.405926 0
M  V30 11039 H 1043.51 -2.6391 2.65146 0
M  V30 11040 H 1044.84 -3.48617 3.47458 0
M  V30 11041 N 1046.49 -1.27344 -0.928501 0
M  V30 11042 C 1047.44 -1.10001 -2.029 0
M  V30 11043 C 1048.41 -0.00131084 -1.661 0
M  V30 11044 O 1049.6 -0.163485 -1.90098 0
M  V30 11045 C 1046.74 -0.7524 -3.36798 0
M  V30 11046 C 1045.85 -1.92865 -3.86558 0
M  V30 11047 C 1044.98 -1.52299 -5.08899 0
M  V30 11048 C 1044.02 -2.66677 -5.50953 0
M  V30 11049 N 1043.16 -2.26706 -6.64491 0
M  V30 11050 H 1048 -2.0417 -2.17068 0
M  V30 11051 H 1045.54 -1.01637 -1.0634 0
M  V30 11052 H 1047.5 -0.531687 -4.13798 0
M  V30 11053 H 1046.13 0.15234 -3.2244 0
M  V30 11054 H 1045.18 -2.26192 -3.05845 0
M  V30 11055 H 1046.49 -2.78668 -4.13698 0
M  V30 11056 H 1045.64 -1.26348 -5.93398 0
M  V30 11057 H 1044.38 -0.636042 -4.83535 0
M  V30 11058 H 1043.39 -2.93344 -4.65004 0
M  V30 11059 H 1044.61 -3.55992 -5.78313 0
M  V30 11060 H 1042.56 -1.40462 -6.40786 0
M  V30 11061 H 1042.48 -3.06049 -6.91281 0
M  V30 11062 H 1043.74 -2.04 -7.52333 0
M  V30 11063 N 1047.97 1.13488 -1.09353 0
M  V30 11064 C 1048.94 2.17066 -0.735863 0
M  V30 11065 C 1049.94 1.59086 0.234181 0
M  V30 11066 O 1051.13 1.74196 0.012463 0
M  V30 11067 C 1048.26 3.40786 -0.0880975 0
M  V30 11068 H 1049.45 2.50221 -1.65316 0
M  V30 11069 H 1047 1.28304 -0.89263 0
M  V30 11070 H 1047.74 3.1322 0.840462 0
M  V30 11071 H 1047.52 3.8414 -0.786073 0
M  V30 11072 H 1049.01 4.17342 0.146775 0
M  V30 11073 N 1049.45 0.880621 1.30701 0
M  V30 11074 C 1050.68 0.510909 2.01009 0
M  V30 11075 C 1051.1 -0.892041 1.65603 0
M  V30 11076 O 1050.46 -1.59045 0.870309 0
M  V30 11077 C 1050.51 0.687759 3.53981 0
M  V30 11078 O 1049.61 -0.268275 4.11526 0
M  V30 11079 H 1048.95 0.201864 0.632572 0
M  V30 11080 H 1051.48 1.18697 1.6665 0
M  V30 11081 H 1051.49 0.585095 4.03783 0
M  V30 11082 H 1050.17 1.71068 3.79089 0
M  V30 11083 H 1048.74 -0.119673 3.72708 0
M  V30 11084 N 1050.93 -1.4397 0.641131 0
M  V30 11085 C 1052.18 -2.01946 0.149629 0
M  V30 11086 C 1052.5 -1.50496 -1.23212 0
M  V30 11087 O 1051.76 -0.683453 -1.83378 0
M  V30 11088 C 1052.06 -3.5727 0.0963368 0
M  V30 11089 C 1051.72 -4.28016 1.4182 0
M  V30 11090 C 1050.39 -4.47059 1.78021 0
M  V30 11091 C 1052.74 -4.68183 2.29028 0
M  V30 11092 C 1050.07 -5.03532 3.01119 0
M  V30 11093 C 1052.42 -5.26019 3.51406 0
M  V30 11094 C 1051.08 -5.4328 3.87818 0
M  V30 11095 H 1050.35 -0.738974 0.0547531 0
M  V30 11096 H 1053 -1.72605 0.829436 0
M  V30 11097 H 1051.3 -3.86083 -0.666879 0
M  V30 11098 H 1053 -3.99871 -0.300635 0
M  V30 11099 H 1049.59 -4.13531 1.12651 0
M  V30 11100 H 1053.78 -4.53175 2.02353 0
M  V30 11101 H 1049.03 -5.15082 3.29395 0
M  V30 11102 H 1053.21 -5.56092 4.19208 0
M  V30 11103 H 1050.83 -5.86805 4.83284 0
M  V30 11104 N 1052.41 -0.382291 -1.52893 0
M  V30 11105 C 1053.66 0.203342 -2.00672 0
M  V30 11106 C 1053.97 1.48487 -1.27322 0
M  V30 11107 O 1055.18 2.15013 -1.65776 0
M  V30 11108 C 1053.63 0.412922 -3.57523 0
M  V30 11109 C 1053.24 -0.854949 -4.39767 0
M  V30 11110 C 1054.98 0.955301 -4.13611 0
M  V30 11111 C 1052.89 -0.614033 -5.88204 0
M  V30 11112 H 1051.82 0.0797635 -0.749769 0
M  V30 11113 H 1054.47 -0.50361 -1.76454 0
M  V30 11114 H 1052.85 1.18155 -3.77962 0
M  V30 11115 H 1054.03 -1.62765 -4.31096 0
M  V30 11116 H 1052.34 -1.32176 -3.94865 0
M  V30 11117 H 1054.94 1.15114 -5.22162 0
M  V30 11118 H 1055.28 1.92233 -3.69259 0
M  V30 11119 H 1055.82 0.24642 -3.97036 0
M  V30 11120 H 1052.55 -1.55187 -6.36865 0
M  V30 11121 H 1052.07 0.119865 -5.9968 0
M  V30 11122 H 1053.75 -0.245895 -6.46533 0
M  V30 11123 N 1053.89 1.57202 -0.111913 0
M  V30 11124 C 1054.8 2.18475 0.854753 0
M  V30 11125 C 1055.81 1.15888 1.29792 0
M  V30 11126 O 1056.99 1.48329 1.36237 0
M  V30 11127 C 1054.05 2.76645 2.0897 0
M  V30 11128 C 1053.11 3.94244 1.69913 0
M  V30 11129 C 1052.35 4.49631 2.8752 0
M  V30 11130 O 1052.57 4.03926 4.02741 0
M  V30 11131 O 1051.5 5.40417 2.65015 0
M  V30 11132 H 1055.33 3.01519 0.363352 0
M  V30 11133 H 1052.91 1.4897 0.113329 0
M  V30 11134 H 1054.8 3.13755 2.81311 0
M  V30 11135 H 1053.47 1.96637 2.5713 0
M  V30 11136 H 1052.38 3.61915 0.947013 0
M  V30 11137 H 1053.71 4.75666 1.26501 0
M  V30 11138 N 1055.36 -0.161842 1.56767 0
M  V30 11139 C 1056.61 -0.878224 1.82798 0
M  V30 11140 C 1056.94 -1.81481 0.691242 0
M  V30 11141 O 1056.22 -1.92075 -0.30618 0
M  V30 11142 C 1056.5 -1.66565 3.19262 0
M  V30 11143 C 1056.35 -0.751551 4.43477 0
M  V30 11144 C 1057.67 -2.63134 3.52773 0
M  V30 11145 H 1054.79 -0.317828 0.664947 0
M  V30 11146 H 1057.43 -0.14402 1.89453 0
M  V30 11147 H 1055.58 -2.29157 3.13719 0
M  V30 11148 H 1057.26 -0.137783 4.61094 0
M  V30 11149 H 1055.5 -0.0601785 4.33758 0
M  V30 11150 H 1056.17 -1.33823 5.35533 0
M  V30 11151 H 1058.65 -2.10666 3.5883 0
M  V30 11152 H 1057.52 -3.15289 4.49315 0
M  V30 11153 H 1057.78 -3.43786 2.77963 0
M  V30 11154 N 1056.84 -1.516 -0.430713 0
M  V30 11155 C 1057.79 -1.73392 -1.52328 0
M  V30 11156 C 1058.76 -0.575758 -1.55802 0
M  V30 11157 O 1059.94 -0.810931 -1.72709 0
M  V30 11158 C 1057.08 -1.87092 -2.89984 0
M  V30 11159 C 1056.2 -3.14668 -2.95987 0
M  V30 11160 C 1055.33 -3.18923 -4.24807 0
M  V30 11161 C 1054.37 -4.40787 -4.24703 0
M  V30 11162 N 1053.51 -4.42556 -5.45059 0
M  V30 11163 H 1058.35 -2.6665 -1.33048 0
M  V30 11164 H 1055.88 -1.32146 -0.646207 0
M  V30 11165 H 1057.84 -1.93017 -3.69865 0
M  V30 11166 H 1056.47 -0.972363 -3.07807 0
M  V30 11167 H 1055.52 -3.1802 -2.08728 0
M  V30 11168 H 1056.84 -4.04562 -2.91772 0
M  V30 11169 H 1055.99 -3.23801 -5.13067 0
M  V30 11170 H 1054.73 -2.2693 -4.31688 0
M  V30 11171 H 1053.73 -4.36079 -3.34836 0
M  V30 11172 H 1054.96 -5.34053 -4.19481 0
M  V30 11173 H 1052.91 -3.53435 -5.52648 0
M  V30 11174 H 1052.82 -5.26267 -5.42751 0
M  V30 11175 H 1054.09 -4.51634 -6.35332 0
M  V30 11176 N 1058.32 0.686584 -1.41858 0
M  V30 11177 C 1059.54 1.4802 -1.45275 0
M  V30 11178 C 1059.97 1.87997 -0.0621297 0
M  V30 11179 O 1059.33 1.55226 0.936733 0
M  V30 11180 C 1059.38 2.7133 -2.37513 0
M  V30 11181 O 1058.48 3.69159 -1.83836 0
M  V30 11182 H 1057.82 0.445152 -0.492682 0
M  V30 11183 H 1060.35 0.843161 -1.86419 0
M  V30 11184 H 1060.36 3.19537 -2.53693 0
M  V30 11185 H 1059.04 2.41571 -3.3855 0
M  V30 11186 H 1057.61 3.28134 -1.77151 0
M  V30 11187 N 1059.8 1.27835 0.921735 0
M  V30 11188 C 1061.04 1.15766 1.68457 0
M  V30 11189 C 1061.4 -0.290542 1.89789 0
M  V30 11190 O 1062.6 -0.53378 2.63447 0
M  V30 11191 C 1060.87 1.92591 3.0107 0
M  V30 11192 S 1062.43 1.96804 3.92191 0
M  V30 11193 H 1059.25 0.413169 0.578629 0
M  V30 11194 H 1061.85 1.61826 1.09693 0
M  V30 11195 H 1060.56 2.96991 2.8324 0
M  V30 11196 H 1060.09 1.47049 3.64884 0
M  V30 11197 H 1062.1 1.06877 4.84553 0
M  V30 11198 N 1061.28 -1.12907 1.09954 0
M  V30 11199 C 1062.23 -2.16558 0.713204 0
M  V30 11200 C 1063.21 -1.5853 -0.27515 0
M  V30 11201 O 1064.4 -1.76797 -0.0846643 0
M  V30 11202 C 1061.53 -3.43009 0.141224 0
M  V30 11203 C 1060.62 -4.08032 1.15632 0
M  V30 11204 N 1061.01 -4.48139 2.34531 0
M  V30 11205 C 1059.31 -4.34743 0.995701 0
M  V30 11206 C 1060.01 -4.98885 2.99147 0
M  V30 11207 N 1058.98 -4.9408 2.26684 0
M  V30 11208 H 1062.78 -2.45328 1.61838 0
M  V30 11209 H 1060.3 -1.29759 0.976539 0
M  V30 11210 H 1062.3 -4.16617 -0.153598 0
M  V30 11211 H 1060.96 -3.15711 -0.758729 0
M  V30 11212 H 1061.97 -4.40668 2.72089 0
M  V30 11213 H 1058.64 -4.17227 0.150888 0
M  V30 11214 H 1060.03 -5.3967 4.00257 0
M  V30 11215 N 1062.75 -0.88754 -1.30232 0
M  V30 11216 C 1064 -0.517406 -1.96709 0
M  V30 11217 C 1064.35 0.923757 -1.68774 0
M  V30 11218 O 1063.65 1.64435 -0.983443 0
M  V30 11219 C 1063.84 -0.731765 -3.49828 0
M  V30 11220 C 1063.67 -2.19221 -3.92648 0
M  V30 11221 C 1062.44 -2.83729 -4.18122 0
M  V30 11222 C 1064.64 -3.16627 -4.0528 0
M  V30 11223 N 1062.62 -4.20343 -4.4742 0
M  V30 11224 C 1063.99 -4.38322 -4.38491 0
M  V30 11225 C 1066.05 -3.12381 -3.87715 0
M  V30 11226 C 1064.75 -5.56315 -4.55967 0
M  V30 11227 C 1066.78 -4.29648 -4.06394 0
M  V30 11228 C 1066.14 -5.5011 -4.39953 0
M  V30 11229 H 1062.24 -0.238709 -0.744676 0
M  V30 11230 H 1064.82 -1.14581 -1.57414 0
M  V30 11231 H 1062.99 -0.132827 -3.88173 0
M  V30 11232 H 1064.72 -0.328276 -4.03366 0
M  V30 11233 H 1061.48 -2.34584 -4.11421 0
M  V30 11234 H 1061.9 -4.90905 -4.66199 0
M  V30 11235 H 1066.54 -2.20345 -3.60843 0
M  V30 11236 H 1064.26 -6.48853 -4.8168 0
M  V30 11237 H 1067.85 -4.27835 -3.94269 0
M  V30 11238 H 1066.73 -6.39339 -4.54109 0
M  V30 11239 N 1064.23 1.43628 -0.648757 0
M  V30 11240 C 1065.64 1.85142 -0.24066 0
M  V30 11241 C 1065.99 1.54304 1.21181 0
M  V30 11242 O 1065.12 0.989792 1.92437 0
M  V30 11243 C 1065.71 3.3606 -0.429999 0
M  V30 11244 C 1064.27 3.76323 -0.0762588 0
M  V30 11245 C 1063.42 2.67382 -0.734999 0
M  V30 11246 H 1066.37 1.33844 -0.852734 0
M  V30 11247 H 1066.39 3.79102 0.325836 0
M  V30 11248 H 1065.9 3.58474 -1.48721 0
M  V30 11249 H 1064.01 3.59521 0.978529 0
M  V30 11250 H 1064.12 4.76498 -0.498612 0
M  V30 11251 H 1062.48 2.54141 -0.168644 0
M  V30 11252 H 1063.27 2.92625 -1.79515 0
M  V30 11253 N 1065.71 0.390394 1.52688 0
M  V30 11254 C 1066.66 -0.444229 2.26485 0
M  V30 11255 C 1067.63 -1.05688 1.28138 0
M  V30 11256 O 1068.81 -1.0847 1.56968 0
M  V30 11257 C 1065.95 -1.56501 3.07574 0
M  V30 11258 C 1065.07 -0.975111 4.20851 0
M  V30 11259 C 1064.2 -2.06704 4.89333 0
M  V30 11260 C 1063.24 -1.45309 5.94602 0
M  V30 11261 N 1062.38 -2.48437 6.56676 0
M  V30 11262 H 1067.22 0.191535 2.97384 0
M  V30 11263 H 1064.75 0.106287 1.46716 0
M  V30 11264 H 1066.71 -2.22558 3.52879 0
M  V30 11265 H 1065.34 -2.17107 2.38881 0
M  V30 11266 H 1064.39 -0.204109 3.79852 0
M  V30 11267 H 1065.71 -0.486465 4.96422 0
M  V30 11268 H 1064.86 -2.80528 5.37949 0
M  V30 11269 H 1063.6 -2.58928 4.13289 0
M  V30 11270 H 1062.6 -0.700091 5.45324 0
M  V30 11271 H 1063.83 -0.938775 6.7258 0
M  V30 11272 H 1061.77 -2.99829 5.83471 0
M  V30 11273 H 1061.69 -2.04331 7.27863 0
M  V30 11274 H 1062.96 -3.21888 7.09935 0
M  V30 11275 N 1067.19 -1.57141 0.120249 0
M  V30 11276 C 1068.41 -2.00017 -0.548454 0
M  V30 11277 C 1068.84 -0.999433 -1.59352 0
M  V30 11278 O 1068.2 0.0286978 -1.81277 0
M  V30 11279 C 1068.24 -3.41766 -1.15015 0
M  V30 11280 O 1067.35 -3.44589 -2.26566 0
M  V30 11281 H 1066.69 -0.649739 -0.136875 0
M  V30 11282 H 1069.22 -2.03529 0.209092 0
M  V30 11283 H 1069.23 -3.80001 -1.48537 0
M  V30 11284 H 1067.9 -4.14117 -0.384681 0
M  V30 11285 H 1066.48 -3.18174 -1.94473 0
M  V30 11286 N 1068.67 0.153526 -1.5685 0
M  V30 11287 C 1069.62 1.19478 -1.94188 0
M  V30 11288 C 1070.6 1.38889 -0.812329 0
M  V30 11289 O 1071.79 1.4056 -1.07572 0
M  V30 11290 C 1068.92 2.53 -2.32047 0
M  V30 11291 C 1068.01 2.37209 -3.51557 0
M  V30 11292 N 1068.4 1.91162 -4.68285 0
M  V30 11293 C 1066.7 2.67981 -3.56514 0
M  V30 11294 C 1067.4 1.88259 -5.50394 0
M  V30 11295 N 1066.37 2.31329 -4.91923 0
M  V30 11296 H 1070.18 0.830748 -2.81915 0
M  V30 11297 H 1067.69 0.361643 -1.58322 0
M  V30 11298 H 1069.69 3.28264 -2.56998 0
M  V30 11299 H 1068.35 2.90191 -1.45669 0
M  V30 11300 H 1069.36 1.61227 -4.92165 0
M  V30 11301 H 1066.03 3.0909 -2.80659 0
M  V30 11302 H 1067.42 1.54205 -6.53965 0
M  V30 11303 N 1070.14 1.51827 0.422667 0
M  V30 11304 C 1071.37 1.69049 1.1929 0
M  V30 11305 C 1071.79 0.394095 1.84641 0
M  V30 11306 O 1071.14 -0.628731 1.71328 0
M  V30 11307 C 1071.2 2.81657 2.26609 0
M  V30 11308 O 1070.92 4.06275 1.63929 0
M  V30 11309 C 1072.42 3.10274 3.16615 0
M  V30 11310 H 1069.64 0.566894 0.358988 0
M  V30 11311 H 1072.18 1.98318 0.499029 0
M  V30 11312 H 1070.34 2.54945 2.91688 0
M  V30 11313 H 1070.75 4.68924 2.3497 0
M  V30 11314 H 1072.22 3.92613 3.88019 0
M  V30 11315 H 1072.7 2.23273 3.78214 0
M  V30 11316 H 1073.31 3.387 2.57221 0
M  V30 11317 N 1071.62 -0.679052 1.4222 0
M  V30 11318 C 1072.55 -1.80481 1.48152 0
M  V30 11319 C 1073.53 -1.66698 0.338502 0
M  V30 11320 O 1074.72 -1.86183 0.552228 0
M  V30 11321 C 1071.85 -3.18746 1.37908 0
M  V30 11322 C 1070.8 -3.47258 2.50192 0
M  V30 11323 C 1070.13 -4.85052 2.25008 0
M  V30 11324 C 1071.43 -3.44576 3.92511 0
M  V30 11325 H 1073.12 -1.75774 2.42371 0
M  V30 11326 H 1070.67 -0.844241 1.16656 0
M  V30 11327 H 1072.62 -3.97229 1.40666 0
M  V30 11328 H 1071.35 -3.24119 0.401806 0
M  V30 11329 H 1070 -2.71133 2.46744 0
M  V30 11330 H 1069.65 -4.8707 1.25584 0
M  V30 11331 H 1069.35 -5.05092 3.00259 0
M  V30 11332 H 1070.88 -5.65825 2.29508 0
M  V30 11333 H 1072.29 -4.13036 3.97585 0
M  V30 11334 H 1070.69 -3.76151 4.67579 0
M  V30 11335 H 1071.76 -2.4323 4.19484 0
M  V30 11336 N 1073.1 -1.28322 -0.914942 0
M  V30 11337 C 1074.35 -1.16587 -1.6667 0
M  V30 11338 C 1074.7 0.282961 -1.90308 0
M  V30 11339 O 1073.99 1.20269 -1.49151 0
M  V30 11340 C 1074.19 -1.89663 -3.02924 0
M  V30 11341 C 1074.02 -3.41504 -2.92584 0
M  V30 11342 C 1072.79 -4.10841 -2.94173 0
M  V30 11343 C 1074.99 -4.37266 -2.70745 0
M  V30 11344 N 1072.97 -5.49157 -2.74409 0
M  V30 11345 C 1074.34 -5.62937 -2.59812 0
M  V30 11346 C 1076.39 -4.27207 -2.55732 0
M  V30 11347 C 1075.1 -6.79692 -2.35397 0
M  V30 11348 C 1077.12 -5.43697 -2.32697 0
M  V30 11349 C 1076.48 -6.6833 -2.22517 0
M  V30 11350 H 1072.58 -0.481552 -0.616142 0
M  V30 11351 H 1075.17 -1.61957 -1.08065 0
M  V30 11352 H 1073.34 -1.46729 -3.59618 0
M  V30 11353 H 1075.07 -1.70323 -3.67113 0
M  V30 11354 H 1071.83 -3.62412 -3.04884 0
M  V30 11355 H 1072.25 -6.21858 -2.67622 0
M  V30 11356 H 1076.89 -3.31557 -2.62354 0
M  V30 11357 H 1074.61 -7.75412 -2.27514 0
M  V30 11358 H 1078.2 -5.37802 -2.21947 0
M  V30 11359 H 1077.08 -7.56949 -2.04936 0
M  V30 11360 N 1074.58 1.12322 -1.10551 0
M  V30 11361 C 1075.8 1.8822 -0.871093 0
M  V30 11362 C 1076.23 1.7916 0.573005 0
M  V30 11363 O 1075.59 1.14738 1.40374 0
M  V30 11364 C 1075.63 3.35349 -1.32565 0
M  V30 11365 O 1074.74 4.09461 -0.49145 0
M  V30 11366 H 1074.08 0.584787 -0.314516 0
M  V30 11367 H 1076.61 1.42039 -1.47262 0
M  V30 11368 H 1076.62 3.86189 -1.31612 0
M  V30 11369 H 1075.29 3.4126 -2.37728 0
M  V30 11370 H 1073.87 3.68575 -0.566294 0
M  V30 11371 N 1076.06 0.894434 1.2976 0
M  V30 11372 C 1077 0.357958 2.29829 0
M  V30 11373 C 1078 -0.540093 1.6056 0
M  V30 11374 O 1079.2 -0.423478 1.74948 0
M  V30 11375 H 1075.58 0.0971183 0.745702 0
M  V30 11376 H 1077.55 1.21542 2.72526 0
M  V30 11377 C 1076.3 -0.404126 3.45343 0
M  V30 11378 H 1075.62 0.277671 3.98835 0
M  V30 11379 H 1077.06 -0.744446 4.17413 0
M  V30 11380 C 1075.52 -1.6048 2.96222 0
M  V30 11381 O 1076.05 -2.70414 2.97051 0
M  V30 11382 N 1074.26 -1.44517 2.52117 0
M  V30 11383 H 1073.8 -0.55082 2.51642 0
M  V30 11384 H 1073.76 -2.24987 2.1961 0
M  V30 11385 N 1077.53 -1.43282 0.656365 0
M  V30 11386 C 1078.78 -2.01378 0.170702 0
M  V30 11387 C 1079.1 -1.52063 -1.22073 0
M  V30 11388 O 1078.37 -0.73456 -1.81607 0
M  V30 11389 H 1076.95 -0.744577 0.0601168 0
M  V30 11390 H 1079.62 -1.75449 0.848739 0
M  V30 11391 H 1078.71 -3.11701 0.157745 0
M  V30 11392 N 1079.01 -0.398486 -1.52479 0
M  V30 11393 C 1080.26 0.181019 -2.0199 0
M  V30 11394 C 1080.59 1.45691 -1.28405 0
M  V30 11395 O 1079.87 1.90607 -0.387207 0
M  V30 11396 C 1080.15 0.439587 -3.57407 0
M  V30 11397 C 1080 -0.85223 -4.41653 0
M  V30 11398 C 1081.32 1.2263 -4.2267 0
M  V30 11399 H 1078.44 0.0643164 -0.734188 0
M  V30 11400 H 1081.08 -0.52986 -1.82462 0
M  V30 11401 H 1079.23 1.04516 -3.74177 0
M  V30 11402 H 1080.91 -1.48879 -4.36615 0
M  V30 11403 H 1079.15 -1.46555 -4.08294 0
M  V30 11404 H 1079.82 -0.625839 -5.48441 0
M  V30 11405 H 1082.3 0.713722 -4.09933 0
M  V30 11406 H 1081.17 1.37596 -5.31374 0
M  V30 11407 H 1081.43 2.24403 -3.80914 0
M  V30 11408 N 1080.49 1.57075 -0.12858 0
M  V30 11409 C 1081.42 2.18833 0.814519 0
M  V30 11410 C 1082.4 1.13114 1.2704 0
M  V30 11411 O 1083.59 1.41387 1.33129 0
M  V30 11412 C 1080.72 2.79535 2.06101 0
M  V30 11413 C 1079.67 3.9092 1.74257 0
M  V30 11414 C 1079 4.38473 3.06015 0
M  V30 11415 C 1080.3 5.1257 1.00345 0
M  V30 11416 H 1081.99 2.97895 0.299862 0
M  V30 11417 H 1079.54 1.4329 0.14279 0
M  V30 11418 H 1081.49 3.21401 2.72543 0
M  V30 11419 H 1080.21 1.97777 2.59907 0
M  V30 11420 H 1078.87 3.49645 1.102 0
M  V30 11421 H 1078.52 3.53561 3.57776 0
M  V30 11422 H 1078.22 5.13591 2.85479 0
M  V30 11423 H 1079.75 4.82997 3.7356 0
M  V30 11424 H 1081.16 5.51395 1.56959 0
M  V30 11425 H 1079.56 5.93333 0.898693 0
M  V30 11426 H 1080.63 4.84899 -0.0081335 0
M  V30 11427 N 1081.97 -0.145205 1.5693 0
M  V30 11428 C 1082.88 -1.19864 2.01667 0
M  V30 11429 C 1083.9 -1.46909 0.932402 0
M  V30 11430 O 1085.07 -1.58543 1.24201 0
M  V30 11431 C 1082.14 -2.51174 2.38982 0
M  V30 11432 C 1081.2 -2.3176 3.61366 0
M  V30 11433 C 1080.43 -3.56809 3.96892 0
M  V30 11434 O 1080.65 -4.63063 3.33059 0
M  V30 11435 O 1079.59 -3.49366 4.9013 0
M  V30 11436 H 1083.41 -0.848821 2.91597 0
M  V30 11437 H 1081 -0.354063 1.45144 0
M  V30 11438 H 1082.88 -3.28587 2.63835 0
M  V30 11439 H 1081.56 -2.85683 1.52207 0
M  V30 11440 H 1080.46 -1.52293 3.41698 0
M  V30 11441 H 1081.8 -2.02167 4.48764 0
M  V30 11442 N 1083.45 -1.52049 -0.414609 0
M  V30 11443 C 1084.67 -1.6997 -1.18848 0
M  V30 11444 C 1085.1 -0.406058 -1.83665 0
M  V30 11445 O 1084.46 0.635981 -1.69779 0
M  V30 11446 C 1084.5 -2.8327 -2.23138 0
M  V30 11447 O 1083.61 -2.48457 -3.29155 0
M  V30 11448 H 1082.95 -0.566003 -0.347183 0
M  V30 11449 H 1085.48 -1.98726 -0.486757 0
M  V30 11450 H 1085.49 -3.08022 -2.67557 0
M  V30 11451 H 1084.16 -3.7713 -1.75344 0
M  V30 11452 H 1082.74 -2.34357 -2.90054 0
M  V30 11453 N 1084.93 0.6715 -1.42579 0
M  V30 11454 C 1085.84 1.81435 -1.48723 0
M  V30 11455 C 1086.85 1.69895 -0.375716 0
M  V30 11456 O 1088.03 1.91388 -0.627115 0
M  V30 11457 C 1085.09 3.17599 -1.39038 0
M  V30 11458 C 1084.15 3.41071 -2.60709 0
M  V30 11459 C 1083.39 4.7074 -2.51476 0
M  V30 11460 O 1083.61 5.48868 -1.55243 0
M  V30 11461 O 1082.54 4.95528 -3.41666 0
M  V30 11462 H 1086.37 1.79206 -2.45191 0
M  V30 11463 H 1083.95 0.827666 -1.24379 0
M  V30 11464 H 1085.84 3.98847 -1.3601 0
M  V30 11465 H 1084.51 3.20458 -0.456966 0
M  V30 11466 H 1083.42 2.59659 -2.69311 0
M  V30 11467 H 1084.75 3.43045 -3.5296 0
M  V30 11468 N 1086.4 1.28806 0.908124 0
M  V30 11469 C 1087.34 1.07538 2.01273 0
M  V30 11470 C 1088.31 -0.0102454 1.62597 0
M  V30 11471 O 1089.5 0.138797 1.87988 0
M  V30 11472 C 1086.63 0.635337 3.32688 0
M  V30 11473 C 1085.67 1.71843 3.90349 0
M  V30 11474 S 1086.5 3.31571 4.20501 0
M  V30 11475 C 1087.66 2.89416 5.54968 0
M  V30 11476 H 1087.89 2.01058 2.19005 0
M  V30 11477 H 1085.43 1.12857 1.05369 0
M  V30 11478 H 1087.38 0.388159 4.08661 0
M  V30 11479 H 1086.05 -0.280122 3.12848 0
M  V30 11480 H 1085.24 1.36228 4.8524 0
M  V30 11481 H 1084.84 1.91869 3.21033 0
M  V30 11482 H 1087.13 2.35936 6.35091 0
M  V30 11483 H 1088.08 3.83126 5.955 0
M  V30 11484 H 1088.48 2.27962 5.16424 0
M  V30 11485 N 1087.88 -1.11734 1.11145 0
M  V30 11486 C 1089.13 -1.83677 0.859684 0
M  V30 11487 C 1089.46 -1.84265 -0.613182 0
M  V30 11488 O 1088.74 -1.29351 -1.45254 0
M  V30 11489 C 1089.02 -3.31003 1.41805 0
M  V30 11490 C 1088.87 -3.38827 2.95831 0
M  V30 11491 C 1090.19 -4.26984 1.06645 0
M  V30 11492 H 1087.31 -0.666879 0.313754 0
M  V30 11493 H 1089.95 -1.31038 1.37583 0
M  V30 11494 H 1088.1 -3.75961 0.979054 0
M  V30 11495 H 1089.77 -3.02451 3.48312 0
M  V30 11496 H 1088.02 -2.79143 3.32056 0
M  V30 11497 H 1088.69 -4.42508 3.29986 0
M  V30 11498 H 1091.16 -3.9019 1.44537 0
M  V30 11499 H 1090.04 -5.2846 1.48394 0
M  V30 11500 H 1090.3 -4.42094 -0.0231866 0
M  V30 11501 N 1089.36 -0.901303 -1.29284 0
M  V30 11502 C 1090.61 -0.52401 -1.94774 0
M  V30 11503 C 1090.92 0.934645 -1.71825 0
M  V30 11504 O 1092.13 1.41953 -2.31434 0
M  V30 11505 C 1090.58 -0.886262 -3.48817 0
M  V30 11506 C 1090.19 -2.3638 -3.80564 0
M  V30 11507 C 1091.94 -0.578955 -4.20533 0
M  V30 11508 C 1089.84 -2.66682 -5.27858 0
M  V30 11509 H 1088.77 -0.192244 -0.72908 0
M  V30 11510 H 1091.42 -1.09852 -1.46986 0
M  V30 11511 H 1089.81 -0.240666 -3.95268 0
M  V30 11512 H 1090.98 -3.05508 -3.44966 0
M  V30 11513 H 1089.29 -2.64029 -3.2199 0
M  V30 11514 H 1091.89 -0.782185 -5.28948 0
M  V30 11515 H 1092.23 0.482605 -4.13493 0
M  V30 11516 H 1092.77 -1.18246 -3.79819 0
M  V30 11517 H 1089.51 -3.71643 -5.39965 0
M  V30 11518 H 1089.03 -2.02179 -5.64698 0
M  V30 11519 H 1090.71 -2.53033 -5.95469 0
M  V30 11520 N 1090.84 1.42931 -0.663954 0
M  V30 11521 C 1092.25 1.84877 -0.260283 0
M  V30 11522 C 1092.6 1.5558 1.19538 0
M  V30 11523 O 1091.72 1.01015 1.91377 0
M  V30 11524 C 1092.32 3.35585 -0.465618 0
M  V30 11525 C 1090.88 3.76221 -0.116169 0
M  V30 11526 C 1090.03 2.66587 -0.763317 0
M  V30 11527 H 1092.98 1.32932 -0.866882 0
M  V30 11528 H 1093 3.79427 0.285608 0
M  V30 11529 H 1092.51 3.56877 -1.52515 0
M  V30 11530 H 1090.61 3.60539 0.940342 0
M  V30 11531 H 1090.72 4.75943 -0.549123 0
M  V30 11532 H 1089.09 2.53948 -0.19559 0
M  V30 11533 H 1089.87 2.90704 -1.82609 0
M  V30 11534 N 1092.32 0.406567 1.52266 0
M  V30 11535 C 1093.26 -0.420182 2.26943 0
M  V30 11536 C 1094.23 -1.04323 1.29251 0
M  V30 11537 O 1095.42 -1.06799 1.5811 0
M  V30 11538 C 1092.56 -1.5323 3.09216 0
M  V30 11539 C 1091.67 -0.930419 4.21862 0
M  V30 11540 C 1090.81 -2.01502 4.91498 0
M  V30 11541 C 1089.84 -1.38994 5.9611 0
M  V30 11542 N 1088.98 -2.41458 6.59274 0
M  V30 11543 H 1093.82 0.223066 2.97164 0
M  V30 11544 H 1091.36 0.121842 1.46595 0
M  V30 11545 H 1093.32 -2.18803 3.5522 0
M  V30 11546 H 1091.95 -2.14561 2.41171 0
M  V30 11547 H 1091 -0.163809 3.80047 0
M  V30 11548 H 1092.31 -0.433785 4.9691 0
M  V30 11549 H 1091.46 -2.74807 5.40894 0
M  V30 11550 H 1090.2 -2.5453 4.16012 0
M  V30 11551 H 1089.21 -0.642213 5.46036 0
M  V30 11552 H 1090.43 -0.867386 6.73538 0
M  V30 11553 H 1088.38 -2.93623 5.86619 0
M  V30 11554 H 1088.3 -1.96599 7.2999 0
M  V30 11555 H 1089.56 -3.14341 7.13309 0
M  V30 11556 N 1093.79 -1.57004 0.136909 0
M  V30 11557 C 1094.74 -2.17524 -0.823784 0
M  V30 11558 C 1095.74 -1.1294 -1.26258 0
M  V30 11559 O 1096.94 -1.3121 -1.23223 0
M  V30 11560 H 1093.32 -0.696381 -0.283827 0
M  V30 11561 H 1095.29 -2.96997 -0.289052 0
M  V30 11562 C 1094.04 -2.80331 -2.05693 0
M  V30 11563 H 1093.36 -3.60515 -1.72825 0
M  V30 11564 H 1094.8 -3.26192 -2.70878 0
M  V30 11565 C 1093.26 -1.78322 -2.85837 0
M  V30 11566 O 1093.79 -1.2475 -3.81838 0
M  V30 11567 N 1092 -1.47854 -2.50175 0
M  V30 11568 H 1091.54 -1.9161 -1.72173 0
M  V30 11569 H 1091.5 -0.798464 -3.04092 0
M  V30 11570 N 1095.27 0.136881 -1.57004 0
M  V30 11571 C 1096.52 0.847775 -1.83899 0
M  V30 11572 C 1096.85 1.80709 -0.719332 0
M  V30 11573 O 1096.1 1.93527 0.290838 0
M  V30 11574 C 1096.4 1.64711 -3.17183 0
M  V30 11575 C 1096.07 0.833683 -4.43126 0
M  V30 11576 C 1094.73 0.609306 -4.77327 0
M  V30 11577 C 1097.08 0.265504 -5.20523 0
M  V30 11578 C 1094.41 -0.193793 -5.8638 0
M  V30 11579 C 1096.76 -0.524688 -6.3042 0
M  V30 11580 C 1095.43 -0.759548 -6.63164 0
M  V30 11581 H 1094.7 0.310223 -0.672936 0
M  V30 11582 H 1097.34 0.110937 -1.91178 0
M  V30 11583 H 1095.65 2.45435 -3.054 0
M  V30 11584 H 1097.34 2.20081 -3.3521 0
M  V30 11585 H 1093.93 1.01864 -4.16319 0
M  V30 11586 H 1098.12 0.426109 -4.94467 0
M  V30 11587 H 1093.37 -0.385153 -6.10186 0
M  V30 11588 H 1097.55 -0.972033 -6.89583 0
M  V30 11589 H 1095.18 -1.38369 -7.47501 0
M  V30 11590 N 1096.75 1.52266 0.40654 0
M  V30 11591 C 1097.71 1.75168 1.47814 0
M  V30 11592 C 1098.71 0.621575 1.48301 0
M  V30 11593 O 1099.9 0.889476 1.4978 0
M  V30 11594 C 1097.04 1.83642 2.87208 0
M  V30 11595 H 1098.23 2.70834 1.28798 0
M  V30 11596 H 1095.78 1.42722 0.637196 0
M  V30 11597 H 1096.52 0.898994 3.1159 0
M  V30 11598 H 1096.3 2.65801 2.88257 0
M  V30 11599 H 1097.79 2.03093 3.64888 0
M  V30 11600 N 1098.23 -0.663929 1.42933 0
M  V30 11601 C 1099.48 -1.42111 1.43697 0
M  V30 11602 C 1099.8 -1.94913 0.0583858 0
M  V30 11603 O 1099.07 -1.73757 -0.904719 0
M  V30 11604 H 1097.65 -0.527391 0.529026 0
M  V30 11605 H 1100.31 -0.783766 1.78446 0
M  V30 11606 H 1099.41 -2.26877 2.1432 0
M  V30 11607 N 1099.71 -1.29285 -0.901281 0
M  V30 11608 C 1101.12 -1.15499 -1.46686 0
M  V30 11609 C 1101.47 0.250446 -1.94595 0
M  V30 11610 O 1100.59 1.14581 -1.83576 0
M  V30 11611 C 1101.19 -2.0906 -2.66607 0
M  V30 11612 C 1099.75 -1.99301 -3.19306 0
M  V30 11613 C 1098.89 -2.00079 -1.91999 0
M  V30 11614 H 1101.85 -1.41793 -0.712773 0
M  V30 11615 H 1101.87 -1.6619 -3.42288 0
M  V30 11616 H 1101.38 -3.11341 -2.31707 0
M  V30 11617 H 1099.48 -1.00103 -3.58901 0
M  V30 11618 H 1099.59 -2.86885 -3.8371 0
M  V30 11619 H 1097.96 -1.44655 -2.09636 0
M  V30 11620 H 1098.74 -3.04061 -1.59379 0
M  V30 11621 N 1101.18 1.11143 -1.11736 0
M  V30 11622 C 1102.43 1.83219 -0.869413 0
M  V30 11623 C 1102.76 1.84588 0.603402 0
M  V30 11624 O 1102.04 1.30119 1.44566 0
M  V30 11625 C 1102.32 3.30247 -1.43559 0
M  V30 11626 C 1102.17 3.37253 -2.97624 0
M  V30 11627 C 1103.49 4.26412 -1.08907 0
M  V30 11628 H 1100.61 0.665205 -0.317286 0
M  V30 11629 H 1103.25 1.30307 -1.38275 0
M  V30 11630 H 1101.4 3.75437 -0.998978 0
M  V30 11631 H 1103.08 3.00599 -3.49911 0
M  V30 11632 H 1101.32 2.77378 -3.33532 0
M  V30 11633 H 1101.99 4.40752 -3.32328 0
M  V30 11634 H 1104.47 3.89418 -1.46604 0
M  V30 11635 H 1103.34 5.27666 -1.51195 0
M  V30 11636 H 1103.6 4.421 -0.000259009 0
M  V30 11637 N 1102.66 0.908147 1.28804 0
M  V30 11638 C 1103.89 0.553431 1.9988 0
M  V30 11639 C 1104.31 -0.856714 1.67458 0
M  V30 11640 O 1103.67 -1.57163 0.903849 0
M  V30 11641 C 1103.72 0.762688 3.52442 0
M  V30 11642 O 1102.82 -0.180924 4.12003 0
M  V30 11643 H 1102.16 0.215237 0.628147 0
M  V30 11644 H 1104.69 1.22205 1.64095 0
M  V30 11645 H 1104.7 0.670612 4.02451 0
M  V30 11646 H 1103.38 1.79071 3.75375 0
M  V30 11647 H 1101.96 -0.0405897 3.72878 0
M  V30 11648 N 1104.14 -1.42577 0.671525 0
M  V30 11649 C 1105.07 -2.2915 -0.0477361 0
M  V30 11650 C 1106.09 -1.43503 -0.768805 0
M  V30 11651 O 1107.27 -1.67256 -0.623509 0
M  V30 11652 C 1104.37 -3.20851 -1.09122 0
M  V30 11653 C 1103.55 -4.35134 -0.44463 0
M  V30 11654 C 1102.61 -5.07579 -1.38745 0
M  V30 11655 O 1101.63 -5.62215 -0.889015 0
M  V30 11656 N 1102.83 -5.12786 -2.72086 0
M  V30 11657 H 1105.6 -2.9152 0.695415 0
M  V30 11658 H 1103.16 -1.53467 0.515689 0
M  V30 11659 H 1105.15 -3.66183 -1.72315 0
M  V30 11660 H 1103.72 -2.59956 -1.73614 0
M  V30 11661 H 1102.94 -3.9249 0.36675 0
M  V30 11662 H 1104.23 -5.088 0.00595927 0
M  V30 11663 H 1103.63 -4.69802 -3.15123 0
M  V30 11664 H 1102.19 -5.61774 -3.30535 0
M  V30 11665 N 1105.62 -0.414636 -1.52048 0
M  V30 11666 C 1106.57 0.42561 -2.23992 0
M  V30 11667 C 1107.55 1.00894 -1.25337 0
M  V30 11668 O 1108.74 0.930842 -1.50547 0
M  V30 11669 C 1105.87 1.53874 -3.06884 0
M  V30 11670 C 1104.96 0.965913 -4.12954 0
M  V30 11671 N 1105.35 0.12023 -5.05657 0
M  V30 11672 C 1103.65 1.23586 -4.28535 0
M  V30 11673 C 1104.35 -0.199063 -5.81359 0
M  V30 11674 N 1103.33 0.411505 -5.4204 0
M  V30 11675 H 1107.13 -0.226746 -2.93024 0
M  V30 11676 H 1104.64 -0.225376 -1.60829 0
M  V30 11677 H 1106.64 2.15334 -3.56983 0
M  V30 11678 H 1105.3 2.19366 -2.39392 0
M  V30 11679 H 1106.31 -0.244501 -5.17323 0
M  V30 11680 H 1102.99 1.88995 -3.72273 0
M  V30 11681 H 1104.38 -0.88585 -6.66035 0
M  V30 11682 N 1107.1 1.56929 -0.145233 0
M  V30 11683 C 1108.04 2.17958 0.812237 0
M  V30 11684 C 1109.04 1.13608 1.25657 0
M  V30 11685 O 1110.24 1.31861 1.22526 0
M  V30 11686 H 1106.62 0.697876 0.28013 0
M  V30 11687 H 1108.59 2.97146 0.273297 0
M  V30 11688 C 1107.34 2.81418 2.04203 0
M  V30 11689 H 1106.66 3.61427 1.70911 0
M  V30 11690 H 1108.1 3.27624 2.69144 0
M  V30 11691 C 1106.56 1.79835 2.84888 0
M  V30 11692 O 1107.09 1.26773 3.81171 0
M  V30 11693 N 1105.3 1.49179 2.49387 0
M  V30 11694 H 1104.84 1.9252 1.71154 0
M  V30 11695 H 1104.8 0.81458 3.03664 0
M  V30 11696 N 1108.58 -0.128553 1.57075 0
M  V30 11697 C 1109.52 -1.17719 2.00611 0
M  V30 11698 C 1110.52 -1.43423 0.90146 0
M  V30 11699 O 1111.72 -1.43498 1.08666 0
M  V30 11700 H 1108.1 -0.396683 0.638864 0
M  V30 11701 H 1110.07 -0.783437 2.87932 0
M  V30 11702 C 1108.82 -2.49826 2.41831 0
M  V30 11703 H 1108.14 -2.30883 3.26394 0
M  V30 11704 H 1109.58 -3.21784 2.761 0
M  V30 11705 C 1108.04 -3.11712 1.27816 0
M  V30 11706 O 1108.57 -3.9736 0.588917 0
M  V30 11707 N 1106.78 -2.71442 1.03767 0
M  V30 11708 H 1106.32 -2.01891 1.59994 0
M  V30 11709 H 1106.28 -3.1318 0.276743 0
M  V30 11710 N 1110.05 -1.5248 -0.398459 0
M  V30 11711 C 1111.47 -1.4152 -0.737854 0
M  V30 11712 C 1111.67 -0.528122 -1.94456 0
M  V30 11713 O 1110.73 0.00203799 -2.525 0
M  V30 11714 C 1112.04 -2.8422 -0.9818 0
M  V30 11715 C 1113.59 -2.93635 -1.08386 0
M  V30 11716 C 1114.06 -4.37327 -1.3605 0
M  V30 11717 N 1115.55 -4.40609 -1.42892 0
M  V30 11718 C 1116.29 -5.48863 -1.65944 0
M  V30 11719 N 1115.78 -6.67217 -1.86529 0
M  V30 11720 N 1117.58 -5.36393 -1.68046 0
M  V30 11721 H 1109.73 -2.08681 0.395705 0
M  V30 11722 H 1111.99 -0.941023 0.114801 0
M  V30 11723 H 1111.7 -3.51302 -0.167358 0
M  V30 11724 H 1111.57 -3.25907 -1.89907 0
M  V30 11725 H 1113.96 -2.26728 -1.88888 0
M  V30 11726 H 1114.04 -2.5539 -0.144714 0
M  V30 11727 H 1113.68 -5.04797 -0.56061 0
M  V30 11728 H 1113.61 -4.73116 -2.31233 0
M  V30 11729 H 1116.1 -3.55298 -1.2873 0
M  V30 11730 H 1116.42 -7.45498 -2.03599 0
M  V30 11731 H 1114.76 -6.70263 -1.83773 0
M  V30 11732 H 1117.95 -4.42903 -1.51509 0
M  V30 11733 H 1118.13 -6.2083 -1.85672 0
M  V30 11734 N 1111.53 0.65634 -1.43283 0
M  V30 11735 C 1112.94 1.23744 -1.39801 0
M  V30 11736 C 1113.29 1.95942 -0.100507 0
M  V30 11737 O 1112.42 2.01063 0.800161 0
M  V30 11738 C 1113.01 2.25062 -2.53244 0
M  V30 11739 C 1111.57 2.78657 -2.53036 0
M  V30 11740 C 1110.72 1.53251 -2.31105 0
M  V30 11741 H 1113.67 0.448553 -1.52229 0
M  V30 11742 H 1113.69 3.07174 -2.24553 0
M  V30 11743 H 1113.2 1.72487 -3.47664 0
M  V30 11744 H 1111.3 3.35304 -1.62487 0
M  V30 11745 H 1111.42 3.26414 -3.507 0
M  V30 11746 H 1109.78 1.80487 -1.79713 0
M  V30 11747 H 1110.56 1.02615 -3.27605 0
M  V30 11748 N 1113.01 1.29761 0.894412 0
M  V30 11749 C 1114.26 1.17806 1.64214 0
M  V30 11750 C 1114.58 -0.269588 1.93127 0
M  V30 11751 O 1113.85 -1.18352 1.56107 0
M  V30 11752 H 1112.43 0.433002 0.608702 0
M  V30 11753 H 1115.09 1.6276 1.07216 0
M  V30 11754 H 1114.19 1.73201 2.5963 0
M  V30 11755 N 1114.49 -1.10549 1.12324 0
M  V30 11756 C 1115.72 -1.86 0.899312 0
M  V30 11757 C 1116.13 -1.80881 -0.554854 0
M  V30 11758 O 1115.47 -1.19485 -1.39531 0
M  V30 11759 C 1115.53 -3.35384 1.29452 0
M  V30 11760 C 1115.19 -3.64263 2.75974 0
M  V30 11761 C 1116.19 -3.60962 3.74169 0
M  V30 11762 C 1113.88 -3.92976 3.1285 0
M  V30 11763 C 1115.87 -3.85966 5.07256 0
M  V30 11764 C 1113.56 -4.17637 4.4612 0
M  V30 11765 C 1114.56 -4.14122 5.43132 0
M  V30 11766 O 1114.24 -4.38156 6.73999 0
M  V30 11767 H 1113.98 -0.594743 0.321337 0
M  V30 11768 H 1116.53 -1.40674 1.49667 0
M  V30 11769 H 1114.76 -3.81361 0.640358 0
M  V30 11770 H 1116.45 -3.9222 1.04491 0
M  V30 11771 H 1117.21 -3.38819 3.47025 0
M  V30 11772 H 1113.09 -3.94843 2.3795 0
M  V30 11773 H 1116.64 -3.83138 5.82967 0
M  V30 11774 H 1112.53 -4.39258 4.72993 0
M  V30 11775 H 1113.3 -4.55677 6.79927 0
M  V30 11776 N 1115.97 -0.914965 -1.28321 0
M  V30 11777 C 1117.2 -0.563835 -1.98757 0
M  V30 11778 C 1117.6 0.859528 -1.68549 0
M  V30 11779 O 1116.95 1.58105 -0.935336 0
M  V30 11780 C 1117.01 -0.694539 -3.52727 0
M  V30 11781 C 1116.67 -2.08767 -4.06528 0
M  V30 11782 C 1117.67 -3.06052 -4.20272 0
M  V30 11783 C 1115.35 -2.40118 -4.4119 0
M  V30 11784 C 1117.35 -4.32803 -4.67932 0
M  V30 11785 C 1115.04 -3.67108 -4.88544 0
M  V30 11786 C 1116.03 -4.63265 -5.01871 0
M  V30 11787 O 1115.72 -5.87997 -5.48192 0
M  V30 11788 H 1115.45 -0.213557 -0.641381 0
M  V30 11789 H 1118.01 -1.23062 -1.64453 0
M  V30 11790 H 1116.24 0.0293186 -3.86689 0
M  V30 11791 H 1117.93 -0.350335 -4.04385 0
M  V30 11792 H 1118.69 -2.8315 -3.93765 0
M  V30 11793 H 1114.57 -1.66025 -4.30066 0
M  V30 11794 H 1118.12 -5.07861 -4.78249 0
M  V30 11795 H 1114.01 -3.89834 -5.14489 0
M  V30 11796 H 1114.78 -5.90804 -5.66474 0
M  V30 11797 N 1117.44 1.42219 -0.679077 0
M  V30 11798 C 1118.67 2.05815 -0.211649 0
M  V30 11799 C 1119.09 1.51037 1.13284 0
M  V30 11800 O 1118.44 0.651894 1.7046 0
M  V30 11801 C 1118.49 3.61218 -0.142663 0
M  V30 11802 O 1118.22 4.13965 -1.43402 0
M  V30 11803 C 1119.72 4.41934 0.347746 0
M  V30 11804 H 1116.94 0.663215 -0.101914 0
M  V30 11805 H 1119.48 1.82282 -0.927017 0
M  V30 11806 H 1117.64 3.83848 0.52342 0
M  V30 11807 H 1118.05 5.07872 -1.31021 0
M  V30 11808 H 1119.52 5.50921 0.344916 0
M  V30 11809 H 1120 4.16832 1.38377 0
M  V30 11810 H 1120.61 4.24332 -0.286751 0
M  V30 11811 N 1118.92 0.422693 1.51826 0
M  V30 11812 C 1119.85 -0.43167 2.25098 0
M  V30 11813 C 1120.87 -0.998758 1.28564 0
M  V30 11814 O 1122.06 -0.89539 1.54418 0
M  V30 11815 C 1119.16 -1.61426 2.97985 0
M  V30 11816 C 1118.33 -1.16866 4.21499 0
M  V30 11817 C 1117.39 -2.2197 4.77091 0
M  V30 11818 O 1116.41 -1.82004 5.39317 0
M  V30 11819 N 1117.62 -3.54293 4.59844 0
M  V30 11820 H 1120.38 0.196255 2.99057 0
M  V30 11821 H 1117.94 0.25079 1.59946 0
M  V30 11822 H 1119.93 -2.31331 3.32066 0
M  V30 11823 H 1118.5 -2.14783 2.27128 0
M  V30 11824 H 1117.72 -0.297217 3.93078 0
M  V30 11825 H 1119.01 -0.848106 5.01682 0
M  V30 11826 H 1118.41 -3.89505 4.10247 0
M  V30 11827 H 1116.97 -4.20135 4.98327 0
M  V30 11828 N 1120.4 -1.5685 0.153553 0
M  V30 11829 C 1121.63 -2.00701 -0.502678 0
M  V30 11830 C 1122.04 -1.0337 -1.57988 0
M  V30 11831 O 1121.4 -0.0317233 -1.82472 0
M  V30 11832 C 1121.45 -3.44443 -1.09732 0
M  V30 11833 O 1121.17 -4.38054 -0.0631405 0
M  V30 11834 C 1122.67 -4.03605 -1.83352 0
M  V30 11835 H 1119.89 -0.658229 -0.130289 0
M  V30 11836 H 1122.44 -2.02965 0.250063 0
M  V30 11837 H 1120.59 -3.43009 -1.80065 0
M  V30 11838 H 1121.01 -5.22114 -0.499681 0
M  V30 11839 H 1122.48 -5.0616 -2.20241 0
M  V30 11840 H 1122.96 -3.44687 -2.7219 0
M  V30 11841 H 1123.56 -4.08688 -1.17703 0
M  V30 11842 N 1121.88 0.120221 -1.57141 0
M  V30 11843 C 1122.84 1.13159 -1.99318 0
M  V30 11844 C 1123.84 1.34376 -0.883158 0
M  V30 11845 O 1125.03 1.30914 -1.14922 0
M  V30 11846 C 1122.16 2.48632 -2.33227 0
M  V30 11847 H 1123.36 0.769119 -2.8987 0
M  V30 11848 H 1120.91 0.364475 -1.51991 0
M  V30 11849 H 1121.64 2.89802 -1.45551 0
M  V30 11850 H 1121.43 2.34587 -3.14184 0
M  V30 11851 H 1122.92 3.21423 -2.66603 0
M  V30 11852 N 1123.36 1.52689 0.390367 0
M  V30 11853 C 1124.6 1.67335 1.13329 0
M  V30 11854 C 1124.93 0.415068 1.90531 0
M  V30 11855 O 1124.2 -0.570504 1.87409 0
M  V30 11856 H 1122.78 0.616821 0.421356 0
M  V30 11857 H 1125.44 1.89799 0.443 0
M  V30 11858 H 1124.53 2.52314 1.83696 0
M  V30 11859 N 1124.83 -0.648732 1.43629 0
M  V30 11860 C 1126.25 -1.23001 1.40455 0
M  V30 11861 C 1126.6 -1.95886 0.110897 0
M  V30 11862 O 1125.72 -2.01485 -0.789487 0
M  V30 11863 C 1126.32 -2.23716 2.54434 0
M  V30 11864 C 1124.88 -2.77311 2.54511 0
M  V30 11865 C 1124.02 -1.52024 2.31914 0
M  V30 11866 H 1126.97 -0.440473 1.52465 0
M  V30 11867 H 1126.99 -3.05979 2.26179 0
M  V30 11868 H 1126.51 -1.7064 3.48574 0
M  V30 11869 H 1124.61 -3.34437 1.64263 0
M  V30 11870 H 1124.72 -3.2455 3.52426 0
M  V30 11871 H 1123.08 -1.79531 1.80667 0
M  V30 11872 H 1123.87 -1.00876 3.28145 0
M  V30 11873 N 1126.31 -1.30234 -0.887518 0
M  V30 11874 C 1127.56 -1.20096 -1.6416 0
M  V30 11875 C 1127.91 0.24253 -1.90865 0
M  V30 11876 O 1127.21 1.17078 -1.51668 0
M  V30 11877 C 1127.4 -1.96046 -2.98832 0
M  V30 11878 C 1127.23 -3.47633 -2.85274 0
M  V30 11879 C 1126 -4.16989 -2.85392 0
M  V30 11880 C 1128.2 -4.42911 -2.61409 0
M  V30 11881 N 1126.18 -5.54854 -2.62699 0
M  V30 11882 C 1127.55 -5.68321 -2.47813 0
M  V30 11883 C 1129.61 -4.32535 -2.46613 0
M  V30 11884 C 1128.31 -6.84532 -2.20927 0
M  V30 11885 C 1130.33 -5.4851 -2.21112 0
M  V30 11886 C 1129.7 -6.729 -2.08291 0
M  V30 11887 H 1125.8 -0.494513 -0.605789 0
M  V30 11888 H 1128.38 -1.64213 -1.04605 0
M  V30 11889 H 1126.55 -1.54324 -3.56425 0
M  V30 11890 H 1128.28 -1.78072 -3.63418 0
M  V30 11891 H 1125.04 -3.68798 -2.97128 0
M  V30 11892 H 1125.46 -6.27395 -2.54371 0
M  V30 11893 H 1130.1 -3.37047 -2.55262 0
M  V30 11894 H 1127.82 -7.80063 -2.11015 0
M  V30 11895 H 1131.41 -5.42389 -2.1049 0
M  V30 11896 H 1130.29 -7.61125 -1.88833 0
M  V30 11897 N 1127.79 1.09952 -1.12909 0
M  V30 11898 C 1128.74 2.14591 -0.77037 0
M  V30 11899 C 1129.72 1.59204 0.233021 0
M  V30 11900 O 1130.92 1.7696 0.0377599 0
M  V30 11901 C 1128.05 3.42514 -0.232117 0
M  V30 11902 C 1127.13 4.04823 -1.26409 0
M  V30 11903 N 1127.52 4.41763 -2.46331 0
M  V30 11904 C 1125.82 4.31951 -1.11062 0
M  V30 11905 C 1126.52 4.90778 -3.12269 0
M  V30 11906 N 1125.5 4.87896 -2.39704 0
M  V30 11907 H 1129.3 2.40951 -1.68285 0
M  V30 11908 H 1126.81 1.27125 -1.0106 0
M  V30 11909 H 1128.81 4.16878 0.0430853 0
M  V30 11910 H 1127.47 3.17612 0.674757 0
M  V30 11911 H 1128.48 4.33299 -2.83677 0
M  V30 11912 H 1125.16 4.16681 -0.261456 0
M  V30 11913 H 1126.55 5.28868 -4.14425 0
M  V30 11914 N 1129.27 0.921757 1.27833 0
M  V30 11915 C 1130.2 0.433466 2.29441 0
M  V30 11916 C 1131.18 -0.503133 1.62489 0
M  V30 11917 O 1132.36 -0.409156 1.89841 0
M  V30 11918 C 1129.49 -0.320029 3.45822 0
M  V30 11919 C 1128.45 0.528178 4.24728 0
M  V30 11920 C 1127.77 -0.354132 5.33526 0
M  V30 11921 C 1129.07 1.78959 4.90684 0
M  V30 11922 H 1130.77 1.28263 2.70535 0
M  V30 11923 H 1128.31 0.618197 1.30055 0
M  V30 11924 H 1130.27 -0.672526 4.15999 0
M  V30 11925 H 1128.99 -1.20317 3.0363 0
M  V30 11926 H 1127.65 0.863302 3.5629 0
M  V30 11927 H 1127.3 -1.23605 4.87576 0
M  V30 11928 H 1127 0.209855 5.87225 0
M  V30 11929 H 1128.52 -0.702333 6.06547 0
M  V30 11930 H 1129.94 1.50552 5.53179 0
M  V30 11931 H 1128.33 2.29661 5.54415 0
M  V30 11932 H 1129.4 2.51265 4.14721 0
M  V30 11933 N 1130.75 -1.41857 0.686609 0
M  V30 11934 C 1131.99 -2.0097 0.213378 0
M  V30 11935 C 1132.32 -1.54618 -1.1882 0
M  V30 11936 O 1131.59 -0.772916 -1.80008 0
M  V30 11937 H 1130.17 -0.743134 0.0758968 0
M  V30 11938 H 1132.83 -1.73609 0.885763 0
M  V30 11939 H 1131.92 -3.11296 0.223826 0
M  V30 11940 N 1132.22 -0.430739 -1.51599 0
M  V30 11941 C 1133.17 0.384024 -2.27583 0
M  V30 11942 C 1134.14 1.02254 -1.30895 0
M  V30 11943 O 1135.33 1.0427 -1.59789 0
M  V30 11944 C 1132.47 1.48291 -3.11615 0
M  V30 11945 C 1131.58 0.863187 -4.23288 0
M  V30 11946 C 1130.71 1.93657 -4.94642 0
M  V30 11947 C 1129.75 1.29493 -5.98246 0
M  V30 11948 N 1128.89 2.30939 -6.63032 0
M  V30 11949 H 1133.73 -0.270314 -2.96771 0
M  V30 11950 H 1131.27 -0.145148 -1.46382 0
M  V30 11951 H 1133.23 2.13124 -3.58656 0
M  V30 11952 H 1131.86 2.10697 -2.44554 0
M  V30 11953 H 1130.91 0.103326 -3.8026 0
M  V30 11954 H 1132.22 0.354676 -4.97537 0
M  V30 11955 H 1131.37 2.66167 -5.45197 0
M  V30 11956 H 1130.11 2.4788 -4.20008 0
M  V30 11957 H 1129.12 0.555262 -5.46989 0
M  V30 11958 H 1130.34 0.760122 -6.74833 0
M  V30 11959 H 1128.29 2.84254 -5.91216 0
M  V30 11960 H 1128.21 1.84961 -7.33025 0
M  V30 11961 H 1129.47 3.02953 -7.1822 0
M  V30 11962 N 1133.7 1.56767 -0.161869 0
M  V30 11963 C 1134.63 2.20511 0.767918 0
M  V30 11964 C 1135.61 1.15783 1.24612 0
M  V30 11965 O 1136.8 1.44179 1.301 0
M  V30 11966 C 1133.93 2.83844 2.00125 0
M  V30 11967 C 1132.88 3.94528 1.65926 0
M  V30 11968 C 1132.21 4.44866 2.96646 0
M  V30 11969 C 1133.51 5.14583 0.894497 0
M  V30 11970 H 1135.2 2.98464 0.236607 0
M  V30 11971 H 1132.75 1.43561 0.112363 0
M  V30 11972 H 1134.7 3.27109 2.65664 0
M  V30 11973 H 1133.43 2.03246 2.55654 0
M  V30 11974 H 1132.08 3.51904 1.02759 0
M  V30 11975 H 1131.73 3.61071 3.50196 0
M  V30 11976 H 1131.43 5.19531 2.74521 0
M  V30 11977 H 1132.96 4.90812 3.6323 0
M  V30 11978 H 1134.37 5.54601 1.45228 0
M  V30 11979 H 1132.77 5.95105 0.772636 0
M  V30 11980 H 1133.84 4.84773 -0.110986 0
M  V30 11981 N 1135.18 -0.111886 1.57202 0
M  V30 11982 C 1136.09 -1.1556 2.04165 0
M  V30 11983 C 1137.11 -1.44898 0.963354 0
M  V30 11984 O 1138.28 -1.55873 1.27536 0
M  V30 11985 C 1135.35 -2.46048 2.44256 0
M  V30 11986 C 1134.41 -2.24043 3.66201 0
M  V30 11987 C 1133.64 -3.4831 4.04371 0
M  V30 11988 O 1133.86 -4.55895 3.42806 0
M  V30 11989 O 1132.8 -3.38891 4.9743 0
M  V30 11990 H 1136.62 -0.786778 2.93332 0
M  V30 11991 H 1134.21 -0.323196 1.45862 0
M  V30 11992 H 1136.09 -3.22916 2.70745 0
M  V30 11993 H 1134.77 -2.8239 1.58233 0
M  V30 11994 H 1133.67 -1.4501 3.44852 0
M  V30 11995 H 1135.01 -1.92602 4.52952 0
M  V30 11996 N 1136.66 -1.52894 -0.382264 0
M  V30 11997 C 1137.59 -1.7291 -1.48921 0
M  V30 11998 C 1138.57 -0.577056 -1.52016 0
M  V30 11999 O 1139.75 -0.807667 -1.7032 0
M  V30 12000 C 1136.88 -1.79281 -2.87361 0
M  V30 12001 C 1135.93 -3.01099 -3.02063 0
M  V30 12002 S 1136.76 -4.60947 -2.72558 0
M  V30 12003 C 1137.92 -4.70144 -4.13178 0
M  V30 12004 H 1138.15 -2.66529 -1.31718 0
M  V30 12005 H 1135.68 -1.43271 -0.575563 0
M  V30 12006 H 1137.64 -1.83637 -3.67134 0
M  V30 12007 H 1136.3 -0.867428 -3.01885 0
M  V30 12008 H 1135.49 -3.02117 -4.03412 0
M  V30 12009 H 1135.1 -2.94769 -2.3019 0
M  V30 12010 H 1137.39 -4.49173 -5.07198 0
M  V30 12011 H 1138.33 -5.72166 -4.17172 0
M  V30 12012 H 1138.74 -3.98923 -3.99401 0
M  V30 12013 N 1138.14 0.641106 -1.43971 0
M  V30 12014 C 1139.41 1.39897 -1.36704 0
M  V30 12015 C 1139.79 2.1109 -0.0208051 0
M  V30 12016 O 1139.14 2.05638 0.99625 0
M  V30 12017 C 1139.35 2.37366 -2.55849 0
M  V30 12018 C 1140.7 3.01 -2.99473 0
M  V30 12019 O 1141.72 2.47692 -2.55982 0
M  V30 12020 O 1140.58 3.9768 -3.74851 0
M  V30 12021 H 1137.68 0.625623 -0.540855 0
M  V30 12022 H 1140.22 0.666997 -1.56042 0
M  V30 12023 H 1139 1.8379 -3.45452 0
M  V30 12024 H 1138.62 3.17995 -2.38673 0
M  V30 12025 N 1139.62 1.30703 0.880598 0
M  V30 12026 C 1140.86 1.19778 1.63277 0
M  V30 12027 C 1141.19 -0.246521 1.92931 0
M  V30 12028 O 1140.45 -1.19226 1.55189 0
M  V30 12029 C 1140.74 1.97628 2.97789 0
M  V30 12030 C 1140.41 3.47213 2.87669 0
M  V30 12031 C 1139.07 3.88004 2.84617 0
M  V30 12032 C 1141.42 4.4245 2.75477 0
M  V30 12033 C 1138.75 5.22315 2.67216 0
M  V30 12034 C 1141.1 5.76874 2.59614 0
M  V30 12035 C 1139.77 6.16898 2.54939 0
M  V30 12036 H 1139.04 0.438298 0.597475 0
M  V30 12037 H 1141.69 1.61853 1.02352 0
M  V30 12038 H 1139.99 1.48201 3.6269 0
M  V30 12039 H 1141.69 1.86563 3.54958 0
M  V30 12040 H 1138.28 3.14802 2.90857 0
M  V30 12041 H 1142.46 4.11875 2.76899 0
M  V30 12042 H 1137.72 5.52412 2.62014 0
M  V30 12043 H 1141.89 6.50304 2.49155 0
M  V30 12044 H 1139.52 7.20916 2.41214 0
M  V30 12045 N 1141.09 -1.09351 1.1349 0
M  V30 12046 C 1142.37 -1.78121 0.808225 0
M  V30 12047 C 1142.75 -1.99154 -0.700072 0
M  V30 12048 O 1142.1 -1.59356 -1.63762 0
M  V30 12049 C 1142.31 -3.10368 1.59601 0
M  V30 12050 C 1143.66 -3.85063 1.78919 0
M  V30 12051 O 1144.68 -3.20122 1.56206 0
M  V30 12052 O 1143.54 -5.01648 2.16821 0
M  V30 12053 H 1140.63 -0.77253 0.295173 0
M  V30 12054 H 1143.18 -1.15901 1.23956 0
M  V30 12055 H 1141.95 -2.90549 2.62101 0
M  V30 12056 H 1141.57 -3.80312 1.15967 0
M  V30 12057 N 1142.57 -0.928524 -1.27343 0
M  V30 12058 C 1143.82 -0.569392 -1.9433 0
M  V30 12059 C 1144.15 0.889481 -1.7297 0
M  V30 12060 O 1143.4 1.6499 -1.05247 0
M  V30 12061 C 1143.7 -0.84269 -3.47323 0
M  V30 12062 C 1143.37 -2.28344 -3.88806 0
M  V30 12063 C 1142.03 -2.67731 -3.99842 0
M  V30 12064 C 1144.38 -3.22031 -4.09811 0
M  V30 12065 C 1141.71 -3.99928 -4.29272 0
M  V30 12066 C 1144.06 -4.5381 -4.40725 0
M  V30 12067 C 1142.72 -4.93031 -4.49975 0
M  V30 12068 H 1141.99 -0.208355 -0.711104 0
M  V30 12069 H 1144.64 -1.17264 -1.51398 0
M  V30 12070 H 1142.95 -0.156775 -3.91486 0
M  V30 12071 H 1144.64 -0.543779 -3.97296 0
M  V30 12072 H 1141.23 -1.96787 -3.80753 0
M  V30 12073 H 1145.42 -2.92803 -4.00724 0
M  V30 12074 H 1140.67 -4.29996 -4.34642 0
M  V30 12075 H 1144.85 -5.26407 -4.55926 0
M  V30 12076 H 1142.47 -5.95497 -4.72533 0
M  V30 12077 N 1144.05 1.41491 -0.694123 0
M  V30 12078 C 1145.29 2.03117 -0.228614 0
M  V30 12079 C 1145.65 1.53782 1.14957 0
M  V30 12080 O 1146.85 2.07325 1.71084 0
M  V30 12081 C 1145.13 3.56283 -0.282341 0
M  V30 12082 S 1146.68 4.38664 0.109333 0
M  V30 12083 H 1143.5 0.704993 -0.092227 0
M  V30 12084 H 1146.1 1.72947 -0.911578 0
M  V30 12085 H 1144.81 3.89685 -1.2874 0
M  V30 12086 H 1144.34 3.91154 0.419818 0
M  V30 12087 H 1146.35 4.77835 1.33747 0
M  V30 12088 N 1145.53 0.438773 1.51369 0
M  V30 12089 C 1146.44 -0.378074 2.31534 0
M  V30 12090 C 1147.45 -1.02632 1.40508 0
M  V30 12091 O 1148.63 -1.02138 1.73579 0
M  V30 12092 C 1145.69 -1.46374 3.14286 0
M  V30 12093 C 1144.76 -0.835473 4.21092 0
M  V30 12094 C 1143.99 -1.86941 4.99889 0
M  V30 12095 O 1144.21 -3.0918 4.79337 0
M  V30 12096 O 1143.15 -1.45914 5.83946 0
M  V30 12097 H 1146.97 0.276401 3.0244 0
M  V30 12098 H 1144.56 0.201281 1.48038 0
M  V30 12099 H 1146.44 -2.09335 3.65728 0
M  V30 12100 H 1145.11 -2.10227 2.46143 0
M  V30 12101 H 1144.02 -0.167775 3.73724 0
M  V30 12102 H 1145.35 -0.240406 4.91613 0
M  V30 12103 N 1147.01 -1.56678 0.170181 0
M  V30 12104 C 1148.25 -1.9646 -0.474125 0
M  V30 12105 C 1148.57 -1.05719 -1.63855 0
M  V30 12106 O 1147.84 -0.123316 -1.95511 0
M  V30 12107 H 1146.42 -0.725446 -0.178149 0
M  V30 12108 H 1149.09 -1.93276 0.251099 0
M  V30 12109 H 1148.18 -3.00726 -0.834894 0
M  V30 12110 N 1148.48 0.103547 -1.57259 0
M  V30 12111 C 1149.71 0.82235 -1.89855 0
M  V30 12112 C 1150.13 1.72694 -0.76303 0
M  V30 12113 O 1149.48 1.8056 0.265421 0
M  V30 12114 C 1149.53 1.64282 -3.22015 0
M  V30 12115 O 1149.26 0.774628 -4.31197 0
M  V30 12116 C 1150.76 2.46543 -3.68418 0
M  V30 12117 H 1147.98 0.235591 -0.628282 0
M  V30 12118 H 1150.52 0.0833106 -2.0433 0
M  V30 12119 H 1148.68 2.33446 -3.09163 0
M  V30 12120 H 1149.09 1.34205 -5.0704 0
M  V30 12121 H 1150.56 2.99618 -4.63609 0
M  V30 12122 H 1151.04 3.24618 -2.95838 0
M  V30 12123 H 1151.65 1.82594 -3.84109 0
M  V30 12124 N 1149.96 1.53094 0.37415 0
M  V30 12125 C 1151.19 1.72758 1.13852 0
M  V30 12126 C 1151.6 0.452638 1.83294 0
M  V30 12127 O 1150.96 -0.573906 1.73241 0
M  V30 12128 C 1151.01 2.88724 2.17534 0
M  V30 12129 O 1150.73 4.11284 1.5092 0
M  V30 12130 C 1152.23 3.2019 3.06584 0
M  V30 12131 H 1149.45 0.578028 0.340771 0
M  V30 12132 H 1152 1.99805 0.435683 0
M  V30 12133 H 1150.15 2.64096 2.83429 0
M  V30 12134 H 1150.57 4.76162 2.19932 0
M  V30 12135 H 1152.04 4.04759 3.75332 0
M  V30 12136 H 1152.52 2.35193 3.70919 0
M  V30 12137 H 1153.12 3.46712 2.46315 0
M  V30 12138 N 1151.44 -0.633461 1.44309 0
M  V30 12139 C 1152.69 -1.39513 1.47187 0
M  V30 12140 C 1153.02 -1.93926 0.103186 0
M  V30 12141 O 1152.29 -1.73512 -0.878853 0
M  V30 12142 C 1152.58 -2.56213 2.53036 0
M  V30 12143 C 1152.43 -2.07164 3.99253 0
M  V30 12144 C 1153.75 -3.58403 2.55412 0
M  V30 12145 H 1150.87 -0.505936 0.535908 0
M  V30 12146 H 1153.51 -0.716445 1.75975 0
M  V30 12147 H 1151.66 -3.14111 2.28619 0
M  V30 12148 H 1153.33 -1.54115 4.34795 0
M  V30 12149 H 1151.57 -1.38367 4.11141 0
M  V30 12150 H 1152.25 -2.91172 4.6896 0
M  V30 12151 H 1154.72 -3.103 2.77224 0
M  V30 12152 H 1153.6 -4.37581 3.31382 0
M  V30 12153 H 1153.86 -4.12316 1.59523 0
M  V30 12154 N 1152.92 -1.31168 -0.873655 0
M  V30 12155 C 1154.16 -1.20821 -1.62881 0
M  V30 12156 C 1154.5 0.233994 -1.92785 0
M  V30 12157 O 1153.77 1.16588 -1.55684 0
M  V30 12158 C 1154.06 -2.04875 -2.96139 0
M  V30 12159 C 1153.91 -3.57375 -2.73136 0
M  V30 12160 C 1155.23 -1.8953 -3.97198 0
M  V30 12161 H 1152.35 -0.44026 -0.59105 0
M  V30 12162 H 1154.99 -1.6092 -1.01019 0
M  V30 12163 H 1153.14 -1.70806 -3.48938 0
M  V30 12164 H 1154.81 -4.01561 -2.27038 0
M  V30 12165 H 1153.05 -3.8099 -2.07434 0
M  V30 12166 H 1153.72 -4.1149 -3.6794 0
M  V30 12167 H 1156.2 -2.19337 -3.53596 0
M  V30 12168 H 1155.08 -2.5065 -4.8833 0
M  V30 12169 H 1155.34 -0.857576 -4.33703 0
M  V30 12170 N 1154.4 1.08748 -1.14068 0
M  V30 12171 C 1155.64 1.81333 -0.908081 0
M  V30 12172 C 1155.98 1.85826 0.564112 0
M  V30 12173 O 1155.25 1.33157 1.41773 0
M  V30 12174 C 1155.53 3.27127 -1.50531 0
M  V30 12175 C 1155.39 3.30865 -3.04711 0
M  V30 12176 C 1156.71 4.24006 -1.17928 0
M  V30 12177 H 1153.82 0.658326 -0.331325 0
M  V30 12178 H 1156.47 1.27345 -1.41008 0
M  V30 12179 H 1154.62 3.73233 -1.07839 0
M  V30 12180 H 1156.29 2.93109 -3.56209 0
M  V30 12181 H 1154.53 2.70241 -3.39341 0
M  V30 12182 H 1155.2 4.33603 -3.41603 0
M  V30 12183 H 1157.68 3.86221 -1.54831 0
M  V30 12184 H 1156.55 5.2434 -1.62353 0
M  V30 12185 H 1156.82 4.42 -0.0940349 0
M  V30 12186 N 1155.87 0.935264 1.26849 0
M  V30 12187 C 1157.1 0.596249 1.98122 0
M  V30 12188 C 1157.52 -0.827452 1.69702 0
M  V30 12189 O 1156.87 -1.55095 0.961864 0
M  V30 12190 C 1156.93 0.821773 3.52036 0
M  V30 12191 O 1156.65 2.18947 3.79465 0
M  V30 12192 C 1158.15 0.492498 4.40556 0
M  V30 12193 H 1155.37 0.225242 0.632066 0
M  V30 12194 H 1157.91 1.25435 1.61512 0
M  V30 12195 H 1156.07 0.210363 3.86828 0
M  V30 12196 H 1156.48 2.24509 4.74021 0
M  V30 12197 H 1157.95 0.700953 5.47531 0
M  V30 12198 H 1158.43 -0.57228 4.35456 0
M  V30 12199 H 1159.04 1.08238 4.11296 0
M  V30 12200 N 1157.35 -1.41121 0.701616 0
M  V30 12201 C 1158.26 -2.34565 0.0407815 0
M  V30 12202 C 1159.28 -1.56555 -0.75937 0
M  V30 12203 O 1160.45 -1.89008 -0.695542 0
M  V30 12204 C 1157.52 -3.35347 -0.879954 0
M  V30 12205 C 1156.58 -4.29241 -0.0713279 0
M  V30 12206 C 1155.81 -5.25209 -0.948211 0
M  V30 12207 O 1156.04 -5.26781 -2.18766 0
M  V30 12208 O 1154.97 -6.00605 -0.394657 0
M  V30 12209 H 1158.8 -2.92666 0.811188 0
M  V30 12210 H 1156.38 -1.42077 0.461991 0
M  V30 12211 H 1158.26 -3.9719 -1.40776 0
M  V30 12212 H 1156.94 -2.7968 -1.62975 0
M  V30 12213 H 1155.85 -3.70727 0.50122 0
M  V30 12214 H 1157.18 -4.88022 0.639935 0
M  V30 12215 N 1158.83 -0.446794 -1.51134 0
M  V30 12216 C 1160.11 0.176892 -1.94798 0
M  V30 12217 C 1160.49 1.59229 -1.38598 0
M  V30 12218 O 1159.84 2.21097 -0.576905 0
M  V30 12219 C 1160.05 0.145 -3.48699 0
M  V30 12220 C 1161.39 0.345917 -4.23189 0
M  V30 12221 O 1162.42 0.222691 -3.55503 0
M  V30 12222 O 1161.28 0.592112 -5.43283 0
M  V30 12223 H 1158.37 0.12486 -0.81752 0
M  V30 12224 H 1160.92 -0.505453 -1.61998 0
M  V30 12225 H 1159.69 -0.844156 -3.82086 0
M  V30 12226 H 1159.31 0.869851 -3.87968 0
M  V30 12227 N 1160.31 1.56586 -0.178487 0
M  V30 12228 C 1161.55 1.98994 0.466987 0
M  V30 12229 C 1161.91 1.06229 1.59935 0
M  V30 12230 O 1163.11 1.37806 2.30788 0
M  V30 12231 C 1161.38 3.45064 0.930899 0
M  V30 12232 S 1162.94 4.095 1.57655 0
M  V30 12233 H 1159.76 0.695007 0.149955 0
M  V30 12234 H 1162.36 1.93519 -0.27764 0
M  V30 12235 H 1161.07 4.10287 0.0964476 0
M  V30 12236 H 1160.6 3.54321 1.70939 0
M  V30 12237 H 1162.61 4.05139 2.86491 0
M  V30 12238 N 1161.79 -0.095206 1.57312 0
M  V30 12239 C 1163.03 -0.797142 1.85715 0
M  V30 12240 C 1163.36 -1.79275 0.767171 0
M  V30 12241 O 1162.63 -1.94808 -0.206584 0
M  V30 12242 H 1161.21 -0.297382 0.685254 0
M  V30 12243 H 1163.87 -0.0768617 1.94748 0
M  V30 12244 H 1162.96 -1.32779 2.82447 0
M  V30 12245 N 1163.26 -1.53291 -0.366026 0
M  V30 12246 C 1164.21 -1.80367 -1.4687 0
M  V30 12247 C 1165.21 -0.672767 -1.55468 0
M  V30 12248 O 1166.41 -0.8557 -1.5836 0
M  V30 12249 H 1162.79 -0.571076 -0.48926 0
M  V30 12250 H 1164.76 -2.72661 -1.21237 0
M  V30 12251 C 1163.51 -2.01008 -2.8371 0
M  V30 12252 H 1162.83 -2.87468 -2.77853 0
M  V30 12253 H 1164.27 -2.2393 -3.60043 0
M  V30 12254 C 1162.73 -0.789054 -3.27529 0
M  V30 12255 O 1163.26 0.0224712 -4.01694 0
M  V30 12256 N 1161.47 -0.612621 -2.84069 0
M  V30 12257 H 1161.01 -1.27416 -2.23881 0
M  V30 12258 H 1160.97 0.202943 -3.13744 0
M  V30 12259 N 1164.74 0.6258 -1.44643 0
M  V30 12260 C 1166.16 0.944569 -1.28647 0
M  V30 12261 C 1166.36 2.00227 -0.226134 0
M  V30 12262 O 1165.41 2.4953 0.386161 0
M  V30 12263 C 1166.73 1.40278 -2.65975 0
M  V30 12264 C 1168.28 1.51797 -2.73727 0
M  V30 12265 C 1168.75 2.01 -4.11537 0
M  V30 12266 N 1170.24 2.08262 -4.13741 0
M  V30 12267 C 1170.98 2.47515 -5.17227 0
M  V30 12268 N 1170.47 2.85867 -6.31072 0
M  V30 12269 N 1172.27 2.47695 -5.04583 0
M  V30 12270 H 1164.42 -0.0736157 -2.12272 0
M  V30 12271 H 1166.68 0.0296998 -0.947535 0
M  V30 12272 H 1166.39 0.699871 -3.44666 0
M  V30 12273 H 1166.26 2.37279 -2.93221 0
M  V30 12274 H 1168.65 2.21183 -1.95351 0
M  V30 12275 H 1168.73 0.531574 -2.50216 0
M  V30 12276 H 1168.37 1.32207 -4.90391 0
M  V30 12277 H 1168.3 3.0052 -4.32429 0
M  V30 12278 H 1170.79 1.81286 -3.31578 0
M  V30 12279 H 1171.11 3.14647 -7.05845 0
M  V30 12280 H 1169.45 2.83605 -6.34502 0
M  V30 12281 H 1172.64 2.17127 -4.14697 0
M  V30 12282 H 1172.81 2.77962 -5.85356 0
M  V30 12283 N 1166.22 1.31629 0.866686 0
M  V30 12284 C 1167.47 1.21263 1.61678 0
M  V30 12285 C 1167.79 -0.228562 1.93656 0
M  V30 12286 O 1167.06 -1.15014 1.58583 0
M  V30 12287 H 1165.64 0.445817 0.59938 0
M  V30 12288 H 1168.3 1.64998 1.03739 0
M  V30 12289 H 1167.4 1.78669 2.55898 0
M  V30 12290 N 1167.7 -1.08142 1.14644 0
M  V30 12291 C 1169.11 -1.62061 0.926986 0
M  V30 12292 C 1169.46 -1.88805 -0.533578 0
M  V30 12293 O 1168.59 -1.64753 -1.40305 0
M  V30 12294 C 1169.18 -2.94425 1.67629 0
M  V30 12295 C 1167.74 -3.45118 1.50235 0
M  V30 12296 C 1166.89 -2.19307 1.69705 0
M  V30 12297 H 1169.84 -0.913326 1.29785 0
M  V30 12298 H 1169.86 -3.62987 1.14107 0
M  V30 12299 H 1169.37 -2.74928 2.73927 0
M  V30 12300 H 1167.47 -3.69713 0.462967 0
M  V30 12301 H 1167.59 -4.2169 2.27408 0
M  V30 12302 H 1165.95 -2.28611 1.12291 0
M  V30 12303 H 1166.73 -2.02315 2.77351 0
M  V30 12304 N 1169.18 -0.941978 -1.26351 0
M  V30 12305 C 1170.4 -0.606231 -1.98342 0
M  V30 12306 C 1170.83 0.812014 -1.6967 0
M  V30 12307 O 1170.19 1.54712 -0.9452 0
M  V30 12308 C 1170.23 -0.855864 -3.50296 0
M  V30 12309 O 1169.34 0.0716251 -4.12338 0
M  V30 12310 H 1168.68 -0.231815 -0.62222 0
M  V30 12311 H 1171.21 -1.26513 -1.60797 0
M  V30 12312 H 1171.22 -0.777079 -4.00531 0
M  V30 12313 H 1169.89 -1.8896 -3.70496 0
M  V30 12314 H 1168.47 -0.0582866 -3.72854 0
M  V30 12315 N 1170.66 1.40747 -0.709091 0
M  V30 12316 C 1171.59 2.33404 -0.0669763 0
M  V30 12317 C 1172.57 1.52546 0.752582 0
M  V30 12318 O 1173.75 1.81036 0.702823 0
M  V30 12319 C 1170.88 3.36476 0.860285 0
M  V30 12320 C 1169.84 4.27748 0.146828 0
M  V30 12321 C 1169.16 5.21304 1.18937 0
M  V30 12322 C 1170.46 5.12734 -0.995064 0
M  V30 12323 H 1172.16 2.87349 -0.840888 0
M  V30 12324 H 1169.7 1.38163 -0.405817 0
M  V30 12325 H 1171.65 4.00231 1.31883 0
M  V30 12326 H 1170.38 2.80912 1.66602 0
M  V30 12327 H 1169.04 3.65437 -0.291826 0
M  V30 12328 H 1168.69 4.62048 1.98798 0
M  V30 12329 H 1168.39 5.8321 0.716917 0
M  V30 12330 H 1169.91 5.87936 1.64815 0
M  V30 12331 H 1171.32 5.69979 -0.61618 0
M  V30 12332 H 1169.72 5.83649 -1.39547 0
M  V30 12333 H 1170.79 4.49097 -1.82867 0
M  V30 12334 N 1172.13 0.454803 1.50895 0
M  V30 12335 C 1173.55 0.108037 1.59234 0
M  V30 12336 C 1173.75 -1.38416 1.46435 0
M  V30 12337 O 1172.81 -2.15586 1.31449 0
M  V30 12338 C 1174.12 0.643721 2.93729 0
M  V30 12339 C 1175.67 0.605703 3.07083 0
M  V30 12340 C 1176.14 1.11865 4.44128 0
M  V30 12341 N 1177.63 1.07738 4.50496 0
M  V30 12342 C 1178.37 1.44495 5.54895 0
M  V30 12343 N 1177.86 1.88624 6.66628 0
M  V30 12344 N 1179.66 1.36201 5.45349 0
M  V30 12345 H 1171.81 1.4255 1.57459 0
M  V30 12346 H 1174.07 0.588504 0.743214 0
M  V30 12347 H 1173.78 1.68844 3.0852 0
M  V30 12348 H 1173.65 0.0782404 3.77119 0
M  V30 12349 H 1176.04 -0.430065 2.91949 0
M  V30 12350 H 1176.12 1.2078 2.2549 0
M  V30 12351 H 1175.76 2.15297 4.6001 0
M  V30 12352 H 1175.69 0.492933 5.24288 0
M  V30 12353 H 1178.18 0.753526 3.70311 0
M  V30 12354 H 1178.5 2.14863 7.4233 0
M  V30 12355 H 1176.84 1.92564 6.6779 0
M  V30 12356 H 1180.03 1.01579 4.56946 0
M  V30 12357 H 1180.21 1.65175 6.26595 0
M  V30 12358 N 1173.61 -1.56489 0.186789 0
M  V30 12359 C 1174.84 -2.01722 -0.459993 0
M  V30 12360 C 1175.25 -1.06697 -1.5576 0
M  V30 12361 O 1174.61 -0.0704212 -1.82364 0
M  V30 12362 C 1174.66 -3.46693 -1.02401 0
M  V30 12363 O 1174.38 -4.3809 0.0297916 0
M  V30 12364 C 1175.88 -4.07403 -1.7475 0
M  V30 12365 H 1173.1 -0.660845 -0.116298 0
M  V30 12366 H 1175.65 -2.02389 0.293059 0
M  V30 12367 H 1173.8 -3.46752 -1.72749 0
M  V30 12368 H 1174.22 -5.23057 -0.388821 0
M  V30 12369 H 1175.69 -5.10718 -2.09455 0
M  V30 12370 H 1176.17 -3.50383 -2.64818 0
M  V30 12371 H 1176.77 -4.11093 -1.09007 0
M  V30 12372 N 1175.09 0.086862 -1.5736 0
M  V30 12373 C 1176.32 0.802167 -1.90717 0
M  V30 12374 C 1176.73 1.71875 -0.781304 0
M  V30 12375 O 1176.09 1.80831 0.246255 0
M  V30 12376 C 1176.14 1.60858 -3.23739 0
M  V30 12377 O 1175.86 0.728851 -4.31995 0
M  V30 12378 C 1177.36 2.42621 -3.71012 0
M  V30 12379 H 1174.58 0.228914 -0.630745 0
M  V30 12380 H 1177.13 0.061634 -2.04407 0
M  V30 12381 H 1175.28 2.30153 -3.11622 0
M  V30 12382 H 1175.7 1.2882 -5.08435 0
M  V30 12383 H 1177.17 2.94683 -4.66761 0
M  V30 12384 H 1177.65 3.21462 -2.99264 0
M  V30 12385 H 1178.25 1.78509 -3.86024 0
M  V30 12386 N 1176.57 1.53483 0.357892 0
M  V30 12387 C 1177.8 1.73956 1.12013 0
M  V30 12388 C 1178.21 0.472053 1.82803 0
M  V30 12389 O 1177.57 -0.555499 1.7384 0
M  V30 12390 C 1177.62 2.91015 2.14459 0
M  V30 12391 O 1177.34 4.12862 1.4655 0
M  V30 12392 C 1178.84 3.23423 3.0317 0
M  V30 12393 H 1176.06 0.58161 0.334621 0
M  V30 12394 H 1178.6 2.00256 0.414467 0
M  V30 12395 H 1176.76 2.67087 2.80612 0
M  V30 12396 H 1177.17 4.78468 2.14869 0
M  V30 12397 H 1178.65 4.08717 3.71018 0
M  V30 12398 H 1179.12 2.39114 3.68404 0
M  V30 12399 H 1179.73 3.49305 2.42624 0
M  V30 12400 N 1178.05 -0.61812 1.44973 0
M  V30 12401 C 1179.01 -1.71135 1.52465 0
M  V30 12402 C 1180.01 -1.5561 0.405246 0
M  V30 12403 O 1181.2 -1.60869 0.668351 0
M  V30 12404 C 1178.33 -3.10324 1.41108 0
M  V30 12405 H 1179.52 -1.65862 2.49859 0
M  V30 12406 H 1177.08 -0.832932 1.32257 0
M  V30 12407 H 1177.81 -3.21183 0.448574 0
M  V30 12408 H 1177.6 -3.23001 2.2229 0
M  V30 12409 H 1179.09 -3.89976 1.49361 0
M  V30 12410 N 1179.52 -1.32087 -0.859693 0
M  V30 12411 C 1180.75 -1.25486 -1.6513 0
M  V30 12412 C 1181.17 0.175015 -1.87284 0
M  V30 12413 O 1180.53 1.12468 -1.42199 0
M  V30 12414 C 1180.58 -2.01469 -2.9907 0
M  V30 12415 O 1179.68 -1.35904 -3.89363 0
M  V30 12416 H 1179.02 -0.432728 -0.503629 0
M  V30 12417 H 1181.55 -1.74322 -1.07112 0
M  V30 12418 H 1181.56 -2.11452 -3.4893 0
M  V30 12419 H 1180.24 -3.05448 -2.82266 0
M  V30 12420 H 1178.82 -1.34437 -3.47823 0
M  V30 12421 N 1181 1.07532 -1.15215 0
M  V30 12422 C 1182.25 1.79737 -0.924062 0
M  V30 12423 C 1182.57 1.87072 0.550356 0
M  V30 12424 O 1181.84 1.37029 1.4 0
M  V30 12425 H 1180.42 0.665704 -0.338891 0
M  V30 12426 H 1183.08 1.29961 -1.45245 0
M  V30 12427 H 1182.18 2.82256 -1.33184 0
M  V30 12428 N 1182.48 0.948665 1.2585 0
M  V30 12429 C 1183.43 0.462904 2.2611 0
M  V30 12430 C 1184.4 -0.481433 1.5897 0
M  V30 12431 O 1185.58 -0.395997 1.86645 0
M  V30 12432 C 1182.72 -0.258808 3.44128 0
M  V30 12433 C 1181.84 0.722072 4.25923 0
M  V30 12434 C 1180.97 -0.0215958 5.31196 0
M  V30 12435 C 1180.01 0.950612 6.04673 0
M  V30 12436 N 1179.15 0.238209 7.01696 0
M  V30 12437 H 1183.99 1.32279 2.67032 0
M  V30 12438 H 1181.52 0.663485 1.31287 0
M  V30 12439 H 1183.48 -0.693759 4.11391 0
M  V30 12440 H 1182.11 -1.08278 3.04098 0
M  V30 12441 H 1181.16 1.27552 3.58378 0
M  V30 12442 H 1182.48 1.46421 4.76825 0
M  V30 12443 H 1181.63 -0.51547 6.04506 0
M  V30 12444 H 1180.37 -0.796563 4.81151 0
M  V30 12445 H 1179.37 1.45554 5.30183 0
M  V30 12446 H 1180.6 1.72571 6.56808 0
M  V30 12447 H 1178.54 -0.518129 6.53951 0
M  V30 12448 H 1178.46 0.919542 7.50387 0
M  V30 12449 H 1179.73 -0.234325 7.79148 0
M  V30 12450 N 1183.96 -1.40369 0.716545 0
M  V30 12451 C 1184.89 -2.33365 0.0793533 0
M  V30 12452 C 1185.87 -1.52943 -0.744482 0
M  V30 12453 O 1187.05 -1.81406 -0.693212 0
M  V30 12454 C 1184.18 -3.36928 -0.842429 0
M  V30 12455 C 1183.14 -4.2782 -0.124142 0
M  V30 12456 C 1182.46 -5.21928 -1.1617 0
M  V30 12457 C 1183.76 -5.12199 1.02224 0
M  V30 12458 H 1185.46 -2.86899 0.856115 0
M  V30 12459 H 1183 -1.37946 0.413138 0
M  V30 12460 H 1184.96 -4.00925 -1.29759 0
M  V30 12461 H 1183.68 -2.81791 -1.6511 0
M  V30 12462 H 1182.34 -3.65277 0.311201 0
M  V30 12463 H 1181.99 -4.63096 -1.96345 0
M  V30 12464 H 1181.69 -5.83582 -0.685978 0
M  V30 12465 H 1183.21 -5.88802 -1.61694 0
M  V30 12466 H 1184.63 -5.69644 0.646399 0
M  V30 12467 H 1183.02 -5.82901 1.4264 0
M  V30 12468 H 1184.09 -4.4812 1.85246 0
M  V30 12469 N 1185.44 -0.462799 -1.50652 0
M  V30 12470 C 1186.69 0.0966838 -2.01468 0
M  V30 12471 C 1187 1.41529 -1.35014 0
M  V30 12472 O 1188.2 2.05923 -1.76941 0
M  V30 12473 C 1186.66 0.222826 -3.5921 0
M  V30 12474 C 1186.27 -1.08686 -4.34616 0
M  V30 12475 C 1188.01 0.734711 -4.18094 0
M  V30 12476 C 1185.92 -0.924964 -5.84122 0
M  V30 12477 H 1184.85 0.0399078 -0.752943 0
M  V30 12478 H 1187.5 -0.596437 -1.73536 0
M  V30 12479 H 1185.88 0.979539 -3.83694 0
M  V30 12480 H 1187.06 -1.85388 -4.21862 0
M  V30 12481 H 1185.37 -1.52922 -3.87303 0
M  V30 12482 H 1187.97 0.872734 -5.2753 0
M  V30 12483 H 1188.31 1.72389 -3.7893 0
M  V30 12484 H 1188.84 0.0356139 -3.97784 0
M  V30 12485 H 1185.58 -1.88727 -6.27744 0
M  V30 12486 H 1185.1 -0.198181 -5.99473 0
M  V30 12487 H 1186.78 -0.588262 -6.4432 0
M  V30 12488 N 1186.91 1.56388 -0.195085 0
M  V30 12489 C 1188.14 2.01963 0.449289 0
M  V30 12490 C 1188.56 1.07522 1.55192 0
M  V30 12491 O 1187.91 0.0800915 1.82324 0
M  V30 12492 C 1187.97 3.47231 1.00561 0
M  V30 12493 O 1187.69 4.38068 -0.0530241 0
M  V30 12494 C 1189.19 4.08324 1.72587 0
M  V30 12495 H 1186.41 0.661452 0.112792 0
M  V30 12496 H 1188.95 2.02231 -0.303788 0
M  V30 12497 H 1187.11 3.47663 1.70907 0
M  V30 12498 H 1187.52 5.23256 0.361076 0
M  V30 12499 H 1188.99 5.11821 2.06744 0
M  V30 12500 H 1189.47 3.51782 2.62956 0
M  V30 12501 H 1190.08 4.11665 1.06826 0
M  V30 12502 N 1188.39 -0.0785156 1.57404 0
M  V30 12503 C 1189.3 -1.11203 2.0657 0
M  V30 12504 C 1190.32 -1.42822 0.993872 0
M  V30 12505 O 1191.49 -1.53133 1.30814 0
M  V30 12506 C 1188.56 -2.40812 2.4942 0
M  V30 12507 C 1187.62 -2.16225 3.70871 0
M  V30 12508 C 1186.85 -3.39654 4.11668 0
M  V30 12509 O 1187.08 -4.48521 3.524 0
M  V30 12510 O 1186.01 -3.28263 5.04507 0
M  V30 12511 H 1189.84 -0.724381 2.94935 0
M  V30 12512 H 1187.42 -0.292184 1.46515 0
M  V30 12513 H 1189.3 -3.17101 2.77534 0
M  V30 12514 H 1187.98 -2.7897 1.64187 0
M  V30 12515 H 1186.89 -1.37663 3.4785 0
M  V30 12516 H 1188.22 -1.82951 4.56935 0
M  V30 12517 N 1189.87 -1.5367 -0.349747 0
M  V30 12518 C 1191.12 -1.71813 -1.08866 0
M  V30 12519 C 1191.47 -0.472299 -1.86513 0
M  V30 12520 O 1190.76 0.534996 -1.83979 0
M  V30 12521 C 1190.96 -2.91753 -2.06434 0
M  V30 12522 C 1190.79 -4.27881 -1.38377 0
M  V30 12523 C 1189.56 -4.92475 -1.13122 0
M  V30 12524 C 1191.76 -5.0783 -0.813198 0
M  V30 12525 N 1189.74 -6.1249 -0.415806 0
M  V30 12526 C 1191.11 -6.19581 -0.228008 0
M  V30 12527 C 1193.16 -4.92762 -0.713436 0
M  V30 12528 C 1191.87 -7.17908 0.447232 0
M  V30 12529 C 1193.89 -5.91377 -0.051947 0
M  V30 12530 C 1193.25 -7.02461 0.522299 0
M  V30 12531 H 1189.35 -0.681804 -0.382971 0
M  V30 12532 H 1191.94 -1.91093 -0.373029 0
M  V30 12533 H 1190.11 -2.73984 -2.75295 0
M  V30 12534 H 1191.84 -2.98644 -2.73118 0
M  V30 12535 H 1188.6 -4.51915 -1.41669 0
M  V30 12536 H 1189.02 -6.76961 -0.0730052 0
M  V30 12537 H 1193.66 -4.07053 -1.14315 0
M  V30 12538 H 1191.38 -8.03197 0.888855 0
M  V30 12539 H 1194.97 -5.81795 0.0245295 0
M  V30 12540 H 1193.85 -7.77459 1.02605 0
M  V30 12541 N 1191.35 0.610423 -1.45298 0
M  V30 12542 C 1192.59 1.38085 -1.50705 0
M  V30 12543 C 1192.95 1.91459 -0.143997 0
M  V30 12544 O 1194.15 2.68702 -0.0727521 0
M  V30 12545 C 1192.42 2.50009 -2.55402 0
M  V30 12546 S 1193.98 3.37844 -2.80012 0
M  V30 12547 H 1190.8 0.470812 -0.532783 0
M  V30 12548 H 1193.4 0.704638 -1.8236 0
M  V30 12549 H 1192.11 2.09143 -3.53111 0
M  V30 12550 H 1191.64 3.22434 -2.25388 0
M  V30 12551 H 1193.65 4.48074 -2.13176 0
M  V30 12552 N 1192.83 1.32541 0.852676 0
M  V30 12553 C 1194.07 1.24532 1.62083 0
M  V30 12554 C 1194.43 -0.189531 1.91062 0
M  V30 12555 O 1195.63 -0.393382 2.65906 0
M  V30 12556 C 1193.9 2.0828 2.90438 0
M  V30 12557 S 1195.46 2.17317 3.81207 0
M  V30 12558 H 1192.28 0.443261 0.555915 0
M  V30 12559 H 1194.88 1.67413 1.00961 0
M  V30 12560 H 1193.59 3.11587 2.67099 0
M  V30 12561 H 1193.12 1.66184 3.56576 0
M  V30 12562 H 1195.13 1.32412 4.78207 0
M  V30 12563 N 1194.3 -1.0692 1.15784 0
M  V30 12564 C 1195.72 -1.31707 0.901408 0
M  V30 12565 C 1195.92 -1.96429 -0.449203 0
M  V30 12566 O 1194.98 -2.22692 -1.19015 0
M  V30 12567 C 1196.29 -2.20391 2.04568 0
M  V30 12568 C 1197.84 -2.33827 2.08072 0
M  V30 12569 C 1198.31 -3.25862 3.21835 0
M  V30 12570 N 1199.8 -3.33444 3.21511 0
M  V30 12571 C 1200.54 -4.04731 4.06177 0
M  V30 12572 N 1200.03 -4.78596 5.00917 0
M  V30 12573 N 1201.83 -4.00717 3.94185 0
M  V30 12574 H 1193.98 -0.632989 2.02749 0
M  V30 12575 H 1196.24 -0.341587 0.88432 0
M  V30 12576 H 1195.95 -1.80102 3.02087 0
M  V30 12577 H 1195.82 -3.20943 1.9818 0
M  V30 12578 H 1198.21 -2.73367 1.11151 0
M  V30 12579 H 1198.29 -1.32964 2.18527 0
M  V30 12580 H 1197.93 -2.8704 4.19012 0
M  V30 12581 H 1197.86 -4.26689 3.08617 0
M  V30 12582 H 1200.35 -2.80798 2.52905 0
M  V30 12583 H 1200.67 -5.30499 5.61952 0
M  V30 12584 H 1199.01 -4.77598 5.04902 0
M  V30 12585 H 1202.2 -3.42126 3.1948 0
M  V30 12586 H 1202.38 -4.56008 4.60392 0
M  V30 12587 N 1195.78 -0.955326 -1.25345 0
M  V30 12588 C 1197.01 -0.627233 -1.97688 0
M  V30 12589 C 1197.43 0.793973 -1.70522 0
M  V30 12590 O 1196.79 1.537 -0.961556 0
M  V30 12591 C 1196.84 -0.892969 -3.49369 0
M  V30 12592 O 1195.94 0.0278871 -4.12391 0
M  V30 12593 H 1195.28 -0.238402 -0.619726 0
M  V30 12594 H 1197.81 -1.28211 -1.59446 0
M  V30 12595 H 1197.82 -0.819517 -3.99685 0
M  V30 12596 H 1196.5 -1.92879 -3.6847 0
M  V30 12597 H 1195.08 -0.0978295 -3.72772 0
M  V30 12598 N 1197.26 1.39987 -0.723979 0
M  V30 12599 C 1198.5 2.02587 -0.271647 0
M  V30 12600 C 1198.87 1.56186 1.11669 0
M  V30 12601 O 1200.07 2.10907 1.66648 0
M  V30 12602 C 1198.34 3.55604 -0.357851 0
M  V30 12603 S 1199.9 4.38797 0.0162614 0
M  V30 12604 H 1196.71 0.702878 -0.10716 0
M  V30 12605 H 1199.32 1.70974 -0.948057 0
M  V30 12606 H 1198.02 3.86866 -1.36977 0
M  V30 12607 H 1197.55 3.91956 0.336754 0
M  V30 12608 H 1199.57 4.80564 1.23582 0
M  V30 12609 N 1198.74 0.470782 1.50404 0
M  V30 12610 C 1199.97 -0.0820134 2.06737 0
M  V30 12611 C 1200.38 -1.33535 1.33468 0
M  V30 12612 O 1199.74 -1.77975 0.403872 0
M  V30 12613 C 1199.79 -0.370427 3.59597 0
M  V30 12614 O 1199.51 0.8332 4.30104 0
M  V30 12615 C 1201.01 -0.970222 4.32552 0
M  V30 12616 H 1198.23 0.00694502 0.670964 0
M  V30 12617 H 1200.78 0.659476 1.93575 0
M  V30 12618 H 1198.93 -1.06185 3.72563 0
M  V30 12619 H 1199.35 0.577614 5.2131 0
M  V30 12620 H 1200.82 -1.1218 5.40481 0
M  V30 12621 H 1201.3 -1.96024 3.93028 0
M  V30 12622 H 1201.9 -0.31719 4.24116 0
M  V30 12623 N 1200.22 -1.56282 0.203376 0
M  V30 12624 C 1201.15 -2.2247 -0.709183 0
M  V30 12625 C 1202.13 -1.19046 -1.21499 0
M  V30 12626 O 1203.31 -1.47578 -1.26231 0
M  V30 12627 C 1200.44 -2.8905 -1.92529 0
M  V30 12628 C 1199.4 -3.98789 -1.55407 0
M  V30 12629 C 1198.72 -4.52574 -2.84747 0
M  V30 12630 C 1200.02 -5.16774 -0.75775 0
M  V30 12631 H 1201.72 -2.98986 -0.157392 0
M  V30 12632 H 1199.26 -1.43808 -0.0742613 0
M  V30 12633 H 1201.22 -3.34038 -2.56898 0
M  V30 12634 H 1199.94 -2.09952 -2.50175 0
M  V30 12635 H 1198.6 -3.54504 -0.933928 0
M  V30 12636 H 1198.25 -3.70229 -3.40499 0
M  V30 12637 H 1197.95 -5.26627 -2.6065 0
M  V30 12638 H 1199.47 -5.00269 -3.5009 0
M  V30 12639 H 1200.89 -5.58256 -1.30472 0
M  V30 12640 H 1199.28 -5.96945 -0.614583 0
M  V30 12641 H 1200.35 -4.84308 0.239476 0
M  V30 12642 N 1201.7 0.070167 -1.57444 0
M  V30 12643 C 1203.11 0.621805 -1.76041 0
M  V30 12644 C 1203.46 1.77824 -0.829047 0
M  V30 12645 O 1202.58 2.16396 -0.0135453 0
M  V30 12646 C 1203.18 1.13476 -3.19231 0
M  V30 12647 C 1201.74 1.63225 -3.39167 0
M  V30 12648 C 1200.88 0.552369 -2.71743 0
M  V30 12649 H 1203.83 -0.156009 -1.57931 0
M  V30 12650 H 1203.86 2.00352 -3.2348 0
M  V30 12651 H 1203.37 0.29288 -3.86993 0
M  V30 12652 H 1201.47 2.49733 -2.76522 0
M  V30 12653 H 1201.58 1.70807 -4.47618 0
M  V30 12654 H 1199.95 0.997797 -2.34342 0
M  V30 12655 H 1200.73 -0.279354 -3.42162 0
M  V30 12656 N 1203.17 1.53854 0.341593 0
M  V30 12657 C 1204.58 1.62623 0.917093 0
M  V30 12658 C 1204.94 0.508781 1.89488 0
M  V30 12659 O 1204.06 -0.361171 2.13365 0
M  V30 12660 C 1204.66 2.94775 1.67012 0
M  V30 12661 C 1203.21 3.058 2.19461 0
M  V30 12662 C 1202.36 2.58082 1.01433 0
M  V30 12663 H 1205.31 1.58248 0.119674 0
M  V30 12664 H 1205.33 2.83924 2.53313 0
M  V30 12665 H 1204.85 3.76085 0.958221 0
M  V30 12666 H 1202.95 2.29128 2.93821 0
M  V30 12667 H 1203.06 4.11302 2.45698 0
M  V30 12668 H 1201.42 2.13537 1.38831 0
M  V30 12669 H 1202.21 3.41833 0.317033 0
M  V30 12670 N 1204.65 -0.602709 1.4562 0
M  V30 12671 C 1205.58 -1.72374 1.5751 0
M  V30 12672 C 1206.56 -1.64669 0.426389 0
M  V30 12673 O 1207.75 -1.82994 0.650143 0
M  V30 12674 C 1204.88 -3.10987 1.5461 0
M  V30 12675 C 1203.83 -3.33507 2.68248 0
M  V30 12676 C 1203.16 -4.72443 2.50403 0
M  V30 12677 C 1204.46 -3.23285 4.10224 0
M  V30 12678 H 1206.15 -1.62679 2.51348 0
M  V30 12679 H 1203.7 -0.781217 1.20967 0
M  V30 12680 H 1205.65 -3.89214 1.61525 0
M  V30 12681 H 1204.37 -3.21533 0.573049 0
M  V30 12682 H 1203.03 -2.57672 2.60769 0
M  V30 12683 H 1202.68 -4.79729 1.51226 0
M  V30 12684 H 1202.38 -4.88466 3.26611 0
M  V30 12685 H 1203.91 -5.52864 2.59179 0
M  V30 12686 H 1205.32 -3.91381 4.1892 0
M  V30 12687 H 1203.72 -3.50837 4.86861 0
M  V30 12688 H 1204.79 -2.20652 4.31788 0
M  V30 12689 N 1206.13 -1.32992 -0.845635 0
M  V30 12690 C 1207.55 -1.12179 -1.13526 0
M  V30 12691 C 1207.75 0.091795 -2.01291 0
M  V30 12692 O 1206.8 0.774051 -2.40343 0
M  V30 12693 C 1208.11 -2.40584 -1.80388 0
M  V30 12694 C 1209.66 -2.46427 -1.92984 0
M  V30 12695 C 1210.14 -3.74776 -2.63261 0
M  V30 12696 N 1211.63 -3.75809 -2.7078 0
M  V30 12697 C 1212.36 -4.71829 -3.2583 0
M  V30 12698 N 1211.86 -5.78219 -3.81621 0
M  V30 12699 N 1213.65 -4.59313 -3.24018 0
M  V30 12700 H 1205.8 -2.10786 -0.261369 0
M  V30 12701 H 1208.07 -0.931053 -0.17845 0
M  V30 12702 H 1207.77 -3.29357 -1.23357 0
M  V30 12703 H 1207.65 -2.52225 -2.80468 0
M  V30 12704 H 1210.03 -1.58108 -2.4917 0
M  V30 12705 H 1210.11 -2.38732 -0.918732 0
M  V30 12706 H 1209.76 -4.63474 -2.07736 0
M  V30 12707 H 1209.69 -3.79746 -3.6483 0
M  V30 12708 H 1212.18 -2.98916 -2.31209 0
M  V30 12709 H 1212.49 -6.47531 -4.2181 0
M  V30 12710 H 1210.84 -5.81962 -3.79927 0
M  V30 12711 H 1214.03 -3.75358 -2.79685 0
M  V30 12712 H 1214.2 -5.34316 -3.6662 0
M  V30 12713 N 1207.61 1.06304 -1.1635 0
M  V30 12714 C 1208.84 1.82534 -0.967725 0
M  V30 12715 C 1209.25 1.82816 0.487338 0
M  V30 12716 O 1208.59 1.24581 1.35001 0
M  V30 12717 C 1208.65 3.30349 -1.4181 0
M  V30 12718 C 1208.31 3.53769 -2.89303 0
M  V30 12719 C 1209.31 3.46826 -3.87308 0
M  V30 12720 C 1207 3.81094 -3.2722 0
M  V30 12721 C 1208.99 3.66874 -5.21232 0
M  V30 12722 C 1206.68 4.00792 -4.61313 0
M  V30 12723 C 1207.68 3.93679 -5.58127 0
M  V30 12724 O 1207.36 4.12839 -6.89796 0
M  V30 12725 H 1207.1 0.582407 -0.343189 0
M  V30 12726 H 1209.65 1.35022 -1.54784 0
M  V30 12727 H 1207.88 3.78722 -0.781456 0
M  V30 12728 H 1209.57 3.88072 -1.18976 0
M  V30 12729 H 1210.33 3.25706 -3.59361 0
M  V30 12730 H 1206.21 3.85739 -2.5244 0
M  V30 12731 H 1209.76 3.61238 -5.96786 0
M  V30 12732 H 1205.65 4.214 -4.8897 0
M  V30 12733 H 1206.42 4.30128 -6.96371 0
M  V30 12734 N 1209.09 0.96196 1.24836 0
M  V30 12735 C 1210.5 0.667561 1.44968 0
M  V30 12736 C 1210.7 -0.772521 1.86103 0
M  V30 12737 O 1209.76 -1.54704 1.99557 0
M  V30 12738 C 1211.07 1.64675 2.516 0
M  V30 12739 C 1212.62 1.65874 2.65433 0
M  V30 12740 C 1213.09 2.62576 3.75257 0
M  V30 12741 N 1214.58 2.60984 3.82677 0
M  V30 12742 C 1215.32 3.32484 4.67163 0
M  V30 12743 N 1214.82 4.13482 5.55882 0
M  V30 12744 N 1216.61 3.21336 4.61193 0
M  V30 12745 H 1208.76 1.89248 0.964307 0
M  V30 12746 H 1211.02 0.814443 0.485167 0
M  V30 12747 H 1210.73 2.67572 2.2825 0
M  V30 12748 H 1210.6 1.415 3.49653 0
M  V30 12749 H 1212.99 0.636912 2.88145 0
M  V30 12750 H 1213.07 1.9311 1.67756 0
M  V30 12751 H 1212.71 3.6489 3.53295 0
M  V30 12752 H 1212.64 2.32622 4.72435 0
M  V30 12753 H 1215.14 2.02187 3.19263 0
M  V30 12754 H 1215.45 4.6494 6.17293 0
M  V30 12755 H 1213.79 4.17578 5.55566 0
M  V30 12756 H 1216.98 2.57524 3.90895 0
M  V30 12757 H 1217.16 3.77323 5.26812 0
M  V30 12758 N 1210.56 -1.39601 0.731392 0
M  V30 12759 C 1211.81 -2.0019 0.277208 0
M  V30 12760 C 1212.13 -1.5832 -1.13841 0
M  V30 12761 O 1211.4 -0.829793 -1.77458 0
M  V30 12762 H 1209.98 -0.740344 0.0995006 0
M  V30 12763 H 1212.64 -1.70704 0.940547 0
M  V30 12764 H 1211.74 -3.10427 0.322749 0
M  V30 12765 N 1212.04 -0.478751 -1.50152 0
M  V30 12766 C 1212.95 0.316554 -2.32455 0
M  V30 12767 C 1213.97 0.98871 -1.4318 0
M  V30 12768 O 1215.14 0.974998 -1.76226 0
M  V30 12769 C 1212.21 1.3799 -3.18056 0
M  V30 12770 C 1211.27 0.723534 -4.23159 0
M  V30 12771 C 1210.5 1.73621 -5.0467 0
M  V30 12772 O 1210.73 2.96362 -4.87366 0
M  V30 12773 O 1209.66 1.30381 -5.87609 0
M  V30 12774 H 1213.49 -0.356491 -3.016 0
M  V30 12775 H 1211.07 -0.24046 -1.47452 0
M  V30 12776 H 1212.95 1.99565 -3.71149 0
M  V30 12777 H 1211.63 2.03627 -2.5163 0
M  V30 12778 H 1210.54 0.0686296 -3.74037 0
M  V30 12779 H 1211.87 0.109979 -4.92077 0
M  V30 12780 N 1213.52 1.56172 -0.211661 0
M  V30 12781 C 1214.8 1.8984 0.471195 0
M  V30 12782 C 1215.18 1.1276 1.78461 0
M  V30 12783 O 1214.53 0.233817 2.27301 0
M  V30 12784 C 1214.74 3.42434 0.673814 0
M  V30 12785 C 1216.08 4.13 0.985719 0
M  V30 12786 O 1217.11 3.47977 0.760953 0
M  V30 12787 O 1215.97 5.2795 1.41176 0
M  V30 12788 H 1213.06 0.789008 0.247782 0
M  V30 12789 H 1215.61 1.67802 -0.25311 0
M  V30 12790 H 1214.38 3.90481 -0.253034 0
M  V30 12791 H 1214 3.70218 1.44997 0
M  V30 12792 N 1215 -0.0618163 1.57479 0
M  V30 12793 C 1216.25 -0.757569 1.87364 0
M  V30 12794 C 1216.57 -1.77607 0.805025 0
M  V30 12795 O 1215.84 -1.95202 -0.165216 0
M  V30 12796 H 1214.42 -0.28278 0.691408 0
M  V30 12797 H 1217.08 -0.0355354 1.94868 0
M  V30 12798 H 1216.18 -1.26758 2.85199 0
M  V30 12799 N 1216.48 -1.54033 -0.333429 0
M  V30 12800 C 1217.72 -1.73485 -1.08085 0
M  V30 12801 C 1218.08 -0.492888 -1.85566 0
M  V30 12802 O 1219.28 -0.564596 -2.62804 0
M  V30 12803 C 1217.55 -2.96943 -1.98896 0
M  V30 12804 S 1219.11 -3.37253 -2.80724 0
M  V30 12805 H 1215.93 -0.610131 -0.365049 0
M  V30 12806 H 1218.53 -1.92194 -0.358034 0
M  V30 12807 H 1217.24 -3.85494 -1.40794 0
M  V30 12808 H 1216.77 -2.80729 -2.75599 0
M  V30 12809 H 1218.78 -2.9178 -4.01347 0
M  V30 12810 N 1217.95 0.594978 -1.45938 0
M  V30 12811 C 1219.2 1.35356 -1.51823 0
M  V30 12812 C 1219.56 1.91711 -0.162721 0
M  V30 12813 O 1218.85 1.72831 0.827047 0
M  V30 12814 C 1219.04 2.51129 -2.54301 0
M  V30 12815 C 1218.87 2.06113 -3.99684 0
M  V30 12816 C 1217.64 1.91698 -4.67525 0
M  V30 12817 C 1219.84 1.62817 -4.87848 0
M  V30 12818 N 1217.82 1.40625 -5.97577 0
M  V30 12819 C 1219.19 1.23248 -6.07626 0
M  V30 12820 C 1221.25 1.50523 -4.74602 0
M  V30 12821 C 1219.95 0.726124 -7.15626 0
M  V30 12822 C 1221.98 1.0129 -5.82661 0
M  V30 12823 C 1221.34 0.626938 -7.01604 0
M  V30 12824 H 1217.44 0.488744 -0.610454 0
M  V30 12825 H 1220.02 0.678804 -1.82484 0
M  V30 12826 H 1218.19 3.16184 -2.25571 0
M  V30 12827 H 1219.92 3.18046 -2.50257 0
M  V30 12828 H 1216.68 2.1327 -4.22863 0
M  V30 12829 H 1217.1 1.17285 -6.66763 0
M  V30 12830 H 1221.75 1.78985 -3.83046 0
M  V30 12831 H 1219.46 0.429069 -8.0696 0
M  V30 12832 H 1223.05 0.921864 -5.7445 0
M  V30 12833 H 1221.93 0.251849 -7.83795 0
M  V30 12834 N 1219.43 1.33438 0.838571 0
M  V30 12835 C 1220.66 1.27766 1.62356 0
M  V30 12836 C 1221.07 -0.15359 1.88576 0
M  V30 12837 O 1220.41 -1.10626 1.46654 0
M  V30 12838 C 1220.48 1.98435 2.99773 0
M  V30 12839 C 1220.14 3.47741 2.96522 0
M  V30 12840 C 1221.14 4.42938 2.72217 0
M  V30 12841 C 1218.82 3.89922 3.16648 0
M  V30 12842 C 1220.82 5.7829 2.68066 0
M  V30 12843 C 1218.5 5.25378 3.12123 0
M  V30 12844 C 1219.5 6.19374 2.87863 0
M  V30 12845 O 1219.19 7.52349 2.83242 0
M  V30 12846 H 1218.92 0.441527 0.511889 0
M  V30 12847 H 1221.47 1.76377 1.05262 0
M  V30 12848 H 1219.7 1.44415 3.58721 0
M  V30 12849 H 1221.39 1.86258 3.60642 0
M  V30 12850 H 1222.16 4.11673 2.56418 0
M  V30 12851 H 1218.04 3.17169 3.34552 0
M  V30 12852 H 1221.58 6.51629 2.4905 0
M  V30 12853 H 1217.48 5.56267 3.27471 0
M  V30 12854 H 1218.25 7.61901 2.99082 0
M  V30 12855 N 1220.91 -1.05686 1.16912 0
M  V30 12856 C 1222.16 -1.78244 0.95254 0
M  V30 12857 C 1222.48 -1.87924 -0.520525 0
M  V30 12858 O 1221.75 -1.39239 -1.37802 0
M  V30 12859 H 1220.33 -0.660228 0.349439 0
M  V30 12860 H 1222.99 -1.27634 1.47294 0
M  V30 12861 H 1222.09 -2.80102 1.37657 0
M  V30 12862 N 1222.39 -0.968567 -1.24324 0
M  V30 12863 C 1223.32 -0.444065 -2.23838 0
M  V30 12864 C 1224.3 0.482311 -1.55282 0
M  V30 12865 O 1225.48 0.413489 -1.83909 0
M  V30 12866 C 1222.61 0.358874 -3.36793 0
M  V30 12867 C 1221.66 -0.509913 -4.23441 0
M  V30 12868 S 1222.49 -1.95064 -4.98708 0
M  V30 12869 C 1223.65 -1.15652 -6.15122 0
M  V30 12870 H 1223.88 -1.28738 -2.67981 0
M  V30 12871 H 1221.41 -0.773665 -1.33618 0
M  V30 12872 H 1223.37 0.816164 -4.02305 0
M  V30 12873 H 1222.03 1.17717 -2.91207 0
M  V30 12874 H 1221.22 0.106617 -5.03887 0
M  V30 12875 H 1220.83 -0.902967 -3.62936 0
M  V30 12876 H 1223.12 -0.411966 -6.76246 0
M  V30 12877 H 1224.06 -1.93539 -6.81137 0
M  V30 12878 H 1224.47 -0.680507 -5.60383 0
M  V30 12879 N 1223.87 1.39211 -0.738786 0
M  V30 12880 C 1224.78 2.34374 -0.102958 0
M  V30 12881 C 1225.79 1.58514 0.717596 0
M  V30 12882 O 1226.97 1.90786 0.645186 0
M  V30 12883 C 1224.03 3.37562 0.790733 0
M  V30 12884 C 1223.09 4.29279 -0.0425028 0
M  V30 12885 C 1222.33 5.27539 0.808628 0
M  V30 12886 O 1222.55 5.32396 2.04722 0
M  V30 12887 O 1221.48 6.0144 0.235279 0
M  V30 12888 H 1225.31 2.90412 -0.888498 0
M  V30 12889 H 1222.9 1.40803 -0.499498 0
M  V30 12890 H 1224.78 4.00783 1.30196 0
M  V30 12891 H 1223.45 2.83903 1.55502 0
M  V30 12892 H 1222.36 3.69268 -0.599335 0
M  V30 12893 H 1223.69 4.86154 -0.7691 0
M  V30 12894 N 1225.34 0.486708 1.49896 0
M  V30 12895 C 1226.59 -0.0646197 2.01596 0
M  V30 12896 C 1226.91 -1.39363 1.37249 0
M  V30 12897 O 1228.11 -2.03082 1.80194 0
M  V30 12898 C 1226.57 -0.16565 3.59519 0
M  V30 12899 C 1226.18 1.15586 4.32832 0
M  V30 12900 C 1227.92 -0.668103 4.1921 0
M  V30 12901 C 1225.83 1.01778 5.82576 0
M  V30 12902 H 1224.76 -0.0279241 0.753483 0
M  V30 12903 H 1227.41 0.623969 1.72566 0
M  V30 12904 H 1225.79 -0.918372 3.85204 0
M  V30 12905 H 1226.96 1.92076 4.1886 0
M  V30 12906 H 1225.28 1.59064 3.84822 0
M  V30 12907 H 1227.88 -0.788698 5.28851 0
M  V30 12908 H 1228.22 -1.66339 3.81624 0
M  V30 12909 H 1228.75 0.0276746 3.9779 0
M  V30 12910 H 1225.49 1.9869 6.24662 0
M  V30 12911 H 1225.01 0.293527 5.99081 0
M  V30 12912 H 1226.69 0.690693 6.43303 0
M  V30 12913 N 1226.82 -1.56058 0.219941 0
M  V30 12914 C 1228.24 -1.59024 -0.135476 0
M  V30 12915 C 1228.44 -1.23672 -1.59083 0
M  V30 12916 O 1227.5 -0.971197 -2.33075 0
M  V30 12917 C 1228.81 -3.00103 0.189356 0
M  V30 12918 C 1230.36 -3.12724 0.131463 0
M  V30 12919 C 1230.83 -4.55977 0.429947 0
M  V30 12920 N 1232.32 -4.61643 0.37946 0
M  V30 12921 C 1233.06 -5.70419 0.58393 0
M  V30 12922 N 1232.55 -6.87565 0.850088 0
M  V30 12923 N 1234.35 -5.59722 0.516477 0
M  V30 12924 H 1226.5 -1.77313 1.16935 0
M  V30 12925 H 1228.76 -0.824096 0.468583 0
M  V30 12926 H 1228.47 -3.30616 1.19941 0
M  V30 12927 H 1228.34 -3.73919 -0.49641 0
M  V30 12928 H 1230.73 -2.82008 -0.869223 0
M  V30 12929 H 1230.81 -2.41241 0.85068 0
M  V30 12930 H 1230.45 -4.8741 1.42806 0
M  V30 12931 H 1230.38 -5.25684 -0.310444 0
M  V30 12932 H 1232.87 -3.77465 0.181373 0
M  V30 12933 H 1233.19 -7.66378 0.994251 0
M  V30 12934 H 1231.53 -6.89313 0.887265 0
M  V30 12935 H 1234.72 -4.6708 0.308784 0
M  V30 12936 H 1234.9 -6.4443 0.679236 0
M  V30 12937 N 1228.3 0.053464 -1.57509 0
M  V30 12938 C 1229.71 0.603099 -1.76691 0
M  V30 12939 C 1230.06 1.76934 -0.847861 0
M  V30 12940 O 1229.19 2.16369 -0.0364962 0
M  V30 12941 C 1229.78 1.10084 -3.20417 0
M  V30 12942 C 1228.34 1.59618 -3.4088 0
M  V30 12943 C 1227.49 0.523516 -2.72313 0
M  V30 12944 H 1230.44 -0.172751 -1.57757 0
M  V30 12945 H 1230.46 1.9691 -3.25587 0
M  V30 12946 H 1229.97 0.251818 -3.87282 0
M  V30 12947 H 1228.07 2.46786 -2.79155 0
M  V30 12948 H 1228.19 1.6605 -4.49404 0
M  V30 12949 H 1226.55 0.972886 -2.35387 0
M  V30 12950 H 1227.33 -0.315629 -3.41846 0
M  V30 12951 N 1229.78 1.54207 0.325255 0
M  V30 12952 C 1230.71 1.86467 1.40543 0
M  V30 12953 C 1231.69 0.721324 1.54048 0
M  V30 12954 O 1232.88 0.974905 1.67956 0
M  V30 12955 C 1230.01 2.09052 2.77335 0
M  V30 12956 C 1228.96 3.24893 2.78619 0
M  V30 12957 C 1228.29 3.32846 4.1847 0
M  V30 12958 C 1229.59 4.62582 2.42518 0
M  V30 12959 H 1231.28 2.76932 1.13794 0
M  V30 12960 H 1228.83 1.33248 0.545971 0
M  V30 12961 H 1230.78 2.30204 3.52964 0
M  V30 12962 H 1229.5 1.15335 3.05558 0
M  V30 12963 H 1228.16 3.03625 2.05444 0
M  V30 12964 H 1227.81 2.3669 4.43832 0
M  V30 12965 H 1227.51 4.10701 4.20237 0
M  V30 12966 H 1229.03 3.56231 4.95915 0
M  V30 12967 H 1230.45 4.83627 3.07861 0
M  V30 12968 H 1228.84 5.42974 2.55538 0
M  V30 12969 H 1229.91 4.64946 1.3767 0
M  V30 12970 N 1231.26 -0.58723 1.46251 0
M  V30 12971 C 1232.2 -1.69662 1.56472 0
M  V30 12972 C 1233.17 -1.60978 0.409294 0
M  V30 12973 O 1234.36 -1.80257 0.625451 0
M  V30 12974 C 1231.5 -3.07996 1.55669 0
M  V30 12975 C 1230.61 -3.27337 2.81913 0
M  V30 12976 C 1229.75 -4.55894 2.72644 0
M  V30 12977 C 1228.79 -4.68562 3.93847 0
M  V30 12978 N 1227.92 -5.8844 3.82991 0
M  V30 12979 H 1232.76 -1.60262 2.51237 0
M  V30 12980 H 1230.3 -0.781148 1.24645 0
M  V30 12981 H 1232.26 -3.88058 1.53189 0
M  V30 12982 H 1230.89 -3.16303 0.6444 0
M  V30 12983 H 1229.94 -2.4091 2.94392 0
M  V30 12984 H 1231.25 -3.32567 3.71754 0
M  V30 12985 H 1230.41 -5.44178 2.68244 0
M  V30 12986 H 1229.15 -4.53094 1.80435 0
M  V30 12987 H 1228.15 -3.78696 3.98584 0
M  V30 12988 H 1229.38 -4.73144 4.87146 0
M  V30 12989 H 1227.32 -5.86647 2.93566 0
M  V30 12990 H 1227.24 -5.94919 4.66484 0
M  V30 12991 H 1228.51 -6.79168 3.82559 0
M  V30 12992 N 1232.74 -1.33881 -0.831482 0
M  V30 12993 C 1233.65 -1.26802 -1.97379 0
M  V30 12994 C 1234.66 -0.177233 -1.73095 0
M  V30 12995 O 1235.84 -0.402163 -1.97344 0
M  V30 12996 C 1232.9 -1.01474 -3.31517 0
M  V30 12997 C 1231.96 -2.19626 -3.68867 0
M  V30 12998 C 1231.2 -1.95497 -4.96605 0
M  V30 12999 O 1231.42 -0.908948 -5.63111 0
M  V30 13000 O 1230.35 -2.82226 -5.31632 0
M  V30 13001 H 1234.18 -2.22883 -2.06293 0
M  V30 13002 H 1231.76 -1.14001 -0.965613 0
M  V30 13003 H 1233.65 -0.890954 -4.11874 0
M  V30 13004 H 1232.32 -0.0842656 -3.2359 0
M  V30 13005 H 1231.23 -2.37561 -2.88991 0
M  V30 13006 H 1232.56 -3.11034 -3.81469 0
M  V30 13007 N 1234.21 1.05064 -1.1747 0
M  V30 13008 C 1235.16 2.12841 -0.89259 0
M  V30 13009 C 1236.13 1.65288 0.16402 0
M  V30 13010 O 1237.32 1.90782 0.026537 0
M  V30 13011 C 1234.46 3.42614 -0.41344 0
M  V30 13012 C 1233.57 4.03835 -1.53432 0
M  V30 13013 C 1232.7 5.21531 -1.00891 0
M  V30 13014 C 1231.74 5.74761 -2.10515 0
M  V30 13015 N 1230.88 6.83756 -1.59442 0
M  V30 13016 H 1235.72 2.36312 -1.81551 0
M  V30 13017 H 1233.26 1.15929 -0.905483 0
M  V30 13018 H 1235.21 4.17035 -0.117181 0
M  V30 13019 H 1233.84 3.19323 0.472517 0
M  V30 13020 H 1232.9 3.2684 -1.94627 0
M  V30 13021 H 1234.21 4.3938 -2.36108 0
M  V30 13022 H 1233.36 6.03027 -0.666575 0
M  V30 13023 H 1232.1 4.87464 -0.151608 0
M  V30 13024 H 1231.11 4.91893 -2.45604 0
M  V30 13025 H 1232.33 6.10875 -2.96663 0
M  V30 13026 H 1230.28 6.51584 -0.759849 0
M  V30 13027 H 1230.19 7.18311 -2.35724 0
M  V30 13028 H 1231.46 7.68901 -1.28105 0
M  V30 13029 N 1235.69 0.975146 1.23809 0
M  V30 13030 C 1236.6 0.51917 2.28783 0
M  V30 13031 C 1237.62 -0.423487 1.68768 0
M  V30 13032 O 1238.79 -0.294699 1.99232 0
M  V30 13033 C 1235.86 -0.176229 3.46252 0
M  V30 13034 C 1234.92 0.807177 4.21643 0
M  V30 13035 C 1234.15 0.144869 5.33503 0
M  V30 13036 O 1234.38 -1.06522 5.60365 0
M  V30 13037 O 1233.31 0.84079 5.95999 0
M  V30 13038 H 1237.14 1.39204 2.69919 0
M  V30 13039 H 1234.72 0.74253 1.29641 0
M  V30 13040 H 1236.6 -0.566547 4.17574 0
M  V30 13041 H 1235.28 -1.02394 3.07078 0
M  V30 13042 H 1234.18 1.2481 3.52666 0
M  V30 13043 H 1235.52 1.62354 4.64653 0
M  V30 13044 N 1237.17 -1.38817 0.746158 0
M  V30 13045 C 1238.08 -2.34316 0.115386 0
M  V30 13046 C 1239.1 -1.58892 -0.709179 0
M  V30 13047 O 1240.27 -1.91126 -0.635059 0
M  V30 13048 C 1237.34 -3.37977 -0.772821 0
M  V30 13049 C 1236.4 -4.2925 0.0652679 0
M  V30 13050 C 1235.63 -5.2796 -0.78064 0
M  V30 13051 O 1235.85 -5.33474 -2.01896 0
M  V30 13052 O 1234.79 -6.01556 -0.20338 0
M  V30 13053 H 1238.61 -2.89937 0.903887 0
M  V30 13054 H 1236.2 -1.40536 0.506958 0
M  V30 13055 H 1238.08 -4.01468 -1.28068 0
M  V30 13056 H 1236.76 -2.84723 -1.53994 0
M  V30 13057 H 1235.66 -3.68945 0.61891 0
M  V30 13058 H 1237 -4.85739 0.794871 0
M  V30 13059 N 1238.65 -0.49465 -1.49636 0
M  V30 13060 C 1239.6 0.300929 -2.30645 0
M  V30 13061 C 1240.59 0.968687 -1.38971 0
M  V30 13062 O 1241.8 0.897101 -1.56052 0
M  V30 13063 H 1238.17 0.1159 -0.743015 0
M  V30 13064 H 1240.14 -0.402387 -2.95674 0
M  V30 13065 C 1238.89 1.35638 -3.20153 0
M  V30 13066 H 1238.21 0.851946 -3.90617 0
M  V30 13067 H 1239.65 1.88515 -3.79787 0
M  V30 13068 C 1238.11 2.37112 -2.39331 0
M  V30 13069 O 1238.64 3.42867 -2.09298 0
M  V30 13070 N 1236.85 2.09421 -2.01473 0
M  V30 13071 H 1236.4 1.23441 -2.26097 0
M  V30 13072 H 1236.35 2.77545 -1.47703 0
M  V30 13073 N 1240.13 1.55939 -0.228214 0
M  V30 13074 C 1241.06 2.2357 0.6737 0
M  V30 13075 C 1242.04 1.20964 1.1959 0
M  V30 13076 O 1243.22 1.49568 1.23867 0
M  V30 13077 C 1240.35 2.92076 1.87906 0
M  V30 13078 C 1239.31 4.01211 1.49043 0
M  V30 13079 C 1238.63 4.57047 2.77511 0
M  V30 13080 C 1239.93 5.17914 0.67544 0
M  V30 13081 H 1241.63 2.99199 0.109806 0
M  V30 13082 H 1239.17 1.43908 0.0513732 0
M  V30 13083 H 1241.12 3.38083 2.51551 0
M  V30 13084 H 1239.85 2.13906 2.46803 0
M  V30 13085 H 1238.51 3.55945 0.877411 0
M  V30 13086 H 1238.16 3.75599 3.34566 0
M  V30 13087 H 1237.86 5.30707 2.52239 0
M  V30 13088 H 1239.38 5.05776 3.42087 0
M  V30 13089 H 1240.79 5.60261 1.21575 0
M  V30 13090 H 1239.19 5.97847 0.519536 0
M  V30 13091 H 1240.26 4.83866 -0.316495 0
M  V30 13092 N 1241.6 -0.0451101 1.57535 0
M  V30 13093 C 1242.85 -0.740209 1.88809 0
M  V30 13094 C 1243.18 -1.75854 0.823956 0
M  V30 13095 O 1242.46 -1.93817 -0.16286 0
M  V30 13096 C 1242.74 -1.42424 3.30737 0
M  V30 13097 C 1242.59 -0.42052 4.4783 0
M  V30 13098 C 1243.91 -2.36241 3.7132 0
M  V30 13099 H 1241.03 -0.267628 0.686691 0
M  V30 13100 H 1243.67 -0.00309149 1.9 0
M  V30 13101 H 1241.82 -2.05254 3.29853 0
M  V30 13102 H 1243.5 0.204625 4.60846 0
M  V30 13103 H 1241.74 0.261739 4.3301 0
M  V30 13104 H 1242.41 -0.937298 5.43984 0
M  V30 13105 H 1244.89 -1.83468 3.73468 0
M  V30 13106 H 1243.76 -2.81091 4.71465 0
M  V30 13107 H 1244.02 -3.2222 3.02699 0
M  V30 13108 N 1243.08 -1.54377 -0.317073 0
M  V30 13109 C 1244.31 -1.77184 -1.07798 0
M  V30 13110 C 1244.73 -0.52204 -1.80711 0
M  V30 13111 O 1244.09 0.52672 -1.7348 0
M  V30 13112 C 1244.14 -2.96887 -2.04671 0
M  V30 13113 O 1243.24 -2.68887 -3.12688 0
M  V30 13114 H 1242.58 -0.586937 -0.310485 0
M  V30 13115 H 1245.11 -2.01419 -0.35939 0
M  V30 13116 H 1245.12 -3.24414 -2.47426 0
M  V30 13117 H 1243.8 -3.87518 -1.51005 0
M  V30 13118 H 1242.38 -2.52329 -2.74562 0
M  V30 13119 N 1244.56 0.579466 -1.4656 0
M  V30 13120 C 1245.79 1.36837 -1.55854 0
M  V30 13121 C 1246.21 1.87019 -0.20141 0
M  V30 13122 O 1245.57 1.61746 0.81901 0
M  V30 13123 C 1245.62 2.52965 -2.56985 0
M  V30 13124 O 1244.72 3.54505 -2.10713 0
M  V30 13125 H 1244.06 0.407379 -0.524345 0
M  V30 13126 H 1246.59 0.702558 -1.9216 0
M  V30 13127 H 1246.6 2.99838 -2.76697 0
M  V30 13128 H 1245.28 2.15793 -3.55536 0
M  V30 13129 H 1243.85 3.14089 -2.01003 0
M  V30 13130 N 1246.04 1.3432 0.824371 0
M  V30 13131 C 1246.97 1.2842 1.95014 0
M  V30 13132 C 1247.95 0.161925 1.69328 0
M  V30 13133 O 1249.13 0.354052 1.90945 0
M  V30 13134 C 1246.26 1.03741 3.31444 0
M  V30 13135 C 1245.22 2.12419 3.71567 0
M  V30 13136 C 1244.54 1.72931 5.05963 0
M  V30 13137 C 1245.84 3.54235 3.83817 0
M  V30 13138 H 1247.54 2.22614 2.00209 0
M  V30 13139 H 1245.08 1.07165 0.961856 0
M  V30 13140 H 1247.04 0.982586 4.09784 0
M  V30 13141 H 1245.76 0.0598892 3.26545 0
M  V30 13142 H 1244.42 2.16968 2.955 0
M  V30 13143 H 1244.07 0.738433 4.9755 0
M  V30 13144 H 1243.77 2.45668 5.3378 0
M  V30 13145 H 1245.29 1.68941 5.86763 0
M  V30 13146 H 1246.71 3.52106 4.52432 0
M  V30 13147 H 1245.1 4.25581 4.23085 0
M  V30 13148 H 1246.17 3.91682 2.85856 0
M  V30 13149 N 1247.52 -1.0444 1.18026 0
M  V30 13150 C 1248.76 -1.77838 0.974756 0
M  V30 13151 C 1249.1 -1.87792 -0.494755 0
M  V30 13152 O 1248.37 -1.38327 -1.36733 0
M  V30 13153 C 1248.65 -3.21315 1.62569 0
M  V30 13154 C 1248.51 -3.19327 3.16781 0
M  V30 13155 C 1249.83 -4.19337 1.33583 0
M  V30 13156 H 1246.94 -0.645575 0.35553 0
M  V30 13157 H 1249.59 -1.22023 1.45638 0
M  V30 13158 H 1247.74 -3.68974 1.21617 0
M  V30 13159 H 1249.41 -2.79687 3.66842 0
M  V30 13160 H 1247.65 -2.57461 3.49137 0
M  V30 13161 H 1248.32 -4.20626 3.5746 0
M  V30 13162 H 1250.8 -3.80208 1.69059 0
M  V30 13163 H 1249.67 -5.17953 1.81702 0
M  V30 13164 H 1249.94 -4.41346 0.258016 0
M  V30 13165 N 1248.99 -0.981699 -1.2329 0
M  V30 13166 C 1250.22 -0.66937 -1.95773 0
M  V30 13167 C 1250.64 0.763898 -1.72656 0
M  V30 13168 O 1249.99 1.51418 -1.01876 0
M  V30 13169 C 1250.05 -0.951863 -3.48743 0
M  V30 13170 O 1249.77 -2.3288 -3.71078 0
M  V30 13171 C 1251.27 -0.655668 -4.38424 0
M  V30 13172 H 1248.49 -0.248545 -0.623271 0
M  V30 13173 H 1251.03 -1.31343 -1.56746 0
M  V30 13174 H 1249.19 -0.353787 -3.85781 0
M  V30 13175 H 1249.6 -2.41948 -4.65362 0
M  V30 13176 H 1251.07 -0.903683 -5.44553 0
M  V30 13177 H 1251.55 0.410269 -4.3728 0
M  V30 13178 H 1252.16 -1.23428 -4.06996 0
M  V30 13179 N 1250.47 1.3842 -0.753509 0
M  V30 13180 C 1251.44 2.28808 -0.134022 0
M  V30 13181 C 1252.44 1.47184 0.647583 0
M  V30 13182 O 1253.63 1.67631 0.473861 0
M  V30 13183 C 1250.76 3.30926 0.81858 0
M  V30 13184 H 1251.95 2.85097 -0.930586 0
M  V30 13185 H 1249.5 1.47378 -0.520514 0
M  V30 13186 H 1250.24 2.79728 1.64082 0
M  V30 13187 H 1250.02 3.91234 0.260526 0
M  V30 13188 H 1251.51 3.98515 1.24802 0
M  V30 13189 N 1251.95 0.502579 1.49372 0
M  V30 13190 C 1253.2 -0.0412993 2.02058 0
M  V30 13191 C 1253.52 -1.37338 1.38431 0
M  V30 13192 O 1252.79 -1.88305 0.540175 0
M  V30 13193 H 1251.37 -0.0182522 0.746777 0
M  V30 13194 H 1254.03 0.660179 1.83378 0
M  V30 13195 H 1253.13 -0.169812 3.11638 0
M  V30 13196 N 1253.43 -1.55816 0.23648 0
M  V30 13197 C 1254.38 -2.17588 -0.681145 0
M  V30 13198 C 1255.36 -1.12862 -1.14678 0
M  V30 13199 O 1256.55 -1.38805 -1.09829 0
M  V30 13200 C 1253.68 -2.87086 -1.88246 0
M  V30 13201 C 1252.77 -3.99056 -1.43581 0
M  V30 13202 N 1253.16 -5.00895 -0.702704 0
M  V30 13203 C 1251.46 -4.11419 -1.72192 0
M  V30 13204 C 1252.16 -5.79775 -0.472866 0
M  V30 13205 N 1251.14 -5.33675 -1.034 0
M  V30 13206 H 1254.94 -2.93684 -0.112772 0
M  V30 13207 H 1252.45 -1.62355 0.0383551 0
M  V30 13208 H 1254.45 -3.29761 -2.55075 0
M  V30 13209 H 1253.11 -2.1249 -2.45516 0
M  V30 13210 H 1254.12 -5.1669 -0.353865 0
M  V30 13211 H 1250.8 -3.47987 -2.30676 0
M  V30 13212 H 1252.19 -6.71807 0.111664 0
M  V30 13213 N 1254.91 0.036755 -1.57557 0
M  V30 13214 C 1256.15 0.727665 -1.88546 0
M  V30 13215 C 1256.48 1.76304 -0.833179 0
M  V30 13216 O 1255.75 1.9544 0.13414 0
M  V30 13217 H 1254.33 0.271744 -0.695819 0
M  V30 13218 H 1256.99 0.00452915 -1.94899 0
M  V30 13219 H 1256.08 1.22205 -2.8718 0
M  V30 13220 N 1256.39 1.54543 0.308881 0
M  V30 13221 C 1257.32 1.81309 1.40212 0
M  V30 13222 C 1258.33 0.69568 1.47187 0
M  V30 13223 O 1259.52 0.973034 1.49647 0
M  V30 13224 C 1256.62 1.92901 2.78644 0
M  V30 13225 C 1255.79 3.23222 2.94697 0
M  V30 13226 C 1254.85 3.25329 4.13579 0
M  V30 13227 O 1253.88 3.989 4.06039 0
M  V30 13228 N 1255.08 2.50158 5.23833 0
M  V30 13229 H 1257.84 2.75659 1.1761 0
M  V30 13230 H 1255.41 1.54021 0.498925 0
M  V30 13231 H 1257.4 1.91721 3.56406 0
M  V30 13232 H 1255.97 1.05582 2.9423 0
M  V30 13233 H 1255.19 3.37241 2.04113 0
M  V30 13234 H 1256.48 4.09238 3.02328 0
M  V30 13235 H 1255.87 1.90002 5.32838 0
M  V30 13236 H 1254.43 2.5474 5.99959 0
M  V30 13237 N 1257.86 -0.571685 1.46866 0
M  V30 13238 C 1259.11 -1.32574 1.5201 0
M  V30 13239 C 1259.43 -1.94762 0.180838 0
M  V30 13240 O 1260.63 -2.71276 0.110158 0
M  V30 13241 C 1259.09 -2.40331 2.67897 0
M  V30 13242 C 1258.7 -1.84398 4.08291 0
M  V30 13243 C 1260.44 -3.17009 2.82321 0
M  V30 13244 C 1258.35 -2.89849 5.15501 0
M  V30 13245 H 1257.28 -0.498428 0.565761 0
M  V30 13246 H 1259.93 -0.608853 1.73105 0
M  V30 13247 H 1258.31 -3.14869 2.40153 0
M  V30 13248 H 1259.48 -1.16329 4.45875 0
M  V30 13249 H 1257.8 -1.20351 3.98628 0
M  V30 13250 H 1260.4 -3.95729 3.59587 0
M  V30 13251 H 1260.74 -3.70292 1.90236 0
M  V30 13252 H 1261.27 -2.4958 3.09765 0
M  V30 13253 H 1258.01 -2.4144 6.09415 0
M  V30 13254 H 1257.53 -3.56372 4.82451 0
M  V30 13255 H 1259.21 -3.53603 5.41825 0
M  V30 13256 N 1259.34 -1.34755 -0.817236 0
M  V30 13257 C 1260.62 -1.18007 -1.55993 0
M  V30 13258 C 1261 0.245079 -2.09673 0
M  V30 13259 O 1260.35 1.24718 -1.91462 0
M  V30 13260 C 1260.56 -2.23934 -2.67684 0
M  V30 13261 C 1261.9 -2.59201 -3.36303 0
M  V30 13262 O 1262.93 -2.22767 -2.77945 0
M  V30 13263 O 1261.79 -3.21809 -4.41702 0
M  V30 13264 H 1258.88 -0.4578 -0.688729 0
M  V30 13265 H 1261.43 -1.46405 -0.858117 0
M  V30 13266 H 1260.2 -3.19568 -2.25813 0
M  V30 13267 H 1259.82 -1.96745 -3.4551 0
M  V30 13268 N 1260.82 1.03812 -1.18578 0
M  V30 13269 C 1261.77 2.13994 -0.911563 0
M  V30 13270 C 1262.76 1.68907 0.129131 0
M  V30 13271 O 1263.97 1.7999 -0.0192557 0
M  V30 13272 H 1260.34 0.698996 -0.277324 0
M  V30 13273 H 1262.31 2.34318 -1.84763 0
M  V30 13274 C 1261.06 3.44689 -0.456591 0
M  V30 13275 H 1260.39 3.79793 -1.2489 0
M  V30 13276 H 1261.83 4.22911 -0.303738 0
M  V30 13277 C 1260.28 3.26568 0.827961 0
M  V30 13278 O 1260.81 3.54376 1.89158 0
M  V30 13279 N 1259.02 2.79893 0.781567 0
M  V30 13280 H 1258.57 2.57462 -0.0842145 0
M  V30 13281 H 1258.53 2.68148 1.64146 0
M  V30 13282 N 1262.3 0.988223 1.22768 0
M  V30 13283 C 1263.54 0.661461 1.91392 0
M  V30 13284 C 1263.87 -0.805942 1.77016 0
M  V30 13285 O 1263.13 -1.5978 1.12999 0
M  V30 13286 C 1263.43 1.00744 3.42907 0
M  V30 13287 C 1263.09 2.46634 3.77469 0
M  V30 13288 C 1261.75 2.86503 3.86613 0
M  V30 13289 C 1264.11 3.41217 3.9398 0
M  V30 13290 C 1261.43 4.19954 4.09702 0
M  V30 13291 C 1263.79 4.74321 4.18572 0
M  V30 13292 C 1262.45 5.13938 4.25939 0
M  V30 13293 H 1261.72 0.242046 0.700353 0
M  V30 13294 H 1264.37 1.24354 1.45631 0
M  V30 13295 H 1262.67 0.34338 3.90292 0
M  V30 13296 H 1264.37 0.732714 3.94249 0
M  V30 13297 H 1260.96 2.14729 3.70931 0
M  V30 13298 H 1265.14 3.11589 3.86298 0
M  V30 13299 H 1260.4 4.50243 4.13631 0
M  V30 13300 H 1264.57 5.47561 4.30291 0
M  V30 13301 H 1262.2 6.17364 4.43583 0
M  V30 13302 N 1263.78 -1.38018 0.760839 0
M  V30 13303 C 1265 -2.04757 0.330038 0
M  V30 13304 C 1265.43 -1.57009 -1.03585 0
M  V30 13305 O 1264.78 -0.725349 -1.66158 0
M  V30 13306 C 1264.83 -3.58696 0.370082 0
M  V30 13307 O 1263.94 -4.07507 -0.633361 0
M  V30 13308 H 1263.28 -0.648023 0.144782 0
M  V30 13309 H 1265.81 -1.7655 1.03399 0
M  V30 13310 H 1265.82 -4.07387 0.223515 0
M  V30 13311 H 1264.49 -3.92806 1.36661 0
M  V30 13312 H 1263.07 -3.70165 -0.45081 0
M  V30 13313 N 1265.25 -0.510493 -1.49103 0
M  V30 13314 C 1266.18 0.251999 -2.32136 0
M  V30 13315 C 1267.16 0.953613 -1.40855 0
M  V30 13316 O 1268.35 0.943178 -1.69758 0
M  V30 13317 C 1265.48 1.31118 -3.21598 0
M  V30 13318 C 1264.43 0.72888 -4.21748 0
M  V30 13319 C 1263.76 1.88928 -5.0021 0
M  V30 13320 C 1265.06 -0.286425 -5.21514 0
M  V30 13321 H 1266.75 -0.441102 -2.96133 0
M  V30 13322 H 1264.3 -0.213577 -1.42407 0
M  V30 13323 H 1266.25 1.8524 -3.78503 0
M  V30 13324 H 1264.98 2.0336 -2.55563 0
M  V30 13325 H 1263.64 0.209336 -3.66002 0
M  V30 13326 H 1263.28 2.59961 -4.30615 0
M  V30 13327 H 1262.98 1.50568 -5.67981 0
M  V30 13328 H 1264.51 2.43465 -5.59962 0
M  V30 13329 H 1265.92 0.166997 -5.73057 0
M  V30 13330 H 1264.32 -0.586361 -5.97228 0
M  V30 13331 H 1265.39 -1.19904 -4.69842 0
M  V30 13332 N 1266.73 1.55688 -0.24474 0
M  V30 13333 C 1267.98 1.98498 0.379852 0
M  V30 13334 C 1268.3 1.13416 1.58625 0
M  V30 13335 O 1267.57 0.216456 1.947 0
M  V30 13336 H 1266.15 0.73312 0.143334 0
M  V30 13337 H 1268.81 1.91858 -0.343027 0
M  V30 13338 H 1267.91 3.04367 0.690463 0
M  V30 13339 N 1268.21 -0.0283989 1.57574 0
M  V30 13340 C 1269.46 -0.718121 1.88483 0
M  V30 13341 C 1269.77 -1.76485 0.843345 0
M  V30 13342 O 1270.98 -2.50721 1.04169 0
M  V30 13343 C 1269.43 -1.32832 3.3449 0
M  V30 13344 C 1269.04 -0.317905 4.46871 0
M  V30 13345 C 1270.79 -1.99788 3.74546 0
M  V30 13346 C 1268.69 -0.936489 5.83938 0
M  V30 13347 H 1267.62 -0.271969 0.703242 0
M  V30 13348 H 1270.27 0.0274862 1.83479 0
M  V30 13349 H 1268.66 -2.12366 3.34241 0
M  V30 13350 H 1269.83 0.450767 4.5859 0
M  V30 13351 H 1268.14 0.249605 4.15651 0
M  V30 13352 H 1270.74 -2.46923 4.74271 0
M  V30 13353 H 1271.08 -2.81633 3.06575 0
M  V30 13354 H 1271.62 -1.27029 3.76973 0
M  V30 13355 H 1268.36 -0.15744 6.55311 0
M  V30 13356 H 1267.88 -1.67499 5.75938 0
M  V30 13357 H 1269.56 -1.44363 6.30689 0
M  V30 13358 N 1269.69 -1.54705 -0.300681 0
M  V30 13359 C 1270.62 -1.88679 -1.37559 0
M  V30 13360 C 1271.6 -0.74574 -1.52881 0
M  V30 13361 O 1272.78 -1.0015 -1.66384 0
M  V30 13362 C 1269.91 -2.13438 -2.73974 0
M  V30 13363 C 1268.87 -3.29284 -2.73415 0
M  V30 13364 C 1268.19 -3.39462 -4.13122 0
M  V30 13365 C 1269.49 -4.66382 -2.35128 0
M  V30 13366 H 1271.19 -2.78707 -1.09373 0
M  V30 13367 H 1268.73 -1.341 -0.524704 0
M  V30 13368 H 1270.69 -2.35791 -3.49257 0
M  V30 13369 H 1269.41 -1.20181 -3.03684 0
M  V30 13370 H 1268.07 -3.06855 -2.00588 0
M  V30 13371 H 1267.72 -2.43721 -4.4001 0
M  V30 13372 H 1267.42 -4.17334 -4.1365 0
M  V30 13373 H 1268.94 -3.64075 -4.90185 0
M  V30 13374 H 1270.36 -4.88463 -3.00128 0
M  V30 13375 H 1268.75 -5.4697 -2.46867 0
M  V30 13376 H 1269.82 -4.67078 -1.30256 0
M  V30 13377 N 1271.17 0.563888 -1.47167 0
M  V30 13378 C 1272.41 1.31875 -1.53145 0
M  V30 13379 C 1272.74 1.94047 -0.192518 0
M  V30 13380 O 1272.01 1.79577 0.782872 0
M  V30 13381 H 1270.59 0.489694 -0.5641 0
M  V30 13382 H 1273.25 0.658976 -1.83422 0
M  V30 13383 H 1272.34 2.11574 -2.2944 0
M  V30 13384 N 1272.64 1.35187 0.810078 0
M  V30 13385 C 1273.58 1.22171 1.92742 0
M  V30 13386 C 1274.56 0.110393 1.62225 0
M  V30 13387 O 1275.74 0.27786 1.86441 0
M  V30 13388 C 1272.87 0.880367 3.27058 0
M  V30 13389 C 1271.91 2.00325 3.76527 0
M  V30 13390 S 1272.75 3.6185 3.94747 0
M  V30 13391 C 1273.9 3.29784 5.31971 0
M  V30 13392 H 1274.13 2.16749 2.03488 0
M  V30 13393 H 1271.67 1.20362 0.967072 0
M  V30 13394 H 1273.63 0.690224 4.04656 0
M  V30 13395 H 1272.29 -0.0472868 3.14064 0
M  V30 13396 H 1271.48 1.71847 4.73798 0
M  V30 13397 H 1271.08 2.15154 3.05916 0
M  V30 13398 H 1273.37 2.82396 6.1584 0
M  V30 13399 H 1274.32 4.26243 5.6544 0
M  V30 13400 H 1274.72 2.65641 4.98092 0
M  V30 13401 N 1274.12 -1.03182 1.19127 0
M  V30 13402 C 1275.09 -2.09559 0.928307 0
M  V30 13403 C 1276.09 -1.60548 -0.0899992 0
M  V30 13404 O 1277.28 -1.736 0.144422 0
M  V30 13405 C 1274.41 -3.38609 0.394561 0
M  V30 13406 H 1275.6 -2.34321 1.87173 0
M  V30 13407 H 1273.15 -1.19746 1.00452 0
M  V30 13408 H 1273.89 -3.19515 -0.555046 0
M  V30 13409 H 1273.67 -3.75502 1.12873 0
M  V30 13410 H 1275.16 -4.16969 0.229569 0
M  V30 13411 N 1275.6 -0.99472 -1.22242 0
M  V30 13412 C 1276.53 -0.566499 -2.26524 0
M  V30 13413 C 1277.51 0.407541 -1.65146 0
M  V30 13414 O 1278.7 0.297777 -1.91903 0
M  V30 13415 C 1275.83 0.11786 -3.471 0
M  V30 13416 C 1274.78 -0.774908 -4.20927 0
M  V30 13417 C 1274.11 0.0424687 -5.34683 0
M  V30 13418 C 1275.41 -2.07263 -4.79416 0
M  V30 13419 H 1277.1 -1.43818 -2.62596 0
M  V30 13420 H 1274.65 -0.692971 -1.2623 0
M  V30 13421 H 1276.6 0.428842 -4.19212 0
M  V30 13422 H 1275.32 1.0241 -3.10129 0
M  V30 13423 H 1273.98 -1.06956 -3.50651 0
M  V30 13424 H 1273.63 0.949677 -4.93954 0
M  V30 13425 H 1273.33 -0.551867 -5.85003 0
M  V30 13426 H 1274.85 0.347504 -6.0961 0
M  V30 13427 H 1276.27 -1.82548 -5.4346 0
M  V30 13428 H 1274.67 -2.61594 -5.40082 0
M  V30 13429 H 1275.74 -2.75017 -3.99366 0
M  V30 13430 N 1277.08 1.37613 -0.768148 0
M  V30 13431 C 1278.33 1.99779 -0.330841 0
M  V30 13432 C 1278.65 1.60978 1.09162 0
M  V30 13433 O 1277.91 0.845778 1.7648 0
M  V30 13434 C 1278.21 3.54952 -0.417608 0
M  V30 13435 C 1277.87 4.13509 -1.7978 0
M  V30 13436 C 1276.54 4.29216 -2.17549 0
M  V30 13437 C 1278.89 4.45662 -2.7025 0
M  V30 13438 C 1276.22 4.74376 -3.45231 0
M  V30 13439 C 1278.57 4.92245 -3.97338 0
M  V30 13440 C 1277.23 5.06157 -4.35157 0
M  V30 13441 H 1276.5 0.731044 -0.121063 0
M  V30 13442 H 1279.15 1.64437 -0.98147 0
M  V30 13443 H 1277.45 3.90519 0.316567 0
M  V30 13444 H 1279.15 4.00954 -0.0606037 0
M  V30 13445 H 1275.74 4.01709 -1.49425 0
M  V30 13446 H 1279.92 4.33116 -2.42332 0
M  V30 13447 H 1275.18 4.83333 -3.74431 0
M  V30 13448 H 1279.35 5.16091 -4.67572 0
M  V30 13449 H 1276.98 5.4091 -5.34154 0
M  V30 13450 N 1278.56 0.518393 1.4883 0
M  V30 13451 C 1279.49 -0.239685 2.32267 0
M  V30 13452 C 1280.47 -0.94613 1.41359 0
M  V30 13453 O 1281.65 -0.934162 1.70256 0
M  V30 13454 C 1278.78 -1.29411 3.22289 0
M  V30 13455 C 1277.74 -0.706504 4.22129 0
M  V30 13456 C 1277.06 -1.86273 5.01205 0
M  V30 13457 C 1278.36 0.314079 5.21355 0
M  V30 13458 H 1280.06 0.4568 2.95895 0
M  V30 13459 H 1277.6 0.221126 1.42292 0
M  V30 13460 H 1279.56 -1.8323 3.7948 0
M  V30 13461 H 1278.28 -2.02001 2.56638 0
M  V30 13462 H 1276.94 -0.189924 3.66108 0
M  V30 13463 H 1276.59 -2.57674 4.31988 0
M  V30 13464 H 1276.29 -1.47554 5.68772 0
M  V30 13465 H 1277.81 -2.40492 5.61245 0
M  V30 13466 H 1279.22 -0.136604 5.73137 0
M  V30 13467 H 1277.62 0.618026 5.96909 0
M  V30 13468 H 1278.69 1.22394 4.69199 0
M  V30 13469 N 1280.03 -1.55556 0.252993 0
M  V30 13470 C 1280.94 -2.25283 -0.654581 0
M  V30 13471 C 1281.96 -1.27103 -1.18831 0
M  V30 13472 O 1283.14 -1.59993 -1.22329 0
M  V30 13473 C 1280.2 -2.94336 -1.83214 0
M  V30 13474 C 1279.26 -4.0794 -1.33728 0
M  V30 13475 C 1278.5 -4.73691 -2.45871 0
M  V30 13476 O 1278.72 -4.38545 -3.64738 0
M  V30 13477 O 1277.65 -5.62083 -2.15283 0
M  V30 13478 H 1281.48 -3.03565 -0.0904091 0
M  V30 13479 H 1279.06 -1.49385 0.0212535 0
M  V30 13480 H 1280.95 -3.37808 -2.5192 0
M  V30 13481 H 1279.62 -2.18989 -2.38381 0
M  V30 13482 H 1278.53 -3.68971 -0.617323 0
M  V30 13483 H 1279.86 -4.85124 -0.831617 0
M  V30 13484 N 1281.51 0.0200419 -1.57587 0
M  V30 13485 C 1282.42 1.0346 -2.10555 0
M  V30 13486 C 1283.44 1.39035 -1.0462 0
M  V30 13487 O 1284.61 1.48172 -1.36407 0
M  V30 13488 C 1281.68 2.31389 -2.58186 0
M  V30 13489 C 1280.74 2.02311 -3.7864 0
M  V30 13490 C 1279.97 3.24141 -4.23991 0
M  V30 13491 O 1280.2 4.35132 -3.68803 0
M  V30 13492 O 1279.13 3.09312 -5.16342 0
M  V30 13493 H 1282.96 0.614419 -2.9742 0
M  V30 13494 H 1280.54 0.237604 -1.47498 0
M  V30 13495 H 1282.42 3.06582 -2.89112 0
M  V30 13496 H 1281.1 2.72684 -1.74428 0
M  V30 13497 H 1280.01 1.24658 -3.5272 0
M  V30 13498 H 1281.34 1.65866 -4.6341 0
M  V30 13499 N 1282.99 1.54862 0.292472 0
M  V30 13500 C 1283.92 1.81298 1.38586 0
M  V30 13501 C 1284.9 0.664704 1.48393 0
M  V30 13502 O 1286.09 0.905595 1.65322 0
M  V30 13503 C 1283.21 1.9573 2.76419 0
M  V30 13504 C 1282.26 3.18197 2.83994 0
M  V30 13505 S 1283.09 4.76054 2.45219 0
M  V30 13506 C 1284.25 4.93433 3.85064 0
M  V30 13507 H 1284.48 2.73755 1.15955 0
M  V30 13508 H 1282.01 1.46383 0.491053 0
M  V30 13509 H 1283.97 2.0473 3.55803 0
M  V30 13510 H 1282.63 1.04196 2.96314 0
M  V30 13511 H 1281.83 3.25123 3.85112 0
M  V30 13512 H 1281.43 3.07688 2.12613 0
M  V30 13513 H 1283.72 4.7798 4.80148 0
M  V30 13514 H 1284.66 5.95515 3.83103 0
M  V30 13515 H 1285.07 4.2153 3.75463 0
M  V30 13516 N 1284.47 -0.556076 1.47464 0
M  V30 13517 C 1285.4 -1.67275 1.62915 0
M  V30 13518 C 1286.38 -1.63229 0.478562 0
M  V30 13519 O 1287.56 -1.80833 0.708032 0
M  V30 13520 C 1284.69 -3.05911 1.64426 0
M  V30 13521 C 1283.65 -3.24804 2.78722 0
M  V30 13522 C 1282.97 -4.64238 2.65307 0
M  V30 13523 C 1284.27 -3.10071 4.20302 0
M  V30 13524 H 1285.97 -1.54601 2.56396 0
M  V30 13525 H 1283.51 -0.742337 1.23391 0
M  V30 13526 H 1285.47 -3.83878 1.73826 0
M  V30 13527 H 1284.19 -3.19547 0.675053 0
M  V30 13528 H 1282.85 -2.49246 2.68835 0
M  V30 13529 H 1282.5 -4.74675 1.66412 0
M  V30 13530 H 1282.2 -4.77828 3.41986 0
M  V30 13531 H 1283.72 -5.44339 2.76637 0
M  V30 13532 H 1285.14 -3.77855 4.3116 0
M  V30 13533 H 1283.53 -3.3517 4.97776 0
M  V30 13534 H 1284.6 -2.06803 4.38589 0
M  V30 13535 N 1285.95 -1.35615 -0.802897 0
M  V30 13536 C 1287.36 -1.15733 -1.099 0
M  V30 13537 C 1287.56 0.0277094 -2.01481 0
M  V30 13538 O 1286.62 0.697196 -2.42684 0
M  V30 13539 C 1287.93 -2.46201 -1.72643 0
M  V30 13540 C 1289.48 -2.52442 -1.85046 0
M  V30 13541 C 1289.96 -3.82962 -2.51205 0
M  V30 13542 N 1291.45 -3.84234 -2.58686 0
M  V30 13543 C 1292.18 -4.81956 -3.10654 0
M  V30 13544 N 1291.68 -5.90068 -3.63032 0
M  V30 13545 N 1293.47 -4.69389 -3.09241 0
M  V30 13546 H 1285.62 -2.11511 -0.194177 0
M  V30 13547 H 1287.88 -0.936259 -0.148739 0
M  V30 13548 H 1287.59 -3.33114 -1.12817 0
M  V30 13549 H 1287.46 -2.6102 -2.72302 0
M  V30 13550 H 1289.85 -1.65955 -2.44014 0
M  V30 13551 H 1289.93 -2.41534 -0.842316 0
M  V30 13552 H 1289.58 -4.69848 -1.92885 0
M  V30 13553 H 1289.51 -3.9116 -3.52564 0
M  V30 13554 H 1292 -3.0612 -2.21582 0
M  V30 13555 H 1292.31 -6.60623 -4.00996 0
M  V30 13556 H 1290.66 -5.93755 -3.6122 0
M  V30 13557 H 1293.85 -3.84066 -2.67602 0
M  V30 13558 H 1294.02 -5.4571 -3.49435 0
M  V30 13559 N 1287.43 1.02549 -1.19673 0
M  V30 13560 C 1288.65 1.79623 -1.0268 0
M  V30 13561 C 1289.07 1.83969 0.424345 0
M  V30 13562 O 1288.43 1.28621 1.29472 0
M  V30 13563 C 1288.48 3.24514 -1.59289 0
M  V30 13564 O 1288.2 3.20462 -2.98723 0
M  V30 13565 C 1289.7 4.18173 -1.47126 0
M  V30 13566 H 1286.92 0.565167 -0.3617 0
M  V30 13567 H 1289.46 1.29143 -1.58564 0
M  V30 13568 H 1287.62 3.72173 -1.07546 0
M  V30 13569 H 1288.03 4.11341 -3.25421 0
M  V30 13570 H 1289.51 5.17714 -1.9151 0
M  V30 13571 H 1289.98 4.37165 -0.422315 0
M  V30 13572 H 1290.59 3.7639 -1.98017 0
M  V30 13573 N 1288.9 1.00119 1.21713 0
M  V30 13574 C 1290.32 0.713343 1.42771 0
M  V30 13575 C 1290.52 -0.712923 1.88467 0
M  V30 13576 O 1289.58 -1.48277 2.04378 0
M  V30 13577 C 1290.89 1.72596 2.46234 0
M  V30 13578 C 1292.44 1.74235 2.60022 0
M  V30 13579 C 1292.91 2.74382 3.66713 0
M  V30 13580 N 1294.4 2.73027 3.7418 0
M  V30 13581 C 1295.14 3.47178 4.56349 0
M  V30 13582 N 1294.63 4.30958 5.42446 0
M  V30 13583 N 1296.43 3.35846 4.50737 0
M  V30 13584 H 1288.58 1.9222 0.903611 0
M  V30 13585 H 1290.84 0.829466 0.459011 0
M  V30 13586 H 1290.55 2.74699 2.19621 0
M  V30 13587 H 1290.42 1.52553 3.44975 0
M  V30 13588 H 1292.81 0.728261 2.85973 0
M  V30 13589 H 1292.89 1.98349 1.61528 0
M  V30 13590 H 1292.53 3.75945 3.41508 0
M  V30 13591 H 1292.46 2.47534 4.64795 0
M  V30 13592 H 1294.95 2.12242 3.12669 0
M  V30 13593 H 1295.27 4.84344 6.02189 0
M  V30 13594 H 1293.61 4.35042 5.42 0
M  V30 13595 H 1296.8 2.6983 3.82504 0
M  V30 13596 H 1296.98 3.93892 5.14541 0
M  V30 13597 N 1290.38 -1.37203 0.775435 0
M  V30 13598 C 1291.63 -1.99897 0.341936 0
M  V30 13599 C 1291.96 -1.61414 -1.07978 0
M  V30 13600 O 1291.24 -0.862108 -1.7435 0
M  V30 13601 C 1291.52 -3.56755 0.489715 0
M  V30 13602 C 1291.37 -4.05135 1.95411 0
M  V30 13603 C 1292.69 -4.39978 -0.103779 0
M  V30 13604 H 1289.81 -0.726199 0.125717 0
M  V30 13605 H 1292.45 -1.62826 0.979167 0
M  V30 13606 H 1290.6 -3.88464 -0.0527684 0
M  V30 13607 H 1292.27 -3.83975 2.55658 0
M  V30 13608 H 1290.52 -3.57192 2.46164 0
M  V30 13609 H 1291.19 -5.14161 2.00855 0
M  V30 13610 H 1293.66 -4.14547 0.359134 0
M  V30 13611 H 1292.54 -5.48892 0.0297337 0
M  V30 13612 H 1292.8 -4.25658 -1.19448 0
M  V30 13613 N 1291.86 -0.526279 -1.48553 0
M  V30 13614 C 1293.11 0.00914839 -2.02098 0
M  V30 13615 C 1293.43 1.35119 -1.40598 0
M  V30 13616 O 1292.7 1.87422 -0.570065 0
M  V30 13617 H 1291.28 0.00636935 -0.746973 0
M  V30 13618 H 1293.94 -0.689269 -1.82305 0
M  V30 13619 H 1293.04 0.120212 -3.11868 0
M  V30 13620 N 1293.34 1.5542 -0.261239 0
M  V30 13621 C 1294.57 2.03687 0.363225 0
M  V30 13622 C 1294.98 1.14007 1.50492 0
M  V30 13623 O 1294.34 0.157349 1.8182 0
M  V30 13624 C 1294.39 3.51184 0.857435 0
M  V30 13625 O 1294.11 4.37449 -0.238776 0
M  V30 13626 C 1295.61 4.15277 1.55113 0
M  V30 13627 H 1292.83 0.665641 0.0846356 0
M  V30 13628 H 1295.37 2.00761 -0.389288 0
M  V30 13629 H 1293.53 3.54599 1.56008 0
M  V30 13630 H 1293.94 5.24316 0.138821 0
M  V30 13631 H 1295.42 5.20129 1.8485 0
M  V30 13632 H 1295.89 3.62619 2.47799 0
M  V30 13633 H 1296.5 4.15826 0.892695 0
M  V30 13634 N 1294.82 -0.0116844 1.57596 0
M  V30 13635 C 1295.76 -1.00684 2.07681 0
M  V30 13636 C 1296.73 -1.34858 0.969666 0
M  V30 13637 O 1297.92 -1.44896 1.24136 0
M  V30 13638 C 1295.06 -2.29729 2.57524 0
M  V30 13639 C 1294.17 -2.0156 3.82096 0
M  V30 13640 C 1293.31 -3.24601 4.20485 0
M  V30 13641 C 1292.34 -2.92066 5.37925 0
M  V30 13642 N 1291.48 -4.0761 5.71663 0
M  V30 13643 H 1296.32 -0.572787 2.92443 0
M  V30 13644 H 1293.86 -0.271184 1.44579 0
M  V30 13645 H 1295.82 -3.05152 2.84496 0
M  V30 13646 H 1294.45 -2.70824 1.75653 0
M  V30 13647 H 1293.5 -1.16556 3.62103 0
M  V30 13648 H 1294.81 -1.73572 4.67626 0
M  V30 13649 H 1293.96 -4.08379 4.48677 0
M  V30 13650 H 1292.7 -3.55718 3.3364 0
M  V30 13651 H 1291.71 -2.06693 5.09468 0
M  V30 13652 H 1292.93 -2.62209 6.26437 0
M  V30 13653 H 1290.88 -4.38645 4.87777 0
M  V30 13654 H 1290.8 -3.83105 6.51741 0
M  V30 13655 H 1292.06 -4.92211 6.04441 0
M  V30 13656 N 1296.29 -1.55015 -0.284256 0
M  V30 13657 C 1297.24 -1.83508 -1.3531 0
M  V30 13658 C 1298.23 -0.693244 -1.452 0
M  V30 13659 O 1299.42 -0.954312 -1.4907 0
M  V30 13660 C 1296.55 -2.10059 -2.71533 0
M  V30 13661 C 1295.63 -3.30472 -2.65799 0
M  V30 13662 N 1296.03 -4.50644 -2.29682 0
M  V30 13663 C 1294.32 -3.32836 -2.96878 0
M  V30 13664 C 1295.02 -5.32708 -2.33661 0
M  V30 13665 N 1294 -4.70837 -2.71687 0
M  V30 13666 H 1297.8 -2.73973 -1.06377 0
M  V30 13667 H 1295.32 -1.5474 -0.492875 0
M  V30 13668 H 1297.31 -2.28624 -3.48621 0
M  V30 13669 H 1295.97 -1.20872 -3.01364 0
M  V30 13670 H 1296.98 -4.76945 -2.0185 0
M  V30 13671 H 1293.66 -2.53807 -3.31494 0
M  V30 13672 H 1295.05 -6.38766 -2.08394 0
M  V30 13673 N 1297.77 0.548248 -1.47757 0
M  V30 13674 C 1298.73 1.63666 -1.60456 0
M  V30 13675 C 1299.73 1.53499 -0.479028 0
M  V30 13676 O 1300.92 1.57497 -0.744342 0
M  V30 13677 C 1298.06 3.03239 -1.55754 0
M  V30 13678 H 1299.25 1.53752 -2.57488 0
M  V30 13679 H 1296.8 0.768881 -1.36081 0
M  V30 13680 H 1297.54 3.18677 -0.601303 0
M  V30 13681 H 1297.32 3.12027 -2.37448 0
M  V30 13682 H 1298.81 3.82406 -1.67797 0
M  V30 13683 N 1299.25 1.36039 0.795694 0
M  V30 13684 C 1300.5 1.29251 1.54845 0
M  V30 13685 C 1300.81 -0.127926 1.95181 0
M  V30 13686 O 1302.02 -0.318141 2.6963 0
M  V30 13687 C 1300.47 2.26736 2.79497 0
M  V30 13688 C 1300.08 3.74183 2.46355 0
M  V30 13689 C 1301.83 2.28913 3.5749 0
M  V30 13690 C 1299.73 4.63462 3.67365 0
M  V30 13691 H 1298.66 0.48027 0.581255 0
M  V30 13692 H 1301.31 1.61366 0.873693 0
M  V30 13693 H 1299.7 1.87608 3.4874 0
M  V30 13694 H 1300.87 4.22011 1.8505 0
M  V30 13695 H 1299.18 3.7472 1.81586 0
M  V30 13696 H 1301.78 2.92828 4.47388 0
M  V30 13697 H 1302.12 1.2959 3.95616 0
M  V30 13698 H 1302.66 2.66627 2.9522 0
M  V30 13699 H 1299.4 5.63824 3.34339 0
M  V30 13700 H 1298.92 4.20354 4.27858 0
M  V30 13701 H 1300.6 4.79424 4.34467 0
M  V30 13702 N 1300.73 -1.01913 1.20215 0
M  V30 13703 C 1301.66 -2.12282 0.97256 0
M  V30 13704 C 1302.64 -1.6982 -0.0975709 0
M  V30 13705 O 1303.82 -1.94109 0.0594307 0
M  V30 13706 C 1300.95 -3.43369 0.521085 0
M  V30 13707 C 1299.91 -3.99559 1.53417 0
M  V30 13708 C 1299.23 -5.26383 0.93942 0
M  V30 13709 C 1300.53 -4.33241 2.91718 0
M  V30 13710 H 1302.23 -2.31746 1.89563 0
M  V30 13711 H 1299.77 -1.1137 0.912841 0
M  V30 13712 H 1301.73 -4.19963 0.347713 0
M  V30 13713 H 1300.45 -3.23655 -0.437605 0
M  V30 13714 H 1299.11 -3.25069 1.69486 0
M  V30 13715 H 1298.76 -5.02993 -0.0271236 0
M  V30 13716 H 1298.46 -5.64942 1.616 0
M  V30 13717 H 1299.98 -6.05635 0.777059 0
M  V30 13718 H 1301.4 -5.00734 2.79175 0
M  V30 13719 H 1299.79 -4.82907 3.56259 0
M  V30 13720 H 1300.86 -3.42118 3.43633 0
M  V30 13721 N 1302.21 -1.00763 -1.2118 0
M  V30 13722 C 1303.14 -0.590493 -2.2591 0
M  V30 13723 C 1304.12 0.390002 -1.65569 0
M  V30 13724 O 1305.3 0.277406 -1.92208 0
M  V30 13725 C 1302.43 0.0810388 -3.47205 0
M  V30 13726 C 1301.39 -0.81951 -4.20081 0
M  V30 13727 C 1300.71 -0.014244 -5.34698 0
M  V30 13728 C 1302.01 -2.12336 -4.7719 0
M  V30 13729 H 1303.71 -1.46595 -2.61056 0
M  V30 13730 H 1301.25 -0.706321 -1.25487 0
M  V30 13731 H 1303.21 0.384355 -4.19644 0
M  V30 13732 H 1301.93 0.991145 -3.11197 0
M  V30 13733 H 1300.59 -1.10669 -3.49497 0
M  V30 13734 H 1300.24 0.897233 -4.94933 0
M  V30 13735 H 1299.94 -0.613883 -5.84384 0
M  V30 13736 H 1301.46 0.282827 -6.09945 0
M  V30 13737 H 1302.87 -1.88301 -5.41494 0
M  V30 13738 H 1301.27 -2.67308 -5.37277 0
M  V30 13739 H 1302.34 -2.79238 -3.96427 0
M  V30 13740 N 1303.68 1.3679 -0.7827 0
M  V30 13741 C 1304.93 1.99712 -0.352533 0
M  V30 13742 C 1305.26 1.61984 1.0712 0
M  V30 13743 O 1304.54 0.871342 1.7389 0
M  V30 13744 C 1304.82 3.5649 -0.508628 0
M  V30 13745 C 1304.67 4.04093 -1.97557 0
M  V30 13746 C 1305.99 4.40026 0.0804447 0
M  V30 13747 H 1303.11 0.725522 -0.129566 0
M  V30 13748 H 1305.75 1.62305 -0.987788 0
M  V30 13749 H 1303.9 3.88487 0.0321664 0
M  V30 13750 H 1305.58 3.82613 -2.57691 0
M  V30 13751 H 1303.82 3.55881 -2.48055 0
M  V30 13752 H 1304.49 5.13088 -2.03579 0
M  V30 13753 H 1306.97 4.14351 -0.381113 0
M  V30 13754 H 1305.84 5.48868 -0.0588424 0
M  V30 13755 H 1306.1 4.26285 1.17189 0
M  V30 13756 N 1305.16 0.53415 1.48272 0
M  V30 13757 C 1306.13 -0.215641 2.28183 0
M  V30 13758 C 1307.13 -0.863966 1.35618 0
M  V30 13759 O 1308.32 -0.723375 1.58471 0
M  V30 13760 C 1305.45 -1.31251 3.1462 0
M  V30 13761 H 1306.64 0.486014 2.95936 0
M  V30 13762 H 1304.19 0.290237 1.53582 0
M  V30 13763 H 1304.93 -2.04729 2.51508 0
M  V30 13764 H 1304.71 -0.852706 3.82716 0
M  V30 13765 H 1306.2 -1.83978 3.74889 0
M  V30 13766 N 1306.64 -1.55279 0.269478 0
M  V30 13767 C 1307.89 -1.99767 -0.34943 0
M  V30 13768 C 1308.22 -1.15762 -1.55926 0
M  V30 13769 O 1307.49 -0.22633 -1.93179 0
M  V30 13770 C 1307.78 -3.52474 -0.73716 0
M  V30 13771 C 1307.63 -4.47236 0.479621 0
M  V30 13772 C 1308.95 -4.10924 -1.57573 0
M  V30 13773 H 1306.07 -0.72623 -0.125535 0
M  V30 13774 H 1308.71 -1.86257 0.375298 0
M  V30 13775 H 1306.86 -3.64118 -1.35464 0
M  V30 13776 H 1308.53 -4.47543 1.11816 0
M  V30 13777 H 1306.78 -4.19127 1.11871 0
M  V30 13778 H 1307.45 -5.51754 0.164653 0
M  V30 13779 H 1309.92 -4.02522 -1.05429 0
M  V30 13780 H 1308.8 -5.17995 -1.81584 0
M  V30 13781 H 1309.06 -3.60798 -2.55495 0
M  V30 13782 N 1308.12 0.00332656 -1.576 0
M  V30 13783 C 1309.34 0.703587 -1.95101 0
M  V30 13784 C 1309.77 1.66697 -0.871418 0
M  V30 13785 O 1309.13 1.80494 0.170739 0
M  V30 13786 C 1309.17 1.41457 -3.31696 0
M  V30 13787 O 1308.28 2.52885 -3.25765 0
M  V30 13788 H 1307.62 0.187396 -0.637008 0
M  V30 13789 H 1310.15 -0.0488727 -2.04542 0
M  V30 13790 H 1310.16 1.77874 -3.67185 0
M  V30 13791 H 1308.83 0.708182 -4.09826 0
M  V30 13792 H 1307.41 2.18821 -3.01947 0
M  V30 13793 N 1309.6 1.55164 0.276031 0
M  V30 13794 C 1310.84 1.75627 1.00803 0
M  V30 13795 C 1311.17 0.555696 1.86393 0
M  V30 13796 O 1310.43 -0.461872 1.90172 0
M  V30 13797 C 1310.73 3.0127 1.92279 0
M  V30 13798 C 1310.39 4.33951 1.22464 0
M  V30 13799 C 1309.05 4.70013 1.03158 0
M  V30 13800 C 1311.41 5.16097 0.72758 0
M  V30 13801 C 1308.73 5.85779 0.328699 0
M  V30 13802 C 1311.09 6.32588 0.0383001 0
M  V30 13803 C 1309.75 6.67292 -0.166494 0
M  V30 13804 H 1309.02 0.642665 0.368866 0
M  V30 13805 H 1311.67 1.89433 0.280595 0
M  V30 13806 H 1309.97 2.82351 2.71634 0
M  V30 13807 H 1311.67 3.14299 2.49032 0
M  V30 13808 H 1308.26 4.05605 1.38501 0
M  V30 13809 H 1312.44 4.88715 0.864365 0
M  V30 13810 H 1307.7 6.11192 0.159279 0
M  V30 13811 H 1311.87 6.95496 -0.354631 0
M  V30 13812 H 1309.5 7.56848 -0.713124 0
M  V30 13813 N 1311.07 -0.540404 1.48045 0
M  V30 13814 C 1312.32 -1.2987 1.55762 0
M  V30 13815 C 1312.65 -1.92877 0.226307 0
M  V30 13816 O 1311.93 -1.7875 -0.766727 0
M  V30 13817 C 1312.21 -2.39602 2.68817 0
M  V30 13818 C 1312.06 -1.81354 4.1162 0
M  V30 13819 C 1313.38 -3.41434 2.77688 0
M  V30 13820 H 1310.5 -0.47083 0.566999 0
M  V30 13821 H 1313.14 -0.603081 1.80175 0
M  V30 13822 H 1311.29 -2.98936 2.48132 0
M  V30 13823 H 1312.97 -1.26151 4.43716 0
M  V30 13824 H 1311.21 -1.1194 4.19108 0
M  V30 13825 H 1311.88 -2.60758 4.86528 0
M  V30 13826 H 1314.36 -2.92042 2.96396 0
M  V30 13827 H 1313.23 -4.15621 3.5854 0
M  V30 13828 H 1313.49 -4.01336 1.85422 0
M  V30 13829 N 1312.55 -1.36459 -0.788468 0
M  V30 13830 C 1313.78 -1.33898 -1.57731 0
M  V30 13831 C 1314.2 0.0795471 -1.88632 0
M  V30 13832 O 1313.55 1.03671 -1.50195 0
M  V30 13833 C 1313.6 -2.16134 -2.89773 0
M  V30 13834 O 1313.32 -3.52457 -2.60203 0
M  V30 13835 C 1314.83 -2.21364 -3.84074 0
M  V30 13836 H 1312.05 -0.459269 -0.489197 0
M  V30 13837 H 1314.59 -1.79569 -0.978526 0
M  V30 13838 H 1312.74 -1.74015 -3.46118 0
M  V30 13839 H 1313.16 -3.95378 -3.4464 0
M  V30 13840 H 1314.63 -2.83261 -4.7378 0
M  V30 13841 H 1315.11 -1.21736 -4.21992 0
M  V30 13842 H 1315.72 -2.63723 -3.33662 0
M  V30 13843 N 1314.03 1.01274 -1.20754 0
M  V30 13844 C 1314.96 2.11763 -0.983805 0
M  V30 13845 C 1315.94 1.69869 0.0885635 0
M  V30 13846 O 1317.13 1.94075 -0.0697239 0
M  V30 13847 C 1314.26 3.43087 -0.539287 0
M  V30 13848 C 1313.21 3.9874 -1.55534 0
M  V30 13849 C 1312.54 5.25877 -0.967322 0
M  V30 13850 C 1313.84 4.31688 -2.94012 0
M  V30 13851 H 1315.53 2.30737 -1.90789 0
M  V30 13852 H 1313.08 1.10884 -0.918734 0
M  V30 13853 H 1315.03 4.19773 -0.369979 0
M  V30 13854 H 1313.75 3.23883 0.420435 0
M  V30 13855 H 1312.41 3.24166 -1.71207 0
M  V30 13856 H 1312.06 5.03 0.000448307 0
M  V30 13857 H 1311.76 5.64077 -1.64594 0
M  V30 13858 H 1313.28 6.05215 -0.809167 0
M  V30 13859 H 1314.7 4.99246 -2.81827 0
M  V30 13860 H 1313.1 4.81011 -3.58815 0
M  V30 13861 H 1314.17 3.4029 -3.45442 0
M  V30 13862 N 1315.51 1.01404 1.20644 0
M  V30 13863 C 1316.76 0.697244 1.89265 0
M  V30 13864 C 1317.07 -0.776149 1.79542 0
M  V30 13865 O 1318.28 -1.2054 2.43274 0
M  V30 13866 C 1316.73 1.19672 3.39421 0
M  V30 13867 C 1316.34 2.69683 3.57736 0
M  V30 13868 C 1318.09 0.955225 4.13613 0
M  V30 13869 C 1315.99 3.13124 5.01704 0
M  V30 13870 H 1314.92 0.257105 0.708811 0
M  V30 13871 H 1317.57 1.22639 1.36499 0
M  V30 13872 H 1315.96 0.595562 3.91496 0
M  V30 13873 H 1317.13 3.35326 3.16059 0
M  V30 13874 H 1315.44 2.91946 2.96911 0
M  V30 13875 H 1318.04 1.25524 5.19757 0
M  V30 13876 H 1318.38 -0.108362 4.16159 0
M  V30 13877 H 1318.92 1.51962 3.67631 0
M  V30 13878 H 1315.66 4.18748 5.04311 0
M  V30 13879 H 1315.18 2.522 5.44201 0
M  V30 13880 H 1316.86 3.05617 5.70269 0
M  V30 13881 N 1316.99 -1.36373 0.789944 0
M  V30 13882 C 1318.22 -2.03482 0.37453 0
M  V30 13883 C 1318.63 -1.59562 -1.00923 0
M  V30 13884 O 1317.99 -0.785289 -1.64741 0
M  V30 13885 C 1318.04 -3.58942 0.429255 0
M  V30 13886 O 1317.76 -4.01261 1.75845 0
M  V30 13887 C 1319.26 -4.433 0.00453729 0
M  V30 13888 H 1316.48 -0.653019 0.154295 0
M  V30 13889 H 1319.02 -1.74339 1.06894 0
M  V30 13890 H 1317.18 -3.86793 -0.21674 0
M  V30 13891 H 1317.59 -4.95854 1.70964 0
M  V30 13892 H 1319.07 -5.5192 0.0939653 0
M  V30 13893 H 1319.54 -4.26509 -1.04816 0
M  V30 13894 H 1320.15 -4.20712 0.623041 0
M  V30 13895 N 1318.47 -0.542005 -1.47987 0
M  V30 13896 C 1319.71 -0.0122873 -2.02096 0
M  V30 13897 C 1320.03 1.3362 -1.42024 0
M  V30 13898 O 1319.3 1.86807 -0.589911 0
M  V30 13899 H 1317.88 -0.00155365 -0.746998 0
M  V30 13900 H 1320.55 -0.708566 -1.81564 0
M  V30 13901 H 1319.64 0.0871275 -3.11978 0
M  V30 13902 N 1319.94 1.55134 -0.277709 0
M  V30 13903 C 1320.89 2.24057 0.624594 0
M  V30 13904 C 1321.89 1.23848 1.15577 0
M  V30 13905 O 1323.09 1.41771 1.1091 0
M  V30 13906 H 1319.47 0.719106 0.219977 0
M  V30 13907 H 1321.44 2.98393 0.0204815 0
M  V30 13908 C 1320.19 2.97712 1.79618 0
M  V30 13909 H 1319.51 3.74611 1.39665 0
M  V30 13910 H 1320.95 3.49255 2.4041 0
M  V30 13911 C 1319.41 2.03332 2.68622 0
M  V30 13912 O 1319.94 1.58622 3.69056 0
M  V30 13913 N 1318.14 1.69778 2.35847 0
M  V30 13914 H 1317.69 2.06333 1.54222 0
M  V30 13915 H 1317.65 1.06901 2.95668 0
M  V30 13916 N 1321.42 0.00503138 1.57599 0
M  V30 13917 C 1322.35 -1.01883 2.04194 0
M  V30 13918 C 1323.33 -1.33183 0.9328 0
M  V30 13919 O 1324.52 -1.45261 1.20131 0
M  V30 13920 C 1321.64 -2.34515 2.44377 0
M  V30 13921 C 1320.69 -2.18843 3.66074 0
M  V30 13922 S 1321.52 -1.50975 5.13777 0
M  V30 13923 C 1322.68 -2.85027 5.57235 0
M  V30 13924 H 1322.91 -0.622099 2.90718 0
M  V30 13925 H 1320.44 -0.205983 1.5302 0
M  V30 13926 H 1322.4 -3.10775 2.68196 0
M  V30 13927 H 1321.06 -2.71327 1.58243 0
M  V30 13928 H 1320.26 -3.16836 3.91958 0
M  V30 13929 H 1319.86 -1.50727 3.42283 0
M  V30 13930 H 1322.15 -3.81318 5.60002 0
M  V30 13931 H 1323.09 -2.63837 6.57112 0
M  V30 13932 H 1323.5 -2.89168 4.84812 0
M  V30 13933 N 1322.9 -1.55308 -0.267798 0
M  V30 13934 C 1324.12 -1.80524 -1.02107 0
M  V30 13935 C 1324.55 -0.579268 -1.78958 0
M  V30 13936 O 1323.91 0.471262 -1.75068 0
M  V30 13937 C 1323.96 -3.03248 -1.95123 0
M  V30 13938 O 1323.06 -2.78699 -3.03975 0
M  V30 13939 H 1322.4 -0.596518 -0.291655 0
M  V30 13940 H 1324.93 -2.0246 -0.295128 0
M  V30 13941 H 1324.94 -3.32121 -2.3698 0
M  V30 13942 H 1323.62 -3.92126 -1.386 0
M  V30 13943 H 1322.19 -2.60936 -2.66396 0
M  V30 13944 N 1324.38 0.532545 -1.4833 0
M  V30 13945 C 1325.62 1.28851 -1.56217 0
M  V30 13946 C 1325.95 1.93076 -0.234967 0
M  V30 13947 O 1325.21 1.79722 0.774508 0
M  V30 13948 C 1325.51 2.40117 -2.64724 0
M  V30 13949 C 1325.17 1.93562 -4.0724 0
M  V30 13950 C 1323.83 1.80583 -4.46031 0
M  V30 13951 C 1326.19 1.58349 -4.96563 0
M  V30 13952 C 1323.51 1.30722 -5.71952 0
M  V30 13953 C 1325.87 1.09951 -6.22972 0
M  V30 13954 C 1324.53 0.955866 -6.60621 0
M  V30 13955 H 1323.8 0.4715 -0.571637 0
M  V30 13956 H 1326.45 0.594564 -1.82036 0
M  V30 13957 H 1324.75 3.15171 -2.32754 0
M  V30 13958 H 1326.45 2.98252 -2.68042 0
M  V30 13959 H 1323.04 2.04614 -3.76605 0
M  V30 13960 H 1327.22 1.67237 -4.67274 0
M  V30 13961 H 1322.48 1.18286 -5.99849 0
M  V30 13962 H 1326.65 0.817736 -6.91582 0
M  V30 13963 H 1324.28 0.567302 -7.5808 0
M  V30 13964 N 1325.86 1.36875 0.78122 0
M  V30 13965 C 1327.27 1.17467 1.08044 0
M  V30 13966 C 1327.47 0.00434799 2.015 0
M  V30 13967 O 1326.53 -0.658499 2.43762 0
M  V30 13968 C 1327.84 2.48917 1.68704 0
M  V30 13969 C 1329.39 2.55354 1.81007 0
M  V30 13970 C 1329.86 3.8691 2.45081 0
M  V30 13971 N 1331.35 3.88301 2.52541 0
M  V30 13972 C 1332.09 4.86837 3.02947 0
M  V30 13973 N 1331.59 5.95768 3.53598 0
M  V30 13974 N 1333.38 4.74249 3.01735 0
M  V30 13975 H 1325.53 2.11793 0.160503 0
M  V30 13976 H 1327.79 0.938507 0.133825 0
M  V30 13977 H 1327.5 3.34867 1.07503 0
M  V30 13978 H 1327.37 2.65319 2.68115 0
M  V30 13979 H 1329.76 1.69816 2.41343 0
M  V30 13980 H 1329.84 2.42843 0.803783 0
M  V30 13981 H 1329.48 4.72858 1.85386 0
M  V30 13982 H 1329.41 3.9672 3.46296 0
M  V30 13983 H 1331.91 3.09607 2.16684 0
M  V30 13984 H 1332.22 6.66918 3.90435 0
M  V30 13985 H 1330.56 5.99426 3.51728 0
M  V30 13986 H 1333.75 3.88275 2.61458 0
M  V30 13987 H 1333.93 5.512 3.40709 0
M  V30 13988 N 1327.33 -1.00632 1.21289 0
M  V30 13989 C 1328.61 -1.71635 0.938124 0
M  V30 13990 C 1328.99 -2.03798 -0.550416 0
M  V30 13991 O 1328.34 -1.71065 -1.5149 0
M  V30 13992 C 1328.55 -2.97674 1.82184 0
M  V30 13993 C 1329.9 -3.7073 2.06989 0
M  V30 13994 O 1330.92 -3.07653 1.79522 0
M  V30 13995 O 1329.78 -4.84183 2.53435 0
M  V30 13996 H 1326.87 -0.748506 0.351664 0
M  V30 13997 H 1329.42 -1.06387 1.32212 0
M  V30 13998 H 1328.19 -2.70306 2.82931 0
M  V30 13999 H 1327.81 -3.70663 1.43858 0
M  V30 14000 N 1328.81 -1.02043 -1.20104 0
M  V30 14001 C 1329.74 -0.614421 -2.25271 0
M  V30 14002 C 1330.72 0.37242 -1.65973 0
M  V30 14003 O 1331.91 0.257005 -1.92492 0
M  V30 14004 C 1329.04 0.0442085 -3.47272 0
M  V30 14005 C 1327.99 -0.864019 -4.19188 0
M  V30 14006 C 1327.32 -0.0709551 -5.34653 0
M  V30 14007 C 1328.62 -2.17385 -4.74912 0
M  V30 14008 H 1330.31 -1.49355 -2.59487 0
M  V30 14009 H 1327.86 -0.719591 -1.24731 0
M  V30 14010 H 1329.81 0.339825 -4.20028 0
M  V30 14011 H 1328.53 0.958082 -3.12231 0
M  V30 14012 H 1327.19 -1.1437 -3.48303 0
M  V30 14013 H 1326.84 0.844688 -4.95857 0
M  V30 14014 H 1326.54 -0.67583 -5.83701 0
M  V30 14015 H 1328.07 0.218118 -6.1021 0
M  V30 14016 H 1329.48 -1.94034 -5.39466 0
M  V30 14017 H 1327.88 -2.72991 -5.34412 0
M  V30 14018 H 1328.95 -2.83427 -3.93443 0
M  V30 14019 N 1330.29 1.35952 -0.797165 0
M  V30 14020 C 1331.54 1.98639 -0.372405 0
M  V30 14021 C 1331.86 1.63571 1.06158 0
M  V30 14022 O 1331.13 0.913516 1.73297 0
M  V30 14023 H 1329.71 0.734753 -0.13471 0
M  V30 14024 H 1332.37 1.66022 -1.02092 0
M  V30 14025 H 1331.47 3.08533 -0.47049 0
M  V30 14026 N 1331.77 0.549846 1.47697 0
M  V30 14027 C 1333.18 0.209085 1.58225 0
M  V30 14028 C 1333.38 -1.28823 1.54941 0
M  V30 14029 O 1332.44 -2.0679 1.44893 0
M  V30 14030 C 1333.75 0.829219 2.89041 0
M  V30 14031 C 1335.3 0.79977 3.0261 0
M  V30 14032 C 1335.78 1.39884 4.36115 0
M  V30 14033 N 1337.27 1.36169 4.42733 0
M  V30 14034 C 1338 1.79492 5.44583 0
M  V30 14035 N 1337.5 2.30637 6.53283 0
M  V30 14036 N 1339.29 1.70608 5.35583 0
M  V30 14037 H 1331.44 1.52275 1.48074 0
M  V30 14038 H 1333.71 0.634579 0.704283 0
M  V30 14039 H 1333.41 1.88122 2.97158 0
M  V30 14040 H 1333.29 0.317916 3.75858 0
M  V30 14041 H 1335.67 -0.243525 2.94093 0
M  V30 14042 H 1335.75 1.34875 2.17353 0
M  V30 14043 H 1335.4 2.44116 4.45387 0
M  V30 14044 H 1335.33 0.825362 5.20092 0
M  V30 14045 H 1337.82 0.987505 3.64769 0
M  V30 14046 H 1338.13 2.61637 7.27163 0
M  V30 14047 H 1336.48 2.34643 6.54192 0
M  V30 14048 H 1339.67 1.30434 4.4956 0
M  V30 14049 H 1339.84 2.0469 6.14822 0
M  V30 14050 N 1333.25 -1.54984 0.285932 0
M  V30 14051 C 1334.49 -2.00126 -0.328223 0
M  V30 14052 C 1334.83 -1.17409 -1.54689 0
M  V30 14053 O 1334.1 -0.246806 -1.92928 0
M  V30 14054 C 1334.38 -3.53236 -0.699733 0
M  V30 14055 C 1334.24 -4.46702 0.527029 0
M  V30 14056 C 1335.56 -4.12572 -1.53206 0
M  V30 14057 H 1332.67 -0.727521 -0.117825 0
M  V30 14058 H 1335.32 -1.85848 0.395032 0
M  V30 14059 H 1333.47 -3.65534 -1.31594 0
M  V30 14060 H 1335.14 -4.46332 1.16557 0
M  V30 14061 H 1333.38 -4.17917 1.1631 0
M  V30 14062 H 1334.05 -5.51549 0.223165 0
M  V30 14063 H 1336.53 -4.03618 -1.01154 0
M  V30 14064 H 1335.4 -5.19891 -1.7608 0
M  V30 14065 H 1335.67 -3.63487 -2.51654 0
M  V30 14066 N 1334.72 -0.0133892 -1.57594 0
M  V30 14067 C 1335.66 1.00798 -2.04731 0
M  V30 14068 C 1336.64 1.32686 -0.93985 0
M  V30 14069 O 1337.82 1.44622 -1.209 0
M  V30 14070 C 1334.95 2.33216 -2.45618 0
M  V30 14071 C 1333.99 2.16898 -3.67229 0
M  V30 14072 S 1334.83 1.48248 -5.14571 0
M  V30 14073 C 1335.98 2.82068 -5.58738 0
M  V30 14074 H 1336.21 0.606673 -2.91044 0
M  V30 14075 H 1333.75 0.197865 -1.53127 0
M  V30 14076 H 1335.71 3.09348 -2.69841 0
M  V30 14077 H 1334.37 2.70483 -1.59679 0
M  V30 14078 H 1333.56 3.14753 -3.93632 0
M  V30 14079 H 1333.16 1.4891 -3.43077 0
M  V30 14080 H 1335.45 3.78343 -5.62017 0
M  V30 14081 H 1336.4 2.60348 -6.58502 0
M  V30 14082 H 1336.8 2.86592 -4.86338 0
M  V30 14083 N 1336.2 1.55448 0.259558 0
M  V30 14084 C 1337.45 1.76948 0.990816 0
M  V30 14085 C 1337.78 0.576401 1.85449 0
M  V30 14086 O 1337.06 -0.425693 1.89784 0
M  V30 14087 C 1337.34 3.08221 1.86204 0
M  V30 14088 C 1337.19 4.37909 1.0274 0
M  V30 14089 C 1338.51 3.35627 2.84679 0
M  V30 14090 H 1335.63 0.64377 0.358788 0
M  V30 14091 H 1338.27 1.88182 0.262211 0
M  V30 14092 H 1336.42 2.98775 2.48326 0
M  V30 14093 H 1338.09 4.5933 0.425855 0
M  V30 14094 H 1336.34 4.32533 0.331308 0
M  V30 14095 H 1337.01 5.26116 1.6705 0
M  V30 14096 H 1339.48 3.44954 2.32693 0
M  V30 14097 H 1338.36 4.28719 3.42769 0
M  V30 14098 H 1338.62 2.55921 3.60496 0
M  V30 14099 N 1337.68 -0.524672 1.4861 0
M  V30 14100 C 1338.61 -1.64555 1.58104 0
M  V30 14101 C 1339.59 -1.56778 0.431205 0
M  V30 14102 O 1340.78 -1.77175 0.643537 0
M  V30 14103 C 1337.9 -3.02979 1.51398 0
M  V30 14104 C 1336.95 -3.29098 2.71287 0
M  V30 14105 S 1337.78 -3.14791 4.33206 0
M  V30 14106 C 1338.94 -4.55652 4.29107 0
M  V30 14107 H 1339.17 -1.56254 2.52927 0
M  V30 14108 H 1336.7 -0.708041 1.37208 0
M  V30 14109 H 1338.66 -3.82809 1.48215 0
M  V30 14110 H 1337.32 -3.08717 0.579026 0
M  V30 14111 H 1336.52 -4.30092 2.62749 0
M  V30 14112 H 1336.12 -2.56949 2.7176 0
M  V30 14113 H 1338.41 -5.47277 3.99367 0
M  V30 14114 H 1339.35 -4.69244 5.30298 0
M  V30 14115 H 1339.76 -4.35223 3.59501 0
M  V30 14116 N 1339.16 -1.37287 -0.77395 0
M  V30 14117 C 1340.4 -1.3257 -1.5347 0
M  V30 14118 C 1340.74 0.090346 -1.9399 0
M  V30 14119 O 1340.01 1.04719 -1.63903 0
M  V30 14120 C 1340.3 -2.26277 -2.80126 0
M  V30 14121 C 1340.15 -3.76651 -2.45874 0
M  V30 14122 C 1341.47 -2.18471 -3.82045 0
M  V30 14123 H 1338.59 -0.48289 -0.556764 0
M  V30 14124 H 1341.23 -1.6797 -0.888039 0
M  V30 14125 H 1339.38 -1.96219 -3.35306 0
M  V30 14126 H 1341.05 -4.17296 -1.96626 0
M  V30 14127 H 1339.29 -3.95327 -1.78602 0
M  V30 14128 H 1339.96 -4.3765 -3.36403 0
M  V30 14129 H 1342.44 -2.44962 -3.36352 0
M  V30 14130 H 1341.32 -2.86183 -4.68392 0
M  V30 14131 H 1341.58 -1.17692 -4.26147 0
M  V30 14132 N 1340.64 0.999871 -1.21821 0
M  V30 14133 C 1341.88 1.73497 -1.0365 0
M  V30 14134 C 1342.21 1.90194 0.430271 0
M  V30 14135 O 1341.48 1.45655 1.31002 0
M  V30 14136 H 1340.06 0.642804 -0.380541 0
M  V30 14137 H 1342.72 1.20461 -1.53216 0
M  V30 14138 H 1341.81 2.73215 -1.50864 0
M  V30 14139 N 1342.11 1.02678 1.19562 0
M  V30 14140 C 1343.08 0.610407 2.20922 0
M  V30 14141 C 1344.08 -0.324858 1.57484 0
M  V30 14142 O 1345.27 -0.112153 1.73839 0
M  V30 14143 C 1342.4 -0.107115 3.40732 0
M  V30 14144 H 1343.59 1.50722 2.59274 0
M  V30 14145 H 1341.15 0.817725 1.33203 0
M  V30 14146 H 1341.88 -1.01837 3.07896 0
M  V30 14147 H 1341.67 0.564901 3.88009 0
M  V30 14148 H 1343.16 -0.385423 4.15818 0
M  V30 14149 N 1343.59 -1.35528 0.804364 0
M  V30 14150 C 1344.82 -2.03073 0.396091 0
M  V30 14151 C 1345.24 -1.60623 -0.992252 0
M  V30 14152 O 1344.59 -0.802718 -1.63898 0
M  V30 14153 C 1344.64 -3.58467 0.467301 0
M  V30 14154 O 1344.36 -3.99373 1.80091 0
M  V30 14155 C 1345.87 -4.4327 0.0515549 0
M  V30 14156 H 1343.09 -0.651346 0.161212 0
M  V30 14157 H 1345.63 -1.73195 1.08737 0
M  V30 14158 H 1343.78 -3.87001 -0.175703 0
M  V30 14159 H 1344.2 -4.94013 1.76214 0
M  V30 14160 H 1345.67 -5.51789 0.152499 0
M  V30 14161 H 1346.15 -4.27597 -1.00286 0
M  V30 14162 H 1346.76 -4.20027 0.667628 0
M  V30 14163 N 1345.07 -0.557671 -1.47404 0
M  V30 14164 C 1346 0.237612 -2.2696 0
M  V30 14165 C 1346.98 0.919871 -1.34079 0
M  V30 14166 O 1348.17 0.938767 -1.63461 0
M  V30 14167 C 1345.29 1.33863 -3.11124 0
M  V30 14168 C 1344.34 0.764877 -4.19585 0
M  V30 14169 S 1345.17 -0.388893 -5.34086 0
M  V30 14170 C 1346.33 0.713932 -6.21815 0
M  V30 14171 H 1346.56 -0.437477 -2.94064 0
M  V30 14172 H 1344.09 -0.344004 -1.50519 0
M  V30 14173 H 1346.05 1.96917 -3.60186 0
M  V30 14174 H 1344.71 1.98556 -2.43381 0
M  V30 14175 H 1343.91 1.5917 -4.78206 0
M  V30 14176 H 1343.51 0.210502 -3.73407 0
M  V30 14177 H 1345.8 1.60592 -6.58192 0
M  V30 14178 H 1346.74 0.165069 -7.07908 0
M  V30 14179 H 1347.15 1.00681 -5.55449 0
M  V30 14180 N 1346.55 1.54831 -0.294147 0
M  V30 14181 C 1347.78 2.04411 0.319938 0
M  V30 14182 C 1348.19 1.17174 1.4804 0
M  V30 14183 O 1347.55 0.195881 1.81446 0
M  V30 14184 C 1347.6 3.52924 0.782751 0
M  V30 14185 O 1347.32 4.36844 -0.331512 0
M  V30 14186 C 1348.82 4.18474 1.4627 0
M  V30 14187 H 1346.04 0.667286 0.0704973 0
M  V30 14188 H 1348.59 1.9989 -0.431785 0
M  V30 14189 H 1346.74 3.57828 1.48451 0
M  V30 14190 H 1347.16 5.24493 0.0275743 0
M  V30 14191 H 1348.63 5.23933 1.73776 0
M  V30 14192 H 1349.11 3.67793 2.40052 0
M  V30 14193 H 1349.71 4.17626 0.804291 0
M  V30 14194 N 1348.03 0.0217466 1.57585 0
M  V30 14195 C 1349.3 -0.696733 1.8277 0
M  V30 14196 C 1349.68 -1.90759 0.904112 0
M  V30 14197 O 1349.03 -2.28461 -0.0420522 0
M  V30 14198 C 1349.24 -1.08193 3.31806 0
M  V30 14199 C 1350.59 -1.47667 3.98095 0
M  V30 14200 O 1351.61 -1.17511 3.36258 0
M  V30 14201 O 1350.47 -2.03825 5.07068 0
M  V30 14202 H 1347.57 -0.341141 0.75336 0
M  V30 14203 H 1350.11 0.0488652 1.6963 0
M  V30 14204 H 1348.89 -0.219799 3.90682 0
M  V30 14205 H 1348.51 -1.88593 3.50026 0
M  V30 14206 N 1349.51 -1.55583 -0.251311 0
M  V30 14207 C 1350.78 -1.67954 -1.00254 0
M  V30 14208 C 1351.16 -0.560326 -2.03528 0
M  V30 14209 O 1350.51 0.436811 -2.24286 0
M  V30 14210 C 1350.72 -3.08075 -1.63985 0
M  V30 14211 C 1352.07 -3.66531 -2.14336 0
M  V30 14212 O 1353.09 -3.10846 -1.73934 0
M  V30 14213 O 1351.95 -4.64141 -2.88506 0
M  V30 14214 H 1349.05 -0.682952 -0.466375 0
M  V30 14215 H 1351.59 -1.67916 -0.245447 0
M  V30 14216 H 1350.36 -3.80983 -0.892627 0
M  V30 14217 H 1349.99 -3.12105 -2.46325 0
M  V30 14218 N 1350.98 0.516783 -1.48886 0
M  V30 14219 C 1352.23 1.26841 -1.56825 0
M  V30 14220 C 1352.55 1.93957 -0.252998 0
M  V30 14221 O 1353.75 2.70681 -0.210765 0
M  V30 14222 C 1352.21 2.30223 -2.76633 0
M  V30 14223 C 1351.82 1.69117 -4.14853 0
M  V30 14224 C 1353.56 3.06313 -2.93893 0
M  V30 14225 C 1351.47 2.70516 -5.25904 0
M  V30 14226 H 1350.4 0.477087 -0.58387 0
M  V30 14227 H 1353.05 0.544187 -1.75245 0
M  V30 14228 H 1351.43 3.05739 -2.51674 0
M  V30 14229 H 1352.6 0.997003 -4.49885 0
M  V30 14230 H 1350.92 1.05473 -4.0282 0
M  V30 14231 H 1353.52 3.8211 -3.74027 0
M  V30 14232 H 1353.86 3.62976 -2.03848 0
M  V30 14233 H 1354.39 2.37911 -3.18815 0
M  V30 14234 H 1351.13 2.18655 -6.17956 0
M  V30 14235 H 1350.65 3.38221 -4.95345 0
M  V30 14236 H 1352.33 3.3325 -5.54575 0
M  V30 14237 N 1352.46 1.37696 0.766659 0
M  V30 14238 C 1353.71 1.32922 1.52237 0
M  V30 14239 C 1354.03 -0.0842833 1.94818 0
M  V30 14240 O 1353.3 -1.02934 1.66677 0
M  V30 14241 H 1351.88 0.489049 0.564659 0
M  V30 14242 H 1354.54 1.72238 0.912142 0
M  V30 14243 H 1353.64 1.97158 2.4194 0
M  V30 14244 N 1353.94 -0.993397 1.22349 0
M  V30 14245 C 1354.87 -2.08104 0.936383 0
M  V30 14246 C 1355.85 -1.62153 -0.120505 0
M  V30 14247 O 1357.03 -1.88497 0.0109719 0
M  V30 14248 C 1354.16 -3.36231 0.408225 0
M  V30 14249 C 1353.21 -4.01105 1.44971 0
M  V30 14250 S 1354.04 -4.42021 3.02287 0
M  V30 14251 C 1355.2 -5.7332 2.51108 0
M  V30 14252 H 1355.43 -2.32137 1.8574 0
M  V30 14253 H 1352.96 -1.12781 1.05451 0
M  V30 14254 H 1354.92 -4.10352 0.110086 0
M  V30 14255 H 1353.58 -3.10228 -0.49167 0
M  V30 14256 H 1352.77 -4.93362 1.03003 0
M  V30 14257 H 1352.38 -3.33307 1.69653 0
M  V30 14258 H 1354.67 -6.49631 1.92317 0
M  V30 14259 H 1355.61 -6.20115 3.41853 0
M  V30 14260 H 1356.02 -5.30696 1.9241 0
M  V30 14261 N 1355.42 -1.03311 -1.19015 0
M  V30 14262 C 1356.67 -0.730593 -1.88432 0
M  V30 14263 C 1356.99 0.743392 -1.80274 0
M  V30 14264 O 1356.26 1.5359 -1.21601 0
M  V30 14265 H 1354.84 -0.267253 -0.697556 0
M  V30 14266 H 1357.5 -1.30824 -1.44468 0
M  V30 14267 H 1356.59 -1.02867 -2.9466 0
M  V30 14268 N 1356.9 1.35099 -0.81154 0
M  V30 14269 C 1358.14 1.9892 -0.394815 0
M  V30 14270 C 1358.47 1.6422 1.0366 0
M  V30 14271 O 1357.75 0.908031 1.72003 0
M  V30 14272 C 1358.03 3.55331 -0.58413 0
M  V30 14273 C 1357.89 3.99812 -2.06084 0
M  V30 14274 C 1359.2 4.40098 -0.0129096 0
M  V30 14275 H 1356.32 0.72261 -0.144926 0
M  V30 14276 H 1358.97 1.60173 -1.02199 0
M  V30 14277 H 1357.12 3.88468 -0.0502446 0
M  V30 14278 H 1358.79 3.77061 -2.65749 0
M  V30 14279 H 1357.03 3.50539 -2.55548 0
M  V30 14280 H 1357.7 5.08655 -2.14416 0
M  V30 14281 H 1360.18 4.13449 -0.468917 0
M  V30 14282 H 1359.05 5.4862 -0.175252 0
M  V30 14283 H 1359.31 4.28675 1.0812 0
M  V30 14284 N 1358.37 0.56548 1.47106 0
M  V30 14285 C 1359.6 0.0496298 2.0684 0
M  V30 14286 C 1360.02 -1.24777 1.4169 0
M  V30 14287 O 1359.37 -1.75046 0.516239 0
M  V30 14288 C 1359.42 -0.140987 3.61225 0
M  V30 14289 O 1359.15 1.10504 4.23934 0
M  V30 14290 C 1360.65 -0.693171 4.37847 0
M  V30 14291 H 1357.87 0.0496018 0.669164 0
M  V30 14292 H 1360.41 0.781247 1.88989 0
M  V30 14293 H 1358.57 -0.822762 3.78562 0
M  V30 14294 H 1358.98 0.907978 5.16581 0
M  V30 14295 H 1360.45 -0.7758 5.46521 0
M  V30 14296 H 1360.93 -1.70632 4.04699 0
M  V30 14297 H 1361.54 -0.046826 4.25274 0
M  V30 14298 N 1359.85 -1.54672 0.302354 0
M  V30 14299 C 1361.08 -2.04282 -0.308645 0
M  V30 14300 C 1361.49 -1.17912 -1.47965 0
M  V30 14301 O 1360.83 -0.197723 -1.82633 0
M  V30 14302 C 1360.9 -3.49872 -0.826417 0
M  V30 14303 C 1360.56 -4.56473 0.219486 0
M  V30 14304 C 1361.56 -5.0922 1.0484 0
M  V30 14305 C 1359.24 -5.00997 0.361574 0
M  V30 14306 C 1361.24 -6.05033 2.00533 0
M  V30 14307 C 1358.92 -5.9663 1.32195 0
M  V30 14308 C 1359.92 -6.48532 2.1423 0
M  V30 14309 O 1359.61 -7.42292 3.08639 0
M  V30 14310 H 1359.34 -0.67228 -0.0708187 0
M  V30 14311 H 1361.89 -2.00625 0.440314 0
M  V30 14312 H 1360.12 -3.50857 -1.62593 0
M  V30 14313 H 1361.81 -3.8267 -1.35345 0
M  V30 14314 H 1362.58 -4.75615 0.949501 0
M  V30 14315 H 1358.46 -4.60226 -0.267018 0
M  V30 14316 H 1362 -6.45469 2.64604 0
M  V30 14317 H 1357.9 -6.29652 1.42156 0
M  V30 14318 H 1358.67 -7.60098 3.03633 0
M  V30 14319 N 1361.33 -0.0301034 -1.57571 0
M  V30 14320 C 1362.26 0.94977 -2.13311 0
M  V30 14321 C 1363.24 1.33865 -1.04948 0
M  V30 14322 O 1364.43 1.4171 -1.32786 0
M  V30 14323 C 1361.56 2.23178 -2.66099 0
M  V30 14324 C 1360.51 1.98362 -3.79258 0
M  V30 14325 C 1359.84 3.32836 -4.18479 0
M  V30 14326 C 1361.14 1.32201 -5.05292 0
M  V30 14327 H 1362.83 0.485562 -2.95436 0
M  V30 14328 H 1360.38 0.232116 -1.42117 0
M  V30 14329 H 1362.33 2.92108 -3.03728 0
M  V30 14330 H 1361.05 2.71766 -1.81137 0
M  V30 14331 H 1359.71 1.31849 -3.42069 0
M  V30 14332 H 1359.36 3.79185 -3.30496 0
M  V30 14333 H 1359.06 3.17037 -4.94733 0
M  V30 14334 H 1360.58 4.03032 -4.58691 0
M  V30 14335 H 1362 1.91133 -5.40501 0
M  V30 14336 H 1360.4 1.26797 -5.86551 0
M  V30 14337 H 1361.47 0.29511 -4.84001 0
M  V30 14338 N 1362.81 1.55714 0.243056 0
M  V30 14339 C 1363.77 1.89832 1.28438 0
M  V30 14340 C 1364.77 0.775083 1.40887 0
M  V30 14341 O 1365.96 1.04304 1.39521 0
M  V30 14342 C 1363.09 2.13016 2.66153 0
M  V30 14343 H 1364.29 2.82947 0.994022 0
M  V30 14344 H 1361.84 1.48665 0.482521 0
M  V30 14345 H 1362.57 1.22381 3.00322 0
M  V30 14346 H 1362.36 2.94824 2.58498 0
M  V30 14347 H 1363.85 2.40581 3.41336 0
M  V30 14348 N 1364.29 -0.50888 1.49158 0
M  V30 14349 C 1365.22 -1.62008 1.68154 0
M  V30 14350 C 1366.2 -1.61624 0.53025 0
M  V30 14351 O 1367.38 -1.78489 0.765205 0
M  V30 14352 C 1364.51 -3.00525 1.74075 0
M  V30 14353 C 1363.47 -3.15773 2.88915 0
M  V30 14354 C 1362.79 -4.55562 2.79942 0
M  V30 14355 C 1364.09 -2.96542 4.29953 0
M  V30 14356 H 1365.79 -1.46365 2.61185 0
M  V30 14357 H 1363.33 -0.702705 1.2569 0
M  V30 14358 H 1365.29 -3.78154 1.8595 0
M  V30 14359 H 1364.01 -3.17238 0.776373 0
M  V30 14360 H 1362.67 -2.40567 2.76628 0
M  V30 14361 H 1362.32 -4.6914 1.81429 0
M  V30 14362 H 1362.02 -4.66706 3.57015 0
M  V30 14363 H 1363.54 -5.35262 2.93814 0
M  V30 14364 H 1364.95 -3.63947 4.42963 0
M  V30 14365 H 1363.35 -3.19164 5.08187 0
M  V30 14366 H 1364.42 -1.92745 4.44946 0
M  V30 14367 N 1365.76 -1.381 -0.759346 0
M  V30 14368 C 1366.69 -1.37578 -1.88665 0
M  V30 14369 C 1367.68 -0.242529 -1.68362 0
M  V30 14370 O 1368.86 -0.444751 -1.89039 0
M  V30 14371 C 1365.99 -1.19437 -3.26117 0
M  V30 14372 C 1364.94 -2.29905 -3.61009 0
M  V30 14373 C 1364.27 -1.96874 -4.97136 0
M  V30 14374 C 1365.57 -3.72143 -3.66479 0
M  V30 14375 H 1367.26 -2.31912 -1.89359 0
M  V30 14376 H 1364.81 -1.11632 -0.909631 0
M  V30 14377 H 1366.76 -1.17698 -4.0463 0
M  V30 14378 H 1365.49 -0.21562 -3.25887 0
M  V30 14379 H 1364.15 -2.3082 -2.84812 0
M  V30 14380 H 1363.79 -0.974979 -4.9346 0
M  V30 14381 H 1363.49 -2.70855 -5.21451 0
M  V30 14382 H 1365.02 -1.96744 -5.78035 0
M  V30 14383 H 1366.43 -3.73291 -4.35117 0
M  V30 14384 H 1364.83 -4.45282 -4.02299 0
M  V30 14385 H 1365.9 -4.04874 -2.66843 0
M  V30 14386 N 1367.24 0.986894 -1.22875 0
M  V30 14387 C 1368.21 2.0597 -1.00544 0
M  V30 14388 C 1369.21 1.60771 0.0303509 0
M  V30 14389 O 1370.4 1.72945 -0.208753 0
M  V30 14390 C 1367.53 3.36911 -0.519962 0
M  V30 14391 H 1368.72 2.27213 -1.9574 0
M  V30 14392 H 1366.27 1.15935 -1.04827 0
M  V30 14393 H 1367.01 3.21355 0.436078 0
M  V30 14394 H 1366.79 3.71054 -1.26732 0
M  V30 14395 H 1368.28 4.15829 -0.384166 0
M  V30 14396 N 1368.72 1.0394 1.18466 0
M  V30 14397 C 1369.68 0.633804 2.20262 0
M  V30 14398 C 1370.68 -0.308136 1.5782 0
M  V30 14399 O 1371.87 -0.0937087 1.73948 0
M  V30 14400 C 1369.01 -0.0709693 3.40826 0
M  V30 14401 H 1370.2 1.53463 2.57661 0
M  V30 14402 H 1367.75 0.831806 1.32328 0
M  V30 14403 H 1368.49 -0.985659 3.08958 0
M  V30 14404 H 1368.27 0.606023 3.87388 0
M  V30 14405 H 1369.76 -0.341298 4.16203 0
M  V30 14406 N 1370.2 -1.34667 0.818693 0
M  V30 14407 C 1371.45 -1.98414 0.404759 0
M  V30 14408 C 1371.77 -1.64919 -1.03112 0
M  V30 14409 O 1371.03 -0.910695 -1.73219 0
M  V30 14410 C 1371.33 -3.53157 0.549059 0
M  V30 14411 C 1370.99 -4.06552 1.95003 0
M  V30 14412 C 1369.66 -4.20846 2.33329 0
M  V30 14413 C 1372.01 -4.35324 2.86604 0
M  V30 14414 C 1369.34 -4.61236 3.62599 0
M  V30 14415 C 1371.69 -4.77159 4.15334 0
M  V30 14416 C 1370.35 -4.89658 4.53642 0
M  V30 14417 H 1369.62 -0.726047 0.148112 0
M  V30 14418 H 1372.27 -1.60681 1.04182 0
M  V30 14419 H 1370.57 -3.91425 -0.17141 0
M  V30 14420 H 1372.27 -4.00453 0.209374 0
M  V30 14421 H 1368.86 -3.95887 1.64231 0
M  V30 14422 H 1373.04 -4.23823 2.58239 0
M  V30 14423 H 1368.3 -4.69104 3.92112 0
M  V30 14424 H 1372.47 -4.98381 4.86404 0
M  V30 14425 H 1370.1 -5.20713 5.53861 0
M  V30 14426 N 1371.68 -0.573274 -1.46804 0
M  V30 14427 C 1373.09 -0.23423 -1.57872 0
M  V30 14428 C 1373.29 1.26342 -1.56971 0
M  V30 14429 O 1372.35 2.04459 -1.48165 0
M  V30 14430 C 1373.66 -0.875097 -2.87685 0
M  V30 14431 C 1375.21 -0.847812 -3.01299 0
M  V30 14432 C 1375.68 -1.46804 -4.33835 0
M  V30 14433 N 1377.18 -1.43196 -4.4051 0
M  V30 14434 C 1377.91 -1.88133 -5.41658 0
M  V30 14435 N 1377.41 -2.41001 -6.49531 0
M  V30 14436 N 1379.2 -1.79107 -5.32801 0
M  V30 14437 H 1371.35 -1.54612 -1.45633 0
M  V30 14438 H 1373.61 -0.645703 -0.694098 0
M  V30 14439 H 1373.32 -1.92826 -2.94127 0
M  V30 14440 H 1373.19 -0.377671 -3.75305 0
M  V30 14441 H 1375.58 0.196707 -2.94444 0
M  V30 14442 H 1375.66 -1.38316 -2.1518 0
M  V30 14443 H 1375.31 -2.51171 -4.41447 0
M  V30 14444 H 1375.24 -0.908 -5.18713 0
M  V30 14445 H 1377.73 -1.04541 -3.63152 0
M  V30 14446 H 1378.04 -2.73172 -7.22908 0
M  V30 14447 H 1376.38 -2.45021 -6.50377 0
M  V30 14448 H 1379.58 -1.37569 -4.47429 0
M  V30 14449 H 1379.75 -2.14445 -6.11488 0
M  V30 14450 N 1373.15 1.5451 -0.310553 0
M  V30 14451 C 1374.4 2.00623 0.296343 0
M  V30 14452 C 1374.73 1.19855 1.52802 0
M  V30 14453 O 1374.01 0.277468 1.92511 0
M  V30 14454 C 1374.29 3.54305 0.643448 0
M  V30 14455 C 1374.14 4.45807 -0.598029 0
M  V30 14456 C 1375.46 4.14958 1.46623 0
M  V30 14457 H 1372.58 0.729303 0.106236 0
M  V30 14458 H 1375.22 1.85196 -0.424549 0
M  V30 14459 H 1373.37 3.67581 1.25762 0
M  V30 14460 H 1375.05 4.44421 -1.23643 0
M  V30 14461 H 1373.29 4.16014 -1.22944 0
M  V30 14462 H 1373.96 5.51124 -0.310883 0
M  V30 14463 H 1376.44 4.05176 0.947199 0
M  V30 14464 H 1375.31 5.22627 1.67787 0
M  V30 14465 H 1375.57 3.67445 2.45839 0
M  V30 14466 N 1374.63 0.0384594 1.57553 0
M  V30 14467 C 1376.05 -0.318006 1.564 0
M  V30 14468 C 1376.25 -1.72287 1.04496 0
M  V30 14469 O 1375.31 -2.42722 0.695861 0
M  V30 14470 C 1376.62 -0.158079 3.00284 0
M  V30 14471 C 1378.17 -0.230143 3.12153 0
M  V30 14472 C 1378.64 -0.0988948 4.57893 0
M  V30 14473 N 1380.13 -0.15558 4.62939 0
M  V30 14474 C 1380.87 -0.077948 5.73347 0
M  V30 14475 N 1380.36 0.0513054 6.92781 0
M  V30 14476 N 1382.16 -0.132612 5.61944 0
M  V30 14477 H 1374.31 0.957014 1.89618 0
M  V30 14478 H 1376.57 0.370396 0.872646 0
M  V30 14479 H 1376.28 0.810032 3.42245 0
M  V30 14480 H 1376.15 -0.924413 3.65697 0
M  V30 14481 H 1378.54 -1.18872 2.70099 0
M  V30 14482 H 1378.62 0.56673 2.49443 0
M  V30 14483 H 1378.26 0.856301 5.00629 0
M  V30 14484 H 1378.19 -0.91475 5.18594 0
M  V30 14485 H 1380.68 -0.255245 3.77037 0
M  V30 14486 H 1381 0.103595 7.72731 0
M  V30 14487 H 1379.34 0.0862166 6.94947 0
M  V30 14488 H 1382.53 -0.232056 4.67524 0
M  V30 14489 H 1382.71 -0.0686506 6.47964 0
M  V30 14490 N 1376.11 -1.55841 -0.234795 0
M  V30 14491 C 1377.52 -1.68555 -0.802886 0
M  V30 14492 C 1377.87 -0.638107 -1.85533 0
M  V30 14493 O 1377 0.21333 -2.15346 0
M  V30 14494 C 1377.59 -3.0558 -1.46309 0
M  V30 14495 C 1376.15 -3.20192 -1.97874 0
M  V30 14496 C 1375.3 -2.64457 -0.834136 0
M  V30 14497 H 1378.25 -1.58697 -0.0103759 0
M  V30 14498 H 1378.27 -3.007 -2.33152 0
M  V30 14499 H 1377.78 -3.81792 -0.696868 0
M  V30 14500 H 1375.88 -2.48825 -2.77339 0
M  V30 14501 H 1376 -4.27251 -2.1678 0
M  V30 14502 H 1374.36 -2.22593 -1.23791 0
M  V30 14503 H 1375.14 -3.43205 -0.0807988 0
M  V30 14504 N 1377.59 0.500963 -1.49426 0
M  V30 14505 C 1378.82 1.27911 -1.62624 0
M  V30 14506 C 1379.23 1.86439 -0.297651 0
M  V30 14507 O 1378.59 1.67831 0.716879 0
M  V30 14508 C 1378.64 2.40934 -2.69505 0
M  V30 14509 O 1378.36 1.84811 -3.97211 0
M  V30 14510 C 1379.86 3.32305 -2.93408 0
M  V30 14511 H 1377.08 0.387951 -0.547481 0
M  V30 14512 H 1379.63 0.601372 -1.95458 0
M  V30 14513 H 1377.78 3.04537 -2.39449 0
M  V30 14514 H 1378.2 2.59011 -4.56085 0
M  V30 14515 H 1379.67 4.0789 -3.71927 0
M  V30 14516 H 1380.15 3.89301 -2.03325 0
M  V30 14517 H 1380.75 2.74467 -3.24881 0
M  V30 14518 N 1379.07 1.38501 0.752011 0
M  V30 14519 C 1380.31 1.34795 1.51118 0
M  V30 14520 C 1380.64 -0.0615084 1.94403 0
M  V30 14521 O 1379.9 -1.03892 1.65846 0
M  V30 14522 C 1380.2 2.25111 2.77596 0
M  V30 14523 C 1379.86 3.73052 2.53265 0
M  V30 14524 C 1378.52 4.13365 2.46339 0
M  V30 14525 C 1380.88 4.66692 2.32051 0
M  V30 14526 C 1378.2 5.45406 2.16216 0
M  V30 14527 C 1380.56 5.98992 2.03448 0
M  V30 14528 C 1379.22 6.38388 1.94979 0
M  V30 14529 H 1378.49 0.49325 0.552979 0
M  V30 14530 H 1381.14 1.70872 0.864588 0
M  V30 14531 H 1379.44 1.82096 3.46913 0
M  V30 14532 H 1381.14 2.19547 3.3556 0
M  V30 14533 H 1377.73 3.41091 2.59528 0
M  V30 14534 H 1381.91 4.36392 2.3638 0
M  V30 14535 H 1377.17 5.7487 2.08168 0
M  V30 14536 H 1381.34 6.71091 1.86037 0
M  V30 14537 H 1378.97 7.40625 1.71402 0
M  V30 14538 N 1380.55 -0.980364 1.23396 0
M  V30 14539 C 1381.51 -2.05433 1.01635 0
M  V30 14540 C 1382.51 -1.60785 -0.0218244 0
M  V30 14541 O 1383.7 -1.72832 0.217922 0
M  V30 14542 C 1380.83 -3.36631 0.537822 0
M  V30 14543 H 1382.02 -2.26172 1.96943 0
M  V30 14544 H 1379.58 -1.15378 1.05441 0
M  V30 14545 H 1380.31 -3.21581 -0.41903 0
M  V30 14546 H 1380.1 -3.70377 1.28698 0
M  V30 14547 H 1381.59 -4.1562 0.406213 0
M  V30 14548 N 1382.02 -1.04567 -1.17913 0
M  V30 14549 C 1382.99 -0.645476 -2.19923 0
M  V30 14550 C 1383.99 0.299763 -1.57981 0
M  V30 14551 O 1385.18 0.0844825 -1.73995 0
M  V30 14552 C 1382.31 0.0528935 -3.40859 0
M  V30 14553 H 1383.5 -1.54828 -2.56843 0
M  V30 14554 H 1381.05 -0.838812 -1.31885 0
M  V30 14555 H 1381.79 0.969261 -3.09477 0
M  V30 14556 H 1381.57 -0.626558 -3.87062 0
M  V30 14557 H 1383.06 0.319221 -4.16378 0
M  V30 14558 N 1383.5 1.34231 -0.825823 0
M  V30 14559 C 1384.75 1.97805 -0.414456 0
M  V30 14560 C 1385.07 1.65786 1.02664 0
M  V30 14561 O 1384.34 0.950069 1.7132 0
M  V30 14562 H 1382.92 0.73173 -0.150265 0
M  V30 14563 H 1385.58 1.63819 -1.05591 0
M  V30 14564 H 1384.68 3.07466 -0.535829 0
M  V30 14565 N 1384.98 0.581051 1.46498 0
M  V30 14566 C 1385.91 -0.140957 2.33074 0
M  V30 14567 C 1386.89 -0.885323 1.45245 0
M  V30 14568 O 1388.08 -0.86111 1.74065 0
M  V30 14569 C 1385.21 -1.15625 3.27488 0
M  V30 14570 C 1384.16 -0.526829 4.24745 0
M  V30 14571 C 1383.49 -1.64847 5.08655 0
M  V30 14572 C 1384.79 0.53492 5.19554 0
M  V30 14573 H 1386.48 0.581888 2.93691 0
M  V30 14574 H 1384.03 0.281278 1.41226 0
M  V30 14575 H 1385.98 -1.6697 3.8691 0
M  V30 14576 H 1384.7 -1.90935 2.64974 0
M  V30 14577 H 1383.36 -0.0344738 3.66584 0
M  V30 14578 H 1383.01 -2.3912 4.42528 0
M  V30 14579 H 1382.71 -1.23298 5.74518 0
M  V30 14580 H 1384.23 -2.16472 5.7094 0
M  V30 14581 H 1385.65 0.106606 5.73201 0
M  V30 14582 H 1384.04 0.870639 5.93751 0
M  V30 14583 H 1385.11 1.42184 4.63586 0
M  V30 14584 N 1386.46 -1.54343 0.318742 0
M  V30 14585 C 1387.39 -2.27118 -0.542206 0
M  V30 14586 C 1388.37 -1.27731 -1.12334 0
M  V30 14587 O 1389.55 -1.56535 -1.14937 0
M  V30 14588 C 1386.68 -3.02535 -1.70558 0
M  V30 14589 C 1385.64 -4.09218 -1.25398 0
M  V30 14590 C 1384.96 -4.72449 -2.50391 0
M  V30 14591 C 1386.26 -5.20971 -0.372332 0
M  V30 14592 H 1387.96 -2.9933 0.0648226 0
M  V30 14593 H 1385.5 -1.43963 0.0326168 0
M  V30 14594 H 1387.46 -3.52174 -2.31412 0
M  V30 14595 H 1386.18 -2.27931 -2.33912 0
M  V30 14596 H 1384.84 -3.60455 -0.668392 0
M  V30 14597 H 1384.49 -3.94466 -3.12099 0
M  V30 14598 H 1384.19 -5.4451 -2.20868 0
M  V30 14599 H 1385.71 -5.2486 -3.12016 0
M  V30 14600 H 1387.13 -5.66396 -0.887029 0
M  V30 14601 H 1385.52 -5.99859 -0.17009 0
M  V30 14602 H 1386.59 -4.81198 0.598064 0
M  V30 14603 N 1387.94 -0.0468143 -1.5753 0
M  V30 14604 C 1388.87 0.927092 -2.14306 0
M  V30 14605 C 1389.85 1.32745 -1.06362 0
M  V30 14606 O 1391.03 1.40293 -1.34281 0
M  V30 14607 C 1388.16 2.20343 -2.68452 0
M  V30 14608 C 1387.12 1.94328 -3.81341 0
M  V30 14609 C 1386.44 3.28379 -4.21985 0
M  V30 14610 C 1387.74 1.26835 -5.06666 0
M  V30 14611 H 1389.44 0.454199 -2.95935 0
M  V30 14612 H 1386.98 0.217029 -1.42355 0
M  V30 14613 H 1388.93 2.8887 -3.0681 0
M  V30 14614 H 1387.66 2.6983 -1.84009 0
M  V30 14615 H 1386.32 1.28214 -3.43448 0
M  V30 14616 H 1385.97 3.75658 -3.34499 0
M  V30 14617 H 1385.67 3.11772 -4.98068 0
M  V30 14618 H 1387.19 3.98145 -4.6294 0
M  V30 14619 H 1388.6 1.85389 -5.42498 0
M  V30 14620 H 1387 1.20569 -5.87863 0
M  V30 14621 H 1388.07 0.243759 -4.84287 0
M  V30 14622 N 1389.41 1.55964 0.226527 0
M  V30 14623 C 1390.83 1.48844 0.575999 0
M  V30 14624 C 1391.03 0.740966 1.87382 0
M  V30 14625 O 1390.09 0.278599 2.50958 0
M  V30 14626 C 1391.4 2.93371 0.65984 0
M  V30 14627 C 1392.95 3.03862 0.750802 0
M  V30 14628 C 1393.42 4.49738 0.86603 0
M  V30 14629 N 1394.91 4.5376 0.930379 0
M  V30 14630 C 1395.65 5.63905 1.03916 0
M  V30 14631 N 1395.14 6.83814 1.1122 0
M  V30 14632 N 1396.94 5.51746 1.07391 0
M  V30 14633 H 1389.09 2.02991 -0.625179 0
M  V30 14634 H 1391.35 0.922435 -0.218674 0
M  V30 14635 H 1391.06 3.50985 -0.22411 0
M  V30 14636 H 1390.93 3.44994 1.52509 0
M  V30 14637 H 1393.32 2.46316 1.6252 0
M  V30 14638 H 1393.4 2.55416 -0.140019 0
M  V30 14639 H 1393.04 5.079 -0.00388632 0
M  V30 14640 H 1392.97 4.95884 1.77219 0
M  V30 14641 H 1395.46 3.67404 0.884451 0
M  V30 14642 H 1395.78 7.63507 1.19484 0
M  V30 14643 H 1394.12 6.86535 1.08142 0
M  V30 14644 H 1397.31 4.56997 1.01347 0
M  V30 14645 H 1397.49 6.37619 1.15523 0
M  V30 14646 N 1390.89 -0.493031 1.4969 0
M  V30 14647 C 1391.84 -1.59367 1.66945 0
M  V30 14648 C 1392.81 -1.58049 0.510842 0
M  V30 14649 O 1393.99 -1.75915 0.738822 0
M  V30 14650 C 1391.13 -2.97472 1.74941 0
M  V30 14651 C 1390.25 -3.08745 3.02159 0
M  V30 14652 C 1389.38 -4.37632 3.01085 0
M  V30 14653 C 1388.42 -4.42567 4.22849 0
M  V30 14654 N 1387.56 -5.62892 4.19639 0
M  V30 14655 H 1392.4 -1.4396 2.6092 0
M  V30 14656 H 1389.94 -0.700297 1.29361 0
M  V30 14657 H 1391.89 -3.7753 1.77558 0
M  V30 14658 H 1390.52 -3.11564 0.844252 0
M  V30 14659 H 1389.58 -2.217 3.09117 0
M  V30 14660 H 1390.89 -3.08251 3.92151 0
M  V30 14661 H 1390.04 -5.26018 3.02309 0
M  V30 14662 H 1388.78 -4.40702 2.08885 0
M  V30 14663 H 1387.79 -3.52581 4.21861 0
M  V30 14664 H 1389.01 -4.41205 5.1625 0
M  V30 14665 H 1386.96 -5.6679 3.30281 0
M  V30 14666 H 1386.87 -5.64048 5.03374 0
M  V30 14667 H 1388.14 -6.53464 4.24977 0
M  V30 14668 N 1392.37 -1.38898 -0.744656 0
M  V30 14669 C 1393.3 -1.39571 -1.87195 0
M  V30 14670 C 1394.28 -0.260372 -1.68095 0
M  V30 14671 O 1395.47 -0.464776 -1.88556 0
M  V30 14672 C 1392.6 -1.22889 -3.24832 0
M  V30 14673 C 1391.55 -2.33721 -3.58551 0
M  V30 14674 C 1390.88 -2.02136 -4.9502 0
M  V30 14675 C 1392.18 -3.7601 -3.62511 0
M  V30 14676 H 1393.87 -2.33908 -1.86889 0
M  V30 14677 H 1391.42 -1.12591 -0.897739 0
M  V30 14678 H 1393.37 -1.21983 -4.03359 0
M  V30 14679 H 1392.09 -0.250172 -3.2564 0
M  V30 14680 H 1390.75 -2.33828 -2.82348 0
M  V30 14681 H 1390.4 -1.02726 -4.92399 0
M  V30 14682 H 1390.1 -2.76371 -5.18549 0
M  V30 14683 H 1391.62 -2.02864 -5.75915 0
M  V30 14684 H 1393.04 -3.77885 -4.31133 0
M  V30 14685 H 1391.44 -4.49524 -3.97553 0
M  V30 14686 H 1392.51 -4.07682 -2.62533 0
M  V30 14687 N 1393.85 0.973806 -1.23914 0
M  V30 14688 C 1395.08 1.75107 -1.10206 0
M  V30 14689 C 1395.49 1.85604 0.345935 0
M  V30 14690 O 1394.85 1.33996 1.239 0
M  V30 14691 C 1394.9 3.17466 -1.72909 0
M  V30 14692 O 1394.62 3.07504 -3.12047 0
M  V30 14693 C 1396.12 4.11557 -1.6473 0
M  V30 14694 H 1393.34 0.549318 -0.385345 0
M  V30 14695 H 1395.89 1.22301 -1.63898 0
M  V30 14696 H 1394.04 3.67277 -1.23234 0
M  V30 14697 H 1394.45 3.97169 -3.42575 0
M  V30 14698 H 1395.93 5.09126 -2.13295 0
M  V30 14699 H 1396.41 4.3498 -0.607352 0
M  V30 14700 H 1397.01 3.67653 -2.13802 0
M  V30 14701 N 1395.33 1.05191 1.17357 0
M  V30 14702 C 1396.55 0.782343 1.92079 0
M  V30 14703 C 1396.98 -0.655957 1.76292 0
M  V30 14704 O 1396.33 -1.45573 1.08065 0
M  V30 14705 C 1396.38 1.16777 3.41168 0
M  V30 14706 O 1395.49 0.299908 4.11308 0
M  V30 14707 H 1394.83 0.286894 0.598822 0
M  V30 14708 H 1397.36 1.40476 1.48754 0
M  V30 14709 H 1397.37 1.13454 3.91909 0
M  V30 14710 H 1396.04 2.2155 3.51978 0
M  V30 14711 H 1394.62 0.393744 3.70815 0
M  V30 14712 N 1396.8 -1.33791 0.83293 0
M  V30 14713 C 1397.75 -2.29332 0.25989 0
M  V30 14714 C 1398.72 -1.54056 -0.620965 0
M  V30 14715 O 1399.91 -1.82382 -0.560492 0
M  V30 14716 C 1397.05 -3.40461 -0.563964 0
M  V30 14717 C 1396.16 -4.30658 0.34025 0
M  V30 14718 C 1395.29 -5.28897 -0.494134 0
M  V30 14719 C 1394.33 -6.10733 0.408842 0
M  V30 14720 N 1393.47 -7.01032 -0.38706 0
M  V30 14721 H 1398.31 -2.77743 1.07996 0
M  V30 14722 H 1395.85 -1.3667 0.544043 0
M  V30 14723 H 1397.81 -4.03587 -1.05704 0
M  V30 14724 H 1396.44 -2.93258 -1.34905 0
M  V30 14725 H 1395.49 -3.68305 0.9516 0
M  V30 14726 H 1396.8 -4.87962 1.03415 0
M  V30 14727 H 1395.95 -5.97522 -1.05128 0
M  V30 14728 H 1394.69 -4.72155 -1.2215 0
M  V30 14729 H 1393.7 -5.41031 0.978046 0
M  V30 14730 H 1394.92 -6.69557 1.13448 0
M  V30 14731 H 1392.87 -6.46747 -1.09792 0
M  V30 14732 H 1392.79 -7.55592 0.248249 0
M  V30 14733 H 1394.05 -7.73973 -0.926631 0
M  V30 14734 N 1398.28 -0.588812 -1.46187 0
M  V30 14735 C 1399.19 0.143253 -2.34162 0
M  V30 14736 C 1400.21 0.879779 -1.5012 0
M  V30 14737 O 1401.38 0.841592 -1.82973 0
M  V30 14738 C 1398.45 1.14017 -3.27416 0
M  V30 14739 C 1397.51 0.407651 -4.2736 0
M  V30 14740 C 1396.74 1.35708 -5.16158 0
M  V30 14741 O 1396.97 2.59394 -5.08007 0
M  V30 14742 O 1395.9 0.864343 -5.95662 0
M  V30 14743 H 1399.73 -0.579228 -2.98125 0
M  V30 14744 H 1397.31 -0.349174 -1.45262 0
M  V30 14745 H 1399.19 1.71484 -3.8493 0
M  V30 14746 H 1397.87 1.84401 -2.66041 0
M  V30 14747 H 1396.78 -0.209011 -3.73516 0
M  V30 14748 H 1398.11 -0.255334 -4.91537 0
M  V30 14749 N 1399.76 1.54172 -0.326923 0
M  V30 14750 C 1400.69 2.27402 0.530154 0
M  V30 14751 C 1401.67 1.28325 1.11655 0
M  V30 14752 O 1402.86 1.57142 1.14105 0
M  V30 14753 C 1399.99 3.03435 1.68951 0
M  V30 14754 C 1398.94 4.09877 1.23226 0
M  V30 14755 C 1398.27 4.7377 2.47882 0
M  V30 14756 C 1399.57 5.21161 0.344698 0
M  V30 14757 H 1401.26 2.99291 -0.0806959 0
M  V30 14758 H 1398.81 1.43944 -0.0402511 0
M  V30 14759 H 1400.76 3.53396 2.29541 0
M  V30 14760 H 1399.48 2.29169 2.327 0
M  V30 14761 H 1398.14 3.60805 0.649267 0
M  V30 14762 H 1397.79 3.96116 3.10002 0
M  V30 14763 H 1397.49 5.45674 2.17977 0
M  V30 14764 H 1399.01 5.26507 3.09229 0
M  V30 14765 H 1400.43 5.66859 0.856979 0
M  V30 14766 H 1398.83 5.99941 0.138276 0
M  V30 14767 H 1399.9 4.80874 -0.623575 0
M  V30 14768 N 1401.24 0.0551678 1.57503 0
M  V30 14769 C 1402.17 -0.953348 2.07332 0
M  V30 14770 C 1403.15 -1.30148 0.974699 0
M  V30 14771 O 1404.33 -1.41366 1.24692 0
M  V30 14772 C 1401.46 -2.26622 2.51715 0
M  V30 14773 C 1400.51 -2.07085 3.72851 0
M  V30 14774 S 1401.34 -1.34553 5.1832 0
M  V30 14775 C 1402.5 -2.67155 5.6602 0
M  V30 14776 H 1402.73 -0.529294 2.9255 0
M  V30 14777 H 1400.26 -0.157196 1.53598 0
M  V30 14778 H 1402.22 -3.02085 2.77948 0
M  V30 14779 H 1400.88 -2.66155 1.66795 0
M  V30 14780 H 1400.07 -3.04206 4.01839 0
M  V30 14781 H 1399.68 -1.39761 3.46905 0
M  V30 14782 H 1401.97 -3.63309 5.7185 0
M  V30 14783 H 1402.91 -2.42798 6.65173 0
M  V30 14784 H 1403.32 -2.73597 4.93766 0
M  V30 14785 N 1402.72 -1.56081 -0.218252 0
M  V30 14786 C 1403.65 -1.87704 -1.29779 0
M  V30 14787 C 1404.63 -0.734747 -1.45053 0
M  V30 14788 O 1405.81 -0.98344 -1.60813 0
M  V30 14789 C 1402.94 -2.08695 -2.66766 0
M  V30 14790 C 1401.98 -3.31385 -2.68489 0
M  V30 14791 S 1402.82 -4.87212 -2.22227 0
M  V30 14792 C 1403.97 -5.11243 -3.61083 0
M  V30 14793 H 1404.21 -2.78975 -1.02762 0
M  V30 14794 H 1401.74 -1.48559 -0.420653 0
M  V30 14795 H 1403.7 -2.21472 -3.4563 0
M  V30 14796 H 1402.36 -1.18215 -2.91005 0
M  V30 14797 H 1401.55 -3.43127 -3.69161 0
M  V30 14798 H 1401.15 -3.17482 -1.9769 0
M  V30 14799 H 1403.45 -5.00344 -4.56796 0
M  V30 14800 H 1404.39 -6.13115 -3.54254 0
M  V30 14801 H 1404.8 -4.38964 -3.54924 0
M  V30 14802 N 1404.2 0.485086 -1.49949 0
M  V30 14803 C 1405.42 1.26179 -1.63971 0
M  V30 14804 C 1405.84 1.86113 -0.317408 0
M  V30 14805 O 1405.2 1.68581 0.699038 0
M  V30 14806 C 1405.25 2.38062 -2.72046 0
M  V30 14807 O 1404.97 1.80588 -3.99149 0
M  V30 14808 C 1406.47 3.29174 -2.96916 0
M  V30 14809 H 1403.69 0.382122 -0.551565 0
M  V30 14810 H 1406.23 0.580607 -1.96085 0
M  V30 14811 H 1404.39 3.0198 -2.42666 0
M  V30 14812 H 1404.8 2.54159 -4.58807 0
M  V30 14813 H 1406.28 4.03922 -3.76233 0
M  V30 14814 H 1406.75 3.87123 -2.07443 0
M  V30 14815 H 1407.36 2.71006 -3.27774 0
M  V30 14816 N 1405.67 1.39291 0.737279 0
M  V30 14817 C 1406.9 1.39659 1.52653 0
M  V30 14818 C 1407.32 -0.00948259 1.88798 0
M  V30 14819 O 1406.67 -0.980249 1.53939 0
M  V30 14820 C 1406.72 2.2674 2.81552 0
M  V30 14821 O 1406.45 3.61871 2.46943 0
M  V30 14822 C 1407.95 2.35466 3.75594 0
M  V30 14823 H 1405.17 0.477108 0.471814 0
M  V30 14824 H 1407.71 1.83077 0.911205 0
M  V30 14825 H 1405.87 1.86741 3.39421 0
M  V30 14826 H 1406.28 4.07897 3.29728 0
M  V30 14827 H 1407.75 3.00649 4.62941 0
M  V30 14828 H 1408.23 1.37314 4.17183 0
M  V30 14829 H 1408.84 2.75925 3.23644 0
M  V30 14830 N 1407.15 -0.967221 1.24429 0
M  V30 14831 C 1408.4 -1.70458 1.07829 0
M  V30 14832 C 1408.71 -1.91818 -0.38278 0
M  V30 14833 O 1409.92 -2.63129 -0.668982 0
M  V30 14834 C 1408.38 -3.06817 1.88125 0
M  V30 14835 C 1407.98 -2.93298 3.38645 0
M  V30 14836 C 1409.73 -3.84422 1.80056 0
M  V30 14837 C 1407.63 -4.2497 4.11284 0
M  V30 14838 H 1406.56 -0.639217 0.399897 0
M  V30 14839 H 1409.22 -1.07776 1.48515 0
M  V30 14840 H 1407.6 -3.70331 1.40254 0
M  V30 14841 H 1408.77 -2.38793 3.94099 0
M  V30 14842 H 1407.09 -2.29159 3.47671 0
M  V30 14843 H 1409.68 -4.81925 2.31629 0
M  V30 14844 H 1410.03 -4.09194 0.765908 0
M  V30 14845 H 1410.56 -3.27636 2.2561 0
M  V30 14846 H 1407.3 -4.05391 5.1511 0
M  V30 14847 H 1406.82 -4.79288 3.60615 0
M  V30 14848 H 1408.5 -4.93586 4.18308 0
M  V30 14849 N 1408.63 -1.05812 -1.16797 0
M  V30 14850 C 1409.88 -0.770398 -1.8684 0
M  V30 14851 C 1410.2 0.704986 -1.8181 0
M  V30 14852 O 1409.47 1.50977 -1.24832 0
M  V30 14853 H 1408.05 -0.281989 -0.691731 0
M  V30 14854 H 1410.71 -1.33859 -1.41661 0
M  V30 14855 H 1409.81 -1.09094 -2.92412 0
M  V30 14856 N 1410.11 1.33347 -0.840014 0
M  V30 14857 C 1411.36 1.97007 -0.432581 0
M  V30 14858 C 1411.67 1.67278 1.01378 0
M  V30 14859 O 1412.88 2.2456 1.52595 0
M  V30 14860 C 1411.33 3.52572 -0.72258 0
M  V30 14861 C 1410.94 3.91176 -2.1837 0
M  V30 14862 C 1412.68 4.22776 -0.382153 0
M  V30 14863 C 1410.59 5.39724 -2.41768 0
M  V30 14864 H 1409.52 0.737255 -0.158024 0
M  V30 14865 H 1412.17 1.5195 -1.02876 0
M  V30 14866 H 1410.55 3.9596 -0.0560179 0
M  V30 14867 H 1411.73 3.58842 -2.89083 0
M  V30 14868 H 1410.04 3.33956 -2.48721 0
M  V30 14869 H 1412.64 5.32021 -0.534588 0
M  V30 14870 H 1412.98 4.10792 0.674967 0
M  V30 14871 H 1413.52 3.84922 -1.004 0
M  V30 14872 H 1410.25 5.56713 -3.4605 0
M  V30 14873 H 1409.77 5.73514 -1.75617 0
M  V30 14874 H 1411.45 6.06624 -2.2498 0
M  V30 14875 N 1411.59 0.596556 1.45873 0
M  V30 14876 C 1412.83 0.0875879 2.02611 0
M  V30 14877 C 1413.16 -1.27438 1.46538 0
M  V30 14878 O 1412.44 -1.83815 0.635779 0
M  V30 14879 C 1412.72 0.0367394 3.60081 0
M  V30 14880 C 1412.58 1.42859 4.26511 0
M  V30 14881 C 1413.89 -0.656795 4.35171 0
M  V30 14882 H 1411.01 0.0333031 0.736247 0
M  V30 14883 H 1413.66 0.766413 1.73857 0
M  V30 14884 H 1411.81 -0.541345 3.8471 0
M  V30 14885 H 1413.48 2.0529 4.13102 0
M  V30 14886 H 1411.72 1.99243 3.85337 0
M  V30 14887 H 1412.39 1.34535 5.35354 0
M  V30 14888 H 1414.87 -0.165553 4.15771 0
M  V30 14889 H 1413.74 -0.661445 5.449 0
M  V30 14890 H 1414 -1.72079 4.07236 0
M  V30 14891 N 1413.06 -1.53996 0.335095 0
M  V30 14892 C 1413.99 -2.2768 -0.518087 0
M  V30 14893 C 1414.97 -1.28915 -1.10972 0
M  V30 14894 O 1416.16 -1.57745 -1.1327 0
M  V30 14895 C 1413.29 -3.04327 -1.67339 0
M  V30 14896 C 1412.24 -4.10525 -1.2105 0
M  V30 14897 C 1411.57 -4.75078 -2.45366 0
M  V30 14898 C 1412.87 -5.21337 -0.317055 0
M  V30 14899 H 1414.56 -2.99244 0.0965669 0
M  V30 14900 H 1412.11 -1.4392 0.0478842 0
M  V30 14901 H 1414.06 -3.54608 -2.27664 0
M  V30 14902 H 1412.79 -2.30399 -2.31481 0
M  V30 14903 H 1411.45 -3.61144 -0.630124 0
M  V30 14904 H 1411.09 -3.97754 -3.07897 0
M  V30 14905 H 1410.79 -5.46822 -2.1508 0
M  V30 14906 H 1412.32 -5.2814 -3.06432 0
M  V30 14907 H 1413.73 -5.67305 -0.826905 0
M  V30 14908 H 1412.13 -6.00006 -0.106458 0
M  V30 14909 H 1413.2 -4.80536 0.649068 0
M  V30 14910 N 1414.54 -0.0635198 -1.57472 0
M  V30 14911 C 1415.47 0.90431 -2.15278 0
M  V30 14912 C 1416.45 1.31609 -1.07764 0
M  V30 14913 O 1417.64 1.38861 -1.35762 0
M  V30 14914 C 1414.77 2.17483 -2.70774 0
M  V30 14915 C 1413.72 1.90272 -3.8338 0
M  V30 14916 C 1413.05 3.23885 -4.25444 0
M  V30 14917 C 1414.35 1.21454 -5.07983 0
M  V30 14918 H 1416.04 0.422786 -2.964 0
M  V30 14919 H 1413.59 0.201918 -1.42577 0
M  V30 14920 H 1415.54 2.856 -3.09856 0
M  V30 14921 H 1414.26 2.67863 -1.86861 0
M  V30 14922 H 1412.92 1.24564 -3.44789 0
M  V30 14923 H 1412.57 3.72089 -3.38465 0
M  V30 14924 H 1412.27 3.06472 -5.01347 0
M  V30 14925 H 1413.8 3.93212 -4.67137 0
M  V30 14926 H 1415.21 1.79625 -5.44433 0
M  V30 14927 H 1413.61 1.14327 -5.89109 0
M  V30 14928 H 1414.68 0.19238 -4.84518 0
M  V30 14929 N 1416.02 1.56195 0.209972 0
M  V30 14930 C 1417.24 1.84189 0.953364 0
M  V30 14931 C 1417.67 0.645288 1.76685 0
M  V30 14932 O 1417.03 -0.405962 1.76696 0
M  V30 14933 C 1417.08 3.10281 1.83733 0
M  V30 14934 O 1416.18 2.89788 2.93422 0
M  V30 14935 H 1415.52 0.606931 0.269314 0
M  V30 14936 H 1418.05 2.03416 0.219783 0
M  V30 14937 H 1418.06 3.40688 2.2449 0
M  V30 14938 H 1416.74 3.97 1.23951 0
M  V30 14939 H 1415.31 2.70643 2.56528 0
M  V30 14940 N 1417.5 -0.477127 1.50204 0
M  V30 14941 C 1418.43 -1.59319 1.64773 0
M  V30 14942 C 1419.44 -1.53951 0.529427 0
M  V30 14943 O 1420.63 -1.59449 0.802388 0
M  V30 14944 C 1417.73 -2.98185 1.61055 0
M  V30 14945 C 1416.9 -3.28486 2.88817 0
M  V30 14946 C 1415.96 -4.46878 2.77825 0
M  V30 14947 O 1414.99 -4.47483 3.51778 0
M  V30 14948 N 1416.19 -5.48187 1.90974 0
M  V30 14949 H 1418.96 -1.4724 2.61037 0
M  V30 14950 H 1416.52 -0.66544 1.47592 0
M  V30 14951 H 1418.51 -3.75345 1.51323 0
M  V30 14952 H 1417.08 -3.04064 0.725509 0
M  V30 14953 H 1416.3 -2.39997 3.12722 0
M  V30 14954 H 1417.59 -3.4554 3.7347 0
M  V30 14955 H 1416.99 -5.50515 1.30192 0
M  V30 14956 H 1415.54 -6.24355 1.87148 0
M  V30 14957 N 1418.98 -1.3968 -0.729882 0
M  V30 14958 C 1420.2 -1.40654 -1.52418 0
M  V30 14959 C 1420.63 -0.00428997 -1.881 0
M  V30 14960 O 1419.98 0.984023 -1.52272 0
M  V30 14961 C 1420.03 -2.29057 -2.78506 0
M  V30 14962 O 1419.14 -1.72397 -3.74637 0
M  V30 14963 H 1418.48 -0.478761 -0.460091 0
M  V30 14964 H 1421.01 -1.83738 -0.900087 0
M  V30 14965 H 1421.02 -2.43748 -3.27187 0
M  V30 14966 H 1419.69 -3.30961 -2.51868 0
M  V30 14967 H 1418.27 -1.66977 -3.33426 0
M  V30 14968 N 1420.45 0.960609 -1.2494 0
M  V30 14969 C 1421.68 1.7446 -1.12153 0
M  V30 14970 C 1422.1 1.85335 0.321315 0
M  V30 14971 O 1421.46 1.32944 1.23271 0
M  V30 14972 C 1421.51 3.13945 -1.774 0
M  V30 14973 O 1420.61 3.9882 -1.04958 0
M  V30 14974 H 1419.96 0.536007 -0.391909 0
M  V30 14975 H 1422.49 1.2045 -1.65388 0
M  V30 14976 H 1422.5 3.64434 -1.83444 0
M  V30 14977 H 1421.17 3.05346 -2.82377 0
M  V30 14978 H 1419.75 3.57293 -1.06752 0
M  V30 14979 N 1421.93 1.0643 1.16234 0
M  V30 14980 C 1423.18 0.77689 1.86138 0
M  V30 14981 C 1423.49 -0.699301 1.82672 0
M  V30 14982 O 1424.7 -1.10113 2.48168 0
M  V30 14983 C 1423.16 1.3396 3.3404 0
M  V30 14984 C 1422.76 2.84613 3.45976 0
M  V30 14985 C 1424.51 1.12979 4.09189 0
M  V30 14986 C 1422.42 3.34122 4.87972 0
M  V30 14987 H 1421.35 0.286936 0.697269 0
M  V30 14988 H 1424 1.28318 1.31174 0
M  V30 14989 H 1422.38 0.761073 3.88618 0
M  V30 14990 H 1423.55 3.48429 3.01552 0
M  V30 14991 H 1421.87 3.04277 2.84262 0
M  V30 14992 H 1424.46 1.47456 5.13966 0
M  V30 14993 H 1424.81 0.0682424 4.16244 0
M  V30 14994 H 1425.34 1.67418 3.60855 0
M  V30 14995 H 1422.08 4.39761 4.86097 0
M  V30 14996 H 1421.6 2.75055 5.33015 0
M  V30 14997 H 1423.28 3.29529 5.56794 0
M  V30 14998 N 1423.41 -1.329 0.847073 0
M  V30 14999 C 1424.82 -1.79813 0.502394 0
M  V30 15000 C 1425.17 -1.70017 -0.979218 0
M  V30 15001 O 1424.3 -1.25427 -1.76344 0
M  V30 15002 C 1424.89 -3.26485 0.905154 0
M  V30 15003 C 1423.45 -3.71383 0.612489 0
M  V30 15004 C 1422.6 -2.54157 1.10903 0
M  V30 15005 H 1425.55 -1.20306 1.035 0
M  V30 15006 H 1425.57 -3.79872 0.218476 0
M  V30 15007 H 1425.08 -3.33583 1.98353 0
M  V30 15008 H 1423.18 -3.69806 -0.45548 0
M  V30 15009 H 1423.3 -4.64507 1.17347 0
M  V30 15010 H 1421.66 -2.49134 0.529576 0
M  V30 15011 H 1422.44 -2.64013 2.19435 0
M  V30 15012 N 1424.89 -0.604284 -1.45555 0
M  V30 15013 C 1425.8 0.118409 -2.34301 0
M  V30 15014 C 1426.81 0.863807 -1.51044 0
M  V30 15015 O 1427.99 0.822138 -1.83856 0
M  V30 15016 C 1425.06 1.10538 -3.28606 0
M  V30 15017 C 1424.12 0.362301 -4.27768 0
M  V30 15018 C 1423.35 1.30226 -5.17568 0
M  V30 15019 O 1423.57 2.53991 -5.10729 0
M  V30 15020 O 1422.51 0.801116 -5.96545 0
M  V30 15021 H 1426.33 -0.610816 -2.97494 0
M  V30 15022 H 1423.92 -0.364562 -1.44884 0
M  V30 15023 H 1425.8 1.67392 -3.86727 0
M  V30 15024 H 1424.47 1.81569 -2.67982 0
M  V30 15025 H 1423.38 -0.248616 -3.73273 0
M  V30 15026 H 1424.71 -0.307454 -4.91239 0
M  V30 15027 N 1426.37 1.53816 -0.343257 0
M  V30 15028 C 1427.59 2.05326 0.254744 0
M  V30 15029 C 1428.01 1.21824 1.44237 0
M  V30 15030 O 1427.37 0.253507 1.80731 0
M  V30 15031 C 1427.42 3.55235 0.670075 0
M  V30 15032 O 1427.14 4.35568 -0.470322 0
M  V30 15033 C 1428.64 4.22915 1.32882 0
M  V30 15034 H 1425.86 0.669191 0.0492324 0
M  V30 15035 H 1428.4 1.98415 -0.495159 0
M  V30 15036 H 1426.56 3.6237 1.36992 0
M  V30 15037 H 1426.97 5.24315 -0.139303 0
M  V30 15038 H 1428.45 5.29197 1.57019 0
M  V30 15039 H 1428.92 3.75244 2.28229 0
M  V30 15040 H 1429.53 4.19973 0.67102 0
M  V30 15041 N 1427.84 0.0718701 1.57436 0
M  V30 15042 C 1429.09 -0.596799 1.92669 0
M  V30 15043 C 1429.41 -1.70765 0.953876 0
M  V30 15044 O 1430.61 -2.43589 1.19903 0
M  V30 15045 C 1429.07 -1.11291 3.42261 0
M  V30 15046 C 1428.68 -0.0330681 4.47988 0
M  V30 15047 C 1430.42 -1.75564 3.86494 0
M  V30 15048 C 1428.33 -0.56323 5.88712 0
M  V30 15049 H 1427.26 -0.226695 0.719114 0
M  V30 15050 H 1429.91 0.144117 1.82933 0
M  V30 15051 H 1428.29 -1.9068 3.4707 0
M  V30 15052 H 1429.46 0.741501 4.54795 0
M  V30 15053 H 1427.78 0.513438 4.13222 0
M  V30 15054 H 1430.38 -2.16261 4.89014 0
M  V30 15055 H 1430.72 -2.61566 3.23865 0
M  V30 15056 H 1431.25 -1.02798 3.84288 0
M  V30 15057 H 1427.99 0.259632 6.54986 0
M  V30 15058 H 1427.51 -1.30532 5.85424 0
M  V30 15059 H 1429.19 -1.03961 6.38593 0
M  V30 15060 N 1429.32 -1.56304 -0.201686 0
M  V30 15061 C 1430.25 -1.97046 -1.25281 0
M  V30 15062 C 1431.23 -0.841458 -1.47829 0
M  V30 15063 O 1432.42 -1.10529 -1.59678 0
M  V30 15064 C 1429.55 -2.30429 -2.59845 0
M  V30 15065 C 1428.5 -3.46006 -2.5192 0
M  V30 15066 C 1427.83 -3.65047 -3.90697 0
M  V30 15067 C 1429.13 -4.80391 -2.04992 0
M  V30 15068 H 1430.82 -2.85099 -0.914272 0
M  V30 15069 H 1428.37 -1.37166 -0.438359 0
M  V30 15070 H 1430.32 -2.57525 -3.33555 0
M  V30 15071 H 1429.05 -1.39251 -2.95426 0
M  V30 15072 H 1427.7 -3.18991 -1.80667 0
M  V30 15073 H 1427.35 -2.71211 -4.2362 0
M  V30 15074 H 1427.05 -4.42796 -3.86271 0
M  V30 15075 H 1428.58 -3.94512 -4.66039 0
M  V30 15076 H 1429.99 -5.06561 -2.68456 0
M  V30 15077 H 1428.39 -5.61563 -2.11582 0
M  V30 15078 H 1429.46 -4.74416 -1.00288 0
M  V30 15079 N 1430.8 0.469154 -1.50455 0
M  V30 15080 C 1431.71 1.59271 -1.7225 0
M  V30 15081 C 1432.73 1.63119 -0.605668 0
M  V30 15082 O 1433.9 1.80952 -0.884222 0
M  V30 15083 C 1430.97 2.95475 -1.81372 0
M  V30 15084 C 1430.03 3.02 -3.05114 0
M  V30 15085 C 1429.26 4.31707 -3.13791 0
M  V30 15086 O 1429.48 5.2232 -2.29211 0
M  V30 15087 O 1428.42 4.43864 -4.06532 0
M  V30 15088 H 1432.24 1.43804 -2.67496 0
M  V30 15089 H 1429.83 0.648855 -1.34574 0
M  V30 15090 H 1431.71 3.76367 -1.89541 0
M  V30 15091 H 1430.39 3.11136 -0.893094 0
M  V30 15092 H 1429.29 2.20178 -3.02444 0
M  V30 15093 H 1430.63 2.91275 -3.96761 0
M  V30 15094 N 1432.28 1.40065 0.722464 0
M  V30 15095 C 1433.21 1.42532 1.84951 0
M  V30 15096 C 1434.19 0.287082 1.6766 0
M  V30 15097 O 1435.37 0.494715 1.87793 0
M  V30 15098 C 1432.5 1.28041 3.22836 0
M  V30 15099 C 1431.46 2.39396 3.54787 0
M  V30 15100 C 1430.78 2.09986 4.91742 0
M  V30 15101 C 1432.08 3.81729 3.56483 0
M  V30 15102 H 1433.78 2.36851 1.83144 0
M  V30 15103 H 1431.32 1.14005 0.879714 0
M  V30 15104 H 1433.28 1.28385 4.01367 0
M  V30 15105 H 1432 0.301947 3.25201 0
M  V30 15106 H 1430.66 2.3829 2.78592 0
M  V30 15107 H 1430.31 1.10547 4.90702 0
M  V30 15108 H 1430.01 2.84586 5.14086 0
M  V30 15109 H 1431.53 2.12 5.72615 0
M  V30 15110 H 1432.95 3.84696 4.25067 0
M  V30 15111 H 1431.34 4.55791 3.90351 0
M  V30 15112 H 1432.41 4.11807 2.56014 0
M  V30 15113 N 1433.76 -0.95397 1.25448 0
M  V30 15114 C 1434.99 -1.73331 1.12977 0
M  V30 15115 C 1435.4 -1.86131 -0.316364 0
M  V30 15116 O 1434.76 -1.35951 -1.21753 0
M  V30 15117 C 1434.81 -3.14675 1.77938 0
M  V30 15118 O 1434.53 -3.025 3.16899 0
M  V30 15119 C 1436.03 -4.08884 1.71256 0
M  V30 15120 H 1433.25 -0.543118 0.394036 0
M  V30 15121 H 1435.79 -1.19678 1.65823 0
M  V30 15122 H 1433.95 -3.6527 1.29062 0
M  V30 15123 H 1434.36 -3.91668 3.4885 0
M  V30 15124 H 1435.84 -5.05668 2.21368 0
M  V30 15125 H 1436.31 -4.33959 0.676476 0
M  V30 15126 H 1436.92 -3.64205 2.19624 0
M  V30 15127 N 1435.24 -1.07045 -1.15668 0
M  V30 15128 C 1436.51 -0.704942 -1.82455 0
M  V30 15129 C 1436.89 0.812921 -1.9482 0
M  V30 15130 O 1436.24 1.72615 -1.49721 0
M  V30 15131 C 1436.45 -1.41574 -3.18995 0
M  V30 15132 C 1437.8 -1.56584 -3.94673 0
M  V30 15133 O 1438.82 -1.37626 -3.28538 0
M  V30 15134 O 1437.68 -1.87751 -5.13237 0
M  V30 15135 H 1434.78 -0.250469 -0.788159 0
M  V30 15136 H 1437.32 -1.17118 -1.22806 0
M  V30 15137 H 1436.09 -2.4504 -3.05075 0
M  V30 15138 H 1435.72 -0.940071 -3.86327 0
M  V30 15139 N 1436.71 1.32449 -0.85411 0
M  V30 15140 C 1437.68 2.27183 -0.303377 0
M  V30 15141 C 1438.68 1.51582 0.536622 0
M  V30 15142 O 1439.87 1.70684 0.348211 0
M  V30 15143 C 1437 3.36086 0.570852 0
M  V30 15144 H 1438.19 2.77408 -1.1395 0
M  V30 15145 H 1435.74 1.43111 -0.628402 0
M  V30 15146 H 1436.48 2.91128 1.42881 0
M  V30 15147 H 1436.26 3.92088 -0.030399 0
M  V30 15148 H 1437.75 4.06675 0.948972 0
M  V30 15149 N 1438.19 0.611994 1.45232 0
M  V30 15150 C 1439.12 -0.0914869 2.33321 0
M  V30 15151 C 1440.1 -0.854315 1.4709 0
M  V30 15152 O 1441.29 -0.823994 1.75852 0
M  V30 15153 C 1438.42 -1.08652 3.29867 0
M  V30 15154 C 1437.37 -0.436615 4.25767 0
M  V30 15155 C 1436.7 -1.54021 5.12037 0
M  V30 15156 C 1438 0.645005 5.18302 0
M  V30 15157 H 1439.69 0.644053 2.92391 0
M  V30 15158 H 1437.24 0.311171 1.40598 0
M  V30 15159 H 1439.19 -1.58726 3.90364 0
M  V30 15160 H 1437.91 -1.85271 2.68965 0
M  V30 15161 H 1436.57 0.0432918 3.66574 0
M  V30 15162 H 1436.22 -2.29679 4.475 0
M  V30 15163 H 1435.92 -1.11084 5.77005 0
M  V30 15164 H 1437.45 -2.04313 5.75403 0
M  V30 15165 H 1438.86 0.228166 5.72846 0
M  V30 15166 H 1437.26 0.996387 5.9177 0
M  V30 15167 H 1438.33 1.51985 4.60466 0
M  V30 15168 N 1439.67 -1.53632 0.351409 0
M  V30 15169 C 1440.63 -2.23916 -0.489293 0
M  V30 15170 C 1441.63 -1.24207 -1.02124 0
M  V30 15171 O 1442.82 -1.48589 -0.909235 0
M  V30 15172 C 1439.95 -2.96492 -1.68242 0
M  V30 15173 H 1441.15 -2.99637 0.125518 0
M  V30 15174 H 1438.7 -1.55961 0.102874 0
M  V30 15175 H 1439.44 -2.24978 -2.33571 0
M  V30 15176 H 1439.22 -3.69637 -1.3081 0
M  V30 15177 H 1440.71 -3.49961 -2.27853 0
M  V30 15178 N 1441.15 -0.0802183 -1.57396 0
M  V30 15179 C 1442.08 0.881426 -2.16225 0
M  V30 15180 C 1443.06 1.30459 -1.09154 0
M  V30 15181 O 1444.24 1.37413 -1.37227 0
M  V30 15182 C 1441.37 2.14599 -2.73065 0
M  V30 15183 C 1440.33 1.86195 -3.85377 0
M  V30 15184 C 1439.65 3.19354 -4.28856 0
M  V30 15185 C 1440.95 1.16059 -5.09242 0
M  V30 15186 H 1442.65 0.391325 -2.96832 0
M  V30 15187 H 1440.19 0.186785 -1.42783 0
M  V30 15188 H 1442.15 2.82297 -3.12868 0
M  V30 15189 H 1440.87 2.65866 -1.89691 0
M  V30 15190 H 1439.53 1.209 -3.46091 0
M  V30 15191 H 1439.18 3.68479 -3.42392 0
M  V30 15192 H 1438.88 3.01137 -5.04569 0
M  V30 15193 H 1440.4 3.88235 -4.71281 0
M  V30 15194 H 1441.82 1.7384 -5.46308 0
M  V30 15195 H 1440.21 1.08072 -5.90288 0
M  V30 15196 H 1441.28 0.14098 -4.84695 0
M  V30 15197 N 1442.63 1.56409 0.193394 0
M  V30 15198 C 1443.87 1.80367 0.911717 0
M  V30 15199 C 1444.19 0.653561 1.83721 0
M  V30 15200 O 1443.46 -0.328001 1.93135 0
M  V30 15201 H 1442.04 0.665316 0.339652 0
M  V30 15202 H 1444.71 1.93887 0.198496 0
M  V30 15203 H 1443.8 2.7359 1.50182 0
M  V30 15204 N 1444.1 -0.461169 1.50702 0
M  V30 15205 C 1445.04 -1.57702 1.64941 0
M  V30 15206 C 1446.01 -1.54808 0.497312 0
M  V30 15207 O 1447.2 -1.74286 0.718104 0
M  V30 15208 C 1444.33 -2.96285 1.64112 0
M  V30 15209 C 1443.37 -3.17296 2.85001 0
M  V30 15210 S 1444.2 -2.96134 4.46167 0
M  V30 15211 C 1445.36 -4.37042 4.48046 0
M  V30 15212 H 1445.59 -1.45386 2.59327 0
M  V30 15213 H 1443.13 -0.649209 1.40088 0
M  V30 15214 H 1445.08 -3.76178 1.64318 0
M  V30 15215 H 1443.75 -3.05983 0.709442 0
M  V30 15216 H 1442.94 -4.18561 2.80754 0
M  V30 15217 H 1442.54 -2.45191 2.82413 0
M  V30 15218 H 1444.83 -5.29846 4.2222 0
M  V30 15219 H 1445.78 -4.4633 5.49723 0
M  V30 15220 H 1446.18 -4.19584 3.77637 0
M  V30 15221 N 1445.58 -1.40446 -0.715026 0
M  V30 15222 C 1446.51 -1.35159 -1.83868 0
M  V30 15223 C 1447.49 -0.221884 -1.61079 0
M  V30 15224 O 1448.68 -0.405635 -1.84084 0
M  V30 15225 C 1445.8 -1.10358 -3.20217 0
M  V30 15226 C 1444.85 -2.25787 -3.61832 0
M  V30 15227 S 1445.68 -3.88183 -3.68882 0
M  V30 15228 C 1446.84 -3.65647 -5.07989 0
M  V30 15229 H 1447.07 -2.30252 -1.88073 0
M  V30 15230 H 1444.6 -1.26738 -0.881859 0
M  V30 15231 H 1446.56 -0.967343 -3.9894 0
M  V30 15232 H 1445.22 -0.169178 -3.13644 0
M  V30 15233 H 1444.42 -2.04078 -4.60834 0
M  V30 15234 H 1444.02 -2.35717 -2.90368 0
M  V30 15235 H 1446.31 -3.24149 -5.94923 0
M  V30 15236 H 1447.25 -4.64182 -5.34734 0
M  V30 15237 H 1447.66 -2.99322 -4.78609 0
M  V30 15238 N 1447.06 0.947303 -1.25952 0
M  V30 15239 C 1448.31 1.6953 -1.11299 0
M  V30 15240 C 1448.64 1.9113 0.343961 0
M  V30 15241 O 1447.91 1.48755 1.25309 0
M  V30 15242 C 1448.2 3.0738 -1.87588 0
M  V30 15243 C 1448.05 2.93145 -3.41154 0
M  V30 15244 C 1449.37 4.07396 -1.66483 0
M  V30 15245 H 1446.49 0.615281 -0.405707 0
M  V30 15246 H 1449.13 1.10064 -1.54874 0
M  V30 15247 H 1447.28 3.58143 -1.50553 0
M  V30 15248 H 1448.95 2.49651 -3.87907 0
M  V30 15249 H 1447.19 2.28902 -3.68492 0
M  V30 15250 H 1447.87 3.9089 -3.89755 0
M  V30 15251 H 1450.34 3.65572 -1.98738 0
M  V30 15252 H 1449.22 5.01876 -2.22287 0
M  V30 15253 H 1449.48 4.379 -0.607916 0
M  V30 15254 N 1448.54 1.07657 1.15099 0
M  V30 15255 C 1449.47 0.721201 2.22083 0
M  V30 15256 C 1450.45 -0.292808 1.67561 0
M  V30 15257 O 1451.63 -0.164872 1.93499 0
M  V30 15258 C 1448.76 0.12153 3.47087 0
M  V30 15259 C 1447.72 1.06303 4.14588 0
M  V30 15260 C 1447.04 0.325964 5.33706 0
M  V30 15261 C 1448.34 2.39796 4.63999 0
M  V30 15262 H 1450.04 1.61566 2.52065 0
M  V30 15263 H 1447.58 0.778282 1.21156 0
M  V30 15264 H 1449.54 -0.139037 4.21171 0
M  V30 15265 H 1448.26 -0.808022 3.16447 0
M  V30 15266 H 1446.92 1.30858 3.4245 0
M  V30 15267 H 1446.57 -0.607147 4.99322 0
M  V30 15268 H 1446.27 0.953552 5.79811 0
M  V30 15269 H 1447.79 0.0732695 6.10556 0
M  V30 15270 H 1449.21 2.19552 5.29594 0
M  V30 15271 H 1447.6 2.98178 5.20778 0
M  V30 15272 H 1448.67 3.01876 3.79472 0
M  V30 15273 N 1450.02 -1.31994 0.861122 0
M  V30 15274 C 1450.96 -2.28729 0.308476 0
M  V30 15275 C 1451.93 -1.55338 -0.588148 0
M  V30 15276 O 1453.12 -1.8353 -0.52168 0
M  V30 15277 C 1450.26 -3.4158 -0.491621 0
M  V30 15278 C 1449.37 -4.29839 0.431522 0
M  V30 15279 C 1448.51 -5.29826 -0.381836 0
M  V30 15280 C 1447.55 -6.09728 0.538296 0
M  V30 15281 N 1446.68 -7.01696 -0.238274 0
M  V30 15282 H 1451.52 -2.75389 1.13863 0
M  V30 15283 H 1449.06 -1.35485 0.572911 0
M  V30 15284 H 1451.02 -4.05738 -0.971193 0
M  V30 15285 H 1449.65 -2.96054 -1.28654 0
M  V30 15286 H 1448.7 -3.66204 1.02951 0
M  V30 15287 H 1450.01 -4.85658 1.13742 0
M  V30 15288 H 1449.17 -5.99618 -0.924297 0
M  V30 15289 H 1447.9 -4.7464 -1.12107 0
M  V30 15290 H 1446.91 -5.38834 1.09259 0
M  V30 15291 H 1448.13 -6.67 1.27625 0
M  V30 15292 H 1446.08 -6.4893 -0.960486 0
M  V30 15293 H 1446 -7.54896 0.408466 0
M  V30 15294 H 1447.27 -7.75764 -0.762252 0
M  V30 15295 N 1451.49 -0.619688 -1.44906 0
M  V30 15296 C 1452.43 0.141137 -2.27763 0
M  V30 15297 C 1453.41 0.862176 -1.3786 0
M  V30 15298 O 1454.59 0.868593 -1.67295 0
M  V30 15299 C 1451.72 1.20547 -3.16522 0
M  V30 15300 C 1450.76 0.586228 -4.22452 0
M  V30 15301 S 1451.6 -0.615067 -5.31956 0
M  V30 15302 C 1452.75 0.449556 -6.24283 0
M  V30 15303 H 1452.98 -0.561806 -2.91944 0
M  V30 15304 H 1450.52 -0.407535 -1.48925 0
M  V30 15305 H 1452.48 1.81463 -3.68214 0
M  V30 15306 H 1451.14 1.88054 -2.51584 0
M  V30 15307 H 1450.33 1.38744 -4.84527 0
M  V30 15308 H 1449.93 0.0519375 -3.73964 0
M  V30 15309 H 1452.22 1.32531 -6.64411 0
M  V30 15310 H 1453.17 -0.135328 -7.07971 0
M  V30 15311 H 1453.57 0.770319 -5.59219 0
M  V30 15312 N 1452.97 1.53444 -0.359552 0
M  V30 15313 C 1454.22 2.01464 0.232366 0
M  V30 15314 C 1454.55 1.24656 1.48911 0
M  V30 15315 O 1453.83 0.338574 1.9153 0
M  V30 15316 C 1454.11 3.56172 0.530403 0
M  V30 15317 C 1453.96 4.43678 -0.739556 0
M  V30 15318 C 1455.28 4.19412 1.33347 0
M  V30 15319 H 1452.4 0.732314 0.0829802 0
M  V30 15320 H 1455.04 1.83752 -0.483253 0
M  V30 15321 H 1453.19 3.71396 1.14004 0
M  V30 15322 H 1454.86 4.40263 -1.37719 0
M  V30 15323 H 1453.11 4.11892 -1.36117 0
M  V30 15324 H 1453.78 5.49856 -0.486062 0
M  V30 15325 H 1456.25 4.07984 0.817816 0
M  V30 15326 H 1455.13 5.277 1.51075 0
M  V30 15327 H 1455.39 3.7508 2.34024 0
M  V30 15328 N 1454.45 0.0885642 1.57351 0
M  V30 15329 C 1455.87 -0.268088 1.57332 0
M  V30 15330 C 1456.07 -1.68875 1.09924 0
M  V30 15331 O 1455.12 -2.40385 0.772729 0
M  V30 15332 C 1456.44 -0.0624654 3.00635 0
M  V30 15333 C 1457.98 -0.130717 3.12727 0
M  V30 15334 C 1458.46 0.0468305 4.57976 0
M  V30 15335 N 1459.95 -0.00822093 4.63199 0
M  V30 15336 C 1460.68 0.104497 5.73305 0
M  V30 15337 N 1460.18 0.271682 6.92267 0
M  V30 15338 N 1461.97 0.0462333 5.62081 0
M  V30 15339 H 1454.12 1.01686 1.86477 0
M  V30 15340 H 1456.39 0.397971 0.86042 0
M  V30 15341 H 1456.09 0.918505 3.39494 0
M  V30 15342 H 1455.97 -0.807602 3.68453 0
M  V30 15343 H 1458.35 -1.10219 2.73744 0
M  V30 15344 H 1458.44 0.645801 2.47514 0
M  V30 15345 H 1458.08 1.01514 4.97652 0
M  V30 15346 H 1458.01 -0.7493 5.21242 0
M  V30 15347 H 1460.5 -0.135164 3.77658 0
M  V30 15348 H 1460.81 0.349381 7.7201 0
M  V30 15349 H 1459.16 0.307265 6.9432 0
M  V30 15350 H 1462.35 -0.0831995 4.68026 0
M  V30 15351 H 1462.52 0.137529 6.47854 0
M  V30 15352 N 1455.93 -1.56509 -0.185096 0
M  V30 15353 C 1456.88 -1.96237 -1.24875 0
M  V30 15354 C 1457.87 -0.849169 -1.46579 0
M  V30 15355 O 1459.08 -1.03422 -1.47322 0
M  V30 15356 H 1455.45 -0.624147 -0.419457 0
M  V30 15357 H 1457.42 -2.8492 -0.88673 0
M  V30 15358 C 1456.17 -2.32667 -2.58382 0
M  V30 15359 H 1455.49 -3.17858 -2.425 0
M  V30 15360 H 1456.93 -2.6432 -3.31528 0
M  V30 15361 C 1455.39 -1.16496 -3.16118 0
M  V30 15362 O 1455.92 -0.445283 -3.99224 0
M  V30 15363 N 1454.13 -0.939133 -2.75007 0
M  V30 15364 H 1453.68 -1.52611 -2.07527 0
M  V30 15365 H 1453.63 -0.163659 -3.13974 0
M  V30 15366 N 1457.41 0.45317 -1.50944 0
M  V30 15367 C 1458.34 1.56825 -1.65775 0
M  V30 15368 C 1459.32 1.54542 -0.505515 0
M  V30 15369 O 1460.5 1.73902 -0.727336 0
M  V30 15370 C 1457.63 2.95411 -1.65681 0
M  V30 15371 C 1456.67 3.1578 -2.8668 0
M  V30 15372 S 1457.51 2.93763 -4.47731 0
M  V30 15373 C 1458.66 4.34659 -4.50358 0
M  V30 15374 H 1458.9 1.44008 -2.60094 0
M  V30 15375 H 1456.43 0.64177 -1.4043 0
M  V30 15376 H 1458.39 3.75301 -1.66311 0
M  V30 15377 H 1457.05 3.05603 -0.725659 0
M  V30 15378 H 1456.24 4.17066 -2.8297 0
M  V30 15379 H 1455.84 2.4369 -2.8371 0
M  V30 15380 H 1458.14 5.27599 -4.25024 0
M  V30 15381 H 1459.08 4.43408 -5.52082 0
M  V30 15382 H 1459.49 4.17575 -3.79857 0
M  V30 15383 N 1458.88 1.40823 0.707568 0
M  V30 15384 C 1459.79 1.44058 1.85161 0
M  V30 15385 C 1460.81 0.332357 1.70796 0
M  V30 15386 O 1461.99 0.578205 1.92922 0
M  V30 15387 C 1459.05 1.3091 3.21035 0
M  V30 15388 C 1458.11 2.51944 3.47595 0
M  V30 15389 C 1457.35 2.39414 4.76987 0
M  V30 15390 O 1457.57 1.41224 5.52641 0
M  V30 15391 O 1456.5 3.28944 5.04063 0
M  V30 15392 H 1460.33 2.40551 1.85388 0
M  V30 15393 H 1457.91 1.22232 0.859052 0
M  V30 15394 H 1459.8 1.25816 4.02179 0
M  V30 15395 H 1458.47 0.375263 3.21517 0
M  V30 15396 H 1457.38 2.62615 2.66428 0
M  V30 15397 H 1458.71 3.44115 3.51917 0
M  V30 15398 N 1460.36 -0.94061 1.26453 0
M  V30 15399 C 1461.31 -2.03941 1.08059 0
M  V30 15400 C 1462.28 -1.66094 -0.0145388 0
M  V30 15401 O 1463.46 -1.90246 0.145338 0
M  V30 15402 C 1460.6 -3.37501 0.720228 0
M  V30 15403 C 1459.72 -3.88381 1.89167 0
M  V30 15404 C 1458.85 -5.10329 1.47437 0
M  V30 15405 C 1457.89 -5.53473 2.61408 0
M  V30 15406 N 1457.03 -6.66624 2.20355 0
M  V30 15407 H 1461.87 -2.19006 2.0209 0
M  V30 15408 H 1459.41 -1.07305 1.00618 0
M  V30 15409 H 1461.36 -4.14287 0.492177 0
M  V30 15410 H 1459.99 -3.2228 -0.183101 0
M  V30 15411 H 1459.05 -3.0799 2.23264 0
M  V30 15412 H 1460.36 -4.16338 2.74708 0
M  V30 15413 H 1459.51 -5.94577 1.20679 0
M  V30 15414 H 1458.25 -4.8412 0.589873 0
M  V30 15415 H 1457.26 -4.67782 2.88894 0
M  V30 15416 H 1458.48 -5.81684 3.50458 0
M  V30 15417 H 1456.43 -6.42097 1.34341 0
M  V30 15418 H 1456.34 -6.9417 2.99439 0
M  V30 15419 H 1457.61 -7.54245 1.96811 0
M  V30 15420 N 1461.84 -1.08266 -1.14527 0
M  V30 15421 C 1463.07 -0.831673 -1.89121 0
M  V30 15422 C 1463.48 0.619702 -1.78763 0
M  V30 15423 O 1462.82 1.43748 -1.14377 0
M  V30 15424 C 1462.88 -1.17276 -3.39833 0
M  V30 15425 C 1462.55 -2.62662 -3.73975 0
M  V30 15426 C 1463.54 -3.60913 -3.74216 0
M  V30 15427 C 1461.23 -2.9848 -4.03999 0
M  V30 15428 C 1463.22 -4.93012 -4.04002 0
M  V30 15429 C 1460.91 -4.30773 -4.33448 0
M  V30 15430 C 1461.91 -5.27849 -4.33433 0
M  V30 15431 O 1461.6 -6.57765 -4.6217 0
M  V30 15432 H 1461.33 -0.299687 -0.60594 0
M  V30 15433 H 1463.88 -1.44498 -1.45978 0
M  V30 15434 H 1462.11 -0.502458 -3.83422 0
M  V30 15435 H 1463.8 -0.902831 -3.95732 0
M  V30 15436 H 1464.57 -3.34585 -3.5111 0
M  V30 15437 H 1460.45 -2.23561 -4.03164 0
M  V30 15438 H 1463.99 -5.68776 -4.03906 0
M  V30 15439 H 1459.89 -4.5685 -4.56024 0
M  V30 15440 H 1460.66 -6.63057 -4.79893 0
M  V30 15441 N 1463.32 1.31536 -0.86811 0
M  V30 15442 C 1464.25 2.27486 -0.279749 0
M  V30 15443 C 1465.26 1.53006 0.556158 0
M  V30 15444 O 1466.45 1.74442 0.378454 0
M  V30 15445 C 1463.55 3.33139 0.622197 0
M  V30 15446 C 1462.73 4.37026 -0.180855 0
M  V30 15447 C 1461.79 5.22183 0.64894 0
M  V30 15448 O 1460.81 5.69147 0.0776395 0
M  V30 15449 N 1462.01 5.46365 1.96127 0
M  V30 15450 H 1464.78 2.78613 -1.1043 0
M  V30 15451 H 1462.34 1.44538 -0.729409 0
M  V30 15452 H 1464.33 3.87024 1.18297 0
M  V30 15453 H 1462.9 2.8207 1.34742 0
M  V30 15454 H 1462.12 3.8324 -0.923078 0
M  V30 15455 H 1463.41 5.03508 -0.731953 0
M  V30 15456 H 1462.81 5.09962 2.44857 0
M  V30 15457 H 1461.36 6.03192 2.46987 0
M  V30 15458 N 1464.8 0.627364 1.44575 0
M  V30 15459 C 1465.73 -0.066735 2.33405 0
M  V30 15460 C 1466.71 -0.838666 1.47988 0
M  V30 15461 O 1467.89 -0.805296 1.76716 0
M  V30 15462 C 1465.02 -1.05148 3.31 0
M  V30 15463 C 1463.98 -0.391433 4.26206 0
M  V30 15464 C 1463.3 -1.48581 5.13642 0
M  V30 15465 C 1464.6 0.699942 5.17589 0
M  V30 15466 H 1466.3 0.675029 2.91691 0
M  V30 15467 H 1463.84 0.326066 1.4026 0
M  V30 15468 H 1465.8 -1.54576 3.92026 0
M  V30 15469 H 1464.52 -1.82408 2.70915 0
M  V30 15470 H 1463.18 0.0821694 3.66508 0
M  V30 15471 H 1462.83 -2.2492 4.49911 0
M  V30 15472 H 1462.53 -1.04957 5.7815 0
M  V30 15473 H 1464.05 -1.98198 5.77538 0
M  V30 15474 H 1465.47 0.288911 5.72572 0
M  V30 15475 H 1463.86 1.0591 5.9068 0
M  V30 15476 H 1464.93 1.5686 4.58828 0
M  V30 15477 N 1466.28 -1.53251 0.367684 0
M  V30 15478 C 1467.24 -2.24423 -0.465516 0
M  V30 15479 C 1468.24 -1.25283 -1.00801 0
M  V30 15480 O 1469.43 -1.49545 -0.893424 0
M  V30 15481 C 1466.56 -2.9826 -1.65087 0
M  V30 15482 H 1467.75 -2.99487 0.157292 0
M  V30 15483 H 1465.31 -1.55843 0.119409 0
M  V30 15484 H 1466.04 -2.27443 -2.31171 0
M  V30 15485 H 1465.83 -3.71003 -1.26882 0
M  V30 15486 H 1467.32 -3.52358 -2.24128 0
M  V30 15487 N 1467.75 -0.0969077 -1.57302 0
M  V30 15488 C 1469 0.567212 -1.94706 0
M  V30 15489 C 1469.33 1.67721 -0.978937 0
M  V30 15490 O 1468.61 1.94496 -0.0123016 0
M  V30 15491 C 1468.89 1.12069 -3.42217 0
M  V30 15492 C 1468.74 0.015615 -4.49797 0
M  V30 15493 C 1470.06 2.0185 -3.91081 0
M  V30 15494 H 1467.18 0.204716 -0.707997 0
M  V30 15495 H 1469.82 -0.167984 -1.89256 0
M  V30 15496 H 1467.97 1.74723 -3.46993 0
M  V30 15497 H 1469.65 -0.61871 -4.57132 0
M  V30 15498 H 1467.89 -0.650529 -4.28895 0
M  V30 15499 H 1468.56 0.443724 -5.50214 0
M  V30 15500 H 1471.04 1.49098 -3.8847 0
M  V30 15501 H 1469.91 2.37502 -4.94858 0
M  V30 15502 H 1470.17 2.93659 -3.3048 0
M  V30 15503 N 1469.23 1.56605 0.176793 0
M  V30 15504 C 1470.46 1.85812 0.910019 0
M  V30 15505 C 1470.87 0.68164 1.76066 0
M  V30 15506 O 1470.23 -0.34936 1.79125 0
M  V30 15507 C 1470.28 3.14001 1.79125 0
M  V30 15508 O 1470 4.27114 0.974931 0
M  V30 15509 C 1471.5 3.56516 2.6346 0
M  V30 15510 H 1468.72 0.616608 0.264643 0
M  V30 15511 H 1471.27 2.03719 0.178537 0
M  V30 15512 H 1469.42 2.97937 2.47613 0
M  V30 15513 H 1469.84 5.00227 1.57711 0
M  V30 15514 H 1471.31 4.49128 3.20918 0
M  V30 15515 H 1471.79 2.80373 3.38065 0
M  V30 15516 H 1472.39 3.75173 2.00313 0
M  V30 15517 N 1470.71 -0.445159 1.51182 0
M  V30 15518 C 1471.96 -1.19215 1.62698 0
M  V30 15519 C 1472.27 -1.92529 0.345249 0
M  V30 15520 O 1473.48 -2.69367 0.33967 0
M  V30 15521 C 1471.93 -2.16762 2.87302 0
M  V30 15522 C 1471.54 -1.49131 4.2245 0
M  V30 15523 C 1473.29 -2.91942 3.08172 0
M  V30 15524 C 1471.19 -2.45117 5.38212 0
M  V30 15525 H 1470.12 -0.448687 0.605967 0
M  V30 15526 H 1472.77 -0.459956 1.77642 0
M  V30 15527 H 1471.16 -2.93383 2.65975 0
M  V30 15528 H 1472.33 -0.781222 4.54129 0
M  V30 15529 H 1470.64 -0.861342 4.07394 0
M  V30 15530 H 1473.24 -3.6383 3.91832 0
M  V30 15531 H 1473.58 -3.52837 2.20934 0
M  V30 15532 H 1474.12 -2.22429 3.29803 0
M  V30 15533 H 1470.86 -1.88923 6.27685 0
M  V30 15534 H 1470.38 -3.14202 5.10918 0
M  V30 15535 H 1472.06 -3.06411 5.69843 0
M  V30 15536 N 1472.19 -1.41197 -0.700089 0
M  V30 15537 C 1473.12 -1.37101 -1.82424 0
M  V30 15538 C 1474.1 -0.238956 -1.60835 0
M  V30 15539 O 1475.28 -0.425136 -1.83643 0
M  V30 15540 C 1472.41 -1.13748 -3.19028 0
M  V30 15541 C 1471.46 -2.29612 -3.59417 0
M  V30 15542 S 1472.29 -3.92074 -3.64744 0
M  V30 15543 C 1473.44 -3.71015 -5.04082 0
M  V30 15544 H 1473.68 -2.32234 -1.8562 0
M  V30 15545 H 1471.21 -1.27667 -0.868367 0
M  V30 15546 H 1473.17 -1.0096 -3.97891 0
M  V30 15547 H 1471.83 -0.202435 -3.13447 0
M  V30 15548 H 1471.02 -2.08954 -4.58644 0
M  V30 15549 H 1470.62 -2.38783 -2.87851 0
M  V30 15550 H 1472.92 -3.30441 -5.91452 0
M  V30 15551 H 1473.86 -4.69828 -5.29781 0
M  V30 15552 H 1474.27 -3.04382 -4.75407 0
M  V30 15553 N 1473.67 0.933891 -1.2695 0
M  V30 15554 C 1474.63 2.0152 -1.0919 0
M  V30 15555 C 1475.63 1.60755 -0.037865 0
M  V30 15556 O 1476.82 1.71904 -0.281917 0
M  V30 15557 C 1473.95 3.34403 -0.66239 0
M  V30 15558 H 1475.14 2.18706 -2.05201 0
M  V30 15559 H 1472.7 1.11385 -1.0965 0
M  V30 15560 H 1473.43 3.22915 0.299388 0
M  V30 15561 H 1473.22 3.65345 -1.42356 0
M  V30 15562 H 1474.71 4.13826 -0.560187 0
M  V30 15563 N 1475.14 1.08871 1.13951 0
M  V30 15564 C 1476.39 0.816198 1.84448 0
M  V30 15565 C 1476.71 -0.660396 1.84114 0
M  V30 15566 O 1477.91 -1.04825 2.50448 0
M  V30 15567 C 1476.37 1.41015 3.31123 0
M  V30 15568 C 1475.98 2.91888 3.39861 0
M  V30 15569 C 1477.72 1.21633 4.06701 0
M  V30 15570 C 1475.63 3.44397 4.80775 0
M  V30 15571 H 1474.56 0.301662 0.691025 0
M  V30 15572 H 1477.21 1.31072 1.28423 0
M  V30 15573 H 1475.59 0.843333 3.86916 0
M  V30 15574 H 1476.76 3.54747 2.94094 0
M  V30 15575 H 1475.08 3.10238 2.77743 0
M  V30 15576 H 1477.68 1.58324 5.10723 0
M  V30 15577 H 1478.02 0.156519 4.16006 0
M  V30 15578 H 1478.55 1.75035 3.57222 0
M  V30 15579 H 1475.29 4.49973 4.7666 0
M  V30 15580 H 1474.81 2.86299 5.27061 0
M  V30 15581 H 1476.49 3.41266 5.49679 0
M  V30 15582 N 1476.62 -1.31073 0.875073 0
M  V30 15583 C 1477.55 -2.30855 0.350468 0
M  V30 15584 C 1478.53 -1.60569 -0.561384 0
M  V30 15585 O 1479.72 -1.88242 -0.477329 0
M  V30 15586 C 1476.85 -3.44444 -0.444493 0
M  V30 15587 C 1475.8 -4.26357 0.374716 0
M  V30 15588 C 1475.13 -5.31903 -0.546243 0
M  V30 15589 C 1476.43 -4.96817 1.61153 0
M  V30 15590 H 1478.12 -2.74983 1.18427 0
M  V30 15591 H 1475.67 -1.32199 0.570909 0
M  V30 15592 H 1477.62 -4.13304 -0.82206 0
M  V30 15593 H 1476.34 -2.99096 -1.31185 0
M  V30 15594 H 1475 -3.59171 0.734295 0
M  V30 15595 H 1474.65 -4.82803 -1.41102 0
M  V30 15596 H 1474.35 -5.876 -0.00198173 0
M  V30 15597 H 1475.88 -6.03621 -0.920542 0
M  V30 15598 H 1477.29 -5.58247 1.30511 0
M  V30 15599 H 1475.69 -5.62334 2.09524 0
M  V30 15600 H 1476.76 -4.2351 2.36151 0
M  V30 15601 N 1478.1 -0.635022 -1.4424 0
M  V30 15602 C 1479.34 -0.144429 -2.03889 0
M  V30 15603 C 1479.7 1.21217 -1.48897 0
M  V30 15604 O 1480.91 1.79511 -2.00073 0
M  V30 15605 C 1479.18 -0.134776 -3.57146 0
M  V30 15606 S 1480.74 0.290628 -4.37836 0
M  V30 15607 H 1477.55 -0.0629965 -0.708204 0
M  V30 15608 H 1480.16 -0.839284 -1.76568 0
M  V30 15609 H 1478.86 -1.12516 -3.94675 0
M  V30 15610 H 1478.39 0.581202 -3.89083 0
M  V30 15611 H 1480.41 1.53392 -4.71896 0
M  V30 15612 N 1479.58 1.53054 -0.375806 0
M  V30 15613 C 1480.82 2.017 0.210985 0
M  V30 15614 C 1481.16 1.26228 1.47581 0
M  V30 15615 O 1480.43 0.358869 1.91161 0
M  V30 15616 C 1480.72 3.56715 0.492596 0
M  V30 15617 C 1480.57 4.42869 -0.786573 0
M  V30 15618 C 1481.89 4.20803 1.28891 0
M  V30 15619 H 1479.01 0.733153 0.0752084 0
M  V30 15620 H 1481.65 1.83229 -0.502715 0
M  V30 15621 H 1479.8 3.72585 1.10059 0
M  V30 15622 H 1481.47 4.38777 -1.42381 0
M  V30 15623 H 1479.71 4.10425 -1.40478 0
M  V30 15624 H 1480.38 5.49309 -0.544354 0
M  V30 15625 H 1482.86 4.08828 0.774498 0
M  V30 15626 H 1481.74 5.29273 1.45469 0
M  V30 15627 H 1482 3.77541 2.30033 0
M  V30 15628 N 1481.06 0.105248 1.57248 0
M  V30 15629 C 1482.47 -0.422304 1.81861 0
M  V30 15630 C 1482.82 -1.67508 1.02154 0
M  V30 15631 O 1481.94 -2.14905 0.253961 0
M  V30 15632 C 1482.54 -0.772943 3.29865 0
M  V30 15633 C 1481.1 -1.24519 3.55207 0
M  V30 15634 C 1480.24 -0.246936 2.76198 0
M  V30 15635 H 1483.2 0.330565 1.55219 0
M  V30 15636 H 1483.22 -1.6316 3.43743 0
M  V30 15637 H 1482.73 0.139033 3.87851 0
M  V30 15638 H 1480.83 -2.17453 3.02564 0
M  V30 15639 H 1480.94 -1.20001 4.63828 0
M  V30 15640 H 1479.31 -0.731171 2.43979 0
M  V30 15641 H 1480.09 0.657896 3.36937 0
M  V30 15642 N 1482.53 -1.56697 -0.168486 0
M  V30 15643 C 1483.48 -1.9755 -1.22787 0
M  V30 15644 C 1484.48 -0.864668 -1.4567 0
M  V30 15645 O 1485.68 -1.04979 -1.46217 0
M  V30 15646 H 1482.06 -0.628561 -0.412813 0
M  V30 15647 H 1484.03 -2.85845 -0.85646 0
M  V30 15648 C 1482.78 -2.35394 -2.559 0
M  V30 15649 H 1482.1 -3.20412 -2.39115 0
M  V30 15650 H 1483.54 -2.67821 -3.28706 0
M  V30 15651 C 1482 -1.19842 -3.14864 0
M  V30 15652 O 1482.53 -0.487601 -3.9873 0
M  V30 15653 N 1480.74 -0.968249 -2.73995 0
M  V30 15654 H 1480.28 -1.54804 -2.05897 0
M  V30 15655 H 1480.24 -0.196951 -3.13783 0
M  V30 15656 N 1484.01 0.437135 -1.51416 0
M  V30 15657 C 1484.98 1.51313 -1.72154 0
M  V30 15658 C 1485.98 1.49523 -0.59157 0
M  V30 15659 O 1487.17 1.51541 -0.859118 0
M  V30 15660 C 1484.3 2.9085 -1.77818 0
M  V30 15661 H 1485.49 1.34229 -2.68184 0
M  V30 15662 H 1483.04 0.665822 -1.41409 0
M  V30 15663 H 1483.78 3.13338 -0.836033 0
M  V30 15664 H 1483.56 2.93554 -2.59939 0
M  V30 15665 H 1485.05 3.68905 -1.957 0
M  V30 15666 N 1485.49 1.41566 0.692592 0
M  V30 15667 C 1486.74 1.41292 1.4548 0
M  V30 15668 C 1487.07 0.0229093 1.94186 0
M  V30 15669 O 1486.34 -0.949849 1.6973 0
M  V30 15670 C 1486.63 2.42225 2.66457 0
M  V30 15671 C 1486.48 3.90345 2.23496 0
M  V30 15672 C 1487.8 2.40374 3.68658 0
M  V30 15673 H 1484.92 0.51453 0.527663 0
M  V30 15674 H 1487.56 1.72862 0.788598 0
M  V30 15675 H 1485.71 2.15435 3.23296 0
M  V30 15676 H 1487.38 4.2805 1.71962 0
M  V30 15677 H 1485.63 4.05068 1.55249 0
M  V30 15678 H 1486.3 4.56518 3.10314 0
M  V30 15679 H 1488.77 2.64156 3.21498 0
M  V30 15680 H 1487.65 3.13004 4.5091 0
M  V30 15681 H 1487.91 1.42338 4.1856 0
M  V30 15682 N 1486.97 -0.927146 1.27443 0
M  V30 15683 C 1488.22 -1.66941 1.13197 0
M  V30 15684 C 1488.53 -1.92939 -0.32156 0
M  V30 15685 O 1489.74 -2.65124 -0.584931 0
M  V30 15686 C 1488.19 -3.00677 1.97791 0
M  V30 15687 C 1487.8 -2.82376 3.47805 0
M  V30 15688 C 1489.54 -3.78499 1.92195 0
M  V30 15689 C 1487.45 -4.1167 4.24596 0
M  V30 15690 H 1486.38 -0.626171 0.420031 0
M  V30 15691 H 1489.03 -1.02997 1.51868 0
M  V30 15692 H 1487.41 -3.65681 1.51965 0
M  V30 15693 H 1488.59 -2.26135 4.01497 0
M  V30 15694 H 1486.9 -2.17982 3.54786 0
M  V30 15695 H 1489.5 -4.74312 2.46844 0
M  V30 15696 H 1489.84 -4.0655 0.895702 0
M  V30 15697 H 1490.38 -3.20292 2.35919 0
M  V30 15698 H 1487.12 -3.88798 5.27747 0
M  V30 15699 H 1486.64 -4.67573 3.75681 0
M  V30 15700 H 1488.31 -4.80028 4.338 0
M  V30 15701 N 1488.45 -1.09474 -1.13372 0
M  V30 15702 C 1489.38 -0.756441 -2.20908 0
M  V30 15703 C 1490.36 0.266113 -1.68006 0
M  V30 15704 O 1491.54 0.134067 -1.93737 0
M  V30 15705 C 1488.67 -0.176733 -3.4685 0
M  V30 15706 C 1487.63 -1.12886 -4.12845 0
M  V30 15707 C 1486.95 -0.410831 -5.33119 0
M  V30 15708 C 1488.25 -2.47148 -4.60125 0
M  V30 15709 H 1489.95 -1.65555 -2.49463 0
M  V30 15710 H 1487.49 -0.797458 -1.19902 0
M  V30 15711 H 1489.45 0.0720151 -4.21338 0
M  V30 15712 H 1488.17 0.757576 -3.17692 0
M  V30 15713 H 1486.83 -1.36289 -3.40325 0
M  V30 15714 H 1486.48 0.527632 -5.00225 0
M  V30 15715 H 1486.18 -1.04567 -5.78221 0
M  V30 15716 H 1487.7 -0.170394 -6.10362 0
M  V30 15717 H 1489.11 -2.27949 -5.26034 0
M  V30 15718 H 1487.51 -3.06425 -5.15969 0
M  V30 15719 H 1488.58 -3.07874 -3.74622 0
M  V30 15720 N 1489.92 1.30607 -0.882012 0
M  V30 15721 C 1490.86 2.27177 -0.303861 0
M  V30 15722 C 1491.87 1.53587 0.539898 0
M  V30 15723 O 1493.06 1.74833 0.359931 0
M  V30 15724 C 1490.16 3.33781 0.586828 0
M  V30 15725 C 1489.33 4.3681 -0.227197 0
M  V30 15726 C 1488.39 5.22842 0.593519 0
M  V30 15727 O 1487.42 5.69197 0.0172694 0
M  V30 15728 N 1488.62 5.48414 1.90321 0
M  V30 15729 H 1491.38 2.77426 -1.13378 0
M  V30 15730 H 1488.94 1.43756 -0.744698 0
M  V30 15731 H 1490.94 3.88257 1.14186 0
M  V30 15732 H 1489.51 2.83483 1.31743 0
M  V30 15733 H 1488.73 3.82239 -0.963674 0
M  V30 15734 H 1490.01 5.02703 -0.785315 0
M  V30 15735 H 1489.41 5.1253 2.39435 0
M  V30 15736 H 1487.97 6.05778 2.40575 0
M  V30 15737 N 1491.4 0.642663 1.43901 0
M  V30 15738 C 1492.35 -0.0673926 2.32502 0
M  V30 15739 C 1493.34 -0.823981 1.4801 0
M  V30 15740 O 1494.55 -0.735575 1.64284 0
M  V30 15741 H 1490.93 -0.0405715 0.750905 0
M  V30 15742 H 1492.9 0.69777 2.90127 0
M  V30 15743 C 1491.65 -1.02745 3.32173 0
M  V30 15744 H 1490.97 -0.454697 3.97206 0
M  V30 15745 H 1492.41 -1.49355 3.96824 0
M  V30 15746 C 1490.87 -2.11835 2.61969 0
M  V30 15747 O 1491.4 -3.20074 2.42725 0
M  V30 15748 N 1489.6 -1.88092 2.21517 0
M  V30 15749 H 1489.15 -1.00072 2.37368 0
M  V30 15750 H 1489.11 -2.61279 1.74873 0
M  V30 15751 N 1492.88 -1.52852 0.383918 0
M  V30 15752 C 1493.84 -2.24904 -0.441687 0
M  V30 15753 C 1494.84 -1.26345 -0.99466 0
M  V30 15754 O 1496.03 -1.50484 -0.877513 0
M  V30 15755 C 1493.17 -2.99994 -1.61915 0
M  V30 15756 H 1494.36 -2.99304 0.189047 0
M  V30 15757 H 1491.91 -1.55708 0.135932 0
M  V30 15758 H 1492.65 -2.29882 -2.28746 0
M  V30 15759 H 1492.43 -3.72328 -1.2294 0
M  V30 15760 H 1493.92 -3.54716 -2.20378 0
M  V30 15761 N 1494.36 -0.113586 -1.5719 0
M  V30 15762 C 1495.61 0.540306 -1.96092 0
M  V30 15763 C 1495.96 1.64633 -0.995678 0
M  V30 15764 O 1495.25 1.91584 -0.0247757 0
M  V30 15765 C 1495.45 1.1238 -3.39272 0
M  V30 15766 C 1495.28 0.0758384 -4.49636 0
M  V30 15767 C 1494.05 -0.354102 -5.04058 0
M  V30 15768 C 1496.24 -0.703077 -5.09472 0
M  V30 15769 N 1494.23 -1.3884 -5.97994 0
M  V30 15770 C 1495.6 -1.58872 -5.99299 0
M  V30 15771 C 1497.65 -0.754562 -4.92149 0
M  V30 15772 C 1496.36 -2.52135 -6.73662 0
M  V30 15773 C 1498.38 -1.67488 -5.67188 0
M  V30 15774 C 1497.74 -2.54811 -6.56697 0
M  V30 15775 H 1493.84 0.167498 -0.763851 0
M  V30 15776 H 1496.43 -0.200448 -1.93665 0
M  V30 15777 H 1494.6 1.8343 -3.42357 0
M  V30 15778 H 1496.33 1.74157 -3.6531 0
M  V30 15779 H 1493.08 0.0372483 -4.73585 0
M  V30 15780 H 1493.51 -1.90431 -6.49665 0
M  V30 15781 H 1498.15 -0.0935791 -4.22696 0
M  V30 15782 H 1495.87 -3.19249 -7.42365 0
M  V30 15783 H 1499.45 -1.72009 -5.55792 0
M  V30 15784 H 1498.33 -3.24867 -7.13745 0
M  V30 15785 N 1495.84 1.56784 0.160173 0
M  V30 15786 C 1496.78 1.97267 1.1981 0
M  V30 15787 C 1497.75 0.83824 1.43397 0
M  V30 15788 O 1498.94 1.09926 1.55952 0
M  V30 15789 C 1496.08 2.34725 2.52979 0
M  V30 15790 C 1495.19 3.61397 2.36677 0
M  V30 15791 C 1494.33 3.88018 3.62789 0
M  V30 15792 C 1493.37 5.08002 3.41468 0
M  V30 15793 N 1492.5 5.30699 4.59677 0
M  V30 15794 H 1497.34 2.85743 0.845878 0
M  V30 15795 H 1494.88 1.41379 0.406249 0
M  V30 15796 H 1496.84 2.54468 3.30608 0
M  V30 15797 H 1495.47 1.49345 2.86175 0
M  V30 15798 H 1494.52 3.49505 1.50167 0
M  V30 15799 H 1495.83 4.49185 2.16875 0
M  V30 15800 H 1494.99 4.08188 4.48851 0
M  V30 15801 H 1493.73 2.98627 3.85582 0
M  V30 15802 H 1492.73 4.87718 2.53793 0
M  V30 15803 H 1493.96 5.98934 3.20086 0
M  V30 15804 H 1491.9 4.44261 4.82668 0
M  V30 15805 H 1491.82 6.1273 4.42829 0
M  V30 15806 H 1493.09 5.55357 5.46991 0
M  V30 15807 N 1497.32 -0.429099 1.51646 0
M  V30 15808 C 1498.56 -1.17958 1.64966 0
M  V30 15809 C 1498.89 -1.90667 0.368755 0
M  V30 15810 O 1498.17 -1.83945 -0.632023 0
M  V30 15811 C 1498.45 -2.19002 2.8585 0
M  V30 15812 C 1498.31 -1.50321 4.23938 0
M  V30 15813 C 1499.62 -3.19895 3.0225 0
M  V30 15814 H 1496.74 -0.427474 0.600362 0
M  V30 15815 H 1499.39 -0.46777 1.84152 0
M  V30 15816 H 1497.54 -2.79707 2.69623 0
M  V30 15817 H 1499.21 -0.928902 4.51851 0
M  V30 15818 H 1497.45 -0.805431 4.26257 0
M  V30 15819 H 1498.12 -2.2395 5.0453 0
M  V30 15820 H 1500.6 -2.69251 3.17243 0
M  V30 15821 H 1499.47 -3.8788 3.88381 0
M  V30 15822 H 1499.73 -3.86477 2.14682 0
M  V30 15823 N 1498.79 -1.41931 -0.685074 0
M  V30 15824 C 1500.02 -1.45432 -1.47866 0
M  V30 15825 C 1500.44 -0.0641302 -1.87991 0
M  V30 15826 O 1499.8 0.935081 -1.55325 0
M  V30 15827 C 1499.85 -2.37801 -2.71077 0
M  V30 15828 O 1498.95 -1.84229 -3.68963 0
M  V30 15829 H 1498.29 -0.493156 -0.444627 0
M  V30 15830 H 1500.82 -1.86508 -0.841177 0
M  V30 15831 H 1500.83 -2.54033 -3.19266 0
M  V30 15832 H 1499.51 -3.38807 -2.41211 0
M  V30 15833 H 1498.09 -1.775 -3.27945 0
M  V30 15834 N 1500.27 0.920374 -1.27933 0
M  V30 15835 C 1501.51 1.68333 -1.15945 0
M  V30 15836 C 1501.88 1.8982 0.288522 0
M  V30 15837 O 1503.08 2.63503 0.530976 0
M  V30 15838 C 1501.35 3.00865 -1.92912 0
M  V30 15839 S 1502.91 3.91981 -1.97221 0
M  V30 15840 H 1499.72 0.578189 -0.413785 0
M  V30 15841 H 1502.33 1.09521 -1.61943 0
M  V30 15842 H 1501.03 2.82924 -2.97292 0
M  V30 15843 H 1500.56 3.64727 -1.47437 0
M  V30 15844 H 1502.58 4.84439 -1.07393 0
M  V30 15845 N 1501.75 1.10074 1.1279 0
M  V30 15846 C 1502.98 0.862906 1.88047 0
M  V30 15847 C 1503.39 -0.586346 1.79464 0
M  V30 15848 O 1502.75 -1.40402 1.16591 0
M  V30 15849 C 1502.8 1.29784 3.37399 0
M  V30 15850 O 1502.52 2.69026 3.4577 0
M  V30 15851 C 1504.02 1.09336 4.29605 0
M  V30 15852 H 1501.24 0.309981 0.595108 0
M  V30 15853 H 1503.79 1.46444 1.42738 0
M  V30 15854 H 1501.94 0.740056 3.80266 0
M  V30 15855 H 1502.36 2.87532 4.38663 0
M  V30 15856 H 1503.83 1.44687 5.327 0
M  V30 15857 H 1504.31 0.031679 4.39189 0
M  V30 15858 H 1504.91 1.63743 3.92516 0
M  V30 15859 N 1503.23 -1.30138 0.888926 0
M  V30 15860 C 1504.48 -1.95265 0.5054 0
M  V30 15861 C 1504.79 -1.70925 -0.950998 0
M  V30 15862 O 1506 -2.30069 -1.44155 0
M  V30 15863 C 1504.45 -3.49647 0.852937 0
M  V30 15864 C 1504.06 -3.82802 2.32737 0
M  V30 15865 C 1505.8 -4.21067 0.538801 0
M  V30 15866 C 1503.71 -5.30379 2.61633 0
M  V30 15867 H 1502.64 -0.730882 0.185278 0
M  V30 15868 H 1505.29 -1.48027 1.08444 0
M  V30 15869 H 1503.67 -3.9548 0.202937 0
M  V30 15870 H 1504.85 -3.47866 3.02202 0
M  V30 15871 H 1503.16 -3.24495 2.60944 0
M  V30 15872 H 1505.76 -5.2967 0.731676 0
M  V30 15873 H 1506.1 -4.13014 -0.522039 0
M  V30 15874 H 1506.64 -3.8093 1.14617 0
M  V30 15875 H 1503.37 -5.43486 3.66473 0
M  V30 15876 H 1502.89 -5.66601 1.96782 0
M  V30 15877 H 1504.57 -5.97856 2.47339 0
M  V30 15878 N 1504.71 -0.650285 -1.43559 0
M  V30 15879 C 1505.64 0.0295939 -2.33481 0
M  V30 15880 C 1506.62 0.815017 -1.49303 0
M  V30 15881 O 1507.8 0.77708 -1.77975 0
M  V30 15882 C 1504.93 0.998683 -3.32631 0
M  V30 15883 C 1503.89 0.323577 -4.26775 0
M  V30 15884 C 1503.21 1.40391 -5.1594 0
M  V30 15885 C 1504.51 -0.782197 -5.1641 0
M  V30 15886 H 1506.21 -0.721349 -2.9058 0
M  V30 15887 H 1503.75 -0.348339 -1.39723 0
M  V30 15888 H 1505.7 1.4832 -3.94435 0
M  V30 15889 H 1504.43 1.78075 -2.73782 0
M  V30 15890 H 1503.09 -0.140467 -3.66331 0
M  V30 15891 H 1502.74 2.17734 -4.53432 0
M  V30 15892 H 1502.44 0.957462 -5.79747 0
M  V30 15893 H 1503.96 1.88985 -5.80618 0
M  V30 15894 H 1505.37 -0.379966 -5.72039 0
M  V30 15895 H 1503.77 -1.15293 -5.88921 0
M  V30 15896 H 1504.84 -1.6414 -4.56274 0
M  V30 15897 N 1506.18 1.52647 -0.392018 0
M  V30 15898 C 1507.15 2.25135 0.429754 0
M  V30 15899 C 1508.15 1.26871 0.987946 0
M  V30 15900 O 1509.34 1.50947 0.86952 0
M  V30 15901 C 1506.47 3.00849 1.60321 0
M  V30 15902 H 1507.66 2.99199 -0.204918 0
M  V30 15903 H 1505.21 1.55634 -0.144188 0
M  V30 15904 H 1505.95 2.31092 2.27524 0
M  V30 15905 H 1505.73 3.72975 1.20964 0
M  V30 15906 H 1507.22 3.55879 2.18494 0
M  V30 15907 N 1507.66 0.121921 1.57128 0
M  V30 15908 C 1508.91 -0.536164 1.95584 0
M  V30 15909 C 1509.24 -1.66143 1.0055 0
M  V30 15910 O 1508.52 -1.94452 0.0432427 0
M  V30 15911 C 1508.8 -1.0661 3.43957 0
M  V30 15912 C 1508.65 0.0559458 4.49765 0
M  V30 15913 C 1509.97 -1.95603 3.94243 0
M  V30 15914 H 1507.09 -0.193427 0.711165 0
M  V30 15915 H 1509.73 0.198072 1.88965 0
M  V30 15916 H 1507.88 -1.69181 3.49729 0
M  V30 15917 H 1509.55 0.691357 4.5609 0
M  V30 15918 H 1507.8 0.71868 4.27805 0
M  V30 15919 H 1508.47 -0.356133 5.5085 0
M  V30 15920 H 1510.94 -1.42899 3.90793 0
M  V30 15921 H 1509.82 -2.29599 4.98573 0
M  V30 15922 H 1510.08 -2.88364 3.3511 0
M  V30 15923 N 1509.14 -1.56867 -0.151857 0
M  V30 15924 C 1510.39 -1.83353 -0.866566 0
M  V30 15925 C 1510.72 -0.702784 -1.81038 0
M  V30 15926 O 1509.99 0.293944 -1.92266 0
M  V30 15927 C 1510.28 -3.20316 -1.64529 0
M  V30 15928 C 1510.13 -4.43946 -0.723297 0
M  V30 15929 C 1511.45 -3.54441 -2.60882 0
M  V30 15930 H 1508.57 -0.666957 -0.313588 0
M  V30 15931 H 1511.21 -1.89541 -0.131954 0
M  V30 15932 H 1509.36 -3.15172 -2.27154 0
M  V30 15933 H 1511.03 -4.61173 -0.10842 0
M  V30 15934 H 1509.28 -4.33788 -0.0325582 0
M  V30 15935 H 1509.95 -5.36374 -1.3041 0
M  V30 15936 H 1512.42 -3.60164 -2.08377 0
M  V30 15937 H 1511.3 -4.51314 -3.12422 0
M  V30 15938 H 1511.56 -2.80146 -3.42009 0
M  V30 15939 N 1510.62 0.421051 -1.51871 0
M  V30 15940 C 1511.84 1.19568 -1.69465 0
M  V30 15941 C 1512.27 1.83835 -0.398269 0
M  V30 15942 O 1511.63 1.69508 0.643172 0
M  V30 15943 C 1511.67 2.24337 -2.82321 0
M  V30 15944 O 1510.78 3.30205 -2.47059 0
M  V30 15945 H 1510.12 0.349579 -0.564527 0
M  V30 15946 H 1512.65 0.495177 -1.98517 0
M  V30 15947 H 1512.66 2.6886 -3.06885 0
M  V30 15948 H 1511.33 1.76941 -3.76384 0
M  V30 15949 H 1509.91 2.91045 -2.33125 0
M  V30 15950 N 1512.1 1.42293 0.677538 0
M  V30 15951 C 1513.34 1.42827 1.43973 0
M  V30 15952 C 1513.68 0.0435041 1.94151 0
M  V30 15953 O 1512.95 -0.931794 1.70727 0
M  V30 15954 C 1513.23 2.45037 2.63873 0
M  V30 15955 C 1513.09 3.92694 2.19344 0
M  V30 15956 C 1514.41 2.4427 3.66087 0
M  V30 15957 H 1511.52 0.520097 0.522176 0
M  V30 15958 H 1514.17 1.73688 0.770219 0
M  V30 15959 H 1512.32 2.18851 3.20993 0
M  V30 15960 H 1513.99 4.2985 1.67412 0
M  V30 15961 H 1512.23 4.06692 1.50944 0
M  V30 15962 H 1512.9 4.59784 3.05455 0
M  V30 15963 H 1515.38 2.67551 3.18678 0
M  V30 15964 H 1514.25 3.17769 4.47564 0
M  V30 15965 H 1514.52 1.46769 4.17027 0
M  V30 15966 N 1513.57 -0.913576 1.28419 0
M  V30 15967 C 1514.8 -1.70178 1.18551 0
M  V30 15968 C 1515.22 -1.864 -0.252307 0
M  V30 15969 O 1514.58 -1.37427 -1.18252 0
M  V30 15970 C 1514.63 -3.07145 1.8893 0
M  V30 15971 O 1513.73 -3.9465 1.19688 0
M  V30 15972 H 1513.08 -0.521092 0.411533 0
M  V30 15973 H 1515.61 -1.14228 1.69744 0
M  V30 15974 H 1515.62 -3.57375 1.96843 0
M  V30 15975 H 1514.29 -2.94655 2.93515 0
M  V30 15976 H 1512.87 -3.53085 1.19939 0
M  V30 15977 N 1515.05 -1.1067 -1.12204 0
M  V30 15978 C 1516.46 -0.867959 -1.65298 0
M  V30 15979 C 1516.81 0.601297 -1.86759 0
M  V30 15980 O 1515.94 1.46153 -1.59588 0
M  V30 15981 C 1516.53 -1.56906 -3.00276 0
M  V30 15982 C 1515.09 -1.37696 -3.5031 0
M  V30 15983 C 1514.24 -1.61688 -2.25282 0
M  V30 15984 H 1517.19 -1.26408 -0.959521 0
M  V30 15985 H 1517.21 -1.00947 -3.66865 0
M  V30 15986 H 1516.72 -2.63838 -2.84625 0
M  V30 15987 H 1514.83 -0.329381 -3.71141 0
M  V30 15988 H 1514.94 -2.12058 -4.29614 0
M  V30 15989 H 1513.3 -1.03977 -2.3251 0
M  V30 15990 H 1514.09 -2.69877 -2.12182 0
M  V30 15991 N 1516.53 1.29665 -0.895815 0
M  V30 15992 C 1517.46 2.30268 -0.387151 0
M  V30 15993 C 1518.44 1.61442 0.535768 0
M  V30 15994 O 1519.63 1.88978 0.447321 0
M  V30 15995 C 1516.76 3.45107 0.389639 0
M  V30 15996 C 1515.71 4.25706 -0.442498 0
M  V30 15997 C 1515.04 5.32704 0.461552 0
M  V30 15998 C 1516.34 4.9419 -1.69036 0
M  V30 15999 H 1518.03 2.73064 -1.22786 0
M  V30 16000 H 1515.58 1.31274 -0.591869 0
M  V30 16001 H 1517.53 4.14559 0.756203 0
M  V30 16002 H 1516.25 3.01145 1.2641 0
M  V30 16003 H 1514.91 3.57957 -0.791343 0
M  V30 16004 H 1514.56 4.84987 1.33403 0
M  V30 16005 H 1514.26 5.87529 -0.0915006 0
M  V30 16006 H 1515.78 6.05009 0.824395 0
M  V30 16007 H 1517.2 5.561 -1.39376 0
M  V30 16008 H 1515.6 5.5893 -2.18444 0
M  V30 16009 H 1516.67 4.19699 -2.42859 0
M  V30 16010 N 1518.01 0.657889 1.43212 0
M  V30 16011 C 1518.94 -0.0172114 2.33494 0
M  V30 16012 C 1519.92 -0.807087 1.49733 0
M  V30 16013 O 1521.1 -0.767631 1.78385 0
M  V30 16014 C 1518.23 -0.981029 3.33156 0
M  V30 16015 C 1517.19 -0.30094 4.26941 0
M  V30 16016 C 1516.51 -1.37653 5.16678 0
M  V30 16017 C 1517.81 0.809572 5.15988 0
M  V30 16018 H 1519.51 0.736749 2.90194 0
M  V30 16019 H 1517.05 0.355744 1.39537 0
M  V30 16020 H 1519.01 -1.46226 3.95216 0
M  V30 16021 H 1517.73 -1.76621 2.74723 0
M  V30 16022 H 1516.39 0.159893 3.66251 0
M  V30 16023 H 1516.04 -2.15326 4.54581 0
M  V30 16024 H 1515.74 -0.926704 5.80246 0
M  V30 16025 H 1517.26 -1.85903 5.81612 0
M  V30 16026 H 1518.68 0.410297 5.7183 0
M  V30 16027 H 1517.07 1.18415 5.88301 0
M  V30 16028 H 1518.14 1.66558 4.55397 0
M  V30 16029 N 1519.49 -1.52437 0.400108 0
M  V30 16030 C 1520.42 -2.29672 -0.421054 0
M  V30 16031 C 1521.4 -1.33506 -1.05405 0
M  V30 16032 O 1522.58 -1.62408 -1.06477 0
M  V30 16033 C 1519.71 -3.1115 -1.54281 0
M  V30 16034 C 1518.67 -4.1529 -1.0353 0
M  V30 16035 C 1517.99 -4.85058 -2.24996 0
M  V30 16036 C 1519.29 -5.22212 -0.0956529 0
M  V30 16037 H 1520.99 -2.98565 0.2234 0
M  V30 16038 H 1518.53 -1.43588 0.108883 0
M  V30 16039 H 1520.49 -3.63945 -2.12419 0
M  V30 16040 H 1519.21 -2.4001 -2.21501 0
M  V30 16041 H 1517.87 -3.63492 -0.476383 0
M  V30 16042 H 1517.52 -4.10455 -2.9075 0
M  V30 16043 H 1517.22 -5.55452 -1.91694 0
M  V30 16044 H 1518.74 -5.40661 -2.83756 0
M  V30 16045 H 1520.15 -5.70302 -0.585548 0
M  V30 16046 H 1518.55 -5.99917 0.148121 0
M  V30 16047 H 1519.62 -4.77351 0.852296 0
M  V30 16048 N 1520.96 -0.130252 -1.57061 0
M  V30 16049 C 1522.19 0.532416 -1.99932 0
M  V30 16050 C 1522.61 1.59505 -1.01013 0
M  V30 16051 O 1521.96 1.82499 -0.00463158 0
M  V30 16052 C 1522.02 1.14833 -3.42776 0
M  V30 16053 O 1521.74 0.128163 -4.37912 0
M  V30 16054 C 1523.24 1.89324 -4.00838 0
M  V30 16055 H 1520.46 0.140046 -0.656223 0
M  V30 16056 H 1523 -0.219905 -2.03314 0
M  V30 16057 H 1521.16 1.85137 -3.40298 0
M  V30 16058 H 1521.57 0.577135 -5.21315 0
M  V30 16059 H 1523.04 2.27731 -5.02835 0
M  V30 16060 H 1523.52 2.77277 -3.40608 0
M  V30 16061 H 1524.13 1.23757 -4.06896 0
M  V30 16062 N 1522.44 1.56945 0.143535 0
M  V30 16063 C 1523.67 1.88067 0.874385 0
M  V30 16064 C 1524.09 0.719645 1.73789 0
M  V30 16065 O 1523.45 -0.330654 1.78259 0
M  V30 16066 C 1523.5 3.17795 1.70408 0
M  V30 16067 O 1522.6 3.01973 2.80867 0
M  V30 16068 H 1521.94 0.617808 0.24333 0
M  V30 16069 H 1524.47 2.04165 0.133309 0
M  V30 16070 H 1524.48 3.49903 2.09838 0
M  V30 16071 H 1523.16 4.019 1.07001 0
M  V30 16072 H 1521.74 2.8128 2.44818 0
M  V30 16073 N 1523.92 -0.412991 1.52093 0
M  V30 16074 C 1525.15 -1.18667 1.70096 0
M  V30 16075 C 1525.57 -1.83622 0.408012 0
M  V30 16076 O 1524.93 -1.69847 -0.634174 0
M  V30 16077 C 1524.98 -2.22837 2.83507 0
M  V30 16078 O 1524.08 -3.2889 2.48807 0
M  V30 16079 H 1523.42 -0.346581 0.566373 0
M  V30 16080 H 1525.95 -0.484642 1.98777 0
M  V30 16081 H 1525.96 -2.67229 3.08306 0
M  V30 16082 H 1524.64 -1.74942 3.77317 0
M  V30 16083 H 1523.21 -2.89804 2.34665 0
M  V30 16084 N 1525.4 -1.4265 -0.669982 0
M  V30 16085 C 1526.33 -1.42457 -1.79551 0
M  V30 16086 C 1527.34 -0.322966 -1.59564 0
M  V30 16087 O 1528.53 -0.586359 -1.68594 0
M  V30 16088 C 1525.63 -1.20561 -3.16731 0
M  V30 16089 C 1524.81 -2.43246 -3.63525 0
M  V30 16090 C 1523.87 -2.16823 -4.79452 0
M  V30 16091 O 1522.89 -2.90058 -4.8975 0
M  V30 16092 N 1524.09 -1.17436 -5.68497 0
M  V30 16093 H 1526.86 -2.39474 -1.80201 0
M  V30 16094 H 1524.42 -1.37591 -0.853244 0
M  V30 16095 H 1526.41 -1.00794 -3.91947 0
M  V30 16096 H 1524.98 -0.320497 -3.10953 0
M  V30 16097 H 1524.2 -2.78549 -2.78934 0
M  V30 16098 H 1525.49 -3.24931 -3.91532 0
M  V30 16099 H 1524.89 -0.568736 -5.62834 0
M  V30 16100 H 1523.44 -1.03655 -6.43505 0
M  V30 16101 N 1526.88 0.906753 -1.28902 0
M  V30 16102 C 1527.81 2.01497 -1.09233 0
M  V30 16103 C 1528.82 1.62746 -0.0419378 0
M  V30 16104 O 1530.01 1.76198 -0.285728 0
M  V30 16105 C 1527.11 3.32816 -0.639255 0
M  V30 16106 C 1526.28 4.00137 -1.76661 0
M  V30 16107 C 1525.34 5.09742 -1.30573 0
M  V30 16108 O 1524.37 5.32559 -2.00921 0
M  V30 16109 N 1525.57 5.80243 -0.17275 0
M  V30 16110 H 1528.34 2.18927 -2.04673 0
M  V30 16111 H 1525.9 1.0785 -1.20748 0
M  V30 16112 H 1527.89 4.03477 -0.31439 0
M  V30 16113 H 1526.46 3.11807 0.222498 0
M  V30 16114 H 1525.68 3.22933 -2.26071 0
M  V30 16115 H 1526.97 4.41859 -2.52266 0
M  V30 16116 H 1526.37 5.64184 0.413931 0
M  V30 16117 H 1524.92 6.51734 0.0927926 0
M  V30 16118 N 1528.36 1.11264 1.11616 0
M  V30 16119 C 1529.3 0.769295 2.17602 0
M  V30 16120 C 1530.27 -0.258362 1.64078 0
M  V30 16121 O 1531.46 -0.135698 1.90317 0
M  V30 16122 C 1528.6 0.216647 3.44419 0
M  V30 16123 C 1527.71 1.30064 4.11955 0
M  V30 16124 C 1526.85 0.708729 5.26451 0
M  V30 16125 C 1525.88 1.7727 5.85868 0
M  V30 16126 N 1525.02 1.20042 6.91762 0
M  V30 16127 H 1529.86 1.67727 2.46316 0
M  V30 16128 H 1527.4 0.83764 1.20921 0
M  V30 16129 H 1529.36 -0.121724 4.17022 0
M  V30 16130 H 1527.99 -0.654525 3.16095 0
M  V30 16131 H 1527.04 1.756 3.37445 0
M  V30 16132 H 1528.35 2.1057 4.52174 0
M  V30 16133 H 1527.5 0.320307 6.05854 0
M  V30 16134 H 1526.24 -0.127668 4.87533 0
M  V30 16135 H 1525.25 2.17046 5.05145 0
M  V30 16136 H 1526.47 2.6121 6.26854 0
M  V30 16137 H 1524.42 0.385633 6.54866 0
M  V30 16138 H 1524.34 1.94221 7.30626 0
M  V30 16139 H 1525.6 0.838825 7.74974 0
M  V30 16140 N 1529.83 -1.29188 0.902679 0
M  V30 16141 C 1530.8 -2.25901 0.387485 0
M  V30 16142 C 1531.8 -1.53469 -0.479993 0
M  V30 16143 O 1532.99 -1.71859 -0.284623 0
M  V30 16144 C 1530.12 -3.37974 -0.445723 0
M  V30 16145 H 1531.31 -2.72988 1.24167 0
M  V30 16146 H 1528.86 -1.4068 0.681083 0
M  V30 16147 H 1529.6 -2.9623 -1.31977 0
M  V30 16148 H 1529.38 -3.91705 0.175899 0
M  V30 16149 H 1530.87 -4.09917 -0.797384 0
M  V30 16150 N 1531.31 -0.665475 -1.42861 0
M  V30 16151 C 1532.59 -0.113252 -1.95272 0
M  V30 16152 C 1532.97 1.36972 -1.6063 0
M  V30 16153 O 1532.32 2.10129 -0.897662 0
M  V30 16154 C 1532.53 -0.372482 -3.47007 0
M  V30 16155 C 1533.87 -0.283982 -4.23649 0
M  V30 16156 O 1534.9 -0.305714 -3.54886 0
M  V30 16157 O 1533.76 -0.218171 -5.46064 0
M  V30 16158 H 1530.85 0.00253712 -0.826996 0
M  V30 16159 H 1533.4 -0.739561 -1.52737 0
M  V30 16160 H 1532.17 -1.40015 -3.65392 0
M  V30 16161 H 1531.79 0.286294 -3.96568 0
M  V30 16162 N 1532.79 1.52222 -0.408187 0
M  V30 16163 C 1534.04 2.02765 0.160542 0
M  V30 16164 C 1534.39 1.28847 1.42885 0
M  V30 16165 O 1533.68 0.385878 1.87674 0
M  V30 16166 C 1533.88 3.54384 0.463353 0
M  V30 16167 C 1533.71 4.42988 -0.774055 0
M  V30 16168 C 1532.48 4.88318 -1.29897 0
M  V30 16169 C 1534.67 4.87049 -1.65189 0
M  V30 16170 N 1532.66 5.61048 -2.49196 0
M  V30 16171 C 1534.03 5.5855 -2.69114 0
M  V30 16172 C 1536.08 4.69066 -1.66976 0
M  V30 16173 C 1534.79 6.13976 -3.74735 0
M  V30 16174 C 1536.81 5.25389 -2.71515 0
M  V30 16175 C 1536.17 5.96811 -3.74161 0
M  V30 16176 H 1532.27 0.781735 0.0203387 0
M  V30 16177 H 1534.86 1.86403 -0.562322 0
M  V30 16178 H 1533.03 3.70821 1.15526 0
M  V30 16179 H 1534.76 3.91612 1.02088 0
M  V30 16180 H 1531.51 4.65779 -0.857148 0
M  V30 16181 H 1531.94 6.02055 -3.09611 0
M  V30 16182 H 1536.58 4.13335 -0.889589 0
M  V30 16183 H 1534.3 6.68779 -4.53608 0
M  V30 16184 H 1537.88 5.13344 -2.73804 0
M  V30 16185 H 1536.76 6.39613 -4.53724 0
M  V30 16186 N 1534.27 0.138579 1.5699 0
M  V30 16187 C 1535.52 -0.514545 1.95026 0
M  V30 16188 C 1535.83 -1.66565 1.02544 0
M  V30 16189 O 1537.04 -2.38284 1.30126 0
M  V30 16190 C 1535.49 -0.966746 3.46673 0
M  V30 16191 C 1535.1 0.156969 4.47725 0
M  V30 16192 C 1536.84 -1.59014 3.93592 0
M  V30 16193 C 1534.75 -0.313031 5.90571 0
M  V30 16194 H 1533.68 -0.195991 0.728082 0
M  V30 16195 H 1536.33 0.221575 1.82157 0
M  V30 16196 H 1534.71 -1.75788 3.54845 0
M  V30 16197 H 1535.89 0.933728 4.51241 0
M  V30 16198 H 1534.2 0.688238 4.10673 0
M  V30 16199 H 1536.8 -1.95326 4.97747 0
M  V30 16200 H 1537.14 -2.47595 3.34668 0
M  V30 16201 H 1537.68 -0.864061 3.88302 0
M  V30 16202 H 1534.41 0.5372 6.53295 0
M  V30 16203 H 1533.93 -1.05585 5.90434 0
M  V30 16204 H 1535.61 -0.767826 6.42428 0
M  V30 16205 N 1535.75 -1.57019 -0.13521 0
M  V30 16206 C 1537.16 -1.73319 -0.694067 0
M  V30 16207 C 1537.51 -0.754808 -1.811 0
M  V30 16208 O 1536.63 0.0759463 -2.16267 0
M  V30 16209 C 1537.23 -3.14266 -1.26579 0
M  V30 16210 C 1535.79 -3.32128 -1.7711 0
M  V30 16211 C 1534.93 -2.69226 -0.664263 0
M  V30 16212 H 1537.88 -1.58441 0.0905702 0
M  V30 16213 H 1537.91 -3.14919 -2.13557 0
M  V30 16214 H 1537.42 -3.85451 -0.452652 0
M  V30 16215 H 1535.52 -2.65959 -2.60953 0
M  V30 16216 H 1535.63 -4.40172 -1.8917 0
M  V30 16217 H 1534 -2.30016 -1.09384 0
M  V30 16218 H 1534.78 -3.43024 0.13763 0
M  V30 16219 N 1537.22 0.404919 -1.52309 0
M  V30 16220 C 1538.15 1.50039 -1.78915 0
M  V30 16221 C 1539.14 1.57587 -0.640329 0
M  V30 16222 O 1540.32 1.72793 -0.886344 0
M  V30 16223 C 1537.45 2.87819 -1.94364 0
M  V30 16224 C 1536.4 2.9512 -3.09981 0
M  V30 16225 C 1535.73 4.35195 -3.10659 0
M  V30 16226 C 1537.03 2.66219 -4.4936 0
M  V30 16227 H 1538.72 1.28025 -2.70647 0
M  V30 16228 H 1536.27 0.61445 -1.30233 0
M  V30 16229 H 1538.22 3.64446 -2.11559 0
M  V30 16230 H 1536.95 3.11136 -0.993067 0
M  V30 16231 H 1535.61 2.20939 -2.92543 0
M  V30 16232 H 1535.25 4.55528 -2.13316 0
M  V30 16233 H 1534.95 4.41003 -3.88317 0
M  V30 16234 H 1536.48 5.1375 -3.29989 0
M  V30 16235 H 1537.89 3.32567 -4.66982 0
M  V30 16236 H 1536.29 2.83398 -5.28967 0
M  V30 16237 H 1537.36 1.61636 -4.57167 0
M  V30 16238 N 1538.7 1.43003 0.662408 0
M  V30 16239 C 1539.67 1.4713 1.75743 0
M  V30 16240 C 1540.67 0.357203 1.56782 0
M  V30 16241 O 1541.86 0.618566 1.62848 0
M  V30 16242 C 1538.99 1.31499 3.14517 0
M  V30 16243 H 1540.18 2.44641 1.73467 0
M  V30 16244 H 1537.73 1.29633 0.873208 0
M  V30 16245 H 1538.47 0.349596 3.2241 0
M  V30 16246 H 1538.25 2.12253 3.29683 0
M  V30 16247 H 1539.74 1.37298 3.94384 0
M  V30 16248 N 1540.18 -0.899904 1.29381 0
M  V30 16249 C 1541.11 -2.02045 1.17047 0
M  V30 16250 C 1542.09 -1.69977 0.0647354 0
M  V30 16251 O 1543.28 -1.92659 0.244173 0
M  V30 16252 C 1540.41 -3.36839 0.845991 0
M  V30 16253 C 1539.36 -3.83117 1.90802 0
M  V30 16254 C 1538.69 -5.15032 1.43686 0
M  V30 16255 C 1539.99 -4.03464 3.31684 0
M  V30 16256 H 1541.68 -2.12623 2.10789 0
M  V30 16257 H 1539.23 -1.02162 1.01484 0
M  V30 16258 H 1541.18 -4.14737 0.746413 0
M  V30 16259 H 1539.9 -3.26352 -0.127125 0
M  V30 16260 H 1538.56 -3.07435 1.99698 0
M  V30 16261 H 1538.21 -5.00961 0.452422 0
M  V30 16262 H 1537.91 -5.46967 2.14711 0
M  V30 16263 H 1539.43 -5.95472 1.35078 0
M  V30 16264 H 1540.85 -4.71845 3.25631 0
M  V30 16265 H 1539.25 -4.46752 4.00665 0
M  V30 16266 H 1540.32 -3.07807 3.74677 0
M  V30 16267 N 1541.66 -1.11854 -1.11024 0
M  V30 16268 C 1542.89 -0.892714 -1.8665 0
M  V30 16269 C 1543.3 0.557721 -1.80374 0
M  V30 16270 O 1542.66 1.3853 -1.1881 0
M  V30 16271 C 1542.71 -1.35135 -3.35292 0
M  V30 16272 O 1542.43 -2.74493 -3.41446 0
M  V30 16273 C 1543.93 -1.16157 -4.27811 0
M  V30 16274 H 1541.15 -0.319409 -0.590101 0
M  V30 16275 H 1543.7 -1.48697 -1.40391 0
M  V30 16276 H 1541.85 -0.80046 -3.7904 0
M  V30 16277 H 1542.26 -2.94474 -4.34034 0
M  V30 16278 H 1543.74 -1.53144 -5.30331 0
M  V30 16279 H 1544.22 -0.101546 -4.39083 0
M  V30 16280 H 1544.82 -1.69966 -3.89861 0
M  V30 16281 N 1543.14 1.28707 -0.909517 0
M  V30 16282 C 1544.39 1.94437 -0.536401 0
M  V30 16283 C 1544.7 1.72416 0.923685 0
M  V30 16284 O 1545.9 2.32333 1.40477 0
M  V30 16285 C 1544.36 3.48246 -0.908455 0
M  V30 16286 C 1543.97 3.79051 -2.38798 0
M  V30 16287 C 1545.71 4.20156 -0.605721 0
M  V30 16288 C 1543.62 5.2615 -2.70038 0
M  V30 16289 H 1542.55 0.727842 -0.196882 0
M  V30 16290 H 1545.2 1.46283 -1.10786 0
M  V30 16291 H 1543.58 3.95107 -0.265829 0
M  V30 16292 H 1544.76 3.43014 -3.07698 0
M  V30 16293 H 1543.07 3.20303 -2.66074 0
M  V30 16294 H 1545.67 5.28439 -0.815849 0
M  V30 16295 H 1546.01 4.13792 0.456266 0
M  V30 16296 H 1546.54 3.79059 -1.20662 0
M  V30 16297 H 1543.28 5.37587 -3.75073 0
M  V30 16298 H 1542.8 5.63399 -2.05771 0
M  V30 16299 H 1544.48 5.93846 -2.56819 0
M  V30 16300 N 1544.61 0.673042 1.42506 0
M  V30 16301 C 1545.56 -0.00638067 2.30799 0
M  V30 16302 C 1546.53 -0.794524 1.45865 0
M  V30 16303 O 1547.72 -0.767129 1.74699 0
M  V30 16304 C 1544.86 -0.952923 3.31683 0
M  V30 16305 C 1543.97 -0.158787 4.31708 0
M  V30 16306 C 1543.1 -1.10092 5.19666 0
M  V30 16307 C 1542.14 -0.29837 6.11372 0
M  V30 16308 N 1541.28 -1.19312 6.91888 0
M  V30 16309 H 1546.12 0.75237 2.88346 0
M  V30 16310 H 1543.66 0.382763 1.42033 0
M  V30 16311 H 1545.62 -1.51552 3.887 0
M  V30 16312 H 1544.25 -1.67832 2.75739 0
M  V30 16313 H 1543.3 0.520406 3.76823 0
M  V30 16314 H 1544.61 0.464385 4.96634 0
M  V30 16315 H 1543.76 -1.7335 5.81407 0
M  V30 16316 H 1542.5 -1.75798 4.54914 0
M  V30 16317 H 1541.51 0.347437 5.48701 0
M  V30 16318 H 1542.73 0.354569 6.78174 0
M  V30 16319 H 1540.68 -1.83661 6.29765 0
M  V30 16320 H 1540.6 -0.624986 7.53412 0
M  V30 16321 H 1541.86 -1.81323 7.58118 0
M  V30 16322 N 1546.09 -1.52004 0.416254 0
M  V30 16323 C 1547.34 -2.0149 -0.15689 0
M  V30 16324 C 1547.66 -1.30343 -1.45037 0
M  V30 16325 O 1546.93 -0.431503 -1.91089 0
M  V30 16326 H 1545.51 -0.744508 -0.0609682 0
M  V30 16327 H 1548.17 -1.86857 0.55413 0
M  V30 16328 H 1547.27 -3.10155 -0.347917 0
M  V30 16329 N 1547.57 -0.146903 -1.56914 0
M  V30 16330 C 1548.5 0.788924 -2.19769 0
M  V30 16331 C 1549.48 1.25712 -1.14589 0
M  V30 16332 O 1550.67 1.3147 -1.42931 0
M  V30 16333 C 1547.8 2.02824 -2.81921 0
M  V30 16334 C 1546.75 1.69683 -3.92927 0
M  V30 16335 C 1546.08 3.00877 -4.42015 0
M  V30 16336 C 1547.38 0.943559 -5.13706 0
M  V30 16337 H 1549.07 0.265076 -2.98224 0
M  V30 16338 H 1546.62 0.126057 -1.43447 0
M  V30 16339 H 1548.57 2.68773 -3.2456 0
M  V30 16340 H 1547.29 2.57581 -2.00797 0
M  V30 16341 H 1545.95 1.06112 -3.50907 0
M  V30 16342 H 1545.6 3.53625 -3.57713 0
M  V30 16343 H 1545.3 2.79466 -5.16888 0
M  V30 16344 H 1546.82 3.67897 -4.87323 0
M  V30 16345 H 1548.24 1.50513 -5.5319 0
M  V30 16346 H 1546.64 0.829387 -5.94341 0
M  V30 16347 H 1547.71 -0.0647228 -4.84857 0
M  V30 16348 N 1549.05 1.57088 0.126881 0
M  V30 16349 C 1550 2.00736 1.17506 0
M  V30 16350 C 1550.99 0.902986 1.43327 0
M  V30 16351 O 1552.2 1.08819 1.43382 0
M  V30 16352 H 1548.57 0.639285 0.396003 0
M  V30 16353 H 1550.54 2.88015 0.780373 0
M  V30 16354 C 1549.29 2.42096 2.49569 0
M  V30 16355 H 1548.61 3.26639 2.30536 0
M  V30 16356 H 1550.05 2.76442 3.2149 0
M  V30 16357 C 1548.51 1.28148 3.11576 0
M  V30 16358 O 1549.04 0.593145 3.97297 0
M  V30 16359 N 1547.25 1.04055 2.71332 0
M  V30 16360 H 1546.8 1.60208 2.0172 0
M  V30 16361 H 1546.75 0.280075 3.1315 0
M  V30 16362 N 1550.53 -0.396836 1.52522 0
M  V30 16363 C 1551.94 -0.975124 1.59211 0
M  V30 16364 C 1552.29 -1.91199 0.440138 0
M  V30 16365 O 1551.41 -2.11924 -0.437856 0
M  V30 16366 C 1552.01 -1.77531 2.88562 0
M  V30 16367 C 1550.57 -2.30343 2.9769 0
M  V30 16368 C 1549.71 -1.10671 2.54258 0
M  V30 16369 H 1552.67 -0.176646 1.57714 0
M  V30 16370 H 1552.69 -2.63384 2.74607 0
M  V30 16371 H 1552.2 -1.09318 3.72386 0
M  V30 16372 H 1550.3 -3.01891 2.18387 0
M  V30 16373 H 1550.41 -2.60366 4.02177 0
M  V30 16374 H 1548.78 -1.46439 2.08393 0
M  V30 16375 H 1549.56 -0.440061 3.40468 0
M  V30 16376 N 1552.01 -1.43353 -0.654814 0
M  V30 16377 C 1553.23 -1.48322 -1.4425 0
M  V30 16378 C 1553.65 -0.100608 -1.88532 0
M  V30 16379 O 1553.01 0.888831 -1.59393 0
M  V30 16380 C 1553.06 -2.42769 -2.67853 0
M  V30 16381 O 1552.78 -3.75653 -2.25424 0
M  V30 16382 C 1554.28 -2.56964 -3.61226 0
M  V30 16383 H 1551.5 -0.503805 -0.443195 0
M  V30 16384 H 1554.04 -1.88078 -0.802916 0
M  V30 16385 H 1552.2 -2.06212 -3.27956 0
M  V30 16386 H 1552.61 -4.26427 -3.05386 0
M  V30 16387 H 1554.09 -3.27129 -4.44624 0
M  V30 16388 H 1554.56 -1.61404 -4.08467 0
M  V30 16389 H 1555.17 -2.94325 -3.07006 0
M  V30 16390 N 1553.48 0.89303 -1.29857 0
M  V30 16391 C 1554.45 1.97944 -1.15546 0
M  V30 16392 C 1555.45 1.60554 -0.088989 0
M  V30 16393 O 1556.64 1.7092 -0.336464 0
M  V30 16394 C 1553.77 3.32126 -0.768442 0
M  V30 16395 H 1554.96 2.12067 -2.12055 0
M  V30 16396 H 1552.51 1.0784 -1.13138 0
M  V30 16397 H 1553.25 3.23704 0.196504 0
M  V30 16398 H 1553.03 3.60631 -1.53907 0
M  V30 16399 H 1554.52 4.11834 -0.691559 0
M  V30 16400 N 1554.96 1.12442 1.10429 0
M  V30 16401 C 1556.21 0.874466 1.81758 0
M  V30 16402 C 1556.52 -0.601487 1.86122 0
M  V30 16403 O 1557.73 -0.968037 2.53656 0
M  V30 16404 C 1556.19 1.51478 3.2647 0
M  V30 16405 C 1555.79 3.02552 3.30403 0
M  V30 16406 C 1557.54 1.34511 4.02625 0
M  V30 16407 C 1555.44 3.59518 4.69575 0
M  V30 16408 H 1554.37 0.323494 0.681078 0
M  V30 16409 H 1557.03 1.35091 1.24188 0
M  V30 16410 H 1555.41 0.966 3.84037 0
M  V30 16411 H 1556.58 3.63924 2.82659 0
M  V30 16412 H 1554.9 3.18917 2.67733 0
M  V30 16413 H 1557.49 1.74492 5.05427 0
M  V30 16414 H 1557.84 0.288788 4.15297 0
M  V30 16415 H 1558.37 1.86311 3.51473 0
M  V30 16416 H 1555.11 4.6491 4.62103 0
M  V30 16417 H 1554.63 3.02922 5.17686 0
M  V30 16418 H 1556.31 3.58581 5.38543 0
M  V30 16419 N 1556.44 -1.28223 0.91633 0
M  V30 16420 C 1557.69 -1.94865 0.550823 0
M  V30 16421 C 1558.01 -1.72113 -0.905945 0
M  V30 16422 O 1557.27 -1.03668 -1.65987 0
M  V30 16423 C 1557.57 -3.48112 0.809509 0
M  V30 16424 C 1557.23 -3.90967 2.24623 0
M  V30 16425 C 1555.9 -4.02379 2.63903 0
M  V30 16426 C 1558.25 -4.12865 3.18106 0
M  V30 16427 C 1555.58 -4.33069 3.95814 0
M  V30 16428 C 1557.93 -4.45036 4.49584 0
M  V30 16429 C 1556.59 -4.54659 4.88714 0
M  V30 16430 H 1555.86 -0.71306 0.20156 0
M  V30 16431 H 1558.51 -1.5251 1.15814 0
M  V30 16432 H 1556.81 -3.91618 0.119411 0
M  V30 16433 H 1558.51 -3.97797 0.505843 0
M  V30 16434 H 1555.1 -3.82614 1.93144 0
M  V30 16435 H 1559.29 -4.035 2.88966 0
M  V30 16436 H 1554.54 -4.38725 4.25829 0
M  V30 16437 H 1558.72 -4.60928 5.22033 0
M  V30 16438 H 1556.34 -4.78194 5.90961 0
M  V30 16439 N 1557.92 -0.68059 -1.42147 0
M  V30 16440 C 1558.85 -0.0199376 -2.33491 0
M  V30 16441 C 1559.83 0.783164 -1.50999 0
M  V30 16442 O 1561.01 0.739154 -1.79583 0
M  V30 16443 C 1558.14 0.927902 -3.34675 0
M  V30 16444 C 1557.1 0.232979 -4.27365 0
M  V30 16445 C 1556.42 1.29415 -5.18802 0
M  V30 16446 C 1557.72 -0.891559 -5.14634 0
M  V30 16447 H 1559.42 -0.782823 -2.88985 0
M  V30 16448 H 1556.96 -0.377898 -1.38953 0
M  V30 16449 H 1558.92 1.3992 -3.97493 0
M  V30 16450 H 1557.64 1.72228 -2.77498 0
M  V30 16451 H 1556.3 -0.21814 -3.6595 0
M  V30 16452 H 1555.95 2.08067 -4.57949 0
M  V30 16453 H 1555.65 0.834274 -5.81647 0
M  V30 16454 H 1557.17 1.76627 -5.84496 0
M  V30 16455 H 1558.59 -0.501219 -5.71105 0
M  V30 16456 H 1556.98 -1.27759 -5.86343 0
M  V30 16457 H 1558.05 -1.73781 -4.5269 0
M  V30 16458 N 1559.4 1.51781 -0.424309 0
M  V30 16459 C 1560.62 2.06387 0.145548 0
M  V30 16460 C 1561.04 1.29299 1.37576 0
M  V30 16461 O 1560.4 0.348952 1.79133 0
M  V30 16462 C 1560.45 3.58288 0.48083 0
M  V30 16463 O 1560.17 4.32463 -0.700546 0
M  V30 16464 C 1561.67 4.29364 1.10278 0
M  V30 16465 H 1558.89 0.67086 0.0136908 0
M  V30 16466 H 1561.43 1.95511 -0.599639 0
M  V30 16467 H 1559.59 3.69122 1.17591 0
M  V30 16468 H 1560 5.22839 -0.417035 0
M  V30 16469 H 1561.48 5.36776 1.28747 0
M  V30 16470 H 1561.95 3.86815 2.08017 0
M  V30 16471 H 1562.56 4.2294 0.447458 0
M  V30 16472 N 1560.87 0.155222 1.56834 0
M  V30 16473 C 1562.1 -0.500542 2.00754 0
M  V30 16474 C 1562.52 -1.57878 1.03538 0
M  V30 16475 O 1561.87 -1.82469 0.0336651 0
M  V30 16476 C 1561.92 -1.09366 3.4456 0
M  V30 16477 O 1561.65 -0.0584788 4.38061 0
M  V30 16478 C 1563.15 -1.82923 4.038 0
M  V30 16479 H 1560.37 -0.129589 0.658368 0
M  V30 16480 H 1562.91 0.252223 2.02939 0
M  V30 16481 H 1561.07 -1.797 3.43201 0
M  V30 16482 H 1561.48 -0.494125 5.22167 0
M  V30 16483 H 1562.95 -2.19703 5.06394 0
M  V30 16484 H 1563.43 -2.71823 3.44976 0
M  V30 16485 H 1564.04 -1.17268 4.08813 0
M  V30 16486 N 1562.35 -1.57153 -0.118549 0
M  V30 16487 C 1563.28 -2.03409 -1.1466 0
M  V30 16488 C 1564.26 -0.918636 -1.43161 0
M  V30 16489 O 1565.45 -1.18838 -1.53594 0
M  V30 16490 C 1562.58 -2.43879 -2.47265 0
M  V30 16491 C 1561.53 -3.58873 -2.33225 0
M  V30 16492 C 1560.86 -3.85244 -3.70798 0
M  V30 16493 C 1562.16 -4.90582 -1.79239 0
M  V30 16494 H 1563.85 -2.89545 -0.761862 0
M  V30 16495 H 1561.4 -1.39296 -0.365034 0
M  V30 16496 H 1563.35 -2.74844 -3.19435 0
M  V30 16497 H 1562.07 -1.54715 -2.8763 0
M  V30 16498 H 1560.73 -3.28119 -1.63504 0
M  V30 16499 H 1560.38 -2.93285 -4.08648 0
M  V30 16500 H 1560.08 -4.62649 -3.62257 0
M  V30 16501 H 1561.61 -4.18661 -4.44472 0
M  V30 16502 H 1563.02 -5.20079 -2.41227 0
M  V30 16503 H 1561.42 -5.71989 -1.81518 0
M  V30 16504 H 1562.49 -4.79065 -0.74999 0
M  V30 16505 N 1563.83 0.388742 -1.5273 0
M  V30 16506 C 1565.05 1.15946 -1.71963 0
M  V30 16507 C 1565.48 1.82949 -0.437173 0
M  V30 16508 O 1564.84 1.70834 0.607072 0
M  V30 16509 C 1564.89 2.18298 -2.87016 0
M  V30 16510 O 1563.99 3.24891 -2.54008 0
M  V30 16511 H 1563.33 0.337526 -0.571815 0
M  V30 16512 H 1565.86 0.452957 -1.99523 0
M  V30 16513 H 1565.87 2.6229 -3.12519 0
M  V30 16514 H 1564.55 1.68917 -3.80052 0
M  V30 16515 H 1563.12 2.86034 -2.39246 0
M  V30 16516 N 1565.31 1.43698 0.647203 0
M  V30 16517 C 1566.72 1.27231 0.963563 0
M  V30 16518 C 1566.92 0.196385 2.00541 0
M  V30 16519 O 1565.98 -0.423162 2.48929 0
M  V30 16520 C 1567.29 2.63863 1.44211 0
M  V30 16521 C 1568.84 2.71444 1.55844 0
M  V30 16522 C 1569.32 4.08508 2.07087 0
M  V30 16523 N 1570.81 4.10603 2.14381 0
M  V30 16524 C 1571.54 5.13496 2.55166 0
M  V30 16525 N 1571.04 6.26759 2.95203 0
M  V30 16526 N 1572.83 5.0085 2.55158 0
M  V30 16527 H 1564.98 2.12358 -0.0420956 0
M  V30 16528 H 1567.24 0.946989 0.0437628 0
M  V30 16529 H 1566.95 3.43589 0.75096 0
M  V30 16530 H 1566.82 2.89666 2.41605 0
M  V30 16531 H 1569.21 1.92046 2.24058 0
M  V30 16532 H 1569.29 2.49399 0.56866 0
M  V30 16533 H 1568.94 4.88375 1.39472 0
M  V30 16534 H 1568.87 4.2792 3.06907 0
M  V30 16535 H 1571.36 3.2885 1.86188 0
M  V30 16536 H 1571.67 7.01096 3.25091 0
M  V30 16537 H 1570.02 6.30222 2.92993 0
M  V30 16538 H 1573.21 4.11428 2.2326 0
M  V30 16539 H 1573.38 5.81165 2.86621 0
M  V30 16540 N 1566.79 -0.886131 1.30328 0
M  V30 16541 C 1568.01 -1.67099 1.22007 0
M  V30 16542 C 1568.43 -1.87546 -0.217255 0
M  V30 16543 O 1567.79 -1.42213 -1.14375 0
M  V30 16544 C 1567.84 -3.048 1.94368 0
M  V30 16545 O 1567.56 -2.85277 3.32489 0
M  V30 16546 C 1569.06 -3.99231 1.9269 0
M  V30 16547 H 1566.28 -0.521467 0.422271 0
M  V30 16548 H 1568.82 -1.1072 1.71934 0
M  V30 16549 H 1566.98 -3.57915 1.48242 0
M  V30 16550 H 1567.39 -3.72626 3.69121 0
M  V30 16551 H 1568.87 -4.93223 2.47861 0
M  V30 16552 H 1569.34 -4.29763 0.905558 0
M  V30 16553 H 1569.95 -3.52051 2.38621 0
M  V30 16554 N 1568.26 -1.13026 -1.09832 0
M  V30 16555 C 1569.49 -0.912803 -1.86233 0
M  V30 16556 C 1569.91 0.532955 -1.80392 0
M  V30 16557 O 1569.27 1.37783 -1.17837 0
M  V30 16558 C 1569.32 -1.40002 -3.32313 0
M  V30 16559 O 1568.42 -0.582537 -4.08265 0
M  V30 16560 H 1567.77 -0.327464 -0.577636 0
M  V30 16561 H 1570.3 -1.5039 -1.38723 0
M  V30 16562 H 1570.31 -1.40182 -3.83162 0
M  V30 16563 H 1568.98 -2.4527 -3.3588 0
M  V30 16564 H 1567.56 -0.648255 -3.67222 0
M  V30 16565 N 1569.74 1.27735 -0.923117 0
M  V30 16566 C 1570.69 2.26997 -0.417254 0
M  V30 16567 C 1571.66 1.57968 0.513364 0
M  V30 16568 O 1572.84 1.8581 0.433521 0
M  V30 16569 C 1569.98 3.43537 0.328089 0
M  V30 16570 C 1569.1 4.27291 -0.636112 0
M  V30 16571 C 1568.23 5.31044 0.128614 0
M  V30 16572 C 1567.27 6.06466 -0.828592 0
M  V30 16573 N 1566.41 7.02033 -0.0967858 0
M  V30 16574 H 1571.25 2.69643 -1.26872 0
M  V30 16575 H 1568.79 1.32597 -0.6369 0
M  V30 16576 H 1570.74 4.0991 0.776504 0
M  V30 16577 H 1569.37 3.01855 1.14383 0
M  V30 16578 H 1568.43 3.60875 -1.20306 0
M  V30 16579 H 1569.74 4.79679 -1.36784 0
M  V30 16580 H 1568.89 6.03345 0.637159 0
M  V30 16581 H 1567.63 4.79448 0.893341 0
M  V30 16582 H 1566.64 5.33008 -1.34843 0
M  V30 16583 H 1567.86 6.60151 -1.59303 0
M  V30 16584 H 1565.81 6.52774 0.649779 0
M  V30 16585 H 1565.72 7.52087 -0.768171 0
M  V30 16586 H 1566.99 7.78517 0.391257 0
M  V30 16587 N 1571.22 0.688118 1.41784 0
M  V30 16588 C 1572.17 0.018099 2.30793 0
M  V30 16589 C 1573.14 -0.779009 1.46699 0
M  V30 16590 O 1574.32 -0.748556 1.75503 0
M  V30 16591 C 1571.46 -0.91769 3.32675 0
M  V30 16592 C 1570.58 -0.11299 4.31852 0
M  V30 16593 C 1569.71 -1.04574 5.20805 0
M  V30 16594 C 1568.75 -0.233509 6.11654 0
M  V30 16595 N 1567.89 -1.11967 6.93115 0
M  V30 16596 H 1572.73 0.782911 2.87532 0
M  V30 16597 H 1570.26 0.397806 1.41619 0
M  V30 16598 H 1572.22 -1.47421 3.90286 0
M  V30 16599 H 1570.85 -1.64898 2.77504 0
M  V30 16600 H 1569.9 0.560344 3.7625 0
M  V30 16601 H 1571.22 0.517033 4.96113 0
M  V30 16602 H 1570.37 -1.67174 5.83213 0
M  V30 16603 H 1569.11 -1.70963 4.56753 0
M  V30 16604 H 1568.11 0.405614 5.48302 0
M  V30 16605 H 1569.34 0.426479 6.7776 0
M  V30 16606 H 1567.28 -1.76972 6.31678 0
M  V30 16607 H 1567.2 -0.545042 7.54033 0
M  V30 16608 H 1568.47 -1.73272 7.59998 0
M  V30 16609 N 1572.7 -1.51554 0.432352 0
M  V30 16610 C 1574.11 -1.59377 0.0843863 0
M  V30 16611 C 1574.31 -1.44364 -1.40575 0
M  V30 16612 O 1573.37 -1.28234 -2.17514 0
M  V30 16613 C 1574.68 -2.94652 0.600046 0
M  V30 16614 C 1576.23 -3.07949 0.560049 0
M  V30 16615 C 1576.71 -4.4574 1.0526 0
M  V30 16616 N 1578.2 -4.52046 1.01038 0
M  V30 16617 C 1578.93 -5.56979 1.36242 0
M  V30 16618 N 1578.43 -6.69355 1.78707 0
M  V30 16619 N 1580.22 -5.47311 1.2809 0
M  V30 16620 H 1572.37 -1.59558 1.40197 0
M  V30 16621 H 1574.64 -0.751868 0.577406 0
M  V30 16622 H 1574.34 -3.10993 1.64245 0
M  V30 16623 H 1574.22 -3.77193 0.0222482 0
M  V30 16624 H 1576.6 -2.91279 -0.473357 0
M  V30 16625 H 1576.68 -2.27259 1.17419 0
M  V30 16626 H 1576.33 -4.63156 2.08445 0
M  V30 16627 H 1576.26 -5.24962 0.415047 0
M  V30 16628 H 1578.75 -3.71389 0.69847 0
M  V30 16629 H 1579.06 -7.45438 2.03819 0
M  V30 16630 H 1577.41 -6.70576 1.82629 0
M  V30 16631 H 1580.6 -4.58403 0.947848 0
M  V30 16632 H 1580.77 -6.28978 1.55855 0
M  V30 16633 N 1574.18 -0.163538 -1.56749 0
M  V30 16634 C 1575.14 0.755801 -2.1638 0
M  V30 16635 C 1576.14 1.16359 -1.10982 0
M  V30 16636 O 1577.33 1.08182 -1.36537 0
M  V30 16637 C 1574.46 2.02775 -2.74035 0
M  V30 16638 H 1575.65 0.23681 -2.98964 0
M  V30 16639 H 1573.21 0.0859925 -1.56063 0
M  V30 16640 H 1573.94 2.59002 -1.95163 0
M  V30 16641 H 1573.73 1.74439 -3.5116 0
M  V30 16642 H 1575.22 2.684 -3.19923 0
M  V30 16643 N 1575.65 1.57214 0.110213 0
M  V30 16644 C 1576.9 1.84946 0.814827 0
M  V30 16645 C 1577.22 0.750029 1.79999 0
M  V30 16646 O 1576.49 -0.225164 1.94602 0
M  V30 16647 H 1575.07 0.682385 0.303907 0
M  V30 16648 H 1577.74 1.94666 0.0954415 0
M  V30 16649 H 1576.83 2.81167 1.35469 0
M  V30 16650 N 1577.13 -0.380637 1.52934 0
M  V30 16651 C 1578.38 -1.1265 1.68635 0
M  V30 16652 C 1578.71 -1.89397 0.429227 0
M  V30 16653 O 1577.99 -1.85863 -0.573182 0
M  V30 16654 C 1578.27 -2.09797 2.92673 0
M  V30 16655 C 1578.12 -1.36758 4.28506 0
M  V30 16656 C 1579.44 -3.10117 3.12274 0
M  V30 16657 H 1576.56 -0.408158 0.613658 0
M  V30 16658 H 1579.2 -0.408947 1.85547 0
M  V30 16659 H 1577.35 -2.70987 2.78385 0
M  V30 16660 H 1579.02 -0.784679 4.54577 0
M  V30 16661 H 1577.27 -0.669413 4.28604 0
M  V30 16662 H 1577.94 -2.07786 5.11399 0
M  V30 16663 H 1580.41 -2.59022 3.25648 0
M  V30 16664 H 1579.29 -3.75328 4.00525 0
M  V30 16665 H 1579.55 -3.79451 2.26868 0
M  V30 16666 N 1578.61 -1.44039 -0.639573 0
M  V30 16667 C 1579.54 -1.53073 -1.76327 0
M  V30 16668 C 1580.52 -0.384344 -1.65701 0
M  V30 16669 O 1581.71 -0.603362 -1.84589 0
M  V30 16670 C 1578.84 -1.46646 -3.14821 0
M  V30 16671 C 1577.79 -2.59673 -3.40226 0
M  V30 16672 C 1577.12 -2.38298 -4.78663 0
M  V30 16673 C 1578.42 -4.01864 -3.33621 0
M  V30 16674 H 1580.11 -2.47126 -1.69023 0
M  V30 16675 H 1577.66 -1.1894 -0.811749 0
M  V30 16676 H 1579.61 -1.51567 -3.93199 0
M  V30 16677 H 1578.33 -0.491035 -3.22888 0
M  V30 16678 H 1576.99 -2.54127 -2.64225 0
M  V30 16679 H 1576.64 -1.38968 -4.83422 0
M  V30 16680 H 1576.34 -3.14074 -4.9662 0
M  V30 16681 H 1577.86 -2.45025 -5.59281 0
M  V30 16682 H 1579.28 -4.08824 -4.01915 0
M  V30 16683 H 1577.68 -4.77775 -3.63113 0
M  V30 16684 H 1578.75 -4.26033 -2.31569 0
M  V30 16685 N 1580.09 0.879207 -1.30796 0
M  V30 16686 C 1581.33 1.63392 -1.21139 0
M  V30 16687 C 1581.69 1.91016 0.230372 0
M  V30 16688 O 1580.98 1.52411 1.1611 0
M  V30 16689 C 1581.18 2.97578 -1.97945 0
M  V30 16690 C 1581.01 2.83055 -3.49442 0
M  V30 16691 C 1579.78 2.82731 -4.18797 0
M  V30 16692 C 1581.97 2.58583 -4.44566 0
M  V30 16693 N 1579.96 2.5916 -5.56515 0
M  V30 16694 C 1581.33 2.44189 -5.69887 0
M  V30 16695 C 1583.38 2.43854 -4.34096 0
M  V30 16696 C 1582.08 2.16563 -6.85925 0
M  V30 16697 C 1584.11 2.17615 -5.49907 0
M  V30 16698 C 1583.47 2.04002 -6.74213 0
M  V30 16699 H 1579.57 0.602628 -0.498361 0
M  V30 16700 H 1582.16 1.03557 -1.64876 0
M  V30 16701 H 1580.33 3.55435 -1.56591 0
M  V30 16702 H 1582.06 3.62277 -1.80382 0
M  V30 16703 H 1578.81 2.94774 -3.70682 0
M  V30 16704 H 1579.24 2.50371 -6.29002 0
M  V30 16705 H 1583.88 2.53111 -3.38666 0
M  V30 16706 H 1581.6 2.06044 -7.81391 0
M  V30 16707 H 1585.18 2.07032 -5.43718 0
M  V30 16708 H 1584.06 1.83983 -7.62312 0
M  V30 16709 N 1581.57 1.13606 1.09231 0
M  V30 16710 C 1582.84 0.81012 1.78035 0
M  V30 16711 C 1583.22 -0.697953 1.99228 0
M  V30 16712 O 1582.57 -1.63592 1.5953 0
M  V30 16713 C 1582.78 1.59932 3.10198 0
M  V30 16714 C 1584.13 1.79328 3.84872 0
M  V30 16715 O 1585.15 1.56547 3.19955 0
M  V30 16716 O 1584.01 2.17355 5.01417 0
M  V30 16717 H 1581.11 0.295995 0.772215 0
M  V30 16718 H 1583.65 1.24079 1.15769 0
M  V30 16719 H 1582.43 2.6241 2.9027 0
M  V30 16720 H 1582.05 1.16371 3.80189 0
M  V30 16721 N 1583.05 -1.27244 0.929878 0
M  V30 16722 C 1584.29 -1.94557 0.572306 0
M  V30 16723 C 1584.62 -1.72886 -0.884542 0
M  V30 16724 O 1583.9 -1.0592 -1.63129 0
M  V30 16725 C 1584.18 -3.48629 0.901675 0
M  V30 16726 C 1584.04 -3.79633 2.41244 0
M  V30 16727 C 1585.35 -4.38195 0.409093 0
M  V30 16728 H 1582.47 -0.706627 0.209397 0
M  V30 16729 H 1585.12 -1.50321 1.16205 0
M  V30 16730 H 1583.27 -3.86437 0.399791 0
M  V30 16731 H 1584.94 -3.51604 2.98618 0
M  V30 16732 H 1583.18 -3.26108 2.8607 0
M  V30 16733 H 1583.85 -4.87284 2.59342 0
M  V30 16734 H 1586.33 -4.07548 0.839256 0
M  V30 16735 H 1585.2 -5.44814 0.668482 0
M  V30 16736 H 1585.46 -4.36669 -0.690861 0
M  V30 16737 N 1584.52 -0.695628 -1.41417 0
M  V30 16738 C 1585.93 -0.3014 -1.84251 0
M  V30 16739 C 1586.29 1.16042 -1.58204 0
M  V30 16740 O 1585.41 1.89079 -1.05253 0
M  V30 16741 C 1586.01 -0.540256 -3.34465 0
M  V30 16742 C 1584.56 -0.199944 -3.75869 0
M  V30 16743 C 1583.71 -0.822511 -2.64821 0
M  V30 16744 H 1586.66 -0.896278 -1.30968 0
M  V30 16745 H 1586.68 0.201019 -3.79969 0
M  V30 16746 H 1586.2 -1.60427 -3.53391 0
M  V30 16747 H 1584.3 0.859798 -3.62544 0
M  V30 16748 H 1584.41 -0.655005 -4.74601 0
M  V30 16749 H 1582.77 -0.252109 -2.53449 0
M  V30 16750 H 1583.56 -1.89039 -2.86564 0
M  V30 16751 N 1586 1.51322 -0.440383 0
M  V30 16752 C 1587.23 2.07017 0.126018 0
M  V30 16753 C 1587.65 1.30537 1.35431 0
M  V30 16754 O 1587.01 0.344178 1.78003 0
M  V30 16755 C 1587.06 3.58101 0.4238 0
M  V30 16756 O 1586.16 3.83772 1.50973 0
M  V30 16757 H 1585.5 0.664 0.000530178 0
M  V30 16758 H 1588.03 1.94897 -0.622594 0
M  V30 16759 H 1588.04 4.02405 0.673363 0
M  V30 16760 H 1586.72 4.13191 -0.473932 0
M  V30 16761 H 1585.29 3.51329 1.24989 0
M  V30 16762 N 1587.48 0.171848 1.5666 0
M  V30 16763 C 1588.89 -0.34479 1.83489 0
M  V30 16764 C 1589.24 -1.63025 1.09167 0
M  V30 16765 O 1588.37 -2.13634 0.34488 0
M  V30 16766 C 1588.96 -0.63234 3.32847 0
M  V30 16767 C 1587.52 -1.09342 3.60169 0
M  V30 16768 C 1586.67 -0.129569 2.76997 0
M  V30 16769 H 1589.62 0.396101 1.53677 0
M  V30 16770 H 1589.64 -1.48434 3.50354 0
M  V30 16771 H 1589.15 0.303409 3.86912 0
M  V30 16772 H 1587.25 -2.04425 3.11514 0
M  V30 16773 H 1587.37 -1.00221 4.685 0
M  V30 16774 H 1585.73 -0.627033 2.46861 0
M  V30 16775 H 1586.51 0.800211 3.33844 0
M  V30 16776 N 1588.96 -1.5727 -0.101874 0
M  V30 16777 C 1590.37 -1.74753 -0.657147 0
M  V30 16778 C 1590.72 -0.793052 -1.79458 0
M  V30 16779 O 1589.84 0.0300559 -2.16379 0
M  V30 16780 C 1590.44 -3.1688 -1.19885 0
M  V30 16781 C 1589 -3.3581 -1.70025 0
M  V30 16782 C 1588.15 -2.70575 -0.607007 0
M  V30 16783 H 1591.1 -1.58214 0.124158 0
M  V30 16784 H 1591.12 -3.19378 -2.06829 0
M  V30 16785 H 1590.63 -3.86325 -0.37079 0
M  V30 16786 H 1588.73 -2.71434 -2.55253 0
M  V30 16787 H 1588.84 -4.44086 -1.79791 0
M  V30 16788 H 1587.21 -2.32284 -1.04481 0
M  V30 16789 H 1587.99 -3.42655 0.21036 0
M  V30 16790 N 1590.44 0.372521 -1.53134 0
M  V30 16791 C 1591.85 0.949671 -1.60742 0
M  V30 16792 C 1592.2 1.90475 -0.470501 0
M  V30 16793 O 1591.32 2.12594 0.404085 0
M  V30 16794 C 1591.92 1.72918 -2.9135 0
M  V30 16795 C 1590.48 2.25577 -3.01317 0
M  V30 16796 C 1589.62 1.06612 -2.55986 0
M  V30 16797 H 1592.57 0.151533 -1.57975 0
M  V30 16798 H 1592.6 2.58982 -2.78763 0
M  V30 16799 H 1592.11 1.0338 -3.74078 0
M  V30 16800 H 1590.21 2.98378 -2.23162 0
M  V30 16801 H 1590.32 2.53935 -4.06268 0
M  V30 16802 H 1588.69 1.43105 -2.10697 0
M  V30 16803 H 1589.47 0.38584 -3.41125 0
M  V30 16804 N 1591.91 1.44376 0.631925 0
M  V30 16805 C 1593.16 1.47335 1.39356 0
M  V30 16806 C 1593.49 0.10525 1.93915 0
M  V30 16807 O 1592.77 -0.877006 1.73605 0
M  V30 16808 C 1593.05 2.53308 2.55943 0
M  V30 16809 C 1592.9 3.99473 2.06739 0
M  V30 16810 C 1594.22 2.55794 3.58131 0
M  V30 16811 H 1591.34 0.536447 0.505365 0
M  V30 16812 H 1593.98 1.76051 0.714572 0
M  V30 16813 H 1592.13 2.28953 3.13868 0
M  V30 16814 H 1593.81 4.34958 1.53652 0
M  V30 16815 H 1592.05 4.11288 1.37929 0
M  V30 16816 H 1592.72 4.69269 2.90672 0
M  V30 16817 H 1595.2 2.77554 3.10005 0
M  V30 16818 H 1594.07 3.31847 4.37228 0
M  V30 16819 H 1594.33 1.59962 4.12146 0
M  V30 16820 N 1593.39 -0.872258 1.31261 0
M  V30 16821 C 1594.64 -1.6219 1.20576 0
M  V30 16822 C 1594.96 -1.93557 -0.236769 0
M  V30 16823 O 1594.23 -1.58094 -1.15686 0
M  V30 16824 H 1592.81 -0.601265 0.443272 0
M  V30 16825 H 1595.47 -1.04438 1.64556 0
M  V30 16826 H 1594.57 -2.56653 1.77582 0
M  V30 16827 N 1594.87 -1.14184 -1.08627 0
M  V30 16828 C 1595.82 -0.826718 -2.15486 0
M  V30 16829 C 1596.79 0.214769 -1.64706 0
M  V30 16830 O 1597.97 0.0851909 -1.9061 0
M  V30 16831 C 1595.11 -0.307888 -3.43724 0
M  V30 16832 C 1594.22 -1.40941 -4.08362 0
M  V30 16833 C 1593.36 -0.848059 -5.24387 0
M  V30 16834 C 1592.4 -1.92741 -5.80962 0
M  V30 16835 N 1591.54 -1.3834 -6.88336 0
M  V30 16836 H 1596.38 -1.74198 -2.41783 0
M  V30 16837 H 1593.91 -0.869406 -1.18658 0
M  V30 16838 H 1595.87 0.0111149 -4.17199 0
M  V30 16839 H 1594.5 0.570488 -3.17719 0
M  V30 16840 H 1593.55 -1.84485 -3.3267 0
M  V30 16841 H 1594.86 -2.22485 -4.46433 0
M  V30 16842 H 1594.02 -0.480826 -6.04792 0
M  V30 16843 H 1592.76 -0.00163783 -4.877 0
M  V30 16844 H 1591.76 -2.30362 -4.99213 0
M  V30 16845 H 1592.99 -2.77738 -6.19708 0
M  V30 16846 H 1590.93 -0.559124 -6.53613 0
M  V30 16847 H 1590.85 -2.13524 -7.2522 0
M  V30 16848 H 1592.12 -1.044 -7.72477 0
M  V30 16849 N 1596.35 1.26749 -0.936613 0
M  V30 16850 C 1597.31 2.24794 -0.447243 0
M  V30 16851 C 1598.31 1.54688 0.439135 0
M  V30 16852 O 1599.5 1.72553 0.238957 0
M  V30 16853 C 1596.63 3.39036 0.355958 0
M  V30 16854 H 1597.83 2.696 -1.31361 0
M  V30 16855 H 1595.38 1.38825 -0.718143 0
M  V30 16856 H 1596.11 2.99625 1.24077 0
M  V30 16857 H 1595.9 3.91101 -0.279691 0
M  V30 16858 H 1597.39 4.11887 0.688421 0
M  V30 16859 N 1597.83 0.703118 1.41046 0
M  V30 16860 C 1598.74 0.0432777 2.3456 0
M  V30 16861 C 1599.75 -0.757704 1.56636 0
M  V30 16862 O 1600.93 -0.693531 1.89082 0
M  V30 16863 C 1597.99 -0.876385 3.35441 0
M  V30 16864 C 1597.05 -0.06676 4.29248 0
M  V30 16865 C 1596.29 -0.942622 5.2531 0
M  V30 16866 O 1596.51 -2.18205 5.27013 0
M  V30 16867 O 1595.44 -0.388266 6.00646 0
M  V30 16868 H 1599.27 0.814302 2.9258 0
M  V30 16869 H 1596.86 0.463503 1.42028 0
M  V30 16870 H 1598.74 -1.40353 3.9734 0
M  V30 16871 H 1597.41 -1.62677 2.79853 0
M  V30 16872 H 1596.32 0.505165 3.70674 0
M  V30 16873 H 1597.65 0.645128 4.87954 0
M  V30 16874 N 1599.3 -1.51086 0.448402 0
M  V30 16875 C 1600.23 -2.30896 -0.347773 0
M  V30 16876 C 1601.22 -1.36792 -1.01104 0
M  V30 16877 O 1602.4 -1.65713 -1.01257 0
M  V30 16878 C 1599.53 -3.15901 -1.44304 0
M  V30 16879 C 1598.48 -4.18373 -0.90265 0
M  V30 16880 C 1597.81 -4.9197 -2.0945 0
M  V30 16881 C 1599.11 -5.22252 0.0705335 0
M  V30 16882 H 1600.8 -2.97704 0.318273 0
M  V30 16883 H 1598.35 -1.43169 0.154509 0
M  V30 16884 H 1600.3 -3.70519 -2.00733 0
M  V30 16885 H 1599.03 -2.46935 -2.13753 0
M  V30 16886 H 1597.69 -3.64823 -0.3605 0
M  V30 16887 H 1597.33 -4.19497 -2.77545 0
M  V30 16888 H 1597.03 -5.6127 -1.73926 0
M  V30 16889 H 1598.56 -5.49415 -2.66412 0
M  V30 16890 H 1599.97 -5.71876 -0.403814 0
M  V30 16891 H 1598.37 -5.99142 0.338905 0
M  V30 16892 H 1599.44 -4.74398 1.00373 0
M  V30 16893 N 1600.78 -0.180154 -1.56567 0
M  V30 16894 C 1601.69 0.758959 -2.21984 0
M  V30 16895 C 1602.71 1.24631 -1.21422 0
M  V30 16896 O 1603.88 1.29659 -1.54112 0
M  V30 16897 C 1600.95 1.96744 -2.85469 0
M  V30 16898 C 1600.01 1.52612 -4.01258 0
M  V30 16899 C 1599.24 2.677 -4.61706 0
M  V30 16900 O 1599.47 3.84799 -4.21054 0
M  V30 16901 O 1598.4 2.41269 -5.51428 0
M  V30 16902 H 1602.23 0.231919 -3.02813 0
M  V30 16903 H 1599.81 0.0484552 -1.49321 0
M  V30 16904 H 1601.69 2.67404 -3.25689 0
M  V30 16905 H 1600.37 2.48337 -2.0763 0
M  V30 16906 H 1599.28 0.78877 -3.6569 0
M  V30 16907 H 1600.61 1.05701 -4.80716 0
M  V30 16908 N 1602.26 1.57322 0.0935319 0
M  V30 16909 C 1603.54 1.77187 0.828503 0
M  V30 16910 C 1603.92 0.762216 1.96859 0
M  V30 16911 O 1603.27 -0.208982 2.27542 0
M  V30 16912 C 1603.48 3.23007 1.32163 0
M  V30 16913 C 1604.82 3.86233 1.76379 0
M  V30 16914 O 1605.85 3.26766 1.41783 0
M  V30 16915 O 1604.71 4.90808 2.40354 0
M  V30 16916 H 1601.8 0.726401 0.395311 0
M  V30 16917 H 1604.35 1.69533 0.0752924 0
M  V30 16918 H 1603.12 3.88029 0.504863 0
M  V30 16919 H 1602.74 3.353 2.13681 0
M  V30 16920 N 1603.74 -0.364395 1.53329 0
M  V30 16921 C 1604.99 -1.10473 1.69234 0
M  V30 16922 C 1605.31 -1.89799 0.447347 0
M  V30 16923 O 1604.58 -1.8835 -0.538612 0
M  V30 16924 H 1603.16 -0.410826 0.623884 0
M  V30 16925 H 1605.82 -0.410721 1.90523 0
M  V30 16926 H 1604.92 -1.79387 2.55396 0
M  V30 16927 N 1605.22 -1.44709 -0.62426 0
M  V30 16928 C 1606.18 -1.51738 -1.7178 0
M  V30 16929 C 1607.18 -0.398646 -1.5578 0
M  V30 16930 O 1608.37 -0.661525 -1.61151 0
M  V30 16931 C 1605.5 -1.39792 -3.1092 0
M  V30 16932 H 1606.69 -2.49154 -1.6692 0
M  V30 16933 H 1604.25 -1.31903 -0.838531 0
M  V30 16934 H 1604.98 -0.434955 -3.2137 0
M  V30 16935 H 1604.77 -2.20919 -3.2394 0
M  V30 16936 H 1606.26 -1.47706 -3.90606 0
M  V30 16937 N 1606.69 0.865285 -1.31722 0
M  V30 16938 C 1607.92 1.64897 -1.24469 0
M  V30 16939 C 1608.33 1.88228 0.191553 0
M  V30 16940 O 1607.68 1.44396 1.13559 0
M  V30 16941 C 1607.74 3.0371 -1.92355 0
M  V30 16942 C 1607.4 3.03468 -3.41696 0
M  V30 16943 C 1608.4 2.81086 -4.37364 0
M  V30 16944 C 1606.08 3.2444 -3.83463 0
M  V30 16945 C 1608.08 2.79663 -5.72772 0
M  V30 16946 C 1605.76 3.22645 -5.18983 0
M  V30 16947 C 1606.76 3.00284 -6.13448 0
M  V30 16948 O 1606.45 2.98342 -7.4649 0
M  V30 16949 H 1606.18 0.520681 -0.431124 0
M  V30 16950 H 1608.74 1.08795 -1.74221 0
M  V30 16951 H 1606.97 3.61558 -1.37159 0
M  V30 16952 H 1608.66 3.64321 -1.78955 0
M  V30 16953 H 1609.42 2.6466 -4.06423 0
M  V30 16954 H 1605.3 3.40874 -3.10364 0
M  V30 16955 H 1608.84 2.62128 -6.46479 0
M  V30 16956 H 1604.74 3.38612 -5.49556 0
M  V30 16957 H 1605.51 3.14371 -7.5572 0
M  V30 16958 N 1608.17 1.14759 1.0802 0
M  V30 16959 C 1609.59 0.8888 1.32561 0
M  V30 16960 C 1609.79 -0.467926 1.95992 0
M  V30 16961 O 1608.84 -1.21135 2.21546 0
M  V30 16962 C 1610.16 2.02456 2.22333 0
M  V30 16963 C 1611.71 2.05831 2.35802 0
M  V30 16964 C 1612.18 3.18711 3.28918 0
M  V30 16965 N 1613.67 3.18315 3.36496 0
M  V30 16966 C 1614.41 4.02297 4.08589 0
M  V30 16967 N 1613.9 4.96327 4.83354 0
M  V30 16968 N 1615.7 3.90344 4.0446 0
M  V30 16969 H 1607.85 2.02135 0.652307 0
M  V30 16970 H 1610.11 0.881021 0.35001 0
M  V30 16971 H 1609.82 3.00354 1.82976 0
M  V30 16972 H 1609.69 1.95108 3.2282 0
M  V30 16973 H 1612.08 1.08537 2.74415 0
M  V30 16974 H 1612.16 2.17248 1.35044 0
M  V30 16975 H 1611.8 4.16253 2.91025 0
M  V30 16976 H 1611.73 3.04531 4.29614 0
M  V30 16977 H 1614.22 2.50214 2.83199 0
M  V30 16978 H 1614.54 5.56865 5.35837 0
M  V30 16979 H 1612.88 5.00321 4.82394 0
M  V30 16980 H 1616.07 3.162 3.45159 0
M  V30 16981 H 1616.24 4.56019 4.60381 0
M  V30 16982 N 1609.65 -1.26251 0.943322 0
M  V30 16983 C 1610.9 -1.92946 0.587764 0
M  V30 16984 C 1611.21 -1.74805 -0.877647 0
M  V30 16985 O 1612.42 -2.35976 -1.34267 0
M  V30 16986 C 1610.87 -3.45715 1.00047 0
M  V30 16987 C 1610.48 -3.72586 2.48764 0
M  V30 16988 C 1612.23 -4.18403 0.716905 0
M  V30 16989 C 1610.13 -5.18805 2.83893 0
M  V30 16990 H 1609.06 -0.722366 0.21611 0
M  V30 16991 H 1611.71 -1.43295 1.14625 0
M  V30 16992 H 1610.1 -3.94263 0.370491 0
M  V30 16993 H 1611.27 -3.34735 3.16684 0
M  V30 16994 H 1609.59 -3.13136 2.74472 0
M  V30 16995 H 1612.18 -5.2609 0.955669 0
M  V30 16996 H 1612.53 -4.14856 -0.346396 0
M  V30 16997 H 1613.06 -3.75726 1.3067 0
M  V30 16998 H 1609.8 -5.27454 3.89195 0
M  V30 16999 H 1609.32 -5.57745 2.20636 0
M  V30 17000 H 1611 -5.86828 2.72474 0
M  V30 17001 N 1611.13 -0.710588 -1.40671 0
M  V30 17002 C 1612.08 -0.0548139 -2.30735 0
M  V30 17003 C 1613.05 0.755572 -1.4792 0
M  V30 17004 O 1614.23 0.720541 -1.76672 0
M  V30 17005 C 1611.37 0.864648 -3.34093 0
M  V30 17006 C 1610.48 0.0442717 -4.31977 0
M  V30 17007 C 1609.62 0.962752 -5.22403 0
M  V30 17008 C 1608.66 0.13617 -6.11949 0
M  V30 17009 N 1607.8 1.00926 -6.94808 0
M  V30 17010 H 1612.64 -0.828555 -2.8625 0
M  V30 17011 H 1610.17 -0.420286 -1.40968 0
M  V30 17012 H 1612.13 1.41193 -3.92582 0
M  V30 17013 H 1610.76 1.60462 -2.80092 0
M  V30 17014 H 1609.81 -0.620132 -3.75311 0
M  V30 17015 H 1611.12 -0.595895 -4.95228 0
M  V30 17016 H 1610.28 1.57874 -5.85799 0
M  V30 17017 H 1609.02 1.63675 -4.59415 0
M  V30 17018 H 1608.02 -0.492793 -5.47587 0
M  V30 17019 H 1609.25 -0.534251 -6.76995 0
M  V30 17020 H 1607.19 1.669 -6.34413 0
M  V30 17021 H 1607.11 0.425013 -7.54804 0
M  V30 17022 H 1608.38 1.61159 -7.62659 0
M  V30 17023 N 1612.61 1.50847 -0.456408 0
M  V30 17024 C 1613.54 2.26004 0.381421 0
M  V30 17025 C 1614.55 1.30757 0.969872 0
M  V30 17026 O 1615.74 1.56375 0.86077 0
M  V30 17027 C 1612.84 3.01506 1.54748 0
M  V30 17028 C 1612.01 4.23997 1.07448 0
M  V30 17029 C 1611.07 4.81917 2.11288 0
M  V30 17030 O 1610.1 5.43238 1.69945 0
M  V30 17031 N 1611.3 4.67622 3.43962 0
M  V30 17032 H 1614.07 2.98545 -0.262823 0
M  V30 17033 H 1611.63 1.59347 -0.286357 0
M  V30 17034 H 1613.62 3.37137 2.23877 0
M  V30 17035 H 1612.19 2.31856 2.0967 0
M  V30 17036 H 1611.41 3.93642 0.209584 0
M  V30 17037 H 1612.7 5.03446 0.736144 0
M  V30 17038 H 1612.1 4.18821 3.8027 0
M  V30 17039 H 1610.65 5.07562 4.0893 0
M  V30 17040 N 1614.09 0.188454 1.56469 0
M  V30 17041 C 1615.03 -0.735074 2.18781 0
M  V30 17042 C 1616 -1.21459 1.133 0
M  V30 17043 O 1617.19 -1.27967 1.41524 0
M  V30 17044 C 1614.33 -1.95181 2.84602 0
M  V30 17045 C 1613.44 -1.51428 4.0459 0
M  V30 17046 C 1612.58 -2.68601 4.58287 0
M  V30 17047 C 1611.61 -2.21422 5.70648 0
M  V30 17048 N 1610.75 -3.31749 6.18779 0
M  V30 17049 H 1615.59 -0.19694 2.97349 0
M  V30 17050 H 1613.13 -0.0854693 1.46851 0
M  V30 17051 H 1615.09 -2.66571 3.2093 0
M  V30 17052 H 1613.72 -2.46337 2.0861 0
M  V30 17053 H 1612.77 -0.6965 3.73969 0
M  V30 17054 H 1614.08 -1.1281 4.85876 0
M  V30 17055 H 1613.23 -3.48123 4.96885 0
M  V30 17056 H 1611.97 -3.1049 3.76095 0
M  V30 17057 H 1610.98 -1.40352 5.31584 0
M  V30 17058 H 1612.2 -1.80572 6.54653 0
M  V30 17059 H 1610.15 -3.73181 5.39511 0
M  V30 17060 H 1610.07 -2.97277 6.95099 0
M  V30 17061 H 1611.33 -4.11504 6.62031 0
M  V30 17062 N 1615.56 -1.5737 -0.0851874 0
M  V30 17063 C 1616.81 -1.86219 -0.7853 0
M  V30 17064 C 1617.13 -0.77857 -1.78783 0
M  V30 17065 O 1616.4 0.194176 -1.94935 0
M  V30 17066 H 1614.98 -0.687134 -0.293013 0
M  V30 17067 H 1617.64 -1.94793 -0.0644597 0
M  V30 17068 H 1616.74 -2.83286 -1.30978 0
M  V30 17069 N 1617.04 0.356258 -1.53521 0
M  V30 17070 C 1618.29 1.09526 -1.69372 0
M  V30 17071 C 1618.6 1.90189 -0.456912 0
M  V30 17072 O 1619.81 2.66928 -0.496141 0
M  V30 17073 C 1618.27 1.99643 -2.99451 0
M  V30 17074 C 1617.87 1.24248 -4.30426 0
M  V30 17075 C 1619.62 2.73478 -3.24669 0
M  V30 17076 C 1617.52 2.13321 -5.51587 0
M  V30 17077 H 1616.45 0.412594 -0.631096 0
M  V30 17078 H 1619.11 0.355603 -1.80021 0
M  V30 17079 H 1617.49 2.77377 -2.82627 0
M  V30 17080 H 1618.66 0.515123 -4.57912 0
M  V30 17081 H 1616.98 0.622355 -4.11723 0
M  V30 17082 H 1619.57 3.40366 -4.12377 0
M  V30 17083 H 1619.92 3.39355 -2.4113 0
M  V30 17084 H 1620.45 2.02823 -3.4221 0
M  V30 17085 H 1617.19 1.52006 -6.37632 0
M  V30 17086 H 1616.71 2.8388 -5.28368 0
M  V30 17087 H 1618.39 2.72666 -5.86739 0
M  V30 17088 N 1618.52 1.45038 0.616577 0
M  V30 17089 C 1619.45 1.55858 1.73869 0
M  V30 17090 C 1620.43 0.410657 1.65069 0
M  V30 17091 O 1621.62 0.632652 1.83606 0
M  V30 17092 C 1618.75 1.51635 3.12448 0
M  V30 17093 C 1617.7 2.65053 3.36052 0
M  V30 17094 C 1617.03 2.45883 4.74811 0
M  V30 17095 C 1618.33 4.07121 3.27185 0
M  V30 17096 H 1620.02 2.49784 1.6507 0
M  V30 17097 H 1617.57 1.20216 0.792724 0
M  V30 17098 H 1619.52 1.57803 3.90738 0
M  V30 17099 H 1618.24 0.542342 3.22066 0
M  V30 17100 H 1616.9 2.58299 2.60149 0
M  V30 17101 H 1616.55 1.46641 4.8115 0
M  V30 17102 H 1616.25 3.21935 4.9156 0
M  V30 17103 H 1617.77 2.53892 5.55312 0
M  V30 17104 H 1619.19 4.15167 3.9536 0
M  V30 17105 H 1617.58 4.83491 3.55466 0
M  V30 17106 H 1618.65 4.29663 2.24762 0
M  V30 17107 N 1620 -0.858287 1.32179 0
M  V30 17108 C 1621.25 -1.60902 1.2229 0
M  V30 17109 C 1621.57 -1.93797 -0.216227 0
M  V30 17110 O 1620.84 -1.59312 -1.14002 0
M  V30 17111 H 1619.42 -0.596529 0.449624 0
M  V30 17112 H 1622.08 -1.02686 1.65655 0
M  V30 17113 H 1621.17 -2.54755 1.80295 0
M  V30 17114 N 1621.48 -1.1533 -1.07409 0
M  V30 17115 C 1622.71 -0.950263 -1.83449 0
M  V30 17116 C 1623.11 0.504761 -1.82343 0
M  V30 17117 O 1622.46 1.36183 -1.23287 0
M  V30 17118 C 1622.52 -1.38651 -3.31687 0
M  V30 17119 C 1622.18 -2.85914 -3.56514 0
M  V30 17120 C 1623.18 -3.83981 -3.50506 0
M  V30 17121 C 1620.86 -3.23568 -3.84199 0
M  V30 17122 C 1622.86 -5.17707 -3.71831 0
M  V30 17123 C 1620.55 -4.57467 -4.05175 0
M  V30 17124 C 1621.54 -5.54345 -3.98986 0
M  V30 17125 O 1621.23 -6.85826 -4.19403 0
M  V30 17126 H 1620.96 -0.337616 -0.585655 0
M  V30 17127 H 1623.52 -1.53489 -1.36493 0
M  V30 17128 H 1621.75 -0.745282 -3.7945 0
M  V30 17129 H 1623.44 -1.15267 -3.89189 0
M  V30 17130 H 1624.2 -3.56237 -3.29121 0
M  V30 17131 H 1620.08 -2.48748 -3.88131 0
M  V30 17132 H 1623.63 -5.93311 -3.66916 0
M  V30 17133 H 1619.52 -4.84927 -4.26047 0
M  V30 17134 H 1620.29 -6.92235 -4.36753 0
M  V30 17135 N 1622.95 1.25748 -0.950004 0
M  V30 17136 C 1624.18 1.97952 -0.618848 0
M  V30 17137 C 1624.6 1.70184 0.801194 0
M  V30 17138 O 1623.96 0.955032 1.54107 0
M  V30 17139 C 1624.01 3.49744 -0.878151 0
M  V30 17140 O 1623.11 4.12375 0.0453685 0
M  V30 17141 H 1622.45 0.620731 -0.235773 0
M  V30 17142 H 1624.98 1.59988 -1.27534 0
M  V30 17143 H 1624.99 4.00029 -0.802567 0
M  V30 17144 H 1623.67 3.69285 -1.91315 0
M  V30 17145 H 1622.25 3.7281 -0.0820265 0
M  V30 17146 N 1624.43 0.718038 1.40292 0
M  V30 17147 C 1625.36 0.0276294 2.29183 0
M  V30 17148 C 1626.38 -0.721208 1.45954 0
M  V30 17149 O 1627.57 -0.568181 1.69216 0
M  V30 17150 C 1624.67 -0.985139 3.24266 0
M  V30 17151 C 1623.84 -0.301327 4.36361 0
M  V30 17152 C 1622.9 -1.21982 5.11866 0
M  V30 17153 O 1621.92 -0.70369 5.64833 0
M  V30 17154 N 1623.13 -2.55079 5.21455 0
M  V30 17155 H 1625.89 0.790884 2.89076 0
M  V30 17156 H 1623.45 0.565867 1.51689 0
M  V30 17157 H 1625.44 -1.60183 3.7165 0
M  V30 17158 H 1624.01 -1.64973 2.65523 0
M  V30 17159 H 1623.23 0.495594 3.91072 0
M  V30 17160 H 1624.52 0.173238 5.08505 0
M  V30 17161 H 1623.92 -2.99506 4.79909 0
M  V30 17162 H 1622.48 -3.11886 5.72338 0
M  V30 17163 N 1625.91 -1.50602 0.464402 0
M  V30 17164 C 1627.16 -2.01478 -0.0945398 0
M  V30 17165 C 1627.47 -1.35165 -1.41386 0
M  V30 17166 O 1628.68 -1.7716 -2.05735 0
M  V30 17167 C 1627.13 -3.59233 -0.219003 0
M  V30 17168 C 1626.74 -4.345 1.09148 0
M  V30 17169 C 1628.49 -4.18172 -0.730262 0
M  V30 17170 C 1626.39 -5.84023 0.931179 0
M  V30 17171 H 1625.32 -0.752985 -0.0391065 0
M  V30 17172 H 1627.97 -1.73473 0.598283 0
M  V30 17173 H 1626.36 -3.83798 -0.975455 0
M  V30 17174 H 1627.53 -4.21665 1.85837 0
M  V30 17175 H 1625.85 -3.8714 1.53334 0
M  V30 17176 H 1628.44 -5.27622 -0.867119 0
M  V30 17177 H 1628.79 -3.79113 -1.71986 0
M  V30 17178 H 1629.32 -3.97788 -0.0313808 0
M  V30 17179 H 1626.06 -6.27543 1.89395 0
M  V30 17180 H 1625.58 -5.99451 0.20456 0
M  V30 17181 H 1627.26 -6.44257 0.595118 0
M  V30 17182 N 1627.39 -0.19675 -1.56367 0
M  V30 17183 C 1628.64 0.440711 -1.97236 0
M  V30 17184 C 1628.96 1.62037 -1.08485 0
M  V30 17185 O 1628.23 1.95274 -0.156483 0
M  V30 17186 H 1626.81 0.16581 -0.728365 0
M  V30 17187 H 1629.47 -0.283867 -1.92822 0
M  V30 17188 H 1628.57 0.783731 -3.02099 0
M  V30 17189 N 1628.87 1.57413 0.0768405 0
M  V30 17190 C 1629.83 2.02363 1.0762 0
M  V30 17191 C 1630.83 0.919879 1.3189 0
M  V30 17192 O 1632.02 1.18489 1.27695 0
M  V30 17193 C 1629.15 2.39995 2.42106 0
M  V30 17194 H 1630.34 2.91881 0.688889 0
M  V30 17195 H 1627.9 1.52938 0.322422 0
M  V30 17196 H 1628.63 1.53488 2.85678 0
M  V30 17197 H 1628.42 3.20534 2.25833 0
M  V30 17198 H 1629.91 2.75365 3.13948 0
M  V30 17199 N 1630.34 -0.348112 1.53707 0
M  V30 17200 C 1631.59 -1.08671 1.70396 0
M  V30 17201 C 1631.91 -1.89314 0.467453 0
M  V30 17202 O 1631.18 -1.88911 -0.518605 0
M  V30 17203 H 1629.76 -0.404186 0.628206 0
M  V30 17204 H 1632.43 -0.390491 1.90948 0
M  V30 17205 H 1631.52 -1.76668 2.57284 0
M  V30 17206 N 1631.82 -1.45363 -0.608876 0
M  V30 17207 C 1633.07 -1.49534 -1.36995 0
M  V30 17208 C 1633.4 -0.136087 -1.93723 0
M  V30 17209 O 1632.68 0.849276 -1.74979 0
M  V30 17210 C 1632.96 -2.57348 -2.51881 0
M  V30 17211 C 1632.81 -4.02712 -2.00358 0
M  V30 17212 C 1634.13 -2.61459 -3.54016 0
M  V30 17213 H 1631.25 -0.544419 -0.496767 0
M  V30 17214 H 1633.89 -1.77165 -0.686473 0
M  V30 17215 H 1632.04 -2.33917 -3.10185 0
M  V30 17216 H 1633.71 -4.37348 -1.46713 0
M  V30 17217 H 1631.96 -4.1343 -1.31369 0
M  V30 17218 H 1632.63 -4.73834 -2.8317 0
M  V30 17219 H 1635.1 -2.8245 -3.0555 0
M  V30 17220 H 1633.98 -3.38761 -4.31894 0
M  V30 17221 H 1634.24 -1.66499 -4.09549 0
M  V30 17222 N 1633.3 0.851265 -1.32632 0
M  V30 17223 C 1634.53 1.63568 -1.26211 0
M  V30 17224 C 1634.94 1.8842 0.171578 0
M  V30 17225 O 1634.28 1.45592 1.12021 0
M  V30 17226 C 1634.34 3.01653 -1.95566 0
M  V30 17227 C 1634.01 2.99827 -3.44896 0
M  V30 17228 C 1635 2.76431 -4.4032 0
M  V30 17229 C 1632.69 3.20355 -3.86883 0
M  V30 17230 C 1634.68 2.73572 -5.75706 0
M  V30 17231 C 1632.37 3.17122 -5.22376 0
M  V30 17232 C 1633.37 2.9376 -6.16599 0
M  V30 17233 O 1633.06 2.90408 -7.49612 0
M  V30 17234 H 1632.79 0.516079 -0.436622 0
M  V30 17235 H 1635.34 1.06941 -1.75365 0
M  V30 17236 H 1633.57 3.60083 -1.40986 0
M  V30 17237 H 1635.26 3.62403 -1.82809 0
M  V30 17238 H 1636.03 2.60335 -4.09208 0
M  V30 17239 H 1631.91 3.37563 -3.13962 0
M  V30 17240 H 1635.45 2.55257 -6.49222 0
M  V30 17241 H 1631.35 3.32764 -5.53117 0
M  V30 17242 H 1632.12 3.06338 -7.59012 0
M  V30 17243 N 1634.78 1.15898 1.06796 0
M  V30 17244 C 1635.73 0.860895 2.14143 0
M  V30 17245 C 1636.7 -0.188539 1.65026 0
M  V30 17246 O 1637.88 -0.0548558 1.90721 0
M  V30 17247 C 1635.02 0.362533 3.4319 0
M  V30 17248 C 1634.13 1.4742 4.06068 0
M  V30 17249 C 1633.27 0.931377 5.22971 0
M  V30 17250 C 1632.31 2.0196 5.77822 0
M  V30 17251 N 1631.44 1.49274 6.86048 0
M  V30 17252 H 1636.28 1.78023 2.38981 0
M  V30 17253 H 1633.82 0.888173 1.1726 0
M  V30 17254 H 1635.78 0.0552592 4.17163 0
M  V30 17255 H 1634.41 -0.519869 3.18586 0
M  V30 17256 H 1633.46 1.89754 3.29693 0
M  V30 17257 H 1634.77 2.29559 4.42836 0
M  V30 17258 H 1633.93 0.576982 6.0395 0
M  V30 17259 H 1632.67 0.0792265 4.87636 0
M  V30 17260 H 1631.67 2.38275 4.95485 0
M  V30 17261 H 1632.9 2.87562 6.15211 0
M  V30 17262 H 1630.84 0.663037 6.52641 0
M  V30 17263 H 1630.76 2.25035 7.21731 0
M  V30 17264 H 1632.03 1.16676 7.70718 0
M  V30 17265 N 1636.26 -1.25243 0.956659 0
M  V30 17266 C 1637.17 -2.29529 0.48515 0
M  V30 17267 C 1638.18 -1.68121 -0.448494 0
M  V30 17268 O 1639.36 -1.98773 -0.324243 0
M  V30 17269 C 1636.42 -3.45952 -0.227611 0
M  V30 17270 C 1635.48 -4.22795 0.744495 0
M  V30 17271 C 1634.72 -5.3366 0.0656539 0
M  V30 17272 O 1634.94 -5.58722 -1.14829 0
M  V30 17273 O 1633.87 -5.97181 0.75222 0
M  V30 17274 H 1637.7 -2.71955 1.35181 0
M  V30 17275 H 1635.29 -1.30729 0.723203 0
M  V30 17276 H 1637.17 -4.16687 -0.628474 0
M  V30 17277 H 1635.84 -3.05524 -1.06942 0
M  V30 17278 H 1634.75 -3.5448 1.1956 0
M  V30 17279 H 1636.08 -4.67012 1.55438 0
M  V30 17280 N 1637.73 -0.725468 -1.3991 0
M  V30 17281 C 1638.98 -0.268719 -2.00306 0
M  V30 17282 C 1639.3 1.14511 -1.57836 0
M  V30 17283 O 1638.57 1.77808 -0.822263 0
M  V30 17284 H 1637.15 -0.0963614 -0.740759 0
M  V30 17285 H 1639.82 -0.933303 -1.71101 0
M  V30 17286 H 1638.91 -0.309587 -3.10561 0
M  V30 17287 N 1639.21 1.50354 -0.472382 0
M  V30 17288 C 1640.44 2.06746 0.0798134 0
M  V30 17289 C 1640.86 1.3361 1.33393 0
M  V30 17290 O 1640.21 0.405765 1.77932 0
M  V30 17291 C 1640.26 3.59636 0.3666 0
M  V30 17292 O 1639.98 4.30015 -0.837776 0
M  V30 17293 C 1641.49 4.32655 0.965618 0
M  V30 17294 H 1638.71 0.670956 -0.00765904 0
M  V30 17295 H 1641.25 1.93504 -0.661535 0
M  V30 17296 H 1639.4 3.72676 1.05788 0
M  V30 17297 H 1639.82 5.21248 -0.583161 0
M  V30 17298 H 1641.29 5.406 1.11604 0
M  V30 17299 H 1641.77 3.93237 1.95606 0
M  V30 17300 H 1642.38 4.24149 0.312676 0
M  V30 17301 N 1640.69 0.205039 1.56261 0
M  V30 17302 C 1641.94 -0.431097 1.97858 0
M  V30 17303 C 1642.27 -1.60937 1.09223 0
M  V30 17304 O 1641.52 -1.95244 0.133495 0
M  V30 17305 C 1641.82 -0.924086 3.45247 0
M  V30 17306 C 1641.49 0.141879 4.50677 0
M  V30 17307 C 1640.15 0.434753 4.79232 0
M  V30 17308 C 1642.5 0.863645 5.13995 0
M  V30 17309 C 1639.83 1.4542 5.68392 0
M  V30 17310 C 1642.18 1.87231 6.04258 0
M  V30 17311 C 1640.84 2.17227 6.31164 0
M  V30 17312 H 1640.11 -0.157749 0.724014 0
M  V30 17313 H 1642.76 0.304094 1.8907 0
M  V30 17314 H 1641.07 -1.73774 3.51155 0
M  V30 17315 H 1642.76 -1.42586 3.74794 0
M  V30 17316 H 1639.35 -0.0965514 4.28491 0
M  V30 17317 H 1643.54 0.650612 4.92017 0
M  V30 17318 H 1638.79 1.69241 5.8751 0
M  V30 17319 H 1642.97 2.43675 6.52377 0
M  V30 17320 H 1640.59 2.96366 7.00051 0
M  V30 17321 N 1642.17 -1.57451 -0.0684915 0
M  V30 17322 C 1643.12 -2.00364 -1.08803 0
M  V30 17323 C 1644.1 -0.886239 -1.34293 0
M  V30 17324 O 1645.3 -1.15015 -1.34538 0
M  V30 17325 C 1642.42 -2.45387 -2.40083 0
M  V30 17326 C 1641.51 -3.63869 -2.17853 0
M  V30 17327 N 1641.9 -4.77936 -1.65562 0
M  V30 17328 C 1640.2 -3.70482 -2.48312 0
M  V30 17329 C 1640.9 -5.59768 -1.58223 0
M  V30 17330 N 1639.88 -5.03711 -2.04392 0
M  V30 17331 H 1643.68 -2.85994 -0.6771 0
M  V30 17332 H 1641.19 -1.60046 -0.275509 0
M  V30 17333 H 1643.19 -2.74372 -3.13888 0
M  V30 17334 H 1641.85 -1.61146 -2.8189 0
M  V30 17335 H 1642.86 -5.00163 -1.34379 0
M  V30 17336 H 1639.54 -2.96961 -2.93463 0
M  V30 17337 H 1640.93 -6.61346 -1.18619 0
M  V30 17338 N 1643.65 0.339955 -1.5389 0
M  V30 17339 C 1644.88 1.09975 -1.75251 0
M  V30 17340 C 1645.29 1.8224 -0.493355 0
M  V30 17341 O 1644.65 1.74477 0.535173 0
M  V30 17342 C 1644.7 2.11048 -2.93498 0
M  V30 17343 O 1644.42 1.41721 -4.14544 0
M  V30 17344 C 1645.92 2.99375 -3.26939 0
M  V30 17345 H 1643.14 0.327811 -0.585475 0
M  V30 17346 H 1645.68 0.391068 -2.00726 0
M  V30 17347 H 1643.84 2.77476 -2.70344 0
M  V30 17348 H 1644.25 2.09271 -4.80943 0
M  V30 17349 H 1645.73 3.66223 -4.13019 0
M  V30 17350 H 1646.2 3.65588 -2.43397 0
M  V30 17351 H 1646.81 2.38531 -3.52112 0
M  V30 17352 N 1645.13 1.45684 0.601159 0
M  V30 17353 C 1646.06 1.49342 1.72546 0
M  V30 17354 C 1647.04 0.349184 1.58806 0
M  V30 17355 O 1648.22 0.550634 1.80278 0
M  V30 17356 C 1645.35 1.35455 3.10435 0
M  V30 17357 C 1644.39 2.53826 3.42746 0
M  V30 17358 S 1645.23 4.16269 3.36869 0
M  V30 17359 C 1646.38 4.04858 4.77326 0
M  V30 17360 H 1646.62 2.44469 1.69181 0
M  V30 17361 H 1644.15 1.33345 0.778358 0
M  V30 17362 H 1646.11 1.2813 3.89991 0
M  V30 17363 H 1644.77 0.417881 3.11308 0
M  V30 17364 H 1643.96 2.40053 4.4316 0
M  V30 17365 H 1643.56 2.58046 2.70718 0
M  V30 17366 H 1645.85 3.704 5.67283 0
M  V30 17367 H 1646.8 5.05207 4.96157 0
M  V30 17368 H 1647.21 3.36408 4.5331 0
M  V30 17369 N 1646.6 -0.84422 1.33082 0
M  V30 17370 C 1647.85 -1.60123 1.25429 0
M  V30 17371 C 1648.2 -1.91559 -0.179646 0
M  V30 17372 O 1647.5 -1.55436 -1.12028 0
M  V30 17373 C 1647.69 -2.92225 2.05765 0
M  V30 17374 C 1647.52 -2.73691 3.56824 0
M  V30 17375 C 1646.29 -2.71528 4.26146 0
M  V30 17376 C 1648.49 -2.46706 4.51266 0
M  V30 17377 N 1646.47 -2.44314 5.63191 0
M  V30 17378 C 1647.84 -2.28994 5.76161 0
M  V30 17379 C 1649.9 -2.32259 4.40409 0
M  V30 17380 C 1648.6 -1.98301 6.91425 0
M  V30 17381 C 1650.63 -2.02959 5.55483 0
M  V30 17382 C 1649.99 -1.86055 6.79384 0
M  V30 17383 H 1646.09 -0.589203 0.514163 0
M  V30 17384 H 1648.67 -0.991494 1.67563 0
M  V30 17385 H 1646.84 -3.51158 1.65959 0
M  V30 17386 H 1648.57 -3.57367 1.89924 0
M  V30 17387 H 1645.33 -2.84843 3.78367 0
M  V30 17388 H 1645.75 -2.33606 6.35419 0
M  V30 17389 H 1650.39 -2.44043 3.45258 0
M  V30 17390 H 1648.11 -1.85254 7.86579 0
M  V30 17391 H 1651.7 -1.92543 5.49016 0
M  V30 17392 H 1650.58 -1.63707 7.66922 0
M  V30 17393 N 1648.08 -1.16463 -1.0618 0
M  V30 17394 C 1649.03 -0.840506 -2.11942 0
M  V30 17395 C 1650.02 0.180553 -1.59884 0
M  V30 17396 O 1651.21 -0.0204411 -1.76988 0
M  V30 17397 C 1648.34 -0.344603 -3.41566 0
M  V30 17398 C 1647.42 -1.39651 -4.00448 0
M  V30 17399 N 1647.81 -2.60722 -4.33426 0
M  V30 17400 C 1646.11 -1.25203 -4.28066 0
M  V30 17401 C 1646.81 -3.28236 -4.80246 0
M  V30 17402 N 1645.79 -2.55616 -4.79751 0
M  V30 17403 H 1649.59 -1.76116 -2.35288 0
M  V30 17404 H 1647.1 -1.05185 -1.23733 0
M  V30 17405 H 1649.1 -0.0939984 -4.16794 0
M  V30 17406 H 1647.76 0.569968 -3.19658 0
M  V30 17407 H 1648.77 -2.97769 -4.23738 0
M  V30 17408 H 1645.45 -0.39831 -4.15596 0
M  V30 17409 H 1646.84 -4.31589 -5.14957 0
M  V30 17410 N 1649.56 1.24734 -0.963288 0
M  V30 17411 C 1650.81 1.92971 -0.623688 0
M  V30 17412 C 1651.14 1.7517 0.838393 0
M  V30 17413 O 1650.41 1.10208 1.60264 0
M  V30 17414 C 1650.7 3.46115 -0.99379 0
M  V30 17415 C 1650.55 3.73104 -2.51224 0
M  V30 17416 C 1651.87 4.36956 -0.525128 0
M  V30 17417 H 1648.99 0.700827 -0.228058 0
M  V30 17418 H 1651.63 1.47187 -1.2015 0
M  V30 17419 H 1649.78 3.85242 -0.502108 0
M  V30 17420 H 1651.45 3.43563 -3.07835 0
M  V30 17421 H 1649.69 3.18409 -2.94616 0
M  V30 17422 H 1650.37 4.80237 -2.7217 0
M  V30 17423 H 1652.84 4.0518 -0.947015 0
M  V30 17424 H 1651.72 5.4285 -0.812695 0
M  V30 17425 H 1651.98 4.38347 0.574843 0
M  V30 17426 N 1651.04 0.732878 1.39523 0
M  V30 17427 C 1652.27 0.29007 2.04857 0
M  V30 17428 C 1652.68 -1.07435 1.55252 0
M  V30 17429 O 1652.04 -1.67847 0.716497 0
M  V30 17430 C 1652.09 0.280464 3.6041 0
M  V30 17431 O 1651.81 1.59102 4.08189 0
M  V30 17432 C 1653.31 -0.178772 4.42939 0
M  V30 17433 H 1650.53 0.12716 0.658841 0
M  V30 17434 H 1653.07 0.995933 1.7861 0
M  V30 17435 H 1651.23 -0.376494 3.85566 0
M  V30 17436 H 1651.64 1.50314 5.025 0
M  V30 17437 H 1653.12 -0.134335 5.51837 0
M  V30 17438 H 1653.59 -1.22362 4.21811 0
M  V30 17439 H 1654.2 0.448543 4.22928 0
M  V30 17440 N 1652.52 -1.50101 0.480349 0
M  V30 17441 C 1653.93 -1.59028 0.135048 0
M  V30 17442 C 1654.13 -1.48763 -1.35911 0
M  V30 17443 O 1653.19 -1.35089 -2.13324 0
M  V30 17444 C 1654.5 -2.92594 0.693483 0
M  V30 17445 C 1656.05 -3.06011 0.657737 0
M  V30 17446 C 1656.52 -4.42166 1.19388 0
M  V30 17447 N 1658.01 -4.48603 1.15368 0
M  V30 17448 C 1658.75 -5.52363 1.53893 0
M  V30 17449 N 1658.25 -6.6333 1.99911 0
M  V30 17450 N 1660.04 -5.42959 1.45438 0
M  V30 17451 H 1652.19 -1.55017 1.45202 0
M  V30 17452 H 1654.45 -0.733118 0.601034 0
M  V30 17453 H 1654.16 -3.0561 1.74056 0
M  V30 17454 H 1654.03 -3.76932 0.142238 0
M  V30 17455 H 1656.42 -2.92637 -0.38045 0
M  V30 17456 H 1656.5 -2.23408 1.24589 0
M  V30 17457 H 1656.14 -4.5629 2.23074 0
M  V30 17458 H 1656.07 -5.23376 0.58185 0
M  V30 17459 H 1658.57 -3.68979 0.816271 0
M  V30 17460 H 1658.88 -7.38576 2.27431 0
M  V30 17461 H 1657.22 -6.64426 2.03871 0
M  V30 17462 H 1660.41 -4.55156 1.09321 0
M  V30 17463 H 1660.59 -6.23701 1.75786 0
M  V30 17464 N 1653.99 -0.213323 -1.5615 0
M  V30 17465 C 1655.24 0.419767 -1.97693 0
M  V30 17466 C 1655.56 1.60878 -1.10197 0
M  V30 17467 O 1654.83 1.95097 -0.177185 0
M  V30 17468 H 1653.41 0.158075 -0.730083 0
M  V30 17469 H 1656.07 -0.304303 -1.9251 0
M  V30 17470 H 1655.17 0.751645 -3.02914 0
M  V30 17471 N 1655.47 1.57485 0.0601405 0
M  V30 17472 C 1656.44 2.03493 1.05467 0
M  V30 17473 C 1657.44 0.933816 1.30907 0
M  V30 17474 O 1658.63 1.19837 1.26431 0
M  V30 17475 C 1655.76 2.42549 2.39547 0
M  V30 17476 H 1656.95 2.92595 0.657893 0
M  V30 17477 H 1654.5 1.53272 0.306183 0
M  V30 17478 H 1655.24 1.56509 2.84034 0
M  V30 17479 H 1655.02 3.22911 2.22421 0
M  V30 17480 H 1656.51 2.7868 3.1101 0
M  V30 17481 N 1656.95 -0.331789 1.54068 0
M  V30 17482 C 1658.2 -1.07228 1.72134 0
M  V30 17483 C 1658.53 -1.87936 0.489265 0
M  V30 17484 O 1657.8 -1.87592 -0.513761 0
M  V30 17485 C 1658.09 -2.00379 2.99199 0
M  V30 17486 C 1657.94 -1.23056 4.3264 0
M  V30 17487 C 1659.26 -3.00026 3.21982 0
M  V30 17488 H 1656.38 -0.388428 0.626333 0
M  V30 17489 H 1659.02 -0.34971 1.86754 0
M  V30 17490 H 1657.17 -2.61993 2.86865 0
M  V30 17491 H 1658.84 -0.639661 4.56844 0
M  V30 17492 H 1657.09 -0.532717 4.30517 0
M  V30 17493 H 1657.76 -1.91411 5.17751 0
M  V30 17494 H 1660.23 -2.48531 3.33724 0
M  V30 17495 H 1659.11 -3.62395 4.12263 0
M  V30 17496 H 1659.37 -3.72041 2.38826 0
M  V30 17497 N 1658.43 -1.46001 -0.593424 0
M  V30 17498 C 1659.36 -1.58605 -1.71367 0
M  V30 17499 C 1660.34 -0.436866 -1.64394 0
M  V30 17500 O 1661.52 -0.661782 -1.82576 0
M  V30 17501 C 1658.65 -1.56587 -3.09996 0
M  V30 17502 C 1657.61 -2.70366 -3.31792 0
M  V30 17503 C 1656.93 -2.53406 -4.70839 0
M  V30 17504 C 1658.23 -4.12274 -3.20667 0
M  V30 17505 H 1659.93 -2.52379 -1.61076 0
M  V30 17506 H 1657.47 -1.21462 -0.773499 0
M  V30 17507 H 1659.43 -1.64 -3.88178 0
M  V30 17508 H 1658.15 -0.593511 -3.21162 0
M  V30 17509 H 1656.81 -2.62405 -2.56006 0
M  V30 17510 H 1656.46 -1.54278 -4.78756 0
M  V30 17511 H 1656.16 -3.29715 -4.86376 0
M  V30 17512 H 1657.68 -2.62694 -5.51203 0
M  V30 17513 H 1659.1 -4.21404 -3.88705 0
M  V30 17514 H 1657.49 -4.89085 -3.47729 0
M  V30 17515 H 1658.56 -4.33184 -2.17898 0
M  V30 17516 N 1659.91 0.83715 -1.33527 0
M  V30 17517 C 1660.84 1.95164 -1.18263 0
M  V30 17518 C 1661.82 1.62414 -0.0776864 0
M  V30 17519 O 1663 1.86963 -0.24024 0
M  V30 17520 C 1660.13 3.28766 -0.814294 0
M  V30 17521 C 1659.17 3.80486 -1.92698 0
M  V30 17522 S 1660.01 4.01957 -3.53823 0
M  V30 17523 C 1661.16 5.38507 -3.19 0
M  V30 17524 H 1661.4 2.07813 -2.12605 0
M  V30 17525 H 1658.93 0.991125 -1.18389 0
M  V30 17526 H 1660.89 4.05964 -0.608556 0
M  V30 17527 H 1659.55 3.13905 0.110553 0
M  V30 17528 H 1658.74 4.77164 -1.62266 0
M  V30 17529 H 1658.34 3.10189 -2.08947 0
M  V30 17530 H 1660.64 6.21404 -2.69931 0
M  V30 17531 H 1661.58 5.73913 -4.14764 0
M  V30 17532 H 1661.99 5.03342 -2.55552 0
M  V30 17533 N 1661.38 1.17024 1.05561 0
M  V30 17534 C 1662.33 0.851734 2.11493 0
M  V30 17535 C 1663.32 -0.172071 1.59977 0
M  V30 17536 O 1664.51 0.0298269 1.76975 0
M  V30 17537 C 1661.64 0.362712 3.41379 0
M  V30 17538 C 1660.73 1.41773 3.99702 0
M  V30 17539 N 1661.12 2.63017 4.32037 0
M  V30 17540 C 1659.41 1.27472 4.27396 0
M  V30 17541 C 1660.12 3.30778 4.78498 0
M  V30 17542 N 1659.09 2.58156 4.78389 0
M  V30 17543 H 1662.89 1.77361 2.34351 0
M  V30 17544 H 1660.41 1.0584 1.23174 0
M  V30 17545 H 1662.4 0.116101 4.16738 0
M  V30 17546 H 1661.06 -0.553008 3.19956 0
M  V30 17547 H 1662.08 3.00012 4.22153 0
M  V30 17548 H 1658.75 0.420344 4.15379 0
M  V30 17549 H 1660.14 4.34314 5.12661 0
M  V30 17550 N 1662.86 -1.24221 0.969889 0
M  V30 17551 C 1663.81 -2.25292 0.501215 0
M  V30 17552 C 1664.78 -1.59764 -0.454382 0
M  V30 17553 O 1665.96 -1.87291 -0.364261 0
M  V30 17554 C 1663.1 -3.44518 -0.200361 0
M  V30 17555 C 1662.22 -4.24636 0.79426 0
M  V30 17556 C 1661.35 -5.31156 0.068568 0
M  V30 17557 C 1660.39 -6.02973 1.05311 0
M  V30 17558 N 1659.53 -7.0119 0.357274 0
M  V30 17559 H 1664.37 -2.64749 1.36792 0
M  V30 17560 H 1661.91 -1.30142 0.685673 0
M  V30 17561 H 1663.86 -4.1251 -0.623833 0
M  V30 17562 H 1662.49 -3.05892 -1.03101 0
M  V30 17563 H 1661.55 -3.56161 1.33616 0
M  V30 17564 H 1662.86 -4.74271 1.54493 0
M  V30 17565 H 1662.01 -6.05294 -0.412792 0
M  V30 17566 H 1660.75 -4.82434 -0.714781 0
M  V30 17567 H 1659.76 -5.27636 1.54532 0
M  V30 17568 H 1660.98 -6.53784 1.83694 0
M  V30 17569 H 1658.93 -6.54736 -0.407059 0
M  V30 17570 H 1658.84 -7.48718 1.04677 0
M  V30 17571 H 1660.11 -7.79433 -0.102045 0
M  V30 17572 N 1664.34 -0.740267 -1.39132 0
M  V30 17573 C 1665.59 -0.289949 -2.00009 0
M  V30 17574 C 1665.91 1.12831 -1.59042 0
M  V30 17575 O 1665.18 1.76926 -0.841076 0
M  V30 17576 H 1663.76 -0.104213 -0.739695 0
M  V30 17577 H 1666.42 -0.951398 -1.70101 0
M  V30 17578 H 1665.52 -0.342509 -3.10215 0
M  V30 17579 N 1665.82 1.49844 -0.488302 0
M  V30 17580 C 1666.77 2.28883 0.296859 0
M  V30 17581 C 1667.74 1.34703 0.971818 0
M  V30 17582 O 1668.92 1.63653 0.980937 0
M  V30 17583 C 1666.06 3.17049 1.36286 0
M  V30 17584 C 1665.17 4.26275 0.700956 0
M  V30 17585 C 1664.31 5.01674 1.74632 0
M  V30 17586 C 1663.35 6.02753 1.06559 0
M  V30 17587 N 1662.48 6.71366 2.05457 0
M  V30 17588 H 1667.32 2.95523 -0.383417 0
M  V30 17589 H 1664.86 1.45721 -0.200928 0
M  V30 17590 H 1666.82 3.66531 1.99276 0
M  V30 17591 H 1665.45 2.52419 2.01207 0
M  V30 17592 H 1664.5 3.80377 -0.0419236 0
M  V30 17593 H 1665.81 4.98529 0.164469 0
M  V30 17594 H 1664.97 5.54961 2.45159 0
M  V30 17595 H 1663.71 4.29166 2.31664 0
M  V30 17596 H 1662.71 5.4871 0.346029 0
M  V30 17597 H 1663.94 6.77243 0.501932 0
M  V30 17598 H 1661.88 6.01637 2.61475 0
M  V30 17599 H 1661.8 7.39552 1.56841 0
M  V30 17600 H 1663.07 7.29262 2.75312 0
M  V30 17601 N 1667.3 0.221601 1.56034 0
M  V30 17602 C 1668.71 -0.133783 1.59038 0
M  V30 17603 C 1668.91 -1.58952 1.23841 0
M  V30 17604 O 1667.97 -2.32972 0.973677 0
M  V30 17605 C 1669.28 0.192549 3.00083 0
M  V30 17606 C 1670.83 0.134791 3.1271 0
M  V30 17607 C 1671.3 0.434799 4.55931 0
M  V30 17608 N 1672.8 0.384372 4.61602 0
M  V30 17609 C 1673.53 0.59 5.70357 0
M  V30 17610 N 1673.03 0.857405 6.87474 0
M  V30 17611 N 1674.82 0.522433 5.59667 0
M  V30 17612 H 1666.97 1.17124 1.77189 0
M  V30 17613 H 1669.23 0.46946 0.823597 0
M  V30 17614 H 1668.94 1.20292 3.30488 0
M  V30 17615 H 1668.81 -0.49243 3.73972 0
M  V30 17616 H 1671.2 -0.866221 2.821 0
M  V30 17617 H 1671.28 0.853247 2.4115 0
M  V30 17618 H 1670.93 1.43325 4.87258 0
M  V30 17619 H 1670.86 -0.304849 5.25717 0
M  V30 17620 H 1673.35 0.185389 3.77445 0
M  V30 17621 H 1673.66 1.00241 7.66271 0
M  V30 17622 H 1672 0.894599 6.89218 0
M  V30 17623 H 1675.2 0.313754 4.67047 0
M  V30 17624 H 1675.37 0.686094 6.44358 0
M  V30 17625 N 1668.77 -1.57515 -0.0517878 0
M  V30 17626 C 1670.02 -1.87396 -0.746022 0
M  V30 17627 C 1670.34 -0.817053 -1.77718 0
M  V30 17628 O 1671.54 -1.00435 -2.5224 0
M  V30 17629 C 1670 -3.32481 -1.37783 0
M  V30 17630 C 1669.61 -4.46349 -0.384208 0
M  V30 17631 C 1671.35 -3.71539 -2.05327 0
M  V30 17632 C 1669.26 -5.82484 -1.02307 0
M  V30 17633 H 1668.19 -0.699127 -0.282379 0
M  V30 17634 H 1670.84 -1.835 0.000245524 0
M  V30 17635 H 1669.22 -3.31051 -2.17304 0
M  V30 17636 H 1670.39 -4.59209 0.382639 0
M  V30 17637 H 1668.71 -4.15976 0.187873 0
M  V30 17638 H 1671.31 -4.70553 -2.53936 0
M  V30 17639 H 1671.65 -3.02361 -2.86153 0
M  V30 17640 H 1672.18 -3.75046 -1.32611 0
M  V30 17641 H 1668.92 -6.55005 -0.254704 0
M  V30 17642 H 1668.44 -5.73388 -1.7603 0
M  V30 17643 H 1670.12 -6.28476 -1.5371 0
M  V30 17644 N 1670.25 0.323614 -1.54242 0
M  V30 17645 C 1671.16 1.42128 -1.86646 0
M  V30 17646 C 1672.18 1.56603 -0.758385 0
M  V30 17647 O 1673.36 1.717 -1.05267 0
M  V30 17648 C 1670.42 2.76842 -2.08709 0
M  V30 17649 C 1669.48 2.71543 -3.3251 0
M  V30 17650 C 1668.71 3.99833 -3.5351 0
M  V30 17651 O 1668.94 4.98095 -2.77952 0
M  V30 17652 O 1667.87 4.03095 -4.46988 0
M  V30 17653 H 1671.7 1.17653 -2.79985 0
M  V30 17654 H 1669.28 0.517632 -1.40146 0
M  V30 17655 H 1671.16 3.56588 -2.24551 0
M  V30 17656 H 1669.84 3.01207 -1.18558 0
M  V30 17657 H 1668.75 1.90348 -3.22053 0
M  V30 17658 H 1670.08 2.52133 -4.22717 0
M  V30 17659 N 1671.73 1.46313 0.585673 0
M  V30 17660 C 1673.14 1.4567 1.16778 0
M  V30 17661 C 1673.49 0.195957 1.95219 0
M  V30 17662 O 1672.62 -0.701142 2.04727 0
M  V30 17663 C 1673.21 2.6392 2.12443 0
M  V30 17664 C 1671.77 2.66327 2.65983 0
M  V30 17665 C 1670.92 2.38304 1.41797 0
M  V30 17666 H 1673.87 1.54236 0.37377 0
M  V30 17667 H 1673.89 2.39268 2.95856 0
M  V30 17668 H 1673.4 3.55663 1.55324 0
M  V30 17669 H 1671.5 1.78648 3.2698 0
M  V30 17670 H 1671.62 3.66203 3.08921 0
M  V30 17671 H 1669.98 1.88302 1.71507 0
M  V30 17672 H 1670.76 3.3222 0.86514 0
M  V30 17673 N 1673.21 -0.830057 1.33969 0
M  V30 17674 C 1674.43 -1.62294 1.29133 0
M  V30 17675 C 1674.86 -1.87627 -0.133253 0
M  V30 17676 O 1674.22 -1.44669 -1.09272 0
M  V30 17677 C 1674.27 -2.94508 2.0808 0
M  V30 17678 O 1673.37 -3.86239 1.44544 0
M  V30 17679 H 1672.71 -0.493865 0.443839 0
M  V30 17680 H 1675.24 -1.03202 1.76665 0
M  V30 17681 H 1675.25 -3.44133 2.19173 0
M  V30 17682 H 1673.93 -2.75392 3.1166 0
M  V30 17683 H 1672.5 -3.44743 1.42151 0
M  V30 17684 N 1674.69 -1.17582 -1.04939 0
M  V30 17685 C 1675.93 -0.977213 -1.78388 0
M  V30 17686 C 1676.29 0.488754 -1.86089 0
M  V30 17687 O 1675.58 1.35813 -1.3515 0
M  V30 17688 C 1675.78 -1.55507 -3.21796 0
M  V30 17689 C 1675.6 -3.0757 -3.28072 0
M  V30 17690 C 1674.37 -3.76321 -3.3721 0
M  V30 17691 C 1676.57 -4.05142 -3.16803 0
M  V30 17692 N 1674.55 -5.15966 -3.32644 0
M  V30 17693 C 1675.93 -5.31256 -3.19636 0
M  V30 17694 C 1677.98 -3.96779 -3.00783 0
M  V30 17695 C 1676.68 -6.49976 -3.08096 0
M  V30 17696 C 1678.71 -5.15087 -2.90585 0
M  V30 17697 C 1678.07 -6.40087 -2.94054 0
M  V30 17698 H 1674.17 -0.411508 -0.66497 0
M  V30 17699 H 1676.75 -1.4921 -1.25078 0
M  V30 17700 H 1674.93 -1.06648 -3.73471 0
M  V30 17701 H 1676.66 -1.29284 -3.83494 0
M  V30 17702 H 1673.41 -3.27012 -3.42578 0
M  V30 17703 H 1673.84 -5.88974 -3.33824 0
M  V30 17704 H 1678.48 -3.00978 -2.96938 0
M  V30 17705 H 1676.2 -7.45985 -3.10696 0
M  V30 17706 H 1679.78 -5.10399 -2.79257 0
M  V30 17707 H 1678.66 -7.30094 -2.86239 0
M  V30 17708 N 1676.17 1.23705 -0.976463 0
M  V30 17709 C 1677.13 2.23257 -0.518533 0
M  V30 17710 C 1678.13 1.56006 0.3897 0
M  V30 17711 O 1679.32 1.73226 0.18394 0
M  V30 17712 C 1676.45 3.39997 0.247916 0
M  V30 17713 H 1677.64 2.65284 -1.39872 0
M  V30 17714 H 1675.2 1.3647 -0.761946 0
M  V30 17715 H 1675.93 3.03421 1.14482 0
M  V30 17716 H 1675.72 3.90013 -0.403975 0
M  V30 17717 H 1677.21 4.13868 0.557034 0
M  V30 17718 N 1677.64 0.747635 1.38738 0
M  V30 17719 C 1678.92 0.226908 1.94279 0
M  V30 17720 C 1679.3 -1.27373 1.68343 0
M  V30 17721 O 1678.65 -2.04538 1.01865 0
M  V30 17722 C 1678.86 0.574164 3.44245 0
M  V30 17723 C 1680.21 0.530498 4.21273 0
M  V30 17724 O 1681.23 0.512102 3.525 0
M  V30 17725 O 1680.09 0.536171 5.43863 0
M  V30 17726 H 1677.18 0.0456834 0.825737 0
M  V30 17727 H 1679.73 0.827353 1.48165 0
M  V30 17728 H 1678.5 1.6108 3.56607 0
M  V30 17729 H 1678.12 -0.0545964 3.97563 0
M  V30 17730 N 1679.12 -1.49583 0.496242 0
M  V30 17731 C 1680.37 -2.02738 -0.050037 0
M  V30 17732 C 1680.7 -1.37556 -1.37083 0
M  V30 17733 O 1679.98 -0.50964 -1.87704 0
M  V30 17734 C 1680.26 -3.59501 -0.207575 0
M  V30 17735 C 1680.11 -4.35218 1.13601 0
M  V30 17736 C 1681.43 -4.29715 -0.950443 0
M  V30 17737 H 1678.55 -0.736811 -0.0167105 0
M  V30 17738 H 1681.19 -1.78654 0.646728 0
M  V30 17739 H 1679.34 -3.80152 -0.801033 0
M  V30 17740 H 1681.01 -4.26075 1.76798 0
M  V30 17741 H 1679.26 -3.97964 1.72648 0
M  V30 17742 H 1679.93 -5.43247 0.979142 0
M  V30 17743 H 1682.4 -4.1369 -0.447173 0
M  V30 17744 H 1681.28 -5.39159 -1.02951 0
M  V30 17745 H 1681.54 -3.94627 -1.99304 0
M  V30 17746 N 1680.6 -0.229873 -1.55915 0
M  V30 17747 C 1681.55 0.676809 -2.20653 0
M  V30 17748 C 1682.52 1.18412 -1.16481 0
M  V30 17749 O 1683.7 1.2417 -1.44867 0
M  V30 17750 C 1680.84 1.87567 -2.89677 0
M  V30 17751 C 1679.95 1.40648 -4.08463 0
M  V30 17752 C 1679.09 2.56356 -4.65247 0
M  V30 17753 C 1678.13 2.06215 -5.76318 0
M  V30 17754 N 1677.27 3.15226 -6.27357 0
M  V30 17755 H 1682.11 0.118035 -2.97766 0
M  V30 17756 H 1679.64 0.0465042 -1.47026 0
M  V30 17757 H 1681.6 2.57968 -3.27884 0
M  V30 17758 H 1680.23 2.40719 -2.15067 0
M  V30 17759 H 1679.28 0.597104 -3.75684 0
M  V30 17760 H 1680.59 0.998877 -4.88696 0
M  V30 17761 H 1679.75 3.34827 -5.05941 0
M  V30 17762 H 1678.49 3.0041 -3.84194 0
M  V30 17763 H 1677.49 1.26209 -5.35118 0
M  V30 17764 H 1678.72 1.63151 -6.59211 0
M  V30 17765 H 1676.66 3.58746 -5.49215 0
M  V30 17766 H 1676.58 2.78744 -7.02736 0
M  V30 17767 H 1677.85 3.93807 -6.72708 0
M  V30 17768 N 1682.08 1.5754 0.0434337 0
M  V30 17769 C 1683.02 2.0561 1.04848 0
M  V30 17770 C 1683.99 0.942299 1.36784 0
M  V30 17771 O 1685.18 1.21191 1.47368 0
M  V30 17772 C 1682.32 2.52844 2.3487 0
M  V30 17773 C 1681.43 3.77958 2.09218 0
M  V30 17774 C 1680.57 4.13859 3.33007 0
M  V30 17775 C 1679.61 5.31932 3.02845 0
M  V30 17776 N 1678.74 5.63335 4.19045 0
M  V30 17777 H 1683.58 2.9123 0.631591 0
M  V30 17778 H 1681.12 1.44003 0.300258 0
M  V30 17779 H 1683.08 2.78291 3.10822 0
M  V30 17780 H 1681.71 1.70161 2.74308 0
M  V30 17781 H 1680.76 3.59681 1.23828 0
M  V30 17782 H 1682.07 4.64034 1.82958 0
M  V30 17783 H 1681.23 4.40358 4.17336 0
M  V30 17784 H 1679.97 3.26406 3.62368 0
M  V30 17785 H 1678.97 5.052 2.16916 0
M  V30 17786 H 1680.2 6.21027 2.74777 0
M  V30 17787 H 1678.14 4.7884 4.48384 0
M  V30 17788 H 1678.06 6.4389 3.96158 0
M  V30 17789 H 1679.33 5.94402 5.04289 0
M  V30 17790 N 1683.56 -0.31543 1.54411 0
M  V30 17791 C 1684.83 -1.07113 1.63665 0
M  V30 17792 C 1685.21 -2.05671 0.475688 0
M  V30 17793 O 1684.56 -2.22288 -0.52918 0
M  V30 17794 C 1684.77 -1.76584 3.0103 0
M  V30 17795 C 1686.12 -2.29309 3.57355 0
M  V30 17796 O 1687.14 -1.86638 3.03388 0
M  V30 17797 O 1686 -3.07452 4.51814 0
M  V30 17798 H 1683.1 -0.494217 0.663083 0
M  V30 17799 H 1685.64 -0.31467 1.66757 0
M  V30 17800 H 1684.41 -1.0494 3.76966 0
M  V30 17801 H 1684.04 -2.5902 3.01653 0
M  V30 17802 N 1685.03 -1.46622 -0.577906 0
M  V30 17803 C 1685.96 -1.60413 -1.69676 0
M  V30 17804 C 1686.95 -0.454277 -1.63922 0
M  V30 17805 O 1688.13 -0.68111 -1.81864 0
M  V30 17806 C 1685.26 -1.59866 -3.08318 0
M  V30 17807 C 1684.21 -2.7387 -3.28906 0
M  V30 17808 C 1683.54 -2.58386 -4.68125 0
M  V30 17809 C 1684.84 -4.15652 -3.16276 0
M  V30 17810 H 1686.53 -2.54073 -1.5839 0
M  V30 17811 H 1684.08 -1.22275 -0.760572 0
M  V30 17812 H 1686.03 -1.68108 -3.86417 0
M  V30 17813 H 1684.76 -0.627541 -3.20514 0
M  V30 17814 H 1683.42 -2.65105 -2.53209 0
M  V30 17815 H 1683.06 -1.59347 -4.77093 0
M  V30 17816 H 1682.76 -3.34855 -4.82852 0
M  V30 17817 H 1684.29 -2.68525 -5.48385 0
M  V30 17818 H 1685.7 -4.25503 -3.84214 0
M  V30 17819 H 1684.1 -4.92746 -3.42523 0
M  V30 17820 H 1685.17 -4.35471 -2.13291 0
M  V30 17821 N 1686.51 0.822941 -1.34408 0
M  V30 17822 C 1687.76 1.57418 -1.26105 0
M  V30 17823 C 1688.07 1.94884 0.167225 0
M  V30 17824 O 1689.28 2.68934 0.3724 0
M  V30 17825 C 1687.74 2.84008 -2.21059 0
M  V30 17826 C 1687.34 2.53844 -3.69144 0
M  V30 17827 C 1689.09 3.62029 -2.21664 0
M  V30 17828 C 1687 3.76628 -4.55967 0
M  V30 17829 H 1685.93 0.590813 -0.468461 0
M  V30 17830 H 1688.58 0.906027 -1.59573 0
M  V30 17831 H 1686.96 3.52449 -1.80543 0
M  V30 17832 H 1688.13 1.93515 -4.18197 0
M  V30 17833 H 1686.45 1.89099 -3.70986 0
M  V30 17834 H 1689.04 4.53197 -2.83754 0
M  V30 17835 H 1689.39 3.98147 -1.21593 0
M  V30 17836 H 1689.92 3.00532 -2.60625 0
M  V30 17837 H 1686.66 3.45631 -5.56974 0
M  V30 17838 H 1686.18 4.3624 -4.11648 0
M  V30 17839 H 1687.86 4.44038 -4.70573 0
M  V30 17840 N 1687.99 1.18137 1.04314 0
M  V30 17841 C 1689.22 1.00062 1.81666 0
M  V30 17842 C 1689.64 -0.446281 1.82729 0
M  V30 17843 O 1689 -1.32004 1.24277 0
M  V30 17844 C 1689.05 1.55698 3.25255 0
M  V30 17845 O 1688.15 0.776662 4.05021 0
M  V30 17846 H 1687.49 0.354651 0.561354 0
M  V30 17847 H 1690.02 1.56837 1.3139 0
M  V30 17848 H 1690.03 1.58303 3.76037 0
M  V30 17849 H 1688.71 2.61016 3.23795 0
M  V30 17850 H 1687.28 0.822723 3.63711 0
M  V30 17851 N 1689.47 -1.23186 0.98301 0
M  V30 17852 C 1690.7 -1.95418 0.670479 0
M  V30 17853 C 1691.11 -1.7295 -0.767135 0
M  V30 17854 O 1690.45 -1.01946 -1.52816 0
M  V30 17855 C 1690.51 -3.48456 0.884244 0
M  V30 17856 C 1690.18 -3.94645 2.30443 0
M  V30 17857 C 1691.17 -4.03108 3.28328 0
M  V30 17858 C 1688.86 -4.27561 2.63622 0
M  V30 17859 C 1690.85 -4.43845 4.57471 0
M  V30 17860 C 1688.54 -4.67979 3.92987 0
M  V30 17861 C 1689.54 -4.76088 4.89723 0
M  V30 17862 O 1689.22 -5.15597 6.16778 0
M  V30 17863 H 1688.96 -0.628896 0.247924 0
M  V30 17864 H 1691.51 -1.57559 1.31774 0
M  V30 17865 H 1689.74 -3.86282 0.179809 0
M  V30 17866 H 1691.43 -4.01899 0.568475 0
M  V30 17867 H 1692.2 -3.77879 3.04027 0
M  V30 17868 H 1688.07 -4.2046 1.89036 0
M  V30 17869 H 1691.62 -4.5009 5.32978 0
M  V30 17870 H 1687.52 -4.92658 4.17083 0
M  V30 17871 H 1688.28 -5.33701 6.20569 0
M  V30 17872 N 1690.95 -0.754982 -1.38339 0
M  V30 17873 C 1692.19 -0.311146 -1.9969 0
M  V30 17874 C 1692.52 1.11138 -1.60229 0
M  V30 17875 O 1691.79 1.76024 -0.859794 0
M  V30 17876 H 1690.37 -0.112052 -0.738548 0
M  V30 17877 H 1693.03 -0.969386 -1.69083 0
M  V30 17878 H 1692.12 -0.375392 -3.09834 0
M  V30 17879 N 1692.42 1.49318 -0.504168 0
M  V30 17880 C 1693.67 2.02062 0.039149 0
M  V30 17881 C 1693.99 1.38577 1.37191 0
M  V30 17882 O 1693.26 0.542179 1.88248 0
M  V30 17883 H 1691.84 0.746796 0.0174575 0
M  V30 17884 H 1694.51 1.83308 -0.66213 0
M  V30 17885 H 1693.6 3.11656 0.166496 0
M  V30 17886 N 1693.9 0.238138 1.5579 0
M  V30 17887 C 1695.15 -0.388263 1.98335 0
M  V30 17888 C 1695.47 -1.59104 1.12743 0
M  V30 17889 O 1694.74 -1.9479 0.208201 0
M  V30 17890 H 1693.32 -0.14644 0.732505 0
M  V30 17891 H 1695.98 0.334891 1.92001 0
M  V30 17892 H 1695.08 -0.703359 3.04071 0
M  V30 17893 N 1695.38 -1.57561 -0.0350783 0
M  V30 17894 C 1696.63 -1.90127 -0.722727 0
M  V30 17895 C 1696.98 -0.836071 -1.73285 0
M  V30 17896 O 1696.27 0.155911 -1.90965 0
M  V30 17897 C 1696.47 -3.27169 -1.43858 0
M  V30 17898 C 1696.3 -4.4692 -0.499303 0
M  V30 17899 C 1695.07 -5.05151 -0.122572 0
M  V30 17900 C 1697.27 -5.1383 0.219747 0
M  V30 17901 N 1695.25 -6.08418 0.818587 0
M  V30 17902 C 1696.62 -6.11606 1.01678 0
M  V30 17903 C 1698.67 -4.9707 0.287329 0
M  V30 17904 C 1697.38 -6.94428 1.87517 0
M  V30 17905 C 1699.4 -5.80449 1.13282 0
M  V30 17906 C 1698.76 -6.77791 1.9178 0
M  V30 17907 H 1694.86 -0.744663 -0.238749 0
M  V30 17908 H 1697.45 -1.94693 0.0170172 0
M  V30 17909 H 1695.62 -3.23543 -2.14882 0
M  V30 17910 H 1697.35 -3.47269 -2.07814 0
M  V30 17911 H 1694.11 -4.71126 -0.483458 0
M  V30 17912 H 1694.53 -6.64722 1.2835 0
M  V30 17913 H 1699.17 -4.21697 -0.305248 0
M  V30 17914 H 1696.89 -7.69151 2.47857 0
M  V30 17915 H 1700.48 -5.6953 1.18857 0
M  V30 17916 H 1699.36 -7.41187 2.56147 0
M  V30 17917 N 1696.86 0.307236 -1.54576 0
M  V30 17918 C 1697.81 1.3787 -1.85096 0
M  V30 17919 C 1698.78 1.5066 -0.69935 0
M  V30 17920 O 1699.96 1.65618 -0.947373 0
M  V30 17921 C 1697.1 2.73976 -2.09836 0
M  V30 17922 C 1696.21 2.69687 -3.3748 0
M  V30 17923 C 1695.35 3.97746 -3.52096 0
M  V30 17924 C 1694.39 3.87829 -4.73556 0
M  V30 17925 N 1693.52 5.07651 -4.8501 0
M  V30 17926 H 1698.36 1.11144 -2.76498 0
M  V30 17927 H 1695.9 0.537696 -1.36921 0
M  V30 17928 H 1697.86 3.53121 -2.22174 0
M  V30 17929 H 1696.49 2.98977 -1.21707 0
M  V30 17930 H 1695.54 1.82441 -3.33795 0
M  V30 17931 H 1696.85 2.58247 -4.26743 0
M  V30 17932 H 1696.01 4.85327 -3.64065 0
M  V30 17933 H 1694.75 4.12012 -2.60955 0
M  V30 17934 H 1693.75 2.98633 -4.61626 0
M  V30 17935 H 1694.98 3.75114 -5.66098 0
M  V30 17936 H 1692.92 5.22393 -3.9679 0
M  V30 17937 H 1692.84 4.9861 -5.68264 0
M  V30 17938 H 1694.11 5.969 -5.01328 0
M  V30 17939 N 1698.34 1.46926 0.570122 0
M  V30 17940 C 1699.27 1.61311 1.68822 0
M  V30 17941 C 1700.25 0.462964 1.63678 0
M  V30 17942 O 1701.43 0.690745 1.815 0
M  V30 17943 C 1698.56 1.61499 3.07466 0
M  V30 17944 C 1697.52 2.7561 3.27449 0
M  V30 17945 C 1696.84 2.60865 4.66748 0
M  V30 17946 C 1698.14 4.17324 3.14067 0
M  V30 17947 H 1699.84 2.54909 1.5704 0
M  V30 17948 H 1697.38 1.22677 0.754077 0
M  V30 17949 H 1699.34 1.70155 3.8552 0
M  V30 17950 H 1698.06 0.64453 3.20177 0
M  V30 17951 H 1696.72 2.66444 2.51799 0
M  V30 17952 H 1696.37 1.61875 4.76241 0
M  V30 17953 H 1696.07 3.37411 4.81069 0
M  V30 17954 H 1697.59 2.7143 5.46954 0
M  V30 17955 H 1699 4.27534 3.81952 0
M  V30 17956 H 1697.4 4.94555 3.39905 0
M  V30 17957 H 1698.47 4.36596 2.10979 0
M  V30 17958 N 1699.82 -0.815801 1.34842 0
M  V30 17959 C 1700.73 -1.95886 1.29097 0
M  V30 17960 C 1701.74 -1.72876 0.197422 0
M  V30 17961 O 1702.92 -1.96861 0.425166 0
M  V30 17962 C 1699.98 -3.30311 1.05336 0
M  V30 17963 C 1699.04 -3.66279 2.23916 0
M  V30 17964 C 1698.28 -4.9429 2.01279 0
M  V30 17965 O 1698.5 -5.62012 0.974603 0
M  V30 17966 O 1697.43 -5.28302 2.88411 0
M  V30 17967 H 1701.26 -2.03678 2.25276 0
M  V30 17968 H 1698.84 -0.952243 1.1512 0
M  V30 17969 H 1700.73 -4.10806 0.938961 0
M  V30 17970 H 1699.4 -3.2347 0.122024 0
M  V30 17971 H 1698.31 -2.86198 2.40918 0
M  V30 17972 H 1699.64 -3.77814 3.15464 0
M  V30 17973 N 1701.29 -1.18689 -1.03686 0
M  V30 17974 C 1702.54 -0.982656 -1.76602 0
M  V30 17975 C 1702.86 0.488553 -1.88781 0
M  V30 17976 O 1702.13 1.35419 -1.41558 0
M  V30 17977 H 1700.71 -0.360595 -0.654202 0
M  V30 17978 H 1703.37 -1.49439 -1.25115 0
M  V30 17979 H 1702.47 -1.42392 -2.77725 0
M  V30 17980 N 1702.77 1.22662 -0.989529 0
M  V30 17981 C 1703.68 2.28162 -0.545835 0
M  V30 17982 C 1704.7 1.69251 0.403762 0
M  V30 17983 O 1705.87 1.99563 0.271428 0
M  V30 17984 C 1702.94 3.46434 0.135808 0
M  V30 17985 C 1702 4.20673 -0.85633 0
M  V30 17986 C 1701.23 5.33298 -0.207121 0
M  V30 17987 O 1701.46 5.6157 0.99975 0
M  V30 17988 O 1700.39 5.94977 -0.910288 0
M  V30 17989 H 1704.22 2.68276 -1.42344 0
M  V30 17990 H 1701.8 1.28766 -0.757609 0
M  V30 17991 H 1703.68 4.18207 0.517776 0
M  V30 17992 H 1702.36 3.08252 0.988035 0
M  V30 17993 H 1701.26 3.51186 -1.28917 0
M  V30 17994 H 1702.6 4.62726 -1.67765 0
M  V30 17995 N 1704.25 0.762308 1.37937 0
M  V30 17996 C 1705.5 0.331831 2.00675 0
M  V30 17997 C 1705.85 -1.07702 1.5943 0
M  V30 17998 O 1705.14 -1.72885 0.825917 0
M  V30 17999 C 1705.34 0.402558 3.55126 0
M  V30 18000 C 1705.17 1.81674 4.11369 0
M  V30 18001 C 1703.94 2.43527 4.42744 0
M  V30 18002 C 1706.13 2.77478 4.33024 0
M  V30 18003 N 1704.12 3.76816 4.84647 0
M  V30 18004 C 1705.49 3.95549 4.77432 0
M  V30 18005 C 1707.54 2.74888 4.1514 0
M  V30 18006 C 1706.25 5.114 5.05829 0
M  V30 18007 C 1708.27 3.89904 4.44667 0
M  V30 18008 C 1707.63 5.06714 4.89306 0
M  V30 18009 H 1703.73 0.16827 0.763681 0
M  V30 18010 H 1706.32 0.994125 1.67407 0
M  V30 18011 H 1704.49 -0.229509 3.87721 0
M  V30 18012 H 1706.22 -0.0490702 4.0467 0
M  V30 18013 H 1702.97 1.95221 4.31492 0
M  V30 18014 H 1703.4 4.45321 5.0992 0
M  V30 18015 H 1708.04 1.85757 3.79808 0
M  V30 18016 H 1705.76 6.01139 5.40054 0
M  V30 18017 H 1709.34 3.89229 4.32425 0
M  V30 18018 H 1708.22 5.94236 5.11716 0
M  V30 18019 N 1705.73 -1.49049 0.51208 0
M  V30 18020 C 1706.67 -2.29326 -0.260408 0
M  V30 18021 C 1707.64 -1.36232 -0.950265 0
M  V30 18022 O 1708.83 -1.65193 -0.954777 0
M  V30 18023 C 1705.97 -3.19177 -1.31225 0
M  V30 18024 C 1705.08 -4.27336 -0.63305 0
M  V30 18025 C 1704.22 -5.04389 -1.66628 0
M  V30 18026 C 1703.26 -6.04372 -0.969561 0
M  V30 18027 N 1702.39 -6.74549 -1.94751 0
M  V30 18028 H 1707.23 -2.94876 0.430384 0
M  V30 18029 H 1704.77 -1.45383 0.224086 0
M  V30 18030 H 1706.73 -3.69655 -1.9342 0
M  V30 18031 H 1705.36 -2.55588 -1.97166 0
M  V30 18032 H 1704.41 -3.80262 0.102433 0
M  V30 18033 H 1705.72 -4.98727 -0.0851363 0
M  V30 18034 H 1704.88 -5.58791 -2.36299 0
M  V30 18035 H 1703.62 -4.32797 -2.24807 0
M  V30 18036 H 1702.62 -5.49191 -0.25869 0
M  V30 18037 H 1703.85 -6.77955 -0.394125 0
M  V30 18038 H 1701.79 -6.0572 -2.5187 0
M  V30 18039 H 1701.71 -7.41954 -1.45055 0
M  V30 18040 H 1702.98 -7.3355 -2.63675 0
M  V30 18041 N 1707.21 -0.246397 -1.55662 0
M  V30 18042 C 1708.12 0.664125 -2.25003 0
M  V30 18043 C 1709.13 1.19368 -1.26598 0
M  V30 18044 O 1710.31 1.23006 -1.59473 0
M  V30 18045 C 1707.37 1.8446 -2.93557 0
M  V30 18046 C 1706.43 1.35456 -4.0737 0
M  V30 18047 C 1705.67 2.47877 -4.72645 0
M  V30 18048 O 1705.89 3.66594 -4.36995 0
M  V30 18049 O 1704.82 2.17663 -5.61165 0
M  V30 18050 H 1708.65 0.103277 -3.03524 0
M  V30 18051 H 1706.23 -0.0149207 -1.49393 0
M  V30 18052 H 1708.12 2.53349 -3.36737 0
M  V30 18053 H 1706.79 2.39308 -2.17976 0
M  V30 18054 H 1705.7 0.632958 -3.68706 0
M  V30 18055 H 1707.03 0.852175 -4.84767 0
M  V30 18056 N 1708.68 1.57577 0.026722 0
M  V30 18057 C 1709.93 1.89005 0.715645 0
M  V30 18058 C 1710.25 0.844388 1.7577 0
M  V30 18059 O 1709.52 -0.121693 1.95522 0
M  V30 18060 H 1708.1 0.697535 0.267308 0
M  V30 18061 H 1710.76 1.94898 -0.00788096 0
M  V30 18062 H 1709.86 2.87952 1.20374 0
M  V30 18063 N 1710.16 -0.299034 1.54737 0
M  V30 18064 C 1711.07 -1.39141 1.88884 0
M  V30 18065 C 1712.09 -1.55377 0.783203 0
M  V30 18066 O 1713.26 -1.70003 1.07985 0
M  V30 18067 C 1710.33 -2.73487 2.13087 0
M  V30 18068 C 1709.39 -2.66219 3.36788 0
M  V30 18069 C 1708.62 -3.94158 3.59827 0
M  V30 18070 O 1708.85 -4.9361 2.85841 0
M  V30 18071 O 1707.78 -3.95933 4.53344 0
M  V30 18072 H 1711.61 -1.13184 2.81821 0
M  V30 18073 H 1709.19 -0.495271 1.40952 0
M  V30 18074 H 1711.07 -3.5297 2.30195 0
M  V30 18075 H 1709.75 -2.99283 1.23335 0
M  V30 18076 H 1708.65 -1.85201 3.25041 0
M  V30 18077 H 1709.99 -2.45376 4.26675 0
M  V30 18078 N 1711.64 -1.47227 -0.562322 0
M  V30 18079 C 1712.55 -1.61953 -1.69731 0
M  V30 18080 C 1713.57 -0.502478 -1.66587 0
M  V30 18081 O 1714.74 -0.769335 -1.86127 0
M  V30 18082 C 1711.81 -1.62539 -3.06238 0
M  V30 18083 C 1710.87 -2.85632 -3.20489 0
M  V30 18084 C 1710.1 -2.86181 -4.50485 0
M  V30 18085 O 1710.32 -1.96099 -5.35632 0
M  V30 18086 O 1709.26 -3.7798 -4.68417 0
M  V30 18087 H 1713.08 -2.5798 -1.6025 0
M  V30 18088 H 1710.67 -1.30253 -0.73174 0
M  V30 18089 H 1712.55 -1.65634 -3.87483 0
M  V30 18090 H 1711.23 -0.696779 -3.16112 0
M  V30 18091 H 1710.13 -2.88084 -2.3866 0
M  V30 18092 H 1711.47 -3.7777 -3.15517 0
M  V30 18093 N 1713.12 0.808639 -1.35273 0
M  V30 18094 C 1714.36 1.56794 -1.28621 0
M  V30 18095 C 1714.7 1.93697 0.139686 0
M  V30 18096 O 1713.97 1.61185 1.08856 0
M  V30 18097 C 1714.25 2.85794 -2.19075 0
M  V30 18098 C 1714.11 2.5538 -3.70271 0
M  V30 18099 C 1715.43 3.87481 -2.08678 0
M  V30 18100 H 1712.55 0.568873 -0.468564 0
M  V30 18101 H 1715.19 0.930499 -1.65655 0
M  V30 18102 H 1713.34 3.40191 -1.87622 0
M  V30 18103 H 1715.01 2.07182 -4.12157 0
M  V30 18104 H 1713.25 1.88605 -3.90654 0
M  V30 18105 H 1713.92 3.47432 -4.28947 0
M  V30 18106 H 1716.4 3.42478 -2.36323 0
M  V30 18107 H 1715.28 4.75523 -2.7417 0
M  V30 18108 H 1715.54 4.29004 -1.06809 0
M  V30 18109 N 1714.6 1.19237 1.03055 0
M  V30 18110 C 1715.53 0.886348 2.11368 0
M  V30 18111 C 1716.54 -0.120256 1.62355 0
M  V30 18112 O 1717.73 0.108934 1.78167 0
M  V30 18113 C 1714.83 0.304819 3.37526 0
M  V30 18114 C 1714 1.35957 4.15734 0
M  V30 18115 C 1713.06 0.791885 5.20207 0
M  V30 18116 O 1712.09 1.46916 5.49913 0
M  V30 18117 N 1713.29 -0.40564 5.79081 0
M  V30 18118 H 1716.06 1.81867 2.38211 0
M  V30 18119 H 1713.62 1.09414 1.19332 0
M  V30 18120 H 1715.61 -0.0887629 4.04603 0
M  V30 18121 H 1714.18 -0.531744 3.08044 0
M  V30 18122 H 1713.4 1.92806 3.43831 0
M  V30 18123 H 1714.69 2.07034 4.64773 0
M  V30 18124 H 1714.08 -0.973423 5.57262 0
M  V30 18125 H 1712.64 -0.741021 6.47574 0
M  V30 18126 N 1716.07 -1.22136 0.99602 0
M  V30 18127 C 1717.32 -1.9125 0.674632 0
M  V30 18128 C 1717.65 -1.77331 -0.791655 0
M  V30 18129 O 1716.93 -1.14419 -1.57285 0
M  V30 18130 C 1717.21 -3.43359 1.08521 0
M  V30 18131 C 1717.06 -3.66312 2.61028 0
M  V30 18132 C 1718.38 -4.3541 0.640795 0
M  V30 18133 H 1715.5 -0.694534 0.246559 0
M  V30 18134 H 1718.14 -1.4395 1.2401 0
M  V30 18135 H 1716.29 -3.83775 0.604071 0
M  V30 18136 H 1717.97 -3.3528 3.16836 0
M  V30 18137 H 1716.21 -3.10485 3.02954 0
M  V30 18138 H 1716.88 -4.72852 2.84807 0
M  V30 18139 H 1719.36 -4.02527 1.05411 0
M  V30 18140 H 1718.23 -5.40505 0.956337 0
M  V30 18141 H 1718.49 -4.39717 -0.458421 0
M  V30 18142 N 1717.55 -0.769612 -1.37531 0
M  V30 18143 C 1718.48 -0.168389 -2.32892 0
M  V30 18144 C 1719.46 0.685549 -1.55673 0
M  V30 18145 O 1720.65 0.62345 -1.8392 0
M  V30 18146 C 1717.78 0.713183 -3.39898 0
M  V30 18147 C 1716.73 -0.0392808 -4.27982 0
M  V30 18148 C 1716.06 0.961596 -5.25982 0
M  V30 18149 C 1717.36 -1.21704 -5.07923 0
M  V30 18150 H 1719.05 -0.965022 -2.83421 0
M  V30 18151 H 1716.6 -0.465502 -1.36268 0
M  V30 18152 H 1718.55 1.14358 -4.05586 0
M  V30 18153 H 1717.28 1.54231 -2.87889 0
M  V30 18154 H 1715.93 -0.450429 -3.63822 0
M  V30 18155 H 1715.58 1.78522 -4.70254 0
M  V30 18156 H 1715.28 0.462679 -5.85776 0
M  V30 18157 H 1716.81 1.39097 -5.94545 0
M  V30 18158 H 1718.22 -0.863405 -5.66761 0
M  V30 18159 H 1716.62 -1.6479 -5.77031 0
M  V30 18160 H 1717.69 -2.02219 -4.40722 0
M  V30 18161 N 1719.03 1.48775 -0.519977 0
M  V30 18162 C 1719.99 2.27967 0.237405 0
M  V30 18163 C 1720.99 1.34787 0.876868 0
M  V30 18164 O 1722.18 1.57773 0.738463 0
M  V30 18165 C 1719.32 3.13353 1.34248 0
M  V30 18166 H 1720.51 2.96386 -0.457753 0
M  V30 18167 H 1718.06 1.53852 -0.275569 0
M  V30 18168 H 1718.8 2.49543 2.0712 0
M  V30 18169 H 1718.58 3.81885 0.889187 0
M  V30 18170 H 1720.07 3.73116 1.87547 0
M  V30 18171 N 1720.51 0.254649 1.55529 0
M  V30 18172 C 1721.44 -0.635656 2.24681 0
M  V30 18173 C 1722.42 -1.17519 1.22977 0
M  V30 18174 O 1723.6 -1.21311 1.51649 0
M  V30 18175 C 1720.73 -1.82922 2.95224 0
M  V30 18176 C 1719.69 -1.42212 4.03683 0
M  V30 18177 C 1719.01 -2.69713 4.61691 0
M  V30 18178 C 1720.31 -0.587436 5.18986 0
M  V30 18179 H 1722.01 -0.0590063 2.99342 0
M  V30 18180 H 1719.55 -0.02694 1.43975 0
M  V30 18181 H 1721.51 -2.45777 3.42304 0
M  V30 18182 H 1720.23 -2.43137 2.18064 0
M  V30 18183 H 1718.89 -0.81687 3.57383 0
M  V30 18184 H 1718.54 -3.28143 3.81223 0
M  V30 18185 H 1718.24 -2.43194 5.34911 0
M  V30 18186 H 1719.76 -3.33453 5.11509 0
M  V30 18187 H 1721.18 -1.12048 5.62244 0
M  V30 18188 H 1719.57 -0.417988 5.98643 0
M  V30 18189 H 1720.64 0.398577 4.83259 0
M  V30 18190 N 1721.99 -1.57589 -0.0183649 0
M  V30 18191 C 1722.9 -2.10665 -1.03235 0
M  V30 18192 C 1723.91 -1.04767 -1.38924 0
M  V30 18193 O 1725.09 -1.36565 -1.48027 0
M  V30 18194 C 1722.15 -2.58432 -2.31114 0
M  V30 18195 C 1721.21 -3.78856 -2.01908 0
M  V30 18196 C 1720.45 -4.24335 -3.2369 0
M  V30 18197 O 1720.67 -3.69266 -4.3474 0
M  V30 18198 O 1719.6 -5.16671 -3.08763 0
M  V30 18199 H 1723.43 -2.97485 -0.611254 0
M  V30 18200 H 1721.02 -1.47524 -0.236035 0
M  V30 18201 H 1722.9 -2.89438 -3.06274 0
M  V30 18202 H 1721.57 -1.74718 -2.72498 0
M  V30 18203 H 1720.48 -3.52852 -1.24282 0
M  V30 18204 H 1721.81 -4.63587 -1.65373 0
M  V30 18205 N 1723.46 0.290824 -1.54893 0
M  V30 18206 C 1724.88 0.86313 -1.6555 0
M  V30 18207 C 1725.23 1.87713 -0.570806 0
M  V30 18208 O 1724.35 2.14437 0.290826 0
M  V30 18209 C 1724.95 1.57231 -3.00107 0
M  V30 18210 C 1723.51 2.09288 -3.1285 0
M  V30 18211 C 1722.65 0.928933 -2.61278 0
M  V30 18212 H 1725.6 0.0675807 -1.58556 0
M  V30 18213 H 1725.62 2.43841 -2.92099 0
M  V30 18214 H 1725.14 0.834055 -3.79032 0
M  V30 18215 H 1723.24 2.86129 -2.38665 0
M  V30 18216 H 1723.35 2.32042 -4.19158 0
M  V30 18217 H 1721.71 1.31735 -2.17986 0
M  V30 18218 H 1722.5 0.204475 -3.42691 0
M  V30 18219 N 1724.94 1.47523 0.554506 0
M  V30 18220 C 1726.19 1.53982 1.30897 0
M  V30 18221 C 1726.51 0.20487 1.93921 0
M  V30 18222 O 1725.78 -0.771422 1.80072 0
M  V30 18223 H 1724.36 0.567206 0.486092 0
M  V30 18224 H 1727.02 1.83838 0.647284 0
M  V30 18225 H 1726.12 2.30783 2.10109 0
M  V30 18226 N 1726.42 -0.801453 1.357 0
M  V30 18227 C 1727.37 -1.91355 1.29043 0
M  V30 18228 C 1728.34 -1.65314 0.161381 0
M  V30 18229 O 1729.52 -1.87638 0.345928 0
M  V30 18230 C 1726.66 -3.27979 1.07348 0
M  V30 18231 C 1725.78 -3.66172 2.29221 0
M  V30 18232 C 1724.91 -4.91853 2.00635 0
M  V30 18233 C 1723.95 -5.22688 3.18533 0
M  V30 18234 N 1723.09 -6.3955 2.8969 0
M  V30 18235 H 1727.93 -1.96381 2.24139 0
M  V30 18236 H 1725.46 -0.960502 1.11413 0
M  V30 18237 H 1727.42 -4.06748 0.928002 0
M  V30 18238 H 1726.05 -3.22408 0.159115 0
M  V30 18239 H 1725.1 -2.82623 2.54615 0
M  V30 18240 H 1726.42 -3.84916 3.1724 0
M  V30 18241 H 1725.57 -5.78459 1.82947 0
M  V30 18242 H 1724.31 -4.75154 1.09908 0
M  V30 18243 H 1723.31 -4.34569 3.36793 0
M  V30 18244 H 1724.54 -5.41313 4.10069 0
M  V30 18245 H 1722.48 -6.24266 2.01562 0
M  V30 18246 H 1722.4 -6.58569 3.71245 0
M  V30 18247 H 1723.67 -7.29171 2.75555 0
M  V30 18248 N 1727.9 -1.19782 -1.02421 0
M  V30 18249 C 1728.85 -0.936475 -2.12915 0
M  V30 18250 C 1729.84 0.10941 -1.69046 0
M  V30 18251 O 1731.05 -0.04026 -1.79955 0
M  V30 18252 H 1727.42 -0.285462 -0.695712 0
M  V30 18253 H 1729.39 -1.87485 -2.32146 0
M  V30 18254 C 1728.14 -0.496786 -3.44133 0
M  V30 18255 H 1727.46 -1.29314 -3.78309 0
M  V30 18256 H 1728.9 -0.353073 -4.22527 0
M  V30 18257 C 1727.36 0.789792 -3.27512 0
M  V30 18258 O 1727.89 1.85009 -3.56559 0
M  V30 18259 N 1726.1 0.748849 -2.80786 0
M  V30 18260 H 1725.65 -0.114256 -2.57346 0
M  V30 18261 H 1725.6 1.61005 -2.70046 0
M  V30 18262 N 1729.38 1.21606 -1.00248 0
M  V30 18263 C 1730.79 1.72365 -0.717446 0
M  V30 18264 C 1731.14 1.80668 0.765078 0
M  V30 18265 O 1730.26 1.45951 1.59772 0
M  V30 18266 C 1730.86 3.13046 -1.29567 0
M  V30 18267 C 1729.42 3.61172 -1.05981 0
M  V30 18268 C 1728.57 2.38775 -1.41003 0
M  V30 18269 H 1731.52 1.06818 -1.17369 0
M  V30 18270 H 1731.54 3.74392 -0.679054 0
M  V30 18271 H 1731.05 3.0697 -2.37467 0
M  V30 18272 H 1729.15 3.726 0.00214307 0
M  V30 18273 H 1729.26 4.46778 -1.72993 0
M  V30 18274 H 1727.63 2.40839 -0.82877 0
M  V30 18275 H 1728.41 2.35352 -2.49928 0
M  V30 18276 N 1730.86 0.776895 1.37121 0
M  V30 18277 C 1732.27 0.457116 1.52914 0
M  V30 18278 C 1732.47 -1.0265 1.73394 0
M  V30 18279 O 1731.53 -1.81224 1.75824 0
M  V30 18280 C 1732.84 1.27667 2.72253 0
M  V30 18281 C 1734.39 1.26909 2.86117 0
M  V30 18282 C 1734.86 2.0721 4.08446 0
M  V30 18283 N 1736.35 2.04591 4.15568 0
M  V30 18284 C 1737.09 2.63502 5.09268 0
M  V30 18285 N 1736.59 3.31222 6.08493 0
M  V30 18286 N 1738.38 2.53304 5.0179 0
M  V30 18287 H 1730.53 1.73811 1.2208 0
M  V30 18288 H 1732.79 0.738142 0.594853 0
M  V30 18289 H 1732.5 2.32825 2.63601 0
M  V30 18290 H 1732.37 0.909363 3.66074 0
M  V30 18291 H 1734.76 0.225476 2.94237 0
M  V30 18292 H 1734.84 1.67607 1.9324 0
M  V30 18293 H 1734.48 3.11595 4.01087 0
M  V30 18294 H 1734.41 1.63891 5.00447 0
M  V30 18295 H 1736.91 1.55293 3.44518 0
M  V30 18296 H 1737.22 3.73535 6.76529 0
M  V30 18297 H 1735.56 3.35322 6.08756 0
M  V30 18298 H 1738.75 2.00009 4.23218 0
M  V30 18299 H 1738.93 2.99509 5.74629 0
M  V30 18300 N 1732.33 -1.48497 0.527859 0
M  V30 18301 C 1733.3 -2.2809 -0.225312 0
M  V30 18302 C 1734.3 -1.35251 -0.869707 0
M  V30 18303 O 1735.49 -1.58163 -0.730086 0
M  V30 18304 C 1732.62 -3.14061 -1.32584 0
M  V30 18305 H 1733.81 -2.96139 0.473465 0
M  V30 18306 H 1731.36 -1.53703 0.283724 0
M  V30 18307 H 1732.1 -2.50638 -2.05794 0
M  V30 18308 H 1731.88 -3.82351 -0.868922 0
M  V30 18309 H 1733.37 -3.74106 -1.85566 0
M  V30 18310 N 1733.81 -0.262893 -1.55392 0
M  V30 18311 C 1735.06 0.357895 -1.99617 0
M  V30 18312 C 1735.39 1.56415 -1.151 0
M  V30 18313 O 1734.67 1.93273 -0.218139 0
M  V30 18314 C 1734.95 0.752095 -3.52158 0
M  V30 18315 C 1734.8 -0.460658 -4.47435 0
M  V30 18316 C 1736.12 1.59314 -4.10253 0
M  V30 18317 H 1733.24 0.128612 -0.725691 0
M  V30 18318 H 1735.88 -0.367399 -1.86414 0
M  V30 18319 H 1734.03 1.37006 -3.6354 0
M  V30 18320 H 1735.7 -1.09918 -4.48013 0
M  V30 18321 H 1733.95 -1.10093 -4.19597 0
M  V30 18322 H 1734.62 -0.141262 -5.51819 0
M  V30 18323 H 1737.09 1.07135 -4.02071 0
M  V30 18324 H 1735.97 1.83779 -5.1722 0
M  V30 18325 H 1736.23 2.57022 -3.59711 0
M  V30 18326 N 1735.29 1.57597 0.0100073 0
M  V30 18327 C 1736.22 2.04622 1.0326 0
M  V30 18328 C 1737.23 0.962343 1.31312 0
M  V30 18329 O 1738.42 1.23933 1.28464 0
M  V30 18330 C 1735.52 2.42271 2.36976 0
M  V30 18331 C 1734.7 3.73271 2.28008 0
M  V30 18332 C 1733.76 3.97899 3.4433 0
M  V30 18333 O 1732.78 4.68702 3.22966 0
M  V30 18334 N 1733.98 3.45015 4.66846 0
M  V30 18335 H 1736.75 2.92968 0.63164 0
M  V30 18336 H 1734.31 1.6069 0.197591 0
M  V30 18337 H 1736.3 2.55869 3.13549 0
M  V30 18338 H 1734.87 1.59496 2.68849 0
M  V30 18339 H 1734.09 3.69846 1.3641 0
M  V30 18340 H 1735.38 4.59172 2.19178 0
M  V30 18341 H 1734.78 2.87661 4.87101 0
M  V30 18342 H 1733.33 3.6396 5.40718 0
M  V30 18343 N 1736.77 -0.282606 1.55045 0
M  V30 18344 C 1738 -1.03395 1.79212 0
M  V30 18345 C 1738.41 -1.80283 0.560652 0
M  V30 18346 O 1737.77 -1.76343 -0.470049 0
M  V30 18347 C 1737.82 -2.0001 3.01128 0
M  V30 18348 O 1737.54 -1.26238 4.19518 0
M  V30 18349 C 1739.04 -2.87035 3.37825 0
M  V30 18350 H 1736.26 -0.305855 0.597238 0
M  V30 18351 H 1738.8 -0.3163 2.02039 0
M  V30 18352 H 1736.96 -2.67251 2.80456 0
M  V30 18353 H 1737.37 -1.91277 4.88378 0
M  V30 18354 H 1738.85 -3.50642 4.26327 0
M  V30 18355 H 1739.32 -3.56303 2.56798 0
M  V30 18356 H 1739.93 -2.25298 3.60723 0
M  V30 18357 N 1738.25 -1.47815 -0.546675 0
M  V30 18358 C 1739.19 -1.61092 -1.65282 0
M  V30 18359 C 1740.16 -0.453531 -1.59788 0
M  V30 18360 O 1741.35 -0.674923 -1.78464 0
M  V30 18361 C 1738.49 -1.64103 -3.03585 0
M  V30 18362 C 1737.6 -2.90832 -3.19438 0
M  V30 18363 C 1736.74 -2.85112 -4.48201 0
M  V30 18364 C 1735.77 -4.06619 -4.57523 0
M  V30 18365 N 1734.91 -3.99073 -5.77655 0
M  V30 18366 H 1739.75 -2.55561 -1.53273 0
M  V30 18367 H 1737.29 -1.26752 -0.746477 0
M  V30 18368 H 1739.25 -1.63832 -3.83686 0
M  V30 18369 H 1737.88 -0.731382 -3.14405 0
M  V30 18370 H 1736.93 -3.00924 -2.327 0
M  V30 18371 H 1738.24 -3.80783 -3.22188 0
M  V30 18372 H 1737.39 -2.83149 -5.36574 0
M  V30 18373 H 1736.13 -1.92862 -4.47946 0
M  V30 18374 H 1735.14 -4.08876 -3.67561 0
M  V30 18375 H 1736.36 -5.00009 -4.5953 0
M  V30 18376 H 1734.31 -3.09633 -5.78328 0
M  V30 18377 H 1734.23 -4.82713 -5.81829 0
M  V30 18378 H 1735.49 -4.01143 -6.6836 0
M  V30 18379 N 1739.72 0.794246 -1.36123 0
M  V30 18380 C 1741.13 1.36909 -1.26936 0
M  V30 18381 C 1741.49 1.9598 0.0929337 0
M  V30 18382 O 1740.61 1.92206 0.994266 0
M  V30 18383 C 1741.21 2.48906 -2.2985 0
M  V30 18384 C 1739.76 3.0222 -2.24366 0
M  V30 18385 C 1738.91 1.75264 -2.1489 0
M  V30 18386 H 1741.86 0.596278 -1.47072 0
M  V30 18387 H 1741.88 3.27794 -1.93213 0
M  V30 18388 H 1741.4 2.05884 -3.28988 0
M  V30 18389 H 1739.5 3.49675 -1.28679 0
M  V30 18390 H 1739.61 3.59363 -3.16852 0
M  V30 18391 H 1737.97 1.97306 -1.61066 0
M  V30 18392 H 1738.76 1.34377 -3.15908 0
M  V30 18393 N 1741.2 1.20323 1.01785 0
M  V30 18394 C 1742.45 1.01063 1.75016 0
M  V30 18395 C 1742.77 -0.458458 1.89534 0
M  V30 18396 O 1742.04 -1.3315 1.43694 0
M  V30 18397 H 1740.62 0.370957 0.648383 0
M  V30 18398 H 1743.28 1.51411 1.22722 0
M  V30 18399 H 1742.38 1.46792 2.75424 0
M  V30 18400 N 1742.68 -1.21073 1.00892 0
M  V30 18401 C 1743.61 -2.25847 0.592897 0
M  V30 18402 C 1744.59 -1.6561 -0.38824 0
M  V30 18403 O 1745.78 -1.92238 -0.275361 0
M  V30 18404 C 1742.91 -3.47214 -0.0773439 0
M  V30 18405 C 1741.86 -4.19994 0.82398 0
M  V30 18406 C 1741.19 -5.34696 0.0199341 0
M  V30 18407 C 1742.49 -4.76964 2.12844 0
M  V30 18408 H 1744.18 -2.609 1.46873 0
M  V30 18409 H 1741.73 -1.25412 0.707656 0
M  V30 18410 H 1743.68 -4.19684 -0.379889 0
M  V30 18411 H 1742.4 -3.11303 -0.987833 0
M  V30 18412 H 1741.06 -3.49379 1.11041 0
M  V30 18413 H 1740.71 -4.95028 -0.891966 0
M  V30 18414 H 1740.41 -5.84319 0.620102 0
M  V30 18415 H 1741.93 -6.09974 -0.276336 0
M  V30 18416 H 1743.35 -5.41293 1.88878 0
M  V30 18417 H 1741.74 -5.36992 2.67879 0
M  V30 18418 H 1742.81 -3.96129 2.79659 0
M  V30 18419 N 1744.16 -0.784156 -1.36707 0
M  V30 18420 C 1745.41 -0.354133 -1.99379 0
M  V30 18421 C 1745.73 1.07276 -1.62241 0
M  V30 18422 O 1744.99 1.75481 -0.866317 0
M  V30 18423 C 1745.29 -0.459004 -3.5444 0
M  V30 18424 C 1744.95 -1.84594 -4.11383 0
M  V30 18425 C 1743.62 -2.22543 -4.26648 0
M  V30 18426 C 1745.97 -2.75433 -4.42477 0
M  V30 18427 C 1743.3 -3.50744 -4.70315 0
M  V30 18428 C 1745.65 -4.03056 -4.87574 0
M  V30 18429 C 1744.31 -4.41034 -5.01044 0
M  V30 18430 H 1743.58 -0.129586 -0.729581 0
M  V30 18431 H 1746.23 -1.00059 -1.6328 0
M  V30 18432 H 1744.53 0.27097 -3.90862 0
M  V30 18433 H 1746.23 -0.107393 -4.00856 0
M  V30 18434 H 1742.82 -1.54103 -3.99938 0
M  V30 18435 H 1747 -2.4737 -4.30258 0
M  V30 18436 H 1742.26 -3.80047 -4.78931 0
M  V30 18437 H 1746.43 -4.73563 -5.10599 0
M  V30 18438 H 1744.06 -5.4043 -5.34639 0
M  V30 18439 N 1745.64 1.48215 -0.535727 0
M  V30 18440 C 1747.05 1.58417 -0.193977 0
M  V30 18441 C 1747.25 1.53705 1.30296 0
M  V30 18442 O 1746.31 1.42913 2.08164 0
M  V30 18443 C 1747.62 2.89819 -0.8016 0
M  V30 18444 C 1749.17 3.03359 -0.770858 0
M  V30 18445 C 1749.64 4.3743 -1.35716 0
M  V30 18446 N 1751.14 4.44012 -1.31938 0
M  V30 18447 C 1751.87 5.4627 -1.74287 0
M  V30 18448 N 1751.37 6.55454 -2.24393 0
M  V30 18449 N 1753.16 5.37187 -1.65489 0
M  V30 18450 H 1745.31 1.49521 -1.50855 0
M  V30 18451 H 1747.57 0.710306 -0.627829 0
M  V30 18452 H 1747.28 2.98939 -1.85278 0
M  V30 18453 H 1747.15 3.76144 -0.282036 0
M  V30 18454 H 1749.54 2.93848 0.271577 0
M  V30 18455 H 1749.62 2.1863 -1.32795 0
M  V30 18456 H 1749.27 4.47696 -2.39855 0
M  V30 18457 H 1749.2 5.20856 -0.775696 0
M  V30 18458 H 1751.69 3.65695 -0.952653 0
M  V30 18459 H 1752 7.29626 -2.54686 0
M  V30 18460 H 1750.34 6.56402 -2.2839 0
M  V30 18461 H 1753.54 4.50785 -1.26138 0
M  V30 18462 H 1753.71 6.16747 -1.98814 0
M  V30 18463 N 1747.11 0.27113 1.5525 0
M  V30 18464 C 1748.34 -0.350248 2.03914 0
M  V30 18465 C 1748.76 -1.49763 1.14963 0
M  V30 18466 O 1748.11 -1.81717 0.168923 0
M  V30 18467 C 1748.17 -0.835056 3.51723 0
M  V30 18468 O 1747.89 0.266625 4.37288 0
M  V30 18469 C 1749.39 -1.52466 4.16256 0
M  V30 18470 H 1746.61 -0.0803955 0.666166 0
M  V30 18471 H 1749.15 0.402063 2.00509 0
M  V30 18472 H 1747.31 -1.53747 3.55585 0
M  V30 18473 H 1747.72 -0.105433 5.24394 0
M  V30 18474 H 1749.19 -1.81534 5.21296 0
M  V30 18475 H 1749.67 -2.45485 3.64189 0
M  V30 18476 H 1750.28 -0.8662 4.16386 0
M  V30 18477 N 1748.59 -1.576 -0.00164943 0
M  V30 18478 C 1749.54 -2.09439 -1.01183 0
M  V30 18479 C 1750.53 -1.01402 -1.35698 0
M  V30 18480 O 1751.74 -1.19869 -1.34281 0
M  V30 18481 H 1748.12 -0.668732 -0.34395 0
M  V30 18482 H 1750.09 -2.93306 -0.549033 0
M  V30 18483 C 1748.84 -2.61163 -2.29542 0
M  V30 18484 H 1748.16 -3.43926 -2.0385 0
M  V30 18485 H 1749.6 -3.01115 -2.98506 0
M  V30 18486 C 1748.06 -1.52502 -3.00408 0
M  V30 18487 O 1748.59 -0.906982 -3.91327 0
M  V30 18488 N 1746.79 -1.25288 -2.62205 0
M  V30 18489 H 1746.34 -1.75731 -1.88351 0
M  V30 18490 H 1746.3 -0.528035 -3.09934 0
M  V30 18491 N 1750.07 0.274379 -1.55193 0
M  V30 18492 C 1751.3 1.02443 -1.79758 0
M  V30 18493 C 1751.71 1.79984 -0.570205 0
M  V30 18494 O 1751.07 1.7659 0.46069 0
M  V30 18495 C 1751.12 1.9841 -3.02185 0
M  V30 18496 O 1750.84 1.24012 -4.20182 0
M  V30 18497 C 1752.34 2.85239 -3.39343 0
M  V30 18498 H 1749.56 0.302684 -0.598852 0
M  V30 18499 H 1752.11 0.305581 -2.02204 0
M  V30 18500 H 1750.26 2.6576 -2.81869 0
M  V30 18501 H 1750.68 1.88684 -4.89386 0
M  V30 18502 H 1752.15 3.48376 -4.2818 0
M  V30 18503 H 1752.63 3.54936 -2.58684 0
M  V30 18504 H 1753.23 2.23382 -3.61912 0
M  V30 18505 N 1751.55 1.48103 0.538828 0
M  V30 18506 C 1752.8 1.55362 1.29256 0
M  V30 18507 C 1753.12 0.225427 1.93693 0
M  V30 18508 O 1752.39 -0.75228 1.8088 0
M  V30 18509 H 1750.97 0.57233 0.480049 0
M  V30 18510 H 1753.63 1.84514 0.627749 0
M  V30 18511 H 1752.73 2.32998 2.07649 0
M  V30 18512 N 1753.03 -0.787016 1.36542 0
M  V30 18513 C 1754.25 -1.57588 1.34065 0
M  V30 18514 C 1754.67 -1.88641 -0.0775397 0
M  V30 18515 O 1754.03 -1.50306 -1.03511 0
M  V30 18516 C 1754.08 -2.89543 2.16442 0
M  V30 18517 O 1753.8 -2.59828 3.52734 0
M  V30 18518 C 1755.3 -3.83838 2.21773 0
M  V30 18519 H 1752.52 -0.488708 0.459789 0
M  V30 18520 H 1755.06 -0.976614 1.79673 0
M  V30 18521 H 1753.22 -3.45933 1.74383 0
M  V30 18522 H 1753.63 -3.44219 3.95744 0
M  V30 18523 H 1755.11 -4.73478 2.83765 0
M  V30 18524 H 1755.58 -4.21862 1.22185 0
M  V30 18525 H 1756.19 -3.33381 2.64078 0
M  V30 18526 N 1754.5 -1.20861 -1.01145 0
M  V30 18527 C 1755.75 -1.01613 -1.74234 0
M  V30 18528 C 1756.07 0.451683 -1.90313 0
M  V30 18529 O 1757.27 0.763408 -2.60546 0
M  V30 18530 C 1755.73 -1.76942 -3.134 0
M  V30 18531 C 1755.34 -3.27851 -3.05316 0
M  V30 18532 C 1757.08 -1.6608 -3.90663 0
M  V30 18533 C 1754.99 -3.95696 -4.39521 0
M  V30 18534 H 1753.92 -0.376593 -0.653218 0
M  V30 18535 H 1756.57 -1.44533 -1.1306 0
M  V30 18536 H 1754.95 -1.26812 -3.75146 0
M  V30 18537 H 1756.12 -3.85234 -2.52846 0
M  V30 18538 H 1754.44 -3.39184 -2.41543 0
M  V30 18539 H 1757.04 -2.14105 -4.89963 0
M  V30 18540 H 1757.38 -0.617892 -4.11689 0
M  V30 18541 H 1757.91 -2.13652 -3.35556 0
M  V30 18542 H 1754.65 -5.00161 -4.23697 0
M  V30 18543 H 1754.17 -3.43102 -4.91977 0
M  V30 18544 H 1755.85 -4.00242 -5.08346 0
M  V30 18545 N 1755.98 1.20536 -1.01532 0
M  V30 18546 C 1757.23 1.89496 -0.70254 0
M  V30 18547 C 1757.55 1.7915 0.770072 0
M  V30 18548 O 1756.82 1.19308 1.55379 0
M  V30 18549 H 1755.4 0.701447 -0.256868 0
M  V30 18550 H 1758.06 1.46394 -1.28665 0
M  V30 18551 H 1757.16 2.96155 -0.984817 0
M  V30 18552 N 1757.46 0.791395 1.36289 0
M  V30 18553 C 1758.42 0.197069 2.28351 0
M  V30 18554 C 1759.42 -0.606748 1.48913 0
M  V30 18555 O 1760.61 -0.427453 1.68874 0
M  V30 18556 C 1757.75 -0.727009 3.33058 0
M  V30 18557 H 1758.94 1.00885 2.82422 0
M  V30 18558 H 1756.49 0.560959 1.45887 0
M  V30 18559 H 1757.23 -1.56306 2.84146 0
M  V30 18560 H 1757.01 -0.152537 3.91803 0
M  V30 18561 H 1758.5 -1.13765 4.01805 0
M  V30 18562 N 1758.94 -1.47929 0.54358 0
M  V30 18563 C 1760.19 -2.02795 0.014488 0
M  V30 18564 C 1760.52 -1.41848 -1.32638 0
M  V30 18565 O 1759.79 -0.569099 -1.85988 0
M  V30 18566 C 1760.08 -3.5998 -0.093097 0
M  V30 18567 C 1759.93 -4.31384 1.2739 0
M  V30 18568 C 1761.25 -4.32521 -0.813251 0
M  V30 18569 H 1758.37 -0.736969 0.00673905 0
M  V30 18570 H 1761.01 -1.76507 0.703238 0
M  V30 18571 H 1759.16 -3.82508 -0.679685 0
M  V30 18572 H 1760.83 -4.20235 1.90264 0
M  V30 18573 H 1759.07 -3.9227 1.85221 0
M  V30 18574 H 1759.75 -5.39856 1.15148 0
M  V30 18575 H 1762.22 -4.14903 -0.315334 0
M  V30 18576 H 1761.1 -5.42161 -0.857456 0
M  V30 18577 H 1761.36 -4.00768 -1.86649 0
M  V30 18578 N 1760.42 -0.27936 -1.55104 0
M  V30 18579 C 1761.64 0.342295 -2.04556 0
M  V30 18580 C 1762.07 1.48367 -1.15624 0
M  V30 18581 O 1761.43 1.8063 -0.15572 0
M  V30 18582 C 1761.47 0.796785 -3.51687 0
M  V30 18583 O 1760.58 1.90364 -3.65835 0
M  V30 18584 H 1759.92 0.07012 -0.660287 0
M  V30 18585 H 1762.45 -0.414896 -2.00349 0
M  V30 18586 H 1762.46 1.09141 -3.93131 0
M  V30 18587 H 1761.13 -0.0382637 -4.15882 0
M  V30 18588 H 1759.71 1.61123 -3.36294 0
M  V30 18589 N 1761.9 1.57599 -0.0067085 0
M  V30 18590 C 1762.83 2.11878 0.981331 0
M  V30 18591 C 1763.81 1.02949 1.35408 0
M  V30 18592 O 1764.99 1.30667 1.43665 0
M  V30 18593 C 1762.12 2.62757 2.27104 0
M  V30 18594 C 1761.08 3.76272 2.0397 0
M  V30 18595 C 1760.4 4.13491 3.39012 0
M  V30 18596 C 1761.7 5.03274 1.39688 0
M  V30 18597 H 1763.4 2.94683 0.529366 0
M  V30 18598 H 1760.94 1.41757 0.253187 0
M  V30 18599 H 1762.89 2.99359 2.96585 0
M  V30 18600 H 1761.62 1.77082 2.74426 0
M  V30 18601 H 1760.28 3.40074 1.36913 0
M  V30 18602 H 1759.93 3.24831 3.8405 0
M  V30 18603 H 1759.63 4.89972 3.24347 0
M  V30 18604 H 1761.15 4.52657 4.09797 0
M  V30 18605 H 1762.56 5.37604 1.99136 0
M  V30 18606 H 1760.96 5.84604 1.3549 0
M  V30 18607 H 1762.03 4.8351 0.366928 0
M  V30 18608 N 1763.37 -0.266145 1.55336 0
M  V30 18609 C 1764.65 -1.01852 1.6699 0
M  V30 18610 C 1765.03 -2.04053 0.54088 0
M  V30 18611 O 1764.38 -2.23859 -0.458193 0
M  V30 18612 C 1764.59 -1.66917 3.06496 0
M  V30 18613 C 1765.94 -2.17824 3.64469 0
M  V30 18614 O 1766.96 -1.76892 3.09173 0
M  V30 18615 O 1765.82 -2.92922 4.61367 0
M  V30 18616 H 1762.91 -0.472871 0.67847 0
M  V30 18617 H 1765.46 -0.261458 1.67674 0
M  V30 18618 H 1764.23 -0.928941 3.80114 0
M  V30 18619 H 1763.85 -2.49292 3.0974 0
M  V30 18620 N 1764.85 -1.48386 -0.530967 0
M  V30 18621 C 1766.1 -1.56354 -1.28685 0
M  V30 18622 C 1766.43 -0.237022 -1.9305 0
M  V30 18623 O 1765.68 0.772595 -1.79804 0
M  V30 18624 C 1765.98 -2.64979 -2.39835 0
M  V30 18625 C 1765.65 -4.07446 -1.93129 0
M  V30 18626 C 1764.31 -4.46222 -1.80108 0
M  V30 18627 C 1766.66 -4.96732 -1.5782 0
M  V30 18628 C 1763.99 -5.7209 -1.30113 0
M  V30 18629 C 1766.34 -6.23088 -1.09288 0
M  V30 18630 C 1765 -6.60722 -0.948835 0
M  V30 18631 H 1764.27 -0.572139 -0.470891 0
M  V30 18632 H 1766.92 -1.82099 -0.592626 0
M  V30 18633 H 1765.23 -2.3309 -3.14923 0
M  V30 18634 H 1766.92 -2.68359 -2.97967 0
M  V30 18635 H 1763.51 -3.76822 -2.04213 0
M  V30 18636 H 1767.7 -4.67452 -1.6674 0
M  V30 18637 H 1762.95 -5.99974 -1.17647 0
M  V30 18638 H 1767.13 -6.91669 -0.810376 0
M  V30 18639 H 1764.75 -7.5814 -0.559235 0
M  V30 18640 N 1766.33 0.779763 -1.36958 0
M  V30 18641 C 1767.55 1.57389 -1.35068 0
M  V30 18642 C 1767.98 1.87993 0.0635244 0
M  V30 18643 O 1767.34 1.48625 1.03828 0
M  V30 18644 C 1767.39 2.86582 -2.18868 0
M  V30 18645 O 1766.49 3.80609 -1.58779 0
M  V30 18646 H 1765.83 0.477052 -0.461863 0
M  V30 18647 H 1768.36 0.965741 -1.80373 0
M  V30 18648 H 1768.37 3.35761 -2.31794 0
M  V30 18649 H 1767.05 2.63635 -3.21666 0
M  V30 18650 H 1765.62 3.39229 -1.54848 0
M  V30 18651 N 1767.81 1.21396 1.00503 0
M  V30 18652 C 1769.22 1.02983 1.55728 0
M  V30 18653 C 1769.57 -0.410383 1.9186 0
M  V30 18654 O 1768.69 -1.29358 1.7348 0
M  V30 18655 C 1769.29 1.86316 2.8297 0
M  V30 18656 C 1767.85 1.72235 3.34682 0
M  V30 18657 C 1767 1.8353 2.07875 0
M  V30 18658 H 1769.95 1.35418 0.827499 0
M  V30 18659 H 1769.97 1.37339 3.5485 0
M  V30 18660 H 1769.48 2.91131 2.56641 0
M  V30 18661 H 1767.58 0.701047 3.65945 0
M  V30 18662 H 1767.69 2.54198 4.06103 0
M  V30 18663 H 1766.06 1.26838 2.20872 0
M  V30 18664 H 1766.84 2.89852 1.83958 0
M  V30 18665 N 1769.29 -1.19996 1.0217 0
M  V30 18666 C 1770.53 -1.89121 0.712579 0
M  V30 18667 C 1770.85 -1.79556 -0.760561 0
M  V30 18668 O 1770.12 -1.2013 -1.54744 0
M  V30 18669 H 1768.7 -0.700075 0.260585 0
M  V30 18670 H 1771.37 -1.4571 1.2944 0
M  V30 18671 H 1770.46 -2.95629 1.00051 0
M  V30 18672 N 1770.76 -0.798611 -1.35867 0
M  V30 18673 C 1771.99 -0.387479 -2.03239 0
M  V30 18674 C 1772.41 0.999052 -1.60201 0
M  V30 18675 O 1771.76 1.64237 -0.795763 0
M  V30 18676 C 1771.81 -0.452101 -3.58662 0
M  V30 18677 O 1771.54 -1.78396 -4.00133 0
M  V30 18678 C 1773.04 -0.0327638 -4.43288 0
M  V30 18679 H 1770.26 -0.15845 -0.652024 0
M  V30 18680 H 1772.8 -1.08002 -1.73655 0
M  V30 18681 H 1770.96 0.192107 -3.86923 0
M  V30 18682 H 1771.37 -1.74118 -4.94756 0
M  V30 18683 H 1772.84 -0.129106 -5.51849 0
M  V30 18684 H 1773.32 1.02098 -4.27168 0
M  V30 18685 H 1773.93 -0.649817 -4.20306 0
M  V30 18686 N 1772.24 1.47639 -0.551417 0
M  V30 18687 C 1773.47 2.07381 -0.0278888 0
M  V30 18688 C 1773.89 1.40223 1.25375 0
M  V30 18689 O 1773.25 0.475268 1.7496 0
M  V30 18690 C 1773.3 3.60258 0.157001 0
M  V30 18691 O 1772.4 3.93913 1.2209 0
M  V30 18692 H 1771.74 0.66221 -0.0487252 0
M  V30 18693 H 1774.27 1.89742 -0.765449 0
M  V30 18694 H 1774.28 4.06291 0.373013 0
M  V30 18695 H 1772.96 4.08537 -0.779122 0
M  V30 18696 H 1771.53 3.59633 0.985843 0
M  V30 18697 N 1773.72 0.287581 1.54954 0
M  V30 18698 C 1774.97 -0.324967 1.9947 0
M  V30 18699 C 1775.29 -1.55437 1.17747 0
M  V30 18700 O 1774.56 -1.9403 0.270067 0
M  V30 18701 H 1773.14 -0.123062 0.736794 0
M  V30 18702 H 1775.8 0.395805 1.90839 0
M  V30 18703 H 1774.9 -0.606265 3.06155 0
M  V30 18704 N 1775.2 -1.57593 0.0150662 0
M  V30 18705 C 1776.42 -1.95909 -0.68077 0
M  V30 18706 C 1776.85 -0.890813 -1.65669 0
M  V30 18707 O 1776.21 0.149663 -1.80681 0
M  V30 18708 C 1776.25 -3.33324 -1.37576 0
M  V30 18709 O 1775.36 -3.28694 -2.49066 0
M  V30 18710 H 1774.7 -0.639151 -0.179949 0
M  V30 18711 H 1777.23 -2.04471 0.0727403 0
M  V30 18712 H 1777.24 -3.69236 -1.73577 0
M  V30 18713 H 1775.91 -4.10625 -0.660305 0
M  V30 18714 H 1774.49 -3.0448 -2.15282 0
M  V30 18715 N 1776.68 0.257904 -1.55475 0
M  V30 18716 C 1778.09 0.82782 -1.67344 0
M  V30 18717 C 1778.44 1.8646 -0.610494 0
M  V30 18718 O 1777.56 2.15005 0.245275 0
M  V30 18719 C 1778.16 1.5083 -3.03374 0
M  V30 18720 C 1776.72 2.02605 -3.17219 0
M  V30 18721 C 1775.86 0.873303 -2.63189 0
M  V30 18722 H 1778.82 0.0339334 -1.58664 0
M  V30 18723 H 1778.84 2.3759 -2.97205 0
M  V30 18724 H 1778.35 0.753469 -3.80716 0
M  V30 18725 H 1776.45 2.81002 -2.4468 0
M  V30 18726 H 1776.56 2.23099 -4.23985 0
M  V30 18727 H 1774.93 1.27082 -2.20731 0
M  V30 18728 H 1775.71 0.131739 -3.43047 0
M  V30 18729 N 1778.15 1.48666 0.52309 0
M  V30 18730 C 1779.4 1.56286 1.27505 0
M  V30 18731 C 1779.72 0.244774 1.94062 0
M  V30 18732 O 1780.92 0.199289 2.70768 0
M  V30 18733 C 1779.38 2.75654 2.31393 0
M  V30 18734 C 1778.99 4.14133 1.70874 0
M  V30 18735 C 1780.73 2.92591 3.07556 0
M  V30 18736 C 1778.64 5.24752 2.72743 0
M  V30 18737 H 1777.57 0.581842 0.479558 0
M  V30 18738 H 1780.22 1.75013 0.551611 0
M  V30 18739 H 1778.6 2.50376 3.06803 0
M  V30 18740 H 1779.77 4.49458 1.01607 0
M  V30 18741 H 1778.09 4.0237 1.0718 0
M  V30 18742 H 1780.69 3.72403 3.83692 0
M  V30 18743 H 1781.03 2.02308 3.63837 0
M  V30 18744 H 1781.56 3.17804 2.39261 0
M  V30 18745 H 1778.3 6.17024 2.21273 0
M  V30 18746 H 1777.82 4.93907 3.40318 0
M  V30 18747 H 1779.5 5.53158 3.35598 0
M  V30 18748 N 1779.63 -0.772489 1.37369 0
M  V30 18749 C 1780.88 -1.53329 1.32733 0
M  V30 18750 C 1781.21 -1.93999 -0.0882815 0
M  V30 18751 O 1780.49 -1.64014 -1.04545 0
M  V30 18752 C 1780.77 -2.79885 2.26575 0
M  V30 18753 C 1780.62 -2.45474 3.76912 0
M  V30 18754 C 1781.94 -3.81812 2.18878 0
M  V30 18755 H 1779.06 -0.55625 0.483482 0
M  V30 18756 H 1781.7 -0.886251 1.68064 0
M  V30 18757 H 1779.85 -3.35097 1.96576 0
M  V30 18758 H 1781.52 -1.96182 4.17505 0
M  V30 18759 H 1779.77 -1.78181 3.95517 0
M  V30 18760 H 1780.44 -3.35937 4.38007 0
M  V30 18761 H 1782.91 -3.36091 2.4532 0
M  V30 18762 H 1781.79 -4.68087 2.86681 0
M  V30 18763 H 1782.05 -4.26021 1.18146 0
M  V30 18764 N 1781.11 -1.21927 -0.998575 0
M  V30 18765 C 1782.39 -0.949034 -1.71034 0
M  V30 18766 C 1782.77 0.537429 -2.04144 0
M  V30 18767 O 1782.12 1.50398 -1.72026 0
M  V30 18768 C 1782.33 -1.84076 -2.96508 0
M  V30 18769 C 1783.67 -2.09345 -3.69405 0
M  V30 18770 O 1784.7 -1.81477 -3.06504 0
M  V30 18771 O 1783.56 -2.56513 -4.82559 0
M  V30 18772 H 1780.65 -0.356423 -0.746252 0
M  V30 18773 H 1783.2 -1.32886 -1.05543 0
M  V30 18774 H 1781.97 -2.84647 -2.68499 0
M  V30 18775 H 1781.59 -1.46215 -3.69739 0
M  V30 18776 N 1782.59 1.19452 -1.02805 0
M  V30 18777 C 1783.54 2.22644 -0.608134 0
M  V30 18778 C 1784.51 1.6175 0.377639 0
M  V30 18779 O 1785.69 1.88815 0.274487 0
M  V30 18780 C 1782.83 3.45081 0.0357589 0
M  V30 18781 C 1781.94 4.20363 -0.995955 0
M  V30 18782 C 1781.08 5.30224 -0.321911 0
M  V30 18783 C 1780.12 5.97261 -1.33959 0
M  V30 18784 N 1779.25 6.98687 -0.691414 0
M  V30 18785 H 1784.09 2.57921 -1.49268 0
M  V30 18786 H 1781.63 1.26722 -0.746985 0
M  V30 18787 H 1783.59 4.15016 0.426309 0
M  V30 18788 H 1782.22 3.10463 0.883889 0
M  V30 18789 H 1781.27 3.49381 -1.50457 0
M  V30 18790 H 1782.58 4.6636 -1.76945 0
M  V30 18791 H 1781.74 6.06574 0.123528 0
M  V30 18792 H 1780.48 4.85294 0.483792 0
M  V30 18793 H 1779.48 5.19662 -1.7953 0
M  V30 18794 H 1780.71 6.44275 -2.14678 0
M  V30 18795 H 1778.65 6.55932 0.0942121 0
M  V30 18796 H 1778.57 7.42871 -1.40281 0
M  V30 18797 H 1779.84 7.79032 -0.269948 0
M  V30 18798 N 1784.07 0.805805 1.35442 0
M  V30 18799 C 1785.01 0.213632 2.29809 0
M  V30 18800 C 1785.98 -0.651878 1.52774 0
M  V30 18801 O 1787.17 -0.597124 1.81216 0
M  V30 18802 C 1784.31 -0.632444 3.39255 0
M  V30 18803 C 1783.42 0.253414 4.31256 0
M  V30 18804 C 1782.56 -0.600593 5.27794 0
M  V30 18805 C 1781.6 0.285712 6.11433 0
M  V30 18806 N 1780.73 -0.528222 7.0011 0
M  V30 18807 H 1785.57 1.02378 2.79862 0
M  V30 18808 H 1783.11 0.516397 1.37738 0
M  V30 18809 H 1785.07 -1.13814 4.01376 0
M  V30 18810 H 1783.7 -1.40786 2.90481 0
M  V30 18811 H 1782.75 0.877202 3.70148 0
M  V30 18812 H 1784.06 0.935631 4.89946 0
M  V30 18813 H 1783.22 -1.17145 5.95283 0
M  V30 18814 H 1781.95 -1.31638 4.69598 0
M  V30 18815 H 1780.96 0.868843 5.42891 0
M  V30 18816 H 1782.18 0.999349 6.71707 0
M  V30 18817 H 1780.13 -1.228 6.44404 0
M  V30 18818 H 1780.05 0.0959658 7.55939 0
M  V30 18819 H 1781.32 -1.08238 7.71949 0
M  V30 18820 N 1785.54 -1.47344 0.559239 0
M  V30 18821 C 1786.79 -2.02068 0.035872 0
M  V30 18822 C 1787.11 -1.43573 -1.31953 0
M  V30 18823 O 1786.38 -0.611672 -1.86106 0
M  V30 18824 H 1784.96 -0.746929 0.0102713 0
M  V30 18825 H 1787.63 -1.80724 0.729707 0
M  V30 18826 H 1786.72 -3.12059 -0.0507123 0
M  V30 18827 N 1787.02 -0.295795 -1.54799 0
M  V30 18828 C 1787.97 0.582614 -2.23325 0
M  V30 18829 C 1788.94 1.13365 -1.21398 0
M  V30 18830 O 1790.12 1.17914 -1.50003 0
M  V30 18831 C 1787.26 1.75112 -2.97371 0
M  V30 18832 C 1786.38 1.23197 -4.14061 0
M  V30 18833 C 1785.51 2.36393 -4.75701 0
M  V30 18834 C 1784.55 1.81585 -5.84545 0
M  V30 18835 N 1783.69 2.88334 -6.40162 0
M  V30 18836 H 1788.53 -0.00836451 -2.97999 0
M  V30 18837 H 1786.07 -0.0158966 -1.47091 0
M  V30 18838 H 1788.02 2.4383 -3.38531 0
M  V30 18839 H 1786.65 2.31381 -2.25084 0
M  V30 18840 H 1785.71 0.437226 -3.77879 0
M  V30 18841 H 1787.02 0.790706 -4.92493 0
M  V30 18842 H 1786.17 3.13067 -5.19687 0
M  V30 18843 H 1784.91 2.83844 -3.9659 0
M  V30 18844 H 1783.92 1.03399 -5.3999 0
M  V30 18845 H 1785.14 1.35045 -6.65537 0
M  V30 18846 H 1783.09 3.35129 -5.63937 0
M  V30 18847 H 1783 2.48687 -7.13926 0
M  V30 18848 H 1784.27 3.64921 -6.88805 0
M  V30 18849 N 1788.5 1.57583 -0.0234236 0
M  V30 18850 C 1789.75 1.91848 0.657422 0
M  V30 18851 C 1790.08 0.899633 1.72105 0
M  V30 18852 O 1789.36 -0.0784409 1.94342 0
M  V30 18853 C 1789.64 3.36617 1.2791 0
M  V30 18854 C 1789.49 4.49235 0.225421 0
M  V30 18855 C 1790.81 3.81239 2.19874 0
M  V30 18856 H 1787.93 0.697677 0.23752 0
M  V30 18857 H 1790.57 1.89834 -0.0795169 0
M  V30 18858 H 1788.72 3.38465 1.90719 0
M  V30 18859 H 1790.39 4.59521 -0.404792 0
M  V30 18860 H 1788.64 4.31462 -0.449749 0
M  V30 18861 H 1789.31 5.47545 0.699906 0
M  V30 18862 H 1791.78 3.81092 1.67058 0
M  V30 18863 H 1790.66 4.8324 2.60328 0
M  V30 18864 H 1790.92 3.16421 3.08755 0
M  V30 18865 N 1789.98 -0.249655 1.5561 0
M  V30 18866 C 1791.23 -0.979529 1.77576 0
M  V30 18867 C 1791.56 -1.85078 0.588198 0
M  V30 18868 O 1790.83 -1.90052 -0.4136 0
M  V30 18869 C 1791.12 -1.84238 3.094 0
M  V30 18870 C 1790.97 -0.9995 4.38554 0
M  V30 18871 C 1792.29 -2.82536 3.37433 0
M  V30 18872 H 1789.41 -0.354681 0.646042 0
M  V30 18873 H 1792.05 -0.250224 1.88345 0
M  V30 18874 H 1790.2 -2.46419 3.0035 0
M  V30 18875 H 1791.87 -0.396599 4.59592 0
M  V30 18876 H 1790.11 -0.30376 4.32735 0
M  V30 18877 H 1790.79 -1.63697 5.27169 0
M  V30 18878 H 1793.26 -2.30491 3.46429 0
M  V30 18879 H 1792.14 -3.40033 4.30893 0
M  V30 18880 H 1792.4 -3.58859 2.58211 0
M  V30 18881 N 1791.46 -1.48941 -0.515198 0
M  V30 18882 C 1792.71 -1.57398 -1.26768 0
M  V30 18883 C 1793.03 -0.256213 -1.93309 0
M  V30 18884 O 1792.3 0.723408 -1.82054 0
M  V30 18885 H 1790.88 -0.579895 -0.470883 0
M  V30 18886 H 1793.54 -1.85489 -0.598315 0
M  V30 18887 H 1792.63 -2.36272 -2.03916 0
M  V30 18888 N 1792.94 0.765193 -1.37777 0
M  V30 18889 C 1793.87 1.89247 -1.36777 0
M  V30 18890 C 1794.85 1.68463 -0.235389 0
M  V30 18891 O 1796.03 1.89225 -0.436733 0
M  V30 18892 C 1793.16 3.2662 -1.18053 0
M  V30 18893 C 1792.12 3.61981 -2.28372 0
M  V30 18894 C 1791.44 4.97967 -1.94765 0
M  V30 18895 C 1792.74 3.68053 -3.70587 0
M  V30 18896 H 1794.44 1.90341 -2.31108 0
M  V30 18897 H 1791.98 0.914355 -1.11245 0
M  V30 18898 H 1793.93 4.05125 -1.15982 0
M  V30 18899 H 1792.66 3.25976 -0.201803 0
M  V30 18900 H 1791.32 2.85788 -2.2961 0
M  V30 18901 H 1790.97 4.93869 -0.954052 0
M  V30 18902 H 1790.67 5.22594 -2.68642 0
M  V30 18903 H 1792.19 5.78864 -1.94292 0
M  V30 18904 H 1793.6 4.36696 -3.71443 0
M  V30 18905 H 1792 4.04183 -4.43572 0
M  V30 18906 H 1793.07 2.68556 -4.03739 0
M  V30 18907 N 1794.41 1.22455 0.992094 0
M  V30 18908 C 1795.64 1.07438 1.76467 0
M  V30 18909 C 1796.05 -0.37795 1.85387 0
M  V30 18910 O 1795.39 -1.27367 1.32376 0
M  V30 18911 C 1795.46 1.61171 3.21347 0
M  V30 18912 C 1795.12 3.09794 3.35971 0
M  V30 18913 C 1796.12 4.07214 3.23222 0
M  V30 18914 C 1793.8 3.49266 3.60996 0
M  V30 18915 C 1795.8 5.42092 3.35284 0
M  V30 18916 C 1793.48 4.84292 3.72699 0
M  V30 18917 C 1794.48 5.80514 3.59851 0
M  V30 18918 O 1794.17 7.13088 3.71161 0
M  V30 18919 H 1793.9 0.377158 0.561006 0
M  V30 18920 H 1796.46 1.62527 1.25595 0
M  V30 18921 H 1794.69 1.00491 3.73415 0
M  V30 18922 H 1796.37 1.41804 3.80324 0
M  V30 18923 H 1797.14 3.78063 3.03798 0
M  V30 18924 H 1793.02 2.74895 3.70073 0
M  V30 18925 H 1796.56 6.17178 3.25172 0
M  V30 18926 H 1792.46 5.13124 3.91629 0
M  V30 18927 H 1793.23 7.20677 3.88029 0
M  V30 18928 N 1795.89 -1.18905 1.03437 0
M  V30 18929 C 1797.14 -1.88354 0.732598 0
M  V30 18930 C 1797.46 -1.80353 -0.741474 0
M  V30 18931 O 1796.73 -1.21764 -1.53461 0
M  V30 18932 H 1795.31 -0.697272 0.267995 0
M  V30 18933 H 1797.97 -1.44329 1.30978 0
M  V30 18934 H 1797.07 -2.94551 1.03181 0
M  V30 18935 N 1797.37 -0.812977 -1.35013 0
M  V30 18936 C 1798.32 -0.216001 -2.31595 0
M  V30 18937 C 1799.31 0.637771 -1.56936 0
M  V30 18938 O 1800.52 0.530221 -1.72014 0
M  V30 18939 H 1796.89 -0.0510947 -0.750262 0
M  V30 18940 H 1798.86 -1.04559 -2.79482 0
M  V30 18941 C 1797.61 0.615651 -3.42206 0
M  V30 18942 H 1796.94 -0.0319737 -3.99787 0
M  V30 18943 H 1798.38 0.99963 -4.12048 0
M  V30 18944 C 1796.83 1.78386 -2.85797 0
M  V30 18945 O 1797.36 2.88163 -2.79866 0
M  V30 18946 N 1795.57 1.59742 -2.42757 0
M  V30 18947 H 1795.12 0.704468 -2.4778 0
M  V30 18948 H 1795.08 2.38061 -2.05364 0
M  V30 18949 N 1798.85 1.47045 -0.567045 0
M  V30 18950 C 1800.1 2.02046 -0.0465877 0
M  V30 18951 C 1800.42 1.44271 1.3119 0
M  V30 18952 O 1799.69 0.621533 1.85779 0
M  V30 18953 H 1798.27 0.746864 -0.0142323 0
M  V30 18954 H 1800.93 1.80335 -0.739281 0
M  V30 18955 H 1800.02 3.12081 0.0341623 0
M  V30 18956 N 1800.33 0.304 1.5464 0
M  V30 18957 C 1801.57 -0.304845 2.00496 0
M  V30 18958 C 1801.9 -1.53308 1.19206 0
M  V30 18959 O 1801.18 -1.92627 0.269305 0
M  V30 18960 C 1801.46 -0.658462 3.54029 0
M  V30 18961 C 1801.32 0.579125 4.46056 0
M  V30 18962 C 1802.63 -1.4838 4.14332 0
M  V30 18963 H 1799.75 -0.109327 0.728846 0
M  V30 18964 H 1802.4 0.416694 1.85374 0
M  V30 18965 H 1800.55 -1.27319 3.67045 0
M  V30 18966 H 1802.22 1.21758 4.44941 0
M  V30 18967 H 1800.46 1.21179 4.16531 0
M  V30 18968 H 1801.13 0.287518 5.51251 0
M  V30 18969 H 1803.61 -0.964367 4.04771 0
M  V30 18970 H 1802.48 -1.70001 5.21911 0
M  V30 18971 H 1802.74 -2.47394 3.66399 0
M  V30 18972 N 1801.8 -1.57568 0.0317802 0
M  V30 18973 C 1803.05 -1.92194 -0.647238 0
M  V30 18974 C 1803.38 -0.908747 -1.71626 0
M  V30 18975 O 1802.66 0.0681334 -1.94381 0
M  V30 18976 C 1802.94 -3.3729 -1.26124 0
M  V30 18977 C 1802.79 -4.49348 -0.201594 0
M  V30 18978 C 1804.11 -3.824 -2.17849 0
M  V30 18979 H 1801.23 -0.698927 -0.233817 0
M  V30 18980 H 1803.87 -1.89789 0.0895831 0
M  V30 18981 H 1802.02 -3.39471 -1.88922 0
M  V30 18982 H 1803.7 -4.59299 0.429155 0
M  V30 18983 H 1801.94 -4.31218 0.472624 0
M  V30 18984 H 1802.61 -5.47908 -0.670859 0
M  V30 18985 H 1805.09 -3.81972 -1.65034 0
M  V30 18986 H 1803.96 -4.84614 -2.57761 0
M  V30 18987 H 1804.22 -3.18054 -3.07073 0
M  V30 18988 N 1803.28 0.241399 -1.5574 0
M  V30 18989 C 1804.51 0.986075 -1.81891 0
M  V30 18990 C 1804.93 1.78734 -0.608254 0
M  V30 18991 O 1804.28 1.77527 0.423129 0
M  V30 18992 C 1804.33 1.91956 -3.06325 0
M  V30 18993 O 1804.05 1.15071 -4.22718 0
M  V30 18994 C 1805.56 2.77977 -3.45317 0
M  V30 18995 H 1802.78 0.289913 -0.605137 0
M  V30 18996 H 1805.32 0.262622 -2.02807 0
M  V30 18997 H 1803.47 2.59721 -2.87443 0
M  V30 18998 H 1803.89 1.78261 -4.93278 0
M  V30 18999 H 1805.36 3.39215 -4.35474 0
M  V30 19000 H 1805.84 3.49369 -2.66154 0
M  V30 19001 H 1806.45 2.15655 -3.66569 0
M  V30 19002 N 1804.76 1.49212 0.507292 0
M  V30 19003 C 1806.18 1.35835 0.837908 0
M  V30 19004 C 1806.38 0.386634 1.97756 0
M  V30 19005 O 1805.43 -0.183971 2.51829 0
M  V30 19006 C 1806.75 2.76407 1.18404 0
M  V30 19007 C 1808.29 2.85062 1.29262 0
M  V30 19008 C 1808.77 4.26387 1.67208 0
M  V30 19009 N 1810.26 4.29168 1.74268 0
M  V30 19010 C 1810.99 5.35479 2.05061 0
M  V30 19011 N 1810.49 6.52042 2.34121 0
M  V30 19012 N 1812.28 5.2289 2.06259 0
M  V30 19013 H 1804.43 2.1099 -0.244311 0
M  V30 19014 H 1806.7 0.946849 -0.0466977 0
M  V30 19015 H 1806.4 3.49183 0.420053 0
M  V30 19016 H 1806.28 3.11376 2.12896 0
M  V30 19017 H 1808.66 2.12528 2.04734 0
M  V30 19018 H 1808.75 2.53684 0.328359 0
M  V30 19019 H 1808.39 4.99445 0.922884 0
M  V30 19020 H 1808.32 4.55225 2.64723 0
M  V30 19021 H 1810.81 3.45099 1.53996 0
M  V30 19022 H 1811.12 7.2889 2.56787 0
M  V30 19023 H 1809.47 6.55279 2.31591 0
M  V30 19024 H 1812.66 4.30834 1.83028 0
M  V30 19025 H 1812.83 6.05838 2.29923 0
M  V30 19026 N 1806.24 -0.757876 1.38181 0
M  V30 19027 C 1807.46 -1.55221 1.37555 0
M  V30 19028 C 1807.89 -1.8807 -0.0336083 0
M  V30 19029 O 1807.25 -1.50258 -1.0145 0
M  V30 19030 C 1807.29 -2.83064 2.23399 0
M  V30 19031 O 1806.4 -3.78034 1.64814 0
M  V30 19032 H 1805.74 -0.469644 0.469394 0
M  V30 19033 H 1808.27 -0.936923 1.81887 0
M  V30 19034 H 1808.28 -3.32031 2.37106 0
M  V30 19035 H 1806.95 -2.58485 3.2582 0
M  V30 19036 H 1805.53 -3.36723 1.60225 0
M  V30 19037 N 1807.72 -1.22979 -0.985586 0
M  V30 19038 C 1808.96 -1.05667 -1.72275 0
M  V30 19039 C 1809.29 0.408045 -1.90683 0
M  V30 19040 O 1808.56 1.29293 -1.47174 0
M  V30 19041 H 1807.14 -0.388017 -0.63832 0
M  V30 19042 H 1809.8 -1.54612 -1.18665 0
M  V30 19043 H 1808.89 -1.54043 -2.71436 0
M  V30 19044 N 1809.19 1.18355 -1.04066 0
M  V30 19045 C 1810.16 2.20195 -0.636148 0
M  V30 19046 C 1811.16 1.57853 0.306457 0
M  V30 19047 O 1812.35 1.73958 0.0918576 0
M  V30 19048 C 1809.48 3.40833 0.0673423 0
M  V30 19049 H 1810.67 2.57497 -1.53738 0
M  V30 19050 H 1808.23 1.32239 -0.833214 0
M  V30 19051 H 1808.96 3.09063 0.982371 0
M  V30 19052 H 1808.75 3.87324 -0.610145 0
M  V30 19053 H 1810.24 4.16239 0.336869 0
M  V30 19054 N 1810.67 0.820125 1.3458 0
M  V30 19055 C 1811.9 0.419155 2.02303 0
M  V30 19056 C 1812.31 -0.978742 1.61918 0
M  V30 19057 O 1811.65 -1.64433 0.818983 0
M  V30 19058 C 1811.72 0.438576 3.56815 0
M  V30 19059 C 1811.38 1.78932 4.20514 0
M  V30 19060 C 1812.38 2.74974 4.41232 0
M  V30 19061 C 1810.06 2.07704 4.57345 0
M  V30 19062 C 1812.06 3.97961 4.97901 0
M  V30 19063 C 1809.74 3.30952 5.13726 0
M  V30 19064 C 1810.74 4.25898 5.33947 0
M  V30 19065 O 1810.43 5.46969 5.89135 0
M  V30 19066 H 1810.16 0.166787 0.655102 0
M  V30 19067 H 1812.71 1.10892 1.72893 0
M  V30 19068 H 1810.94 -0.307871 3.85472 0
M  V30 19069 H 1812.63 0.0580448 4.05858 0
M  V30 19070 H 1813.4 2.54041 4.13144 0
M  V30 19071 H 1809.28 1.34605 4.40911 0
M  V30 19072 H 1812.82 4.72081 5.136 0
M  V30 19073 H 1808.72 3.5175 5.41242 0
M  V30 19074 H 1809.49 5.48451 6.07572 0
M  V30 19075 N 1812.15 -1.46743 0.574835 0
M  V30 19076 C 1813.4 -2.02718 0.0575005 0
M  V30 19077 C 1813.73 -1.4463 -1.29599 0
M  V30 19078 O 1813 -0.608422 -1.84739 0
M  V30 19079 C 1813.29 -3.60096 -0.016719 0
M  V30 19080 C 1813.14 -4.28584 1.36511 0
M  V30 19081 C 1814.46 -4.34149 -0.721324 0
M  V30 19082 H 1811.58 -0.73666 0.0223697 0
M  V30 19083 H 1814.22 -1.74975 0.74052 0
M  V30 19084 H 1812.37 -3.83864 -0.598396 0
M  V30 19085 H 1814.04 -4.16104 1.99135 0
M  V30 19086 H 1812.29 -3.88253 1.935 0
M  V30 19087 H 1812.96 -5.37293 1.26573 0
M  V30 19088 H 1815.43 -4.15479 -0.227256 0
M  V30 19089 H 1814.31 -5.43858 -0.742263 0
M  V30 19090 H 1814.57 -4.04637 -1.78106 0
M  V30 19091 N 1813.63 -0.312197 -1.54477 0
M  V30 19092 C 1814.85 0.298829 -2.05236 0
M  V30 19093 C 1815.28 1.45881 -1.18745 0
M  V30 19094 O 1814.64 1.80259 -0.193999 0
M  V30 19095 C 1814.68 0.722008 -3.53298 0
M  V30 19096 O 1813.79 1.82562 -3.6979 0
M  V30 19097 H 1813.13 0.0560985 -0.661626 0
M  V30 19098 H 1815.66 -0.4573 -1.99424 0
M  V30 19099 H 1815.67 1.00777 -3.95358 0
M  V30 19100 H 1814.34 -0.12647 -4.15708 0
M  V30 19101 H 1812.92 1.53954 -3.39636 0
M  V30 19102 N 1815.11 1.57549 -0.040136 0
M  V30 19103 C 1816.07 2.09788 0.923126 0
M  V30 19104 C 1817.07 1.01518 1.24703 0
M  V30 19105 O 1818.26 1.27635 1.18554 0
M  V30 19106 C 1815.39 2.57293 2.23636 0
M  V30 19107 H 1816.58 2.96187 0.470482 0
M  V30 19108 H 1814.14 1.54909 0.208088 0
M  V30 19109 H 1814.87 1.74256 2.73506 0
M  V30 19110 H 1814.66 3.36402 2.01435 0
M  V30 19111 H 1816.15 2.97895 2.92658 0
M  V30 19112 N 1816.58 -0.233136 1.55866 0
M  V30 19113 C 1817.83 -0.957205 1.7754 0
M  V30 19114 C 1818.15 -1.85956 0.606601 0
M  V30 19115 O 1819.35 -2.62142 0.706687 0
M  V30 19116 C 1817.81 -1.75215 3.14369 0
M  V30 19117 C 1817.42 -0.896509 4.38938 0
M  V30 19118 C 1819.16 -2.46813 3.45374 0
M  V30 19119 C 1817.07 -1.68814 5.66794 0
M  V30 19120 H 1816 -0.361139 0.661887 0
M  V30 19121 H 1818.65 -0.211424 1.82278 0
M  V30 19122 H 1817.03 -2.54041 3.03775 0
M  V30 19123 H 1818.2 -0.149614 4.60557 0
M  V30 19124 H 1816.52 -0.293211 4.15366 0
M  V30 19125 H 1819.12 -3.0652 4.38121 0
M  V30 19126 H 1819.46 -3.19121 2.67334 0
M  V30 19127 H 1819.99 -1.74987 3.57245 0
M  V30 19128 H 1816.73 -1.00855 6.47695 0
M  V30 19129 H 1816.25 -2.40995 5.49255 0
M  V30 19130 H 1817.93 -2.25178 6.06551 0
M  V30 19131 N 1818.06 -1.49479 -0.499372 0
M  V30 19132 C 1819.03 -1.6575 -1.58302 0
M  V30 19133 C 1820.03 -0.529236 -1.51841 0
M  V30 19134 O 1821.22 -0.795721 -1.54964 0
M  V30 19135 C 1818.35 -1.65639 -2.97954 0
M  V30 19136 H 1819.54 -2.62404 -1.45203 0
M  V30 19137 H 1817.09 -1.38535 -0.723725 0
M  V30 19138 H 1817.83 -0.705752 -3.16527 0
M  V30 19139 H 1817.61 -2.47578 -3.04051 0
M  V30 19140 H 1819.1 -1.80279 -3.76682 0
M  V30 19141 N 1819.54 0.750537 -1.38581 0
M  V30 19142 C 1820.47 1.87411 -1.31946 0
M  V30 19143 C 1821.49 1.61151 -0.231101 0
M  V30 19144 O 1822.68 1.71674 -0.488893 0
M  V30 19145 C 1819.78 3.23112 -1.02233 0
M  V30 19146 C 1818.95 3.76852 -2.22039 0
M  V30 19147 C 1818.01 4.91077 -1.89023 0
M  V30 19148 O 1817.03 5.0555 -2.61549 0
M  V30 19149 N 1818.24 5.74287 -0.847021 0
M  V30 19150 H 1821 1.93613 -2.28767 0
M  V30 19151 H 1818.56 0.930603 -1.32482 0
M  V30 19152 H 1820.55 3.97074 -0.78193 0
M  V30 19153 H 1819.12 3.12277 -0.141981 0
M  V30 19154 H 1818.34 2.94421 -2.62126 0
M  V30 19155 H 1819.63 4.09489 -3.01987 0
M  V30 19156 H 1819.03 5.65166 -0.245635 0
M  V30 19157 H 1817.59 6.48383 -0.666505 0
M  V30 19158 N 1821.02 1.235 0.979051 0
M  V30 19159 C 1822.25 1.09462 1.75572 0
M  V30 19160 C 1822.66 -0.3538 1.85455 0
M  V30 19161 O 1822.02 -1.24467 1.3347 0
M  V30 19162 C 1822.07 1.71562 3.18196 0
M  V30 19163 O 1821.79 3.1074 3.08824 0
M  V30 19164 C 1823.29 1.62984 4.12251 0
M  V30 19165 H 1820.51 0.383013 0.550946 0
M  V30 19166 H 1823.06 1.63378 1.22995 0
M  V30 19167 H 1821.21 1.21676 3.67796 0
M  V30 19168 H 1821.63 3.40888 3.98617 0
M  V30 19169 H 1823.1 2.11135 5.10025 0
M  V30 19170 H 1823.58 0.588907 4.35234 0
M  V30 19171 H 1824.18 2.12242 3.68556 0
M  V30 19172 N 1822.5 -1.17802 1.04693 0
M  V30 19173 C 1823.41 -2.25298 0.654072 0
M  V30 19174 C 1824.42 -1.70984 -0.32255 0
M  V30 19175 O 1825.6 -2.0063 -0.175904 0
M  V30 19176 C 1822.66 -3.46687 0.0296345 0
M  V30 19177 C 1821.73 -4.16108 1.05606 0
M  V30 19178 C 1820.96 -5.31702 0.461329 0
M  V30 19179 O 1821.18 -5.65701 -0.730679 0
M  V30 19180 O 1820.12 -5.89956 1.19312 0
M  V30 19181 H 1823.94 -2.61179 1.54982 0
M  V30 19182 H 1821.53 -1.25005 0.818182 0
M  V30 19183 H 1823.41 -4.20201 -0.317654 0
M  V30 19184 H 1822.08 -3.12615 -0.839839 0
M  V30 19185 H 1820.99 -3.44635 1.45526 0
M  V30 19186 H 1822.32 -4.54195 1.89651 0
M  V30 19187 N 1823.98 -0.827251 -1.34143 0
M  V30 19188 C 1824.92 -0.250166 -2.2944 0
M  V30 19189 C 1825.89 0.62749 -1.53791 0
M  V30 19190 O 1827.08 0.568218 -1.82143 0
M  V30 19191 C 1824.22 0.578392 -3.40219 0
M  V30 19192 C 1823.33 -0.321991 -4.30798 0
M  V30 19193 C 1822.47 0.51655 -5.28683 0
M  V30 19194 C 1821.5 -0.382949 -6.10901 0
M  V30 19195 N 1820.64 0.416774 -7.00862 0
M  V30 19196 H 1825.48 -1.06817 -2.78198 0
M  V30 19197 H 1823.02 -0.538245 -1.36899 0
M  V30 19198 H 1824.98 1.07414 -4.03135 0
M  V30 19199 H 1823.61 1.36147 -2.92684 0
M  V30 19200 H 1822.66 -0.935979 -3.68705 0
M  V30 19201 H 1823.97 -1.01346 -4.88396 0
M  V30 19202 H 1823.12 1.0766 -5.97071 0
M  V30 19203 H 1821.86 1.2415 -4.71633 0
M  V30 19204 H 1820.87 -0.955103 -5.41441 0
M  V30 19205 H 1822.09 -1.10609 -6.70032 0
M  V30 19206 H 1820.04 1.12532 -6.46276 0
M  V30 19207 H 1819.96 -0.216217 -7.55691 0
M  V30 19208 H 1821.22 0.959432 -7.73573 0
M  V30 19209 N 1825.45 1.46436 -0.582609 0
M  V30 19210 C 1826.68 2.07275 -0.0718712 0
M  V30 19211 C 1827.1 1.42851 1.22373 0
M  V30 19212 O 1826.46 0.512272 1.73912 0
M  V30 19213 C 1826.51 3.6051 0.08055 0
M  V30 19214 O 1825.61 3.96414 1.13707 0
M  V30 19215 H 1824.95 0.661027 -0.0627607 0
M  V30 19216 H 1827.48 1.88076 -0.805524 0
M  V30 19217 H 1827.49 4.06991 0.286749 0
M  V30 19218 H 1826.17 4.06792 -0.865603 0
M  V30 19219 H 1824.75 3.61643 0.909338 0
M  V30 19220 N 1826.93 0.320385 1.54309 0
M  V30 19221 C 1828.18 -0.284021 1.9969 0
M  V30 19222 C 1828.49 -1.53496 1.21237 0
M  V30 19223 O 1829.7 -2.21517 1.5698 0
M  V30 19224 C 1828.16 -0.556621 3.5557 0
M  V30 19225 C 1827.76 0.677086 4.42854 0
M  V30 19226 C 1829.51 -1.12116 4.09427 0
M  V30 19227 C 1827.41 0.376566 5.902 0
M  V30 19228 H 1826.34 -0.109905 0.745947 0
M  V30 19229 H 1829 0.432113 1.7834 0
M  V30 19230 H 1827.38 -1.33286 3.72895 0
M  V30 19231 H 1828.55 1.45266 4.37304 0
M  V30 19232 H 1826.87 1.16161 3.99869 0
M  V30 19233 H 1829.46 -1.36057 5.171 0
M  V30 19234 H 1829.81 -2.06954 3.61215 0
M  V30 19235 H 1830.34 -0.406174 3.95721 0
M  V30 19236 H 1827.08 1.29403 6.426 0
M  V30 19237 H 1826.6 -0.36136 5.9871 0
M  V30 19238 H 1828.28 -0.014773 6.46998 0
M  V30 19239 N 1828.41 -1.57525 0.0484906 0
M  V30 19240 C 1829.32 -2.14854 -0.942076 0
M  V30 19241 C 1830.34 -1.10565 -1.34355 0
M  V30 19242 O 1831.51 -1.4272 -1.42102 0
M  V30 19243 C 1828.58 -2.68002 -2.19945 0
M  V30 19244 C 1827.64 -3.87078 -1.85658 0
M  V30 19245 C 1826.87 -4.37682 -3.05401 0
M  V30 19246 O 1827.09 -3.87373 -4.18687 0
M  V30 19247 O 1826.03 -5.29302 -2.86571 0
M  V30 19248 H 1829.85 -2.9981 -0.48453 0
M  V30 19249 H 1827.44 -1.48392 -0.173252 0
M  V30 19250 H 1829.32 -3.02167 -2.93722 0
M  V30 19251 H 1828 -1.86118 -2.64843 0
M  V30 19252 H 1826.9 -3.57806 -1.09205 0
M  V30 19253 H 1828.24 -4.70184 -1.45562 0
M  V30 19254 N 1829.89 0.224867 -1.55988 0
M  V30 19255 C 1831.16 0.973884 -1.69632 0
M  V30 19256 C 1831.54 2.02547 -0.594791 0
M  V30 19257 O 1830.89 2.24995 0.398679 0
M  V30 19258 C 1831.1 1.58732 -3.10814 0
M  V30 19259 C 1832.45 2.08084 -3.70117 0
M  V30 19260 O 1833.47 1.68633 -3.13754 0
M  V30 19261 O 1832.33 2.80586 -4.68971 0
M  V30 19262 H 1829.43 0.454716 -0.690769 0
M  V30 19263 H 1831.97 0.216911 -1.68308 0
M  V30 19264 H 1830.75 0.827834 -3.82443 0
M  V30 19265 H 1830.37 2.40992 -3.16241 0
M  V30 19266 N 1831.37 1.49742 0.491438 0
M  V30 19267 C 1832.31 1.67614 1.61271 0
M  V30 19268 C 1833.31 0.542004 1.60495 0
M  V30 19269 O 1834.51 0.721922 1.64889 0
M  V30 19270 H 1830.89 0.528696 0.534775 0
M  V30 19271 H 1832.86 2.61711 1.43352 0
M  V30 19272 C 1831.61 1.76877 2.99349 0
M  V30 19273 H 1830.93 2.63526 3.00656 0
M  V30 19274 H 1832.37 1.93414 3.77315 0
M  V30 19275 C 1830.83 0.515719 3.32929 0
M  V30 19276 O 1831.36 -0.354312 4.00134 0
M  V30 19277 N 1829.57 0.3758 2.8816 0
M  V30 19278 H 1829.11 1.08481 2.33644 0
M  V30 19279 H 1829.07 -0.461494 3.10995 0
M  V30 19280 N 1832.84 -0.743177 1.38977 0
M  V30 19281 C 1834.26 -1.32104 1.3193 0
M  V30 19282 C 1834.61 -1.9619 -0.0201331 0
M  V30 19283 O 1833.73 -1.95764 -0.922245 0
M  V30 19284 C 1834.33 -2.40204 2.3893 0
M  V30 19285 C 1832.89 -2.93684 2.35428 0
M  V30 19286 C 1832.03 -1.67168 2.21247 0
M  V30 19287 H 1834.98 -0.541283 1.49184 0
M  V30 19288 H 1835 -3.20397 2.05246 0
M  V30 19289 H 1834.52 -1.93532 3.36403 0
M  V30 19290 H 1832.62 -3.44658 1.41568 0
M  V30 19291 H 1832.73 -3.47355 3.29971 0
M  V30 19292 H 1831.09 -1.91193 1.68278 0
M  V30 19293 H 1831.88 -1.22559 3.20678 0
M  V30 19294 N 1834.32 -1.24018 -0.972487 0
M  V30 19295 C 1835.23 -1.04527 -2.10027 0
M  V30 19296 C 1836.25 0.0125372 -1.73995 0
M  V30 19297 O 1837.42 -0.184615 -2.00552 0
M  V30 19298 C 1834.49 -0.647264 -3.40604 0
M  V30 19299 C 1833.55 -1.78102 -3.90613 0
M  V30 19300 C 1832.78 -1.4019 -5.14959 0
M  V30 19301 O 1833.01 -0.289608 -5.69664 0
M  V30 19302 O 1831.94 -2.22583 -5.59232 0
M  V30 19303 H 1835.77 -1.99064 -2.29363 0
M  V30 19304 H 1833.35 -1.02794 -1.08414 0
M  V30 19305 H 1835.23 -0.436606 -4.19132 0
M  V30 19306 H 1833.91 0.269025 -3.2258 0
M  V30 19307 H 1832.82 -2.04638 -3.13168 0
M  V30 19308 H 1834.15 -2.67591 -4.13105 0
M  V30 19309 N 1835.8 1.17245 -1.05316 0
M  V30 19310 C 1837.05 1.86871 -0.759093 0
M  V30 19311 C 1837.36 1.81997 0.7167 0
M  V30 19312 O 1838.57 2.47106 1.12476 0
M  V30 19313 C 1837.02 3.35303 -1.30766 0
M  V30 19314 C 1836.63 3.48676 -2.81299 0
M  V30 19315 C 1838.38 4.10249 -1.0907 0
M  V30 19316 C 1836.28 4.91138 -3.2945 0
M  V30 19317 H 1835.21 0.699975 -0.28027 0
M  V30 19318 H 1837.86 1.32393 -1.27061 0
M  V30 19319 H 1836.25 3.89326 -0.723955 0
M  V30 19320 H 1837.42 3.04864 -3.45536 0
M  V30 19321 H 1835.74 2.87152 -3.0155 0
M  V30 19322 H 1838.33 5.1535 -1.42545 0
M  V30 19323 H 1838.68 4.1629 -0.0285204 0
M  V30 19324 H 1839.21 3.62436 -1.63967 0
M  V30 19325 H 1835.95 4.90271 -4.35103 0
M  V30 19326 H 1835.47 5.35615 -2.69956 0
M  V30 19327 H 1837.15 5.59913 -3.24201 0
M  V30 19328 N 1837.28 0.834353 1.33702 0
M  V30 19329 C 1838.19 0.266649 2.3308 0
M  V30 19330 C 1839.2 -0.604958 1.63145 0
M  V30 19331 O 1840.38 -0.510151 1.94832 0
M  V30 19332 C 1837.45 -0.552673 3.42267 0
M  V30 19333 C 1836.51 0.342677 4.2793 0
M  V30 19334 C 1835.74 -0.437637 5.31903 0
M  V30 19335 O 1835.96 -1.6698 5.45412 0
M  V30 19336 O 1834.9 0.186001 6.01613 0
M  V30 19337 H 1838.72 1.08946 2.83486 0
M  V30 19338 H 1836.31 0.596765 1.36964 0
M  V30 19339 H 1838.19 -1.01842 4.08908 0
M  V30 19340 H 1836.86 -1.35263 2.94085 0
M  V30 19341 H 1835.77 0.856168 3.64171 0
M  V30 19342 H 1837.1 1.10728 4.79583 0
M  V30 19343 N 1838.76 -1.46125 0.590367 0
M  V30 19344 C 1840.03 -1.95597 0.0116648 0
M  V30 19345 C 1840.41 -1.53298 -1.45131 0
M  V30 19346 O 1839.76 -0.787298 -2.14508 0
M  V30 19347 C 1839.97 -3.48473 0.191727 0
M  V30 19348 C 1841.32 -4.24552 0.0635332 0
M  V30 19349 O 1842.34 -3.55995 0.120955 0
M  V30 19350 O 1841.2 -5.4646 -0.0657772 0
M  V30 19351 H 1838.3 -0.825748 -0.0454921 0
M  V30 19352 H 1840.84 -1.56372 0.659223 0
M  V30 19353 H 1839.61 -3.72172 1.20846 0
M  V30 19354 H 1839.24 -3.94545 -0.491905 0
M  V30 19355 N 1840.23 -0.328564 -1.54137 0
M  V30 19356 C 1841.51 0.327026 -1.92847 0
M  V30 19357 C 1841.89 1.69472 -1.25867 0
M  V30 19358 O 1841.24 2.24897 -0.404172 0
M  V30 19359 C 1841.45 0.414261 -3.46533 0
M  V30 19360 C 1842.8 0.672189 -4.19245 0
M  V30 19361 O 1843.82 0.496982 -3.52716 0
M  V30 19362 O 1842.68 1.01053 -5.37076 0
M  V30 19363 H 1839.77 0.187716 -0.805414 0
M  V30 19364 H 1842.32 -0.378645 -1.65422 0
M  V30 19365 H 1841.09 -0.54611 -3.8747 0
M  V30 19366 H 1840.72 1.16731 -3.80078 0
M  V30 19367 N 1841.71 1.57497 -0.0568439 0
M  V30 19368 C 1842.96 1.9209 0.615157 0
M  V30 19369 C 1843.27 0.937538 1.71667 0
M  V30 19370 O 1844.48 1.17573 2.44722 0
M  V30 19371 C 1842.94 3.41183 1.14552 0
M  V30 19372 C 1842.54 4.47936 0.0758146 0
M  V30 19373 C 1844.29 3.84801 1.79244 0
M  V30 19374 C 1842.2 5.88148 0.619381 0
M  V30 19375 H 1841.13 0.716918 0.233547 0
M  V30 19376 H 1843.78 1.83062 -0.126654 0
M  V30 19377 H 1842.16 3.45234 1.93983 0
M  V30 19378 H 1843.33 4.55482 -0.69807 0
M  V30 19379 H 1841.65 4.13694 -0.473984 0
M  V30 19380 H 1844.24 4.86929 2.20918 0
M  V30 19381 H 1844.59 3.21355 2.64645 0
M  V30 19382 H 1845.12 3.8329 1.0646 0
M  V30 19383 H 1841.86 6.55204 -0.19712 0
M  V30 19384 H 1841.38 5.84152 1.36112 0
M  V30 19385 H 1843.06 6.37572 1.1005 0
M  V30 19386 N 1843.19 -0.216591 1.56105 0
M  V30 19387 C 1844.44 -0.940249 1.79348 0
M  V30 19388 C 1844.77 -1.84135 0.626451 0
M  V30 19389 O 1844.02 -1.91796 -0.388932 0
M  V30 19390 C 1844.32 -1.80637 3.08391 0
M  V30 19391 C 1843.99 -1.05808 4.3831 0
M  V30 19392 C 1842.65 -0.851392 4.73608 0
M  V30 19393 C 1845 -0.530015 5.18498 0
M  V30 19394 C 1842.33 -0.104822 5.86606 0
M  V30 19395 C 1844.68 0.203236 6.32273 0
M  V30 19396 C 1843.34 0.42113 6.6617 0
M  V30 19397 H 1842.61 -0.344062 0.656279 0
M  V30 19398 H 1845.26 -0.208069 1.90366 0
M  V30 19399 H 1843.57 -2.60656 2.92516 0
M  V30 19400 H 1845.26 -2.36852 3.23577 0
M  V30 19401 H 1841.85 -1.22915 4.10597 0
M  V30 19402 H 1846.04 -0.677154 4.91659 0
M  V30 19403 H 1841.29 0.074177 6.11355 0
M  V30 19404 H 1845.47 0.619898 6.93636 0
M  V30 19405 H 1843.09 1.00155 7.53573 0
M  V30 19406 N 1844.67 -1.5 -0.48349 0
M  V30 19407 C 1846.08 -1.37151 -0.816192 0
M  V30 19408 C 1846.28 -0.418047 -1.97116 0
M  V30 19409 O 1845.34 0.143884 -2.5209 0
M  V30 19410 C 1846.65 -2.78256 -1.13992 0
M  V30 19411 C 1848.2 -2.87082 -1.2471 0
M  V30 19412 C 1848.68 -4.28993 -1.60403 0
M  V30 19413 N 1850.17 -4.31886 -1.67419 0
M  V30 19414 C 1850.9 -5.38673 -1.96516 0
M  V30 19415 N 1850.4 -6.55685 -2.23718 0
M  V30 19416 N 1852.19 -5.26105 -1.97914 0
M  V30 19417 H 1844.34 -2.10575 0.277847 0
M  V30 19418 H 1846.61 -0.945986 0.0617554 0
M  V30 19419 H 1846.31 -3.49807 -0.364448 0
M  V30 19420 H 1846.19 -3.14724 -2.07916 0
M  V30 19421 H 1848.57 -2.15758 -2.01327 0
M  V30 19422 H 1848.65 -2.54174 -0.287959 0
M  V30 19423 H 1848.3 -5.0085 -0.84331 0
M  V30 19424 H 1848.23 -4.59379 -2.57447 0
M  V30 19425 H 1850.72 -3.47506 -1.48487 0
M  V30 19426 H 1851.03 -7.32883 -2.45158 0
M  V30 19427 H 1849.38 -6.58881 -2.21136 0
M  V30 19428 H 1852.57 -4.33692 -1.76151 0
M  V30 19429 H 1852.74 -6.09419 -2.20256 0
M  V30 19430 N 1846.15 0.735796 -1.39369 0
M  V30 19431 C 1847.09 1.8498 -1.38025 0
M  V30 19432 C 1848.06 1.64356 -0.24007 0
M  V30 19433 O 1849.25 1.85774 -0.435058 0
M  V30 19434 C 1846.39 3.22484 -1.22874 0
M  V30 19435 C 1845.5 3.54819 -2.4643 0
M  V30 19436 C 1844.64 4.8172 -2.23873 0
M  V30 19437 C 1843.68 5.06895 -3.43108 0
M  V30 19438 N 1842.81 6.25 -3.19874 0
M  V30 19439 H 1847.65 1.85463 -2.33254 0
M  V30 19440 H 1845.19 0.906252 -1.15868 0
M  V30 19441 H 1847.15 4.01857 -1.12101 0
M  V30 19442 H 1845.78 3.21281 -0.312759 0
M  V30 19443 H 1844.83 2.70153 -2.67809 0
M  V30 19444 H 1846.14 3.69342 -3.35244 0
M  V30 19445 H 1845.3 5.69072 -2.10338 0
M  V30 19446 H 1844.03 4.69369 -1.32453 0
M  V30 19447 H 1843.04 4.18006 -3.57143 0
M  V30 19448 H 1844.26 5.21132 -4.35429 0
M  V30 19449 H 1842.21 6.13939 -2.31117 0
M  V30 19450 H 1842.13 6.40106 -4.02244 0
M  V30 19451 H 1843.4 7.15193 -3.10031 0
M  V30 19452 N 1847.63 1.24532 0.965897 0
M  V30 19453 C 1849.04 1.0111 1.23486 0
M  V30 19454 C 1849.24 -0.278989 1.99559 0
M  V30 19455 O 1848.3 -0.99467 2.32083 0
M  V30 19456 C 1849.61 2.22726 2.02024 0
M  V30 19457 C 1851.16 2.27369 2.1511 0
M  V30 19458 C 1851.63 3.48611 2.97043 0
M  V30 19459 N 1853.12 3.48938 3.04625 0
M  V30 19460 C 1853.86 4.3941 3.68384 0
M  V30 19461 N 1853.36 5.40138 4.33847 0
M  V30 19462 N 1855.15 4.27117 3.65414 0
M  V30 19463 H 1847.3 2.07433 0.456674 0
M  V30 19464 H 1849.56 0.91037 0.264443 0
M  V30 19465 H 1849.27 3.16427 1.53515 0
M  V30 19466 H 1849.14 2.24989 3.02754 0
M  V30 19467 H 1851.53 1.34198 2.62821 0
M  V30 19468 H 1851.61 2.29131 1.13722 0
M  V30 19469 H 1851.25 4.42097 2.50025 0
M  V30 19470 H 1851.18 3.44093 3.98632 0
M  V30 19471 H 1853.68 2.76067 2.58061 0
M  V30 19472 H 1853.99 6.05402 4.80321 0
M  V30 19473 H 1852.33 5.44022 4.3251 0
M  V30 19474 H 1855.52 3.47659 3.1345 0
M  V30 19475 H 1855.7 4.97824 4.1482 0
M  V30 19476 N 1849.1 -1.16685 1.05936 0
M  V30 19477 C 1850.52 -1.39122 0.78213 0
M  V30 19478 C 1850.72 -1.9172 -0.620152 0
M  V30 19479 O 1849.78 -2.11366 -1.38132 0
M  V30 19480 C 1851.09 -2.37522 1.84401 0
M  V30 19481 C 1852.64 -2.51214 1.8671 0
M  V30 19482 C 1853.11 -3.52894 2.91942 0
M  V30 19483 N 1854.6 -3.60418 2.90952 0
M  V30 19484 C 1855.34 -4.38873 3.69023 0
M  V30 19485 N 1854.83 -5.20781 4.56902 0
M  V30 19486 N 1856.63 -4.3382 3.57431 0
M  V30 19487 H 1848.78 -0.808781 1.96399 0
M  V30 19488 H 1851.04 -0.418008 0.850866 0
M  V30 19489 H 1850.75 -2.05962 2.85084 0
M  V30 19490 H 1850.62 -3.37123 1.69197 0
M  V30 19491 H 1853.01 -2.8208 0.866875 0
M  V30 19492 H 1853.09 -1.51661 2.05992 0
M  V30 19493 H 1852.73 -3.22765 3.92155 0
M  V30 19494 H 1852.66 -4.52168 2.6991 0
M  V30 19495 H 1855.15 -3.01945 2.27239 0
M  V30 19496 H 1855.47 -5.77848 5.13138 0
M  V30 19497 H 1853.81 -5.20136 4.60959 0
M  V30 19498 H 1857 -3.68888 2.88165 0
M  V30 19499 H 1857.18 -4.94717 4.1852 0
M  V30 19500 N 1850.58 -0.841432 -1.33258 0
M  V30 19501 C 1851.51 -0.291603 -2.31672 0
M  V30 19502 C 1852.49 0.602066 -1.59089 0
M  V30 19503 O 1853.68 0.525081 -1.86967 0
M  V30 19504 C 1850.81 0.532008 -3.43201 0
M  V30 19505 C 1849.76 -0.26609 -4.27172 0
M  V30 19506 C 1849.09 0.681432 -5.3034 0
M  V30 19507 C 1850.39 -1.48457 -5.00757 0
M  V30 19508 H 1852.08 -1.1139 -2.77908 0
M  V30 19509 H 1849.63 -0.53708 -1.33609 0
M  V30 19510 H 1851.58 0.926977 -4.11078 0
M  V30 19511 H 1850.3 1.38754 -2.9566 0
M  V30 19512 H 1848.96 -0.64265 -3.60923 0
M  V30 19513 H 1848.61 1.53344 -4.79056 0
M  V30 19514 H 1848.31 0.151522 -5.87405 0
M  V30 19515 H 1849.84 1.07386 -6.01083 0
M  V30 19516 H 1851.25 -1.16262 -5.61388 0
M  V30 19517 H 1849.65 -1.95145 -5.67484 0
M  V30 19518 H 1850.72 -2.25296 -4.29383 0
M  V30 19519 N 1852.06 1.4581 -0.598108 0
M  V30 19520 C 1853.29 2.06679 -0.0956921 0
M  V30 19521 C 1853.7 1.44435 1.2159 0
M  V30 19522 O 1853.06 0.555104 1.73853 0
M  V30 19523 C 1853.11 3.61449 0.0604873 0
M  V30 19524 O 1852.83 4.21368 -1.1992 0
M  V30 19525 C 1854.33 4.39282 0.595466 0
M  V30 19526 H 1851.55 0.667893 -0.0644954 0
M  V30 19527 H 1854.1 1.87202 -0.823151 0
M  V30 19528 H 1852.25 3.80301 0.738231 0
M  V30 19529 H 1852.67 5.1443 -1.02282 0
M  V30 19530 H 1854.14 5.48114 0.653868 0
M  V30 19531 H 1854.62 4.084 1.61575 0
M  V30 19532 H 1855.22 4.25273 -0.0479171 0
M  V30 19533 N 1853.54 0.336733 1.53961 0
M  V30 19534 C 1854.79 -0.262826 1.9998 0
M  V30 19535 C 1855.1 -1.52201 1.22858 0
M  V30 19536 O 1856.31 -2.19839 1.5932 0
M  V30 19537 C 1854.76 -0.518877 3.5614 0
M  V30 19538 C 1854.37 0.724019 4.42111 0
M  V30 19539 C 1856.11 -1.07767 4.10593 0
M  V30 19540 C 1854.02 0.439143 5.89767 0
M  V30 19541 H 1852.95 -0.101987 0.747071 0
M  V30 19542 H 1855.6 0.451004 1.77871 0
M  V30 19543 H 1853.98 -1.29323 3.74288 0
M  V30 19544 H 1855.16 1.49896 4.35738 0
M  V30 19545 H 1853.47 1.20396 3.98615 0
M  V30 19546 H 1856.07 -1.30564 5.18514 0
M  V30 19547 H 1856.41 -2.03111 3.63389 0
M  V30 19548 H 1856.95 -0.36418 3.96129 0
M  V30 19549 H 1853.68 1.36212 6.41192 0
M  V30 19550 H 1853.2 -0.297839 5.9906 0
M  V30 19551 H 1854.88 0.0538506 6.46978 0
M  V30 19552 N 1855.02 -1.57465 0.0651956 0
M  V30 19553 C 1855.95 -2.07935 -0.940127 0
M  V30 19554 C 1856.93 -0.982966 -1.29524 0
M  V30 19555 O 1858.11 -1.25589 -1.40569 0
M  V30 19556 C 1855.24 -2.53152 -2.25014 0
M  V30 19557 C 1854.28 -3.74162 -2.04707 0
M  V30 19558 S 1855.12 -5.19166 -1.3125 0
M  V30 19559 C 1856.27 -5.6771 -2.63545 0
M  V30 19560 H 1856.51 -2.92882 -0.510656 0
M  V30 19561 H 1854.04 -1.53695 -0.147413 0
M  V30 19562 H 1856 -2.79866 -3.00309 0
M  V30 19563 H 1854.66 -1.68486 -2.65087 0
M  V30 19564 H 1853.85 -4.03768 -3.01641 0
M  V30 19565 H 1853.45 -3.47787 -1.3755 0
M  V30 19566 H 1855.74 -5.74152 -3.59661 0
M  V30 19567 H 1856.69 -6.66705 -2.38558 0
M  V30 19568 H 1857.1 -4.95498 -2.70448 0
M  V30 19569 N 1856.49 0.20831 -1.56217 0
M  V30 19570 C 1857.77 0.955838 -1.70655 0
M  V30 19571 C 1858.15 2.01905 -0.61624 0
M  V30 19572 O 1857.5 2.25405 0.374793 0
M  V30 19573 C 1857.71 1.55427 -3.1248 0
M  V30 19574 C 1859.06 2.04147 -3.72303 0
M  V30 19575 O 1860.08 1.65295 -3.15525 0
M  V30 19576 O 1858.94 2.75597 -4.7192 0
M  V30 19577 H 1856.03 0.447364 -0.695553 0
M  V30 19578 H 1858.58 0.199047 -1.68529 0
M  V30 19579 H 1857.35 0.787224 -3.83299 0
M  V30 19580 H 1856.97 2.37625 -3.18779 0
M  V30 19581 N 1857.97 1.50255 0.475528 0
M  V30 19582 C 1858.9 1.71721 1.58222 0
M  V30 19583 C 1859.88 0.56612 1.60403 0
M  V30 19584 O 1861.07 0.804774 1.7674 0
M  V30 19585 C 1858.2 1.80726 2.96573 0
M  V30 19586 C 1857.15 2.95877 3.09258 0
M  V30 19587 C 1856.48 2.9002 4.49213 0
M  V30 19588 C 1857.78 4.36452 2.86891 0
M  V30 19589 H 1859.47 2.6438 1.40511 0
M  V30 19590 H 1857.02 1.27224 0.674533 0
M  V30 19591 H 1858.97 1.94328 3.73918 0
M  V30 19592 H 1857.69 0.846846 3.1543 0
M  V30 19593 H 1856.35 2.81918 2.34345 0
M  V30 19594 H 1856 1.91834 4.64982 0
M  V30 19595 H 1855.7 3.67322 4.58637 0
M  V30 19596 H 1857.23 3.05665 5.28584 0
M  V30 19597 H 1858.64 4.5096 3.53989 0
M  V30 19598 H 1857.04 5.15171 3.07765 0
M  V30 19599 H 1858.11 4.49129 1.82786 0
M  V30 19600 N 1859.45 -0.728395 1.39758 0
M  V30 19601 C 1860.4 -1.83374 1.35491 0
M  V30 19602 C 1861.38 -1.5918 0.234629 0
M  V30 19603 O 1862.58 -1.70571 0.472703 0
M  V30 19604 C 1859.7 -3.21373 1.20725 0
M  V30 19605 C 1858.79 -3.51373 2.37482 0
M  V30 19606 N 1859.18 -3.52269 3.6296 0
M  V30 19607 C 1857.48 -3.81769 2.30583 0
M  V30 19608 C 1858.18 -3.80252 4.40208 0
M  V30 19609 N 1857.16 -3.98359 3.6988 0
M  V30 19610 H 1860.96 -1.82381 2.30465 0
M  V30 19611 H 1858.47 -0.926941 1.33348 0
M  V30 19612 H 1860.47 -4.00509 1.15751 0
M  V30 19613 H 1859.13 -3.236 0.267072 0
M  V30 19614 H 1860.14 -3.33423 3.96295 0
M  V30 19615 H 1856.82 -3.91562 1.44862 0
M  V30 19616 H 1858.21 -3.87357 5.49003 0
M  V30 19617 N 1860.93 -1.25042 -0.959279 0
M  V30 19618 C 1862.34 -1.08692 -1.51799 0
M  V30 19619 C 1862.69 0.338893 -1.93251 0
M  V30 19620 O 1861.81 1.22831 -1.78162 0
M  V30 19621 C 1862.41 -1.9669 -2.7586 0
M  V30 19622 C 1860.97 -1.84538 -3.28059 0
M  V30 19623 C 1860.12 -1.91119 -2.0092 0
M  V30 19624 H 1863.07 -1.38396 -0.776669 0
M  V30 19625 H 1863.09 -1.50414 -3.49508 0
M  V30 19626 H 1862.6 -3.00455 -2.45659 0
M  V30 19627 H 1860.7 -0.836383 -3.63091 0
M  V30 19628 H 1860.81 -2.69095 -3.96389 0
M  V30 19629 H 1859.18 -1.34948 -2.16012 0
M  V30 19630 H 1859.96 -2.9648 -1.73074 0
M  V30 19631 N 1862.41 1.16121 -1.06553 0
M  V30 19632 C 1863.65 1.86346 -0.782279 0
M  V30 19633 C 1863.98 1.82255 0.693395 0
M  V30 19634 O 1863.25 1.2579 1.50179 0
M  V30 19635 H 1861.83 0.689921 -0.286388 0
M  V30 19636 H 1864.49 1.40805 -1.34758 0
M  V30 19637 H 1863.58 2.91712 -1.10954 0
M  V30 19638 N 1863.88 0.848487 1.3281 0
M  V30 19639 C 1864.85 0.293744 2.2731 0
M  V30 19640 C 1865.85 -0.543043 1.51353 0
M  V30 19641 O 1867.04 -0.355443 1.70535 0
M  V30 19642 C 1864.17 -0.585094 3.35841 0
M  V30 19643 H 1865.36 1.12773 2.77889 0
M  V30 19644 H 1862.92 0.622329 1.43376 0
M  V30 19645 H 1863.65 -1.44114 2.9052 0
M  V30 19646 H 1863.44 0.0137777 3.92098 0
M  V30 19647 H 1864.93 -0.966203 4.06269 0
M  V30 19648 N 1865.36 -1.4549 0.605832 0
M  V30 19649 C 1866.61 -2.01852 0.10014 0
M  V30 19650 C 1866.93 -1.47699 -1.27319 0
M  V30 19651 O 1866.2 -0.670571 -1.84066 0
M  V30 19652 H 1864.78 -0.746225 0.0340291 0
M  V30 19653 H 1867.44 -1.78311 0.786834 0
M  V30 19654 H 1866.54 -3.12062 0.0485925 0
M  V30 19655 N 1866.84 -0.344893 -1.5378 0
M  V30 19656 C 1867.79 0.511269 -2.25066 0
M  V30 19657 C 1868.76 1.09446 -1.24944 0
M  V30 19658 O 1869.94 1.13082 -1.53679 0
M  V30 19659 C 1867.08 1.65563 -3.02792 0
M  V30 19660 C 1866.2 1.09962 -4.17771 0
M  V30 19661 C 1865.33 2.21139 -4.82981 0
M  V30 19662 C 1864.37 1.62897 -5.90026 0
M  V30 19663 N 1863.51 2.67822 -6.49011 0
M  V30 19664 H 1868.35 -0.103166 -2.97821 0
M  V30 19665 H 1865.88 -0.0626846 -1.46966 0
M  V30 19666 H 1867.84 2.32936 -3.46117 0
M  V30 19667 H 1866.47 2.24103 -2.32331 0
M  V30 19668 H 1865.52 0.316786 -3.79079 0
M  V30 19669 H 1866.84 0.633622 -4.94759 0
M  V30 19670 H 1865.99 2.96375 -5.29383 0
M  V30 19671 H 1864.73 2.71083 -4.0542 0
M  V30 19672 H 1863.73 0.861672 -5.43006 0
M  V30 19673 H 1864.96 1.13803 -6.69497 0
M  V30 19674 H 1862.9 3.17018 -5.74313 0
M  V30 19675 H 1862.82 2.25848 -7.21477 0
M  V30 19676 H 1864.09 3.42822 -7.00066 0
M  V30 19677 N 1868.32 1.57428 -0.0735454 0
M  V30 19678 C 1869.55 1.97883 0.604148 0
M  V30 19679 C 1869.96 0.951968 1.63043 0
M  V30 19680 O 1869.32 -0.0611641 1.82397 0
M  V30 19681 C 1869.37 3.38414 1.27116 0
M  V30 19682 O 1869.09 4.37166 0.285951 0
M  V30 19683 C 1870.59 3.93753 2.03651 0
M  V30 19684 H 1867.81 0.650747 0.163613 0
M  V30 19685 H 1870.36 2.03975 -0.146466 0
M  V30 19686 H 1868.51 3.33403 1.97285 0
M  V30 19687 H 1868.92 5.18896 0.764698 0
M  V30 19688 H 1870.4 4.94298 2.45711 0
M  V30 19689 H 1870.88 3.30391 2.89376 0
M  V30 19690 H 1871.48 4.0217 1.38345 0
M  V30 19691 N 1869.8 -0.200022 1.56326 0
M  V30 19692 C 1870.74 -1.24792 1.94154 0
M  V30 19693 C 1871.71 -1.45484 0.801474 0
M  V30 19694 O 1872.9 -1.58699 1.05921 0
M  V30 19695 C 1870.04 -2.5887 2.28211 0
M  V30 19696 C 1869.15 -2.45798 3.55257 0
M  V30 19697 C 1868.29 -3.72546 3.78659 0
M  V30 19698 C 1867.33 -3.54286 4.99147 0
M  V30 19699 N 1866.46 -4.73034 5.18829 0
M  V30 19700 H 1871.3 -0.918324 2.83497 0
M  V30 19701 H 1868.84 -0.442097 1.40299 0
M  V30 19702 H 1870.8 -3.36977 2.45972 0
M  V30 19703 H 1869.43 -2.89883 1.42014 0
M  V30 19704 H 1868.48 -1.59013 3.4557 0
M  V30 19705 H 1869.79 -2.28236 4.4352 0
M  V30 19706 H 1868.95 -4.59094 3.96633 0
M  V30 19707 H 1867.68 -3.93057 2.88717 0
M  V30 19708 H 1866.69 -2.66123 4.81102 0
M  V30 19709 H 1867.91 -3.35225 5.90594 0
M  V30 19710 H 1865.86 -4.93818 4.31834 0
M  V30 19711 H 1865.78 -4.58279 6.01262 0
M  V30 19712 H 1867.05 -5.60947 5.41257 0
M  V30 19713 N 1871.27 -1.50505 -0.467553 0
M  V30 19714 C 1872.69 -1.38009 -0.801599 0
M  V30 19715 C 1872.89 -0.43893 -1.96661 0
M  V30 19716 O 1871.95 0.117139 -2.52228 0
M  V30 19717 C 1873.26 -2.79449 -1.11034 0
M  V30 19718 C 1874.81 -2.88389 -1.21659 0
M  V30 19719 C 1875.28 -4.3067 -1.55844 0
M  V30 19720 N 1876.77 -4.33637 -1.62829 0
M  V30 19721 C 1877.51 -5.40727 -1.90791 0
M  V30 19722 N 1877 -6.58021 -2.16751 0
M  V30 19723 N 1878.8 -5.28175 -1.92323 0
M  V30 19724 H 1870.95 -2.10268 0.300165 0
M  V30 19725 H 1873.21 -0.945278 0.0717853 0
M  V30 19726 H 1872.92 -3.50173 -0.327326 0
M  V30 19727 H 1872.79 -3.16911 -2.04566 0
M  V30 19728 H 1875.18 -2.17881 -1.99027 0
M  V30 19729 H 1875.26 -2.54465 -0.260984 0
M  V30 19730 H 1874.9 -5.01716 -0.79014 0
M  V30 19731 H 1874.83 -4.62083 -2.5256 0
M  V30 19732 H 1877.32 -3.49061 -1.44793 0
M  V30 19733 H 1877.64 -7.35442 -2.37371 0
M  V30 19734 H 1875.98 -6.61189 -2.14136 0
M  V30 19735 H 1879.17 -4.35536 -1.71541 0
M  V30 19736 H 1879.35 -6.11721 -2.13779 0
M  V30 19737 N 1872.75 0.720973 -1.40142 0
M  V30 19738 C 1873.98 1.50793 -1.41226 0
M  V30 19739 C 1874.39 1.89198 -0.00879422 0
M  V30 19740 O 1873.73 1.55606 0.976337 0
M  V30 19741 C 1873.8 2.81639 -2.23427 0
M  V30 19742 C 1873.46 2.65588 -3.71903 0
M  V30 19743 C 1874.46 2.33204 -4.64663 0
M  V30 19744 C 1872.14 2.82021 -4.15655 0
M  V30 19745 C 1874.14 2.17454 -5.9916 0
M  V30 19746 C 1871.82 2.65889 -5.50224 0
M  V30 19747 C 1872.82 2.33653 -6.41791 0
M  V30 19748 O 1872.51 2.17637 -7.73879 0
M  V30 19749 H 1872.24 0.472113 -0.483824 0
M  V30 19750 H 1874.79 0.89739 -1.84759 0
M  V30 19751 H 1873.02 3.45006 -1.74665 0
M  V30 19752 H 1874.71 3.43329 -2.16518 0
M  V30 19753 H 1875.48 2.20146 -4.32158 0
M  V30 19754 H 1871.36 3.06101 -3.44707 0
M  V30 19755 H 1874.9 1.92215 -6.70596 0
M  V30 19756 H 1870.8 2.78529 -5.82316 0
M  V30 19757 H 1871.57 2.32599 -7.84755 0
M  V30 19758 N 1874.23 1.25549 0.952634 0
M  V30 19759 C 1875.16 1.08592 2.06712 0
M  V30 19760 C 1876.14 -0.00560571 1.70099 0
M  V30 19761 O 1877.33 0.164299 1.93504 0
M  V30 19762 C 1874.46 0.705984 3.40049 0
M  V30 19763 C 1873.41 1.74797 3.90679 0
M  V30 19764 C 1872.74 1.22266 5.20533 0
M  V30 19765 C 1874.04 3.14717 4.16834 0
M  V30 19766 H 1875.73 2.01816 2.21157 0
M  V30 19767 H 1873.28 0.971723 1.06271 0
M  V30 19768 H 1875.23 0.57428 4.17469 0
M  V30 19769 H 1873.95 -0.261964 3.25548 0
M  V30 19770 H 1872.61 1.86815 3.1543 0
M  V30 19771 H 1872.26 0.244887 5.02404 0
M  V30 19772 H 1871.96 1.9191 5.55377 0
M  V30 19773 H 1873.48 1.10339 6.00548 0
M  V30 19774 H 1874.9 3.05842 4.84906 0
M  V30 19775 H 1873.3 3.81849 4.62938 0
M  V30 19776 H 1874.37 3.61629 3.23037 0
M  V30 19777 N 1875.71 -1.15554 1.07168 0
M  V30 19778 C 1877.12 -1.67889 0.816719 0
M  V30 19779 C 1877.47 -1.84821 -0.658442 0
M  V30 19780 O 1876.6 -1.55018 -1.50991 0
M  V30 19781 C 1877.19 -3.04959 1.47598 0
M  V30 19782 C 1875.75 -3.54378 1.26858 0
M  V30 19783 C 1874.9 -2.30148 1.54684 0
M  V30 19784 H 1877.85 -0.997938 1.23397 0
M  V30 19785 H 1877.87 -3.69796 0.89618 0
M  V30 19786 H 1877.38 -2.92603 2.54961 0
M  V30 19787 H 1875.48 -3.71979 0.215097 0
M  V30 19788 H 1875.59 -4.35932 1.98747 0
M  V30 19789 H 1873.96 -2.35597 0.967776 0
M  V30 19790 H 1874.74 -2.20381 2.63225 0
M  V30 19791 N 1877.19 -0.855519 -1.32358 0
M  V30 19792 C 1878.15 -0.305794 -2.27151 0
M  V30 19793 C 1879.15 0.535008 -1.51639 0
M  V30 19794 O 1880.34 0.346394 -1.70721 0
M  V30 19795 C 1877.47 0.567275 -3.36147 0
M  V30 19796 H 1878.67 -1.14245 -2.77287 0
M  V30 19797 H 1876.22 -0.629924 -1.43044 0
M  V30 19798 H 1876.95 1.42571 -2.9128 0
M  V30 19799 H 1876.74 -0.0345714 -3.92085 0
M  V30 19800 H 1878.23 0.944644 -4.06775 0
M  V30 19801 N 1878.67 1.45167 -0.61354 0
M  V30 19802 C 1879.91 2.01407 -0.10861 0
M  V30 19803 C 1880.23 1.48701 1.27072 0
M  V30 19804 O 1881.43 1.96956 1.8687 0
M  V30 19805 C 1879.89 3.59614 -0.143466 0
M  V30 19806 C 1879.5 4.21317 -1.52302 0
M  V30 19807 C 1881.24 4.23396 0.305912 0
M  V30 19808 C 1879.15 5.71694 -1.51393 0
M  V30 19809 H 1878.08 0.7531 -0.0368359 0
M  V30 19810 H 1880.73 1.66575 -0.769748 0
M  V30 19811 H 1879.11 3.91664 0.584438 0
M  V30 19812 H 1880.29 4.00832 -2.2731 0
M  V30 19813 H 1878.6 3.69753 -1.91499 0
M  V30 19814 H 1881.2 5.33668 0.331977 0
M  V30 19815 H 1881.54 3.9449 1.32978 0
M  V30 19816 H 1882.07 3.96086 -0.36892 0
M  V30 19817 H 1878.81 6.05308 -2.5156 0
M  V30 19818 H 1878.33 5.94353 -0.80652 0
M  V30 19819 H 1880.01 6.35003 -1.24017 0
M  V30 19820 N 1880.14 0.353044 1.53595 0
M  V30 19821 C 1881.39 -0.240904 2.01364 0
M  V30 19822 C 1881.72 -1.49438 1.24023 0
M  V30 19823 O 1881 -1.91672 0.330451 0
M  V30 19824 C 1881.28 -0.545497 3.55944 0
M  V30 19825 C 1881.13 0.720742 4.43988 0
M  V30 19826 C 1882.45 -1.35124 4.18843 0
M  V30 19827 H 1879.57 -0.0860838 0.731955 0
M  V30 19828 H 1882.21 0.475459 1.83955 0
M  V30 19829 H 1880.36 -1.15578 3.7091 0
M  V30 19830 H 1882.04 1.35852 4.40842 0
M  V30 19831 H 1880.28 1.34369 4.12465 0
M  V30 19832 H 1880.95 0.462749 5.50057 0
M  V30 19833 H 1883.43 -0.835104 4.07634 0
M  V30 19834 H 1882.3 -1.53311 5.27055 0
M  V30 19835 H 1882.56 -2.35612 3.74085 0
M  V30 19836 N 1881.62 -1.57387 0.0818932 0
M  V30 19837 C 1883.04 -1.57217 -0.274755 0
M  V30 19838 C 1883.24 -1.09207 -1.6934 0
M  V30 19839 O 1882.29 -0.762532 -2.40711 0
M  V30 19840 C 1883.61 -3.00606 -0.075209 0
M  V30 19841 C 1885.15 -3.12669 -0.143973 0
M  V30 19842 C 1885.63 -4.57992 0.0274161 0
M  V30 19843 N 1887.12 -4.63192 -0.0278563 0
M  V30 19844 C 1887.86 -5.73344 0.0801936 0
M  V30 19845 N 1887.35 -6.92376 0.242334 0
M  V30 19846 N 1889.14 -5.62096 0.0224057 0
M  V30 19847 H 1881.3 -1.86907 1.00894 0
M  V30 19848 H 1883.56 -0.8621 0.39432 0
M  V30 19849 H 1883.26 -3.39881 0.904105 0
M  V30 19850 H 1883.14 -3.68107 -0.823213 0
M  V30 19851 H 1885.53 -2.73274 -1.11378 0
M  V30 19852 H 1885.61 -2.47785 0.635303 0
M  V30 19853 H 1885.25 -4.98078 0.994034 0
M  V30 19854 H 1885.18 -5.2092 -0.77139 0
M  V30 19855 H 1887.67 -3.77598 -0.151172 0
M  V30 19856 H 1887.98 -7.72151 0.316652 0
M  V30 19857 H 1886.33 -6.94444 0.277829 0
M  V30 19858 H 1889.52 -4.67987 -0.103039 0
M  V30 19859 H 1889.69 -6.47907 0.110065 0
M  V30 19860 N 1883.1 0.191729 -1.56429 0
M  V30 19861 C 1884.01 1.25798 -1.9802 0
M  V30 19862 C 1885.03 1.49612 -0.888379 0
M  V30 19863 O 1886.2 1.62161 -1.1944 0
M  V30 19864 C 1883.27 2.58158 -2.3142 0
M  V30 19865 C 1882.33 2.42386 -3.54327 0
M  V30 19866 C 1881.56 3.68434 -3.86124 0
M  V30 19867 O 1881.78 4.72747 -3.19165 0
M  V30 19868 O 1880.72 3.63762 -4.79542 0
M  V30 19869 H 1884.54 0.935013 -2.88948 0
M  V30 19870 H 1882.13 0.396996 -1.44029 0
M  V30 19871 H 1884.01 3.36274 -2.53964 0
M  V30 19872 H 1882.69 2.90075 -1.43659 0
M  V30 19873 H 1881.59 1.62369 -3.37027 0
M  V30 19874 H 1882.93 2.154 -4.42565 0
M  V30 19875 N 1884.58 1.50751 0.459565 0
M  V30 19876 C 1885.54 1.69889 1.53852 0
M  V30 19877 C 1886.54 0.569308 1.50385 0
M  V30 19878 O 1887.73 0.836527 1.528 0
M  V30 19879 C 1884.86 1.73481 2.93457 0
M  V30 19880 H 1886.06 2.66162 1.38195 0
M  V30 19881 H 1883.61 1.40405 0.686741 0
M  V30 19882 H 1884.34 0.789426 3.14545 0
M  V30 19883 H 1884.13 2.55553 2.97381 0
M  V30 19884 H 1885.62 1.90202 3.7177 0
M  V30 19885 N 1886.06 -0.713531 1.40522 0
M  V30 19886 C 1887.3 -1.46899 1.38216 0
M  V30 19887 C 1887.62 -1.95596 -0.011831 0
M  V30 19888 O 1888.82 -2.71043 -0.157513 0
M  V30 19889 C 1887.28 -2.65544 2.42929 0
M  V30 19890 C 1886.89 -2.23707 3.88148 0
M  V30 19891 C 1888.63 -3.4327 2.49732 0
M  V30 19892 C 1886.54 -3.39203 4.84453 0
M  V30 19893 H 1885.47 -0.551718 0.513929 0
M  V30 19894 H 1888.12 -0.776357 1.66268 0
M  V30 19895 H 1886.5 -3.36987 2.0798 0
M  V30 19896 H 1887.68 -1.5967 4.32252 0
M  V30 19897 H 1885.99 -1.59021 3.84839 0
M  V30 19898 H 1888.59 -4.29215 3.18871 0
M  V30 19899 H 1888.93 -3.87225 1.52848 0
M  V30 19900 H 1889.46 -2.78871 2.83683 0
M  V30 19901 H 1886.2 -3.00278 5.82678 0
M  V30 19902 H 1885.72 -4.02149 4.45012 0
M  V30 19903 H 1887.4 -4.0524 5.04371 0
M  V30 19904 N 1887.53 -1.26053 -0.945962 0
M  V30 19905 C 1888.48 -1.07194 -2.04397 0
M  V30 19906 C 1889.45 0.0215796 -1.66086 0
M  V30 19907 O 1890.64 -0.137272 -1.90306 0
M  V30 19908 C 1887.78 -0.705915 -3.37803 0
M  V30 19909 C 1886.89 -1.87519 -3.89179 0
M  V30 19910 C 1886.02 -1.45272 -5.1095 0
M  V30 19911 C 1885.06 -2.59059 -5.54576 0
M  V30 19912 N 1884.2 -2.17527 -6.67552 0
M  V30 19913 H 1889.04 -2.01159 -2.19861 0
M  V30 19914 H 1886.58 -1.00162 -1.07731 0
M  V30 19915 H 1888.53 -0.474611 -4.14492 0
M  V30 19916 H 1887.16 0.196761 -3.222 0
M  V30 19917 H 1886.22 -2.21956 -3.08933 0
M  V30 19918 H 1887.53 -2.7294 -4.17499 0
M  V30 19919 H 1886.68 -1.18158 -5.95083 0
M  V30 19920 H 1885.42 -0.569345 -4.84365 0
M  V30 19921 H 1884.43 -2.86908 -4.69003 0
M  V30 19922 H 1885.65 -3.47989 -5.83164 0
M  V30 19923 H 1883.6 -1.31618 -6.42661 0
M  V30 19924 H 1883.51 -2.96493 -6.95433 0
M  V30 19925 H 1884.78 -1.93612 -7.55073 0
M  V30 19926 N 1889.01 1.14984 -1.07779 0
M  V30 19927 C 1890.43 1.3786 -0.804164 0
M  V30 19928 C 1890.63 1.92682 0.589572 0
M  V30 19929 O 1889.68 2.13537 1.34752 0
M  V30 19930 C 1891 2.34559 -1.88156 0
M  V30 19931 C 1892.54 2.48212 -1.90683 0
M  V30 19932 C 1893.02 3.48205 -2.97519 0
M  V30 19933 N 1894.51 3.55743 -2.96649 0
M  V30 19934 C 1895.25 4.32946 -3.75959 0
M  V30 19935 N 1894.74 5.13446 -4.65129 0
M  V30 19936 N 1896.53 4.28079 -3.64287 0
M  V30 19937 H 1888.69 0.777434 -1.97661 0
M  V30 19938 H 1890.95 0.404419 -0.857409 0
M  V30 19939 H 1890.65 2.014 -2.88324 0
M  V30 19940 H 1890.53 3.34389 -1.74539 0
M  V30 19941 H 1892.92 2.80665 -0.911642 0
M  V30 19942 H 1893 1.48365 -2.08378 0
M  V30 19943 H 1892.64 3.16485 -3.9724 0
M  V30 19944 H 1892.57 4.47817 -2.77069 0
M  V30 19945 H 1895.06 2.98291 -2.32014 0
M  V30 19946 H 1895.37 5.69612 -5.22267 0
M  V30 19947 H 1893.72 5.12737 -4.69176 0
M  V30 19948 H 1896.91 3.64257 -2.93997 0
M  V30 19949 H 1897.08 4.87996 -4.26337 0
M  V30 19950 N 1890.49 0.862526 1.31902 0
M  V30 19951 C 1891.74 0.468847 1.96586 0
M  V30 19952 C 1892.06 -0.980535 1.68554 0
M  V30 19953 O 1891.33 -1.68635 0.996952 0
M  V30 19954 H 1889.91 0.170387 0.727308 0
M  V30 19955 H 1892.57 1.10068 1.60845 0
M  V30 19956 H 1891.67 0.620415 3.05871 0
M  V30 19957 N 1891.97 -1.4484 0.62123 0
M  V30 19958 C 1892.9 -2.33374 -0.0766286 0
M  V30 19959 C 1893.88 -1.47631 -0.844932 0
M  V30 19960 O 1895.06 -1.76373 -0.81278 0
M  V30 19961 C 1892.19 -3.30552 -1.0655 0
M  V30 19962 C 1891.15 -4.26037 -0.409496 0
M  V30 19963 C 1890.47 -5.13007 -1.50757 0
M  V30 19964 C 1891.77 -5.17881 0.677994 0
M  V30 19965 H 1893.47 -2.91975 0.662658 0
M  V30 19966 H 1891.01 -1.40397 0.320117 0
M  V30 19967 H 1892.97 -3.91367 -1.56237 0
M  V30 19968 H 1891.69 -2.70139 -1.83555 0
M  V30 19969 H 1890.35 -3.66539 0.0666321 0
M  V30 19970 H 1890 -4.48954 -2.26825 0
M  V30 19971 H 1889.7 -5.777 -1.07407 0
M  V30 19972 H 1891.22 -5.76692 -2.00645 0
M  V30 19973 H 1892.64 -5.72689 0.264637 0
M  V30 19974 H 1891.03 -5.91124 1.03405 0
M  V30 19975 H 1892.1 -4.59488 1.54914 0
M  V30 19976 N 1893.45 -0.361184 -1.53405 0
M  V30 19977 C 1894.86 -0.00994785 -1.59597 0
M  V30 19978 C 1895.06 1.47156 -1.37649 0
M  V30 19979 O 1894.12 2.23259 -1.17947 0
M  V30 19980 C 1895.43 -0.461942 -2.97131 0
M  V30 19981 C 1896.98 -0.415787 -3.10226 0
M  V30 19982 C 1897.45 -0.843524 -4.50165 0
M  V30 19983 N 1898.95 -0.798408 -4.56267 0
M  V30 19984 C 1899.68 -1.10112 -5.62728 0
M  V30 19985 N 1899.18 -1.47288 -6.76962 0
M  V30 19986 N 1900.97 -1.0242 -5.5269 0
M  V30 19987 H 1893.12 -1.32601 -1.65924 0
M  V30 19988 H 1895.38 -0.541705 -0.777985 0
M  V30 19989 H 1895.09 -1.49559 -3.18316 0
M  V30 19990 H 1894.96 0.15373 -3.76887 0
M  V30 19991 H 1897.35 0.608719 -2.88754 0
M  V30 19992 H 1897.43 -1.0669 -2.32489 0
M  V30 19993 H 1897.08 -1.86612 -4.72375 0
M  V30 19994 H 1897.01 -0.16971 -5.26326 0
M  V30 19995 H 1899.5 -0.524463 -3.74243 0
M  V30 19996 H 1899.81 -1.68824 -7.54134 0
M  V30 19997 H 1898.15 -1.51149 -6.78365 0
M  V30 19998 H 1901.35 -0.732979 -4.62326 0
M  V30 19999 H 1901.52 -1.26344 -6.35564 0
M  V30 20000 N 1894.92 1.57341 -0.0902386 0
M  V30 20001 C 1896.15 1.98513 0.583126 0
M  V30 20002 C 1896.57 0.969208 1.62024 0
M  V30 20003 O 1895.92 -0.041815 1.82452 0
M  V30 20004 C 1895.98 3.39743 1.2352 0
M  V30 20005 O 1895.7 4.37444 0.239568 0
M  V30 20006 C 1897.2 3.9589 1.99463 0
M  V30 20007 H 1894.42 0.652446 0.156701 0
M  V30 20008 H 1896.96 2.03808 -0.168092 0
M  V30 20009 H 1895.12 3.35477 1.93738 0
M  V30 20010 H 1895.53 5.19677 0.709619 0
M  V30 20011 H 1897 4.96876 2.40454 0
M  V30 20012 H 1897.48 3.33441 2.85856 0
M  V30 20013 H 1898.09 4.03615 1.34072 0
M  V30 20014 N 1896.4 -0.183431 1.56529 0
M  V30 20015 C 1897.33 -1.22973 1.98494 0
M  V30 20016 C 1898.31 -1.46837 0.858653 0
M  V30 20017 O 1899.5 -1.58377 1.12385 0
M  V30 20018 C 1896.63 -2.57138 2.33446 0
M  V30 20019 C 1895.58 -2.47865 3.48922 0
M  V30 20020 C 1894.91 -3.8641 3.69582 0
M  V30 20021 C 1896.21 -1.99371 4.82751 0
M  V30 20022 H 1897.9 -0.880938 2.86147 0
M  V30 20023 H 1895.45 -0.422321 1.37668 0
M  V30 20024 H 1897.4 -3.30527 2.614 0
M  V30 20025 H 1896.13 -2.93781 1.42689 0
M  V30 20026 H 1894.78 -1.76932 3.21077 0
M  V30 20027 H 1894.43 -4.20426 2.76136 0
M  V30 20028 H 1894.13 -3.81077 4.47274 0
M  V30 20029 H 1895.66 -4.61403 3.99924 0
M  V30 20030 H 1897.07 -2.62526 5.0966 0
M  V30 20031 H 1895.47 -2.05014 5.63994 0
M  V30 20032 H 1896.54 -0.947442 4.75554 0
M  V30 20033 N 1897.88 -1.50992 -0.451564 0
M  V30 20034 C 1899.13 -1.62192 -1.19903 0
M  V30 20035 C 1899.44 -0.337085 -1.92674 0
M  V30 20036 O 1900.65 -0.328248 -2.69508 0
M  V30 20037 C 1899.1 -2.8638 -2.17978 0
M  V30 20038 C 1898.71 -4.21814 -1.50921 0
M  V30 20039 C 1900.46 -3.06932 -2.93246 0
M  V30 20040 C 1898.36 -5.37168 -2.47396 0
M  V30 20041 H 1897.29 -0.60406 -0.451251 0
M  V30 20042 H 1899.94 -1.77445 -0.467482 0
M  V30 20043 H 1898.33 -2.64728 -2.94508 0
M  V30 20044 H 1899.5 -4.53794 -0.800466 0
M  V30 20045 H 1897.82 -4.07025 -0.878604 0
M  V30 20046 H 1900.41 -3.90286 -3.65487 0
M  V30 20047 H 1900.76 -2.19437 -3.5377 0
M  V30 20048 H 1901.29 -3.28857 -2.23826 0
M  V30 20049 H 1898.03 -6.26878 -1.91582 0
M  V30 20050 H 1897.55 -5.09581 -3.16365 0
M  V30 20051 H 1899.23 -5.68539 -3.08824 0
M  V30 20052 N 1899.36 0.706069 -1.40899 0
M  V30 20053 C 1900.29 1.83275 -1.44681 0
M  V30 20054 C 1901.27 1.67313 -0.306629 0
M  V30 20055 O 1902.45 1.87203 -0.516597 0
M  V30 20056 C 1899.58 3.21319 -1.318 0
M  V30 20057 C 1898.54 3.51969 -2.4352 0
M  V30 20058 C 1897.86 4.89258 -2.1571 0
M  V30 20059 C 1899.16 3.52004 -3.85864 0
M  V30 20060 H 1900.86 1.80367 -2.38973 0
M  V30 20061 H 1898.4 0.866349 -1.15023 0
M  V30 20062 H 1900.36 3.99841 -1.3306 0
M  V30 20063 H 1899.08 3.24827 -0.339879 0
M  V30 20064 H 1897.74 2.75792 -2.41525 0
M  V30 20065 H 1897.39 4.89378 -1.16266 0
M  V30 20066 H 1897.09 5.1073 -2.90566 0
M  V30 20067 H 1898.61 5.70102 -2.18669 0
M  V30 20068 H 1900.03 4.20548 -3.8963 0
M  V30 20069 H 1898.42 3.85005 -4.60316 0
M  V30 20070 H 1899.49 2.51191 -4.14766 0
M  V30 20071 N 1900.84 1.26553 0.939264 0
M  V30 20072 C 1901.8 1.08335 2.01981 0
M  V30 20073 C 1902.8 0.0310501 1.6077 0
M  V30 20074 O 1903.99 0.274627 1.72022 0
M  V30 20075 C 1901.12 0.648208 3.34681 0
M  V30 20076 H 1902.31 2.04272 2.19574 0
M  V30 20077 H 1899.87 1.09177 1.11849 0
M  V30 20078 H 1900.6 -0.313074 3.22785 0
M  V30 20079 H 1900.39 1.40806 3.65946 0
M  V30 20080 H 1901.88 0.54264 4.14059 0
M  V30 20081 N 1902.31 -1.14411 1.08387 0
M  V30 20082 C 1903.73 -1.67013 0.83448 0
M  V30 20083 C 1904.08 -1.85509 -0.638802 0
M  V30 20084 O 1903.2 -1.56611 -1.49338 0
M  V30 20085 C 1903.8 -3.03377 1.50825 0
M  V30 20086 C 1902.36 -3.53013 1.3061 0
M  V30 20087 C 1901.5 -2.28494 1.57117 0
M  V30 20088 H 1904.45 -0.984794 1.24449 0
M  V30 20089 H 1904.47 -3.68824 0.935352 0
M  V30 20090 H 1903.99 -2.89883 2.5805 0
M  V30 20091 H 1902.09 -3.7173 0.254538 0
M  V30 20092 H 1902.2 -4.33799 2.0336 0
M  V30 20093 H 1900.56 -2.34558 0.99271 0
M  V30 20094 H 1901.35 -2.17576 2.65547 0
M  V30 20095 N 1903.79 -0.869509 -1.31443 0
M  V30 20096 C 1905.02 -0.494667 -2.009 0
M  V30 20097 C 1905.44 0.912728 -1.65272 0
M  V30 20098 O 1904.79 1.59788 -0.881702 0
M  V30 20099 C 1904.84 -0.641585 -3.55761 0
M  V30 20100 O 1904.56 -1.99356 -3.90114 0
M  V30 20101 C 1906.07 -0.267695 -4.42491 0
M  V30 20102 H 1903.29 -0.192789 -0.642708 0
M  V30 20103 H 1905.83 -1.17055 -1.67686 0
M  V30 20104 H 1903.98 -0.0132632 -3.87398 0
M  V30 20105 H 1904.4 -2.00099 -4.8483 0
M  V30 20106 H 1905.87 -0.421448 -5.50389 0
M  V30 20107 H 1906.35 0.793108 -4.3198 0
M  V30 20108 H 1906.96 -0.871698 -4.16271 0
M  V30 20109 N 1905.27 1.44508 -0.628902 0
M  V30 20110 C 1906.69 1.56863 -0.294332 0
M  V30 20111 C 1906.89 1.6168 1.20257 0
M  V30 20112 O 1905.94 1.55862 1.98653 0
M  V30 20113 C 1907.26 2.84134 -0.984291 0
M  V30 20114 C 1908.8 2.97843 -0.962223 0
M  V30 20115 C 1909.28 4.27914 -1.6326 0
M  V30 20116 N 1910.77 4.34722 -1.59909 0
M  V30 20117 C 1911.5 5.34081 -2.08675 0
M  V30 20118 N 1911 6.39857 -2.65623 0
M  V30 20119 N 1912.79 5.25575 -1.99317 0
M  V30 20120 H 1904.94 1.39624 -1.60059 0
M  V30 20121 H 1907.21 0.66894 -0.671731 0
M  V30 20122 H 1906.91 2.86551 -2.03915 0
M  V30 20123 H 1906.79 3.73589 -0.520679 0
M  V30 20124 H 1909.17 2.9498 0.0841512 0
M  V30 20125 H 1909.26 2.09742 -1.4643 0
M  V30 20126 H 1908.9 4.31536 -2.67842 0
M  V30 20127 H 1908.83 5.14868 -1.10537 0
M  V30 20128 H 1911.32 3.58896 -1.18329 0
M  V30 20129 H 1911.63 7.11952 -3.00572 0
M  V30 20130 H 1909.98 6.40548 -2.69672 0
M  V30 20131 H 1913.17 4.4185 -1.54551 0
M  V30 20132 H 1913.34 6.02855 -2.37634 0
M  V30 20133 N 1906.75 0.369315 1.53212 0
M  V30 20134 C 1908 -0.219533 2.01608 0
M  V30 20135 C 1908.33 -1.48115 1.25601 0
M  V30 20136 O 1907.6 -1.91311 0.350762 0
M  V30 20137 C 1907.89 -0.507713 3.56503 0
M  V30 20138 C 1907.74 0.767792 4.43199 0
M  V30 20139 C 1909.06 -1.30674 4.20253 0
M  V30 20140 H 1906.18 -0.0783156 0.732827 0
M  V30 20141 H 1908.82 0.494943 1.8344 0
M  V30 20142 H 1906.97 -1.11637 3.72115 0
M  V30 20143 H 1908.64 1.4052 4.39377 0
M  V30 20144 H 1906.88 1.38737 4.11017 0
M  V30 20145 H 1907.56 0.521063 5.49535 0
M  V30 20146 H 1910.03 -0.791822 4.08497 0
M  V30 20147 H 1908.91 -1.47712 5.28652 0
M  V30 20148 H 1909.17 -2.31631 3.76562 0
M  V30 20149 N 1908.23 -1.57291 0.0985816 0
M  V30 20150 C 1909.47 -1.94767 -0.56514 0
M  V30 20151 C 1909.81 -0.980722 -1.67617 0
M  V30 20152 O 1909.08 -0.0143714 -1.94495 0
M  V30 20153 C 1909.36 -3.42336 -1.11704 0
M  V30 20154 C 1909.22 -4.49799 -0.0108284 0
M  V30 20155 C 1910.54 -3.91296 -2.01434 0
M  V30 20156 H 1907.66 -0.708215 -0.203963 0
M  V30 20157 H 1910.3 -1.89238 0.169998 0
M  V30 20158 H 1908.45 -3.47179 -1.74354 0
M  V30 20159 H 1910.12 -4.57066 0.623574 0
M  V30 20160 H 1908.36 -4.28825 0.655093 0
M  V30 20161 H 1909.03 -5.50261 -0.437868 0
M  V30 20162 H 1911.51 -3.88628 -1.48685 0
M  V30 20163 H 1910.39 -4.9511 -2.36975 0
M  V30 20164 H 1910.65 -3.30792 -2.93307 0
M  V30 20165 N 1909.71 0.175127 -1.56624 0
M  V30 20166 C 1910.67 1.20064 -1.95237 0
M  V30 20167 C 1911.67 1.37384 -0.835603 0
M  V30 20168 O 1912.86 1.34855 -1.10272 0
M  V30 20169 C 1909.99 2.5664 -2.24386 0
M  V30 20170 H 1911.18 0.870066 -2.87001 0
M  V30 20171 H 1908.74 0.41743 -1.50623 0
M  V30 20172 H 1909.47 2.94717 -1.35322 0
M  V30 20173 H 1909.26 2.45436 -3.05784 0
M  V30 20174 H 1910.75 3.30554 -2.55194 0
M  V30 20175 N 1911.18 1.5123 0.44355 0
M  V30 20176 C 1912.15 1.71511 1.52041 0
M  V30 20177 C 1913.15 0.585226 1.49772 0
M  V30 20178 O 1914.34 0.852687 1.51904 0
M  V30 20179 C 1911.47 1.76583 2.91601 0
M  V30 20180 H 1912.66 2.67613 1.35364 0
M  V30 20181 H 1910.21 1.41125 0.671811 0
M  V30 20182 H 1910.95 0.822743 3.1369 0
M  V30 20183 H 1910.73 2.58693 2.94653 0
M  V30 20184 H 1912.22 1.94135 3.69732 0
M  V30 20185 N 1912.66 -0.698586 1.41271 0
M  V30 20186 C 1913.57 -1.8424 1.45234 0
M  V30 20187 C 1914.59 -1.70581 0.343225 0
M  V30 20188 O 1915.76 -1.9255 0.590477 0
M  V30 20189 C 1912.83 -3.20195 1.32951 0
M  V30 20190 C 1911.89 -3.45984 2.54152 0
M  V30 20191 C 1911.12 -4.75453 2.42446 0
M  V30 20192 O 1911.35 -5.5173 1.44741 0
M  V30 20193 O 1910.28 -5.01958 3.32147 0
M  V30 20194 H 1914.11 -1.83853 2.41727 0
M  V30 20195 H 1911.69 -0.851252 1.22776 0
M  V30 20196 H 1913.57 -4.0137 1.28374 0
M  V30 20197 H 1912.25 -3.21272 0.395728 0
M  V30 20198 H 1911.15 -2.64751 2.64306 0
M  V30 20199 H 1912.49 -3.49718 3.46349 0
M  V30 20200 N 1914.14 -1.27049 -0.93254 0
M  V30 20201 C 1915.07 -1.03677 -2.03289 0
M  V30 20202 C 1916.05 0.0412728 -1.62548 0
M  V30 20203 O 1917.23 -0.102897 -1.88219 0
M  V30 20204 C 1914.36 -0.571733 -3.3384 0
M  V30 20205 C 1913.41 -1.64362 -3.93557 0
M  V30 20206 S 1914.24 -3.23486 -4.26752 0
M  V30 20207 C 1915.4 -2.78772 -5.6039 0
M  V30 20208 H 1915.63 -1.96842 -2.22802 0
M  V30 20209 H 1913.16 -1.10826 -1.07503 0
M  V30 20210 H 1915.12 -0.310101 -4.09327 0
M  V30 20211 H 1913.78 0.339773 -3.12257 0
M  V30 20212 H 1912.97 -1.26944 -4.87751 0
M  V30 20213 H 1912.58 -1.85708 -3.24636 0
M  V30 20214 H 1914.87 -2.23774 -6.39478 0
M  V30 20215 H 1915.81 -3.71692 -6.02703 0
M  V30 20216 H 1916.22 -2.18065 -5.2068 0
M  V30 20217 N 1915.62 1.13835 -1.08993 0
M  V30 20218 C 1916.53 2.22715 -0.73724 0
M  V30 20219 C 1917.54 1.72064 0.258869 0
M  V30 20220 O 1918.72 2.01145 0.101321 0
M  V30 20221 C 1915.78 3.46338 -0.158285 0
M  V30 20222 C 1914.85 4.11902 -1.20977 0
M  V30 20223 C 1914.08 5.29624 -0.658349 0
M  V30 20224 O 1914.3 5.68023 0.520219 0
M  V30 20225 O 1913.24 5.85121 -1.41126 0
M  V30 20226 H 1917.06 2.55247 -1.64568 0
M  V30 20227 H 1914.65 1.21882 -0.864013 0
M  V30 20228 H 1916.53 4.2109 0.161481 0
M  V30 20229 H 1915.2 3.15517 0.723235 0
M  V30 20230 H 1914.11 3.38996 -1.58216 0
M  V30 20231 H 1915.44 4.46843 -2.06378 0
M  V30 20232 N 1917.1 0.876467 1.3098 0
M  V30 20233 C 1918.01 0.340667 2.32113 0
M  V30 20234 C 1919.02 -0.552749 1.64987 0
M  V30 20235 O 1920.2 -0.447909 1.96356 0
M  V30 20236 C 1917.26 -0.443504 3.43852 0
M  V30 20237 C 1916.32 0.478646 4.26623 0
M  V30 20238 C 1915.56 -0.268194 5.33026 0
M  V30 20239 O 1915.78 -1.49543 5.50448 0
M  V30 20240 O 1914.71 0.377306 6.00716 0
M  V30 20241 H 1918.54 1.1791 2.79877 0
M  V30 20242 H 1916.12 0.640037 1.34996 0
M  V30 20243 H 1918.01 -0.887816 4.11941 0
M  V30 20244 H 1916.68 -1.25838 2.98239 0
M  V30 20245 H 1915.59 0.971593 3.61263 0
M  V30 20246 H 1916.92 1.25929 4.75818 0
M  V30 20247 N 1918.57 -1.44173 0.636557 0
M  V30 20248 C 1919.54 -2.29133 -0.0554994 0
M  V30 20249 C 1920.54 -1.41329 -0.766986 0
M  V30 20250 O 1921.73 -1.63142 -0.610753 0
M  V30 20251 C 1918.86 -3.23031 -1.08922 0
M  V30 20252 H 1920.05 -2.91811 0.691829 0
M  V30 20253 H 1917.6 -1.51175 0.396956 0
M  V30 20254 H 1918.34 -2.65213 -1.86635 0
M  V30 20255 H 1918.12 -3.87743 -0.58291 0
M  V30 20256 H 1919.61 -3.8684 -1.57304 0
M  V30 20257 N 1920.05 -0.377435 -1.53014 0
M  V30 20258 C 1920.98 0.455103 -2.29022 0
M  V30 20259 C 1921.96 1.07375 -1.31926 0
M  V30 20260 O 1923.15 1.08877 -1.60809 0
M  V30 20261 C 1920.28 1.58883 -3.08826 0
M  V30 20262 C 1919.23 1.09683 -4.13707 0
M  V30 20263 C 1918.56 2.32172 -4.81664 0
M  V30 20264 C 1919.86 0.173165 -5.22013 0
M  V30 20265 H 1921.55 -0.179053 -2.98864 0
M  V30 20266 H 1919.1 -0.0875549 -1.43734 0
M  V30 20267 H 1921.05 2.17798 -3.60752 0
M  V30 20268 H 1919.77 2.2504 -2.36695 0
M  V30 20269 H 1918.43 0.530291 -3.62744 0
M  V30 20270 H 1918.08 2.96811 -4.06094 0
M  V30 20271 H 1917.78 1.99919 -5.52545 0
M  V30 20272 H 1919.31 2.91751 -5.3639 0
M  V30 20273 H 1920.72 0.670145 -5.6937 0
M  V30 20274 H 1919.12 -0.0590463 -6.00071 0
M  V30 20275 H 1920.19 -0.781339 -4.78564 0
M  V30 20276 N 1921.53 1.57237 -0.106922 0
M  V30 20277 C 1922.95 1.57634 0.249708 0
M  V30 20278 C 1923.15 1.11888 1.67581 0
M  V30 20279 O 1922.2 0.80073 2.39467 0
M  V30 20280 C 1923.52 3.00688 0.0273757 0
M  V30 20281 C 1925.06 3.12858 0.0942116 0
M  V30 20282 C 1925.54 4.5789 -0.100275 0
M  V30 20283 N 1927.03 4.63177 -0.045837 0
M  V30 20284 C 1927.76 5.73144 -0.171398 0
M  V30 20285 N 1927.26 6.91903 -0.352455 0
M  V30 20286 N 1929.05 5.61989 -0.111827 0
M  V30 20287 H 1921.2 1.85278 -1.03855 0
M  V30 20288 H 1923.47 0.855717 -0.407985 0
M  V30 20289 H 1923.17 3.38399 -0.958063 0
M  V30 20290 H 1923.05 3.6937 0.764546 0
M  V30 20291 H 1925.43 2.75012 1.07016 0
M  V30 20292 H 1925.52 2.46743 -0.674643 0
M  V30 20293 H 1925.16 4.96433 -1.07315 0
M  V30 20294 H 1925.09 5.22081 0.688418 0
M  V30 20295 H 1927.58 3.7779 0.0910806 0
M  V30 20296 H 1927.89 7.7155 -0.439454 0
M  V30 20297 H 1926.24 6.93915 -0.388274 0
M  V30 20298 H 1929.43 4.68091 0.0285732 0
M  V30 20299 H 1929.6 6.47649 -0.213127 0
M  V30 20300 N 1923.01 -0.166818 1.56715 0
M  V30 20301 C 1924.26 -0.880972 1.81888 0
M  V30 20302 C 1924.58 -1.82586 0.68465 0
M  V30 20303 O 1923.85 -1.93663 -0.295173 0
M  V30 20304 H 1922.43 -0.32831 0.670985 0
M  V30 20305 H 1925.09 -0.165558 1.94196 0
M  V30 20306 H 1924.19 -1.45517 2.761 0
M  V30 20307 N 1924.49 -1.51463 -0.435524 0
M  V30 20308 C 1925.42 -1.75856 -1.53613 0
M  V30 20309 C 1926.4 -0.608449 -1.58846 0
M  V30 20310 O 1927.58 -0.85135 -1.74544 0
M  V30 20311 C 1924.71 -1.88525 -2.91677 0
M  V30 20312 C 1923.67 -3.03972 -3.01305 0
M  V30 20313 C 1922.99 -3.01828 -4.41366 0
M  V30 20314 C 1924.29 -4.43905 -2.75219 0
M  V30 20315 H 1925.99 -2.68013 -1.33452 0
M  V30 20316 H 1923.53 -1.28968 -0.640564 0
M  V30 20317 H 1925.49 -2.04173 -3.68634 0
M  V30 20318 H 1924.21 -0.930179 -3.13074 0
M  V30 20319 H 1922.87 -2.88033 -2.26788 0
M  V30 20320 H 1922.52 -2.04095 -4.59733 0
M  V30 20321 H 1922.22 -3.79353 -4.48737 0
M  V30 20322 H 1923.74 -3.19572 -5.20294 0
M  V30 20323 H 1925.15 -4.60187 -3.41908 0
M  V30 20324 H 1923.55 -5.2315 -2.93998 0
M  V30 20325 H 1924.62 -4.53818 -1.70814 0
M  V30 20326 N 1925.96 0.691085 -1.4164 0
M  V30 20327 C 1927.38 1.27116 -1.36742 0
M  V30 20328 C 1927.73 1.96129 -0.0526953 0
M  V30 20329 O 1926.85 1.99052 0.848953 0
M  V30 20330 C 1927.45 2.31171 -2.4768 0
M  V30 20331 C 1926.01 2.84744 -2.46166 0
M  V30 20332 C 1925.15 1.58841 -2.27299 0
M  V30 20333 H 1928.1 0.485541 -1.5109 0
M  V30 20334 H 1928.12 3.12559 -2.16996 0
M  V30 20335 H 1927.64 1.80913 -3.43354 0
M  V30 20336 H 1925.74 3.39167 -1.54262 0
M  V30 20337 H 1925.85 3.34869 -3.42636 0
M  V30 20338 H 1924.21 1.84815 -1.75258 0
M  V30 20339 H 1925 1.10573 -3.25005 0
M  V30 20340 N 1927.44 1.27542 0.925789 0
M  V30 20341 C 1928.69 1.13375 1.6682 0
M  V30 20342 C 1929 -0.319507 1.92973 0
M  V30 20343 O 1930.21 -0.582109 2.65186 0
M  V30 20344 C 1928.67 1.98111 3.00466 0
M  V30 20345 C 1928.27 3.48105 2.82005 0
M  V30 20346 C 1930.02 1.92597 3.78294 0
M  V30 20347 C 1927.93 4.25034 4.11218 0
M  V30 20348 H 1926.86 0.420697 0.625724 0
M  V30 20349 H 1929.51 1.51978 1.02835 0
M  V30 20350 H 1927.89 1.52354 3.65519 0
M  V30 20351 H 1929.06 4.01737 2.25707 0
M  V30 20352 H 1927.38 3.55018 2.17604 0
M  V30 20353 H 1929.97 2.47348 4.74049 0
M  V30 20354 H 1930.32 0.900028 4.06454 0
M  V30 20355 H 1930.85 2.3626 3.20041 0
M  V30 20356 H 1927.59 5.2816 3.88236 0
M  V30 20357 H 1927.11 3.76178 4.67173 0
M  V30 20358 H 1928.79 4.3431 4.79566 0
M  V30 20359 N 1928.92 -1.13255 1.09595 0
M  V30 20360 C 1930.34 -1.36563 0.825994 0
M  V30 20361 C 1930.54 -1.93595 -0.558844 0
M  V30 20362 O 1929.59 -2.15654 -1.31338 0
M  V30 20363 C 1930.91 -2.31535 1.91864 0
M  V30 20364 C 1932.45 -2.45147 1.94607 0
M  V30 20365 C 1932.93 -3.43427 3.03021 0
M  V30 20366 N 1934.42 -3.50979 3.02271 0
M  V30 20367 C 1935.15 -4.2691 3.82799 0
M  V30 20368 N 1934.65 -5.05981 4.73239 0
M  V30 20369 N 1936.44 -4.22229 3.71051 0
M  V30 20370 H 1928.59 -0.745889 1.98872 0
M  V30 20371 H 1930.86 -0.390727 0.863734 0
M  V30 20372 H 1930.56 -1.96788 2.91492 0
M  V30 20373 H 1930.44 -3.3157 1.79837 0
M  V30 20374 H 1932.82 -2.7918 0.956178 0
M  V30 20375 H 1932.91 -1.45031 2.10712 0
M  V30 20376 H 1932.55 -3.10126 4.02225 0
M  V30 20377 H 1932.48 -4.43352 2.84159 0
M  V30 20378 H 1934.97 -2.94562 2.36731 0
M  V30 20379 H 1935.28 -5.61231 5.31262 0
M  V30 20380 H 1933.63 -5.05208 4.77274 0
M  V30 20381 H 1936.82 -3.59534 2.99755 0
M  V30 20382 H 1936.99 -4.81152 4.34047 0
M  V30 20383 N 1930.4 -0.883401 -1.30514 0
M  V30 20384 C 1931.63 -0.515199 -2.00073 0
M  V30 20385 C 1932.04 0.900374 -1.66403 0
M  V30 20386 O 1931.38 1.60339 -0.896503 0
M  V30 20387 C 1931.44 -0.608317 -3.54316 0
M  V30 20388 C 1931.11 -1.98792 -4.11498 0
M  V30 20389 C 1932.1 -2.95712 -4.2761 0
M  V30 20390 C 1929.79 -2.29288 -4.46914 0
M  V30 20391 C 1931.78 -4.21264 -4.78347 0
M  V30 20392 C 1929.47 -3.55086 -4.9735 0
M  V30 20393 C 1930.47 -4.50888 -5.13019 0
M  V30 20394 O 1930.15 -5.74455 -5.62367 0
M  V30 20395 H 1929.89 -0.197853 -0.646398 0
M  V30 20396 H 1932.44 -1.19015 -1.67405 0
M  V30 20397 H 1930.67 0.123606 -3.86502 0
M  V30 20398 H 1932.36 -0.251619 -4.05119 0
M  V30 20399 H 1933.13 -2.73463 -4.00553 0
M  V30 20400 H 1929 -1.55488 -4.33987 0
M  V30 20401 H 1932.55 -4.96048 -4.90492 0
M  V30 20402 H 1928.45 -3.77172 -5.23843 0
M  V30 20403 H 1929.21 -5.76814 -5.80713 0
M  V30 20404 N 1931.88 1.43833 -0.644194 0
M  V30 20405 C 1932.81 2.29017 0.0914574 0
M  V30 20406 C 1933.82 1.4201 0.79605 0
M  V30 20407 O 1935.01 1.66036 0.655313 0
M  V30 20408 C 1932.11 3.18711 1.15225 0
M  V30 20409 C 1931.28 4.34206 0.527588 0
M  V30 20410 C 1930.34 5.04839 1.48406 0
M  V30 20411 O 1929.37 5.60416 0.996143 0
M  V30 20412 N 1930.57 5.075 2.81822 0
M  V30 20413 H 1933.34 2.92794 -0.639656 0
M  V30 20414 H 1930.9 1.54424 -0.486308 0
M  V30 20415 H 1932.89 3.62827 1.79272 0
M  V30 20416 H 1931.46 2.56595 1.78543 0
M  V30 20417 H 1930.68 3.93119 -0.291782 0
M  V30 20418 H 1931.97 5.08718 0.091139 0
M  V30 20419 H 1931.36 4.63703 3.24031 0
M  V30 20420 H 1929.92 5.55364 3.41195 0
M  V30 20421 N 1933.35 0.385544 1.52811 0
M  V30 20422 C 1934.58 -0.198025 2.0595 0
M  V30 20423 C 1935 -1.40822 1.25756 0
M  V30 20424 O 1934.35 -1.79963 0.303251 0
M  V30 20425 C 1934.41 -0.571856 3.56948 0
M  V30 20426 O 1934.13 0.59026 4.34105 0
M  V30 20427 C 1935.63 -1.21169 4.26419 0
M  V30 20428 H 1932.85 -0.0307594 0.670295 0
M  V30 20429 H 1935.39 0.549688 1.96974 0
M  V30 20430 H 1933.55 -1.26947 3.6601 0
M  V30 20431 H 1933.96 0.28384 5.23731 0
M  V30 20432 H 1935.43 -1.42366 5.33325 0
M  V30 20433 H 1935.91 -2.17794 3.81395 0
M  V30 20434 H 1936.52 -0.554949 4.21664 0
M  V30 20435 N 1934.83 -1.57178 0.115259 0
M  V30 20436 C 1936.24 -1.82126 -0.410715 0
M  V30 20437 C 1936.59 -1.03219 -1.66854 0
M  V30 20438 O 1935.72 -0.267639 -2.14739 0
M  V30 20439 C 1936.31 -3.30351 -0.751923 0
M  V30 20440 C 1934.87 -3.55993 -1.22255 0
M  V30 20441 C 1934.02 -2.7635 -0.229344 0
M  V30 20442 H 1936.97 -1.55005 0.340441 0
M  V30 20443 H 1936.99 -3.44775 -1.60968 0
M  V30 20444 H 1936.5 -3.87754 0.163726 0
M  V30 20445 H 1934.61 -3.03942 -2.15522 0
M  V30 20446 H 1934.72 -4.64583 -1.17046 0
M  V30 20447 H 1933.08 -2.4444 -0.715621 0
M  V30 20448 H 1933.87 -3.36511 0.679337 0
M  V30 20449 N 1936.31 0.158505 -1.56801 0
M  V30 20450 C 1937.27 1.17986 -1.96499 0
M  V30 20451 C 1938.27 1.3649 -0.850127 0
M  V30 20452 O 1939.46 1.33678 -1.11696 0
M  V30 20453 C 1936.6 2.54245 -2.27095 0
M  V30 20454 H 1937.79 0.839577 -2.87908 0
M  V30 20455 H 1935.34 0.401431 -1.51057 0
M  V30 20456 H 1936.08 2.93266 -1.38441 0
M  V30 20457 H 1935.86 2.42179 -3.0837 0
M  V30 20458 H 1937.35 3.27829 -2.58686 0
M  V30 20459 N 1937.79 1.51692 0.427485 0
M  V30 20460 C 1939.04 1.64079 1.17308 0
M  V30 20461 C 1939.35 0.367695 1.92113 0
M  V30 20462 O 1940.56 0.371083 2.68952 0
M  V30 20463 C 1939.01 2.89812 2.13394 0
M  V30 20464 C 1938.62 4.24161 1.44191 0
M  V30 20465 C 1940.37 3.11559 2.88325 0
M  V30 20466 C 1938.27 5.41036 2.38819 0
M  V30 20467 H 1937.2 0.611162 0.441584 0
M  V30 20468 H 1939.85 1.78167 0.439193 0
M  V30 20469 H 1938.24 2.6938 2.90259 0
M  V30 20470 H 1939.41 4.5501 0.72817 0
M  V30 20471 H 1937.72 4.08371 0.813739 0
M  V30 20472 H 1940.32 3.96051 3.59232 0
M  V30 20473 H 1940.66 2.25037 3.50234 0
M  V30 20474 H 1941.2 3.32376 2.18565 0
M  V30 20475 H 1937.94 6.29847 1.81585 0
M  V30 20476 H 1937.46 5.1455 3.08218 0
M  V30 20477 H 1939.14 5.73381 2.9974 0
M  V30 20478 N 1939.27 -0.683564 1.42004 0
M  V30 20479 C 1940.68 -0.99563 1.24737 0
M  V30 20480 C 1940.88 -2.00976 0.145285 0
M  V30 20481 O 1939.94 -2.47771 -0.486376 0
M  V30 20482 C 1941.25 -1.50879 2.60108 0
M  V30 20483 C 1942.8 -1.62701 2.6739 0
M  V30 20484 C 1943.28 -2.17416 4.03106 0
M  V30 20485 N 1944.77 -2.24761 4.05015 0
M  V30 20486 C 1945.5 -2.68151 5.06836 0
M  V30 20487 N 1945 -3.11059 6.19043 0
M  V30 20488 N 1946.79 -2.67822 4.94194 0
M  V30 20489 H 1938.94 -0.011962 2.12397 0
M  V30 20490 H 1941.2 -0.0678489 0.945569 0
M  V30 20491 H 1940.91 -0.838159 3.41567 0
M  V30 20492 H 1940.78 -2.48899 2.83424 0
M  V30 20493 H 1943.17 -2.28873 1.86282 0
M  V30 20494 H 1943.25 -0.631947 2.47871 0
M  V30 20495 H 1942.9 -1.51856 4.84667 0
M  V30 20496 H 1942.83 -3.17698 4.19971 0
M  V30 20497 H 1945.32 -1.94497 3.24005 0
M  V30 20498 H 1945.63 -3.42828 6.92596 0
M  V30 20499 H 1943.98 -3.08937 6.22561 0
M  V30 20500 H 1947.17 -2.33658 4.05613 0
M  V30 20501 H 1947.34 -3.01318 5.73682 0
M  V30 20502 N 1940.75 -1.28031 -0.919012 0
M  V30 20503 C 1941.71 -1.11534 -2.00232 0
M  V30 20504 C 1942.71 -0.0566233 -1.607 0
M  V30 20505 O 1943.9 -0.30196 -1.71563 0
M  V30 20506 C 1941.03 -0.701371 -3.33607 0
M  V30 20507 H 1942.22 -2.0774 -2.16297 0
M  V30 20508 H 1939.78 -1.10942 -1.10098 0
M  V30 20509 H 1940.51 0.261682 -3.23243 0
M  V30 20510 H 1940.3 -1.4661 -3.63659 0
M  V30 20511 H 1941.79 -0.608444 -4.13144 0
M  V30 20512 N 1942.22 1.12672 -1.10194 0
M  V30 20513 C 1943.13 2.2192 -0.76082 0
M  V30 20514 C 1944.15 1.72328 0.240604 0
M  V30 20515 O 1945.33 2.01241 0.0799808 0
M  V30 20516 C 1942.39 3.46151 -0.19501 0
M  V30 20517 C 1941.45 4.10595 -1.25339 0
M  V30 20518 C 1940.68 5.28896 -0.714485 0
M  V30 20519 O 1940.91 5.68543 0.459943 0
M  V30 20520 O 1939.84 5.83592 -1.47324 0
M  V30 20521 H 1943.67 2.53487 -1.67266 0
M  V30 20522 H 1941.25 1.20959 -0.876892 0
M  V30 20523 H 1943.13 4.21238 0.116809 0
M  V30 20524 H 1941.81 3.16266 0.689729 0
M  V30 20525 H 1940.72 3.37299 -1.61803 0
M  V30 20526 H 1942.05 4.44629 -2.11106 0
M  V30 20527 N 1943.7 0.89031 1.30043 0
M  V30 20528 C 1944.65 0.332451 2.25563 0
M  V30 20529 C 1945.64 -0.542139 1.51491 0
M  V30 20530 O 1946.83 -0.38569 1.72747 0
M  V30 20531 C 1943.96 -0.447303 3.40373 0
M  V30 20532 C 1943.04 0.441676 4.21794 0
M  V30 20533 N 1943.43 1.54459 4.81639 0
M  V30 20534 C 1941.73 0.237754 4.45366 0
M  V30 20535 C 1942.43 2.09448 5.42685 0
M  V30 20536 N 1941.41 1.38873 5.25562 0
M  V30 20537 H 1945.21 1.17511 2.69385 0
M  V30 20538 H 1942.72 0.74031 1.44545 0
M  V30 20539 H 1944.72 -0.863632 4.07857 0
M  V30 20540 H 1943.38 -1.28733 2.9809 0
M  V30 20541 H 1944.39 1.92741 4.80699 0
M  V30 20542 H 1941.07 -0.564672 4.13664 0
M  V30 20543 H 1942.46 3.02096 6.00156 0
M  V30 20544 N 1945.18 -1.43489 0.651812 0
M  V30 20545 C 1946.41 -2.06181 0.172334 0
M  V30 20546 C 1946.82 -1.48848 -1.16145 0
M  V30 20547 O 1946.18 -0.619246 -1.71673 0
M  V30 20548 C 1946.23 -3.61425 0.0737039 0
M  V30 20549 O 1945.95 -4.16627 1.35476 0
M  V30 20550 C 1947.45 -4.4119 -0.432019 0
M  V30 20551 H 1944.67 -0.665039 0.0892394 0
M  V30 20552 H 1947.22 -1.84018 0.892063 0
M  V30 20553 H 1945.37 -3.82779 -0.596577 0
M  V30 20554 H 1945.79 -5.1028 1.21305 0
M  V30 20555 H 1947.26 -5.50163 -0.449989 0
M  V30 20556 H 1947.74 -4.14115 -1.46306 0
M  V30 20557 H 1948.34 -4.24802 0.205721 0
M  V30 20558 N 1946.66 -0.393643 -1.52605 0
M  V30 20559 C 1947.91 0.186784 -2.01235 0
M  V30 20560 C 1948.23 1.46956 -1.28175 0
M  V30 20561 O 1947.5 1.91708 -0.403088 0
M  V30 20562 H 1946.08 0.0720137 -0.743521 0
M  V30 20563 H 1948.74 -0.52633 -1.87659 0
M  V30 20564 H 1947.83 0.393921 -3.09604 0
M  V30 20565 N 1948.14 1.57115 -0.123593 0
M  V30 20566 C 1949.55 1.5789 0.232975 0
M  V30 20567 C 1949.75 1.13659 1.66385 0
M  V30 20568 O 1948.81 0.826084 2.38604 0
M  V30 20569 C 1950.12 3.007 -0.0045178 0
M  V30 20570 C 1951.67 3.12941 0.0610235 0
M  V30 20571 C 1952.14 4.57758 -0.148835 0
M  V30 20572 N 1953.63 4.63103 -0.0949606 0
M  V30 20573 C 1954.37 5.7293 -0.232177 0
M  V30 20574 N 1953.87 6.9149 -0.42582 0
M  V30 20575 N 1955.66 5.61839 -0.171428 0
M  V30 20576 H 1947.81 1.84166 -1.05814 0
M  V30 20577 H 1950.07 0.851342 -0.417038 0
M  V30 20578 H 1949.78 3.37364 -0.993901 0
M  V30 20579 H 1949.65 3.70161 0.725327 0
M  V30 20580 H 1952.04 2.76131 1.04094 0
M  V30 20581 H 1952.12 2.46014 -0.700776 0
M  V30 20582 H 1951.76 4.95267 -1.12574 0
M  V30 20583 H 1951.69 5.22782 0.633006 0
M  V30 20584 H 1954.19 3.77866 0.0510058 0
M  V30 20585 H 1954.5 7.7104 -0.521263 0
M  V30 20586 H 1952.84 6.93464 -0.461851 0
M  V30 20587 H 1956.03 4.68095 -0.0210758 0
M  V30 20588 H 1956.21 6.47387 -0.281807 0
M  V30 20589 N 1949.61 -0.150187 1.56883 0
M  V30 20590 C 1950.52 -1.20504 2.01286 0
M  V30 20591 C 1951.54 -1.47204 0.927733 0
M  V30 20592 O 1952.72 -1.58937 1.23697 0
M  V30 20593 C 1949.78 -2.51932 2.38184 0
M  V30 20594 C 1948.84 -2.32906 3.60629 0
M  V30 20595 C 1948.07 -3.58067 3.95757 0
M  V30 20596 O 1948.3 -4.64119 3.31587 0
M  V30 20597 O 1947.23 -3.5092 4.89018 0
M  V30 20598 H 1951.06 -0.858075 2.91326 0
M  V30 20599 H 1948.64 -0.358669 1.45031 0
M  V30 20600 H 1950.52 -3.29423 2.6279 0
M  V30 20601 H 1949.2 -2.86165 1.513 0
M  V30 20602 H 1948.11 -1.53377 3.41213 0
M  V30 20603 H 1949.44 -2.0359 4.4812 0
M  V30 20604 N 1951.09 -1.51916 -0.419434 0
M  V30 20605 C 1952.34 -1.64698 -1.16436 0
M  V30 20606 C 1952.65 -0.377878 -1.91915 0
M  V30 20607 O 1953.86 -0.385341 -2.68752 0
M  V30 20608 C 1952.32 -2.90939 -2.11854 0
M  V30 20609 C 1951.92 -4.2492 -1.4194 0
M  V30 20610 C 1953.67 -3.13083 -2.86669 0
M  V30 20611 C 1951.58 -5.42294 -2.35946 0
M  V30 20612 H 1950.51 -0.613496 -0.438337 0
M  V30 20613 H 1953.16 -1.78397 -0.429738 0
M  V30 20614 H 1951.54 -2.70916 -2.88826 0
M  V30 20615 H 1952.71 -4.5539 -0.70403 0
M  V30 20616 H 1951.03 -4.08797 -0.792071 0
M  V30 20617 H 1953.62 -3.97951 -3.57127 0
M  V30 20618 H 1953.97 -2.26891 -3.49036 0
M  V30 20619 H 1954.5 -3.33531 -2.168 0
M  V30 20620 H 1951.24 -6.30801 -1.78242 0
M  V30 20621 H 1950.76 -5.16177 -3.05485 0
M  V30 20622 H 1952.44 -5.74962 -2.96695 0
M  V30 20623 N 1952.57 0.676023 -1.42365 0
M  V30 20624 C 1953.82 1.43821 -1.4298 0
M  V30 20625 C 1954.15 1.94147 -0.0455702 0
M  V30 20626 O 1953.42 1.70826 0.929976 0
M  V30 20627 C 1953.71 2.63612 -2.45318 0
M  V30 20628 C 1953.56 2.18926 -3.92927 0
M  V30 20629 C 1954.88 3.65827 -2.4466 0
M  V30 20630 H 1952 0.521622 -0.520653 0
M  V30 20631 H 1954.64 0.76837 -1.7377 0
M  V30 20632 H 1952.79 3.2076 -2.19193 0
M  V30 20633 H 1954.46 1.66955 -4.30028 0
M  V30 20634 H 1952.71 1.50512 -4.06852 0
M  V30 20635 H 1953.38 3.04965 -4.60109 0
M  V30 20636 H 1955.85 3.18393 -2.6789 0
M  V30 20637 H 1954.73 4.47226 -3.18245 0
M  V30 20638 H 1954.99 4.1687 -1.47213 0
M  V30 20639 N 1954.05 1.28517 0.912209 0
M  V30 20640 C 1955.33 1.0646 1.6409 0
M  V30 20641 C 1955.71 -0.395521 2.07362 0
M  V30 20642 O 1955.05 -1.3819 1.81978 0
M  V30 20643 C 1955.26 2.04064 2.83123 0
M  V30 20644 C 1956.61 2.34295 3.54106 0
M  V30 20645 O 1957.64 2.0216 2.93274 0
M  V30 20646 O 1956.49 2.89146 4.63742 0
M  V30 20647 H 1953.59 0.406984 0.719926 0
M  V30 20648 H 1956.13 1.39841 0.961378 0
M  V30 20649 H 1954.91 3.02467 2.48253 0
M  V30 20650 H 1954.53 1.71338 3.58788 0
M  V30 20651 N 1955.53 -1.12086 1.1079 0
M  V30 20652 C 1956.46 -2.2001 0.78217 0
M  V30 20653 C 1957.44 -1.68305 -0.246488 0
M  V30 20654 O 1958.62 -1.9388 -0.111448 0
M  V30 20655 C 1955.75 -3.4662 0.2172 0
M  V30 20656 C 1954.71 -4.11499 1.17696 0
M  V30 20657 C 1954.03 -5.32604 0.47302 0
M  V30 20658 C 1955.33 -4.5721 2.52501 0
M  V30 20659 H 1957.03 -2.47514 1.68456 0
M  V30 20660 H 1954.57 -1.18964 0.811397 0
M  V30 20661 H 1956.53 -4.21394 -0.0228381 0
M  V30 20662 H 1955.25 -3.18555 -0.720448 0
M  V30 20663 H 1953.91 -3.38711 1.40252 0
M  V30 20664 H 1953.56 -5.00807 -0.469217 0
M  V30 20665 H 1953.26 -5.76961 1.11308 0
M  V30 20666 H 1954.78 -6.10122 0.241615 0
M  V30 20667 H 1956.19 -5.23338 2.34073 0
M  V30 20668 H 1954.59 -5.12357 3.12426 0
M  V30 20669 H 1955.66 -3.71003 3.12226 0
M  V30 20670 N 1957 -0.897194 -1.29569 0
M  V30 20671 C 1957.94 -0.317616 -2.25979 0
M  V30 20672 C 1958.92 0.568783 -1.52327 0
M  V30 20673 O 1960.1 0.516152 -1.81296 0
M  V30 20674 C 1957.23 0.547511 -3.34245 0
M  V30 20675 C 1956.27 -0.271227 -4.25637 0
M  V30 20676 S 1957.11 -1.6674 -5.08879 0
M  V30 20677 C 1958.26 -0.809125 -6.20648 0
M  V30 20678 H 1958.49 -1.1348 -2.7479 0
M  V30 20679 H 1956.03 -0.697379 -1.37753 0
M  V30 20680 H 1957.99 1.04088 -3.97084 0
M  V30 20681 H 1956.65 1.33891 -2.84134 0
M  V30 20682 H 1955.84 0.389522 -5.02493 0
M  V30 20683 H 1955.44 -0.697651 -3.67435 0
M  V30 20684 H 1957.73 -0.0314136 -6.77493 0
M  V30 20685 H 1958.68 -1.54968 -6.90934 0
M  V30 20686 H 1959.08 -0.36462 -5.63321 0
M  V30 20687 N 1958.48 1.43142 -0.659413 0
M  V30 20688 C 1959.72 2.03615 -0.179015 0
M  V30 20689 C 1960.09 1.50933 1.18673 0
M  V30 20690 O 1961.29 2.03091 1.76089 0
M  V30 20691 C 1959.56 3.56866 -0.195375 0
M  V30 20692 S 1961.12 4.38267 0.216271 0
M  V30 20693 H 1957.94 0.707032 -0.0750079 0
M  V30 20694 H 1960.54 1.75118 -0.869132 0
M  V30 20695 H 1959.24 3.92708 -1.19199 0
M  V30 20696 H 1958.77 3.90013 0.515078 0
M  V30 20697 H 1960.79 4.74431 1.4536 0
M  V30 20698 N 1959.96 0.40173 1.52394 0
M  V30 20699 C 1960.91 -0.444585 2.23623 0
M  V30 20700 C 1961.89 -1.01953 1.24477 0
M  V30 20701 O 1963.09 -0.943572 1.49752 0
M  V30 20702 C 1960.22 -1.5647 3.05568 0
M  V30 20703 C 1959.3 -1.00089 4.1212 0
M  V30 20704 N 1959.69 -0.163095 5.05537 0
M  V30 20705 C 1957.99 -1.27214 4.27472 0
M  V30 20706 C 1958.69 0.149768 5.81507 0
M  V30 20707 N 1957.67 -0.457445 5.41672 0
M  V30 20708 H 1961.47 0.201895 2.93206 0
M  V30 20709 H 1958.98 0.211732 1.61014 0
M  V30 20710 H 1960.98 -2.18353 3.55145 0
M  V30 20711 H 1959.64 -2.21388 2.37524 0
M  V30 20712 H 1960.65 0.200633 5.17511 0
M  V30 20713 H 1957.33 -1.92145 3.70657 0
M  V30 20714 H 1958.72 0.829351 6.66762 0
M  V30 20715 N 1961.44 -1.57047 0.131923 0
M  V30 20716 C 1962.4 -2.14813 -0.799243 0
M  V30 20717 C 1963.4 -1.08616 -1.18572 0
M  V30 20718 O 1964.59 -1.3433 -1.10911 0
M  V30 20719 C 1961.72 -2.69894 -2.08255 0
M  V30 20720 H 1962.92 -2.98426 -0.296996 0
M  V30 20721 H 1960.47 -1.55858 -0.117418 0
M  V30 20722 H 1961.2 -1.89905 -2.62881 0
M  V30 20723 H 1960.99 -3.47574 -1.81479 0
M  V30 20724 H 1962.48 -3.14451 -2.74792 0
M  V30 20725 N 1962.92 0.141865 -1.5696 0
M  V30 20726 C 1964.14 0.868403 -1.87793 0
M  V30 20727 C 1964.56 1.74504 -0.720691 0
M  V30 20728 O 1963.92 1.79859 0.309372 0
M  V30 20729 C 1963.97 1.72086 -3.17913 0
M  V30 20730 O 1963.69 0.879548 -4.2918 0
M  V30 20731 C 1965.19 2.55454 -3.62296 0
M  V30 20732 H 1962.41 0.250842 -0.62235 0
M  V30 20733 H 1964.95 0.133113 -2.04066 0
M  V30 20734 H 1963.11 2.40915 -3.03379 0
M  V30 20735 H 1963.52 1.4653 -5.03616 0
M  V30 20736 H 1965 3.10834 -4.56165 0
M  V30 20737 H 1965.47 3.31735 -2.87834 0
M  V30 20738 H 1966.08 1.91906 -3.79542 0
M  V30 20739 N 1964.39 1.52136 0.411372 0
M  V30 20740 C 1965.64 1.66085 1.15853 0
M  V30 20741 C 1965.97 0.38968 1.90556 0
M  V30 20742 O 1965.22 -0.62727 1.85375 0
M  V30 20743 C 1965.52 2.832 2.1802 0
M  V30 20744 C 1965.19 4.21504 1.6014 0
M  V30 20745 C 1963.85 4.59124 1.4408 0
M  V30 20746 C 1966.2 5.07702 1.17848 0
M  V30 20747 C 1963.53 5.80621 0.842405 0
M  V30 20748 C 1965.88 6.29802 0.594283 0
M  V30 20749 C 1964.55 6.66172 0.420791 0
M  V30 20750 H 1963.82 0.607749 0.423937 0
M  V30 20751 H 1966.46 1.86233 0.446046 0
M  V30 20752 H 1964.77 2.57378 2.95405 0
M  V30 20753 H 1966.47 2.91189 2.75699 0
M  V30 20754 H 1963.06 3.91858 1.73623 0
M  V30 20755 H 1967.24 4.79224 1.29066 0
M  V30 20756 H 1962.5 6.07426 0.695983 0
M  V30 20757 H 1966.67 6.95921 0.258177 0
M  V30 20758 H 1964.3 7.60187 -0.044991 0
M  V30 20759 N 1965.87 -0.668464 1.42721 0
M  V30 20760 C 1967.1 -1.45659 1.46939 0
M  V30 20761 C 1967.52 -1.88619 0.0826133 0
M  V30 20762 O 1966.87 -1.58537 -0.904 0
M  V30 20763 C 1966.92 -2.70158 2.40202 0
M  V30 20764 O 1966.65 -2.28999 3.73485 0
M  V30 20765 C 1968.15 -3.63662 2.53505 0
M  V30 20766 H 1965.37 -0.447982 0.499553 0
M  V30 20767 H 1967.91 -0.820826 1.87304 0
M  V30 20768 H 1966.07 -3.29909 2.03074 0
M  V30 20769 H 1966.48 -3.09441 4.23493 0
M  V30 20770 H 1967.95 -4.47726 3.22871 0
M  V30 20771 H 1968.43 -4.09989 1.57498 0
M  V30 20772 H 1969.04 -3.09801 2.91382 0
M  V30 20773 N 1967.35 -1.28999 -0.905381 0
M  V30 20774 C 1968.28 -1.07966 -2.01044 0
M  V30 20775 C 1969.26 0.00678474 -1.62599 0
M  V30 20776 O 1970.45 -0.142798 -1.87958 0
M  V30 20777 C 1967.57 -0.642417 -3.32552 0
M  V30 20778 C 1966.62 -1.72673 -3.89982 0
M  V30 20779 S 1967.45 -3.32466 -4.19794 0
M  V30 20780 C 1968.61 -2.90596 -5.54351 0
M  V30 20781 H 1968.84 -2.01523 -2.18576 0
M  V30 20782 H 1966.37 -1.13081 -1.05128 0
M  V30 20783 H 1968.33 -0.396855 -4.08577 0
M  V30 20784 H 1966.99 0.273463 -3.12907 0
M  V30 20785 H 1966.19 -1.37261 -4.84949 0
M  V30 20786 H 1965.79 -1.92552 -3.20624 0
M  V30 20787 H 1968.08 -2.37288 -6.34587 0
M  V30 20788 H 1969.02 -3.84392 -5.94683 0
M  V30 20789 H 1969.43 -2.2906 -5.15938 0
M  V30 20790 N 1968.83 1.11497 -1.11383 0
M  V30 20791 C 1970.25 1.35232 -0.847616 0
M  V30 20792 C 1970.45 1.9446 0.527973 0
M  V30 20793 O 1969.5 2.17716 1.2789 0
M  V30 20794 C 1970.81 2.28454 -1.95523 0
M  V30 20795 C 1972.36 2.4202 -1.98483 0
M  V30 20796 C 1972.84 3.38563 -3.08446 0
M  V30 20797 N 1974.33 3.46126 -3.07817 0
M  V30 20798 C 1975.06 4.20766 -3.89542 0
M  V30 20799 N 1974.56 4.98388 -4.81229 0
M  V30 20800 N 1976.35 4.16272 -3.77722 0
M  V30 20801 H 1968.5 0.714156 -2.00034 0
M  V30 20802 H 1970.77 0.376936 -0.869841 0
M  V30 20803 H 1970.47 1.92126 -2.94586 0
M  V30 20804 H 1970.35 3.28667 -1.85089 0
M  V30 20805 H 1972.73 2.77623 -1.00047 0
M  V30 20806 H 1972.81 1.4166 -2.12993 0
M  V30 20807 H 1972.46 3.03687 -4.07107 0
M  V30 20808 H 1972.39 4.38776 -2.91176 0
M  V30 20809 H 1974.88 2.90759 -2.41387 0
M  V30 20810 H 1975.19 5.52708 -5.40124 0
M  V30 20811 H 1973.54 4.97551 -4.85251 0
M  V30 20812 H 1976.73 3.54719 -3.05437 0
M  V30 20813 H 1976.9 4.74186 -4.41647 0
M  V30 20814 N 1970.31 0.904053 1.29092 0
M  V30 20815 C 1971.24 0.401805 2.30017 0
M  V30 20816 C 1972.22 -0.525477 1.6178 0
M  V30 20817 O 1973.4 -0.435279 1.89259 0
M  V30 20818 C 1970.53 -0.367656 3.45348 0
M  V30 20819 C 1969.49 0.469596 4.25416 0
M  V30 20820 C 1968.81 -0.427624 5.32987 0
M  V30 20821 C 1970.11 1.7218 4.93104 0
M  V30 20822 H 1971.81 1.24523 2.72276 0
M  V30 20823 H 1969.35 0.600215 1.30895 0
M  V30 20824 H 1971.31 -0.729791 4.15033 0
M  V30 20825 H 1970.03 -1.2449 3.01944 0
M  V30 20826 H 1968.69 0.814119 3.57446 0
M  V30 20827 H 1968.34 -1.30313 4.85827 0
M  V30 20828 H 1968.04 0.128909 5.87459 0
M  V30 20829 H 1969.56 -0.785855 6.05522 0
M  V30 20830 H 1970.98 1.42914 5.55201 0
M  V30 20831 H 1969.37 2.21999 5.57527 0
M  V30 20832 H 1970.44 2.45526 4.18145 0
M  V30 20833 N 1971.79 -1.4279 0.666995 0
M  V30 20834 C 1972.72 -2.335 -0.00234362 0
M  V30 20835 C 1973.7 -1.50244 -0.797537 0
M  V30 20836 O 1974.88 -1.7887 -0.756257 0
M  V30 20837 C 1972.01 -3.33774 -0.959795 0
M  V30 20838 C 1970.97 -4.27124 -0.273749 0
M  V30 20839 C 1970.29 -5.17544 -1.3436 0
M  V30 20840 C 1971.59 -5.15462 0.842411 0
M  V30 20841 H 1973.29 -2.89719 0.755212 0
M  V30 20842 H 1970.83 -1.39307 0.364622 0
M  V30 20843 H 1972.78 -3.96139 -1.43707 0
M  V30 20844 H 1971.51 -2.75842 -1.74868 0
M  V30 20845 H 1970.17 -3.66142 0.18321 0
M  V30 20846 H 1969.82 -4.55943 -2.12427 0
M  V30 20847 H 1969.52 -5.80825 -0.889738 0
M  V30 20848 H 1971.04 -5.82784 -1.82196 0
M  V30 20849 H 1972.45 -5.71557 0.4467 0
M  V30 20850 H 1970.85 -5.87535 1.22158 0
M  V30 20851 H 1971.92 -4.54327 1.69454 0
M  V30 20852 N 1973.26 -0.409806 -1.52179 0
M  V30 20853 C 1974.49 0.167702 -2.06721 0
M  V30 20854 C 1974.91 1.38034 -1.27782 0
M  V30 20855 O 1974.27 1.7866 -0.308244 0
M  V30 20856 C 1974.32 0.495862 -3.57174 0
M  V30 20857 O 1973.42 1.58675 -3.80652 0
M  V30 20858 H 1972.76 0.013908 -0.663854 0
M  V30 20859 H 1975.29 -0.583201 -1.96112 0
M  V30 20860 H 1975.3 0.754301 -4.00967 0
M  V30 20861 H 1973.98 -0.390588 -4.14062 0
M  V30 20862 H 1972.56 1.32042 -3.48739 0
M  V30 20863 N 1974.74 1.56975 -0.14025 0
M  V30 20864 C 1976.15 1.82757 0.381688 0
M  V30 20865 C 1976.5 1.0586 1.65191 0
M  V30 20866 O 1975.63 0.301768 2.14286 0
M  V30 20867 C 1976.22 3.31505 0.699272 0
M  V30 20868 C 1974.78 3.57892 1.16576 0
M  V30 20869 C 1973.93 2.7668 0.185351 0
M  V30 20870 H 1976.88 1.54444 -0.365058 0
M  V30 20871 H 1976.9 3.47292 1.55462 0
M  V30 20872 H 1976.41 3.87445 -0.225394 0
M  V30 20873 H 1974.51 3.07332 2.1066 0
M  V30 20874 H 1974.63 4.66386 1.0964 0
M  V30 20875 H 1972.99 2.45548 0.676642 0
M  V30 20876 H 1973.77 3.35388 -0.732787 0
M  V30 20877 N 1976.22 -0.133539 1.57033 0
M  V30 20878 C 1977.47 -0.842358 1.83268 0
M  V30 20879 C 1977.78 -1.81722 0.723634 0
M  V30 20880 O 1978.99 -2.57117 0.871969 0
M  V30 20881 C 1977.44 -1.54868 3.24875 0
M  V30 20882 C 1977.05 -0.615546 4.43751 0
M  V30 20883 C 1978.8 -2.24349 3.60372 0
M  V30 20884 C 1976.7 -1.32426 5.76383 0
M  V30 20885 H 1975.63 -0.318314 0.683515 0
M  V30 20886 H 1978.28 -0.0950741 1.83254 0
M  V30 20887 H 1976.67 -2.34207 3.19316 0
M  V30 20888 H 1977.84 0.143586 4.60576 0
M  V30 20889 H 1976.15 -0.0284595 4.1639 0
M  V30 20890 H 1978.75 -2.78037 4.56727 0
M  V30 20891 H 1979.09 -3.01473 2.87088 0
M  V30 20892 H 1979.63 -1.51914 3.67651 0
M  V30 20893 H 1976.37 -0.594603 6.52798 0
M  V30 20894 H 1975.89 -2.05577 5.6347 0
M  V30 20895 H 1977.57 -1.86148 6.19643 0
M  V30 20896 N 1977.7 -1.52352 -0.403298 0
M  V30 20897 C 1979.11 -1.41285 -0.742343 0
M  V30 20898 C 1979.31 -0.521946 -1.94623 0
M  V30 20899 O 1978.37 0.0100547 -2.52498 0
M  V30 20900 C 1979.68 -2.83907 -0.990819 0
M  V30 20901 C 1981.23 -2.93289 -1.09318 0
M  V30 20902 C 1981.71 -4.36892 -1.37437 0
M  V30 20903 N 1983.2 -4.40153 -1.4429 0
M  V30 20904 C 1983.93 -5.48333 -1.67686 0
M  V30 20905 N 1983.43 -6.66622 -1.88647 0
M  V30 20906 N 1985.22 -5.35856 -1.69748 0
M  V30 20907 H 1977.37 -2.08806 0.389077 0
M  V30 20908 H 1979.63 -0.941383 0.111813 0
M  V30 20909 H 1979.34 -3.51247 -0.178511 0
M  V30 20910 H 1979.21 -3.25302 -1.9094 0
M  V30 20911 H 1981.6 -2.26127 -1.89607 0
M  V30 20912 H 1981.68 -2.55343 -0.152822 0
M  V30 20913 H 1981.33 -5.04616 -0.576634 0
M  V30 20914 H 1981.26 -4.72379 -2.32734 0
M  V30 20915 H 1983.75 -3.54888 -1.29857 0
M  V30 20916 H 1984.06 -7.44848 -2.05965 0
M  V30 20917 H 1982.41 -6.69676 -1.859 0
M  V30 20918 H 1985.6 -4.42419 -1.52914 0
M  V30 20919 H 1985.77 -6.20237 -1.87642 0
M  V30 20920 N 1979.18 0.660885 -1.43074 0
M  V30 20921 C 1980.42 1.42296 -1.44498 0
M  V30 20922 C 1980.75 1.94087 -0.0661594 0
M  V30 20923 O 1980.03 1.71803 0.911806 0
M  V30 20924 C 1980.31 2.60995 -2.481 0
M  V30 20925 C 1980.17 2.14746 -3.95227 0
M  V30 20926 C 1981.48 3.63212 -2.48526 0
M  V30 20927 H 1978.6 0.516071 -0.526156 0
M  V30 20928 H 1981.25 0.749896 -1.74575 0
M  V30 20929 H 1979.4 3.18417 -2.22583 0
M  V30 20930 H 1981.07 1.62384 -4.31774 0
M  V30 20931 H 1979.31 1.46188 -4.08426 0
M  V30 20932 H 1979.98 3.00068 -4.63318 0
M  V30 20933 H 1982.46 3.15534 -2.71251 0
M  V30 20934 H 1981.33 4.43825 -3.22971 0
M  V30 20935 H 1981.59 4.15285 -1.51626 0
M  V30 20936 N 1980.65 1.29477 0.898527 0
M  V30 20937 C 1982.07 1.15811 1.4644 0
M  V30 20938 C 1982.42 -0.246304 1.94648 0
M  V30 20939 O 1981.54 -1.1419 1.83819 0
M  V30 20940 C 1982.14 2.09627 2.66161 0
M  V30 20941 C 1980.7 1.9998 3.18881 0
M  V30 20942 C 1979.84 2.00487 1.91573 0
M  V30 20943 H 1982.79 1.41944 0.709754 0
M  V30 20944 H 1982.81 1.66918 3.41934 0
M  V30 20945 H 1982.33 3.11834 2.31044 0
M  V30 20946 H 1980.43 1.00867 3.58687 0
M  V30 20947 H 1980.54 2.87701 3.83099 0
M  V30 20948 H 1978.9 1.451 2.09327 0
M  V30 20949 H 1979.69 3.044 1.58731 0
M  V30 20950 N 1982.13 -1.10905 1.11972 0
M  V30 20951 C 1983.08 -2.19193 0.778293 0
M  V30 20952 C 1984.07 -1.67794 -0.232717 0
M  V30 20953 O 1985.28 -1.79768 -0.0914242 0
M  V30 20954 H 1981.66 -0.714722 0.23383 0
M  V30 20955 H 1983.63 -2.45233 1.7001 0
M  V30 20956 C 1982.38 -3.46844 0.24384 0
M  V30 20957 H 1981.7 -3.86752 1.01307 0
M  V30 20958 H 1983.14 -4.23978 0.0431918 0
M  V30 20959 C 1981.6 -3.2086 -1.02714 0
M  V30 20960 O 1982.13 -3.42078 -2.10584 0
M  V30 20961 N 1980.33 -2.74559 -0.952145 0
M  V30 20962 H 1979.88 -2.57493 -0.0742122 0
M  V30 20963 H 1979.84 -2.57551 -1.80319 0
M  V30 20964 N 1983.61 -0.910886 -1.2861 0
M  V30 20965 C 1984.84 -0.557522 -1.98935 0
M  V30 20966 C 1985.25 0.864875 -1.68275 0
M  V30 20967 O 1984.59 1.58401 -0.930312 0
M  V30 20968 C 1984.65 -0.683336 -3.52946 0
M  V30 20969 C 1984.32 -2.07475 -4.07189 0
M  V30 20970 C 1985.31 -3.04716 -4.21241 0
M  V30 20971 C 1983 -2.38716 -4.4195 0
M  V30 20972 C 1984.99 -4.31315 -4.69303 0
M  V30 20973 C 1982.68 -3.65555 -4.89707 0
M  V30 20974 C 1983.68 -4.61669 -5.0334 0
M  V30 20975 O 1983.37 -5.86254 -5.50056 0
M  V30 20976 H 1983.1 -0.211519 -0.642056 0
M  V30 20977 H 1985.65 -1.22539 -1.64843 0
M  V30 20978 H 1983.88 0.0415955 -3.86678 0
M  V30 20979 H 1985.57 -0.337494 -4.04494 0
M  V30 20980 H 1986.34 -2.81898 -3.94662 0
M  V30 20981 H 1982.22 -1.64658 -4.30591 0
M  V30 20982 H 1985.76 -5.0634 -4.79859 0
M  V30 20983 H 1981.66 -3.88199 -5.15724 0
M  V30 20984 H 1982.43 -5.89002 -5.68347 0
M  V30 20985 N 1985.09 1.42434 -0.674558 0
M  V30 20986 C 1986.04 2.32595 0.0155851 0
M  V30 20987 C 1987.03 1.49809 0.790806 0
M  V30 20988 O 1988.24 1.65882 0.698798 0
M  V30 20989 H 1984.61 0.751622 0.0238347 0
M  V30 20990 H 1986.58 2.88501 -0.762224 0
M  V30 20991 C 1985.33 3.34379 0.953202 0
M  V30 20992 H 1984.65 3.9812 0.366105 0
M  V30 20993 H 1986.09 4.00052 1.40479 0
M  V30 20994 C 1984.55 2.66623 2.05946 0
M  V30 20995 O 1985.08 2.49795 3.14588 0
M  V30 20996 N 1983.29 2.25652 1.83111 0
M  V30 20997 H 1982.84 2.39538 0.947593 0
M  V30 20998 H 1982.79 1.80649 2.57319 0
M  V30 20999 N 1986.57 0.417871 1.51959 0
M  V30 21000 C 1987.5 -0.394222 2.30148 0
M  V30 21001 C 1988.48 -1.0384 1.34727 0
M  V30 21002 O 1989.66 -1.04575 1.63639 0
M  V30 21003 C 1986.79 -1.50639 3.1293 0
M  V30 21004 C 1985.75 -0.986759 4.1647 0
M  V30 21005 C 1985.07 -2.1932 4.8765 0
M  V30 21006 C 1986.37 -0.0347019 5.22288 0
M  V30 21007 H 1988.07 0.258228 2.98284 0
M  V30 21008 H 1985.61 0.125633 1.43451 0
M  V30 21009 H 1987.57 -2.08157 3.664 0
M  V30 21010 H 1986.29 -2.18685 2.42579 0
M  V30 21011 H 1984.95 -0.43393 3.64023 0
M  V30 21012 H 1984.6 -2.8594 4.1382 0
M  V30 21013 H 1984.3 -1.85199 5.57652 0
M  V30 21014 H 1985.82 -2.77427 5.43936 0
M  V30 21015 H 1987.23 -0.518951 5.70946 0
M  V30 21016 H 1985.63 0.218124 5.99703 0
M  V30 21017 H 1986.7 0.907947 4.76324 0
M  V30 21018 N 1988.04 -1.56898 0.148573 0
M  V30 21019 C 1989.29 -1.9535 -0.502116 0
M  V30 21020 C 1989.61 -1.03603 -1.65909 0
M  V30 21021 O 1990.81 -1.31641 -2.37451 0
M  V30 21022 C 1989.27 -3.47281 -0.944653 0
M  V30 21023 C 1988.88 -4.47616 0.185474 0
M  V30 21024 C 1990.62 -3.94597 -1.56504 0
M  V30 21025 C 1988.53 -5.90758 -0.27542 0
M  V30 21026 H 1987.46 -0.729315 -0.191351 0
M  V30 21027 H 1990.11 -1.82013 0.233169 0
M  V30 21028 H 1988.49 -3.55957 -1.73525 0
M  V30 21029 H 1989.66 -4.50637 0.962441 0
M  V30 21030 H 1987.98 -4.10226 0.714373 0
M  V30 21031 H 1990.58 -4.9898 -1.92153 0
M  V30 21032 H 1990.92 -3.36238 -2.45459 0
M  V30 21033 H 1991.45 -3.88845 -0.839319 0
M  V30 21034 H 1988.19 -6.5294 0.578787 0
M  V30 21035 H 1987.71 -5.91094 -1.01823 0
M  V30 21036 H 1989.39 -6.42904 -0.726905 0
M  V30 21037 N 1989.52 0.125209 -1.57102 0
M  V30 21038 C 1990.77 0.832627 -1.83712 0
M  V30 21039 C 1991.08 1.81336 -0.733261 0
M  V30 21040 O 1992.29 2.56651 -0.885592 0
M  V30 21041 C 1990.75 1.53143 -3.25692 0
M  V30 21042 C 1990.35 0.592004 -4.44071 0
M  V30 21043 C 1992.1 2.22435 -3.61556 0
M  V30 21044 C 1990.01 1.29368 -5.77077 0
M  V30 21045 H 1988.94 0.314685 -0.685193 0
M  V30 21046 H 1991.59 0.0853544 -1.83301 0
M  V30 21047 H 1989.97 2.32511 -3.20554 0
M  V30 21048 H 1991.14 -0.16801 -4.60494 0
M  V30 21049 H 1989.46 0.00637692 -4.164 0
M  V30 21050 H 1992.05 2.75611 -4.58195 0
M  V30 21051 H 1992.4 2.99947 -2.88683 0
M  V30 21052 H 1992.93 1.49962 -3.68451 0
M  V30 21053 H 1989.67 0.559975 -6.53104 0
M  V30 21054 H 1989.19 2.02586 -5.64552 0
M  V30 21055 H 1990.87 1.8286 -6.20622 0
M  V30 21056 N 1991 1.52564 0.395213 0
M  V30 21057 C 1991.93 1.71641 1.50382 0
M  V30 21058 C 1992.91 0.564147 1.525 0
M  V30 21059 O 1994.1 0.793198 1.70999 0
M  V30 21060 C 1991.22 1.76838 2.8887 0
M  V30 21061 C 1990.27 2.98527 3.04605 0
M  V30 21062 S 1991.1 4.5862 2.76456 0
M  V30 21063 C 1992.26 4.66624 4.17149 0
M  V30 21064 H 1992.49 2.65402 1.33973 0
M  V30 21065 H 1990.02 1.42778 0.587689 0
M  V30 21066 H 1991.98 1.80518 3.68678 0
M  V30 21067 H 1990.64 0.841802 3.02609 0
M  V30 21068 H 1989.84 2.98686 4.05959 0
M  V30 21069 H 1989.44 2.92806 2.32681 0
M  V30 21070 H 1991.73 4.44856 5.10988 0
M  V30 21071 H 1992.67 5.68608 4.22008 0
M  V30 21072 H 1993.08 3.95522 4.02768 0
M  V30 21073 N 1992.48 -0.653289 1.43422 0
M  V30 21074 C 1993.76 -1.41051 1.35513 0
M  V30 21075 C 1994.14 -2.111 0.00290798 0
M  V30 21076 O 1993.48 -2.04786 -1.01365 0
M  V30 21077 C 1993.69 -2.39526 2.53827 0
M  V30 21078 C 1995.04 -3.03528 2.96911 0
M  V30 21079 O 1996.07 -2.49854 2.53873 0
M  V30 21080 O 1994.92 -4.00843 3.71466 0
M  V30 21081 H 1992.02 -0.630186 0.535532 0
M  V30 21082 H 1994.56 -0.680203 1.55471 0
M  V30 21083 H 1993.34 -1.86712 3.43881 0
M  V30 21084 H 1992.96 -3.20007 2.35968 0
M  V30 21085 N 1993.96 -1.29952 -0.891648 0
M  V30 21086 C 1994.87 -1.17673 -2.02954 0
M  V30 21087 C 1995.88 -0.0981428 -1.73723 0
M  V30 21088 O 1997.06 -0.311785 -1.98972 0
M  V30 21089 C 1994.12 -0.862565 -3.35799 0
M  V30 21090 C 1993.18 -2.02583 -3.78495 0
M  V30 21091 C 1992.42 -1.72656 -5.05001 0
M  V30 21092 O 1992.64 -0.651307 -5.66669 0
M  V30 21093 O 1991.57 -2.57698 -5.43944 0
M  V30 21094 H 1995.4 -2.13248 -2.16239 0
M  V30 21095 H 1992.99 -1.09481 -1.01658 0
M  V30 21096 H 1994.87 -0.702274 -4.15507 0
M  V30 21097 H 1993.54 0.0633315 -3.23638 0
M  V30 21098 H 1992.45 -2.2414 -2.99519 0
M  V30 21099 H 1993.78 -2.93321 -3.95251 0
M  V30 21100 N 1995.44 1.1031 -1.12559 0
M  V30 21101 C 1996.4 2.14869 -0.79773 0
M  V30 21102 C 1997.4 1.59691 0.188521 0
M  V30 21103 O 1998.59 1.7416 -0.037433 0
M  V30 21104 C 1995.72 3.40394 -0.185665 0
M  V30 21105 H 1996.91 2.45384 -1.72415 0
M  V30 21106 H 1994.47 1.25694 -0.929011 0
M  V30 21107 H 1995.2 3.15499 0.750409 0
M  V30 21108 H 1994.99 3.81731 -0.895771 0
M  V30 21109 H 1996.48 4.17591 0.0271848 0
M  V30 21110 N 1996.91 0.917694 1.28125 0
M  V30 21111 C 1997.86 0.380221 2.24807 0
M  V30 21112 C 1998.85 -0.509883 1.52607 0
M  V30 21113 O 2000.04 -0.348962 1.73526 0
M  V30 21114 C 1997.17 -0.375004 3.41246 0
M  V30 21115 C 1996.25 0.531045 4.20762 0
M  V30 21116 N 1996.65 1.64641 4.78254 0
M  V30 21117 C 1994.94 0.33217 4.44761 0
M  V30 21118 C 1995.64 2.20912 5.3812 0
M  V30 21119 N 1994.62 1.4999 5.22498 0
M  V30 21120 H 1998.42 1.23198 2.66832 0
M  V30 21121 H 1995.94 0.770803 1.42942 0
M  V30 21122 H 1997.93 -0.776925 4.09597 0
M  V30 21123 H 1996.59 -1.22381 3.00754 0
M  V30 21124 H 1997.6 2.02894 4.76502 0
M  V30 21125 H 1994.28 -0.476801 4.14768 0
M  V30 21126 H 1995.67 3.14758 5.93613 0
M  V30 21127 N 1998.39 -1.42074 0.682102 0
M  V30 21128 C 1999.64 -2.01435 0.207406 0
M  V30 21129 C 1999.97 -1.53963 -1.18851 0
M  V30 21130 O 1999.22 -0.735693 -1.81345 0
M  V30 21131 C 1999.52 -3.56848 0.198622 0
M  V30 21132 C 1999.19 -4.23779 1.54021 0
M  V30 21133 C 1997.85 -4.41777 1.90752 0
M  V30 21134 C 2000.2 -4.61432 2.42343 0
M  V30 21135 C 1997.53 -4.94701 3.15417 0
M  V30 21136 C 1999.88 -5.15739 3.66328 0
M  V30 21137 C 1998.54 -5.3195 4.03219 0
M  V30 21138 H 1997.81 -0.737103 0.0758954 0
M  V30 21139 H 2000.46 -1.70159 0.878532 0
M  V30 21140 H 1998.77 -3.87834 -0.556029 0
M  V30 21141 H 2000.46 -4.00568 -0.185986 0
M  V30 21142 H 1997.05 -4.10135 1.24448 0
M  V30 21143 H 2001.24 -4.47193 2.15249 0
M  V30 21144 H 1996.49 -5.05436 3.44012 0
M  V30 21145 H 2000.67 -5.43857 4.34963 0
M  V30 21146 H 1998.29 -5.72723 4.99893 0
M  V30 21147 N 1999.87 -0.425924 -1.51735 0
M  V30 21148 C 2001.1 0.143351 -2.06403 0
M  V30 21149 C 2001.51 1.37439 -1.29445 0
M  V30 21150 O 2000.87 1.79096 -0.350858 0
M  V30 21151 C 2000.92 0.477017 -3.58339 0
M  V30 21152 O 2000.64 -0.705148 -4.32388 0
M  V30 21153 C 2002.14 1.09821 -4.29481 0
M  V30 21154 H 1999.36 0.0129769 -0.670875 0
M  V30 21155 H 2001.91 -0.601719 -1.95447 0
M  V30 21156 H 2000.06 1.17198 -3.69247 0
M  V30 21157 H 2000.48 -0.422599 -5.22795 0
M  V30 21158 H 2001.95 1.28175 -5.36913 0
M  V30 21159 H 2002.43 2.07605 -3.87036 0
M  V30 21160 H 2003.03 0.442957 -4.22987 0
M  V30 21161 N 2001.35 1.56817 -0.156891 0
M  V30 21162 C 2002.62 1.88075 0.537326 0
M  V30 21163 C 2003 1.06447 1.82297 0
M  V30 21164 O 2002.35 0.154147 2.27979 0
M  V30 21165 C 2002.56 3.39866 0.79321 0
M  V30 21166 C 2003.91 4.09298 1.12961 0
M  V30 21167 O 2004.93 3.45102 0.882235 0
M  V30 21168 O 2003.79 5.22688 1.59561 0
M  V30 21169 H 2000.89 0.779855 0.275236 0
M  V30 21170 H 2003.43 1.68585 -0.194246 0
M  V30 21171 H 2002.21 3.91127 -0.11626 0
M  V30 21172 H 2001.83 3.64919 1.57861 0
M  V30 21173 N 2002.83 -0.116876 1.57166 0
M  V30 21174 C 2004.24 -0.673792 1.74118 0
M  V30 21175 C 2004.59 -1.80206 0.775892 0
M  V30 21176 O 2003.71 -2.16341 -0.0507019 0
M  V30 21177 C 2004.31 -1.22903 3.15722 0
M  V30 21178 C 2002.87 -1.73222 3.34172 0
M  V30 21179 C 2002.01 -0.632798 2.69983 0
M  V30 21180 H 2004.96 0.109055 1.58325 0
M  V30 21181 H 2004.99 -2.09867 3.1739 0
M  V30 21182 H 2004.5 -0.407637 3.85953 0
M  V30 21183 H 2002.6 -2.57832 2.68986 0
M  V30 21184 H 2002.71 -1.8402 4.4235 0
M  V30 21185 H 2001.08 -1.06693 2.31276 0
M  V30 21186 H 2001.86 0.177653 3.4284 0
M  V30 21187 N 2004.3 -1.52772 -0.387116 0
M  V30 21188 C 2005.27 -1.77036 -1.45571 0
M  V30 21189 C 2006.27 -0.64041 -1.47497 0
M  V30 21190 O 2007.46 -0.908478 -1.48635 0
M  V30 21191 C 2004.59 -1.87284 -2.84846 0
M  V30 21192 H 2005.78 -2.72452 -1.25339 0
M  V30 21193 H 2003.33 -1.43522 -0.61897 0
M  V30 21194 H 2004.07 -0.9386 -3.1042 0
M  V30 21195 H 2003.85 -2.6945 -2.84849 0
M  V30 21196 H 2005.34 -2.07723 -3.62272 0
M  V30 21197 N 2005.78 0.645673 -1.43767 0
M  V30 21198 C 2007.01 1.43799 -1.49454 0
M  V30 21199 C 2007.43 1.87742 -0.115948 0
M  V30 21200 O 2006.79 1.57845 0.891891 0
M  V30 21201 C 2006.84 2.64416 -2.45186 0
M  V30 21202 O 2005.94 3.63742 -1.94334 0
M  V30 21203 H 2005.28 0.430858 -0.50523 0
M  V30 21204 H 2007.81 0.789424 -1.88757 0
M  V30 21205 H 2007.82 3.12139 -2.62741 0
M  V30 21206 H 2006.5 2.31776 -3.4533 0
M  V30 21207 H 2005.07 3.22926 -1.86476 0
M  V30 21208 N 2007.26 1.30423 0.884744 0
M  V30 21209 C 2008.51 1.18625 1.63129 0
M  V30 21210 C 2008.82 -0.257953 1.93892 0
M  V30 21211 O 2010.03 -0.497448 2.66904 0
M  V30 21212 C 2008.48 2.0757 2.94011 0
M  V30 21213 C 2008.09 3.569 2.70788 0
M  V30 21214 C 2009.84 2.04535 3.71975 0
M  V30 21215 C 2007.74 4.37901 3.97488 0
M  V30 21216 H 2006.67 0.440391 0.612023 0
M  V30 21217 H 2009.32 1.55172 0.979478 0
M  V30 21218 H 2007.71 1.63905 3.60487 0
M  V30 21219 H 2008.88 4.08715 2.12812 0
M  V30 21220 H 2007.19 3.61761 2.06199 0
M  V30 21221 H 2009.79 2.62305 4.6594 0
M  V30 21222 H 2010.13 1.02888 4.03385 0
M  V30 21223 H 2010.67 2.46322 3.12362 0
M  V30 21224 H 2007.41 5.40244 3.71236 0
M  V30 21225 H 2006.93 3.9085 4.54968 0
M  V30 21226 H 2008.61 4.49347 4.65506 0
M  V30 21227 N 2008.74 -1.09711 1.13142 0
M  V30 21228 C 2009.7 -2.14443 0.809114 0
M  V30 21229 C 2010.7 -1.59789 -0.18005 0
M  V30 21230 O 2011.89 -1.74137 0.0466686 0
M  V30 21231 C 2009.02 -3.40291 0.203714 0
M  V30 21232 H 2010.22 -2.44466 1.73713 0
M  V30 21233 H 2007.77 -1.252 0.935663 0
M  V30 21234 H 2008.5 -3.15892 -0.733667 0
M  V30 21235 H 2008.29 -3.8125 0.916003 0
M  V30 21236 H 2009.78 -4.176 -0.00503851 0
M  V30 21237 N 2010.22 -0.924476 -1.27637 0
M  V30 21238 C 2011.18 -0.425772 -2.25211 0
M  V30 21239 C 2012.18 0.453876 -1.54261 0
M  V30 21240 O 2013.37 0.255412 -1.72317 0
M  V30 21241 C 2010.5 0.388294 -3.38681 0
M  V30 21242 H 2011.69 -1.28783 -2.70841 0
M  V30 21243 H 2009.25 -0.704863 -1.39504 0
M  V30 21244 H 2009.98 1.2693 -2.98428 0
M  V30 21245 H 2009.77 -0.242358 -3.9135 0
M  V30 21246 H 2011.26 0.727693 -4.11211 0
M  V30 21247 N 2011.69 1.41711 -0.689627 0
M  V30 21248 C 2013.11 1.55473 -0.360597 0
M  V30 21249 C 2013.31 1.66635 1.13292 0
M  V30 21250 O 2012.37 1.64148 1.91864 0
M  V30 21251 C 2013.68 2.79704 -1.10392 0
M  V30 21252 C 2015.23 2.93494 -1.08768 0
M  V30 21253 C 2015.7 4.20604 -1.81263 0
M  V30 21254 N 2017.19 4.27549 -1.78203 0
M  V30 21255 C 2017.93 5.24749 -2.3114 0
M  V30 21256 N 2017.42 6.28015 -2.92522 0
M  V30 21257 N 2019.22 5.16648 -2.21429 0
M  V30 21258 H 2011.37 1.3271 -1.65837 0
M  V30 21259 H 2013.63 0.639848 -0.699499 0
M  V30 21260 H 2013.34 2.77645 -2.15885 0
M  V30 21261 H 2013.21 3.71044 -0.678662 0
M  V30 21262 H 2015.6 2.95071 -0.0410356 0
M  V30 21263 H 2015.68 2.03343 -1.55195 0
M  V30 21264 H 2015.32 4.19788 -2.85904 0
M  V30 21265 H 2015.25 5.09716 -1.32275 0
M  V30 21266 H 2017.74 3.53555 -1.33445 0
M  V30 21267 H 2018.06 6.98563 -3.30498 0
M  V30 21268 H 2016.4 6.28534 -2.96598 0
M  V30 21269 H 2019.59 4.34898 -1.73152 0
M  V30 21270 H 2019.77 5.92234 -2.62989 0
M  V30 21271 N 2013.17 0.433965 1.51507 0
M  V30 21272 C 2014.42 -0.133365 2.01659 0
M  V30 21273 C 2014.74 -1.43506 1.32026 0
M  V30 21274 O 2014.01 -1.90572 0.453774 0
M  V30 21275 H 2012.59 -0.0522753 0.745169 0
M  V30 21276 H 2015.25 0.575899 1.86197 0
M  V30 21277 H 2014.35 -0.311697 3.1054 0
M  V30 21278 N 2014.65 -1.56732 0.165206 0
M  V30 21279 C 2015.88 -2.00777 -0.487041 0
M  V30 21280 C 2016.29 -1.04447 -1.57758 0
M  V30 21281 O 2015.63 -0.0363979 -1.83664 0
M  V30 21282 C 2015.69 -3.41252 -1.1308 0
M  V30 21283 C 2015.36 -4.56635 -0.182666 0
M  V30 21284 C 2016.35 -5.16465 0.596665 0
M  V30 21285 C 2014.04 -5.02236 -0.0802703 0
M  V30 21286 C 2016.03 -6.2032 1.46565 0
M  V30 21287 C 2013.72 -6.05942 0.792308 0
M  V30 21288 C 2014.72 -6.64855 1.56386 0
M  V30 21289 O 2014.41 -7.66551 2.42187 0
M  V30 21290 H 2014.14 -0.663451 -0.129647 0
M  V30 21291 H 2016.69 -2.03719 0.262233 0
M  V30 21292 H 2014.92 -3.35204 -1.92808 0
M  V30 21293 H 2016.61 -3.6929 -1.68463 0
M  V30 21294 H 2017.38 -4.82121 0.527694 0
M  V30 21295 H 2013.26 -4.56097 -0.670586 0
M  V30 21296 H 2016.8 -6.66232 2.06834 0
M  V30 21297 H 2012.7 -6.39712 0.862504 0
M  V30 21298 H 2013.47 -7.83849 2.35635 0
M  V30 21299 N 2016.13 0.10854 -1.57226 0
M  V30 21300 C 2017.38 0.813095 -1.84585 0
M  V30 21301 C 2017.69 1.80548 -0.752453 0
M  V30 21302 O 2018.9 2.55697 -0.912763 0
M  V30 21303 C 2017.35 1.4968 -3.27298 0
M  V30 21304 C 2016.96 0.544871 -4.44674 0
M  V30 21305 C 2018.7 2.18587 -3.63895 0
M  V30 21306 C 2016.61 1.2324 -5.78417 0
M  V30 21307 H 2015.54 0.3074 -0.688492 0
M  V30 21308 H 2018.19 0.065908 -1.83382 0
M  V30 21309 H 2016.57 2.29098 -3.23002 0
M  V30 21310 H 2017.75 -0.216842 -4.6029 0
M  V30 21311 H 2016.06 -0.0377882 -4.16383 0
M  V30 21312 H 2018.66 2.70735 -4.61093 0
M  V30 21313 H 2019 2.96868 -2.91848 0
M  V30 21314 H 2019.54 1.46046 -3.70021 0
M  V30 21315 H 2016.28 0.490673 -6.53661 0
M  V30 21316 H 2015.8 1.96587 -5.66669 0
M  V30 21317 H 2017.47 1.76267 -6.22526 0
M  V30 21318 N 2017.61 1.52975 0.379009 0
M  V30 21319 C 2018.83 1.72698 1.14849 0
M  V30 21320 C 2019.26 0.448814 1.82667 0
M  V30 21321 O 2018.61 -0.596182 1.71217 0
M  V30 21322 C 2018.66 2.884 2.16466 0
M  V30 21323 O 2017.77 2.56071 3.23267 0
M  V30 21324 H 2017.11 0.573952 0.333878 0
M  V30 21325 H 2019.64 1.99807 0.440243 0
M  V30 21326 H 2019.65 3.14183 2.60295 0
M  V30 21327 H 2018.32 3.8112 1.66494 0
M  V30 21328 H 2016.9 2.41063 2.84505 0
M  V30 21329 N 2019.08 -0.63804 1.44107 0
M  V30 21330 C 2020.31 -1.4251 1.49995 0
M  V30 21331 C 2020.73 -1.88401 0.122604 0
M  V30 21332 O 2020.08 -1.60419 -0.870168 0
M  V30 21333 C 2020.14 -2.65002 2.45879 0
M  V30 21334 O 2019.86 -2.21025 3.78259 0
M  V30 21335 C 2021.36 -3.58203 2.61162 0
M  V30 21336 H 2018.58 -0.437285 0.508943 0
M  V30 21337 H 2021.12 -0.780912 1.89003 0
M  V30 21338 H 2019.28 -3.25527 2.10026 0
M  V30 21339 H 2019.69 -3.00388 4.29962 0
M  V30 21340 H 2021.16 -4.40776 3.32295 0
M  V30 21341 H 2021.64 -4.06556 1.6616 0
M  V30 21342 H 2022.25 -3.0355 2.97888 0
M  V30 21343 N 2020.56 -1.3089 -0.877815 0
M  V30 21344 C 2021.98 -1.09377 -1.16228 0
M  V30 21345 C 2022.18 0.140854 -2.01007 0
M  V30 21346 O 2021.23 0.83243 -2.38384 0
M  V30 21347 C 2022.55 -2.36114 -1.86201 0
M  V30 21348 C 2024.1 -2.41648 -1.98936 0
M  V30 21349 C 2024.57 -3.68245 -2.72322 0
M  V30 21350 N 2026.06 -3.69094 -2.79863 0
M  V30 21351 C 2026.8 -4.63743 -3.37239 0
M  V30 21352 N 2026.29 -5.68741 -3.95607 0
M  V30 21353 N 2028.09 -4.51275 -3.35122 0
M  V30 21354 H 2020.24 -2.10086 -0.312693 0
M  V30 21355 H 2022.5 -0.926425 -0.201101 0
M  V30 21356 H 2022.21 -3.26251 -1.31352 0
M  V30 21357 H 2022.08 -2.45311 -2.86535 0
M  V30 21358 H 2024.47 -1.51985 -2.52952 0
M  V30 21359 H 2024.55 -2.36421 -0.976675 0
M  V30 21360 H 2024.19 -4.58271 -2.18976 0
M  V30 21361 H 2024.12 -3.70736 -3.73982 0
M  V30 21362 H 2026.61 -2.93189 -2.3843 0
M  V30 21363 H 2026.93 -6.37052 -4.37475 0
M  V30 21364 H 2025.27 -5.72525 -3.94006 0
M  V30 21365 H 2028.46 -3.68426 -2.88755 0
M  V30 21366 H 2028.63 -5.25217 -3.7954 0
M  V30 21367 N 2022.04 1.0911 -1.13723 0
M  V30 21368 C 2023.29 1.81621 -0.902319 0
M  V30 21369 C 2023.62 1.85646 0.570009 0
M  V30 21370 O 2022.89 1.32706 1.42195 0
M  V30 21371 C 2023.18 3.27604 -1.49492 0
M  V30 21372 C 2023.03 3.3183 -3.03659 0
M  V30 21373 C 2024.35 4.24378 -1.16581 0
M  V30 21374 H 2021.47 0.659374 -0.329233 0
M  V30 21375 H 2024.11 1.27792 -1.40603 0
M  V30 21376 H 2022.26 3.73574 -1.06653 0
M  V30 21377 H 2023.93 2.94239 -3.55276 0
M  V30 21378 H 2022.18 2.71317 -3.38481 0
M  V30 21379 H 2022.85 4.34686 -3.40224 0
M  V30 21380 H 2025.32 3.8671 -1.53604 0
M  V30 21381 H 2024.2 5.24853 -1.60688 0
M  V30 21382 H 2024.46 4.42028 -0.0800013 0
M  V30 21383 N 2023.52 0.931232 1.27145 0
M  V30 21384 C 2024.43 0.438807 2.3046 0
M  V30 21385 C 2025.44 -0.482275 1.67183 0
M  V30 21386 O 2026.62 -0.364225 1.98079 0
M  V30 21387 C 2023.69 -0.297266 3.45423 0
M  V30 21388 C 2022.75 0.659161 4.24209 0
M  V30 21389 C 2021.98 -0.0418787 5.33684 0
M  V30 21390 O 2022.2 -1.26062 5.56295 0
M  V30 21391 O 2021.14 0.631751 5.98575 0
M  V30 21392 H 2024.96 1.29675 2.74624 0
M  V30 21393 H 2022.55 0.696718 1.3216 0
M  V30 21394 H 2024.43 -0.712299 4.15336 0
M  V30 21395 H 2023.1 -1.13075 3.03308 0
M  V30 21396 H 2022.01 1.12394 3.56817 0
M  V30 21397 H 2023.34 1.45997 4.70049 0
M  V30 21398 N 2025 -1.41343 0.697132 0
M  V30 21399 C 2025.93 -2.28193 -0.017778 0
M  V30 21400 C 2026.91 -1.4232 -0.786373 0
M  V30 21401 O 2028.09 -1.71747 -0.776865 0
M  V30 21402 C 2025.22 -3.22577 -1.03256 0
M  V30 21403 C 2024.27 -4.25004 -0.356949 0
M  V30 21404 S 2025.1 -5.27852 0.901798 0
M  V30 21405 C 2026.25 -6.25801 -0.111346 0
M  V30 21406 H 2026.49 -2.88479 0.718839 0
M  V30 21407 H 2024.02 -1.46503 0.487463 0
M  V30 21408 H 2025.98 -3.77487 -1.61288 0
M  V30 21409 H 2024.64 -2.61384 -1.74176 0
M  V30 21410 H 2023.83 -4.9132 -1.12343 0
M  V30 21411 H 2023.43 -3.73698 0.150343 0
M  V30 21412 H 2025.73 -6.70605 -0.964122 0
M  V30 21413 H 2026.67 -7.06203 0.517933 0
M  V30 21414 H 2027.08 -5.62566 -0.466819 0
M  V30 21415 N 2026.48 -0.441993 -1.51275 0
M  V30 21416 C 2027.72 0.122669 -2.01727 0
M  V30 21417 C 2028.04 1.42804 -1.32786 0
M  V30 21418 O 2027.31 1.90329 -0.463874 0
M  V30 21419 H 2025.89 0.0483227 -0.745435 0
M  V30 21420 H 2028.56 -0.585765 -1.85889 0
M  V30 21421 H 2027.65 0.295224 -3.10701 0
M  V30 21422 N 2027.95 1.56642 -0.173515 0
M  V30 21423 C 2028.86 2.2166 0.768363 0
M  V30 21424 C 2029.88 1.20892 1.25144 0
M  V30 21425 O 2031.06 1.53561 1.30311 0
M  V30 21426 C 2028.12 2.84632 1.97953 0
M  V30 21427 C 2027.18 4.00608 1.54312 0
M  V30 21428 C 2026.41 4.60567 2.69655 0
M  V30 21429 O 2026.64 4.19419 3.8658 0
M  V30 21430 O 2025.57 5.50401 2.43604 0
M  V30 21431 H 2029.4 3.02712 0.244753 0
M  V30 21432 H 2026.98 1.493 0.0547846 0
M  V30 21433 H 2028.86 3.24553 2.68782 0
M  V30 21434 H 2027.54 2.06575 2.49215 0
M  V30 21435 H 2026.45 3.65352 0.804264 0
M  V30 21436 H 2027.78 4.80264 1.07738 0
M  V30 21437 N 2029.43 -0.1002 1.57281 0
M  V30 21438 C 2030.39 -1.10612 2.00743 0
M  V30 21439 C 2031.39 -1.33241 0.900199 0
M  V30 21440 O 2032.58 -1.2944 1.1658 0
M  V30 21441 C 2029.72 -2.45642 2.36375 0
M  V30 21442 H 2030.91 -0.732144 2.90826 0
M  V30 21443 H 2028.46 -0.345091 1.52443 0
M  V30 21444 H 2029.2 -2.87925 1.4923 0
M  V30 21445 H 2028.98 -2.30567 3.17146 0
M  V30 21446 H 2030.47 -3.18002 2.70674 0
M  V30 21447 N 2030.91 -1.53174 -0.370891 0
M  V30 21448 C 2031.87 -1.7857 -1.43685 0
M  V30 21449 C 2032.87 -0.656018 -1.4681 0
M  V30 21450 O 2034.06 -0.924191 -1.47663 0
M  V30 21451 C 2031.19 -1.90295 -2.82844 0
M  V30 21452 H 2032.39 -2.73766 -1.22442 0
M  V30 21453 H 2029.94 -1.4417 -0.603713 0
M  V30 21454 H 2030.68 -0.971472 -3.09407 0
M  V30 21455 H 2030.46 -2.72456 -2.81975 0
M  V30 21456 H 2031.95 -2.11554 -3.60048 0
M  V30 21457 N 2032.39 0.630389 -1.44443 0
M  V30 21458 C 2033.64 1.38719 -1.46975 0
M  V30 21459 C 2033.96 1.94723 -0.103861 0
M  V30 21460 O 2033.23 1.75822 0.863919 0
M  V30 21461 H 2031.81 0.5149 -0.54119 0
M  V30 21462 H 2034.47 0.741905 -1.80227 0
M  V30 21463 H 2033.56 2.21813 -2.19557 0
M  V30 21464 N 2033.87 1.31354 0.870861 0
M  V30 21465 C 2035.11 1.20348 1.61862 0
M  V30 21466 C 2035.43 -0.237373 1.94154 0
M  V30 21467 O 2036.63 -0.469111 2.67417 0
M  V30 21468 C 2035.09 2.10677 2.91793 0
M  V30 21469 C 2034.7 3.59752 2.66987 0
M  V30 21470 C 2036.44 2.08469 3.69785 0
M  V30 21471 C 2034.35 4.42092 3.92821 0
M  V30 21472 H 2033.28 0.446857 0.607317 0
M  V30 21473 H 2035.93 1.56203 0.962965 0
M  V30 21474 H 2034.31 1.6772 3.58728 0
M  V30 21475 H 2035.49 4.10949 2.08465 0
M  V30 21476 H 2033.8 3.63927 2.02351 0
M  V30 21477 H 2036.4 2.67232 4.63132 0
M  V30 21478 H 2036.74 1.07161 4.02271 0
M  V30 21479 H 2037.27 2.49621 3.09732 0
M  V30 21480 H 2034.01 5.44151 3.65486 0
M  V30 21481 H 2033.53 3.95654 4.50797 0
M  V30 21482 H 2035.21 4.54259 4.60714 0
M  V30 21483 N 2035.34 -1.08505 1.143 0
M  V30 21484 C 2036.59 -1.80872 0.910589 0
M  V30 21485 C 2036.92 -1.86177 -0.562883 0
M  V30 21486 O 2036.17 -1.33282 -1.43299 0
M  V30 21487 C 2036.47 -3.26425 1.45538 0
M  V30 21488 C 2036.14 -3.41239 2.94732 0
M  V30 21489 C 2034.8 -3.44989 3.35464 0
M  V30 21490 C 2037.15 -3.45 3.90672 0
M  V30 21491 C 2034.48 -3.5009 4.70801 0
M  V30 21492 C 2036.83 -3.51637 5.25865 0
M  V30 21493 C 2035.5 -3.53659 5.66111 0
M  V30 21494 H 2034.77 -0.661856 0.333208 0
M  V30 21495 H 2037.41 -1.27762 1.4265 0
M  V30 21496 H 2035.72 -3.82237 0.860376 0
M  V30 21497 H 2037.42 -3.8097 1.25151 0
M  V30 21498 H 2034.01 -3.39011 2.6224 0
M  V30 21499 H 2038.19 -3.41334 3.60284 0
M  V30 21500 H 2033.45 -3.49949 5.01344 0
M  V30 21501 H 2037.62 -3.53492 6.00013 0
M  V30 21502 H 2035.25 -3.57365 6.70965 0
M  V30 21503 N 2036.82 -0.937962 -1.26649 0
M  V30 21504 C 2037.75 -0.389349 -2.24854 0
M  V30 21505 C 2038.73 0.520034 -1.5406 0
M  V30 21506 O 2039.92 0.458213 -1.82846 0
M  V30 21507 C 2037.04 0.440897 -3.35818 0
M  V30 21508 C 2036.09 -0.406503 -4.24558 0
M  V30 21509 S 2036.92 -1.82845 -5.03317 0
M  V30 21510 C 2038.08 -1.00617 -6.1776 0
M  V30 21511 H 2038.31 -1.22165 -2.71041 0
M  V30 21512 H 2035.84 -0.740851 -1.35465 0
M  V30 21513 H 2037.8 0.914026 -4.00195 0
M  V30 21514 H 2036.46 1.24784 -2.8825 0
M  V30 21515 H 2035.66 0.229461 -5.03477 0
M  V30 21516 H 2035.26 -0.814194 -3.6503 0
M  V30 21517 H 2037.55 -0.246937 -6.7705 0
M  V30 21518 H 2038.49 -1.76871 -6.85655 0
M  V30 21519 H 2038.9 -0.543652 -5.61876 0
M  V30 21520 N 2038.3 1.40971 -0.704618 0
M  V30 21521 C 2039.53 2.05399 -0.248738 0
M  V30 21522 C 2039.94 1.53056 1.10541 0
M  V30 21523 O 2039.3 0.682534 1.69256 0
M  V30 21524 C 2039.35 3.60902 -0.207794 0
M  V30 21525 O 2039.07 4.11311 -1.50846 0
M  V30 21526 C 2040.57 4.42489 0.267977 0
M  V30 21527 H 2037.79 0.661269 -0.11386 0
M  V30 21528 H 2040.34 1.8058 -0.959745 0
M  V30 21529 H 2038.49 3.84729 0.4541 0
M  V30 21530 H 2038.91 5.05426 -1.4016 0
M  V30 21531 H 2040.38 5.51454 0.245489 0
M  V30 21532 H 2040.86 4.1926 1.30836 0
M  V30 21533 H 2041.46 4.23746 -0.363242 0
M  V30 21534 N 2039.78 0.45001 1.51039 0
M  V30 21535 C 2040.74 -0.343489 2.26612 0
M  V30 21536 C 2041.74 -0.938789 1.3055 0
M  V30 21537 O 2042.93 -0.811258 1.54157 0
M  V30 21538 C 2040.06 -1.48719 3.0675 0
M  V30 21539 H 2041.26 0.318996 2.98199 0
M  V30 21540 H 2038.81 0.2035 1.5497 0
M  V30 21541 H 2039.54 -2.18535 2.3961 0
M  V30 21542 H 2039.33 -1.06636 3.77321 0
M  V30 21543 H 2040.82 -2.04748 3.63961 0
M  V30 21544 N 2041.26 -1.56548 0.18182 0
M  V30 21545 C 2042.48 -2.01575 -0.466395 0
M  V30 21546 C 2042.9 -1.06202 -1.56098 0
M  V30 21547 O 2042.26 -0.064631 -1.82386 0
M  V30 21548 C 2042.31 -3.46366 -1.03502 0
M  V30 21549 O 2042.03 -4.38097 0.0158824 0
M  V30 21550 C 2043.53 -4.06846 -1.76042 0
M  V30 21551 H 2040.75 -0.660472 -0.118395 0
M  V30 21552 H 2043.29 -2.02481 0.286632 0
M  V30 21553 H 2041.45 -3.46201 -1.73849 0
M  V30 21554 H 2041.86 -5.22931 -0.405425 0
M  V30 21555 H 2043.34 -5.1005 -2.11076 0
M  V30 21556 H 2043.81 -3.4954 -2.65929 0
M  V30 21557 H 2044.42 -4.10745 -1.10312 0
M  V30 21558 N 2042.73 0.0918577 -1.57332 0
M  V30 21559 C 2044.15 0.646006 -1.75167 0
M  V30 21560 C 2044.5 1.78949 -0.804463 0
M  V30 21561 O 2043.62 2.16394 0.0162775 0
M  V30 21562 C 2044.22 1.17865 -3.17637 0
M  V30 21563 C 2042.78 1.67884 -3.36886 0
M  V30 21564 C 2041.92 0.589766 -2.70956 0
M  V30 21565 H 2044.87 -0.134229 -1.58131 0
M  V30 21566 H 2044.89 2.04791 -3.20688 0
M  V30 21567 H 2044.41 0.346184 -3.86553 0
M  V30 21568 H 2042.51 2.5352 -2.73054 0
M  V30 21569 H 2042.62 1.7696 -4.45221 0
M  V30 21570 H 2040.98 1.03 -2.32945 0
M  V30 21571 H 2041.77 -0.232174 -3.42514 0
M  V30 21572 N 2044.21 1.53368 0.362763 0
M  V30 21573 C 2045.62 1.61344 0.939417 0
M  V30 21574 C 2045.97 0.48262 1.90172 0
M  V30 21575 O 2045.1 -0.39054 2.12847 0
M  V30 21576 C 2045.69 2.92445 1.71059 0
M  V30 21577 C 2044.25 3.02747 2.23654 0
M  V30 21578 C 2043.4 2.5666 1.0498 0
M  V30 21579 H 2046.35 1.58068 0.141471 0
M  V30 21580 H 2046.37 2.80406 2.57201 0
M  V30 21581 H 2045.88 3.74728 1.00996 0
M  V30 21582 H 2043.99 2.25057 2.96951 0
M  V30 21583 H 2044.1 4.07877 2.51343 0
M  V30 21584 H 2042.46 2.11603 1.41761 0
M  V30 21585 H 2043.25 3.41364 0.364111 0
M  V30 21586 N 2045.69 -0.62272 1.44776 0
M  V30 21587 C 2046.94 -1.37937 1.47708 0
M  V30 21588 C 2047.26 -1.94665 0.114186 0
M  V30 21589 O 2046.53 -1.76277 -0.854583 0
M  V30 21590 H 2045.11 -0.512023 0.543914 0
M  V30 21591 H 2047.77 -0.732336 1.80618 0
M  V30 21592 H 2046.87 -2.20646 2.2073 0
M  V30 21593 N 2047.17 -1.31814 -0.863883 0
M  V30 21594 C 2048.39 -1.24961 -1.65528 0
M  V30 21595 C 2048.82 0.18096 -1.87228 0
M  V30 21596 O 2048.18 1.12919 -1.41842 0
M  V30 21597 C 2048.22 -2.00518 -2.99708 0
M  V30 21598 O 2047.33 -1.34668 -3.89793 0
M  V30 21599 H 2046.67 -0.431127 -0.505001 0
M  V30 21600 H 2049.2 -1.73981 -1.07665 0
M  V30 21601 H 2049.21 -2.10344 -3.49599 0
M  V30 21602 H 2047.88 -3.0455 -2.83235 0
M  V30 21603 H 2046.46 -1.33332 -3.48249 0
M  V30 21604 N 2048.65 1.07897 -1.14873 0
M  V30 21605 C 2050.06 1.32467 -0.89021 0
M  V30 21606 C 2050.26 1.96041 0.46584 0
M  V30 21607 O 2049.32 2.21675 1.20899 0
M  V30 21608 C 2050.63 2.22118 -2.02692 0
M  V30 21609 C 2052.18 2.35583 -2.06082 0
M  V30 21610 C 2052.65 3.28579 -3.19061 0
M  V30 21611 N 2054.15 3.36158 -3.18673 0
M  V30 21612 C 2054.88 4.0816 -4.02731 0
M  V30 21613 N 2054.38 4.82826 -4.96841 0
M  V30 21614 N 2056.17 4.04045 -3.90774 0
M  V30 21615 H 2048.32 0.650155 -2.02205 0
M  V30 21616 H 2050.58 0.349072 -0.881393 0
M  V30 21617 H 2050.29 1.82656 -3.00549 0
M  V30 21618 H 2050.16 3.22612 -1.95452 0
M  V30 21619 H 2052.55 2.743 -1.08829 0
M  V30 21620 H 2052.63 1.34812 -2.17392 0
M  V30 21621 H 2052.28 2.90582 -4.16563 0
M  V30 21622 H 2052.21 4.2929 -3.04988 0
M  V30 21623 H 2054.7 2.82932 -2.50515 0
M  V30 21624 H 2055.01 5.35244 -5.57434 0
M  V30 21625 H 2053.35 4.81861 -5.00834 0
M  V30 21626 H 2056.55 3.44823 -3.16567 0
M  V30 21627 H 2056.72 4.59895 -4.56509 0
M  V30 21628 N 2050.12 0.944665 1.2615 0
M  V30 21629 C 2051.4 0.511841 1.88784 0
M  V30 21630 C 2051.78 -1.01066 1.85335 0
M  V30 21631 O 2051.13 -1.87217 1.31004 0
M  V30 21632 C 2051.34 1.07714 3.31962 0
M  V30 21633 C 2052.69 1.14792 4.08788 0
M  V30 21634 O 2053.71 1.02798 3.41044 0
M  V30 21635 O 2052.57 1.3349 5.29946 0
M  V30 21636 H 2049.66 0.167346 0.809892 0
M  V30 21637 H 2052.21 1.03745 1.34294 0
M  V30 21638 H 2050.98 2.12066 3.28852 0
M  V30 21639 H 2050.61 0.534184 3.93995 0
M  V30 21640 N 2051.6 -1.40596 0.712085 0
M  V30 21641 C 2053.01 -1.83887 0.322883 0
M  V30 21642 C 2053.36 -1.59548 -1.14188 0
M  V30 21643 O 2052.49 -1.07452 -1.87838 0
M  V30 21644 C 2053.08 -3.33811 0.579252 0
M  V30 21645 C 2051.64 -3.7561 0.243796 0
M  V30 21646 C 2050.79 -2.63843 0.853361 0
M  V30 21647 H 2053.74 -1.29913 0.911501 0
M  V30 21648 H 2053.76 -3.80177 -0.156661 0
M  V30 21649 H 2053.27 -3.51494 1.6454 0
M  V30 21650 H 2051.38 -3.63523 -0.817429 0
M  V30 21651 H 2051.49 -4.73805 0.710348 0
M  V30 21652 H 2049.85 -2.53138 0.281671 0
M  V30 21653 H 2050.64 -2.84339 1.9237 0
M  V30 21654 N 2053.08 -0.458013 -1.50798 0
M  V30 21655 C 2054.33 0.101466 -2.02246 0
M  V30 21656 C 2054.66 1.40891 -1.34089 0
M  V30 21657 O 2053.91 1.90427 -0.451235 0
M  V30 21658 C 2054.21 0.346589 -3.55716 0
M  V30 21659 C 2053.88 -0.877551 -4.42278 0
M  V30 21660 C 2052.54 -1.21321 -4.65655 0
M  V30 21661 C 2054.89 -1.69321 -4.9293 0
M  V30 21662 C 2052.22 -2.36483 -5.36929 0
M  V30 21663 C 2054.57 -2.836 -5.65468 0
M  V30 21664 C 2053.23 -3.17596 -5.87102 0
M  V30 21665 H 2052.5 0.0371291 -0.740069 0
M  V30 21666 H 2055.15 -0.609429 -1.81544 0
M  V30 21667 H 2053.46 1.1396 -3.74861 0
M  V30 21668 H 2055.15 0.793236 -3.93076 0
M  V30 21669 H 2051.74 -0.606027 -4.24294 0
M  V30 21670 H 2055.93 -1.44708 -4.74735 0
M  V30 21671 H 2051.18 -2.63111 -5.5189 0
M  V30 21672 H 2055.36 -3.47158 -6.037 0
M  V30 21673 H 2052.98 -4.06941 -6.42108 0
M  V30 21674 N 2054.56 1.56449 -0.190119 0
M  V30 21675 C 2055.97 1.83879 0.323353 0
M  V30 21676 C 2056.32 1.11062 1.6174 0
M  V30 21677 O 2055.45 0.369789 2.13217 0
M  V30 21678 C 2056.04 3.33562 0.593453 0
M  V30 21679 C 2054.6 3.6142 1.05131 0
M  V30 21680 C 2053.75 2.77129 0.0972331 0
M  V30 21681 H 2056.7 1.53205 -0.414009 0
M  V30 21682 H 2056.72 3.52062 1.44335 0
M  V30 21683 H 2056.23 3.86532 -0.348543 0
M  V30 21684 H 2054.33 3.13879 2.00776 0
M  V30 21685 H 2054.45 4.69638 0.947464 0
M  V30 21686 H 2052.81 2.47576 0.598181 0
M  V30 21687 H 2053.59 3.32887 -0.839117 0
M  V30 21688 N 2056.04 -0.0835127 1.57379 0
M  V30 21689 C 2056.97 -1.12692 1.99582 0
M  V30 21690 C 2057.98 -1.35658 0.900041 0
M  V30 21691 O 2059.17 -1.34105 1.17805 0
M  V30 21692 C 2056.27 -2.4802 2.30953 0
M  V30 21693 C 2055.44 -2.45172 3.62228 0
M  V30 21694 C 2054.5 -3.62516 3.81403 0
M  V30 21695 O 2053.53 -3.44479 4.53126 0
M  V30 21696 N 2054.73 -4.82432 3.22862 0
M  V30 21697 H 2057.5 -0.767618 2.89703 0
M  V30 21698 H 2055.06 -0.272335 1.59593 0
M  V30 21699 H 2057.05 -3.25144 2.40964 0
M  V30 21700 H 2055.62 -2.75996 1.46781 0
M  V30 21701 H 2054.84 -1.53514 3.6308 0
M  V30 21702 H 2056.13 -2.40359 4.48448 0
M  V30 21703 H 2055.53 -4.9999 2.64625 0
M  V30 21704 H 2054.08 -5.57108 3.3834 0
M  V30 21705 N 2057.52 -1.53558 -0.354624 0
M  V30 21706 C 2058.74 -1.74503 -1.12087 0
M  V30 21707 C 2059.17 -0.477817 -1.8193 0
M  V30 21708 O 2058.52 0.568868 -1.72144 0
M  V30 21709 C 2058.57 -2.91808 -2.1185 0
M  V30 21710 O 2057.68 -2.61182 -3.19152 0
M  V30 21711 H 2057.02 -0.579191 -0.324705 0
M  V30 21712 H 2059.55 -2.00483 -0.4084 0
M  V30 21713 H 2059.56 -3.18284 -2.55263 0
M  V30 21714 H 2058.23 -3.83721 -1.6041 0
M  V30 21715 H 2056.81 -2.45558 -2.80634 0
M  V30 21716 N 2058.99 0.615033 -1.45104 0
M  V30 21717 C 2059.94 1.74733 -1.53529 0
M  V30 21718 C 2060.94 1.64468 -0.405784 0
M  V30 21719 O 2062.14 1.70352 -0.581394 0
M  V30 21720 H 2058.52 0.577146 -0.482086 0
M  V30 21721 H 2060.49 1.64752 -2.48796 0
M  V30 21722 C 2059.24 3.13102 -1.51204 0
M  V30 21723 H 2058.56 3.21656 -2.3744 0
M  V30 21724 H 2060 3.92179 -1.61158 0
M  V30 21725 C 2058.46 3.36077 -0.235281 0
M  V30 21726 O 2058.99 3.95765 0.687942 0
M  V30 21727 N 2057.19 2.90294 -0.133321 0
M  V30 21728 H 2056.74 2.41903 -0.885467 0
M  V30 21729 H 2056.7 3.06041 0.720147 0
M  V30 21730 N 2060.47 1.3227 0.85688 0
M  V30 21731 C 2061.43 1.2096 1.94682 0
M  V30 21732 C 2062.43 0.133231 1.60247 0
M  V30 21733 O 2063.62 0.383471 1.69927 0
M  V30 21734 C 2060.76 0.85974 3.29881 0
M  V30 21735 H 2061.95 2.17823 2.06139 0
M  V30 21736 H 2059.5 1.16069 1.04679 0
M  V30 21737 H 2060.24 -0.107161 3.24123 0
M  V30 21738 H 2060.02 1.63794 3.5625 0
M  V30 21739 H 2061.51 0.804868 4.0977 0
M  V30 21740 N 2061.95 -1.07287 1.15444 0
M  V30 21741 C 2063.36 -1.61368 0.939004 0
M  V30 21742 C 2063.71 -1.89196 -0.519532 0
M  V30 21743 O 2062.84 -1.65791 -1.39076 0
M  V30 21744 C 2063.43 -2.93171 1.69813 0
M  V30 21745 C 2061.99 -3.43992 1.52796 0
M  V30 21746 C 2061.14 -2.1804 1.7133 0
M  V30 21747 H 2064.09 -0.903656 1.3046 0
M  V30 21748 H 2064.11 -3.62129 1.16802 0
M  V30 21749 H 2063.62 -2.72885 2.75963 0
M  V30 21750 H 2061.72 -3.69358 0.490429 0
M  V30 21751 H 2061.84 -4.19988 2.30536 0
M  V30 21752 H 2060.2 -2.2777 1.13987 0
M  V30 21753 H 2060.98 -2.00248 2.78847 0
M  V30 21754 N 2063.43 -0.951342 -1.25647 0
M  V30 21755 C 2064.68 -0.600038 -1.92568 0
M  V30 21756 C 2064.99 0.866499 -1.7536 0
M  V30 21757 O 2066.2 1.32762 -2.36826 0
M  V30 21758 C 2064.65 -1.02246 -3.45071 0
M  V30 21759 C 2064.26 -2.51131 -3.70995 0
M  V30 21760 C 2066 -0.743532 -4.17938 0
M  V30 21761 C 2063.91 -2.87191 -5.16987 0
M  V30 21762 H 2062.84 -0.220706 -0.720975 0
M  V30 21763 H 2065.49 -1.15535 -1.42562 0
M  V30 21764 H 2063.87 -0.395588 -3.94019 0
M  V30 21765 H 2065.05 -3.18809 -3.32712 0
M  V30 21766 H 2063.36 -2.76461 -3.11381 0
M  V30 21767 H 2065.96 -0.989148 -5.25471 0
M  V30 21768 H 2066.3 0.319973 -4.15069 0
M  V30 21769 H 2066.84 -1.3306 -3.74887 0
M  V30 21770 H 2063.57 -3.92545 -5.24965 0
M  V30 21771 H 2063.09 -2.24183 -5.56329 0
M  V30 21772 H 2064.77 -2.76205 -5.85081 0
M  V30 21773 N 2064.91 1.40216 -0.719531 0
M  V30 21774 C 2065.84 2.28192 -0.0185278 0
M  V30 21775 C 2066.82 1.43553 0.763632 0
M  V30 21776 O 2068 1.72961 0.749443 0
M  V30 21777 C 2065.13 3.24179 0.981108 0
M  V30 21778 C 2064.17 4.25518 0.289289 0
M  V30 21779 S 2065.01 5.26351 -0.985661 0
M  V30 21780 C 2066.16 6.25899 0.011772 0
M  V30 21781 H 2066.4 2.87299 -0.764643 0
M  V30 21782 H 2063.93 1.45709 -0.510709 0
M  V30 21783 H 2065.89 3.80005 1.55262 0
M  V30 21784 H 2064.55 2.64122 1.69995 0
M  V30 21785 H 2063.74 4.93045 1.04512 0
M  V30 21786 H 2063.34 3.73411 -0.209776 0
M  V30 21787 H 2065.63 6.72054 0.857313 0
M  V30 21788 H 2066.58 7.0529 -0.630218 0
M  V30 21789 H 2066.99 5.63238 0.377261 0
M  V30 21790 N 2066.38 0.466004 1.50553 0
M  V30 21791 C 2067.66 -0.152071 1.95008 0
M  V30 21792 C 2068.04 -1.57451 1.40614 0
M  V30 21793 O 2067.39 -2.20345 0.605014 0
M  V30 21794 C 2067.6 -0.100584 3.48855 0
M  V30 21795 C 2068.95 -0.291998 4.23595 0
M  V30 21796 O 2069.97 -0.177401 3.55758 0
M  V30 21797 O 2068.83 -0.52288 5.43993 0
M  V30 21798 H 2065.92 -0.114439 0.819044 0
M  V30 21799 H 2068.47 0.526042 1.61341 0
M  V30 21800 H 2067.24 0.892745 3.8098 0
M  V30 21801 H 2066.86 -0.820375 3.89044 0
M  V30 21802 N 2067.86 -1.56346 0.198413 0
M  V30 21803 C 2068.77 -2.22855 -0.733001 0
M  V30 21804 C 2069.79 -1.22868 -1.23205 0
M  V30 21805 O 2070.96 -1.55615 -1.27852 0
M  V30 21806 C 2068.03 -2.87746 -1.93399 0
M  V30 21807 C 2067.09 -4.03012 -1.47919 0
M  V30 21808 C 2066.32 -4.64799 -2.62293 0
M  V30 21809 O 2066.55 -4.25516 -3.79859 0
M  V30 21810 O 2065.48 -5.54206 -2.34817 0
M  V30 21811 H 2069.31 -3.03063 -0.196563 0
M  V30 21812 H 2066.89 -1.49368 -0.0310254 0
M  V30 21813 H 2068.77 -3.28788 -2.63584 0
M  V30 21814 H 2067.45 -2.10514 -2.45897 0
M  V30 21815 H 2066.35 -3.66586 -0.746038 0
M  V30 21816 H 2067.69 -4.81917 -1.00084 0
M  V30 21817 N 2069.34 0.0751653 -1.57421 0
M  V30 21818 C 2070.25 1.10763 -2.06806 0
M  V30 21819 C 2071.27 1.4261 -0.99691 0
M  V30 21820 O 2072.44 1.52854 -1.31139 0
M  V30 21821 C 2069.51 2.40281 -2.49932 0
M  V30 21822 C 2068.57 2.15435 -3.7133 0
M  V30 21823 C 2067.8 3.38777 -4.1239 0
M  V30 21824 O 2068.02 4.4777 -3.53353 0
M  V30 21825 O 2066.96 3.27189 -5.05204 0
M  V30 21826 H 2070.78 0.718102 -2.95088 0
M  V30 21827 H 2068.37 0.289065 -1.46577 0
M  V30 21828 H 2070.25 3.16509 -2.78208 0
M  V30 21829 H 2068.93 2.7862 -1.64781 0
M  V30 21830 H 2067.83 1.36922 -3.48142 0
M  V30 21831 H 2069.17 1.81978 -4.57324 0
M  V30 21832 N 2070.82 1.53744 0.346476 0
M  V30 21833 C 2072.23 1.43943 0.689395 0
M  V30 21834 C 2072.43 0.593819 1.92551 0
M  V30 21835 O 2071.49 0.0836653 2.52361 0
M  V30 21836 C 2072.8 2.87389 0.884766 0
M  V30 21837 C 2074.35 2.97145 0.98357 0
M  V30 21838 C 2074.83 4.41692 1.21128 0
M  V30 21839 N 2076.32 4.45205 1.27855 0
M  V30 21840 C 2077.05 5.54179 1.47219 0
M  V30 21841 N 2076.55 6.73164 1.63775 0
M  V30 21842 N 2078.34 5.41787 1.49743 0
M  V30 21843 H 2070.49 2.07218 -0.466306 0
M  V30 21844 H 2072.76 0.936584 -0.146675 0
M  V30 21845 H 2072.46 3.51667 0.0480249 0
M  V30 21846 H 2072.34 3.32165 1.78736 0
M  V30 21847 H 2074.72 2.33008 1.81084 0
M  V30 21848 H 2074.8 2.55734 0.0579478 0
M  V30 21849 H 2074.45 5.06409 0.388952 0
M  V30 21850 H 2074.38 4.80692 2.15042 0
M  V30 21851 H 2076.87 3.59463 1.16596 0
M  V30 21852 H 2077.18 7.51979 1.78179 0
M  V30 21853 H 2075.53 6.76114 1.60917 0
M  V30 21854 H 2078.72 4.4779 1.36389 0
M  V30 21855 H 2078.89 6.26774 1.64493 0
M  V30 21856 N 2072.3 -0.607329 1.45428 0
M  V30 21857 C 2073.21 -1.7463 1.56657 0
M  V30 21858 C 2074.22 -1.68053 0.451014 0
M  V30 21859 O 2075.4 -1.88405 0.711736 0
M  V30 21860 C 2072.46 -3.11092 1.53045 0
M  V30 21861 C 2071.52 -3.29121 2.75641 0
M  V30 21862 C 2070.76 -4.59072 2.72193 0
M  V30 21863 O 2070.98 -5.41408 1.79536 0
M  V30 21864 O 2069.91 -4.79819 3.63397 0
M  V30 21865 H 2073.74 -1.68108 2.5293 0
M  V30 21866 H 2071.33 -0.771447 1.27942 0
M  V30 21867 H 2073.21 -3.92394 1.5364 0
M  V30 21868 H 2071.88 -3.18105 0.599244 0
M  V30 21869 H 2070.79 -2.47406 2.80608 0
M  V30 21870 H 2072.12 -3.26984 3.67889 0
M  V30 21871 N 2073.77 -1.32722 -0.849853 0
M  V30 21872 C 2075.02 -1.22908 -1.59927 0
M  V30 21873 C 2075.34 0.206455 -1.94507 0
M  V30 21874 O 2076.54 0.426508 -2.68129 0
M  V30 21875 C 2075 -2.15292 -2.88405 0
M  V30 21876 C 2074.61 -3.63954 -2.6123 0
M  V30 21877 C 2076.35 -2.14325 -3.66422 0
M  V30 21878 C 2074.26 -4.48286 -3.85738 0
M  V30 21879 H 2073.19 -0.456463 -0.600132 0
M  V30 21880 H 2075.84 -1.57715 -0.937993 0
M  V30 21881 H 2074.22 -1.73406 -3.56015 0
M  V30 21882 H 2075.39 -4.14213 -2.01901 0
M  V30 21883 H 2073.71 -3.67101 -1.96535 0
M  V30 21884 H 2076.31 -2.74566 -4.58822 0
M  V30 21885 H 2076.65 -1.13547 -4.00516 0
M  V30 21886 H 2077.18 -2.54517 -3.05722 0
M  V30 21887 H 2073.92 -5.49897 -3.56782 0
M  V30 21888 H 2073.44 -4.02776 -4.44446 0
M  V30 21889 H 2075.12 -4.61531 -4.53429 0
M  V30 21890 N 2075.25 1.06673 -1.16011 0
M  V30 21891 C 2076.66 1.60868 -0.947549 0
M  V30 21892 C 2077.01 1.89469 0.509491 0
M  V30 21893 O 2076.14 1.66526 1.38195 0
M  V30 21894 C 2076.73 2.92266 -1.71365 0
M  V30 21895 C 2075.29 3.43177 -1.54618 0
M  V30 21896 C 2074.44 2.17128 -1.72484 0
M  V30 21897 H 2077.39 0.896725 -1.30937 0
M  V30 21898 H 2077.41 3.61505 -1.1872 0
M  V30 21899 H 2076.92 2.71417 -2.77406 0
M  V30 21900 H 2075.03 3.69093 -0.51001 0
M  V30 21901 H 2075.14 4.1876 -2.3276 0
M  V30 21902 H 2073.5 2.27162 -1.15193 0
M  V30 21903 H 2074.29 1.98766 -2.79905 0
M  V30 21904 N 2076.73 0.957992 1.25141 0
M  V30 21905 C 2077.64 0.487592 2.29477 0
M  V30 21906 C 2078.66 -0.446704 1.68168 0
M  V30 21907 O 2079.83 -0.322127 1.98807 0
M  V30 21908 C 2076.9 -0.22393 3.45976 0
M  V30 21909 C 2075.96 0.748994 4.22716 0
M  V30 21910 C 2075.19 0.0713329 5.33652 0
M  V30 21911 O 2075.41 -1.14234 5.58844 0
M  V30 21912 O 2074.35 0.758575 5.97101 0
M  V30 21913 H 2078.17 1.35471 2.71811 0
M  V30 21914 H 2075.76 0.724594 1.30652 0
M  V30 21915 H 2077.64 -0.624039 4.16754 0
M  V30 21916 H 2076.32 -1.06616 3.05638 0
M  V30 21917 H 2075.22 1.19938 3.54353 0
M  V30 21918 H 2076.56 1.55935 4.66846 0
M  V30 21919 N 2078.21 -1.39832 0.726957 0
M  V30 21920 C 2079.62 -1.54462 0.401692 0
M  V30 21921 C 2079.82 -1.6958 -1.08834 0
M  V30 21922 O 2078.88 -1.69177 -1.87444 0
M  V30 21923 C 2080.19 -2.76679 1.17769 0
M  V30 21924 C 2081.74 -2.90507 1.16511 0
M  V30 21925 C 2082.22 -4.1565 1.9235 0
M  V30 21926 N 2083.71 -4.22674 1.89476 0
M  V30 21927 C 2084.44 -5.18437 2.44971 0
M  V30 21928 N 2083.94 -6.20038 3.0907 0
M  V30 21929 N 2085.73 -5.10596 2.3505 0
M  V30 21930 H 2077.88 -1.28266 1.69297 0
M  V30 21931 H 2080.15 -0.621077 0.716217 0
M  V30 21932 H 2079.85 -2.71823 2.2317 0
M  V30 21933 H 2079.73 -3.69115 0.776799 0
M  V30 21934 H 2082.11 -2.94859 0.119254 0
M  V30 21935 H 2082.19 -1.99157 1.60531 0
M  V30 21936 H 2081.84 -4.1206 2.96933 0
M  V30 21937 H 2081.77 -5.0603 1.45743 0
M  V30 21938 H 2084.26 -3.49892 1.42772 0
M  V30 21939 H 2084.57 -6.89555 3.48903 0
M  V30 21940 H 2082.92 -6.20449 3.13158 0
M  V30 21941 H 2086.11 -4.30154 1.84622 0
M  V30 21942 H 2086.28 -5.85053 2.78599 0
M  V30 21943 N 2079.69 -0.473982 -1.50304 0
M  V30 21944 C 2080.91 0.0798733 -2.07246 0
M  V30 21945 C 2081.34 1.3249 -1.33521 0
M  V30 21946 O 2080.69 1.77192 -0.383743 0
M  V30 21947 C 2080.74 0.343926 -3.58956 0
M  V30 21948 O 2079.85 1.42387 -3.8704 0
M  V30 21949 H 2079.19 -0.0142608 -0.663847 0
M  V30 21950 H 2081.72 -0.665854 -1.93462 0
M  V30 21951 H 2081.73 0.583558 -4.03805 0
M  V30 21952 H 2080.4 -0.565855 -4.12033 0
M  V30 21953 H 2078.98 1.17132 -3.54026 0
M  V30 21954 N 2081.16 1.56239 -0.206702 0
M  V30 21955 C 2082.41 1.98954 0.422943 0
M  V30 21956 C 2082.77 1.09166 1.58432 0
M  V30 21957 O 2082.06 0.138466 1.91099 0
M  V30 21958 C 2082.25 3.45345 0.920411 0
M  V30 21959 C 2082.08 4.49293 -0.191223 0
M  V30 21960 C 2080.85 5.01067 -0.652712 0
M  V30 21961 C 2083.05 5.04399 -1.00429 0
M  V30 21962 N 2081.03 5.88697 -1.74096 0
M  V30 21963 C 2082.4 5.88811 -1.94169 0
M  V30 21964 C 2084.46 4.86802 -1.0454 0
M  V30 21965 C 2083.16 6.57506 -2.91682 0
M  V30 21966 C 2085.19 5.56244 -2.00864 0
M  V30 21967 C 2084.55 6.40412 -2.93346 0
M  V30 21968 H 2080.65 0.772447 0.121857 0
M  V30 21969 H 2083.23 1.92134 -0.315064 0
M  V30 21970 H 2081.4 3.52642 1.62782 0
M  V30 21971 H 2083.13 3.75005 1.52163 0
M  V30 21972 H 2079.89 4.72971 -0.243962 0
M  V30 21973 H 2080.31 6.37214 -2.28663 0
M  V30 21974 H 2084.96 4.21395 -0.344349 0
M  V30 21975 H 2082.67 7.22103 -3.62757 0
M  V30 21976 H 2086.26 5.446 -2.047 0
M  V30 21977 H 2085.14 6.932 -3.66665 0
M  V30 21978 N 2082.64 -0.0668159 1.57458 0
M  V30 21979 C 2083.59 -1.09757 2.05076 0
M  V30 21980 C 2084.58 -1.39775 0.957046 0
M  V30 21981 O 2085.79 -1.39123 1.14214 0
M  V30 21982 H 2082.17 -0.371308 0.653938 0
M  V30 21983 H 2084.14 -0.669846 2.90784 0
M  V30 21984 C 2082.89 -2.40144 2.51448 0
M  V30 21985 H 2082.21 -2.17898 3.35202 0
M  V30 21986 H 2083.65 -3.10702 2.88514 0
M  V30 21987 C 2082.11 -3.06457 1.3995 0
M  V30 21988 O 2082.64 -3.94743 0.744392 0
M  V30 21989 N 2080.84 -2.67161 1.14338 0
M  V30 21990 H 2080.39 -1.95457 1.67793 0
M  V30 21991 H 2080.35 -3.11852 0.399425 0
M  V30 21992 N 2084.12 -1.53926 -0.338317 0
M  V30 21993 C 2085.35 -1.75682 -1.1023 0
M  V30 21994 C 2085.77 -0.497087 -1.81413 0
M  V30 21995 O 2085.13 0.550577 -1.72738 0
M  V30 21996 C 2085.18 -2.94038 -2.08743 0
M  V30 21997 O 2084.28 -2.64552 -3.16364 0
M  V30 21998 H 2083.62 -0.582603 -0.318544 0
M  V30 21999 H 2086.15 -2.00904 -0.387113 0
M  V30 22000 H 2086.16 -3.20973 -2.51873 0
M  V30 22001 H 2084.84 -3.854 -1.56331 0
M  V30 22002 H 2083.41 -2.48521 -2.78014 0
M  V30 22003 N 2085.6 0.599608 -1.45748 0
M  V30 22004 C 2086.85 1.3557 -1.49884 0
M  V30 22005 C 2087.17 1.94459 -0.145141 0
M  V30 22006 O 2086.44 1.77615 0.82643 0
M  V30 22007 H 2085.02 0.503305 -0.551991 0
M  V30 22008 H 2087.68 0.703509 -1.8176 0
M  V30 22009 H 2086.78 2.17106 -2.24213 0
M  V30 22010 N 2087.08 1.33171 0.842803 0
M  V30 22011 C 2088.03 1.19669 1.9407 0
M  V30 22012 C 2089.01 0.100588 1.60585 0
M  V30 22013 O 2090.2 0.328293 1.73929 0
M  V30 22014 C 2087.33 0.93406 3.30349 0
M  V30 22015 C 2086.42 2.07242 3.70016 0
M  V30 22016 N 2086.81 3.32205 3.81409 0
M  V30 22017 C 2085.11 1.97824 3.99727 0
M  V30 22018 C 2085.81 4.06841 4.15759 0
M  V30 22019 N 2084.78 3.35244 4.27917 0
M  V30 22020 H 2088.59 2.14393 2.01029 0
M  V30 22021 H 2086.1 1.25122 1.03529 0
M  V30 22022 H 2088.1 0.818267 4.08791 0
M  V30 22023 H 2086.76 -0.00468626 3.247 0
M  V30 22024 H 2087.77 3.67 3.65419 0
M  V30 22025 H 2084.45 1.11584 4.02312 0
M  V30 22026 H 2085.84 5.14659 4.31945 0
M  V30 22027 N 2088.56 -1.06056 1.16576 0
M  V30 22028 C 2089.47 -2.17107 0.888912 0
M  V30 22029 C 2090.48 -1.73438 -0.139723 0
M  V30 22030 O 2091.66 -2.01365 0.0374846 0
M  V30 22031 C 2088.72 -3.44425 0.396494 0
M  V30 22032 C 2087.78 -4.02589 1.49065 0
M  V30 22033 C 2087.02 -5.2383 1.02163 0
M  V30 22034 O 2087.24 -5.70257 -0.127684 0
M  V30 22035 O 2086.17 -5.7401 1.81098 0
M  V30 22036 H 2090 -2.43304 1.81761 0
M  V30 22037 H 2087.58 -1.1564 0.945923 0
M  V30 22038 H 2089.47 -4.21203 0.128983 0
M  V30 22039 H 2088.14 -3.1975 -0.504164 0
M  V30 22040 H 2087.05 -3.27292 1.81193 0
M  V30 22041 H 2088.38 -4.31565 2.3667 0
M  V30 22042 N 2090.03 -0.964615 -1.24631 0
M  V30 22043 C 2091.28 -0.635327 -1.93223 0
M  V30 22044 C 2091.63 0.820083 -1.74047 0
M  V30 22045 O 2090.93 1.58192 -1.08101 0
M  V30 22046 C 2091.12 -0.941821 -3.44767 0
M  V30 22047 C 2090.95 -2.42547 -3.78683 0
M  V30 22048 C 2089.72 -3.08477 -4.00213 0
M  V30 22049 C 2091.92 -3.40538 -3.85407 0
M  V30 22050 N 2089.9 -4.46612 -4.21202 0
M  V30 22051 C 2091.27 -4.64017 -4.11203 0
M  V30 22052 C 2093.33 -3.35238 -3.6813 0
M  V30 22053 C 2092.03 -5.82851 -4.21518 0
M  V30 22054 C 2094.06 -4.5342 -3.79689 0
M  V30 22055 C 2093.42 -5.7569 -4.05907 0
M  V30 22056 H 2089.52 -0.283271 -0.728891 0
M  V30 22057 H 2092.1 -1.23884 -1.50203 0
M  V30 22058 H 2090.27 -0.367147 -3.86661 0
M  V30 22059 H 2092 -0.57142 -4.00646 0
M  V30 22060 H 2088.76 -2.59017 -3.96494 0
M  V30 22061 H 2089.18 -5.18179 -4.35683 0
M  V30 22062 H 2093.82 -2.41747 -3.46869 0
M  V30 22063 H 2091.54 -6.76774 -4.41591 0
M  V30 22064 H 2095.13 -4.50878 -3.67696 0
M  V30 22065 H 2094.01 -6.65612 -4.14646 0
M  V30 22066 N 2091.51 1.39445 -0.734362 0
M  V30 22067 C 2092.76 2.00824 -0.282443 0
M  V30 22068 C 2093.09 1.58137 1.12722 0
M  V30 22069 O 2092.37 0.809969 1.76833 0
M  V30 22070 C 2092.65 3.58051 -0.38359 0
M  V30 22071 C 2092.5 4.10758 -1.83298 0
M  V30 22072 C 2093.82 4.39476 0.234349 0
M  V30 22073 H 2090.94 0.729611 -0.104103 0
M  V30 22074 H 2093.58 1.65661 -0.930397 0
M  V30 22075 H 2091.73 3.88136 0.168068 0
M  V30 22076 H 2093.4 3.91395 -2.44147 0
M  V30 22077 H 2091.65 3.64342 -2.35451 0
M  V30 22078 H 2092.32 5.19897 -1.85503 0
M  V30 22079 H 2094.79 4.15431 -0.235909 0
M  V30 22080 H 2093.67 5.48738 0.133228 0
M  V30 22081 H 2093.93 4.21924 1.32032 0
M  V30 22082 N 2092.99 0.481946 1.5005 0
M  V30 22083 C 2094.22 -0.0666474 2.06793 0
M  V30 22084 C 2094.63 -1.3254 1.34457 0
M  V30 22085 O 2093.99 -1.7767 0.417087 0
M  V30 22086 C 2094.04 -0.343693 3.59862 0
M  V30 22087 O 2093.76 0.86514 4.29473 0
M  V30 22088 C 2095.26 -0.93805 4.33261 0
M  V30 22089 H 2092.48 0.0119311 0.670894 0
M  V30 22090 H 2095.03 0.673843 1.93079 0
M  V30 22091 H 2093.18 -1.03413 3.73342 0
M  V30 22092 H 2093.6 0.616339 5.20866 0
M  V30 22093 H 2095.07 -1.0816 5.413 0
M  V30 22094 H 2095.55 -1.93098 3.94474 0
M  V30 22095 H 2096.15 -0.285663 4.2434 0
M  V30 22096 N 2094.47 -1.56127 0.214985 0
M  V30 22097 C 2095.74 -1.8994 -0.467153 0
M  V30 22098 C 2096.12 -1.13139 -1.78221 0
M  V30 22099 O 2095.47 -0.238654 -2.2725 0
M  V30 22100 C 2095.68 -3.42576 -0.666524 0
M  V30 22101 C 2097.03 -4.13209 -0.976927 0
M  V30 22102 O 2098.05 -3.48138 -0.753545 0
M  V30 22103 O 2096.91 -5.2825 -1.40052 0
M  V30 22104 H 2094.01 -0.789533 -0.246102 0
M  V30 22105 H 2096.55 -1.67748 0.256681 0
M  V30 22106 H 2095.33 -3.90426 0.261344 0
M  V30 22107 H 2094.95 -3.70526 -1.44209 0
M  V30 22108 N 2095.95 0.0584645 -1.57492 0
M  V30 22109 C 2097.19 0.755071 -1.87896 0
M  V30 22110 C 2097.52 1.769 -0.808499 0
M  V30 22111 O 2096.78 1.94736 0.194028 0
M  V30 22112 C 2097.07 1.48699 -3.24998 0
M  V30 22113 C 2096.74 0.611806 -4.4673 0
M  V30 22114 C 2095.4 0.370663 -4.7977 0
M  V30 22115 C 2097.75 0.00576081 -5.212 0
M  V30 22116 C 2095.08 -0.485786 -5.84685 0
M  V30 22117 C 2097.43 -0.838219 -6.27022 0
M  V30 22118 C 2096.1 -1.08911 -6.58555 0
M  V30 22119 H 2095.37 0.2763 -0.68756 0
M  V30 22120 H 2098.02 0.0155215 -1.91494 0
M  V30 22121 H 2096.32 2.2991 -3.17252 0
M  V30 22122 H 2098.02 2.03101 -3.45761 0
M  V30 22123 H 2094.61 0.809892 -4.20878 0
M  V30 22124 H 2098.79 0.179152 -4.95977 0
M  V30 22125 H 2094.05 -0.688773 -6.07508 0
M  V30 22126 H 2098.22 -1.31449 -6.83882 0
M  V30 22127 H 2095.85 -1.7545 -7.39676 0
M  V30 22128 N 2097.42 1.54103 0.330149 0
M  V30 22129 C 2098.37 1.83029 1.40603 0
M  V30 22130 C 2099.34 0.676907 1.51681 0
M  V30 22131 O 2100.53 0.922683 1.67007 0
M  V30 22132 C 2097.67 2.05745 2.77061 0
M  V30 22133 C 2096.78 3.3344 2.74667 0
M  V30 22134 C 2095.91 3.46152 4.02929 0
M  V30 22135 C 2094.95 4.67746 3.94817 0
M  V30 22136 N 2094.09 4.7742 5.14796 0
M  V30 22137 H 2098.93 2.74817 1.15236 0
M  V30 22138 H 2096.47 1.36107 0.557963 0
M  V30 22139 H 2098.42 2.16907 3.56381 0
M  V30 22140 H 2097.05 1.17255 3.00751 0
M  V30 22141 H 2096.11 3.3105 1.87376 0
M  V30 22142 H 2097.42 4.22863 2.64554 0
M  V30 22143 H 2096.57 3.5682 4.90678 0
M  V30 22144 H 2095.31 2.5481 4.15841 0
M  V30 22145 H 2094.32 4.57142 3.05453 0
M  V30 22146 H 2095.54 5.60467 3.83476 0
M  V30 22147 H 2093.49 3.88991 5.28225 0
M  V30 22148 H 2093.4 5.60799 5.06991 0
M  V30 22149 H 2094.67 4.92412 6.04277 0
M  V30 22150 N 2098.9 -0.59187 1.46064 0
M  V30 22151 C 2100.15 -1.34773 1.50601 0
M  V30 22152 C 2100.47 -1.94379 0.155452 0
M  V30 22153 O 2099.74 -1.7805 -0.816999 0
M  V30 22154 H 2098.32 -0.50037 0.554652 0
M  V30 22155 H 2100.98 -0.69386 1.82131 0
M  V30 22156 H 2100.08 -2.15914 2.25361 0
M  V30 22157 N 2100.38 -1.33616 -0.835729 0
M  V30 22158 C 2101.33 -1.24131 -1.94577 0
M  V30 22159 C 2102.3 -0.119257 -1.65671 0
M  V30 22160 O 2103.48 -0.298063 -1.88457 0
M  V30 22161 C 2100.62 -0.989665 -3.30605 0
M  V30 22162 C 2099.74 -2.19828 -3.71887 0
M  V30 22163 C 2098.87 -1.88052 -4.96799 0
M  V30 22164 C 2097.91 -3.05128 -5.30625 0
M  V30 22165 N 2097.05 -2.7332 -6.46715 0
M  V30 22166 H 2101.89 -2.19069 -2.02022 0
M  V30 22167 H 2099.42 -1.08932 -0.988545 0
M  V30 22168 H 2101.38 -0.824187 -4.08978 0
M  V30 22169 H 2100.01 -0.0770128 -3.22708 0
M  V30 22170 H 2099.06 -2.4734 -2.89011 0
M  V30 22171 H 2100.38 -3.07341 -3.92865 0
M  V30 22172 H 2099.53 -1.68166 -5.82928 0
M  V30 22173 H 2098.27 -0.977799 -4.77797 0
M  V30 22174 H 2097.27 -3.25624 -4.43 0
M  V30 22175 H 2098.5 -3.9616 -5.51574 0
M  V30 22176 H 2096.44 -1.8561 -6.29194 0
M  V30 22177 H 2096.36 -3.54365 -6.67804 0
M  V30 22178 H 2097.63 -2.56909 -7.35947 0
M  V30 22179 N 2101.86 1.05436 -1.17136 0
M  V30 22180 C 2103.09 1.82074 -0.982688 0
M  V30 22181 C 2103.5 1.8288 0.469081 0
M  V30 22182 O 2102.86 1.25425 1.3257 0
M  V30 22183 C 2102.91 3.28302 -1.51328 0
M  V30 22184 O 2102.63 3.27651 -2.9082 0
M  V30 22185 C 2104.13 4.21637 -1.36885 0
M  V30 22186 H 2101.35 0.57382 -0.347811 0
M  V30 22187 H 2103.9 1.32971 -1.55367 0
M  V30 22188 H 2102.05 3.74685 -0.984381 0
M  V30 22189 H 2102.46 4.19154 -3.15294 0
M  V30 22190 H 2103.94 5.2223 -1.78828 0
M  V30 22191 H 2104.42 4.38065 -0.315584 0
M  V30 22192 H 2105.02 3.81107 -1.88779 0
M  V30 22193 N 2103.34 0.971211 1.24118 0
M  V30 22194 C 2104.58 0.635963 1.9257 0
M  V30 22195 C 2104.92 -0.827222 1.75701 0
M  V30 22196 O 2104.19 -1.59559 1.11226 0
M  V30 22197 C 2104.47 1.01581 3.45476 0
M  V30 22198 C 2104.33 2.53595 3.71497 0
M  V30 22199 C 2105.65 0.552941 4.36613 0
M  V30 22200 H 2102.76 0.232516 0.699361 0
M  V30 22201 H 2105.41 1.21085 1.46419 0
M  V30 22202 H 2103.56 0.526628 3.84914 0
M  V30 22203 H 2105.23 3.10016 3.41596 0
M  V30 22204 H 2103.47 2.96637 3.16526 0
M  V30 22205 H 2104.14 2.75222 4.78494 0
M  V30 22206 H 2106.62 0.972795 4.04569 0
M  V30 22207 H 2105.49 0.847244 5.42322 0
M  V30 22208 H 2105.76 -0.54692 4.38704 0
M  V30 22209 N 2104.81 -1.39054 0.741747 0
M  V30 22210 C 2106.06 -2.01145 0.302004 0
M  V30 22211 C 2106.42 -1.57814 -1.10057 0
M  V30 22212 O 2105.71 -0.800162 -1.74092 0
M  V30 22213 C 2105.9 -3.55684 0.349795 0
M  V30 22214 C 2105.73 -4.14021 1.75548 0
M  V30 22215 C 2104.5 -4.46311 2.36928 0
M  V30 22216 C 2106.7 -4.37096 2.7102 0
M  V30 22217 N 2104.68 -4.90187 3.6958 0
M  V30 22218 C 2106.05 -4.83251 3.88418 0
M  V30 22219 C 2108.11 -4.19175 2.68695 0
M  V30 22220 C 2106.81 -5.13365 5.03834 0
M  V30 22221 C 2108.84 -4.50406 3.8326 0
M  V30 22222 C 2108.2 -4.96774 4.99395 0
M  V30 22223 H 2104.3 -0.766095 0.156914 0
M  V30 22224 H 2106.88 -1.68865 0.969164 0
M  V30 22225 H 2105.05 -3.87338 -0.287041 0
M  V30 22226 H 2106.78 -4.04553 -0.109138 0
M  V30 22227 H 2103.54 -4.34343 1.88794 0
M  V30 22228 H 2103.96 -5.16475 4.37702 0
M  V30 22229 H 2108.61 -3.82524 1.80098 0
M  V30 22230 H 2106.32 -5.48918 5.93055 0
M  V30 22231 H 2109.91 -4.38156 3.82767 0
M  V30 22232 H 2108.79 -5.20481 5.86574 0
M  V30 22233 N 2106.29 -0.489897 -1.49792 0
M  V30 22234 C 2107.54 0.0585441 -2.02415 0
M  V30 22235 C 2107.87 1.38015 -1.37048 0
M  V30 22236 O 2107.12 1.89427 -0.491526 0
M  V30 22237 C 2107.42 0.271059 -3.56371 0
M  V30 22238 C 2107.09 -0.971168 -4.40317 0
M  V30 22239 C 2105.75 -1.31171 -4.62977 0
M  V30 22240 C 2108.1 -1.79739 -4.89227 0
M  V30 22241 C 2105.43 -2.47819 -5.31792 0
M  V30 22242 C 2107.78 -2.95531 -5.59325 0
M  V30 22243 C 2106.45 -3.29978 -5.80234 0
M  V30 22244 H 2105.72 0.0214228 -0.74069 0
M  V30 22245 H 2108.36 -0.6478 -1.8021 0
M  V30 22246 H 2106.67 1.05983 -3.77193 0
M  V30 22247 H 2108.36 0.70968 -3.9467 0
M  V30 22248 H 2104.95 -0.695889 -4.22913 0
M  V30 22249 H 2109.14 -1.54746 -4.71559 0
M  V30 22250 H 2104.39 -2.74759 -5.46185 0
M  V30 22251 H 2108.57 -3.59885 -5.96201 0
M  V30 22252 H 2106.2 -4.2047 -6.33332 0
M  V30 22253 N 2107.77 1.56011 -0.223262 0
M  V30 22254 C 2109.02 1.98642 0.408581 0
M  V30 22255 C 2109.35 1.11082 1.59294 0
M  V30 22256 O 2108.62 0.168881 1.93765 0
M  V30 22257 C 2108.91 3.5013 0.841473 0
M  V30 22258 C 2108.76 4.48462 -0.346639 0
M  V30 22259 C 2110.08 4.06065 1.69703 0
M  V30 22260 H 2107.2 0.722183 0.147039 0
M  V30 22261 H 2109.84 1.87289 -0.319839 0
M  V30 22262 H 2107.99 3.59936 1.46214 0
M  V30 22263 H 2109.66 4.50665 -0.98481 0
M  V30 22264 H 2107.91 4.22263 -0.993788 0
M  V30 22265 H 2108.58 5.52 -0.00078187 0
M  V30 22266 H 2111.05 3.99215 1.17332 0
M  V30 22267 H 2109.93 5.12376 1.96882 0
M  V30 22268 H 2110.19 3.53054 2.66093 0
M  V30 22269 N 2109.25 -0.0501116 1.5752 0
M  V30 22270 C 2110.66 -0.599337 1.76819 0
M  V30 22271 C 2111.01 -1.76753 0.851625 0
M  V30 22272 O 2110.14 -2.16361 0.0411012 0
M  V30 22273 C 2110.73 -1.09402 3.2065 0
M  V30 22274 C 2109.29 -1.58893 3.41219 0
M  V30 22275 C 2108.44 -0.517719 2.72424 0
M  V30 22276 H 2111.39 0.176108 1.5772 0
M  V30 22277 H 2111.41 -1.96217 3.26005 0
M  V30 22278 H 2110.92 -0.243574 3.87335 0
M  V30 22279 H 2109.02 -2.46191 2.7968 0
M  V30 22280 H 2109.13 -1.65093 4.49757 0
M  V30 22281 H 2107.5 -0.967874 2.35594 0
M  V30 22282 H 2108.28 0.322904 3.41778 0
M  V30 22283 N 2110.73 -1.54276 -0.321972 0
M  V30 22284 C 2111.95 -1.76841 -1.0836 0
M  V30 22285 C 2112.38 -0.5163 -1.80876 0
M  V30 22286 O 2111.73 0.532225 -1.73312 0
M  V30 22287 C 2111.78 -2.96236 -2.05613 0
M  V30 22288 O 2110.89 -2.67893 -3.1354 0
M  V30 22289 H 2110.23 -0.585948 -0.312347 0
M  V30 22290 H 2112.76 -2.01304 -0.365783 0
M  V30 22291 H 2112.77 -3.23627 -2.48455 0
M  V30 22292 H 2111.44 -3.87037 -1.52234 0
M  V30 22293 H 2110.02 -2.51456 -2.75362 0
M  V30 22294 N 2112.2 0.584116 -1.46376 0
M  V30 22295 C 2113.45 1.33858 -1.5088 0
M  V30 22296 C 2113.77 1.94909 -0.164319 0
M  V30 22297 O 2114.97 2.7136 -0.0871554 0
M  V30 22298 C 2113.43 2.42594 -2.6585 0
M  V30 22299 C 2113.04 1.87853 -4.06713 0
M  V30 22300 C 2114.78 3.19391 -2.79624 0
M  V30 22301 C 2112.69 2.94209 -5.13026 0
M  V30 22302 H 2111.62 0.503207 -0.561515 0
M  V30 22303 H 2114.27 0.623507 -1.72582 0
M  V30 22304 H 2112.65 3.16894 -2.37475 0
M  V30 22305 H 2113.82 1.20105 -4.44872 0
M  V30 22306 H 2112.14 1.23726 -3.97594 0
M  V30 22307 H 2114.74 3.98763 -3.56219 0
M  V30 22308 H 2115.08 3.71891 -1.8709 0
M  V30 22309 H 2115.61 2.52197 -3.07638 0
M  V30 22310 H 2112.35 2.46598 -6.07347 0
M  V30 22311 H 2111.87 3.6045 -4.79412 0
M  V30 22312 H 2113.55 3.58184 -5.38807 0
M  V30 22313 N 2113.68 1.34058 0.828631 0
M  V30 22314 C 2114.63 1.25161 1.93916 0
M  V30 22315 C 2115.6 0.128041 1.65606 0
M  V30 22316 O 2116.79 0.308053 1.88297 0
M  V30 22317 C 2113.93 1.00718 3.30075 0
M  V30 22318 C 2113.04 2.21797 3.70716 0
M  V30 22319 C 2112.17 1.90684 4.95795 0
M  V30 22320 C 2111.21 3.07938 5.29 0
M  V30 22321 N 2110.35 2.76746 6.45257 0
M  V30 22322 H 2115.19 2.20137 2.00857 0
M  V30 22323 H 2112.73 1.09455 0.982754 0
M  V30 22324 H 2114.68 0.845864 4.08535 0
M  V30 22325 H 2113.31 0.0941257 3.22663 0
M  V30 22326 H 2112.37 2.48869 2.87695 0
M  V30 22327 H 2113.68 3.09421 3.91229 0
M  V30 22328 H 2112.83 1.71255 5.82028 0
M  V30 22329 H 2111.57 1.00312 4.77272 0
M  V30 22330 H 2110.58 3.27969 4.41267 0
M  V30 22331 H 2111.8 3.9908 5.49465 0
M  V30 22332 H 2109.75 1.88944 6.28201 0
M  V30 22333 H 2109.66 3.57901 6.65915 0
M  V30 22334 H 2110.93 2.60808 7.34574 0
M  V30 22335 N 2115.16 -1.04814 1.17694 0
M  V30 22336 C 2116.39 -1.8155 0.99233 0
M  V30 22337 C 2116.8 -1.83126 -0.459376 0
M  V30 22338 O 2116.16 -1.26127 -1.31903 0
M  V30 22339 C 2116.21 -3.27495 1.53067 0
M  V30 22340 O 2115.93 -3.26104 2.92554 0
M  V30 22341 C 2117.43 -4.20905 1.39119 0
M  V30 22342 H 2114.65 -0.571967 0.350849 0
M  V30 22343 H 2117.2 -1.32145 1.5607 0
M  V30 22344 H 2115.35 -3.74157 1.00424 0
M  V30 22345 H 2115.77 -4.17476 3.17512 0
M  V30 22346 H 2117.24 -5.21275 1.81595 0
M  V30 22347 H 2117.72 -4.37891 0.338812 0
M  V30 22348 H 2118.32 -3.801 1.90798 0
M  V30 22349 N 2116.64 -0.977779 -1.23601 0
M  V30 22350 C 2117.89 -0.643936 -1.91567 0
M  V30 22351 C 2118.21 0.824798 -1.76698 0
M  V30 22352 O 2117.48 1.58974 -1.14473 0
M  V30 22353 H 2116.06 -0.235177 -0.709014 0
M  V30 22354 H 2118.72 -1.24103 -1.50282 0
M  V30 22355 H 2117.82 -0.893282 -2.99043 0
M  V30 22356 N 2118.12 1.38658 -0.749111 0
M  V30 22357 C 2119.07 2.3235 -0.10773 0
M  V30 22358 C 2120.06 1.5379 0.710284 0
M  V30 22359 O 2121.27 1.69353 0.609885 0
M  V30 22360 H 2117.64 0.751829 -0.0160406 0
M  V30 22361 H 2119.61 2.84055 -0.91408 0
M  V30 22362 C 2118.36 3.38962 0.774615 0
M  V30 22363 H 2117.68 3.99501 0.154555 0
M  V30 22364 H 2119.12 4.06936 1.19076 0
M  V30 22365 C 2117.58 2.77165 1.91524 0
M  V30 22366 O 2118.11 2.66119 3.00904 0
M  V30 22367 N 2116.32 2.35041 1.70892 0
M  V30 22368 H 2115.87 2.44224 0.819286 0
M  V30 22369 H 2115.82 1.94035 2.47382 0
M  V30 22370 N 2119.6 0.497834 1.49531 0
M  V30 22371 C 2120.87 -0.110673 1.95287 0
M  V30 22372 C 2121.25 -1.54433 1.43923 0
M  V30 22373 O 2120.6 -2.19012 0.651616 0
M  V30 22374 C 2120.81 -0.0265636 3.4899 0
M  V30 22375 C 2122.16 -0.202082 4.24119 0
M  V30 22376 O 2123.18 -0.1019 3.56054 0
M  V30 22377 O 2122.04 -0.407373 5.4498 0
M  V30 22378 H 2119.14 -0.0970406 0.821287 0
M  V30 22379 H 2121.68 0.560146 1.60189 0
M  V30 22380 H 2120.45 0.973355 3.79001 0
M  V30 22381 H 2120.08 -0.737668 3.90697 0
M  V30 22382 N 2121.07 -1.5589 0.231532 0
M  V30 22383 C 2122.32 -1.97737 -0.397859 0
M  V30 22384 C 2122.64 -1.12252 -1.60184 0
M  V30 22385 O 2123.84 -1.44042 -2.30139 0
M  V30 22386 C 2122.3 -3.518 -0.759238 0
M  V30 22387 C 2121.91 -4.46003 0.422484 0
M  V30 22388 C 2123.65 -4.02338 -1.35368 0
M  V30 22389 C 2121.56 -5.91388 0.0381149 0
M  V30 22390 H 2120.49 -0.738433 -0.152423 0
M  V30 22391 H 2123.14 -1.80521 0.329322 0
M  V30 22392 H 2121.52 -3.64654 -1.54412 0
M  V30 22393 H 2122.69 -4.44902 1.19996 0
M  V30 22394 H 2121.01 -4.05863 0.930821 0
M  V30 22395 H 2123.61 -5.08464 -1.65433 0
M  V30 22396 H 2123.95 -3.48776 -2.2729 0
M  V30 22397 H 2124.48 -3.92747 -0.632021 0
M  V30 22398 H 2121.22 -6.48954 0.924083 0
M  V30 22399 H 2120.74 -5.9566 -0.703473 0
M  V30 22400 H 2122.42 -6.45853 -0.385094 0
M  V30 22401 N 2122.55 0.0417572 -1.57545 0
M  V30 22402 C 2123.51 1.03085 -2.0471 0
M  V30 22403 C 2124.51 1.29808 -0.94903 0
M  V30 22404 O 2125.7 1.25024 -1.21304 0
M  V30 22405 C 2122.84 2.367 -2.45329 0
M  V30 22406 H 2124.03 0.623701 -2.93343 0
M  V30 22407 H 2121.58 0.288275 -1.53619 0
M  V30 22408 H 2122.32 2.82188 -1.59813 0
M  V30 22409 H 2122.1 2.18637 -3.25485 0
M  V30 22410 H 2123.59 3.07737 -2.8229 0
M  V30 22411 N 2124.03 1.54445 0.313786 0
M  V30 22412 C 2124.99 1.8378 1.36959 0
M  V30 22413 C 2125.99 0.710053 1.44274 0
M  V30 22414 O 2127.18 0.978359 1.44131 0
M  V30 22415 C 2124.31 2.00661 2.75586 0
M  V30 22416 H 2125.51 2.78122 1.12197 0
M  V30 22417 H 2123.06 1.46311 0.549789 0
M  V30 22418 H 2123.8 1.08564 3.05589 0
M  V30 22419 H 2123.58 2.82734 2.71669 0
M  V30 22420 H 2125.07 2.24771 3.51948 0
M  V30 22421 N 2125.51 -0.576345 1.46683 0
M  V30 22422 C 2126.75 -1.3453 1.53886 0
M  V30 22423 C 2127.11 -1.91071 0.188643 0
M  V30 22424 O 2128.31 -2.68459 0.135445 0
M  V30 22425 C 2126.58 -2.4398 2.61168 0
M  V30 22426 S 2128.14 -3.31217 2.87821 0
M  V30 22427 H 2124.96 -0.458249 0.543626 0
M  V30 22428 H 2127.56 -0.661885 1.83955 0
M  V30 22429 H 2126.27 -2.00844 3.57896 0
M  V30 22430 H 2125.8 -3.17086 2.32852 0
M  V30 22431 H 2127.81 -4.42977 2.23576 0
M  V30 22432 N 2126.99 -1.34495 -0.82151 0
M  V30 22433 C 2127.92 -1.28835 -1.94741 0
M  V30 22434 C 2128.9 -0.165528 -1.69293 0
M  V30 22435 O 2130.08 -0.358115 -1.9087 0
M  V30 22436 C 2127.21 -1.04446 -3.31222 0
M  V30 22437 C 2126.17 -2.13209 -3.71114 0
M  V30 22438 C 2125.49 -1.74007 -5.05594 0
M  V30 22439 C 2126.79 -3.55051 -3.83062 0
M  V30 22440 H 2128.49 -2.23039 -1.99734 0
M  V30 22441 H 2126.03 -1.07369 -0.959573 0
M  V30 22442 H 2127.98 -0.991306 -4.09574 0
M  V30 22443 H 2126.71 -0.0668391 -3.26532 0
M  V30 22444 H 2125.37 -2.17597 -2.95038 0
M  V30 22445 H 2125.02 -0.749021 -4.97392 0
M  V30 22446 H 2124.72 -2.46803 -5.33256 0
M  V30 22447 H 2126.24 -1.7019 -5.86402 0
M  V30 22448 H 2127.65 -3.53068 -4.51681 0
M  V30 22449 H 2126.05 -4.2648 -4.22179 0
M  V30 22450 H 2127.12 -3.92289 -2.85021 0
M  V30 22451 N 2128.46 1.04188 -1.18248 0
M  V30 22452 C 2129.88 1.29568 -0.931902 0
M  V30 22453 C 2130.08 1.97424 0.403235 0
M  V30 22454 O 2129.14 2.25409 1.13785 0
M  V30 22455 C 2130.45 2.15557 -2.09656 0
M  V30 22456 C 2132 2.28907 -2.13473 0
M  V30 22457 C 2132.47 3.18262 -3.29353 0
M  V30 22458 N 2133.96 3.25849 -3.29206 0
M  V30 22459 C 2134.7 3.95141 -4.15513 0
M  V30 22460 N 2134.19 4.66775 -5.1195 0
M  V30 22461 N 2135.99 3.91408 -4.03431 0
M  V30 22462 H 2128.14 0.585496 -2.04171 0
M  V30 22463 H 2130.4 0.320854 -0.892052 0
M  V30 22464 H 2130.11 1.73002 -3.06208 0
M  V30 22465 H 2129.98 3.16231 -2.05616 0
M  V30 22466 H 2132.37 2.70698 -1.175 0
M  V30 22467 H 2132.45 1.27828 -2.21571 0
M  V30 22468 H 2132.09 2.77182 -4.25597 0
M  V30 22469 H 2132.02 4.1937 -3.18491 0
M  V30 22470 H 2134.51 2.74819 -2.59389 0
M  V30 22471 H 2134.83 5.17239 -5.74181 0
M  V30 22472 H 2133.17 4.65683 -5.15911 0
M  V30 22473 H 2136.36 3.34577 -3.27377 0
M  V30 22474 H 2136.54 4.45139 -4.70909 0
M  V30 22475 N 2129.94 0.98432 1.23081 0
M  V30 22476 C 2130.89 0.527474 2.24692 0
M  V30 22477 C 2131.86 -0.435706 1.60284 0
M  V30 22478 O 2133.04 -0.342378 1.87703 0
M  V30 22479 C 2130.18 -0.160141 3.44728 0
M  V30 22480 C 2129.3 0.843763 4.2368 0
M  V30 22481 C 2128.43 0.130552 5.3104 0
M  V30 22482 C 2127.47 1.1234 6.01703 0
M  V30 22483 N 2126.61 0.439082 7.00726 0
M  V30 22484 H 2131.45 1.39873 2.63134 0
M  V30 22485 H 2128.99 0.700815 1.29333 0
M  V30 22486 H 2130.94 -0.575649 4.1321 0
M  V30 22487 H 2129.57 -0.995239 3.07075 0
M  V30 22488 H 2128.63 1.37764 3.54578 0
M  V30 22489 H 2129.94 1.60017 4.72436 0
M  V30 22490 H 2129.09 -0.342123 6.05735 0
M  V30 22491 H 2127.83 -0.65843 4.83235 0
M  V30 22492 H 2126.84 1.60679 5.25797 0
M  V30 22493 H 2128.06 1.91311 6.51596 0
M  V30 22494 H 2126.01 -0.33062 6.55166 0
M  V30 22495 H 2125.92 1.13408 7.47445 0
M  V30 22496 H 2127.19 -0.0110751 7.79499 0
M  V30 22497 N 2131.42 -1.38259 0.756453 0
M  V30 22498 C 2132.37 -2.3229 0.120051 0
M  V30 22499 C 2133.36 -1.54164 -0.702119 0
M  V30 22500 O 2134.57 -1.69674 -0.600895 0
M  V30 22501 H 2130.94 -0.751733 0.0200275 0
M  V30 22502 H 2132.91 -2.83566 0.929131 0
M  V30 22503 C 2131.66 -3.39368 -0.756628 0
M  V30 22504 H 2130.99 -3.99577 -0.133366 0
M  V30 22505 H 2132.43 -4.07562 -1.16916 0
M  V30 22506 C 2130.89 -2.78176 -1.90051 0
M  V30 22507 O 2131.42 -2.67711 -2.99489 0
M  V30 22508 N 2129.62 -2.35944 -1.69644 0
M  V30 22509 H 2129.17 -2.44655 -0.806323 0
M  V30 22510 H 2129.13 -1.95344 -2.46349 0
M  V30 22511 N 2132.9 -0.505757 -1.49264 0
M  V30 22512 C 2134.15 0.0369987 -2.02066 0
M  V30 22513 C 2134.47 1.37044 -1.38723 0
M  V30 22514 O 2133.74 1.8819 -0.544182 0
M  V30 22515 H 2132.32 0.0166628 -0.746814 0
M  V30 22516 H 2134.98 -0.66408 -1.83238 0
M  V30 22517 H 2134.08 0.163179 -3.11673 0
M  V30 22518 N 2134.38 1.55765 -0.239796 0
M  V30 22519 C 2135.32 2.2108 0.662746 0
M  V30 22520 C 2136.29 1.17233 1.17668 0
M  V30 22521 O 2137.48 1.45655 1.23245 0
M  V30 22522 C 2134.62 2.90865 1.85719 0
M  V30 22523 C 2133.73 4.0935 1.38044 0
M  V30 22524 C 2132.87 4.6687 2.53389 0
M  V30 22525 C 2131.91 5.77619 2.02541 0
M  V30 22526 N 2131.04 6.29351 3.11225 0
M  V30 22527 H 2135.88 2.97835 0.0990722 0
M  V30 22528 H 2133.42 1.47053 0.0371415 0
M  V30 22529 H 2135.38 3.2952 2.55875 0
M  V30 22530 H 2134.01 2.16596 2.39345 0
M  V30 22531 H 2133.06 3.76057 0.573171 0
M  V30 22532 H 2134.37 4.89322 0.96774 0
M  V30 22533 H 2133.53 5.08062 3.31598 0
M  V30 22534 H 2132.26 3.861 2.97957 0
M  V30 22535 H 2131.27 5.35911 1.22799 0
M  V30 22536 H 2132.49 6.60236 1.5895 0
M  V30 22537 H 2130.44 5.51488 3.55241 0
M  V30 22538 H 2130.36 7.04497 2.74263 0
M  V30 22539 H 2131.63 6.75202 3.89516 0
M  V30 22540 N 2135.85 -0.0334016 1.57565 0
M  V30 22541 C 2137.27 -0.388971 1.54788 0
M  V30 22542 C 2137.47 -1.76871 0.965337 0
M  V30 22543 O 2136.53 -2.45642 0.584492 0
M  V30 22544 C 2137.84 -0.2948 2.99251 0
M  V30 22545 C 2139.39 -0.372199 3.10779 0
M  V30 22546 C 2139.86 -0.307524 4.56966 0
M  V30 22547 N 2141.35 -0.36645 4.61748 0
M  V30 22548 C 2142.09 -0.339229 5.72396 0
M  V30 22549 N 2141.58 -0.264554 6.92295 0
M  V30 22550 N 2143.38 -0.388638 5.60755 0
M  V30 22551 H 2135.53 0.869581 1.93783 0
M  V30 22552 H 2137.79 0.330231 0.888623 0
M  V30 22553 H 2137.5 0.653177 3.45581 0
M  V30 22554 H 2137.37 -1.09016 3.61103 0
M  V30 22555 H 2139.76 -1.31061 2.64399 0
M  V30 22556 H 2139.84 0.452431 2.51767 0
M  V30 22557 H 2139.48 0.627198 5.04013 0
M  V30 22558 H 2139.41 -1.1502 5.13885 0
M  V30 22559 H 2141.9 -0.426853 3.75482 0
M  V30 22560 H 2142.22 -0.248764 7.724 0
M  V30 22561 H 2140.56 -0.230666 6.94617 0
M  V30 22562 H 2143.75 -0.444937 4.65981 0
M  V30 22563 H 2143.93 -0.363955 6.46977 0
M  V30 22564 N 2137.33 -1.54609 -0.305591 0
M  V30 22565 C 2138.58 -1.73929 -1.04291 0
M  V30 22566 C 2138.91 -0.521093 -1.87078 0
M  V30 22567 O 2138.19 0.481847 -1.88437 0
M  V30 22568 C 2138.47 -3.02557 -1.95272 0
M  V30 22569 C 2138.32 -4.34666 -1.15695 0
M  V30 22570 C 2139.64 -3.27028 -2.94517 0
M  V30 22571 H 2136.76 -0.632835 -0.377741 0
M  V30 22572 H 2139.4 -1.87321 -0.317961 0
M  V30 22573 H 2137.55 -2.91271 -2.57087 0
M  V30 22574 H 2139.22 -4.57863 -0.562028 0
M  V30 22575 H 2137.47 -4.31359 -0.459568 0
M  V30 22576 H 2138.14 -5.20925 -1.82595 0
M  V30 22577 H 2140.61 -3.37894 -2.42831 0
M  V30 22578 H 2139.49 -4.18355 -3.55346 0
M  V30 22579 H 2139.75 -2.45106 -3.67934 0
M  V30 22580 N 2138.81 0.568558 -1.46987 0
M  V30 22581 C 2140.06 1.32251 -1.52291 0
M  V30 22582 C 2140.37 1.94723 -0.184983 0
M  V30 22583 O 2141.58 2.71252 -0.115932 0
M  V30 22584 C 2140.03 2.3976 -2.68408 0
M  V30 22585 C 2139.64 1.83528 -4.08682 0
M  V30 22586 C 2141.39 3.16408 -2.82996 0
M  V30 22587 C 2139.29 2.88751 -5.16117 0
M  V30 22588 H 2138.22 0.497223 -0.56682 0
M  V30 22589 H 2140.87 0.605168 -1.73234 0
M  V30 22590 H 2139.26 3.14357 -2.40823 0
M  V30 22591 H 2140.43 1.1538 -4.46121 0
M  V30 22592 H 2138.75 1.19503 -3.98884 0
M  V30 22593 H 2141.34 3.94962 -3.60429 0
M  V30 22594 H 2141.69 3.69886 -1.91024 0
M  V30 22595 H 2142.22 2.4892 -3.10296 0
M  V30 22596 H 2138.96 2.40142 -6.09928 0
M  V30 22597 H 2138.48 3.55345 -4.83208 0
M  V30 22598 H 2140.16 3.52449 -5.42576 0
M  V30 22599 N 2140.29 1.34929 0.814366 0
M  V30 22600 C 2141.22 1.2306 1.93362 0
M  V30 22601 C 2142.23 0.155675 1.62054 0
M  V30 22602 O 2143.42 0.408278 1.73768 0
M  V30 22603 C 2140.52 0.870492 3.2753 0
M  V30 22604 C 2139.7 2.04217 3.868 0
M  V30 22605 C 2138.75 1.65909 4.9936 0
M  V30 22606 O 2137.78 2.37681 5.172 0
M  V30 22607 N 2138.98 0.578203 5.77613 0
M  V30 22608 H 2141.75 2.19486 2.04074 0
M  V30 22609 H 2139.31 1.27996 0.991391 0
M  V30 22610 H 2141.3 0.59585 4.0029 0
M  V30 22611 H 2139.87 -0.00384556 3.126 0
M  V30 22612 H 2139.09 2.48106 3.06328 0
M  V30 22613 H 2140.38 2.82556 4.23131 0
M  V30 22614 H 2139.78 -0.0182731 5.65697 0
M  V30 22615 H 2138.33 0.363319 6.50787 0
M  V30 22616 N 2141.77 -1.0356 1.18799 0
M  V30 22617 C 2142.7 -2.13602 0.943213 0
M  V30 22618 C 2143.68 -1.69669 -0.120965 0
M  V30 22619 O 2144.86 -1.94173 0.0326748 0
M  V30 22620 C 2141.99 -3.44054 0.473716 0
M  V30 22621 C 2140.95 -4.01635 1.47896 0
M  V30 22622 C 2140.27 -5.27628 0.866789 0
M  V30 22623 C 2141.57 -4.3722 2.8572 0
M  V30 22624 H 2143.27 -2.34336 1.86351 0
M  V30 22625 H 2140.81 -1.12617 0.897406 0
M  V30 22626 H 2142.77 -4.20402 0.289804 0
M  V30 22627 H 2141.49 -3.23021 -0.482167 0
M  V30 22628 H 2140.15 -3.27374 1.6499 0
M  V30 22629 H 2139.8 -5.02908 -0.0964386 0
M  V30 22630 H 2139.5 -5.67115 1.53799 0
M  V30 22631 H 2141.02 -6.06649 0.693523 0
M  V30 22632 H 2142.43 -5.04533 2.72248 0
M  V30 22633 H 2140.83 -4.87771 3.49571 0
M  V30 22634 H 2141.9 -3.46821 3.38885 0
M  V30 22635 N 2143.25 -0.990834 -1.22557 0
M  V30 22636 C 2144.47 -0.683595 -1.9581 0
M  V30 22637 C 2144.9 0.744808 -1.72726 0
M  V30 22638 O 2144.25 1.50883 -1.00518 0
M  V30 22639 C 2144.3 -0.992665 -3.46668 0
M  V30 22640 O 2143.41 -0.0902361 -4.12301 0
M  V30 22641 H 2142.75 -0.256053 -0.612644 0
M  V30 22642 H 2145.28 -1.32725 -1.55709 0
M  V30 22643 H 2145.29 -0.933654 -3.97174 0
M  V30 22644 H 2143.96 -2.03353 -3.62795 0
M  V30 22645 H 2142.54 -0.204554 -3.72339 0
M  V30 22646 N 2144.72 1.37856 -0.763775 0
M  V30 22647 C 2146.14 1.53343 -0.442503 0
M  V30 22648 C 2146.34 1.72406 1.04299 0
M  V30 22649 O 2145.4 1.74087 1.82893 0
M  V30 22650 C 2146.71 2.73459 -1.25063 0
M  V30 22651 C 2148.26 2.87315 -1.24173 0
M  V30 22652 C 2148.73 4.10404 -2.03303 0
M  V30 22653 N 2150.22 4.17501 -2.00616 0
M  V30 22654 C 2150.96 5.11759 -2.58631 0
M  V30 22655 N 2150.45 6.11626 -3.25401 0
M  V30 22656 N 2152.25 5.04184 -2.48505 0
M  V30 22657 H 2144.4 1.23733 -1.72638 0
M  V30 22658 H 2146.66 0.601869 -0.732432 0
M  V30 22659 H 2146.37 2.65811 -2.30299 0
M  V30 22660 H 2146.24 3.66925 -0.87439 0
M  V30 22661 H 2148.63 2.94439 -0.197389 0
M  V30 22662 H 2148.71 1.9483 -1.65755 0
M  V30 22663 H 2148.35 4.04042 -3.07754 0
M  V30 22664 H 2148.28 5.01988 -1.59108 0
M  V30 22665 H 2150.77 3.45984 -1.51998 0
M  V30 22666 H 2151.09 6.80062 -3.67063 0
M  V30 22667 H 2149.43 6.11928 -3.29498 0
M  V30 22668 H 2152.62 4.25108 -1.95962 0
M  V30 22669 H 2152.8 5.7746 -2.94013 0
M  V30 22670 N 2146.2 0.513665 1.48994 0
M  V30 22671 C 2147.15 -0.257967 2.29354 0
M  V30 22672 C 2148.12 -0.948815 1.36333 0
M  V30 22673 O 2149.3 -0.953018 1.65294 0
M  V30 22674 C 2146.44 -1.30885 3.19317 0
M  V30 22675 C 2145.56 -0.628503 4.27404 0
M  V30 22676 C 2144.69 -1.66091 5.04566 0
M  V30 22677 C 2143.73 -0.963129 6.04475 0
M  V30 22678 N 2142.87 -1.94033 6.74756 0
M  V30 22679 H 2147.71 0.433522 2.9483 0
M  V30 22680 H 2145.24 0.225633 1.45359 0
M  V30 22681 H 2147.2 -1.93026 3.69861 0
M  V30 22682 H 2145.83 -1.96894 2.55798 0
M  V30 22683 H 2144.88 0.10648 3.80251 0
M  V30 22684 H 2146.2 -0.0798289 4.98736 0
M  V30 22685 H 2145.35 -2.35704 5.59043 0
M  V30 22686 H 2144.09 -2.24346 4.33036 0
M  V30 22687 H 2143.09 -0.252846 5.49218 0
M  V30 22688 H 2144.32 -0.386911 6.77997 0
M  V30 22689 H 2142.27 -2.51226 6.05988 0
M  V30 22690 H 2142.18 -1.44265 7.42107 0
M  V30 22691 H 2143.45 -2.62894 7.3383 0
M  V30 22692 N 2147.68 -1.55636 0.248053 0
M  V30 22693 C 2148.91 -2.03371 -0.380481 0
M  V30 22694 C 2149.32 -1.12727 -1.51453 0
M  V30 22695 O 2148.68 -0.141929 -1.81947 0
M  V30 22696 C 2148.73 -3.50445 -0.887178 0
M  V30 22697 O 2148.45 -4.37636 0.20168 0
M  V30 22698 C 2149.95 -4.13947 -1.58628 0
M  V30 22699 H 2147.17 -0.664899 -0.0902759 0
M  V30 22700 H 2149.72 -2.01083 0.372253 0
M  V30 22701 H 2147.87 -3.53263 -1.59009 0
M  V30 22702 H 2148.29 -5.2418 -0.183268 0
M  V30 22703 H 2149.76 -5.18543 -1.89253 0
M  V30 22704 H 2150.24 -3.60505 -2.50864 0
M  V30 22705 H 2150.84 -4.15054 -0.927917 0
M  V30 22706 N 2149.16 0.0250451 -1.5758 0
M  V30 22707 C 2150.4 0.715046 -1.89455 0
M  V30 22708 C 2150.73 1.75145 -0.84584 0
M  V30 22709 O 2149.99 1.95104 0.152678 0
M  V30 22710 C 2150.29 1.41772 -3.28079 0
M  V30 22711 C 2149.95 0.51691 -4.47927 0
M  V30 22712 C 2148.61 0.268813 -4.80449 0
M  V30 22713 C 2150.97 -0.104795 -5.21095 0
M  V30 22714 C 2148.29 -0.609698 -5.83523 0
M  V30 22715 C 2150.65 -0.971032 -6.25103 0
M  V30 22716 C 2149.31 -1.22855 -6.56097 0
M  V30 22717 H 2148.58 0.261654 -0.693266 0
M  V30 22718 H 2151.23 -0.0251007 -1.91484 0
M  V30 22719 H 2149.53 2.23128 -3.22057 0
M  V30 22720 H 2151.23 1.95721 -3.49992 0
M  V30 22721 H 2147.82 0.720436 -4.22502 0
M  V30 22722 H 2152 0.0739074 -4.96245 0
M  V30 22723 H 2147.26 -0.817479 -6.0591 0
M  V30 22724 H 2151.43 -1.45926 -6.80939 0
M  V30 22725 H 2149.06 -1.91101 -7.35788 0
M  V30 22726 N 2150.64 1.54769 0.297388 0
M  V30 22727 C 2151.91 1.64904 1.05195 0
M  V30 22728 C 2152.29 0.499658 2.05102 0
M  V30 22729 O 2151.64 -0.503202 2.2289 0
M  V30 22730 C 2151.85 3.03071 1.73058 0
M  V30 22731 C 2153.2 3.60007 2.25123 0
M  V30 22732 O 2154.22 3.05546 1.83085 0
M  V30 22733 O 2153.08 4.55371 3.02158 0
M  V30 22734 H 2150.18 0.668805 0.486444 0
M  V30 22735 H 2152.72 1.67113 0.295187 0
M  V30 22736 H 2151.49 3.78165 1.00534 0
M  V30 22737 H 2151.12 3.04655 2.55482 0
M  V30 22738 N 2152.11 -0.560755 1.47286 0
M  V30 22739 C 2153.34 -1.34841 1.57584 0
M  V30 22740 C 2153.76 -1.86747 0.22521 0
M  V30 22741 O 2153.12 -1.62776 -0.798346 0
M  V30 22742 C 2153.17 -2.49671 2.60186 0
M  V30 22743 O 2152.27 -3.51793 2.1521 0
M  V30 22744 H 2151.61 -0.400669 0.529491 0
M  V30 22745 H 2154.14 -0.67803 1.93039 0
M  V30 22746 H 2154.15 -2.9629 2.80493 0
M  V30 22747 H 2152.83 -2.11248 3.58256 0
M  V30 22748 H 2151.41 -3.11504 2.04987 0
M  V30 22749 N 2153.59 -1.35359 -0.807199 0
M  V30 22750 C 2154.5 -1.30342 -1.9506 0
M  V30 22751 C 2155.52 -0.208425 -1.72747 0
M  V30 22752 O 2156.69 -0.437692 -1.96586 0
M  V30 22753 C 2153.76 -1.07437 -3.29633 0
M  V30 22754 C 2152.82 -2.26243 -3.64846 0
M  V30 22755 C 2152.05 -2.04423 -4.92998 0
M  V30 22756 O 2152.28 -1.01037 -5.6138 0
M  V30 22757 O 2151.21 -2.91769 -5.26455 0
M  V30 22758 H 2155.04 -2.26568 -2.02239 0
M  V30 22759 H 2152.62 -1.15724 -0.944893 0
M  V30 22760 H 2154.5 -0.9651 -4.102 0
M  V30 22761 H 2153.18 -0.142618 -3.23386 0
M  V30 22762 H 2152.08 -2.42735 -2.84659 0
M  V30 22763 H 2153.42 -3.17864 -3.75797 0
M  V30 22764 N 2155.07 1.02928 -1.19346 0
M  V30 22765 C 2156.3 1.79687 -1.01961 0
M  V30 22766 C 2156.71 1.84137 0.434779 0
M  V30 22767 O 2156.05 1.28397 1.31377 0
M  V30 22768 C 2156.11 3.26152 -1.51213 0
M  V30 22769 C 2155.78 3.45338 -2.99317 0
M  V30 22770 C 2156.77 3.35591 -3.97083 0
M  V30 22771 C 2154.46 3.71566 -3.38 0
M  V30 22772 C 2156.45 3.51795 -5.31525 0
M  V30 22773 C 2154.14 3.87415 -4.72602 0
M  V30 22774 C 2155.14 3.77532 -5.69174 0
M  V30 22775 O 2154.83 3.92914 -7.01337 0
M  V30 22776 H 2154.56 0.572339 -0.359729 0
M  V30 22777 H 2157.11 1.30533 -1.58588 0
M  V30 22778 H 2155.34 3.76328 -0.889605 0
M  V30 22779 H 2157.03 3.84505 -1.30042 0
M  V30 22780 H 2157.8 3.1528 -3.68542 0
M  V30 22781 H 2153.68 3.78351 -2.63385 0
M  V30 22782 H 2157.22 3.43997 -6.06887 0
M  V30 22783 H 2153.12 4.07223 -5.00839 0
M  V30 22784 H 2153.88 4.10007 -7.08404 0
M  V30 22785 N 2156.55 0.997319 1.2203 0
M  V30 22786 C 2157.79 0.676667 1.91178 0
M  V30 22787 C 2158.13 -0.789768 1.77416 0
M  V30 22788 O 2157.4 -1.57163 1.14586 0
M  V30 22789 C 2157.68 1.08886 3.43243 0
M  V30 22790 C 2157.54 2.61418 3.66034 0
M  V30 22791 C 2158.86 0.645428 4.35342 0
M  V30 22792 H 2155.98 0.247298 0.694271 0
M  V30 22793 H 2158.62 1.24163 1.43818 0
M  V30 22794 H 2156.77 0.608155 3.8371 0
M  V30 22795 H 2158.44 3.17192 3.34943 0
M  V30 22796 H 2156.68 3.03284 3.10163 0
M  V30 22797 H 2157.35 2.8531 4.72549 0
M  V30 22798 H 2159.83 1.05839 4.02414 0
M  V30 22799 H 2158.71 0.962088 5.40403 0
M  V30 22800 H 2158.97 -0.453741 4.39765 0
M  V30 22801 N 2158.03 -1.37449 0.771075 0
M  V30 22802 C 2158.97 -2.30278 0.155078 0
M  V30 22803 C 2159.94 -1.51065 -0.690547 0
M  V30 22804 O 2161.13 -1.79637 -0.643049 0
M  V30 22805 C 2158.27 -3.37536 -0.718578 0
M  V30 22806 C 2157.38 -4.31761 0.143579 0
M  V30 22807 C 2156.52 -5.26094 -0.734719 0
M  V30 22808 C 2155.56 -6.11962 0.130013 0
M  V30 22809 N 2154.69 -6.98539 -0.706225 0
M  V30 22810 H 2159.53 -2.82377 0.952224 0
M  V30 22811 H 2157.07 -1.39008 0.481177 0
M  V30 22812 H 2159.03 -3.98349 -1.23991 0
M  V30 22813 H 2157.66 -2.86804 -1.48133 0
M  V30 22814 H 2156.71 -3.7226 0.782718 0
M  V30 22815 H 2158.02 -4.92169 0.81064 0
M  V30 22816 H 2157.18 -5.92109 -1.32257 0
M  V30 22817 H 2155.91 -4.66096 -1.43546 0
M  V30 22818 H 2154.92 -5.44927 0.730399 0
M  V30 22819 H 2156.14 -6.74032 0.82808 0
M  V30 22820 H 2154.09 -6.4107 -1.3916 0
M  V30 22821 H 2154.01 -7.55938 -0.0964474 0
M  V30 22822 H 2155.28 -7.68944 -1.27849 0
M  V30 22823 N 2159.5 -0.52156 -1.4872 0
M  V30 22824 C 2160.73 0.0117966 -2.06897 0
M  V30 22825 C 2161.15 1.28928 -1.37924 0
M  V30 22826 O 2160.5 1.76502 -0.464046 0
M  V30 22827 C 2160.56 0.248161 -3.60647 0
M  V30 22828 O 2160.28 -0.978703 -4.27028 0
M  V30 22829 C 2161.78 0.822848 -4.35596 0
M  V30 22830 H 2159 -0.0297145 -0.670342 0
M  V30 22831 H 2161.54 -0.724798 -1.91225 0
M  V30 22832 H 2159.7 0.934783 -3.75953 0
M  V30 22833 H 2160.11 -0.754221 -5.19049 0
M  V30 22834 H 2161.58 0.937703 -5.43977 0
M  V30 22835 H 2162.06 1.82571 -3.99455 0
M  V30 22836 H 2162.67 0.173056 -4.24948 0
M  V30 22837 N 2160.98 1.55502 -0.256304 0
M  V30 22838 C 2162.4 1.59297 0.0983236 0
M  V30 22839 C 2162.6 1.27351 1.56154 0
M  V30 22840 O 2161.65 1.02533 2.30745 0
M  V30 22841 C 2162.97 2.9958 -0.259346 0
M  V30 22842 C 2164.52 3.12332 -0.204415 0
M  V30 22843 C 2164.99 4.5485 -0.536252 0
M  V30 22844 N 2166.48 4.60632 -0.487101 0
M  V30 22845 C 2167.22 5.68901 -0.716903 0
M  V30 22846 N 2166.71 6.85393 -1.01033 0
M  V30 22847 N 2168.51 5.58364 -0.646972 0
M  V30 22848 H 2160.66 1.74536 -1.21042 0
M  V30 22849 H 2162.92 0.812935 -0.487689 0
M  V30 22850 H 2162.63 3.27727 -1.27624 0
M  V30 22851 H 2162.5 3.74976 0.409004 0
M  V30 22852 H 2164.89 2.8396 0.803168 0
M  V30 22853 H 2164.97 2.3919 -0.906752 0
M  V30 22854 H 2164.61 4.83944 -1.54143 0
M  V30 22855 H 2164.54 5.26265 0.187668 0
M  V30 22856 H 2167.03 3.76938 -0.269421 0
M  V30 22857 H 2167.35 7.63848 -1.17285 0
M  V30 22858 H 2165.69 6.87055 -1.0479 0
M  V30 22859 H 2168.88 4.66233 -0.417713 0
M  V30 22860 H 2169.05 6.42669 -0.829457 0
M  V30 22861 N 2162.46 -0.0166879 1.57591 0
M  V30 22862 C 2163.69 -0.716426 1.941 0
M  V30 22863 C 2164.1 -1.68225 0.857081 0
M  V30 22864 O 2163.46 -1.81748 -0.165469 0
M  V30 22865 C 2163.51 -1.46279 3.30583 0
M  V30 22866 O 2163.23 -0.535718 4.34812 0
M  V30 22867 C 2164.73 -2.25856 3.8145 0
M  V30 22868 H 2161.95 -0.200593 0.640315 0
M  V30 22869 H 2164.5 0.0294696 2.04479 0
M  V30 22870 H 2162.65 -2.16045 3.21564 0
M  V30 22871 H 2163.07 -1.06046 5.13668 0
M  V30 22872 H 2164.54 -2.73602 4.79423 0
M  V30 22873 H 2165.02 -3.07813 3.13285 0
M  V30 22874 H 2165.62 -1.61139 3.93592 0
M  V30 22875 N 2163.94 -1.54924 -0.289176 0
M  V30 22876 C 2164.89 -1.87462 -1.37698 0
M  V30 22877 C 2165.88 -0.749411 -1.51922 0
M  V30 22878 O 2167.09 -0.933558 -1.53898 0
M  V30 22879 H 2163.46 -0.59475 -0.460192 0
M  V30 22880 H 2165.43 -2.78365 -1.07498 0
M  V30 22881 C 2164.18 -2.14897 -2.7334 0
M  V30 22882 H 2163.5 -3.00958 -2.63181 0
M  V30 22883 H 2164.94 -2.41596 -3.48436 0
M  V30 22884 C 2163.4 -0.951304 -3.2319 0
M  V30 22885 O 2163.93 -0.177749 -4.01307 0
M  V30 22886 N 2162.14 -0.753431 -2.80663 0
M  V30 22887 H 2161.69 -1.38415 -2.17253 0
M  V30 22888 H 2161.64 0.0463293 -3.14366 0
M  V30 22889 N 2165.42 0.552936 -1.47582 0
M  V30 22890 C 2166.69 1.31381 -1.44908 0
M  V30 22891 C 2167.07 2.10578 -0.148323 0
M  V30 22892 O 2166.42 2.11283 0.870167 0
M  V30 22893 C 2166.63 2.21471 -2.69725 0
M  V30 22894 C 2167.98 2.82353 -3.17115 0
M  V30 22895 O 2169 2.31771 -2.70482 0
M  V30 22896 O 2167.86 3.74302 -3.98196 0
M  V30 22897 H 2164.96 0.591798 -0.577672 0
M  V30 22898 H 2167.5 0.571486 -1.59788 0
M  V30 22899 H 2166.27 1.62579 -3.55926 0
M  V30 22900 H 2165.9 3.02992 -2.57452 0
M  V30 22901 N 2166.89 1.35785 0.800009 0
M  V30 22902 C 2168.14 1.30625 1.55912 0
M  V30 22903 C 2168.5 -0.116568 1.92047 0
M  V30 22904 O 2167.79 -1.06857 1.59035 0
M  V30 22905 C 2167.98 2.15261 2.85302 0
M  V30 22906 C 2167.81 3.6563 2.61811 0
M  V30 22907 C 2166.58 4.34843 2.57371 0
M  V30 22908 C 2168.78 4.59133 2.31736 0
M  V30 22909 N 2166.76 5.70919 2.25666 0
M  V30 22910 C 2168.13 5.83379 2.09927 0
M  V30 22911 C 2170.19 4.47807 2.17654 0
M  V30 22912 C 2168.89 6.97571 1.75461 0
M  V30 22913 C 2170.92 5.61856 1.84586 0
M  V30 22914 C 2170.28 6.85134 1.63617 0
M  V30 22915 H 2166.38 0.533257 0.57198 0
M  V30 22916 H 2168.96 1.70733 0.935867 0
M  V30 22917 H 2167.13 1.77415 3.45512 0
M  V30 22918 H 2168.86 2.01571 3.50929 0
M  V30 22919 H 2165.62 3.87528 2.72249 0
M  V30 22920 H 2166.04 6.42756 2.12589 0
M  V30 22921 H 2170.69 3.53095 2.3256 0
M  V30 22922 H 2168.4 7.92244 1.59293 0
M  V30 22923 H 2171.99 5.55049 1.74389 0
M  V30 22924 H 2170.87 7.7189 1.38404 0
M  V30 22925 N 2168.37 -1.02294 1.19891 0
M  V30 22926 C 2169.65 -1.72912 0.914382 0
M  V30 22927 C 2170.03 -2.0302 -0.57845 0
M  V30 22928 O 2169.38 -1.68961 -1.53833 0
M  V30 22929 C 2169.59 -3.00157 1.78064 0
M  V30 22930 C 2170.94 -3.73547 2.0186 0
M  V30 22931 O 2171.96 -3.10098 1.75265 0
M  V30 22932 O 2170.82 -4.87629 2.46738 0
M  V30 22933 H 2167.91 -0.753281 0.341315 0
M  V30 22934 H 2170.46 -1.08199 1.30733 0
M  V30 22935 H 2169.23 -2.7418 2.79179 0
M  V30 22936 H 2168.85 -3.7261 1.38736 0
M  V30 22937 N 2169.85 -1.00378 -1.21499 0
M  V30 22938 C 2171.1 -0.68578 -1.90534 0
M  V30 22939 C 2171.43 0.783334 -1.78028 0
M  V30 22940 O 2170.68 1.58328 -1.15024 0
M  V30 22941 C 2170.98 -1.05103 -3.41596 0
M  V30 22942 C 2170.65 -2.51421 -3.74297 0
M  V30 22943 C 2169.31 -2.91403 -3.82933 0
M  V30 22944 C 2171.66 -3.46207 -3.89603 0
M  V30 22945 C 2168.99 -4.25137 -4.04321 0
M  V30 22946 C 2171.34 -4.79613 -4.12497 0
M  V30 22947 C 2170 -5.1932 -4.1936 0
M  V30 22948 H 2169.27 -0.250945 -0.697214 0
M  V30 22949 H 2171.92 -1.26199 -1.44035 0
M  V30 22950 H 2170.23 -0.393054 -3.89823 0
M  V30 22951 H 2171.92 -0.782861 -3.93284 0
M  V30 22952 H 2168.51 -2.19435 -3.68166 0
M  V30 22953 H 2172.7 -3.16483 -3.82299 0
M  V30 22954 H 2167.95 -4.55474 -4.07864 0
M  V30 22955 H 2172.13 -5.52996 -4.23283 0
M  V30 22956 H 2169.75 -6.22963 -4.35685 0
M  V30 22957 N 2171.33 1.37038 -0.778354 0
M  V30 22958 C 2172.57 1.99823 -0.34619 0
M  V30 22959 C 2172.91 1.61643 1.07634 0
M  V30 22960 O 2172.18 0.865817 1.74166 0
M  V30 22961 C 2172.47 3.56649 -0.497307 0
M  V30 22962 C 2172.32 4.04718 -1.96273 0
M  V30 22963 C 2173.64 4.39999 0.0944148 0
M  V30 22964 H 2170.76 0.725929 -0.127262 0
M  V30 22965 H 2173.4 1.62617 -0.98263 0
M  V30 22966 H 2171.55 3.88475 0.0445004 0
M  V30 22967 H 2173.22 3.8343 -2.56475 0
M  V30 22968 H 2171.46 3.56667 -2.46924 0
M  V30 22969 H 2172.13 5.13732 -2.01949 0
M  V30 22970 H 2174.61 4.1447 -0.367956 0
M  V30 22971 H 2173.49 5.48884 -0.0414159 0
M  V30 22972 H 2173.75 4.25911 1.18542 0
M  V30 22973 N 2172.81 0.529439 1.48441 0
M  V30 22974 C 2174.05 -0.00486384 2.02799 0
M  V30 22975 C 2174.39 -1.33985 1.40576 0
M  V30 22976 O 2173.66 -1.86523 0.551326 0
M  V30 22977 C 2173.94 -0.127443 3.59874 0
M  V30 22978 C 2173.8 1.23268 4.3258 0
M  V30 22979 C 2175.12 -0.854486 4.31725 0
M  V30 22980 H 2172.24 -0.00029358 0.737 0
M  V30 22981 H 2174.88 0.686364 1.7717 0
M  V30 22982 H 2173.03 -0.716153 3.81842 0
M  V30 22983 H 2174.7 1.86245 4.22031 0
M  V30 22984 H 2172.94 1.8147 3.94019 0
M  V30 22985 H 2173.61 1.09991 5.40931 0
M  V30 22986 H 2176.09 -0.354911 4.14584 0
M  V30 22987 H 2174.97 -0.909151 5.41318 0
M  V30 22988 H 2175.23 -1.90464 3.98968 0
M  V30 22989 N 2174.29 -1.55364 0.264547 0
M  V30 22990 C 2175.51 -2.03764 -0.358889 0
M  V30 22991 C 2175.93 -1.14327 -1.50249 0
M  V30 22992 O 2175.29 -0.161219 -1.81787 0
M  V30 22993 C 2175.34 -3.51366 -0.849959 0
M  V30 22994 O 2175.06 -4.37397 0.248086 0
M  V30 22995 C 2176.56 -4.15606 -1.54229 0
M  V30 22996 H 2173.78 -0.66582 -0.0832187 0
M  V30 22997 H 2176.32 -2.00677 0.39356 0
M  V30 22998 H 2174.48 -3.5493 -1.55253 0
M  V30 22999 H 2174.89 -5.24345 -0.127661 0
M  V30 23000 H 2176.37 -5.20522 -1.83742 0
M  V30 23001 H 2176.84 -3.63145 -2.47027 0
M  V30 23002 H 2177.45 -4.16015 -0.883843 0
M  V30 23003 N 2175.76 0.00833021 -1.57598 0
M  V30 23004 C 2176.99 0.706123 -1.94478 0
M  V30 23005 C 2177.41 1.67768 -0.86599 0
M  V30 23006 O 2176.76 1.81834 0.155828 0
M  V30 23007 C 2176.81 1.44523 -3.31354 0
M  V30 23008 O 2176.54 0.512651 -4.3509 0
M  V30 23009 C 2178.04 2.2383 -3.82642 0
M  V30 23010 H 2175.26 0.197195 -0.64137 0
M  V30 23011 H 2177.8 -0.0403132 -2.0446 0
M  V30 23012 H 2175.96 2.14337 -3.22705 0
M  V30 23013 H 2176.37 1.03321 -5.14223 0
M  V30 23014 H 2177.84 2.71055 -4.80867 0
M  V30 23015 H 2178.32 3.06148 -3.14913 0
M  V30 23016 H 2178.93 1.59049 -3.94441 0
M  V30 23017 N 2177.24 1.55075 0.280956 0
M  V30 23018 C 2178.52 1.6601 1.0344 0
M  V30 23019 C 2178.9 0.521384 2.0456 0
M  V30 23020 O 2178.25 -0.479533 2.23412 0
M  V30 23021 C 2178.46 3.04889 1.69834 0
M  V30 23022 C 2179.8 3.62374 2.21292 0
M  V30 23023 O 2180.83 3.07471 1.79834 0
M  V30 23024 O 2179.69 4.5855 2.97311 0
M  V30 23025 H 2176.78 0.673927 0.479324 0
M  V30 23026 H 2179.33 1.67417 0.277446 0
M  V30 23027 H 2178.1 3.7921 0.96517 0
M  V30 23028 H 2177.72 3.07347 2.52237 0
M  V30 23029 N 2178.72 -0.545102 1.47873 0
M  V30 23030 C 2179.97 -1.29811 1.54376 0
M  V30 23031 C 2180.28 -1.94404 0.215938 0
M  V30 23032 O 2181.49 -2.71034 0.159071 0
M  V30 23033 C 2179.94 -2.3546 2.72189 0
M  V30 23034 C 2179.55 -1.77003 4.11551 0
M  V30 23035 C 2181.3 -3.11865 2.87993 0
M  V30 23036 C 2179.2 -2.80503 5.20646 0
M  V30 23037 H 2178.13 -0.488142 0.574659 0
M  V30 23038 H 2180.78 -0.577531 1.74175 0
M  V30 23039 H 2179.17 -3.10486 2.45794 0
M  V30 23040 H 2180.34 -1.08268 4.479 0
M  V30 23041 H 2178.65 -1.13141 4.00734 0
M  V30 23042 H 2181.25 -3.89178 3.66666 0
M  V30 23043 H 2181.59 -3.668 1.96884 0
M  V30 23044 H 2182.13 -2.43952 3.14217 0
M  V30 23045 H 2178.87 -2.30408 6.13671 0
M  V30 23046 H 2178.39 -3.47612 4.888 0
M  V30 23047 H 2180.07 -3.43772 5.48115 0
M  V30 23048 N 2180.2 -1.36208 -0.792797 0
M  V30 23049 C 2181.42 -1.3356 -1.58671 0
M  V30 23050 C 2181.85 0.0814602 -1.87924 0
M  V30 23051 O 2181.21 1.05241 -1.47628 0
M  V30 23052 C 2181.25 -2.16123 -2.88658 0
M  V30 23053 O 2180.36 -1.5514 -3.82106 0
M  V30 23054 H 2179.7 -0.45729 -0.481438 0
M  V30 23055 H 2182.23 -1.79444 -0.982909 0
M  V30 23056 H 2182.24 -2.28579 -3.37958 0
M  V30 23057 H 2180.91 -3.19136 -2.66693 0
M  V30 23058 H 2179.49 -1.51604 -3.40691 0
M  V30 23059 N 2181.68 1.01656 -1.20431 0
M  V30 23060 C 2182.59 2.13658 -0.968877 0
M  V30 23061 C 2183.6 1.73837 0.075256 0
M  V30 23062 O 2184.78 2.01087 -0.112194 0
M  V30 23063 C 2181.84 3.42716 -0.524052 0
M  V30 23064 C 2180.9 3.9678 -1.63904 0
M  V30 23065 C 2180.14 5.19678 -1.21534 0
M  V30 23066 O 2180.36 5.70338 -0.0840508 0
M  V30 23067 O 2179.29 5.66893 -2.02278 0
M  V30 23068 H 2183.12 2.3639 -1.90666 0
M  V30 23069 H 2180.7 1.1205 -0.98819 0
M  V30 23070 H 2182.59 4.20434 -0.285221 0
M  V30 23071 H 2181.26 3.21401 0.385143 0
M  V30 23072 H 2180.17 3.20341 -1.93215 0
M  V30 23073 H 2181.5 4.22484 -2.52524 0
M  V30 23074 N 2183.15 1.01021 1.20965 0
M  V30 23075 C 2184.09 0.519783 2.22201 0
M  V30 23076 C 2185.06 -0.429328 1.5683 0
M  V30 23077 O 2186.25 -0.350829 1.85206 0
M  V30 23078 C 2183.38 -0.244355 3.37817 0
M  V30 23079 C 2182.42 0.653341 4.21466 0
M  V30 23080 S 2183.25 2.11879 4.918 0
M  V30 23081 C 2184.41 1.36463 6.10843 0
M  V30 23082 H 2184.64 1.37759 2.63457 0
M  V30 23083 H 2182.18 0.818571 1.30915 0
M  V30 23084 H 2184.13 -0.679146 4.04843 0
M  V30 23085 H 2182.8 -1.07765 2.95035 0
M  V30 23086 H 2181.99 0.0644713 5.03959 0
M  V30 23087 H 2181.59 1.02563 3.59662 0
M  V30 23088 H 2183.88 0.641256 6.74458 0
M  V30 23089 H 2184.83 2.16546 6.74176 0
M  V30 23090 H 2185.23 0.870317 5.57751 0
M  V30 23091 N 2184.63 -1.36623 0.78561 0
M  V30 23092 C 2185.88 -1.98948 0.355551 0
M  V30 23093 C 2186.2 -1.62665 -1.07541 0
M  V30 23094 O 2185.47 -0.89879 -1.74065 0
M  V30 23095 H 2184.05 -0.735869 0.128476 0
M  V30 23096 H 2186.71 -1.66881 1.00681 0
M  V30 23097 H 2185.81 -3.08921 0.444316 0
M  V30 23098 N 2186.11 -0.537304 -1.48158 0
M  V30 23099 C 2187.07 0.210784 -2.28229 0
M  V30 23100 C 2188.07 0.861078 -1.35802 0
M  V30 23101 O 2189.26 0.72 -1.58624 0
M  V30 23102 C 2186.39 1.30581 -3.14899 0
M  V30 23103 H 2187.59 -0.492311 -2.95832 0
M  V30 23104 H 2185.14 -0.293505 -1.53519 0
M  V30 23105 H 2185.88 2.04194 -2.51943 0
M  V30 23106 H 2185.66 0.844559 -3.82896 0
M  V30 23107 H 2187.15 1.8318 -3.7528 0
M  V30 23108 N 2187.59 1.55221 -0.272782 0
M  V30 23109 C 2188.54 2.23858 0.631705 0
M  V30 23110 C 2189.53 1.23481 1.15969 0
M  V30 23111 O 2190.74 1.41418 1.11359 0
M  V30 23112 H 2187.11 0.718404 0.222259 0
M  V30 23113 H 2189.08 2.98385 0.0299551 0
M  V30 23114 C 2187.83 2.9714 1.80563 0
M  V30 23115 H 2187.15 3.74166 1.40854 0
M  V30 23116 H 2188.59 3.4849 2.41517 0
M  V30 23117 C 2187.05 2.02478 2.69266 0
M  V30 23118 O 2187.58 1.57449 3.69557 0
M  V30 23119 N 2185.79 1.69028 2.36385 0
M  V30 23120 H 2185.34 2.05842 1.54877 0
M  V30 23121 H 2185.29 1.05961 2.96006 0
M  V30 23122 N 2189.07 2.77022e-05 1.576 0
M  V30 23123 C 2190.31 -0.684815 1.90569 0
M  V30 23124 C 2190.64 -1.73777 0.873597 0
M  V30 23125 O 2189.9 -1.95322 -0.12162 0
M  V30 23126 C 2190.2 -1.36534 3.30292 0
M  V30 23127 C 2189.86 -0.445583 4.48693 0
M  V30 23128 C 2188.52 -0.192344 4.80815 0
M  V30 23129 C 2190.88 0.187683 5.20862 0
M  V30 23130 C 2188.2 0.702454 5.8248 0
M  V30 23131 C 2190.56 1.07036 6.23479 0
M  V30 23132 C 2189.22 1.33277 6.54059 0
M  V30 23133 H 2188.49 -0.250591 0.697341 0
M  V30 23134 H 2191.14 0.0555609 1.91419 0
M  V30 23135 H 2189.44 -2.17977 3.25566 0
M  V30 23136 H 2191.14 -1.90129 3.53061 0
M  V30 23137 H 2187.73 -0.653128 4.23594 0
M  V30 23138 H 2191.91 0.00505024 4.963 0
M  V30 23139 H 2187.17 0.913771 6.04533 0
M  V30 23140 H 2191.34 1.56741 6.78532 0
M  V30 23141 H 2188.97 2.02782 7.32655 0
M  V30 23142 N 2190.54 -1.55222 -0.272728 0
M  V30 23143 C 2191.49 -1.88121 -1.33713 0
M  V30 23144 C 2192.46 -0.732736 -1.49064 0
M  V30 23145 O 2193.65 -0.98403 -1.63467 0
M  V30 23146 C 2190.79 -2.15886 -2.69234 0
M  V30 23147 C 2189.9 -3.43404 -2.62102 0
M  V30 23148 C 2189.03 -3.60868 -3.89804 0
M  V30 23149 C 2188.07 -4.82077 -3.77184 0
M  V30 23150 N 2187.21 -4.96198 -4.96722 0
M  V30 23151 H 2192.05 -2.78905 -1.04957 0
M  V30 23152 H 2189.59 -1.38084 -0.507063 0
M  V30 23153 H 2191.55 -2.29984 -3.48085 0
M  V30 23154 H 2190.18 -1.28337 -2.96192 0
M  V30 23155 H 2189.23 -3.37776 -1.74961 0
M  V30 23156 H 2190.54 -4.3239 -2.48677 0
M  V30 23157 H 2189.69 -3.74785 -4.77096 0
M  V30 23158 H 2188.43 -2.70068 -4.06097 0
M  V30 23159 H 2187.44 -4.68164 -2.88276 0
M  V30 23160 H 2188.66 -5.74313 -3.62411 0
M  V30 23161 H 2186.61 -4.08328 -5.13424 0
M  V30 23162 H 2186.53 -5.7923 -4.85828 0
M  V30 23163 H 2187.79 -5.145 -5.85585 0
M  V30 23164 N 2192.02 0.537252 -1.4816 0
M  V30 23165 C 2192.99 1.62469 -1.61668 0
M  V30 23166 C 2193.99 1.53139 -0.490422 0
M  V30 23167 O 2195.18 1.56939 -0.756026 0
M  V30 23168 C 2192.31 3.02073 -1.58003 0
M  V30 23169 H 2193.5 1.51834 -2.58624 0
M  V30 23170 H 2191.05 0.758747 -1.36648 0
M  V30 23171 H 2191.79 3.18221 -0.624969 0
M  V30 23172 H 2191.57 3.10254 -2.3976 0
M  V30 23173 H 2193.06 3.81148 -1.70634 0
M  V30 23174 N 2193.5 1.36626 0.785562 0
M  V30 23175 C 2194.41 1.33428 1.92961 0
M  V30 23176 C 2195.43 0.235882 1.72394 0
M  V30 23177 O 2196.6 0.468912 1.95865 0
M  V30 23178 C 2193.67 1.12668 3.27882 0
M  V30 23179 C 2192.73 2.32019 3.612 0
M  V30 23180 C 2191.96 2.1224 4.89684 0
M  V30 23181 O 2192.18 1.09955 5.59702 0
M  V30 23182 O 2191.12 3.00107 5.21746 0
M  V30 23183 H 2194.94 2.29757 1.98609 0
M  V30 23184 H 2192.53 1.17213 0.926363 0
M  V30 23185 H 2194.41 1.03024 4.08612 0
M  V30 23186 H 2193.09 0.194048 3.23118 0
M  V30 23187 H 2191.99 2.47233 2.80761 0
M  V30 23188 H 2193.33 3.23802 3.70693 0
M  V30 23189 N 2194.98 -1.01016 1.20969 0
M  V30 23190 C 2196.39 -1.27051 0.965927 0
M  V30 23191 C 2196.59 -1.98424 -0.35075 0
M  V30 23192 O 2195.65 -2.28346 -1.07769 0
M  V30 23193 C 2196.96 -2.09922 2.15298 0
M  V30 23194 C 2198.51 -2.23167 2.19467 0
M  V30 23195 C 2198.99 -3.09418 3.37675 0
M  V30 23196 N 2200.48 -3.17006 3.3773 0
M  V30 23197 C 2201.21 -3.83986 4.25843 0
M  V30 23198 N 2200.71 -4.53037 5.24146 0
M  V30 23199 N 2202.5 -3.80574 4.13666 0
M  V30 23200 H 2194.65 -0.531158 2.05651 0
M  V30 23201 H 2196.92 -0.29709 0.900245 0
M  V30 23202 H 2196.62 -1.64823 3.10687 0
M  V30 23203 H 2196.5 -3.10668 2.13928 0
M  V30 23204 H 2198.88 -2.67488 1.24636 0
M  V30 23205 H 2198.96 -1.21908 2.24882 0
M  V30 23206 H 2198.61 -2.65801 4.32796 0
M  V30 23207 H 2198.54 -4.10778 3.29498 0
M  V30 23208 H 2201.03 -2.67845 2.66585 0
M  V30 23209 H 2201.34 -5.01834 5.87693 0
M  V30 23210 H 2199.69 -4.51841 5.28076 0
M  V30 23211 H 2202.88 -3.25779 3.36133 0
M  V30 23212 H 2203.05 -4.32497 4.82546 0
M  V30 23213 N 2196.46 -1.01661 -1.20428 0
M  V30 23214 C 2197.7 -0.706996 -1.90077 0
M  V30 23215 C 2198.04 0.761442 -1.7865 0
M  V30 23216 O 2197.31 1.55321 -1.17072 0
M  V30 23217 C 2197.59 -1.14333 -3.41467 0
M  V30 23218 C 2197.45 -2.67208 -3.61829 0
M  V30 23219 C 2198.77 -0.714606 -4.3426 0
M  V30 23220 H 2195.88 -0.258312 -0.690249 0
M  V30 23221 H 2198.53 -1.26435 -1.41824 0
M  V30 23222 H 2196.68 -0.669123 -3.82694 0
M  V30 23223 H 2198.35 -3.22481 -3.29854 0
M  V30 23224 H 2196.59 -3.0818 -3.05299 0
M  V30 23225 H 2197.26 -2.92792 -4.6795 0
M  V30 23226 H 2199.74 -1.12228 -4.0068 0
M  V30 23227 H 2198.61 -1.04794 -5.38804 0
M  V30 23228 H 2198.88 0.383721 -4.40432 0
M  V30 23229 N 2197.93 1.36205 -0.792844 0
M  V30 23230 C 2199.18 1.984 -0.363388 0
M  V30 23231 C 2199.5 1.63628 1.07169 0
M  V30 23232 O 2200.7 2.19083 1.60358 0
M  V30 23233 C 2199.16 3.54884 -0.598782 0
M  V30 23234 C 2198.77 3.98577 -2.0455 0
M  V30 23235 C 2200.51 4.23855 -0.234001 0
M  V30 23236 C 2198.42 5.47852 -2.22737 0
M  V30 23237 H 2197.35 0.742332 -0.132133 0
M  V30 23238 H 2200 1.55457 -0.974963 0
M  V30 23239 H 2198.38 3.95914 0.0825526 0
M  V30 23240 H 2199.55 3.68737 -2.76351 0
M  V30 23241 H 2197.87 3.42454 -2.36885 0
M  V30 23242 H 2200.47 5.33566 -0.348121 0
M  V30 23243 H 2200.81 4.08179 0.818279 0
M  V30 23244 H 2201.34 3.88199 -0.868707 0
M  V30 23245 H 2198.08 5.6848 -3.2636 0
M  V30 23246 H 2197.6 5.79308 -1.55444 0
M  V30 23247 H 2199.28 6.14124 -2.03618 0
M  V30 23248 N 2199.41 0.545154 1.47871 0
M  V30 23249 C 2200.69 -0.0484878 1.9554 0
M  V30 23250 C 2201.07 -1.49776 1.48763 0
M  V30 23251 O 2200.42 -2.16828 0.720963 0
M  V30 23252 C 2200.63 0.0844783 3.48898 0
M  V30 23253 C 2201.98 -0.0670492 4.24547 0
M  V30 23254 O 2203 0.0114276 3.56198 0
M  V30 23255 O 2201.86 -0.233786 5.46 0
M  V30 23256 H 2198.95 -0.0708628 0.823958 0
M  V30 23257 H 2201.5 0.610825 1.58326 0
M  V30 23258 H 2200.27 1.09344 3.75712 0
M  V30 23259 H 2199.89 -0.612997 3.92846 0
M  V30 23260 N 2200.89 -1.55074 0.28101 0
M  V30 23261 C 2202.3 -1.85451 -0.215596 0
M  V30 23262 C 2202.65 -1.20303 -1.54989 0
M  V30 23263 O 2201.78 -0.493472 -2.10698 0
M  V30 23264 C 2202.37 -3.36455 -0.397967 0
M  V30 23265 C 2200.93 -3.66935 -0.838802 0
M  V30 23266 C 2200.08 -2.77225 0.0645067 0
M  V30 23267 H 2203.03 -1.5053 0.502627 0
M  V30 23268 H 2203.05 -3.59878 -1.23563 0
M  V30 23269 H 2202.56 -3.83842 0.573309 0
M  V30 23270 H 2200.66 -3.25051 -1.82134 0
M  V30 23271 H 2200.78 -4.74363 -0.67204 0
M  V30 23272 H 2199.14 -2.50642 -0.452819 0
M  V30 23273 H 2199.92 -3.27428 1.03177 0
M  V30 23274 N 2202.37 -0.00838561 -1.57598 0
M  V30 23275 C 2203.79 0.347795 -1.55764 0
M  V30 23276 C 2203.99 1.7425 -1.01189 0
M  V30 23277 O 2203.04 2.44006 -0.649414 0
M  V30 23278 C 2204.35 0.215355 -2.99928 0
M  V30 23279 C 2205.9 0.289671 -3.11657 0
M  V30 23280 C 2206.38 0.186259 -4.57621 0
M  V30 23281 N 2207.87 0.243897 -4.62557 0
M  V30 23282 C 2208.6 0.187349 -5.73094 0
M  V30 23283 N 2208.1 0.0809113 -6.92753 0
M  V30 23284 N 2209.89 0.239827 -5.61588 0
M  V30 23285 H 2202.04 -0.920654 -1.9141 0
M  V30 23286 H 2204.31 -0.353675 -0.879556 0
M  V30 23287 H 2204.01 -0.744572 -3.43728 0
M  V30 23288 H 2203.89 0.994033 -3.63866 0
M  V30 23289 H 2206.27 1.24005 -2.67781 0
M  V30 23290 H 2206.35 -0.519024 -2.50479 0
M  V30 23291 H 2206 -0.760608 -5.02172 0
M  V30 23292 H 2205.93 1.01355 -5.16754 0
M  V30 23293 H 2208.42 0.327151 -3.76481 0
M  V30 23294 H 2208.73 0.0438883 -7.72788 0
M  V30 23295 H 2207.08 0.0464198 -6.94984 0
M  V30 23296 H 2210.27 0.321234 -4.66996 0
M  V30 23297 H 2210.44 0.192293 -6.47715 0
M  V30 23298 N 2203.85 1.55365 0.264492 0
M  V30 23299 C 2205.26 1.47395 0.612125 0
M  V30 23300 C 2205.46 0.695052 1.89133 0
M  V30 23301 O 2204.52 0.217319 2.51563 0
M  V30 23302 C 2205.83 2.91675 0.731184 0
M  V30 23303 C 2207.38 3.01941 0.824677 0
M  V30 23304 C 2207.86 4.47492 0.975443 0
M  V30 23305 N 2209.35 4.51356 1.04075 0
M  V30 23306 C 2210.08 5.61203 1.17636 0
M  V30 23307 N 2209.58 6.80899 1.27862 0
M  V30 23308 N 2211.37 5.48963 1.20814 0
M  V30 23309 H 2203.52 2.04455 -0.575492 0
M  V30 23310 H 2205.78 0.927493 -0.196115 0
M  V30 23311 H 2205.49 3.51427 -0.138454 0
M  V30 23312 H 2205.36 3.41172 1.60877 0
M  V30 23313 H 2207.75 2.42279 1.68478 0
M  V30 23314 H 2207.83 2.55682 -0.0776929 0
M  V30 23315 H 2207.48 5.07758 0.119969 0
M  V30 23316 H 2207.41 4.91415 1.89259 0
M  V30 23317 H 2209.9 3.65138 0.973782 0
M  V30 23318 H 2210.21 7.60367 1.38067 0
M  V30 23319 H 2208.56 6.83694 1.24851 0
M  V30 23320 H 2211.75 4.5439 1.12461 0
M  V30 23321 H 2211.92 6.34613 1.31038 0
M  V30 23322 N 2205.33 -0.529387 1.48443 0
M  V30 23323 C 2206.57 -1.29566 1.58088 0
M  V30 23324 C 2206.93 -1.90374 0.249335 0
M  V30 23325 O 2208.13 -2.67892 0.220785 0
M  V30 23326 C 2206.4 -2.35548 2.68798 0
M  V30 23327 S 2207.96 -3.21892 2.98213 0
M  V30 23328 H 2204.78 -0.440722 0.55793 0
M  V30 23329 H 2207.38 -0.603026 1.85967 0
M  V30 23330 H 2206.08 -1.89356 3.64105 0
M  V30 23331 H 2205.62 -3.09517 2.42822 0
M  V30 23332 H 2207.63 -4.3564 2.37556 0
M  V30 23333 N 2206.8 -1.37041 -0.778305 0
M  V30 23334 C 2207.74 -1.26636 -1.89838 0
M  V30 23335 C 2208.71 -0.148225 -1.61923 0
M  V30 23336 O 2209.9 -0.321298 -1.85742 0
M  V30 23337 C 2207.03 -0.95646 -3.24915 0
M  V30 23338 C 2206.07 -2.09058 -3.71749 0
M  V30 23339 S 2206.9 -3.70964 -3.86194 0
M  V30 23340 C 2208.06 -3.4211 -5.24129 0
M  V30 23341 H 2208.29 -2.21439 -1.98373 0
M  V30 23342 H 2205.83 -1.22587 -0.938717 0
M  V30 23343 H 2207.78 -0.78448 -4.02934 0
M  V30 23344 H 2206.45 -0.0260265 -3.14089 0
M  V30 23345 H 2205.64 -1.82858 -4.69658 0
M  V30 23346 H 2205.24 -2.22235 -3.00811 0
M  V30 23347 H 2207.53 -2.96692 -6.09081 0
M  V30 23348 H 2208.48 -4.39324 -5.55338 0
M  V30 23349 H 2208.88 -2.77194 -4.91756 0
M  V30 23350 N 2208.28 1.00373 -1.21503 0
M  V30 23351 C 2209.23 2.09175 -0.975424 0
M  V30 23352 C 2210.2 1.65805 0.0990324 0
M  V30 23353 O 2211.38 1.90739 -0.0483483 0
M  V30 23354 C 2208.52 3.40728 -0.547567 0
M  V30 23355 C 2207.64 3.97503 -1.6916 0
M  V30 23356 C 2206.77 5.1717 -1.21279 0
M  V30 23357 C 2205.81 5.66057 -2.32907 0
M  V30 23358 N 2204.95 6.76973 -1.8615 0
M  V30 23359 H 2209.79 2.29005 -1.90684 0
M  V30 23360 H 2207.32 1.12286 -0.950277 0
M  V30 23361 H 2209.28 4.16254 -0.280741 0
M  V30 23362 H 2207.91 3.20931 0.346848 0
M  V30 23363 H 2206.96 3.18951 -2.07303 0
M  V30 23364 H 2208.28 4.29776 -2.53167 0
M  V30 23365 H 2207.43 5.99947 -0.902697 0
M  V30 23366 H 2206.17 4.86494 -0.342777 0
M  V30 23367 H 2205.17 4.81876 -2.64718 0
M  V30 23368 H 2206.4 5.98763 -3.20406 0
M  V30 23369 H 2204.35 6.48101 -1.01495 0
M  V30 23370 H 2204.26 7.08507 -2.6373 0
M  V30 23371 H 2205.53 7.63282 -1.58179 0
M  V30 23372 N 2209.76 1.02298 1.19887 0
M  V30 23373 C 2211.17 0.746598 1.71122 0
M  V30 23374 C 2211.52 -0.734303 1.81941 0
M  V30 23375 O 2210.65 -1.57272 1.48642 0
M  V30 23376 C 2211.24 1.34862 3.10802 0
M  V30 23377 C 2209.8 1.12096 3.59321 0
M  V30 23378 C 2208.95 1.45035 2.36347 0
M  V30 23379 H 2211.9 1.19165 1.04811 0
M  V30 23380 H 2211.92 0.742503 3.73185 0
M  V30 23381 H 2211.43 2.42643 3.02896 0
M  V30 23382 H 2209.53 0.0610992 3.7255 0
M  V30 23383 H 2209.65 1.80551 4.43777 0
M  V30 23384 H 2208.01 0.869529 2.39398 0
M  V30 23385 H 2208.79 2.53887 2.31076 0
M  V30 23386 N 2211.24 -1.35782 0.800057 0
M  V30 23387 C 2212.48 -1.99247 0.377936 0
M  V30 23388 C 2212.82 -1.63335 -1.05049 0
M  V30 23389 O 2212.09 -0.893415 -1.72767 0
M  V30 23390 C 2212.37 -3.55813 0.553984 0
M  V30 23391 C 2212.23 -4.01545 2.02687 0
M  V30 23392 C 2213.55 -4.40093 -0.0244028 0
M  V30 23393 H 2210.67 -0.723813 0.138795 0
M  V30 23394 H 2213.31 -1.61033 1.00838 0
M  V30 23395 H 2211.46 -3.88496 0.0173081 0
M  V30 23396 H 2213.13 -3.79301 2.62543 0
M  V30 23397 H 2211.37 -3.52693 2.52567 0
M  V30 23398 H 2212.04 -5.10454 2.10096 0
M  V30 23399 H 2214.52 -4.13832 0.433848 0
M  V30 23400 H 2213.4 -5.48749 0.128733 0
M  V30 23401 H 2213.66 -4.27743 -1.11751 0
M  V30 23402 N 2212.72 -0.552988 -1.4758 0
M  V30 23403 C 2213.96 -0.025235 -2.01684 0
M  V30 23404 C 2214.28 1.33112 -1.4332 0
M  V30 23405 O 2215.48 1.94855 -1.89061 0
M  V30 23406 C 2213.94 0.00535725 -3.599 0
M  V30 23407 C 2213.55 -1.3475 -4.27255 0
M  V30 23408 C 2215.29 0.480725 -4.21769 0
M  V30 23409 C 2213.2 -1.27624 -5.77465 0
M  V30 23410 H 2212.13 -0.00566359 -0.753979 0
M  V30 23411 H 2214.78 -0.70021 -1.69615 0
M  V30 23412 H 2213.16 0.745892 -3.88912 0
M  V30 23413 H 2214.34 -2.10541 -4.09889 0
M  V30 23414 H 2212.65 -1.76046 -3.77355 0
M  V30 23415 H 2215.25 0.552366 -5.31839 0
M  V30 23416 H 2215.59 1.49177 -3.88654 0
M  V30 23417 H 2216.12 -0.204822 -3.97272 0
M  V30 23418 H 2212.86 -2.26315 -6.15192 0
M  V30 23419 H 2212.38 -0.560065 -5.97179 0
M  V30 23420 H 2214.06 -0.976533 -6.39588 0
M  V30 23421 N 2214.19 1.54923 -0.28923 0
M  V30 23422 C 2215.12 2.26041 0.58545 0
M  V30 23423 C 2216.1 1.25564 1.14751 0
M  V30 23424 O 2217.29 1.54313 1.17903 0
M  V30 23425 C 2214.42 2.99225 1.763 0
M  V30 23426 C 2213.37 4.06751 1.33184 0
M  V30 23427 C 2212.7 4.67585 2.59362 0
M  V30 23428 C 2214 5.20166 0.471684 0
M  V30 23429 H 2215.69 2.99399 -0.00768794 0
M  V30 23430 H 2213.24 1.43999 -0.0051376 0
M  V30 23431 H 2215.19 3.47694 2.38091 0
M  V30 23432 H 2213.92 2.23426 2.38219 0
M  V30 23433 H 2212.58 3.59114 0.737058 0
M  V30 23434 H 2212.22 3.88438 3.1957 0
M  V30 23435 H 2211.92 5.40196 2.31219 0
M  V30 23436 H 2213.45 5.1881 3.21976 0
M  V30 23437 H 2214.86 5.646 0.994956 0
M  V30 23438 H 2213.26 5.99425 0.284534 0
M  V30 23439 H 2214.33 4.82251 -0.506126 0
M  V30 23440 N 2215.67 0.0167433 1.57591 0
M  V30 23441 C 2216.9 -0.675094 1.95576 0
M  V30 23442 C 2217.31 -1.66369 0.892571 0
M  V30 23443 O 2216.67 -1.82058 -0.12688 0
M  V30 23444 C 2216.72 -1.39234 3.33611 0
M  V30 23445 O 2216.44 -0.443367 4.35851 0
M  V30 23446 C 2217.94 -2.17714 3.86155 0
M  V30 23447 H 2215.16 -0.186966 0.644426 0
M  V30 23448 H 2217.71 0.0728359 2.0437 0
M  V30 23449 H 2215.86 -2.09176 3.26074 0
M  V30 23450 H 2216.28 -0.951268 5.15801 0
M  V30 23451 H 2217.75 -2.63371 4.85118 0
M  V30 23452 H 2218.23 -3.01099 3.19744 0
M  V30 23453 H 2218.83 -1.52754 3.96921 0
M  V30 23454 N 2217.15 -1.55503 -0.256249 0
M  V30 23455 C 2218.43 -1.67635 -1.00786 0
M  V30 23456 C 2218.81 -0.553862 -2.03705 0
M  V30 23457 O 2218.16 0.443929 -2.24146 0
M  V30 23458 C 2218.37 -3.07552 -1.64962 0
M  V30 23459 C 2219.71 -3.65849 -2.15499 0
M  V30 23460 O 2220.74 -3.10293 -1.7492 0
M  V30 23461 O 2219.6 -4.63222 -2.89978 0
M  V30 23462 H 2216.69 -0.681468 -0.468541 0
M  V30 23463 H 2219.24 -1.67837 -0.250776 0
M  V30 23464 H 2218.01 -3.80697 -0.904718 0
M  V30 23465 H 2217.63 -3.11321 -2.47315 0
M  V30 23466 N 2218.63 0.521507 -1.48721 0
M  V30 23467 C 2219.88 1.27434 -1.56859 0
M  V30 23468 C 2220.2 1.93416 -0.248016 0
M  V30 23469 O 2219.47 1.81746 0.731119 0
M  V30 23470 H 2218.05 0.473337 -0.577894 0
M  V30 23471 H 2220.71 0.606173 -1.85234 0
M  V30 23472 H 2219.81 2.04916 -2.35406 0
M  V30 23473 N 2220.11 1.37452 0.771027 0
M  V30 23474 C 2221.02 1.35467 1.91535 0
M  V30 23475 C 2222.03 0.254153 1.72134 0
M  V30 23476 O 2223.21 0.48966 1.95357 0
M  V30 23477 C 2220.27 1.16139 3.26669 0
M  V30 23478 C 2219.33 2.35837 3.58719 0
M  V30 23479 C 2218.57 2.17422 4.87405 0
M  V30 23480 O 2218.79 1.15885 5.58504 0
M  V30 23481 O 2217.72 3.05624 5.18534 0
M  V30 23482 H 2221.55 2.3185 1.96161 0
M  V30 23483 H 2219.14 1.18189 0.913879 0
M  V30 23484 H 2221.02 1.07352 4.07497 0
M  V30 23485 H 2219.69 0.228308 3.22894 0
M  V30 23486 H 2218.6 2.50197 2.78123 0
M  V30 23487 H 2219.93 3.27716 3.67237 0
M  V30 23488 N 2221.58 -0.997276 1.22033 0
M  V30 23489 C 2222.49 -2.1209 1.00275 0
M  V30 23490 C 2223.51 -1.73935 -0.0475905 0
M  V30 23491 O 2224.69 -2.00883 0.144171 0
M  V30 23492 C 2221.75 -3.41839 0.578509 0
M  V30 23493 C 2220.81 -3.94122 1.70196 0
M  V30 23494 C 2220.05 -5.17679 1.29787 0
M  V30 23495 O 2220.27 -5.70132 0.174776 0
M  V30 23496 O 2219.2 -5.63603 2.11271 0
M  V30 23497 H 2223.03 -2.33327 1.94402 0
M  V30 23498 H 2220.61 -1.10464 1.00589 0
M  V30 23499 H 2222.5 -4.19927 0.352072 0
M  V30 23500 H 2221.17 -3.21973 -0.333962 0
M  V30 23501 H 2220.08 -3.17227 1.98287 0
M  V30 23502 H 2221.41 -4.18413 2.59213 0
M  V30 23503 N 2223.06 -1.02932 -1.19343 0
M  V30 23504 C 2224.48 -0.746471 -1.41067 0
M  V30 23505 C 2224.68 0.668742 -1.90079 0
M  V30 23506 O 2223.73 1.43467 -2.07783 0
M  V30 23507 C 2225.05 -1.78296 -2.42138 0
M  V30 23508 C 2226.6 -1.80256 -2.55884 0
M  V30 23509 C 2227.07 -2.82866 -3.60209 0
M  V30 23510 N 2228.56 -2.81686 -3.67706 0
M  V30 23511 C 2229.3 -3.57735 -4.48122 0
M  V30 23512 N 2228.79 -4.435 -5.3224 0
M  V30 23513 N 2230.59 -3.46275 -4.42776 0
M  V30 23514 H 2222.74 -1.94277 -0.858502 0
M  V30 23515 H 2225 -0.839953 -0.439527 0
M  V30 23516 H 2224.71 -2.7975 -2.1315 0
M  V30 23517 H 2224.58 -1.60563 -3.4132 0
M  V30 23518 H 2226.97 -0.794807 -2.84195 0
M  V30 23519 H 2227.05 -2.02065 -1.56854 0
M  V30 23520 H 2226.69 -3.83813 -3.32641 0
M  V30 23521 H 2226.62 -2.58315 -4.58891 0
M  V30 23522 H 2229.11 -2.19482 -3.0763 0
M  V30 23523 H 2229.43 -4.98266 -5.9072 0
M  V30 23524 H 2227.77 -4.47573 -5.31699 0
M  V30 23525 H 2230.96 -2.78684 -3.76102 0
M  V30 23526 H 2231.13 -4.05794 -5.05208 0
M  V30 23527 N 2224.54 1.35356 -0.807246 0
M  V30 23528 C 2225.79 1.99044 -0.388498 0
M  V30 23529 C 2226.12 1.6389 1.04181 0
M  V30 23530 O 2225.39 0.902565 1.7229 0
M  V30 23531 C 2225.68 3.55514 -0.572846 0
M  V30 23532 C 2225.53 4.00464 -2.04814 0
M  V30 23533 C 2226.85 4.401 0.00106328 0
M  V30 23534 H 2223.97 0.723067 -0.142631 0
M  V30 23535 H 2226.61 1.60496 -1.0169 0
M  V30 23536 H 2224.76 3.88482 -0.0379108 0
M  V30 23537 H 2226.43 3.77903 -2.6455 0
M  V30 23538 H 2224.68 3.51349 -2.54433 0
M  V30 23539 H 2225.35 5.09333 -2.128 0
M  V30 23540 H 2227.82 4.13596 -0.455788 0
M  V30 23541 H 2226.7 5.48673 -0.157833 0
M  V30 23542 H 2226.96 4.2833 1.09481 0
M  V30 23543 N 2226.02 0.560807 1.47284 0
M  V30 23544 C 2227.27 0.0359304 2.01668 0
M  V30 23545 C 2227.58 -1.3235 1.44024 0
M  V30 23546 O 2228.79 -1.93849 1.90091 0
M  V30 23547 C 2227.24 0.0137292 3.59897 0
M  V30 23548 C 2226.85 1.37014 4.26534 0
M  V30 23549 C 2228.59 -0.458351 4.22018 0
M  V30 23550 C 2226.5 1.30685 5.7678 0
M  V30 23551 H 2225.43 0.00966204 0.753938 0
M  V30 23552 H 2228.08 0.709195 1.69241 0
M  V30 23553 H 2226.46 -0.725257 3.89302 0
M  V30 23554 H 2227.64 2.12712 4.08767 0
M  V30 23555 H 2225.95 1.78045 3.76416 0
M  V30 23556 H 2228.55 -0.524154 5.32125 0
M  V30 23557 H 2228.89 -1.47113 3.8944 0
M  V30 23558 H 2229.43 0.225887 3.97158 0
M  V30 23559 H 2226.17 2.29575 6.13984 0
M  V30 23560 H 2225.69 0.591727 5.96874 0
M  V30 23561 H 2227.36 1.01044 6.39061 0
M  V30 23562 N 2227.5 -1.54768 0.297442 0
M  V30 23563 C 2228.43 -2.26349 -0.573454 0
M  V30 23564 C 2229.41 -1.26171 -1.14083 0
M  V30 23565 O 2230.59 -1.54936 -1.17083 0
M  V30 23566 C 2227.72 -3.00156 -1.74711 0
M  V30 23567 C 2226.68 -4.07451 -1.31025 0
M  V30 23568 C 2226 -4.68954 -2.56878 0
M  V30 23569 C 2227.3 -5.20409 -0.444092 0
M  V30 23570 H 2229 -2.99391 0.0235657 0
M  V30 23571 H 2226.54 -1.43994 0.0127742 0
M  V30 23572 H 2228.5 -3.48951 -2.36243 0
M  V30 23573 H 2227.22 -2.24686 -2.37031 0
M  V30 23574 H 2225.88 -3.595 -0.718003 0
M  V30 23575 H 2225.53 -3.90128 -3.17505 0
M  V30 23576 H 2225.23 -5.41415 -2.28351 0
M  V30 23577 H 2226.75 -5.2051 -3.1922 0
M  V30 23578 H 2228.16 -5.6512 -0.965 0
M  V30 23579 H 2226.56 -5.99568 -0.252741 0
M  V30 23580 H 2227.63 -4.81976 0.531693 0
M  V30 23581 N 2228.97 -0.0251005 -1.5758 0
M  V30 23582 C 2229.94 0.943102 -2.08898 0
M  V30 23583 C 2230.94 1.25666 -1.00323 0
M  V30 23584 O 2232.13 1.19767 -1.26498 0
M  V30 23585 C 2229.26 2.26081 -2.55147 0
M  V30 23586 H 2230.45 0.498723 -2.95724 0
M  V30 23587 H 2228.01 0.22286 -1.54703 0
M  V30 23588 H 2228.74 2.75156 -1.71638 0
M  V30 23589 H 2228.53 2.04636 -3.34465 0
M  V30 23590 H 2230.02 2.95487 -2.95089 0
M  V30 23591 N 2230.45 1.55637 0.247999 0
M  V30 23592 C 2231.7 1.77066 0.974264 0
M  V30 23593 C 2232.02 0.588882 1.85896 0
M  V30 23594 O 2231.29 -0.395373 1.91869 0
M  V30 23595 H 2229.87 0.653025 0.362722 0
M  V30 23596 H 2232.53 1.93073 0.26621 0
M  V30 23597 H 2231.63 2.68168 1.59662 0
M  V30 23598 N 2231.93 -0.513613 1.48996 0
M  V30 23599 C 2233.34 -1.09534 1.51192 0
M  V30 23600 C 2233.69 -1.94031 0.29094 0
M  V30 23601 O 2232.82 -2.07903 -0.600453 0
M  V30 23602 C 2233.41 -1.99317 2.73967 0
M  V30 23603 C 2231.97 -2.52677 2.78983 0
M  V30 23604 C 2231.12 -1.30005 2.44937 0
M  V30 23605 H 2234.07 -0.298098 1.55875 0
M  V30 23606 H 2234.09 -2.83834 2.53414 0
M  V30 23607 H 2233.6 -1.37792 3.62815 0
M  V30 23608 H 2231.7 -3.17877 1.94383 0
M  V30 23609 H 2231.82 -2.90692 3.80835 0
M  V30 23610 H 2230.18 -1.62118 1.96443 0
M  V30 23611 H 2230.96 -0.702072 3.36044 0
M  V30 23612 N 2233.41 -1.37859 -0.763727 0
M  V30 23613 C 2234.34 -1.28643 -1.88484 0
M  V30 23614 C 2235.32 -0.165391 -1.61757 0
M  V30 23615 O 2236.5 -0.34098 -1.8539 0
M  V30 23616 C 2233.63 -0.990868 -3.23882 0
M  V30 23617 C 2232.68 -2.12989 -3.6951 0
M  V30 23618 S 2233.51 -3.75039 -3.82238 0
M  V30 23619 C 2234.67 -3.4765 -5.20471 0
M  V30 23620 H 2234.9 -2.23531 -1.96014 0
M  V30 23621 H 2232.43 -1.23575 -0.925662 0
M  V30 23622 H 2234.39 -0.827172 -4.0208 0
M  V30 23623 H 2233.05 -0.0593384 -3.14044 0
M  V30 23624 H 2232.24 -1.87829 -4.67692 0
M  V30 23625 H 2231.85 -2.25413 -2.98437 0
M  V30 23626 H 2234.14 -3.03136 -6.059 0
M  V30 23627 H 2235.08 -4.45189 -5.50647 0
M  V30 23628 H 2235.49 -2.82394 -4.88788 0
M  V30 23629 N 2234.89 0.990791 -1.22561 0
M  V30 23630 C 2236.3 1.54516 -1.04794 0
M  V30 23631 C 2236.65 1.92326 0.387964 0
M  V30 23632 O 2235.77 1.74978 1.27325 0
M  V30 23633 C 2236.37 2.80776 -1.89605 0
M  V30 23634 C 2234.93 3.32649 -1.76129 0
M  V30 23635 C 2234.08 2.05719 -1.85943 0
M  V30 23636 H 2237.03 0.811638 -1.36375 0
M  V30 23637 H 2237.05 3.53223 -1.41471 0
M  V30 23638 H 2236.56 2.53226 -2.94106 0
M  V30 23639 H 2234.66 3.65102 -0.743707 0
M  V30 23640 H 2234.77 4.03109 -2.5892 0
M  V30 23641 H 2233.14 2.19376 -1.29407 0
M  V30 23642 H 2233.92 1.80563 -2.91979 0
M  V30 23643 N 2236.37 1.03564 1.18795 0
M  V30 23644 C 2237.61 0.737146 1.88929 0
M  V30 23645 C 2237.94 -0.732924 1.79838 0
M  V30 23646 O 2237.22 -1.53438 1.19528 0
M  V30 23647 C 2237.5 1.19751 3.39605 0
M  V30 23648 C 2237.36 2.7293 3.57532 0
M  V30 23649 C 2238.67 0.783602 4.33068 0
M  V30 23650 H 2235.79 0.269261 0.686052 0
M  V30 23651 H 2238.44 1.28676 1.39795 0
M  V30 23652 H 2236.59 0.729922 3.81581 0
M  V30 23653 H 2238.26 3.27688 3.24682 0
M  V30 23654 H 2236.5 3.12998 3.00357 0
M  V30 23655 H 2237.17 3.00199 4.63233 0
M  V30 23656 H 2239.65 1.18588 3.98843 0
M  V30 23657 H 2238.52 1.13353 5.37068 0
M  V30 23658 H 2238.78 -0.313604 4.40986 0
M  V30 23659 N 2237.84 -1.34926 0.814413 0
M  V30 23660 C 2239.07 -2.02773 0.411172 0
M  V30 23661 C 2239.49 -1.61356 -0.980288 0
M  V30 23662 O 2238.84 -0.814876 -1.63297 0
M  V30 23663 C 2238.89 -3.5811 0.493928 0
M  V30 23664 O 2238.62 -3.98024 1.83054 0
M  V30 23665 C 2240.12 -4.43219 0.0844953 0
M  V30 23666 H 2237.34 -0.65013 0.166048 0
M  V30 23667 H 2239.88 -1.72382 1.10021 0
M  V30 23668 H 2238.04 -3.87121 -0.146938 0
M  V30 23669 H 2238.45 -4.9269 1.7988 0
M  V30 23670 H 2239.92 -5.51661 0.193501 0
M  V30 23671 H 2240.4 -4.28331 -0.971054 0
M  V30 23672 H 2241.01 -4.19519 0.698824 0
M  V30 23673 N 2239.32 -0.56861 -1.46985 0
M  V30 23674 C 2240.27 0.193299 -2.27179 0
M  V30 23675 C 2241.26 0.874871 -1.35036 0
M  V30 23676 O 2242.45 0.771294 -1.59311 0
M  V30 23677 C 2239.58 1.2154 -3.21065 0
M  V30 23678 C 2238.66 0.536664 -4.20691 0
M  V30 23679 N 2239.05 -0.399761 -5.04218 0
M  V30 23680 C 2237.35 0.789176 -4.38962 0
M  V30 23681 C 2238.05 -0.795118 -5.7624 0
M  V30 23682 N 2237.03 -0.147395 -5.434 0
M  V30 23683 H 2240.83 -0.526509 -2.89145 0
M  V30 23684 H 2238.34 -0.389369 -1.57663 0
M  V30 23685 H 2240.34 1.7753 -3.77212 0
M  V30 23686 H 2239 1.93618 -2.60657 0
M  V30 23687 H 2240.01 -0.774544 -5.12075 0
M  V30 23688 H 2236.69 1.4976 -3.89716 0
M  V30 23689 H 2238.08 -1.56524 -6.53414 0
M  V30 23690 N 2240.8 1.54608 -0.305646 0
M  V30 23691 C 2242.02 2.05107 0.307526 0
M  V30 23692 C 2242.45 1.18125 1.46383 0
M  V30 23693 O 2241.81 0.186356 1.8034 0
M  V30 23694 C 2241.86 3.52989 0.736978 0
M  V30 23695 O 2240.96 3.69013 1.84128 0
M  V30 23696 H 2240.3 0.661382 0.0589027 0
M  V30 23697 H 2242.83 1.99616 -0.448842 0
M  V30 23698 H 2242.84 3.94927 1.02452 0
M  V30 23699 H 2241.52 4.15758 -0.108847 0
M  V30 23700 H 2240.09 3.3898 1.55392 0
M  V30 23701 N 2242.28 0.033457 1.57564 0
M  V30 23702 C 2243.5 -0.657861 1.9669 0
M  V30 23703 C 2243.93 -1.64618 0.910086 0
M  V30 23704 O 2243.29 -1.80844 -0.128566 0
M  V30 23705 C 2243.33 -1.33677 3.34907 0
M  V30 23706 O 2242.44 -2.45213 3.31578 0
M  V30 23707 H 2241.78 -0.172478 0.641208 0
M  V30 23708 H 2244.31 0.096598 2.04372 0
M  V30 23709 H 2244.32 -1.69256 3.71236 0
M  V30 23710 H 2242.99 -0.612339 4.11368 0
M  V30 23711 H 2241.57 -2.11714 3.06972 0
M  V30 23712 N 2243.76 -1.55766 -0.239741 0
M  V30 23713 C 2244.72 -1.90105 -1.28034 0
M  V30 23714 C 2245.72 -0.77808 -1.40722 0
M  V30 23715 O 2246.91 -1.04601 -1.39299 0
M  V30 23716 C 2244.04 -2.13581 -2.65699 0
M  V30 23717 H 2245.23 -2.83158 -0.987998 0
M  V30 23718 H 2242.79 -1.48768 -0.479356 0
M  V30 23719 H 2243.52 -1.2302 -3.00061 0
M  V30 23720 H 2243.31 -2.95374 -2.5787 0
M  V30 23721 H 2244.8 -2.41307 -3.40823 0
M  V30 23722 N 2245.23 0.505704 -1.49266 0
M  V30 23723 C 2246.2 1.59003 -1.65078 0
M  V30 23724 C 2247.2 1.52064 -0.522794 0
M  V30 23725 O 2248.39 1.553 -0.789145 0
M  V30 23726 C 2245.52 2.98653 -1.64375 0
M  V30 23727 H 2246.71 1.46314 -2.61786 0
M  V30 23728 H 2244.26 0.729592 -1.38227 0
M  V30 23729 H 2245 3.16824 -0.692328 0
M  V30 23730 H 2244.78 3.05098 -2.46287 0
M  V30 23731 H 2246.27 3.77443 -1.7868 0
M  V30 23732 N 2246.71 1.38262 0.756405 0
M  V30 23733 C 2247.64 1.3115 1.87969 0
M  V30 23734 C 2248.66 0.224268 1.61248 0
M  V30 23735 O 2249.85 0.481611 1.7188 0
M  V30 23736 C 2246.95 1.00863 3.23543 0
M  V30 23737 C 2246.12 2.20439 3.7779 0
M  V30 23738 C 2245.18 1.8694 4.91874 0
M  V30 23739 O 2244.2 2.59403 5.06654 0
M  V30 23740 N 2245.41 0.822669 5.74641 0
M  V30 23741 H 2248.17 2.27944 1.94581 0
M  V30 23742 H 2245.73 1.32086 0.936211 0
M  V30 23743 H 2247.72 0.765091 3.97402 0
M  V30 23744 H 2246.29 0.128742 3.12335 0
M  V30 23745 H 2245.51 2.60875 2.9553 0
M  V30 23746 H 2246.8 3.00248 4.10766 0
M  V30 23747 H 2246.2 0.221675 5.65266 0
M  V30 23748 H 2244.76 0.639013 6.4866 0
M  V30 23749 N 2248.19 -0.984277 1.23084 0
M  V30 23750 C 2249.61 -1.24974 0.992659 0
M  V30 23751 C 2249.81 -1.99123 -0.308583 0
M  V30 23752 O 2248.86 -2.30581 -1.02901 0
M  V30 23753 C 2250.18 -2.05308 2.19702 0
M  V30 23754 C 2251.72 -2.18461 2.24151 0
M  V30 23755 C 2252.2 -3.02185 3.44163 0
M  V30 23756 N 2253.69 -3.09771 3.44378 0
M  V30 23757 C 2254.42 -3.74867 4.33892 0
M  V30 23758 N 2253.92 -4.41817 5.33638 0
M  V30 23759 N 2255.71 -3.71714 4.21646 0
M  V30 23760 H 2247.86 -0.487417 2.06732 0
M  V30 23761 H 2250.13 -0.277928 0.906344 0
M  V30 23762 H 2249.83 -1.58195 3.14113 0
M  V30 23763 H 2249.71 -3.0606 2.2047 0
M  V30 23764 H 2252.09 -2.64784 1.30282 0
M  V30 23765 H 2252.18 -1.17111 2.27417 0
M  V30 23766 H 2251.82 -2.56561 4.38337 0
M  V30 23767 H 2251.75 -4.03697 3.38137 0
M  V30 23768 H 2254.24 -2.6213 2.72206 0
M  V30 23769 H 2254.55 -4.89255 5.98205 0
M  V30 23770 H 2252.9 -4.40538 5.37542 0
M  V30 23771 H 2256.09 -3.18576 3.42968 0
M  V30 23772 H 2256.26 -4.22164 4.91611 0
M  V30 23773 N 2249.67 -1.04192 -1.18244 0
M  V30 23774 C 2251.08 -0.761391 -1.40268 0
M  V30 23775 C 2251.28 0.648544 -1.90778 0
M  V30 23776 O 2250.34 1.41255 -2.09293 0
M  V30 23777 C 2251.65 -1.80855 -2.40233 0
M  V30 23778 C 2253.2 -1.8296 -2.53958 0
M  V30 23779 C 2253.68 -2.86671 -3.57189 0
M  V30 23780 N 2255.17 -2.8557 -3.64697 0
M  V30 23781 C 2255.9 -3.62468 -4.44303 0
M  V30 23782 N 2255.4 -4.49121 -5.27506 0
M  V30 23783 N 2257.19 -3.50951 -4.39078 0
M  V30 23784 H 2249.34 -1.95177 -0.837848 0
M  V30 23785 H 2251.61 -0.844567 -0.430593 0
M  V30 23786 H 2251.31 -2.81995 -2.10171 0
M  V30 23787 H 2251.19 -1.64174 -3.39598 0
M  V30 23788 H 2253.57 -0.824905 -2.83336 0
M  V30 23789 H 2253.65 -2.03718 -1.54702 0
M  V30 23790 H 2253.3 -3.8732 -3.28551 0
M  V30 23791 H 2253.23 -2.63168 -4.56125 0
M  V30 23792 H 2255.72 -2.22732 -3.05285 0
M  V30 23793 H 2256.03 -5.04504 -5.85402 0
M  V30 23794 H 2254.38 -4.53187 -5.26922 0
M  V30 23795 H 2257.57 -2.82657 -3.73125 0
M  V30 23796 H 2257.74 -4.1113 -5.00876 0
M  V30 23797 N 2251.15 1.34492 -0.821557 0
M  V30 23798 C 2252.39 1.97935 -0.408173 0
M  V30 23799 C 2252.72 1.65459 1.0319 0
M  V30 23800 O 2251.99 0.944625 1.71621 0
M  V30 23801 H 2250.57 0.732204 -0.147941 0
M  V30 23802 H 2253.23 1.64153 -1.0507 0
M  V30 23803 H 2252.32 3.07634 -0.526065 0
M  V30 23804 N 2252.62 0.576397 1.46681 0
M  V30 23805 C 2254.04 0.23759 1.57822 0
M  V30 23806 C 2254.24 -1.26008 1.5724 0
M  V30 23807 O 2253.3 -2.04143 1.48599 0
M  V30 23808 C 2254.61 0.881218 2.87498 0
M  V30 23809 C 2256.16 0.854222 3.01118 0
M  V30 23810 C 2256.63 1.47727 4.33521 0
M  V30 23811 N 2258.12 1.44133 4.40204 0
M  V30 23812 C 2258.86 1.89286 5.41256 0
M  V30 23813 N 2258.35 2.42383 6.49017 0
M  V30 23814 N 2260.15 1.8024 5.32419 0
M  V30 23815 H 2252.3 1.54921 1.45304 0
M  V30 23816 H 2254.56 0.647179 0.692722 0
M  V30 23817 H 2254.27 1.93452 2.93716 0
M  V30 23818 H 2254.14 0.385658 3.75223 0
M  V30 23819 H 2256.53 -0.190439 2.94485 0
M  V30 23820 H 2256.61 1.38774 2.14885 0
M  V30 23821 H 2256.25 2.5211 4.40911 0
M  V30 23822 H 2256.18 0.919038 5.18518 0
M  V30 23823 H 2258.67 1.05314 3.62929 0
M  V30 23824 H 2258.99 2.7471 7.22325 0
M  V30 23825 H 2257.33 2.46405 6.49854 0
M  V30 23826 H 2260.52 1.38521 4.47135 0
M  V30 23827 H 2260.7 2.15746 6.1103 0
M  V30 23828 N 2254.1 -1.54444 0.313841 0
M  V30 23829 C 2255.35 -1.99568 -0.292484 0
M  V30 23830 C 2255.66 -1.20585 -1.54009 0
M  V30 23831 O 2256.87 -1.56039 -2.2218 0
M  V30 23832 C 2255.33 -3.5533 -0.571689 0
M  V30 23833 C 2254.93 -4.43137 0.658307 0
M  V30 23834 C 2256.68 -4.08948 -1.1385 0
M  V30 23835 C 2254.59 -5.90354 0.351543 0
M  V30 23836 H 2253.52 -0.745474 -0.113066 0
M  V30 23837 H 2256.17 -1.78521 0.42455 0
M  V30 23838 H 2254.55 -3.72327 -1.34865 0
M  V30 23839 H 2255.72 -4.37916 1.43411 0
M  V30 23840 H 2254.04 -4.00358 1.14465 0
M  V30 23841 H 2256.63 -5.16519 -1.38247 0
M  V30 23842 H 2256.98 -3.60334 -2.08483 0
M  V30 23843 H 2257.51 -3.95545 -0.422945 0
M  V30 23844 H 2254.25 -6.43143 1.26678 0
M  V30 23845 H 2253.77 -5.98552 -0.386737 0
M  V30 23846 H 2255.45 -6.46986 -0.0421997 0
M  V30 23847 N 2255.58 -0.0418125 -1.57545 0
M  V30 23848 C 2256.83 0.632796 -1.91938 0
M  V30 23849 C 2257.15 1.71933 -0.920008 0
M  V30 23850 O 2256.42 1.95866 0.0365719 0
M  V30 23851 H 2255 0.236729 -0.708497 0
M  V30 23852 H 2257.66 -0.0926087 -1.9468 0
M  V30 23853 H 2256.76 1.07741 -2.92913 0
M  V30 23854 N 2257.06 1.55891 0.231477 0
M  V30 23855 C 2258.47 1.4866 0.580722 0
M  V30 23856 C 2258.67 0.735013 1.87616 0
M  V30 23857 O 2257.73 0.27063 2.51045 0
M  V30 23858 C 2259.04 2.9316 0.669151 0
M  V30 23859 C 2260.59 3.03622 0.760445 0
M  V30 23860 C 2261.07 4.4946 0.880304 0
M  V30 23861 N 2262.56 4.53462 0.944781 0
M  V30 23862 C 2263.29 5.63572 1.05706 0
M  V30 23863 N 2262.79 6.83458 1.13391 0
M  V30 23864 N 2264.58 5.51402 1.09142 0
M  V30 23865 H 2256.73 2.03188 -0.618731 0
M  V30 23866 H 2259 0.923124 -0.215744 0
M  V30 23867 H 2258.7 3.51055 -0.212966 0
M  V30 23868 H 2258.58 3.44508 1.53604 0
M  V30 23869 H 2260.96 2.45798 1.63301 0
M  V30 23870 H 2261.04 2.5546 -0.131909 0
M  V30 23871 H 2260.69 5.07899 0.0122391 0
M  V30 23872 H 2260.62 4.95319 1.78793 0
M  V30 23873 H 2263.11 3.67122 0.896111 0
M  V30 23874 H 2263.42 7.63124 1.21908 0
M  V30 23875 H 2261.77 6.86188 1.10321 0
M  V30 23876 H 2264.96 4.56673 1.02797 0
M  V30 23877 H 2265.13 6.37249 1.17547 0
M  V30 23878 N 2258.54 -0.497781 1.49532 0
M  V30 23879 C 2259.48 -1.6198 1.66929 0
M  V30 23880 C 2260.48 -1.60723 0.535195 0
M  V30 23881 O 2261.68 -1.65193 0.714925 0
M  V30 23882 H 2258.06 -0.537012 0.526424 0
M  V30 23883 H 2260.03 -1.4446 2.61101 0
M  V30 23884 C 2258.78 -3.00096 1.75607 0
M  V30 23885 H 2258.1 -3.0177 2.6225 0
M  V30 23886 H 2259.54 -3.78132 1.91813 0
M  V30 23887 C 2258 -3.33145 0.501601 0
M  V30 23888 O 2258.53 -3.99981 -0.371271 0
M  V30 23889 N 2256.74 -2.88317 0.363582 0
M  V30 23890 H 2256.28 -2.34102 1.0749 0
M  V30 23891 H 2256.24 -3.10796 -0.474673 0
M  V30 23892 N 2260.01 -1.38661 -0.749062 0
M  V30 23893 C 2261.43 -1.31369 -1.32662 0
M  V30 23894 C 2261.78 0.0284495 -1.96179 0
M  V30 23895 O 2260.9 0.930536 -1.95371 0
M  V30 23896 C 2261.5 -2.37909 -2.41215 0
M  V30 23897 C 2260.06 -2.34181 -2.9468 0
M  V30 23898 C 2259.2 -2.20536 -1.68104 0
M  V30 23899 H 2262.15 -1.48953 -0.547602 0
M  V30 23900 H 2262.17 -2.03886 -3.21264 0
M  V30 23901 H 2261.69 -3.3558 -1.94956 0
M  V30 23902 H 2259.79 -1.40106 -3.45255 0
M  V30 23903 H 2259.9 -3.28496 -3.48751 0
M  V30 23904 H 2258.26 -1.67466 -1.91904 0
M  V30 23905 H 2259.05 -3.20155 -1.23918 0
M  V30 23906 N 2261.49 0.977736 -1.23605 0
M  V30 23907 C 2262.91 1.24446 -0.999273 0
M  V30 23908 C 2263.11 1.99284 0.298018 0
M  V30 23909 O 2262.17 2.31123 1.01677 0
M  V30 23910 C 2263.48 2.0414 -2.20788 0
M  V30 23911 C 2265.03 2.17269 -2.25306 0
M  V30 23912 C 2265.5 3.00356 -3.4576 0
M  V30 23913 N 2266.99 3.0794 -3.46016 0
M  V30 23914 C 2267.73 3.7256 -4.35874 0
M  V30 23915 N 2267.22 4.38981 -5.35973 0
M  V30 23916 N 2269.02 3.69473 -4.23611 0
M  V30 23917 H 2261.17 0.476447 -2.06987 0
M  V30 23918 H 2263.43 0.273118 -0.907805 0
M  V30 23919 H 2263.14 1.56527 -3.14948 0
M  V30 23920 H 2263.01 3.04887 -2.2209 0
M  V30 23921 H 2265.4 2.64089 -1.31684 0
M  V30 23922 H 2265.48 1.15903 -2.28035 0
M  V30 23923 H 2265.12 2.54232 -4.39691 0
M  V30 23924 H 2265.05 4.01898 -3.40273 0
M  V30 23925 H 2267.54 2.60683 -2.73592 0
M  V30 23926 H 2267.86 4.86076 -6.00791 0
M  V30 23927 H 2266.2 4.37681 -5.3987 0
M  V30 23928 H 2269.39 3.16753 -3.44652 0
M  V30 23929 H 2269.57 4.19551 -4.93843 0
M  V30 23930 N 2262.97 1.04818 1.1769 0
M  V30 23931 C 2263.92 0.6397 2.23631 0
M  V30 23932 C 2264.91 -0.33719 1.6601 0
M  V30 23933 O 2266.12 -0.203662 1.78844 0
M  V30 23934 H 2262.49 0.188678 0.727945 0
M  V30 23935 H 2264.47 1.54342 2.55384 0
M  V30 23936 C 2263.21 0.0264662 3.4769 0
M  V30 23937 H 2262.54 0.769233 3.9233 0
M  V30 23938 H 2263.98 -0.222024 4.23418 0
M  V30 23939 C 2262.44 -1.22578 3.13809 0
M  V30 23940 O 2262.97 -2.31563 3.2824 0
M  V30 23941 N 2261.17 -1.12197 2.68067 0
M  V30 23942 H 2260.72 -0.235088 2.56525 0
M  V30 23943 H 2260.68 -1.96072 2.45771 0
M  V30 23944 N 2264.45 -1.34055 0.828678 0
M  V30 23945 C 2265.36 -2.33191 0.256766 0
M  V30 23946 C 2266.38 -1.62887 -0.611869 0
M  V30 23947 O 2267.55 -1.94614 -0.518406 0
M  V30 23948 C 2264.62 -3.42029 -0.567178 0
M  V30 23949 C 2263.68 -4.28072 0.324534 0
M  V30 23950 C 2262.91 -5.31712 -0.460181 0
M  V30 23951 O 2263.13 -5.44699 -1.6929 0
M  V30 23952 O 2262.07 -6.01686 0.160497 0
M  V30 23953 H 2265.89 -2.83945 1.07744 0
M  V30 23954 H 2263.48 -1.37216 0.590954 0
M  V30 23955 H 2265.36 -4.08473 -1.03575 0
M  V30 23956 H 2264.04 -2.93509 -1.36508 0
M  V30 23957 H 2262.94 -3.64531 0.840723 0
M  V30 23958 H 2264.28 -4.80048 1.08694 0
M  V30 23959 N 2265.93 -0.584167 -1.46374 0
M  V30 23960 C 2266.88 0.161006 -2.32042 0
M  V30 23961 C 2267.87 0.88294 -1.4457 0
M  V30 23962 O 2269.08 0.801163 -1.61187 0
M  V30 23963 H 2265.45 0.0707902 -0.748661 0
M  V30 23964 H 2267.42 -0.58032 -2.92703 0
M  V30 23965 C 2266.17 1.16044 -3.27764 0
M  V30 23966 H 2265.49 0.61435 -3.95052 0
M  V30 23967 H 2266.93 1.65221 -3.90484 0
M  V30 23968 C 2265.39 2.22216 -2.53222 0
M  V30 23969 O 2265.92 3.29593 -2.29634 0
M  V30 23970 N 2264.13 1.96864 -2.13759 0
M  V30 23971 H 2263.68 1.09553 -2.33143 0
M  V30 23972 H 2263.63 2.68112 -1.64204 0
M  V30 23973 N 2267.41 1.54275 -0.322027 0
M  V30 23974 C 2268.68 1.92706 0.335198 0
M  V30 23975 C 2269.06 1.25148 1.70004 0
M  V30 23976 O 2268.41 0.394635 2.25066 0
M  V30 23977 C 2268.62 3.46354 0.428947 0
M  V30 23978 C 2269.97 4.18957 0.689955 0
M  V30 23979 O 2270.99 3.52502 0.51193 0
M  V30 23980 O 2269.85 5.36643 1.03329 0
M  V30 23981 H 2266.95 0.804611 0.191129 0
M  V30 23982 H 2269.49 1.65581 -0.371629 0
M  V30 23983 H 2268.26 3.87698 -0.529679 0
M  V30 23984 H 2267.89 3.7958 1.18341 0
M  V30 23985 N 2268.88 0.0501669 1.5752 0
M  V30 23986 C 2269.82 -0.953723 2.08415 0
M  V30 23987 C 2270.83 -1.27542 1.01177 0
M  V30 23988 O 2272.02 -1.23639 1.28747 0
M  V30 23989 C 2269.12 -2.27554 2.51142 0
M  V30 23990 C 2268.29 -2.13591 3.81704 0
M  V30 23991 C 2267.35 -3.28888 4.10754 0
M  V30 23992 O 2266.38 -3.04837 4.8069 0
M  V30 23993 N 2267.58 -4.53333 3.62587 0
M  V30 23994 H 2270.34 -0.519331 2.95166 0
M  V30 23995 H 2267.9 -0.136099 1.61327 0
M  V30 23996 H 2269.9 -3.03552 2.67653 0
M  V30 23997 H 2268.47 -2.62564 1.69644 0
M  V30 23998 H 2267.69 -1.22191 3.74784 0
M  V30 23999 H 2268.97 -2.01488 4.67205 0
M  V30 24000 H 2268.37 -4.75764 3.06047 0
M  V30 24001 H 2266.93 -5.26429 3.84338 0
M  V30 24002 N 2270.36 -1.56011 -0.223207 0
M  V30 24003 C 2271.59 -1.82764 -0.963381 0
M  V30 24004 C 2272 -0.626835 -1.78514 0
M  V30 24005 O 2271.34 0.413982 -1.78975 0
M  V30 24006 C 2271.4 -3.03223 -1.93121 0
M  V30 24007 C 2271.07 -4.38294 -1.29413 0
M  V30 24008 C 2272.07 -5.1537 -0.684826 0
M  V30 24009 C 2269.75 -4.85014 -1.30639 0
M  V30 24010 C 2271.74 -6.37327 -0.0962851 0
M  V30 24011 C 2269.43 -6.06914 -0.714003 0
M  V30 24012 C 2270.43 -6.82911 -0.110003 0
M  V30 24013 O 2270.12 -8.02506 0.473171 0
M  V30 24014 H 2269.85 -0.611581 -0.288 0
M  V30 24015 H 2272.4 -2.03945 -0.244067 0
M  V30 24016 H 2270.63 -2.77856 -2.68947 0
M  V30 24017 H 2272.32 -3.16862 -2.5368 0
M  V30 24018 H 2273.09 -4.80382 -0.667689 0
M  V30 24019 H 2268.97 -4.25837 -1.76591 0
M  V30 24020 H 2272.51 -6.96587 0.375779 0
M  V30 24021 H 2268.41 -6.41375 -0.728547 0
M  V30 24022 H 2269.18 -8.17675 0.36733 0
M  V30 24023 N 2271.84 0.489844 -1.49794 0
M  V30 24024 C 2273.09 1.23992 -1.59088 0
M  V30 24025 C 2273.4 1.93469 -0.287941 0
M  V30 24026 O 2274.61 2.70256 -0.259554 0
M  V30 24027 C 2273.06 2.25195 -2.8074 0
M  V30 24028 C 2272.67 1.61607 -4.17836 0
M  V30 24029 C 2274.42 3.00962 -2.9937 0
M  V30 24030 C 2272.32 2.60987 -5.30698 0
M  V30 24031 H 2271.25 0.466478 -0.59238 0
M  V30 24032 H 2273.9 0.512489 -1.76198 0
M  V30 24033 H 2272.29 3.0115 -2.57148 0
M  V30 24034 H 2273.46 0.915695 -4.5161 0
M  V30 24035 H 2271.77 0.981905 -4.04657 0
M  V30 24036 H 2274.37 3.75302 -3.80858 0
M  V30 24037 H 2274.71 3.5924 -2.10362 0
M  V30 24038 H 2275.25 2.32122 -3.23054 0
M  V30 24039 H 2271.99 2.07474 -6.218 0
M  V30 24040 H 2271.51 3.29231 -5.01365 0
M  V30 24041 H 2273.19 3.23193 -5.60496 0
M  V30 24042 N 2273.32 1.39056 0.741698 0
M  V30 24043 C 2274.55 1.38972 1.52873 0
M  V30 24044 C 2274.96 -0.0192933 1.8919 0
M  V30 24045 O 2274.3 -0.999329 1.5414 0
M  V30 24046 C 2274.36 2.19221 2.84925 0
M  V30 24047 C 2274.02 3.67919 2.7108 0
M  V30 24048 C 2275.02 4.6115 2.40076 0
M  V30 24049 C 2272.71 4.11423 2.8816 0
M  V30 24050 C 2274.7 5.95866 2.26325 0
M  V30 24051 C 2272.39 5.46216 2.74028 0
M  V30 24052 C 2273.39 6.38252 2.43154 0
M  V30 24053 O 2273.07 7.70563 2.29102 0
M  V30 24054 H 2272.81 0.476762 0.479243 0
M  V30 24055 H 2275.36 1.83407 0.924719 0
M  V30 24056 H 2273.59 1.69524 3.47561 0
M  V30 24057 H 2275.28 2.11398 3.46505 0
M  V30 24058 H 2276.04 4.28842 2.26537 0
M  V30 24059 H 2271.92 3.40125 3.11185 0
M  V30 24060 H 2275.47 6.67669 2.02148 0
M  V30 24061 H 2271.36 5.78117 2.87143 0
M  V30 24062 H 2272.13 7.81215 2.44223 0
M  V30 24063 N 2274.8 -0.971167 1.24121 0
M  V30 24064 C 2275.73 -2.06381 0.973767 0
M  V30 24065 C 2276.71 -1.62344 -0.0912376 0
M  V30 24066 O 2277.89 -1.88446 0.0449696 0
M  V30 24067 C 2275.02 -3.3544 0.468805 0
M  V30 24068 C 2274.06 -3.98425 1.52183 0
M  V30 24069 S 2274.9 -4.36497 3.1021 0
M  V30 24070 C 2276.05 -5.68697 2.61408 0
M  V30 24071 H 2276.29 -2.28749 1.89897 0
M  V30 24072 H 2273.82 -1.10861 1.07468 0
M  V30 24073 H 2275.78 -4.10087 0.184084 0
M  V30 24074 H 2274.44 -3.11064 -0.435634 0
M  V30 24075 H 2273.63 -4.91424 1.11885 0
M  V30 24076 H 2273.23 -3.30193 1.75637 0
M  V30 24077 H 2275.52 -6.46056 2.04004 0
M  V30 24078 H 2276.47 -6.13848 3.52982 0
M  V30 24079 H 2276.88 -5.2714 2.01951 0
M  V30 24080 N 2276.27 -1.05441 -1.17133 0
M  V30 24081 C 2277.52 -0.764462 -1.87084 0
M  V30 24082 C 2277.84 0.710755 -1.81585 0
M  V30 24083 O 2277.11 1.51372 -1.24352 0
M  V30 24084 H 2275.69 -0.279791 -0.692622 0
M  V30 24085 H 2278.36 -1.33409 -1.42085 0
M  V30 24086 H 2277.45 -1.08165 -2.92757 0
M  V30 24087 N 2277.75 1.33613 -0.835776 0
M  V30 24088 C 2278.66 2.33051 -0.269129 0
M  V30 24089 C 2279.68 1.63209 0.603222 0
M  V30 24090 O 2280.85 1.94886 0.508078 0
M  V30 24091 C 2277.92 3.42325 0.549031 0
M  V30 24092 C 2276.98 4.27893 -0.347231 0
M  V30 24093 C 2276.21 5.31949 0.431976 0
M  V30 24094 O 2276.44 5.45589 1.66399 0
M  V30 24095 O 2275.37 6.01592 -0.192404 0
M  V30 24096 H 2279.2 2.8337 -1.09248 0
M  V30 24097 H 2276.78 1.369 -0.598222 0
M  V30 24098 H 2278.66 4.09017 1.01407 0
M  V30 24099 H 2277.34 2.94228 1.34949 0
M  V30 24100 H 2276.25 3.6408 -0.860043 0
M  V30 24101 H 2277.58 4.79465 -1.11238 0
M  V30 24102 N 2279.23 0.591922 1.46062 0
M  V30 24103 C 2280.64 0.167855 1.85944 0
M  V30 24104 C 2280.99 -1.2714 1.49432 0
M  V30 24105 O 2280.12 -1.96171 0.913549 0
M  V30 24106 C 2280.71 0.297853 3.37488 0
M  V30 24107 C 2279.27 -0.0714071 3.76332 0
M  V30 24108 C 2278.42 0.629556 2.70059 0
M  V30 24109 H 2281.37 0.799579 1.37085 0
M  V30 24110 H 2281.39 -0.474282 3.77533 0
M  V30 24111 H 2280.9 1.34546 3.64032 0
M  V30 24112 H 2279 -1.11879 3.55406 0
M  V30 24113 H 2279.12 0.311329 4.78087 0
M  V30 24114 H 2277.48 0.0688314 2.54607 0
M  V30 24115 H 2278.26 1.67899 2.99441 0
M  V30 24116 N 2280.71 -1.54102 0.330204 0
M  V30 24117 C 2281.64 -2.27514 -0.525313 0
M  V30 24118 C 2282.62 -1.28562 -1.11381 0
M  V30 24119 O 2283.8 -1.57385 -1.1377 0
M  V30 24120 C 2280.93 -3.03794 -1.68305 0
M  V30 24121 C 2279.89 -4.10139 -1.22353 0
M  V30 24122 C 2279.21 -4.74297 -2.46873 0
M  V30 24123 C 2280.51 -5.21234 -0.333605 0
M  V30 24124 H 2282.21 -2.99273 0.0870656 0
M  V30 24125 H 2279.75 -1.43935 0.0433146 0
M  V30 24126 H 2281.71 -3.53884 -2.28788 0
M  V30 24127 H 2280.43 -2.29663 -2.32212 0
M  V30 24128 H 2279.09 -3.60942 -0.641586 0
M  V30 24129 H 2278.74 -3.96775 -3.09159 0
M  V30 24130 H 2278.44 -5.46136 -2.16815 0
M  V30 24131 H 2279.96 -5.27164 -3.08107 0
M  V30 24132 H 2281.38 -5.6704 -0.844913 0
M  V30 24133 H 2279.77 -5.99969 -0.125507 0
M  V30 24134 H 2280.84 -4.8074 0.633808 0
M  V30 24135 N 2282.19 -0.0585199 -1.57491 0
M  V30 24136 C 2283.1 0.928376 -2.15449 0
M  V30 24137 C 2284.11 1.33648 -1.11419 0
M  V30 24138 O 2285.29 1.4119 -1.43622 0
M  V30 24139 C 2282.35 2.18234 -2.69397 0
M  V30 24140 C 2281.41 1.8319 -3.88253 0
M  V30 24141 C 2280.65 3.02608 -4.39618 0
M  V30 24142 O 2280.87 4.16212 -3.90031 0
M  V30 24143 O 2279.8 2.83195 -5.31116 0
M  V30 24144 H 2283.63 0.46543 -3.00112 0
M  V30 24145 H 2281.22 0.1638 -1.48499 0
M  V30 24146 H 2283.1 2.91792 -3.04032 0
M  V30 24147 H 2281.77 2.63652 -1.87801 0
M  V30 24148 H 2280.68 1.06924 -3.58494 0
M  V30 24149 H 2282.01 1.42565 -4.71101 0
M  V30 24150 N 2283.66 1.56128 0.21493 0
M  V30 24151 C 2284.61 1.93818 1.28597 0
M  V30 24152 C 2285.61 0.821042 1.48173 0
M  V30 24153 O 2286.81 1.00592 1.49269 0
M  V30 24154 H 2283.19 0.616029 0.431291 0
M  V30 24155 H 2285.16 2.83176 0.940941 0
M  V30 24156 C 2283.91 2.27694 2.62775 0
M  V30 24157 H 2283.23 3.13172 2.48522 0
M  V30 24158 H 2284.67 2.57945 3.36512 0
M  V30 24159 C 2283.13 1.10442 3.18283 0
M  V30 24160 O 2283.66 0.369015 4.00001 0
M  V30 24161 N 2281.87 0.886481 2.76749 0
M  V30 24162 H 2281.41 1.48623 2.10402 0
M  V30 24163 H 2281.37 0.103712 3.14229 0
M  V30 24164 N 2285.14 -0.481893 1.50052 0
M  V30 24165 C 2286.42 -1.24318 1.51012 0
M  V30 24166 C 2286.8 -2.09631 0.248624 0
M  V30 24167 O 2286.15 -2.15194 -0.768371 0
M  V30 24168 C 2286.36 -2.0835 2.79984 0
M  V30 24169 C 2287.71 -2.66902 3.30225 0
M  V30 24170 O 2288.73 -2.18602 2.81232 0
M  V30 24171 O 2287.59 -3.54877 4.15601 0
M  V30 24172 H 2284.68 -0.563562 0.605249 0
M  V30 24173 H 2287.23 -0.494598 1.62332 0
M  V30 24174 H 2286 -1.45413 3.63278 0
M  V30 24175 H 2285.62 -2.90363 2.71615 0
M  V30 24176 N 2286.62 -1.39448 -0.734313 0
M  V30 24177 C 2287.53 -1.40498 -1.87876 0
M  V30 24178 C 2288.55 -0.299702 -1.71399 0
M  V30 24179 O 2289.72 -0.541283 -1.9399 0
M  V30 24180 C 2286.79 -1.2476 -3.23475 0
M  V30 24181 C 2285.85 -2.45265 -3.5234 0
M  V30 24182 C 2285.08 -2.30268 -4.81469 0
M  V30 24183 O 2285.3 -1.30652 -5.55235 0
M  V30 24184 O 2284.24 -3.19265 -5.10249 0
M  V30 24185 H 2288.06 -2.3697 -1.89945 0
M  V30 24186 H 2285.65 -1.2057 -0.882222 0
M  V30 24187 H 2287.53 -1.18118 -4.04507 0
M  V30 24188 H 2286.21 -0.313838 -3.22175 0
M  V30 24189 H 2285.11 -2.57483 -2.71392 0
M  V30 24190 H 2286.45 -3.37337 -3.5842 0
M  V30 24191 N 2288.1 0.964571 -1.24635 0
M  V30 24192 C 2289.38 1.68352 -0.995839 0
M  V30 24193 C 2289.76 2.05549 0.480927 0
M  V30 24194 O 2289.1 1.76108 1.45596 0
M  V30 24195 C 2289.31 2.91319 -1.92182 0
M  V30 24196 C 2290.66 3.63491 -2.19453 0
M  V30 24197 O 2291.69 3.01382 -1.89861 0
M  V30 24198 O 2290.54 4.75302 -2.69723 0
M  V30 24199 H 2287.64 0.736139 -0.376867 0
M  V30 24200 H 2290.18 1.01838 -1.35746 0
M  V30 24201 H 2288.96 2.60548 -2.91943 0
M  V30 24202 H 2288.58 3.65566 -1.56356 0
M  V30 24203 N 2289.58 1.0606 1.16572 0
M  V30 24204 C 2290.82 0.785073 1.88722 0
M  V30 24205 C 2291.18 -0.675974 1.79707 0
M  V30 24206 O 2292.38 -1.06599 2.46759 0
M  V30 24207 C 2290.65 1.2631 3.34336 0
M  V30 24208 S 2292.21 1.11627 4.24364 0
M  V30 24209 H 2289.03 0.284857 0.651443 0
M  V30 24210 H 2291.63 1.35704 1.4073 0
M  V30 24211 H 2290.34 2.32142 3.38435 0
M  V30 24212 H 2289.87 0.685788 3.87376 0
M  V30 24213 H 2291.88 0.0457411 4.96179 0
M  V30 24214 N 2291.06 -1.33168 0.84285 0
M  V30 24215 C 2292.02 -2.27432 0.284105 0
M  V30 24216 C 2293.02 -1.51121 -0.549454 0
M  V30 24217 O 2294.21 -1.70383 -0.362669 0
M  V30 24218 C 2291.34 -3.3559 -0.599325 0
M  V30 24219 H 2292.53 -2.78364 1.11594 0
M  V30 24220 H 2290.09 -1.43639 0.616246 0
M  V30 24221 H 2290.82 -2.89906 -1.45344 0
M  V30 24222 H 2290.61 -3.921 -0.00284374 0
M  V30 24223 H 2292.1 -4.05855 -0.983417 0
M  V30 24224 N 2292.53 -0.599659 -1.45746 0
M  V30 24225 C 2293.48 0.145067 -2.27538 0
M  V30 24226 C 2294.47 0.846031 -1.36862 0
M  V30 24227 O 2295.66 0.737329 -1.60911 0
M  V30 24228 C 2292.79 1.14703 -3.23571 0
M  V30 24229 C 2291.87 0.447308 -4.21734 0
M  V30 24230 N 2292.27 -0.506624 -5.03256 0
M  V30 24231 C 2290.56 0.695888 -4.40538 0
M  V30 24232 C 2291.26 -0.917169 -5.74424 0
M  V30 24233 N 2290.24 -0.262625 -5.42965 0
M  V30 24234 H 2294.04 -0.587723 -2.87964 0
M  V30 24235 H 2291.56 -0.422724 -1.56802 0
M  V30 24236 H 2293.55 1.69488 -3.80893 0
M  V30 24237 H 2292.21 1.88046 -2.64705 0
M  V30 24238 H 2293.22 -0.882989 -5.10317 0
M  V30 24239 H 2289.9 1.4146 -3.92804 0
M  V30 24240 H 2291.29 -1.70349 -6.49947 0
M  V30 24241 N 2294.01 1.53925 -0.338371 0
M  V30 24242 C 2295.26 2.01823 0.252807 0
M  V30 24243 C 2295.61 1.222 1.4861 0
M  V30 24244 O 2294.91 0.299925 1.89238 0
M  V30 24245 C 2295.1 3.51903 0.624418 0
M  V30 24246 C 2294.93 4.46056 -0.571313 0
M  V30 24247 C 2293.7 4.93732 -1.07502 0
M  V30 24248 C 2295.9 4.94073 -1.42815 0
M  V30 24249 N 2293.88 5.71824 -2.23362 0
M  V30 24250 C 2295.25 5.70237 -2.43372 0
M  V30 24251 C 2297.3 4.7619 -1.4542 0
M  V30 24252 C 2296.01 6.3042 -3.46357 0
M  V30 24253 C 2298.03 5.3722 -2.47283 0
M  V30 24254 C 2297.4 6.13247 -3.46566 0
M  V30 24255 H 2293.49 0.779996 0.0559532 0
M  V30 24256 H 2296.08 1.88772 -0.476765 0
M  V30 24257 H 2294.25 3.65169 1.3231 0
M  V30 24258 H 2295.98 3.86551 1.19834 0
M  V30 24259 H 2292.74 4.69202 -0.64393 0
M  V30 24260 H 2293.16 6.15543 -2.81845 0
M  V30 24261 H 2297.8 4.16961 -0.700244 0
M  V30 24262 H 2295.52 6.88761 -4.2265 0
M  V30 24263 H 2299.11 5.25292 -2.50119 0
M  V30 24264 H 2297.99 6.59631 -4.24095 0
M  V30 24265 N 2295.49 0.0668712 1.57458 0
M  V30 24266 C 2296.44 -0.902085 2.12441 0
M  V30 24267 C 2297.41 -1.29858 1.03567 0
M  V30 24268 O 2298.59 -1.3853 1.31203 0
M  V30 24269 C 2295.73 -2.16609 2.68653 0
M  V30 24270 C 2294.84 -1.82267 3.91667 0
M  V30 24271 C 2293.98 -3.03242 4.36139 0
M  V30 24272 C 2293.02 -2.64895 5.51813 0
M  V30 24273 N 2292.16 -3.78613 5.91267 0
M  V30 24274 H 2297 -0.42633 2.94935 0
M  V30 24275 H 2294.53 -0.198793 1.45751 0
M  V30 24276 H 2296.49 -2.90594 2.99351 0
M  V30 24277 H 2295.12 -2.61734 1.88932 0
M  V30 24278 H 2294.17 -0.983654 3.67462 0
M  V30 24279 H 2295.48 -1.50051 4.75695 0
M  V30 24280 H 2294.64 -3.85511 4.68472 0
M  V30 24281 H 2293.38 -3.38649 3.50954 0
M  V30 24282 H 2292.38 -1.81046 5.19136 0
M  V30 24283 H 2293.61 -2.30664 6.38726 0
M  V30 24284 H 2291.55 -4.13791 5.09032 0
M  V30 24285 H 2291.47 -3.50148 6.70024 0
M  V30 24286 H 2292.74 -4.61475 6.2822 0
M  V30 24287 N 2296.97 -1.56239 -0.206647 0
M  V30 24288 C 2297.88 -1.96811 -1.27682 0
M  V30 24289 C 2298.89 -0.874062 -1.50453 0
M  V30 24290 O 2300.07 -1.17887 -1.63293 0
M  V30 24291 C 2297.13 -2.28946 -2.60354 0
M  V30 24292 C 2296.2 -3.51998 -2.45756 0
M  V30 24293 C 2295.43 -3.82591 -3.72102 0
M  V30 24294 O 2295.65 -3.1464 -4.75771 0
M  V30 24295 O 2294.59 -4.76049 -3.68321 0
M  V30 24296 H 2298.41 -2.88043 -0.962543 0
M  V30 24297 H 2296 -1.43643 -0.410721 0
M  V30 24298 H 2297.88 -2.50743 -3.38682 0
M  V30 24299 H 2296.55 -1.40885 -2.91433 0
M  V30 24300 H 2295.46 -3.35462 -1.65578 0
M  V30 24301 H 2296.79 -4.40489 -2.19613 0
M  V30 24302 N 2298.45 0.473929 -1.50305 0
M  V30 24303 C 2299.41 1.55466 -1.68413 0
M  V30 24304 C 2300.41 1.50921 -0.554932 0
M  V30 24305 O 2301.6 1.53591 -0.821909 0
M  V30 24306 C 2298.73 2.95099 -1.70673 0
M  V30 24307 H 2299.92 1.40729 -2.64831 0
M  V30 24308 H 2297.48 0.700107 -1.39743 0
M  V30 24309 H 2298.21 3.15284 -0.759375 0
M  V30 24310 H 2298 2.99806 -2.52704 0
M  V30 24311 H 2299.49 3.73568 -1.86646 0
M  V30 24312 N 2299.92 1.39835 0.726907 0
M  V30 24313 C 2300.87 1.392 1.84097 0
M  V30 24314 C 2301.84 0.250531 1.642 0
M  V30 24315 O 2303.03 0.446879 1.85493 0
M  V30 24316 C 2300.17 1.24925 3.21695 0
M  V30 24317 C 2299.28 2.48684 3.53242 0
M  V30 24318 C 2298.41 2.26936 4.80285 0
M  V30 24319 C 2297.45 3.46329 5.047 0
M  V30 24320 N 2296.59 3.23847 6.22951 0
M  V30 24321 H 2301.43 2.3443 1.83974 0
M  V30 24322 H 2298.97 1.16443 0.898856 0
M  V30 24323 H 2300.92 1.14658 4.01135 0
M  V30 24324 H 2299.55 0.33321 3.21076 0
M  V30 24325 H 2298.61 2.69524 2.68442 0
M  V30 24326 H 2299.92 3.37589 3.67199 0
M  V30 24327 H 2299.07 2.13957 5.67721 0
M  V30 24328 H 2297.81 1.35439 4.68516 0
M  V30 24329 H 2296.82 3.59798 4.15723 0
M  V30 24330 H 2298.04 4.38738 5.18349 0
M  V30 24331 H 2295.99 2.35022 6.12455 0
M  V30 24332 H 2295.9 4.06311 6.37532 0
M  V30 24333 H 2297.17 3.14578 7.13205 0
M  V30 24334 N 2301.4 -0.957948 1.25144 0
M  V30 24335 C 2302.33 -2.05336 0.995601 0
M  V30 24336 C 2303.31 -1.62431 -0.0740137 0
M  V30 24337 O 2304.5 -1.88388 0.0649543 0
M  V30 24338 C 2301.62 -3.34924 0.504356 0
M  V30 24339 C 2300.67 -3.96789 1.564 0
M  V30 24340 S 2301.5 -4.33182 3.14823 0
M  V30 24341 C 2302.66 -5.65893 2.67425 0
M  V30 24342 H 2302.89 -2.26723 1.92313 0
M  V30 24343 H 2300.42 -1.09715 1.08637 0
M  V30 24344 H 2302.38 -4.09869 0.227569 0
M  V30 24345 H 2301.04 -3.11509 -0.402617 0
M  V30 24346 H 2300.24 -4.9021 1.17091 0
M  V30 24347 H 2299.84 -3.28312 1.7913 0
M  V30 24348 H 2302.13 -6.43856 2.10844 0
M  V30 24349 H 2303.07 -6.10069 3.59473 0
M  V30 24350 H 2303.48 -5.24968 2.0753 0
M  V30 24351 N 2302.88 -1.06677 -1.16008 0
M  V30 24352 C 2303.81 -0.702346 -2.22687 0
M  V30 24353 C 2304.79 0.307003 -1.67307 0
M  V30 24354 O 2305.98 0.181271 -1.93352 0
M  V30 24355 C 2303.11 -0.092099 -3.47178 0
M  V30 24356 C 2302.06 -1.02785 -4.15475 0
M  V30 24357 C 2301.39 -0.280704 -5.33963 0
M  V30 24358 C 2302.69 -2.35854 -4.66015 0
M  V30 24359 H 2304.38 -1.59423 -2.53426 0
M  V30 24360 H 2301.93 -0.767982 -1.21811 0
M  V30 24361 H 2303.88 0.17474 -4.21038 0
M  V30 24362 H 2302.6 0.834821 -3.1575 0
M  V30 24363 H 2301.26 -1.2795 -3.43547 0
M  V30 24364 H 2300.91 0.649458 -4.9879 0
M  V30 24365 H 2300.61 -0.90436 -5.80599 0
M  V30 24366 H 2302.13 -0.0215033 -6.10596 0
M  V30 24367 H 2303.55 -2.15054 -5.31436 0
M  V30 24368 H 2301.94 -2.93752 -5.23288 0
M  V30 24369 H 2303.01 -2.98648 -3.82018 0
M  V30 24370 N 2304.36 1.32719 -0.8499 0
M  V30 24371 C 2305.29 2.31482 -0.306349 0
M  V30 24372 C 2306.27 1.59469 0.591924 0
M  V30 24373 O 2307.45 1.87297 0.513166 0
M  V30 24374 C 2304.58 3.43533 0.510144 0
M  V30 24375 C 2303.54 4.26994 -0.293284 0
M  V30 24376 C 2302.86 5.30763 0.647649 0
M  V30 24377 C 2304.16 4.99802 -1.51643 0
M  V30 24378 H 2305.86 2.77193 -1.13157 0
M  V30 24379 H 2303.4 1.33265 -0.545577 0
M  V30 24380 H 2305.36 4.1166 0.900783 0
M  V30 24381 H 2304.08 2.96538 1.36869 0
M  V30 24382 H 2302.74 3.60507 -0.665619 0
M  V30 24383 H 2302.39 4.80023 1.5029 0
M  V30 24384 H 2302.09 5.87489 0.114116 0
M  V30 24385 H 2303.61 6.01754 1.03557 0
M  V30 24386 H 2305.03 5.60636 -1.19834 0
M  V30 24387 H 2303.42 5.6623 -1.98755 0
M  V30 24388 H 2304.49 4.27939 -2.28026 0
M  V30 24389 N 2305.84 0.60738 1.45426 0
M  V30 24390 C 2307.11 0.034491 1.9557 0
M  V30 24391 C 2307.49 -1.43332 1.54981 0
M  V30 24392 O 2306.84 -2.13575 0.812278 0
M  V30 24393 C 2307.05 0.232382 3.48225 0
M  V30 24394 C 2308.4 0.113076 4.24449 0
M  V30 24395 O 2309.42 0.162493 3.55829 0
M  V30 24396 O 2308.28 -0.00199836 5.465 0
M  V30 24397 H 2305.38 -0.0358522 0.826223 0
M  V30 24398 H 2307.92 0.677427 1.55592 0
M  V30 24399 H 2306.69 1.25181 3.70736 0
M  V30 24400 H 2306.32 -0.445826 3.95093 0
M  V30 24401 N 2307.31 -1.53743 0.34653 0
M  V30 24402 C 2308.26 -2.26617 -0.52418 0
M  V30 24403 C 2309.26 -1.28873 -1.09946 0
M  V30 24404 O 2310.46 -1.4657 -1.04485 0
M  V30 24405 H 2306.84 -0.728191 -0.18773 0
M  V30 24406 H 2308.81 -2.98188 0.112442 0
M  V30 24407 C 2307.56 -3.05417 -1.6618 0
M  V30 24408 H 2306.88 -3.8046 -1.22841 0
M  V30 24409 H 2308.32 -3.59616 -2.24615 0
M  V30 24410 C 2306.78 -2.15095 -2.59299 0
M  V30 24411 O 2307.31 -1.74902 -3.61624 0
M  V30 24412 N 2305.52 -1.80114 -2.28051 0
M  V30 24413 H 2305.06 -2.12997 -1.44879 0
M  V30 24414 H 2305.02 -1.19964 -2.90613 0
M  V30 24415 N 2308.79 -0.0752207 -1.5742 0
M  V30 24416 C 2310.04 0.592697 -1.92795 0
M  V30 24417 C 2310.35 1.70561 -0.957508 0
M  V30 24418 O 2311.56 2.43333 -1.20421 0
M  V30 24419 C 2310.02 1.10563 -3.42497 0
M  V30 24420 C 2309.62 0.0235334 -4.47994 0
M  V30 24421 C 2311.37 1.74741 -3.86867 0
M  V30 24422 C 2309.28 0.550699 -5.8883 0
M  V30 24423 H 2308.21 0.225164 -0.719595 0
M  V30 24424 H 2310.86 -0.14801 -1.82902 0
M  V30 24425 H 2309.24 1.8994 -3.47475 0
M  V30 24426 H 2310.41 -0.751179 -4.54636 0
M  V30 24427 H 2308.73 -0.522232 -4.13112 0
M  V30 24428 H 2311.32 2.1522 -4.89474 0
M  V30 24429 H 2311.67 2.60876 -3.24421 0
M  V30 24430 H 2312.2 1.01979 -3.84506 0
M  V30 24431 H 2308.94 -0.273572 -6.54929 0
M  V30 24432 H 2308.46 1.29286 -5.85701 0
M  V30 24433 H 2310.14 1.02602 -6.38813 0
M  V30 24434 N 2310.27 1.56347 0.198358 0
M  V30 24435 C 2311.22 1.95171 1.26534 0
M  V30 24436 C 2312.21 0.836711 1.47294 0
M  V30 24437 O 2313.42 1.0217 1.48194 0
M  V30 24438 H 2309.79 0.620569 0.424733 0
M  V30 24439 H 2311.76 2.84158 0.910854 0
M  V30 24440 C 2310.51 2.30468 2.60346 0
M  V30 24441 H 2309.84 3.15791 2.45186 0
M  V30 24442 H 2311.28 2.61499 3.33757 0
M  V30 24443 C 2309.74 1.13812 3.17094 0
M  V30 24444 O 2310.27 0.41142 3.99588 0
M  V30 24445 N 2308.47 0.915784 2.75793 0
M  V30 24446 H 2308.02 1.50846 2.08814 0
M  V30 24447 H 2307.98 0.137034 3.14101 0
M  V30 24448 N 2311.75 -0.465951 1.50554 0
M  V30 24449 C 2312.98 -1.2408 1.65565 0
M  V30 24450 C 2313.39 -1.85693 0.341083 0
M  V30 24451 O 2312.75 -1.69458 -0.677513 0
M  V30 24452 C 2312.8 -2.34578 2.75055 0
M  V30 24453 O 2312.52 -1.7549 4.01416 0
M  V30 24454 C 2314.02 -3.25366 3.01084 0
M  V30 24455 H 2311.24 -0.375067 0.556386 0
M  V30 24456 H 2313.79 -0.55559 1.96808 0
M  V30 24457 H 2311.94 -2.98866 2.46492 0
M  V30 24458 H 2312.35 -2.48295 4.62006 0
M  V30 24459 H 2313.83 -3.99098 3.81346 0
M  V30 24460 H 2314.31 -3.8445 2.12356 0
M  V30 24461 H 2314.91 -2.6681 3.31198 0
M  V30 24462 N 2313.23 -1.40218 -0.719481 0
M  V30 24463 C 2314.64 -1.34153 -1.29846 0
M  V30 24464 C 2314.99 -0.0131694 -1.96196 0
M  V30 24465 O 2314.11 0.888885 -1.97301 0
M  V30 24466 C 2314.71 -2.42972 -2.36114 0
M  V30 24467 C 2313.27 -2.40379 -2.89646 0
M  V30 24468 C 2312.41 -2.24052 -1.63389 0
M  V30 24469 H 2315.37 -1.50081 -0.515884 0
M  V30 24470 H 2315.39 -2.10655 -3.16867 0
M  V30 24471 H 2314.9 -3.39639 -1.87794 0
M  V30 24472 H 2313 -1.47398 -3.42206 0
M  V30 24473 H 2313.11 -3.3582 -3.41705 0
M  V30 24474 H 2311.48 -1.71499 -1.88309 0
M  V30 24475 H 2312.26 -3.22712 -1.17099 0
M  V30 24476 N 2314.7 0.951297 -1.25651 0
M  V30 24477 C 2315.61 2.08222 -1.08077 0
M  V30 24478 C 2316.63 1.73992 -0.0169971 0
M  V30 24479 O 2317.81 2.0021 -0.218628 0
M  V30 24480 C 2314.87 3.39457 -0.704982 0
M  V30 24481 C 2313.93 3.87534 -1.84706 0
M  V30 24482 C 2313.17 5.12505 -1.48911 0
M  V30 24483 O 2313.39 5.69091 -0.386256 0
M  V30 24484 O 2312.32 5.55373 -2.32043 0
M  V30 24485 H 2316.15 2.25951 -2.02928 0
M  V30 24486 H 2313.73 1.06654 -1.0462 0
M  V30 24487 H 2315.62 4.18331 -0.507683 0
M  V30 24488 H 2314.29 3.2299 0.214234 0
M  V30 24489 H 2313.2 3.09649 -2.09924 0
M  V30 24490 H 2314.53 4.08504 -2.74564 0
M  V30 24491 N 2316.18 1.07291 1.1544 0
M  V30 24492 C 2317.43 0.794129 1.85844 0
M  V30 24493 C 2317.75 -0.681776 1.82693 0
M  V30 24494 O 2317.02 -1.49375 1.26744 0
M  V30 24495 H 2315.6 0.290775 0.688083 0
M  V30 24496 H 2318.26 1.35652 1.39945 0
M  V30 24497 H 2317.36 1.12809 2.90999 0
M  V30 24498 N 2317.66 -1.32267 0.856927 0
M  V30 24499 C 2318.91 -1.9644 0.457633 0
M  V30 24500 C 2319.22 -1.68555 -0.992397 0
M  V30 24501 O 2320.43 -2.26485 -1.49723 0
M  V30 24502 C 2318.88 -3.51623 0.76742 0
M  V30 24503 C 2318.49 -3.88364 2.23333 0
M  V30 24504 C 2320.24 -4.22255 0.435961 0
M  V30 24505 C 2318.14 -5.36601 2.48622 0
M  V30 24506 H 2317.07 -0.735182 0.1674 0
M  V30 24507 H 2319.72 -1.50628 1.04802 0
M  V30 24508 H 2318.11 -3.95857 0.106437 0
M  V30 24509 H 2319.28 -3.55132 2.93629 0
M  V30 24510 H 2317.6 -3.30762 2.52954 0
M  V30 24511 H 2320.19 -5.31297 0.602295 0
M  V30 24512 H 2320.54 -4.11618 -0.6226 0
M  V30 24513 H 2321.07 -3.83612 1.05293 0
M  V30 24514 H 2317.81 -5.52261 3.53111 0
M  V30 24515 H 2317.33 -5.71231 1.82906 0
M  V30 24516 H 2319.01 -6.0371 2.32687 0
M  V30 24517 N 2319.14 -0.615084 -1.45102 0
M  V30 24518 C 2320.39 -0.110753 -2.01396 0
M  V30 24519 C 2320.7 1.26914 -1.48836 0
M  V30 24520 O 2321.91 1.86661 -1.97155 0
M  V30 24521 C 2320.36 -0.147293 -3.59598 0
M  V30 24522 C 2319.97 -1.5275 -4.21155 0
M  V30 24523 C 2321.71 0.301406 -4.23429 0
M  V30 24524 C 2319.62 -1.52002 -5.71533 0
M  V30 24525 H 2318.55 -0.0376373 -0.75306 0
M  V30 24526 H 2321.2 -0.77152 -1.66493 0
M  V30 24527 H 2319.58 0.58027 -3.91725 0
M  V30 24528 H 2320.76 -2.27737 -4.0059 0
M  V30 24529 H 2319.07 -1.91892 -3.69549 0
M  V30 24530 H 2321.67 0.326298 -5.33703 0
M  V30 24531 H 2322.01 1.32558 -3.94631 0
M  V30 24532 H 2322.55 -0.373134 -3.96046 0
M  V30 24533 H 2319.29 -2.52204 -6.0504 0
M  V30 24534 H 2318.81 -0.812845 -5.94267 0
M  V30 24535 H 2320.48 -1.24693 -6.34871 0
M  V30 24536 N 2320.62 1.53557 -0.354678 0
M  V30 24537 C 2322.03 1.86268 0.126869 0
M  V30 24538 C 2322.38 1.27561 1.49073 0
M  V30 24539 O 2321.5 0.593437 2.08104 0
M  V30 24540 C 2322.1 3.3797 0.236987 0
M  V30 24541 C 2320.66 3.70519 0.662777 0
M  V30 24542 C 2319.81 2.76601 -0.196701 0
M  V30 24543 H 2322.76 1.47961 -0.573875 0
M  V30 24544 H 2322.78 3.65364 1.06252 0
M  V30 24545 H 2322.29 3.8067 -0.755792 0
M  V30 24546 H 2320.39 3.3337 1.66418 0
M  V30 24547 H 2320.5 4.77029 0.44495 0
M  V30 24548 H 2318.87 2.52517 0.332719 0
M  V30 24549 H 2319.65 3.22133 -1.18682 0
M  V30 24550 N 2322.1 0.083568 1.57378 0
M  V30 24551 C 2323.32 -0.594952 1.98683 0
M  V30 24552 C 2323.75 -1.61639 0.961997 0
M  V30 24553 O 2323.1 -1.81161 -0.070967 0
M  V30 24554 C 2323.15 -1.22954 3.38991 0
M  V30 24555 O 2322.26 -2.3454 3.39212 0
M  V30 24556 H 2321.6 -0.151991 0.64637 0
M  V30 24557 H 2324.13 0.161568 2.03961 0
M  V30 24558 H 2324.14 -1.57359 3.76433 0
M  V30 24559 H 2322.81 -0.481155 4.13107 0
M  V30 24560 H 2321.39 -2.01841 3.13552 0
M  V30 24561 N 2323.57 -1.5645 -0.190064 0
M  V30 24562 C 2324.82 -1.80112 -0.907881 0
M  V30 24563 C 2325.14 -0.657651 -1.84213 0
M  V30 24564 O 2326.34 -0.778709 -2.60093 0
M  V30 24565 C 2324.8 -3.19081 -1.66479 0
M  V30 24566 C 2324.41 -4.41244 -0.775122 0
M  V30 24567 C 2326.15 -3.52049 -2.37195 0
M  V30 24568 C 2324.06 -5.71234 -1.53119 0
M  V30 24569 H 2322.99 -0.671595 -0.342748 0
M  V30 24570 H 2325.64 -1.82792 -0.161077 0
M  V30 24571 H 2324.02 -3.10665 -2.45567 0
M  V30 24572 H 2325.19 -4.60794 -0.0225488 0
M  V30 24573 H 2323.51 -4.16017 -0.178553 0
M  V30 24574 H 2326.11 -4.46407 -2.94321 0
M  V30 24575 H 2326.45 -2.76033 -3.11627 0
M  V30 24576 H 2326.98 -3.61935 -1.65069 0
M  V30 24577 H 2323.72 -6.5023 -0.829556 0
M  V30 24578 H 2323.24 -5.55692 -2.25757 0
M  V30 24579 H 2324.92 -6.1253 -2.08366 0
M  V30 24580 N 2325.05 0.45796 -1.50799 0
M  V30 24581 C 2326.3 1.20906 -1.62444 0
M  V30 24582 C 2326.63 1.91665 -0.330898 0
M  V30 24583 O 2325.88 1.83358 0.683978 0
M  V30 24584 C 2326.18 2.26625 -2.76362 0
M  V30 24585 C 2325.85 1.73026 -4.16381 0
M  V30 24586 C 2324.51 1.5813 -4.54476 0
M  V30 24587 C 2326.86 1.33405 -5.03838 0
M  V30 24588 C 2324.19 1.02055 -5.77756 0
M  V30 24589 C 2326.54 0.78767 -6.27677 0
M  V30 24590 C 2325.2 0.625444 -6.64563 0
M  V30 24591 H 2324.47 0.442425 -0.594425 0
M  V30 24592 H 2327.12 0.503103 -1.84773 0
M  V30 24593 H 2325.43 3.03179 -2.48172 0
M  V30 24594 H 2327.12 2.84523 -2.82573 0
M  V30 24595 H 2323.71 1.85591 -3.86334 0
M  V30 24596 H 2327.9 1.43742 -4.75028 0
M  V30 24597 H 2323.15 0.882441 -6.04998 0
M  V30 24598 H 2327.33 0.472055 -6.94798 0
M  V30 24599 H 2324.95 0.188792 -7.59966 0
M  V30 24600 N 2326.53 1.40598 0.712035 0
M  V30 24601 C 2327.44 1.43469 1.85617 0
M  V30 24602 C 2328.46 0.326932 1.70901 0
M  V30 24603 O 2329.63 0.572077 1.93104 0
M  V30 24604 C 2326.7 1.2989 3.21449 0
M  V30 24605 C 2325.76 2.50839 3.48394 0
M  V30 24606 C 2324.99 2.37899 4.77745 0
M  V30 24607 O 2325.21 1.39469 5.53086 0
M  V30 24608 O 2324.15 3.27342 5.05105 0
M  V30 24609 H 2327.97 2.39961 1.86151 0
M  V30 24610 H 2325.56 1.21959 0.862929 0
M  V30 24611 H 2327.44 1.24538 4.02577 0
M  V30 24612 H 2326.12 0.365053 3.21635 0
M  V30 24613 H 2325.02 2.61768 2.67261 0
M  V30 24614 H 2326.36 3.42996 3.53007 0
M  V30 24615 N 2328.01 -0.94462 1.26153 0
M  V30 24616 C 2329.42 -1.5052 1.10456 0
M  V30 24617 C 2329.77 -1.93633 -0.316316 0
M  V30 24618 O 2328.89 -1.79583 -1.20743 0
M  V30 24619 C 2329.49 -2.73546 1.99896 0
M  V30 24620 C 2328.05 -3.25883 1.88354 0
M  V30 24621 C 2327.2 -1.98676 1.9345 0
M  V30 24622 H 2330.15 -0.760465 1.39293 0
M  V30 24623 H 2330.17 -3.47729 1.54483 0
M  V30 24624 H 2329.68 -2.42136 3.03301 0
M  V30 24625 H 2327.78 -3.62091 0.8787 0
M  V30 24626 H 2327.89 -3.93222 2.73703 0
M  V30 24627 H 2326.26 -2.14422 1.3746 0
M  V30 24628 H 2327.04 -1.69602 2.98479 0
M  V30 24629 N 2329.49 -1.07901 -1.1487 0
M  V30 24630 C 2330.4 -0.715954 -2.23408 0
M  V30 24631 C 2331.41 0.275275 -1.71809 0
M  V30 24632 O 2332.59 0.12051 -2.01039 0
M  V30 24633 C 2329.65 -0.125229 -3.46474 0
M  V30 24634 C 2328.71 -1.17041 -4.13037 0
M  V30 24635 C 2327.95 -0.607781 -5.30228 0
M  V30 24636 O 2328.17 0.574397 -5.67501 0
M  V30 24637 O 2327.1 -1.35536 -5.86441 0
M  V30 24638 H 2330.93 -1.62125 -2.56805 0
M  V30 24639 H 2328.51 -0.852344 -1.22701 0
M  V30 24640 H 2330.4 0.201655 -4.20917 0
M  V30 24641 H 2329.07 0.753309 -3.14813 0
M  V30 24642 H 2327.98 -1.54974 -3.40491 0
M  V30 24643 H 2329.31 -2.02105 -4.48792 0
M  V30 24644 N 2330.96 1.31811 -0.863929 0
M  V30 24645 C 2332.38 1.49638 -0.55503 0
M  V30 24646 C 2332.58 1.79668 0.912234 0
M  V30 24647 O 2331.64 1.87174 1.69476 0
M  V30 24648 C 2332.95 2.63429 -1.45003 0
M  V30 24649 C 2334.5 2.77313 -1.45143 0
M  V30 24650 C 2334.97 3.94193 -2.33186 0
M  V30 24651 N 2336.46 4.0147 -2.31032 0
M  V30 24652 C 2337.2 4.91165 -2.95879 0
M  V30 24653 N 2336.69 5.85803 -3.69873 0
M  V30 24654 N 2338.49 4.84362 -2.85219 0
M  V30 24655 H 2330.64 1.10586 -1.81341 0
M  V30 24656 H 2332.9 0.545881 -0.77506 0
M  V30 24657 H 2332.61 2.47996 -2.49381 0
M  V30 24658 H 2332.48 3.59429 -1.14416 0
M  V30 24659 H 2334.87 2.92164 -0.415253 0
M  V30 24660 H 2334.95 1.81998 -1.79751 0
M  V30 24661 H 2334.59 3.80101 -3.36877 0
M  V30 24662 H 2334.52 4.88803 -1.95906 0
M  V30 24663 H 2337.01 3.33756 -1.77244 0
M  V30 24664 H 2337.33 6.50961 -4.16497 0
M  V30 24665 H 2335.67 5.85801 -3.73981 0
M  V30 24666 H 2338.86 4.09401 -2.26955 0
M  V30 24667 H 2339.04 5.5406 -3.36037 0
M  V30 24668 N 2332.44 0.62277 1.44773 0
M  V30 24669 C 2333.35 -0.0885619 2.34433 0
M  V30 24670 C 2334.37 -0.844502 1.52132 0
M  V30 24671 O 2335.54 -0.798658 1.84888 0
M  V30 24672 C 2332.61 -1.06344 3.29987 0
M  V30 24673 C 2331.67 -0.307798 4.28195 0
M  V30 24674 C 2330.9 -1.23624 5.19185 0
M  V30 24675 O 2331.13 -2.47467 5.13922 0
M  V30 24676 O 2330.06 -0.725084 5.97517 0
M  V30 24677 H 2333.89 0.648651 2.96692 0
M  V30 24678 H 2331.47 0.382982 1.44408 0
M  V30 24679 H 2333.35 -1.62453 3.88828 0
M  V30 24680 H 2332.03 -1.78142 2.70272 0
M  V30 24681 H 2330.93 0.29613 3.72926 0
M  V30 24682 H 2332.27 0.369986 4.90807 0
M  V30 24683 N 2333.92 -1.53367 0.362817 0
M  V30 24684 C 2334.87 -2.25647 -0.484968 0
M  V30 24685 C 2335.84 -1.26212 -1.0798 0
M  V30 24686 O 2337.02 -1.54988 -1.11281 0
M  V30 24687 C 2334.16 -3.04703 -1.62018 0
M  V30 24688 C 2333.27 -4.19026 -1.05079 0
M  V30 24689 C 2332.41 -4.85529 -2.15488 0
M  V30 24690 C 2331.45 -5.91887 -1.56 0
M  V30 24691 N 2330.59 -6.52093 -2.60229 0
M  V30 24692 H 2335.43 -2.97681 0.137916 0
M  V30 24693 H 2332.96 -1.46883 0.0798319 0
M  V30 24694 H 2334.92 -3.48811 -2.28881 0
M  V30 24695 H 2333.55 -2.34931 -2.21376 0
M  V30 24696 H 2332.6 -3.79423 -0.272524 0
M  V30 24697 H 2333.91 -4.95465 -0.575839 0
M  V30 24698 H 2333.07 -5.32806 -2.90177 0
M  V30 24699 H 2331.81 -4.08556 -2.66333 0
M  V30 24700 H 2330.81 -5.43974 -0.798243 0
M  V30 24701 H 2332.04 -6.70779 -1.05982 0
M  V30 24702 H 2329.98 -5.77974 -3.10294 0
M  V30 24703 H 2329.9 -7.24063 -2.17413 0
M  V30 24704 H 2331.17 -7.0402 -3.34629 0
M  V30 24705 N 2335.4 -0.091913 -1.57332 0
M  V30 24706 C 2336.64 0.573391 -1.94525 0
M  V30 24707 C 2336.98 1.68031 -0.973607 0
M  V30 24708 O 2336.25 1.94499 -0.00612645 0
M  V30 24709 C 2336.54 1.13155 -3.4186 0
M  V30 24710 C 2336.39 0.0298956 -4.4979 0
M  V30 24711 C 2337.71 2.03091 -3.90438 0
M  V30 24712 H 2334.83 0.206963 -0.707344 0
M  V30 24713 H 2337.47 -0.161975 -1.89308 0
M  V30 24714 H 2335.62 1.75824 -3.46436 0
M  V30 24715 H 2337.29 -0.604193 -4.57326 0
M  V30 24716 H 2335.53 -0.636909 -4.29099 0
M  V30 24717 H 2336.2 0.46119 -5.5007 0
M  V30 24718 H 2338.68 1.50331 -3.87995 0
M  V30 24719 H 2337.56 2.39072 -4.94101 0
M  V30 24720 H 2337.82 2.94707 -3.29546 0
M  V30 24721 N 2336.88 1.56548 0.181765 0
M  V30 24722 C 2338.15 1.72253 0.926734 0
M  V30 24723 C 2338.53 0.650421 2.0083 0
M  V30 24724 O 2337.88 -0.336481 2.26009 0
M  V30 24725 C 2338.09 3.15073 1.50101 0
M  V30 24726 C 2339.44 3.75714 1.97798 0
M  V30 24727 O 2340.46 3.18285 1.59916 0
M  V30 24728 O 2339.32 4.7653 2.67547 0
M  V30 24729 H 2336.42 0.703046 0.435494 0
M  V30 24730 H 2338.96 1.68842 0.170414 0
M  V30 24731 H 2337.73 3.8458 0.722053 0
M  V30 24732 H 2337.36 3.22767 2.3218 0
M  V30 24733 N 2338.35 -0.449957 1.5104 0
M  V30 24734 C 2339.32 -1.52767 1.70865 0
M  V30 24735 C 2340.32 -1.50019 0.578872 0
M  V30 24736 O 2341.51 -1.52264 0.84624 0
M  V30 24737 C 2338.64 -2.92347 1.75346 0
M  V30 24738 H 2339.83 -1.36498 2.67036 0
M  V30 24739 H 2337.39 -0.677787 1.40839 0
M  V30 24740 H 2338.12 -3.14036 0.809438 0
M  V30 24741 H 2337.91 -2.95747 2.57441 0
M  V30 24742 H 2339.4 -3.70551 1.92566 0
M  V30 24743 N 2339.83 -1.40974 -0.704569 0
M  V30 24744 C 2341.08 -1.39148 -1.46016 0
M  V30 24745 C 2341.39 -0.000623636 -1.956 0
M  V30 24746 O 2342.6 0.140252 -2.71138 0
M  V30 24747 C 2341.06 -2.44615 -2.63992 0
M  V30 24748 C 2340.66 -3.89565 -2.21231 0
M  V30 24749 C 2342.41 -2.51913 -3.41673 0
M  V30 24750 C 2340.32 -4.86603 -3.36112 0
M  V30 24751 H 2339.25 -0.517431 -0.548435 0
M  V30 24752 H 2341.9 -1.66759 -0.765754 0
M  V30 24753 H 2340.28 -2.10121 -3.35656 0
M  V30 24754 H 2341.45 -4.3326 -1.56915 0
M  V30 24755 H 2339.77 -3.85844 -1.56567 0
M  V30 24756 H 2342.36 -3.21597 -4.27176 0
M  V30 24757 H 2342.71 -1.5531 -3.86244 0
M  V30 24758 H 2343.24 -2.85453 -2.77059 0
M  V30 24759 H 2339.98 -5.84578 -2.96562 0
M  V30 24760 H 2339.5 -4.47564 -3.99307 0
M  V30 24761 H 2341.18 -5.06941 -4.0202 0
M  V30 24762 N 2341.31 0.937917 -1.26653 0
M  V30 24763 C 2342.59 1.66202 -1.03132 0
M  V30 24764 C 2342.97 2.06523 0.437219 0
M  V30 24765 O 2342.32 1.79156 1.41828 0
M  V30 24766 C 2342.53 2.87177 -1.98319 0
M  V30 24767 C 2343.87 3.58754 -2.27113 0
M  V30 24768 O 2344.9 2.97287 -1.96211 0
M  V30 24769 O 2343.76 4.69474 -2.79744 0
M  V30 24770 H 2340.85 0.727979 -0.392396 0
M  V30 24771 H 2343.4 0.989358 -1.37876 0
M  V30 24772 H 2342.17 2.54296 -2.97404 0
M  V30 24773 H 2341.79 3.62167 -1.64075 0
M  V30 24774 N 2342.79 1.08509 1.14296 0
M  V30 24775 C 2344.04 0.813795 1.84991 0
M  V30 24776 C 2344.36 -0.662361 1.83406 0
M  V30 24777 O 2343.63 -1.48022 1.28321 0
M  V30 24778 H 2342.21 0.298057 0.684961 0
M  V30 24779 H 2344.87 1.37129 1.38498 0
M  V30 24780 H 2343.97 1.15889 2.89786 0
M  V30 24781 N 2344.27 -1.31351 0.870907 0
M  V30 24782 C 2345.18 -2.32256 0.330824 0
M  V30 24783 C 2346.19 -1.64751 -0.559738 0
M  V30 24784 O 2347.37 -1.96165 -0.456229 0
M  V30 24785 C 2344.43 -3.43661 -0.458076 0
M  V30 24786 C 2343.49 -4.26822 0.460557 0
M  V30 24787 C 2342.73 -5.32907 -0.290787 0
M  V30 24788 O 2342.95 -5.49809 -1.51875 0
M  V30 24789 O 2341.88 -6.00871 0.351837 0
M  V30 24790 H 2345.71 -2.80374 1.16723 0
M  V30 24791 H 2343.3 -1.35266 0.634309 0
M  V30 24792 H 2345.18 -4.11561 -0.905271 0
M  V30 24793 H 2343.85 -2.97703 -1.27101 0
M  V30 24794 H 2342.76 -3.61672 0.95627 0
M  V30 24795 H 2344.09 -4.76347 1.23911 0
M  V30 24796 N 2345.74 -0.630439 -1.44441 0
M  V30 24797 C 2346.97 -0.141501 -2.06115 0
M  V30 24798 C 2347.38 1.18888 -1.47181 0
M  V30 24799 O 2346.73 1.74005 -0.588903 0
M  V30 24800 C 2346.79 0.0483724 -3.59467 0
M  V30 24801 C 2346.45 -1.20373 -4.40862 0
M  V30 24802 C 2347.45 -2.12727 -4.74387 0
M  V30 24803 C 2345.13 -1.43896 -4.81248 0
M  V30 24804 C 2347.13 -3.26914 -5.4718 0
M  V30 24805 C 2344.81 -2.58379 -5.5379 0
M  V30 24806 C 2345.81 -3.49715 -5.86676 0
M  V30 24807 O 2345.5 -4.62203 -6.57741 0
M  V30 24808 H 2345.23 -0.076591 -0.671647 0
M  V30 24809 H 2347.79 -0.864728 -1.86311 0
M  V30 24810 H 2346.02 0.826737 -3.77759 0
M  V30 24811 H 2347.71 0.491778 -4.0291 0
M  V30 24812 H 2348.47 -1.95789 -4.43725 0
M  V30 24813 H 2344.35 -0.736933 -4.55072 0
M  V30 24814 H 2347.89 -3.98227 -5.72766 0
M  V30 24815 H 2343.79 -2.75262 -5.83868 0
M  V30 24816 H 2344.56 -4.61176 -6.76209 0
M  V30 24817 N 2347.22 1.53172 -0.370945 0
M  V30 24818 C 2348.64 1.59587 -0.0201098 0
M  V30 24819 C 2348.84 1.38583 1.46277 0
M  V30 24820 O 2347.89 1.19367 2.22504 0
M  V30 24821 C 2349.21 2.9683 -0.480852 0
M  V30 24822 C 2350.76 3.09955 -0.435532 0
M  V30 24823 C 2351.23 4.49619 -0.872171 0
M  V30 24824 N 2352.72 4.55749 -0.827444 0
M  V30 24825 C 2353.46 5.62016 -1.13692 0
M  V30 24826 N 2352.95 6.76011 -1.51595 0
M  V30 24827 N 2354.75 5.52027 -1.05937 0
M  V30 24828 H 2346.9 1.65076 -1.33655 0
M  V30 24829 H 2349.16 0.77452 -0.546647 0
M  V30 24830 H 2348.87 3.17357 -1.51583 0
M  V30 24831 H 2348.74 3.76977 0.129729 0
M  V30 24832 H 2351.13 2.89135 0.59032 0
M  V30 24833 H 2351.21 2.31805 -1.08168 0
M  V30 24834 H 2350.85 4.71177 -1.89616 0
M  V30 24835 H 2350.78 5.26208 -0.20322 0
M  V30 24836 H 2353.27 3.73901 -0.548282 0
M  V30 24837 H 2353.59 7.53044 -1.73622 0
M  V30 24838 H 2351.93 6.77389 -1.55466 0
M  V30 24839 H 2355.12 4.6185 -0.762402 0
M  V30 24840 H 2355.29 6.34746 -1.30389 0
M  V30 24841 N 2348.7 0.100255 1.57281 0
M  V30 24842 C 2349.63 -0.853819 2.1733 0
M  V30 24843 C 2350.61 -1.29058 1.10806 0
M  V30 24844 O 2351.8 -1.35655 1.38966 0
M  V30 24845 C 2348.93 -2.11104 2.75776 0
M  V30 24846 C 2347.88 -1.81273 3.87717 0
M  V30 24847 C 2347.21 -3.13867 4.32888 0
M  V30 24848 C 2348.51 -1.09565 5.10679 0
M  V30 24849 H 2350.2 -0.353493 2.97306 0
M  V30 24850 H 2347.75 -0.168587 1.4301 0
M  V30 24851 H 2349.7 -2.7829 3.16437 0
M  V30 24852 H 2348.42 -2.63429 1.93061 0
M  V30 24853 H 2347.08 -1.16483 3.47602 0
M  V30 24854 H 2346.73 -3.64089 3.47057 0
M  V30 24855 H 2346.43 -2.94687 5.08363 0
M  V30 24856 H 2347.95 -3.82202 4.76187 0
M  V30 24857 H 2349.37 -1.66869 5.48477 0
M  V30 24858 H 2347.77 -1.00546 5.91617 0
M  V30 24859 H 2348.84 -0.0792447 4.84835 0
M  V30 24860 N 2350.18 -1.56643 -0.17346 0
M  V30 24861 C 2351.6 -1.50713 -0.525148 0
M  V30 24862 C 2351.8 -0.804139 -1.84759 0
M  V30 24863 O 2350.85 -0.363618 -2.49868 0
M  V30 24864 C 2352.16 -2.95442 -0.559885 0
M  V30 24865 C 2353.71 -3.06235 -0.647234 0
M  V30 24866 C 2354.19 -4.52418 -0.712884 0
M  V30 24867 N 2355.68 -4.56656 -0.775831 0
M  V30 24868 C 2356.41 -5.67107 -0.847164 0
M  V30 24869 N 2355.91 -6.87195 -0.879464 0
M  V30 24870 N 2357.7 -5.55073 -0.88602 0
M  V30 24871 H 2349.85 -2.00752 0.693717 0
M  V30 24872 H 2352.12 -0.914481 0.249857 0
M  V30 24873 H 2351.82 -3.50022 0.34311 0
M  V30 24874 H 2351.7 -3.49971 -1.40712 0
M  V30 24875 H 2354.08 -2.5169 -1.54066 0
M  V30 24876 H 2354.16 -2.54794 0.226631 0
M  V30 24877 H 2353.81 -5.07594 0.176273 0
M  V30 24878 H 2353.74 -5.01613 -1.60286 0
M  V30 24879 H 2356.23 -3.70194 -0.759239 0
M  V30 24880 H 2356.54 -7.67123 -0.935009 0
M  V30 24881 H 2354.89 -6.8981 -0.847777 0
M  V30 24882 H 2358.08 -4.60174 -0.857772 0
M  V30 24883 H 2358.25 -6.41173 -0.93815 0
M  V30 24884 N 2351.66 0.44194 -1.51277 0
M  V30 24885 C 2352.91 1.1894 -1.63394 0
M  V30 24886 C 2353.23 1.9183 -0.350193 0
M  V30 24887 O 2352.5 1.85366 0.633752 0
M  V30 24888 H 2351.08 0.442039 -0.602172 0
M  V30 24889 H 2353.74 0.507132 -1.88187 0
M  V30 24890 H 2352.83 1.92149 -2.45937 0
M  V30 24891 N 2353.14 1.41345 0.697083 0
M  V30 24892 C 2354.05 1.4543 1.84085 0
M  V30 24893 C 2355.06 0.34504 1.70545 0
M  V30 24894 O 2356.24 0.592526 1.92487 0
M  V30 24895 C 2353.3 1.33292 3.20053 0
M  V30 24896 C 2352.36 2.5452 3.45713 0
M  V30 24897 C 2351.6 2.42952 4.75195 0
M  V30 24898 O 2351.82 1.45328 5.51576 0
M  V30 24899 O 2350.75 3.32681 5.01604 0
M  V30 24900 H 2354.58 2.41922 1.83595 0
M  V30 24901 H 2352.16 1.22867 0.849945 0
M  V30 24902 H 2354.05 1.28801 4.01233 0
M  V30 24903 H 2352.72 0.399146 3.2123 0
M  V30 24904 H 2351.63 2.64588 2.64469 0
M  V30 24905 H 2352.96 3.46721 3.4935 0
M  V30 24906 N 2354.61 -0.931187 1.27148 0
M  V30 24907 C 2355.58 -2.01287 1.09618 0
M  V30 24908 C 2356.58 -1.60747 0.0412864 0
M  V30 24909 O 2357.77 -1.71843 0.285575 0
M  V30 24910 C 2354.9 -3.34261 0.669505 0
M  V30 24911 H 2356.09 -2.18269 2.05666 0
M  V30 24912 H 2353.64 -1.11151 1.09887 0
M  V30 24913 H 2354.38 -3.22978 -0.292515 0
M  V30 24914 H 2354.16 -3.65042 1.43133 0
M  V30 24915 H 2355.65 -4.13705 0.568994 0
M  V30 24916 N 2356.09 -1.09114 -1.13719 0
M  V30 24917 C 2357.51 -0.820198 -1.36912 0
M  V30 24918 C 2357.71 0.567045 -1.93357 0
M  V30 24919 O 2356.76 1.32251 -2.15095 0
M  V30 24920 C 2358.08 -1.90881 -2.32347 0
M  V30 24921 C 2359.62 -1.93566 -2.4597 0
M  V30 24922 C 2360.1 -3.01562 -3.44709 0
M  V30 24923 N 2361.59 -3.00781 -3.52257 0
M  V30 24924 C 2362.33 -3.80986 -4.28529 0
M  V30 24925 N 2361.82 -4.7109 -5.07982 0
M  V30 24926 N 2363.61 -3.69258 -4.23798 0
M  V30 24927 H 2355.77 -1.98554 -0.754313 0
M  V30 24928 H 2358.03 -0.86207 -0.394385 0
M  V30 24929 H 2357.73 -2.90655 -1.98022 0
M  V30 24930 H 2357.61 -1.7843 -3.32329 0
M  V30 24931 H 2360 -0.944335 -2.79582 0
M  V30 24932 H 2360.08 -2.10096 -1.45923 0
M  V30 24933 H 2359.72 -4.00906 -3.11828 0
M  V30 24934 H 2359.65 -2.82277 -4.44553 0
M  V30 24935 H 2362.14 -2.3548 -2.95563 0
M  V30 24936 H 2362.45 -5.28879 -5.63478 0
M  V30 24937 H 2360.8 -4.75128 -5.07226 0
M  V30 24938 H 2363.99 -2.98228 -3.60801 0
M  V30 24939 H 2364.16 -4.32003 -4.82988 0
M  V30 24940 N 2357.57 1.30887 -0.877861 0
M  V30 24941 C 2358.52 2.28318 -0.337578 0
M  V30 24942 C 2359.49 1.56075 0.568319 0
M  V30 24943 O 2360.67 1.84179 0.498266 0
M  V30 24944 C 2357.81 3.42179 0.448082 0
M  V30 24945 C 2356.92 4.29255 -0.486225 0
M  V30 24946 C 2356.06 5.30269 0.314334 0
M  V30 24947 C 2355.1 6.08994 -0.615898 0
M  V30 24948 N 2354.24 7.01942 0.148897 0
M  V30 24949 H 2359.08 2.73917 -1.1736 0
M  V30 24950 H 2356.61 1.34744 -0.590117 0
M  V30 24951 H 2358.57 4.06942 0.919445 0
M  V30 24952 H 2357.2 2.97668 1.24874 0
M  V30 24953 H 2356.25 3.64863 -1.07606 0
M  V30 24954 H 2357.56 4.84171 -1.19918 0
M  V30 24955 H 2356.72 6.00746 0.847863 0
M  V30 24956 H 2355.46 4.76029 1.06054 0
M  V30 24957 H 2354.46 5.37399 -1.16112 0
M  V30 24958 H 2355.69 6.6532 -1.36108 0
M  V30 24959 H 2353.63 6.50101 0.87777 0
M  V30 24960 H 2353.55 7.54314 -0.504565 0
M  V30 24961 H 2354.82 7.76672 0.6634 0
M  V30 24962 N 2359.05 0.638091 1.44105 0
M  V30 24963 C 2360.28 0.152651 2.06336 0
M  V30 24964 C 2360.69 -1.1756 1.47733 0
M  V30 24965 O 2360.05 -1.72256 0.602836 0
M  V30 24966 C 2360.1 0.0392126 3.61479 0
M  V30 24967 O 2359.82 1.31495 4.179 0
M  V30 24968 C 2361.32 -0.474099 4.40758 0
M  V30 24969 H 2358.54 0.0828893 0.665861 0
M  V30 24970 H 2361.08 0.874463 1.8486 0
M  V30 24971 H 2359.24 -0.633075 3.82192 0
M  V30 24972 H 2359.65 1.1643 5.11414 0
M  V30 24973 H 2361.13 -0.502466 5.49708 0
M  V30 24974 H 2361.6 -1.50251 4.127 0
M  V30 24975 H 2362.21 0.165176 4.24979 0
M  V30 24976 N 2360.53 -1.52973 0.379063 0
M  V30 24977 C 2361.77 -2.01446 -0.206386 0
M  V30 24978 C 2362.1 -1.2659 -1.47666 0
M  V30 24979 O 2361.36 -0.351709 -1.92514 0
M  V30 24980 C 2361.65 -3.53435 -0.530898 0
M  V30 24981 C 2361.32 -4.46239 0.646625 0
M  V30 24982 C 2359.98 -4.71328 0.969687 0
M  V30 24983 C 2362.33 -5.0106 1.43487 0
M  V30 24984 C 2359.66 -5.48488 2.08273 0
M  V30 24985 C 2362.01 -5.79436 2.53844 0
M  V30 24986 C 2360.68 -6.02807 2.8667 0
M  V30 24987 H 2359.95 -0.737141 -0.075522 0
M  V30 24988 H 2362.6 -1.84465 0.514303 0
M  V30 24989 H 2360.9 -3.68435 -1.33278 0
M  V30 24990 H 2362.6 -3.88425 -0.996349 0
M  V30 24991 H 2359.19 -4.26869 0.384809 0
M  V30 24992 H 2363.37 -4.81611 1.19853 0
M  V30 24993 H 2358.63 -5.64812 2.34088 0
M  V30 24994 H 2362.8 -6.20919 3.1533 0
M  V30 24995 H 2360.43 -6.6238 3.73037 0
M  V30 24996 N 2362 -0.108595 -1.57225 0
M  V30 24997 C 2363.25 0.552727 -1.95122 0
M  V30 24998 C 2363.58 1.66989 -0.991375 0
M  V30 24999 O 2362.86 1.94482 -0.0267553 0
M  V30 25000 C 2363.14 1.09522 -3.43041 0
M  V30 25001 C 2362.99 -0.0178123 -4.49796 0
M  V30 25002 C 2364.31 1.98938 -3.9257 0
M  V30 25003 H 2361.43 0.199449 -0.709499 0
M  V30 25004 H 2364.07 -0.182044 -1.89126 0
M  V30 25005 H 2362.22 1.7214 -3.48282 0
M  V30 25006 H 2363.9 -0.652664 -4.5666 0
M  V30 25007 H 2362.14 -0.682385 -4.28399 0
M  V30 25008 H 2362.81 0.402822 -5.50528 0
M  V30 25009 H 2365.29 1.46207 -3.89567 0
M  V30 25010 H 2364.16 2.33818 -4.96609 0
M  V30 25011 H 2364.42 2.91195 -3.32653 0
M  V30 25012 N 2363.48 1.56732 0.16515 0
M  V30 25013 C 2364.76 1.73226 0.908412 0
M  V30 25014 C 2365.14 0.671685 2.00129 0
M  V30 25015 O 2364.49 -0.312491 2.26353 0
M  V30 25016 C 2364.7 3.16647 1.4675 0
M  V30 25017 C 2366.04 3.77791 1.93802 0
M  V30 25018 O 2367.07 3.19963 1.56531 0
M  V30 25019 O 2365.93 4.79341 2.62478 0
M  V30 25020 H 2363.02 0.707626 0.428013 0
M  V30 25021 H 2365.57 1.69013 0.152496 0
M  V30 25022 H 2364.34 3.85325 0.681222 0
M  V30 25023 H 2363.96 3.25211 2.28743 0
M  V30 25024 N 2364.96 -0.433911 1.51509 0
M  V30 25025 C 2365.89 -1.53426 1.76019 0
M  V30 25026 C 2366.87 -1.58781 0.610139 0
M  V30 25027 O 2368.06 -1.74453 0.853207 0
M  V30 25028 C 2365.19 -2.91476 1.88836 0
M  V30 25029 C 2364.14 -3.00981 3.04293 0
M  V30 25030 C 2363.47 -4.41044 3.02298 0
M  V30 25031 C 2364.77 -2.74746 4.44198 0
M  V30 25032 H 2366.46 -1.33167 2.68155 0
M  V30 25033 H 2364.01 -0.639191 1.29036 0
M  V30 25034 H 2365.96 -3.68417 2.04565 0
M  V30 25035 H 2364.68 -3.12975 0.93351 0
M  V30 25036 H 2363.34 -2.26481 2.88274 0
M  V30 25037 H 2362.99 -4.59515 2.04584 0
M  V30 25038 H 2362.69 -4.48333 3.7983 0
M  V30 25039 H 2364.21 -5.19954 3.20125 0
M  V30 25040 H 2365.63 -3.41418 4.6055 0
M  V30 25041 H 2364.03 -2.93441 5.23462 0
M  V30 25042 H 2365.1 -1.70331 4.53999 0
M  V30 25043 N 2366.44 -1.41713 -0.689577 0
M  V30 25044 C 2367.37 -1.38453 -1.814 0
M  V30 25045 C 2368.35 -0.250902 -1.60653 0
M  V30 25046 O 2369.53 -0.438772 -1.83322 0
M  V30 25047 C 2366.66 -1.16116 -3.18174 0
M  V30 25048 C 2365.71 -2.32277 -3.57701 0
M  V30 25049 S 2366.54 -3.94774 -3.6182 0
M  V30 25050 C 2367.7 -3.74751 -5.01311 0
M  V30 25051 H 2367.93 -2.33607 -1.83889 0
M  V30 25052 H 2365.46 -1.28308 -0.858856 0
M  V30 25053 H 2367.42 -1.03914 -3.9713 0
M  V30 25054 H 2366.08 -0.225723 -3.13288 0
M  V30 25055 H 2365.27 -2.12357 -4.57078 0
M  V30 25056 H 2364.88 -2.40916 -2.86069 0
M  V30 25057 H 2367.17 -3.34827 -5.8898 0
M  V30 25058 H 2368.11 -4.73752 -5.26274 0
M  V30 25059 H 2368.52 -3.07906 -4.73132 0
M  V30 25060 N 2367.92 0.924431 -1.2764 0
M  V30 25061 C 2369.33 1.20095 -1.05116 0
M  V30 25062 C 2369.53 2.00369 0.213227 0
M  V30 25063 O 2368.59 2.35228 0.917828 0
M  V30 25064 C 2369.9 1.94592 -2.29247 0
M  V30 25065 C 2371.45 2.07518 -2.34319 0
M  V30 25066 C 2371.92 2.85421 -3.58188 0
M  V30 25067 N 2373.42 2.92988 -3.58765 0
M  V30 25068 C 2374.15 3.53738 -4.51284 0
M  V30 25069 N 2373.65 4.15854 -5.5411 0
M  V30 25070 N 2375.44 3.51173 -4.389 0
M  V30 25071 H 2367.59 0.388227 -2.08822 0
M  V30 25072 H 2369.85 0.234369 -0.918572 0
M  V30 25073 H 2369.56 1.43029 -3.21303 0
M  V30 25074 H 2369.43 2.95193 -2.34821 0
M  V30 25075 H 2371.82 2.58267 -1.42767 0
M  V30 25076 H 2371.9 1.06127 -2.32746 0
M  V30 25077 H 2371.55 2.35355 -4.50078 0
M  V30 25078 H 2371.48 3.87104 -3.57013 0
M  V30 25079 H 2373.97 2.48845 -2.84403 0
M  V30 25080 H 2374.28 4.60157 -6.20867 0
M  V30 25081 H 2372.62 4.1439 -5.57948 0
M  V30 25082 H 2375.82 3.0185 -3.57777 0
M  V30 25083 H 2375.99 3.98228 -5.11193 0
M  V30 25084 N 2369.39 1.09715 1.13139 0
M  V30 25085 C 2370.81 0.827447 1.36475 0
M  V30 25086 C 2371.01 -0.556783 1.93655 0
M  V30 25087 O 2370.07 -1.31108 2.15794 0
M  V30 25088 C 2371.38 1.9211 2.31331 0
M  V30 25089 C 2372.93 1.94868 2.4494 0
M  V30 25090 C 2373.4 3.03386 3.43105 0
M  V30 25091 N 2374.89 3.02645 3.50657 0
M  V30 25092 C 2375.63 3.83253 4.26503 0
M  V30 25093 N 2375.12 4.73777 5.05477 0
M  V30 25094 N 2376.92 3.71501 4.21834 0
M  V30 25095 H 2369.07 1.98952 0.743772 0
M  V30 25096 H 2371.33 0.864149 0.389807 0
M  V30 25097 H 2371.04 2.91701 1.96478 0
M  V30 25098 H 2370.91 1.8019 3.31378 0
M  V30 25099 H 2373.3 0.959148 2.79078 0
M  V30 25100 H 2373.38 2.10867 1.44807 0
M  V30 25101 H 2373.02 4.02554 3.09697 0
M  V30 25102 H 2372.95 2.8463 4.4305 0
M  V30 25103 H 2375.44 2.37044 2.9431 0
M  V30 25104 H 2375.76 5.31859 5.60665 0
M  V30 25105 H 2374.1 4.77811 5.04699 0
M  V30 25106 H 2377.29 3.00137 3.59215 0
M  V30 25107 H 2377.47 4.34559 4.8069 0
M  V30 25108 N 2370.87 -1.30419 0.88479 0
M  V30 25109 C 2372.12 -1.95762 0.502146 0
M  V30 25110 C 2372.44 -1.70194 -0.951785 0
M  V30 25111 O 2371.71 -1.02543 -1.66918 0
M  V30 25112 H 2370.29 -0.724312 0.182707 0
M  V30 25113 H 2372.95 -1.58953 1.12782 0
M  V30 25114 H 2372.05 -3.04774 0.672242 0
M  V30 25115 N 2372.35 -0.645724 -1.43764 0
M  V30 25116 C 2373.63 -0.0863307 -1.95409 0
M  V30 25117 C 2374.01 1.39172 -1.58727 0
M  V30 25118 O 2373.36 2.11346 -0.868619 0
M  V30 25119 C 2373.57 -0.324626 -3.47487 0
M  V30 25120 C 2374.91 -0.225572 -4.24 0
M  V30 25121 O 2375.94 -0.256778 -3.55273 0
M  V30 25122 O 2374.8 -0.142897 -5.46313 0
M  V30 25123 H 2371.89 0.0139337 -0.826883 0
M  V30 25124 H 2374.44 -0.718442 -1.53742 0
M  V30 25125 H 2373.21 -1.34966 -3.67287 0
M  V30 25126 H 2372.83 0.340918 -3.96136 0
M  V30 25127 N 2373.83 1.5277 -0.38717 0
M  V30 25128 C 2374.76 2.29307 0.440511 0
M  V30 25129 C 2375.74 1.32607 1.06533 0
M  V30 25130 O 2376.92 1.61499 1.0785 0
M  V30 25131 C 2374.05 3.09831 1.56914 0
M  V30 25132 C 2373.01 4.14397 1.07047 0
M  V30 25133 C 2372.33 4.83133 2.291 0
M  V30 25134 C 2373.63 5.22113 0.139923 0
M  V30 25135 H 2375.33 2.98744 -0.198079 0
M  V30 25136 H 2372.87 1.43675 -0.0967052 0
M  V30 25137 H 2374.83 3.62131 2.15497 0
M  V30 25138 H 2373.55 2.38123 2.23528 0
M  V30 25139 H 2372.21 3.63075 0.507183 0
M  V30 25140 H 2371.86 4.07975 2.94219 0
M  V30 25141 H 2371.56 5.53807 1.96396 0
M  V30 25142 H 2373.08 5.38236 2.8833 0
M  V30 25143 H 2374.5 5.69785 0.633878 0
M  V30 25144 H 2372.89 6.00021 -0.097254 0
M  V30 25145 H 2373.96 4.78056 -0.811795 0
M  V30 25146 N 2375.31 0.116931 1.57166 0
M  V30 25147 C 2376.72 -0.408777 1.8217 0
M  V30 25148 C 2377.07 -1.66744 1.03396 0
M  V30 25149 O 2376.19 -2.1471 0.269924 0
M  V30 25150 C 2376.79 -0.748408 3.3043 0
M  V30 25151 C 2375.35 -1.21876 3.56122 0
M  V30 25152 C 2374.49 -0.226403 2.76374 0
M  V30 25153 H 2377.45 0.342091 1.54969 0
M  V30 25154 H 2377.47 -1.60601 3.44946 0
M  V30 25155 H 2376.98 0.167853 3.87737 0
M  V30 25156 H 2375.08 -2.15199 3.04171 0
M  V30 25157 H 2375.19 -1.16551 4.64707 0
M  V30 25158 H 2373.56 -0.71302 2.44516 0
M  V30 25159 H 2374.34 0.682918 3.36439 0
M  V30 25160 N 2376.78 -1.56818 -0.156836 0
M  V30 25161 C 2378.03 -1.83077 -0.872383 0
M  V30 25162 C 2378.36 -0.697033 -1.8126 0
M  V30 25163 O 2377.64 0.300046 -1.92172 0
M  V30 25164 C 2377.92 -3.19792 -1.65545 0
M  V30 25165 C 2377.77 -4.43715 -0.737389 0
M  V30 25166 C 2379.09 -3.53611 -2.62006 0
M  V30 25167 H 2376.21 -0.665958 -0.315704 0
M  V30 25168 H 2378.85 -1.89498 -0.137971 0
M  V30 25169 H 2377 -3.14449 -2.28154 0
M  V30 25170 H 2378.68 -4.61136 -0.123062 0
M  V30 25171 H 2376.92 -4.33775 -0.0463305 0
M  V30 25172 H 2377.59 -5.35957 -1.32113 0
M  V30 25173 H 2380.07 -3.59501 -2.09519 0
M  V30 25174 H 2378.94 -4.50319 -3.13853 0
M  V30 25175 H 2379.2 -2.79059 -3.42897 0
M  V30 25176 N 2378.26 0.425871 -1.51737 0
M  V30 25177 C 2379.51 1.17291 -1.66176 0
M  V30 25178 C 2379.86 1.88634 -0.378793 0
M  V30 25179 O 2379.16 1.81085 0.625989 0
M  V30 25180 C 2379.35 2.20712 -2.81106 0
M  V30 25181 C 2379.18 1.59522 -4.20456 0
M  V30 25182 C 2377.95 1.37516 -4.86228 0
M  V30 25183 C 2380.15 1.06519 -5.03148 0
M  V30 25184 N 2378.13 0.72043 -6.09658 0
M  V30 25185 C 2379.5 0.536397 -6.17675 0
M  V30 25186 C 2381.56 0.958041 -4.88596 0
M  V30 25187 C 2380.26 -0.0890182 -7.19245 0
M  V30 25188 C 2382.28 0.346504 -5.90384 0
M  V30 25189 C 2381.65 -0.171687 -7.04191 0
M  V30 25190 H 2377.75 0.416463 -0.661878 0
M  V30 25191 H 2380.33 0.467768 -1.88997 0
M  V30 25192 H 2378.5 2.88603 -2.59929 0
M  V30 25193 H 2380.23 2.87658 -2.84667 0
M  V30 25194 H 2376.99 1.64008 -4.44295 0
M  V30 25195 H 2377.41 0.410173 -6.75756 0
M  V30 25196 H 2382.05 1.34452 -4.00852 0
M  V30 25197 H 2379.77 -0.487602 -8.06628 0
M  V30 25198 H 2383.36 0.265348 -5.81195 0
M  V30 25199 H 2382.24 -0.637446 -7.81605 0
M  V30 25200 N 2379.74 1.42077 0.682052 0
M  V30 25201 C 2380.67 1.4777 1.80793 0
M  V30 25202 C 2381.65 0.334983 1.66769 0
M  V30 25203 O 2382.84 0.548297 1.86299 0
M  V30 25204 C 2379.97 1.37235 3.19036 0
M  V30 25205 C 2378.92 2.49459 3.47785 0
M  V30 25206 C 2378.25 2.23983 4.85526 0
M  V30 25207 C 2379.55 3.91783 3.45404 0
M  V30 25208 H 2381.24 2.42 1.76285 0
M  V30 25209 H 2378.79 1.16477 0.846701 0
M  V30 25210 H 2380.74 1.39828 3.97525 0
M  V30 25211 H 2379.46 0.394964 3.24203 0
M  V30 25212 H 2378.12 2.46171 2.71653 0
M  V30 25213 H 2377.77 1.24556 4.87334 0
M  V30 25214 H 2377.47 2.99193 5.05725 0
M  V30 25215 H 2378.99 2.28314 5.66308 0
M  V30 25216 H 2380.41 3.96712 4.13875 0
M  V30 25217 H 2378.81 4.66784 3.77137 0
M  V30 25218 H 2379.88 4.1897 2.44115 0
M  V30 25219 N 2381.22 -0.917649 1.28129 0
M  V30 25220 C 2382.18 -2.00113 1.11747 0
M  V30 25221 C 2383.18 -1.60694 0.0583334 0
M  V30 25222 O 2384.37 -1.71531 0.303785 0
M  V30 25223 C 2381.5 -3.33532 0.704921 0
M  V30 25224 H 2382.7 -2.16076 2.0797 0
M  V30 25225 H 2380.25 -1.09979 1.1106 0
M  V30 25226 H 2380.99 -3.2327 -0.258242 0
M  V30 25227 H 2380.77 -3.63503 1.46997 0
M  V30 25228 H 2382.26 -4.13079 0.612841 0
M  V30 25229 N 2382.7 -1.10314 -1.12555 0
M  V30 25230 C 2383.93 -0.865649 -1.8759 0
M  V30 25231 C 2384.34 0.587358 -1.79852 0
M  V30 25232 O 2383.68 1.41662 -1.16951 0
M  V30 25233 C 2383.74 -1.23387 -3.37662 0
M  V30 25234 C 2383.4 -2.69365 -3.69177 0
M  V30 25235 C 2384.4 -3.67604 -3.67646 0
M  V30 25236 C 2382.09 -3.05718 -3.98549 0
M  V30 25237 C 2384.08 -5.00219 -3.95044 0
M  V30 25238 C 2381.77 -4.38522 -4.25608 0
M  V30 25239 C 2382.77 -5.35581 -4.23842 0
M  V30 25240 O 2382.45 -6.65994 -4.5023 0
M  V30 25241 H 2382.19 -0.310567 -0.600436 0
M  V30 25242 H 2384.74 -1.47107 -1.43348 0
M  V30 25243 H 2382.97 -0.571534 -3.82453 0
M  V30 25244 H 2384.66 -0.974063 -3.94039 0
M  V30 25245 H 2385.42 -3.40863 -3.45018 0
M  V30 25246 H 2381.3 -2.30796 -3.99066 0
M  V30 25247 H 2384.85 -5.75969 -3.93581 0
M  V30 25248 H 2380.74 -4.65001 -4.4771 0
M  V30 25249 H 2381.51 -6.71606 -4.67855 0
M  V30 25250 N 2384.18 1.29948 -0.891694 0
M  V30 25251 C 2385.12 2.27947 -0.361776 0
M  V30 25252 C 2386.09 1.56669 0.551733 0
M  V30 25253 O 2387.28 1.84697 0.478703 0
M  V30 25254 C 2384.42 3.42635 0.411764 0
M  V30 25255 C 2383.53 4.28715 -0.531726 0
M  V30 25256 C 2382.67 5.30573 0.258074 0
M  V30 25257 C 2381.7 6.08306 -0.680455 0
M  V30 25258 N 2380.84 7.02061 0.0744379 0
M  V30 25259 H 2385.68 2.72657 -1.20259 0
M  V30 25260 H 2383.22 1.34111 -0.604376 0
M  V30 25261 H 2385.18 4.07895 0.876232 0
M  V30 25262 H 2383.81 2.98976 1.2171 0
M  V30 25263 H 2382.86 3.63701 -1.1147 0
M  V30 25264 H 2384.17 4.82871 -1.25046 0
M  V30 25265 H 2383.32 6.01612 0.784098 0
M  V30 25266 H 2382.06 4.77127 1.00999 0
M  V30 25267 H 2381.07 5.36138 -1.21805 0
M  V30 25268 H 2382.29 6.63839 -1.43157 0
M  V30 25269 H 2380.24 6.50995 0.808769 0
M  V30 25270 H 2380.16 7.53737 -0.584542 0
M  V30 25271 H 2381.42 7.77332 0.580986 0
M  V30 25272 N 2385.65 0.653339 1.4342 0
M  V30 25273 C 2386.9 0.167027 2.02111 0
M  V30 25274 C 2387.23 -1.21589 1.51425 0
M  V30 25275 O 2386.51 -1.81179 0.707421 0
M  V30 25276 C 2386.79 0.178011 3.5966 0
M  V30 25277 C 2386.64 1.59485 4.20576 0
M  V30 25278 C 2387.96 -0.485523 4.37414 0
M  V30 25279 H 2385.08 0.0621686 0.734373 0
M  V30 25280 H 2387.72 0.834046 1.70715 0
M  V30 25281 H 2385.87 -0.389964 3.86538 0
M  V30 25282 H 2387.55 2.21343 4.04728 0
M  V30 25283 H 2385.79 2.1421 3.77222 0
M  V30 25284 H 2386.46 1.55439 5.29663 0
M  V30 25285 H 2388.94 -0.00227214 4.161 0
M  V30 25286 H 2387.81 -0.44711 5.47076 0
M  V30 25287 H 2388.07 -1.55966 4.13675 0
M  V30 25288 N 2387.13 -1.52563 0.395266 0
M  V30 25289 C 2388.09 -2.25226 -0.424961 0
M  V30 25290 C 2389.09 -1.27081 -0.985244 0
M  V30 25291 O 2390.28 -1.51132 -0.866305 0
M  V30 25292 C 2387.42 -3.01189 -1.59681 0
M  V30 25293 H 2388.61 -2.99155 0.211285 0
M  V30 25294 H 2386.16 -1.55602 0.1475 0
M  V30 25295 H 2386.9 -2.31576 -2.27031 0
M  V30 25296 H 2386.68 -3.73231 -1.2017 0
M  V30 25297 H 2388.17 -3.56343 -2.17736 0
M  V30 25298 N 2388.61 -0.125265 -1.57101 0
M  V30 25299 C 2389.57 0.808342 -2.14473 0
M  V30 25300 C 2390.57 1.19031 -1.08112 0
M  V30 25301 O 2391.76 1.11479 -1.33858 0
M  V30 25302 C 2388.89 2.09397 -2.69008 0
M  V30 25303 H 2390.09 0.309644 -2.98297 0
M  V30 25304 H 2387.64 0.124024 -1.55807 0
M  V30 25305 H 2388.38 2.63684 -1.88789 0
M  V30 25306 H 2388.16 1.82951 -3.46802 0
M  V30 25307 H 2389.65 2.76122 -3.13283 0
M  V30 25308 N 2390.09 1.56899 0.148518 0
M  V30 25309 C 2391 2.01414 1.2029 0
M  V30 25310 C 2392.01 0.929299 1.47105 0
M  V30 25311 O 2393.19 1.23866 1.58805 0
M  V30 25312 C 2390.25 2.38452 2.51678 0
M  V30 25313 C 2389.32 3.60876 2.32523 0
M  V30 25314 C 2388.55 3.96138 3.57646 0
M  V30 25315 O 2388.77 3.32081 4.63765 0
M  V30 25316 O 2387.71 4.89391 3.50399 0
M  V30 25317 H 2391.53 2.91417 0.854974 0
M  V30 25318 H 2389.12 1.45069 0.357126 0
M  V30 25319 H 2391 2.63141 3.29143 0
M  V30 25320 H 2389.67 1.51604 2.86003 0
M  V30 25321 H 2388.58 3.41376 1.53013 0
M  V30 25322 H 2389.91 4.48337 2.03113 0
M  V30 25323 N 2391.57 -0.417818 1.51961 0
M  V30 25324 C 2392.81 -1.16326 1.65265 0
M  V30 25325 C 2393.13 -1.91248 0.380667 0
M  V30 25326 O 2392.4 -1.8635 -0.604181 0
M  V30 25327 H 2390.98 -0.432403 0.609128 0
M  V30 25328 H 2393.65 -0.477129 1.8897 0
M  V30 25329 H 2392.74 -1.88212 2.48963 0
M  V30 25330 N 2393.04 -1.42436 -0.674508 0
M  V30 25331 C 2394.29 -1.42214 -1.43032 0
M  V30 25332 C 2394.61 -0.0421131 -1.95555 0
M  V30 25333 O 2395.81 0.0827081 -2.71374 0
M  V30 25334 C 2394.27 -2.50159 -2.58744 0
M  V30 25335 C 2393.88 -3.9417 -2.12918 0
M  V30 25336 C 2395.62 -2.59104 -3.36252 0
M  V30 25337 C 2393.53 -4.93623 -3.25714 0
M  V30 25338 H 2392.46 -0.528948 -0.537336 0
M  V30 25339 H 2395.11 -1.68345 -0.73021 0
M  V30 25340 H 2393.49 -2.17194 -3.31124 0
M  V30 25341 H 2394.66 -4.36491 -1.4769 0
M  V30 25342 H 2392.98 -3.89078 -1.48348 0
M  V30 25343 H 2395.58 -3.30586 -4.20258 0
M  V30 25344 H 2395.92 -1.63468 -3.82863 0
M  V30 25345 H 2396.45 -2.91265 -2.70942 0
M  V30 25346 H 2393.19 -5.90737 -2.84095 0
M  V30 25347 H 2392.71 -4.55933 -3.89724 0
M  V30 25348 H 2394.39 -5.15354 -3.91177 0
M  V30 25349 N 2394.52 0.910841 -1.28614 0
M  V30 25350 C 2395.47 2.03499 -1.12653 0
M  V30 25351 C 2396.46 1.6934 -0.0450352 0
M  V30 25352 O 2397.67 1.7884 -0.204019 0
M  V30 25353 H 2394.04 0.666816 -0.34765 0
M  V30 25354 H 2396.02 2.14102 -2.07853 0
M  V30 25355 C 2394.76 3.38177 -0.808203 0
M  V30 25356 H 2394.09 3.64957 -1.63237 0
M  V30 25357 H 2395.53 4.17554 -0.736499 0
M  V30 25358 C 2393.99 3.33344 0.488168 0
M  V30 25359 O 2394.52 3.7193 1.5176 0
M  V30 25360 N 2392.72 2.8644 0.489959 0
M  V30 25361 H 2392.27 2.55236 -0.348206 0
M  V30 25362 H 2392.23 2.83589 1.35736 0
M  V30 25363 N 2396 1.10909 1.11969 0
M  V30 25364 C 2397.23 0.875586 1.87128 0
M  V30 25365 C 2397.64 -0.577811 1.80161 0
M  V30 25366 O 2396.98 -1.4104 1.17701 0
M  V30 25367 C 2397.04 1.25176 3.37003 0
M  V30 25368 C 2396.71 2.71319 3.67743 0
M  V30 25369 C 2397.7 3.69548 3.65691 0
M  V30 25370 C 2395.39 3.07828 3.96923 0
M  V30 25371 C 2397.38 5.02307 3.92386 0
M  V30 25372 C 2395.07 4.40773 4.23276 0
M  V30 25373 C 2396.07 5.37821 4.20995 0
M  V30 25374 O 2395.76 6.68372 4.46692 0
M  V30 25375 H 2395.49 0.313747 0.598781 0
M  V30 25376 H 2398.04 1.47866 1.42566 0
M  V30 25377 H 2396.27 0.591809 3.82145 0
M  V30 25378 H 2397.96 0.994946 3.93517 0
M  V30 25379 H 2398.73 3.42688 3.43205 0
M  V30 25380 H 2394.61 2.32909 3.97837 0
M  V30 25381 H 2398.15 5.78048 3.90521 0
M  V30 25382 H 2394.05 4.67369 4.45237 0
M  V30 25383 H 2394.82 6.74077 4.64287 0
M  V30 25384 N 2397.48 -1.29474 0.898573 0
M  V30 25385 C 2398.44 -2.26023 0.380311 0
M  V30 25386 C 2399.44 -1.53316 -0.484864 0
M  V30 25387 O 2400.63 -1.71768 -0.290077 0
M  V30 25388 C 2397.76 -3.3783 -0.456451 0
M  V30 25389 H 2398.96 -2.73381 1.233 0
M  V30 25390 H 2396.51 -1.40896 0.676614 0
M  V30 25391 H 2397.24 -2.9581 -1.32917 0
M  V30 25392 H 2397.03 -3.91759 0.163462 0
M  V30 25393 H 2398.52 -4.09661 -0.810394 0
M  V30 25394 N 2398.96 -0.660936 -1.43071 0
M  V30 25395 C 2400.23 -0.107052 -1.95307 0
M  V30 25396 C 2400.61 1.37481 -1.60194 0
M  V30 25397 O 2399.96 2.10413 -0.890986 0
M  V30 25398 C 2400.17 -0.361463 -3.47123 0
M  V30 25399 C 2401.52 -0.27053 -4.23737 0
M  V30 25400 O 2402.54 -0.294445 -3.54981 0
M  V30 25401 O 2401.4 -0.200833 -5.46131 0
M  V30 25402 H 2398.5 0.00516275 -0.826984 0
M  V30 25403 H 2401.04 -0.734708 -1.52971 0
M  V30 25404 H 2399.81 -1.38854 -3.65835 0
M  V30 25405 H 2399.44 0.298883 -3.96475 0
M  V30 25406 N 2400.43 1.52351 -0.403352 0
M  V30 25407 C 2401.85 1.59509 -0.0539561 0
M  V30 25408 C 2402.05 1.41655 1.43304 0
M  V30 25409 O 2401.11 1.24059 2.19922 0
M  V30 25410 C 2402.42 2.95744 -0.543706 0
M  V30 25411 C 2403.97 3.08961 -0.50118 0
M  V30 25412 C 2404.44 4.47668 -0.967345 0
M  V30 25413 N 2405.93 4.53892 -0.923929 0
M  V30 25414 C 2406.67 5.59478 -1.25588 0
M  V30 25415 N 2406.16 6.72643 -1.65901 0
M  V30 25416 N 2407.96 5.49656 -1.17623 0
M  V30 25417 H 2400.11 1.62204 -1.37126 0
M  V30 25418 H 2402.37 0.76275 -0.562953 0
M  V30 25419 H 2402.08 3.14071 -1.5828 0
M  V30 25420 H 2401.95 3.77167 0.0497379 0
M  V30 25421 H 2404.34 2.90322 0.528858 0
M  V30 25422 H 2404.42 2.29458 -1.1306 0
M  V30 25423 H 2404.06 4.67049 -1.99568 0
M  V30 25424 H 2403.99 5.25658 -0.31479 0
M  V30 25425 H 2406.48 3.72654 -0.627469 0
M  V30 25426 H 2406.8 7.49192 -1.89556 0
M  V30 25427 H 2405.14 6.73939 -1.69799 0
M  V30 25428 H 2408.33 4.60129 -0.860196 0
M  V30 25429 H 2408.51 6.31838 -1.43823 0
M  V30 25430 N 2401.91 0.133594 1.57033 0
M  V30 25431 C 2403.33 -0.222916 1.58036 0
M  V30 25432 C 2403.53 -1.65658 1.14716 0
M  V30 25433 O 2402.58 -2.38074 0.84126 0
M  V30 25434 C 2403.9 0.0236644 3.00691 0
M  V30 25435 C 2405.45 -0.0410961 3.12973 0
M  V30 25436 C 2405.92 0.177979 4.57654 0
M  V30 25437 N 2407.41 0.124446 4.63033 0
M  V30 25438 C 2408.15 0.268653 5.7277 0
M  V30 25439 N 2407.64 0.469842 6.91205 0
M  V30 25440 N 2409.44 0.207199 5.61718 0
M  V30 25441 H 2401.59 1.06985 1.83489 0
M  V30 25442 H 2403.85 0.42245 0.848669 0
M  V30 25443 H 2403.56 1.01536 3.36724 0
M  V30 25444 H 2403.43 -0.701743 3.70615 0
M  V30 25445 H 2405.82 -1.02333 2.76789 0
M  V30 25446 H 2405.9 0.716426 2.45563 0
M  V30 25447 H 2405.54 1.15725 4.9454 0
M  V30 25448 H 2405.47 -0.599705 5.23174 0
M  V30 25449 H 2407.96 -0.0269446 3.7789 0
M  V30 25450 H 2408.28 0.570347 7.70692 0
M  V30 25451 H 2406.62 0.505997 6.93156 0
M  V30 25452 H 2409.81 0.0508808 4.68072 0
M  V30 25453 H 2409.98 0.323023 6.47194 0
M  V30 25454 N 2403.39 -1.56975 -0.140195 0
M  V30 25455 C 2404.64 -1.84877 -0.848052 0
M  V30 25456 C 2404.99 -0.718513 -1.7848 0
M  V30 25457 O 2404.28 0.28306 -1.89498 0
M  V30 25458 C 2404.48 -3.16835 -1.6538 0
M  V30 25459 C 2404.31 -4.42589 -0.796572 0
M  V30 25460 C 2403.08 -5.03206 -0.45956 0
M  V30 25461 C 2405.28 -5.14151 -0.1238 0
M  V30 25462 N 2403.26 -6.12526 0.410553 0
M  V30 25463 C 2404.63 -6.1703 0.606172 0
M  V30 25464 C 2406.68 -4.9788 -0.0451779 0
M  V30 25465 C 2405.39 -7.05398 1.40735 0
M  V30 25466 C 2407.41 -5.86717 0.742761 0
M  V30 25467 C 2406.77 -6.89082 1.46099 0
M  V30 25468 H 2402.87 -0.727061 -0.287934 0
M  V30 25469 H 2405.46 -1.94372 -0.113006 0
M  V30 25470 H 2403.63 -3.08475 -2.36004 0
M  V30 25471 H 2405.36 -3.32619 -2.30535 0
M  V30 25472 H 2402.12 -4.66847 -0.796924 0
M  V30 25473 H 2402.54 -6.71808 0.836834 0
M  V30 25474 H 2407.18 -4.18718 -0.58611 0
M  V30 25475 H 2404.9 -7.83982 1.95952 0
M  V30 25476 H 2408.49 -5.76195 0.805675 0
M  V30 25477 H 2407.37 -7.56635 2.0609 0
M  V30 25478 N 2404.87 0.409753 -1.5218 0
M  V30 25479 C 2406.11 1.16594 -1.67885 0
M  V30 25480 C 2406.47 1.87791 -0.399828 0
M  V30 25481 O 2407.67 2.6529 -0.432967 0
M  V30 25482 C 2405.94 2.13443 -2.86665 0
M  V30 25483 S 2407.5 2.97177 -3.22849 0
M  V30 25484 H 2404.32 0.394992 -0.591187 0
M  V30 25485 H 2406.92 0.45334 -1.90171 0
M  V30 25486 H 2405.63 1.59824 -3.78001 0
M  V30 25487 H 2405.16 2.89243 -2.6665 0
M  V30 25488 H 2407.17 4.15385 -2.71422 0
M  V30 25489 N 2406.35 1.42792 0.666944 0
M  V30 25490 C 2407.59 1.4368 1.42696 0
M  V30 25491 C 2407.92 0.0560766 1.94419 0
M  V30 25492 O 2407.18 -0.936801 1.71821 0
M  V30 25493 C 2407.48 2.41474 2.63486 0
M  V30 25494 C 2407.14 3.87674 2.3026 0
M  V30 25495 C 2405.8 4.27495 2.2091 0
M  V30 25496 C 2408.16 4.79862 2.03426 0
M  V30 25497 C 2405.48 5.57475 1.82863 0
M  V30 25498 C 2407.84 6.10191 1.66881 0
M  V30 25499 C 2406.5 6.49004 1.56047 0
M  V30 25500 H 2405.77 0.525764 0.522162 0
M  V30 25501 H 2408.42 1.75784 0.759754 0
M  V30 25502 H 2406.72 2.02726 3.35275 0
M  V30 25503 H 2408.42 2.39422 3.2168 0
M  V30 25504 H 2405.01 3.5615 2.38442 0
M  V30 25505 H 2409.19 4.49878 2.09578 0
M  V30 25506 H 2404.45 5.86399 1.7305 0
M  V30 25507 H 2408.62 6.81106 1.45145 0
M  V30 25508 H 2406.25 7.49629 1.26335 0
M  V30 25509 N 2407.82 -0.904008 1.29095 0
M  V30 25510 C 2409.1 -1.63409 1.07503 0
M  V30 25511 C 2409.48 -2.07609 -0.38231 0
M  V30 25512 O 2408.83 -1.82854 -1.37028 0
M  V30 25513 C 2409.04 -2.81818 2.05863 0
M  V30 25514 C 2410.39 -3.52607 2.36545 0
M  V30 25515 O 2411.41 -2.91981 2.04024 0
M  V30 25516 O 2410.27 -4.61892 2.92093 0
M  V30 25517 H 2407.36 -0.71732 0.41156 0
M  V30 25518 H 2409.91 -0.952455 1.40451 0
M  V30 25519 H 2408.68 -2.46322 3.04041 0
M  V30 25520 H 2408.31 -3.5769 1.73619 0
M  V30 25521 N 2409.3 -1.11501 -1.11379 0
M  V30 25522 C 2410.55 -0.862556 -1.82769 0
M  V30 25523 C 2410.87 0.613501 -1.85098 0
M  V30 25524 O 2410.14 1.44568 -1.32201 0
M  V30 25525 H 2408.72 -0.316112 -0.676817 0
M  V30 25526 H 2411.38 -1.40753 -1.34813 0
M  V30 25527 H 2410.48 -1.23532 -2.86612 0
M  V30 25528 N 2410.78 1.28995 -0.905426 0
M  V30 25529 C 2412.01 1.99459 -0.549881 0
M  V30 25530 C 2412.42 1.67726 0.866804 0
M  V30 25531 O 2411.78 0.925432 1.57296 0
M  V30 25532 C 2411.83 3.53856 -0.739449 0
M  V30 25533 O 2411.55 3.84468 -2.10038 0
M  V30 25534 C 2413.05 4.41584 -0.389619 0
M  V30 25535 H 2410.27 0.637147 -0.21044 0
M  V30 25536 H 2412.82 1.64394 -1.21635 0
M  V30 25537 H 2410.97 3.87214 -0.120091 0
M  V30 25538 H 2411.39 4.79128 -2.13393 0
M  V30 25539 H 2412.86 5.49017 -0.573068 0
M  V30 25540 H 2413.34 4.34003 0.67368 0
M  V30 25541 H 2413.94 4.13709 -0.986162 0
M  V30 25542 N 2412.26 0.668514 1.42719 0
M  V30 25543 C 2413.68 0.337478 1.55991 0
M  V30 25544 C 2413.88 -1.15753 1.64935 0
M  V30 25545 O 2412.93 -1.9428 1.61281 0
M  V30 25546 C 2414.24 1.06227 2.81312 0
M  V30 25547 C 2415.79 1.04399 2.95076 0
M  V30 25548 C 2416.27 1.74999 4.23249 0
M  V30 25549 N 2417.76 1.71836 4.30147 0
M  V30 25550 C 2418.49 2.23324 5.28123 0
M  V30 25551 N 2417.99 2.83167 6.32288 0
M  V30 25552 N 2419.78 2.13735 5.19878 0
M  V30 25553 H 2411.93 1.63848 1.35157 0
M  V30 25554 H 2414.2 0.689923 0.650162 0
M  V30 25555 H 2413.9 2.11739 2.80819 0
M  V30 25556 H 2413.78 0.623505 3.72011 0
M  V30 25557 H 2416.16 -0.00277253 2.951 0
M  V30 25558 H 2416.24 1.52159 2.05624 0
M  V30 25559 H 2415.89 2.7964 4.23986 0
M  V30 25560 H 2415.82 1.24694 5.11624 0
M  V30 25561 H 2418.31 1.28182 3.55497 0
M  V30 25562 H 2418.62 3.20092 7.03393 0
M  V30 25563 H 2416.97 2.87234 6.32868 0
M  V30 25564 H 2420.16 1.66677 4.3742 0
M  V30 25565 H 2420.33 2.54169 5.96072 0
M  V30 25566 N 2413.74 -1.52135 0.411426 0
M  V30 25567 C 2414.69 -2.28636 -0.427593 0
M  V30 25568 C 2415.68 -1.3342 -1.04381 0
M  V30 25569 O 2416.89 -1.5087 -0.981746 0
M  V30 25570 H 2413.26 -0.735498 -0.156676 0
M  V30 25571 H 2415.23 -2.97443 0.238813 0
M  V30 25572 C 2413.98 -3.1219 -1.53077 0
M  V30 25573 H 2413.3 -3.85328 -1.06594 0
M  V30 25574 H 2414.74 -3.6882 -2.09161 0
M  V30 25575 C 2413.2 -2.25899 -2.49942 0
M  V30 25576 O 2413.73 -1.90082 -3.53881 0
M  V30 25577 N 2411.94 -1.89624 -2.20207 0
M  V30 25578 H 2411.49 -2.1895 -1.35715 0
M  V30 25579 H 2411.44 -1.32181 -2.85264 0
M  V30 25580 N 2415.22 -0.14192 -1.5696 0
M  V30 25581 C 2416.16 0.816836 -2.17786 0
M  V30 25582 C 2417.16 1.25897 -1.13342 0
M  V30 25583 O 2418.36 1.22804 -1.31602 0
M  V30 25584 H 2414.74 0.281603 -0.697283 0
M  V30 25585 H 2416.71 0.279569 -2.97087 0
M  V30 25586 C 2415.46 2.04797 -2.80987 0
M  V30 25587 H 2414.78 1.71674 -3.61065 0
M  V30 25588 H 2416.22 2.69835 -3.27055 0
M  V30 25589 C 2414.68 2.85267 -1.79233 0
M  V30 25590 O 2415.21 3.81438 -1.25968 0
M  V30 25591 N 2413.42 2.49702 -1.48652 0
M  V30 25592 H 2412.96 1.7156 -1.92158 0
M  V30 25593 H 2412.92 3.03835 -0.808168 0
M  V30 25594 N 2416.69 1.57047 0.131868 0
M  V30 25595 C 2417.63 1.96022 1.18776 0
M  V30 25596 C 2418.64 0.857899 1.38362 0
M  V30 25597 O 2419.83 1.13625 1.37664 0
M  V30 25598 C 2416.93 2.23217 2.55005 0
M  V30 25599 C 2416.1 3.54518 2.56195 0
M  V30 25600 C 2415.16 3.70075 3.74073 0
M  V30 25601 O 2414.19 4.42318 3.5825 0
M  V30 25602 N 2415.39 3.07874 4.92132 0
M  V30 25603 H 2418.15 2.87205 0.85634 0
M  V30 25604 H 2415.71 1.5868 0.321282 0
M  V30 25605 H 2417.71 2.30852 3.324 0
M  V30 25606 H 2416.28 1.38225 2.80379 0
M  V30 25607 H 2415.5 3.58188 1.64607 0
M  V30 25608 H 2416.78 4.40844 2.54035 0
M  V30 25609 H 2416.18 2.49125 5.07891 0
M  V30 25610 H 2414.74 3.21049 5.67249 0
M  V30 25611 N 2418.17 -0.401677 1.52395 0
M  V30 25612 C 2419.42 -1.14506 1.66046 0
M  V30 25613 C 2419.73 -1.91461 0.400249 0
M  V30 25614 O 2420.94 -2.68283 0.41668 0
M  V30 25615 C 2419.4 -2.08444 2.93392 0
M  V30 25616 C 2419 -1.36971 4.26548 0
M  V30 25617 C 2420.75 -2.82996 3.16407 0
M  V30 25618 C 2418.65 -2.29601 5.45011 0
M  V30 25619 H 2417.58 -0.431147 0.618569 0
M  V30 25620 H 2420.24 -0.408889 1.78886 0
M  V30 25621 H 2418.62 -2.85645 2.74268 0
M  V30 25622 H 2419.79 -0.650836 4.56181 0
M  V30 25623 H 2418.11 -0.744308 4.09694 0
M  V30 25624 H 2420.7 -3.52458 4.02091 0
M  V30 25625 H 2421.05 -3.46364 2.30949 0
M  V30 25626 H 2421.58 -2.12892 3.36038 0
M  V30 25627 H 2418.32 -1.70868 6.32838 0
M  V30 25628 H 2417.84 -2.9944 5.19707 0
M  V30 25629 H 2419.52 -2.89964 5.78385 0
M  V30 25630 N 2419.65 -1.43144 -0.659362 0
M  V30 25631 C 2420.58 -1.50628 -1.78419 0
M  V30 25632 C 2421.56 -0.361472 -1.66215 0
M  V30 25633 O 2422.75 -0.577866 -1.85403 0
M  V30 25634 C 2419.88 -1.42293 -3.16812 0
M  V30 25635 C 2418.83 -2.5496 -3.43772 0
M  V30 25636 C 2418.16 -2.31679 -4.81901 0
M  V30 25637 C 2419.46 -3.97228 -3.39127 0
M  V30 25638 H 2421.15 -2.44774 -1.72413 0
M  V30 25639 H 2418.7 -1.1781 -0.828063 0
M  V30 25640 H 2420.65 -1.46134 -3.9525 0
M  V30 25641 H 2419.37 -0.446492 -3.23534 0
M  V30 25642 H 2418.03 -2.50462 -2.67702 0
M  V30 25643 H 2417.68 -1.32293 -4.85291 0
M  V30 25644 H 2417.38 -3.072 -5.00901 0
M  V30 25645 H 2418.9 -2.37294 -5.62604 0
M  V30 25646 H 2420.32 -4.03247 -4.07511 0
M  V30 25647 H 2418.71 -4.72725 -3.69663 0
M  V30 25648 H 2419.78 -4.22801 -2.37418 0
M  V30 25649 N 2421.13 0.897149 -1.29572 0
M  V30 25650 C 2422.04 2.03451 -1.16811 0
M  V30 25651 C 2423.05 1.73763 -0.0907777 0
M  V30 25652 O 2424.23 1.99102 -0.303347 0
M  V30 25653 C 2421.29 3.36161 -0.848323 0
M  V30 25654 C 2420.36 3.79351 -2.00976 0
M  V30 25655 C 2419.59 5.05728 -1.70514 0
M  V30 25656 O 2419.81 5.6694 -0.62728 0
M  V30 25657 O 2418.75 5.45032 -2.55389 0
M  V30 25658 H 2422.57 2.17141 -2.12329 0
M  V30 25659 H 2420.16 1.02121 -1.09049 0
M  V30 25660 H 2422.04 4.15801 -0.684654 0
M  V30 25661 H 2420.71 3.23608 0.0770503 0
M  V30 25662 H 2419.62 3.00467 -2.22869 0
M  V30 25663 H 2420.95 3.96491 -2.91643 0
M  V30 25664 N 2422.61 1.1209 1.10786 0
M  V30 25665 C 2423.52 0.798377 2.20597 0
M  V30 25666 C 2424.53 -0.21132 1.72712 0
M  V30 25667 O 2425.71 -0.0458123 2.01348 0
M  V30 25668 C 2422.77 0.253734 3.4577 0
M  V30 25669 C 2421.83 1.3229 4.08409 0
M  V30 25670 C 2421.07 0.804153 5.27607 0
M  V30 25671 O 2421.29 -0.363378 5.69241 0
M  V30 25672 O 2420.22 1.57208 5.81007 0
M  V30 25673 H 2424.05 1.71545 2.50611 0
M  V30 25674 H 2421.63 0.897296 1.19453 0
M  V30 25675 H 2423.52 -0.045295 4.21376 0
M  V30 25676 H 2422.19 -0.635949 3.17392 0
M  V30 25677 H 2421.1 1.67505 3.34504 0
M  V30 25678 H 2422.43 2.18622 4.40982 0
M  V30 25679 N 2424.08 -1.28513 0.912254 0
M  V30 25680 C 2425.03 -2.29313 0.389637 0
M  V30 25681 C 2426.03 -1.61289 -0.517887 0
M  V30 25682 O 2427.23 -1.75515 -0.399297 0
M  V30 25683 H 2423.61 -0.744291 0.107399 0
M  V30 25684 H 2425.58 -2.70822 1.25291 0
M  V30 25685 C 2424.33 -3.45868 -0.356435 0
M  V30 25686 H 2423.65 -3.98413 0.332678 0
M  V30 25687 H 2425.09 -4.18401 -0.686777 0
M  V30 25688 C 2423.55 -2.98409 -1.56377 0
M  V30 25689 O 2424.08 -3.00754 -2.66289 0
M  V30 25690 N 2422.28 -2.54087 -1.41025 0
M  V30 25691 H 2421.83 -2.52378 -0.516045 0
M  V30 25692 H 2421.79 -2.22693 -2.21935 0
M  V30 25693 N 2425.56 -0.676073 -1.42362 0
M  V30 25694 C 2426.81 -0.19916 -2.0182 0
M  V30 25695 C 2427.14 1.19165 -1.53341 0
M  V30 25696 O 2426.42 1.80031 -0.736155 0
M  V30 25697 C 2426.7 -0.235207 -3.59331 0
M  V30 25698 C 2426.55 -1.66156 -4.17986 0
M  V30 25699 C 2427.87 0.415873 -4.38131 0
M  V30 25700 H 2424.99 -0.073844 -0.733291 0
M  V30 25701 H 2427.63 -0.8611 -1.69367 0
M  V30 25702 H 2425.78 0.328419 -3.87109 0
M  V30 25703 H 2427.45 -2.27754 -4.01156 0
M  V30 25704 H 2425.7 -2.20184 -3.73766 0
M  V30 25705 H 2426.37 -1.63846 -5.27123 0
M  V30 25706 H 2428.84 -0.063926 -4.16051 0
M  V30 25707 H 2427.72 0.360019 -5.47718 0
M  V30 25708 H 2427.98 1.49365 -4.16104 0
M  V30 25709 N 2427.04 1.51915 -0.419488 0
M  V30 25710 C 2427.95 2.31034 0.407487 0
M  V30 25711 C 2428.97 1.39192 1.04411 0
M  V30 25712 O 2430.14 1.72266 1.04337 0
M  V30 25713 C 2427.21 3.12399 1.50359 0
M  V30 25714 C 2426.27 4.19995 0.888955 0
M  V30 25715 C 2425.5 4.97471 1.93283 0
M  V30 25716 O 2425.72 4.75367 3.1525 0
M  V30 25717 O 2424.66 5.82043 1.53329 0
M  V30 25718 H 2428.48 3.02767 -0.237918 0
M  V30 25719 H 2426.07 1.48282 -0.182439 0
M  V30 25720 H 2427.95 3.63036 2.13969 0
M  V30 25721 H 2426.63 2.43449 2.13341 0
M  V30 25722 H 2425.53 3.7348 0.215287 0
M  V30 25723 H 2426.87 4.91267 0.302905 0
M  V30 25724 N 2428.52 0.150242 1.56882 0
M  V30 25725 C 2429.76 -0.500799 1.96519 0
M  V30 25726 C 2430.1 -1.64302 1.0353 0
M  V30 25727 O 2429.37 -1.94342 0.0783093 0
M  V30 25728 C 2429.66 -1.00389 3.45824 0
M  V30 25729 C 2429.51 0.137062 4.49591 0
M  V30 25730 C 2430.83 -1.8846 3.97707 0
M  V30 25731 H 2427.95 -0.180568 0.714538 0
M  V30 25732 H 2430.59 0.232124 1.88577 0
M  V30 25733 H 2428.74 -1.62845 3.52723 0
M  V30 25734 H 2430.41 0.77351 4.54769 0
M  V30 25735 H 2428.65 0.795727 4.26439 0
M  V30 25736 H 2429.32 -0.256718 5.51403 0
M  V30 25737 H 2431.8 -1.35827 3.93307 0
M  V30 25738 H 2430.68 -2.20569 5.02634 0
M  V30 25739 H 2430.94 -2.82273 3.40257 0
M  V30 25740 N 2430 -1.57115 -0.123538 0
M  V30 25741 C 2430.91 -2.03302 -1.1707 0
M  V30 25742 C 2431.92 -0.952585 -1.45608 0
M  V30 25743 O 2433.1 -1.26377 -1.56815 0
M  V30 25744 C 2430.16 -2.42425 -2.47852 0
M  V30 25745 C 2429.22 -3.6453 -2.26752 0
M  V30 25746 C 2428.46 -4.01778 -3.51298 0
M  V30 25747 O 2428.68 -3.39417 -4.58424 0
M  V30 25748 O 2427.61 -4.94904 -3.42569 0
M  V30 25749 H 2431.44 -2.9274 -0.808504 0
M  V30 25750 H 2429.03 -1.45619 -0.334001 0
M  V30 25751 H 2430.91 -2.68344 -3.24915 0
M  V30 25752 H 2429.58 -1.56135 -2.83555 0
M  V30 25753 H 2428.49 -3.43767 -1.47563 0
M  V30 25754 H 2429.82 -4.51511 -1.95955 0
M  V30 25755 N 2431.47 0.393589 -1.52606 0
M  V30 25756 C 2432.72 1.13624 -1.66651 0
M  V30 25757 C 2433.04 1.91246 -0.410397 0
M  V30 25758 O 2434.24 2.68059 -0.430901 0
M  V30 25759 C 2432.7 2.06886 -2.94493 0
M  V30 25760 C 2432.31 1.34707 -4.27268 0
M  V30 25761 C 2434.05 2.81314 -3.17904 0
M  V30 25762 C 2431.96 2.26708 -5.46221 0
M  V30 25763 H 2430.89 0.427861 -0.620847 0
M  V30 25764 H 2433.54 0.399396 -1.79101 0
M  V30 25765 H 2431.92 2.84186 -2.75779 0
M  V30 25766 H 2433.09 0.626634 -4.56519 0
M  V30 25767 H 2431.41 0.722571 -4.10083 0
M  V30 25768 H 2434.01 3.50321 -4.03955 0
M  V30 25769 H 2434.35 3.45135 -2.32783 0
M  V30 25770 H 2434.88 2.11107 -3.37162 0
M  V30 25771 H 2431.62 1.67509 -6.33736 0
M  V30 25772 H 2431.14 2.9668 -5.21288 0
M  V30 25773 H 2432.82 2.86893 -5.79915 0
M  V30 25774 N 2432.95 1.43492 0.651762 0
M  V30 25775 C 2434.2 1.46397 1.41207 0
M  V30 25776 C 2434.55 0.0873998 1.92201 0
M  V30 25777 O 2433.85 -0.894201 1.69454 0
M  V30 25778 C 2434.04 2.44255 2.6091 0
M  V30 25779 C 2433.87 3.91292 2.21632 0
M  V30 25780 C 2432.64 4.59646 2.09889 0
M  V30 25781 C 2434.84 4.81086 1.81826 0
M  V30 25782 N 2432.82 5.91601 1.63956 0
M  V30 25783 C 2434.19 6.02325 1.46987 0
M  V30 25784 C 2436.25 4.68333 1.69023 0
M  V30 25785 C 2434.95 7.12227 1.00626 0
M  V30 25786 C 2436.97 5.7824 1.24067 0
M  V30 25787 C 2436.34 6.98605 0.901649 0
M  V30 25788 H 2432.44 0.590814 0.512312 0
M  V30 25789 H 2435.02 1.79681 0.749859 0
M  V30 25790 H 2433.19 2.12996 3.24788 0
M  V30 25791 H 2434.92 2.3759 3.27618 0
M  V30 25792 H 2431.68 4.14172 2.29692 0
M  V30 25793 H 2432.1 6.6165 1.43348 0
M  V30 25794 H 2436.74 3.75731 1.93872 0
M  V30 25795 H 2434.46 8.04656 0.745257 0
M  V30 25796 H 2438.05 5.70392 1.14647 0
M  V30 25797 H 2436.93 7.82204 0.559088 0
M  V30 25798 N 2434.43 -0.890264 1.30046 0
M  V30 25799 C 2435.66 -1.67485 1.21475 0
M  V30 25800 C 2436.07 -1.87476 -0.223208 0
M  V30 25801 O 2435.43 -1.41849 -1.14826 0
M  V30 25802 C 2435.48 -3.05416 1.934 0
M  V30 25803 O 2435.2 -2.86331 3.31581 0
M  V30 25804 C 2436.7 -3.99841 1.91421 0
M  V30 25805 H 2433.92 -0.522805 0.420613 0
M  V30 25806 H 2436.47 -1.11265 1.71582 0
M  V30 25807 H 2434.62 -3.58384 1.47105 0
M  V30 25808 H 2435.04 -3.73796 3.67936 0
M  V30 25809 H 2436.51 -4.94007 2.46294 0
M  V30 25810 H 2436.99 -4.30048 0.891908 0
M  V30 25811 H 2437.59 -3.52807 2.37502 0
M  V30 25812 N 2435.91 -1.12676 -1.1019 0
M  V30 25813 C 2436.86 -0.796944 -2.16604 0
M  V30 25814 C 2437.83 0.237447 -1.64394 0
M  V30 25815 O 2439.01 0.111451 -1.90474 0
M  V30 25816 C 2436.15 -0.26049 -3.44115 0
M  V30 25817 C 2435.26 -1.353 -4.10266 0
M  V30 25818 C 2434.4 -0.775713 -5.25506 0
M  V30 25819 C 2433.44 -1.84717 -5.83563 0
M  V30 25820 N 2432.57 -1.28841 -6.90177 0
M  V30 25821 H 2437.41 -1.7085 -2.4416 0
M  V30 25822 H 2434.95 -0.852971 -1.19845 0
M  V30 25823 H 2436.91 0.0686081 -4.17144 0
M  V30 25824 H 2435.54 0.614218 -3.16903 0
M  V30 25825 H 2434.59 -1.79883 -3.35181 0
M  V30 25826 H 2435.9 -2.16311 -4.49456 0
M  V30 25827 H 2435.06 -0.397434 -6.05397 0
M  V30 25828 H 2433.8 0.0655724 -4.87656 0
M  V30 25829 H 2432.8 -2.23461 -5.0234 0
M  V30 25830 H 2434.03 -2.69172 -6.23477 0
M  V30 25831 H 2431.97 -0.468996 -6.54321 0
M  V30 25832 H 2431.89 -2.03509 -7.28093 0
M  V30 25833 H 2433.16 -0.937447 -7.73842 0
M  V30 25834 N 2437.39 1.28028 -0.919057 0
M  V30 25835 C 2438.3 2.30868 -0.416796 0
M  V30 25836 C 2439.31 1.66715 0.498206 0
M  V30 25837 O 2440.49 1.97723 0.383109 0
M  V30 25838 C 2437.55 3.45124 0.330213 0
M  V30 25839 C 2436.61 4.24819 -0.618652 0
M  V30 25840 C 2435.85 5.33619 0.0928021 0
M  V30 25841 O 2436.07 5.55067 1.31365 0
M  V30 25842 O 2435 5.99151 -0.574604 0
M  V30 25843 H 2438.83 2.75849 -1.27048 0
M  V30 25844 H 2436.42 1.32819 -0.684075 0
M  V30 25845 H 2438.3 4.14638 0.751899 0
M  V30 25846 H 2436.97 3.02215 1.15964 0
M  V30 25847 H 2435.88 3.57873 -1.08984 0
M  V30 25848 H 2437.21 4.7142 -1.41505 0
M  V30 25849 N 2438.86 0.683613 1.42002 0
M  V30 25850 C 2440.11 0.209136 2.01015 0
M  V30 25851 C 2440.43 -1.19147 1.54367 0
M  V30 25852 O 2439.7 -1.80171 0.769115 0
M  V30 25853 H 2438.28 0.0743281 0.743293 0
M  V30 25854 H 2440.95 0.882097 1.73796 0
M  V30 25855 H 2440.04 0.217255 3.11343 0
M  V30 25856 N 2440.34 -1.5169 0.427538 0
M  V30 25857 C 2441.25 -2.31247 -0.395229 0
M  V30 25858 C 2442.27 -1.39744 -1.03671 0
M  V30 25859 O 2443.45 -1.72817 -1.03422 0
M  V30 25860 C 2440.51 -3.13192 -1.487 0
M  V30 25861 C 2439.57 -4.20461 -0.866669 0
M  V30 25862 C 2438.8 -4.98489 -1.90642 0
M  V30 25863 O 2439.03 -4.77032 -3.12725 0
M  V30 25864 O 2437.96 -5.82848 -1.5024 0
M  V30 25865 H 2441.79 -3.02636 0.253971 0
M  V30 25866 H 2439.37 -1.48183 0.1903 0
M  V30 25867 H 2441.25 -3.64166 -2.12041 0
M  V30 25868 H 2439.93 -2.44577 -2.12047 0
M  V30 25869 H 2438.84 -3.73589 -0.195478 0
M  V30 25870 H 2440.17 -4.91421 -0.276848 0
M  V30 25871 N 2441.82 -0.15856 -1.568 0
M  V30 25872 C 2443.24 0.197746 -1.5837 0
M  V30 25873 C 2443.44 1.63812 -1.17337 0
M  V30 25874 O 2442.49 2.36705 -0.879029 0
M  V30 25875 C 2443.81 -0.0714987 -3.00615 0
M  V30 25876 C 2445.35 -0.00870035 -3.12999 0
M  V30 25877 C 2445.83 -0.250765 -4.57313 0
M  V30 25878 N 2447.32 -0.198095 -4.62776 0
M  V30 25879 C 2448.06 -0.359742 -5.7227 0
M  V30 25880 N 2447.55 -0.579747 -6.9037 0
M  V30 25881 N 2449.34 -0.296537 -5.61317 0
M  V30 25882 H 2441.5 -1.0989 -1.81763 0
M  V30 25883 H 2443.76 -0.435899 -0.841841 0
M  V30 25884 H 2443.46 -1.0688 -3.35066 0
M  V30 25885 H 2443.34 0.642692 -3.71684 0
M  V30 25886 H 2445.73 0.979168 -2.78382 0
M  V30 25887 H 2445.81 -0.755402 -2.44392 0
M  V30 25888 H 2445.45 -1.23578 -4.92637 0
M  V30 25889 H 2445.38 0.516397 -5.24062 0
M  V30 25890 H 2447.87 -0.0331779 -3.77885 0
M  V30 25891 H 2448.18 -0.692886 -7.69688 0
M  V30 25892 H 2446.53 -0.616208 -6.92263 0
M  V30 25893 H 2449.72 -0.125341 -4.67932 0
M  V30 25894 H 2449.89 -0.425945 -6.46599 0
M  V30 25895 N 2443.3 1.57178 0.115204 0
M  V30 25896 C 2444.25 2.00617 1.14111 0
M  V30 25897 C 2445.22 0.878966 1.40938 0
M  V30 25898 O 2446.4 1.14347 1.52739 0
M  V30 25899 C 2443.54 2.41874 2.46152 0
M  V30 25900 C 2442.65 3.68028 2.26229 0
M  V30 25901 C 2441.79 3.98249 3.51527 0
M  V30 25902 C 2440.83 5.17574 3.26778 0
M  V30 25903 N 2439.97 5.43647 4.44289 0
M  V30 25904 H 2444.81 2.88048 0.763692 0
M  V30 25905 H 2442.34 1.42485 0.36559 0
M  V30 25906 H 2444.3 2.63832 3.23185 0
M  V30 25907 H 2442.93 1.5748 2.8178 0
M  V30 25908 H 2441.98 3.53663 1.40096 0
M  V30 25909 H 2443.29 4.55212 2.03921 0
M  V30 25910 H 2442.45 4.20876 4.36976 0
M  V30 25911 H 2441.19 3.09548 3.76871 0
M  V30 25912 H 2440.19 4.94787 2.3972 0
M  V30 25913 H 2441.42 6.07855 3.02801 0
M  V30 25914 H 2439.36 4.57903 4.69746 0
M  V30 25915 H 2439.28 6.25162 4.25098 0
M  V30 25916 H 2440.55 5.70795 5.3086 0
M  V30 25917 N 2444.78 -0.38549 1.52813 0
M  V30 25918 C 2445.72 -1.4711 1.77841 0
M  V30 25919 C 2446.69 -1.54023 0.621784 0
M  V30 25920 O 2447.88 -1.70224 0.861876 0
M  V30 25921 C 2445.02 -2.84298 1.95623 0
M  V30 25922 C 2444.13 -2.86509 3.23321 0
M  V30 25923 C 2443.27 -4.15146 3.31401 0
M  V30 25924 C 2442.31 -4.11423 4.53208 0
M  V30 25925 N 2441.44 -5.31672 4.58551 0
M  V30 25926 H 2446.28 -1.25069 2.70484 0
M  V30 25927 H 2443.82 -0.606668 1.34007 0
M  V30 25928 H 2445.78 -3.63969 2.03918 0
M  V30 25929 H 2444.41 -3.04782 1.06337 0
M  V30 25930 H 2443.46 -1.99189 3.2408 0
M  V30 25931 H 2444.77 -2.79626 4.1305 0
M  V30 25932 H 2443.93 -5.03222 3.38898 0
M  V30 25933 H 2442.67 -4.24756 2.39652 0
M  V30 25934 H 2441.67 -3.21734 4.45833 0
M  V30 25935 H 2442.9 -4.03432 5.46278 0
M  V30 25936 H 2440.84 -5.41905 3.69695 0
M  V30 25937 H 2440.76 -5.26879 5.42157 0
M  V30 25938 H 2442.03 -6.21636 4.70307 0
M  V30 25939 N 2446.26 -1.43835 -0.644143 0
M  V30 25940 C 2447.19 -1.52512 -1.76812 0
M  V30 25941 C 2448.17 -0.379081 -1.65822 0
M  V30 25942 O 2449.35 -0.597498 -1.8478 0
M  V30 25943 C 2446.48 -1.45645 -3.15285 0
M  V30 25944 C 2445.44 -2.58592 -3.41049 0
M  V30 25945 C 2444.76 -2.36778 -4.79417 0
M  V30 25946 C 2446.06 -4.00803 -3.34895 0
M  V30 25947 H 2447.76 -2.46588 -1.69807 0
M  V30 25948 H 2445.3 -1.18681 -0.815521 0
M  V30 25949 H 2447.25 -1.50318 -3.93678 0
M  V30 25950 H 2445.98 -0.480781 -3.23042 0
M  V30 25951 H 2444.64 -2.53287 -2.65031 0
M  V30 25952 H 2444.29 -1.37433 -4.83861 0
M  V30 25953 H 2443.99 -3.12496 -4.97614 0
M  V30 25954 H 2445.51 -2.43248 -5.60056 0
M  V30 25955 H 2446.92 -4.07546 -4.03211 0
M  V30 25956 H 2445.32 -4.76619 -3.64628 0
M  V30 25957 H 2446.39 -4.25295 -2.32921 0
M  V30 25958 N 2447.73 0.883355 -1.30517 0
M  V30 25959 C 2448.68 1.98925 -1.17036 0
M  V30 25960 C 2449.65 1.65994 -0.0594533 0
M  V30 25961 O 2450.84 1.8941 -0.229929 0
M  V30 25962 C 2447.98 3.33958 -0.869835 0
M  V30 25963 C 2447.09 3.7957 -2.06278 0
M  V30 25964 C 2446.22 5.03256 -1.7002 0
M  V30 25965 C 2445.26 5.41281 -2.858 0
M  V30 25966 N 2444.4 6.56148 -2.49828 0
M  V30 25967 H 2449.24 2.09788 -2.11644 0
M  V30 25968 H 2446.78 1.02717 -1.05297 0
M  V30 25969 H 2448.73 4.11683 -0.676211 0
M  V30 25970 H 2447.36 3.22776 0.0393764 0
M  V30 25971 H 2446.42 2.9774 -2.3676 0
M  V30 25972 H 2447.73 4.03689 -2.92979 0
M  V30 25973 H 2446.88 5.88612 -1.47042 0
M  V30 25974 H 2445.62 4.81012 -0.804913 0
M  V30 25975 H 2444.63 4.54451 -3.09442 0
M  V30 25976 H 2445.85 5.65497 -3.76018 0
M  V30 25977 H 2443.8 6.35476 -1.62806 0
M  V30 25978 H 2443.71 6.80145 -3.3006 0
M  V30 25979 H 2444.98 7.44731 -2.3021 0
M  V30 25980 N 2449.21 1.13259 1.09591 0
M  V30 25981 C 2450.62 0.906302 1.63227 0
M  V30 25982 C 2450.97 -0.557545 1.88111 0
M  V30 25983 O 2450.1 -1.42388 1.62956 0
M  V30 25984 C 2450.69 1.63872 2.96532 0
M  V30 25985 C 2449.25 1.45834 3.47001 0
M  V30 25986 C 2448.4 1.66902 2.21447 0
M  V30 25987 H 2451.35 1.28613 0.929757 0
M  V30 25988 H 2451.37 1.09482 3.64409 0
M  V30 25989 H 2450.88 2.70409 2.78389 0
M  V30 25990 H 2448.98 0.415913 3.70271 0
M  V30 25991 H 2449.1 2.22027 4.24548 0
M  V30 25992 H 2447.46 1.09375 2.3002 0
M  V30 25993 H 2448.24 2.74756 2.05826 0
M  V30 25994 N 2450.69 -1.27539 0.925834 0
M  V30 25995 C 2452.11 -1.4682 0.625793 0
M  V30 25996 C 2452.31 -1.83816 -0.825474 0
M  V30 25997 O 2451.36 -1.95047 -1.60353 0
M  V30 25998 C 2452.67 -2.5621 1.57406 0
M  V30 25999 C 2454.22 -2.70072 1.58209 0
M  V30 26000 C 2454.7 -3.82619 2.51728 0
M  V30 26001 N 2456.19 -3.8999 2.49924 0
M  V30 26002 C 2456.92 -4.76489 3.18976 0
M  V30 26003 N 2456.42 -5.67489 3.97401 0
M  V30 26004 N 2458.21 -4.70202 3.08004 0
M  V30 26005 H 2450.36 -1.01808 1.86411 0
M  V30 26006 H 2452.63 -0.50828 0.800222 0
M  V30 26007 H 2452.33 -2.35815 2.6093 0
M  V30 26008 H 2452.21 -3.5356 1.31434 0
M  V30 26009 H 2454.59 -2.8985 0.554175 0
M  V30 26010 H 2454.67 -1.73215 1.88229 0
M  V30 26011 H 2454.32 -3.63595 3.54628 0
M  V30 26012 H 2454.25 -4.78899 2.19004 0
M  V30 26013 H 2456.74 -3.24919 1.92966 0
M  V30 26014 H 2457.05 -6.30348 4.47081 0
M  V30 26015 H 2455.4 -5.67291 4.01505 0
M  V30 26016 H 2458.59 -3.98106 2.4623 0
M  V30 26017 H 2458.76 -5.37397 3.62089 0
M  V30 26018 N 2452.17 -0.691135 -1.41637 0
M  V30 26019 C 2453.41 -0.229293 -2.02103 0
M  V30 26020 C 2453.77 1.15675 -1.53743 0
M  V30 26021 O 2453.06 1.76863 -0.73688 0
M  V30 26022 C 2453.26 -0.22134 -3.56714 0
M  V30 26023 C 2453.08 -1.60508 -4.2008 0
M  V30 26024 C 2451.85 -2.20684 -4.54562 0
M  V30 26025 C 2454.05 -2.55086 -4.46582 0
M  V30 26026 N 2452.03 -3.51668 -5.03192 0
M  V30 26027 C 2453.41 -3.70744 -4.9694 0
M  V30 26028 C 2455.46 -2.53409 -4.28589 0
M  V30 26029 C 2454.16 -4.85 -5.31195 0
M  V30 26030 C 2456.19 -3.66774 -4.6393 0
M  V30 26031 C 2455.55 -4.81161 -5.14455 0
M  V30 26032 H 2451.65 -0.129194 -0.771254 0
M  V30 26033 H 2454.23 -0.907656 -1.72249 0
M  V30 26034 H 2452.41 0.426494 -3.86051 0
M  V30 26035 H 2454.14 0.254912 -4.03896 0
M  V30 26036 H 2450.89 -1.73013 -4.40867 0
M  V30 26037 H 2451.32 -4.18798 -5.31919 0
M  V30 26038 H 2455.96 -1.66191 -3.88768 0
M  V30 26039 H 2453.68 -5.72881 -5.69941 0
M  V30 26040 H 2457.26 -3.66722 -4.5167 0
M  V30 26041 H 2456.14 -5.67429 -5.41289 0
M  V30 26042 N 2453.65 1.51461 -0.435577 0
M  V30 26043 C 2454.58 2.30592 0.367336 0
M  V30 26044 C 2455.56 1.3593 1.0226 0
M  V30 26045 O 2456.74 1.64848 1.02658 0
M  V30 26046 C 2453.87 3.14667 1.46977 0
M  V30 26047 C 2452.83 4.17593 0.938088 0
M  V30 26048 C 2452.15 4.90177 2.13614 0
M  V30 26049 C 2453.45 5.22293 -0.0262539 0
M  V30 26050 H 2455.15 2.97963 -0.293022 0
M  V30 26051 H 2452.69 1.43295 -0.142365 0
M  V30 26052 H 2454.64 3.68804 2.03867 0
M  V30 26053 H 2453.37 2.45114 2.15839 0
M  V30 26054 H 2452.03 3.64504 0.391417 0
M  V30 26055 H 2451.68 4.17129 2.81091 0
M  V30 26056 H 2451.38 5.59775 1.78678 0
M  V30 26057 H 2452.9 5.47137 2.7106 0
M  V30 26058 H 2454.31 5.71513 0.452284 0
M  V30 26059 H 2452.71 5.99408 -0.288097 0
M  V30 26060 H 2453.78 4.75232 -0.963474 0
M  V30 26061 N 2455.12 0.166873 1.56714 0
M  V30 26062 C 2456.4 -0.52534 1.88413 0
M  V30 26063 C 2456.78 -1.81616 1.07606 0
M  V30 26064 O 2456.13 -2.27877 0.168661 0
M  V30 26065 C 2456.34 -0.771553 3.40365 0
M  V30 26066 C 2457.69 -1.10353 4.10009 0
M  V30 26067 O 2458.71 -0.860243 3.45656 0
M  V30 26068 O 2457.57 -1.56229 5.23693 0
M  V30 26069 H 2454.66 -0.270265 0.781592 0
M  V30 26070 H 2457.21 0.204976 1.68458 0
M  V30 26071 H 2455.98 0.141162 3.91045 0
M  V30 26072 H 2455.61 -1.55535 3.65916 0
M  V30 26073 N 2456.6 -1.57237 -0.106866 0
M  V30 26074 C 2457.57 -2.00272 -1.11462 0
M  V30 26075 C 2458.57 -0.894542 -1.33621 0
M  V30 26076 O 2459.76 -1.1603 -1.29933 0
M  V30 26077 C 2456.89 -2.35331 -2.46642 0
M  V30 26078 H 2458.08 -2.90513 -0.744465 0
M  V30 26079 H 2455.63 -1.52295 -0.35155 0
M  V30 26080 H 2456.37 -1.48008 -2.88555 0
M  V30 26081 H 2456.15 -3.16165 -2.31909 0
M  V30 26082 H 2457.64 -2.69324 -3.19146 0
M  V30 26083 N 2458.08 0.377381 -1.53015 0
M  V30 26084 C 2459.5 0.718256 -1.42525 0
M  V30 26085 C 2459.7 1.93709 -0.554904 0
M  V30 26086 O 2458.75 2.52479 -0.0328037 0
M  V30 26087 C 2460.07 0.942488 -2.85548 0
M  V30 26088 C 2461.61 1.04324 -2.95103 0
M  V30 26089 C 2462.09 1.30002 -4.39162 0
M  V30 26090 N 2463.58 1.36798 -4.42539 0
M  V30 26091 C 2464.31 1.58355 -5.511 0
M  V30 26092 N 2463.81 1.77305 -6.69727 0
M  V30 26093 N 2465.6 1.60628 -5.3866 0
M  V30 26094 H 2457.75 -0.424462 -2.08116 0
M  V30 26095 H 2460.02 -0.127775 -0.939349 0
M  V30 26096 H 2459.72 0.118867 -3.51499 0
M  V30 26097 H 2459.6 1.85392 -3.28496 0
M  V30 26098 H 2461.98 1.85741 -2.29312 0
M  V30 26099 H 2462.07 0.10946 -2.55566 0
M  V30 26100 H 2461.71 0.490902 -5.05522 0
M  V30 26101 H 2461.64 2.24683 -4.76262 0
M  V30 26102 H 2464.13 1.23815 -3.57041 0
M  V30 26103 H 2464.44 1.93293 -7.48236 0
M  V30 26104 H 2462.79 1.74506 -6.72735 0
M  V30 26105 H 2465.98 1.45383 -4.44951 0
M  V30 26106 H 2466.15 1.77087 -6.23333 0
M  V30 26107 N 2459.56 1.44175 0.636506 0
M  V30 26108 C 2460.81 1.45956 1.39211 0
M  V30 26109 C 2461.12 0.0939462 1.95374 0
M  V30 26110 O 2462.33 -0.010729 2.71498 0
M  V30 26111 C 2460.78 2.56932 2.5202 0
M  V30 26112 C 2460.39 3.99676 2.02393 0
M  V30 26113 C 2462.13 2.67928 3.29264 0
M  V30 26114 C 2460.04 5.02086 3.12512 0
M  V30 26115 H 2458.97 0.543009 0.523123 0
M  V30 26116 H 2461.62 1.70222 0.685319 0
M  V30 26117 H 2460 2.25896 3.25249 0
M  V30 26118 H 2461.18 4.40253 1.36065 0
M  V30 26119 H 2459.49 3.92875 1.3798 0
M  V30 26120 H 2462.09 3.41612 4.11346 0
M  V30 26121 H 2462.43 1.73562 3.78394 0
M  V30 26122 H 2462.97 2.98346 2.63124 0
M  V30 26123 H 2459.71 5.98062 2.68333 0
M  V30 26124 H 2459.23 4.66106 3.77499 0
M  V30 26125 H 2460.9 5.25544 3.77375 0
M  V30 26126 N 2461.04 -0.876421 1.30983 0
M  V30 26127 C 2462.27 -1.65947 1.23066 0
M  V30 26128 C 2462.67 -1.88059 -0.207504 0
M  V30 26129 O 2462.02 -1.43428 -1.14779 0
M  V30 26130 C 2462.08 -3.0533 1.89773 0
M  V30 26131 C 2461.74 -3.06354 3.39111 0
M  V30 26132 C 2462.74 -2.84784 4.34965 0
M  V30 26133 C 2460.43 -3.2768 3.80699 0
M  V30 26134 C 2462.42 -2.84509 5.7038 0
M  V30 26135 C 2460.11 -3.27033 5.16229 0
M  V30 26136 C 2461.1 -3.05474 6.1088 0
M  V30 26137 O 2460.79 -3.0466 7.43934 0
M  V30 26138 H 2460.52 -0.524317 0.426694 0
M  V30 26139 H 2463.08 -1.10268 1.73292 0
M  V30 26140 H 2461.31 -3.62708 1.34088 0
M  V30 26141 H 2463 -3.65825 1.75859 0
M  V30 26142 H 2463.76 -2.68096 4.04165 0
M  V30 26143 H 2459.64 -3.43493 3.07463 0
M  V30 26144 H 2463.19 -2.676 6.44233 0
M  V30 26145 H 2459.08 -3.43259 5.46666 0
M  V30 26146 H 2459.85 -3.20767 7.53028 0
M  V30 26147 N 2462.51 -1.13839 -1.08989 0
M  V30 26148 C 2463.74 -0.926618 -1.85549 0
M  V30 26149 C 2464.16 0.519534 -1.80783 0
M  V30 26150 O 2463.52 1.36903 -1.18858 0
M  V30 26151 C 2463.57 -1.42468 -3.31263 0
M  V30 26152 O 2462.67 -0.612861 -4.07821 0
M  V30 26153 H 2462.02 -0.331748 -0.575186 0
M  V30 26154 H 2464.55 -1.51416 -1.37602 0
M  V30 26155 H 2464.56 -1.43025 -3.8211 0
M  V30 26156 H 2463.23 -2.4776 -3.34048 0
M  V30 26157 H 2461.81 -0.675528 -3.6673 0
M  V30 26158 N 2463.99 1.27046 -0.932584 0
M  V30 26159 C 2465.27 1.89264 -0.493803 0
M  V30 26160 C 2465.65 1.84362 1.0283 0
M  V30 26161 O 2465 1.29212 1.88458 0
M  V30 26162 C 2465.21 3.32975 -1.04542 0
M  V30 26163 C 2466.56 4.09865 -1.10886 0
M  V30 26164 O 2467.58 3.42009 -0.995387 0
M  V30 26165 O 2466.44 5.31196 -1.28427 0
M  V30 26166 H 2463.53 0.811452 -0.15961 0
M  V30 26167 H 2466.08 1.35278 -1.02459 0
M  V30 26168 H 2464.85 3.30861 -2.08919 0
M  V30 26169 H 2464.47 3.94487 -0.496564 0
M  V30 26170 N 2465.47 0.698636 1.41269 0
M  V30 26171 C 2466.88 0.305321 1.84187 0
M  V30 26172 C 2467.23 -1.15705 1.58451 0
M  V30 26173 O 2466.36 -1.88855 1.05655 0
M  V30 26174 C 2466.95 0.547373 3.34349 0
M  V30 26175 C 2465.51 0.207944 3.75825 0
M  V30 26176 C 2464.66 0.828145 2.64645 0
M  V30 26177 H 2467.61 0.899063 1.30777 0
M  V30 26178 H 2467.63 -0.192931 3.80011 0
M  V30 26179 H 2467.14 1.61178 3.53048 0
M  V30 26180 H 2465.24 -0.852079 3.62726 0
M  V30 26181 H 2465.36 0.665105 4.74461 0
M  V30 26182 H 2463.72 0.257503 2.53395 0
M  V30 26183 H 2464.5 1.89648 2.86161 0
M  V30 26184 N 2466.95 -1.51228 0.443603 0
M  V30 26185 C 2467.88 -2.30784 -0.355102 0
M  V30 26186 C 2468.86 -1.3647 -1.01538 0
M  V30 26187 O 2470.04 -1.65391 -1.01782 0
M  V30 26188 C 2467.17 -3.15442 -1.45306 0
M  V30 26189 C 2466.13 -4.18085 -0.915929 0
M  V30 26190 C 2465.45 -4.91303 -2.11011 0
M  V30 26191 C 2466.75 -5.22272 0.053952 0
M  V30 26192 H 2468.45 -2.97803 0.308819 0
M  V30 26193 H 2465.99 -1.43217 0.149963 0
M  V30 26194 H 2467.95 -3.6988 -2.01908 0
M  V30 26195 H 2466.67 -2.46255 -2.14536 0
M  V30 26196 H 2465.33 -3.64707 -0.372081 0
M  V30 26197 H 2464.98 -4.18614 -2.78875 0
M  V30 26198 H 2464.68 -5.60715 -1.75707 0
M  V30 26199 H 2466.2 -5.48567 -2.68155 0
M  V30 26200 H 2467.62 -5.71745 -0.421969 0
M  V30 26201 H 2466.01 -5.99247 0.319881 0
M  V30 26202 H 2467.08 -4.74714 0.988663 0
M  V30 26203 N 2468.43 -0.175182 -1.56623 0
M  V30 26204 C 2469.39 0.7397 -2.16936 0
M  V30 26205 C 2470.39 1.15532 -1.11844 0
M  V30 26206 O 2471.58 1.07164 -1.37337 0
M  V30 26207 C 2468.71 2.00733 -2.75534 0
M  V30 26208 H 2469.9 0.214586 -2.99131 0
M  V30 26209 H 2467.46 0.0743922 -1.56123 0
M  V30 26210 H 2468.19 2.57544 -1.97083 0
M  V30 26211 H 2467.98 1.71825 -3.52447 0
M  V30 26212 H 2469.47 2.66016 -3.21909 0
M  V30 26213 N 2469.91 1.57292 0.0985263 0
M  V30 26214 C 2470.84 2.04853 1.1206 0
M  V30 26215 C 2471.82 0.936792 1.4198 0
M  V30 26216 O 2473 1.20784 1.52069 0
M  V30 26217 C 2470.13 2.47008 2.4414 0
M  V30 26218 C 2469.09 3.61814 2.28636 0
M  V30 26219 C 2468.41 3.89935 3.65862 0
M  V30 26220 C 2469.71 4.92825 1.72977 0
M  V30 26221 H 2471.41 2.90491 0.724928 0
M  V30 26222 H 2468.95 1.3975 0.347266 0
M  V30 26223 H 2470.9 2.78889 3.15909 0
M  V30 26224 H 2469.63 1.58365 2.85636 0
M  V30 26225 H 2468.29 3.30174 1.59312 0
M  V30 26226 H 2467.94 2.98465 4.0488 0
M  V30 26227 H 2467.64 4.67224 3.56336 0
M  V30 26228 H 2469.16 4.24288 4.39104 0
M  V30 26229 H 2470.57 5.23109 2.34584 0
M  V30 26230 H 2468.97 5.74254 1.74219 0
M  V30 26231 H 2470.04 4.79981 0.688922 0
M  V30 26232 N 2471.38 -0.369261 1.53213 0
M  V30 26233 C 2472.33 -1.45215 1.79391 0
M  V30 26234 C 2473.3 -1.53355 0.638086 0
M  V30 26235 O 2474.49 -1.69301 0.879882 0
M  V30 26236 C 2471.63 -2.82208 1.98628 0
M  V30 26237 C 2470.74 -2.83064 3.26342 0
M  V30 26238 C 2469.87 -4.11608 3.35786 0
M  V30 26239 C 2468.91 -4.06593 4.57547 0
M  V30 26240 N 2468.05 -5.26779 4.64164 0
M  V30 26241 H 2472.89 -1.22193 2.71796 0
M  V30 26242 H 2470.43 -0.592421 1.34643 0
M  V30 26243 H 2472.38 -3.61785 2.07767 0
M  V30 26244 H 2471.01 -3.03638 1.09563 0
M  V30 26245 H 2470.07 -1.95741 3.26174 0
M  V30 26246 H 2471.38 -2.7523 4.15993 0
M  V30 26247 H 2470.53 -4.996 3.44217 0
M  V30 26248 H 2469.27 -4.22191 2.44144 0
M  V30 26249 H 2468.28 -3.16988 4.4922 0
M  V30 26250 H 2469.5 -3.97615 5.50526 0
M  V30 26251 H 2467.45 -5.37954 3.75422 0
M  V30 26252 H 2467.36 -5.21099 5.47715 0
M  V30 26253 H 2468.63 -6.16613 4.76874 0
M  V30 26254 N 2472.86 -1.4451 -0.628851 0
M  V30 26255 C 2473.77 -1.54047 -1.76937 0
M  V30 26256 C 2474.79 -0.426016 -1.68704 0
M  V30 26257 O 2475.96 -0.683689 -1.8944 0
M  V30 26258 C 2473.03 -1.4841 -3.13329 0
M  V30 26259 C 2472.09 -2.70725 -3.33176 0
M  V30 26260 C 2471.32 -2.65348 -4.63062 0
M  V30 26261 O 2471.55 -1.71478 -5.44014 0
M  V30 26262 O 2470.48 -3.56234 -4.85161 0
M  V30 26263 H 2474.31 -2.50406 -1.71844 0
M  V30 26264 H 2471.89 -1.26782 -0.790355 0
M  V30 26265 H 2473.77 -1.47798 -3.94631 0
M  V30 26266 H 2472.45 -0.551955 -3.18959 0
M  V30 26267 H 2471.35 -2.76905 -2.51544 0
M  V30 26268 H 2472.69 -3.62994 -3.32409 0
M  V30 26269 N 2474.34 0.869463 -1.31446 0
M  V30 26270 C 2475.59 1.62254 -1.21161 0
M  V30 26271 C 2475.91 1.93134 0.230121 0
M  V30 26272 O 2475.17 1.56196 1.17903 0
M  V30 26273 C 2475.47 2.96099 -2.00151 0
M  V30 26274 C 2475.13 2.84709 -3.49645 0
M  V30 26275 C 2473.8 2.8131 -3.90408 0
M  V30 26276 C 2476.15 2.71708 -4.44774 0
M  V30 26277 C 2473.48 2.62769 -5.24566 0
M  V30 26278 C 2475.83 2.54704 -5.79058 0
M  V30 26279 C 2474.49 2.49688 -6.19041 0
M  V30 26280 H 2473.76 0.593729 -0.443358 0
M  V30 26281 H 2476.41 1.00973 -1.62717 0
M  V30 26282 H 2474.71 3.61417 -1.51277 0
M  V30 26283 H 2476.41 3.5336 -1.89572 0
M  V30 26284 H 2473 2.88172 -3.17261 0
M  V30 26285 H 2477.19 2.73389 -4.14212 0
M  V30 26286 H 2472.44 2.57311 -5.54618 0
M  V30 26287 H 2476.62 2.43621 -6.52397 0
M  V30 26288 H 2474.24 2.3508 -7.22939 0
M  V30 26289 N 2475.82 1.14415 1.08383 0
M  V30 26290 C 2476.76 0.831303 2.15309 0
M  V30 26291 C 2477.73 -0.211263 1.64751 0
M  V30 26292 O 2478.92 -0.0811339 1.90627 0
M  V30 26293 C 2476.06 0.315203 3.43658 0
M  V30 26294 C 2475.17 1.4181 4.08061 0
M  V30 26295 C 2474.31 0.859218 5.24205 0
M  V30 26296 C 2473.35 1.93977 5.80551 0
M  V30 26297 N 2472.48 1.39805 6.8804 0
M  V30 26298 H 2477.32 1.74713 2.41411 0
M  V30 26299 H 2474.86 0.871929 1.18473 0
M  V30 26300 H 2476.82 -0.0022355 4.172 0
M  V30 26301 H 2475.45 -0.563724 3.1784 0
M  V30 26302 H 2474.5 1.85193 3.32277 0
M  V30 26303 H 2475.81 2.23434 4.45958 0
M  V30 26304 H 2474.97 0.493697 6.04688 0
M  V30 26305 H 2473.71 0.0120177 4.87699 0
M  V30 26306 H 2472.71 2.31424 4.98721 0
M  V30 26307 H 2473.94 2.79057 6.19116 0
M  V30 26308 H 2471.88 0.573034 6.53492 0
M  V30 26309 H 2471.8 2.15067 7.24764 0
M  V30 26310 H 2473.07 1.06044 7.72253 0
M  V30 26311 N 2477.3 -1.26549 0.939309 0
M  V30 26312 C 2478.21 -2.30176 0.453473 0
M  V30 26313 C 2479.22 -1.67487 -0.47162 0
M  V30 26314 O 2480.4 -1.98307 -0.351605 0
M  V30 26315 C 2477.46 -3.45606 -0.275265 0
M  V30 26316 C 2476.52 -4.23781 0.686159 0
M  V30 26317 C 2475.76 -5.33699 -0.00789613 0
M  V30 26318 O 2475.98 -5.57087 -1.22518 0
M  V30 26319 O 2474.91 -5.98161 0.669851 0
M  V30 26320 H 2478.74 -2.73792 1.31421 0
M  V30 26321 H 2476.32 -1.31713 0.705119 0
M  V30 26322 H 2478.21 -4.15781 -0.685838 0
M  V30 26323 H 2476.88 -3.04022 -1.11142 0
M  V30 26324 H 2475.79 -3.56094 1.14664 0
M  V30 26325 H 2477.12 -4.69109 1.48987 0
M  V30 26326 N 2478.77 -0.706118 -1.40896 0
M  V30 26327 C 2480.02 -0.241566 -2.01054 0
M  V30 26328 C 2480.35 1.16221 -1.55958 0
M  V30 26329 O 2479.6 1.8007 -0.766367 0
M  V30 26330 C 2479.9 -0.259162 -3.56459 0
M  V30 26331 C 2479.57 -1.61191 -4.21103 0
M  V30 26332 C 2478.23 -1.98223 -4.38476 0
M  V30 26333 C 2480.58 -2.5014 -4.57252 0
M  V30 26334 C 2477.91 -3.23768 -4.89276 0
M  V30 26335 C 2480.26 -3.75029 -5.09447 0
M  V30 26336 C 2478.93 -4.1219 -5.25029 0
M  V30 26337 H 2478.2 -0.0883954 -0.735709 0
M  V30 26338 H 2480.84 -0.907286 -1.68643 0
M  V30 26339 H 2479.15 0.490121 -3.88722 0
M  V30 26340 H 2480.85 0.11797 -4.00826 0
M  V30 26341 H 2477.44 -1.31392 -4.07963 0
M  V30 26342 H 2481.62 -2.22808 -4.43475 0
M  V30 26343 H 2476.88 -3.52541 -4.99525 0
M  V30 26344 H 2481.05 -4.44131 -5.36396 0
M  V30 26345 H 2478.68 -5.09542 -5.64155 0
M  V30 26346 N 2480.25 1.50991 -0.451617 0
M  V30 26347 C 2481.21 2.26648 0.341077 0
M  V30 26348 C 2482.21 1.3065 0.937399 0
M  V30 26349 O 2483.4 1.54243 0.809617 0
M  V30 26350 C 2480.54 3.06908 1.48392 0
M  V30 26351 H 2481.73 2.98165 -0.322169 0
M  V30 26352 H 2479.28 1.54948 -0.205149 0
M  V30 26353 H 2480.02 2.39842 2.1828 0
M  V30 26354 H 2479.8 3.77434 1.06235 0
M  V30 26355 H 2481.29 3.64179 2.04361 0
M  V30 26356 N 2481.73 0.183486 1.56528 0
M  V30 26357 C 2482.69 -0.728185 2.17325 0
M  V30 26358 C 2483.69 -1.14937 1.12455 0
M  V30 26359 O 2484.88 -1.06434 1.37903 0
M  V30 26360 C 2482.01 -1.99269 2.76595 0
M  V30 26361 H 2483.21 -0.19872 2.99241 0
M  V30 26362 H 2480.76 -0.0661116 1.5616 0
M  V30 26363 H 2481.5 -2.56495 1.98446 0
M  V30 26364 H 2481.28 -1.69953 3.53353 0
M  V30 26365 H 2482.77 -2.64305 3.23315 0
M  V30 26366 N 2483.21 -1.57342 -0.0901833 0
M  V30 26367 C 2484.46 -1.85969 -0.791209 0
M  V30 26368 C 2484.78 -0.77289 -1.79029 0
M  V30 26369 O 2484.05 0.200364 -1.94873 0
M  V30 26370 H 2482.63 -0.6862 -0.295193 0
M  V30 26371 H 2485.29 -1.94772 -0.070644 0
M  V30 26372 H 2484.38 -2.82869 -1.31877 0
M  V30 26373 N 2484.69 0.36113 -1.53407 0
M  V30 26374 C 2486.1 0.703099 -1.43278 0
M  V30 26375 C 2486.3 1.93109 -0.575418 0
M  V30 26376 O 2485.36 2.5243 -0.0595806 0
M  V30 26377 C 2486.67 0.912149 -2.86532 0
M  V30 26378 C 2488.22 1.01188 -2.96193 0
M  V30 26379 C 2488.69 1.25337 -4.40516 0
M  V30 26380 N 2490.19 1.32097 -4.43965 0
M  V30 26381 C 2490.92 1.525 -5.52749 0
M  V30 26382 N 2490.42 1.70191 -6.7157 0
M  V30 26383 N 2492.21 1.54906 -5.40334 0
M  V30 26384 H 2484.36 -0.446512 -2.07654 0
M  V30 26385 H 2486.62 -0.137731 -0.937941 0
M  V30 26386 H 2486.33 0.0815796 -3.51605 0
M  V30 26387 H 2486.2 1.81897 -3.30444 0
M  V30 26388 H 2488.59 1.83299 -2.3127 0
M  V30 26389 H 2488.67 0.0823479 -2.55667 0
M  V30 26390 H 2488.32 0.437257 -5.06014 0
M  V30 26391 H 2488.25 2.19619 -4.78618 0
M  V30 26392 H 2490.74 1.20021 -3.58334 0
M  V30 26393 H 2491.05 1.85346 -7.50244 0
M  V30 26394 H 2489.39 1.67361 -6.74548 0
M  V30 26395 H 2492.59 1.40656 -4.46468 0
M  V30 26396 H 2492.76 1.70466 -6.25176 0
M  V30 26397 N 2486.16 1.44842 0.621179 0
M  V30 26398 C 2487.11 1.52473 1.73265 0
M  V30 26399 C 2488.08 0.37164 1.61889 0
M  V30 26400 O 2489.27 0.583242 1.81667 0
M  V30 26401 C 2486.41 1.48443 3.11542 0
M  V30 26402 C 2485.52 2.74202 3.33822 0
M  V30 26403 C 2484.65 2.61937 4.62128 0
M  V30 26404 C 2483.69 3.82812 4.7762 0
M  V30 26405 N 2482.83 3.69164 5.97212 0
M  V30 26406 H 2487.67 2.47431 1.66078 0
M  V30 26407 H 2485.21 1.2279 0.810005 0
M  V30 26408 H 2487.17 1.44097 3.91525 0
M  V30 26409 H 2485.8 0.570458 3.17719 0
M  V30 26410 H 2484.85 2.88694 2.4771 0
M  V30 26411 H 2486.16 3.63896 3.41146 0
M  V30 26412 H 2485.31 2.5548 5.50286 0
M  V30 26413 H 2484.05 1.69819 4.57179 0
M  V30 26414 H 2483.06 3.89644 3.87889 0
M  V30 26415 H 2484.28 4.75979 4.84376 0
M  V30 26416 H 2482.23 2.79805 5.93334 0
M  V30 26417 H 2482.15 4.52483 6.05636 0
M  V30 26418 H 2483.41 3.66615 6.87905 0
M  V30 26419 O 2487.68 -0.764823 1.42242 0
M  V30 26420 H 2488.37 -1.41272 1.32522 0
M  V30 END ATOM
M  V30 BEGIN BOND
M  V30 END BOND
M  V30 END CTAB
M  END
$$$$
