drugbank_target|Q9UGJ0 5'-AMP-activated protein kinase subunit gamma-2 (DB00131; DB00945; DB12010)
 OpenBabel12092121003D

  0  0  0     0  0            999 V3000
M  V30 BEGIN CTAB
M  V30 COUNTS 8932 9041 0 0 0
M  V30 BEGIN ATOM
M  V30 1 H -0.908 1.98254 -0.117106 0
M  V30 2 N 0 1.576 0 0
M  V30 3 C 0.933 2.03868 1.02534 0
M  V30 4 C 1.911 0.928543 1.3348 0
M  V30 5 O 3.095 1.19667 1.45644 0
M  V30 6 C 0.222 2.43627 2.35294 0
M  V30 7 C -0.732 3.65373 2.2001 0
M  V30 8 S 0.101 5.13292 1.52614 0
M  V30 9 C 1.257 5.56322 2.86805 0
M  V30 10 H 1.49 2.90518 0.631377 0
M  V30 11 H -0.977 1.52953 0.210867 0
M  V30 12 H 0.981 2.67203 3.11629 0
M  V30 13 H -0.358 1.57376 2.7183 0
M  V30 14 H -1.165 3.90944 3.18086 0
M  V30 15 H -1.563 3.418 1.51819 0
M  V30 16 H 0.729 5.58782 3.83104 0
M  V30 17 H 1.672 6.56266 2.65933 0
M  V30 18 H 2.08 4.83886 2.90714 0
M  V30 19 N 1.4781 -0.272755 1.55222 0
M  V30 20 C 2.7261 -1.00234 1.75492 0
M  V30 21 C 3.0471 -1.8681 0.5592 0
M  V30 22 O 2.3171 -1.91215 -0.425882 0
M  V30 23 H 0.8971 -0.373076 0.647166 0
M  V30 24 H 3.5591 -0.296926 1.92625 0
M  V30 25 H 2.6551 -1.63913 2.65592 0
M  V30 26 N 2.9562 -1.48159 -0.537278 0
M  V30 27 C 4.1812 -1.59707 -1.32319 0
M  V30 28 C 4.6062 -0.254859 -1.86365 0
M  V30 29 O 3.9642 0.772378 -1.64024 0
M  V30 30 C 4.0122 -2.6412 -2.45505 0
M  V30 31 O 3.1162 -2.20774 -3.48328 0
M  V30 32 H 2.4572 -0.535791 -0.392204 0
M  V30 33 H 4.9872 -1.94092 -0.647268 0
M  V30 34 H 4.9972 -2.85166 -2.91795 0
M  V30 35 H 3.6722 -3.61567 -2.05528 0
M  V30 36 H 2.2492 -2.09911 -3.08207 0
M  V30 37 N 4.4343 0.785586 -1.36625 0
M  V30 38 C 5.3973 1.87999 -1.31107 0
M  V30 39 C 6.3973 1.59316 -0.217959 0
M  V30 40 O 7.5873 1.67656 -0.472977 0
M  V30 41 C 4.7193 3.24861 -1.03334 0
M  V30 42 H 5.9123 1.94307 -2.2844 0
M  V30 43 H 3.4653 0.983813 -1.21453 0
M  V30 44 H 4.2003 3.24235 -0.0647432 0
M  V30 45 H 3.9853 3.4707 -1.82441 0
M  V30 46 H 5.4753 4.04929 -1.02088 0
M  V30 47 N 5.9124 1.20967 1.01018 0
M  V30 48 C 7.1584 1.02526 1.74975 0
M  V30 49 C 7.4914 -0.4408 1.89131 0
M  V30 50 O 6.7664 -1.32718 1.42184 0
M  V30 51 C 7.0494 1.71699 3.1653 0
M  V30 52 C 6.9024 3.25791 3.10129 0
M  V30 53 C 8.2214 1.45531 4.15342 0
M  V30 54 H 5.3404 0.373863 0.635134 0
M  V30 55 H 7.9824 1.49071 1.17805 0
M  V30 56 H 6.1324 1.32128 3.65341 0
M  V30 57 H 7.8044 3.74697 2.69072 0
M  V30 58 H 6.0474 3.56363 2.47362 0
M  V30 59 H 6.7184 3.69353 4.10222 0
M  V30 60 H 9.1944 1.79872 3.75213 0
M  V30 61 H 8.0704 1.96453 5.1254 0
M  V30 62 H 8.3314 0.384237 4.40427 0
M  V30 63 N 7.3905 -1.2043 1.01659 0
M  V30 64 C 8.3235 -2.21924 0.531521 0
M  V30 65 C 9.3015 -1.57054 -0.421032 0
M  V30 66 O 10.4855 -1.85389 -0.341035 0
M  V30 67 C 7.6125 -3.37942 -0.226496 0
M  V30 68 C 6.6585 -4.21115 0.67561 0
M  V30 69 S 7.4915 -4.90674 2.14475 0
M  V30 70 C 8.6475 -6.10113 1.3969 0
M  V30 71 H 8.8805 -2.62725 1.3915 0
M  V30 72 H 6.4135 -1.30481 0.825479 0
M  V30 73 H 8.3715 -4.05196 -0.657738 0
M  V30 74 H 7.0325 -2.956 -1.06205 0
M  V30 75 H 6.2255 -5.03918 0.091108 0
M  V30 76 H 5.8275 -3.59115 1.04463 0
M  V30 77 H 8.1195 -6.7411 0.676897 0
M  V30 78 H 9.0625 -6.73022 2.20107 0
M  V30 79 H 9.4705 -5.57283 0.899786 0
M  V30 80 N 8.8686 -0.792821 -1.36206 0
M  V30 81 C 10.1456 -0.290627 -1.93429 0
M  V30 82 C 10.5256 1.21773 -1.72437 0
M  V30 83 O 9.8736 2.0108 -1.08531 0
M  V30 84 C 10.0836 -0.686973 -3.42172 0
M  V30 85 C 11.4316 -0.668643 -4.19302 0
M  V30 86 O 12.4556 -0.627658 -3.50626 0
M  V30 87 O 11.3146 -0.714597 -5.41808 0
M  V30 88 H 8.4086 -0.0727927 -0.82379 0
M  V30 89 H 10.9546 -0.875593 -1.45367 0
M  V30 90 H 9.7266 -1.72711 -3.51122 0
M  V30 91 H 9.3496 -0.0760733 -3.97527 0
M  V30 92 N 10.3467 1.47872 -0.545128 0
M  V30 93 C 11.5747 2.06889 -0.021084 0
M  V30 94 C 11.9897 1.39955 1.2672 0
M  V30 95 O 11.3467 0.492036 1.75742 0
M  V30 96 C 11.3977 3.60996 0.190817 0
M  V30 97 O 11.1187 4.25419 -1.04644 0
M  V30 98 C 12.6197 4.36849 0.753521 0
M  V30 99 H 9.8397 0.669785 -0.0403635 0
M  V30 100 H 12.3837 1.90049 -0.755095 0
M  V30 101 H 10.5387 3.77391 0.87492 0
M  V30 102 H 10.9527 5.17785 -0.836611 0
M  V30 103 H 12.4267 5.45399 0.851139 0
M  V30 104 H 12.9037 4.02306 1.762 0
M  V30 105 H 13.5097 4.25169 0.105503 0
M  V30 106 N 11.8248 0.280983 1.55075 0
M  V30 107 C 12.7718 -0.603937 2.22758 0
M  V30 108 C 13.7418 -1.1452 1.20309 0
M  V30 109 O 14.9268 -1.19343 1.48869 0
M  V30 110 C 12.0668 -1.77947 2.95684 0
M  V30 111 C 11.1798 -1.2715 4.12864 0
M  V30 112 C 10.3148 -2.4093 4.7342 0
M  V30 113 C 9.3538 -1.87165 5.82783 0
M  V30 114 N 8.4908 -2.94441 6.37377 0
M  V30 115 H 13.3308 -0.020124 2.97993 0
M  V30 116 H 10.8678 0.00183425 1.471 0
M  V30 117 H 12.8258 -2.47055 3.36184 0
M  V30 118 H 11.4558 -2.33522 2.22861 0
M  V30 119 H 10.5078 -0.473331 3.77444 0
M  V30 120 H 11.8198 -0.837751 4.91715 0
M  V30 121 H 10.9738 -3.18021 5.1667 0
M  V30 122 H 9.7128 -2.87623 3.93859 0
M  V30 123 H 8.7178 -1.08556 5.38976 0
M  V30 124 H 9.9428 -1.41401 6.64216 0
M  V30 125 H 7.8888 -3.40505 5.60707 0
M  V30 126 H 7.8058 -2.55501 7.11516 0
M  V30 127 H 9.0738 -3.71489 6.85285 0
M  V30 128 N 13.3029 -1.57598 0.00835791 0
M  V30 129 C 14.2499 -2.08945 -0.980346 0
M  V30 130 C 15.2199 -0.986738 -1.33614 0
M  V30 131 O 16.4049 -1.25968 -1.43306 0
M  V30 132 C 13.5449 -2.60425 -2.26435 0
M  V30 133 C 12.6579 -3.84628 -1.96685 0
M  V30 134 C 11.7929 -4.24579 -3.19228 0
M  V30 135 C 10.8319 -5.41596 -2.85202 0
M  V30 136 N 9.9689 -5.768 -4.00307 0
M  V30 137 H 14.8089 -2.93148 -0.535551 0
M  V30 138 H 12.3459 -1.44912 -0.252776 0
M  V30 139 H 14.3039 -2.88354 -3.01509 0
M  V30 140 H 12.9339 -1.79083 -2.68568 0
M  V30 141 H 11.9859 -3.63556 -1.11942 0
M  V30 142 H 13.2979 -4.69796 -1.67611 0
M  V30 143 H 12.4519 -4.53834 -4.02641 0
M  V30 144 H 11.1909 -3.38137 -3.51447 0
M  V30 145 H 10.1959 -5.12056 -2.00198 0
M  V30 146 H 11.4209 -6.29721 -2.54222 0
M  V30 147 H 9.3669 -4.93316 -4.32407 0
M  V30 148 H 9.2839 -6.5656 -3.74786 0
M  V30 149 H 10.5519 -6.10652 -4.84484 0
M  V30 150 N 14.781 0.264519 -1.55364 0
M  V30 151 C 15.728 1.32717 -1.88825 0
M  V30 152 C 16.698 1.48675 -0.740605 0
M  V30 153 O 17.883 1.62945 -0.992657 0
M  V30 154 C 15.023 2.68089 -2.17307 0
M  V30 155 C 14.136 2.60284 -3.44785 0
M  V30 156 C 13.271 3.87892 -3.62924 0
M  V30 157 C 12.31 3.74631 -4.84064 0
M  V30 158 N 11.447 4.94092 -4.98816 0
M  V30 159 H 16.287 1.03481 -2.79456 0
M  V30 160 H 13.824 0.499757 -1.3835 0
M  V30 161 H 15.782 3.46864 -2.31821 0
M  V30 162 H 14.412 2.95509 -1.299 0
M  V30 163 H 13.464 1.73173 -3.38697 0
M  V30 164 H 14.776 2.46388 -4.33698 0
M  V30 165 H 13.93 4.75109 -3.77302 0
M  V30 166 H 12.669 4.04664 -2.7221 0
M  V30 167 H 11.674 2.85797 -4.69681 0
M  V30 168 H 12.899 3.5937 -5.76221 0
M  V30 169 H 10.845 5.11259 -4.11036 0
M  V30 170 H 10.762 4.8276 -5.81789 0
M  V30 171 H 12.03 5.82857 -5.17588 0
M  V30 172 N 16.2591 1.48442 0.529413 0
M  V30 173 C 17.2061 1.63007 1.63394 0
M  V30 174 C 18.1761 0.47212 1.59249 0
M  V30 175 O 19.3611 0.695673 1.77666 0
M  V30 176 C 16.5011 1.6763 3.01653 0
M  V30 177 C 15.6141 2.94535 3.16027 0
M  V30 178 C 14.7491 2.90316 4.44849 0
M  V30 179 C 13.7881 4.11923 4.52754 0
M  V30 180 N 12.9251 4.05777 5.72965 0
M  V30 181 H 17.7651 2.5733 1.50285 0
M  V30 182 H 15.3021 1.27613 0.731656 0
M  V30 183 H 17.2601 1.68292 3.81751 0
M  V30 184 H 15.8901 0.76797 3.13532 0
M  V30 185 H 14.9421 3.03615 2.29177 0
M  V30 186 H 16.2541 3.84512 3.17729 0
M  V30 187 H 15.4081 2.89382 5.33238 0
M  V30 188 H 14.1471 1.98068 4.45668 0
M  V30 189 H 13.1521 4.13131 3.62771 0
M  V30 190 H 14.3771 5.0533 4.53672 0
M  V30 191 H 12.3231 3.16351 5.74681 0
M  V30 192 H 12.2401 4.8946 5.76164 0
M  V30 193 H 13.5081 4.08904 6.6364 0
M  V30 194 N 17.7372 -0.778329 1.37039 0
M  V30 195 C 19.0142 -1.52551 1.22424 0
M  V30 196 C 19.3942 -2.10288 -0.184964 0
M  V30 197 O 18.7422 -1.94953 -1.19187 0
M  V30 198 C 18.9522 -2.61164 2.31504 0
M  V30 199 C 20.3002 -3.28746 2.68721 0
M  V30 200 O 21.3242 -2.71455 2.30631 0
M  V30 201 O 20.1832 -4.3231 3.3432 0
M  V30 202 H 17.2772 -0.675343 0.477326 0
M  V30 203 H 19.8232 -0.815859 1.48801 0
M  V30 204 H 18.5952 -2.16574 3.25901 0
M  V30 205 H 18.2182 -3.39737 2.06554 0
M  V30 206 N 19.2153 -1.21501 -1.00376 0
M  V30 207 C 20.4613 -1.03452 -1.74429 0
M  V30 208 C 20.7943 0.430764 -1.89362 0
M  V30 209 O 20.0693 1.31962 -1.42886 0
M  V30 210 C 20.3523 -1.73375 -3.15615 0
M  V30 211 C 20.2053 -3.27431 -3.08397 0
M  V30 212 C 21.5243 -1.47732 -4.14564 0
M  V30 213 H 18.6433 -0.377226 -0.633143 0
M  V30 214 H 21.2853 -1.49693 -1.17013 0
M  V30 215 H 19.4353 -1.34064 -3.64636 0
M  V30 216 H 21.1073 -3.76119 -2.67081 0
M  V30 217 H 19.3503 -3.5767 -2.45468 0
M  V30 218 H 20.0213 -3.71524 -4.08258 0
M  V30 219 H 22.4973 -1.8186 -3.74254 0
M  V30 220 H 21.3733 -1.99169 -5.11491 0
M  V30 221 H 21.6343 -0.407589 -4.40217 0
M  V30 222 N 20.6934 1.19889 -1.02296 0
M  V30 223 C 21.9184 1.9393 -0.735237 0
M  V30 224 C 22.3434 1.74639 0.698782 0
M  V30 225 O 21.7014 1.04481 1.48167 0
M  V30 226 C 21.7494 3.43916 -1.08417 0
M  V30 227 O 20.8534 4.11917 -0.199446 0
M  V30 228 H 20.1944 0.605645 -0.272196 0
M  V30 229 H 22.7244 1.52137 -1.36804 0
M  V30 230 H 22.7344 3.9456 -1.03856 0
M  V30 231 H 21.4094 3.5728 -2.12894 0
M  V30 232 H 19.9864 3.71666 -0.303136 0
M  V30 233 N 22.1715 0.800033 1.35784 0
M  V30 234 C 23.3965 0.388511 2.03729 0
M  V30 235 C 23.8215 -0.990481 1.5991 0
M  V30 236 O 23.1795 -1.64013 0.772612 0
M  V30 237 C 23.2275 0.4726 3.5749 0
M  V30 238 O 22.3315 -0.51646 4.09153 0
M  V30 239 H 21.6725 0.163271 0.643614 0
M  V30 240 H 24.2025 1.0841 1.73518 0
M  V30 241 H 24.2125 0.34003 4.06581 0
M  V30 242 H 22.8875 1.47848 3.88734 0
M  V30 243 H 21.4645 -0.344673 3.71304 0
M  V30 244 N 23.6496 -1.47581 0.552962 0
M  V30 245 C 25.0606 -1.86324 0.118463 0
M  V30 246 C 25.4116 -1.46006 -1.3106 0
M  V30 247 O 24.5366 -0.861182 -1.98526 0
M  V30 248 C 25.1316 -3.3816 0.20821 0
M  V30 249 C 23.6906 -3.7601 -0.171226 0
M  V30 250 C 22.8376 -2.71634 0.557686 0
M  V30 251 H 25.7886 -1.39159 0.762928 0
M  V30 252 H 25.8096 -3.76141 -0.574278 0
M  V30 253 H 25.3216 -3.67473 1.24841 0
M  V30 254 H 23.4226 -3.52313 -1.21269 0
M  V30 255 H 23.5356 -4.78745 0.184379 0
M  V30 256 H 21.8996 -2.547 0.00125792 0
M  V30 257 H 22.6826 -3.0379 1.59896 0
M  V30 258 N 25.1277 -0.289203 -1.54924 0
M  V30 259 C 26.3757 0.322879 -1.99504 0
M  V30 260 C 26.6967 1.55313 -1.1791 0
M  V30 261 O 25.9667 1.94001 -0.272097 0
M  V30 262 H 24.5467 0.122291 -0.736922 0
M  V30 263 H 27.2087 -0.397802 -1.90797 0
M  V30 264 H 26.3047 0.603061 -3.06218 0
M  V30 265 N 26.6058 1.57591 -0.0167156 0
M  V30 266 C 27.8538 1.90906 0.663285 0
M  V30 267 C 28.1748 0.892509 1.73376 0
M  V30 268 O 27.4448 -0.0677623 1.95783 0
M  V30 269 H 26.0248 0.704637 0.247983 0
M  V30 270 H 28.6868 1.94803 -0.0615909 0
M  V30 271 H 27.7828 2.9116 1.12393 0
M  V30 272 N 28.0839 -0.256276 1.55502 0
M  V30 273 C 29.3089 -1.00766 1.81276 0
M  V30 274 C 29.7339 -1.78524 0.59252 0
M  V30 275 O 29.0919 -1.75413 -0.45827 0
M  V30 276 C 29.1399 -1.92869 3.04687 0
M  V30 277 O 28.2439 -3.019 2.80945 0
M  V30 278 H 27.5849 -0.287224 0.598664 0
M  V30 279 H 30.1149 -0.280109 2.02674 0
M  V30 280 H 30.1249 -2.34511 3.33869 0
M  V30 281 H 28.7999 -1.35689 3.93143 0
M  V30 282 H 27.3769 -2.64454 2.62904 0
M  V30 283 N 29.562 -1.4872 -0.521534 0
M  V30 284 C 30.81 -1.56857 -1.27437 0
M  V30 285 C 31.131 -0.247982 -1.93417 0
M  V30 286 O 30.401 0.731151 -1.81744 0
M  V30 287 H 28.981 -0.577885 -0.473347 0
M  V30 288 H 31.643 -1.85233 -0.606205 0
M  V30 289 H 30.739 -2.35402 -2.0492 0
M  V30 290 N 31.0401 0.771051 -1.3745 0
M  V30 291 C 32.2881 1.52661 -1.32435 0
M  V30 292 C 32.6091 1.9479 0.0905024 0
M  V30 293 O 31.8791 1.66348 1.03466 0
M  V30 294 H 30.4591 0.566218 -0.487244 0
M  V30 295 H 33.1211 0.917636 -1.71946 0
M  V30 296 H 32.2171 2.42568 -1.96385 0
M  V30 297 N 32.5182 1.22032 0.997298 0
M  V30 298 C 33.4652 0.986467 2.08656 0
M  V30 299 C 34.4352 -0.0902671 1.65855 0
M  V30 300 O 35.6202 0.0584294 1.90711 0
M  V30 301 C 32.7602 0.565569 3.40434 0
M  V30 302 C 31.8732 1.71259 3.96604 0
M  V30 303 C 31.0082 1.24011 5.16522 0
M  V30 304 C 30.0472 2.35896 5.64818 0
M  V30 305 N 29.1842 1.89726 6.7598 0
M  V30 306 H 34.0242 1.91892 2.27994 0
M  V30 307 H 31.5612 0.956199 1.11782 0
M  V30 308 H 33.5192 0.302738 4.161 0
M  V30 309 H 32.1492 -0.329879 3.2111 0
M  V30 310 H 31.2012 2.08986 3.17851 0
M  V30 311 H 32.5132 2.55436 4.28432 0
M  V30 312 H 31.6672 0.934395 5.99461 0
M  V30 313 H 30.4062 0.368487 4.86306 0
M  V30 314 H 29.4112 2.67261 4.8047 0
M  V30 315 H 30.6362 3.23567 5.97061 0
M  V30 316 H 28.5822 1.0492 6.47555 0
M  V30 317 H 28.4992 2.67471 7.07103 0
M  V30 318 H 29.7672 1.62211 7.62435 0
M  V30 319 N 33.9963 -1.19345 1.0293 0
M  V30 320 C 34.9433 -2.2258 0.610464 0
M  V30 321 C 35.9133 -1.6179 -0.375946 0
M  V30 322 O 37.0983 -1.88844 -0.272511 0
M  V30 323 C 34.2383 -3.45085 -0.0321473 0
M  V30 324 C 33.3513 -4.20258 1.00035 0
M  V30 325 C 32.4863 -5.3019 0.32746 0
M  V30 326 C 31.5253 -5.97121 1.34584 0
M  V30 327 N 30.6623 -6.98615 0.698726 0
M  V30 328 H 35.5023 -2.57764 1.49538 0
M  V30 329 H 33.0393 -1.26644 0.748311 0
M  V30 330 H 34.9973 -4.15061 -0.421966 0
M  V30 331 H 33.6273 -3.10555 -0.88064 0
M  V30 332 H 32.6793 -3.49223 1.50823 0
M  V30 333 H 33.9913 -4.66175 1.77433 0
M  V30 334 H 33.1453 -6.06587 -0.11718 0
M  V30 335 H 31.8843 -4.85345 -0.478713 0
M  V30 336 H 30.8893 -5.19474 1.80074 0
M  V30 337 H 32.1143 -6.4405 2.15352 0
M  V30 338 H 30.0603 -6.55942 -0.0873471 0
M  V30 339 H 29.9773 -7.42724 1.41058 0
M  V30 340 H 31.2453 -7.79004 0.278102 0
M  V30 341 N 35.4744 -0.807222 -1.35358 0
M  V30 342 C 36.4224 -0.20614 -2.31685 0
M  V30 343 C 37.4164 0.644445 -1.56663 0
M  V30 344 O 38.6224 0.537538 -1.71786 0
M  V30 345 H 34.9974 -0.0479006 -0.750473 0
M  V30 346 H 36.9684 -1.03369 -2.79924 0
M  V30 347 C 35.7174 0.630212 -3.41941 0
M  V30 348 H 35.0404 -0.0149558 -3.99797 0
M  V30 349 H 36.4804 1.01716 -4.11619 0
M  V30 350 C 34.9394 1.79601 -2.85035 0
M  V30 351 O 35.4694 2.89351 -2.78637 0
M  V30 352 N 33.6754 1.60774 -2.42074 0
M  V30 353 H 33.2224 0.715009 -2.47478 0
M  V30 354 H 33.1804 2.38933 -2.04349 0
M  V30 355 N 36.9525 1.47285 -0.560781 0
M  V30 356 C 37.9155 2.28535 0.174488 0
M  V30 357 C 38.9155 1.37153 0.839388 0
M  V30 358 O 40.1055 1.59748 0.694702 0
M  V30 359 C 37.2375 3.16934 1.25561 0
M  V30 360 H 38.4305 2.95012 -0.539262 0
M  V30 361 H 35.9835 1.53034 -0.317865 0
M  V30 362 H 36.7185 2.55157 2.00164 0
M  V30 363 H 36.5035 3.8419 0.783604 0
M  V30 364 H 37.9935 3.78143 1.77193 0
M  V30 365 N 38.4306 0.297415 1.54768 0
M  V30 366 C 39.6556 -0.318435 2.04941 0
M  V30 367 C 40.0806 -1.4701 1.17345 0
M  V30 368 O 39.4386 -1.80436 0.176758 0
M  V30 369 C 39.4866 -0.755749 3.52592 0
M  V30 370 O 38.5906 -1.86088 3.68028 0
M  V30 371 H 37.9316 -0.062421 0.661059 0
M  V30 372 H 40.4616 0.438215 1.99852 0
M  V30 373 H 40.4716 -1.04552 3.94376 0
M  V30 374 H 39.1466 0.0867233 4.1581 0
M  V30 375 H 37.7236 -1.57193 3.38149 0
M  V30 376 N 39.9087 -1.5758 0.0250728 0
M  V30 377 C 40.8407 -2.06869 -0.986796 0
M  V30 378 C 41.8537 -0.991332 -1.29137 0
M  V30 379 O 43.0427 -1.26761 -1.25674 0
M  V30 380 C 40.1427 -2.47486 -2.31525 0
M  V30 381 C 39.3157 -3.78253 -2.19643 0
M  V30 382 C 38.3747 -4.05464 -3.35388 0
M  V30 383 O 37.4007 -4.75774 -3.12454 0
M  V30 384 N 38.6027 -3.55321 -4.59051 0
M  V30 385 H 41.3677 -2.94302 -0.566276 0
M  V30 386 H 38.9287 -1.6109 -0.161776 0
M  V30 387 H 40.9207 -2.62785 -3.07776 0
M  V30 388 H 39.4907 -1.65441 -2.65232 0
M  V30 389 H 38.7107 -3.7279 -1.28144 0
M  V30 390 H 39.9987 -4.63936 -2.08903 0
M  V30 391 H 39.3967 -2.98431 -4.80578 0
M  V30 392 H 37.9537 -3.75905 -5.32483 0
M  V30 393 N 41.3868 0.248026 -1.55636 0
M  V30 394 C 42.3338 1.30707 -1.90222 0
M  V30 395 C 43.3038 1.47881 -0.756332 0
M  V30 396 O 44.4888 1.61883 -1.00988 0
M  V30 397 C 41.6288 2.65769 -2.20138 0
M  V30 398 C 40.7418 2.56612 -3.47526 0
M  V30 399 C 39.8768 3.8402 -3.67017 0
M  V30 400 C 38.9158 3.69476 -4.8801 0
M  V30 401 N 38.0528 4.88774 -5.04029 0
M  V30 402 H 42.8928 1.00512 -2.80538 0
M  V30 403 H 40.4298 0.485055 -1.38873 0
M  V30 404 H 42.3878 3.44386 -2.35487 0
M  V30 405 H 41.0178 2.94115 -1.33027 0
M  V30 406 H 40.0698 1.69571 -3.40514 0
M  V30 407 H 41.3818 2.41774 -4.36287 0
M  V30 408 H 40.5358 4.7108 -3.8232 0
M  V30 409 H 39.2748 4.01754 -2.76487 0
M  V30 410 H 38.2798 2.80799 -4.72686 0
M  V30 411 H 39.5048 3.53238 -5.8 0
M  V30 412 H 37.4508 5.0687 -4.16435 0
M  V30 413 H 37.3678 4.76562 -5.86877 0
M  V30 414 H 38.6358 5.77335 -5.23741 0
M  V30 415 N 42.8649 1.48995 0.513639 0
M  V30 416 C 44.2809 1.35478 0.843682 0
M  V30 417 C 44.4809 0.378213 1.97919 0
M  V30 418 O 43.5369 -0.194689 2.51748 0
M  V30 419 C 44.8499 2.75901 1.1958 0
M  V30 420 C 46.3979 2.84509 1.30474 0
M  V30 421 C 46.8729 4.25671 1.69021 0
M  V30 422 N 48.3639 4.28422 1.76094 0
M  V30 423 C 49.0989 5.34601 2.07338 0
M  V30 424 N 48.5949 6.5104 2.36894 0
M  V30 425 N 50.3879 5.22007 2.08483 0
M  V30 426 H 42.5389 2.11092 -0.235328 0
M  V30 427 H 44.8019 0.947039 -0.0426669 0
M  V30 428 H 44.5079 3.49001 0.434913 0
M  V30 429 H 44.3819 3.10467 2.1422 0
M  V30 430 H 46.7689 2.11655 2.05637 0
M  V30 431 H 46.8499 2.53542 0.339155 0
M  V30 432 H 46.4939 4.99048 0.944135 0
M  V30 433 H 46.4239 4.54094 2.66658 0
M  V30 434 H 48.9149 3.44441 1.55464 0
M  V30 435 H 49.2279 7.2779 2.59887 0
M  V30 436 H 47.5729 6.54287 2.34378 0
M  V30 437 H 50.7639 4.30051 1.84861 0
M  V30 438 H 50.9369 6.04854 2.325 0
M  V30 439 N 44.343 -0.763751 1.37857 0
M  V30 440 C 45.759 -1.06542 1.18832 0
M  V30 441 C 45.959 -2.01478 0.0299722 0
M  V30 442 O 45.015 -2.4458 -0.627447 0
M  V30 443 C 46.328 -1.65525 2.51042 0
M  V30 444 C 47.876 -1.77745 2.57635 0
M  V30 445 C 48.351 -2.4014 3.89996 0
M  V30 446 N 49.842 -2.47582 3.91481 0
M  V30 447 C 50.577 -2.96732 4.9065 0
M  V30 448 N 50.073 -3.45993 6.00217 0
M  V30 449 N 51.866 -2.95679 4.78048 0
M  V30 450 H 44.017 -0.133556 2.1198 0
M  V30 451 H 46.28 -0.121879 0.940133 0
M  V30 452 H 45.986 -1.03236 3.36207 0
M  V30 453 H 45.86 -2.64719 2.68707 0
M  V30 454 H 48.247 -2.39164 1.72872 0
M  V30 455 H 48.328 -0.772836 2.43846 0
M  V30 456 H 47.972 -1.79358 4.75177 0
M  V30 457 H 47.902 -3.41223 4.01092 0
M  V30 458 H 50.393 -2.1273 3.12337 0
M  V30 459 H 50.706 -3.81922 6.7183 0
M  V30 460 H 49.051 -3.44077 6.03851 0
M  V30 461 H 52.242 -2.56499 3.91568 0
M  V30 462 H 52.415 -3.33672 5.55488 0
M  V30 463 N 45.8211 -1.22559 -0.990812 0
M  V30 464 C 47.0461 -1.07862 -1.77145 0
M  V30 465 C 47.4711 0.366447 -1.84496 0
M  V30 466 O 46.8291 1.26478 -1.29896 0
M  V30 467 C 46.8771 -1.69686 -3.18181 0
M  V30 468 O 45.9811 -0.951946 -4.01263 0
M  V30 469 H 45.3221 -0.378712 -0.545411 0
M  V30 470 H 47.8521 -1.62399 -1.2445 0
M  V30 471 H 47.8621 -1.74496 -3.68802 0
M  V30 472 H 46.5371 -2.74841 -3.12146 0
M  V30 473 H 45.1141 -0.980011 -3.59792 0
M  V30 474 N 47.2992 1.18797 -1.03562 0
M  V30 475 C 48.2292 2.24472 -0.643019 0
M  V30 476 C 49.2102 1.66433 0.351283 0
M  V30 477 O 50.3952 1.92803 0.232505 0
M  V30 478 C 47.5252 3.473 4.24935e-05 0
M  V30 479 C 46.4792 4.18055 -0.917257 0
M  V30 480 C 45.8052 5.34519 -0.138941 0
M  V30 481 C 47.1052 4.72109 -2.23407 0
M  V30 482 H 48.7992 2.57566 -1.52643 0
M  V30 483 H 46.3452 1.23806 -0.735394 0
M  V30 484 H 48.2982 4.20426 0.286383 0
M  V30 485 H 47.0222 3.13424 0.918299 0
M  V30 486 H 45.6812 3.46821 -1.1879 0
M  V30 487 H 45.3292 4.96891 0.781562 0
M  V30 488 H 45.0292 5.82794 -0.750005 0
M  V30 489 H 46.5532 6.10438 0.1405 0
M  V30 490 H 47.9672 5.36955 -2.00879 0
M  V30 491 H 46.3642 5.30897 -2.79765 0
M  V30 492 H 47.4342 3.89807 -2.88407 0
M  V30 493 N 48.7773 0.814389 1.34928 0
M  V30 494 C 50.1933 0.499084 1.51596 0
M  V30 495 C 50.3933 -0.978319 1.76157 0
M  V30 496 O 49.4493 -1.76309 1.80752 0
M  V30 497 C 50.7623 1.35121 2.68631 0
M  V30 498 C 52.3103 1.34746 2.82511 0
M  V30 499 C 52.7853 2.18388 4.0258 0
M  V30 500 N 54.2763 2.15966 4.09772 0
M  V30 501 C 55.0113 2.77437 5.01813 0
M  V30 502 N 54.5073 3.47866 5.99134 0
M  V30 503 N 56.3003 2.67037 4.94619 0
M  V30 504 H 48.4513 1.7711 1.17243 0
M  V30 505 H 50.7143 0.754256 0.574284 0
M  V30 506 H 50.4203 2.40001 2.57085 0
M  V30 507 H 50.2943 1.00991 3.63429 0
M  V30 508 H 52.6813 0.30648 2.93504 0
M  V30 509 H 52.7623 1.72869 1.88547 0
M  V30 510 H 52.4063 3.2253 3.92347 0
M  V30 511 H 52.3363 1.77621 4.9574 0
M  V30 512 H 54.8273 1.64729 3.40107 0
M  V30 513 H 55.1403 3.92038 6.65977 0
M  V30 514 H 53.4853 3.51972 5.99284 0
M  V30 515 H 56.6763 2.11597 4.17546 0
M  V30 516 H 56.8493 3.15232 5.66156 0
M  V30 517 N 50.2554 -1.46986 0.568584 0
M  V30 518 C 51.5014 -2.02741 0.0488709 0
M  V30 519 C 51.8344 -1.44077 -1.30214 0
M  V30 520 O 51.1094 -0.600552 -1.84996 0
M  V30 521 C 51.3924 -3.60086 -0.032047 0
M  V30 522 C 51.2454 -4.29162 1.34686 0
M  V30 523 C 52.5644 -4.33838 -0.739798 0
M  V30 524 H 49.6834 -0.736749 0.0192338 0
M  V30 525 H 52.3254 -1.75289 0.733065 0
M  V30 526 H 50.4754 -3.83606 -0.61473 0
M  V30 527 H 52.1474 -4.16948 1.97362 0
M  V30 528 H 50.3904 -3.89073 1.91846 0
M  V30 529 H 51.0614 -5.37826 1.24285 0
M  V30 530 H 53.5374 -4.15378 -0.244939 0
M  V30 531 H 52.4134 -5.43537 -0.765406 0
M  V30 532 H 52.6744 -4.03875 -1.79827 0
M  V30 533 N 51.7335 -0.305618 -1.54608 0
M  V30 534 C 52.6835 0.583595 -2.20405 0
M  V30 535 C 53.6675 1.09539 -1.17856 0
M  V30 536 O 54.8595 1.0354 -1.43557 0
M  V30 537 C 51.9885 1.75277 -2.95183 0
M  V30 538 C 51.0745 1.25672 -4.05052 0
M  V30 539 N 51.4655 0.478998 -5.03527 0
M  V30 540 C 49.7635 1.53704 -4.18678 0
M  V30 541 C 50.4645 0.214269 -5.81305 0
M  V30 542 N 49.4405 0.795374 -5.3775 0
M  V30 543 H 53.2425 -0.0180946 -2.93894 0
M  V30 544 H 50.7565 -0.110601 -1.62023 0
M  V30 545 H 52.7535 2.4014 -3.40791 0
M  V30 546 H 51.4135 2.35812 -2.23211 0
M  V30 547 H 52.4245 0.123473 -5.17753 0
M  V30 548 H 49.1015 2.14954 -3.57912 0
M  V30 549 H 50.4915 -0.410656 -6.70644 0
M  V30 550 N 53.2116 1.57565 -0.0334293 0
M  V30 551 C 54.4606 1.91155 0.643639 0
M  V30 552 C 54.7736 0.91192 1.73042 0
M  V30 553 O 55.9796 1.13923 2.46442 0
M  V30 554 C 54.4356 3.39443 1.1961 0
M  V30 555 C 54.0436 4.47774 0.142381 0
M  V30 556 C 55.7876 3.82094 1.84944 0
M  V30 557 C 53.6946 5.87162 0.706727 0
M  V30 558 H 52.6246 0.713368 0.244176 0
M  V30 559 H 55.2756 1.8323 -0.0994323 0
M  V30 560 H 53.6576 3.42313 1.99092 0
M  V30 561 H 54.8316 4.56469 -0.630296 0
M  V30 562 H 53.1466 4.14352 -0.412446 0
M  V30 563 H 55.7436 4.83591 2.2813 0
M  V30 564 H 56.0866 3.17386 2.69392 0
M  V30 565 H 56.6196 3.81665 1.12145 0
M  V30 566 H 53.3586 6.55424 -0.0997178 0
M  V30 567 H 52.8786 5.82064 1.44779 0
M  V30 568 H 54.5576 6.35866 1.19514 0
M  V30 569 N 54.6897 -0.239769 1.55765 0
M  V30 570 C 56.1007 -0.808263 1.68297 0
M  V30 571 C 56.4517 -1.85736 0.632181 0
M  V30 572 O 55.5767 -2.15277 -0.220204 0
M  V30 573 C 56.1717 -1.47284 3.05111 0
M  V30 574 C 54.7307 -1.98895 3.19559 0
M  V30 575 C 53.8777 -0.842575 2.64189 0
M  V30 576 H 56.8287 -0.0154422 1.58692 0
M  V30 577 H 56.8497 -2.34111 2.99954 0
M  V30 578 H 56.3617 -0.709053 3.81568 0
M  V30 579 H 54.4627 -2.78132 2.47938 0
M  V30 580 H 54.5757 -2.18143 4.26556 0
M  V30 581 H 52.9397 -1.24501 2.22197 0
M  V30 582 H 53.7227 -0.0917552 3.43177 0
M  V30 583 N 56.1678 -1.49265 -0.50573 0
M  V30 584 C 57.4448 -1.49012 -1.26707 0
M  V30 585 C 57.8248 -0.215205 -2.1 0
M  V30 586 O 57.1728 0.802547 -2.13943 0
M  V30 587 C 57.3828 -2.7663 -2.12783 0
M  V30 588 C 58.7308 -3.25932 -2.72127 0
M  V30 589 O 59.7548 -2.77715 -2.23054 0
M  V30 590 O 58.6138 -4.09897 -3.61451 0
M  V30 591 H 55.7078 -0.596197 -0.57313 0
M  V30 592 H 58.2538 -1.61524 -0.52039 0
M  V30 593 H 57.0258 -3.60916 -1.5118 0
M  V30 594 H 56.6488 -2.66956 -2.94653 0
M  V30 595 N 57.6459 0.756429 -1.3826 0
M  V30 596 C 58.5759 1.88374 -1.37976 0
M  V30 597 C 59.5569 1.68311 -0.246082 0
M  V30 598 O 60.7419 1.88944 -0.44874 0
M  V30 599 C 57.8719 3.25864 -1.20125 0
M  V30 600 C 56.8259 3.60523 -2.30666 0
M  V30 601 C 56.1519 4.9672 -1.97923 0
M  V30 602 C 57.4519 3.65692 -3.72916 0
M  V30 603 H 59.1459 1.88869 -2.32312 0
M  V30 604 H 56.6919 0.907272 -1.11824 0
M  V30 605 H 58.6449 4.0438 -1.18552 0
M  V30 606 H 57.3689 3.25841 -0.222498 0
M  V30 607 H 56.0279 2.84324 -2.3142 0
M  V30 608 H 55.6759 4.93253 -0.985393 0
M  V30 609 H 55.3759 5.20878 -2.71955 0
M  V30 610 H 56.8999 5.77618 -1.97964 0
M  V30 611 H 58.3139 4.34328 -3.74208 0
M  V30 612 H 56.7109 4.01358 -4.4613 0
M  V30 613 H 57.7809 2.65987 -4.05436 0
M  V30 614 N 59.124 1.23083 0.984299 0
M  V30 615 C 60.349 1.088 1.76571 0
M  V30 616 C 60.774 -0.356657 1.84688 0
M  V30 617 O 60.132 -1.25788 1.30565 0
M  V30 618 C 60.18 1.71371 3.17277 0
M  V30 619 O 59.284 0.973213 4.00752 0
M  V30 620 H 58.625 0.381599 0.543395 0
M  V30 621 H 61.155 1.63057 1.23587 0
M  V30 622 H 61.165 1.76449 3.67872 0
M  V30 623 H 59.84 2.76493 3.10684 0
M  V30 624 H 58.417 0.999078 3.59267 0
M  V30 625 N 60.6021 -1.18246 1.0419 0
M  V30 626 C 61.8271 -1.92736 0.765996 0
M  V30 627 C 62.2521 -1.75728 -0.67091 0
M  V30 628 O 61.6101 -1.06825 -1.46486 0
M  V30 629 C 61.6581 -3.42148 1.13875 0
M  V30 630 O 60.7621 -4.11548 0.264954 0
M  V30 631 H 60.1031 -0.601238 0.281797 0
M  V30 632 H 62.6331 -1.49942 1.39207 0
M  V30 633 H 62.6431 -3.92858 1.1012 0
M  V30 634 H 61.3181 -3.53848 2.18551 0
M  V30 635 H 59.8951 -3.71137 0.362226 0
M  V30 636 N 62.0802 -0.821533 -1.34494 0
M  V30 637 C 63.3272 -0.408946 -1.98328 0
M  V30 638 C 63.6552 1.02764 -1.65136 0
M  V30 639 O 62.9102 1.73026 -0.914349 0
M  V30 640 C 63.2092 -0.556512 -3.53041 0
M  V30 641 C 62.8752 -1.95861 -4.0614 0
M  V30 642 C 61.5372 -2.34217 -4.20352 0
M  V30 643 C 63.8892 -2.87523 -4.34718 0
M  V30 644 C 61.2172 -3.63572 -4.6047 0
M  V30 645 C 63.5692 -4.1634 -4.76281 0
M  V30 646 C 62.2332 -4.54675 -4.88699 0
M  V30 647 H 61.5032 -0.149644 -0.725732 0
M  V30 648 H 64.1502 -1.04521 -1.6046 0
M  V30 649 H 62.4552 0.163148 -3.9146 0
M  V30 650 H 64.1522 -0.217826 -4.00408 0
M  V30 651 H 60.7422 -1.65066 -3.95539 0
M  V30 652 H 64.9262 -2.59133 -4.23277 0
M  V30 653 H 60.1822 -3.93101 -4.68275 0
M  V30 654 H 64.3562 -4.87455 -4.97354 0
M  V30 655 H 61.9832 -5.54959 -5.19542 0
M  V30 656 N 63.5583 1.46682 -0.576371 0
M  V30 657 C 64.5213 2.28707 0.150239 0
M  V30 658 C 65.5213 1.38035 0.824794 0
M  V30 659 O 66.7113 1.60476 0.677719 0
M  V30 660 C 63.8433 3.18248 1.22192 0
M  V30 661 H 65.0363 2.94423 -0.570521 0
M  V30 662 H 62.5893 1.52688 -0.334078 0
M  V30 663 H 63.3243 2.57265 1.97447 0
M  V30 664 H 63.1093 3.85 0.742812 0
M  V30 665 H 64.5993 3.80001 1.73172 0
M  V30 666 N 65.0364 0.313813 1.54444 0
M  V30 667 C 65.9694 -0.598866 2.20202 0
M  V30 668 C 66.9474 -1.12318 1.17573 0
M  V30 669 O 68.1314 -1.18899 1.46271 0
M  V30 670 C 65.2584 -1.82071 2.85601 0
M  V30 671 C 64.3044 -1.42851 4.01865 0
M  V30 672 S 65.1374 -0.473512 5.33402 0
M  V30 673 C 66.2934 -1.70286 6.0229 0
M  V30 674 H 66.5264 -0.0402532 2.97273 0
M  V30 675 H 64.0594 0.0979165 1.54089 0
M  V30 676 H 66.0174 -2.52184 3.23904 0
M  V30 677 H 64.6784 -2.3505 2.08351 0
M  V30 678 H 63.8714 -2.33871 4.46453 0
M  V30 679 H 63.4734 -0.807198 3.65185 0
M  V30 680 H 65.7654 -2.64168 6.23876 0
M  V30 681 H 66.7084 -1.29932 6.96077 0
M  V30 682 H 67.1164 -1.88541 5.32083 0
M  V30 683 N 66.5145 -1.57545 0.0417849 0
M  V30 684 C 67.9255 -1.80011 -0.495259 0
M  V30 685 C 68.2765 -0.953199 -1.71489 0
M  V30 686 O 67.4015 -0.167138 -2.15754 0
M  V30 687 C 67.9965 -3.26482 -0.905265 0
M  V30 688 C 66.5555 -3.499 -1.38734 0
M  V30 689 C 65.7025 -2.74979 -0.358056 0
M  V30 690 H 68.6535 -1.56425 0.267736 0
M  V30 691 H 68.6745 -3.36887 -1.76882 0
M  V30 692 H 68.1865 -3.88096 -0.017401 0
M  V30 693 H 66.2875 -2.93553 -2.29471 0
M  V30 694 H 66.4005 -4.58615 -1.38598 0
M  V30 695 H 64.7645 -2.40834 -0.828912 0
M  V30 696 H 65.5475 -3.39315 0.521561 0
M  V30 697 N 67.9926 0.231505 -1.5589 0
M  V30 698 C 68.9226 1.29022 -1.94617 0
M  V30 699 C 69.9036 1.4941 -0.813067 0
M  V30 700 O 71.0886 1.6176 -1.07459 0
M  V30 701 C 68.2186 2.64199 -2.25424 0
M  V30 702 C 67.1726 2.58484 -3.41131 0
M  V30 703 C 66.4986 3.97599 -3.57518 0
M  V30 704 C 67.7986 2.1413 -4.76388 0
M  V30 705 H 69.4926 0.968563 -2.83301 0
M  V30 706 H 67.0386 0.464479 -1.36303 0
M  V30 707 H 68.9916 3.38413 -2.51107 0
M  V30 708 H 67.7156 2.98032 -1.33583 0
M  V30 709 H 66.3746 1.86727 -3.15481 0
M  V30 710 H 66.0226 4.28723 -2.6307 0
M  V30 711 H 65.7226 3.94659 -4.35337 0
M  V30 712 H 67.2466 4.7349 -3.85538 0
M  V30 713 H 68.6606 2.78083 -5.01341 0
M  V30 714 H 67.0576 2.2227 -5.57419 0
M  V30 715 H 68.1276 1.09331 -4.72414 0
M  V30 716 N 69.4707 1.49531 0.497807 0
M  V30 717 C 70.4007 1.6935 1.60757 0
M  V30 718 C 71.3817 0.542218 1.61227 0
M  V30 719 O 72.5667 0.778417 1.77917 0
M  V30 720 C 69.6967 1.76298 2.99226 0
M  V30 721 C 68.6507 2.91248 3.13622 0
M  V30 722 C 67.9767 2.83312 4.53474 0
M  V30 723 C 69.2767 4.3214 2.93346 0
M  V30 724 H 70.9707 2.62263 1.44425 0
M  V30 725 H 68.5167 1.26208 0.693367 0
M  V30 726 H 70.4697 1.88749 3.76765 0
M  V30 727 H 69.1937 0.799871 3.16654 0
M  V30 728 H 67.8527 2.78404 2.38509 0
M  V30 729 H 67.5007 1.84902 4.67782 0
M  V30 730 H 67.2007 3.60465 4.64046 0
M  V30 731 H 68.7247 2.97775 5.33069 0
M  V30 732 H 70.1387 4.45649 3.60652 0
M  V30 733 H 68.5357 5.1054 3.15387 0
M  V30 734 H 69.6057 4.46363 1.89441 0
M  V30 735 N 70.9488 -0.749086 1.3866 0
M  V30 736 C 72.2258 -1.4992 1.25632 0
M  V30 737 C 72.6058 -2.10633 -0.140317 0
M  V30 738 O 71.9538 -1.97437 -1.15025 0
M  V30 739 C 72.1638 -2.56195 2.36992 0
M  V30 740 C 73.5118 -3.22972 2.75634 0
M  V30 741 O 74.5358 -2.66502 2.36337 0
M  V30 742 O 73.3948 -4.25122 3.43415 0
M  V30 743 H 70.4888 -0.665067 0.491544 0
M  V30 744 H 73.0348 -0.784113 1.50498 0
M  V30 745 H 71.8068 -2.09612 3.30422 0
M  V30 746 H 71.4298 -3.35279 2.13714 0
M  V30 747 N 72.4269 -1.23603 -0.977757 0
M  V30 748 C 73.6749 -1.06759 -1.71601 0
M  V30 749 C 73.9959 0.395929 -1.90938 0
M  V30 750 O 73.2659 1.28356 -1.47992 0
M  V30 751 H 71.8459 -0.392062 -0.635843 0
M  V30 752 H 74.5079 -1.55362 -1.1768 0
M  V30 753 H 73.6039 -1.55763 -2.70452 0
M  V30 754 N 73.905 1.17692 -1.04816 0
M  V30 755 C 75.182 1.83768 -0.669963 0
M  V30 756 C 75.562 1.93232 0.849986 0
M  V30 757 O 74.91 1.46397 1.75443 0
M  V30 758 C 75.12 3.21641 -1.35455 0
M  V30 759 C 76.468 3.97592 -1.49017 0
M  V30 760 O 77.492 3.31107 -1.31326 0
M  V30 761 O 76.351 5.16729 -1.77914 0
M  V30 762 H 73.445 0.792799 -0.235368 0
M  V30 763 H 75.991 1.25021 -1.14751 0
M  V30 764 H 74.763 3.097 -2.39168 0
M  V30 765 H 74.386 3.88052 -0.866107 0
M  V30 766 N 75.3831 0.828654 1.34056 0
M  V30 767 C 76.3131 0.269443 2.3194 0
M  V30 768 C 77.2941 -0.617247 1.58506 0
M  V30 769 O 78.4791 -0.542931 1.86456 0
M  V30 770 C 75.6091 -0.564793 3.42677 0
M  V30 771 C 74.5631 0.225241 4.27407 0
M  V30 772 C 73.8891 -0.7321 5.29664 0
M  V30 773 C 75.1891 1.43663 5.02154 0
M  V30 774 H 76.8831 1.08728 2.7896 0
M  V30 775 H 74.4291 0.524283 1.34117 0
M  V30 776 H 76.3821 -0.966233 4.10173 0
M  V30 777 H 75.1061 -1.41574 2.9432 0
M  V30 778 H 73.7651 0.608117 3.61521 0
M  V30 779 H 73.4131 -1.57916 4.77568 0
M  V30 780 H 73.1131 -0.20767 5.87233 0
M  V30 781 H 74.6371 -1.13128 6.00029 0
M  V30 782 H 76.0511 1.1089 5.62473 0
M  V30 783 H 74.4481 1.89711 5.69324 0
M  V30 784 H 75.5181 2.21181 4.31517 0
M  V30 785 N 76.8612 -1.46375 0.584142 0
M  V30 786 C 77.7712 -2.34115 -0.150728 0
M  V30 787 C 78.7872 -1.49838 -0.884567 0
M  V30 788 O 79.9632 -1.82704 -0.847429 0
M  V30 789 C 77.0282 -3.2705 -1.15062 0
M  V30 790 C 76.0892 -4.27228 -0.421293 0
M  V30 791 C 75.3222 -5.15722 -1.37355 0
M  V30 792 O 75.5452 -5.07176 -2.61014 0
M  V30 793 O 74.4792 -5.95383 -0.883355 0
M  V30 794 H 78.3052 -2.98309 0.569708 0
M  V30 795 H 75.8902 -1.45373 0.344535 0
M  V30 796 H 77.7722 -3.84381 -1.72712 0
M  V30 797 H 76.4472 -2.65451 -1.8525 0
M  V30 798 H 75.3542 -3.7358 0.197085 0
M  V30 799 H 76.6872 -4.91616 0.239641 0
M  V30 800 N 78.3393 -0.321999 -1.54275 0
M  V30 801 C 79.5873 0.280489 -2.00144 0
M  V30 802 C 79.9083 1.52777 -1.21178 0
M  V30 803 O 79.1783 1.9338 -0.313187 0
M  V30 804 H 77.7583 0.106632 -0.73935 0
M  V30 805 H 80.4203 -0.438184 -1.8991 0
M  V30 806 H 79.5163 0.537972 -3.07428 0
M  V30 807 N 79.8174 1.5752 -0.0501392 0
M  V30 808 C 81.0424 1.97376 0.636997 0
M  V30 809 C 81.4674 0.927466 1.63645 0
M  V30 810 O 80.8254 -0.10941 1.8097 0
M  V30 811 C 80.8734 3.36304 1.30123 0
M  V30 812 O 79.9774 3.34156 2.41689 0
M  V30 813 H 79.3184 0.642998 0.165679 0
M  V30 814 H 81.8484 2.04258 -0.118233 0
M  V30 815 H 81.8584 3.73008 1.65315 0
M  V30 816 H 80.5334 4.11993 0.568746 0
M  V30 817 H 79.1104 3.09196 2.08451 0
M  V30 818 N 81.2955 -0.223234 1.56011 0
M  V30 819 C 82.5435 -0.946003 1.78592 0
M  V30 820 C 82.8645 -1.84936 0.618349 0
M  V30 821 O 82.1345 -1.92473 -0.364833 0
M  V30 822 H 80.7145 -0.352298 0.658707 0
M  V30 823 H 83.3765 -0.235494 1.93472 0
M  V30 824 H 82.4725 -1.55381 2.70672 0
M  V30 825 N 82.7736 -1.49793 -0.48987 0
M  V30 826 C 83.7206 -1.67281 -1.59014 0
M  V30 827 C 84.6906 -0.514177 -1.57941 0
M  V30 828 O 85.8756 -0.742533 -1.75759 0
M  V30 829 C 83.0156 -1.75569 -2.97102 0
M  V30 830 C 82.1286 -3.0281 -3.08107 0
M  V30 831 C 81.2636 -3.02008 -4.36995 0
M  V30 832 C 80.3026 -4.23782 -4.41673 0
M  V30 833 N 79.4396 -4.20826 -5.62005 0
M  V30 834 H 84.2796 -2.61224 -1.43409 0
M  V30 835 H 81.8166 -1.29508 -0.697565 0
M  V30 836 H 83.7746 -1.78354 -3.77155 0
M  V30 837 H 82.4046 -0.850827 -3.11385 0
M  V30 838 H 81.4566 -3.09584 -2.21047 0
M  V30 839 H 82.7686 -3.92801 -3.07423 0
M  V30 840 H 81.9226 -3.03418 -5.25378 0
M  V30 841 H 80.6616 -2.09815 -4.4026 0
M  V30 842 H 79.6666 -4.22604 -3.5169 0
M  V30 843 H 80.8916 -5.17181 -4.40115 0
M  V30 844 H 78.8376 -3.31476 -5.66091 0
M  V30 845 H 78.7546 -5.04564 -5.62984 0
M  V30 846 H 80.0226 -4.26355 -6.52565 0
M  V30 847 N 84.2517 0.741722 -1.39055 0
M  V30 848 C 85.2017 1.84661 -1.33732 0
M  V30 849 C 86.1857 1.59397 -0.219401 0
M  V30 850 O 87.3777 1.71015 -0.456375 0
M  V30 851 C 84.5067 3.22512 -1.17647 0
M  V30 852 C 83.5927 3.53628 -2.34112 0
M  V30 853 N 83.9837 3.55723 -3.59576 0
M  V30 854 C 82.2817 3.83956 -2.26923 0
M  V30 855 C 82.9827 3.84443 -4.36553 0
M  V30 856 N 81.9587 4.01877 -3.66055 0
M  V30 857 H 85.7607 1.84576 -2.28711 0
M  V30 858 H 83.2747 0.939647 -1.32455 0
M  V30 859 H 85.2717 4.01597 -1.11917 0
M  V30 860 H 83.9317 3.2384 -0.236124 0
M  V30 861 H 84.9427 3.37196 -3.93089 0
M  V30 862 H 81.6197 3.92929 -1.41113 0
M  V30 863 H 83.0097 3.92588 -5.45274 0
M  V30 864 N 85.7298 1.2412 0.971189 0
M  V30 865 C 86.9548 1.10667 1.75407 0
M  V30 866 C 87.3798 -0.337048 1.85056 0
M  V30 867 O 86.7378 -1.24396 1.31892 0
M  V30 868 C 86.7858 1.74726 3.15441 0
M  V30 869 O 85.8898 1.01566 3.99697 0
M  V30 870 H 85.2308 0.387341 0.539317 0
M  V30 871 H 87.7608 1.64358 1.2185 0
M  V30 872 H 87.7708 1.80341 3.6598 0
M  V30 873 H 86.4458 2.79773 3.07734 0
M  V30 874 H 85.0228 1.03713 3.58187 0
M  V30 875 N 87.2079 -1.17134 1.05439 0
M  V30 876 C 88.4329 -1.91913 0.786396 0
M  V30 877 C 88.8579 -1.7643 -0.652234 0
M  V30 878 O 88.2159 -1.08372 -1.45345 0
M  V30 879 C 88.2639 -3.40921 1.17497 0
M  V30 880 O 87.3679 -4.11244 0.308589 0
M  V30 881 H 86.7089 -0.598215 0.288158 0
M  V30 882 H 89.2389 -1.48457 1.4079 0
M  V30 883 H 89.2489 -3.91668 1.14281 0
M  V30 884 H 87.9239 -3.5151 2.22292 0
M  V30 885 H 86.5009 -3.70731 0.40157 0
M  V30 886 N 88.686 -0.835752 -1.33615 0
M  V30 887 C 90.102 -0.523139 -1.50783 0
M  V30 888 C 90.302 0.950171 -1.77691 0
M  V30 889 O 89.358 1.73411 -1.83534 0
M  V30 890 C 90.671 -1.39378 -2.66448 0
M  V30 891 C 92.219 -1.39223 -2.80332 0
M  V30 892 C 92.694 -2.24765 -3.99055 0
M  V30 893 N 94.185 -2.22458 -4.06284 0
M  V30 894 C 94.92 -2.85386 -4.97336 0
M  V30 895 N 94.416 -3.57354 -5.93523 0
M  V30 896 N 96.209 -2.74872 -4.90308 0
M  V30 897 H 88.36 -1.78952 -1.14411 0
M  V30 898 H 90.623 -0.763297 -0.562212 0
M  V30 899 H 90.329 -2.44061 -2.53234 0
M  V30 900 H 90.203 -1.0676 -3.61776 0
M  V30 901 H 92.59 -0.353136 -2.92979 0
M  V30 902 H 92.671 -1.75846 -1.85773 0
M  V30 903 H 92.315 -3.28732 -3.87167 0
M  V30 904 H 92.245 -1.85485 -4.92852 0
M  V30 905 H 94.736 -1.70119 -3.37443 0
M  V30 906 H 95.049 -4.02584 -6.59656 0
M  V30 907 H 93.394 -3.61461 -5.93608 0
M  V30 908 H 96.585 -2.18213 -4.14126 0
M  V30 909 H 96.758 -3.24199 -5.61069 0
M  V30 910 N 90.1641 1.46063 -0.591896 0
M  V30 911 C 91.1111 2.30399 0.136069 0
M  V30 912 C 92.0811 1.41169 0.875238 0
M  V30 913 O 93.2661 1.70112 0.86409 0
M  V30 914 C 90.4061 3.25804 1.13781 0
M  V30 915 C 89.5191 4.30134 0.401137 0
M  V30 916 C 88.6541 5.12659 1.39121 0
M  V30 917 C 87.6931 6.0873 0.641462 0
M  V30 918 N 86.8301 6.8409 1.58004 0
M  V30 919 H 91.6701 2.92118 -0.589144 0
M  V30 920 H 89.2071 1.43959 -0.302342 0
M  V30 921 H 91.1651 3.79569 1.73156 0
M  V30 922 H 89.7951 2.65872 1.83062 0
M  V30 923 H 88.8471 3.79152 -0.307826 0
M  V30 924 H 90.1591 4.98458 -0.184565 0
M  V30 925 H 89.3131 5.70747 2.05749 0
M  V30 926 H 88.0521 4.44316 2.01084 0
M  V30 927 H 87.0571 5.49786 -0.0385419 0
M  V30 928 H 88.2821 6.79095 0.0270945 0
M  V30 929 H 86.2281 6.18449 2.18761 0
M  V30 930 H 86.1451 7.48709 1.04738 0
M  V30 931 H 87.4131 7.4673 2.23639 0
M  V30 932 N 91.6422 0.330177 1.54103 0
M  V30 933 C 92.8882 -0.270806 2.00984 0
M  V30 934 C 93.2212 -1.51265 1.21789 0
M  V30 935 O 92.4962 -1.92142 0.301927 0
M  V30 936 C 92.7792 -0.598339 3.55094 0
M  V30 937 C 92.6322 0.654674 4.4501 0
M  V30 938 C 93.9512 -1.41334 4.16789 0
M  V30 939 H 91.0702 -0.0969531 0.730595 0
M  V30 940 H 93.7122 0.448066 1.84641 0
M  V30 941 H 91.8622 -1.21078 3.69151 0
M  V30 942 H 93.5342 1.29285 4.42813 0
M  V30 943 H 91.7772 1.28224 4.14416 0
M  V30 944 H 92.4482 0.380944 5.50684 0
M  V30 945 H 94.9242 -0.895597 4.06347 0
M  V30 946 H 93.8002 -1.61127 5.24718 0
M  V30 947 H 94.0612 -2.41146 3.70541 0
M  V30 948 N 93.1203 -1.57491 0.0584922 0
M  V30 949 C 94.3973 -1.84346 -0.653918 0
M  V30 950 C 94.7773 -0.948355 -1.88599 0
M  V30 951 O 94.1253 -0.0112403 -2.28497 0
M  V30 952 C 94.3353 -3.34239 -1.00425 0
M  V30 953 C 95.6833 -4.01431 -1.38342 0
M  V30 954 O 96.7073 -3.38907 -1.09637 0
M  V30 955 O 95.5663 -5.11683 -1.91943 0
M  V30 956 H 92.6603 -0.761112 -0.323478 0
M  V30 957 H 95.2063 -1.6947 0.0884125 0
M  V30 958 H 93.9783 -3.91089 -0.128625 0
M  V30 959 H 93.6013 -3.54329 -1.80378 0
M  V30 960 N 94.5984 0.214957 -1.56127 0
M  V30 961 C 95.8234 0.95924 -1.83884 0
M  V30 962 C 96.2484 1.7689 -0.639644 0
M  V30 963 O 95.6064 1.76566 0.411601 0
M  V30 964 C 95.6544 1.84723 -3.09693 0
M  V30 965 O 94.7584 2.94346 -2.8885 0
M  V30 966 H 94.0994 0.27125 -0.606069 0
M  V30 967 H 96.6294 0.226276 -2.03345 0
M  V30 968 H 96.6394 2.25576 -3.39969 0
M  V30 969 H 95.3144 1.25218 -3.96602 0
M  V30 970 H 93.8914 2.57391 -2.69823 0
M  V30 971 N 96.0765 1.50051 0.48192 0
M  V30 972 C 97.4875 1.5348 1.06305 0
M  V30 973 C 97.8385 0.331997 1.93371 0
M  V30 974 O 96.9635 -0.556256 2.09129 0
M  V30 975 C 97.5585 2.7813 1.93466 0
M  V30 976 C 96.1175 2.84275 2.46707 0
M  V30 977 C 95.2645 2.47637 1.24785 0
M  V30 978 H 98.2155 1.56472 0.264995 0
M  V30 979 H 98.2365 2.59372 2.78399 0
M  V30 980 H 97.7485 3.65654 1.30072 0
M  V30 981 H 95.8495 2.01077 3.13686 0
M  V30 982 H 95.9625 3.8691 2.82555 0
M  V30 983 H 94.3265 1.99835 1.57918 0
M  V30 984 H 95.1095 3.37457 0.630694 0
M  V30 985 N 97.5546 -0.734337 1.39446 0
M  V30 986 C 98.8016 -1.49391 1.36706 0
M  V30 987 C 99.1296 -1.94465 -0.0367813 0
M  V30 988 O 98.3846 -1.67154 -1.01774 0
M  V30 989 C 98.6836 -2.74711 2.28623 0
M  V30 990 C 98.3496 -2.48501 3.76242 0
M  V30 991 C 97.0116 -2.41062 4.16464 0
M  V30 992 C 99.3636 -2.26098 4.69606 0
M  V30 993 C 96.6916 -2.09262 5.48112 0
M  V30 994 C 99.0436 -1.95814 6.01531 0
M  V30 995 C 97.7076 -1.86845 6.40816 0
M  V30 996 H 96.9776 -0.546661 0.500243 0
M  V30 997 H 99.6246 -0.842788 1.71957 0
M  V30 998 H 97.9296 -3.44569 1.86492 0
M  V30 999 H 99.6266 -3.32741 2.23796 0
M  V30 1000 H 96.2166 -2.55169 3.44364 0
M  V30 1001 H 100.401 -2.30812 4.39363 0
M  V30 1002 H 95.6566 -2.00841 5.77471 0
M  V30 1003 H 99.8306 -1.77488 6.73403 0
M  V30 1004 H 97.4576 -1.6197 7.42745 0
M  V30 1005 N 99.0327 -1.24633 -0.964593 0
M  V30 1006 C 100.281 -1.08573 -1.70459 0
M  V30 1007 C 100.602 0.375655 -1.91347 0
M  V30 1008 O 99.8717 1.26779 -1.49345 0
M  V30 1009 H 98.4517 -0.398784 -0.631649 0
M  V30 1010 H 101.114 -1.56601 -1.16026 0
M  V30 1011 H 100.21 -1.58623 -2.68785 0
M  V30 1012 N 100.511 1.16574 -1.06058 0
M  V30 1013 C 101.922 1.68662 -0.800632 0
M  V30 1014 C 102.273 1.84184 0.67608 0
M  V30 1015 O 101.398 1.53568 1.52466 0
M  V30 1016 C 101.993 3.06356 -1.44676 0
M  V30 1017 C 100.552 3.55575 -1.23465 0
M  V30 1018 C 99.6988 2.31616 -1.52477 0
M  V30 1019 H 102.65 1.00969 -1.22438 0
M  V30 1020 H 102.671 3.70636 -0.860788 0
M  V30 1021 H 102.183 2.95027 -2.52152 0
M  V30 1022 H 100.284 3.72167 -0.179527 0
M  V30 1023 H 100.397 4.37812 -1.94571 0
M  V30 1024 H 98.7608 2.36512 -0.945209 0
M  V30 1025 H 99.5438 2.22887 -2.61106 0
M  V30 1026 N 101.989 0.842826 1.3317 0
M  V30 1027 C 103.237 0.439577 1.97262 0
M  V30 1028 C 103.558 -1.00548 1.67078 0
M  V30 1029 O 102.828 -1.70098 0.971779 0
M  V30 1030 H 101.408 0.159558 0.72976 0
M  V30 1031 H 104.07 1.07665 1.62463 0
M  V30 1032 H 103.166 0.574886 3.0676 0
M  V30 1033 N 103.467 -1.45747 0.599634 0
M  V30 1034 C 104.692 -2.07178 0.0960198 0
M  V30 1035 C 105.117 -1.44268 -1.207 0
M  V30 1036 O 104.475 -0.532503 -1.73303 0
M  V30 1037 C 104.523 -3.60579 -0.0385348 0
M  V30 1038 O 103.627 -3.97713 -1.0908 0
M  V30 1039 H 102.968 -0.660251 0.0704593 0
M  V30 1040 H 105.498 -1.87124 0.827385 0
M  V30 1041 H 105.508 -4.07298 -0.239304 0
M  V30 1042 H 104.183 -4.05756 0.912947 0
M  V30 1043 H 102.76 -3.62678 -0.867135 0
M  V30 1044 N 104.945 -0.338344 -1.53925 0
M  V30 1045 C 106.356 0.146651 -1.86123 0
M  V30 1046 C 106.707 1.5042 -1.2597 0
M  V30 1047 O 105.832 2.08723 -0.571294 0
M  V30 1048 C 106.427 0.272879 -3.37699 0
M  V30 1049 C 104.986 0.702103 -3.69794 0
M  V30 1050 C 104.133 -0.167304 -2.76795 0
M  V30 1051 H 107.084 -0.558123 -1.48562 0
M  V30 1052 H 107.105 1.10128 -3.64214 0
M  V30 1053 H 106.617 -0.715307 -3.81451 0
M  V30 1054 H 104.718 1.6995 -3.31584 0
M  V30 1055 H 104.831 0.495604 -4.7653 0
M  V30 1056 H 103.195 0.359527 -2.5215 0
M  V30 1057 H 103.978 -1.15253 -3.23375 0
M  V30 1058 N 106.423 1.57458 -0.0668435 0
M  V30 1059 C 107.648 1.9804 0.616027 0
M  V30 1060 C 108.073 0.944771 1.62652 0
M  V30 1061 O 107.431 -0.0902094 1.81075 0
M  V30 1062 C 107.479 3.37665 1.26549 0
M  V30 1063 O 106.583 3.36701 2.38131 0
M  V30 1064 H 105.924 0.644719 0.158849 0
M  V30 1065 H 108.454 2.04121 -0.139891 0
M  V30 1066 H 108.464 3.7474 1.6135 0
M  V30 1067 H 107.139 4.12573 0.525016 0
M  V30 1068 H 105.716 3.1139 2.0516 0
M  V30 1069 N 107.901 -0.206675 1.56239 0
M  V30 1070 C 108.848 -1.25617 1.93621 0
M  V30 1071 C 109.818 -1.45824 0.795274 0
M  V30 1072 O 111.003 -1.59148 1.05245 0
M  V30 1073 C 108.143 -2.59839 2.27107 0
M  V30 1074 C 107.256 -2.47308 3.54207 0
M  V30 1075 C 106.391 -3.74155 3.7707 0
M  V30 1076 C 105.43 -3.56407 4.97635 0
M  V30 1077 N 104.567 -4.75238 5.1681 0
M  V30 1078 H 109.407 -0.930383 2.83104 0
M  V30 1079 H 106.944 -0.448065 1.4011 0
M  V30 1080 H 108.902 -3.38021 2.44535 0
M  V30 1081 H 107.532 -2.90485 1.40778 0
M  V30 1082 H 106.584 -1.60483 3.4489 0
M  V30 1083 H 107.896 -2.30122 4.42544 0
M  V30 1084 H 107.05 -4.60778 3.94675 0
M  V30 1085 H 105.789 -3.94282 2.87042 0
M  V30 1086 H 104.794 -2.68168 4.79964 0
M  V30 1087 H 106.019 -3.37736 5.89161 0
M  V30 1088 H 103.965 -4.95651 4.29728 0
M  V30 1089 H 103.882 -4.60835 5.99306 0
M  V30 1090 H 105.15 -5.63246 5.38864 0
M  V30 1091 N 109.379 -1.50304 -0.473955 0
M  V30 1092 C 110.627 -1.60832 -1.22382 0
M  V30 1093 C 110.948 -0.30939 -1.9253 0
M  V30 1094 O 110.218 0.67296 -1.83978 0
M  V30 1095 H 108.798 -0.592652 -0.454723 0
M  V30 1096 H 111.46 -1.87068 -0.546968 0
M  V30 1097 H 110.556 -2.41803 -1.97327 0
M  V30 1098 N 110.857 0.726932 -1.39834 0
M  V30 1099 C 112.104 1.48664 -1.37496 0
M  V30 1100 C 112.432 1.94482 0.0264678 0
M  V30 1101 O 111.687 1.67692 1.00886 0
M  V30 1102 C 111.986 2.73495 -2.30077 0
M  V30 1103 C 111.652 2.46502 -3.77555 0
M  V30 1104 C 110.314 2.3885 -4.17737 0
M  V30 1105 C 112.666 2.23604 -4.70798 0
M  V30 1106 C 109.994 2.06352 -5.49214 0
M  V30 1107 C 112.346 1.92622 -6.02561 0
M  V30 1108 C 111.01 1.83444 -6.41798 0
M  V30 1109 H 110.28 0.544001 -0.503135 0
M  V30 1110 H 112.927 0.833657 -1.72402 0
M  V30 1111 H 111.232 3.43575 -1.88317 0
M  V30 1112 H 112.929 3.31549 -2.25558 0
M  V30 1113 H 109.519 2.5334 -3.45712 0
M  V30 1114 H 113.703 2.28479 -4.40581 0
M  V30 1115 H 108.959 1.97776 -5.78528 0
M  V30 1116 H 113.133 1.73914 -6.74334 0
M  V30 1117 H 110.76 1.58029 -7.43593 0
M  V30 1118 N 112.336 1.25143 0.95797 0
M  V30 1119 C 113.583 1.09692 1.70217 0
M  V30 1120 C 113.911 -0.362654 1.91089 0
M  V30 1121 O 113.166 -1.28386 1.47701 0
M  V30 1122 C 113.465 1.79272 3.09187 0
M  V30 1123 C 113.131 3.29196 3.08125 0
M  V30 1124 C 111.793 3.70096 3.07543 0
M  V30 1125 C 114.145 4.24995 3.0171 0
M  V30 1126 C 111.473 5.05213 2.9829 0
M  V30 1127 C 113.825 5.60132 2.93999 0
M  V30 1128 C 112.489 6.00365 2.9175 0
M  V30 1129 H 111.759 0.401393 0.622868 0
M  V30 1130 H 114.406 1.55372 1.11945 0
M  V30 1131 H 112.711 1.26014 3.70982 0
M  V30 1132 H 114.408 1.64773 3.65583 0
M  V30 1133 H 110.998 2.96651 3.09348 0
M  V30 1134 H 115.182 3.9439 3.01281 0
M  V30 1135 H 110.438 5.35569 2.94916 0
M  V30 1136 H 114.612 6.3406 2.87996 0
M  V30 1137 H 112.239 7.05023 2.84336 0
M  V30 1138 N 113.814 -1.1601 1.06675 0
M  V30 1139 C 115.039 -1.91068 0.806706 0
M  V30 1140 C 115.464 -1.77112 -0.633485 0
M  V30 1141 O 114.822 -1.09908 -1.44187 0
M  V30 1142 C 114.87 -3.39655 1.21106 0
M  V30 1143 O 113.974 -4.10893 0.352189 0
M  V30 1144 H 113.315 -0.595125 0.294486 0
M  V30 1145 H 115.845 -1.46955 1.42356 0
M  V30 1146 H 115.855 -3.90434 1.18428 0
M  V30 1147 H 114.53 -3.49132 2.26008 0
M  V30 1148 H 113.107 -3.70285 0.440868 0
M  V30 1149 N 115.292 -0.849877 -1.32721 0
M  V30 1150 C 116.708 -0.539102 -1.50219 0
M  V30 1151 C 116.908 0.931271 -1.78689 0
M  V30 1152 O 115.964 1.71455 -1.85363 0
M  V30 1153 C 117.277 -1.42196 -2.64954 0
M  V30 1154 C 118.825 -1.42189 -2.78839 0
M  V30 1155 C 119.3 -2.28985 -3.96648 0
M  V30 1156 N 120.791 -2.26754 -4.03902 0
M  V30 1157 C 121.526 -2.90644 -4.94281 0
M  V30 1158 N 121.022 -3.63629 -5.897 0
M  V30 1159 N 122.815 -2.80057 -4.87365 0
M  V30 1160 H 114.966 -1.80156 -1.12506 0
M  V30 1161 H 117.229 -0.769217 -0.554085 0
M  V30 1162 H 116.935 -2.46733 -2.50631 0
M  V30 1163 H 116.809 -1.10591 -3.60624 0
M  V30 1164 H 119.196 -0.38419 -2.92588 0
M  V30 1165 H 119.277 -1.77807 -1.83898 0
M  V30 1166 H 118.921 -3.32819 -3.83658 0
M  V30 1167 H 118.851 -1.90702 -4.90857 0
M  V30 1168 H 121.342 -1.73688 -3.3562 0
M  V30 1169 H 121.655 -4.09558 -6.55349 0
M  V30 1170 H 120 -3.67737 -5.89741 0
M  V30 1171 H 123.191 -2.22593 -4.11789 0
M  V30 1172 H 123.364 -3.30132 -5.57599 0
M  V30 1173 N 116.77 1.45427 -0.607355 0
M  V30 1174 C 118.018 2.01841 -0.102253 0
M  V30 1175 C 118.339 1.47832 1.27164 0
M  V30 1176 O 117.609 0.672497 1.83995 0
M  V30 1177 H 116.189 0.746188 -0.0348101 0
M  V30 1178 H 118.851 1.78229 -0.7887 0
M  V30 1179 H 117.947 3.12057 -0.0518585 0
M  V30 1180 N 118.248 0.346503 1.53744 0
M  V30 1181 C 119.659 -0.136779 1.86198 0
M  V30 1182 C 120.01 -1.49749 1.26766 0
M  V30 1183 O 119.135 -2.08417 0.582355 0
M  V30 1184 C 119.73 -0.254966 3.37839 0
M  V30 1185 C 118.289 -0.682482 3.70161 0
M  V30 1186 C 117.436 0.181981 2.76702 0
M  V30 1187 H 120.387 0.565994 1.48264 0
M  V30 1188 H 120.408 -1.08195 3.64793 0
M  V30 1189 H 119.92 0.735526 3.81066 0
M  V30 1190 H 118.021 -1.68189 3.3248 0
M  V30 1191 H 118.134 -0.470326 4.76786 0
M  V30 1192 H 116.498 -0.34615 2.52337 0
M  V30 1193 H 117.281 1.16966 3.2276 0
M  V30 1194 N 119.726 -1.57421 0.075193 0
M  V30 1195 C 120.658 -2.09904 -0.920483 0
M  V30 1196 C 121.671 -1.03191 -1.25918 0
M  V30 1197 O 122.86 -1.30695 -1.21577 0
M  V30 1198 C 119.96 -2.54726 -2.23534 0
M  V30 1199 C 119.133 -3.8505 -2.07498 0
M  V30 1200 C 118.192 -4.15929 -3.22319 0
M  V30 1201 O 117.218 -4.85474 -2.9716 0
M  V30 1202 N 118.42 -3.69745 -4.47514 0
M  V30 1203 H 121.185 -2.95954 -0.472359 0
M  V30 1204 H 118.746 -1.61523 -0.110444 0
M  V30 1205 H 120.738 -2.72443 -2.9926 0
M  V30 1206 H 119.308 -1.73795 -2.59835 0
M  V30 1207 H 118.528 -3.76679 -1.16219 0
M  V30 1208 H 119.816 -4.70348 -1.94038 0
M  V30 1209 H 119.214 -3.13569 -4.7084 0
M  V30 1210 H 117.771 -3.92655 -5.20255 0
M  V30 1211 N 121.204 0.198386 -1.56346 0
M  V30 1212 C 122.615 0.763358 -1.70381 0
M  V30 1213 C 122.966 1.83995 -0.681203 0
M  V30 1214 O 122.091 2.15785 0.16305 0
M  V30 1215 C 122.686 1.39143 -3.08909 0
M  V30 1216 C 121.245 1.90352 -3.2472 0
M  V30 1217 C 120.392 0.772233 -2.6633 0
M  V30 1218 H 123.343 -0.0266377 -1.58678 0
M  V30 1219 H 123.364 2.26076 -3.06055 0
M  V30 1220 H 122.876 0.607638 -3.83314 0
M  V30 1221 H 120.977 2.71461 -2.55225 0
M  V30 1222 H 121.09 2.06757 -4.3219 0
M  V30 1223 H 119.454 1.18566 -2.2542 0
M  V30 1224 H 120.237 0.00073556 -3.433 0
M  V30 1225 N 122.682 1.50554 0.465978 0
M  V30 1226 C 124.098 1.38093 0.800154 0
M  V30 1227 C 124.298 0.440988 1.96615 0
M  V30 1228 O 123.354 -0.114499 2.5224 0
M  V30 1229 C 124.667 2.79565 1.10742 0
M  V30 1230 C 126.215 2.88516 1.21357 0
M  V30 1231 C 126.69 4.30833 1.55393 0
M  V30 1232 N 128.181 4.33807 1.62375 0
M  V30 1233 C 128.916 5.40927 1.90225 0
M  V30 1234 N 128.412 6.58247 2.16062 0
M  V30 1235 N 130.205 5.28376 1.9177 0
M  V30 1236 H 122.356 2.10237 -0.302366 0
M  V30 1237 H 124.619 0.945203 -0.0727746 0
M  V30 1238 H 124.325 3.50208 0.323661 0
M  V30 1239 H 124.199 3.17125 2.04234 0
M  V30 1240 H 126.586 2.1809 1.98799 0
M  V30 1241 H 126.667 2.54492 0.258321 0
M  V30 1242 H 126.311 5.01799 0.784889 0
M  V30 1243 H 126.241 4.62347 2.52076 0
M  V30 1244 H 128.732 3.49212 1.44427 0
M  V30 1245 H 129.045 7.3569 2.36601 0
M  V30 1246 H 127.39 6.61413 2.13444 0
M  V30 1247 H 130.581 4.35715 1.71085 0
M  V30 1248 H 130.754 6.11944 2.13139 0
M  V30 1249 N 124.16 -0.719506 1.40217 0
M  V30 1250 C 125.571 -1.29848 1.34151 0
M  V30 1251 C 125.922 -1.96196 0.0131349 0
M  V30 1252 O 125.047 -1.973 -0.88892 0
M  V30 1253 C 125.642 -2.36118 2.42968 0
M  V30 1254 C 124.201 -2.8965 2.40374 0
M  V30 1255 C 123.348 -1.63393 2.24049 0
M  V30 1256 H 126.299 -0.51591 1.5008 0
M  V30 1257 H 126.32 -3.16871 2.10649 0
M  V30 1258 H 125.832 -1.878 3.39636 0
M  V30 1259 H 123.933 -3.42208 1.47392 0
M  V30 1260 H 124.046 -3.4171 3.35814 0
M  V30 1261 H 122.41 -1.88312 1.71495 0
M  V30 1262 H 123.193 -1.17104 3.2271 0
M  V30 1263 N 125.638 -1.25649 -0.95132 0
M  V30 1264 C 126.863 -1.13443 -1.73624 0
M  V30 1265 C 127.288 0.307565 -1.85568 0
M  V30 1266 O 126.646 1.22282 -1.33854 0
M  V30 1267 C 126.694 -1.79723 -3.12621 0
M  V30 1268 O 125.798 -1.07912 -3.98031 0
M  V30 1269 H 125.139 -0.395872 -0.533086 0
M  V30 1270 H 127.669 -1.66276 -1.1922 0
M  V30 1271 H 127.679 -1.86141 -3.63064 0
M  V30 1272 H 126.354 -2.84633 -3.03244 0
M  V30 1273 H 124.931 -1.09398 -3.56492 0
M  V30 1274 N 127.117 1.15442 -1.07289 0
M  V30 1275 C 128.342 1.90638 -0.816828 0
M  V30 1276 C 128.767 1.77445 0.624083 0
M  V30 1277 O 128.125 1.10671 1.43602 0
M  V30 1278 C 128.173 3.39008 -1.22906 0
M  V30 1279 O 127.277 4.10701 -0.373975 0
M  V30 1280 H 126.618 0.593555 -0.297638 0
M  V30 1281 H 129.148 1.46198 -1.43134 0
M  V30 1282 H 129.158 3.89801 -1.20497 0
M  V30 1283 H 127.833 3.47929 -2.27856 0
M  V30 1284 H 126.41 3.70046 -0.460499 0
M  V30 1285 N 128.595 0.856903 1.32268 0
M  V30 1286 C 130.006 0.515711 1.79436 0
M  V30 1287 C 130.357 -0.966586 1.70738 0
M  V30 1288 O 129.482 -1.75409 1.26731 0
M  V30 1289 C 130.077 0.929335 3.25805 0
M  V30 1290 C 128.636 0.640006 3.70919 0
M  V30 1291 C 127.783 1.12784 2.53328 0
M  V30 1292 H 130.734 1.04389 1.19535 0
M  V30 1293 H 130.755 0.246633 3.797 0
M  V30 1294 H 130.267 2.00821 3.32103 0
M  V30 1295 H 128.368 -0.428051 3.70133 0
M  V30 1296 H 128.481 1.20788 4.63624 0
M  V30 1297 H 126.845 0.548033 2.48734 0
M  V30 1298 H 127.628 2.21387 2.62379 0
M  V30 1299 N 130.073 -1.45103 0.615059 0
M  V30 1300 C 131.006 -2.27717 -0.148408 0
M  V30 1301 C 131.984 -1.37584 -0.866572 0
M  V30 1302 O 133.168 -1.67017 -0.87393 0
M  V30 1303 C 130.295 -3.16136 -1.21557 0
M  V30 1304 C 129.341 -4.22263 -0.599712 0
M  V30 1305 S 130.174 -5.3215 0.598081 0
M  V30 1306 C 131.33 -6.24137 -0.469484 0
M  V30 1307 H 131.563 -2.92121 0.552483 0
M  V30 1308 H 129.096 -1.49054 0.402778 0
M  V30 1309 H 131.054 -3.67633 -1.82638 0
M  V30 1310 H 129.715 -2.50982 -1.88857 0
M  V30 1311 H 128.908 -4.84081 -1.4029 0
M  V30 1312 H 128.51 -3.73945 -0.063876 0
M  V30 1313 H 130.802 -6.63984 -1.34652 0
M  V30 1314 H 131.745 -7.0801 0.112725 0
M  V30 1315 H 132.153 -5.58971 -0.788168 0
M  V30 1316 N 131.551 -0.354651 -1.53558 0
M  V30 1317 C 132.776 0.242153 -2.05981 0
M  V30 1318 C 133.201 1.42553 -1.2272 0
M  V30 1319 O 132.559 1.79656 -0.243604 0
M  V30 1320 C 132.607 0.624367 -3.55154 0
M  V30 1321 O 131.711 1.72301 -3.74681 0
M  V30 1322 H 131.052 0.0378432 -0.662921 0
M  V30 1323 H 133.582 -0.512087 -1.98088 0
M  V30 1324 H 133.592 0.898433 -3.97985 0
M  V30 1325 H 132.267 -0.240989 -4.15201 0
M  V30 1326 H 130.844 1.44535 -3.4375 0
M  V30 1327 N 133.029 1.57378 -0.0835403 0
M  V30 1328 C 133.992 2.12252 0.864959 0
M  V30 1329 C 134.992 1.04916 1.21858 0
M  V30 1330 O 136.182 1.30853 1.14991 0
M  V30 1331 C 133.314 2.63358 2.16461 0
M  V30 1332 H 134.507 2.97371 0.388676 0
M  V30 1333 H 132.06 1.55423 0.165317 0
M  V30 1334 H 132.795 1.81727 2.686 0
M  V30 1335 H 132.58 3.41826 1.92087 0
M  V30 1336 H 134.07 3.05847 2.84337 0
M  V30 1337 N 134.507 -0.190092 1.56449 0
M  V30 1338 C 135.918 -0.754312 1.70784 0
M  V30 1339 C 136.269 -1.83631 0.690951 0
M  V30 1340 O 135.394 -2.15868 -0.151604 0
M  V30 1341 C 135.989 -1.37503 3.09642 0
M  V30 1342 C 134.548 -1.88628 3.25725 0
M  V30 1343 C 133.695 -0.758098 2.66736 0
M  V30 1344 H 136.646 0.0350524 1.58661 0
M  V30 1345 H 136.667 -2.2445 3.0725 0
M  V30 1346 H 136.179 -0.587302 3.83631 0
M  V30 1347 H 134.28 -2.70103 2.56661 0
M  V30 1348 H 134.393 -2.04462 4.3328 0
M  V30 1349 H 132.757 -1.17369 2.26046 0
M  V30 1350 H 133.54 0.0174705 3.43296 0
M  V30 1351 N 135.985 -1.50799 -0.457987 0
M  V30 1352 C 137.231 -1.62683 -1.21088 0
M  V30 1353 C 137.564 -0.332268 -1.91336 0
M  V30 1354 O 136.839 0.667043 -1.82704 0
M  V30 1355 C 137.122 -2.81615 -2.24422 0
M  V30 1356 C 136.975 -4.20989 -1.58392 0
M  V30 1357 C 138.294 -2.96085 -3.2561 0
M  V30 1358 H 135.413 -0.592087 -0.438864 0
M  V30 1359 H 138.055 -1.83225 -0.50286 0
M  V30 1360 H 136.205 -2.64231 -2.84806 0
M  V30 1361 H 137.877 -4.49994 -1.01504 0
M  V30 1362 H 136.12 -4.24641 -0.886704 0
M  V30 1363 H 136.791 -5.0016 -2.33547 0
M  V30 1364 H 139.267 -3.12042 -2.75262 0
M  V30 1365 H 138.143 -3.80902 -3.95228 0
M  V30 1366 H 138.404 -2.0726 -3.90507 0
M  V30 1367 N 137.463 0.71206 -1.40597 0
M  V30 1368 C 138.879 1.02058 -1.22704 0
M  V30 1369 C 139.079 2.01228 -0.104729 0
M  V30 1370 O 138.135 2.4674 0.53624 0
M  V30 1371 C 139.448 1.56094 -2.57012 0
M  V30 1372 C 140.996 1.6806 -2.64054 0
M  V30 1373 C 141.471 2.25501 -3.9864 0
M  V30 1374 N 142.962 2.32882 -4.004 0
M  V30 1375 C 143.697 2.78317 -5.01325 0
M  V30 1376 N 143.193 3.23478 -6.12645 0
M  V30 1377 N 144.986 2.77733 -4.88693 0
M  V30 1378 H 137.137 0.0547896 -2.12329 0
M  V30 1379 H 139.4 0.0869027 -0.944008 0
M  V30 1380 H 139.106 0.906865 -3.39807 0
M  V30 1381 H 138.98 2.54564 -2.78347 0
M  V30 1382 H 141.367 2.32583 -1.81629 0
M  V30 1383 H 141.448 0.681802 -2.46546 0
M  V30 1384 H 141.092 1.61598 -4.81506 0
M  V30 1385 H 141.022 3.26102 -4.13479 0
M  V30 1386 H 143.513 2.00991 -3.20017 0
M  V30 1387 H 143.826 3.56725 -6.85542 0
M  V30 1388 H 142.171 3.21429 -6.16205 0
M  V30 1389 H 145.362 2.4179 -4.00818 0
M  V30 1390 H 145.535 3.12826 -5.67489 0
M  V30 1391 N 138.941 1.26152 0.944643 0
M  V30 1392 C 140.352 1.10454 1.50522 0
M  V30 1393 C 140.703 -0.31635 1.93633 0
M  V30 1394 O 139.828 -1.20746 1.79581 0
M  V30 1395 C 140.423 1.99891 2.73549 0
M  V30 1396 C 138.982 1.88348 3.25886 0
M  V30 1397 C 138.129 1.93447 1.9868 0
M  V30 1398 H 141.08 1.39292 0.760489 0
M  V30 1399 H 141.101 1.54477 3.47732 0
M  V30 1400 H 140.613 3.03297 2.42141 0
M  V30 1401 H 138.714 0.878636 3.62092 0
M  V30 1402 H 138.827 2.73696 3.93227 0
M  V30 1403 H 137.191 1.37456 2.14425 0
M  V30 1404 H 137.974 2.98476 1.69607 0
M  V30 1405 N 140.419 -1.14872 1.07899 0
M  V30 1406 C 141.366 -2.19791 0.704319 0
M  V30 1407 C 142.336 -1.63238 -0.306987 0
M  V30 1408 O 143.521 -1.8983 -0.192171 0
M  V30 1409 C 140.661 -3.44911 0.114244 0
M  V30 1410 C 139.774 -4.15637 1.1777 0
M  V30 1411 C 138.909 -5.28324 0.552037 0
M  V30 1412 C 137.948 -5.90875 1.59789 0
M  V30 1413 N 137.085 -6.95022 0.994404 0
M  V30 1414 H 141.925 -2.5119 1.60336 0
M  V30 1415 H 139.462 -1.23356 0.801352 0
M  V30 1416 H 141.42 -4.16477 -0.245544 0
M  V30 1417 H 140.05 -3.14011 -0.74813 0
M  V30 1418 H 139.102 -3.42512 1.65499 0
M  V30 1419 H 140.414 -4.5823 1.97046 0
M  V30 1420 H 139.568 -6.06538 0.1402 0
M  V30 1421 H 138.307 -4.86939 -0.272431 0
M  V30 1422 H 137.312 -5.11369 2.01945 0
M  V30 1423 H 138.537 -6.34337 2.42474 0
M  V30 1424 H 136.483 -6.55722 0.190939 0
M  V30 1425 H 136.4 -7.36073 1.72432 0
M  V30 1426 H 137.668 -7.77123 0.608253 0
M  V30 1427 N 141.898 -0.863906 -1.31812 0
M  V30 1428 C 143.126 -0.486111 -2.01108 0
M  V30 1429 C 143.541 0.919755 -1.64882 0
M  V30 1430 O 142.898 1.60162 -0.874893 0
M  V30 1431 C 142.949 -0.626435 -3.56031 0
M  V30 1432 O 142.67 -1.97693 -3.90959 0
M  V30 1433 C 144.171 -0.248857 -4.42601 0
M  V30 1434 H 141.391 -0.190052 -0.643523 0
M  V30 1435 H 143.935 -1.1634 -1.68182 0
M  V30 1436 H 142.09 0.00322717 -3.874 0
M  V30 1437 H 142.504 -1.98034 -4.85678 0
M  V30 1438 H 143.978 -0.398016 -5.50563 0
M  V30 1439 H 144.455 0.811489 -4.31638 0
M  V30 1440 H 145.061 -0.853971 -4.16638 0
M  V30 1441 N 143.376 1.44774 -0.622745 0
M  V30 1442 C 144.601 2.06999 -0.128968 0
M  V30 1443 C 145.026 1.4617 1.1839 0
M  V30 1444 O 144.384 0.560007 1.72434 0
M  V30 1445 C 144.432 3.60595 -0.0188351 0
M  V30 1446 O 143.536 3.99398 1.02739 0
M  V30 1447 H 142.877 0.659047 -0.0809544 0
M  V30 1448 H 145.407 1.85784 -0.85705 0
M  V30 1449 H 145.417 4.07627 0.174476 0
M  V30 1450 H 144.092 4.04252 -0.977384 0
M  V30 1451 H 142.669 3.64011 0.809326 0
M  V30 1452 N 144.854 0.36279 1.53368 0
M  V30 1453 C 146.265 -0.117022 1.86333 0
M  V30 1454 C 146.616 -1.48397 1.28347 0
M  V30 1455 O 145.741 -2.07787 0.604428 0
M  V30 1456 C 146.336 -0.21912 3.38091 0
M  V30 1457 C 144.895 -0.643184 3.70864 0
M  V30 1458 C 144.042 0.211318 2.76494 0
M  V30 1459 H 146.993 0.581687 1.47655 0
M  V30 1460 H 147.014 -1.04319 3.6592 0
M  V30 1461 H 146.526 0.775902 3.80265 0
M  V30 1462 H 144.627 -1.64654 3.34245 0
M  V30 1463 H 144.74 -0.41973 4.77258 0
M  V30 1464 H 143.104 -0.319367 2.5269 0
M  V30 1465 H 143.887 1.20383 3.21501 0
M  V30 1466 N 146.332 -1.57332 0.0918853 0
M  V30 1467 C 147.58 -1.93853 -0.571446 0
M  V30 1468 C 147.901 -0.974212 -1.6892 0
M  V30 1469 O 147.171 -0.0257254 -1.95883 0
M  V30 1470 H 145.751 -0.715666 -0.214082 0
M  V30 1471 H 148.413 -1.94287 0.154464 0
M  V30 1472 H 147.509 -2.96191 -0.983729 0
M  V30 1473 N 147.81 0.181792 -1.56548 0
M  V30 1474 C 149.035 0.920019 -1.85877 0
M  V30 1475 C 149.46 1.75494 -0.677021 0
M  V30 1476 O 148.818 1.77399 0.374056 0
M  V30 1477 C 148.866 1.78112 -3.13542 0
M  V30 1478 O 147.97 2.88152 -2.95029 0
M  V30 1479 H 147.311 0.258334 -0.611686 0
M  V30 1480 H 149.841 0.183092 -2.03779 0
M  V30 1481 H 149.851 2.18314 -3.44678 0
M  V30 1482 H 148.526 1.16777 -3.99169 0
M  V30 1483 H 147.103 2.51609 -2.75222 0
M  V30 1484 N 149.288 1.51039 0.449983 0
M  V30 1485 C 150.699 1.557 1.03026 0
M  V30 1486 C 151.05 0.372939 1.92623 0
M  V30 1487 O 150.175 -0.511771 2.10261 0
M  V30 1488 C 150.77 2.82171 1.87523 0
M  V30 1489 C 149.329 2.89444 2.40622 0
M  V30 1490 C 148.476 2.50228 1.19504 0
M  V30 1491 H 151.427 1.56999 0.231745 0
M  V30 1492 H 151.448 2.65219 2.72835 0
M  V30 1493 H 150.96 3.68331 1.22286 0
M  V30 1494 H 149.061 2.07685 3.0935 0
M  V30 1495 H 149.174 3.92816 2.74285 0
M  V30 1496 H 147.538 2.03139 1.53644 0
M  V30 1497 H 148.321 3.38719 0.558972 0
M  V30 1498 N 150.766 -0.704594 1.40972 0
M  V30 1499 C 151.713 -1.81862 1.42109 0
M  V30 1500 C 152.683 -1.63781 0.276593 0
M  V30 1501 O 153.868 -1.84759 0.4763 0
M  V30 1502 C 151.008 -3.19669 1.30022 0
M  V30 1503 C 150.121 -3.49246 2.54267 0
M  V30 1504 C 149.256 -4.76618 2.3454 0
M  V30 1505 C 148.295 -4.99133 3.54306 0
M  V30 1506 N 147.432 -6.17726 3.33706 0
M  V30 1507 H 152.272 -1.80226 2.37324 0
M  V30 1508 H 149.809 -0.880238 1.17857 0
M  V30 1509 H 151.767 -3.99263 1.21018 0
M  V30 1510 H 150.397 -3.20506 0.384192 0
M  V30 1511 H 149.449 -2.64125 2.73756 0
M  V30 1512 H 150.761 -3.61788 3.43381 0
M  V30 1513 H 149.915 -5.64249 2.22952 0
M  V30 1514 H 148.654 -4.66305 1.42867 0
M  V30 1515 H 147.659 -4.09953 3.66359 0
M  V30 1516 H 148.884 -5.11311 4.4692 0
M  V30 1517 H 146.83 -6.08642 2.44725 0
M  V30 1518 H 146.747 -6.30995 4.16391 0
M  V30 1519 H 148.015 -7.08115 3.25873 0
M  V30 1520 N 152.244 -1.26651 -0.937939 0
M  V30 1521 C 153.472 -1.15173 -1.7188 0
M  V30 1522 C 153.887 0.292668 -1.86518 0
M  V30 1523 O 153.244 1.20014 -1.37488 0
M  V30 1524 C 153.295 -1.81925 -3.12387 0
M  V30 1525 O 153.016 -3.2072 -2.98446 0
M  V30 1526 C 154.517 -1.76442 -4.06673 0
M  V30 1527 H 151.737 -0.400911 -0.538063 0
M  V30 1528 H 154.281 -1.67332 -1.1756 0
M  V30 1529 H 152.436 -1.33696 -3.63599 0
M  V30 1530 H 152.85 -3.53802 -3.872 0
M  V30 1531 H 154.324 -2.27781 -5.02812 0
M  V30 1532 H 154.801 -0.731608 -4.33064 0
M  V30 1533 H 155.407 -2.24238 -3.61382 0
M  V30 1534 N 153.722 1.14298 -1.08507 0
M  V30 1535 C 154.968 1.85633 -0.816581 0
M  V30 1536 C 155.301 1.82784 0.656021 0
M  V30 1537 O 154.576 1.25926 1.48233 0
M  V30 1538 C 154.859 3.34223 -1.34041 0
M  V30 1539 C 154.712 3.45639 -2.87843 0
M  V30 1540 C 156.031 4.29356 -0.9665 0
M  V30 1541 H 153.15 0.67402 -0.298104 0
M  V30 1542 H 155.792 1.34214 -1.34487 0
M  V30 1543 H 153.942 3.78144 -0.89104 0
M  V30 1544 H 155.614 3.10498 -3.41158 0
M  V30 1545 H 153.857 2.86817 -3.25451 0
M  V30 1546 H 154.528 4.50089 -3.19569 0
M  V30 1547 H 157.004 3.93457 -1.35391 0
M  V30 1548 H 155.88 5.3178 -1.3602 0
M  V30 1549 H 156.141 4.41919 0.126362 0
M  V30 1550 N 155.201 0.870884 1.31352 0
M  V30 1551 C 156.448 0.482273 1.96673 0
M  V30 1552 C 156.776 -0.965638 1.68836 0
M  V30 1553 O 156.031 -1.69514 0.977937 0
M  V30 1554 C 156.33 0.687157 3.50732 0
M  V30 1555 C 155.996 2.108 3.9859 0
M  V30 1556 C 154.658 2.49656 4.1137 0
M  V30 1557 C 157.01 3.03459 4.23748 0
M  V30 1558 C 154.338 3.80412 4.46659 0
M  V30 1559 C 156.69 4.3373 4.60501 0
M  V30 1560 C 155.354 4.725 4.71487 0
M  V30 1561 H 154.624 0.176476 0.719679 0
M  V30 1562 H 157.271 1.10405 1.56471 0
M  V30 1563 H 155.576 -0.0177476 3.91796 0
M  V30 1564 H 157.273 0.366284 3.99324 0
M  V30 1565 H 153.863 1.79633 3.8914 0
M  V30 1566 H 158.047 2.74665 4.13368 0
M  V30 1567 H 153.303 4.1021 4.53362 0
M  V30 1568 H 157.477 5.05578 4.78919 0
M  V30 1569 H 155.104 5.73859 4.98588 0
M  V30 1570 N 156.679 -1.44442 0.630414 0
M  V30 1571 C 158.09 -1.85434 0.217063 0
M  V30 1572 C 158.441 -1.52748 -1.23136 0
M  V30 1573 O 157.566 -0.965205 -1.93682 0
M  V30 1574 C 158.161 -3.36581 0.387168 0
M  V30 1575 C 156.72 -3.76389 0.0283297 0
M  V30 1576 C 155.867 -2.68296 0.700889 0
M  V30 1577 H 158.818 -1.34919 0.83562 0
M  V30 1578 H 158.839 -3.78657 -0.374086 0
M  V30 1579 H 158.351 -3.60339 1.44144 0
M  V30 1580 H 156.452 -3.58246 -1.02423 0
M  V30 1581 H 156.565 -4.77095 0.437892 0
M  V30 1582 H 154.929 -2.54335 0.136267 0
M  V30 1583 H 155.712 -2.94887 1.75774 0
M  V30 1584 N 158.157 -0.370918 -1.53173 0
M  V30 1585 C 159.404 0.217102 -2.01333 0
M  V30 1586 C 159.732 1.48338 -1.25802 0
M  V30 1587 O 158.987 1.92698 -0.34146 0
M  V30 1588 C 159.286 0.549696 -3.53147 0
M  V30 1589 C 158.952 -0.622872 -4.46577 0
M  V30 1590 C 157.614 -0.944595 -4.71838 0
M  V30 1591 C 159.966 -1.40819 -5.01816 0
M  V30 1592 C 157.294 -2.05351 -5.49589 0
M  V30 1593 C 159.646 -2.50757 -5.80778 0
M  V30 1594 C 158.31 -2.83458 -6.04324 0
M  V30 1595 H 157.58 0.0794431 -0.736729 0
M  V30 1596 H 160.227 -0.504481 -1.84736 0
M  V30 1597 H 158.532 1.35237 -3.6772 0
M  V30 1598 H 160.229 1.017 -3.87889 0
M  V30 1599 H 156.819 -0.36209 -4.27068 0
M  V30 1600 H 161.003 -1.17289 -4.82242 0
M  V30 1601 H 156.259 -2.3108 -5.6605 0
M  V30 1602 H 160.433 -3.12022 -6.22588 0
M  V30 1603 H 158.06 -3.69508 -6.64355 0
M  V30 1604 N 159.635 1.57281 -0.100228 0
M  V30 1605 C 160.86 1.99302 0.573881 0
M  V30 1606 C 161.285 0.979059 1.60611 0
M  V30 1607 O 160.643 -0.0517803 1.81226 0
M  V30 1608 C 160.691 3.40274 1.19358 0
M  V30 1609 O 159.795 3.41676 2.30935 0
M  V30 1610 H 159.136 0.647944 0.145138 0
M  V30 1611 H 161.666 2.03779 -0.183156 0
M  V30 1612 H 161.676 3.78078 1.53365 0
M  V30 1613 H 160.351 4.13594 0.437385 0
M  V30 1614 H 158.928 3.15672 1.98509 0
M  V30 1615 N 161.113 -0.173488 1.56642 0
M  V30 1616 C 162.343 -0.904781 1.85734 0
M  V30 1617 C 162.751 -1.76431 0.68328 0
M  V30 1618 O 162.094 -1.802 -0.356865 0
M  V30 1619 C 162.156 -1.83382 3.09211 0
M  V30 1620 C 161.82 -1.15411 4.42187 0
M  V30 1621 C 162.817 -0.520609 5.17287 0
M  V30 1622 C 160.502 -1.15151 4.88923 0
M  V30 1623 C 162.496 0.106412 6.37311 0
M  V30 1624 C 160.183 -0.520664 6.08878 0
M  V30 1625 C 161.181 0.107196 6.82916 0
M  V30 1626 O 160.869 0.728102 8.00596 0
M  V30 1627 H 160.601 -0.268408 0.62043 0
M  V30 1628 H 163.155 -0.179096 2.04618 0
M  V30 1629 H 161.385 -2.59976 2.86268 0
M  V30 1630 H 163.074 -2.43476 3.24768 0
M  V30 1631 H 163.84 -0.514606 4.82262 0
M  V30 1632 H 159.719 -1.62961 4.31236 0
M  V30 1633 H 163.263 0.597081 6.9504 0
M  V30 1634 H 159.16 -0.524242 6.43368 0
M  V30 1635 H 159.928 0.627138 8.16094 0
M  V30 1636 N 162.591 -1.51276 -0.441967 0
M  V30 1637 C 163.523 -1.68444 -1.55433 0
M  V30 1638 C 164.536 -0.565187 -1.52674 0
M  V30 1639 O 165.725 -0.839356 -1.57534 0
M  V30 1640 C 162.825 -1.67966 -2.94348 0
M  V30 1641 C 161.998 -2.964 -3.21661 0
M  V30 1642 C 161.057 -2.88171 -4.40277 0
M  V30 1643 O 160.083 -3.62119 -4.39157 0
M  V30 1644 N 161.285 -2.03706 -5.43584 0
M  V30 1645 H 164.05 -2.644 -1.41112 0
M  V30 1646 H 161.611 -1.49104 -0.630838 0
M  V30 1647 H 163.603 -1.60035 -3.71713 0
M  V30 1648 H 162.173 -0.796225 -3.0229 0
M  V30 1649 H 161.393 -3.18234 -2.32638 0
M  V30 1650 H 162.681 -3.81427 -3.36736 0
M  V30 1651 H 162.079 -1.42995 -5.47329 0
M  V30 1652 H 160.636 -2.01658 -6.1982 0
M  V30 1653 N 164.069 0.697108 -1.41344 0
M  V30 1654 C 164.979 1.84088 -1.45427 0
M  V30 1655 C 165.995 1.70545 -0.34501 0
M  V30 1656 O 167.171 1.92488 -0.592492 0
M  V30 1657 C 164.236 3.20056 -1.33286 0
M  V30 1658 C 163.297 3.45718 -2.54514 0
M  V30 1659 C 162.53 4.75199 -2.42944 0
M  V30 1660 O 162.753 5.51579 -1.45318 0
M  V30 1661 O 161.687 5.0161 -3.32672 0
M  V30 1662 H 165.513 1.836 -2.41919 0
M  V30 1663 H 163.098 0.849966 -1.22866 0
M  V30 1664 H 164.98 4.01236 -1.28794 0
M  V30 1665 H 163.655 3.2123 -0.39909 0
M  V30 1666 H 162.562 2.64474 -2.64583 0
M  V30 1667 H 163.895 3.49356 -3.46715 0
M  V30 1668 N 165.547 1.27147 0.931209 0
M  V30 1669 C 166.772 1.16191 1.71797 0
M  V30 1670 C 167.197 -0.278004 1.86034 0
M  V30 1671 O 166.555 -1.20137 1.35782 0
M  V30 1672 C 166.603 1.84673 3.09723 0
M  V30 1673 O 165.707 1.14231 3.96264 0
M  V30 1674 H 165.048 0.404303 0.526721 0
M  V30 1675 H 167.578 1.68152 1.1656 0
M  V30 1676 H 167.588 1.91893 3.60057 0
M  V30 1677 H 166.263 2.89421 2.98677 0
M  V30 1678 H 164.84 1.15056 3.54706 0
M  V30 1679 N 167.025 -1.13721 1.09112 0
M  V30 1680 C 168.436 -1.6648 0.845068 0
M  V30 1681 C 168.787 -1.85911 -0.62701 0
M  V30 1682 O 167.912 -1.57556 -1.48341 0
M  V30 1683 C 168.507 -3.02413 1.52748 0
M  V30 1684 C 167.066 -3.52176 1.32849 0
M  V30 1685 C 166.213 -2.27492 1.58564 0
M  V30 1686 H 169.164 -0.976872 1.25072 0
M  V30 1687 H 169.185 -3.68223 0.958752 0
M  V30 1688 H 168.697 -2.88238 2.59885 0
M  V30 1689 H 166.798 -3.7156 0.278137 0
M  V30 1690 H 166.911 -4.32499 2.0611 0
M  V30 1691 H 165.275 -2.33923 1.00758 0
M  V30 1692 H 166.058 -2.15886 2.66924 0
M  V30 1693 N 168.503 -0.877838 -1.30888 0
M  V30 1694 C 169.914 -0.544193 -1.78593 0
M  V30 1695 C 170.265 0.939301 -1.72254 0
M  V30 1696 O 169.39 1.7337 -1.29505 0
M  V30 1697 C 169.985 -0.98105 -3.24285 0
M  V30 1698 C 168.544 -0.698935 -3.69854 0
M  V30 1699 C 167.691 -1.168 -2.51502 0
M  V30 1700 H 170.642 -1.06278 -1.17859 0
M  V30 1701 H 170.663 -0.307009 -3.79259 0
M  V30 1702 H 170.175 -2.06079 -3.28866 0
M  V30 1703 H 168.276 0.369112 -3.70767 0
M  V30 1704 H 168.389 -1.28148 -4.61644 0
M  V30 1705 H 166.753 -0.587535 -2.47831 0
M  V30 1706 H 167.536 -2.25533 -2.58824 0
M  V30 1707 N 169.982 1.44106 -0.638065 0
M  V30 1708 C 171.398 1.56672 -0.304286 0
M  V30 1709 C 171.598 1.6244 1.19228 0
M  V30 1710 O 170.654 1.57121 1.9766 0
M  V30 1711 C 171.967 2.83503 -1.00231 0
M  V30 1712 C 173.515 2.97226 -0.981116 0
M  V30 1713 C 173.99 4.26868 -1.65974 0
M  V30 1714 N 175.481 4.33698 -1.62666 0
M  V30 1715 C 176.216 5.32745 -2.12063 0
M  V30 1716 N 175.712 6.38157 -2.6968 0
M  V30 1717 N 177.505 5.24299 -2.02651 0
M  V30 1718 H 169.656 1.38605 -1.60942 0
M  V30 1719 H 171.919 0.664661 -0.675965 0
M  V30 1720 H 171.625 2.85251 -2.0573 0
M  V30 1721 H 171.499 3.73251 -0.54439 0
M  V30 1722 H 173.886 2.95027 0.0654188 0
M  V30 1723 H 173.967 2.08808 -1.47759 0
M  V30 1724 H 173.611 4.29826 -2.70576 0
M  V30 1725 H 173.541 5.14156 -1.13804 0
M  V30 1726 H 176.032 3.58138 -1.20606 0
M  V30 1727 H 176.345 7.10029 -3.05087 0
M  V30 1728 H 174.69 6.38823 -2.73734 0
M  V30 1729 H 177.881 4.4086 -1.57353 0
M  V30 1730 H 178.054 6.01334 -2.41457 0
M  V30 1731 N 171.46 0.379036 1.52974 0
M  V30 1732 C 172.685 -0.209353 2.06341 0
M  V30 1733 C 173.11 -1.40583 1.24972 0
M  V30 1734 O 172.468 -1.79246 0.272155 0
M  V30 1735 C 172.516 -0.567786 3.56102 0
M  V30 1736 O 171.62 -1.66318 3.77375 0
M  V30 1737 H 170.961 -0.0272919 0.663439 0
M  V30 1738 H 173.491 0.543536 1.97248 0
M  V30 1739 H 173.501 -0.835003 3.99364 0
M  V30 1740 H 172.176 0.307013 4.14765 0
M  V30 1741 H 170.753 -1.39048 3.46006 0
M  V30 1742 N 172.938 -1.57226 0.108567 0
M  V30 1743 C 174.349 -1.8195 -0.418464 0
M  V30 1744 C 174.7 -1.02508 -1.67292 0
M  V30 1745 O 173.825 -0.258496 -2.14851 0
M  V30 1746 C 174.42 -3.30028 -0.765979 0
M  V30 1747 C 172.979 -3.55469 -1.23769 0
M  V30 1748 C 172.126 -2.7625 -0.241106 0
M  V30 1749 H 175.077 -1.55149 0.33384 0
M  V30 1750 H 175.098 -3.44086 -1.62434 0
M  V30 1751 H 174.61 -3.87821 0.147219 0
M  V30 1752 H 172.711 -3.03022 -2.16814 0
M  V30 1753 H 172.824 -4.6408 -1.19022 0
M  V30 1754 H 171.188 -2.44133 -0.72602 0
M  V30 1755 H 171.971 -3.36797 0.665007 0
M  V30 1756 N 174.416 0.165178 -1.56732 0
M  V30 1757 C 175.832 0.517174 -1.50988 0
M  V30 1758 C 176.032 1.84331 -0.813894 0
M  V30 1759 O 175.088 2.49672 -0.37682 0
M  V30 1760 C 176.401 0.544261 -2.95733 0
M  V30 1761 C 177.949 0.631039 -3.06573 0
M  V30 1762 C 178.424 0.68896 -4.52788 0
M  V30 1763 N 179.915 0.751683 -4.5706 0
M  V30 1764 C 180.65 0.817177 -5.67547 0
M  V30 1765 N 180.146 0.843129 -6.8765 0
M  V30 1766 N 181.939 0.856668 -5.55534 0
M  V30 1767 H 174.09 -0.704318 -2.00382 0
M  V30 1768 H 176.353 -0.254687 -0.913148 0
M  V30 1769 H 176.059 -0.361607 -3.49836 0
M  V30 1770 H 175.933 1.3886 -3.5071 0
M  V30 1771 H 178.32 1.52733 -2.52501 0
M  V30 1772 H 178.401 -0.240095 -2.54671 0
M  V30 1773 H 178.045 -0.2031 -5.07494 0
M  V30 1774 H 177.975 1.57633 -5.02454 0
M  V30 1775 H 180.466 0.739661 -3.70591 0
M  V30 1776 H 180.779 0.894448 -7.67606 0
M  V30 1777 H 179.124 0.811304 -6.90248 0
M  V30 1778 H 182.315 0.833437 -4.60621 0
M  V30 1779 H 182.488 0.904247 -6.4166 0
M  V30 1780 N 175.894 1.51508 0.433938 0
M  V30 1781 C 177.31 1.39759 0.770682 0
M  V30 1782 C 177.51 0.482594 1.95636 0
M  V30 1783 O 176.566 -0.0609691 2.52426 0
M  V30 1784 C 177.879 2.81851 1.04787 0
M  V30 1785 C 179.427 2.91025 1.1521 0
M  V30 1786 C 179.902 4.34032 1.46219 0
M  V30 1787 N 181.393 4.37154 1.53136 0
M  V30 1788 C 182.128 5.4484 1.78709 0
M  V30 1789 N 181.624 6.62682 2.02051 0
M  V30 1790 N 183.417 5.32324 1.80519 0
M  V30 1791 H 175.568 2.09548 -0.346892 0
M  V30 1792 H 177.831 0.943446 -0.0928074 0
M  V30 1793 H 177.537 3.50815 0.249304 0
M  V30 1794 H 177.411 3.21386 1.97461 0
M  V30 1795 H 179.798 2.22257 1.94128 0
M  V30 1796 H 179.879 2.54983 0.204281 0
M  V30 1797 H 179.523 5.03351 0.678274 0
M  V30 1798 H 179.453 4.6759 2.42212 0
M  V30 1799 H 181.944 3.52197 1.36987 0
M  V30 1800 H 182.257 7.40543 2.20943 0
M  V30 1801 H 180.602 6.65791 1.99366 0
M  V30 1802 H 183.793 4.39246 1.61805 0
M  V30 1803 H 183.966 6.16328 2.00111 0
M  V30 1804 N 177.372 -0.689602 1.41712 0
M  V30 1805 C 178.305 -1.81403 1.3845 0
M  V30 1806 C 179.283 -1.60653 0.250874 0
M  V30 1807 O 180.467 -1.83323 0.43874 0
M  V30 1808 C 177.594 -3.18176 1.1611 0
M  V30 1809 C 176.64 -3.57705 2.3227 0
M  V30 1810 S 177.473 -3.61827 3.94767 0
M  V30 1811 C 178.629 -5.01318 3.74742 0
M  V30 1812 H 178.862 -1.83893 2.33603 0
M  V30 1813 H 176.395 -0.858878 1.28307 0
M  V30 1814 H 178.353 -3.97132 1.03907 0
M  V30 1815 H 177.014 -3.13288 0.225668 0
M  V30 1816 H 176.207 -4.57082 2.12349 0
M  V30 1817 H 175.809 -2.86073 2.40911 0
M  V30 1818 H 178.101 -5.88986 3.34817 0
M  V30 1819 H 179.044 -5.26283 4.73743 0
M  V30 1820 H 179.452 -4.73138 3.07898 0
M  V30 1821 N 178.85 -1.27639 -0.924453 0
M  V30 1822 C 180.075 -1.17101 -1.71179 0
M  V30 1823 C 180.5 0.268134 -1.86179 0
M  V30 1824 O 179.858 1.19415 -1.36418 0
M  V30 1825 C 179.906 -1.86313 -3.08739 0
M  V30 1826 O 179.01 -1.16331 -3.95652 0
M  V30 1827 H 178.351 -0.407091 -0.524569 0
M  V30 1828 H 180.881 -1.68767 -1.15666 0
M  V30 1829 H 180.891 -1.938 -3.59034 0
M  V30 1830 H 179.566 -2.91001 -2.97138 0
M  V30 1831 H 178.143 -1.16935 -3.54091 0
M  V30 1832 N 180.328 1.1314 -1.09713 0
M  V30 1833 C 181.575 1.84484 -0.834987 0
M  V30 1834 C 181.903 1.83689 0.639418 0
M  V30 1835 O 181.158 1.2724 1.4869 0
M  V30 1836 C 181.457 3.32167 -1.3191 0
M  V30 1837 C 181.123 3.53139 -2.80363 0
M  V30 1838 C 179.785 3.58571 -3.20905 0
M  V30 1839 C 182.137 3.60866 -3.76065 0
M  V30 1840 C 179.465 3.69267 -4.55916 0
M  V30 1841 C 181.817 3.73089 -5.10869 0
M  V30 1842 C 180.481 3.76775 -5.50996 0
M  V30 1843 H 179.751 0.675073 -0.305544 0
M  V30 1844 H 182.398 1.33554 -1.37243 0
M  V30 1845 H 180.703 3.85469 -0.701517 0
M  V30 1846 H 182.4 3.85821 -1.09284 0
M  V30 1847 H 178.99 3.49569 -2.47991 0
M  V30 1848 H 183.174 3.55946 -3.45855 0
M  V30 1849 H 178.43 3.70388 -4.86438 0
M  V30 1850 H 182.604 3.78011 -5.84877 0
M  V30 1851 H 180.231 3.84815 -6.55608 0
M  V30 1852 N 181.806 0.884767 1.30421 0
M  V30 1853 C 183.031 0.517288 2.00845 0
M  V30 1854 C 183.456 -0.886779 1.65885 0
M  V30 1855 O 182.814 -1.58768 0.875354 0
M  V30 1856 C 182.862 0.698994 3.5376 0
M  V30 1857 O 181.966 -0.255208 4.1161 0
M  V30 1858 H 181.307 0.203872 0.631927 0
M  V30 1859 H 183.837 1.19225 1.66272 0
M  V30 1860 H 183.847 0.597912 4.03595 0
M  V30 1861 H 182.522 1.72271 3.78544 0
M  V30 1862 H 181.099 -0.10784 3.72744 0
M  V30 1863 N 183.284 -1.43765 0.645699 0
M  V30 1864 C 184.532 -2.01499 0.155731 0
M  V30 1865 C 184.853 -1.51151 -1.232 0
M  V30 1866 O 184.123 -0.721044 -1.82148 0
M  V30 1867 H 182.703 -0.745003 0.0545817 0
M  V30 1868 H 185.365 -1.76075 0.835677 0
M  V30 1869 H 184.461 -3.1181 0.134577 0
M  V30 1870 N 184.763 -0.387143 -1.52771 0
M  V30 1871 C 186.012 0.19697 -2.00736 0
M  V30 1872 C 186.325 1.48082 -1.27793 0
M  V30 1873 O 187.531 2.14485 -1.66458 0
M  V30 1874 C 185.987 0.401568 -3.57653 0
M  V30 1875 C 185.595 -0.868907 -4.39493 0
M  V30 1876 C 187.339 0.942164 -4.13912 0
M  V30 1877 C 185.246 -0.632705 -5.88006 0
M  V30 1878 H 184.176 0.0773827 -0.750019 0
M  V30 1879 H 186.827 -0.50921 -1.76293 0
M  V30 1880 H 185.209 1.16954 -3.78335 0
M  V30 1881 H 186.383 -1.64133 -4.30577 0
M  V30 1882 H 184.698 -1.33429 -3.94443 0
M  V30 1883 H 187.295 1.13455 -5.22525 0
M  V30 1884 H 187.638 1.9106 -3.69867 0
M  V30 1885 H 188.171 0.233814 -3.97112 0
M  V30 1886 H 184.91 -1.57208 -6.36369 0
M  V30 1887 H 184.43 0.100825 -5.99715 0
M  V30 1888 H 186.109 -0.26642 -6.46451 0
M  V30 1889 N 186.241 1.57166 -0.116904 0
M  V30 1890 C 187.488 1.95123 0.541603 0
M  V30 1891 C 187.816 1.00006 1.6682 0
M  V30 1892 O 187.071 0.0235658 1.95686 0
M  V30 1893 C 187.37 3.39508 1.11664 0
M  V30 1894 C 187.036 4.50762 0.111606 0
M  V30 1895 C 185.698 4.80918 -0.164758 0
M  V30 1896 C 188.05 5.18036 -0.573438 0
M  V30 1897 C 185.378 5.75666 -1.13249 0
M  V30 1898 C 187.73 6.13824 -1.52978 0
M  V30 1899 C 186.394 6.42374 -1.81415 0
M  V30 1900 H 185.664 0.714005 0.198187 0
M  V30 1901 H 188.311 1.9048 -0.197365 0
M  V30 1902 H 186.616 3.40835 1.93232 0
M  V30 1903 H 188.313 3.66189 1.63422 0
M  V30 1904 H 184.903 4.27272 0.337192 0
M  V30 1905 H 189.087 4.94896 -0.373092 0
M  V30 1906 H 184.343 5.96092 -1.35958 0
M  V30 1907 H 188.517 6.65039 -2.06629 0
M  V30 1908 H 186.144 7.15599 -2.56557 0
M  V30 1909 N 187.719 -0.156864 1.56817 0
M  V30 1910 C 189.135 -0.50916 1.5126 0
M  V30 1911 C 189.335 -1.83897 0.823658 0
M  V30 1912 O 188.391 -2.49469 0.390055 0
M  V30 1913 C 189.704 -0.52857 2.96018 0
M  V30 1914 C 191.252 -0.614771 3.06903 0
M  V30 1915 C 191.727 -0.664938 4.53147 0
M  V30 1916 N 193.218 -0.727433 4.57452 0
M  V30 1917 C 193.953 -0.787067 5.67973 0
M  V30 1918 N 193.449 -0.806649 6.88088 0
M  V30 1919 N 195.242 -0.827195 5.5598 0
M  V30 1920 H 187.393 0.714935 2.00006 0
M  V30 1921 H 189.656 0.259526 0.911784 0
M  V30 1922 H 189.362 0.380154 3.49639 0
M  V30 1923 H 189.236 -1.36998 3.51442 0
M  V30 1924 H 191.623 -1.51392 2.53307 0
M  V30 1925 H 191.704 0.253597 2.5454 0
M  V30 1926 H 191.348 0.230011 5.07379 0
M  V30 1927 H 191.278 -1.54966 5.03282 0
M  V30 1928 H 193.769 -0.719998 3.70978 0
M  V30 1929 H 194.082 -0.853727 7.6807 0
M  V30 1930 H 192.427 -0.774687 6.90669 0
M  V30 1931 H 195.618 -0.808998 4.61056 0
M  V30 1932 H 195.791 -0.870206 6.4213 0
M  V30 1933 N 189.197 -1.51736 -0.425897 0
M  V30 1934 C 190.422 -1.69082 -1.20108 0
M  V30 1935 C 190.847 -0.392398 -1.83962 0
M  V30 1936 O 190.205 0.64858 -1.69302 0
M  V30 1937 C 190.253 -2.81604 -2.25237 0
M  V30 1938 O 189.357 -2.46004 -3.30992 0
M  V30 1939 H 188.698 -0.563408 -0.35138 0
M  V30 1940 H 191.228 -1.98358 -0.501512 0
M  V30 1941 H 191.238 -3.06025 -2.69838 0
M  V30 1942 H 189.913 -3.75817 -1.78142 0
M  V30 1943 H 188.49 -2.32195 -2.91787 0
M  V30 1944 N 190.675 0.682077 -1.42076 0
M  V30 1945 C 191.9 1.47558 -1.45744 0
M  V30 1946 C 192.325 1.87977 -0.0680981 0
M  V30 1947 O 191.683 1.55522 0.9318 0
M  V30 1948 C 191.731 2.70575 -2.38373 0
M  V30 1949 O 190.835 3.68573 -1.85007 0
M  V30 1950 H 190.176 0.443585 -0.494093 0
M  V30 1951 H 192.706 0.837238 -1.86686 0
M  V30 1952 H 192.716 3.18729 -2.54707 0
M  V30 1953 H 191.391 2.40495 -3.39315 0
M  V30 1954 H 189.968 3.2757 -1.78192 0
M  V30 1955 N 192.153 1.28127 0.917671 0
M  V30 1956 C 193.378 1.18007 1.70555 0
M  V30 1957 C 193.803 -0.258257 1.86319 0
M  V30 1958 O 193.161 -1.1869 1.37049 0
M  V30 1959 C 193.209 1.87948 3.07746 0
M  V30 1960 O 192.313 1.18427 3.9503 0
M  V30 1961 H 191.654 0.409867 0.522403 0
M  V30 1962 H 194.184 1.69379 1.1477 0
M  V30 1963 H 194.194 1.95701 3.58001 0
M  V30 1964 H 192.869 2.92573 2.95591 0
M  V30 1965 H 191.446 1.18811 3.53466 0
M  V30 1966 N 193.631 -1.12557 1.10312 0
M  V30 1967 C 194.578 -2.18247 0.750781 0
M  V30 1968 C 195.548 -1.63853 -0.272293 0
M  V30 1969 O 196.733 -1.90195 -0.151862 0
M  V30 1970 C 193.873 -3.44591 0.187379 0
M  V30 1971 C 192.986 -4.13046 1.2656 0
M  V30 1972 C 192.121 -5.27034 0.663978 0
M  V30 1973 C 191.16 -5.87353 1.72287 0
M  V30 1974 N 190.297 -6.92757 1.1416 0
M  V30 1975 H 195.137 -2.47732 1.65628 0
M  V30 1976 H 192.674 -1.21629 0.827337 0
M  V30 1977 H 194.632 -4.16904 -0.157148 0
M  V30 1978 H 193.262 -3.15527 -0.681355 0
M  V30 1979 H 192.314 -3.38924 1.72727 0
M  V30 1980 H 193.626 -4.53947 2.06721 0
M  V30 1981 H 192.78 -6.06104 0.268824 0
M  V30 1982 H 191.519 -4.87407 -0.169082 0
M  V30 1983 H 190.524 -5.06971 2.12746 0
M  V30 1984 H 191.749 -6.29051 2.55875 0
M  V30 1985 H 189.695 -6.5517 0.329984 0
M  V30 1986 H 189.612 -7.3225 1.88007 0
M  V30 1987 H 190.88 -7.75658 0.772956 0
M  V30 1988 N 195.109 -0.891671 -1.2995 0
M  V30 1989 C 196.019 -0.367691 -2.31701 0
M  V30 1990 C 197.035 0.533486 -1.6562 0
M  V30 1991 O 198.211 0.424997 -1.96865 0
M  V30 1992 C 195.276 0.403406 -3.44345 0
M  V30 1993 C 194.337 -0.528328 -4.26037 0
M  V30 1994 C 193.57 0.206063 -5.33302 0
M  V30 1995 O 193.793 1.43119 -5.52153 0
M  V30 1996 O 192.727 -0.447281 -6.00236 0
M  V30 1997 H 196.553 -1.21163 -2.78484 0
M  V30 1998 H 194.138 -0.655725 -1.34241 0
M  V30 1999 H 196.02 0.839753 -4.12948 0
M  V30 2000 H 194.695 1.22354 -2.99685 0
M  V30 2001 H 193.602 -1.01362 -3.60106 0
M  V30 2002 H 194.935 -1.31465 -4.74318 0
M  V30 2003 N 196.587 1.43421 -0.653314 0
M  V30 2004 C 197.812 2.06678 -0.172846 0
M  V30 2005 C 198.237 1.48648 1.15262 0
M  V30 2006 O 197.595 0.596457 1.71208 0
M  V30 2007 C 197.643 3.60474 -0.0953184 0
M  V30 2008 O 196.747 4.01487 0.942442 0
M  V30 2009 H 196.088 0.657181 -0.0949155 0
M  V30 2010 H 198.618 1.83925 -0.896265 0
M  V30 2011 H 198.628 4.07905 0.0879728 0
M  V30 2012 H 197.303 4.02088 -1.06291 0
M  V30 2013 H 195.88 3.65646 0.731932 0
M  V30 2014 N 198.065 0.39524 1.52563 0
M  V30 2015 C 199.29 -0.187456 2.06551 0
M  V30 2016 C 199.715 -1.39249 1.26457 0
M  V30 2017 O 199.073 -1.78947 0.291151 0
M  V30 2018 C 199.121 -0.529985 3.56684 0
M  V30 2019 O 198.225 -1.62307 3.79118 0
M  V30 2020 H 197.566 -0.0202537 0.663691 0
M  V30 2021 H 200.096 0.564426 1.96661 0
M  V30 2022 H 200.106 -0.792598 4.00227 0
M  V30 2023 H 198.781 0.350987 4.14416 0
M  V30 2024 H 197.358 -1.3537 3.47461 0
M  V30 2025 N 199.544 -1.57102 0.125237 0
M  V30 2026 C 200.955 -1.82384 -0.399142 0
M  V30 2027 C 201.306 -1.04276 -1.66195 0
M  V30 2028 O 200.431 -0.281269 -2.14564 0
M  V30 2029 C 201.026 -3.30821 -0.730932 0
M  V30 2030 C 199.585 -3.56762 -1.19992 0
M  V30 2031 C 198.732 -2.7649 -0.211792 0
M  V30 2032 H 201.683 -1.54786 0.350277 0
M  V30 2033 H 201.704 -3.4579 -1.58775 0
M  V30 2034 H 201.216 -3.87643 0.188345 0
M  V30 2035 H 199.317 -3.05305 -2.13588 0
M  V30 2036 H 199.43 -4.65317 -1.14093 0
M  V30 2037 H 197.794 -2.4489 -0.700085 0
M  V30 2038 H 198.577 -3.36073 0.700691 0
M  V30 2039 N 201.022 0.148545 -1.56898 0
M  V30 2040 C 201.97 1.20265 -1.99096 0
M  V30 2041 C 202.964 1.44559 -0.883123 0
M  V30 2042 O 204.17 1.4487 -1.0683 0
M  V30 2043 H 200.545 0.404786 -0.63376 0
M  V30 2044 H 202.516 0.82004 -2.86911 0
M  V30 2045 C 201.265 2.52886 -2.3863 0
M  V30 2046 H 200.588 2.35021 -3.23427 0
M  V30 2047 H 202.028 3.25274 -2.7198 0
M  V30 2048 C 200.487 3.13315 -1.23837 0
M  V30 2049 O 201.017 3.98077 -0.538268 0
M  V30 2050 N 199.223 2.72742 -1.00301 0
M  V30 2051 H 198.77 2.03912 -1.5741 0
M  V30 2052 H 198.728 3.13507 -0.236838 0
M  V30 2053 N 202.5 1.5196 0.417844 0
M  V30 2054 C 203.725 1.69717 1.1921 0
M  V30 2055 C 204.15 0.402148 1.83751 0
M  V30 2056 O 203.508 -0.639593 1.69643 0
M  V30 2057 C 203.556 2.82794 2.2374 0
M  V30 2058 O 202.66 2.47756 3.29683 0
M  V30 2059 H 202.001 0.565263 0.348387 0
M  V30 2060 H 204.531 1.98621 0.490985 0
M  V30 2061 H 204.541 3.07452 2.68212 0
M  V30 2062 H 203.216 3.76756 1.76146 0
M  V30 2063 H 201.793 2.33739 2.90552 0
M  V30 2064 N 203.978 -0.674533 1.42435 0
M  V30 2065 C 204.926 -1.80934 1.46169 0
M  V30 2066 C 205.92 -1.66006 0.3374 0
M  V30 2067 O 207.126 -1.72611 0.510425 0
M  V30 2068 H 203.501 -0.596594 0.457798 0
M  V30 2069 H 205.472 -1.74903 2.41767 0
M  V30 2070 C 204.221 -3.19088 1.38123 0
M  V30 2071 H 203.544 -3.31203 2.23931 0
M  V30 2072 H 204.984 -3.9851 1.44797 0
M  V30 2073 C 203.443 -3.36763 0.0960517 0
M  V30 2074 O 203.973 -3.92581 -0.851073 0
M  V30 2075 N 202.179 -2.90597 0.0131186 0
M  V30 2076 H 201.726 -2.45359 0.784639 0
M  V30 2077 H 201.684 -3.028 -0.846133 0
M  V30 2078 N 205.456 -1.28612 -0.910864 0
M  V30 2079 C 206.867 -1.14406 -1.47541 0
M  V30 2080 C 207.218 0.264901 -1.94403 0
M  V30 2081 O 206.343 1.15942 -1.82719 0
M  V30 2082 C 206.938 -2.07073 -2.68153 0
M  V30 2083 C 205.497 -1.96923 -3.20778 0
M  V30 2084 C 204.644 -1.98646 -1.93481 0
M  V30 2085 H 207.595 -1.41259 -0.723291 0
M  V30 2086 H 207.616 -1.63642 -3.43514 0
M  V30 2087 H 207.128 -3.09611 -2.34015 0
M  V30 2088 H 205.229 -0.97433 -3.59635 0
M  V30 2089 H 205.342 -2.84026 -3.85832 0
M  V30 2090 H 203.706 -1.43093 -2.10705 0
M  V30 2091 H 204.489 -3.02868 -1.61634 0
M  V30 2092 N 206.934 1.1197 -1.10907 0
M  V30 2093 C 207.897 2.16031 -0.765707 0
M  V30 2094 C 208.897 1.59393 0.212235 0
M  V30 2095 O 210.087 1.74196 -0.0115441 0
M  V30 2096 C 207.219 3.40632 -0.135053 0
M  V30 2097 H 208.412 2.47919 -1.68748 0
M  V30 2098 H 205.965 1.27061 -0.910226 0
M  V30 2099 H 206.7 3.14348 0.797218 0
M  V30 2100 H 206.485 3.8302 -0.838937 0
M  V30 2101 H 207.975 4.17505 0.0892469 0
M  V30 2102 N 208.412 0.89855 1.29475 0
M  V30 2103 C 209.64 0.539261 1.99749 0
M  V30 2104 C 210.055 -0.875716 1.67262 0
M  V30 2105 O 209.412 -1.57786 0.917049 0
M  V30 2106 C 209.463 0.72061 3.54245 0
M  V30 2107 O 209.184 2.07989 3.8558 0
M  V30 2108 C 210.685 0.366118 4.41786 0
M  V30 2109 H 207.905 0.207047 0.638258 0
M  V30 2110 H 210.449 1.20758 1.65039 0
M  V30 2111 H 208.604 0.0994862 3.87272 0
M  V30 2112 H 209.018 2.10841 4.80257 0
M  V30 2113 H 210.492 0.543848 5.49314 0
M  V30 2114 H 210.969 -0.696763 4.33638 0
M  V30 2115 H 211.575 0.964135 4.14228 0
M  V30 2116 N 209.89 -1.43072 0.660911 0
M  V30 2117 C 211.115 -2.06584 0.183805 0
M  V30 2118 C 211.54 -1.49257 -1.14472 0
M  V30 2119 O 210.898 -0.605528 -1.70889 0
M  V30 2120 C 210.946 -3.60418 0.114434 0
M  V30 2121 O 210.05 -4.01981 -0.921137 0
M  V30 2122 H 209.391 -0.656669 0.0983994 0
M  V30 2123 H 211.921 -1.83447 0.906006 0
M  V30 2124 H 211.931 -4.07946 -0.0663394 0
M  V30 2125 H 210.606 -4.01519 1.08422 0
M  V30 2126 H 209.183 -3.66029 -0.71253 0
M  V30 2127 N 211.368 -0.403325 -1.52352 0
M  V30 2128 C 212.779 0.0675782 -1.86578 0
M  V30 2129 C 213.13 1.44941 -1.32236 0
M  V30 2130 O 212.255 2.06112 -0.659307 0
M  V30 2131 C 212.85 0.129404 -3.38553 0
M  V30 2132 C 211.409 0.544629 -3.72439 0
M  V30 2133 C 210.556 -0.284551 -2.75836 0
M  V30 2134 H 213.507 -0.620631 -1.46061 0
M  V30 2135 H 213.528 0.94581 -3.68558 0
M  V30 2136 H 213.04 -0.87645 -3.78074 0
M  V30 2137 H 211.141 1.55734 -3.38493 0
M  V30 2138 H 211.254 0.293046 -4.78203 0
M  V30 2139 H 209.618 0.252258 -2.53448 0
M  V30 2140 H 210.401 -1.28865 -3.18196 0
M  V30 2141 N 212.846 1.57033 -0.133567 0
M  V30 2142 C 214.094 1.953 0.519848 0
M  V30 2143 C 214.415 1.01866 1.66278 0
M  V30 2144 O 213.685 0.0776513 1.95746 0
M  V30 2145 H 212.265 0.721091 0.195032 0
M  V30 2146 H 214.927 1.93809 -0.205921 0
M  V30 2147 H 214.023 2.98695 0.904854 0
M  V30 2148 N 214.325 -0.140222 1.56975 0
M  V30 2149 C 215.573 -0.850005 1.83356 0
M  V30 2150 C 215.894 -1.81399 0.71551 0
M  V30 2151 O 215.164 -1.94136 -0.262294 0
M  V30 2152 H 213.744 -0.316886 0.676456 0
M  V30 2153 H 216.406 -0.132608 1.94448 0
M  V30 2154 H 215.502 -1.40814 2.78528 0
M  V30 2155 N 215.803 -1.52179 -0.40978 0
M  V30 2156 C 217.052 -1.65434 -1.15388 0
M  V30 2157 C 217.365 -0.390056 -1.91671 0
M  V30 2158 O 218.571 -0.402399 -2.68501 0
M  V30 2159 C 217.027 -2.92279 -2.10003 0
M  V30 2160 C 216.635 -4.25813 -1.39239 0
M  V30 2161 C 218.379 -3.14897 -2.84675 0
M  V30 2162 C 216.286 -5.43782 -2.32498 0
M  V30 2163 H 215.216 -0.616267 -0.434432 0
M  V30 2164 H 217.867 -1.78666 -0.418401 0
M  V30 2165 H 216.249 -2.72744 -2.871 0
M  V30 2166 H 217.423 -4.55828 -0.675099 0
M  V30 2167 H 215.738 -4.09292 -0.766097 0
M  V30 2168 H 218.335 -4.0021 -3.54593 0
M  V30 2169 H 218.678 -2.29103 -3.47588 0
M  V30 2170 H 219.211 -3.34901 -2.14677 0
M  V30 2171 H 215.95 -6.3192 -1.74233 0
M  V30 2172 H 215.47 -5.18106 -3.02201 0
M  V30 2173 H 217.149 -5.76834 -2.93038 0
M  V30 2174 N 217.281 0.66697 -1.42791 0
M  V30 2175 C 218.697 0.981027 -1.25889 0
M  V30 2176 C 218.897 2.00793 -0.168695 0
M  V30 2177 O 217.953 2.48321 0.45747 0
M  V30 2178 C 219.266 1.47838 -2.61848 0
M  V30 2179 C 220.814 1.59575 -2.69267 0
M  V30 2180 C 221.289 2.12704 -4.05612 0
M  V30 2181 N 222.78 2.20026 -4.07606 0
M  V30 2182 C 223.515 2.62227 -5.09926 0
M  V30 2183 N 223.011 3.03824 -6.22626 0
M  V30 2184 N 224.804 2.62045 -4.97281 0
M  V30 2185 H 216.955 -0.0127891 -2.12396 0
M  V30 2186 H 219.218 0.0568258 -0.946295 0
M  V30 2187 H 218.924 0.798299 -3.4252 0
M  V30 2188 H 218.798 2.45579 -2.86305 0
M  V30 2189 H 221.185 2.26687 -1.88936 0
M  V30 2190 H 221.266 0.60302 -2.48591 0
M  V30 2191 H 220.91 1.46198 -4.86404 0
M  V30 2192 H 220.84 3.12782 -4.23645 0
M  V30 2193 H 223.331 1.90708 -3.2625 0
M  V30 2194 H 223.644 3.34734 -6.96544 0
M  V30 2195 H 221.989 3.01662 -6.26119 0
M  V30 2196 H 225.18 2.28916 -4.08308 0
M  V30 2197 H 225.353 2.94613 -5.77154 0
M  V30 2198 N 218.759 1.29093 0.90403 0
M  V30 2199 C 220.006 1.16813 1.65411 0
M  V30 2200 C 220.334 -0.28128 1.92455 0
M  V30 2201 O 219.589 -1.22006 1.53013 0
M  V30 2202 C 219.888 1.92224 3.01305 0
M  V30 2203 C 219.554 3.41968 2.93885 0
M  V30 2204 C 218.216 3.82807 2.91569 0
M  V30 2205 C 220.568 4.37409 2.83413 0
M  V30 2206 C 217.896 5.1741 2.76594 0
M  V30 2207 C 220.248 5.72097 2.69977 0
M  V30 2208 C 218.912 6.12199 2.66024 0
M  V30 2209 H 218.182 0.42745 0.605283 0
M  V30 2210 H 220.829 1.59981 1.05254 0
M  V30 2211 H 219.134 1.41635 3.65304 0
M  V30 2212 H 220.831 1.80131 3.58265 0
M  V30 2213 H 217.421 3.09504 2.96488 0
M  V30 2214 H 221.605 4.06813 2.84283 0
M  V30 2215 H 216.861 5.47596 2.71935 0
M  V30 2216 H 221.035 6.45704 2.60844 0
M  V30 2217 H 218.662 7.16448 2.54178 0
M  V30 2218 N 220.237 -1.11381 1.11499 0
M  V30 2219 C 221.484 -1.83132 0.864231 0
M  V30 2220 C 221.812 -1.84683 -0.610114 0
M  V30 2221 O 221.067 -1.29589 -1.46646 0
M  V30 2222 C 221.366 -3.30026 1.37177 0
M  V30 2223 C 221.032 -3.48634 2.85946 0
M  V30 2224 C 219.694 -3.53421 3.26569 0
M  V30 2225 C 222.046 -3.54837 3.81759 0
M  V30 2226 C 219.374 -3.61967 4.61733 0
M  V30 2227 C 221.726 -3.64915 5.1674 0
M  V30 2228 C 220.39 -3.67962 5.5692 0
M  V30 2229 H 219.66 -0.670127 0.316245 0
M  V30 2230 H 222.307 -1.31354 1.3935 0
M  V30 2231 H 220.612 -3.84304 0.762753 0
M  V30 2232 H 222.309 -3.84034 1.15408 0
M  V30 2233 H 218.899 -3.45579 2.53521 0
M  V30 2234 H 223.083 -3.50399 3.51474 0
M  V30 2235 H 218.339 -3.62603 4.92269 0
M  V30 2236 H 222.513 -3.68658 5.90816 0
M  V30 2237 H 220.14 -3.74336 6.61647 0
M  V30 2238 N 221.715 -0.905404 -1.28997 0
M  V30 2239 C 222.94 -0.549175 -1.99997 0
M  V30 2240 C 223.365 0.860276 -1.67275 0
M  V30 2241 O 222.723 1.57355 -0.900502 0
M  V30 2242 C 222.771 -0.755185 -3.52604 0
M  V30 2243 O 221.875 0.189692 -4.11964 0
M  V30 2244 H 221.216 -0.213899 -0.628604 0
M  V30 2245 H 223.746 -1.21856 -1.64354 0
M  V30 2246 H 223.756 -0.662045 -4.02593 0
M  V30 2247 H 222.431 -1.78271 -3.75755 0
M  V30 2248 H 221.008 0.0485257 -3.72868 0
M  V30 2249 N 223.193 1.4272 -0.668489 0
M  V30 2250 C 224.609 1.55992 -0.33745 0
M  V30 2251 C 224.809 1.64933 1.15756 0
M  V30 2252 O 223.865 1.61278 1.94282 0
M  V30 2253 C 225.178 2.81314 -1.06222 0
M  V30 2254 C 226.726 2.95078 -1.04394 0
M  V30 2255 C 227.201 4.23252 -1.74991 0
M  V30 2256 N 228.692 4.3015 -1.71829 0
M  V30 2257 C 229.427 5.28127 -2.23315 0
M  V30 2258 N 228.923 6.32293 -2.83156 0
M  V30 2259 N 230.716 5.19882 -2.13726 0
M  V30 2260 H 222.867 1.3516 -1.63846 0
M  V30 2261 H 225.13 0.650174 -0.689912 0
M  V30 2262 H 224.836 2.80823 -2.11734 0
M  V30 2263 H 224.71 3.72012 -0.62344 0
M  V30 2264 H 227.097 2.951 0.0028244 0
M  V30 2265 H 227.178 2.05627 -1.52155 0
M  V30 2266 H 226.822 4.2399 -2.79633 0
M  V30 2267 H 226.752 5.11626 -1.24685 0
M  V30 2268 H 229.243 3.55499 -1.28175 0
M  V30 2269 H 229.556 7.03398 -3.20079 0
M  V30 2270 H 227.901 6.32873 -2.87223 0
M  V30 2271 H 231.092 4.37423 -1.66669 0
M  V30 2272 H 231.265 5.96077 -2.54158 0
M  V30 2273 N 224.671 0.411399 1.52136 0
M  V30 2274 C 225.896 -0.165538 2.06738 0
M  V30 2275 C 226.321 -1.379 1.27926 0
M  V30 2276 O 225.679 -1.78628 0.310114 0
M  V30 2277 C 225.727 -0.492124 3.57226 0
M  V30 2278 O 224.831 -1.58276 3.80818 0
M  V30 2279 H 224.172 -0.0132132 0.663869 0
M  V30 2280 H 226.702 0.585253 1.96051 0
M  V30 2281 H 226.712 -0.750104 4.01045 0
M  V30 2282 H 225.387 0.394922 4.14021 0
M  V30 2283 H 223.964 -1.31677 3.48877 0
M  V30 2284 N 226.149 -1.5696 0.141893 0
M  V30 2285 C 227.565 -1.58151 -0.21456 0
M  V30 2286 C 227.765 -1.1559 -1.65049 0
M  V30 2287 O 226.821 -0.853832 -2.37626 0
M  V30 2288 C 228.134 -3.00674 0.0395576 0
M  V30 2289 C 229.682 -3.1299 -0.0245529 0
M  V30 2290 C 230.157 -4.57554 0.202167 0
M  V30 2291 N 231.648 -4.62961 0.148919 0
M  V30 2292 C 232.383 -5.7262 0.298924 0
M  V30 2293 N 231.879 -6.90947 0.50637 0
M  V30 2294 N 233.672 -5.61601 0.236886 0
M  V30 2295 H 225.823 -1.8292 1.07953 0
M  V30 2296 H 228.086 -0.846425 0.42693 0
M  V30 2297 H 227.792 -3.36183 1.03315 0
M  V30 2298 H 227.666 -3.70981 -0.682143 0
M  V30 2299 H 230.053 -2.77326 -1.00869 0
M  V30 2300 H 230.134 -2.4518 0.729396 0
M  V30 2301 H 229.778 -4.93922 1.18338 0
M  V30 2302 H 229.708 -5.23484 -0.572044 0
M  V30 2303 H 232.199 -3.77899 -0.00697015 0
M  V30 2304 H 232.512 -7.7038 0.611076 0
M  V30 2305 H 230.857 -6.92878 0.542628 0
M  V30 2306 H 234.048 -4.68039 0.0756209 0
M  V30 2307 H 234.221 -6.47015 0.357227 0
M  V30 2308 N 227.627 0.131896 -1.57047 0
M  V30 2309 C 228.574 1.16236 -1.99393 0
M  V30 2310 C 229.544 1.41863 -0.863943 0
M  V30 2311 O 230.729 1.53946 -1.12718 0
M  V30 2312 C 227.869 2.48708 -2.39245 0
M  V30 2313 C 226.982 2.30127 -3.65603 0
M  V30 2314 C 226.117 3.55738 -3.94492 0
M  V30 2315 C 225.156 3.32259 -5.14073 0
M  V30 2316 N 224.293 4.50039 -5.38896 0
M  V30 2317 H 229.133 0.794251 -2.87221 0
M  V30 2318 H 226.67 0.380707 -1.42088 0
M  V30 2319 H 228.628 3.25969 -2.60384 0
M  V30 2320 H 227.258 2.83437 -1.54478 0
M  V30 2321 H 226.31 1.43845 -3.52154 0
M  V30 2322 H 227.622 2.08746 -4.5302 0
M  V30 2323 H 226.776 4.41423 -4.1621 0
M  V30 2324 H 225.515 3.80138 -3.05526 0
M  V30 2325 H 224.52 2.44963 -4.92212 0
M  V30 2326 H 225.745 3.09242 -6.04604 0
M  V30 2327 H 223.691 4.74584 -4.52886 0
M  V30 2328 H 223.608 4.31716 -6.2061 0
M  V30 2329 H 224.876 5.36895 -5.65123 0
M  V30 2330 N 229.106 1.52395 0.401703 0
M  V30 2331 C 230.334 1.70676 1.16949 0
M  V30 2332 C 230.749 0.419503 1.8408 0
M  V30 2333 O 230.106 -0.605061 1.72178 0
M  V30 2334 C 230.157 2.84753 2.22706 0
M  V30 2335 O 229.878 4.08495 1.58314 0
M  V30 2336 C 231.379 3.14608 3.12309 0
M  V30 2337 H 228.599 0.571787 0.351142 0
M  V30 2338 H 231.143 1.98987 0.471652 0
M  V30 2339 H 229.298 2.58941 2.88147 0
M  V30 2340 H 229.712 4.72117 2.28485 0
M  V30 2341 H 231.186 3.97923 3.82572 0
M  V30 2342 H 231.663 2.28464 3.75101 0
M  V30 2343 H 232.269 3.42212 2.52529 0
M  V30 2344 N 230.584 -0.659388 1.43143 0
M  V30 2345 C 231.809 -1.45221 1.48073 0
M  V30 2346 C 232.234 -1.87845 0.097995 0
M  V30 2347 O 231.592 -1.56985 -0.90694 0
M  V30 2348 C 231.64 -2.66748 2.42647 0
M  V30 2349 O 230.744 -3.65583 1.90848 0
M  V30 2350 H 230.085 -0.435669 0.501088 0
M  V30 2351 H 232.615 -0.807432 1.87994 0
M  V30 2352 H 232.625 -3.14637 2.59745 0
M  V30 2353 H 231.3 -2.35067 3.43098 0
M  V30 2354 H 229.877 -3.24693 1.83381 0
M  V30 2355 N 232.062 -1.29571 -0.897171 0
M  V30 2356 C 233.31 -1.17456 -1.64464 0
M  V30 2357 C 233.631 0.273698 -1.9307 0
M  V30 2358 O 232.901 1.18684 -1.55855 0
M  V30 2359 H 231.481 -0.431706 -0.609622 0
M  V30 2360 H 234.143 -1.62531 -1.07562 0
M  V30 2361 H 233.239 -1.72648 -2.59998 0
M  V30 2362 N 233.54 1.10788 -1.12088 0
M  V30 2363 C 234.47 2.19083 -0.807755 0
M  V30 2364 C 235.451 1.6858 0.226859 0
M  V30 2365 O 236.636 1.93997 0.0888475 0
M  V30 2366 C 233.766 3.46344 -0.257576 0
M  V30 2367 C 232.72 4.101 -1.22483 0
M  V30 2368 C 232.046 5.32016 -0.535052 0
M  V30 2369 C 233.346 4.54236 -2.57811 0
M  V30 2370 H 235.04 2.45534 -1.71328 0
M  V30 2371 H 232.586 1.1801 -0.825205 0
M  V30 2372 H 234.539 4.21392 -0.0262679 0
M  V30 2373 H 233.263 3.19373 0.683278 0
M  V30 2374 H 231.922 3.37054 -1.44189 0
M  V30 2375 H 231.57 5.01319 0.410827 0
M  V30 2376 H 231.27 5.75625 -1.18024 0
M  V30 2377 H 232.794 6.09799 -0.312695 0
M  V30 2378 H 234.208 5.20575 -2.40155 0
M  V30 2379 H 232.605 5.08682 -3.18375 0
M  V30 2380 H 233.675 3.6734 -3.16528 0
M  V30 2381 N 235.018 0.912232 1.28515 0
M  V30 2382 C 236.243 0.559774 1.99703 0
M  V30 2383 C 236.668 -0.851393 1.67729 0
M  V30 2384 O 236.026 -1.56875 0.908834 0
M  V30 2385 C 236.074 0.773874 3.52198 0
M  V30 2386 O 235.178 -0.167842 4.12058 0
M  V30 2387 H 234.519 0.21723 0.627461 0
M  V30 2388 H 237.049 1.22725 1.63706 0
M  V30 2389 H 237.059 0.683386 4.02236 0
M  V30 2390 H 235.734 1.80261 3.74805 0
M  V30 2391 H 234.311 -0.0287509 3.72889 0
M  V30 2392 N 236.496 -1.42363 0.676048 0
M  V30 2393 C 237.721 -2.06377 0.205705 0
M  V30 2394 C 238.146 -1.50463 -1.12883 0
M  V30 2395 O 237.504 -0.623619 -1.70237 0
M  V30 2396 C 237.552 -3.60277 0.152655 0
M  V30 2397 O 236.656 -4.02935 -0.87845 0
M  V30 2398 H 235.997 -0.655588 0.105359 0
M  V30 2399 H 238.527 -1.82475 0.925412 0
M  V30 2400 H 238.537 -4.07993 -0.0230675 0
M  V30 2401 H 237.212 -4.00346 1.12675 0
M  V30 2402 H 235.789 -3.66764 -0.673668 0
M  V30 2403 N 237.974 -0.419461 -1.51915 0
M  V30 2404 C 239.199 0.154572 -2.06823 0
M  V30 2405 C 239.624 1.3722 -1.28656 0
M  V30 2406 O 238.982 1.78461 -0.319583 0
M  V30 2407 C 239.03 0.473172 -3.57482 0
M  V30 2408 O 238.134 1.56255 -3.81652 0
M  V30 2409 H 237.475 0.0096924 -0.663929 0
M  V30 2410 H 240.005 -0.595642 -1.95738 0
M  V30 2411 H 240.015 0.728825 -4.01438 0
M  V30 2412 H 238.69 -0.416873 -4.13805 0
M  V30 2413 H 237.267 1.29825 -3.49571 0
M  V30 2414 N 239.452 1.56882 -0.150215 0
M  V30 2415 C 240.863 1.82995 0.370076 0
M  V30 2416 C 241.214 1.06907 1.64515 0
M  V30 2417 O 240.339 0.315369 2.1409 0
M  V30 2418 C 240.934 3.31942 0.678208 0
M  V30 2419 C 239.493 3.58625 1.14301 0
M  V30 2420 C 238.64 2.76792 0.167778 0
M  V30 2421 H 241.591 1.54209 -0.374858 0
M  V30 2422 H 241.612 3.48272 1.53254 0
M  V30 2423 H 241.124 3.87294 -0.249991 0
M  V30 2424 H 239.225 3.08664 2.08704 0
M  V30 2425 H 239.338 4.67073 1.06676 0
M  V30 2426 H 237.702 2.45972 0.661037 0
M  V30 2427 H 238.485 3.34916 -0.754069 0
M  V30 2428 N 240.93 -0.123565 1.57115 0
M  V30 2429 C 242.155 -0.850398 1.89164 0
M  V30 2430 C 242.58 -1.7286 0.741688 0
M  V30 2431 O 241.938 -1.78665 -0.307958 0
M  V30 2432 C 241.986 -1.66353 3.19936 0
M  V30 2433 O 241.09 -2.77004 3.0552 0
M  V30 2434 H 240.431 -0.235454 0.620852 0
M  V30 2435 H 242.961 -0.107335 2.04318 0
M  V30 2436 H 242.971 -2.05372 3.52543 0
M  V30 2437 H 241.646 -1.01881 4.03228 0
M  V30 2438 H 240.223 -2.41221 2.84371 0
M  V30 2439 N 242.408 -1.52605 -0.393616 0
M  V30 2440 C 243.636 -1.71294 -1.16043 0
M  V30 2441 C 244.051 -0.429259 -1.83855 0
M  V30 2442 O 243.408 0.595921 -1.72496 0
M  V30 2443 C 243.459 -2.8593 -2.21193 0
M  V30 2444 O 243.18 -4.09329 -1.56146 0
M  V30 2445 C 244.681 -3.16259 -3.10636 0
M  V30 2446 H 241.901 -0.573641 -0.348104 0
M  V30 2447 H 244.445 -1.99234 -0.461092 0
M  V30 2448 H 242.6 -2.60465 -2.86769 0
M  V30 2449 H 243.014 -4.73323 -2.25978 0
M  V30 2450 H 244.488 -3.99946 -3.80456 0
M  V30 2451 H 244.965 -2.3045 -3.73884 0
M  V30 2452 H 245.571 -3.43547 -2.50711 0
M  V30 2453 N 243.887 0.651787 -1.4349 0
M  V30 2454 C 245.298 1.233 -1.40193 0
M  V30 2455 C 245.649 1.9591 -0.106727 0
M  V30 2456 O 244.774 2.01316 0.793773 0
M  V30 2457 C 245.369 2.24257 -2.53957 0
M  V30 2458 C 243.928 2.77852 -2.5392 0
M  V30 2459 C 243.075 1.52517 -2.3159 0
M  V30 2460 H 246.026 0.443717 -1.52371 0
M  V30 2461 H 246.047 3.0646 -2.25528 0
M  V30 2462 H 245.559 1.71382 -3.4821 0
M  V30 2463 H 243.66 3.34786 -1.63551 0
M  V30 2464 H 243.773 3.25299 -3.51735 0
M  V30 2465 H 242.137 1.79915 -1.80285 0
M  V30 2466 H 242.92 1.01574 -3.27929 0
M  V30 2467 N 245.365 1.30045 0.890287 0
M  V30 2468 C 246.593 1.21472 1.67487 0
M  V30 2469 C 247.008 -0.223241 1.87476 0
M  V30 2470 O 246.365 -1.14828 1.41847 0
M  V30 2471 C 246.416 1.93394 3.05419 0
M  V30 2472 O 246.137 3.31576 2.86337 0
M  V30 2473 C 247.638 1.91414 3.99844 0
M  V30 2474 H 244.858 0.420604 0.522813 0
M  V30 2475 H 247.402 1.7158 1.11268 0
M  V30 2476 H 245.557 1.47099 3.58386 0
M  V30 2477 H 245.971 3.67929 3.73802 0
M  V30 2478 H 247.445 2.46285 4.94012 0
M  V30 2479 H 247.922 0.891833 4.3005 0
M  V30 2480 H 248.528 2.37496 3.52811 0
M  V30 2481 N 246.843 -1.10192 1.12674 0
M  V30 2482 C 247.775 -2.16418 0.754701 0
M  V30 2483 C 248.788 -1.61309 -0.21986 0
M  V30 2484 O 249.977 -1.785 -0.000826841 0
M  V30 2485 C 247.077 -3.38762 0.096698 0
M  V30 2486 C 246.25 -4.23307 1.10136 0
M  V30 2487 C 245.309 -5.24092 0.470513 0
M  V30 2488 O 244.335 -5.57906 1.12824 0
M  V30 2489 N 245.537 -5.75491 -0.760948 0
M  V30 2490 H 248.302 -2.48943 1.66875 0
M  V30 2491 H 245.863 -1.25834 1.01869 0
M  V30 2492 H 247.855 -4.03291 -0.337384 0
M  V30 2493 H 246.425 -3.04192 -0.720153 0
M  V30 2494 H 245.645 -3.55036 1.71299 0
M  V30 2495 H 246.933 -4.76624 1.78064 0
M  V30 2496 H 246.331 -5.50222 -1.31424 0
M  V30 2497 H 244.888 -6.41792 -1.13781 0
M  V30 2498 N 248.321 -0.919034 -1.28029 0
M  V30 2499 C 249.567 -0.555757 -1.95036 0
M  V30 2500 C 249.9 0.899198 -1.72128 0
M  V30 2501 O 249.175 1.64023 -1.04531 0
M  V30 2502 C 249.458 -0.872024 -3.49382 0
M  V30 2503 C 249.311 -2.3801 -3.81669 0
M  V30 2504 C 250.63 -0.37185 -4.38526 0
M  V30 2505 H 247.749 -0.203386 -0.708381 0
M  V30 2506 H 250.391 -1.14924 -1.51303 0
M  V30 2507 H 248.541 -0.366946 -3.86763 0
M  V30 2508 H 250.213 -2.9562 -3.54128 0
M  V30 2509 H 248.456 -2.83289 -3.28526 0
M  V30 2510 H 249.127 -2.55192 -4.8947 0
M  V30 2511 H 251.603 -0.804602 -4.08247 0
M  V30 2512 H 250.479 -0.622173 -5.45362 0
M  V30 2513 H 250.74 0.727934 -4.36066 0
M  V30 2514 N 249.799 1.42003 -0.683588 0
M  V30 2515 C 251.027 2.05746 -0.218182 0
M  V30 2516 C 251.442 1.51396 1.12804 0
M  V30 2517 O 250.799 0.657303 1.70252 0
M  V30 2518 C 250.85 3.61171 -0.154131 0
M  V30 2519 O 250.571 4.13508 -1.44716 0
M  V30 2520 C 252.072 4.42042 0.333713 0
M  V30 2521 H 249.292 0.662888 -0.10402 0
M  V30 2522 H 251.836 1.81987 -0.9328 0
M  V30 2523 H 249.991 3.84012 0.511231 0
M  V30 2524 H 250.405 5.07453 -1.32632 0
M  V30 2525 H 251.879 5.51028 0.327423 0
M  V30 2526 H 252.356 4.17269 1.37053 0
M  V30 2527 H 252.962 4.24239 -0.300222 0
M  V30 2528 N 251.277 0.427512 1.51691 0
M  V30 2529 C 252.224 -0.388867 2.275 0
M  V30 2530 C 253.194 -1.02532 1.30677 0
M  V30 2531 O 254.379 -1.0461 1.59566 0
M  V30 2532 C 251.519 -1.48954 3.11298 0
M  V30 2533 C 250.632 -0.872194 4.23104 0
M  V30 2534 C 249.767 -1.94709 4.94228 0
M  V30 2535 C 248.806 -1.30766 5.97969 0
M  V30 2536 N 247.943 -2.32349 6.62539 0
M  V30 2537 H 252.783 0.263997 2.96828 0
M  V30 2538 H 250.32 0.142033 1.46413 0
M  V30 2539 H 252.278 -2.13887 3.58201 0
M  V30 2540 H 250.908 -2.11217 2.44105 0
M  V30 2541 H 249.96 -0.111419 3.80237 0
M  V30 2542 H 251.272 -0.365264 4.97461 0
M  V30 2543 H 250.426 -2.67327 5.44629 0
M  V30 2544 H 249.165 -2.48773 4.1948 0
M  V30 2545 H 248.17 -0.566902 5.4687 0
M  V30 2546 H 249.395 -0.774483 6.74669 0
M  V30 2547 H 247.341 -2.85511 5.90609 0
M  V30 2548 H 247.258 -1.8652 7.3263 0
M  V30 2549 H 248.526 -3.04481 7.17574 0
M  V30 2550 N 252.755 -1.56801 0.158532 0
M  V30 2551 C 253.687 -2.14488 -0.807923 0
M  V30 2552 C 254.7 -1.09721 -1.20271 0
M  V30 2553 O 255.889 -1.36956 -1.14478 0
M  V30 2554 C 252.989 -2.66217 -2.09718 0
M  V30 2555 C 252.162 -3.95507 -1.86796 0
M  V30 2556 C 251.221 -4.3243 -2.99818 0
M  V30 2557 O 250.247 -5.00543 -2.71008 0
M  V30 2558 N 251.449 -3.92947 -4.27285 0
M  V30 2559 H 254.214 -2.98042 -0.314816 0
M  V30 2560 H 251.775 -1.61881 -0.0246692 0
M  V30 2561 H 253.767 -2.87924 -2.84398 0
M  V30 2562 H 252.337 -1.87324 -2.50257 0
M  V30 2563 H 251.557 -3.82309 -0.96089 0
M  V30 2564 H 252.845 -4.79972 -1.68833 0
M  V30 2565 H 252.243 -3.38087 -4.53557 0
M  V30 2566 H 250.8 -4.19681 -4.9871 0
M  V30 2567 N 254.233 0.115231 -1.57178 0
M  V30 2568 C 255.183 1.14707 -1.97044 0
M  V30 2569 C 256.167 1.36866 -0.845957 0
M  V30 2570 O 257.359 1.37895 -1.10968 0
M  V30 2571 C 254.488 2.47266 -2.38148 0
M  V30 2572 C 253.574 2.28566 -3.57237 0
M  V30 2573 N 253.965 1.79685 -4.72807 0
M  V30 2574 C 252.263 2.59208 -3.62943 0
M  V30 2575 C 252.964 1.74781 -5.54821 0
M  V30 2576 N 251.94 2.19264 -4.97417 0
M  V30 2577 H 255.742 0.761754 -2.83857 0
M  V30 2578 H 253.256 0.322928 -1.59157 0
M  V30 2579 H 255.253 3.219 -2.64927 0
M  V30 2580 H 253.913 2.86552 -1.52702 0
M  V30 2581 H 254.924 1.49177 -4.9595 0
M  V30 2582 H 251.601 3.02154 -2.88113 0
M  V30 2583 H 252.991 1.38212 -6.57531 0
M  V30 2584 N 255.711 1.52812 0.385517 0
M  V30 2585 C 256.939 1.71907 1.15133 0
M  V30 2586 C 257.354 0.439004 1.83625 0
M  V30 2587 O 256.711 -0.586765 1.7281 0
M  V30 2588 C 256.762 2.87099 2.19673 0
M  V30 2589 O 256.483 4.10151 1.53973 0
M  V30 2590 C 257.984 3.17902 3.08955 0
M  V30 2591 H 255.204 0.575479 0.345057 0
M  V30 2592 H 257.748 1.99476 0.45052 0
M  V30 2593 H 255.903 2.61982 2.85384 0
M  V30 2594 H 256.317 4.74514 2.23465 0
M  V30 2595 H 257.791 4.01959 3.7833 0
M  V30 2596 H 258.268 2.3243 3.72657 0
M  V30 2597 H 258.874 3.44871 2.48885 0
M  V30 2598 N 257.189 -0.644168 1.43834 0
M  V30 2599 C 258.436 -1.40395 1.4593 0
M  V30 2600 C 258.764 -1.94305 0.0869658 0
M  V30 2601 O 258.019 -1.73288 -0.909378 0
M  V30 2602 C 258.318 -2.59615 2.45631 0
M  V30 2603 C 257.984 -2.2407 3.91284 0
M  V30 2604 C 256.646 -2.14089 4.30952 0
M  V30 2605 C 258.998 -1.95775 4.83034 0
M  V30 2606 C 256.326 -1.73981 5.6031 0
M  V30 2607 C 258.678 -1.57163 6.12766 0
M  V30 2608 C 257.342 -1.45713 6.51402 0
M  V30 2609 H 256.612 -0.513741 0.533995 0
M  V30 2610 H 259.259 -0.731724 1.76969 0
M  V30 2611 H 257.564 -3.32011 2.08028 0
M  V30 2612 H 259.261 -3.17834 2.44504 0
M  V30 2613 H 255.851 -2.32753 3.59895 0
M  V30 2614 H 260.035 -2.02403 4.53152 0
M  V30 2615 H 255.291 -1.63709 5.89075 0
M  V30 2616 H 259.465 -1.34303 6.83327 0
M  V30 2617 H 257.092 -1.14406 7.51542 0
M  V30 2618 N 258.668 -1.30515 -0.883378 0
M  V30 2619 C 260.079 -1.17509 -1.45081 0
M  V30 2620 C 260.43 0.223605 -1.94922 0
M  V30 2621 O 259.555 1.12041 -1.85137 0
M  V30 2622 C 260.15 -2.12715 -2.63701 0
M  V30 2623 C 258.709 -2.03682 -3.16529 0
M  V30 2624 C 257.856 -2.02706 -1.89224 0
M  V30 2625 H 260.807 -1.42762 -0.693165 0
M  V30 2626 H 260.828 -1.70891 -3.39965 0
M  V30 2627 H 260.34 -3.14505 -2.27395 0
M  V30 2628 H 258.441 -1.05039 -3.57488 0
M  V30 2629 H 258.554 -2.92146 -3.7972 0
M  V30 2630 H 256.918 -1.4753 -2.07622 0
M  V30 2631 H 257.701 -3.06229 -1.55174 0
M  V30 2632 N 260.146 1.09593 -1.13257 0
M  V30 2633 C 261.076 2.18214 -0.830946 0
M  V30 2634 C 262.057 1.68812 0.208966 0
M  V30 2635 O 263.242 1.9408 0.0682666 0
M  V30 2636 C 260.372 3.46051 -0.294296 0
M  V30 2637 C 259.326 4.08778 -1.26826 0
M  V30 2638 C 258.652 5.31419 -0.591449 0
M  V30 2639 C 259.952 4.51476 -2.62615 0
M  V30 2640 H 261.646 2.43703 -1.73923 0
M  V30 2641 H 259.192 1.17128 -0.837675 0
M  V30 2642 H 261.145 4.2134 -0.0709606 0
M  V30 2643 H 259.869 3.20079 0.649366 0
M  V30 2644 H 258.528 3.35505 -1.47756 0
M  V30 2645 H 258.176 5.01727 0.357633 0
M  V30 2646 H 257.876 5.74341 -1.24123 0
M  V30 2647 H 259.4 6.09433 -0.377355 0
M  V30 2648 H 260.814 5.17999 -2.45663 0
M  V30 2649 H 259.211 5.05277 -3.23752 0
M  V30 2650 H 260.281 3.63962 -3.20406 0
M  V30 2651 N 261.624 0.925811 1.2754 0
M  V30 2652 C 262.534 0.428993 2.30644 0
M  V30 2653 C 263.55 -0.489387 1.66976 0
M  V30 2654 O 264.726 -0.372653 1.97922 0
M  V30 2655 C 261.791 -0.311967 3.45294 0
M  V30 2656 C 260.852 0.641098 4.24486 0
M  V30 2657 C 260.085 -0.0645955 5.33661 0
M  V30 2658 O 260.308 -1.28429 5.55754 0
M  V30 2659 O 259.242 0.606265 5.98839 0
M  V30 2660 H 263.068 1.28504 2.75173 0
M  V30 2661 H 260.653 0.691086 1.32455 0
M  V30 2662 H 262.535 -0.729972 4.15029 0
M  V30 2663 H 261.21 -1.14365 3.02824 0
M  V30 2664 H 260.117 1.10874 3.57292 0
M  V30 2665 H 261.45 1.43995 4.70666 0
M  V30 2666 N 263.102 -1.41638 0.69111 0
M  V30 2667 C 264.327 -2.06148 0.227583 0
M  V30 2668 C 264.752 -1.51652 -1.11281 0
M  V30 2669 O 264.11 -0.64164 -1.69566 0
M  V30 2670 C 264.158 -3.60095 0.190858 0
M  V30 2671 O 263.262 -4.03845 -0.835664 0
M  V30 2672 H 262.603 -0.654434 0.112306 0
M  V30 2673 H 265.133 -1.81484 0.944714 0
M  V30 2674 H 265.143 -4.07995 0.020207 0
M  V30 2675 H 263.818 -3.99129 1.16915 0
M  V30 2676 H 262.395 -3.67458 -0.63473 0
M  V30 2677 N 264.58 -0.43555 -1.51462 0
M  V30 2678 C 265.81 0.130053 -2.0619 0
M  V30 2679 C 266.218 1.37164 -1.30317 0
M  V30 2680 O 265.561 1.80225 -0.355598 0
M  V30 2681 C 265.623 0.519418 -3.55728 0
M  V30 2682 C 265.287 -0.615119 -4.52841 0
M  V30 2683 C 266.284 -1.48671 -4.9819 0
M  V30 2684 C 263.969 -0.795341 -4.95963 0
M  V30 2685 C 265.963 -2.52324 -5.8533 0
M  V30 2686 C 263.65 -1.83514 -5.82894 0
M  V30 2687 C 264.648 -2.69748 -6.27475 0
M  V30 2688 O 264.336 -3.71944 -7.1268 0
M  V30 2689 H 264.068 0.0121612 -0.675891 0
M  V30 2690 H 266.622 -0.6129 -1.96043 0
M  V30 2691 H 264.852 1.31505 -3.63653 0
M  V30 2692 H 266.541 1.01597 -3.92979 0
M  V30 2693 H 267.307 -1.359 -4.65571 0
M  V30 2694 H 263.186 -0.133713 -4.60806 0
M  V30 2695 H 266.73 -3.19665 -6.20048 0
M  V30 2696 H 262.627 -1.96306 -6.14926 0
M  V30 2697 H 263.395 -3.68503 -7.30854 0
M  V30 2698 N 266.058 1.56714 -0.166846 0
M  V30 2699 C 267.005 2.17746 0.765193 0
M  V30 2700 C 267.975 1.11614 1.23011 0
M  V30 2701 O 269.16 1.39745 1.29908 0
M  V30 2702 C 266.3 2.81882 1.9909 0
M  V30 2703 C 265.413 4.02462 1.56997 0
M  V30 2704 C 264.548 4.54537 2.749 0
M  V30 2705 C 263.587 5.67538 2.29275 0
M  V30 2706 N 262.724 6.14142 3.40255 0
M  V30 2707 H 267.564 2.97048 0.237952 0
M  V30 2708 H 265.101 1.4672 0.105725 0
M  V30 2709 H 267.059 3.17221 2.70974 0
M  V30 2710 H 265.689 2.05191 2.49192 0
M  V30 2711 H 264.741 3.72973 0.748037 0
M  V30 2712 H 266.053 4.84273 1.19503 0
M  V30 2713 H 265.207 4.92035 3.54946 0
M  V30 2714 H 263.946 3.71774 3.1565 0
M  V30 2715 H 262.951 5.29597 1.47674 0
M  V30 2716 H 264.176 6.52099 1.89588 0
M  V30 2717 H 262.122 5.3431 3.8059 0
M  V30 2718 H 262.039 6.9093 3.06841 0
M  V30 2719 H 263.307 6.56289 4.206 0
M  V30 2720 N 267.536 -0.106894 1.57237 0
M  V30 2721 C 268.486 -1.1366 1.9765 0
M  V30 2722 C 269.47 -1.36416 0.853203 0
M  V30 2723 O 270.662 -1.37305 1.11697 0
M  V30 2724 C 267.791 -2.46 2.39455 0
M  V30 2725 C 266.877 -2.26668 3.58445 0
M  V30 2726 N 267.268 -1.77176 4.73754 0
M  V30 2727 C 265.566 -2.57279 3.64312 0
M  V30 2728 C 266.267 -1.71836 5.5574 0
M  V30 2729 N 265.243 -2.16623 4.98573 0
M  V30 2730 H 269.045 -0.74669 2.84256 0
M  V30 2731 H 266.559 -0.314483 1.59326 0
M  V30 2732 H 268.556 -3.2049 2.6663 0
M  V30 2733 H 267.216 -2.85738 1.54219 0
M  V30 2734 H 268.227 -1.46545 4.96734 0
M  V30 2735 H 264.904 -3.00622 2.89711 0
M  V30 2736 H 266.294 -1.34723 6.58255 0
M  V30 2737 N 269.014 -1.53014 -0.377408 0
M  V30 2738 C 269.924 -1.81557 -1.48574 0
M  V30 2739 C 270.94 -0.703102 -1.59162 0
M  V30 2740 O 272.116 -0.99192 -1.75279 0
M  V30 2741 C 269.181 -1.9889 -2.83978 0
M  V30 2742 C 268.242 -3.22801 -2.83016 0
M  V30 2743 C 267.475 -3.39298 -4.11962 0
M  V30 2744 O 267.698 -2.60345 -5.0752 0
M  V30 2745 O 266.632 -4.32604 -4.18494 0
M  V30 2746 H 270.458 -2.75695 -1.27382 0
M  V30 2747 H 268.043 -1.38248 -0.566373 0
M  V30 2748 H 269.925 -2.11931 -3.6423 0
M  V30 2749 H 268.6 -1.07942 -3.05172 0
M  V30 2750 H 267.507 -3.15193 -2.01505 0
M  V30 2751 H 268.84 -4.13632 -2.66775 0
M  V30 2752 N 270.492 0.636531 -1.44174 0
M  V30 2753 C 271.903 1.21806 -1.41493 0
M  V30 2754 C 272.254 1.95785 -0.1275 0
M  V30 2755 O 271.379 2.02147 0.772376 0
M  V30 2756 C 271.974 2.21551 -2.56321 0
M  V30 2757 C 270.533 2.75143 -2.56853 0
M  V30 2758 C 269.68 1.50052 -2.33195 0
M  V30 2759 H 272.631 0.427531 -1.52833 0
M  V30 2760 H 272.652 3.0405 -2.28765 0
M  V30 2761 H 272.164 1.67679 -3.50008 0
M  V30 2762 H 270.265 3.33033 -1.67093 0
M  V30 2763 H 270.378 3.2155 -3.55165 0
M  V30 2764 H 268.742 1.77993 -1.82183 0
M  V30 2765 H 269.525 0.980903 -3.28988 0
M  V30 2766 N 271.97 1.30982 0.876444 0
M  V30 2767 C 272.88 1.2003 2.01569 0
M  V30 2768 C 273.896 0.11838 1.73597 0
M  V30 2769 O 275.072 0.33495 1.98595 0
M  V30 2770 C 272.137 0.901637 3.34771 0
M  V30 2771 C 271.198 2.06979 3.76109 0
M  V30 2772 C 270.431 1.78529 5.02954 0
M  V30 2773 O 270.654 0.717296 5.65872 0
M  V30 2774 O 269.588 2.64019 5.40905 0
M  V30 2775 H 273.414 2.15753 2.13739 0
M  V30 2776 H 270.999 1.10658 1.00375 0
M  V30 2777 H 272.881 0.750645 4.1466 0
M  V30 2778 H 271.556 -0.0256141 3.2369 0
M  V30 2779 H 270.463 2.27616 2.96887 0
M  V30 2780 H 271.796 2.97907 3.91807 0
M  V30 2781 N 273.449 -1.08991 1.13837 0
M  V30 2782 C 274.865 -1.33312 0.877506 0
M  V30 2783 C 275.065 -1.95587 -0.48456 0
M  V30 2784 O 274.121 -2.20509 -1.23013 0
M  V30 2785 C 275.434 -2.24045 2.0056 0
M  V30 2786 C 276.982 -2.37542 2.03821 0
M  V30 2787 C 277.457 -3.31614 3.15905 0
M  V30 2788 N 278.948 -3.39189 3.15445 0
M  V30 2789 C 279.683 -4.11992 3.98811 0
M  V30 2790 N 279.179 -4.87553 4.92203 0
M  V30 2791 N 280.972 -4.07762 3.86894 0
M  V30 2792 H 273.123 -0.669456 2.01574 0
M  V30 2793 H 275.386 -0.357482 0.878015 0
M  V30 2794 H 275.092 -1.85521 2.98789 0
M  V30 2795 H 274.966 -3.24466 1.92359 0
M  V30 2796 H 277.353 -2.75327 1.06202 0
M  V30 2797 H 277.434 -1.36884 2.16093 0
M  V30 2798 H 277.078 -2.94551 4.13766 0
M  V30 2799 H 277.008 -4.32186 3.0087 0
M  V30 2800 H 279.499 -2.85314 2.47799 0
M  V30 2801 H 279.812 -5.40549 5.52292 0
M  V30 2802 H 278.157 -4.86627 4.96205 0
M  V30 2803 H 281.348 -3.47833 3.13257 0
M  V30 2804 H 281.521 -4.64238 4.52092 0
M  V30 2805 N 274.927 -0.932562 -1.27047 0
M  V30 2806 C 275.857 -0.452902 -2.29066 0
M  V30 2807 C 276.838 0.489338 -1.62909 0
M  V30 2808 O 278.023 0.393046 -1.90181 0
M  V30 2809 C 275.153 0.290698 -3.46081 0
M  V30 2810 C 274.107 -0.564168 -4.24265 0
M  V30 2811 C 273.433 0.308886 -5.33807 0
M  V30 2812 C 274.733 -1.83112 -4.89149 0
M  V30 2813 H 276.427 -1.30552 -2.69437 0
M  V30 2814 H 273.973 -0.629201 -1.29526 0
M  V30 2815 H 275.926 0.637233 -4.16554 0
M  V30 2816 H 274.65 1.17738 -3.0464 0
M  V30 2817 H 273.309 -0.893477 -3.55545 0
M  V30 2818 H 272.957 1.19467 -4.88607 0
M  V30 2819 H 272.657 -0.259633 -5.87026 0
M  V30 2820 H 274.181 0.650884 -6.07121 0
M  V30 2821 H 275.595 -1.55236 -5.51883 0
M  V30 2822 H 273.992 -2.34353 -5.52448 0
M  V30 2823 H 275.062 -2.54772 -4.12576 0
M  V30 2824 N 276.405 1.4127 -0.698611 0
M  V30 2825 C 277.315 2.34573 -0.0357891 0
M  V30 2826 C 278.331 1.56393 0.762701 0
M  V30 2827 O 279.507 1.8886 0.699564 0
M  V30 2828 C 276.572 3.35159 0.887089 0
M  V30 2829 C 275.633 4.29225 0.0804634 0
M  V30 2830 C 274.866 5.25006 0.959387 0
M  V30 2831 O 275.089 5.26314 2.19886 0
M  V30 2832 O 274.023 6.00519 0.407439 0
M  V30 2833 H 277.849 2.92838 -0.804957 0
M  V30 2834 H 275.434 1.42175 -0.458966 0
M  V30 2835 H 277.316 3.9689 1.41621 0
M  V30 2836 H 275.991 2.79333 1.6357 0
M  V30 2837 H 274.898 3.70833 -0.493328 0
M  V30 2838 H 276.231 4.88157 -0.629547 0
M  V30 2839 N 277.883 0.443576 1.51229 0
M  V30 2840 C 278.831 -0.37904 2.29491 0
M  V30 2841 C 279.825 -1.0153 1.35603 0
M  V30 2842 O 281.031 -0.94955 1.52917 0
M  V30 2843 H 277.406 -0.141053 0.738653 0
M  V30 2844 H 279.377 0.301799 2.9687 0
M  V30 2845 C 278.126 -1.46426 3.15364 0
M  V30 2846 H 277.449 -0.984037 3.87501 0
M  V30 2847 H 278.889 -2.01297 3.7317 0
M  V30 2848 C 277.348 -2.45099 2.31146 0
M  V30 2849 O 277.878 -3.49773 1.9754 0
M  V30 2850 N 276.084 -2.16139 1.94249 0
M  V30 2851 H 275.631 -1.31044 2.21777 0
M  V30 2852 H 275.589 -2.82398 1.38198 0
M  V30 2853 N 279.361 -1.56624 0.175154 0
M  V30 2854 C 280.777 -1.58571 -0.180966 0
M  V30 2855 C 280.977 -1.19065 -1.6256 0
M  V30 2856 O 280.033 -0.904044 -2.35761 0
M  V30 2857 C 281.346 -3.00522 0.103326 0
M  V30 2858 C 282.894 -3.12972 0.0418426 0
M  V30 2859 C 283.369 -4.57022 0.299175 0
M  V30 2860 N 284.86 -4.62541 0.247086 0
M  V30 2861 C 285.595 -5.71857 0.420318 0
M  V30 2862 N 285.091 -6.89717 0.652816 0
M  V30 2863 N 286.884 -5.60972 0.355957 0
M  V30 2864 H 279.035 -1.80589 1.11809 0
M  V30 2865 H 281.298 -0.837178 0.444788 0
M  V30 2866 H 281.004 -3.33916 1.10422 0
M  V30 2867 H 280.878 -3.72344 -0.603299 0
M  V30 2868 H 283.265 -2.79403 -0.949636 0
M  V30 2869 H 283.346 -2.43578 0.781238 0
M  V30 2870 H 282.99 -4.913 1.28788 0
M  V30 2871 H 282.92 -5.24579 -0.460876 0
M  V30 2872 H 285.411 -3.77829 0.0731895 0
M  V30 2873 H 285.724 -7.68911 0.774347 0
M  V30 2874 H 284.069 -6.91572 0.689476 0
M  V30 2875 H 287.26 -4.67773 0.174882 0
M  V30 2876 H 287.433 -6.46111 0.494388 0
M  V30 2877 N 280.839 0.0985539 -1.57292 0
M  V30 2878 C 282.088 0.801358 -1.85098 0
M  V30 2879 C 282.401 1.80066 -0.763902 0
M  V30 2880 O 283.607 2.55112 -0.928981 0
M  V30 2881 C 282.063 1.47599 -3.28242 0
M  V30 2882 C 281.671 0.516624 -4.45011 0
M  V30 2883 C 283.415 2.16272 -3.65276 0
M  V30 2884 C 281.322 1.19564 -5.79188 0
M  V30 2885 H 280.252 0.303022 -0.69043 0
M  V30 2886 H 282.903 0.0542623 -1.8342 0
M  V30 2887 H 281.285 2.27042 -3.2445 0
M  V30 2888 H 282.459 -0.246065 -4.60143 0
M  V30 2889 H 280.774 -0.064227 -4.1635 0
M  V30 2890 H 283.371 2.67802 -4.62803 0
M  V30 2891 H 283.714 2.95009 -2.93727 0
M  V30 2892 H 284.247 1.43693 -3.70941 0
M  V30 2893 H 280.986 0.449157 -6.53959 0
M  V30 2894 H 280.506 1.92984 -5.67906 0
M  V30 2895 H 282.185 1.7231 -6.23633 0
M  V30 2896 N 282.317 1.53212 0.369288 0
M  V30 2897 C 283.547 1.72868 1.13139 0
M  V30 2898 C 283.955 0.455754 1.83629 0
M  V30 2899 O 283.298 -0.580861 1.74275 0
M  V30 2900 C 283.36 2.83667 2.20847 0
M  V30 2901 C 283.024 4.24142 1.70155 0
M  V30 2902 C 284.021 5.06619 1.16763 0
M  V30 2903 C 281.706 4.70539 1.7578 0
M  V30 2904 C 283.7 6.33581 0.696678 0
M  V30 2905 C 281.387 5.97481 1.28297 0
M  V30 2906 C 282.385 6.78833 0.753307 0
M  V30 2907 O 282.073 8.03393 0.285475 0
M  V30 2908 H 281.805 0.581707 0.344373 0
M  V30 2909 H 284.359 2.00736 0.435243 0
M  V30 2910 H 282.589 2.51265 2.93944 0
M  V30 2911 H 284.278 2.91536 2.82421 0
M  V30 2912 H 285.044 4.71948 1.11758 0
M  V30 2913 H 280.923 4.07293 2.15949 0
M  V30 2914 H 284.467 6.97027 0.282581 0
M  V30 2915 H 280.364 6.31651 1.32994 0
M  V30 2916 H 281.132 8.17497 0.405145 0
M  V30 2917 N 283.795 -0.628877 1.44509 0
M  V30 2918 C 284.758 -1.72263 1.51188 0
M  V30 2919 C 285.758 -1.55907 0.39367 0
M  V30 2920 O 286.948 -1.61361 0.656377 0
M  V30 2921 C 284.08 -3.11365 1.38798 0
M  V30 2922 H 285.273 -1.67714 2.4862 0
M  V30 2923 H 282.826 -0.842737 1.31634 0
M  V30 2924 H 283.561 -3.21507 0.424693 0
M  V30 2925 H 283.346 -3.24644 2.19884 0
M  V30 2926 H 284.836 -3.91075 1.46458 0
M  V30 2927 N 285.273 -1.31445 -0.869486 0
M  V30 2928 C 286.498 -1.24256 -1.66058 0
M  V30 2929 C 286.923 0.188928 -1.87149 0
M  V30 2930 O 286.281 1.13522 -1.4136 0
M  V30 2931 C 286.329 -1.9924 -3.00559 0
M  V30 2932 O 285.433 -1.33007 -3.90362 0
M  V30 2933 H 284.774 -0.428973 -0.506831 0
M  V30 2934 H 287.304 -1.73521 -1.08404 0
M  V30 2935 H 287.314 -2.08854 -3.50491 0
M  V30 2936 H 285.989 -3.03342 -2.84528 0
M  V30 2937 H 284.566 -1.31848 -3.48813 0
M  V30 2938 N 286.751 1.08385 -1.14413 0
M  V30 2939 C 287.976 1.85057 -0.936413 0
M  V30 2940 C 288.401 1.81055 0.509971 0
M  V30 2941 O 287.759 1.1958 1.36273 0
M  V30 2942 C 287.807 3.30505 -1.44217 0
M  V30 2943 O 286.911 4.07491 -0.634409 0
M  V30 2944 H 286.252 0.573425 -0.334784 0
M  V30 2945 H 288.782 1.36799 -1.52142 0
M  V30 2946 H 288.792 3.81348 -1.45043 0
M  V30 2947 H 287.467 3.32734 -2.49522 0
M  V30 2948 H 286.044 3.66368 -0.694902 0
M  V30 2949 N 288.23 0.939286 1.26551 0
M  V30 2950 C 289.455 0.602008 1.98471 0
M  V30 2951 C 289.88 -0.815624 1.69497 0
M  V30 2952 O 289.238 -1.54912 0.941905 0
M  V30 2953 C 289.286 0.848407 3.50477 0
M  V30 2954 O 288.39 -0.0804009 4.12322 0
M  V30 2955 H 287.731 0.23049 0.622712 0
M  V30 2956 H 290.261 1.2617 1.61066 0
M  V30 2957 H 290.271 0.768553 4.00696 0
M  V30 2958 H 288.946 1.88171 3.70897 0
M  V30 2959 H 287.523 0.0503508 3.72866 0
M  V30 2960 N 289.708 -1.40897 0.706093 0
M  V30 2961 C 291.119 -1.84023 0.315052 0
M  V30 2962 C 291.47 -1.5906 -1.14866 0
M  V30 2963 O 290.595 -1.06651 -1.88293 0
M  V30 2964 C 291.19 -3.34055 0.565038 0
M  V30 2965 C 289.749 -3.7571 0.227806 0
M  V30 2966 C 288.896 -2.64204 0.842122 0
M  V30 2967 H 291.847 -1.303 0.905963 0
M  V30 2968 H 291.868 -3.80107 -0.172843 0
M  V30 2969 H 291.38 -3.52192 1.63042 0
M  V30 2970 H 289.481 -3.63172 -0.832895 0
M  V30 2971 H 289.594 -4.74103 0.690174 0
M  V30 2972 H 287.958 -2.53255 0.270893 0
M  V30 2973 H 288.741 -2.85155 1.91158 0
M  V30 2974 N 291.186 -0.45159 -1.50991 0
M  V30 2975 C 292.597 0.00818571 -1.86698 0
M  V30 2976 C 292.948 1.40661 -1.3678 0
M  V30 2977 O 292.073 2.0391 -0.724546 0
M  V30 2978 C 292.668 0.0216303 -3.38793 0
M  V30 2979 C 291.227 0.425865 -3.73983 0
M  V30 2980 C 290.374 -0.372163 -2.74791 0
M  V30 2981 H 293.325 -0.666785 -1.44013 0
M  V30 2982 H 293.346 0.828078 -3.7138 0
M  V30 2983 H 292.858 -0.996288 -3.75094 0
M  V30 2984 H 290.959 1.44886 -3.43277 0
M  V30 2985 H 291.072 0.140761 -4.78893 0
M  V30 2986 H 289.436 0.171498 -2.54122 0
M  V30 2987 H 290.219 -1.38922 -3.13935 0
M  V30 2988 N 292.664 1.56529 -0.183458 0
M  V30 2989 C 293.941 1.88959 0.50536 0
M  V30 2990 C 294.321 1.09523 1.80466 0
M  V30 2991 O 293.669 0.19278 2.27685 0
M  V30 2992 C 293.879 3.41162 0.73547 0
M  V30 2993 C 295.227 4.11155 1.06005 0
M  V30 2994 O 296.251 3.46548 0.823594 0
M  V30 2995 O 295.11 5.25318 1.50675 0
M  V30 2996 H 292.204 0.78441 0.261973 0
M  V30 2997 H 294.75 1.68231 -0.222802 0
M  V30 2998 H 293.522 3.90874 -0.182561 0
M  V30 2999 H 293.145 3.67543 1.51651 0
M  V30 3000 N 294.142 -0.090211 1.57342 0
M  V30 3001 C 295.37 -0.806224 1.90546 0
M  V30 3002 C 295.785 -1.72041 0.777644 0
M  V30 3003 O 295.142 -1.80778 -0.250103 0
M  V30 3004 C 295.193 -1.61546 3.23396 0
M  V30 3005 O 294.914 -0.738043 4.31839 0
M  V30 3006 C 296.415 -2.4341 3.70495 0
M  V30 3007 H 293.635 -0.230256 0.630257 0
M  V30 3008 H 296.179 -0.0659843 2.04394 0
M  V30 3009 H 294.334 -2.30816 3.11131 0
M  V30 3010 H 294.748 -1.29901 5.08159 0
M  V30 3011 H 296.222 -2.95676 4.66133 0
M  V30 3012 H 296.699 -3.22098 2.98579 0
M  V30 3013 H 297.305 -1.79331 3.85643 0
M  V30 3014 N 295.62 -1.53406 -0.361157 0
M  V30 3015 C 296.868 -1.69467 -1.10115 0
M  V30 3016 C 297.189 -0.451352 -1.89705 0
M  V30 3017 O 296.459 0.534636 -1.88463 0
M  V30 3018 H 295.039 -0.624749 -0.409508 0
M  V30 3019 H 297.701 -1.90609 -0.406699 0
M  V30 3020 H 296.797 -2.55774 -1.78847 0
M  V30 3021 N 297.098 0.621204 -1.44841 0
M  V30 3022 C 298.03 1.74615 -1.48466 0
M  V30 3023 C 299.043 1.58377 -0.37691 0
M  V30 3024 O 300.232 1.66508 -0.643215 0
M  V30 3025 C 297.332 3.12459 -1.31236 0
M  V30 3026 C 296.505 3.55064 -2.55438 0
M  V30 3027 C 295.564 4.71821 -2.32963 0
M  V30 3028 O 294.59 4.79628 -3.06505 0
M  V30 3029 N 295.792 5.64186 -1.36654 0
M  V30 3030 H 298.557 1.71973 -2.45449 0
M  V30 3031 H 296.118 0.806077 -1.40407 0
M  V30 3032 H 298.11 3.88302 -1.14032 0
M  V30 3033 H 296.68 3.09686 -0.4258 0
M  V30 3034 H 295.9 2.69324 -2.87851 0
M  V30 3035 H 297.188 3.80284 -3.38026 0
M  V30 3036 H 296.586 5.6058 -0.759344 0
M  V30 3037 H 295.143 6.39618 -1.25425 0
M  V30 3038 N 298.576 1.31904 0.862503 0
M  V30 3039 C 299.992 1.10724 1.14945 0
M  V30 3040 C 300.192 -0.117421 2.01158 0
M  V30 3041 O 299.248 -0.804595 2.39338 0
M  V30 3042 C 300.561 2.38267 1.83437 0
M  V30 3043 C 302.109 2.43949 1.96106 0
M  V30 3044 C 302.584 3.71394 2.68013 0
M  V30 3045 N 304.075 3.72331 2.75543 0
M  V30 3046 C 304.81 4.67641 3.31812 0
M  V30 3047 N 304.306 5.73313 3.88953 0
M  V30 3048 N 306.099 4.5515 3.29841 0
M  V30 3049 H 298.25 2.10436 0.288191 0
M  V30 3050 H 300.513 0.928705 0.190292 0
M  V30 3051 H 300.219 3.27759 1.27542 0
M  V30 3052 H 300.093 2.48633 2.83657 0
M  V30 3053 H 302.48 1.54922 2.51164 0
M  V30 3054 H 302.561 2.37543 0.949059 0
M  V30 3055 H 302.205 4.60791 2.13621 0
M  V30 3056 H 302.135 3.75069 3.69636 0
M  V30 3057 H 304.626 2.95947 2.34997 0
M  V30 3058 H 304.939 6.42107 4.30022 0
M  V30 3059 H 303.284 5.77077 3.87308 0
M  V30 3060 H 306.475 3.71766 2.84443 0
M  V30 3061 H 306.648 5.29604 3.73394 0
M  V30 3062 N 300.054 -1.07777 1.14986 0
M  V30 3063 C 301.301 -1.8029 0.922056 0
M  V30 3064 C 301.629 -1.86531 -0.55105 0
M  V30 3065 O 300.884 -1.34189 -1.42449 0
M  V30 3066 C 301.183 -3.25495 1.47608 0
M  V30 3067 C 300.849 -3.39361 2.96893 0
M  V30 3068 C 299.511 -3.42852 3.37647 0
M  V30 3069 C 301.863 -3.42512 3.92854 0
M  V30 3070 C 299.191 -3.47094 4.73015 0
M  V30 3071 C 301.543 -3.4829 5.28088 0
M  V30 3072 C 300.207 -3.50058 5.68345 0
M  V30 3073 H 299.477 -0.659727 0.337404 0
M  V30 3074 H 302.124 -1.26854 1.43459 0
M  V30 3075 H 300.429 -3.81683 0.88463 0
M  V30 3076 H 302.126 -3.80168 1.27568 0
M  V30 3077 H 298.716 -3.37339 2.64387 0
M  V30 3078 H 302.9 -3.3904 3.62444 0
M  V30 3079 H 298.156 -3.46758 5.03556 0
M  V30 3080 H 302.33 -3.49675 6.02246 0
M  V30 3081 H 299.957 -3.53097 6.73221 0
M  V30 3082 N 301.532 -0.945985 -1.26051 0
M  V30 3083 C 302.772 -0.603665 -1.95282 0
M  V30 3084 C 303.136 0.842377 -1.72534 0
M  V30 3085 O 304.337 1.29387 -2.35611 0
M  V30 3086 C 302.608 -0.942292 -3.44754 0
M  V30 3087 S 304.167 -0.711242 -4.32997 0
M  V30 3088 H 300.985 -0.222176 -0.675395 0
M  V30 3089 H 303.587 -1.21832 -1.52896 0
M  V30 3090 H 302.291 -1.99203 -3.58812 0
M  V30 3091 H 301.822 -0.317546 -3.92116 0
M  V30 3092 H 303.837 0.422221 -4.944 0
M  V30 3093 N 303.011 1.40521 -0.713556 0
M  V30 3094 C 304.422 1.83853 -0.324807 0
M  V30 3095 C 304.773 1.59667 1.14021 0
M  V30 3096 O 303.898 1.07649 1.87725 0
M  V30 3097 C 304.493 3.33751 -0.582746 0
M  V30 3098 C 303.052 3.75584 -0.247727 0
M  V30 3099 C 302.199 2.63753 -0.856121 0
M  V30 3100 H 305.15 1.29817 -0.91286 0
M  V30 3101 H 305.171 3.80194 0.152682 0
M  V30 3102 H 304.683 3.51322 -1.64908 0
M  V30 3103 H 302.784 3.63608 0.813624 0
M  V30 3104 H 302.897 4.7373 -0.715307 0
M  V30 3105 H 301.261 2.53108 -0.28432 0
M  V30 3106 H 302.044 2.84137 -1.92668 0
M  V30 3107 N 304.489 0.459591 1.5075 0
M  V30 3108 C 305.714 -0.0996819 2.0716 0
M  V30 3109 C 306.139 -1.33761 1.32249 0
M  V30 3110 O 305.497 -1.77551 0.366786 0
M  V30 3111 C 305.545 -0.378226 3.58611 0
M  V30 3112 O 304.649 -1.46081 3.85661 0
M  V30 3113 H 303.99 0.00791392 0.663953 0
M  V30 3114 H 306.52 0.647329 1.9409 0
M  V30 3115 H 306.53 -0.622135 4.03229 0
M  V30 3116 H 305.205 0.526439 4.12555 0
M  V30 3117 H 303.782 -1.20511 3.5289 0
M  V30 3118 N 305.967 -1.56429 0.191757 0
M  V30 3119 C 307.192 -2.02309 -0.456706 0
M  V30 3120 C 307.617 -1.07103 -1.5463 0
M  V30 3121 O 306.975 -0.0539677 -1.8122 0
M  V30 3122 C 307.023 -3.46654 -0.993159 0
M  V30 3123 O 306.127 -3.54559 -2.10622 0
M  V30 3124 H 305.468 -0.655303 -0.107114 0
M  V30 3125 H 307.998 -2.02364 0.301653 0
M  V30 3126 H 308.008 -3.86377 -1.31061 0
M  V30 3127 H 306.683 -4.1544 -0.195504 0
M  V30 3128 H 305.26 -3.26708 -1.79767 0
M  V30 3129 N 307.445 0.0818655 -1.57387 0
M  V30 3130 C 308.692 0.782914 -1.86753 0
M  V30 3131 C 309.02 1.78082 -0.782118 0
M  V30 3132 O 308.275 1.94426 0.22295 0
M  V30 3133 C 308.574 1.53513 -3.22752 0
M  V30 3134 C 308.24 0.678134 -4.45771 0
M  V30 3135 C 306.902 0.441929 -4.79166 0
M  V30 3136 C 309.254 0.0832243 -5.21134 0
M  V30 3137 C 306.582 -0.398833 -5.85343 0
M  V30 3138 C 308.934 -0.744935 -6.28199 0
M  V30 3139 C 307.598 -0.991107 -6.60101 0
M  V30 3140 H 306.868 0.286489 -0.683378 0
M  V30 3141 H 309.515 0.0439808 -1.91449 0
M  V30 3142 H 307.82 2.34599 -3.138 0
M  V30 3143 H 309.517 2.08218 -3.42705 0
M  V30 3144 H 306.107 0.872357 -4.19628 0
M  V30 3145 H 310.291 0.252847 -4.95655 0
M  V30 3146 H 305.547 -0.598405 -6.08465 0
M  V30 3147 H 309.721 -1.21271 -6.8576 0
M  V30 3148 H 307.348 -1.64437 -7.42202 0
M  V30 3149 N 308.923 1.53595 0.353017 0
M  V30 3150 C 309.855 1.77219 1.45348 0
M  V30 3151 C 310.868 0.65324 1.49119 0
M  V30 3152 O 312.057 0.929775 1.52373 0
M  V30 3153 C 309.157 1.84841 2.84055 0
M  V30 3154 C 308.33 3.14649 3.03833 0
M  V30 3155 C 307.389 3.13351 4.22727 0
M  V30 3156 O 306.415 3.87107 4.17297 0
M  V30 3157 N 307.617 2.35052 5.30783 0
M  V30 3158 H 310.382 2.72178 1.25457 0
M  V30 3159 H 307.943 1.52528 0.542833 0
M  V30 3160 H 309.935 1.81435 3.61751 0
M  V30 3161 H 308.505 0.971114 2.97133 0
M  V30 3162 H 307.725 3.31256 2.13689 0
M  V30 3163 H 309.013 4.00411 3.13925 0
M  V30 3164 H 308.411 1.74663 5.38061 0
M  V30 3165 H 306.968 2.37453 6.07009 0
M  V30 3166 N 310.401 -0.613514 1.45168 0
M  V30 3167 C 311.626 -1.40437 1.52618 0
M  V30 3168 C 312.051 -1.87438 0.157707 0
M  V30 3169 O 311.409 -1.59791 -0.856537 0
M  V30 3170 C 311.457 -2.58894 2.51011 0
M  V30 3171 O 310.561 -3.59326 2.02382 0
M  V30 3172 H 309.902 -0.419506 0.514695 0
M  V30 3173 H 312.432 -0.747215 1.90467 0
M  V30 3174 H 312.442 -3.06214 2.69624 0
M  V30 3175 H 311.117 -2.24032 3.50403 0
M  V30 3176 H 309.694 -3.18695 1.93618 0
M  V30 3177 N 311.879 -1.3236 -0.855495 0
M  V30 3178 C 313.29 -1.2056 -1.42556 0
M  V30 3179 C 313.641 0.182209 -1.95352 0
M  V30 3180 O 312.766 1.08088 -1.87472 0
M  V30 3181 C 313.361 -2.1826 -2.59129 0
M  V30 3182 C 311.92 -2.10351 -3.12137 0
M  V30 3183 C 311.067 -2.06674 -1.84882 0
M  V30 3184 H 314.018 -1.442 -0.662727 0
M  V30 3185 H 314.039 -1.78064 -3.36264 0
M  V30 3186 H 313.551 -3.19257 -2.20673 0
M  V30 3187 H 311.652 -1.12599 -3.55179 0
M  V30 3188 H 311.765 -3.00135 -3.73438 0
M  V30 3189 H 310.129 -1.51901 -2.04446 0
M  V30 3190 H 310.912 -3.09451 -1.48643 0
M  V30 3191 N 313.357 1.07166 -1.15556 0
M  V30 3192 C 314.585 1.83514 -0.955519 0
M  V30 3193 C 315 1.82163 0.49621 0
M  V30 3194 O 314.357 1.23441 1.34419 0
M  V30 3195 C 314.408 3.30515 -1.46432 0
M  V30 3196 O 314.129 3.31937 -2.85918 0
M  V30 3197 C 315.63 4.23625 -1.30603 0
M  V30 3198 H 312.85 0.578926 -0.339244 0
M  V30 3199 H 315.394 1.35265 -1.53374 0
M  V30 3200 H 313.549 3.76106 -0.928584 0
M  V30 3201 H 313.963 4.23794 -3.09029 0
M  V30 3202 H 315.437 5.24831 -1.71047 0
M  V30 3203 H 315.914 4.38485 -0.250441 0
M  V30 3204 H 316.52 3.83871 -1.83094 0
M  V30 3205 N 314.835 0.952656 1.25548 0
M  V30 3206 C 316.251 0.656769 1.4546 0
M  V30 3207 C 316.451 -0.78633 1.85524 0
M  V30 3208 O 315.507 -1.56183 1.98402 0
M  V30 3209 C 316.82 1.62801 2.52817 0
M  V30 3210 C 318.368 1.63897 2.66659 0
M  V30 3211 C 318.843 2.5978 3.77198 0
M  V30 3212 N 320.334 2.58133 3.84606 0
M  V30 3213 C 321.069 3.29003 4.69621 0
M  V30 3214 N 320.565 4.09339 5.58939 0
M  V30 3215 N 322.358 3.179 4.63569 0
M  V30 3216 H 314.509 1.88526 0.978344 0
M  V30 3217 H 316.772 0.810815 0.491206 0
M  V30 3218 H 316.478 2.65869 2.30232 0
M  V30 3219 H 316.352 1.38898 3.50695 0
M  V30 3220 H 318.739 0.615481 2.8861 0
M  V30 3221 H 318.82 1.91858 1.69187 0
M  V30 3222 H 318.464 3.62254 3.55997 0
M  V30 3223 H 318.394 2.29105 4.7415 0
M  V30 3224 H 320.885 1.99809 3.20757 0
M  V30 3225 H 321.198 4.6034 6.20731 0
M  V30 3226 H 319.543 4.13438 5.58654 0
M  V30 3227 H 322.734 2.54612 3.92798 0
M  V30 3228 H 322.907 3.73398 5.29602 0
M  V30 3229 N 316.313 -1.40141 0.720998 0
M  V30 3230 C 317.724 -1.83678 0.334553 0
M  V30 3231 C 318.075 -1.6027 -1.13173 0
M  V30 3232 O 317.2 -1.08643 -1.87152 0
M  V30 3233 C 317.795 -3.33437 0.600437 0
M  V30 3234 C 316.354 -3.75447 0.267642 0
M  V30 3235 C 315.501 -2.63296 0.870097 0
M  V30 3236 H 318.452 -1.29331 0.919732 0
M  V30 3237 H 318.473 -3.80269 -0.132517 0
M  V30 3238 H 317.985 -3.50442 1.66768 0
M  V30 3239 H 316.086 -3.64035 -0.794329 0
M  V30 3240 H 316.199 -4.73344 0.74042 0
M  V30 3241 H 314.563 -2.52954 0.297739 0
M  V30 3242 H 315.346 -2.83112 1.94172 0
M  V30 3243 N 317.792 -0.46758 -1.50504 0
M  V30 3244 C 319.203 -0.0116166 -1.86696 0
M  V30 3245 C 319.554 1.39202 -1.38265 0
M  V30 3246 O 318.679 2.0313 -0.746132 0
M  V30 3247 C 319.274 -0.0143044 -3.38797 0
M  V30 3248 C 317.833 0.386175 -3.74414 0
M  V30 3249 C 316.98 -0.401287 -2.74381 0
M  V30 3250 H 319.931 -0.682022 -1.43297 0
M  V30 3251 H 319.952 0.788641 -3.72237 0
M  V30 3252 H 319.464 -1.03602 -3.74016 0
M  V30 3253 H 317.565 1.41237 -3.44794 0
M  V30 3254 H 317.678 0.0899596 -4.79016 0
M  V30 3255 H 316.042 0.144536 -2.5429 0
M  V30 3256 H 316.825 -1.42244 -3.12444 0
M  V30 3257 N 319.27 1.56325 -0.20005 0
M  V30 3258 C 320.2 2.22318 0.713916 0
M  V30 3259 C 321.181 1.18788 1.21752 0
M  V30 3260 O 322.366 1.47309 1.26545 0
M  V30 3261 C 319.496 2.88639 1.93144 0
M  V30 3262 C 318.45 3.98457 1.56255 0
M  V30 3263 C 317.776 4.51967 2.85709 0
M  V30 3264 C 319.076 5.16612 0.768747 0
M  V30 3265 H 320.77 2.98952 0.163755 0
M  V30 3266 H 318.316 1.43792 0.0773219 0
M  V30 3267 H 320.269 3.33491 2.57608 0
M  V30 3268 H 318.993 2.09419 2.50621 0
M  V30 3269 H 317.652 3.54305 0.941471 0
M  V30 3270 H 317.3 3.69503 3.41287 0
M  V30 3271 H 317 5.26071 2.6177 0
M  V30 3272 H 318.524 4.99523 3.51154 0
M  V30 3273 H 319.938 5.57977 1.3166 0
M  V30 3274 H 318.335 5.96812 0.627286 0
M  V30 3275 H 319.405 4.84358 -0.229168 0
M  V30 3276 N 320.748 -0.0735177 1.57428 0
M  V30 3277 C 321.711 -1.07192 2.02589 0
M  V30 3278 C 322.711 -1.31695 0.922661 0
M  V30 3279 O 323.901 -1.27445 1.18758 0
M  V30 3280 C 321.033 -2.41599 2.40506 0
M  V30 3281 H 322.226 -0.682727 2.92025 0
M  V30 3282 H 319.779 -0.319193 1.53006 0
M  V30 3283 H 320.514 -2.85354 1.5409 0
M  V30 3284 H 320.299 -2.25156 3.21009 0
M  V30 3285 H 321.789 -3.13367 2.76027 0
M  V30 3286 N 322.226 -1.5378 -0.344866 0
M  V30 3287 C 323.451 -1.75211 -1.10977 0
M  V30 3288 C 323.876 -0.48936 -1.81623 0
M  V30 3289 O 323.234 0.557925 -1.72502 0
M  V30 3290 C 323.282 -2.93147 -2.09993 0
M  V30 3291 O 322.386 -2.63203 -3.17487 0
M  V30 3292 H 321.727 -0.581241 -0.321021 0
M  V30 3293 H 324.257 -2.00738 -0.395661 0
M  V30 3294 H 324.267 -3.19898 -2.53237 0
M  V30 3295 H 322.942 -3.84731 -1.5797 0
M  V30 3296 H 321.519 -2.47336 -2.79069 0
M  V30 3297 N 323.704 0.605807 -1.45491 0
M  V30 3298 C 325.115 1.18777 -1.44045 0
M  V30 3299 C 325.466 1.95471 -0.169001 0
M  V30 3300 O 324.591 2.0374 0.729324 0
M  V30 3301 C 325.186 2.16064 -2.60963 0
M  V30 3302 C 323.745 2.69633 -2.62631 0
M  V30 3303 C 322.892 1.45072 -2.36325 0
M  V30 3304 H 325.843 0.395017 -1.53705 0
M  V30 3305 H 325.864 2.9913 -2.35163 0
M  V30 3306 H 325.376 1.60217 -3.53486 0
M  V30 3307 H 323.477 3.29414 -1.74119 0
M  V30 3308 H 323.59 3.13944 -3.61906 0
M  V30 3309 H 321.954 1.74089 -1.85917 0
M  V30 3310 H 322.737 0.910899 -3.30995 0
M  V30 3311 N 325.182 1.32811 0.848464 0
M  V30 3312 C 326.41 1.26739 1.63538 0
M  V30 3313 C 326.825 -0.163484 1.88091 0
M  V30 3314 O 326.182 -1.10258 1.45429 0
M  V30 3315 C 326.233 2.03013 2.99112 0
M  V30 3316 O 325.954 3.40518 2.75643 0
M  V30 3317 C 327.455 2.04038 3.93552 0
M  V30 3318 H 324.675 0.437024 0.509167 0
M  V30 3319 H 327.219 1.75033 1.05753 0
M  V30 3320 H 325.374 1.58426 3.53525 0
M  V30 3321 H 325.788 3.79635 3.61908 0
M  V30 3322 H 327.262 2.61877 4.85926 0
M  V30 3323 H 327.739 1.0282 4.26995 0
M  V30 3324 H 328.345 2.486 3.45077 0
M  V30 3325 N 326.66 -1.06551 1.16123 0
M  V30 3326 C 327.61 -2.12209 0.833736 0
M  V30 3327 C 328.594 -1.59825 -0.185656 0
M  V30 3328 O 329.786 -1.76994 0.0147906 0
M  V30 3329 C 326.915 -3.41674 0.333697 0
M  V30 3330 C 326.001 -4.00892 1.38372 0
M  V30 3331 N 326.392 -4.34256 2.59337 0
M  V30 3332 C 324.69 -4.28463 1.23836 0
M  V30 3333 C 325.391 -4.81291 3.26701 0
M  V30 3334 N 324.367 -4.80565 2.54083 0
M  V30 3335 H 328.169 -2.35849 1.75364 0
M  V30 3336 H 325.683 -1.24068 1.04789 0
M  V30 3337 H 327.68 -4.16822 0.0806918 0
M  V30 3338 H 326.34 -3.19475 -0.58017 0
M  V30 3339 H 327.351 -4.24687 2.96415 0
M  V30 3340 H 324.028 -4.15721 0.38504 0
M  V30 3341 H 325.418 -5.16332 4.29943 0
M  V30 3342 N 328.138 -0.959301 -1.25041 0
M  V30 3343 C 329.368 -0.63303 -1.96663 0
M  V30 3344 C 329.776 0.800031 -1.71453 0
M  V30 3345 O 329.119 1.54736 -0.99008 0
M  V30 3346 C 329.181 -0.817523 -3.50081 0
M  V30 3347 C 328.845 -2.22863 -3.98975 0
M  V30 3348 C 329.842 -3.20569 -4.09306 0
M  V30 3349 C 327.527 -2.55407 -4.32519 0
M  V30 3350 C 329.521 -4.4891 -4.52503 0
M  V30 3351 C 327.208 -3.83976 -4.754 0
M  V30 3352 C 328.206 -4.8054 -4.85356 0
M  V30 3353 O 327.894 -6.06817 -5.27284 0
M  V30 3354 H 327.626 -0.235866 -0.633516 0
M  V30 3355 H 330.18 -1.2874 -1.60047 0
M  V30 3356 H 328.41 -0.105992 -3.86555 0
M  V30 3357 H 330.099 -0.491604 -4.02912 0
M  V30 3358 H 330.865 -2.96753 -3.83618 0
M  V30 3359 H 326.744 -1.8097 -4.23994 0
M  V30 3360 H 330.288 -5.24283 -4.60188 0
M  V30 3361 H 326.185 -4.07596 -5.00535 0
M  V30 3362 H 326.953 -6.10262 -5.45457 0
M  V30 3363 N 329.616 1.39756 -0.72842 0
M  V30 3364 C 330.579 2.29012 -0.0927297 0
M  V30 3365 C 331.579 1.45992 0.674025 0
M  V30 3366 O 332.769 1.66749 0.50402 0
M  V30 3367 C 329.901 3.29396 0.878137 0
M  V30 3368 H 331.094 2.86729 -0.879011 0
M  V30 3369 H 328.647 1.48293 -0.493847 0
M  V30 3370 H 329.382 2.76722 1.69101 0
M  V30 3371 H 329.167 3.907 0.331051 0
M  V30 3372 H 330.657 3.96199 1.3197 0
M  V30 3373 N 331.094 0.475555 1.50254 0
M  V30 3374 C 332.505 0.0215174 1.86688 0
M  V30 3375 C 332.856 -1.38467 1.39001 0
M  V30 3376 O 331.981 -2.02732 0.756894 0
M  V30 3377 C 332.576 0.0322715 3.38785 0
M  V30 3378 C 331.135 -0.366314 3.74613 0
M  V30 3379 C 330.282 0.415832 2.74164 0
M  V30 3380 H 333.233 0.689612 1.42934 0
M  V30 3381 H 333.254 -0.76889 3.7265 0
M  V30 3382 H 332.766 1.05584 3.73462 0
M  V30 3383 H 330.867 -1.39406 3.45538 0
M  V30 3384 H 330.98 -0.064555 4.79057 0
M  V30 3385 H 329.344 -0.131048 2.54363 0
M  V30 3386 H 330.127 1.43899 3.11686 0
M  V30 3387 N 332.573 -1.56217 0.208337 0
M  V30 3388 C 333.798 -2.02782 -0.435222 0
M  V30 3389 C 334.223 -1.08738 -1.53485 0
M  V30 3390 O 333.581 -0.0731855 -1.81152 0
M  V30 3391 C 333.629 -3.47687 -0.956335 0
M  V30 3392 O 332.733 -3.56773 -2.06849 0
M  V30 3393 H 332.074 -0.656403 -0.100158 0
M  V30 3394 H 334.604 -2.02033 0.3231 0
M  V30 3395 H 334.614 -3.87745 -1.26955 0
M  V30 3396 H 333.289 -4.15624 -0.15143 0
M  V30 3397 H 331.866 -3.28597 -1.76292 0
M  V30 3398 N 334.051 0.0651679 -1.57465 0
M  V30 3399 C 334.998 1.07675 -2.04144 0
M  V30 3400 C 335.968 1.38071 -0.923335 0
M  V30 3401 O 337.153 1.49026 -1.19146 0
M  V30 3402 C 334.293 2.38337 -2.49579 0
M  V30 3403 C 333.406 2.14413 -3.75035 0
M  V30 3404 C 332.541 3.38686 -4.09225 0
M  V30 3405 C 331.58 3.10156 -5.27702 0
M  V30 3406 N 330.717 4.26778 -5.57499 0
M  V30 3407 H 335.557 0.671716 -2.90331 0
M  V30 3408 H 333.094 0.3201 -1.43575 0
M  V30 3409 H 335.052 3.14632 -2.73975 0
M  V30 3410 H 333.682 2.7663 -1.6636 0
M  V30 3411 H 332.734 1.2878 -3.57939 0
M  V30 3412 H 334.046 1.89344 -4.61466 0
M  V30 3413 H 333.2 4.23373 -4.34558 0
M  V30 3414 H 331.939 3.66837 -3.21374 0
M  V30 3415 H 330.944 2.23866 -5.02159 0
M  V30 3416 H 332.169 2.8332 -6.17176 0
M  V30 3417 H 330.115 4.54948 -4.72608 0
M  V30 3418 H 330.032 4.05005 -6.38362 0
M  V30 3419 H 331.3 5.12443 -5.87386 0
M  V30 3420 N 335.529 1.53961 0.336706 0
M  V30 3421 C 336.492 1.81724 1.39675 0
M  V30 3422 C 337.492 0.688532 1.45313 0
M  V30 3423 O 338.682 0.956829 1.45569 0
M  V30 3424 C 335.814 1.96543 2.78538 0
M  V30 3425 H 337.007 2.76424 1.16318 0
M  V30 3426 H 334.56 1.45478 0.571474 0
M  V30 3427 H 335.295 1.0401 3.07168 0
M  V30 3428 H 335.08 2.78665 2.75841 0
M  V30 3429 H 336.57 2.19516 3.5525 0
M  V30 3430 N 337.007 -0.598083 1.45811 0
M  V30 3431 C 337.97 -1.69018 1.54808 0
M  V30 3432 C 338.97 -1.55037 0.426652 0
M  V30 3433 O 340.16 -1.59932 0.690456 0
M  V30 3434 C 337.292 -3.0835 1.45371 0
M  V30 3435 H 338.485 -1.62403 2.52121 0
M  V30 3436 H 336.038 -0.814626 1.33392 0
M  V30 3437 H 336.773 -3.20534 0.492793 0
M  V30 3438 H 336.558 -3.19907 2.26721 0
M  V30 3439 H 338.048 -3.8788 1.54721 0
M  V30 3440 N 338.485 -1.33259 -0.841409 0
M  V30 3441 C 339.448 -1.23221 -1.9326 0
M  V30 3442 C 340.448 -0.151895 -1.60081 0
M  V30 3443 O 341.638 -0.403246 -1.69468 0
M  V30 3444 C 338.77 -0.898123 -3.28856 0
M  V30 3445 H 339.963 -2.2021 -2.03587 0
M  V30 3446 H 337.516 -1.17281 -1.03319 0
M  V30 3447 H 338.251 0.0693841 -3.24226 0
M  V30 3448 H 338.036 -1.67934 -3.54317 0
M  V30 3449 H 339.526 -0.852563 -4.08805 0
M  V30 3450 N 339.963 1.05934 -1.16686 0
M  V30 3451 C 340.893 2.1546 -0.899949 0
M  V30 3452 C 341.874 1.69391 0.155154 0
M  V30 3453 O 343.059 1.94199 0.00648693 0
M  V30 3454 C 340.189 3.44939 -0.404241 0
M  V30 3455 C 339.143 4.04536 -1.39767 0
M  V30 3456 C 338.469 5.29268 -0.760216 0
M  V30 3457 C 339.769 4.42893 -2.76845 0
M  V30 3458 H 341.463 2.38046 -1.81588 0
M  V30 3459 H 339.009 1.14404 -0.874514 0
M  V30 3460 H 340.962 4.20901 -0.204971 0
M  V30 3461 H 339.686 3.21983 0.547206 0
M  V30 3462 H 338.345 3.30635 -1.58355 0
M  V30 3463 H 337.993 5.02611 0.197831 0
M  V30 3464 H 337.693 5.70101 -1.42332 0
M  V30 3465 H 339.217 6.07924 -0.57105 0
M  V30 3466 H 340.631 5.09921 -2.62019 0
M  V30 3467 H 339.028 4.94721 -3.39663 0
M  V30 3468 H 340.098 3.53584 -3.31823 0
M  V30 3469 N 341.441 0.965919 1.2453 0
M  V30 3470 C 342.404 0.499547 2.2369 0
M  V30 3471 C 343.404 -0.40294 1.5567 0
M  V30 3472 O 344.594 -0.19865 1.73064 0
M  V30 3473 C 341.726 -0.276792 3.39774 0
M  V30 3474 H 342.919 1.37613 2.66463 0
M  V30 3475 H 340.472 0.750324 1.37112 0
M  V30 3476 H 341.207 -1.17055 3.02438 0
M  V30 3477 H 340.992 0.370826 3.90343 0
M  V30 3478 H 342.482 -0.592175 4.1338 0
M  V30 3479 N 342.919 -1.39368 0.735821 0
M  V30 3480 C 343.882 -2.2896 0.104874 0
M  V30 3481 C 344.882 -1.46347 -0.666274 0
M  V30 3482 O 346.072 -1.67014 -0.49517 0
M  V30 3483 C 343.204 -3.29857 -0.860656 0
M  V30 3484 H 344.397 -2.86259 0.894205 0
M  V30 3485 H 341.95 -1.48029 0.501704 0
M  V30 3486 H 342.685 -2.77615 -1.67631 0
M  V30 3487 H 342.47 -3.9087 -0.310327 0
M  V30 3488 H 343.96 -3.96893 -1.29867 0
M  V30 3489 N 344.397 -0.483516 -1.5 0
M  V30 3490 C 345.36 0.292965 -2.2732 0
M  V30 3491 C 346.36 0.909499 -1.32608 0
M  V30 3492 O 347.55 0.776745 -1.55924 0
M  V30 3493 C 344.682 1.41854 -3.09984 0
M  V30 3494 H 345.875 -0.385289 -2.97415 0
M  V30 3495 H 343.428 -0.237942 -1.54478 0
M  V30 3496 H 344.163 2.13148 -2.44414 0
M  V30 3497 H 343.948 0.982114 -3.79601 0
M  V30 3498 H 345.438 1.96597 -3.68429 0
M  V30 3499 N 345.875 1.56104 -0.216619 0
M  V30 3500 C 346.805 2.23063 0.690296 0
M  V30 3501 C 347.786 1.20072 1.20485 0
M  V30 3502 O 348.971 1.48643 1.24976 0
M  V30 3503 C 346.101 2.90672 1.90072 0
M  V30 3504 C 345.055 4.00092 1.5202 0
M  V30 3505 C 344.381 4.54972 2.80899 0
M  V30 3506 C 345.681 5.17398 0.71391 0
M  V30 3507 H 347.375 2.99109 0.132038 0
M  V30 3508 H 344.921 1.43866 0.0620664 0
M  V30 3509 H 346.874 3.36204 2.54057 0
M  V30 3510 H 345.598 2.12066 2.48386 0
M  V30 3511 H 344.257 3.55283 0.903839 0
M  V30 3512 H 343.905 3.73102 3.37348 0
M  V30 3513 H 343.605 5.28817 2.56176 0
M  V30 3514 H 345.129 5.0322 3.45836 0
M  V30 3515 H 346.543 5.59342 1.25735 0
M  V30 3516 H 344.94 5.97444 0.563951 0
M  V30 3517 H 346.01 4.84088 -0.280527 0
M  V30 3518 N 347.353 -0.0568162 1.57498 0
M  V30 3519 C 348.601 -0.751617 1.87604 0
M  V30 3520 C 348.922 -1.77351 0.81066 0
M  V30 3521 O 348.192 -1.95254 -0.159018 0
M  V30 3522 H 346.772 -0.280583 0.692302 0
M  V30 3523 H 349.434 -0.0293483 1.94878 0
M  V30 3524 H 348.53 -1.25852 2.856 0
M  V30 3525 N 348.832 -1.54138 -0.328536 0
M  V30 3526 C 350.243 -1.63395 -0.903272 0
M  V30 3527 C 350.594 -0.524828 -1.8905 0
M  V30 3528 O 349.719 0.343068 -2.13663 0
M  V30 3529 C 350.314 -2.9618 -1.64507 0
M  V30 3530 C 348.873 -3.0765 -2.1686 0
M  V30 3531 C 348.02 -2.58933 -0.992416 0
M  V30 3532 H 350.971 -1.58344 -0.106253 0
M  V30 3533 H 350.992 -2.86061 -2.50897 0
M  V30 3534 H 350.504 -3.76884 -0.926302 0
M  V30 3535 H 348.605 -2.31611 -2.91868 0
M  V30 3536 H 348.718 -4.1337 -2.42202 0
M  V30 3537 H 347.082 -2.14706 -1.37016 0
M  V30 3538 H 347.865 -3.42089 -0.288041 0
M  V30 3539 N 350.31 0.590341 -1.46126 0
M  V30 3540 C 351.273 1.68194 -1.55703 0
M  V30 3541 C 352.273 1.54808 -0.434868 0
M  V30 3542 O 353.463 1.59564 -0.698928 0
M  V30 3543 C 350.595 3.07575 -1.47005 0
M  V30 3544 H 351.788 1.61064 -2.52979 0
M  V30 3545 H 349.341 0.807541 -1.33823 0
M  V30 3546 H 350.076 3.20268 -0.509785 0
M  V30 3547 H 349.861 3.187 -2.28414 0
M  V30 3548 H 351.351 3.87055 -1.56776 0
M  V30 3549 N 351.788 1.33704 0.83433 0
M  V30 3550 C 352.698 1.26382 1.97648 0
M  V30 3551 C 353.714 0.173548 1.73132 0
M  V30 3552 O 354.89 0.397962 1.97429 0
M  V30 3553 C 351.955 1.00769 3.31733 0
M  V30 3554 C 351.016 2.1884 3.69334 0
M  V30 3555 C 350.249 1.9444 4.9702 0
M  V30 3556 O 350.472 0.896961 5.63303 0
M  V30 3557 O 349.406 2.81093 5.32231 0
M  V30 3558 H 353.232 2.22444 2.06767 0
M  V30 3559 H 350.817 1.13795 0.968037 0
M  V30 3560 H 352.699 0.882186 4.12062 0
M  V30 3561 H 351.374 0.0773783 3.23608 0
M  V30 3562 H 350.281 2.36946 2.89495 0
M  V30 3563 H 351.614 3.10221 3.82131 0
M  V30 3564 N 353.266 -1.05314 1.17247 0
M  V30 3565 C 354.229 -2.112 0.890357 0
M  V30 3566 C 355.229 -1.60359 -0.118943 0
M  V30 3567 O 356.419 -1.73833 0.113086 0
M  V30 3568 C 353.551 -3.39266 0.333422 0
M  V30 3569 H 354.744 -2.37659 1.82916 0
M  V30 3570 H 352.297 -1.21538 0.982758 0
M  V30 3571 H 353.032 -3.18462 -0.612587 0
M  V30 3572 H 352.817 -3.77477 1.06082 0
M  V30 3573 H 354.307 -4.17315 0.154322 0
M  V30 3574 N 354.744 -0.972509 -1.24016 0
M  V30 3575 C 355.992 -0.635776 -1.91839 0
M  V30 3576 C 356.313 0.832312 -1.76345 0
M  V30 3577 O 355.583 1.5946 -1.13795 0
M  V30 3578 H 354.163 -0.232157 -0.710009 0
M  V30 3579 H 356.825 -1.23462 -1.50809 0
M  V30 3580 H 355.921 -0.880545 -2.99421 0
M  V30 3581 N 356.222 1.38976 -0.743202 0
M  V30 3582 C 357.155 2.28128 -0.0572165 0
M  V30 3583 C 358.133 1.44827 0.739182 0
M  V30 3584 O 359.317 1.74207 0.720009 0
M  V30 3585 C 356.444 3.25796 0.926001 0
M  V30 3586 C 355.49 4.25947 0.217099 0
M  V30 3587 S 356.323 5.24604 -1.07477 0
M  V30 3588 C 357.479 6.25829 -0.0943545 0
M  V30 3589 H 357.712 2.85961 -0.813246 0
M  V30 3590 H 355.245 1.44822 -0.535341 0
M  V30 3591 H 357.203 3.82583 1.48797 0
M  V30 3592 H 355.864 2.66966 1.65493 0
M  V30 3593 H 355.057 4.94746 0.961372 0
M  V30 3594 H 354.659 3.73002 -0.273059 0
M  V30 3595 H 356.951 6.73411 0.743239 0
M  V30 3596 H 357.894 7.0412 -0.749713 0
M  V30 3597 H 358.302 5.63797 0.281706 0
M  V30 3598 N 357.7 0.491464 1.49741 0
M  V30 3599 C 358.63 -0.28154 2.31796 0
M  V30 3600 C 359.611 -0.971473 1.3963 0
M  V30 3601 O 360.796 -0.964719 1.68543 0
M  V30 3602 C 357.926 -1.35203 3.19902 0
M  V30 3603 C 356.88 -0.782529 4.20786 0
M  V30 3604 C 356.206 -1.95283 4.97764 0
M  V30 3605 C 357.506 0.21999 5.21837 0
M  V30 3606 H 359.2 0.403355 2.96671 0
M  V30 3607 H 356.746 0.195425 1.42668 0
M  V30 3608 H 358.699 -1.90045 3.76113 0
M  V30 3609 H 357.423 -2.06598 2.52953 0
M  V30 3610 H 356.082 -0.255928 3.65706 0
M  V30 3611 H 355.73 -2.65423 4.2727 0
M  V30 3612 H 355.43 -1.57789 5.66018 0
M  V30 3613 H 356.954 -2.50577 5.56816 0
M  V30 3614 H 358.368 -0.23996 5.72798 0
M  V30 3615 H 356.765 0.51026 5.97927 0
M  V30 3616 H 357.835 1.13911 4.7133 0
M  V30 3617 N 359.178 -1.55987 0.224894 0
M  V30 3618 C 360.088 -2.24066 -0.69511 0
M  V30 3619 C 361.104 -1.24939 -1.21104 0
M  V30 3620 O 362.28 -1.5776 -1.25195 0
M  V30 3621 C 359.345 -2.90983 -1.88493 0
M  V30 3622 C 358.406 -4.05462 -1.41064 0
M  V30 3623 C 357.639 -4.69179 -2.54375 0
M  V30 3624 O 357.862 -4.31895 -3.72589 0
M  V30 3625 O 356.796 -5.58108 -2.25386 0
M  V30 3626 H 360.622 -3.03353 -0.145149 0
M  V30 3627 H 358.207 -1.49399 -0.00569476 0
M  V30 3628 H 360.089 -3.33209 -2.57972 0
M  V30 3629 H 358.764 -2.14653 -2.42293 0
M  V30 3630 H 357.671 -3.67798 -0.683774 0
M  V30 3631 H 359.004 -4.83545 -0.918985 0
M  V30 3632 N 360.656 0.0484629 -1.57525 0
M  V30 3633 C 361.603 1.05504 -2.05275 0
M  V30 3634 C 362.573 1.37084 -0.937927 0
M  V30 3635 O 363.758 1.47754 -1.2072 0
M  V30 3636 C 360.898 2.35676 -2.52093 0
M  V30 3637 C 360.011 2.10423 -3.77288 0
M  V30 3638 C 359.146 3.34327 -4.12794 0
M  V30 3639 C 358.185 3.04542 -5.30962 0
M  V30 3640 N 357.322 4.20841 -5.61994 0
M  V30 3641 H 362.162 0.640885 -2.91027 0
M  V30 3642 H 359.699 0.304854 -1.43906 0
M  V30 3643 H 361.657 3.11709 -2.77297 0
M  V30 3644 H 360.287 2.7485 -1.69285 0
M  V30 3645 H 359.339 1.24976 -3.59284 0
M  V30 3646 H 360.651 1.84438 -4.63448 0
M  V30 3647 H 359.805 4.1874 -4.39024 0
M  V30 3648 H 358.544 3.63408 -3.25247 0
M  V30 3649 H 357.549 2.18528 -5.04505 0
M  V30 3650 H 358.774 2.76758 -6.20146 0
M  V30 3651 H 356.72 4.4991 -4.77406 0
M  V30 3652 H 356.637 3.98212 -6.42622 0
M  V30 3653 H 357.905 5.06184 -5.92789 0
M  V30 3654 N 362.134 1.5431 0.320358 0
M  V30 3655 C 363.064 1.86912 1.3995 0
M  V30 3656 C 364.045 0.726211 1.53819 0
M  V30 3657 O 365.23 0.980233 1.67646 0
M  V30 3658 C 362.36 2.09932 2.7667 0
M  V30 3659 C 361.314 3.25776 2.77586 0
M  V30 3660 C 360.64 3.34173 4.17412 0
M  V30 3661 C 361.94 4.6335 2.41048 0
M  V30 3662 H 363.634 2.77292 1.12914 0
M  V30 3663 H 361.18 1.33421 0.541738 0
M  V30 3664 H 363.133 2.31324 3.52232 0
M  V30 3665 H 361.857 1.16304 3.0519 0
M  V30 3666 H 360.516 3.04276 2.04479 0
M  V30 3667 H 360.164 2.38098 4.43078 0
M  V30 3668 H 359.864 4.12033 4.18931 0
M  V30 3669 H 361.388 3.57803 4.94782 0
M  V30 3670 H 362.802 4.84602 3.06324 0
M  V30 3671 H 361.199 5.43782 2.53813 0
M  V30 3672 H 362.269 4.65381 1.36193 0
M  V30 3673 N 363.613 -0.582584 1.46437 0
M  V30 3674 C 364.523 -1.71949 1.59595 0
M  V30 3675 C 365.539 -1.67264 0.479443 0
M  V30 3676 O 366.715 -1.87171 0.743579 0
M  V30 3677 C 363.78 -3.08452 1.58298 0
M  V30 3678 C 362.841 -3.244 2.81182 0
M  V30 3679 C 362.074 -4.54391 2.79937 0
M  V30 3680 O 362.297 -5.38287 1.8869 0
M  V30 3681 O 361.231 -4.73588 3.71481 0
M  V30 3682 H 365.057 -1.63795 2.55744 0
M  V30 3683 H 362.642 -0.749643 1.29231 0
M  V30 3684 H 364.524 -3.89732 1.60271 0
M  V30 3685 H 363.199 -3.17043 0.653094 0
M  V30 3686 H 362.106 -2.42613 2.84763 0
M  V30 3687 H 363.439 -3.20699 3.7338 0
M  V30 3688 N 365.091 -1.34144 -0.827227 0
M  V30 3689 C 366.338 -1.26258 -1.58319 0
M  V30 3690 C 366.666 0.168595 -1.93768 0
M  V30 3691 O 365.921 1.12877 -1.59866 0
M  V30 3692 C 366.22 -2.09464 -2.89585 0
M  V30 3693 C 365.886 -3.58521 -2.73448 0
M  V30 3694 C 364.548 -3.99155 -2.68754 0
M  V30 3695 C 366.9 -4.53189 -2.57428 0
M  V30 3696 C 364.228 -5.32656 -2.45957 0
M  V30 3697 C 366.58 -5.86864 -2.36163 0
M  V30 3698 C 365.244 -6.26667 -2.29879 0
M  V30 3699 H 364.514 -0.462013 -0.579332 0
M  V30 3700 H 367.161 -1.65845 -0.95748 0
M  V30 3701 H 365.466 -1.62692 -3.56425 0
M  V30 3702 H 367.163 -2.00712 -3.47154 0
M  V30 3703 H 363.753 -3.26264 -2.77939 0
M  V30 3704 H 367.937 -4.22696 -2.60081 0
M  V30 3705 H 363.193 -5.62519 -2.39546 0
M  V30 3706 H 367.367 -6.59813 -2.22754 0
M  V30 3707 H 364.994 -7.30049 -2.11975 0
M  V30 3708 N 366.569 1.04691 -1.17803 0
M  V30 3709 C 367.479 2.16057 -0.914151 0
M  V30 3710 C 368.495 1.73589 0.119503 0
M  V30 3711 O 369.671 2.01308 -0.0609468 0
M  V30 3712 C 366.736 3.4394 -0.436603 0
M  V30 3713 C 365.797 4.00825 -1.53746 0
M  V30 3714 C 365.03 5.22604 -1.0826 0
M  V30 3715 O 365.253 5.70367 0.0612244 0
M  V30 3716 O 364.187 5.7186 -1.87775 0
M  V30 3717 H 368.013 2.41169 -1.84584 0
M  V30 3718 H 365.598 1.1453 -0.959334 0
M  V30 3719 H 367.48 4.21024 -0.178057 0
M  V30 3720 H 366.155 3.20316 0.466869 0
M  V30 3721 H 365.062 3.25158 -1.84995 0
M  V30 3722 H 366.395 4.28778 -2.41683 0
M  V30 3723 N 368.047 0.979072 1.23499 0
M  V30 3724 C 369.324 0.563674 1.87302 0
M  V30 3725 C 369.704 -0.959199 1.88049 0
M  V30 3726 O 369.052 -1.83535 1.36114 0
M  V30 3727 C 369.262 1.16822 3.28867 0
M  V30 3728 C 370.61 1.26014 4.0547 0
M  V30 3729 O 371.634 1.12158 3.38082 0
M  V30 3730 O 370.493 1.48044 5.26066 0
M  V30 3731 H 367.587 0.189602 0.804972 0
M  V30 3732 H 370.133 1.07407 1.31384 0
M  V30 3733 H 368.905 2.21049 3.22883 0
M  V30 3734 H 368.528 0.642564 3.92373 0
M  V30 3735 N 369.525 -1.3858 0.750561 0
M  V30 3736 C 370.435 -2.34278 0.122825 0
M  V30 3737 C 371.451 -1.59116 -0.704131 0
M  V30 3738 O 372.627 -1.91326 -0.628987 0
M  V30 3739 C 369.692 -3.38221 -0.762086 0
M  V30 3740 C 368.753 -4.29227 0.078896 0
M  V30 3741 C 367.986 -5.28205 -0.763874 0
M  V30 3742 O 368.209 -5.34112 -2.00201 0
M  V30 3743 O 367.143 -6.01618 -0.18428 0
M  V30 3744 H 370.969 -2.89649 0.913088 0
M  V30 3745 H 368.554 -1.40374 0.511417 0
M  V30 3746 H 370.436 -4.01872 -1.26793 0
M  V30 3747 H 369.111 -2.85211 -1.5309 0
M  V30 3748 H 368.018 -3.68747 0.630621 0
M  V30 3749 H 369.351 -4.85484 0.810289 0
M  V30 3750 N 371.003 -0.499398 -1.49478 0
M  V30 3751 C 371.966 0.268838 -2.27618 0
M  V30 3752 C 372.966 0.895383 -1.33565 0
M  V30 3753 O 374.156 0.760164 -1.56739 0
M  V30 3754 C 371.288 1.38559 -3.11471 0
M  V30 3755 H 372.481 -0.416812 -2.96989 0
M  V30 3756 H 370.034 -0.254313 -1.54217 0
M  V30 3757 H 370.769 2.10544 -2.46661 0
M  V30 3758 H 370.554 0.941797 -3.80621 0
M  V30 3759 H 372.044 1.92678 -3.70493 0
M  V30 3760 N 372.481 1.55866 -0.233164 0
M  V30 3761 C 373.727 1.98897 0.395959 0
M  V30 3762 C 374.06 1.12091 1.58585 0
M  V30 3763 O 373.335 0.181182 1.93654 0
M  V30 3764 C 373.618 3.50658 0.819224 0
M  V30 3765 C 373.471 4.48233 -0.375109 0
M  V30 3766 C 374.79 4.07135 1.67121 0
M  V30 3767 H 371.909 0.723102 0.142451 0
M  V30 3768 H 374.551 1.87082 -0.331725 0
M  V30 3769 H 372.701 3.60857 1.43925 0
M  V30 3770 H 374.373 4.50031 -1.01341 0
M  V30 3771 H 372.616 4.21624 -1.02058 0
M  V30 3772 H 373.287 5.51988 -0.0358328 0
M  V30 3773 H 375.763 3.99952 1.14795 0
M  V30 3774 H 374.639 5.13615 1.93625 0
M  V30 3775 H 374.9 3.54736 2.63846 0
M  V30 3776 N 373.959 -0.0401083 1.57549 0
M  V30 3777 C 374.869 -1.06133 2.0922 0
M  V30 3778 C 375.885 -1.40356 1.0284 0
M  V30 3779 O 377.061 -1.49897 1.34509 0
M  V30 3780 C 374.126 -2.34658 2.55218 0
M  V30 3781 C 373.187 -2.07117 3.76033 0
M  V30 3782 C 372.42 -3.29514 4.19829 0
M  V30 3783 O 372.643 -4.39794 3.63232 0
M  V30 3784 O 371.577 -3.15863 5.12362 0
M  V30 3785 H 375.403 -0.652244 2.96613 0
M  V30 3786 H 372.988 -0.256368 1.47184 0
M  V30 3787 H 374.87 -3.10239 2.85184 0
M  V30 3788 H 373.545 -2.74883 1.70941 0
M  V30 3789 H 372.452 -1.29139 3.51104 0
M  V30 3790 H 373.785 -1.71754 4.61261 0
M  V30 3791 N 375.437 -1.54477 -0.31217 0
M  V30 3792 C 376.714 -1.63891 -1.06767 0
M  V30 3793 C 377.094 -0.480028 -2.0557 0
M  V30 3794 O 376.442 0.524487 -2.22399 0
M  V30 3795 C 376.652 -3.01402 -1.75948 0
M  V30 3796 C 378 -3.57838 -2.28554 0
M  V30 3797 O 379.024 -3.03782 -1.85998 0
M  V30 3798 O 377.883 -4.52462 -3.06497 0
M  V30 3799 H 374.977 -0.664125 -0.492816 0
M  V30 3800 H 377.523 -1.66823 -0.311149 0
M  V30 3801 H 376.295 -3.77187 -1.04144 0
M  V30 3802 H 375.918 -3.02199 -2.58383 0
M  V30 3803 N 376.915 0.57481 -1.46744 0
M  V30 3804 C 378.14 1.36341 -1.56288 0
M  V30 3805 C 378.565 1.86954 -0.207347 0
M  V30 3806 O 377.923 1.62006 0.813871 0
M  V30 3807 C 377.971 2.52147 -2.57787 0
M  V30 3808 O 377.075 3.53834 -2.11838 0
M  V30 3809 H 376.416 0.405713 -0.525636 0
M  V30 3810 H 378.946 0.696453 -1.92382 0
M  V30 3811 H 378.956 2.98958 -2.77648 0
M  V30 3812 H 377.631 2.14663 -3.5622 0
M  V30 3813 H 376.208 3.1345 -2.01999 0
M  V30 3814 N 378.394 1.34581 0.820102 0
M  V30 3815 C 379.304 1.28471 1.96297 0
M  V30 3816 C 380.32 0.191902 1.72939 0
M  V30 3817 O 381.496 0.418879 1.96996 0
M  V30 3818 C 378.561 1.04281 3.30645 0
M  V30 3819 C 377.622 2.22745 3.66992 0
M  V30 3820 C 376.855 1.997 4.9493 0
M  V30 3821 O 377.078 0.956656 5.6232 0
M  V30 3822 O 376.012 2.86723 5.2922 0
M  V30 3823 H 379.838 2.24624 2.04396 0
M  V30 3824 H 377.423 1.14816 0.955913 0
M  V30 3825 H 379.305 0.925841 4.11104 0
M  V30 3826 H 377.98 0.111697 3.23507 0
M  V30 3827 H 376.887 2.40003 2.86966 0
M  V30 3828 H 378.22 3.14257 3.78819 0
M  V30 3829 N 379.872 -1.04064 1.18357 0
M  V30 3830 C 381.097 -1.81454 1.00445 0
M  V30 3831 C 381.522 -1.82823 -0.442423 0
M  V30 3832 O 380.88 -1.24555 -1.31741 0
M  V30 3833 C 380.928 -3.24925 1.56384 0
M  V30 3834 O 380.032 -4.04856 0.785209 0
M  V30 3835 H 379.373 -0.560604 0.355835 0
M  V30 3836 H 381.903 -1.31059 1.57114 0
M  V30 3837 H 381.913 -3.75702 1.59097 0
M  V30 3838 H 380.588 -3.23244 2.61699 0
M  V30 3839 H 379.165 -3.63537 0.830399 0
M  V30 3840 N 381.35 -0.985608 -1.22978 0
M  V30 3841 C 382.598 -0.656087 -1.91154 0
M  V30 3842 C 382.919 0.813561 -1.77218 0
M  V30 3843 O 382.189 1.58244 -1.1548 0
M  V30 3844 H 380.769 -0.239674 -0.707506 0
M  V30 3845 H 383.431 -1.25054 -1.49491 0
M  V30 3846 H 382.527 -0.912253 -2.9847 0
M  V30 3847 N 382.828 1.3818 -0.7579 0
M  V30 3848 C 384.074 2.00316 -0.316453 0
M  V30 3849 C 384.407 1.60026 1.10025 0
M  V30 3850 O 383.682 0.839835 1.75434 0
M  V30 3851 C 383.965 3.57349 -0.444245 0
M  V30 3852 C 383.818 4.07591 -1.90236 0
M  V30 3853 C 385.137 4.3981 0.1598 0
M  V30 3854 H 382.256 0.727741 -0.116459 0
M  V30 3855 H 384.898 1.6406 -0.958352 0
M  V30 3856 H 383.048 3.88365 0.102233 0
M  V30 3857 H 384.72 3.87199 -2.50748 0
M  V30 3858 H 382.963 3.60297 -2.41595 0
M  V30 3859 H 383.634 5.16677 -1.94291 0
M  V30 3860 H 386.11 4.14971 -0.306314 0
M  V30 3861 H 384.986 5.48885 0.0401675 0
M  V30 3862 H 385.247 4.24102 1.24859 0
M  V30 3863 N 384.306 0.507319 1.49211 0
M  V30 3864 C 385.536 -0.0315292 2.06576 0
M  V30 3865 C 385.944 -1.30791 1.36713 0
M  V30 3866 O 385.287 -1.78324 0.441181 0
M  V30 3867 C 385.349 -0.349104 3.57801 0
M  V30 3868 C 385.013 0.830475 4.49391 0
M  V30 3869 C 386.01 1.72271 4.90529 0
M  V30 3870 C 383.695 1.03107 4.91604 0
M  V30 3871 C 385.689 2.79964 5.72625 0
M  V30 3872 C 383.376 2.11116 5.73475 0
M  V30 3873 C 384.374 2.99379 6.1389 0
M  V30 3874 O 384.062 4.05523 6.94123 0
M  V30 3875 H 383.794 0.0201002 0.675701 0
M  V30 3876 H 386.348 0.705737 1.92895 0
M  V30 3877 H 384.578 -1.14005 3.69513 0
M  V30 3878 H 386.267 -0.827319 3.97379 0
M  V30 3879 H 387.033 1.57958 4.58557 0
M  V30 3880 H 382.912 0.353417 4.59643 0
M  V30 3881 H 386.456 3.48884 6.04091 0
M  V30 3882 H 382.353 2.25421 6.0486 0
M  V30 3883 H 383.121 4.02953 7.1244 0
M  V30 3884 N 385.784 -1.5574 0.241426 0
M  V30 3885 C 386.717 -2.17168 -0.700935 0
M  V30 3886 C 387.695 -1.12206 -1.1768 0
M  V30 3887 O 388.879 -1.40565 -1.25593 0
M  V30 3888 C 386.006 -2.76796 -1.95196 0
M  V30 3889 C 385.052 -3.94764 -1.61442 0
M  V30 3890 S 385.885 -5.30613 -0.72182 0
M  V30 3891 C 387.041 -5.93691 -1.98197 0
M  V30 3892 H 387.274 -2.96761 -0.178882 0
M  V30 3893 H 384.807 -1.54378 0.0259299 0
M  V30 3894 H 386.765 -3.11787 -2.67019 0
M  V30 3895 H 385.426 -1.9716 -2.44514 0
M  V30 3896 H 384.619 -4.35057 -2.54443 0
M  V30 3897 H 384.221 -3.61022 -0.976672 0
M  V30 3898 H 386.513 -6.10874 -2.92983 0
M  V30 3899 H 387.456 -6.89258 -1.62262 0
M  V30 3900 H 387.864 -5.22709 -2.13156 0
M  V30 3901 N 387.262 0.0317525 -1.57568 0
M  V30 3902 C 388.678 0.38735 -1.54828 0
M  V30 3903 C 388.878 1.7677 -0.967187 0
M  V30 3904 O 387.934 2.45581 -0.587063 0
M  V30 3905 C 389.247 0.291667 -2.99282 0
M  V30 3906 C 390.795 0.368946 -3.10818 0
M  V30 3907 C 391.27 0.302741 -4.56998 0
M  V30 3908 N 392.761 0.361617 -4.61786 0
M  V30 3909 C 393.496 0.333238 -5.72431 0
M  V30 3910 N 392.992 0.257308 -6.92322 0
M  V30 3911 N 394.785 0.382769 -5.60795 0
M  V30 3912 H 386.936 -0.871609 -1.93692 0
M  V30 3913 H 389.199 -0.331161 -0.888277 0
M  V30 3914 H 388.905 -0.656794 -3.45513 0
M  V30 3915 H 388.779 1.08638 -3.61217 0
M  V30 3916 H 391.166 1.30784 -2.64536 0
M  V30 3917 H 391.247 -0.455066 -2.5172 0
M  V30 3918 H 390.891 -0.632473 -5.03947 0
M  V30 3919 H 390.821 1.14482 -5.14005 0
M  V30 3920 H 393.312 0.422923 -3.75526 0
M  V30 3921 H 393.625 0.24068 -7.72425 0
M  V30 3922 H 391.97 0.223396 -6.94641 0
M  V30 3923 H 395.161 0.44006 -4.66027 0
M  V30 3924 H 395.334 0.357184 -6.47015 0
M  V30 3925 N 388.74 1.54641 0.303973 0
M  V30 3926 C 389.987 1.7378 1.03955 0
M  V30 3927 C 390.315 0.521986 1.87365 0
M  V30 3928 O 389.57 -0.496099 1.89308 0
M  V30 3929 C 389.869 2.97753 1.97681 0
M  V30 3930 C 389.535 4.31671 1.30271 0
M  V30 3931 C 388.197 4.68075 1.11619 0
M  V30 3932 C 390.549 5.147 0.82055 0
M  V30 3933 C 387.877 5.8509 0.434304 0
M  V30 3934 C 390.229 6.32416 0.152395 0
M  V30 3935 C 388.893 6.67484 -0.0461067 0
M  V30 3936 H 388.163 0.635908 0.380398 0
M  V30 3937 H 390.81 1.88896 0.314718 0
M  V30 3938 H 389.115 2.77406 2.76682 0
M  V30 3939 H 390.812 3.09756 2.54661 0
M  V30 3940 H 387.402 4.03041 1.45795 0
M  V30 3941 H 391.586 4.87077 0.952374 0
M  V30 3942 H 386.842 6.10806 0.269495 0
M  V30 3943 H 391.016 6.96023 -0.229126 0
M  V30 3944 H 388.643 7.58011 -0.576494 0
M  V30 3945 N 390.218 -0.567019 1.47046 0
M  V30 3946 C 391.151 -1.69016 1.53326 0
M  V30 3947 C 392.129 -1.57949 0.386126 0
M  V30 3948 O 393.313 -1.78945 0.592529 0
M  V30 3949 C 390.44 -3.07191 1.42658 0
M  V30 3950 C 389.486 -3.36733 2.6175 0
M  V30 3951 S 390.319 -3.27069 4.24012 0
M  V30 3952 C 391.475 -4.67755 4.1588 0
M  V30 3953 H 391.708 -1.63434 2.48348 0
M  V30 3954 H 389.241 -0.747048 1.35124 0
M  V30 3955 H 391.199 -3.86897 1.37191 0
M  V30 3956 H 389.86 -3.10249 0.490369 0
M  V30 3957 H 389.053 -4.37441 2.50323 0
M  V30 3958 H 388.655 -2.64627 2.64289 0
M  V30 3959 H 390.947 -5.58491 3.83529 0
M  V30 3960 H 391.89 -4.84239 5.16641 0
M  V30 3961 H 392.298 -4.45341 3.46889 0
M  V30 3962 N 391.696 -1.35014 -0.812953 0
M  V30 3963 C 393.112 -1.14914 -1.10757 0
M  V30 3964 C 393.312 0.0426818 -2.01455 0
M  V30 3965 O 392.368 0.715212 -2.42159 0
M  V30 3966 C 393.681 -2.44911 -1.74468 0
M  V30 3967 C 395.229 -2.5106 -1.86917 0
M  V30 3968 C 395.704 -3.81085 -2.54044 0
M  V30 3969 N 397.195 -3.82301 -2.61535 0
M  V30 3970 C 397.93 -4.79634 -3.14227 0
M  V30 3971 N 397.426 -5.87353 -3.67407 0
M  V30 3972 N 399.219 -4.67078 -3.12721 0
M  V30 3973 H 391.37 -2.1136 -0.20989 0
M  V30 3974 H 393.633 -0.935128 -0.155692 0
M  V30 3975 H 393.339 -3.32267 -1.15289 0
M  V30 3976 H 393.213 -2.58989 -2.74234 0
M  V30 3977 H 395.6 -1.64137 -2.45241 0
M  V30 3978 H 395.681 -2.40901 -0.860242 0
M  V30 3979 H 395.325 -4.68402 -1.96372 0
M  V30 3980 H 395.255 -3.88529 -3.55461 0
M  V30 3981 H 397.746 -3.04465 -2.23851 0
M  V30 3982 H 398.059 -6.57624 -4.05894 0
M  V30 3983 H 396.404 -5.91054 -3.65623 0
M  V30 3984 H 399.595 -3.82067 -2.70449 0
M  V30 3985 H 399.768 -5.43098 -3.53481 0
M  V30 3986 N 393.175 1.03435 -1.18907 0
M  V30 3987 C 394.4 1.80919 -1.01406 0
M  V30 3988 C 394.825 1.83055 0.432721 0
M  V30 3989 O 394.183 1.25252 1.31079 0
M  V30 3990 C 394.231 3.24091 -1.58105 0
M  V30 3991 O 393.335 4.04434 -0.806669 0
M  V30 3992 H 392.676 0.558709 -0.358803 0
M  V30 3993 H 395.206 1.30223 -1.57807 0
M  V30 3994 H 395.216 3.74853 -1.61087 0
M  V30 3995 H 393.891 3.21851 -2.6341 0
M  V30 3996 H 392.468 3.63091 -0.849666 0
M  V30 3997 N 394.653 0.992116 1.22453 0
M  V30 3998 C 395.603 0.512969 2.22155 0
M  V30 3999 C 396.587 -0.418416 1.55364 0
M  V30 4000 O 397.779 -0.245363 1.75291 0
M  V30 4001 C 394.908 -0.171822 3.4287 0
M  V30 4002 C 393.994 0.779822 4.16869 0
M  V30 4003 N 394.385 1.92734 4.6764 0
M  V30 4004 C 392.683 0.59554 4.42006 0
M  V30 4005 C 393.384 2.52458 5.24061 0
M  V30 4006 N 392.36 1.80735 5.12675 0
M  V30 4007 H 396.162 1.38817 2.5905 0
M  V30 4008 H 393.676 0.854277 1.38115 0
M  V30 4009 H 395.673 -0.532469 4.13486 0
M  V30 4010 H 394.333 -1.04317 3.07487 0
M  V30 4011 H 395.344 2.30816 4.63621 0
M  V30 4012 H 392.021 -0.229805 4.16867 0
M  V30 4013 H 393.411 3.49433 5.73887 0
M  V30 4014 N 396.131 -1.37776 0.765217 0
M  V30 4015 C 397.078 -2.30342 0.145274 0
M  V30 4016 C 398.048 -1.5077 -0.696971 0
M  V30 4017 O 399.233 -1.79362 -0.650689 0
M  V30 4018 C 396.373 -3.37227 -0.732939 0
M  V30 4019 C 395.486 -4.31819 0.125199 0
M  V30 4020 C 394.621 -5.25777 -0.757107 0
M  V30 4021 C 393.66 -6.12012 0.103963 0
M  V30 4022 N 392.797 -6.98232 -0.735953 0
M  V30 4023 H 397.637 -2.8278 0.940195 0
M  V30 4024 H 395.174 -1.39211 0.475255 0
M  V30 4025 H 397.132 -3.97818 -1.25686 0
M  V30 4026 H 395.762 -2.86171 -1.49353 0
M  V30 4027 H 394.814 -3.7259 0.766865 0
M  V30 4028 H 396.126 -4.92509 0.789683 0
M  V30 4029 H 395.28 -5.91541 -1.34776 0
M  V30 4030 H 394.019 -4.65481 -1.45529 0
M  V30 4031 H 393.024 -5.45233 0.707197 0
M  V30 4032 H 394.249 -6.74379 0.799381 0
M  V30 4033 H 392.195 -6.40472 -1.41887 0
M  V30 4034 H 392.112 -7.55891 -0.128624 0
M  V30 4035 H 393.38 -7.68393 -1.31121 0
M  V30 4036 N 397.609 -0.515225 -1.4894 0
M  V30 4037 C 398.849 0.0223983 -2.04388 0
M  V30 4038 C 399.213 1.32961 -1.38511 0
M  V30 4039 O 400.414 1.95236 -1.8476 0
M  V30 4040 C 398.685 0.157056 -3.57055 0
M  V30 4041 S 400.244 0.646875 -4.34006 0
M  V30 4042 H 397.062 -0.00500662 -0.710982 0
M  V30 4043 H 399.664 -0.69243 -1.82827 0
M  V30 4044 H 398.368 -0.799412 -4.02539 0
M  V30 4045 H 397.899 0.896704 -3.83044 0
M  V30 4046 H 399.914 1.91381 -4.57808 0
M  V30 4047 N 399.087 1.5561 -0.249682 0
M  V30 4048 C 400.317 2.03116 0.377803 0
M  V30 4049 C 400.725 1.12822 1.51881 0
M  V30 4050 O 400.068 0.13562 1.83199 0
M  V30 4051 C 400.13 3.46866 0.944693 0
M  V30 4052 C 399.794 4.56955 -0.0644259 0
M  V30 4053 C 400.791 5.12485 -0.874957 0
M  V30 4054 C 398.476 5.01936 -0.19132 0
M  V30 4055 C 400.47 6.11491 -1.79881 0
M  V30 4056 C 398.157 6.00773 -1.11868 0
M  V30 4057 C 399.155 6.5543 -1.92095 0
M  V30 4058 O 398.843 7.5234 -2.83267 0
M  V30 4059 H 398.575 0.669489 0.0935961 0
M  V30 4060 H 401.129 2.02004 -0.371966 0
M  V30 4061 H 399.359 3.45136 1.74407 0
M  V30 4062 H 401.048 3.77856 1.48255 0
M  V30 4063 H 401.814 4.78564 -0.787523 0
M  V30 4064 H 397.693 4.59055 0.423072 0
M  V30 4065 H 401.237 6.54078 -2.42543 0
M  V30 4066 H 397.134 6.34114 -1.20703 0
M  V30 4067 H 397.902 7.69966 -2.7766 0
M  V30 4068 N 400.565 -0.0233959 1.57583 0
M  V30 4069 C 401.842 -0.748794 1.807 0
M  V30 4070 C 402.222 -1.9327 0.849106 0
M  V30 4071 O 401.57 -2.28247 -0.107468 0
M  V30 4072 C 401.78 -1.17651 3.28571 0
M  V30 4073 C 403.128 -1.59008 3.93702 0
M  V30 4074 O 404.152 -1.27094 3.32755 0
M  V30 4075 O 403.011 -2.18264 5.01022 0
M  V30 4076 H 400.105 -0.362578 0.743281 0
M  V30 4077 H 402.651 0.000261958 1.697 0
M  V30 4078 H 401.423 -0.331603 3.89892 0
M  V30 4079 H 401.046 -1.98541 3.44481 0
M  V30 4080 N 402.043 -1.548 -0.295768 0
M  V30 4081 C 403.292 -1.73538 -1.02798 0
M  V30 4082 C 403.605 -0.531159 -1.8825 0
M  V30 4083 O 404.811 -0.600458 -2.64777 0
M  V30 4084 C 403.267 -3.07051 -1.87744 0
M  V30 4085 C 402.875 -4.34968 -1.07269 0
M  V30 4086 C 404.619 -3.35146 -2.60533 0
M  V30 4087 C 402.526 -5.5953 -1.91521 0
M  V30 4088 H 401.456 -0.646794 -0.387522 0
M  V30 4089 H 404.107 -1.81278 -0.284718 0
M  V30 4090 H 402.489 -2.93289 -2.66078 0
M  V30 4091 H 403.663 -4.5958 -0.335117 0
M  V30 4092 H 401.978 -4.13847 -0.460384 0
M  V30 4093 H 404.575 -4.2541 -3.23929 0
M  V30 4094 H 404.918 -2.54255 -3.29636 0
M  V30 4095 H 405.451 -3.49902 -1.89244 0
M  V30 4096 H 402.19 -6.43103 -1.26878 0
M  V30 4097 H 401.71 -5.39096 -2.62937 0
M  V30 4098 H 403.389 -5.96982 -2.49442 0
M  V30 4099 N 403.521 0.559213 -1.47345 0
M  V30 4100 C 404.767 1.31843 -1.54095 0
M  V30 4101 C 405.1 1.93149 -0.201726 0
M  V30 4102 O 404.375 1.77759 0.789428 0
M  V30 4103 C 404.658 2.43006 -2.65744 0
M  V30 4104 C 404.511 1.86581 -4.09277 0
M  V30 4105 C 405.83 3.44943 -2.73318 0
M  V30 4106 H 402.949 0.478012 -0.560957 0
M  V30 4107 H 405.591 0.625977 -1.79392 0
M  V30 4108 H 403.741 3.02072 -2.44305 0
M  V30 4109 H 405.413 1.31792 -4.42073 0
M  V30 4110 H 403.656 1.17268 -4.17649 0
M  V30 4111 H 404.327 2.66933 -4.83168 0
M  V30 4112 H 406.803 2.95793 -2.92653 0
M  V30 4113 H 405.679 4.20153 -3.53218 0
M  V30 4114 H 405.94 4.03665 -1.80296 0
M  V30 4115 N 404.999 1.35443 0.805782 0
M  V30 4116 C 406.41 1.25768 1.37983 0
M  V30 4117 C 406.761 -0.10958 1.95894 0
M  V30 4118 O 405.886 -1.01056 1.91355 0
M  V30 4119 C 406.481 2.27727 2.5085 0
M  V30 4120 C 405.04 2.2179 3.04115 0
M  V30 4121 C 404.187 2.13393 1.77084 0
M  V30 4122 H 407.138 1.4656 0.608752 0
M  V30 4123 H 407.159 1.90422 3.29424 0
M  V30 4124 H 406.671 3.27227 2.08671 0
M  V30 4125 H 404.772 1.25703 3.50756 0
M  V30 4126 H 404.885 3.13788 3.62042 0
M  V30 4127 H 403.249 1.59384 1.98668 0
M  V30 4128 H 404.032 3.14755 1.37056 0
M  V30 4129 N 406.477 -1.02803 1.19454 0
M  V30 4130 C 407.705 -1.79841 1.02297 0
M  V30 4131 C 408.12 -1.83879 -0.428259 0
M  V30 4132 O 407.477 -1.28345 -1.29745 0
M  V30 4133 C 407.528 -3.24852 1.58598 0
M  V30 4134 O 407.249 -3.21097 2.98041 0
M  V30 4135 C 408.75 -4.18485 1.46236 0
M  V30 4136 H 405.97 -0.565936 0.360496 0
M  V30 4137 H 408.514 -1.2948 1.58288 0
M  V30 4138 H 406.669 -3.72401 1.06753 0
M  V30 4139 H 407.083 -4.12033 3.24545 0
M  V30 4140 H 408.557 -5.18121 1.90407 0
M  V30 4141 H 409.034 -4.37254 0.41301 0
M  V30 4142 H 409.64 -3.76811 1.97215 0
M  V30 4143 N 407.956 -0.998596 -1.21925 0
M  V30 4144 C 409.181 -0.696015 -1.95372 0
M  V30 4145 C 409.606 0.733826 -1.73195 0
M  V30 4146 O 408.964 1.50242 -1.01474 0
M  V30 4147 C 409.012 -1.01466 -3.4603 0
M  V30 4148 O 408.116 -0.116415 -4.12236 0
M  V30 4149 H 407.457 -0.259938 -0.611006 0
M  V30 4150 H 409.987 -1.33711 -1.54863 0
M  V30 4151 H 409.997 -0.958855 -3.96573 0
M  V30 4152 H 408.672 -2.05653 -3.61497 0
M  V30 4153 H 407.249 -0.228193 -3.72201 0
M  V30 4154 N 409.434 1.37368 -0.772513 0
M  V30 4155 C 410.659 2.0447 -0.347386 0
M  V30 4156 C 411.084 1.57882 1.0225 0
M  V30 4157 O 410.442 0.73941 1.65537 0
M  V30 4158 C 410.49 3.58369 -0.400479 0
M  V30 4159 O 409.594 4.0803 0.598789 0
M  V30 4160 H 408.935 0.646773 -0.15027 0
M  V30 4161 H 411.465 1.75667 -1.04892 0
M  V30 4162 H 411.475 4.07183 -0.258045 0
M  V30 4163 H 410.15 3.91633 -1.39986 0
M  V30 4164 H 408.727 3.70534 0.419411 0
M  V30 4165 N 410.912 0.523116 1.48665 0
M  V30 4166 C 411.859 -0.243398 2.29513 0
M  V30 4167 C 412.829 -0.940139 1.36933 0
M  V30 4168 O 414.014 -0.942503 1.65896 0
M  V30 4169 C 411.154 -1.28855 3.20141 0
M  V30 4170 C 410.267 -0.60135 4.27794 0
M  V30 4171 C 409.402 -1.62884 5.05611 0
M  V30 4172 C 408.441 -0.924726 6.05075 0
M  V30 4173 N 407.578 -1.89744 6.75975 0
M  V30 4174 H 412.418 0.452234 2.94549 0
M  V30 4175 H 409.955 0.234858 1.45213 0
M  V30 4176 H 411.913 -1.90674 3.71079 0
M  V30 4177 H 410.543 -1.95266 2.57043 0
M  V30 4178 H 409.595 0.130623 3.80176 0
M  V30 4179 H 410.907 -0.0481585 4.98777 0
M  V30 4180 H 410.061 -2.32149 5.60528 0
M  V30 4181 H 408.8 -2.21592 4.34452 0
M  V30 4182 H 407.805 -0.217966 5.49368 0
M  V30 4183 H 409.03 -0.343851 6.78229 0
M  V30 4184 H 406.976 -2.47373 6.07571 0
M  V30 4185 H 406.893 -1.3955 7.43009 0
M  V30 4186 H 408.161 -2.58229 7.35485 0
M  V30 4187 N 412.39 -1.55475 0.257931 0
M  V30 4188 C 413.32 -2.24815 -0.630912 0
M  V30 4189 C 414.301 -1.23224 -1.17259 0
M  V30 4190 O 415.486 -1.51904 -1.20991 0
M  V30 4191 C 412.616 -2.95609 -1.82298 0
M  V30 4192 C 411.57 -4.03982 -1.41359 0
M  V30 4193 C 410.896 -4.6226 -2.68738 0
M  V30 4194 C 412.196 -5.19109 -0.57648 0
M  V30 4195 H 413.89 -2.99354 -0.0526878 0
M  V30 4196 H 411.436 -1.4398 -0.023901 0
M  V30 4197 H 413.389 -3.42822 -2.45054 0
M  V30 4198 H 412.113 -2.18577 -2.42676 0
M  V30 4199 H 410.772 -3.57555 -0.809324 0
M  V30 4200 H 410.42 -3.81915 -3.27338 0
M  V30 4201 H 410.12 -5.35424 -2.42065 0
M  V30 4202 H 411.644 -5.12212 -3.32372 0
M  V30 4203 H 413.058 -5.62479 -1.10861 0
M  V30 4204 H 411.455 -5.98729 -0.405351 0
M  V30 4205 H 412.525 -4.83174 0.408776 0
M  V30 4206 N 413.868 0.0150385 -1.57593 0
M  V30 4207 C 415.114 0.704043 -1.90187 0
M  V30 4208 C 415.447 1.74249 -0.857366 0
M  V30 4209 O 414.722 1.94092 0.125843 0
M  V30 4210 C 415.005 1.36087 -3.33395 0
M  V30 4211 C 414.858 0.334981 -4.48551 0
M  V30 4212 C 416.177 2.29112 -3.7576 0
M  V30 4213 H 413.296 0.254475 -0.691673 0
M  V30 4214 H 415.938 -0.0331678 -1.89971 0
M  V30 4215 H 414.088 1.98922 -3.3371 0
M  V30 4216 H 415.76 -0.292534 -4.60372 0
M  V30 4217 H 414.003 -0.344325 -4.32431 0
M  V30 4218 H 414.674 0.833316 -5.45674 0
M  V30 4219 H 417.15 1.76308 -3.76902 0
M  V30 4220 H 416.026 2.72043 -4.76743 0
M  V30 4221 H 416.287 3.16385 -3.08793 0
M  V30 4222 N 415.346 1.54954 0.287554 0
M  V30 4223 C 416.592 1.75132 1.02257 0
M  V30 4224 C 416.925 0.542858 1.86458 0
M  V30 4225 O 416.2 -0.459856 1.88986 0
M  V30 4226 C 416.483 3.04812 1.91733 0
M  V30 4227 C 416.336 4.35985 1.10622 0
M  V30 4228 C 417.655 3.30438 2.90687 0
M  V30 4229 H 414.774 0.637194 0.370341 0
M  V30 4230 H 417.416 1.87678 0.296111 0
M  V30 4231 H 415.566 2.94247 2.53675 0
M  V30 4232 H 417.238 4.58487 0.508636 0
M  V30 4233 H 415.481 4.31865 0.409271 0
M  V30 4234 H 416.152 5.23017 1.76513 0
M  V30 4235 H 418.628 3.40701 2.38877 0
M  V30 4236 H 417.504 4.22467 3.50447 0
M  V30 4237 H 417.765 2.49377 3.65053 0
M  V30 4238 N 416.824 -0.551391 1.4764 0
M  V30 4239 C 418.071 -1.3083 1.54563 0
M  V30 4240 C 418.399 -1.93359 0.210361 0
M  V30 4241 O 417.654 -1.78721 -0.797332 0
M  V30 4242 C 417.953 -2.43469 2.61644 0
M  V30 4243 C 417.619 -1.98732 4.04742 0
M  V30 4244 C 416.281 -1.86248 4.43695 0
M  V30 4245 C 418.633 -1.64659 4.94507 0
M  V30 4246 C 415.961 -1.37995 5.70241 0
M  V30 4247 C 418.313 -1.17875 6.21521 0
M  V30 4248 C 416.977 -1.03992 6.5935 0
M  V30 4249 H 416.247 -0.478741 0.565587 0
M  V30 4250 H 418.894 -0.617697 1.81264 0
M  V30 4251 H 417.199 -3.18109 2.28722 0
M  V30 4252 H 418.896 -3.01642 2.64222 0
M  V30 4253 H 415.486 -2.09393 3.73968 0
M  V30 4254 H 419.67 -1.73174 4.65107 0
M  V30 4255 H 414.926 -1.25915 5.98294 0
M  V30 4256 H 419.1 -0.905739 6.90485 0
M  V30 4257 H 416.727 -0.663794 7.57296 0
M  V30 4258 N 418.302 -1.35869 -0.798587 0
M  V30 4259 C 419.579 -1.20145 -1.54352 0
M  V30 4260 C 419.959 0.216161 -2.0999 0
M  V30 4261 O 419.307 1.22068 -1.93162 0
M  V30 4262 C 419.517 -2.27602 -2.64572 0
M  V30 4263 C 420.865 -2.63811 -3.32699 0
M  V30 4264 O 421.889 -2.26576 -2.74849 0
M  V30 4265 O 420.748 -3.27866 -4.37226 0
M  V30 4266 H 417.842 -0.467248 -0.682355 0
M  V30 4267 H 420.388 -1.47574 -0.837859 0
M  V30 4268 H 419.16 -3.2265 -2.21388 0
M  V30 4269 H 418.783 -2.01488 -3.42766 0
M  V30 4270 N 419.78 1.02168 -1.19998 0
M  V30 4271 C 421.008 1.79296 -1.03249 0
M  V30 4272 C 421.423 1.84103 0.418502 0
M  V30 4273 O 420.78 1.29031 1.29063 0
M  V30 4274 C 420.831 3.24007 -1.60319 0
M  V30 4275 O 420.552 3.19512 -2.99739 0
M  V30 4276 C 422.053 4.17704 -1.48453 0
M  V30 4277 H 419.273 0.564016 -0.363493 0
M  V30 4278 H 421.817 1.28639 -1.58973 0
M  V30 4279 H 419.972 3.7183 -1.08727 0
M  V30 4280 H 420.386 4.10306 -3.26725 0
M  V30 4281 H 421.86 5.17104 -1.93153 0
M  V30 4282 H 422.337 4.37029 -0.436193 0
M  V30 4283 H 422.943 3.7576 -1.99211 0
M  V30 4284 N 421.258 1.00505 1.21394 0
M  V30 4285 C 422.486 0.706609 1.9446 0
M  V30 4286 C 422.901 -0.73081 1.74082 0
M  V30 4287 O 422.258 -1.49446 1.04747 0
M  V30 4288 C 422.309 1.01824 3.46863 0
M  V30 4289 O 422.03 2.39919 3.66566 0
M  V30 4290 C 423.531 0.739216 4.37093 0
M  V30 4291 H 420.751 0.260394 0.618414 0
M  V30 4292 H 423.295 1.34311 1.54211 0
M  V30 4293 H 421.45 0.427343 3.85036 0
M  V30 4294 H 421.864 2.50784 4.6066 0
M  V30 4295 H 423.338 1.00744 5.42729 0
M  V30 4296 H 423.815 -0.326746 4.37983 0
M  V30 4297 H 424.421 1.31173 4.04566 0
M  V30 4298 N 422.737 -1.36956 0.779787 0
M  V30 4299 C 423.667 -2.32761 0.185651 0
M  V30 4300 C 424.648 -1.56177 -0.673989 0
M  V30 4301 O 425.833 -1.84378 -0.609797 0
M  V30 4302 C 422.963 -3.40418 -0.687964 0
M  V30 4303 C 421.917 -4.27941 0.0710102 0
M  V30 4304 C 421.243 -5.26681 -0.922573 0
M  V30 4305 C 422.543 -5.07006 1.25467 0
M  V30 4306 H 424.237 -2.82698 0.986008 0
M  V30 4307 H 421.783 -1.3592 0.475592 0
M  V30 4308 H 423.736 -4.06423 -1.11348 0
M  V30 4309 H 422.46 -2.89025 -1.52093 0
M  V30 4310 H 421.119 -3.63478 0.47739 0
M  V30 4311 H 420.767 -4.71565 -1.7503 0
M  V30 4312 H 420.467 -5.86103 -0.419237 0
M  V30 4313 H 421.991 -5.9556 -1.34686 0
M  V30 4314 H 423.405 -5.66105 0.905401 0
M  V30 4315 H 421.802 -5.75793 1.69063 0
M  V30 4316 H 422.872 -4.3921 2.05481 0
M  V30 4317 N 424.215 -0.530993 -1.48385 0
M  V30 4318 C 425.147 0.268353 -2.27624 0
M  V30 4319 C 426.16 0.903525 -1.35426 0
M  V30 4320 O 427.349 0.781796 -1.60469 0
M  V30 4321 C 424.449 1.39535 -3.08842 0
M  V30 4322 C 423.622 0.861913 -4.28824 0
M  V30 4323 C 422.681 1.87016 -4.91845 0
M  V30 4324 O 421.707 1.4267 -5.5103 0
M  V30 4325 N 422.909 3.20238 -4.84178 0
M  V30 4326 H 425.674 -0.41123 -2.96865 0
M  V30 4327 H 423.235 -0.365387 -1.57723 0
M  V30 4328 H 425.227 2.06803 -3.47871 0
M  V30 4329 H 423.797 1.97859 -2.42014 0
M  V30 4330 H 423.017 0.0132126 -3.94198 0
M  V30 4331 H 424.305 0.484415 -5.06489 0
M  V30 4332 H 423.703 3.58932 -4.37246 0
M  V30 4333 H 422.26 3.83136 -5.27305 0
M  V30 4334 N 425.693 1.55336 -0.266172 0
M  V30 4335 C 426.939 1.99692 0.353681 0
M  V30 4336 C 427.272 1.1543 1.56172 0
M  V30 4337 O 426.547 0.222218 1.93226 0
M  V30 4338 C 426.83 3.52316 0.74466 0
M  V30 4339 C 426.683 4.47337 -0.470101 0
M  V30 4340 C 428.002 4.10588 1.58447 0
M  V30 4341 H 425.121 0.725961 0.12708 0
M  V30 4342 H 427.763 1.86336 -0.371333 0
M  V30 4343 H 425.913 3.63829 1.36239 0
M  V30 4344 H 427.585 4.4778 -1.10864 0
M  V30 4345 H 425.828 4.19364 -1.10978 0
M  V30 4346 H 426.499 5.51788 -0.15291 0
M  V30 4347 H 428.975 4.02297 1.06286 0
M  V30 4348 H 427.851 5.17607 1.82686 0
M  V30 4349 H 428.112 3.60253 2.56262 0
M  V30 4350 N 427.171 -0.0066808 1.57599 0
M  V30 4351 C 428.118 -1.00024 2.08 0
M  V30 4352 C 429.088 -1.34549 0.973943 0
M  V30 4353 O 430.273 -1.44502 1.24595 0
M  V30 4354 C 427.413 -2.2891 2.58252 0
M  V30 4355 C 426.526 -2.00346 3.82734 0
M  V30 4356 C 425.661 -3.23265 4.21513 0
M  V30 4357 C 424.7 -2.90357 5.3885 0
M  V30 4358 N 423.837 -4.05793 5.72954 0
M  V30 4359 H 428.677 -0.563499 2.92624 0
M  V30 4360 H 426.214 -0.266592 1.44664 0
M  V30 4361 H 428.172 -3.04247 2.85464 0
M  V30 4362 H 426.802 -2.70265 1.76512 0
M  V30 4363 H 425.854 -1.15406 3.62471 0
M  V30 4364 H 427.166 -1.72086 4.68175 0
M  V30 4365 H 426.32 -4.06953 4.49971 0
M  V30 4366 H 425.059 -3.54657 3.34768 0
M  V30 4367 H 424.064 -2.05075 5.10122 0
M  V30 4368 H 425.289 -2.60219 6.27266 0
M  V30 4369 H 423.235 -4.37094 4.89167 0
M  V30 4370 H 423.152 -3.81034 6.52954 0
M  V30 4371 H 424.42 -4.90289 6.06001 0
M  V30 4372 N 428.649 -1.55105 -0.279332 0
M  V30 4373 C 429.596 -1.8755 -1.34513 0
M  V30 4374 C 430.566 -0.726384 -1.49375 0
M  V30 4375 O 431.751 -0.977063 -1.63884 0
M  V30 4376 C 428.891 -2.14738 -2.70151 0
M  V30 4377 C 428.004 -3.42285 -2.63562 0
M  V30 4378 C 427.139 -3.59206 -3.91337 0
M  V30 4379 C 426.178 -4.80467 -3.79233 0
M  V30 4380 N 425.315 -4.94079 -4.98829 0
M  V30 4381 H 430.155 -2.78456 -1.06143 0
M  V30 4382 H 427.692 -1.37867 -0.512936 0
M  V30 4383 H 429.65 -2.28501 -3.49061 0
M  V30 4384 H 428.28 -1.27075 -2.96735 0
M  V30 4385 H 427.332 -3.37029 -1.76397 0
M  V30 4386 H 428.644 -4.31328 -2.50515 0
M  V30 4387 H 427.798 -3.72751 -4.78687 0
M  V30 4388 H 426.537 -2.68337 -4.07243 0
M  V30 4389 H 425.542 -4.66932 -2.90266 0
M  V30 4390 H 426.767 -5.72765 -3.64852 0
M  V30 4391 H 424.713 -4.06139 -5.15158 0
M  V30 4392 H 424.63 -5.77156 -4.8829 0
M  V30 4393 H 425.898 -5.12003 -5.8777 0
M  V30 4394 N 430.127 0.543554 -1.4793 0
M  V30 4395 C 431.09 1.63156 -1.60975 0
M  V30 4396 C 432.09 1.53346 -0.483899 0
M  V30 4397 O 433.28 1.5726 -0.749339 0
M  V30 4398 C 430.412 3.02743 -1.56716 0
M  V30 4399 H 431.605 1.52934 -2.57975 0
M  V30 4400 H 429.158 0.764557 -1.36324 0
M  V30 4401 H 429.893 3.18484 -0.611418 0
M  V30 4402 H 429.678 3.11272 -2.38438 0
M  V30 4403 H 431.168 3.81871 -1.6901 0
M  V30 4404 N 431.605 1.3629 0.791371 0
M  V30 4405 C 432.852 1.30412 1.54916 0
M  V30 4406 C 433.18 -0.117162 1.94147 0
M  V30 4407 O 432.435 -1.08599 1.62803 0
M  V30 4408 C 432.734 2.17068 2.8393 0
M  V30 4409 C 432.4 3.65645 2.63846 0
M  V30 4410 C 431.062 4.0614 2.58077 0
M  V30 4411 C 433.414 4.59855 2.45322 0
M  V30 4412 C 430.742 5.3899 2.31748 0
M  V30 4413 C 433.094 5.9292 2.2052 0
M  V30 4414 C 431.758 6.32542 2.13183 0
M  V30 4415 H 431.028 0.47721 0.566879 0
M  V30 4416 H 433.675 1.68325 0.913172 0
M  V30 4417 H 431.98 1.72085 3.51986 0
M  V30 4418 H 433.677 2.09846 3.4171 0
M  V30 4419 H 430.267 3.33518 2.69191 0
M  V30 4420 H 434.451 4.29443 2.48782 0
M  V30 4421 H 429.707 5.68672 2.24548 0
M  V30 4422 H 433.881 6.65487 2.05182 0
M  V30 4423 H 431.508 7.35412 1.92544 0
M  V30 4424 N 433.083 -1.0153 1.20538 0
M  V30 4425 C 434.33 -1.75149 1.01633 0
M  V30 4426 C 434.658 -1.89189 -0.451399 0
M  V30 4427 O 433.913 -1.41551 -1.35136 0
M  V30 4428 C 434.212 -3.17213 1.64654 0
M  V30 4429 C 433.878 -3.23146 3.14464 0
M  V30 4430 C 432.54 -3.24472 3.55347 0
M  V30 4431 C 434.892 -3.21207 4.10458 0
M  V30 4432 C 432.22 -3.21532 4.90748 0
M  V30 4433 C 434.572 -3.19808 5.45807 0
M  V30 4434 C 433.236 -3.19439 5.86102 0
M  V30 4435 H 432.506 -0.640914 0.3719 0
M  V30 4436 H 435.153 -1.19071 1.49981 0
M  V30 4437 H 433.458 -3.76457 1.08571 0
M  V30 4438 H 435.155 -3.72871 1.4754 0
M  V30 4439 H 431.745 -3.2285 2.81897 0
M  V30 4440 H 435.929 -3.19351 3.79906 0
M  V30 4441 H 431.185 -3.19578 5.21229 0
M  V30 4442 H 435.359 -3.1726 6.19935 0
M  V30 4443 H 432.986 -3.16915 6.90991 0
M  V30 4444 N 434.561 -1.01147 -1.20859 0
M  V30 4445 C 435.524 -0.582224 -2.21682 0
M  V30 4446 C 436.524 0.344887 -1.57058 0
M  V30 4447 O 437.714 0.134281 -1.73682 0
M  V30 4448 C 434.846 0.150496 -3.40568 0
M  V30 4449 H 436.039 -1.47408 -2.61172 0
M  V30 4450 H 433.592 -0.800695 -1.34233 0
M  V30 4451 H 434.327 1.0575 -3.06574 0
M  V30 4452 H 434.112 -0.515444 -3.88697 0
M  V30 4453 H 435.602 0.438344 -4.15293 0
M  V30 4454 N 436.039 1.36541 -0.78704 0
M  V30 4455 C 436.969 2.32659 -0.197992 0
M  V30 4456 C 437.95 1.56533 0.665697 0
M  V30 4457 O 439.135 1.84698 0.60001 0
M  V30 4458 C 436.265 3.40778 0.669901 0
M  V30 4459 C 435.219 4.27897 -0.0937039 0
M  V30 4460 C 434.545 5.27163 0.894629 0
M  V30 4461 C 435.845 5.06334 -1.28154 0
M  V30 4462 H 437.539 2.82171 -1.00099 0
M  V30 4463 H 435.085 1.35665 -0.482793 0
M  V30 4464 H 437.038 4.07008 1.09191 0
M  V30 4465 H 435.762 2.89827 1.50558 0
M  V30 4466 H 434.421 3.6322 -0.49666 0
M  V30 4467 H 434.069 4.72486 1.72527 0
M  V30 4468 H 433.769 5.86317 0.388149 0
M  V30 4469 H 435.293 5.96266 1.31525 0
M  V30 4470 H 436.707 5.65617 -0.93541 0
M  V30 4471 H 435.104 5.74888 -1.72115 0
M  V30 4472 H 436.174 4.38114 -2.07807 0
M  V30 4473 N 437.518 0.538854 1.48102 0
M  V30 4474 C 438.764 0.00801365 2.02798 0
M  V30 4475 C 439.097 -1.3309 1.41424 0
M  V30 4476 O 438.372 -1.86169 0.563158 0
M  V30 4477 C 438.655 -0.104589 3.59948 0
M  V30 4478 C 438.508 1.26012 4.31788 0
M  V30 4479 C 439.827 -0.827055 4.32259 0
M  V30 4480 H 436.946 0.00438624 0.736987 0
M  V30 4481 H 439.588 0.6976 1.7673 0
M  V30 4482 H 437.738 -0.691893 3.82289 0
M  V30 4483 H 439.41 1.88922 4.2084 0
M  V30 4484 H 437.653 1.83968 3.92859 0
M  V30 4485 H 438.324 1.13424 5.40221 0
M  V30 4486 H 440.8 -0.328578 4.14801 0
M  V30 4487 H 439.676 -0.87476 5.41885 0
M  V30 4488 H 439.937 -1.87927 4.0017 0
M  V30 4489 N 438.996 -1.55193 0.274407 0
M  V30 4490 C 439.959 -2.212 -0.600279 0
M  V30 4491 C 440.959 -1.18963 -1.08187 0
M  V30 4492 O 442.149 -1.43873 -0.982158 0
M  V30 4493 C 439.281 -2.87739 -1.82809 0
M  V30 4494 H 440.474 -2.9989 -0.0239682 0
M  V30 4495 H 438.027 -1.5628 0.0250192 0
M  V30 4496 H 438.762 -2.13058 -2.44493 0
M  V30 4497 H 438.547 -3.62658 -1.49069 0
M  V30 4498 H 440.037 -3.38171 -2.45011 0
M  V30 4499 N 440.474 -0.00167713 -1.576 0
M  V30 4500 C 441.422 1.0074 -2.09652 0
M  V30 4501 C 442.416 1.35483 -1.01689 0
M  V30 4502 O 443.622 1.34028 -1.20152 0
M  V30 4503 H 439.997 0.342537 -0.669457 0
M  V30 4504 H 441.968 0.542841 -2.93421 0
M  V30 4505 C 440.717 2.2899 -2.61647 0
M  V30 4506 H 440.04 2.03124 -3.44355 0
M  V30 4507 H 441.48 2.9787 -3.01744 0
M  V30 4508 C 439.939 3.00085 -1.53136 0
M  V30 4509 O 440.469 3.91135 -0.91524 0
M  V30 4510 N 438.675 2.6194 -1.25841 0
M  V30 4511 H 438.222 1.8798 -1.76129 0
M  V30 4512 H 438.18 3.09822 -0.534576 0
M  V30 4513 N 441.952 1.55251 0.271103 0
M  V30 4514 C 443.2 1.75599 1.00047 0
M  V30 4515 C 443.521 0.561188 1.8675 0
M  V30 4516 O 442.791 -0.423846 1.9126 0
M  V30 4517 H 441.371 0.647562 0.372387 0
M  V30 4518 H 444.033 1.92656 0.294876 0
M  V30 4519 H 443.129 2.65766 1.6363 0
M  V30 4520 N 443.43 -0.535701 1.48216 0
M  V30 4521 C 444.676 -1.29375 1.56173 0
M  V30 4522 C 445.009 -1.92804 0.232429 0
M  V30 4523 O 444.284 -1.78992 -0.761048 0
M  V30 4524 C 444.567 -2.38747 2.69577 0
M  V30 4525 C 444.42 -1.80046 4.12193 0
M  V30 4526 C 445.739 -3.40551 2.78771 0
M  V30 4527 H 442.858 -0.469027 0.568491 0
M  V30 4528 H 445.5 -0.597358 1.80365 0
M  V30 4529 H 443.65 -2.98147 2.4908 0
M  V30 4530 H 445.322 -1.24742 4.44114 0
M  V30 4531 H 443.565 -1.10609 4.19462 0
M  V30 4532 H 444.236 -2.59212 4.87353 0
M  V30 4533 H 446.712 -2.91099 2.97322 0
M  V30 4534 H 445.588 -4.1448 3.59857 0
M  V30 4535 H 445.849 -4.00746 1.86696 0
M  V30 4536 N 444.908 -1.36708 -0.784132 0
M  V30 4537 C 446.324 -1.17237 -1.08294 0
M  V30 4538 C 446.524 -5.93947e-05 -2.015 0
M  V30 4539 O 445.58 0.663686 -2.43622 0
M  V30 4540 C 446.893 -2.48557 -1.69233 0
M  V30 4541 C 448.441 -2.54968 -1.8155 0
M  V30 4542 C 448.916 -3.86388 -2.45904 0
M  V30 4543 N 450.407 -3.87762 -2.53367 0
M  V30 4544 C 451.142 -4.86191 -3.03983 0
M  V30 4545 N 450.638 -5.95015 -3.54866 0
M  V30 4546 N 452.431 -4.73606 -3.02743 0
M  V30 4547 H 444.582 -2.11758 -0.16501 0
M  V30 4548 H 446.845 -0.93822 -0.135822 0
M  V30 4549 H 446.551 -3.34638 -1.08215 0
M  V30 4550 H 446.425 -2.64748 -2.68679 0
M  V30 4551 H 448.812 -1.69302 -2.41704 0
M  V30 4552 H 448.893 -2.42672 -0.80895 0
M  V30 4553 H 448.537 -4.72462 -1.86392 0
M  V30 4554 H 448.467 -3.95982 -3.4714 0
M  V30 4555 H 450.958 -3.09145 -2.17343 0
M  V30 4556 H 451.271 -6.66086 -3.91854 0
M  V30 4557 H 449.616 -5.98676 -3.53003 0
M  V30 4558 H 452.807 -3.87717 -2.62284 0
M  V30 4559 H 452.98 -5.50473 -3.41881 0
M  V30 4560 N 446.386 1.0089 -1.21074 0
M  V30 4561 C 447.349 2.0775 -0.968129 0
M  V30 4562 C 448.349 1.6069 0.0593445 0
M  V30 4563 O 449.539 1.73293 -0.177525 0
M  V30 4564 C 446.671 3.37794 -0.459108 0
M  V30 4565 H 447.864 2.30707 -1.9161 0
M  V30 4566 H 445.417 1.17807 -1.02719 0
M  V30 4567 H 446.152 3.20516 0.49397 0
M  V30 4568 H 445.937 3.7328 -1.20019 0
M  V30 4569 H 447.427 4.16454 -0.309099 0
M  V30 4570 N 447.864 1.01787 1.20321 0
M  V30 4571 C 448.827 0.593972 2.2137 0
M  V30 4572 C 449.827 -0.336553 1.57239 0
M  V30 4573 O 451.017 -0.125069 1.7375 0
M  V30 4574 C 448.149 -0.132433 3.40643 0
M  V30 4575 H 449.342 1.48791 2.60387 0
M  V30 4576 H 446.895 0.807803 1.33807 0
M  V30 4577 H 447.63 -1.04123 3.0713 0
M  V30 4578 H 447.415 0.53605 3.88418 0
M  V30 4579 H 448.905 -0.416314 4.1552 0
M  V30 4580 N 449.342 -1.36122 0.79427 0
M  V30 4581 C 450.753 -1.81646 0.431446 0
M  V30 4582 C 451.104 -1.66043 -1.04518 0
M  V30 4583 O 450.229 -1.1841 -1.8113 0
M  V30 4584 C 450.824 -3.29785 0.776341 0
M  V30 4585 C 449.383 -3.73501 0.466282 0
M  V30 4586 C 448.53 -2.58313 1.00844 0
M  V30 4587 H 451.481 -1.24274 0.986995 0
M  V30 4588 H 451.502 -3.80437 0.0692413 0
M  V30 4589 H 451.014 -3.4111 1.8511 0
M  V30 4590 H 449.115 -3.67733 -0.600245 0
M  V30 4591 H 449.228 -4.68754 0.990288 0
M  V30 4592 H 447.592 -2.5102 0.431406 0
M  V30 4593 H 448.375 -2.72421 2.08906 0
M  V30 4594 N 450.82 -0.546701 -1.47814 0
M  V30 4595 C 451.75 0.195317 -2.32682 0
M  V30 4596 C 452.731 0.918981 -1.43139 0
M  V30 4597 O 453.916 0.901501 -1.72008 0
M  V30 4598 C 451.046 1.23237 -3.247 0
M  V30 4599 C 450 0.625818 -4.234 0
M  V30 4600 C 449.326 1.76674 -5.04669 0
M  V30 4601 C 450.626 -0.413515 -5.2066 0
M  V30 4602 H 452.32 -0.513184 -2.94969 0
M  V30 4603 H 449.866 -0.248241 -1.41844 0
M  V30 4604 H 451.819 1.75955 -3.82907 0
M  V30 4605 H 450.543 1.97067 -2.60446 0
M  V30 4606 H 449.202 0.120023 -3.66403 0
M  V30 4607 H 448.85 2.49383 -4.36826 0
M  V30 4608 H 448.55 1.36673 -5.71484 0
M  V30 4609 H 450.074 2.29738 -5.65732 0
M  V30 4610 H 451.488 0.0272042 -5.73294 0
M  V30 4611 H 449.885 -0.731825 -5.95621 0
M  V30 4612 H 450.955 -1.31325 -4.66778 0
M  V30 4613 N 452.299 1.55045 -0.282633 0
M  V30 4614 C 453.545 2.0078 0.325436 0
M  V30 4615 C 453.9 1.1676 1.52921 0
M  V30 4616 O 453.193 0.231475 1.90197 0
M  V30 4617 C 453.387 3.49422 0.750938 0
M  V30 4618 C 453.216 4.47827 -0.410056 0
M  V30 4619 C 451.986 4.97288 -0.896239 0
M  V30 4620 C 454.184 4.98903 -1.24902 0
M  V30 4621 N 452.166 5.79508 -2.02591 0
M  V30 4622 C 453.537 5.78644 -2.22646 0
M  V30 4623 C 455.592 4.81126 -1.2815 0
M  V30 4624 C 454.295 6.42502 -3.23393 0
M  V30 4625 C 456.321 5.45789 -2.27745 0
M  V30 4626 C 455.683 6.25348 -3.24222 0
M  V30 4627 H 451.782 0.77747 0.08405 0
M  V30 4628 H 454.366 1.90369 -0.408368 0
M  V30 4629 H 452.537 3.60159 1.45395 0
M  V30 4630 H 454.269 3.81978 1.33698 0
M  V30 4631 H 451.024 4.71219 -0.474277 0
M  V30 4632 H 451.448 6.25308 -2.59459 0
M  V30 4633 H 456.09 4.19215 -0.549397 0
M  V30 4634 H 453.808 7.03558 -3.97533 0
M  V30 4635 H 457.394 5.33972 -2.31009 0
M  V30 4636 H 456.274 6.74498 -4.00027 0
M  V30 4637 N 453.777 0.010035 1.57597 0
M  V30 4638 C 454.687 -0.994226 2.12491 0
M  V30 4639 C 455.703 -1.37013 1.07254 0
M  V30 4640 O 456.879 -1.45542 1.3921 0
M  V30 4641 C 453.944 -2.2642 2.62555 0
M  V30 4642 C 453.005 -1.95049 3.82432 0
M  V30 4643 C 452.238 -3.15991 4.30099 0
M  V30 4644 O 452.461 -4.28015 3.7704 0
M  V30 4645 O 451.395 -2.99403 5.22151 0
M  V30 4646 H 455.221 -0.557549 2.98538 0
M  V30 4647 H 452.806 -0.209413 1.47925 0
M  V30 4648 H 454.688 -3.01009 2.9491 0
M  V30 4649 H 453.363 -2.69306 1.796 0
M  V30 4650 H 452.27 -1.17904 3.55034 0
M  V30 4651 H 453.603 -1.56992 4.66491 0
M  V30 4652 N 455.255 -1.55392 -0.262866 0
M  V30 4653 C 456.48 -1.80847 -1.01533 0
M  V30 4654 C 456.905 -0.584946 -1.78774 0
M  V30 4655 O 456.263 0.465701 -1.75217 0
M  V30 4656 C 456.311 -3.03866 -1.94159 0
M  V30 4657 O 455.415 -2.79662 -3.03089 0
M  V30 4658 H 454.756 -0.597441 -0.289759 0
M  V30 4659 H 457.286 -2.02553 -0.288698 0
M  V30 4660 H 457.296 -3.32872 -2.35924 0
M  V30 4661 H 455.971 -3.92564 -1.37354 0
M  V30 4662 H 454.548 -2.61781 -2.65566 0
M  V30 4663 N 456.733 0.527833 -1.48498 0
M  V30 4664 C 457.68 1.6322 -1.6318 0
M  V30 4665 C 458.65 1.59199 -0.473815 0
M  V30 4666 O 459.835 1.77591 -0.697563 0
M  V30 4667 C 456.975 3.01474 -1.67951 0
M  V30 4668 C 456.088 3.15713 -2.94871 0
M  V30 4669 C 455.223 4.44539 -2.90789 0
M  V30 4670 C 454.262 4.52315 -4.12404 0
M  V30 4671 N 453.399 5.72533 -4.06387 0
M  V30 4672 H 458.239 1.50011 -2.57489 0
M  V30 4673 H 455.776 0.730298 -1.27691 0
M  V30 4674 H 457.734 3.81572 -1.68698 0
M  V30 4675 H 456.364 3.1345 -0.771306 0
M  V30 4676 H 455.416 2.28854 -3.03859 0
M  V30 4677 H 456.728 3.1732 -3.8485 0
M  V30 4678 H 455.882 5.3293 -2.89949 0
M  V30 4679 H 454.621 4.45457 -1.98542 0
M  V30 4680 H 453.626 3.62331 -4.13517 0
M  V30 4681 H 454.851 4.53134 -5.05812 0
M  V30 4682 H 452.797 5.74344 -3.16962 0
M  V30 4683 H 452.714 5.75643 -4.90073 0
M  V30 4684 H 453.982 6.63204 -4.0961 0
M  V30 4685 N 458.211 1.37122 0.776871 0
M  V30 4686 C 459.158 1.3247 1.88998 0
M  V30 4687 C 460.128 0.191143 1.64997 0
M  V30 4688 O 461.313 0.379683 1.86984 0
M  V30 4689 C 458.453 1.13241 3.25992 0
M  V30 4690 C 457.566 2.35782 3.61982 0
M  V30 4691 C 456.701 2.09465 4.88158 0
M  V30 4692 C 455.74 3.279 5.16864 0
M  V30 4693 N 454.877 3.01167 6.34226 0
M  V30 4694 H 459.717 2.27642 1.9231 0
M  V30 4695 H 457.254 1.13125 0.94027 0
M  V30 4696 H 459.212 1.00115 4.0501 0
M  V30 4697 H 457.842 0.217186 3.22069 0
M  V30 4698 H 456.894 2.59666 2.77989 0
M  V30 4699 H 458.206 3.24125 3.79137 0
M  V30 4700 H 457.36 1.93341 5.75069 0
M  V30 4701 H 456.099 1.18452 4.73097 0
M  V30 4702 H 455.104 3.44569 4.2843 0
M  V30 4703 H 456.329 4.19757 5.33836 0
M  V30 4704 H 454.275 2.12779 6.20533 0
M  V30 4705 H 454.192 3.83052 6.51772 0
M  V30 4706 H 455.46 2.88649 7.24087 0
M  V30 4707 N 459.689 -1.00246 1.21608 0
M  V30 4708 C 460.621 -2.09244 0.935401 0
M  V30 4709 C 461.634 -1.62592 -0.0823594 0
M  V30 4710 O 462.823 -1.77865 0.150456 0
M  V30 4711 C 459.923 -3.36724 0.383453 0
M  V30 4712 C 459.096 -4.1245 1.45615 0
M  V30 4713 C 458.155 -5.18219 0.912991 0
M  V30 4714 O 457.181 -5.46337 1.59701 0
M  V30 4715 N 458.383 -5.7987 -0.270478 0
M  V30 4716 H 461.148 -2.33905 1.87373 0
M  V30 4717 H 458.709 -1.16748 1.12167 0
M  V30 4718 H 460.701 -4.047 0.00562157 0
M  V30 4719 H 459.271 -3.09201 -0.459758 0
M  V30 4720 H 458.491 -3.39241 2.00772 0
M  V30 4721 H 459.779 -4.59819 2.17817 0
M  V30 4722 H 459.177 -5.59381 -0.843195 0
M  V30 4723 H 457.734 -6.49126 -0.589794 0
M  V30 4724 N 461.167 -1.02423 -1.1978 0
M  V30 4725 C 462.392 -0.7373 -1.93852 0
M  V30 4726 C 462.817 0.696923 -1.74713 0
M  V30 4727 O 462.175 1.48056 -1.04638 0
M  V30 4728 C 462.223 -1.08783 -3.438 0
M  V30 4729 O 461.327 -0.20383 -4.11896 0
M  V30 4730 H 460.668 -0.27284 -0.605355 0
M  V30 4731 H 463.198 -1.36966 -1.51992 0
M  V30 4732 H 463.208 -1.04276 -3.9445 0
M  V30 4733 H 461.883 -2.13274 -3.57053 0
M  V30 4734 H 460.46 -0.307091 -3.71633 0
M  V30 4735 N 462.645 1.35699 -0.801477 0
M  V30 4736 C 463.892 1.98913 -0.379459 0
M  V30 4737 C 464.22 1.63592 1.05204 0
M  V30 4738 O 463.475 0.888563 1.74365 0
M  V30 4739 C 463.774 3.53828 -0.504041 0
M  V30 4740 C 463.44 4.09002 -1.8981 0
M  V30 4741 C 462.102 4.23783 -2.27951 0
M  V30 4742 C 464.454 4.38939 -2.81038 0
M  V30 4743 C 461.782 4.65816 -3.56696 0
M  V30 4744 C 464.134 4.82409 -4.09224 0
M  V30 4745 C 462.798 4.95395 -4.4737 0
M  V30 4746 H 462.068 0.727874 -0.138854 0
M  V30 4747 H 464.715 1.61994 -1.02128 0
M  V30 4748 H 463.02 3.91175 0.221242 0
M  V30 4749 H 464.717 4.00687 -0.158361 0
M  V30 4750 H 461.307 3.97946 -1.59176 0
M  V30 4751 H 465.491 4.27077 -2.52821 0
M  V30 4752 H 460.747 4.74059 -3.86106 0
M  V30 4753 H 464.921 5.04535 -4.80018 0
M  V30 4754 H 462.548 5.27724 -5.47185 0
M  V30 4755 N 464.123 0.554532 1.47522 0
M  V30 4756 C 465.369 0.0295227 2.02779 0
M  V30 4757 C 465.702 -1.31582 1.42828 0
M  V30 4758 O 464.977 -1.85561 0.582872 0
M  V30 4759 C 465.26 -0.0664057 3.60039 0
M  V30 4760 C 465.113 1.30585 4.30427 0
M  V30 4761 C 466.432 -0.781162 4.33112 0
M  V30 4762 H 463.551 0.0122027 0.736899 0
M  V30 4763 H 466.193 0.716305 1.7598 0
M  V30 4764 H 464.343 -0.651307 3.83002 0
M  V30 4765 H 466.015 1.93374 4.18813 0
M  V30 4766 H 464.258 1.88125 3.90886 0
M  V30 4767 H 464.929 1.19147 5.38988 0
M  V30 4768 H 467.405 -0.284565 4.15126 0
M  V30 4769 H 466.281 -0.817237 5.42782 0
M  V30 4770 H 466.542 -1.83672 4.0214 0
M  V30 4771 N 465.601 -1.54893 0.290851 0
M  V30 4772 C 466.849 -1.99538 -0.320756 0
M  V30 4773 C 467.17 -1.18075 -1.55188 0
M  V30 4774 O 466.44 -0.274162 -1.93972 0
M  V30 4775 H 465.02 -0.737052 -0.121507 0
M  V30 4776 H 467.682 -1.90755 0.399832 0
M  V30 4777 H 466.778 -3.06282 -0.599802 0
M  V30 4778 N 467.08 -0.0183926 -1.57589 0
M  V30 4779 C 468.013 1.00148 -2.0505 0
M  V30 4780 C 468.991 1.32387 -0.944058 0
M  V30 4781 O 470.175 1.44237 -1.21358 0
M  V30 4782 C 467.302 2.32435 -2.46357 0
M  V30 4783 C 466.348 2.15731 -3.67916 0
M  V30 4784 S 467.181 1.46613 -5.15039 0
M  V30 4785 C 468.337 2.80293 -5.59631 0
M  V30 4786 H 468.57 0.597429 -2.91235 0
M  V30 4787 H 466.103 0.193002 -1.53189 0
M  V30 4788 H 468.061 3.0849 -2.70822 0
M  V30 4789 H 466.722 2.69975 -1.60537 0
M  V30 4790 H 465.915 3.13502 -3.9463 0
M  V30 4791 H 465.517 1.4782 -3.43548 0
M  V30 4792 H 467.809 3.76557 -5.63215 0
M  V30 4793 H 468.752 2.58256 -6.59325 0
M  V30 4794 H 469.16 2.85047 -4.87246 0
M  V30 4795 N 468.558 1.5553 0.254621 0
M  V30 4796 C 469.488 1.9268 1.31897 0
M  V30 4797 C 470.469 0.790797 1.506 0
M  V30 4798 O 471.654 1.05045 1.63337 0
M  V30 4799 C 468.784 2.21477 2.67517 0
M  V30 4800 C 467.738 3.37256 2.63519 0
M  V30 4801 C 467.064 3.51576 4.02862 0
M  V30 4802 C 468.364 4.73157 2.21179 0
M  V30 4803 H 470.058 2.81832 1.01051 0
M  V30 4804 H 467.604 1.35599 0.484662 0
M  V30 4805 H 469.557 2.46055 3.42104 0
M  V30 4806 H 468.281 1.29144 2.99982 0
M  V30 4807 H 466.94 3.12675 1.9139 0
M  V30 4808 H 466.588 2.56676 4.32581 0
M  V30 4809 H 466.288 4.2943 4.01078 0
M  V30 4810 H 467.812 3.78467 4.79161 0
M  V30 4811 H 469.226 4.97158 2.85494 0
M  V30 4812 H 467.623 5.54058 2.30521 0
M  V30 4813 H 468.693 4.70739 1.16332 0
M  V30 4814 N 470.036 -0.519951 1.48776 0
M  V30 4815 C 471.264 -1.29971 1.60982 0
M  V30 4816 C 471.679 -1.86803 0.273885 0
M  V30 4817 O 471.036 -1.66904 -0.738193 0
M  V30 4818 C 471.087 -2.44346 2.66415 0
M  V30 4819 O 470.808 -1.89855 3.94825 0
M  V30 4820 C 472.309 -3.36014 2.89153 0
M  V30 4821 H 469.529 -0.394891 0.542496 0
M  V30 4822 H 472.073 -0.626214 1.94676 0
M  V30 4823 H 470.228 -3.07562 2.35552 0
M  V30 4824 H 470.642 -2.64798 4.5275 0
M  V30 4825 H 472.116 -4.12593 3.66703 0
M  V30 4826 H 472.593 -3.91859 1.98351 0
M  V30 4827 H 473.199 -2.78582 3.21359 0
M  V30 4828 N 471.514 -1.37532 -0.769588 0
M  V30 4829 C 472.763 -1.32183 -1.5235 0
M  V30 4830 C 473.076 0.0906555 -1.9539 0
M  V30 4831 O 474.282 0.266628 -2.70188 0
M  V30 4832 C 472.738 -2.32029 -2.75119 0
M  V30 4833 C 472.346 -3.78816 -2.3917 0
M  V30 4834 C 474.09 -2.35694 -3.53056 0
M  V30 4835 C 471.997 -4.70388 -3.58453 0
M  V30 4836 H 470.927 -0.491275 -0.571984 0
M  V30 4837 H 473.578 -1.63004 -0.842739 0
M  V30 4838 H 471.96 -1.94229 -3.45096 0
M  V30 4839 H 473.134 -4.25466 -1.76962 0
M  V30 4840 H 471.449 -3.78117 -1.74402 0
M  V30 4841 H 474.046 -3.01312 -4.41718 0
M  V30 4842 H 474.389 -1.37117 -3.93071 0
M  V30 4843 H 474.922 -2.72212 -2.90078 0
M  V30 4844 H 471.661 -5.70102 -3.23518 0
M  V30 4845 H 471.181 -4.28442 -4.19758 0
M  V30 4846 H 472.86 -4.87628 -4.25239 0
M  V30 4847 N 472.992 0.995999 -1.22138 0
M  V30 4848 C 474.22 1.77066 -1.07029 0
M  V30 4849 C 474.635 1.8495 0.379357 0
M  V30 4850 O 473.992 1.3174 1.26297 0
M  V30 4851 C 474.043 3.20533 -1.67155 0
M  V30 4852 O 473.764 3.13082 -3.06449 0
M  V30 4853 C 475.265 4.14461 -1.5728 0
M  V30 4854 H 472.485 0.556179 -0.375374 0
M  V30 4855 H 475.029 1.25238 -1.61666 0
M  V30 4856 H 473.184 3.6944 -1.16589 0
M  V30 4857 H 473.598 4.03283 -3.35355 0
M  V30 4858 H 475.072 5.1289 -2.04078 0
M  V30 4859 H 475.549 4.36005 -0.528795 0
M  V30 4860 H 476.155 3.71449 -2.07136 0
M  V30 4861 N 474.47 1.03057 1.19235 0
M  V30 4862 C 475.747 0.642608 1.84743 0
M  V30 4863 C 476.127 -0.878577 1.91948 0
M  V30 4864 O 475.475 -1.77597 1.43776 0
M  V30 4865 C 475.685 1.30665 3.23616 0
M  V30 4866 C 477.033 1.43098 3.9976 0
M  V30 4867 O 478.057 1.26396 3.3302 0
M  V30 4868 O 476.916 1.70223 5.19313 0
M  V30 4869 H 474.01 0.223573 0.796206 0
M  V30 4870 H 476.556 1.12883 1.26711 0
M  V30 4871 H 475.328 2.34544 3.13217 0
M  V30 4872 H 474.951 0.808405 3.89295 0
M  V30 4873 N 475.948 -1.35272 0.808662 0
M  V30 4874 C 477.195 -1.98709 0.390003 0
M  V30 4875 C 477.523 -1.64148 -1.04335 0
M  V30 4876 O 476.778 -0.897797 -1.73891 0
M  V30 4877 C 477.077 -3.53556 0.522798 0
M  V30 4878 C 476.743 -4.0799 1.91977 0
M  V30 4879 C 475.405 -4.22568 2.30195 0
M  V30 4880 C 477.757 -4.37442 2.83361 0
M  V30 4881 C 475.085 -4.63918 3.59162 0
M  V30 4882 C 477.437 -4.80232 4.11776 0
M  V30 4883 C 476.101 -4.93016 4.49991 0
M  V30 4884 H 475.371 -0.727127 0.142712 0
M  V30 4885 H 478.018 -1.6145 1.02985 0
M  V30 4886 H 476.323 -3.91287 -0.200494 0
M  V30 4887 H 478.02 -4.00598 0.179608 0
M  V30 4888 H 474.61 -3.97096 1.61284 0
M  V30 4889 H 478.794 -4.25731 2.55083 0
M  V30 4890 H 474.05 -4.72005 3.88615 0
M  V30 4891 H 478.224 -5.01982 4.82687 0
M  V30 4892 H 475.851 -5.24814 5.49976 0
M  V30 4893 N 477.426 -0.562348 -1.47226 0
M  V30 4894 C 478.675 -0.038041 -2.01664 0
M  V30 4895 C 478.988 1.32199 -1.44162 0
M  V30 4896 O 480.194 1.9365 -1.90294 0
M  V30 4897 C 478.65 -0.0174958 -3.59896 0
M  V30 4898 C 478.258 -1.3746 -4.2639 0
M  V30 4899 C 480.002 0.453934 -4.22066 0
M  V30 4900 C 477.909 -1.31289 -5.76643 0
M  V30 4901 H 476.839 -0.0104511 -0.753928 0
M  V30 4902 H 479.49 -0.710966 -1.69167 0
M  V30 4903 H 477.872 0.721182 -3.89378 0
M  V30 4904 H 479.046 -2.1314 -4.08544 0
M  V30 4905 H 477.361 -1.78438 -3.7623 0
M  V30 4906 H 479.958 0.518584 -5.32179 0
M  V30 4907 H 480.301 1.46706 -3.89594 0
M  V30 4908 H 480.834 -0.230044 -3.97134 0
M  V30 4909 H 477.573 -2.30217 -6.13743 0
M  V30 4910 H 477.093 -0.597973 -5.96812 0
M  V30 4911 H 478.772 -1.01713 -6.38955 0
M  V30 4912 N 478.904 1.54736 -0.299062 0
M  V30 4913 C 479.852 2.24897 0.593658 0
M  V30 4914 C 480.846 1.25429 1.13859 0
M  V30 4915 O 482.052 1.43286 1.08945 0
M  V30 4916 H 478.427 0.72207 0.210046 0
M  V30 4917 H 480.398 2.98393 -0.0206421 0
M  V30 4918 C 479.147 3.00159 1.75499 0
M  V30 4919 H 478.47 3.76501 1.34489 0
M  V30 4920 H 479.91 3.52535 2.35574 0
M  V30 4921 C 478.369 2.07015 2.65794 0
M  V30 4922 O 478.899 1.63692 3.66835 0
M  V30 4923 N 477.105 1.73012 2.33485 0
M  V30 4924 H 476.652 2.08439 1.51364 0
M  V30 4925 H 476.61 1.10965 2.94167 0
M  V30 4926 N 480.382 0.0267497 1.57577 0
M  V30 4927 C 481.631 -0.651736 1.9088 0
M  V30 4928 C 481.944 -1.73427 0.904576 0
M  V30 4929 O 483.15 -2.46923 1.12877 0
M  V30 4930 C 481.606 -1.21048 3.38933 0
M  V30 4931 C 481.214 -0.161362 4.47709 0
M  V30 4932 C 482.958 -1.86562 3.81307 0
M  V30 4933 C 480.865 -0.731611 5.86857 0
M  V30 4934 H 479.795 -0.247198 0.712326 0
M  V30 4935 H 482.446 0.0916641 1.83271 0
M  V30 4936 H 480.828 -2.00542 3.41466 0
M  V30 4937 H 482.002 0.61094 4.56732 0
M  V30 4938 H 480.317 0.394877 4.14523 0
M  V30 4939 H 482.914 -2.30178 4.8262 0
M  V30 4940 H 483.257 -2.70735 3.16241 0
M  V30 4941 H 483.79 -1.13762 3.81186 0
M  V30 4942 H 480.529 0.0719329 6.55461 0
M  V30 4943 H 480.049 -1.47245 5.81445 0
M  V30 4944 H 481.728 -1.22208 6.35354 0
M  V30 4945 N 481.861 -1.55662 -0.24637 0
M  V30 4946 C 482.791 -1.93377 -1.30873 0
M  V30 4947 C 483.772 -0.798773 -1.50179 0
M  V30 4948 O 484.957 -1.0591 -1.62778 0
M  V30 4949 C 482.087 -2.22893 -2.66338 0
M  V30 4950 C 481.041 -3.38649 -2.61727 0
M  V30 4951 C 480.367 -3.53708 -4.00992 0
M  V30 4952 C 481.667 -4.74323 -2.18666 0
M  V30 4953 H 483.361 -2.82363 -0.995552 0
M  V30 4954 H 480.907 -1.35854 -0.477464 0
M  V30 4955 H 482.86 -2.47866 -3.40794 0
M  V30 4956 H 481.584 -1.30733 -2.99293 0
M  V30 4957 H 480.243 -3.13685 -1.89729 0
M  V30 4958 H 479.891 -2.58967 -4.31214 0
M  V30 4959 H 479.591 -4.31551 -3.98795 0
M  V30 4960 H 481.115 -3.81003 -4.77147 0
M  V30 4961 H 482.529 -4.98665 -2.82854 0
M  V30 4962 H 480.926 -5.55273 -2.27579 0
M  V30 4963 H 481.996 -4.71349 -1.13834 0
M  V30 4964 N 483.339 0.512053 -1.4905 0
M  V30 4965 C 484.289 1.61142 -1.61298 0
M  V30 4966 C 485.273 1.53908 -0.46916 0
M  V30 4967 O 486.465 1.61625 -0.721547 0
M  V30 4968 C 483.594 2.998 -1.67256 0
M  V30 4969 C 482.68 3.12072 -2.87179 0
M  V30 4970 N 483.071 2.94263 -4.11391 0
M  V30 4971 C 481.369 3.43156 -2.84886 0
M  V30 4972 C 482.07 3.10426 -4.91946 0
M  V30 4973 N 481.046 3.38808 -4.251 0
M  V30 4974 H 484.848 1.46011 -2.55065 0
M  V30 4975 H 482.362 0.717934 -1.45669 0
M  V30 4976 H 484.359 3.78794 -1.74128 0
M  V30 4977 H 483.019 3.1601 -0.746195 0
M  V30 4978 H 484.03 2.70661 -4.41546 0
M  V30 4979 H 480.707 3.65611 -2.01581 0
M  V30 4980 H 482.097 3.01243 -6.00585 0
M  V30 4981 N 484.817 1.37938 0.762283 0
M  V30 4982 C 486.233 1.18945 1.06415 0
M  V30 4983 C 486.433 0.0321163 2.01474 0
M  V30 4984 O 485.489 -0.624844 2.44647 0
M  V30 4985 C 486.802 2.51218 1.65258 0
M  V30 4986 C 488.35 2.57824 1.7747 0
M  V30 4987 C 488.825 3.90251 2.39725 0
M  V30 4988 N 490.316 3.91744 2.47166 0
M  V30 4989 C 491.051 4.90966 2.96209 0
M  V30 4990 N 490.547 6.00585 3.45354 0
M  V30 4991 N 492.34 4.78363 2.9517 0
M  V30 4992 H 484.491 2.11994 0.131301 0
M  V30 4993 H 486.754 0.940262 0.120879 0
M  V30 4994 H 486.46 3.36317 1.02878 0
M  V30 4995 H 486.334 2.68989 2.64433 0
M  V30 4996 H 488.721 1.73126 2.3898 0
M  V30 4997 H 488.802 2.43928 0.770241 0
M  V30 4998 H 488.446 4.75368 1.78852 0
M  V30 4999 H 488.376 4.01454 3.40796 0
M  V30 5000 H 490.867 3.12563 2.12397 0
M  V30 5001 H 491.18 6.72236 3.81207 0
M  V30 5002 H 489.525 6.04217 3.43434 0
M  V30 5003 H 492.716 3.91841 2.56082 0
M  V30 5004 H 492.889 5.55843 3.33081 0
M  V30 5005 N 486.295 -0.989507 1.22664 0
M  V30 5006 C 487.525 -1.7624 1.0781 0
M  V30 5007 C 487.933 -1.85466 -0.374036 0
M  V30 5008 O 487.276 -1.32645 -1.27087 0
M  V30 5009 C 487.338 -3.21007 1.61849 0
M  V30 5010 C 487.002 -3.35316 3.10503 0
M  V30 5011 C 487.999 -3.22362 4.07896 0
M  V30 5012 C 485.684 -3.60258 3.50028 0
M  V30 5013 C 487.678 -3.34139 5.42798 0
M  V30 5014 C 485.365 -3.71676 4.85078 0
M  V30 5015 C 486.363 -3.58625 5.81272 0
M  V30 5016 O 486.051 -3.69655 7.1387 0
M  V30 5017 H 485.783 -0.560209 0.378341 0
M  V30 5018 H 488.337 -1.25252 1.62792 0
M  V30 5019 H 486.567 -3.73202 1.01279 0
M  V30 5020 H 488.256 -3.80024 1.42606 0
M  V30 5021 H 489.022 -3.03 3.78703 0
M  V30 5022 H 484.901 -3.69492 2.75675 0
M  V30 5023 H 488.445 -3.23869 6.17863 0
M  V30 5024 H 484.342 -3.90545 5.1395 0
M  V30 5025 H 485.11 -3.86507 7.21495 0
M  V30 5026 N 487.773 -1.03688 -1.18687 0
M  V30 5027 C 489.003 -0.756819 -1.92239 0
M  V30 5028 C 489.411 0.689374 -1.76194 0
M  V30 5029 O 488.754 1.48126 -1.08648 0
M  V30 5030 C 488.816 -1.03851 -3.44173 0
M  V30 5031 C 488.48 -2.47785 -3.83994 0
M  V30 5032 C 489.477 -3.4595 -3.88091 0
M  V30 5033 C 487.162 -2.82397 -4.154 0
M  V30 5034 C 489.156 -4.76779 -4.23038 0
M  V30 5035 C 486.843 -4.13433 -4.50018 0
M  V30 5036 C 487.841 -5.10434 -4.53813 0
M  V30 5037 O 487.529 -6.39122 -4.87625 0
M  V30 5038 H 487.261 -0.275678 -0.617234 0
M  V30 5039 H 489.815 -1.38658 -1.51536 0
M  V30 5040 H 488.045 -0.351612 -3.85098 0
M  V30 5041 H 489.734 -0.746846 -3.9897 0
M  V30 5042 H 490.5 -3.20549 -3.63969 0
M  V30 5043 H 486.379 -2.07568 -4.11627 0
M  V30 5044 H 489.923 -5.52488 -4.25914 0
M  V30 5045 H 485.82 -4.38604 -4.736 0
M  V30 5046 H 486.588 -6.43715 -5.05542 0
M  V30 5047 N 489.251 1.34841 -0.815825 0
M  V30 5048 C 490.198 2.29644 -0.230664 0
M  V30 5049 C 491.168 1.53253 0.640533 0
M  V30 5050 O 492.353 1.81653 0.583672 0
M  V30 5051 C 489.493 3.39715 0.607275 0
M  V30 5052 C 488.606 4.31056 -0.28538 0
M  V30 5053 C 487.741 5.28225 0.561446 0
M  V30 5054 C 486.78 6.11204 -0.331035 0
M  V30 5055 N 485.917 7.00483 0.476302 0
M  V30 5056 H 490.757 2.79095 -1.0445 0
M  V30 5057 H 488.294 1.37351 -0.526595 0
M  V30 5058 H 490.252 4.02208 1.10835 0
M  V30 5059 H 488.882 2.91517 1.38629 0
M  V30 5060 H 487.934 3.69487 -0.904621 0
M  V30 5061 H 489.246 4.89239 -0.97193 0
M  V30 5062 H 488.4 5.96135 1.12728 0
M  V30 5063 H 487.139 4.70562 1.28153 0
M  V30 5064 H 486.144 5.42232 -0.909069 0
M  V30 5065 H 487.369 6.70947 -1.04912 0
M  V30 5066 H 485.315 6.45296 1.18019 0
M  V30 5067 H 485.232 7.55847 -0.152008 0
M  V30 5068 H 486.5 7.7273 1.02512 0
M  V30 5069 N 490.729 0.570148 1.46925 0
M  V30 5070 C 491.954 0.0542592 2.07329 0
M  V30 5071 C 492.379 -1.23582 1.41806 0
M  V30 5072 O 491.737 -1.74341 0.497479 0
M  V30 5073 C 491.785 -0.111175 3.60429 0
M  V30 5074 O 490.889 -1.17071 3.95434 0
M  V30 5075 H 490.23 0.0571425 0.661537 0
M  V30 5076 H 492.76 0.789516 1.88753 0
M  V30 5077 H 492.77 -0.321315 4.06733 0
M  V30 5078 H 491.445 0.831012 4.07513 0
M  V30 5079 H 490.022 -0.940029 3.60857 0
M  V30 5080 N 492.207 -1.54576 0.307264 0
M  V30 5081 C 493.618 -1.8579 -0.184121 0
M  V30 5082 C 493.969 -1.22914 -1.52927 0
M  V30 5083 O 493.094 -0.529126 -2.09831 0
M  V30 5084 C 493.689 -3.37081 -0.340862 0
M  V30 5085 C 492.248 -3.68304 -0.776465 0
M  V30 5086 C 491.395 -2.77076 0.111503 0
M  V30 5087 H 494.346 -1.49656 0.528078 0
M  V30 5088 H 494.367 -3.61922 -1.17443 0
M  V30 5089 H 493.879 -3.82815 0.638309 0
M  V30 5090 H 491.98 -3.28092 -1.76596 0
M  V30 5091 H 492.093 -4.75434 -0.591512 0
M  V30 5092 H 490.457 -2.51374 -0.410256 0
M  V30 5093 H 491.24 -3.25632 1.08714 0
M  V30 5094 N 493.685 -0.035106 -1.57561 0
M  V30 5095 C 494.618 0.979673 -2.06101 0
M  V30 5096 C 495.596 1.31378 -0.958046 0
M  V30 5097 O 496.78 1.42942 -1.22881 0
M  V30 5098 C 493.907 2.29809 -2.48808 0
M  V30 5099 C 492.953 2.11817 -3.70184 0
M  V30 5100 S 493.786 1.41143 -5.16565 0
M  V30 5101 C 494.942 2.74341 -5.62572 0
M  V30 5102 H 495.175 0.566506 -2.91853 0
M  V30 5103 H 492.708 0.176744 -1.53385 0
M  V30 5104 H 494.666 3.056 -2.74078 0
M  V30 5105 H 493.327 2.68257 -1.63392 0
M  V30 5106 H 492.52 3.09299 -3.97933 0
M  V30 5107 H 492.122 1.44168 -3.45097 0
M  V30 5108 H 494.414 3.70562 -5.67177 0
M  V30 5109 H 495.357 2.51249 -6.62027 0
M  V30 5110 H 495.765 2.79863 -4.90242 0
M  V30 5111 N 495.163 1.55791 0.238111 0
M  V30 5112 C 496.409 1.78297 0.966337 0
M  V30 5113 C 496.742 0.601903 1.84637 0
M  V30 5114 O 496.017 -0.399499 1.90353 0
M  V30 5115 C 496.3 3.10758 1.81939 0
M  V30 5116 C 496.153 4.39283 0.966958 0
M  V30 5117 C 497.472 3.39519 2.80027 0
M  V30 5118 H 494.591 0.648654 0.349882 0
M  V30 5119 H 497.233 1.88525 0.236253 0
M  V30 5120 H 495.383 3.02168 2.44185 0
M  V30 5121 H 497.055 4.59873 0.362514 0
M  V30 5122 H 495.298 4.32948 0.271669 0
M  V30 5123 H 495.969 5.28368 1.59784 0
M  V30 5124 H 498.445 3.48128 2.27917 0
M  V30 5125 H 497.321 4.33402 3.36829 0
M  V30 5126 H 497.582 2.60864 3.56934 0
M  V30 5127 N 496.642 -0.504142 1.49319 0
M  V30 5128 C 497.574 -1.62265 1.61872 0
M  V30 5129 C 498.587 -1.54881 0.501573 0
M  V30 5130 O 499.776 -1.6087 0.773497 0
M  V30 5131 C 496.876 -3.01042 1.55651 0
M  V30 5132 C 496.049 -3.33642 2.82845 0
M  V30 5133 C 495.108 -4.51816 2.69719 0
M  V30 5134 O 494.134 -4.53755 3.4365 0
M  V30 5135 N 495.336 -5.51543 1.81055 0
M  V30 5136 H 498.101 -1.51924 2.58339 0
M  V30 5137 H 495.662 -0.691954 1.46368 0
M  V30 5138 H 497.654 -3.78013 1.44528 0
M  V30 5139 H 496.224 -3.05323 0.670546 0
M  V30 5140 H 495.444 -2.45598 3.08343 0
M  V30 5141 H 496.732 -3.5222 3.67177 0
M  V30 5142 H 496.13 -5.52774 1.20241 0
M  V30 5143 H 494.687 -6.27629 1.75856 0
M  V30 5144 N 498.12 -1.38341 -0.754957 0
M  V30 5145 C 499.369 -1.33791 -1.5094 0
M  V30 5146 C 499.682 0.0699267 -1.95475 0
M  V30 5147 O 500.888 0.237956 -2.70455 0
M  V30 5148 C 499.344 -2.34934 -2.72643 0
M  V30 5149 C 498.952 -3.81332 -2.35138 0
M  V30 5150 C 500.696 -2.39425 -3.50536 0
M  V30 5151 C 498.603 -4.74164 -3.53444 0
M  V30 5152 H 497.533 -0.497314 -0.566741 0
M  V30 5153 H 500.184 -1.63888 -0.825403 0
M  V30 5154 H 498.566 -1.97878 -3.43017 0
M  V30 5155 H 499.74 -4.27319 -1.7244 0
M  V30 5156 H 498.055 -3.79946 -1.70382 0
M  V30 5157 H 500.652 -3.0598 -4.38498 0
M  V30 5158 H 500.995 -1.41278 -3.91594 0
M  V30 5159 H 501.528 -2.75274 -2.87174 0
M  V30 5160 H 498.267 -5.73501 -3.17453 0
M  V30 5161 H 497.787 -4.3287 -4.15191 0
M  V30 5162 H 499.466 -4.92111 -4.20043 0
M  V30 5163 N 499.598 0.982988 -1.23187 0
M  V30 5164 C 500.828 1.75666 -1.08743 0
M  V30 5165 C 501.236 1.85662 0.364195 0
M  V30 5166 O 500.579 1.33317 1.26382 0
M  V30 5167 C 500.641 3.20144 -1.63549 0
M  V30 5168 C 500.305 3.33665 -3.12277 0
M  V30 5169 C 501.302 3.20194 -4.096 0
M  V30 5170 C 498.987 3.58397 -3.51933 0
M  V30 5171 C 500.981 3.31256 -5.44563 0
M  V30 5172 C 498.668 3.69098 -4.87042 0
M  V30 5173 C 499.666 3.55537 -5.83166 0
M  V30 5174 O 499.354 3.65864 -7.1582 0
M  V30 5175 H 499.086 0.558194 -0.381307 0
M  V30 5176 H 501.64 1.24387 -1.63454 0
M  V30 5177 H 499.87 3.72659 -1.03256 0
M  V30 5178 H 501.559 3.79262 -1.4462 0
M  V30 5179 H 502.325 3.00987 -3.80305 0
M  V30 5180 H 498.204 3.68025 -2.77631 0
M  V30 5181 H 501.748 3.20588 -6.19572 0
M  V30 5182 H 497.645 3.87814 -5.16014 0
M  V30 5183 H 498.413 3.82675 -7.23534 0
M  V30 5184 N 501.076 1.04316 1.18135 0
M  V30 5185 C 501.986 0.646876 2.25505 0
M  V30 5186 C 503.002 -0.328008 1.7088 0
M  V30 5187 O 504.178 -0.182309 2.00573 0
M  V30 5188 C 501.243 0.0185664 3.46695 0
M  V30 5189 C 500.304 1.04277 4.16443 0
M  V30 5190 C 499.537 0.444352 5.31847 0
M  V30 5191 O 499.76 -0.748735 5.65465 0
M  V30 5192 O 498.694 1.17428 5.90334 0
M  V30 5193 H 502.52 1.54147 2.61672 0
M  V30 5194 H 500.105 0.814188 1.25265 0
M  V30 5195 H 501.987 -0.331068 4.20097 0
M  V30 5196 H 500.662 -0.849814 3.12346 0
M  V30 5197 H 499.569 1.44425 3.45098 0
M  V30 5198 H 500.902 1.882 4.54798 0
M  V30 5199 N 502.554 -1.34406 0.822964 0
M  V30 5200 C 503.484 -2.32052 0.259608 0
M  V30 5201 C 504.465 -1.58243 -0.623961 0
M  V30 5202 O 505.65 -1.86224 -0.55083 0
M  V30 5203 C 502.78 -3.42434 -0.579314 0
M  V30 5204 C 501.734 -4.27499 0.20712 0
M  V30 5205 C 501.06 -5.29349 -0.754547 0
M  V30 5206 C 502.36 -5.02758 1.41533 0
M  V30 5207 H 504.054 -2.79418 1.07545 0
M  V30 5208 H 501.6 -1.34338 0.518593 0
M  V30 5209 H 503.553 -4.0976 -0.983612 0
M  V30 5210 H 502.277 -2.93717 -1.4282 0
M  V30 5211 H 500.936 -3.61776 0.592787 0
M  V30 5212 H 500.584 -4.76895 -1.59939 0
M  V30 5213 H 500.284 -5.8714 -0.232561 0
M  V30 5214 H 501.808 -5.99544 -1.1567 0
M  V30 5215 H 503.222 -5.62938 1.08504 0
M  V30 5216 H 501.619 -5.70123 1.87296 0
M  V30 5217 H 502.689 -4.32451 2.1935 0
M  V30 5218 N 504.032 -0.577932 -1.46621 0
M  V30 5219 C 504.942 0.160651 -2.34049 0
M  V30 5220 C 505.958 0.890911 -1.49462 0
M  V30 5221 O 507.134 0.855166 -1.82343 0
M  V30 5222 C 504.199 1.16447 -3.26559 0
M  V30 5223 C 503.26 0.4394 -4.27045 0
M  V30 5224 C 502.493 1.3954 -5.15135 0
M  V30 5225 O 502.716 2.63162 -5.06065 0
M  V30 5226 O 501.65 0.908585 -5.95003 0
M  V30 5227 H 505.476 -0.557057 -2.98547 0
M  V30 5228 H 503.061 -0.338369 -1.45518 0
M  V30 5229 H 504.943 1.7434 -3.83645 0
M  V30 5230 H 503.618 1.86373 -2.64663 0
M  V30 5231 H 502.525 -0.181247 -3.73661 0
M  V30 5232 H 503.858 -0.218799 -4.91713 0
M  V30 5233 N 505.51 1.54411 -0.315457 0
M  V30 5234 C 506.42 2.27737 0.56329 0
M  V30 5235 C 507.436 1.31787 1.13614 0
M  V30 5236 O 508.612 1.64791 1.15784 0
M  V30 5237 C 505.677 3.01478 1.71207 0
M  V30 5238 C 504.738 4.12997 1.17185 0
M  V30 5239 C 503.971 4.83212 2.26588 0
M  V30 5240 O 504.194 4.52884 3.46775 0
M  V30 5241 O 503.128 5.70299 1.92463 0
M  V30 5242 H 506.954 3.03683 -0.0319614 0
M  V30 5243 H 504.539 1.49178 -0.0814188 0
M  V30 5244 H 506.421 3.47683 2.38106 0
M  V30 5245 H 505.096 2.28414 2.29366 0
M  V30 5246 H 504.003 3.71159 0.468174 0
M  V30 5247 H 505.336 4.8808 0.635501 0
M  V30 5248 N 506.988 0.0434614 1.5754 0
M  V30 5249 C 507.938 -0.943039 2.07583 0
M  V30 5250 C 508.922 -1.27662 0.979342 0
M  V30 5251 O 510.114 -1.26034 1.24276 0
M  V30 5252 C 507.243 -2.22056 2.61813 0
M  V30 5253 C 506.329 -1.91471 3.78417 0
M  V30 5254 N 506.72 -1.31214 4.88484 0
M  V30 5255 C 505.018 -2.21384 3.87176 0
M  V30 5256 C 505.719 -1.18084 5.69588 0
M  V30 5257 N 504.695 -1.68116 5.16951 0
M  V30 5258 H 508.497 -0.472354 2.90079 0
M  V30 5259 H 506.011 -0.161191 1.61598 0
M  V30 5260 H 508.008 -2.93618 2.95963 0
M  V30 5261 H 506.668 -2.69738 1.80752 0
M  V30 5262 H 507.679 -0.985318 5.08441 0
M  V30 5263 H 504.356 -2.7164 3.17046 0
M  V30 5264 H 505.746 -0.713684 6.68099 0
M  V30 5265 N 508.466 -1.55915 -0.229846 0
M  V30 5266 C 509.413 -1.91734 -1.28478 0
M  V30 5267 C 510.383 -0.773539 -1.46988 0
M  V30 5268 O 511.568 -1.02871 -1.60693 0
M  V30 5269 C 508.708 -2.23224 -2.63182 0
M  V30 5270 C 507.821 -3.50497 -2.52539 0
M  V30 5271 C 506.956 -3.71474 -3.79711 0
M  V30 5272 C 505.995 -4.92289 -3.63755 0
M  V30 5273 N 505.132 -5.09698 -4.82858 0
M  V30 5274 H 509.972 -2.81692 -0.972308 0
M  V30 5275 H 507.509 -1.39429 -0.468815 0
M  V30 5276 H 509.467 -2.3949 -3.41614 0
M  V30 5277 H 508.097 -1.36451 -2.92542 0
M  V30 5278 H 507.149 -3.4247 -1.65585 0
M  V30 5279 H 508.461 -4.39079 -2.36666 0
M  V30 5280 H 507.615 -3.87791 -4.66586 0
M  V30 5281 H 506.354 -2.81157 -3.985 0
M  V30 5282 H 505.359 -4.7593 -2.75264 0
M  V30 5283 H 506.584 -5.84083 -3.46445 0
M  V30 5284 H 504.53 -4.22322 -5.01976 0
M  V30 5285 H 504.447 -5.92399 -4.69681 0
M  V30 5286 H 505.715 -5.30443 -5.71183 0
M  V30 5287 N 509.944 0.496216 -1.49584 0
M  V30 5288 C 511.193 1.24668 -1.58558 0
M  V30 5289 C 511.506 1.9359 -0.279703 0
M  V30 5290 O 512.712 2.70365 -0.248048 0
M  V30 5291 C 511.168 2.26388 -2.79779 0
M  V30 5292 C 510.776 1.63384 -4.17145 0
M  V30 5293 C 512.52 3.02233 -2.98086 0
M  V30 5294 C 510.427 2.63243 -5.29582 0
M  V30 5295 H 509.357 0.468995 -0.590389 0
M  V30 5296 H 512.008 0.519985 -1.75978 0
M  V30 5297 H 510.39 3.02241 -2.55863 0
M  V30 5298 H 511.564 0.93491 -4.51216 0
M  V30 5299 H 509.879 0.999121 -4.04236 0
M  V30 5300 H 512.476 3.76919 -3.79257 0
M  V30 5301 H 512.819 3.60132 -2.08831 0
M  V30 5302 H 513.352 2.33495 -3.22063 0
M  V30 5303 H 510.091 2.10119 -6.20911 0
M  V30 5304 H 509.611 3.31363 -4.99959 0
M  V30 5305 H 511.29 3.25575 -5.59115 0
M  V30 5306 N 511.423 1.38739 0.74761 0
M  V30 5307 C 512.333 1.38696 1.89211 0
M  V30 5308 C 513.349 0.283303 1.71678 0
M  V30 5309 O 514.525 0.522713 1.94498 0
M  V30 5310 C 511.59 1.21662 3.24653 0
M  V30 5311 C 510.651 2.41886 3.54669 0
M  V30 5312 C 509.884 2.25655 4.83648 0
M  V30 5313 O 510.107 1.25339 5.56459 0
M  V30 5314 O 509.041 3.14372 5.13277 0
M  V30 5315 H 512.867 2.35143 1.92202 0
M  V30 5316 H 510.452 1.19721 0.893708 0
M  V30 5317 H 512.334 1.14246 4.05618 0
M  V30 5318 H 511.009 0.283024 3.2246 0
M  V30 5319 H 509.916 2.54877 2.73841 0
M  V30 5320 H 511.249 3.33895 3.61628 0
M  V30 5321 N 512.901 -0.976442 1.23707 0
M  V30 5322 C 514.129 -1.75341 1.09833 0
M  V30 5323 C 514.544 -1.8553 -0.349885 0
M  V30 5324 O 513.901 -1.33732 -1.24185 0
M  V30 5325 C 513.952 -3.17833 1.72233 0
M  V30 5326 O 513.673 -3.08167 3.11391 0
M  V30 5327 C 515.174 -4.11906 1.63853 0
M  V30 5328 H 512.394 -0.550137 0.384175 0
M  V30 5329 H 514.938 -1.2265 1.63638 0
M  V30 5330 H 513.093 -3.67538 1.22452 0
M  V30 5331 H 513.507 -3.97897 3.41729 0
M  V30 5332 H 514.981 -5.09579 2.12211 0
M  V30 5333 H 515.458 -4.35109 0.598092 0
M  V30 5334 H 516.064 -3.68107 2.13019 0
M  V30 5335 N 514.379 -1.04941 -1.1758 0
M  V30 5336 C 515.625 -0.768896 -1.88307 0
M  V30 5337 C 515.98 0.696361 -1.79356 0
M  V30 5338 O 515.273 1.50245 -1.18899 0
M  V30 5339 C 515.467 -1.18062 -3.37337 0
M  V30 5340 C 515.296 -2.68436 -3.60794 0
M  V30 5341 C 514.066 -3.35709 -3.77661 0
M  V30 5342 C 516.264 -3.66657 -3.60649 0
M  V30 5343 N 514.246 -4.74974 -3.88939 0
M  V30 5344 C 515.617 -4.91638 -3.77747 0
M  V30 5345 C 517.672 -3.60162 -3.43785 0
M  V30 5346 C 516.375 -6.10902 -3.79726 0
M  V30 5347 C 518.401 -4.78863 -3.47051 0
M  V30 5348 C 517.763 -6.02666 -3.64654 0
M  V30 5349 H 513.862 -0.33355 -0.707296 0
M  V30 5350 H 516.446 -1.34085 -1.41171 0
M  V30 5351 H 514.617 -0.636648 -3.83147 0
M  V30 5352 H 516.349 -0.8502 -3.95669 0
M  V30 5353 H 513.104 -2.8611 -3.77409 0
M  V30 5354 H 513.528 -5.47378 -3.98379 0
M  V30 5355 H 518.17 -2.65412 -3.29114 0
M  V30 5356 H 515.888 -7.05998 -3.93182 0
M  V30 5357 H 519.474 -4.75488 -3.35265 0
M  V30 5358 H 518.354 -6.92979 -3.67083 0
M  V30 5359 N 515.857 1.33968 -0.830081 0
M  V30 5360 C 517.273 1.51003 -0.516742 0
M  V30 5361 C 517.473 1.77286 0.957694 0
M  V30 5362 O 516.529 1.82797 1.74188 0
M  V30 5363 C 517.842 2.67036 -1.38247 0
M  V30 5364 C 519.39 2.80919 -1.38034 0
M  V30 5365 C 519.865 4.00004 -2.23071 0
M  V30 5366 N 521.356 4.07224 -2.20733 0
M  V30 5367 C 522.091 4.98541 -2.83275 0
M  V30 5368 N 521.587 5.95033 -3.54835 0
M  V30 5369 N 523.38 4.91469 -2.72791 0
M  V30 5370 H 515.531 1.15168 -1.78466 0
M  V30 5371 H 517.794 0.565443 -0.760906 0
M  V30 5372 H 517.5 2.54266 -2.42985 0
M  V30 5373 H 517.374 3.62226 -1.05225 0
M  V30 5374 H 519.761 2.93127 -0.340713 0
M  V30 5375 H 519.842 1.86517 -1.75057 0
M  V30 5376 H 519.486 3.88557 -3.27087 0
M  V30 5377 H 519.416 4.93634 -1.83394 0
M  V30 5378 H 521.907 3.38162 -1.68687 0
M  V30 5379 H 522.22 6.61357 -3.99784 0
M  V30 5380 H 520.565 5.95135 -3.58942 0
M  V30 5381 H 523.756 4.15048 -2.16456 0
M  V30 5382 H 523.929 5.62439 -3.21818 0
M  V30 5383 N 517.335 0.585699 1.46312 0
M  V30 5384 C 518.245 -0.148236 2.34131 0
M  V30 5385 C 519.261 -0.882972 1.49932 0
M  V30 5386 O 520.437 -0.845484 1.82794 0
M  V30 5387 C 517.502 -1.14714 3.27172 0
M  V30 5388 C 516.563 -0.416746 4.27272 0
M  V30 5389 C 515.796 -1.36806 5.15868 0
M  V30 5390 O 516.019 -2.60475 5.07454 0
M  V30 5391 O 514.953 -0.877018 5.95476 0
M  V30 5392 H 518.779 0.572882 2.98248 0
M  V30 5393 H 516.364 0.346082 1.45336 0
M  V30 5394 H 518.246 -1.72303 3.84564 0
M  V30 5395 H 516.921 -1.84967 2.65648 0
M  V30 5396 H 515.828 0.201061 3.73559 0
M  V30 5397 H 517.161 0.244872 4.9159 0
M  V30 5398 N 518.813 -1.54241 0.323641 0
M  V30 5399 C 519.743 -2.27289 -0.534993 0
M  V30 5400 C 520.724 -1.28087 -1.11927 0
M  V30 5401 O 521.909 -1.56899 -1.14439 0
M  V30 5402 C 519.039 -3.03075 -1.69596 0
M  V30 5403 C 517.993 -4.09614 -1.24098 0
M  V30 5404 C 517.319 -4.73242 -2.4889 0
M  V30 5405 C 518.619 -5.21087 -0.355789 0
M  V30 5406 H 520.313 -2.99308 0.0743257 0
M  V30 5407 H 517.859 -1.43952 0.0371874 0
M  V30 5408 H 519.812 -3.52907 -2.30293 0
M  V30 5409 H 518.536 -2.28673 -2.33187 0
M  V30 5410 H 517.195 -3.60666 -0.656945 0
M  V30 5411 H 516.843 -3.95455 -3.10845 0
M  V30 5412 H 516.543 -5.45209 -2.19138 0
M  V30 5413 H 518.067 -5.25848 -3.10348 0
M  V30 5414 H 519.481 -5.66675 -0.869042 0
M  V30 5415 H 517.878 -5.9991 -0.151045 0
M  V30 5416 H 518.948 -4.81005 0.613339 0
M  V30 5417 N 520.291 -0.0518155 -1.57515 0
M  V30 5418 C 521.521 0.63048 -1.96745 0
M  V30 5419 C 521.929 1.64875 -0.928054 0
M  V30 5420 O 521.272 1.83449 0.0960678 0
M  V30 5421 C 521.334 1.37381 -3.32215 0
M  V30 5422 C 520.998 0.511298 -4.54131 0
M  V30 5423 C 521.995 -0.222884 -5.19422 0
M  V30 5424 C 519.68 0.442035 -5.00351 0
M  V30 5425 C 521.674 -1.01476 -6.2927 0
M  V30 5426 C 519.361 -0.35353 -6.10077 0
M  V30 5427 C 520.359 -1.08062 -6.74397 0
M  V30 5428 O 520.047 -1.8631 -7.82013 0
M  V30 5429 H 519.779 0.177126 -0.652382 0
M  V30 5430 H 522.333 -0.114726 -2.05079 0
M  V30 5431 H 520.563 2.16466 -3.20436 0
M  V30 5432 H 522.252 1.9464 -3.56188 0
M  V30 5433 H 523.018 -0.178846 -4.8467 0
M  V30 5434 H 518.897 0.997562 -4.50077 0
M  V30 5435 H 522.441 -1.58279 -6.79407 0
M  V30 5436 H 518.338 -0.399205 -6.44264 0
M  V30 5437 H 519.106 -1.78528 -7.98793 0
M  V30 5438 N 521.769 1.56035 0.221574 0
M  V30 5439 C 522.699 1.95434 1.2778 0
M  V30 5440 C 523.68 0.822564 1.48889 0
M  V30 5441 O 524.865 1.08486 1.61072 0
M  V30 5442 C 521.995 2.27102 2.62759 0
M  V30 5443 C 520.949 3.4277 2.56306 0
M  V30 5444 C 520.275 3.60043 3.95314 0
M  V30 5445 C 521.575 4.77742 2.11093 0
M  V30 5446 H 523.269 2.83912 0.950504 0
M  V30 5447 H 520.815 1.36596 0.455791 0
M  V30 5448 H 522.768 2.53256 3.36807 0
M  V30 5449 H 521.492 1.35478 2.97176 0
M  V30 5450 H 520.151 3.16664 1.84715 0
M  V30 5451 H 519.799 2.65794 4.27039 0
M  V30 5452 H 519.499 4.37841 3.91879 0
M  V30 5453 H 521.023 3.88545 4.71025 0
M  V30 5454 H 522.437 5.03102 2.74885 0
M  V30 5455 H 520.834 5.58823 2.18716 0
M  V30 5456 H 521.904 4.731 1.06321 0
M  V30 5457 N 523.247 -0.488276 1.49845 0
M  V30 5458 C 524.179 -1.60539 1.63584 0
M  V30 5459 C 525.192 -1.5434 0.517972 0
M  V30 5460 O 526.381 -1.60041 0.790516 0
M  V30 5461 C 523.481 -2.99374 1.58835 0
M  V30 5462 C 522.654 -3.30624 2.86368 0
M  V30 5463 C 521.713 -4.4893 2.74496 0
M  V30 5464 O 520.739 -4.50085 3.48443 0
M  V30 5465 N 521.941 -5.49591 1.86894 0
M  V30 5466 H 524.706 -1.49176 2.59936 0
M  V30 5467 H 522.267 -0.67639 1.47094 0
M  V30 5468 H 524.259 -3.76459 1.48529 0
M  V30 5469 H 522.829 -3.04595 0.702892 0
M  V30 5470 H 522.049 -2.42314 3.1093 0
M  V30 5471 H 523.337 -3.48305 3.70892 0
M  V30 5472 H 522.735 -5.51467 1.26097 0
M  V30 5473 H 521.292 -6.25728 1.82503 0
M  V30 5474 N 524.725 -1.39134 -0.740242 0
M  V30 5475 C 525.635 -1.39697 -1.88473 0
M  V30 5476 C 526.651 -0.292403 -1.71526 0
M  V30 5477 O 527.827 -0.533021 -1.94219 0
M  V30 5478 C 524.892 -1.23382 -3.24003 0
M  V30 5479 C 523.953 -2.43763 -3.53381 0
M  V30 5480 C 523.186 -2.28216 -4.82445 0
M  V30 5481 O 523.409 -1.28288 -5.55786 0
M  V30 5482 O 522.343 -3.1709 -5.11603 0
M  V30 5483 H 526.169 -2.36159 -1.90952 0
M  V30 5484 H 523.754 -1.20194 -0.887346 0
M  V30 5485 H 525.636 -1.16395 -4.05006 0
M  V30 5486 H 524.311 -0.300121 -3.22306 0
M  V30 5487 H 523.218 -2.56325 -2.72485 0
M  V30 5488 H 524.551 -3.35808 -3.59852 0
M  V30 5489 N 526.204 0.969867 -1.24223 0
M  V30 5490 C 527.432 1.74756 -1.10761 0
M  V30 5491 C 527.847 1.85713 0.340041 0
M  V30 5492 O 527.204 1.34389 1.23474 0
M  V30 5493 C 527.255 3.16915 -1.73917 0
M  V30 5494 O 526.976 3.06511 -3.13021 0
M  V30 5495 C 528.477 4.11032 -1.66036 0
M  V30 5496 H 525.697 0.548092 -0.387087 0
M  V30 5497 H 528.241 1.2178 -1.64286 0
M  V30 5498 H 526.396 3.66884 -1.244 0
M  V30 5499 H 526.81 3.96079 -3.43834 0
M  V30 5500 H 528.284 5.08446 -2.14911 0
M  V30 5501 H 528.761 4.34785 -0.621159 0
M  V30 5502 H 529.367 3.66972 -2.14969 0
M  V30 5503 N 527.682 1.05563 1.17022 0
M  V30 5504 C 528.929 0.767937 1.87374 0
M  V30 5505 C 529.257 -0.705224 1.81265 0
M  V30 5506 O 528.512 -1.5318 1.21796 0
M  V30 5507 C 528.811 1.19849 3.36706 0
M  V30 5508 C 528.477 2.6745 3.63017 0
M  V30 5509 C 527.139 3.0777 3.69907 0
M  V30 5510 C 529.491 3.62811 3.74189 0
M  V30 5511 C 526.819 4.42307 3.85463 0
M  V30 5512 C 529.171 4.97087 3.91264 0
M  V30 5513 C 527.835 5.37055 3.96394 0
M  V30 5514 H 527.105 0.281008 0.68565 0
M  V30 5515 H 529.752 1.32339 1.38415 0
M  V30 5516 H 528.057 0.562096 3.87747 0
M  V30 5517 H 529.754 0.953038 3.8951 0
M  V30 5518 H 526.344 2.35228 3.58282 0
M  V30 5519 H 530.528 3.32798 3.68183 0
M  V30 5520 H 525.784 4.72769 3.87684 0
M  V30 5521 H 529.958 5.70869 3.9885 0
M  V30 5522 H 527.585 6.41308 4.082 0
M  V30 5523 N 529.16 -1.33526 0.837174 0
M  V30 5524 C 530.107 -2.29248 0.267169 0
M  V30 5525 C 531.077 -1.54252 -0.616071 0
M  V30 5526 O 532.262 -1.82559 -0.554699 0
M  V30 5527 C 529.402 -3.40638 -0.553152 0
M  V30 5528 C 528.515 -4.30548 0.353921 0
M  V30 5529 C 527.65 -5.29051 -0.477339 0
M  V30 5530 C 526.689 -6.106 0.42823 0
M  V30 5531 N 525.826 -7.01152 -0.364801 0
M  V30 5532 H 530.666 -2.77398 1.08877 0
M  V30 5533 H 528.203 -1.36496 0.54838 0
M  V30 5534 H 530.161 -4.03921 -1.04422 0
M  V30 5535 H 528.791 -2.93685 -1.33973 0
M  V30 5536 H 527.843 -3.68001 0.963289 0
M  V30 5537 H 529.155 -4.87631 1.04964 0
M  V30 5538 H 528.309 -5.97853 -1.0323 0
M  V30 5539 H 527.048 -4.72541 -1.2065 0
M  V30 5540 H 526.053 -5.40718 0.995219 0
M  V30 5541 H 527.278 -6.69193 1.15573 0
M  V30 5542 H 525.224 -6.47092 -1.07738 0
M  V30 5543 H 525.141 -7.5551 0.272238 0
M  V30 5544 H 526.409 -7.74263 -0.902054 0
M  V30 5545 N 530.638 -0.59345 -1.46 0
M  V30 5546 C 532.049 -0.169801 -1.85926 0
M  V30 5547 C 532.4 1.26984 -1.49565 0
M  V30 5548 O 531.525 1.96076 -0.915602 0
M  V30 5549 C 532.12 -0.301385 -3.37457 0
M  V30 5550 C 530.679 0.0674684 -3.7634 0
M  V30 5551 C 529.826 -0.632383 -2.69993 0
M  V30 5552 H 532.777 -0.801014 -1.37002 0
M  V30 5553 H 532.798 0.470331 -3.77582 0
M  V30 5554 H 532.31 -1.34927 -3.63891 0
M  V30 5555 H 530.411 1.11507 -3.55523 0
M  V30 5556 H 530.524 -0.316332 -4.78055 0
M  V30 5557 H 528.888 -0.0714961 -2.546 0
M  V30 5558 H 529.671 -1.68212 -2.99265 0
M  V30 5559 N 532.116 1.54067 -0.331816 0
M  V30 5560 C 533.046 2.27569 0.522932 0
M  V30 5561 C 534.027 1.28679 1.11247 0
M  V30 5562 O 535.212 1.57504 1.13605 0
M  V30 5563 C 532.342 3.0397 1.67987 0
M  V30 5564 C 531.296 4.10267 1.21924 0
M  V30 5565 C 530.622 4.74555 2.46377 0
M  V30 5566 C 531.922 5.21268 0.32815 0
M  V30 5567 H 533.616 2.99264 -0.0901977 0
M  V30 5568 H 531.162 1.4393 -0.044821 0
M  V30 5569 H 533.115 3.54123 2.28418 0
M  V30 5570 H 531.839 2.29906 2.31971 0
M  V30 5571 H 530.498 3.61009 0.637809 0
M  V30 5572 H 530.146 3.97098 3.08743 0
M  V30 5573 H 529.846 5.46363 2.16243 0
M  V30 5574 H 531.37 5.27487 3.07555 0
M  V30 5575 H 532.784 5.67128 0.838978 0
M  V30 5576 H 531.181 5.99982 0.119228 0
M  V30 5577 H 532.251 4.80673 -0.638839 0
M  V30 5578 N 533.594 0.0601682 1.57485 0
M  V30 5579 C 534.84 -0.612501 1.93329 0
M  V30 5580 C 535.173 -1.6996 0.939526 0
M  V30 5581 O 534.448 -1.94472 -0.0330957 0
M  V30 5582 C 534.731 -1.20025 3.39508 0
M  V30 5583 C 534.584 -0.12059 4.49638 0
M  V30 5584 C 535.903 -2.10923 3.86264 0
M  V30 5585 H 533.022 -0.221185 0.703027 0
M  V30 5586 H 535.664 0.123768 1.89596 0
M  V30 5587 H 533.814 -1.82774 3.42821 0
M  V30 5588 H 535.486 0.51185 4.58452 0
M  V30 5589 H 533.729 0.550251 4.30296 0
M  V30 5590 H 534.4 -0.572019 5.49028 0
M  V30 5591 H 536.876 -1.58124 3.84884 0
M  V30 5592 H 535.752 -2.48987 4.8918 0
M  V30 5593 H 536.013 -3.01292 3.23536 0
M  V30 5594 N 535.072 -1.5615 -0.213296 0
M  V30 5595 C 536.02 -1.93953 -1.28394 0
M  V30 5596 C 537.014 -0.822592 -1.48087 0
M  V30 5597 O 538.22 -1.00748 -1.49164 0
M  V30 5598 H 534.595 -0.61648 -0.430646 0
M  V30 5599 H 536.566 -2.83275 -0.937977 0
M  V30 5600 C 535.315 -2.27969 -2.62537 0
M  V30 5601 H 534.638 -3.13432 -2.48194 0
M  V30 5602 H 536.078 -2.58297 -3.36242 0
M  V30 5603 C 534.537 -1.10775 -3.18167 0
M  V30 5604 O 535.067 -0.373201 -3.99963 0
M  V30 5605 N 533.273 -0.889377 -2.76656 0
M  V30 5606 H 532.82 -1.48843 -2.10246 0
M  V30 5607 H 532.778 -0.107 -3.14218 0
M  V30 5608 N 536.55 0.480323 -1.50102 0
M  V30 5609 C 537.799 1.22979 -1.59872 0
M  V30 5610 C 538.112 1.93282 -0.30022 0
M  V30 5611 O 539.318 2.70086 -0.276709 0
M  V30 5612 C 537.774 2.23408 -2.82164 0
M  V30 5613 C 537.382 1.5895 -4.18854 0
M  V30 5614 C 539.126 2.99055 -3.01275 0
M  V30 5615 C 537.033 2.57611 -5.32344 0
M  V30 5616 H 535.963 0.462707 -0.59533 0
M  V30 5617 H 538.614 0.501291 -1.7652 0
M  V30 5618 H 536.996 2.99511 -2.59055 0
M  V30 5619 H 538.17 0.887 -4.52182 0
M  V30 5620 H 536.485 0.956191 -4.05273 0
M  V30 5621 H 539.082 3.72876 -3.83233 0
M  V30 5622 H 539.425 3.57897 -2.12639 0
M  V30 5623 H 539.958 2.30066 -3.24522 0
M  V30 5624 H 536.697 2.03521 -6.23105 0
M  V30 5625 H 536.217 3.26041 -5.03445 0
M  V30 5626 H 537.896 3.19627 -5.62537 0
M  V30 5627 N 538.028 1.39524 0.732853 0
M  V30 5628 C 539.253 1.40329 1.52717 0
M  V30 5629 C 539.678 0.000286574 1.881 0
M  V30 5630 O 539.036 -0.987262 1.52062 0
M  V30 5631 C 539.084 2.28464 2.78992 0
M  V30 5632 O 538.188 1.716 3.75003 0
M  V30 5633 H 537.529 0.47778 0.461109 0
M  V30 5634 H 540.059 1.83546 0.903996 0
M  V30 5635 H 540.069 2.43051 3.27705 0
M  V30 5636 H 538.744 3.30425 2.52572 0
M  V30 5637 H 537.321 1.66267 3.33781 0
M  V30 5638 N 539.506 -0.963266 1.24736 0
M  V30 5639 C 540.917 -1.52145 1.08207 0
M  V30 5640 C 541.268 -1.93142 -0.345061 0
M  V30 5641 O 540.393 -1.77769 -1.23399 0
M  V30 5642 C 540.988 -2.76486 1.95808 0
M  V30 5643 C 539.547 -3.28646 1.8349 0
M  V30 5644 C 538.694 -2.01529 1.90476 0
M  V30 5645 H 541.645 -0.781083 1.38148 0
M  V30 5646 H 541.666 -3.49986 1.49297 0
M  V30 5647 H 541.178 -2.46617 2.99669 0
M  V30 5648 H 539.279 -3.63357 0.824787 0
M  V30 5649 H 539.392 -3.97246 2.67829 0
M  V30 5650 H 537.756 -2.16442 1.34258 0
M  V30 5651 H 538.539 -1.7402 2.95926 0
M  V30 5652 N 540.985 -1.06182 -1.16461 0
M  V30 5653 C 542.262 -0.691364 -1.82974 0
M  V30 5654 C 542.642 0.827377 -1.9421 0
M  V30 5655 O 541.99 1.73723 -1.48434 0
M  V30 5656 C 542.2 -1.39199 -3.20038 0
M  V30 5657 C 543.548 -1.53647 -3.95825 0
M  V30 5658 O 544.572 -1.35181 -3.29552 0
M  V30 5659 O 543.431 -1.83932 -5.14618 0
M  V30 5660 H 540.525 -0.244605 -0.789998 0
M  V30 5661 H 543.071 -1.16203 -1.23673 0
M  V30 5662 H 541.843 -2.42766 -3.06888 0
M  V30 5663 H 541.466 -0.911335 -3.87015 0
M  V30 5664 N 542.463 1.3308 -0.844243 0
M  V30 5665 C 543.426 2.27403 -0.286485 0
M  V30 5666 C 544.426 1.51179 0.547872 0
M  V30 5667 O 545.616 1.70421 0.360886 0
M  V30 5668 C 542.748 3.35653 0.595813 0
M  V30 5669 H 543.941 2.78248 -1.11885 0
M  V30 5670 H 541.494 1.43574 -0.617749 0
M  V30 5671 H 542.229 2.90058 1.4504 0
M  V30 5672 H 542.014 3.921 -0.00125994 0
M  V30 5673 H 543.504 4.05958 0.979168 0
M  V30 5674 N 543.941 0.601185 1.45683 0
M  V30 5675 C 545.166 0.0982245 2.07167 0
M  V30 5676 C 545.591 -1.20546 1.44396 0
M  V30 5677 O 544.949 -1.73247 0.534347 0
M  V30 5678 C 544.997 -0.0346976 3.60583 0
M  V30 5679 O 544.101 -1.08657 3.97828 0
M  V30 5680 H 543.442 0.0711618 0.660176 0
M  V30 5681 H 545.972 0.829376 1.87036 0
M  V30 5682 H 545.982 -0.234969 4.07323 0
M  V30 5683 H 544.657 0.917265 4.05659 0
M  V30 5684 H 543.234 -0.863275 3.6277 0
M  V30 5685 N 545.419 -1.53889 0.339982 0
M  V30 5686 C 546.349 -2.27843 -0.510856 0
M  V30 5687 C 547.33 -1.29267 -1.10563 0
M  V30 5688 O 548.515 -1.58104 -1.12768 0
M  V30 5689 C 545.645 -3.04857 -1.66372 0
M  V30 5690 C 544.599 -4.10907 -1.19746 0
M  V30 5691 C 543.925 -4.75855 -2.43857 0
M  V30 5692 C 545.225 -5.21435 -0.300501 0
M  V30 5693 H 546.919 -2.99212 0.106067 0
M  V30 5694 H 544.465 -1.43904 0.0524533 0
M  V30 5695 H 546.418 -3.5533 -2.26537 0
M  V30 5696 H 545.142 -2.31133 -2.30749 0
M  V30 5697 H 543.801 -3.61342 -0.618654 0
M  V30 5698 H 543.449 -3.9873 -3.06633 0
M  V30 5699 H 543.149 -5.47502 -2.13343 0
M  V30 5700 H 544.673 -5.2911 -3.04754 0
M  V30 5701 H 546.087 -5.67565 -0.80889 0
M  V30 5702 H 544.484 -6.00036 -0.0874076 0
M  V30 5703 H 545.554 -4.80328 0.664321 0
M  V30 5704 N 546.897 -0.0685191 -1.57451 0
M  V30 5705 C 548.144 0.601348 -1.93365 0
M  V30 5706 C 548.472 1.69816 -0.948294 0
M  V30 5707 O 547.727 1.95666 0.0366199 0
M  V30 5708 C 548.026 1.22051 -3.35914 0
M  V30 5709 C 547.692 0.250165 -4.50205 0
M  V30 5710 C 546.354 -0.0167954 -4.81197 0
M  V30 5711 C 548.706 -0.413867 -5.19554 0
M  V30 5712 C 546.034 -0.95493 -5.78876 0
M  V30 5713 C 548.386 -1.3403 -6.18238 0
M  V30 5714 C 547.05 -1.61576 -6.47649 0
M  V30 5715 H 546.32 0.220049 -0.707573 0
M  V30 5716 H 548.967 -0.138697 -1.90997 0
M  V30 5717 H 547.272 2.03622 -3.34732 0
M  V30 5718 H 548.969 1.74605 -3.6099 0
M  V30 5719 H 545.559 0.468421 -4.26033 0
M  V30 5720 H 549.743 -0.220733 -4.95809 0
M  V30 5721 H 544.999 -1.17563 -5.99991 0
M  V30 5722 H 549.173 -1.86081 -6.71079 0
M  V30 5723 H 546.8 -2.34431 -7.2315 0
M  V30 5724 N 548.375 1.56261 0.205012 0
M  V30 5725 C 549.652 1.70856 0.952233 0
M  V30 5726 C 550.032 0.620501 2.01775 0
M  V30 5727 O 549.38 -0.370035 2.25484 0
M  V30 5728 C 549.59 3.12807 1.54767 0
M  V30 5729 C 550.938 3.72733 2.0336 0
M  V30 5730 O 551.962 3.15873 1.64629 0
M  V30 5731 O 550.821 4.72501 2.746 0
M  V30 5732 H 547.915 0.696496 0.445895 0
M  V30 5733 H 550.461 1.6857 0.195489 0
M  V30 5734 H 549.233 3.83465 0.779132 0
M  V30 5735 H 548.856 3.1928 2.36951 0
M  V30 5736 N 549.853 -0.472356 1.50355 0
M  V30 5737 C 550.816 -1.5529 1.68576 0
M  V30 5738 C 551.816 -1.50863 0.556511 0
M  V30 5739 O 553.006 -1.53505 0.823516 0
M  V30 5740 C 550.138 -2.94921 1.70981 0
M  V30 5741 H 551.331 -1.40451 2.64978 0
M  V30 5742 H 548.884 -0.698645 1.39816 0
M  V30 5743 H 549.619 -3.15204 0.762675 0
M  V30 5744 H 549.404 -2.99541 2.53017 0
M  V30 5745 H 550.894 -3.73372 1.87037 0
M  V30 5746 N 551.331 -1.39911 -0.725443 0
M  V30 5747 C 552.577 -1.37858 -1.48738 0
M  V30 5748 C 552.91 0.0224187 -1.94187 0
M  V30 5749 O 552.185 0.989204 -1.67466 0
M  V30 5750 C 552.468 -2.3594 -2.72038 0
M  V30 5751 C 552.321 -3.85023 -2.32546 0
M  V30 5752 C 553.64 -2.31704 -3.74167 0
M  V30 5753 H 550.759 -0.502074 -0.539528 0
M  V30 5754 H 553.401 -1.70974 -0.828728 0
M  V30 5755 H 551.551 -2.0783 -3.28236 0
M  V30 5756 H 553.223 -4.2392 -1.81905 0
M  V30 5757 H 551.466 -4.01334 -1.64661 0
M  V30 5758 H 552.137 -4.49152 -3.20884 0
M  V30 5759 H 554.613 -2.5658 -3.27576 0
M  V30 5760 H 553.489 -3.02395 -4.58092 0
M  V30 5761 H 553.75 -1.3253 -4.21768 0
M  V30 5762 N 552.809 0.956637 -1.25245 0
M  V30 5763 C 554.039 1.7332 -1.12445 0
M  V30 5764 C 554.447 1.86392 0.324732 0
M  V30 5765 O 553.79 1.35967 1.23526 0
M  V30 5766 C 553.852 3.16603 -1.70303 0
M  V30 5767 C 553.516 3.26966 -3.19284 0
M  V30 5768 C 554.513 3.11434 -4.16299 0
M  V30 5769 C 552.198 3.50851 -3.59456 0
M  V30 5770 C 554.192 3.1963 -5.51467 0
M  V30 5771 C 551.879 3.58684 -4.94761 0
M  V30 5772 C 552.877 3.43087 -5.90576 0
M  V30 5773 O 552.565 3.50598 -7.2342 0
M  V30 5774 H 552.297 0.549981 -0.393061 0
M  V30 5775 H 554.851 1.20892 -1.66055 0
M  V30 5776 H 553.081 3.70385 -1.11138 0
M  V30 5777 H 554.77 3.76109 -1.52632 0
M  V30 5778 H 555.536 2.92853 -3.86604 0
M  V30 5779 H 551.415 3.62053 -2.85375 0
M  V30 5780 H 554.959 3.07373 -6.26233 0
M  V30 5781 H 550.856 3.76782 -5.24124 0
M  V30 5782 H 551.624 3.67242 -7.31489 0
M  V30 5783 N 554.287 1.06798 1.15896 0
M  V30 5784 C 555.512 0.808739 1.90982 0
M  V30 5785 C 555.937 -0.6316 1.77179 0
M  V30 5786 O 555.295 -1.4407 1.10061 0
M  V30 5787 C 555.343 1.21468 3.39526 0
M  V30 5788 O 554.447 0.356562 4.10856 0
M  V30 5789 H 553.788 0.29512 0.594811 0
M  V30 5790 H 556.318 1.42513 1.46804 0
M  V30 5791 H 556.328 1.18844 3.90308 0
M  V30 5792 H 555.003 2.26379 3.48891 0
M  V30 5793 H 553.58 0.444808 3.70238 0
M  V30 5794 N 555.766 -1.3263 0.851289 0
M  V30 5795 C 556.696 -2.31449 0.308771 0
M  V30 5796 C 557.677 -1.59531 -0.590255 0
M  V30 5797 O 558.862 -1.87351 -0.511205 0
M  V30 5798 C 555.992 -3.43586 -0.506548 0
M  V30 5799 C 554.946 -4.26963 0.297753 0
M  V30 5800 C 554.272 -5.30831 -0.642094 0
M  V30 5801 C 555.572 -4.99643 1.52166 0
M  V30 5802 H 557.266 -2.77074 1.13447 0
M  V30 5803 H 554.812 -1.33207 0.546971 0
M  V30 5804 H 556.765 -4.11754 -0.896474 0
M  V30 5805 H 555.489 -2.96681 -1.36558 0
M  V30 5806 H 554.148 -3.60437 0.669391 0
M  V30 5807 H 553.796 -4.8018 -1.49788 0
M  V30 5808 H 553.496 -5.87501 -0.107968 0
M  V30 5809 H 555.02 -6.01862 -1.02927 0
M  V30 5810 H 556.434 -5.6051 1.20421 0
M  V30 5811 H 554.831 -5.66022 1.99347 0
M  V30 5812 H 555.901 -4.27701 2.28474 0
M  V30 5813 N 557.244 -0.608902 -1.45362 0
M  V30 5814 C 558.493 -0.10218 -2.01441 0
M  V30 5815 C 558.806 1.27546 -1.48295 0
M  V30 5816 O 560.012 1.87498 -1.96359 0
M  V30 5817 C 558.468 -0.131985 -3.59658 0
M  V30 5818 C 558.076 -1.50956 -4.21801 0
M  V30 5819 C 559.82 0.319427 -4.23296 0
M  V30 5820 C 557.727 -1.49568 -5.72174 0
M  V30 5821 H 556.657 -0.0344314 -0.753213 0
M  V30 5822 H 559.308 -0.764426 -1.6682 0
M  V30 5823 H 557.69 0.596939 -3.91475 0
M  V30 5824 H 558.864 -2.26029 -4.01556 0
M  V30 5825 H 557.179 -1.90318 -3.70362 0
M  V30 5826 H 559.776 0.349013 -5.3356 0
M  V30 5827 H 560.119 1.34237 -3.94064 0
M  V30 5828 H 560.652 -0.356273 -3.96201 0
M  V30 5829 H 557.391 -2.49626 -6.06108 0
M  V30 5830 H 556.911 -0.787542 -5.94607 0
M  V30 5831 H 558.59 -1.21989 -6.35396 0
M  V30 5832 N 558.722 1.53707 -0.348139 0
M  V30 5833 C 559.669 2.25173 0.506518 0
M  V30 5834 C 560.639 1.25174 1.09182 0
M  V30 5835 O 561.824 1.53917 1.12757 0
M  V30 5836 C 558.964 3.03141 1.64923 0
M  V30 5837 C 558.077 4.18002 1.0908 0
M  V30 5838 C 557.212 4.83447 2.20119 0
M  V30 5839 C 556.251 5.90369 1.61651 0
M  V30 5840 N 555.388 6.49575 2.66451 0
M  V30 5841 H 560.228 2.97799 -0.109452 0
M  V30 5842 H 557.765 1.46953 -0.0657866 0
M  V30 5843 H 559.723 3.46607 2.32205 0
M  V30 5844 H 558.353 2.32803 2.23612 0
M  V30 5845 H 557.405 3.79145 0.308783 0
M  V30 5846 H 558.717 4.94892 0.623178 0
M  V30 5847 H 557.871 5.30008 2.95257 0
M  V30 5848 H 556.61 4.05991 2.70227 0
M  V30 5849 H 555.615 5.43186 0.850209 0
M  V30 5850 H 556.84 6.69735 1.1239 0
M  V30 5851 H 554.786 5.74981 3.15805 0
M  V30 5852 H 554.703 7.21952 2.24325 0
M  V30 5853 H 555.971 7.00789 3.41344 0
M  V30 5854 N 560.2 0.0768682 1.57412 0
M  V30 5855 C 561.148 -0.906229 2.1422 0
M  V30 5856 C 562.142 -1.30477 1.08037 0
M  V30 5857 O 563.348 -1.28143 1.2641 0
M  V30 5858 H 559.723 -0.310207 0.685037 0
M  V30 5859 H 561.694 -0.402228 2.95677 0
M  V30 5860 C 560.443 -2.16245 2.72274 0
M  V30 5861 H 559.766 -1.86463 3.53655 0
M  V30 5862 H 561.206 -2.83134 3.15613 0
M  V30 5863 C 559.665 -2.92437 1.67279 0
M  V30 5864 O 560.195 -3.86322 1.10081 0
M  V30 5865 N 558.401 -2.55637 1.38195 0
M  V30 5866 H 557.948 -1.79363 1.84897 0
M  V30 5867 H 557.906 -3.06919 0.681787 0
M  V30 5868 N 561.678 -1.56367 -0.196722 0
M  V30 5869 C 562.625 -1.94417 -1.24382 0
M  V30 5870 C 563.595 -0.804543 -1.45315 0
M  V30 5871 O 564.78 -1.06256 -1.58475 0
M  V30 5872 C 561.92 -2.28757 -2.58388 0
M  V30 5873 C 561.033 -3.55775 -2.45047 0
M  V30 5874 C 560.168 -3.79445 -3.71746 0
M  V30 5875 C 559.207 -4.99894 -3.53231 0
M  V30 5876 N 558.344 -5.19826 -4.71938 0
M  V30 5877 H 563.184 -2.83691 -0.912338 0
M  V30 5878 H 560.721 -1.40392 -0.439135 0
M  V30 5879 H 562.679 -2.46682 -3.36457 0
M  V30 5880 H 561.309 -1.42625 -2.89582 0
M  V30 5881 H 560.361 -3.45905 -1.58284 0
M  V30 5882 H 561.673 -4.44 -2.27299 0
M  V30 5883 H 560.827 -3.97601 -4.58256 0
M  V30 5884 H 559.566 -2.89546 -3.92446 0
M  V30 5885 H 558.571 -4.81662 -2.65107 0
M  V30 5886 H 559.796 -5.913 -3.33978 0
M  V30 5887 H 557.742 -4.32875 -4.92905 0
M  V30 5888 H 557.659 -6.02228 -4.57009 0
M  V30 5889 H 558.927 -5.42439 -5.59803 0
M  V30 5890 N 563.156 0.464375 -1.50603 0
M  V30 5891 C 564.405 1.21277 -1.61167 0
M  V30 5892 C 564.718 1.92953 -0.320704 0
M  V30 5893 O 565.924 2.69778 -0.30534 0
M  V30 5894 C 564.38 2.20403 -2.84518 0
M  V30 5895 C 563.988 1.54499 -4.20516 0
M  V30 5896 C 565.732 2.95843 -3.0443 0
M  V30 5897 C 563.639 2.51951 -5.35047 0
M  V30 5898 H 562.569 0.456367 -0.600204 0
M  V30 5899 H 565.22 0.48254 -1.77042 0
M  V30 5900 H 563.602 2.96746 -2.62217 0
M  V30 5901 H 564.776 0.83899 -4.53098 0
M  V30 5902 H 563.091 0.913152 -4.06264 0
M  V30 5903 H 565.688 3.6879 -3.87167 0
M  V30 5904 H 566.031 3.55622 -2.16423 0
M  V30 5905 H 566.564 2.26611 -3.26944 0
M  V30 5906 H 563.303 1.96901 -6.25228 0
M  V30 5907 H 562.823 3.20683 -5.06875 0
M  V30 5908 H 564.502 3.13643 -5.65895 0
M  V30 5909 N 564.634 1.40294 0.718013 0
M  V30 5910 C 565.584 1.36847 1.82365 0
M  V30 5911 C 566.568 0.246424 1.59002 0
M  V30 5912 O 567.76 0.485336 1.70216 0
M  V30 5913 C 564.889 1.23105 3.20469 0
M  V30 5914 C 563.975 2.4008 3.49603 0
M  V30 5915 N 564.366 3.65562 3.49568 0
M  V30 5916 C 562.664 2.33407 3.80049 0
M  V30 5917 C 563.365 4.43015 3.76978 0
M  V30 5918 N 562.341 3.72823 3.95606 0
M  V30 5919 H 566.143 2.31811 1.80668 0
M  V30 5920 H 563.657 1.34031 0.91703 0
M  V30 5921 H 565.654 1.18718 3.9964 0
M  V30 5922 H 564.314 0.291056 3.23393 0
M  V30 5923 H 565.325 3.98756 3.30476 0
M  V30 5924 H 562.002 1.47762 3.90478 0
M  V30 5925 H 563.392 5.51859 3.83276 0
M  V30 5926 N 566.112 -0.949982 1.2575 0
M  V30 5927 C 567.528 -1.22191 1.02672 0
M  V30 5928 C 567.728 -1.99898 -0.253588 0
M  V30 5929 O 566.784 -2.33329 -0.965076 0
M  V30 5930 C 568.097 -1.99175 2.25277 0
M  V30 5931 C 569.645 -2.12201 2.30087 0
M  V30 5932 C 570.12 -2.92586 3.5236 0
M  V30 5933 N 571.611 -3.00163 3.52784 0
M  V30 5934 C 572.346 -3.62766 4.44059 0
M  V30 5935 N 571.842 -4.26943 5.45611 0
M  V30 5936 N 573.635 -3.59953 4.3173 0
M  V30 5937 H 565.786 -0.430258 2.07996 0
M  V30 5938 H 568.049 -0.252844 0.91366 0
M  V30 5939 H 567.755 -1.49479 3.18354 0
M  V30 5940 H 567.629 -2.99868 2.28821 0
M  V30 5941 H 570.016 -2.61093 1.3753 0
M  V30 5942 H 570.097 -1.10799 2.30559 0
M  V30 5943 H 569.741 -2.44383 4.45241 0
M  V30 5944 H 569.671 -3.94224 3.49134 0
M  V30 5945 H 572.162 -2.54529 2.79327 0
M  V30 5946 H 572.475 -4.72583 6.11461 0
M  V30 5947 H 570.82 -4.25557 5.49478 0
M  V30 5948 H 574.011 -3.09003 3.51617 0
M  V30 5949 H 574.184 -4.08455 5.03059 0
M  V30 5950 N 567.59 -1.07411 -1.15328 0
M  V30 5951 C 568.52 -0.716472 -2.22236 0
M  V30 5952 C 569.501 0.296373 -1.67498 0
M  V30 5953 O 570.686 0.168989 -1.93463 0
M  V30 5954 C 567.816 -0.114142 -3.47112 0
M  V30 5955 C 566.77 -1.05421 -4.14814 0
M  V30 5956 C 566.096 -0.314604 -5.33774 0
M  V30 5957 C 567.396 -2.38808 -4.64508 0
M  V30 5958 H 569.09 -1.61029 -2.52408 0
M  V30 5959 H 566.636 -0.775702 -1.21321 0
M  V30 5960 H 568.589 0.148001 -4.2114 0
M  V30 5961 H 567.313 0.814755 -3.16274 0
M  V30 5962 H 565.972 -1.30128 -3.42728 0
M  V30 5963 H 565.62 0.617772 -4.99192 0
M  V30 5964 H 565.32 -0.941209 -5.80013 0
M  V30 5965 H 566.844 -0.0602747 -6.1057 0
M  V30 5966 H 568.258 -2.18424 -5.3006 0
M  V30 5967 H 566.655 -2.97069 -5.21412 0
M  V30 5968 H 567.725 -3.01067 -3.80114 0
M  V30 5969 N 569.068 1.32177 -0.85831 0
M  V30 5970 C 570.479 1.79381 -0.517621 0
M  V30 5971 C 570.83 1.70841 0.964769 0
M  V30 5972 O 569.955 1.26917 1.75274 0
M  V30 5973 C 570.55 3.25706 -0.932801 0
M  V30 5974 C 569.109 3.70851 -0.643953 0
M  V30 5975 C 568.256 2.53208 -1.13054 0
M  V30 5976 H 571.207 1.19424 -1.04516 0
M  V30 5977 H 571.228 3.79673 -0.250674 0
M  V30 5978 H 570.74 3.31889 -2.01174 0
M  V30 5979 H 568.841 3.70178 0.424112 0
M  V30 5980 H 568.954 4.63495 -1.21281 0
M  V30 5981 H 567.318 2.48676 -0.550679 0
M  V30 5982 H 568.101 2.62143 -2.21666 0
M  V30 5983 N 570.547 0.616602 1.45037 0
M  V30 5984 C 571.793 0.115501 2.02471 0
M  V30 5985 C 572.126 -1.25406 1.4828 0
M  V30 5986 O 571.401 -1.82922 0.661051 0
M  V30 5987 C 571.684 0.0863588 3.59996 0
M  V30 5988 C 571.537 1.48723 4.24501 0
M  V30 5989 C 572.856 -0.596762 4.36035 0
M  V30 5990 H 569.975 0.0434461 0.735718 0
M  V30 5991 H 572.617 0.7903 1.72784 0
M  V30 5992 H 570.767 -0.488277 3.85419 0
M  V30 5993 H 572.439 2.10964 4.10234 0
M  V30 5994 H 570.682 2.04534 3.82555 0
M  V30 5995 H 571.353 1.419 5.3345 0
M  V30 5996 H 573.829 -0.10824 4.15959 0
M  V30 5997 H 572.705 -0.586289 5.4576 0
M  V30 5998 H 572.966 -1.66451 4.09569 0
M  V30 5999 N 572.025 -1.5352 0.356285 0
M  V30 6000 C 573.274 -2.00298 -0.237373 0
M  V30 6001 C 573.587 -1.24784 -1.50627 0
M  V30 6002 O 574.793 -1.62103 -2.17795 0
M  V30 6003 C 573.249 -3.56771 -0.473545 0
M  V30 6004 C 572.857 -4.41154 0.780183 0
M  V30 6005 C 574.601 -4.1193 -1.02537 0
M  V30 6006 C 572.508 -5.89161 0.514108 0
M  V30 6007 H 571.438 -0.748307 -0.092478 0
M  V30 6008 H 574.089 -1.77283 0.473588 0
M  V30 6009 H 572.471 -3.75902 -1.24553 0
M  V30 6010 H 573.645 -4.33797 1.55425 0
M  V30 6011 H 571.96 -3.97052 1.25455 0
M  V30 6012 H 574.557 -5.20133 -1.2396 0
M  V30 6013 H 574.9 -3.65943 -1.98473 0
M  V30 6014 H 575.433 -3.96561 -0.313775 0
M  V30 6015 H 572.172 -6.39408 1.44355 0
M  V30 6016 H 571.692 -5.9939 -0.221632 0
M  V30 6017 H 573.371 -6.46857 0.136122 0
M  V30 6018 N 573.503 -0.0852151 -1.57369 0
M  V30 6019 C 574.78 0.622534 -1.85429 0
M  V30 6020 C 575.16 1.86962 -0.980229 0
M  V30 6021 O 574.508 2.28445 -0.0500219 0
M  V30 6022 C 574.718 0.947374 -3.35896 0
M  V30 6023 C 576.066 1.31509 -4.03721 0
M  V30 6024 O 577.09 1.03869 -3.40719 0
M  V30 6025 O 575.949 1.83231 -5.14868 0
M  V30 6026 H 573.043 0.310513 -0.766492 0
M  V30 6027 H 575.589 -0.117164 -1.69295 0
M  V30 6028 H 574.361 0.0622264 -3.91251 0
M  V30 6029 H 573.984 1.74338 -3.5734 0
M  V30 6030 N 574.981 1.5647 0.188427 0
M  V30 6031 C 576.392 1.70864 0.752494 0
M  V30 6032 C 576.743 0.692905 1.83557 0
M  V30 6033 O 575.868 -0.149307 2.15884 0
M  V30 6034 C 576.463 3.09789 1.37173 0
M  V30 6035 C 575.022 3.25925 1.88281 0
M  V30 6036 C 574.169 2.66817 0.755259 0
M  V30 6037 H 577.12 1.58657 -0.0367408 0
M  V30 6038 H 577.141 3.07489 2.24122 0
M  V30 6039 H 576.653 3.83693 0.583219 0
M  V30 6040 H 574.754 2.56948 2.6983 0
M  V30 6041 H 574.867 4.33498 2.04001 0
M  V30 6042 H 573.231 2.2617 1.17128 0
M  V30 6043 H 574.014 3.43294 -0.0211237 0
M  V30 6044 N 576.459 -0.456382 1.50847 0
M  V30 6045 C 577.708 -1.2042 1.61808 0
M  V30 6046 C 578.021 -1.9278 0.330932 0
M  V30 6047 O 579.227 -2.69612 0.319643 0
M  V30 6048 C 577.683 -2.18891 2.85683 0
M  V30 6049 C 577.291 -1.52267 4.2133 0
M  V30 6050 C 579.035 -2.94224 3.05994 0
M  V30 6051 C 576.942 -2.4911 5.36375 0
M  V30 6052 H 575.872 -0.453177 0.602616 0
M  V30 6053 H 578.523 -0.473144 1.77295 0
M  V30 6054 H 576.905 -2.95351 2.63787 0
M  V30 6055 H 578.079 -0.814949 4.53536 0
M  V30 6056 H 576.394 -0.891594 4.06743 0
M  V30 6057 H 578.991 -3.66732 3.89117 0
M  V30 6058 H 579.334 -3.54469 2.18306 0
M  V30 6059 H 579.867 -2.24874 3.28141 0
M  V30 6060 H 576.606 -1.93582 6.26264 0
M  V30 6061 H 576.126 -3.17991 5.08569 0
M  V30 6062 H 577.805 -3.10637 5.67551 0
M  V30 6063 N 577.937 -1.40673 -0.710563 0
M  V30 6064 C 579.162 -1.42741 -1.50465 0
M  V30 6065 C 579.587 -0.0302116 -1.88076 0
M  V30 6066 O 578.945 0.962945 -1.53613 0
M  V30 6067 C 578.993 -2.32873 -2.75322 0
M  V30 6068 O 578.097 -1.77544 -3.72226 0
M  V30 6069 H 577.438 -0.485056 -0.45345 0
M  V30 6070 H 579.968 -1.84961 -0.874681 0
M  V30 6071 H 579.978 -2.48233 -3.23797 0
M  V30 6072 H 578.653 -3.34401 -2.47283 0
M  V30 6073 H 577.23 -1.71556 -3.31093 0
M  V30 6074 N 579.415 0.9433 -1.26252 0
M  V30 6075 C 580.663 1.68592 -1.11451 0
M  V30 6076 C 580.984 1.91957 0.343123 0
M  V30 6077 O 580.254 1.51475 1.24226 0
M  V30 6078 H 578.834 0.624789 -0.409448 0
M  V30 6079 H 581.496 1.13351 -1.58548 0
M  V30 6080 H 580.592 2.66054 -1.63162 0
M  V30 6081 N 580.893 1.08022 1.14757 0
M  V30 6082 C 581.841 0.701088 2.21783 0
M  V30 6083 C 582.835 -0.291311 1.66876 0
M  V30 6084 O 584.041 -0.154296 1.79337 0
M  V30 6085 H 580.416 0.208668 0.722469 0
M  V30 6086 H 582.387 1.61321 2.51034 0
M  V30 6087 C 581.136 0.122278 3.47485 0
M  V30 6088 H 580.459 0.877065 3.90061 0
M  V30 6089 H 581.899 -0.105248 4.23869 0
M  V30 6090 C 580.358 -1.13883 3.17068 0
M  V30 6091 O 580.888 -2.22429 3.34497 0
M  V30 6092 N 579.094 -1.04767 2.71058 0
M  V30 6093 H 578.641 -0.164302 2.57075 0
M  V30 6094 H 578.599 -1.89224 2.51081 0
M  V30 6095 N 582.371 -1.3172 0.865308 0
M  V30 6096 C 583.334 -2.26918 0.322627 0
M  V30 6097 C 584.334 -1.52031 -0.523751 0
M  V30 6098 O 585.524 -1.70973 -0.333727 0
M  V30 6099 C 582.656 -3.36558 -0.542338 0
M  V30 6100 H 583.849 -2.76432 1.16298 0
M  V30 6101 H 581.402 -1.42573 0.640512 0
M  V30 6102 H 582.137 -2.92329 -1.40407 0
M  V30 6103 H 581.922 -3.92048 0.0636395 0
M  V30 6104 H 583.412 -4.07465 -0.91446 0
M  V30 6105 N 583.85 -0.624285 -1.44708 0
M  V30 6106 C 584.779 0.0717025 -2.3339 0
M  V30 6107 C 585.76 0.841814 -1.47809 0
M  V30 6108 O 586.946 0.809056 -1.76544 0
M  V30 6109 C 584.076 1.05852 -3.30776 0
M  V30 6110 C 583.029 0.400503 -4.26122 0
M  V30 6111 C 582.356 1.49674 -5.13324 0
M  V30 6112 C 583.656 -0.688924 -5.17737 0
M  V30 6113 H 585.35 -0.668819 -2.91834 0
M  V30 6114 H 582.896 -0.32308 -1.40329 0
M  V30 6115 H 584.849 1.5541 -3.91696 0
M  V30 6116 H 583.572 1.82984 -2.70526 0
M  V30 6117 H 582.231 -0.0743687 -3.66525 0
M  V30 6118 H 581.88 2.25877 -4.49431 0
M  V30 6119 H 581.58 1.06188 -5.77926 0
M  V30 6120 H 583.104 1.99427 -5.77115 0
M  V30 6121 H 584.518 -0.276724 -5.72632 0
M  V30 6122 H 582.915 -1.04652 -5.90904 0
M  V30 6123 H 583.985 -1.55884 -4.5916 0
M  V30 6124 N 585.328 1.53329 -0.364422 0
M  V30 6125 C 586.558 2.05359 0.226096 0
M  V30 6126 C 586.966 1.23777 1.43094 0
M  V30 6127 O 586.309 0.271139 1.81688 0
M  V30 6128 C 586.371 3.52918 0.684794 0
M  V30 6129 C 586.035 4.55218 -0.403206 0
M  V30 6130 C 587.032 5.04583 -1.2527 0
M  V30 6131 C 584.717 4.99134 -0.563117 0
M  V30 6132 C 586.711 5.96463 -2.24745 0
M  V30 6133 C 584.398 5.9082 -1.56124 0
M  V30 6134 C 585.396 6.39375 -2.40184 0
M  V30 6135 O 585.084 7.29255 -3.38293 0
M  V30 6136 H 584.816 0.674588 0.0436772 0
M  V30 6137 H 587.37 1.98688 -0.520782 0
M  V30 6138 H 585.6 3.57122 1.48326 0
M  V30 6139 H 587.289 3.87812 1.19818 0
M  V30 6140 H 588.055 4.71403 -1.14034 0
M  V30 6141 H 583.934 4.60928 0.0813909 0
M  V30 6142 H 587.478 6.34285 -2.90393 0
M  V30 6143 H 583.375 6.23414 -1.67407 0
M  V30 6144 H 584.143 7.47249 -3.34009 0
M  V30 6145 N 586.806 0.0935595 1.57322 0
M  V30 6146 C 588.055 -0.570191 1.93473 0
M  V30 6147 C 588.368 -1.69434 0.977318 0
M  V30 6148 O 589.574 -2.41914 1.23248 0
M  V30 6149 C 588.03 -1.06564 3.43762 0
M  V30 6150 C 587.638 0.0286723 4.47991 0
M  V30 6151 C 589.382 -1.70221 3.88877 0
M  V30 6152 C 587.289 -0.482046 5.89432 0
M  V30 6153 H 586.219 -0.216764 0.72217 0
M  V30 6154 H 588.87 0.169313 1.82717 0
M  V30 6155 H 587.252 -1.85878 3.49664 0
M  V30 6156 H 588.426 0.804106 4.5373 0
M  V30 6157 H 586.741 0.570336 4.12476 0
M  V30 6158 H 589.338 -2.09502 4.91948 0
M  V30 6159 H 589.681 -2.57078 3.27439 0
M  V30 6160 H 590.214 -0.974919 3.85668 0
M  V30 6161 H 586.953 0.349871 6.54566 0
M  V30 6162 H 586.473 -1.22452 5.87167 0
M  V30 6163 H 588.152 -0.951508 6.39965 0
M  V30 6164 N 588.284 -1.56567 -0.180126 0
M  V30 6165 C 589.214 -1.98753 -1.22553 0
M  V30 6166 C 590.195 -0.86175 -1.46656 0
M  V30 6167 O 591.38 -1.12719 -1.58139 0
M  V30 6168 C 588.51 -2.33988 -2.56645 0
M  V30 6169 C 587.464 -3.49445 -2.47128 0
M  V30 6170 C 586.79 -3.70397 -3.8563 0
M  V30 6171 C 588.09 -4.83171 -1.98352 0
M  V30 6172 H 589.784 -2.86332 -0.874896 0
M  V30 6173 H 587.33 -1.37757 -0.419414 0
M  V30 6174 H 589.283 -2.62097 -3.29974 0
M  V30 6175 H 588.007 -1.43309 -2.93479 0
M  V30 6176 H 586.666 -3.2145 -1.76254 0
M  V30 6177 H 586.314 -2.77023 -4.19842 0
M  V30 6178 H 586.014 -4.48077 -3.80132 0
M  V30 6179 H 587.538 -4.00897 -4.60558 0
M  V30 6180 H 588.952 -5.10213 -2.61449 0
M  V30 6181 H 587.349 -5.64425 -2.03823 0
M  V30 6182 H 588.419 -4.75753 -0.937402 0
M  V30 6183 N 589.762 0.448376 -1.51087 0
M  V30 6184 C 590.99 1.22143 -1.66999 0
M  V30 6185 C 591.405 1.85283 -0.362699 0
M  V30 6186 O 590.762 1.70236 0.65772 0
M  V30 6187 C 590.813 2.31357 -2.7777 0
M  V30 6188 O 590.534 1.70801 -4.03434 0
M  V30 6189 C 592.035 3.21836 -3.04855 0
M  V30 6190 H 589.255 0.368558 -0.560719 0
M  V30 6191 H 591.799 0.532618 -1.97442 0
M  V30 6192 H 589.954 2.95973 -2.49958 0
M  V30 6193 H 590.368 2.42895 -4.64868 0
M  V30 6194 H 591.842 3.94627 -3.85971 0
M  V30 6195 H 592.319 3.81949 -2.16821 0
M  V30 6196 H 592.925 2.62933 -3.34285 0
M  V30 6197 N 591.24 1.41047 0.703093 0
M  V30 6198 C 592.19 1.38774 1.80903 0
M  V30 6199 C 593.174 0.263275 1.58731 0
M  V30 6200 O 594.366 0.503362 1.69692 0
M  V30 6201 C 591.495 1.26497 3.19145 0
M  V30 6202 C 590.581 2.43775 3.47037 0
M  V30 6203 N 590.972 3.69249 3.45672 0
M  V30 6204 C 589.27 2.37425 3.77552 0
M  V30 6205 C 589.971 4.46989 3.72258 0
M  V30 6206 N 588.947 3.76998 3.91629 0
M  V30 6207 H 592.749 2.33714 1.78199 0
M  V30 6208 H 590.263 1.34996 0.902762 0
M  V30 6209 H 592.26 1.2295 3.98358 0
M  V30 6210 H 590.92 0.32534 3.23066 0
M  V30 6211 H 591.931 4.02239 3.26228 0
M  V30 6212 H 588.608 1.51895 3.88888 0
M  V30 6213 H 589.998 5.55894 3.77402 0
M  V30 6214 N 592.718 -0.936591 1.26751 0
M  V30 6215 C 593.665 -2.03597 1.08706 0
M  V30 6216 C 594.635 -1.66097 -0.00926542 0
M  V30 6217 O 595.82 -1.90199 0.151377 0
M  V30 6218 C 592.96 -3.3727 0.73094 0
M  V30 6219 C 592.073 -3.87778 1.90399 0
M  V30 6220 C 591.208 -5.09859 1.49056 0
M  V30 6221 C 590.247 -5.5264 2.63164 0
M  V30 6222 N 589.384 -6.65921 2.22471 0
M  V30 6223 H 594.224 -2.18364 2.02784 0
M  V30 6224 H 591.761 -1.06985 1.00958 0
M  V30 6225 H 593.719 -4.14128 0.505328 0
M  V30 6226 H 592.349 -3.22337 -0.172868 0
M  V30 6227 H 591.401 -3.07279 2.2424 0
M  V30 6228 H 592.713 -4.15464 2.76028 0
M  V30 6229 H 591.867 -5.9419 1.22567 0
M  V30 6230 H 590.606 -4.8393 0.60524 0
M  V30 6231 H 589.611 -4.66863 2.90377 0
M  V30 6232 H 590.836 -5.80568 3.52303 0
M  V30 6233 H 588.782 -6.41667 1.36379 0
M  V30 6234 H 588.699 -6.93216 3.01641 0
M  V30 6235 H 589.967 -7.53616 1.99205 0
M  V30 6236 N 594.196 -1.08629 -1.14182 0
M  V30 6237 C 595.612 -0.814363 -1.3726 0
M  V30 6238 C 595.812 0.575271 -1.93114 0
M  V30 6239 O 594.868 1.33165 -2.1453 0
M  V30 6240 C 596.181 -1.8989 -2.33157 0
M  V30 6241 C 597.729 -1.92518 -2.46791 0
M  V30 6242 C 598.204 -3.00092 -3.45989 0
M  V30 6243 N 599.695 -2.99279 -3.53534 0
M  V30 6244 C 600.43 -3.79158 -4.30147 0
M  V30 6245 N 599.926 -4.68923 -5.09983 0
M  V30 6246 N 601.719 -3.67451 -4.25366 0
M  V30 6247 H 593.87 -1.98232 -0.762758 0
M  V30 6248 H 596.133 -0.860383 -0.398051 0
M  V30 6249 H 595.839 -2.89809 -1.99257 0
M  V30 6250 H 595.713 -1.77013 -3.33086 0
M  V30 6251 H 598.1 -0.932425 -2.79982 0
M  V30 6252 H 598.181 -2.09473 -1.46816 0
M  V30 6253 H 597.825 -3.99575 -3.13532 0
M  V30 6254 H 597.755 -2.80382 -4.45751 0
M  V30 6255 H 600.246 -2.3422 -2.96563 0
M  V30 6256 H 600.559 -5.26475 -5.65724 0
M  V30 6257 H 598.904 -4.72964 -5.09244 0
M  V30 6258 H 602.095 -2.9669 -3.62067 0
M  V30 6259 H 602.268 -4.29944 -4.84822 0
M  V30 6260 N 595.674 1.31259 -0.872281 0
M  V30 6261 C 596.923 1.95893 -0.480493 0
M  V30 6262 C 597.236 1.697 0.972688 0
M  V30 6263 O 598.442 2.28214 1.47073 0
M  V30 6264 C 596.898 3.50705 -0.808342 0
M  V30 6265 C 596.506 3.85735 -2.27844 0
M  V30 6266 C 598.25 4.21719 -0.485136 0
M  V30 6267 C 596.157 5.33668 -2.54858 0
M  V30 6268 H 595.087 0.733182 -0.175955 0
M  V30 6269 H 597.738 1.49396 -1.0655 0
M  V30 6270 H 596.12 3.95706 -0.152558 0
M  V30 6271 H 597.294 3.51686 -2.97748 0
M  V30 6272 H 595.609 3.27792 -2.56791 0
M  V30 6273 H 598.206 5.30559 -0.664166 0
M  V30 6274 H 598.549 4.12316 0.574592 0
M  V30 6275 H 599.082 3.82359 -1.09756 0
M  V30 6276 H 595.821 5.48109 -3.59523 0
M  V30 6277 H 595.341 5.69061 -1.8955 0
M  V30 6278 H 597.02 6.00958 -2.39706 0
M  V30 6279 N 597.152 0.631951 1.44375 0
M  V30 6280 C 598.082 -0.0593243 2.33425 0
M  V30 6281 C 599.063 -0.833964 1.48253 0
M  V30 6282 O 600.248 -0.799682 1.76971 0
M  V30 6283 C 597.378 -1.04096 3.31333 0
M  V30 6284 C 596.332 -0.377899 4.26328 0
M  V30 6285 C 595.658 -1.4695 5.14111 0
M  V30 6286 C 596.958 0.716371 5.17364 0
M  V30 6287 H 598.652 0.684287 2.91475 0
M  V30 6288 H 596.198 0.330518 1.40156 0
M  V30 6289 H 598.151 -1.53331 3.92514 0
M  V30 6290 H 596.875 -1.81547 2.71493 0
M  V30 6291 H 595.534 0.0938054 3.6648 0
M  V30 6292 H 595.182 -2.2349 4.50623 0
M  V30 6293 H 594.882 -1.03121 5.78481 0
M  V30 6294 H 596.406 -1.96363 5.78164 0
M  V30 6295 H 597.82 0.307089 5.72477 0
M  V30 6296 H 596.217 1.07784 5.90341 0
M  V30 6297 H 597.287 1.58316 4.58327 0
M  V30 6298 N 598.631 -1.53133 0.372548 0
M  V30 6299 C 599.578 -2.25951 -0.470631 0
M  V30 6300 C 600.548 -1.26895 -1.07176 0
M  V30 6301 O 601.733 -1.55691 -1.10294 0
M  V30 6302 C 598.873 -3.05726 -1.6008 0
M  V30 6303 C 597.986 -4.19684 -1.02416 0
M  V30 6304 C 597.121 -4.86888 -2.124 0
M  V30 6305 C 596.16 -5.92866 -1.52238 0
M  V30 6306 N 595.297 -6.53732 -2.56084 0
M  V30 6307 H 600.137 -2.97587 0.156816 0
M  V30 6308 H 597.674 -1.4683 0.0891571 0
M  V30 6309 H 599.632 -3.50258 -2.26661 0
M  V30 6310 H 598.262 -2.36331 -2.1988 0
M  V30 6311 H 597.314 -3.79588 -0.248426 0
M  V30 6312 H 598.626 -4.95821 -0.544366 0
M  V30 6313 H 597.78 -5.34638 -2.86787 0
M  V30 6314 H 596.519 -4.10239 -2.63734 0
M  V30 6315 H 595.524 -5.4447 -0.763685 0
M  V30 6316 H 596.749 -6.71439 -1.0172 0
M  V30 6317 H 594.695 -5.79932 -3.06618 0
M  V30 6318 H 594.612 -7.25429 -2.12811 0
M  V30 6319 H 595.88 -7.0613 -3.30152 0
M  V30 6320 N 600.109 -0.101901 -1.5727 0
M  V30 6321 C 601.356 0.560197 -1.94597 0
M  V30 6322 C 601.684 1.67767 -0.984101 0
M  V30 6323 O 600.939 1.95699 -0.00489193 0
M  V30 6324 C 601.238 1.14898 -3.38427 0
M  V30 6325 C 600.904 0.154613 -4.50635 0
M  V30 6326 C 599.566 -0.118861 -4.81053 0
M  V30 6327 C 601.918 -0.523979 -5.18559 0
M  V30 6328 C 599.246 -1.0775 -5.76721 0
M  V30 6329 C 601.598 -1.47114 -6.15256 0
M  V30 6330 C 600.262 -1.75278 -6.44076 0
M  V30 6331 H 599.532 0.204991 -0.712081 0
M  V30 6332 H 602.179 -0.17918 -1.9066 0
M  V30 6333 H 600.484 1.96476 -3.38976 0
M  V30 6334 H 602.181 1.66909 -3.64613 0
M  V30 6335 H 598.771 0.377948 -4.2693 0
M  V30 6336 H 602.955 -0.325851 -4.95229 0
M  V30 6337 H 598.211 -1.30263 -5.97362 0
M  V30 6338 H 602.385 -2.00274 -6.66981 0
M  V30 6339 H 600.012 -2.49717 -7.18015 0
M  V30 6340 N 601.587 1.56661 0.17182 0
M  V30 6341 C 602.517 1.99401 1.21498 0
M  V30 6342 C 603.498 0.869516 1.46197 0
M  V30 6343 O 604.683 1.13556 1.57539 0
M  V30 6344 C 601.813 2.35346 2.55401 0
M  V30 6345 C 600.767 3.5075 2.45272 0
M  V30 6346 C 600.093 3.72437 3.8366 0
M  V30 6347 C 601.393 4.84216 1.95787 0
M  V30 6348 H 603.087 2.86792 0.859699 0
M  V30 6349 H 600.633 1.37977 0.412103 0
M  V30 6350 H 602.586 2.63843 3.2858 0
M  V30 6351 H 601.31 1.44864 2.92715 0
M  V30 6352 H 599.969 3.2238 1.74547 0
M  V30 6353 H 599.617 2.79246 4.18367 0
M  V30 6354 H 599.317 4.50087 3.77751 0
M  V30 6355 H 600.841 4.03334 4.58426 0
M  V30 6356 H 602.255 5.11592 2.5874 0
M  V30 6357 H 600.652 5.65498 2.00827 0
M  V30 6358 H 601.722 4.76243 0.912159 0
M  V30 6359 N 603.065 -0.440357 1.51323 0
M  V30 6360 C 603.997 -1.55254 1.68609 0
M  V30 6361 C 605.01 -1.52614 0.566812 0
M  V30 6362 O 606.199 -1.57445 0.841032 0
M  V30 6363 C 603.299 -2.94169 1.68279 0
M  V30 6364 C 602.472 -3.21346 2.96742 0
M  V30 6365 C 601.531 -4.3997 2.8864 0
M  V30 6366 O 600.557 -4.38771 3.62586 0
M  V30 6367 N 601.759 -5.43367 2.04285 0
M  V30 6368 H 604.524 -1.40831 2.6455 0
M  V30 6369 H 602.085 -0.629251 1.49171 0
M  V30 6370 H 604.077 -3.71543 1.60431 0
M  V30 6371 H 602.647 -3.02205 0.799441 0
M  V30 6372 H 601.867 -2.32299 3.18482 0
M  V30 6373 H 603.155 -3.3633 3.81785 0
M  V30 6374 H 602.553 -5.47176 1.43578 0
M  V30 6375 H 601.11 -6.19605 2.02318 0
M  V30 6376 N 604.543 -1.41418 -0.695603 0
M  V30 6377 C 605.473 -1.46035 -1.82197 0
M  V30 6378 C 606.454 -0.319025 -1.67082 0
M  V30 6379 O 607.639 -0.530462 -1.86815 0
M  V30 6380 C 604.769 -1.34179 -3.20333 0
M  V30 6381 C 603.723 -2.46123 -3.50154 0
M  V30 6382 C 603.049 -2.19332 -4.87645 0
M  V30 6383 C 604.349 -3.88463 -3.49133 0
M  V30 6384 H 606.043 -2.40303 -1.78591 0
M  V30 6385 H 603.589 -1.15663 -0.857797 0
M  V30 6386 H 605.542 -1.36021 -3.98844 0
M  V30 6387 H 604.266 -0.363952 -3.24566 0
M  V30 6388 H 602.925 -2.43563 -2.73994 0
M  V30 6389 H 602.573 -1.19891 -4.88503 0
M  V30 6390 H 602.273 -2.94344 -5.08562 0
M  V30 6391 H 603.797 -2.22889 -5.68465 0
M  V30 6392 H 605.211 -3.92738 -4.17648 0
M  V30 6393 H 603.608 -4.63158 -3.81582 0
M  V30 6394 H 604.678 -4.16617 -2.48109 0
M  V30 6395 N 606.021 0.929856 -1.27246 0
M  V30 6396 C 607.268 1.67731 -1.13457 0
M  V30 6397 C 607.596 1.9185 0.319998 0
M  V30 6398 O 606.851 1.50524 1.25064 0
M  V30 6399 C 607.15 3.05116 -1.86115 0
M  V30 6400 C 606.816 3.00715 -3.35978 0
M  V30 6401 C 605.478 2.99222 -3.76855 0
M  V30 6402 C 607.83 2.92168 -4.3161 0
M  V30 6403 C 605.158 2.86962 -5.11732 0
M  V30 6404 C 607.51 2.81449 -5.66542 0
M  V30 6405 C 606.174 2.78305 -6.06715 0
M  V30 6406 H 605.444 0.613772 -0.415168 0
M  V30 6407 H 608.091 1.08456 -1.57827 0
M  V30 6408 H 606.396 3.68083 -1.34246 0
M  V30 6409 H 608.093 3.61822 -1.72876 0
M  V30 6410 H 604.683 3.02664 -3.03468 0
M  V30 6411 H 608.867 2.92421 -4.01003 0
M  V30 6412 H 604.123 2.82913 -5.42006 0
M  V30 6413 H 608.297 2.738 -6.40317 0
M  V30 6414 H 605.924 2.68561 -7.11181 0
M  V30 6415 N 607.499 1.09233 1.13605 0
M  V30 6416 C 608.432 0.6739 2.18023 0
M  V30 6417 C 609.41 -0.318603 1.59448 0
M  V30 6418 O 610.594 -0.220452 1.87206 0
M  V30 6419 C 607.721 -0.00751458 3.38699 0
M  V30 6420 C 606.767 0.946481 4.15865 0
M  V30 6421 S 607.6 2.45753 4.75779 0
M  V30 6422 C 608.756 1.78846 5.99804 0
M  V30 6423 H 608.989 1.55846 2.53178 0
M  V30 6424 H 606.522 0.908118 1.2487 0
M  V30 6425 H 608.48 -0.394368 4.08601 0
M  V30 6426 H 607.141 -0.868693 3.01849 0
M  V30 6427 H 606.334 0.416742 5.02274 0
M  V30 6428 H 605.936 1.27464 3.51609 0
M  V30 6429 H 608.228 1.11135 6.68323 0
M  V30 6430 H 609.171 2.63163 6.57382 0
M  V30 6431 H 609.579 1.25823 5.50299 0
M  V30 6432 N 608.977 -1.30795 0.87923 0
M  V30 6433 C 610.202 -2.01063 0.508769 0
M  V30 6434 C 610.627 -1.65508 -0.893803 0
M  V30 6435 O 609.985 -0.868616 -1.59138 0
M  V30 6436 C 610.033 -3.54054 0.683991 0
M  V30 6437 O 609.137 -4.11498 -0.272654 0
M  V30 6438 H 608.478 -0.632786 0.201191 0
M  V30 6439 H 611.008 -1.66776 1.18519 0
M  V30 6440 H 611.018 -4.03845 0.580798 0
M  V30 6441 H 609.693 -3.79271 1.70665 0
M  V30 6442 H 608.27 -3.72695 -0.12364 0
M  V30 6443 N 610.455 -0.639598 -1.44038 0
M  V30 6444 C 611.732 -0.078012 -1.95444 0
M  V30 6445 C 612.112 1.39847 -1.58133 0
M  V30 6446 O 611.46 2.11714 -0.859614 0
M  V30 6447 C 611.67 -0.309832 -3.47622 0
M  V30 6448 C 613.018 -0.207521 -4.24093 0
M  V30 6449 O 614.042 -0.241653 -3.55379 0
M  V30 6450 O 612.901 -0.119641 -5.46369 0
M  V30 6451 H 609.995 0.0174534 -0.826816 0
M  V30 6452 H 612.541 -0.711891 -1.54046 0
M  V30 6453 H 611.313 -1.33401 -3.67858 0
M  V30 6454 H 610.936 0.357777 -3.95987 0
M  V30 6455 N 611.933 1.52934 -0.380664 0
M  V30 6456 C 612.866 2.22597 0.502564 0
M  V30 6457 C 613.844 1.22345 1.071 0
M  V30 6458 O 615.028 1.51302 1.12428 0
M  V30 6459 C 612.155 2.93246 1.69482 0
M  V30 6460 C 611.201 4.07696 1.25244 0
M  V30 6461 S 612.034 5.34957 0.241159 0
M  V30 6462 C 613.19 6.09124 1.4394 0
M  V30 6463 H 613.423 2.97167 -0.089029 0
M  V30 6464 H 610.956 1.53518 -0.164817 0
M  V30 6465 H 612.914 3.34562 2.37863 0
M  V30 6466 H 611.575 2.18373 2.2577 0
M  V30 6467 H 610.768 4.56199 2.1424 0
M  V30 6468 H 610.37 3.68349 0.647664 0
M  V30 6469 H 612.662 6.34771 2.36794 0
M  V30 6470 H 613.605 7.01068 0.995464 0
M  V30 6471 H 614.013 5.39777 1.65229 0
M  V30 6472 N 613.412 0.11024 1.57214 0
M  V30 6473 C 614.823 -0.416527 1.81994 0
M  V30 6474 C 615.174 -1.67183 1.02686 0
M  V30 6475 O 614.299 -2.14823 0.260782 0
M  V30 6476 C 614.894 -0.762466 3.30109 0
M  V30 6477 C 613.453 -1.23391 3.556 0
M  V30 6478 C 612.6 -0.238166 2.76275 0
M  V30 6479 H 615.551 0.335491 1.55113 0
M  V30 6480 H 615.572 -1.62068 3.44259 0
M  V30 6481 H 615.084 0.151346 3.87805 0
M  V30 6482 H 613.185 -2.16492 3.03253 0
M  V30 6483 H 613.298 -1.18528 4.64207 0
M  V30 6484 H 611.662 -0.723421 2.4421 0
M  V30 6485 H 612.445 0.668591 3.36727 0
M  V30 6486 N 614.89 -1.56749 -0.16351 0
M  V30 6487 C 615.837 -1.97011 -1.2023 0
M  V30 6488 C 616.807 -0.835186 -1.43575 0
M  V30 6489 O 617.992 -1.09594 -1.56185 0
M  V30 6490 C 615.132 -2.34186 -2.53478 0
M  V30 6491 C 614.245 -3.60893 -2.37446 0
M  V30 6492 C 613.38 -3.87245 -3.63614 0
M  V30 6493 C 612.419 -5.07274 -3.42548 0
M  V30 6494 N 611.556 -5.29719 -4.60806 0
M  V30 6495 H 616.396 -2.85562 -0.851958 0
M  V30 6496 H 613.933 -1.41292 -0.409257 0
M  V30 6497 H 615.891 -2.53764 -3.31149 0
M  V30 6498 H 614.521 -1.48736 -2.86492 0
M  V30 6499 H 613.573 -3.49185 -1.50911 0
M  V30 6500 H 614.885 -4.48722 -2.1783 0
M  V30 6501 H 614.039 -4.07232 -4.49719 0
M  V30 6502 H 612.778 -2.97806 -3.86216 0
M  V30 6503 H 611.783 -4.87177 -2.5483 0
M  V30 6504 H 613.008 -5.98251 -3.2136 0
M  V30 6505 H 610.954 -4.43233 -4.83612 0
M  V30 6506 H 610.871 -6.11786 -4.44132 0
M  V30 6507 H 612.139 -5.54192 -5.48171 0
M  V30 6508 N 616.368 0.432326 -1.51554 0
M  V30 6509 C 617.779 1.01202 -1.56892 0
M  V30 6510 C 618.13 1.92175 -0.395394 0
M  V30 6511 O 617.255 2.10844 0.487198 0
M  V30 6512 C 617.85 1.84217 -2.8434 0
M  V30 6513 C 616.409 2.37228 -2.92233 0
M  V30 6514 C 615.556 1.16576 -2.51606 0
M  V30 6515 H 618.507 0.213407 -1.57259 0
M  V30 6516 H 618.528 2.69721 -2.68385 0
M  V30 6517 H 618.04 1.17979 -3.69733 0
M  V30 6518 H 616.141 3.06905 -2.11282 0
M  V30 6519 H 616.254 2.69682 -3.95991 0
M  V30 6520 H 614.618 1.51263 -2.04919 0
M  V30 6521 H 615.401 0.519404 -3.39348 0
M  V30 6522 N 617.846 1.41785 0.688094 0
M  V30 6523 C 618.809 1.43936 1.78368 0
M  V30 6524 C 619.809 0.328866 1.57401 0
M  V30 6525 O 620.999 0.589093 1.63937 0
M  V30 6526 C 618.131 1.25804 3.16838 0
M  V30 6527 H 619.324 2.41472 1.77852 0
M  V30 6528 H 616.877 1.28037 0.896448 0
M  V30 6529 H 617.612 0.291386 3.22988 0
M  V30 6530 H 617.397 2.06272 3.33458 0
M  V30 6531 H 618.887 1.30162 3.96797 0
M  V30 6532 N 619.324 -0.923095 1.27737 0
M  V30 6533 C 620.571 -1.67127 1.14345 0
M  V30 6534 C 620.899 -1.92017 -0.30982 0
M  V30 6535 O 620.154 -1.51185 -1.24264 0
M  V30 6536 C 620.453 -3.04125 1.8773 0
M  V30 6537 C 620.119 -2.98929 3.37568 0
M  V30 6538 C 618.781 -2.9722 3.78436 0
M  V30 6539 C 621.133 -2.89875 4.33154 0
M  V30 6540 C 618.461 -2.84244 5.13247 0
M  V30 6541 C 620.813 -2.7844 5.68026 0
M  V30 6542 C 619.477 -2.75083 6.08182 0
M  V30 6543 H 618.747 -0.611562 0.418417 0
M  V30 6544 H 621.394 -1.07618 1.584 0
M  V30 6545 H 619.699 -3.67366 1.36196 0
M  V30 6546 H 621.396 -3.609 1.74792 0
M  V30 6547 H 617.986 -3.0105 3.05069 0
M  V30 6548 H 622.17 -2.9029 4.02548 0
M  V30 6549 H 617.426 -2.80034 5.43499 0
M  V30 6550 H 621.6 -2.70401 6.4176 0
M  V30 6551 H 619.227 -2.64786 7.12596 0
M  V30 6552 N 620.802 -1.09834 -1.13024 0
M  V30 6553 C 621.735 -0.685453 -2.17662 0
M  V30 6554 C 622.713 0.310142 -1.59615 0
M  V30 6555 O 623.897 0.21052 -1.87321 0
M  V30 6556 C 621.024 -0.0104476 -3.38698 0
M  V30 6557 C 620.07 -0.968522 -4.15358 0
M  V30 6558 S 620.903 -2.48272 -4.74469 0
M  V30 6559 C 622.059 -1.82025 -5.98847 0
M  V30 6560 H 622.292 -1.57187 -2.52348 0
M  V30 6561 H 619.825 -0.914728 -1.24387 0
M  V30 6562 H 621.783 0.372694 -4.08805 0
M  V30 6563 H 620.444 0.852673 -3.02305 0
M  V30 6564 H 619.637 -0.443373 -5.02046 0
M  V30 6565 H 619.239 -1.29327 -3.50928 0
M  V30 6566 H 621.531 -1.14678 -6.67724 0
M  V30 6567 H 622.474 -2.66645 -6.55977 0
M  V30 6568 H 622.882 -1.2874 -5.49624 0
M  V30 6569 N 622.28 1.30327 -0.886154 0
M  V30 6570 C 623.227 2.28099 -0.352069 0
M  V30 6571 C 624.197 1.56433 0.558397 0
M  V30 6572 O 625.382 1.84492 0.486561 0
M  V30 6573 C 622.522 3.42456 0.426346 0
M  V30 6574 C 621.635 4.28938 -0.513472 0
M  V30 6575 C 620.77 5.30458 0.280657 0
M  V30 6576 C 619.809 6.0859 -0.654556 0
M  V30 6577 N 618.946 7.02022 0.104322 0
M  V30 6578 H 623.786 2.73166 -1.19097 0
M  V30 6579 H 621.323 1.34367 -0.598662 0
M  V30 6580 H 623.281 4.07518 0.893587 0
M  V30 6581 H 621.911 2.98455 1.22981 0
M  V30 6582 H 620.963 3.64173 -1.09921 0
M  V30 6583 H 622.275 4.83399 -1.2299 0
M  V30 6584 H 621.429 6.01273 0.8097 0
M  V30 6585 H 620.168 4.76693 1.03029 0
M  V30 6586 H 619.173 5.36651 -1.19522 0
M  V30 6587 H 620.398 6.64443 -1.4033 0
M  V30 6588 H 618.344 6.50645 0.836472 0
M  V30 6589 H 618.261 7.53979 -0.552453 0
M  V30 6590 H 619.529 7.77077 0.614069 0
M  V30 6591 N 623.758 0.647228 1.43697 0
M  V30 6592 C 624.69 -0.0866232 2.29036 0
M  V30 6593 C 625.703 -0.793051 1.42178 0
M  V30 6594 O 626.892 -0.651807 1.66174 0
M  V30 6595 C 623.992 -1.14552 3.18953 0
M  V30 6596 C 623.165 -0.518422 4.34317 0
M  V30 6597 C 622.224 -1.4734 5.05151 0
M  V30 6598 O 621.25 -0.984312 5.60625 0
M  V30 6599 N 622.452 -2.8075 5.08094 0
M  V30 6600 H 625.217 0.645834 2.92659 0
M  V30 6601 H 622.778 0.489567 1.54321 0
M  V30 6602 H 624.77 -1.78505 3.63205 0
M  V30 6603 H 623.34 -1.78001 2.56971 0
M  V30 6604 H 622.56 0.300079 3.93056 0
M  V30 6605 H 623.848 -0.080401 5.08736 0
M  V30 6606 H 623.246 -3.23052 4.64386 0
M  V30 6607 H 621.803 -3.40022 5.56083 0
M  V30 6608 N 625.236 -1.5273 0.388769 0
M  V30 6609 C 626.184 -2.27975 -0.461527 0
M  V30 6610 C 627.178 -1.31854 -1.06352 0
M  V30 6611 O 628.384 -1.49394 -1.00406 0
M  V30 6612 H 624.759 -0.733088 -0.16759 0
M  V30 6613 H 626.73 -2.97765 0.194579 0
M  V30 6614 C 625.479 -3.09881 -1.577 0
M  V30 6615 H 624.802 -3.83701 -1.12309 0
M  V30 6616 H 626.242 -3.6567 -2.14619 0
M  V30 6617 C 624.701 -2.22159 -2.53272 0
M  V30 6618 O 625.231 -1.84802 -3.56667 0
M  V30 6619 N 623.437 -1.8633 -2.23001 0
M  V30 6620 H 622.984 -2.16909 -1.38954 0
M  V30 6621 H 622.942 -1.27927 -2.87197 0
M  V30 6622 N 626.714 -0.118576 -1.57153 0
M  V30 6623 C 627.644 0.828436 -2.1831 0
M  V30 6624 C 628.625 1.27758 -1.12303 0
M  V30 6625 O 629.81 1.34026 -1.40537 0
M  V30 6626 C 626.94 2.07876 -2.78217 0
M  V30 6627 C 625.894 1.76742 -3.89803 0
M  V30 6628 C 625.22 3.08801 -4.36516 0
M  V30 6629 C 626.52 1.03606 -5.11921 0
M  V30 6630 H 628.214 0.318824 -2.97698 0
M  V30 6631 H 625.76 0.151911 -1.43196 0
M  V30 6632 H 627.713 2.74584 -3.19659 0
M  V30 6633 H 626.437 2.61161 -1.96118 0
M  V30 6634 H 625.096 1.12424 -3.48936 0
M  V30 6635 H 624.744 3.6002 -3.51276 0
M  V30 6636 H 624.444 2.88743 -5.11763 0
M  V30 6637 H 625.968 3.76627 -4.80608 0
M  V30 6638 H 627.382 1.60467 -5.50385 0
M  V30 6639 H 625.779 0.936454 -5.92748 0
M  V30 6640 H 626.849 0.0227421 -4.84895 0
M  V30 6641 N 628.193 1.56834 0.155195 0
M  V30 6642 C 629.47 1.73799 0.897395 0
M  V30 6643 C 629.85 0.684379 1.99698 0
M  V30 6644 O 629.198 -0.298111 2.26547 0
M  V30 6645 C 629.408 3.17572 1.44737 0
M  V30 6646 C 630.756 3.79014 1.91399 0
M  V30 6647 O 631.78 3.20951 1.54496 0
M  V30 6648 O 630.639 4.80998 2.59429 0
M  V30 6649 H 627.733 0.710329 0.423511 0
M  V30 6650 H 630.279 1.69107 0.141761 0
M  V30 6651 H 629.051 3.85749 0.656741 0
M  V30 6652 H 628.674 3.26657 2.26674 0
M  V30 6653 N 629.671 -0.424282 1.51781 0
M  V30 6654 C 630.581 -1.54087 1.76902 0
M  V30 6655 C 631.597 -1.61249 0.653826 0
M  V30 6656 O 632.773 -1.78247 0.937552 0
M  V30 6657 C 629.838 -2.8996 1.90063 0
M  V30 6658 C 628.899 -2.92809 3.13945 0
M  V30 6659 C 628.132 -4.22201 3.26469 0
M  V30 6660 O 628.355 -5.15286 2.44616 0
M  V30 6661 O 627.289 -4.31599 4.1953 0
M  V30 6662 H 631.115 -1.358 2.71647 0
M  V30 6663 H 628.7 -0.608618 1.36441 0
M  V30 6664 H 630.582 -3.70575 2.0063 0
M  V30 6665 H 629.257 -3.08347 0.985067 0
M  V30 6666 H 628.164 -2.11102 3.08847 0
M  V30 6667 H 629.497 -2.79369 4.05233 0
M  V30 6668 N 631.149 -1.42148 -0.680565 0
M  V30 6669 C 632.079 -1.4796 -1.80638 0
M  V30 6670 C 633.06 -0.336728 -1.66734 0
M  V30 6671 O 634.245 -0.550247 -1.86242 0
M  V30 6672 C 631.375 -1.37569 -3.18892 0
M  V30 6673 C 630.329 -2.49823 -3.47524 0
M  V30 6674 C 629.655 -2.24491 -4.85291 0
M  V30 6675 C 630.955 -3.92144 -3.44994 0
M  V30 6676 H 632.649 -2.42184 -1.76032 0
M  V30 6677 H 630.195 -1.16566 -0.845481 0
M  V30 6678 H 632.148 -1.40243 -3.97379 0
M  V30 6679 H 630.872 -0.398357 -3.24162 0
M  V30 6680 H 629.531 -2.46455 -2.71395 0
M  V30 6681 H 629.179 -1.25066 -4.87204 0
M  V30 6682 H 628.879 -2.99722 -5.05411 0
M  V30 6683 H 630.403 -2.28906 -5.66069 0
M  V30 6684 H 631.817 -3.97145 -4.13459 0
M  V30 6685 H 630.214 -4.67179 -3.76648 0
M  V30 6686 H 631.284 -4.19225 -2.43676 0
M  V30 6687 N 632.627 0.916307 -1.28225 0
M  V30 6688 C 633.875 1.6619 -1.15002 0
M  V30 6689 C 634.196 1.92642 0.302329 0
M  V30 6690 O 633.466 1.54076 1.20985 0
M  V30 6691 H 632.046 0.615964 -0.422608 0
M  V30 6692 H 634.708 1.09963 -1.60917 0
M  V30 6693 H 633.804 2.62533 -1.68769 0
M  V30 6694 N 634.105 1.10431 1.1244 0
M  V30 6695 C 635.354 0.841539 1.83306 0
M  V30 6696 C 635.667 -0.634961 1.85007 0
M  V30 6697 O 636.873 -1.01363 2.51869 0
M  V30 6698 C 635.329 1.45565 3.29149 0
M  V30 6699 C 634.937 2.96544 3.35806 0
M  V30 6700 C 636.681 1.27227 4.04986 0
M  V30 6701 C 634.588 3.5099 4.75983 0
M  V30 6702 H 633.518 0.311156 0.686803 0
M  V30 6703 H 636.169 1.32829 1.26604 0
M  V30 6704 H 634.551 0.896574 3.85717 0
M  V30 6705 H 635.725 3.58766 2.89177 0
M  V30 6706 H 634.04 3.14036 2.73442 0
M  V30 6707 H 636.637 1.65348 5.08492 0
M  V30 6708 H 636.98 0.213834 4.1575 0
M  V30 6709 H 637.513 1.79941 3.54776 0
M  V30 6710 H 634.252 4.56499 4.70413 0
M  V30 6711 H 633.772 2.93535 5.23065 0
M  V30 6712 H 635.451 3.48808 5.44924 0
M  V30 6713 N 635.583 -1.29855 0.893053 0
M  V30 6714 C 636.831 -1.9544 0.514566 0
M  V30 6715 C 637.152 -1.70795 -0.940959 0
M  V30 6716 O 636.422 -1.03601 -1.66264 0
M  V30 6717 H 635.002 -0.723137 0.187302 0
M  V30 6718 H 637.664 -1.58234 1.13789 0
M  V30 6719 H 636.76 -3.04341 0.691581 0
M  V30 6720 N 637.061 -0.65484 -1.43351 0
M  V30 6721 C 638.289 -0.176685 -2.06144 0
M  V30 6722 C 638.704 1.15831 -1.49093 0
M  V30 6723 O 638.061 1.71542 -0.622868 0
M  V30 6724 C 638.112 -0.0813326 -3.61408 0
M  V30 6725 O 637.833 -1.36355 -4.1634 0
M  V30 6726 C 639.334 0.422706 -4.4128 0
M  V30 6727 H 636.554 -0.0906429 -0.66485 0
M  V30 6728 H 639.098 -0.895945 -1.83829 0
M  V30 6729 H 637.253 0.588496 -3.82904 0
M  V30 6730 H 637.667 -1.22381 -5.10023 0
M  V30 6731 H 639.141 0.438375 -5.50257 0
M  V30 6732 H 639.618 1.45432 -4.14423 0
M  V30 6733 H 640.224 -0.214687 -4.24758 0
M  V30 6734 N 638.539 1.52521 -0.396863 0
M  V30 6735 C 639.769 2.05792 0.182485 0
M  V30 6736 C 640.177 1.26784 1.40436 0
M  V30 6737 O 639.52 0.309617 1.81072 0
M  V30 6738 C 639.582 3.54291 0.609781 0
M  V30 6739 C 639.246 4.5426 -0.499674 0
M  V30 6740 C 640.243 5.01812 -1.35944 0
M  V30 6741 C 637.928 4.97827 -0.668864 0
M  V30 6742 C 639.922 5.91562 -2.37346 0
M  V30 6743 C 637.609 5.87376 -1.68621 0
M  V30 6744 C 638.607 6.34137 -2.53692 0
M  V30 6745 O 638.295 7.21915 -3.53686 0
M  V30 6746 H 638.027 0.675362 0.0293583 0
M  V30 6747 H 640.581 1.97539 -0.56281 0
M  V30 6748 H 638.811 3.60188 1.40717 0
M  V30 6749 H 640.5 3.90267 1.11565 0
M  V30 6750 H 641.266 4.68879 -1.24008 0
M  V30 6751 H 637.145 4.60997 -0.0163971 0
M  V30 6752 H 640.689 6.27983 -3.03782 0
M  V30 6753 H 636.586 6.19723 -1.80593 0
M  V30 6754 H 637.354 7.39996 -3.49784 0
M  V30 6755 N 640.017 0.126909 1.57088 0
M  V30 6756 C 640.967 -0.831678 2.1229 0
M  V30 6757 C 641.951 -1.22292 1.04564 0
M  V30 6758 O 643.143 -1.19269 1.30782 0
M  V30 6759 C 640.272 -2.07866 2.73215 0
M  V30 6760 C 639.358 -1.71143 3.88035 0
M  V30 6761 N 639.749 -1.05136 4.94753 0
M  V30 6762 C 638.047 -2.00549 3.98367 0
M  V30 6763 C 638.748 -0.877257 5.75047 0
M  V30 6764 N 637.724 -1.40477 5.25135 0
M  V30 6765 H 641.526 -0.317926 2.92175 0
M  V30 6766 H 639.04 -0.0753052 1.62225 0
M  V30 6767 H 641.037 -2.77516 3.11111 0
M  V30 6768 H 639.697 -2.59778 1.94796 0
M  V30 6769 H 640.708 -0.71442 5.12949 0
M  V30 6770 H 637.385 -2.54452 3.30999 0
M  V30 6771 H 638.775 -0.358536 6.70943 0
M  V30 6772 N 641.495 -1.56914 -0.146875 0
M  V30 6773 C 642.443 -1.99224 -1.20053 0
M  V30 6774 C 643.437 -0.884661 -1.44465 0
M  V30 6775 O 644.643 -1.06984 -1.44756 0
M  V30 6776 H 641.018 -0.634191 -0.404112 0
M  V30 6777 H 642.989 -2.86998 -0.816987 0
M  V30 6778 C 641.738 -2.38899 -2.52632 0
M  V30 6779 H 641.061 -3.23677 -2.34677 0
M  V30 6780 H 642.501 -2.72326 -3.24984 0
M  V30 6781 C 640.96 -1.2417 -3.13183 0
M  V30 6782 O 641.49 -0.542503 -3.9802 0
M  V30 6783 N 639.696 -1.00592 -2.72635 0
M  V30 6784 H 639.243 -1.57627 -2.03744 0
M  V30 6785 H 639.201 -0.240174 -3.13481 0
M  V30 6786 N 642.974 0.416227 -1.52004 0
M  V30 6787 C 644.223 1.16088 -1.64944 0
M  V30 6788 C 644.536 1.91835 -0.381928 0
M  V30 6789 O 645.742 2.6867 -0.391013 0
M  V30 6790 C 644.198 2.1124 -2.91386 0
M  V30 6791 C 643.806 1.41042 -4.25219 0
M  V30 6792 C 645.55 2.86008 -3.13688 0
M  V30 6793 C 643.457 2.34801 -5.42791 0
M  V30 6794 H 642.387 0.437041 -0.61442 0
M  V30 6795 H 645.038 0.425971 -1.78487 0
M  V30 6796 H 643.42 2.88254 -2.71525 0
M  V30 6797 H 644.594 0.694416 -4.55538 0
M  V30 6798 H 642.909 0.78344 -4.08964 0
M  V30 6799 H 645.506 3.56286 -3.98703 0
M  V30 6800 H 645.849 3.48556 -2.27628 0
M  V30 6801 H 646.382 2.16095 -3.33988 0
M  V30 6802 H 643.121 1.7691 -6.31176 0
M  V30 6803 H 642.641 3.04395 -5.16821 0
M  V30 6804 H 644.32 2.9548 -5.75587 0
M  V30 6805 N 644.452 1.42507 0.673017 0
M  V30 6806 C 645.415 1.4582 1.76831 0
M  V30 6807 C 646.415 0.345542 1.57043 0
M  V30 6808 O 647.605 0.606447 1.63303 0
M  V30 6809 C 644.737 1.29158 3.15485 0
M  V30 6810 H 645.93 2.43345 1.7528 0
M  V30 6811 H 643.483 1.28981 0.882817 0
M  V30 6812 H 644.218 0.325626 3.22661 0
M  V30 6813 H 644.003 2.09797 3.31252 0
M  V30 6814 H 645.493 1.34363 3.95394 0
M  V30 6815 N 645.93 -0.909495 1.28709 0
M  V30 6816 C 647.177 -1.65905 1.16111 0
M  V30 6817 C 647.505 -1.92334 -0.289436 0
M  V30 6818 O 646.76 -1.52495 -1.22653 0
M  V30 6819 C 647.059 -3.02117 1.90945 0
M  V30 6820 C 646.725 -2.95332 3.40719 0
M  V30 6821 C 645.387 -2.93189 3.81567 0
M  V30 6822 C 647.739 -2.85264 4.36204 0
M  V30 6823 C 645.067 -2.78784 5.16233 0
M  V30 6824 C 647.419 -2.724 5.70948 0
M  V30 6825 C 646.083 -2.68617 6.11066 0
M  V30 6826 H 645.353 -0.60709 0.42488 0
M  V30 6827 H 648 -1.05932 1.59533 0
M  V30 6828 H 646.305 -3.65901 1.40085 0
M  V30 6829 H 648.002 -3.59026 1.7861 0
M  V30 6830 H 644.592 -2.97797 3.08245 0
M  V30 6831 H 648.776 -2.86005 4.05605 0
M  V30 6832 H 644.032 -2.74254 5.46438 0
M  V30 6833 H 648.206 -2.63579 6.44592 0
M  V30 6834 H 645.833 -2.57213 7.15364 0
M  V30 6835 N 647.408 -1.11026 -1.11852 0
M  V30 6836 C 648.657 -0.851249 -1.82857 0
M  V30 6837 C 648.97 0.62514 -1.85341 0
M  V30 6838 O 650.176 1.00026 -2.52403 0
M  V30 6839 C 648.632 -1.47309 -3.28372 0
M  V30 6840 C 648.24 -2.9832 -3.34229 0
M  V30 6841 C 649.984 -1.29373 -4.04306 0
M  V30 6842 C 647.891 -3.53509 -4.74115 0
M  V30 6843 H 646.821 -0.314794 -0.685143 0
M  V30 6844 H 649.472 -1.33499 -1.25898 0
M  V30 6845 H 647.854 -0.917017 -3.85236 0
M  V30 6846 H 649.028 -3.60295 -2.87271 0
M  V30 6847 H 647.343 -3.15482 -2.71772 0
M  V30 6848 H 649.94 -1.68042 -5.07608 0
M  V30 6849 H 650.283 -0.235879 -4.15631 0
M  V30 6850 H 650.816 -1.8182 -3.53817 0
M  V30 6851 H 647.555 -4.58987 -4.67986 0
M  V30 6852 H 647.075 -2.96305 -5.21501 0
M  V30 6853 H 648.754 -3.51693 -5.43066 0
M  V30 6854 N 648.886 1.2938 -0.899927 0
M  V30 6855 C 649.836 2.25311 -0.349165 0
M  V30 6856 C 650.82 1.51889 0.530892 0
M  V30 6857 O 652.012 1.73028 0.372872 0
M  V30 6858 C 649.141 3.40696 0.422055 0
M  V30 6859 C 648.227 4.21455 -0.472935 0
M  V30 6860 N 648.618 4.8048 -1.58026 0
M  V30 6861 C 646.916 4.45177 -0.270767 0
M  V30 6862 C 647.617 5.41117 -2.13465 0
M  V30 6863 N 646.593 5.24518 -1.42766 0
M  V30 6864 H 650.395 2.68507 -1.19505 0
M  V30 6865 H 647.909 1.43992 -0.751006 0
M  V30 6866 H 649.906 4.08486 0.833369 0
M  V30 6867 H 648.566 2.99037 1.2652 0
M  V30 6868 H 649.577 4.79257 -1.96299 0
M  V30 6869 H 646.254 4.14071 0.533988 0
M  V30 6870 H 647.644 5.979 -3.06537 0
M  V30 6871 N 650.364 0.662433 1.43002 0
M  V30 6872 C 651.775 0.258315 1.84904 0
M  V30 6873 C 652.126 -1.19703 1.55453 0
M  V30 6874 O 651.251 -1.91484 1.00811 0
M  V30 6875 C 651.846 0.462047 3.35635 0
M  V30 6876 C 650.405 0.112165 3.76233 0
M  V30 6877 C 649.552 0.760479 2.66668 0
M  V30 6878 H 652.503 0.865467 1.33024 0
M  V30 6879 H 652.524 -0.289646 3.79396 0
M  V30 6880 H 652.036 1.52135 3.57039 0
M  V30 6881 H 650.137 -0.944179 3.60439 0
M  V30 6882 H 650.25 0.544058 4.76001 0
M  V30 6883 H 648.614 0.192887 2.53969 0
M  V30 6884 H 649.397 1.82299 2.90898 0
M  V30 6885 N 651.842 -1.52309 0.404946 0
M  V30 6886 C 653.119 -1.94237 -0.230544 0
M  V30 6887 C 653.499 -1.34154 -1.6299 0
M  V30 6888 O 652.847 -0.515713 -2.22604 0
M  V30 6889 C 653.057 -3.48166 -0.241106 0
M  V30 6890 C 654.405 -4.22074 -0.462488 0
M  V30 6891 O 655.429 -3.54754 -0.320644 0
M  V30 6892 O 654.288 -5.41443 -0.741708 0
M  V30 6893 H 651.382 -0.813766 -0.147358 0
M  V30 6894 H 653.928 -1.6333 0.460587 0
M  V30 6895 H 652.7 -3.84269 0.738467 0
M  V30 6896 H 652.323 -3.85422 -0.97651 0
M  V30 6897 N 653.32 -0.135238 -1.57019 0
M  V30 6898 C 654.548 0.526066 -2.001 0
M  V30 6899 C 654.963 1.59184 -1.01519 0
M  V30 6900 O 654.32 1.82497 -0.0104258 0
M  V30 6901 C 654.371 1.13744 -3.43139 0
M  V30 6902 O 654.092 0.114259 -4.37951 0
M  V30 6903 C 655.593 1.8805 -4.01438 0
M  V30 6904 H 652.813 0.137962 -0.656664 0
M  V30 6905 H 655.357 -0.226359 -2.03243 0
M  V30 6906 H 653.512 1.84056 -3.40885 0
M  V30 6907 H 653.926 0.56058 -5.21496 0
M  V30 6908 H 655.4 2.26133 -5.03555 0
M  V30 6909 H 655.877 2.76194 -3.41487 0
M  V30 6910 H 656.483 1.22464 -4.07287 0
M  V30 6911 N 654.798 1.5699 0.138552 0
M  V30 6912 C 656.209 1.73171 0.697754 0
M  V30 6913 C 656.56 0.750952 1.8126 0
M  V30 6914 O 655.685 -0.080549 2.1625 0
M  V30 6915 C 656.28 3.13996 1.27248 0
M  V30 6916 C 654.839 3.3175 1.77816 0
M  V30 6917 C 653.986 2.69084 0.669991 0
M  V30 6918 H 656.937 1.5846 -0.0871979 0
M  V30 6919 H 656.958 3.14463 2.14227 0
M  V30 6920 H 656.47 3.85354 0.460855 0
M  V30 6921 H 654.571 2.65403 2.61519 0
M  V30 6922 H 654.684 4.39768 1.90107 0
M  V30 6923 H 653.048 2.29782 1.09874 0
M  V30 6924 H 653.831 3.43053 -0.130329 0
M  V30 6925 N 656.276 -0.40816 1.52223 0
M  V30 6926 C 657.525 -1.15212 1.65557 0
M  V30 6927 C 657.838 -1.9163 0.392096 0
M  V30 6928 O 659.044 -2.68458 0.405256 0
M  V30 6929 C 657.5 -2.09691 2.92502 0
M  V30 6930 C 657.108 -1.38785 4.25961 0
M  V30 6931 C 658.852 -2.8434 3.152 0
M  V30 6932 C 656.759 -2.31919 5.44029 0
M  V30 6933 H 655.689 -0.433776 0.616729 0
M  V30 6934 H 658.34 -0.4165 1.78711 0
M  V30 6935 H 656.722 -2.8681 2.7305 0
M  V30 6936 H 657.896 -0.670248 4.55899 0
M  V30 6937 H 656.211 -0.761741 4.09373 0
M  V30 6938 H 658.808 -3.54166 4.00587 0
M  V30 6939 H 659.151 -3.47344 2.29473 0
M  V30 6940 H 659.684 -2.14321 3.35129 0
M  V30 6941 H 656.423 -1.7356 6.32105 0
M  V30 6942 H 655.943 -3.0165 5.18428 0
M  V30 6943 H 657.622 -2.92424 5.77146 0
M  V30 6944 N 657.755 -1.42862 -0.66545 0
M  V30 6945 C 659.004 -1.43119 -1.42126 0
M  V30 6946 C 659.317 -0.0545297 -1.95524 0
M  V30 6947 O 660.523 0.0654747 -2.71421 0
M  V30 6948 C 658.979 -2.51797 -2.5715 0
M  V30 6949 C 658.587 -3.95514 -2.10411 0
M  V30 6950 C 660.331 -2.61233 -3.346 0
M  V30 6951 C 658.238 -4.95682 -3.22573 0
M  V30 6952 H 657.168 -0.532349 -0.533966 0
M  V30 6953 H 659.819 -1.68806 -0.719506 0
M  V30 6954 H 658.201 -2.19292 -3.29738 0
M  V30 6955 H 659.375 -4.3742 -1.44915 0
M  V30 6956 H 657.69 -3.90012 -1.45874 0
M  V30 6957 H 660.287 -3.33248 -4.18151 0
M  V30 6958 H 660.63 -1.65896 -3.81817 0
M  V30 6959 H 661.163 -2.9298 -2.69087 0
M  V30 6960 H 657.902 -5.92529 -2.80338 0
M  V30 6961 H 657.422 -4.58399 -3.86821 0
M  V30 6962 H 659.101 -5.17828 -3.87896 0
M  V30 6963 N 659.233 0.902656 -1.29189 0
M  V30 6964 C 660.18 2.00643 -1.14066 0
M  V30 6965 C 661.15 1.66064 -0.0347756 0
M  V30 6966 O 662.335 1.8973 -0.201752 0
M  V30 6967 C 659.475 3.35214 -0.820104 0
M  V30 6968 C 658.588 3.82594 -2.00614 0
M  V30 6969 C 657.723 5.05727 -1.62522 0
M  V30 6970 C 656.762 5.45469 -2.77724 0
M  V30 6971 N 655.899 6.59789 -2.40048 0
M  V30 6972 H 660.739 2.1291 -2.08502 0
M  V30 6973 H 658.276 1.04271 -1.03759 0
M  V30 6974 H 660.234 4.12643 -0.614949 0
M  V30 6975 H 658.864 3.22682 0.0873452 0
M  V30 6976 H 657.916 3.01226 -2.32308 0
M  V30 6977 H 659.228 4.07999 -2.86946 0
M  V30 6978 H 658.382 5.90732 -1.38277 0
M  V30 6979 H 657.121 4.82155 -0.733333 0
M  V30 6980 H 656.126 4.59 -3.02653 0
M  V30 6981 H 657.351 5.71024 -3.67572 0
M  V30 6982 H 655.297 6.37826 -1.53343 0
M  V30 6983 H 655.214 6.84975 -3.19914 0
M  V30 6984 H 656.482 7.4807 -2.19116 0
M  V30 6985 N 660.711 1.11618 1.11262 0
M  V30 6986 C 661.674 0.779447 2.15539 0
M  V30 6987 C 662.674 -0.202081 1.59525 0
M  V30 6988 O 663.864 0.0226356 1.74185 0
M  V30 6989 C 660.996 0.15674 3.40539 0
M  V30 6990 H 662.189 1.70324 2.4684 0
M  V30 6991 H 659.742 0.918298 1.26479 0
M  V30 6992 H 660.477 -0.777186 3.1485 0
M  V30 6993 H 660.262 0.863308 3.82478 0
M  V30 6994 H 661.752 -0.062661 4.17553 0
M  V30 6995 N 662.189 -1.289 0.906776 0
M  V30 6996 C 663.119 -2.29932 0.406659 0
M  V30 6997 C 664.1 -1.6189 -0.522061 0
M  V30 6998 O 665.285 -1.8935 -0.431283 0
M  V30 6999 C 662.415 -3.45425 -0.360366 0
M  V30 7000 C 661.369 -4.25316 0.478574 0
M  V30 7001 C 660.695 -5.33076 -0.416373 0
M  V30 7002 C 661.995 -4.92739 1.7322 0
M  V30 7003 H 663.689 -2.72013 1.25097 0
M  V30 7004 H 661.235 -1.30768 0.602977 0
M  V30 7005 H 663.188 -4.15186 -0.721029 0
M  V30 7006 H 661.912 -3.02206 -1.23852 0
M  V30 7007 H 660.571 -3.57273 0.821662 0
M  V30 7008 H 660.219 -4.86101 -1.29287 0
M  V30 7009 H 659.919 -5.8743 0.141309 0
M  V30 7010 H 661.443 -6.05686 -0.773072 0
M  V30 7011 H 662.857 -5.54898 1.44086 0
M  V30 7012 H 661.254 -5.57057 2.23175 0
M  V30 7013 H 662.324 -4.17625 2.46408 0
M  V30 7014 N 663.667 -0.670007 -1.42649 0
M  V30 7015 C 664.615 0.0230106 -2.32589 0
M  V30 7016 C 665.609 0.795585 -1.49555 0
M  V30 7017 O 666.815 0.70409 -1.65658 0
M  V30 7018 H 663.19 0.0262342 -0.751542 0
M  V30 7019 H 665.161 -0.753009 -2.88743 0
M  V30 7020 C 663.91 0.963872 -3.34073 0
M  V30 7021 H 663.233 0.378813 -3.98001 0
M  V30 7022 H 664.673 1.41755 -3.99602 0
M  V30 7023 C 663.132 2.06797 -2.65964 0
M  V30 7024 O 663.662 3.15383 -2.48789 0
M  V30 7025 N 661.868 1.83831 -2.25066 0
M  V30 7026 H 661.415 0.955235 -2.39234 0
M  V30 7027 H 661.373 2.57895 -1.79827 0
M  V30 7028 N 665.145 1.52092 -0.413018 0
M  V30 7029 C 666.394 2.01041 0.16287 0
M  V30 7030 C 666.707 1.30288 1.45892 0
M  V30 7031 O 667.913 1.70075 2.11629 0
M  V30 7032 C 666.369 3.58283 0.340806 0
M  V30 7033 C 665.977 4.37955 -0.943377 0
M  V30 7034 C 667.721 4.15452 0.871774 0
M  V30 7035 C 665.628 5.86847 -0.732417 0
M  V30 7036 H 664.558 0.751224 0.0646414 0
M  V30 7037 H 667.209 1.75404 -0.539059 0
M  V30 7038 H 665.591 3.80266 1.10516 0
M  V30 7039 H 666.765 4.2773 -1.71418 0
M  V30 7040 H 665.08 3.92122 -1.40105 0
M  V30 7041 H 667.677 5.24375 1.0457 0
M  V30 7042 H 668.02 3.73057 1.84755 0
M  V30 7043 H 668.553 3.97452 0.166377 0
M  V30 7044 H 665.292 6.33609 -1.67986 0
M  V30 7045 H 664.812 5.998 -0.000980058 0
M  V30 7046 H 666.491 6.45906 -0.376105 0
M  V30 7047 N 666.623 0.143563 1.56945 0
M  V30 7048 C 667.87 -0.508407 1.96014 0
M  V30 7049 C 668.198 -1.65099 1.02824 0
M  V30 7050 O 667.453 -1.95618 0.0567764 0
M  V30 7051 C 667.752 -1.05885 3.41355 0
M  V30 7052 C 667.418 -0.0350809 4.50886 0
M  V30 7053 C 666.08 0.246362 4.80569 0
M  V30 7054 C 668.432 0.661282 5.16988 0
M  V30 7055 C 665.76 1.23003 5.73661 0
M  V30 7056 C 668.112 1.63375 6.11139 0
M  V30 7057 C 666.776 1.92292 6.39203 0
M  V30 7058 H 666.046 -0.186039 0.717266 0
M  V30 7059 H 668.693 0.229667 1.90118 0
M  V30 7060 H 666.998 -1.87419 3.44066 0
M  V30 7061 H 668.695 -1.57183 3.6891 0
M  V30 7062 H 665.285 -0.264622 4.27782 0
M  V30 7063 H 669.469 0.457038 4.94191 0
M  V30 7064 H 664.725 1.46056 5.93698 0
M  V30 7065 H 668.899 2.17887 6.61436 0
M  V30 7066 H 666.526 2.68666 7.11142 0
M  V30 7067 N 668.101 -1.57061 -0.130224 0
M  V30 7068 C 669.347 -1.8453 -0.841216 0
M  V30 7069 C 669.68 -0.727666 -1.80052 0
M  V30 7070 O 668.955 0.267419 -1.92653 0
M  V30 7071 C 669.238 -3.22553 -1.60099 0
M  V30 7072 C 669.091 -4.44901 -0.662048 0
M  V30 7073 C 670.41 -3.58003 -2.55973 0
M  V30 7074 H 667.529 -0.671215 -0.304366 0
M  V30 7075 H 670.171 -1.89705 -0.105821 0
M  V30 7076 H 668.321 -3.18272 -2.22789 0
M  V30 7077 H 669.993 -4.61278 -0.0448559 0
M  V30 7078 H 668.236 -4.33791 0.0272253 0
M  V30 7079 H 668.907 -5.3812 -1.23006 0
M  V30 7080 H 671.383 -3.63002 -2.03393 0
M  V30 7081 H 670.259 -4.55576 -3.06172 0
M  V30 7082 H 670.52 -2.84833 -3.38116 0
M  V30 7083 N 669.579 0.400081 -1.52437 0
M  V30 7084 C 670.489 1.51253 -1.79331 0
M  V30 7085 C 671.505 1.60188 -0.679396 0
M  V30 7086 O 672.681 1.76733 -0.965791 0
M  V30 7087 C 669.746 2.869 -1.94652 0
M  V30 7088 C 668.807 2.87777 -3.18564 0
M  V30 7089 C 668.04 4.16954 -3.33145 0
M  V30 7090 O 668.263 5.11329 -2.52783 0
M  V30 7091 O 667.197 4.2487 -4.26343 0
M  V30 7092 H 671.023 1.31461 -2.73773 0
M  V30 7093 H 668.608 0.586834 -1.37392 0
M  V30 7094 H 670.49 3.67336 -2.065 0
M  V30 7095 H 669.165 3.06741 -1.034 0
M  V30 7096 H 668.072 2.06162 -3.12167 0
M  V30 7097 H 669.405 2.72886 -4.09627 0
M  V30 7098 N 671.057 1.43213 0.657864 0
M  V30 7099 C 672.473 1.26511 0.972992 0
M  V30 7100 C 672.673 0.181477 2.00681 0
M  V30 7101 O 671.729 -0.441649 2.48608 0
M  V30 7102 C 673.042 2.62784 1.46168 0
M  V30 7103 C 674.59 2.70278 1.57857 0
M  V30 7104 C 675.065 4.06958 2.10117 0
M  V30 7105 N 676.556 4.08999 2.17426 0
M  V30 7106 C 677.291 5.11585 2.58975 0
M  V30 7107 N 676.787 6.24548 2.99853 0
M  V30 7108 N 678.58 4.9894 2.58873 0
M  V30 7109 H 670.731 2.12384 -0.0263129 0
M  V30 7110 H 672.994 0.946638 0.0507992 0
M  V30 7111 H 672.7 3.43022 0.776474 0
M  V30 7112 H 672.574 2.87863 2.43751 0
M  V30 7113 H 674.961 1.90376 2.25479 0
M  V30 7114 H 675.042 2.4897 0.587179 0
M  V30 7115 H 674.686 4.87325 1.43098 0
M  V30 7116 H 674.616 4.25628 3.10078 0
M  V30 7117 H 677.107 3.27457 1.88627 0
M  V30 7118 H 677.42 6.98661 3.30292 0
M  V30 7119 H 675.765 6.28027 2.97669 0
M  V30 7120 H 678.956 4.09757 2.26311 0
M  V30 7121 H 679.129 5.79019 2.90932 0
M  V30 7122 N 672.536 -0.895792 1.29666 0
M  V30 7123 C 673.952 -1.17726 1.07763 0
M  V30 7124 C 674.152 -2.00794 -0.168576 0
M  V30 7125 O 673.208 -2.37213 -0.865244 0
M  V30 7126 C 674.521 -1.89441 2.33522 0
M  V30 7127 C 676.069 -2.02251 2.3888 0
M  V30 7128 C 676.544 -2.77378 3.64452 0
M  V30 7129 N 678.035 -2.8493 3.65198 0
M  V30 7130 C 678.77 -3.43606 4.59045 0
M  V30 7131 N 678.266 -4.03417 5.63228 0
M  V30 7132 N 680.059 -3.41317 4.46608 0
M  V30 7133 H 672.21 -0.341652 2.09634 0
M  V30 7134 H 674.473 -0.213865 0.923561 0
M  V30 7135 H 674.179 -1.35842 3.24407 0
M  V30 7136 H 674.053 -2.89893 2.41334 0
M  V30 7137 H 676.44 -2.55025 1.4848 0
M  V30 7138 H 676.521 -1.0092 2.3505 0
M  V30 7139 H 676.165 -2.25279 4.55205 0
M  V30 7140 H 676.095 -3.79062 3.65541 0
M  V30 7141 H 678.586 -2.42453 2.89871 0
M  V30 7142 H 678.899 -4.46224 6.30955 0
M  V30 7143 H 677.244 -4.01868 5.67033 0
M  V30 7144 H 680.435 -2.93812 3.64407 0
M  V30 7145 H 680.608 -3.86751 5.1993 0
M  V30 7146 N 674.014 -1.12206 -1.10668 0
M  V30 7147 C 675.263 -0.870595 -1.81944 0
M  V30 7148 C 675.576 0.605447 -1.85994 0
M  V30 7149 O 676.782 0.973433 -2.53449 0
M  V30 7150 C 675.238 -1.50783 -3.26791 0
M  V30 7151 C 674.846 -3.01849 -3.31046 0
M  V30 7152 C 676.59 -1.33653 -4.02911 0
M  V30 7153 C 674.497 -3.58518 -4.70339 0
M  V30 7154 H 673.427 -0.322043 -0.681765 0
M  V30 7155 H 676.078 -1.34827 -1.24475 0
M  V30 7156 H 674.46 -0.957825 -3.84242 0
M  V30 7157 H 675.634 -3.63321 -2.83433 0
M  V30 7158 H 673.949 -3.18346 -2.68411 0
M  V30 7159 H 676.546 -1.73416 -5.05797 0
M  V30 7160 H 676.889 -0.279949 -4.15358 0
M  V30 7161 H 677.422 -1.85562 -3.51868 0
M  V30 7162 H 674.161 -4.63925 -4.63091 0
M  V30 7163 H 673.681 -3.01819 -5.18329 0
M  V30 7164 H 675.36 -3.57434 -5.39305 0
M  V30 7165 N 675.492 1.28418 -0.913599 0
M  V30 7166 C 676.717 1.99643 -0.561899 0
M  V30 7167 C 677.142 1.67819 0.849608 0
M  V30 7168 O 676.5 0.910503 1.56779 0
M  V30 7169 C 676.548 3.52116 -0.777622 0
M  V30 7170 O 675.652 4.12076 0.163457 0
M  V30 7171 H 674.993 0.627229 -0.217898 0
M  V30 7172 H 677.523 1.63575 -1.229 0
M  V30 7173 H 677.533 4.02163 -0.687666 0
M  V30 7174 H 676.208 3.74613 -1.8066 0
M  V30 7175 H 674.785 3.72892 0.0247827 0
M  V30 7176 N 676.97 0.677563 1.42291 0
M  V30 7177 C 677.933 0.0101085 2.29198 0
M  V30 7178 C 678.933 -0.726219 1.43467 0
M  V30 7179 O 680.123 -0.563807 1.64824 0
M  V30 7180 C 677.255 -0.996316 3.26016 0
M  V30 7181 H 678.448 0.775071 2.89711 0
M  V30 7182 H 676.001 0.440065 1.49977 0
M  V30 7183 H 676.736 -1.78967 2.70446 0
M  V30 7184 H 676.521 -0.471687 3.89253 0
M  V30 7185 H 678.011 -1.46167 3.91184 0
M  V30 7186 N 678.448 -1.51871 0.421078 0
M  V30 7187 C 679.378 -2.30231 -0.389363 0
M  V30 7188 C 680.359 -1.34946 -1.03555 0
M  V30 7189 O 681.544 -1.63859 -1.04229 0
M  V30 7190 C 678.674 -3.13247 -1.49979 0
M  V30 7191 C 677.628 -4.16677 -0.977966 0
M  V30 7192 C 676.954 -4.88112 -2.1829 0
M  V30 7193 C 678.254 -5.22295 -0.0236775 0
M  V30 7194 H 679.948 -2.98229 0.264524 0
M  V30 7195 H 677.494 -1.43424 0.12866 0
M  V30 7196 H 679.447 -3.66838 -2.07383 0
M  V30 7197 H 678.171 -2.4304 -2.18173 0
M  V30 7198 H 676.83 -3.64114 -0.426245 0
M  V30 7199 H 676.478 -4.14423 -2.85066 0
M  V30 7200 H 676.178 -5.58041 -1.84021 0
M  V30 7201 H 677.702 -5.44521 -2.76278 0
M  V30 7202 H 679.116 -5.71055 -0.506899 0
M  V30 7203 H 677.513 -5.99656 0.230782 0
M  V30 7204 H 678.583 -4.76131 0.917999 0
M  V30 7205 N 679.926 -0.151884 -1.56866 0
M  V30 7206 C 681.337 0.368128 -1.83035 0
M  V30 7207 C 681.688 1.64402 -1.07082 0
M  V30 7208 O 680.813 2.14056 -0.317647 0
M  V30 7209 C 681.408 0.674676 -3.32014 0
M  V30 7210 C 679.967 1.13919 -3.58747 0
M  V30 7211 C 679.114 0.164833 -2.7681 0
M  V30 7212 H 682.065 -0.376499 -1.54169 0
M  V30 7213 H 682.086 1.52883 -3.48435 0
M  V30 7214 H 681.598 -0.254113 -3.87267 0
M  V30 7215 H 679.699 2.08375 -3.08886 0
M  V30 7216 H 679.812 1.06179 -4.67186 0
M  V30 7217 H 678.176 0.658419 -2.46043 0
M  V30 7218 H 678.959 -0.757633 -3.34836 0
M  V30 7219 N 681.404 1.57128 0.121893 0
M  V30 7220 C 682.65 1.84974 0.831418 0
M  V30 7221 C 682.983 0.737204 1.79663 0
M  V30 7222 O 682.258 -0.257199 1.92792 0
M  V30 7223 C 682.541 3.23397 1.58386 0
M  V30 7224 C 682.394 4.45246 0.638445 0
M  V30 7225 C 683.713 3.59355 2.54071 0
M  V30 7226 H 680.832 0.67282 0.300803 0
M  V30 7227 H 683.474 1.89759 0.0957587 0
M  V30 7228 H 681.624 3.19449 2.21098 0
M  V30 7229 H 683.296 4.61295 0.0203925 0
M  V30 7230 H 681.539 4.33771 -0.05023 0
M  V30 7231 H 682.21 5.38765 1.20151 0
M  V30 7232 H 684.686 3.64075 2.01465 0
M  V30 7233 H 683.562 4.57193 3.03752 0
M  V30 7234 H 683.823 2.86622 3.36601 0
M  V30 7235 N 682.882 -0.391992 1.52647 0
M  V30 7236 C 684.128 -1.139 1.67793 0
M  V30 7237 C 684.461 -1.89711 0.41514 0
M  V30 7238 O 683.736 -1.85431 -0.586979 0
M  V30 7239 C 684.019 -2.11966 2.91105 0
M  V30 7240 C 683.872 -1.39939 4.27478 0
M  V30 7241 C 685.191 -3.1243 3.09961 0
M  V30 7242 H 682.31 -0.412707 0.610608 0
M  V30 7243 H 684.952 -0.422725 1.85238 0
M  V30 7244 H 683.102 -2.73048 2.76364 0
M  V30 7245 H 684.774 -0.818439 4.53982 0
M  V30 7246 H 683.017 -0.701246 4.28095 0
M  V30 7247 H 683.688 -2.1158 5.09841 0
M  V30 7248 H 686.164 -2.61435 3.23714 0
M  V30 7249 H 685.04 -3.78294 3.97725 0
M  V30 7250 H 685.301 -3.81127 2.24042 0
M  V30 7251 N 684.36 -1.4356 -0.65026 0
M  V30 7252 C 685.637 -1.35811 -1.40765 0
M  V30 7253 C 686.017 -0.00736379 -2.11099 0
M  V30 7254 O 685.365 1.00932 -2.05 0
M  V30 7255 C 685.575 -2.54332 -2.3899 0
M  V30 7256 C 686.923 -2.97551 -3.02901 0
M  V30 7257 O 687.947 -2.544 -2.49317 0
M  V30 7258 O 686.806 -3.72311 -4.00059 0
M  V30 7259 H 683.9 -0.536861 -0.629054 0
M  V30 7260 H 686.446 -1.55615 -0.676919 0
M  V30 7261 H 685.218 -3.44274 -1.85986 0
M  V30 7262 H 684.841 -2.36643 -3.19509 0
M  V30 7263 N 685.838 0.888903 -1.30139 0
M  V30 7264 C 686.748 2.02705 -1.18101 0
M  V30 7265 C 687.764 1.73702 -0.101809 0
M  V30 7266 O 688.94 1.98906 -0.315984 0
M  V30 7267 C 686.005 3.35616 -0.869651 0
M  V30 7268 C 685.066 3.78067 -2.03381 0
M  V30 7269 C 684.299 5.04635 -1.73721 0
M  V30 7270 O 684.522 5.66531 -0.663267 0
M  V30 7271 O 683.456 5.43399 -2.58845 0
M  V30 7272 H 687.282 2.15788 -2.13704 0
M  V30 7273 H 684.867 1.01426 -1.09695 0
M  V30 7274 H 686.749 4.15358 -0.711043 0
M  V30 7275 H 685.424 3.23651 0.0565002 0
M  V30 7276 H 684.331 2.99046 -2.24772 0
M  V30 7277 H 685.664 3.94631 -2.94155 0
M  V30 7278 N 687.317 1.12792 1.10072 0
M  V30 7279 C 688.542 0.908838 1.86427 0
M  V30 7280 C 688.967 -0.536793 1.80278 0
M  V30 7281 O 688.325 -1.38033 1.17543 0
M  V30 7282 C 688.373 1.39295 3.3261 0
M  V30 7283 O 687.477 0.573846 4.08388 0
M  V30 7284 H 686.818 0.326234 0.578331 0
M  V30 7285 H 689.348 1.50094 1.39043 0
M  V30 7286 H 689.358 1.39366 3.83459 0
M  V30 7287 H 688.033 2.44555 3.36401 0
M  V30 7288 H 686.61 0.640438 3.67359 0
M  V30 7289 N 688.795 -1.27931 0.920396 0
M  V30 7290 C 690.043 -1.94304 0.555906 0
M  V30 7291 C 690.364 -1.72753 -0.904519 0
M  V30 7292 O 689.634 -1.07104 -1.64029 0
M  V30 7293 H 688.214 -0.719001 0.202599 0
M  V30 7294 H 690.876 -1.55785 1.1712 0
M  V30 7295 H 689.972 -3.02806 0.755981 0
M  V30 7296 N 690.273 -0.685099 -1.4193 0
M  V30 7297 C 691.22 -0.0131869 -2.30796 0
M  V30 7298 C 692.19 0.782129 -1.46533 0
M  V30 7299 O 693.375 0.75229 -1.75343 0
M  V30 7300 C 690.515 0.924768 -3.32479 0
M  V30 7301 C 689.628 0.122181 -4.31827 0
M  V30 7302 C 688.763 1.05682 -5.20581 0
M  V30 7303 C 687.802 0.246526 -6.11603 0
M  V30 7304 N 686.939 1.13442 -6.92875 0
M  V30 7305 H 691.779 -0.776789 -2.87698 0
M  V30 7306 H 689.316 -0.394791 -1.41703 0
M  V30 7307 H 691.274 1.48251 -3.89971 0
M  V30 7308 H 689.904 1.65488 -2.77152 0
M  V30 7309 H 688.956 -0.552335 -3.76369 0
M  V30 7310 H 690.268 -0.506473 -4.96222 0
M  V30 7311 H 689.422 1.68415 -5.82856 0
M  V30 7312 H 688.161 1.71935 -4.56388 0
M  V30 7313 H 687.166 -0.393944 -5.48387 0
M  V30 7314 H 688.391 -0.412053 -6.77849 0
M  V30 7315 H 686.337 1.78316 -6.313 0
M  V30 7316 H 686.254 0.561089 -7.53915 0
M  V30 7317 H 687.522 1.74889 -7.59628 0
M  V30 7318 N 691.751 1.51645 -0.429126 0
M  V30 7319 C 692.997 2.02314 0.140286 0
M  V30 7320 C 693.33 1.31314 1.43074 0
M  V30 7321 O 692.605 0.425531 1.89788 0
M  V30 7322 C 692.888 3.5822 0.36749 0
M  V30 7323 C 692.741 4.39846 -0.941039 0
M  V30 7324 C 694.06 4.25055 1.14089 0
M  V30 7325 H 691.179 0.735335 0.0495112 0
M  V30 7326 H 693.821 1.81358 -0.566514 0
M  V30 7327 H 691.971 3.76207 0.969556 0
M  V30 7328 H 693.643 4.33527 -1.57646 0
M  V30 7329 H 691.886 4.05259 -1.54751 0
M  V30 7330 H 692.557 5.47069 -0.73621 0
M  V30 7331 H 695.033 4.11288 0.630986 0
M  V30 7332 H 693.909 5.34038 1.26863 0
M  V30 7333 H 694.17 3.85358 2.16683 0
M  V30 7334 N 693.229 0.160201 1.56784 0
M  V30 7335 C 694.475 -0.48831 1.96833 0
M  V30 7336 C 694.808 -1.63641 1.04571 0
M  V30 7337 O 694.083 -1.94289 0.0906481 0
M  V30 7338 C 694.366 -0.981908 3.46454 0
M  V30 7339 C 694.219 0.165607 4.49495 0
M  V30 7340 C 695.538 -1.85931 3.98896 0
M  V30 7341 H 692.657 -0.176027 0.71567 0
M  V30 7342 H 695.299 0.244093 1.88426 0
M  V30 7343 H 693.449 -1.60602 3.5375 0
M  V30 7344 H 695.121 0.802372 4.54268 0
M  V30 7345 H 693.364 0.822789 4.25926 0
M  V30 7346 H 694.035 -0.221699 5.51555 0
M  V30 7347 H 696.511 -1.33327 3.94161 0
M  V30 7348 H 695.387 -2.17373 5.04024 0
M  V30 7349 H 695.648 -2.80106 3.42042 0
M  V30 7350 N 694.707 -1.5719 -0.113559 0
M  V30 7351 C 695.984 -1.76117 -0.850999 0
M  V30 7352 C 696.364 -0.737085 -1.97814 0
M  V30 7353 O 695.712 0.237942 -2.27258 0
M  V30 7354 C 695.922 -3.21298 -1.36266 0
M  V30 7355 C 697.27 -3.83955 -1.81283 0
M  V30 7356 O 698.294 -3.24934 -1.45933 0
M  V30 7357 O 697.153 -4.87707 -2.46585 0
M  V30 7358 H 694.247 -0.721308 -0.404529 0
M  V30 7359 H 696.793 -1.69423 -0.0968756 0
M  V30 7360 H 695.565 -3.87355 -0.554235 0
M  V30 7361 H 695.188 -3.32552 -2.17933 0
M  V30 7362 N 696.185 0.383891 -1.52853 0
M  V30 7363 C 697.434 1.12563 -1.67369 0
M  V30 7364 C 697.747 1.90982 -0.422533 0
M  V30 7365 O 698.953 2.6778 -0.447914 0
M  V30 7366 C 697.409 2.05011 -2.95801 0
M  V30 7367 C 697.017 1.31991 -4.28115 0
M  V30 7368 C 698.761 2.79289 -3.19684 0
M  V30 7369 C 696.668 2.23235 -5.4765 0
M  V30 7370 H 695.598 0.42391 -0.623552 0
M  V30 7371 H 698.249 0.388016 -1.79351 0
M  V30 7372 H 696.631 2.82429 -2.77578 0
M  V30 7373 H 697.805 0.597633 -4.56908 0
M  V30 7374 H 696.12 0.696517 -4.10533 0
M  V30 7375 H 698.717 3.47749 -4.06171 0
M  V30 7376 H 699.06 3.43649 -2.3497 0
M  V30 7377 H 699.593 2.08962 -3.38496 0
M  V30 7378 H 696.332 1.63482 -6.34786 0
M  V30 7379 H 695.852 2.93364 -5.23161 0
M  V30 7380 H 697.531 2.83205 -5.81725 0
M  V30 7381 N 697.663 1.43903 0.642637 0
M  V30 7382 C 698.893 1.49323 1.4278 0
M  V30 7383 C 699.301 0.113058 1.88862 0
M  V30 7384 O 698.644 -0.889089 1.60751 0
M  V30 7385 C 698.706 2.3861 2.68897 0
M  V30 7386 C 698.37 3.85976 2.44687 0
M  V30 7387 C 699.367 4.7681 2.07239 0
M  V30 7388 C 697.052 4.30567 2.58683 0
M  V30 7389 C 699.046 6.10234 1.841 0
M  V30 7390 C 696.733 5.64042 2.35159 0
M  V30 7391 C 697.731 6.53693 1.97925 0
M  V30 7392 O 697.419 7.84698 1.74654 0
M  V30 7393 H 697.151 0.509109 0.444729 0
M  V30 7394 H 699.705 1.89425 0.794195 0
M  V30 7395 H 697.935 1.93415 3.34855 0
M  V30 7396 H 699.624 2.35112 3.30873 0
M  V30 7397 H 700.39 4.43635 1.95993 0
M  V30 7398 H 696.269 3.61054 2.86637 0
M  V30 7399 H 699.813 6.80171 1.54962 0
M  V30 7400 H 695.71 5.96782 2.46011 0
M  V30 7401 H 696.478 7.96382 1.88993 0
M  V30 7402 N 699.141 -0.881989 1.30609 0
M  V30 7403 C 700.366 -1.67236 1.22665 0
M  V30 7404 C 700.791 -1.8696 -0.206777 0
M  V30 7405 O 700.149 -1.4027 -1.14865 0
M  V30 7406 C 700.197 -3.02446 1.96363 0
M  V30 7407 O 699.301 -3.91614 1.29276 0
M  V30 7408 H 698.642 -0.510902 0.424117 0
M  V30 7409 H 701.172 -1.10055 1.72479 0
M  V30 7410 H 701.182 -3.52468 2.055 0
M  V30 7411 H 699.857 -2.8741 3.00613 0
M  V30 7412 H 698.434 -3.50055 1.28514 0
M  V30 7413 N 700.619 -1.13374 -1.09472 0
M  V30 7414 C 701.566 -0.810682 -2.16094 0
M  V30 7415 C 702.536 0.227003 -1.64541 0
M  V30 7416 O 703.721 0.0993538 -1.90541 0
M  V30 7417 C 700.861 -0.282336 -3.43943 0
M  V30 7418 C 699.974 -1.37902 -4.09398 0
M  V30 7419 C 699.109 -0.809066 -5.25002 0
M  V30 7420 C 698.148 -1.88419 -5.82379 0
M  V30 7421 N 697.285 -1.33221 -6.89345 0
M  V30 7422 H 702.125 -1.72397 -2.43071 0
M  V30 7423 H 699.662 -0.860564 -1.19301 0
M  V30 7424 H 701.62 0.0421189 -4.17179 0
M  V30 7425 H 700.25 0.594083 -3.17286 0
M  V30 7426 H 699.302 -1.82008 -3.34032 0
M  V30 7427 H 700.614 -2.19161 -4.48074 0
M  V30 7428 H 699.768 -0.435867 -6.05132 0
M  V30 7429 H 698.507 0.0346058 -4.87688 0
M  V30 7430 H 697.512 -2.26646 -5.00911 0
M  V30 7431 H 698.737 -2.73125 -6.21755 0
M  V30 7432 H 696.683 -0.510535 -6.5401 0
M  V30 7433 H 696.6 -2.08129 -7.26786 0
M  V30 7434 H 697.868 -0.986565 -7.73232 0
M  V30 7435 N 702.098 1.27442 -0.927168 0
M  V30 7436 C 703.345 1.94391 -0.567324 0
M  V30 7437 C 703.673 1.72875 0.891321 0
M  V30 7438 O 702.928 1.05071 1.65102 0
M  V30 7439 C 703.227 3.47413 -0.838994 0
M  V30 7440 C 702.893 3.89049 -2.2793 0
M  V30 7441 C 701.555 4.00127 -2.67305 0
M  V30 7442 C 703.907 4.10154 -3.21595 0
M  V30 7443 C 701.235 4.29697 -3.99471 0
M  V30 7444 C 703.587 4.41208 -4.53341 0
M  V30 7445 C 702.251 4.50499 -4.92551 0
M  V30 7446 H 701.521 0.711325 -0.207598 0
M  V30 7447 H 704.168 1.51523 -1.17103 0
M  V30 7448 H 702.473 3.91503 -0.152609 0
M  V30 7449 H 704.17 3.97354 -0.53955 0
M  V30 7450 H 700.76 3.80962 -1.96381 0
M  V30 7451 H 704.944 4.01036 -2.92377 0
M  V30 7452 H 700.2 4.35099 -4.29533 0
M  V30 7453 H 704.374 4.56486 -5.25922 0
M  V30 7454 H 702.001 4.73167 -5.94994 0
M  V30 7455 N 703.576 0.692616 1.41565 0
M  V30 7456 C 704.853 0.150496 1.9502 0
M  V30 7457 C 705.233 -1.33881 1.63215 0
M  V30 7458 O 704.581 -2.08378 0.937598 0
M  V30 7459 C 704.791 0.438636 3.46233 0
M  V30 7460 C 706.139 0.364777 4.2303 0
M  V30 7461 O 707.163 0.373383 3.54238 0
M  V30 7462 O 706.022 0.32234 5.45549 0
M  V30 7463 H 703.116 0.0132454 0.826894 0
M  V30 7464 H 705.662 0.768574 1.51298 0
M  V30 7465 H 704.434 1.46962 3.62654 0
M  V30 7466 H 704.057 -0.210562 3.97042 0
M  V30 7467 N 705.054 -1.51416 0.437162 0
M  V30 7468 C 706.3 -2.02386 -0.129555 0
M  V30 7469 C 706.633 -1.32071 -1.42376 0
M  V30 7470 O 705.908 -0.43559 -1.8956 0
M  V30 7471 C 706.191 -3.5841 -0.348487 0
M  V30 7472 C 706.044 -4.39341 0.964352 0
M  V30 7473 C 707.363 -4.25654 -1.11834 0
M  V30 7474 H 704.482 -0.735587 -0.0456109 0
M  V30 7475 H 707.124 -1.81055 0.576124 0
M  V30 7476 H 705.274 -3.76716 -0.949592 0
M  V30 7477 H 706.946 -4.32685 1.59942 0
M  V30 7478 H 705.189 -4.04432 1.56898 0
M  V30 7479 H 705.86 -5.4667 0.765212 0
M  V30 7480 H 708.336 -4.11617 -0.609165 0
M  V30 7481 H 707.212 -5.34704 -1.24029 0
M  V30 7482 H 707.473 -3.86502 -2.14636 0
M  V30 7483 N 706.532 -0.168513 -1.56696 0
M  V30 7484 C 707.781 0.477233 -1.95973 0
M  V30 7485 C 708.094 1.64578 -1.05704 0
M  V30 7486 O 709.3 2.35758 -1.3465 0
M  V30 7487 C 707.756 0.900413 -3.48455 0
M  V30 7488 C 707.364 -0.242382 -4.47344 0
M  V30 7489 C 709.108 1.51474 -3.96555 0
M  V30 7490 C 707.015 0.200272 -5.91061 0
M  V30 7491 H 705.945 0.182061 -0.73169 0
M  V30 7492 H 708.596 -0.256297 -1.81701 0
M  V30 7493 H 706.978 1.68984 -3.58135 0
M  V30 7494 H 708.152 -1.01967 -4.49377 0
M  V30 7495 H 706.467 -0.766484 -4.09285 0
M  V30 7496 H 709.064 1.85792 -5.01384 0
M  V30 7497 H 709.407 2.41163 -3.39332 0
M  V30 7498 H 709.94 0.789802 -3.89881 0
M  V30 7499 H 706.679 -0.661775 -6.52151 0
M  V30 7500 H 706.199 0.942979 -5.92341 0
M  V30 7501 H 707.878 0.645088 -6.43776 0
M  V30 7502 N 708.01 1.57248 0.105221 0
M  V30 7503 C 708.958 2.02337 1.14728 0
M  V30 7504 C 709.952 0.922652 1.42069 0
M  V30 7505 O 711.158 1.10785 1.41869 0
M  V30 7506 H 707.533 0.644682 0.387155 0
M  V30 7507 H 709.504 2.89063 0.740607 0
M  V30 7508 C 708.253 2.45513 2.46209 0
M  V30 7509 H 707.576 3.29785 2.26013 0
M  V30 7510 H 709.016 2.80846 3.1765 0
M  V30 7511 C 707.475 1.3243 3.09781 0
M  V30 7512 O 708.005 0.647841 3.96442 0
M  V30 7513 N 706.211 1.07785 2.69872 0
M  V30 7514 H 705.758 1.62973 1.99493 0
M  V30 7515 H 705.716 0.323204 3.12734 0
M  V30 7516 N 709.488 -0.375779 1.53054 0
M  V30 7517 C 710.418 -1.46598 1.81745 0
M  V30 7518 C 711.399 -1.56337 0.670286 0
M  V30 7519 O 712.584 -1.71071 0.919158 0
M  V30 7520 C 709.714 -2.84058 1.99821 0
M  V30 7521 C 708.668 -2.8915 3.15557 0
M  V30 7522 C 707.994 -4.29187 3.18908 0
M  V30 7523 C 709.294 -2.57595 4.54359 0
M  V30 7524 H 710.988 -1.22837 2.73041 0
M  V30 7525 H 708.534 -0.589485 1.31381 0
M  V30 7526 H 710.487 -3.60342 2.18475 0
M  V30 7527 H 709.211 -3.09184 1.05226 0
M  V30 7528 H 707.87 -2.15316 2.96706 0
M  V30 7529 H 707.518 -4.51374 2.2197 0
M  V30 7530 H 707.218 -4.33512 3.96662 0
M  V30 7531 H 708.742 -5.07359 3.39734 0
M  V30 7532 H 710.156 -3.23595 4.73243 0
M  V30 7533 H 708.553 -2.73252 5.34279 0
M  V30 7534 H 709.623 -1.52882 4.60169 0
M  V30 7535 N 710.966 -1.44241 -0.634997 0
M  V30 7536 C 711.929 -1.50457 -1.72903 0
M  V30 7537 C 712.929 -0.387058 -1.56072 0
M  V30 7538 O 714.119 -0.649531 -1.61638 0
M  V30 7539 C 711.251 -1.37477 -3.1195 0
M  V30 7540 H 712.444 -2.47907 -1.68767 0
M  V30 7541 H 709.997 -1.31276 -0.84831 0
M  V30 7542 H 710.732 -0.41106 -3.21684 0
M  V30 7543 H 710.517 -2.18506 -3.25573 0
M  V30 7544 H 712.007 -1.44799 -3.91692 0
M  V30 7545 N 712.444 0.87505 -1.31075 0
M  V30 7546 C 713.407 1.96333 -1.18263 0
M  V30 7547 C 714.407 1.60416 -0.111106 0
M  V30 7548 O 715.597 1.7044 -0.359987 0
M  V30 7549 C 712.729 3.31036 -0.81414 0
M  V30 7550 H 713.922 2.09125 -2.14958 0
M  V30 7551 H 711.475 1.06271 -1.14614 0
M  V30 7552 H 712.21 3.23944 0.151875 0
M  V30 7553 H 711.995 3.58476 -1.58862 0
M  V30 7554 H 713.485 4.10842 -0.748249 0
M  V30 7555 N 713.922 1.13953 1.08869 0
M  V30 7556 C 714.832 0.835666 2.19212 0
M  V30 7557 C 715.848 -0.182005 1.73045 0
M  V30 7558 O 717.024 -0.0116661 2.01397 0
M  V30 7559 C 714.089 0.312325 3.4529 0
M  V30 7560 C 713.15 1.39196 4.06107 0
M  V30 7561 C 712.383 0.893496 5.26168 0
M  V30 7562 O 712.606 -0.266807 5.69776 0
M  V30 7563 O 711.54 1.67037 5.78258 0
M  V30 7564 H 715.366 1.75769 2.47667 0
M  V30 7565 H 712.951 0.917421 1.17914 0
M  V30 7566 H 714.833 0.0261582 4.21392 0
M  V30 7567 H 713.508 -0.582042 3.18424 0
M  V30 7568 H 712.415 1.73152 3.31616 0
M  V30 7569 H 713.748 2.26068 4.37212 0
M  V30 7570 N 715.4 -1.26948 0.933913 0
M  V30 7571 C 716.347 -2.26635 0.436484 0
M  V30 7572 C 717.317 -1.58397 -0.499953 0
M  V30 7573 O 718.502 -1.86171 -0.417753 0
M  V30 7574 C 715.642 -3.43803 -0.298951 0
M  V30 7575 C 714.755 -4.26736 0.672316 0
M  V30 7576 C 713.89 -5.31134 -0.0835872 0
M  V30 7577 C 712.929 -6.05742 0.879979 0
M  V30 7578 N 712.066 -7.01926 0.156301 0
M  V30 7579 H 716.906 -2.68558 1.29154 0
M  V30 7580 H 714.443 -1.32052 0.648118 0
M  V30 7581 H 716.401 -4.10554 -0.741723 0
M  V30 7582 H 715.031 -3.02814 -1.1182 0
M  V30 7583 H 714.083 -3.59842 1.23361 0
M  V30 7584 H 715.395 -4.78502 1.40846 0
M  V30 7585 H 714.549 -6.03863 -0.585984 0
M  V30 7586 H 713.288 -4.80188 -0.852661 0
M  V30 7587 H 712.293 -5.31846 1.39357 0
M  V30 7588 H 713.518 -6.58777 1.64894 0
M  V30 7589 H 711.464 -6.53301 -0.594413 0
M  V30 7590 H 711.381 -7.51409 0.831906 0
M  V30 7591 H 712.649 -7.78821 -0.325239 0
M  V30 7592 N 716.879 -0.700114 -1.41195 0
M  V30 7593 C 718.107 -0.242179 -2.05478 0
M  V30 7594 C 718.522 1.11029 -1.52702 0
M  V30 7595 O 717.879 1.69473 -0.677127 0
M  V30 7596 C 717.93 -0.196271 -3.60967 0
M  V30 7597 O 717.651 -1.49532 -4.11791 0
M  V30 7598 C 719.152 0.282102 -4.42401 0
M  V30 7599 H 716.372 -0.111749 -0.661629 0
M  V30 7600 H 718.916 -0.953975 -1.80885 0
M  V30 7601 H 717.071 0.46638 -3.84582 0
M  V30 7602 H 717.485 -1.38545 -5.05871 0
M  V30 7603 H 718.959 0.263093 -5.51373 0
M  V30 7604 H 719.436 1.32174 -4.1884 0
M  V30 7605 H 720.042 -0.349712 -4.2386 0
M  V30 7606 N 718.357 1.51182 -0.445186 0
M  V30 7607 C 719.587 2.06269 0.116922 0
M  V30 7608 C 719.995 1.31188 1.36332 0
M  V30 7609 O 719.338 0.367067 1.79995 0
M  V30 7610 C 719.4 3.56051 0.496757 0
M  V30 7611 C 719.064 4.52441 -0.64394 0
M  V30 7612 C 720.061 4.97233 -1.5184 0
M  V30 7613 C 717.746 4.95447 -0.826905 0
M  V30 7614 C 719.74 5.83712 -2.56046 0
M  V30 7615 C 717.427 5.81714 -1.87222 0
M  V30 7616 C 718.425 6.25745 -2.73738 0
M  V30 7617 O 718.113 7.10298 -3.76474 0
M  V30 7618 H 717.845 0.675954 0.00785733 0
M  V30 7619 H 720.399 1.95648 -0.625371 0
M  V30 7620 H 718.629 3.64483 1.29187 0
M  V30 7621 H 720.318 3.93618 0.990928 0
M  V30 7622 H 721.084 4.64696 -1.38862 0
M  V30 7623 H 716.963 4.60712 -0.163052 0
M  V30 7624 H 720.507 6.18 -3.23607 0
M  V30 7625 H 716.404 6.13664 -2.00218 0
M  V30 7626 H 717.172 7.28493 -3.73149 0
M  V30 7627 N 719.835 0.176821 1.56605 0
M  V30 7628 C 720.783 -0.768159 2.1955 0
M  V30 7629 C 721.777 -1.23343 1.16116 0
M  V30 7630 O 722.983 -1.19844 1.34303 0
M  V30 7631 H 719.358 -0.266013 0.703378 0
M  V30 7632 H 721.329 -0.213374 2.97636 0
M  V30 7633 C 720.078 -1.98492 2.85475 0
M  V30 7634 H 719.401 -1.63595 3.64797 0
M  V30 7635 H 720.841 -2.62489 3.3298 0
M  V30 7636 C 719.3 -2.81207 1.85538 0
M  V30 7637 O 719.83 -3.7854 1.34427 0
M  V30 7638 N 718.036 -2.46331 1.54173 0
M  V30 7639 H 717.583 -1.67241 1.95929 0
M  V30 7640 H 717.541 -3.01961 0.875595 0
M  V30 7641 N 721.313 -1.57302 -0.09688 0
M  V30 7642 C 722.261 -2.02942 -1.13654 0
M  V30 7643 C 723.255 -0.930173 -1.41577 0
M  V30 7644 O 724.461 -1.11535 -1.41279 0
M  V30 7645 H 720.836 -0.646726 -0.383731 0
M  V30 7646 H 722.807 -2.89452 -0.725267 0
M  V30 7647 C 721.556 -2.46815 -2.44903 0
M  V30 7648 H 720.879 -3.30979 -2.24261 0
M  V30 7649 H 722.319 -2.82527 -3.16156 0
M  V30 7650 C 720.778 -1.34071 -3.09074 0
M  V30 7651 O 721.308 -0.668856 -3.96092 0
M  V30 7652 N 719.514 -1.09214 -2.69296 0
M  V30 7653 H 719.061 -1.64029 -1.98626 0
M  V30 7654 H 719.019 -0.339785 -3.12559 0
M  V30 7655 N 722.791 0.367657 -1.53252 0
M  V30 7656 C 723.721 1.45632 -1.8252 0
M  V30 7657 C 724.702 1.55979 -0.678568 0
M  V30 7658 O 725.887 1.70581 -0.928217 0
M  V30 7659 C 723.017 2.82994 -2.01325 0
M  V30 7660 C 721.971 2.87473 -3.17086 0
M  V30 7661 C 721.297 4.2749 -3.21179 0
M  V30 7662 C 722.597 2.55182 -4.55719 0
M  V30 7663 H 724.291 1.21387 -2.73689 0
M  V30 7664 H 721.837 0.58251 -1.31692 0
M  V30 7665 H 723.79 3.59179 -2.20383 0
M  V30 7666 H 722.514 3.08622 -1.06864 0
M  V30 7667 H 721.173 2.13739 -2.97844 0
M  V30 7668 H 720.821 4.5019 -2.24361 0
M  V30 7669 H 720.521 4.31403 -3.98955 0
M  V30 7670 H 722.045 5.0555 -3.42419 0
M  V30 7671 H 723.459 3.21081 -4.74953 0
M  V30 7672 H 721.856 2.70414 -5.3572 0
M  V30 7673 H 722.926 1.5044 -4.60973 0
M  V30 7674 N 724.269 1.44576 0.627338 0
M  V30 7675 C 725.546 1.38033 1.38586 0
M  V30 7676 C 725.926 0.0409468 2.1106 0
M  V30 7677 O 725.274 -0.976582 2.0658 0
M  V30 7678 C 725.484 2.58102 2.34913 0
M  V30 7679 C 726.832 3.02332 2.98129 0
M  V30 7680 O 727.856 2.58334 2.45238 0
M  V30 7681 O 726.715 3.78628 3.94085 0
M  V30 7682 H 723.809 0.546801 0.620434 0
M  V30 7683 H 726.355 1.56672 0.652077 0
M  V30 7684 H 725.127 3.4719 1.80485 0
M  V30 7685 H 724.75 2.41696 3.15703 0
M  V30 7686 N 725.747 -0.868086 1.31537 0
M  V30 7687 C 726.996 -1.61607 1.20689 0
M  V30 7688 C 727.309 -1.94204 -0.233275 0
M  V30 7689 O 728.515 -2.67515 -0.463465 0
M  V30 7690 C 726.971 -2.91348 2.11292 0
M  V30 7691 C 726.579 -2.66227 3.60315 0
M  V30 7692 C 728.323 -3.69344 2.09249 0
M  V30 7693 C 726.23 -3.91887 4.42921 0
M  V30 7694 H 725.16 -0.606373 0.448138 0
M  V30 7695 H 727.811 -0.959666 1.56405 0
M  V30 7696 H 726.193 -3.58374 1.68477 0
M  V30 7697 H 727.367 -2.07597 4.11388 0
M  V30 7698 H 725.682 -2.01582 3.64354 0
M  V30 7699 H 728.279 -4.62567 2.68209 0
M  V30 7700 H 728.622 -4.02044 1.0801 0
M  V30 7701 H 729.155 -3.09205 2.50274 0
M  V30 7702 H 725.894 -3.64336 5.44922 0
M  V30 7703 H 725.414 -4.49961 3.96605 0
M  V30 7704 H 727.093 -4.59754 4.55231 0
M  V30 7705 N 727.225 -1.14528 -1.08264 0
M  V30 7706 C 728.453 -0.937964 -1.84418 0
M  V30 7707 C 728.868 0.51357 -1.81681 0
M  V30 7708 O 728.225 1.35591 -1.22153 0
M  V30 7709 C 728.276 -1.43272 -3.31897 0
M  V30 7710 O 727.997 -2.82738 -3.34651 0
M  V30 7711 C 729.498 -1.26555 -4.24851 0
M  V30 7712 H 726.718 -0.333704 -0.582136 0
M  V30 7713 H 729.262 -1.52076 -1.36723 0
M  V30 7714 H 727.417 -0.892653 -3.76975 0
M  V30 7715 H 727.831 -3.04971 -4.26724 0
M  V30 7716 H 729.305 -1.66031 -5.26439 0
M  V30 7717 H 729.782 -0.208589 -4.38704 0
M  V30 7718 H 730.388 -1.79423 -3.856 0
M  V30 7719 N 728.703 1.26451 -0.940633 0
M  V30 7720 C 729.949 1.94065 -0.58878 0
M  V30 7721 C 730.282 1.7363 0.869853 0
M  V30 7722 O 729.557 1.073 1.62225 0
M  V30 7723 C 729.84 3.47852 -0.931199 0
M  V30 7724 C 729.693 3.77575 -2.44453 0
M  V30 7725 C 731.012 4.37832 -0.446229 0
M  V30 7726 H 728.131 0.704827 -0.21538 0
M  V30 7727 H 730.773 1.4933 -1.17475 0
M  V30 7728 H 728.923 3.86085 -0.432539 0
M  V30 7729 H 730.595 3.49059 -3.01588 0
M  V30 7730 H 728.838 3.23671 -2.88825 0
M  V30 7731 H 729.509 4.85068 -2.63464 0
M  V30 7732 H 731.985 4.06822 -0.873778 0
M  V30 7733 H 730.861 5.44228 -0.714648 0
M  V30 7734 H 731.122 4.37239 0.653815 0
M  V30 7735 N 730.181 0.707592 1.40822 0
M  V30 7736 C 731.409 0.253073 2.05346 0
M  V30 7737 C 731.824 -1.10218 1.53289 0
M  V30 7738 O 731.181 -1.69112 0.686105 0
M  V30 7739 C 731.232 0.215411 3.60858 0
M  V30 7740 O 730.953 1.51714 4.10992 0
M  V30 7741 C 732.454 -0.258636 4.42545 0
M  V30 7742 H 729.674 0.115256 0.661027 0
M  V30 7743 H 732.218 0.963555 1.80377 0
M  V30 7744 H 730.373 -0.445978 3.84824 0
M  V30 7745 H 730.787 1.41226 5.05129 0
M  V30 7746 H 732.261 -0.233849 5.51504 0
M  V30 7747 H 732.738 -1.2995 4.19535 0
M  V30 7748 H 733.344 0.372186 4.23668 0
M  V30 7749 N 731.66 -1.50943 0.453197 0
M  V30 7750 C 732.592 -2.25922 -0.38623 0
M  V30 7751 C 733.605 -1.3055 -0.972652 0
M  V30 7752 O 734.794 -1.56191 -0.864097 0
M  V30 7753 C 731.894 -3.01176 -1.5539 0
M  V30 7754 C 731.067 -4.23768 -1.0835 0
M  V30 7755 C 730.126 -4.81466 -2.12313 0
M  V30 7756 O 729.152 -5.42875 -1.71101 0
M  V30 7757 N 730.354 -4.66889 -3.44956 0
M  V30 7758 H 733.119 -2.98601 0.256468 0
M  V30 7759 H 730.68 -1.59408 0.282965 0
M  V30 7760 H 732.672 -3.36659 -2.24594 0
M  V30 7761 H 731.242 -2.31409 -2.10163 0
M  V30 7762 H 730.462 -3.93597 -0.217961 0
M  V30 7763 H 731.75 -5.03289 -0.746857 0
M  V30 7764 H 731.148 -4.18011 -3.81161 0
M  V30 7765 H 729.705 -5.06691 -4.1001 0
M  V30 7766 N 733.138 -0.185124 -1.56509 0
M  V30 7767 C 734.101 0.72591 -2.17401 0
M  V30 7768 C 735.101 1.14819 -1.12575 0
M  V30 7769 O 736.291 1.0629 -1.38015 0
M  V30 7770 C 733.423 1.98979 -2.76803 0
M  V30 7771 H 734.616 0.195588 -2.99262 0
M  V30 7772 H 732.169 0.0644772 -1.56167 0
M  V30 7773 H 732.904 2.56287 -1.98714 0
M  V30 7774 H 732.689 1.69583 -3.53531 0
M  V30 7775 H 734.179 2.63966 -3.23592 0
M  V30 7776 N 734.616 1.57351 0.0885366 0
M  V30 7777 C 735.546 2.05561 1.10757 0
M  V30 7778 C 736.527 0.945789 1.41382 0
M  V30 7779 O 737.712 1.21747 1.51299 0
M  V30 7780 C 734.842 2.48554 2.42566 0
M  V30 7781 C 733.796 3.63259 2.26334 0
M  V30 7782 C 733.122 3.9225 3.63378 0
M  V30 7783 C 734.422 4.93913 1.69844 0
M  V30 7784 H 736.116 2.90946 0.706468 0
M  V30 7785 H 733.662 1.39968 0.338385 0
M  V30 7786 H 735.615 2.8089 3.14132 0
M  V30 7787 H 734.339 1.60176 2.84625 0
M  V30 7788 H 732.998 3.31179 1.57213 0
M  V30 7789 H 732.646 3.0103 4.02976 0
M  V30 7790 H 732.346 4.69478 3.53362 0
M  V30 7791 H 733.87 4.27067 4.36401 0
M  V30 7792 H 735.284 5.24588 2.31258 0
M  V30 7793 H 733.681 5.75349 1.70569 0
M  V30 7794 H 734.751 4.80409 0.65843 0
M  V30 7795 N 736.094 -0.359525 1.53444 0
M  V30 7796 C 737.026 -1.46098 1.76602 0
M  V30 7797 C 738.039 -1.49395 0.646912 0
M  V30 7798 O 739.228 -1.52765 0.923307 0
M  V30 7799 C 736.328 -2.84836 1.83635 0
M  V30 7800 C 735.501 -3.05164 3.13358 0
M  V30 7801 C 734.56 -4.24051 3.11556 0
M  V30 7802 O 733.586 -4.18935 3.85334 0
M  V30 7803 N 734.788 -5.31775 2.328 0
M  V30 7804 H 737.553 -1.2661 2.71643 0
M  V30 7805 H 735.114 -0.549294 1.52297 0
M  V30 7806 H 737.106 -3.62516 1.799 0
M  V30 7807 H 735.676 -2.97542 0.958509 0
M  V30 7808 H 734.896 -2.15091 3.30348 0
M  V30 7809 H 736.184 -3.15619 3.99076 0
M  V30 7810 H 735.582 -5.38796 1.7238 0
M  V30 7811 H 734.139 -6.0801 2.34877 0
M  V30 7812 N 737.572 -1.44907 -0.619662 0
M  V30 7813 C 738.522 -1.49085 -1.72504 0
M  V30 7814 C 739.506 -0.355372 -1.56926 0
M  V30 7815 O 740.698 -0.601441 -1.66468 0
M  V30 7816 C 737.827 -1.44889 -3.11227 0
M  V30 7817 C 736.913 -2.63593 -3.32234 0
M  V30 7818 N 737.304 -3.88775 -3.23555 0
M  V30 7819 C 735.602 -2.59033 -3.63067 0
M  V30 7820 C 736.303 -4.67932 -3.45564 0
M  V30 7821 N 735.279 -3.9919 -3.68983 0
M  V30 7822 H 739.081 -2.43706 -1.6427 0
M  V30 7823 H 736.595 -1.4003 -0.82252 0
M  V30 7824 H 738.592 -1.45966 -3.90512 0
M  V30 7825 H 737.252 -0.513143 -3.2062 0
M  V30 7826 H 738.263 -4.20574 -3.02221 0
M  V30 7827 H 734.94 -1.7431 -3.79371 0
M  V30 7828 H 736.33 -5.76952 -3.44349 0
M  V30 7829 N 739.05 0.861098 -1.31996 0
M  V30 7830 C 740.466 1.14827 -1.10846 0
M  V30 7831 C 740.666 2.0117 0.11528 0
M  V30 7832 O 739.722 2.39423 0.802048 0
M  V30 7833 C 741.035 1.83183 -2.38462 0
M  V30 7834 C 742.583 1.95847 -2.44158 0
M  V30 7835 C 743.058 2.67617 -3.71679 0
M  V30 7836 N 744.549 2.75147 -3.72624 0
M  V30 7837 C 745.284 3.31314 -4.67994 0
M  V30 7838 N 744.78 3.88343 -5.73726 0
M  V30 7839 N 746.573 3.29356 -4.55501 0
M  V30 7840 H 738.724 0.285951 -2.10466 0
M  V30 7841 H 740.987 0.189303 -0.928907 0
M  V30 7842 H 740.693 1.27193 -3.27895 0
M  V30 7843 H 740.567 2.83393 -2.48935 0
M  V30 7844 H 742.954 2.50999 -1.55189 0
M  V30 7845 H 743.035 0.94653 -2.37644 0
M  V30 7846 H 742.679 2.13131 -4.61018 0
M  V30 7847 H 742.609 3.69237 -3.75462 0
M  V30 7848 H 745.1 2.34682 -2.96197 0
M  V30 7849 H 745.413 4.29338 -6.42564 0
M  V30 7850 H 743.758 3.86693 -5.77489 0
M  V30 7851 H 746.949 2.84047 -3.72069 0
M  V30 7852 H 747.122 3.7283 -5.30001 0
M  V30 7853 N 740.528 1.15101 1.07655 0
M  V30 7854 C 741.753 0.948177 1.84457 0
M  V30 7855 C 742.178 -0.498432 1.81376 0
M  V30 7856 O 741.536 -1.35509 1.20445 0
M  V30 7857 C 741.584 1.46318 3.29581 0
M  V30 7858 O 740.688 0.660342 4.07079 0
M  V30 7859 H 740.029 0.338428 0.571281 0
M  V30 7860 H 742.559 1.5301 1.35828 0
M  V30 7861 H 742.569 1.47468 3.80417 0
M  V30 7862 H 741.244 2.51635 3.31138 0
M  V30 7863 H 739.821 0.718216 3.65918 0
M  V30 7864 N 742.006 -1.2595 0.947325 0
M  V30 7865 C 742.938 -2.25336 0.41906 0
M  V30 7866 C 743.951 -1.56135 -0.461051 0
M  V30 7867 O 745.14 -1.76438 -0.270505 0
M  V30 7868 C 742.24 -3.36334 -0.416233 0
M  V30 7869 C 741.413 -4.35088 0.449162 0
M  V30 7870 C 740.472 -5.25185 -0.326716 0
M  V30 7871 O 739.498 -5.68548 0.272374 0
M  V30 7872 N 740.7 -5.57388 -1.6217 0
M  V30 7873 H 743.465 -2.71298 1.27348 0
M  V30 7874 H 741.026 -1.39781 0.81688 0
M  V30 7875 H 743.018 -3.93564 -0.942826 0
M  V30 7876 H 741.588 -2.89819 -1.17148 0
M  V30 7877 H 740.808 -3.76841 1.15692 0
M  V30 7878 H 742.096 -4.98056 1.04008 0
M  V30 7879 H 741.494 -5.2405 -2.13046 0
M  V30 7880 H 740.051 -6.17234 -2.0944 0
M  V30 7881 N 743.484 -0.715051 -1.40445 0
M  V30 7882 C 744.714 -0.263576 -2.04912 0
M  V30 7883 C 745.122 1.09943 -1.53978 0
M  V30 7884 O 744.465 1.70203 -0.691133 0
M  V30 7885 C 744.527 -0.165048 -3.59121 0
M  V30 7886 C 744.191 -1.46325 -4.32941 0
M  V30 7887 C 745.188 -2.40506 -4.60926 0
M  V30 7888 C 742.873 -1.72203 -4.7186 0
M  V30 7889 C 744.867 -3.58812 -5.26814 0
M  V30 7890 C 742.554 -2.9079 -5.3748 0
M  V30 7891 C 743.552 -3.83917 -5.64887 0
M  V30 7892 O 743.24 -5.00424 -6.29151 0
M  V30 7893 H 742.972 -0.116317 -0.665918 0
M  V30 7894 H 745.526 -0.973774 -1.8085 0
M  V30 7895 H 743.756 0.601088 -3.82 0
M  V30 7896 H 745.445 0.251794 -4.05118 0
M  V30 7897 H 746.211 -2.21778 -4.31323 0
M  V30 7898 H 742.09 -1.00571 -4.49896 0
M  V30 7899 H 745.634 -4.31517 -5.48123 0
M  V30 7900 H 741.531 -3.09428 -5.66502 0
M  V30 7901 H 742.299 -5.00494 -6.47648 0
M  V30 7902 N 744.962 1.50701 -0.461195 0
M  V30 7903 C 746.209 2.02267 0.0971971 0
M  V30 7904 C 746.537 1.34387 1.40608 0
M  V30 7905 O 745.792 0.455254 1.90331 0
M  V30 7906 C 746.091 3.55788 0.33908 0
M  V30 7907 C 745.757 4.42092 -0.886885 0
M  V30 7908 C 744.419 4.65398 -1.22304 0
M  V30 7909 C 746.771 4.92571 -1.70361 0
M  V30 7910 C 744.099 5.36429 -2.37616 0
M  V30 7911 C 746.451 5.64868 -2.84793 0
M  V30 7912 C 745.115 5.86431 -3.18834 0
M  V30 7913 H 744.385 0.740146 0.0355669 0
M  V30 7914 H 747.032 1.81415 -0.61326 0
M  V30 7915 H 745.337 3.751 1.13168 0
M  V30 7916 H 747.034 3.93243 0.784937 0
M  V30 7917 H 743.624 4.24165 -0.614981 0
M  V30 7918 H 747.808 4.74428 -1.4571 0
M  V30 7919 H 743.064 5.51333 -2.64276 0
M  V30 7920 H 747.238 6.02966 -3.48432 0
M  V30 7921 H 744.865 6.41248 -4.08296 0
M  V30 7922 N 746.441 0.193421 1.56409 0
M  V30 7923 C 747.351 -0.740112 2.2262 0
M  V30 7924 C 748.367 -1.23597 1.22474 0
M  V30 7925 O 749.543 -1.28348 1.55206 0
M  V30 7926 C 746.608 -1.94317 2.87127 0
M  V30 7927 C 745.669 -1.49205 4.02538 0
M  V30 7928 C 744.902 -2.63776 4.63959 0
M  V30 7929 O 745.125 -3.81215 4.24301 0
M  V30 7930 O 744.059 -2.36585 5.53454 0
M  V30 7931 H 747.885 -0.206238 3.02999 0
M  V30 7932 H 745.47 -0.0357938 1.49357 0
M  V30 7933 H 747.352 -2.64633 3.27944 0
M  V30 7934 H 746.027 -2.46568 2.09728 0
M  V30 7935 H 744.934 -0.757738 3.66346 0
M  V30 7936 H 746.267 -1.01622 4.81595 0
M  V30 7937 N 747.919 -1.57396 -0.0801906 0
M  V30 7938 C 749.167 -1.86467 -0.779384 0
M  V30 7939 C 749.488 -0.784243 -1.78535 0
M  V30 7940 O 748.758 0.187986 -1.94996 0
M  V30 7941 H 747.338 -0.68806 -0.29083 0
M  V30 7942 H 750 -1.94813 -0.0582749 0
M  V30 7943 H 749.096 -2.83701 -1.30078 0
M  V30 7944 N 749.397 0.351382 -1.53633 0
M  V30 7945 C 750.643 1.09411 -1.70754 0
M  V30 7946 C 750.976 1.88544 -0.465293 0
M  V30 7947 O 750.251 1.86923 0.537608 0
M  V30 7948 C 750.534 2.04173 -2.96623 0
M  V30 7949 C 750.387 1.28556 -4.31038 0
M  V30 7950 C 751.706 3.04102 -3.18136 0
M  V30 7951 H 748.825 0.396373 -0.621335 0
M  V30 7952 H 751.467 0.373464 -1.86293 0
M  V30 7953 H 749.617 2.65625 -2.83506 0
M  V30 7954 H 751.289 0.697786 -4.55992 0
M  V30 7955 H 749.532 0.587498 -4.29803 0
M  V30 7956 H 750.203 1.97989 -5.15271 0
M  V30 7957 H 752.679 2.5276 -3.30532 0
M  V30 7958 H 751.555 3.67616 -4.07615 0
M  V30 7959 H 751.816 3.75053 -2.34068 0
M  V30 7960 N 750.875 1.45233 0.611969 0
M  V30 7961 C 752.121 1.49242 1.37312 0
M  V30 7962 C 752.454 0.131963 1.93751 0
M  V30 7963 O 751.729 -0.852999 1.74798 0
M  V30 7964 C 752.012 2.56811 2.52428 0
M  V30 7965 C 751.865 4.02284 2.01215 0
M  V30 7966 C 753.184 2.60705 3.54572 0
M  V30 7967 H 750.303 0.54336 0.497925 0
M  V30 7968 H 752.945 1.77019 0.690242 0
M  V30 7969 H 751.095 2.33256 3.10683 0
M  V30 7970 H 752.767 4.37035 1.47643 0
M  V30 7971 H 751.01 4.1315 1.32248 0
M  V30 7972 H 751.681 4.7323 2.84178 0
M  V30 7973 H 754.157 2.81799 3.06151 0
M  V30 7974 H 753.033 3.37841 4.32614 0
M  V30 7975 H 753.294 1.65627 4.09903 0
M  V30 7976 N 752.353 -0.854086 1.3245 0
M  V30 7977 C 753.3 -1.96271 1.21434 0
M  V30 7978 C 754.27 -1.6582 0.0963851 0
M  V30 7979 O 755.455 -1.88851 0.27203 0
M  V30 7980 C 752.595 -3.31939 0.943952 0
M  V30 7981 C 751.708 -3.74885 2.14675 0
M  V30 7982 C 750.843 -4.99347 1.81179 0
M  V30 7983 C 749.882 -5.34785 2.97777 0
M  V30 7984 N 749.019 -6.50425 2.6437 0
M  V30 7985 H 753.859 -2.05025 2.16261 0
M  V30 7986 H 751.396 -1.00348 1.07558 0
M  V30 7987 H 753.354 -4.10076 0.767675 0
M  V30 7988 H 751.984 -3.22784 0.0324763 0
M  V30 7989 H 751.036 -2.92396 2.43328 0
M  V30 7990 H 752.348 -3.97068 3.01891 0
M  V30 7991 H 751.502 -5.85193 1.60107 0
M  V30 7992 H 750.241 -4.79101 0.911777 0
M  V30 7993 H 749.246 -4.47451 3.1948 0
M  V30 7994 H 750.471 -5.56988 3.88511 0
M  V30 7995 H 748.417 -6.31695 1.7691 0
M  V30 7996 H 748.334 -6.7263 3.45116 0
M  V30 7997 H 749.602 -7.39422 2.46729 0
M  V30 7998 N 753.831 -1.1567 -1.07043 0
M  V30 7999 C 755.071 -0.944089 -1.81291 0
M  V30 8000 C 755.435 0.519305 -1.84844 0
M  V30 8001 O 756.636 0.850357 -2.54995 0
M  V30 8002 C 754.907 -1.54528 -3.22267 0
M  V30 8003 S 756.466 -1.47623 -4.13223 0
M  V30 8004 H 753.284 -0.339696 -0.624602 0
M  V30 8005 H 755.886 -1.47277 -1.28568 0
M  V30 8006 H 754.59 -2.60321 -3.17271 0
M  V30 8007 H 754.121 -1.0156 -3.80065 0
M  V30 8008 H 756.136 -0.471261 -4.93957 0
M  V30 8009 N 755.309 1.25446 -0.953992 0
M  V30 8010 C 756.257 2.27909 -0.46478 0
M  V30 8011 C 757.251 1.62904 0.464607 0
M  V30 8012 O 758.457 1.76733 0.341407 0
M  V30 8013 H 754.832 0.74036 -0.131798 0
M  V30 8014 H 756.803 2.66559 -1.34122 0
M  V30 8015 C 755.552 3.46853 0.242589 0
M  V30 8016 H 754.875 3.97105 -0.463418 0
M  V30 8017 H 756.315 4.20432 0.548919 0
M  V30 8018 C 754.774 3.03386 1.46487 0
M  V30 8019 O 755.304 3.09342 2.56262 0
M  V30 8020 N 753.51 2.58584 1.32599 0
M  V30 8021 H 753.057 2.53938 0.432834 0
M  V30 8022 H 753.015 2.29866 2.14497 0
M  V30 8023 N 756.787 0.722489 1.40064 0
M  V30 8024 C 757.734 0.0743738 2.3068 0
M  V30 8025 C 758.704 -0.743004 1.48555 0
M  V30 8026 O 759.889 -0.705536 1.77276 0
M  V30 8027 C 757.029 -0.836292 3.34814 0
M  V30 8028 C 756.142 -0.00764663 4.31999 0
M  V30 8029 C 755.277 -0.918428 5.232 0
M  V30 8030 C 754.316 -0.0842838 6.12042 0
M  V30 8031 N 753.453 -0.950316 6.95639 0
M  V30 8032 H 758.293 0.852794 2.85537 0
M  V30 8033 H 755.83 0.432222 1.40607 0
M  V30 8034 H 757.788 -1.3786 3.93765 0
M  V30 8035 H 756.418 -1.58082 2.81443 0
M  V30 8036 H 755.47 0.651928 3.74772 0
M  V30 8037 H 756.782 0.63786 4.94705 0
M  V30 8038 H 755.936 -1.52902 5.87116 0
M  V30 8039 H 754.675 -1.59774 4.60786 0
M  V30 8040 H 753.68 0.5392 5.4715 0
M  V30 8041 H 754.905 0.591628 6.76518 0
M  V30 8042 H 752.851 -1.61515 6.35806 0
M  V30 8043 H 752.768 -0.361004 7.55138 0
M  V30 8044 H 754.036 -1.54687 7.63997 0
M  V30 8045 N 758.265 -1.50454 0.469181 0
M  V30 8046 C 759.195 -2.31353 -0.31592 0
M  V30 8047 C 760.176 -1.38172 -0.992094 0
M  V30 8048 O 761.361 -1.67093 -0.989633 0
M  V30 8049 C 758.491 -3.1786 -1.39937 0
M  V30 8050 C 757.445 -4.19578 -0.844909 0
M  V30 8051 C 756.771 -4.9481 -2.0265 0
M  V30 8052 C 758.071 -5.22106 0.142499 0
M  V30 8053 H 759.765 -2.97237 0.359269 0
M  V30 8054 H 757.311 -1.42942 0.174224 0
M  V30 8055 H 759.264 -3.7325 -1.95607 0
M  V30 8056 H 757.988 -2.49858 -2.1033 0
M  V30 8057 H 756.647 -3.65285 -0.310189 0
M  V30 8058 H 756.295 -4.23282 -2.71737 0
M  V30 8059 H 755.995 -5.63613 -1.66174 0
M  V30 8060 H 757.519 -5.53035 -2.58815 0
M  V30 8061 H 758.933 -5.72378 -0.324966 0
M  V30 8062 H 757.33 -5.98618 0.421441 0
M  V30 8063 H 758.4 -4.7297 1.06901 0
M  V30 8064 N 759.743 -0.201713 -1.56304 0
M  V30 8065 C 760.653 0.728296 -2.23009 0
M  V30 8066 C 761.669 1.22945 -1.23128 0
M  V30 8067 O 762.845 1.27523 -1.55884 0
M  V30 8068 C 759.91 1.92792 -2.88153 0
M  V30 8069 C 758.971 1.47068 -4.03323 0
M  V30 8070 C 758.204 2.61312 -4.65351 0
M  V30 8071 O 758.427 3.7896 -4.26317 0
M  V30 8072 O 757.361 2.33646 -5.54701 0
M  V30 8073 H 761.187 0.190166 -3.03104 0
M  V30 8074 H 758.772 0.0278725 -1.49374 0
M  V30 8075 H 760.654 2.6289 -3.29343 0
M  V30 8076 H 759.329 2.45452 -2.11033 0
M  V30 8077 H 758.236 0.738299 -3.66742 0
M  V30 8078 H 759.569 0.990666 -4.82127 0
M  V30 8079 N 761.222 1.57436 0.0718424 0
M  V30 8080 C 762.471 1.86431 0.769826 0
M  V30 8081 C 762.784 0.794355 1.78744 0
M  V30 8082 O 763.99 0.972148 2.53499 0
M  V30 8083 C 762.446 3.307 1.42006 0
M  V30 8084 C 762.054 4.45824 0.441017 0
M  V30 8085 C 763.798 3.68894 2.10041 0
M  V30 8086 C 761.705 5.81134 1.09717 0
M  V30 8087 H 760.635 0.695474 0.291259 0
M  V30 8088 H 763.286 1.83485 0.0231224 0
M  V30 8089 H 761.668 3.28257 2.21502 0
M  V30 8090 H 762.842 4.59659 -0.32413 0
M  V30 8091 H 761.157 4.16181 -0.134886 0
M  V30 8092 H 763.754 4.67281 2.59908 0
M  V30 8093 H 764.097 2.98692 2.89981 0
M  V30 8094 H 764.63 3.73326 1.37376 0
M  V30 8095 H 761.369 6.54628 0.338095 0
M  V30 8096 H 760.889 5.711 1.83317 0
M  V30 8097 H 762.568 6.26468 1.617 0
M  V30 8098 N 762.7 -0.34323 1.53817 0
M  V30 8099 C 763.63 -1.42709 1.84814 0
M  V30 8100 C 764.611 -1.5488 0.703297 0
M  V30 8101 O 765.796 -1.69082 0.955237 0
M  V30 8102 C 762.926 -2.79756 2.05801 0
M  V30 8103 C 761.88 -2.82392 3.21619 0
M  V30 8104 C 761.206 -4.22326 3.2794 0
M  V30 8105 C 762.506 -2.479 4.59721 0
M  V30 8106 H 764.2 -1.17018 2.75585 0
M  V30 8107 H 761.746 -0.561485 1.32602 0
M  V30 8108 H 763.699 -3.55627 2.26069 0
M  V30 8109 H 762.423 -3.06883 1.11761 0
M  V30 8110 H 761.082 -2.08974 3.01207 0
M  V30 8111 H 760.73 -4.46564 2.31494 0
M  V30 8112 H 760.43 -4.25001 4.05768 0
M  V30 8113 H 761.954 -5.00039 3.50419 0
M  V30 8114 H 763.368 -3.13484 4.80001 0
M  V30 8115 H 761.765 -2.61857 5.39954 0
M  V30 8116 H 762.835 -1.43087 4.63308 0
M  V30 8117 N 764.178 -1.45556 -0.604258 0
M  V30 8118 C 765.088 -1.57025 -1.74299 0
M  V30 8119 C 766.104 -0.45456 -1.67958 0
M  V30 8120 O 767.28 -0.715711 -1.88254 0
M  V30 8121 C 764.345 -1.53702 -3.10768 0
M  V30 8122 C 763.406 -2.76335 -3.28538 0
M  V30 8123 C 762.639 -2.73161 -4.58496 0
M  V30 8124 O 762.862 -1.80678 -5.41028 0
M  V30 8125 O 761.796 -3.64409 -4.79051 0
M  V30 8126 H 765.622 -2.53284 -1.67573 0
M  V30 8127 H 763.207 -1.28104 -0.768745 0
M  V30 8128 H 765.089 -1.54468 -3.92068 0
M  V30 8129 H 763.764 -0.605957 -3.17978 0
M  V30 8130 H 762.671 -2.8113 -2.46813 0
M  V30 8131 H 764.004 -3.68578 -3.26207 0
M  V30 8132 N 765.656 0.84705 -1.32902 0
M  V30 8133 C 766.884 1.63403 -1.26913 0
M  V30 8134 C 767.299 1.88108 0.161483 0
M  V30 8135 O 766.656 1.45546 1.10103 0
M  V30 8136 C 766.707 2.98896 -2.03331 0
M  V30 8137 O 766.428 2.75281 -3.40811 0
M  V30 8138 C 767.929 3.93335 -2.04457 0
M  V30 8139 H 765.149 0.508701 -0.437566 0
M  V30 8140 H 767.693 1.05567 -1.75145 0
M  V30 8141 H 765.848 3.53356 -1.58802 0
M  V30 8142 H 766.262 3.61504 -3.8002 0
M  V30 8143 H 767.736 4.85647 -2.62394 0
M  V30 8144 H 768.213 4.26885 -1.03274 0
M  V30 8145 H 768.819 3.44812 -2.48967 0
M  V30 8146 N 767.134 1.16236 1.06428 0
M  V30 8147 C 768.383 0.937523 1.78587 0
M  V30 8148 C 768.696 -0.536 1.88113 0
M  V30 8149 O 769.902 -0.878697 2.56887 0
M  V30 8150 C 768.358 1.62808 3.2097 0
M  V30 8151 C 767.966 3.13927 3.19615 0
M  V30 8152 C 769.71 1.48515 3.97673 0
M  V30 8153 C 767.617 3.75727 4.56709 0
M  V30 8154 H 766.547 0.347125 0.669343 0
M  V30 8155 H 769.198 1.39353 1.19385 0
M  V30 8156 H 767.58 1.09977 3.80422 0
M  V30 8157 H 768.754 3.7359 2.69753 0
M  V30 8158 H 767.069 3.28089 2.56411 0
M  V30 8159 H 769.666 1.92069 4.99013 0
M  V30 8160 H 770.009 0.433913 4.14032 0
M  V30 8161 H 770.542 1.98494 3.44739 0
M  V30 8162 H 767.281 4.80793 4.45554 0
M  V30 8163 H 766.801 3.20849 5.0677 0
M  V30 8164 H 768.48 3.77203 5.25668 0
M  V30 8165 N 768.612 -1.24939 0.960631 0
M  V30 8166 C 769.858 -1.93104 0.61958 0
M  V30 8167 C 770.191 -1.74991 -0.84212 0
M  V30 8168 O 769.466 -1.09867 -1.60498 0
M  V30 8169 C 769.749 -3.46326 0.986422 0
M  V30 8170 C 769.602 -3.73638 2.50429 0
M  V30 8171 C 770.921 -4.37067 0.515827 0
M  V30 8172 H 768.04 -0.701311 0.226566 0
M  V30 8173 H 770.682 -1.47442 1.19836 0
M  V30 8174 H 768.832 -3.85348 0.493907 0
M  V30 8175 H 770.504 -3.44217 3.07103 0
M  V30 8176 H 768.747 -3.19035 2.93937 0
M  V30 8177 H 769.418 -4.80815 2.71147 0
M  V30 8178 H 771.894 -4.05381 0.938389 0
M  V30 8179 H 770.77 -5.43022 0.80114 0
M  V30 8180 H 771.031 -4.38224 -0.584171 0
M  V30 8181 N 770.09 -0.729906 -1.39679 0
M  V30 8182 C 771.367 -0.202149 -1.94553 0
M  V30 8183 C 771.747 1.29507 -1.66707 0
M  V30 8184 O 771.095 2.05819 -0.992517 0
M  V30 8185 C 771.305 -0.530279 -3.44948 0
M  V30 8186 C 772.653 -0.476808 -4.21914 0
M  V30 8187 O 773.677 -0.467171 -3.53123 0
M  V30 8188 O 772.536 -0.466869 -5.44502 0
M  V30 8189 H 769.63 -0.0351644 -0.826252 0
M  V30 8190 H 772.176 -0.808417 -1.49207 0
M  V30 8191 H 770.948 -1.56526 -3.5863 0
M  V30 8192 H 770.571 0.10522 -3.97461 0
M  V30 8193 N 771.568 1.50203 -0.477153 0
M  V30 8194 C 772.984 1.59056 -0.131663 0
M  V30 8195 C 773.184 1.48473 1.36227 0
M  V30 8196 O 772.24 1.34635 2.13611 0
M  V30 8197 C 773.553 2.92741 -0.687254 0
M  V30 8198 C 775.101 3.0615 -0.651223 0
M  V30 8199 C 775.576 4.42419 -1.18446 0
M  V30 8200 N 777.067 4.48847 -1.14413 0
M  V30 8201 C 777.802 5.52689 -1.52717 0
M  V30 8202 N 777.298 6.63754 -1.98499 0
M  V30 8203 N 779.091 5.43267 -1.44282 0
M  V30 8204 H 771.242 1.55325 -1.44872 0
M  V30 8205 H 773.505 0.734395 -0.599473 0
M  V30 8206 H 773.211 3.0598 -1.73405 0
M  V30 8207 H 773.085 3.76961 -0.134215 0
M  V30 8208 H 775.472 2.92556 0.386677 0
M  V30 8209 H 775.553 2.23673 -1.24114 0
M  V30 8210 H 775.197 4.56763 -2.22103 0
M  V30 8211 H 775.127 5.23498 -0.570709 0
M  V30 8212 H 777.618 3.69152 -0.808416 0
M  V30 8213 H 777.931 7.39059 -2.25859 0
M  V30 8214 H 776.276 6.64858 -2.02456 0
M  V30 8215 H 779.467 4.55387 -1.08352 0
M  V30 8216 H 779.64 6.24074 -1.74459 0
M  V30 8217 N 773.046 0.209999 1.56195 0
M  V30 8218 C 774.295 -0.425106 1.97169 0
M  V30 8219 C 774.608 -1.61718 1.10031 0
M  V30 8220 O 775.814 -2.32105 1.40853 0
M  V30 8221 C 774.27 -0.80771 3.50719 0
M  V30 8222 C 773.878 0.360902 4.46544 0
M  V30 8223 C 775.622 -1.40906 4.00432 0
M  V30 8224 C 773.529 -0.0434919 5.91384 0
M  V30 8225 H 772.459 -0.162598 0.736259 0
M  V30 8226 H 775.11 0.304382 1.80958 0
M  V30 8227 H 773.492 -1.59429 3.62489 0
M  V30 8228 H 774.666 1.13846 4.46515 0
M  V30 8229 H 772.981 0.874729 4.07109 0
M  V30 8230 H 775.578 -1.72433 5.06133 0
M  V30 8231 H 775.921 -2.32081 3.45607 0
M  V30 8232 H 776.454 -0.686154 3.91838 0
M  V30 8233 H 773.193 0.834448 6.50167 0
M  V30 8234 H 772.713 -0.785598 5.94633 0
M  V30 8235 H 774.392 -0.474176 6.4526 0
M  V30 8236 N 774.524 -1.57472 -0.0634922 0
M  V30 8237 C 775.77 -1.87932 -0.762194 0
M  V30 8238 C 776.103 -0.803377 -1.76804 0
M  V30 8239 O 775.378 0.185468 -1.93614 0
M  V30 8240 C 775.661 -3.29053 -1.46275 0
M  V30 8241 C 775.514 -4.47309 -0.472755 0
M  V30 8242 C 776.833 -3.68537 -2.40558 0
M  V30 8243 H 773.952 -0.683521 -0.275624 0
M  V30 8244 H 776.594 -1.89983 -0.0252651 0
M  V30 8245 H 774.744 -3.27435 -2.0909 0
M  V30 8246 H 776.416 -4.61053 0.150828 0
M  V30 8247 H 774.659 -4.33286 0.211187 0
M  V30 8248 H 775.33 -5.42853 -1.00072 0
M  V30 8249 H 777.806 -3.71302 -1.87814 0
M  V30 8250 H 776.682 -4.68152 -2.86574 0
M  V30 8251 H 776.943 -2.98917 -3.25731 0
M  V30 8252 N 776.003 0.335068 -1.53997 0
M  V30 8253 C 777.419 0.678704 -1.4445 0
M  V30 8254 C 777.619 1.92106 -0.608078 0
M  V30 8255 O 776.675 2.52292 -0.102373 0
M  V30 8256 C 777.988 0.863435 -2.88037 0
M  V30 8257 C 779.536 0.961513 -2.97866 0
M  V30 8258 C 780.011 1.1785 -4.42578 0
M  V30 8259 N 781.502 1.2455 -4.46141 0
M  V30 8260 C 782.237 1.43106 -5.55255 0
M  V30 8261 N 781.733 1.5878 -6.74359 0
M  V30 8262 N 783.526 1.45722 -5.42883 0
M  V30 8263 H 775.677 -0.481656 -2.06867 0
M  V30 8264 H 777.94 -0.153615 -0.935471 0
M  V30 8265 H 777.646 0.0219511 -3.51693 0
M  V30 8266 H 777.52 1.76268 -3.33481 0
M  V30 8267 H 779.907 1.79351 -2.34344 0
M  V30 8268 H 779.988 0.0389862 -2.5577 0
M  V30 8269 H 779.632 0.351397 -5.06683 0
M  V30 8270 H 779.562 2.11472 -4.82273 0
M  V30 8271 H 782.053 1.13928 -3.60318 0
M  V30 8272 H 782.366 1.72599 -7.53279 0
M  V30 8273 H 780.711 1.559 -6.77289 0
M  V30 8274 H 783.902 1.33065 -4.48789 0
M  V30 8275 H 784.075 1.59841 -6.27977 0
M  V30 8276 N 777.481 1.45874 0.596531 0
M  V30 8277 C 778.444 1.54988 1.68853 0
M  V30 8278 C 779.444 0.428302 1.54991 0
M  V30 8279 O 780.634 0.692158 1.59859 0
M  V30 8280 C 777.766 1.457 3.08195 0
M  V30 8281 H 778.959 2.52294 1.62135 0
M  V30 8282 H 776.512 1.33479 0.813206 0
M  V30 8283 H 777.247 0.496204 3.20481 0
M  V30 8284 H 777.032 2.27061 3.19665 0
M  V30 8285 H 778.522 1.55133 3.87716 0
M  V30 8286 N 778.959 -0.83999 1.33349 0
M  V30 8287 C 779.869 -1.98182 1.25543 0
M  V30 8288 C 780.885 -1.73204 0.166208 0
M  V30 8289 O 782.061 -1.97596 0.389589 0
M  V30 8290 C 779.126 -3.32157 0.993614 0
M  V30 8291 C 778.187 -3.70258 2.17273 0
M  V30 8292 C 777.42 -4.9784 1.92331 0
M  V30 8293 O 777.643 -5.63679 0.873074 0
M  V30 8294 O 776.577 -5.33418 2.78835 0
M  V30 8295 H 780.403 -2.07708 2.21565 0
M  V30 8296 H 777.988 -0.972852 1.13384 0
M  V30 8297 H 779.87 -4.12433 0.864711 0
M  V30 8298 H 778.545 -3.23637 0.0636596 0
M  V30 8299 H 777.452 -2.90497 2.35716 0
M  V30 8300 H 778.785 -3.83442 3.08598 0
M  V30 8301 N 780.437 -1.16799 -1.0581 0
M  V30 8302 C 781.683 -0.953935 -1.78963 0
M  V30 8303 C 782.016 0.516638 -1.87202 0
M  V30 8304 O 781.291 1.38338 -1.36721 0
M  V30 8305 C 781.574 -1.58808 -3.23191 0
M  V30 8306 C 781.427 -3.13032 -3.23003 0
M  V30 8307 C 782.746 -1.2868 -4.20867 0
M  V30 8308 H 779.865 -0.347972 -0.64968 0
M  V30 8309 H 782.507 -1.44204 -1.23715 0
M  V30 8310 H 780.657 -1.17303 -3.70368 0
M  V30 8311 H 782.329 -3.63553 -2.83949 0
M  V30 8312 H 780.572 -3.46108 -2.61518 0
M  V30 8313 H 781.243 -3.52527 -4.24769 0
M  V30 8314 H 783.719 -1.6461 -3.82155 0
M  V30 8315 H 782.595 -1.75645 -5.20038 0
M  V30 8316 H 782.856 -0.206491 -4.41618 0
M  V30 8317 N 781.915 1.24427 -0.967243 0
M  V30 8318 C 782.865 2.23143 -0.468106 0
M  V30 8319 C 783.849 1.5449 0.449633 0
M  V30 8320 O 785.041 1.74761 0.28063 0
M  V30 8321 C 782.17 3.42454 0.240867 0
M  V30 8322 C 781.256 4.18355 -0.695674 0
M  V30 8323 N 781.647 4.71428 -1.83273 0
M  V30 8324 C 779.945 4.43116 -0.506365 0
M  V30 8325 C 780.646 5.29041 -2.41849 0
M  V30 8326 N 779.622 5.16213 -1.70369 0
M  V30 8327 H 783.424 2.61795 -1.3357 0
M  V30 8328 H 780.938 1.39809 -0.826277 0
M  V30 8329 H 782.935 4.12329 0.615668 0
M  V30 8330 H 781.595 3.05323 1.10491 0
M  V30 8331 H 782.606 4.68177 -2.21428 0
M  V30 8332 H 779.283 4.16319 0.313747 0
M  V30 8333 H 780.673 5.80811 -3.37799 0
M  V30 8334 N 783.393 0.737304 1.3929 0
M  V30 8335 C 784.809 0.413132 1.5416 0
M  V30 8336 C 785.009 -1.07574 1.70382 0
M  V30 8337 O 784.065 -1.86185 1.70562 0
M  V30 8338 C 785.378 1.19817 2.75798 0
M  V30 8339 C 786.926 1.18662 2.89635 0
M  V30 8340 C 787.401 1.95427 4.14213 0
M  V30 8341 N 788.892 1.92605 4.21257 0
M  V30 8342 C 789.627 2.48808 5.16606 0
M  V30 8343 N 789.123 3.13659 6.1773 0
M  V30 8344 N 790.916 2.38829 5.08839 0
M  V30 8345 H 783.067 1.70243 1.27008 0
M  V30 8346 H 785.33 0.720802 0.61575 0
M  V30 8347 H 785.036 2.25179 2.70161 0
M  V30 8348 H 784.91 0.804144 3.68529 0
M  V30 8349 H 787.297 0.141112 2.94762 0
M  V30 8350 H 787.378 1.62003 1.97961 0
M  V30 8351 H 787.022 2.9998 4.09847 0
M  V30 8352 H 786.952 1.4949 5.04936 0
M  V30 8353 H 789.443 1.45362 3.48824 0
M  V30 8354 H 789.756 3.54006 6.8695 0
M  V30 8355 H 788.101 3.17749 6.1811 0
M  V30 8356 H 791.292 1.87806 4.28773 0
M  V30 8357 H 791.465 2.82929 5.82971 0
M  V30 8358 N 784.871 -1.49948 0.485112 0
M  V30 8359 C 785.801 -2.31675 -0.291364 0
M  V30 8360 C 786.782 -1.39216 -0.977383 0
M  V30 8361 O 787.967 -1.68133 -0.971855 0
M  V30 8362 C 785.097 -3.19326 -1.36558 0
M  V30 8363 C 784.051 -4.2045 -0.800359 0
M  V30 8364 C 783.377 -4.96931 -1.97391 0
M  V30 8365 C 784.677 -5.21925 0.197867 0
M  V30 8366 H 786.371 -2.96839 0.390775 0
M  V30 8367 H 783.917 -1.42749 0.189375 0
M  V30 8368 H 785.87 -3.75304 -1.91638 0
M  V30 8369 H 784.594 -2.52074 -2.07668 0
M  V30 8370 H 783.253 -3.65594 -0.271428 0
M  V30 8371 H 782.901 -4.26141 -2.67232 0
M  V30 8372 H 782.601 -5.65344 -1.60187 0
M  V30 8373 H 784.125 -5.55749 -2.52935 0
M  V30 8374 H 785.539 -5.72691 -0.264239 0
M  V30 8375 H 783.936 -5.98138 0.484908 0
M  V30 8376 H 785.006 -4.71809 1.11912 0
M  V30 8377 N 786.349 -0.21828 -1.56081 0
M  V30 8378 C 787.595 0.414921 -1.9851 0
M  V30 8379 C 787.928 1.59648 -1.10573 0
M  V30 8380 O 787.203 1.93818 -0.162695 0
M  V30 8381 C 787.486 0.852647 -3.4986 0
M  V30 8382 C 787.339 -0.33232 -4.48571 0
M  V30 8383 C 788.658 1.70998 -4.05521 0
M  V30 8384 H 785.777 0.149344 -0.72171 0
M  V30 8385 H 788.419 -0.313858 -1.8739 0
M  V30 8386 H 786.569 1.47362 -3.59467 0
M  V30 8387 H 788.241 -0.970418 -4.50977 0
M  V30 8388 H 786.484 -0.980302 -4.22578 0
M  V30 8389 H 787.155 0.0168407 -5.51997 0
M  V30 8390 H 789.631 1.18606 -3.98838 0
M  V30 8391 H 788.507 1.98517 -5.11744 0
M  V30 8392 H 788.768 2.67219 -3.52202 0
M  V30 8393 N 787.827 1.57504 0.0551401 0
M  V30 8394 C 789.073 1.88334 0.752216 0
M  V30 8395 C 789.406 0.812742 1.76375 0
M  V30 8396 O 788.681 -0.175198 1.93709 0
M  V30 8397 C 788.964 3.29824 1.44528 0
M  V30 8398 C 788.817 4.47553 0.449026 0
M  V30 8399 C 790.136 3.69808 2.38601 0
M  V30 8400 H 787.255 0.684973 0.271995 0
M  V30 8401 H 789.897 1.89994 0.0151895 0
M  V30 8402 H 788.047 3.28539 2.07351 0
M  V30 8403 H 789.719 4.60967 -0.175277 0
M  V30 8404 H 787.962 4.33168 -0.234162 0
M  V30 8405 H 788.633 5.43376 0.971917 0
M  V30 8406 H 791.109 3.72293 1.85842 0
M  V30 8407 H 789.985 4.69665 2.84088 0
M  V30 8408 H 790.246 3.00641 3.24141 0
M  V30 8409 N 789.305 -0.326896 1.54172 0
M  V30 8410 C 790.551 -1.06681 1.72473 0
M  V30 8411 C 790.884 -1.87779 0.49523 0
M  V30 8412 O 790.159 -1.87754 -0.507803 0
M  V30 8413 C 790.442 -1.99429 2.99834 0
M  V30 8414 C 790.295 -1.21682 4.33028 0
M  V30 8415 C 791.614 -2.99002 3.22933 0
M  V30 8416 H 788.733 -0.386438 0.627563 0
M  V30 8417 H 791.375 -0.343779 1.86864 0
M  V30 8418 H 789.525 -2.61081 2.87696 0
M  V30 8419 H 791.197 -0.625153 4.57044 0
M  V30 8420 H 789.44 -0.519045 4.30684 0
M  V30 8421 H 790.111 -1.89766 5.18356 0
M  V30 8422 H 792.587 -2.4747 3.34511 0
M  V30 8423 H 791.463 -3.61085 4.13412 0
M  V30 8424 H 791.724 -3.71281 2.40006 0
M  V30 8425 N 790.784 -1.46188 -0.588786 0
M  V30 8426 C 791.732 -1.56653 -1.71938 0
M  V30 8427 C 792.726 -0.435354 -1.6371 0
M  V30 8428 O 793.932 -0.611996 -1.69277 0
M  V30 8429 H 790.307 -0.492408 -0.568365 0
M  V30 8430 H 792.278 -2.51724 -1.60242 0
M  V30 8431 C 791.027 -1.56822 -3.10326 0
M  V30 8432 H 790.35 -2.43198 -3.17325 0
M  V30 8433 H 791.79 -1.68199 -3.89211 0
M  V30 8434 C 790.249 -0.295802 -3.35599 0
M  V30 8435 O 790.779 0.616515 -3.96941 0
M  V30 8436 N 788.985 -0.185609 -2.90007 0
M  V30 8437 H 788.532 -0.928914 -2.40269 0
M  V30 8438 H 788.49 0.664883 -3.07289 0
M  V30 8439 N 792.262 0.832906 -1.33792 0
M  V30 8440 C 793.172 1.97514 -1.26592 0
M  V30 8441 C 794.188 1.73114 -0.175391 0
M  V30 8442 O 795.364 1.97387 -0.400062 0
M  V30 8443 C 792.429 3.31625 -1.01121 0
M  V30 8444 C 791.49 3.69101 -2.19233 0
M  V30 8445 C 790.723 4.96813 -1.94968 0
M  V30 8446 O 790.946 5.63208 -0.902955 0
M  V30 8447 O 789.88 5.31932 -2.8166 0
M  V30 8448 H 793.706 2.0653 -2.22664 0
M  V30 8449 H 791.291 0.966826 -1.13898 0
M  V30 8450 H 793.173 4.11968 -0.886571 0
M  V30 8451 H 791.848 3.23599 -0.080822 0
M  V30 8452 H 790.755 2.89243 -2.37253 0
M  V30 8453 H 792.088 3.818 -3.10628 0
M  V30 8454 N 793.74 1.17359 1.05189 0
M  V30 8455 C 794.703 0.892604 2.11105 0
M  V30 8456 C 795.703 -0.117236 1.60372 0
M  V30 8457 O 796.893 0.114936 1.7382 0
M  V30 8458 C 794.025 0.337032 3.3923 0
M  V30 8459 H 795.218 1.83169 2.37464 0
M  V30 8460 H 792.771 0.984051 1.21434 0
M  V30 8461 H 793.506 -0.609198 3.18527 0
M  V30 8462 H 793.291 1.06484 3.77364 0
M  V30 8463 H 794.781 0.158763 4.17298 0
M  V30 8464 N 795.218 -1.23913 0.973828 0
M  V30 8465 C 796.495 -1.87539 0.555729 0
M  V30 8466 C 796.875 -1.87641 -0.967162 0
M  V30 8467 O 796.223 -1.35335 -1.84111 0
M  V30 8468 C 796.433 -3.29359 1.15427 0
M  V30 8469 C 797.781 -4.06 1.24294 0
M  V30 8470 O 798.805 -3.38554 1.10723 0
M  V30 8471 O 797.664 -5.26689 1.45813 0
M  V30 8472 H 794.758 -0.805769 0.186188 0
M  V30 8473 H 797.304 -1.31838 1.06849 0
M  V30 8474 H 796.076 -3.23817 2.19678 0
M  V30 8475 H 795.699 -3.92642 0.625925 0
M  V30 8476 N 796.696 -0.74468 -1.38897 0
M  V30 8477 C 797.921 -0.306119 -2.05128 0
M  V30 8478 C 798.346 1.0541 -1.55789 0
M  V30 8479 O 797.704 1.66993 -0.705909 0
M  V30 8480 C 797.752 -0.328195 -3.59103 0
M  V30 8481 O 796.856 0.680876 -4.06741 0
M  V30 8482 H 796.197 -0.137209 -0.649669 0
M  V30 8483 H 798.727 -1.01331 -1.77745 0
M  V30 8484 H 798.737 -0.175956 -4.0762 0
M  V30 8485 H 797.412 -1.32067 -3.94374 0
M  V30 8486 H 795.989 0.49398 -3.69614 0
M  V30 8487 N 798.174 1.49689 -0.493057 0
M  V30 8488 C 799.423 2.01622 0.0560733 0
M  V30 8489 C 799.736 1.37838 1.3878 0
M  V30 8490 O 800.942 1.81054 2.02316 0
M  V30 8491 C 799.398 3.59586 0.150409 0
M  V30 8492 C 799.006 4.32338 -1.1742 0
M  V30 8493 C 800.75 4.19489 0.650327 0
M  V30 8494 C 798.657 5.8214 -1.04246 0
M  V30 8495 H 797.587 0.753594 0.0247297 0
M  V30 8496 H 800.238 1.723 -0.631279 0
M  V30 8497 H 798.62 3.8559 0.902035 0
M  V30 8498 H 799.794 4.18042 -1.9385 0
M  V30 8499 H 798.109 3.84144 -1.60694 0
M  V30 8500 H 800.706 5.29181 0.766272 0
M  V30 8501 H 801.049 3.82326 1.6472 0
M  V30 8502 H 801.582 3.97775 -0.0445371 0
M  V30 8503 H 798.321 6.23814 -2.01336 0
M  V30 8504 H 797.841 5.98952 -0.31892 0
M  V30 8505 H 799.52 6.43004 -0.717957 0
M  V30 8506 N 799.652 0.226554 1.55963 0
M  V30 8507 C 800.898 -0.404387 1.98727 0
M  V30 8508 C 801.231 -1.59059 1.11418 0
M  V30 8509 O 800.506 -1.93729 0.172971 0
M  V30 8510 C 800.789 -0.834081 3.50307 0
M  V30 8511 C 800.642 0.356104 4.48388 0
M  V30 8512 C 801.961 -1.68845 4.06423 0
M  V30 8513 H 799.08 -0.145515 0.722492 0
M  V30 8514 H 801.722 0.323791 1.87221 0
M  V30 8515 H 799.872 -1.45454 3.60244 0
M  V30 8516 H 801.544 0.99432 4.50456 0
M  V30 8517 H 799.787 1.0027 4.22053 0
M  V30 8518 H 800.458 0.0124333 5.51999 0
M  V30 8519 H 802.934 -1.16489 3.99461 0
M  V30 8520 H 801.81 -1.958 5.1279 0
M  V30 8521 H 802.071 -2.65347 3.53615 0
M  V30 8522 N 801.13 -1.57531 -0.0467866 0
M  V30 8523 C 802.378 -1.88078 -0.739656 0
M  V30 8524 C 802.699 -0.821936 -1.76831 0
M  V30 8525 O 801.969 0.146582 -1.95351 0
M  V30 8526 H 800.549 -0.694075 -0.276169 0
M  V30 8527 H 803.211 -1.94893 -0.0169391 0
M  V30 8528 H 802.307 -2.86396 -1.24031 0
M  V30 8529 N 802.608 0.318715 -1.54344 0
M  V30 8530 C 803.857 1.05363 -1.71993 0
M  V30 8531 C 804.17 1.89018 -0.503155 0
M  V30 8532 O 805.376 2.65639 -0.561085 0
M  V30 8533 C 803.832 1.92281 -3.0423 0
M  V30 8534 C 803.44 1.13715 -4.33328 0
M  V30 8535 C 805.184 2.65479 -3.31242 0
M  V30 8536 C 803.091 1.99806 -5.56625 0
M  V30 8537 H 802.021 0.397081 -0.64097 0
M  V30 8538 H 804.672 0.311598 -1.80835 0
M  V30 8539 H 803.054 2.70402 -2.89307 0
M  V30 8540 H 804.228 0.403305 -4.59032 0
M  V30 8541 H 802.543 0.521769 -4.13118 0
M  V30 8542 H 805.14 3.30209 -4.20555 0
M  V30 8543 H 805.483 3.33374 -2.49334 0
M  V30 8544 H 806.016 1.94417 -3.47054 0
M  V30 8545 H 802.755 1.36411 -6.41149 0
M  V30 8546 H 802.275 2.70911 -5.35133 0
M  V30 8547 H 803.954 2.58277 -5.93213 0
M  V30 8548 N 804.086 1.46499 0.581025 0
M  V30 8549 C 805.335 1.51162 1.3354 0
M  V30 8550 C 805.648 0.168433 1.94873 0
M  V30 8551 O 806.854 0.092883 2.71341 0
M  V30 8552 C 805.31 2.66362 2.42032 0
M  V30 8553 C 804.918 4.07109 1.86994 0
M  V30 8554 C 806.662 2.80297 3.188 0
M  V30 8555 C 804.569 5.13645 2.93125 0
M  V30 8556 H 803.499 0.562576 0.502021 0
M  V30 8557 H 806.15 1.72713 0.619863 0
M  V30 8558 H 804.532 2.38143 3.16392 0
M  V30 8559 H 805.706 4.45125 1.19166 0
M  V30 8560 H 804.021 3.97854 1.22887 0
M  V30 8561 H 806.618 3.5706 3.9801 0
M  V30 8562 H 806.961 1.87875 3.71495 0
M  V30 8563 H 807.494 3.0817 2.51547 0
M  V30 8564 H 804.233 6.07866 2.45315 0
M  V30 8565 H 803.753 4.80172 3.59437 0
M  V30 8566 H 805.432 5.39562 3.57046 0
M  V30 8567 N 805.565 -0.825799 1.34232 0
M  V30 8568 C 806.79 -1.61883 1.29648 0
M  V30 8569 C 807.215 -1.87669 -0.127295 0
M  V30 8570 O 806.573 -1.45016 -1.08813 0
M  V30 8571 C 806.621 -2.93846 2.09014 0
M  V30 8572 O 805.725 -3.85778 1.4577 0
M  V30 8573 H 805.066 -0.492454 0.445405 0
M  V30 8574 H 807.596 -1.02641 1.76992 0
M  V30 8575 H 807.606 -3.43435 2.20264 0
M  V30 8576 H 806.281 -2.74401 3.12533 0
M  V30 8577 H 804.858 -3.4429 1.43245 0
M  V30 8578 N 807.043 -1.17915 -1.04565 0
M  V30 8579 C 807.973 -0.925033 -2.14395 0
M  V30 8580 C 808.954 0.135375 -1.6956 0
M  V30 8581 O 810.139 -0.0161774 -1.94193 0
M  V30 8582 C 807.269 -0.444469 -3.44444 0
M  V30 8583 C 806.223 -1.44478 -4.02877 0
M  V30 8584 C 805.549 -0.821933 -5.28345 0
M  V30 8585 C 806.849 -2.81995 -4.39632 0
M  V30 8586 H 808.543 -1.84354 -2.35911 0
M  V30 8587 H 806.089 -0.887806 -1.13375 0
M  V30 8588 H 808.042 -0.254078 -4.20633 0
M  V30 8589 H 806.766 0.509592 -3.226 0
M  V30 8590 H 805.425 -1.62203 -3.28764 0
M  V30 8591 H 805.073 0.139161 -5.02807 0
M  V30 8592 H 804.773 -1.48976 -5.68401 0
M  V30 8593 H 806.297 -0.641959 -6.07216 0
M  V30 8594 H 807.711 -2.67952 -5.06828 0
M  V30 8595 H 806.108 -3.45414 -4.90723 0
M  V30 8596 H 807.178 -3.35927 -3.49687 0
M  V30 8597 N 808.521 1.23394 -0.980386 0
M  V30 8598 C 809.746 1.96384 -0.666935 0
M  V30 8599 C 810.171 1.72087 0.759456 0
M  V30 8600 O 809.529 0.992328 1.51732 0
M  V30 8601 C 809.577 3.47499 -0.963177 0
M  V30 8602 O 808.681 4.12363 -0.0552051 0
M  V30 8603 H 808.022 0.614797 -0.250839 0
M  V30 8604 H 810.552 1.56831 -1.31398 0
M  V30 8605 H 810.562 3.97953 -0.899877 0
M  V30 8606 H 809.237 3.6451 -2.00264 0
M  V30 8607 H 807.814 3.72499 -0.172914 0
M  V30 8608 N 809.999 0.752036 1.385 0
M  V30 8609 C 811.276 0.233075 1.94206 0
M  V30 8610 C 811.656 -1.26838 1.68746 0
M  V30 8611 O 811.004 -2.04214 1.02513 0
M  V30 8612 C 811.214 0.58509 3.44061 0
M  V30 8613 C 812.562 0.543871 4.21102 0
M  V30 8614 O 813.586 0.523291 3.52335 0
M  V30 8615 O 812.445 0.553436 5.4369 0
M  V30 8616 H 809.539 0.0483049 0.825588 0
M  V30 8617 H 812.085 0.832053 1.47902 0
M  V30 8618 H 810.857 1.62212 3.56094 0
M  V30 8619 H 810.48 -0.0419738 3.97578 0
M  V30 8620 N 811.477 -1.49425 0.500989 0
M  V30 8621 C 812.726 -2.01649 -0.04538 0
M  V30 8622 C 813.039 -1.38572 -1.38047 0
M  V30 8623 O 814.245 -1.82124 -2.01353 0
M  V30 8624 C 812.701 -3.5966 -0.131337 0
M  V30 8625 C 812.309 -4.3171 1.19711 0
M  V30 8626 C 814.053 -4.19828 -0.628071 0
M  V30 8627 C 811.96 -5.81579 1.07332 0
M  V30 8628 H 810.89 -0.753715 -0.0207329 0
M  V30 8629 H 813.541 -1.71962 0.640407 0
M  V30 8630 H 811.923 -3.86063 -0.881574 0
M  V30 8631 H 813.097 -4.17008 1.96064 0
M  V30 8632 H 811.412 -3.83286 1.62729 0
M  V30 8633 H 814.009 -5.2958 -0.738198 0
M  V30 8634 H 814.352 -3.83194 -1.6269 0
M  V30 8635 H 814.885 -3.97746 0.0656314 0
M  V30 8636 H 811.624 -6.22738 2.04642 0
M  V30 8637 H 811.144 -5.98774 0.350679 0
M  V30 8638 H 812.823 -6.42614 0.752047 0
M  V30 8639 N 812.955 -0.234822 -1.55841 0
M  V30 8640 C 813.885 0.664217 -2.23854 0
M  V30 8641 C 814.866 1.19076 -1.2147 0
M  V30 8642 O 816.051 1.23232 -1.50091 0
M  V30 8643 C 813.181 1.86666 -2.9287 0
M  V30 8644 C 812.135 1.47341 -4.01839 0
M  V30 8645 C 811.461 2.75571 -4.58219 0
M  V30 8646 C 812.761 0.653479 -5.18196 0
M  V30 8647 H 814.455 0.0971213 -2.99242 0
M  V30 8648 H 812.001 0.0452724 -1.43929 0
M  V30 8649 H 813.954 2.50116 -3.39146 0
M  V30 8650 H 812.678 2.45894 -2.1495 0
M  V30 8651 H 811.337 0.862314 -3.56314 0
M  V30 8652 H 810.985 3.32971 -3.77014 0
M  V30 8653 H 810.685 2.49987 -5.31771 0
M  V30 8654 H 812.209 3.39939 -5.07221 0
M  V30 8655 H 813.623 1.19198 -5.60771 0
M  V30 8656 H 812.02 0.494188 -5.98062 0
M  V30 8657 H 813.09 -0.337004 -4.83728 0
M  V30 8658 N 814.433 1.57553 0.0384317 0
M  V30 8659 C 815.365 2.02726 1.06934 0
M  V30 8660 C 816.378 0.938502 1.33026 0
M  V30 8661 O 817.567 1.21595 1.30678 0
M  V30 8662 C 814.667 2.37958 2.41308 0
M  V30 8663 C 813.84 3.69098 2.34703 0
M  V30 8664 C 812.899 3.91623 3.51451 0
M  V30 8665 O 811.925 4.628 3.31368 0
M  V30 8666 N 813.127 3.36538 4.72993 0
M  V30 8667 H 815.892 2.91781 0.684381 0
M  V30 8668 H 813.453 1.60307 0.226542 0
M  V30 8669 H 815.445 2.50172 3.18113 0
M  V30 8670 H 814.015 1.54621 2.71682 0
M  V30 8671 H 813.235 3.67325 1.43059 0
M  V30 8672 H 814.523 4.55144 2.27424 0
M  V30 8673 H 813.921 2.78828 4.92211 0
M  V30 8674 H 812.478 3.54148 5.47195 0
M  V30 8675 N 815.911 -0.310526 1.54511 0
M  V30 8676 C 816.874 -1.3657 1.84068 0
M  V30 8677 C 817.874 -1.44123 0.713097 0
M  V30 8678 O 819.064 -1.43924 0.981399 0
M  V30 8679 C 816.196 -2.75162 2.01243 0
M  V30 8680 H 817.389 -1.1161 2.78358 0
M  V30 8681 H 814.942 -0.546699 1.46427 0
M  V30 8682 H 815.677 -3.05359 1.09208 0
M  V30 8683 H 815.462 -2.71071 2.83307 0
M  V30 8684 H 816.952 -3.51473 2.25514 0
M  V30 8685 N 817.389 -1.46805 -0.573248 0
M  V30 8686 C 818.319 -1.60951 -1.69165 0
M  V30 8687 C 819.3 -0.45948 -1.63777 0
M  V30 8688 O 820.485 -0.68688 -1.81647 0
M  V30 8689 C 817.615 -1.60844 -3.07809 0
M  V30 8690 C 816.569 -2.74913 -3.28035 0
M  V30 8691 C 815.895 -2.59871 -4.67302 0
M  V30 8692 C 817.195 -4.16654 -3.14955 0
M  V30 8693 H 818.889 -2.54574 -1.57582 0
M  V30 8694 H 816.435 -1.22516 -0.756686 0
M  V30 8695 H 818.388 -1.69334 -3.85881 0
M  V30 8696 H 817.112 -0.637714 -3.20314 0
M  V30 8697 H 815.771 -2.65908 -2.52366 0
M  V30 8698 H 815.419 -1.60861 -4.76585 0
M  V30 8699 H 815.119 -3.36386 -4.81786 0
M  V30 8700 H 816.643 -2.70265 -5.4753 0
M  V30 8701 H 818.057 -4.26721 -3.82861 0
M  V30 8702 H 816.454 -4.93831 -3.40956 0
M  V30 8703 H 817.524 -4.36146 -2.11908 0
M  V30 8704 N 818.867 0.818669 -1.34668 0
M  V30 8705 C 820.116 1.57017 -1.26604 0
M  V30 8706 C 820.429 1.94936 0.161036 0
M  V30 8707 O 821.635 2.69051 0.36386 0
M  V30 8708 C 820.091 2.83305 -2.2196 0
M  V30 8709 C 819.699 2.52671 -3.69948 0
M  V30 8710 C 821.443 3.61324 -2.22813 0
M  V30 8711 C 819.35 3.75178 -4.5716 0
M  V30 8712 H 818.28 0.589323 -0.470335 0
M  V30 8713 H 820.931 0.900956 -1.59859 0
M  V30 8714 H 819.313 3.51874 -1.81661 0
M  V30 8715 H 820.487 1.92186 -4.18809 0
M  V30 8716 H 818.802 1.8792 -3.71584 0
M  V30 8717 H 821.399 4.52294 -2.85192 0
M  V30 8718 H 821.742 3.97759 -1.22857 0
M  V30 8719 H 822.275 2.99703 -2.61578 0
M  V30 8720 H 819.014 3.43861 -5.58068 0
M  V30 8721 H 818.534 4.34931 -4.13031 0
M  V30 8722 H 820.213 4.42542 -4.71981 0
M  V30 8723 N 820.346 1.18468 1.03938 0
M  V30 8724 C 821.276 0.936389 2.13902 0
M  V30 8725 C 822.257 -0.126381 1.6963 0
M  V30 8726 O 823.442 0.0264757 1.94182 0
M  V30 8727 C 820.572 0.462729 3.44204 0
M  V30 8728 C 819.526 1.46613 4.02105 0
M  V30 8729 C 818.852 0.84994 5.27902 0
M  V30 8730 C 820.152 2.84323 4.3813 0
M  V30 8731 H 821.846 1.85602 2.3493 0
M  V30 8732 H 819.392 0.893806 1.12903 0
M  V30 8733 H 821.345 0.276382 4.20493 0
M  V30 8734 H 820.069 -0.492477 3.22866 0
M  V30 8735 H 818.728 1.63944 3.27899 0
M  V30 8736 H 818.376 -0.112493 5.02874 0
M  V30 8737 H 818.076 1.51988 5.67603 0
M  V30 8738 H 819.6 0.674152 6.06867 0
M  V30 8739 H 821.014 2.70636 5.054 0
M  V30 8740 H 819.411 3.48012 4.88884 0
M  V30 8741 H 820.481 3.37776 3.47901 0
M  V30 8742 N 821.824 -1.22873 0.986916 0
M  V30 8743 C 823.052 -1.95487 0.677663 0
M  V30 8744 C 823.467 -1.72978 -0.756572 0
M  V30 8745 O 822.824 -1.02517 -1.50985 0
M  V30 8746 C 822.875 -3.48337 0.966638 0
M  V30 8747 O 822.596 -3.70087 2.34451 0
M  V30 8748 C 824.097 -4.38142 0.674248 0
M  V30 8749 H 821.317 -0.622211 0.251185 0
M  V30 8750 H 823.861 -1.56187 1.32007 0
M  V30 8751 H 822.016 -3.85628 0.370137 0
M  V30 8752 H 822.43 -4.64332 2.43918 0
M  V30 8753 H 823.904 -5.44165 0.926759 0
M  V30 8754 H 824.381 -4.3745 -0.391728 0
M  V30 8755 H 824.987 -4.06469 1.25152 0
M  V30 8756 N 823.302 -0.75937 -1.38099 0
M  V30 8757 C 824.713 -0.385078 -1.82686 0
M  V30 8758 C 825.064 1.0871 -1.6333 0
M  V30 8759 O 824.189 1.84084 -1.13762 0
M  V30 8760 C 824.784 -0.692161 -3.31654 0
M  V30 8761 C 823.343 -0.371077 -3.74566 0
M  V30 8762 C 822.49 -0.942375 -2.60796 0
M  V30 8763 H 825.441 -0.955048 -1.26746 0
M  V30 8764 H 825.462 0.0276001 -3.8049 0
M  V30 8765 H 824.974 -1.76369 -3.4571 0
M  V30 8766 H 823.075 0.693637 -3.66087 0
M  V30 8767 H 823.188 -0.870672 -4.71122 0
M  V30 8768 H 821.552 -0.367383 -2.52036 0
M  V30 8769 H 822.335 -2.01905 -2.77649 0
M  V30 8770 N 824.78 1.49157 -0.508906 0
M  V30 8771 C 825.743 2.27784 0.25434 0
M  V30 8772 C 826.743 1.34132 0.88686 0
M  V30 8773 O 827.933 1.5722 0.750168 0
M  V30 8774 C 825.065 3.12347 1.36573 0
M  V30 8775 H 826.258 2.96718 -0.435714 0
M  V30 8776 H 823.811 1.54052 -0.264128 0
M  V30 8777 H 824.546 2.47997 2.08969 0
M  V30 8778 H 824.331 3.81213 0.917543 0
M  V30 8779 H 825.821 3.71712 1.90315 0
M  V30 8780 N 826.258 0.243083 1.55714 0
M  V30 8781 C 827.506 -0.381964 1.98458 0
M  V30 8782 C 827.827 -1.58745 1.13247 0
M  V30 8783 O 827.097 -1.94723 0.214384 0
M  V30 8784 H 825.677 -0.144114 0.732967 0
M  V30 8785 H 828.339 0.340985 1.91894 0
M  V30 8786 H 827.435 -0.693702 3.04293 0
M  V30 8787 N 827.736 -1.57571 -0.0300757 0
M  V30 8788 C 828.699 -2.05468 -1.01565 0
M  V30 8789 C 829.699 -0.958628 -1.29101 0
M  V30 8790 O 830.889 -1.22228 -1.24121 0
M  V30 8791 C 828.021 -2.47077 -2.34874 0
M  V30 8792 H 829.214 -2.93797 -0.601936 0
M  V30 8793 H 826.767 -1.53828 -0.276878 0
M  V30 8794 H 827.502 -1.61901 -2.80996 0
M  V30 8795 H 827.287 -3.27097 -2.16218 0
M  V30 8796 H 828.777 -2.84564 -3.05635 0
M  V30 8797 N 829.214 0.302327 -1.54673 0
M  V30 8798 C 830.161 1.37282 -1.85532 0
M  V30 8799 C 831.131 1.50437 -0.704129 0
M  V30 8800 O 832.316 1.65317 -0.952627 0
M  V30 8801 C 829.456 2.73309 -2.10704 0
M  V30 8802 C 828.569 2.68614 -3.38335 0
M  V30 8803 C 827.704 3.96626 -3.53357 0
M  V30 8804 C 826.743 3.86324 -4.74784 0
M  V30 8805 N 825.88 5.06109 -4.86619 0
M  V30 8806 H 830.72 1.10265 -2.76849 0
M  V30 8807 H 828.257 0.533346 -1.37091 0
M  V30 8808 H 830.215 3.52414 -2.23294 0
M  V30 8809 H 828.845 2.98589 -1.22656 0
M  V30 8810 H 827.897 1.81381 -3.34373 0
M  V30 8811 H 829.209 2.56891 -4.27561 0
M  V30 8812 H 828.363 4.84168 -3.65604 0
M  V30 8813 H 827.102 4.11182 -2.62261 0
M  V30 8814 H 826.107 2.97166 -4.62572 0
M  V30 8815 H 827.332 3.73315 -5.67286 0
M  V30 8816 H 825.278 5.2113 -3.98446 0
M  V30 8817 H 825.195 4.96804 -5.69844 0
M  V30 8818 H 826.463 5.95306 -5.03221 0
M  V30 8819 N 830.692 1.47107 0.565454 0
M  V30 8820 C 831.624 1.55024 1.6882 0
M  V30 8821 C 832.637 0.4371 1.56822 0
M  V30 8822 O 833.826 0.706315 1.63931 0
M  V30 8823 C 830.926 1.43069 3.0722 0
M  V30 8824 C 830.099 2.68807 3.45053 0
M  V30 8825 C 829.158 2.50806 4.62583 0
M  V30 8826 O 828.184 3.24593 4.67577 0
M  V30 8827 N 829.386 1.58093 5.58558 0
M  V30 8828 H 832.151 2.51836 1.62477 0
M  V30 8829 H 829.712 1.43382 0.751885 0
M  V30 8830 H 831.704 1.28773 3.83666 0
M  V30 8831 H 830.274 0.543721 3.07835 0
M  V30 8832 H 829.494 2.97923 2.58138 0
M  V30 8833 H 830.782 3.52298 3.67101 0
M  V30 8834 H 830.18 0.972807 5.57273 0
M  V30 8835 H 828.737 1.49753 6.34364 0
M  V30 8836 N 832.17 -0.811516 1.35101 0
M  V30 8837 C 833.117 -1.92308 1.27617 0
M  V30 8838 C 834.087 -1.6543 0.149091 0
M  V30 8839 O 835.272 -1.8789 0.331974 0
M  V30 8840 C 832.412 -3.28768 1.04908 0
M  V30 8841 C 831.525 -3.67865 2.26493 0
M  V30 8842 C 830.66 -4.9333 1.96974 0
M  V30 8843 C 829.699 -5.25041 3.1464 0
M  V30 8844 N 828.836 -6.41685 2.84929 0
M  V30 8845 H 833.676 -1.98041 2.22674 0
M  V30 8846 H 831.213 -0.968755 1.10696 0
M  V30 8847 H 833.171 -4.07426 0.897749 0
M  V30 8848 H 831.801 -3.22517 0.135151 0
M  V30 8849 H 830.853 -2.84507 2.52507 0
M  V30 8850 H 832.165 -3.87263 3.14371 0
M  V30 8851 H 831.319 -5.79803 1.78643 0
M  V30 8852 H 830.058 -4.75958 1.06374 0
M  V30 8853 H 829.063 -4.3706 3.33554 0
M  V30 8854 H 830.288 -5.44346 4.06035 0
M  V30 8855 H 828.234 -6.25747 1.96918 0
M  V30 8856 H 828.151 -6.6131 3.66341 0
M  V30 8857 H 829.419 -7.31198 2.70128 0
M  V30 8858 N 833.648 -1.19017 -1.03309 0
M  V30 8859 C 834.558 -0.939303 -2.14975 0
M  V30 8860 C 835.574 0.0992359 -1.73717 0
M  V30 8861 O 836.75 -0.0844362 -2.01223 0
M  V30 8862 C 833.815 -0.476712 -3.43407 0
M  V30 8863 C 832.876 -1.58413 -3.99003 0
M  V30 8864 C 832.109 -1.14352 -5.21305 0
M  V30 8865 O 832.332 -0.00534408 -5.704 0
M  V30 8866 O 831.266 -1.94436 -5.6963 0
M  V30 8867 H 835.092 -1.87386 -2.38998 0
M  V30 8868 H 832.677 -0.972635 -1.13403 0
M  V30 8869 H 834.559 -0.22718 -4.20787 0
M  V30 8870 H 833.234 0.429455 -3.20839 0
M  V30 8871 H 832.141 -1.88777 -3.22977 0
M  V30 8872 H 833.474 -2.4667 -4.25928 0
M  V30 8873 N 835.127 1.22348 -0.993418 0
M  V30 8874 C 836.355 1.95125 -0.688021 0
M  V30 8875 C 836.77 1.73377 0.747388 0
M  V30 8876 O 836.127 1.03317 1.50439 0
M  V30 8877 C 836.178 3.47819 -0.985097 0
M  V30 8878 O 835.899 3.68838 -2.3641 0
M  V30 8879 C 837.4 4.37779 -0.697474 0
M  V30 8880 H 834.62 0.62087 -0.254481 0
M  V30 8881 H 837.164 1.55485 -1.32833 0
M  V30 8882 H 835.319 3.85426 -0.390583 0
M  V30 8883 H 835.733 4.63032 -2.46377 0
M  V30 8884 H 837.207 5.43666 -0.955604 0
M  V30 8885 H 837.684 4.37651 0.368524 0
M  V30 8886 H 838.29 4.05799 -1.27306 0
M  V30 8887 N 836.605 0.766683 1.37694 0
M  V30 8888 C 837.515 0.150158 2.34119 0
M  V30 8889 C 838.531 -0.685513 1.59927 0
M  V30 8890 O 839.707 -0.606616 1.92047 0
M  V30 8891 C 836.772 -0.722562 3.39087 0
M  V30 8892 C 835.833 0.128983 4.29106 0
M  V30 8893 C 835.066 -0.702178 5.29061 0
M  V30 8894 O 835.289 -1.93954 5.36412 0
M  V30 8895 O 834.223 -0.114056 6.01792 0
M  V30 8896 H 838.049 0.946829 2.88563 0
M  V30 8897 H 835.634 0.527765 1.39768 0
M  V30 8898 H 837.516 -1.22095 4.03325 0
M  V30 8899 H 836.191 -1.49751 2.86978 0
M  V30 8900 H 835.098 0.673612 3.67985 0
M  V30 8901 H 836.431 0.866892 4.84506 0
M  V30 8902 N 838.083 -1.48885 0.516809 0
M  V30 8903 C 839.311 -2.06892 -0.0184017 0
M  V30 8904 C 839.726 -1.37511 -1.29368 0
M  V30 8905 O 839.083 -0.458409 -1.76649 0
M  V30 8906 C 839.134 -3.60566 -0.259673 0
M  V30 8907 O 838.855 -4.27338 0.965065 0
M  V30 8908 C 840.356 -4.35331 -0.836751 0
M  V30 8909 H 837.576 -0.670433 0.0275743 0
M  V30 8910 H 840.12 -1.91455 0.718689 0
M  V30 8911 H 838.275 -3.75653 -0.94678 0
M  V30 8912 H 838.689 -5.19287 0.737647 0
M  V30 8913 H 840.163 -5.43675 -0.955065 0
M  V30 8914 H 840.64 -3.9887 -1.83845 0
M  V30 8915 H 841.246 -4.2489 -0.186622 0
M  V30 8916 N 839.561 -0.251338 -1.55583 0
M  V30 8917 C 840.471 0.656978 -2.25213 0
M  V30 8918 C 841.487 1.18966 -1.26977 0
M  V30 8919 O 842.663 1.22499 -1.59862 0
M  V30 8920 C 839.728 1.83527 -2.94141 0
M  V30 8921 C 838.789 1.34162 -4.07798 0
M  V30 8922 C 838.022 2.46375 -4.73429 0
M  V30 8923 O 838.245 3.65205 -4.38157 0
M  V30 8924 O 837.179 2.15881 -5.61853 0
M  V30 8925 H 841.005 0.0936395 -3.03556 0
M  V30 8926 H 838.59 -0.0196638 -1.49387 0
M  V30 8927 H 840.472 2.52279 -3.3754 0
M  V30 8928 H 839.147 2.38614 -2.18735 0
M  V30 8929 H 838.054 0.621249 -3.68906 0
M  V30 8930 H 839.387 0.836779 -4.85035 0
M  V30 8931 O 841.078 1.61082 -0.116113 0
M  V30 8932 H 841.769 1.8758 0.483052 0
M  V30 END ATOM
M  V30 BEGIN BOND
M  V30 END BOND
M  V30 END CTAB
M  END
$$$$
