drugbank_target|Q9BXT2 Voltage-dependent calcium channel gamma-6 subunit (DB00153; DB00228; DB00421; DB11148; DB13746)
 OpenBabel12092120593D

  0  0  0     0  0            999 V3000
M  V30 BEGIN CTAB
M  V30 COUNTS 4012 4056 0 0 0
M  V30 BEGIN ATOM
M  V30 1 H -0.908 1.98254 -0.117106 0
M  V30 2 N 0 1.576 0 0
M  V30 3 C 0.933 2.03868 1.02534 0
M  V30 4 C 1.911 0.928543 1.3348 0
M  V30 5 O 3.095 1.19667 1.45644 0
M  V30 6 C 0.222 2.43627 2.35294 0
M  V30 7 C -0.732 3.65373 2.2001 0
M  V30 8 S 0.101 5.13292 1.52614 0
M  V30 9 C 1.257 5.56322 2.86805 0
M  V30 10 H 1.49 2.90518 0.631377 0
M  V30 11 H -0.977 1.52953 0.210867 0
M  V30 12 H 0.981 2.67203 3.11629 0
M  V30 13 H -0.358 1.57376 2.7183 0
M  V30 14 H -1.165 3.90944 3.18086 0
M  V30 15 H -1.563 3.418 1.51819 0
M  V30 16 H 0.729 5.58782 3.83104 0
M  V30 17 H 1.672 6.56266 2.65933 0
M  V30 18 H 2.08 4.83886 2.90714 0
M  V30 19 N 1.4781 -0.272755 1.55222 0
M  V30 20 C 2.4111 -1.3627 1.83046 0
M  V30 21 C 3.3891 -1.47536 0.683521 0
M  V30 22 O 4.5731 -1.64157 0.926545 0
M  V30 23 C 1.7001 -2.73908 1.99229 0
M  V30 24 C 0.7461 -2.79925 3.21783 0
M  V30 25 S 1.5791 -2.39146 4.79134 0
M  V30 26 C 2.7351 -3.78758 4.9829 0
M  V30 27 H 2.9681 -1.12464 2.75207 0
M  V30 28 H 0.5011 -0.472398 1.46996 0
M  V30 29 H 2.4591 -3.53171 2.09238 0
M  V30 30 H 1.1201 -2.94965 1.07956 0
M  V30 31 H 0.3131 -3.80946 3.29994 0
M  V30 32 H -0.0849 -2.08683 3.10367 0
M  V30 33 H 2.2071 -4.7403 4.84047 0
M  V30 34 H 3.1501 -3.75499 6.00338 0
M  V30 35 H 3.5581 -3.70072 4.26271 0
M  V30 36 N 2.9562 -1.48159 -0.537278 0
M  V30 37 C 4.2022 -1.57015 -1.29297 0
M  V30 38 C 4.5572 -0.237791 -1.90925 0
M  V30 39 O 3.8502 0.758621 -1.75942 0
M  V30 40 C 4.0442 -2.63956 -2.40961 0
M  V30 41 C 3.8732 -4.07461 -1.90278 0
M  V30 42 C 2.6432 -4.74685 -1.73213 0
M  V30 43 C 4.8412 -4.93858 -1.43556 0
M  V30 44 N 2.8232 -6.02633 -1.17078 0
M  V30 45 C 4.1942 -6.11993 -0.993204 0
M  V30 46 C 6.2492 -4.80141 -1.31792 0
M  V30 47 C 4.9522 -7.17923 -0.444872 0
M  V30 48 C 6.9782 -5.86186 -0.783585 0
M  V30 49 C 6.3402 -7.03524 -0.351261 0
M  V30 50 H 2.4392 -0.629154 -0.464423 0
M  V30 51 H 5.0232 -1.85006 -0.606705 0
M  V30 52 H 3.1942 -2.378 -3.07093 0
M  V30 53 H 4.9262 -2.62539 -3.07986 0
M  V30 54 H 1.6812 -4.30902 -1.9652 0
M  V30 55 H 2.1052 -6.7085 -0.910421 0
M  V30 56 H 6.7472 -3.89772 -1.63823 0
M  V30 57 H 4.4652 -8.08022 -0.11222 0
M  V30 58 H 8.0512 -5.77624 -0.695835 0
M  V30 59 H 6.9312 -7.8418 0.055777 0
M  V30 60 N 4.4343 0.785586 -1.36625 0
M  V30 61 C 5.6593 1.57963 -1.34397 0
M  V30 62 C 6.0843 1.87964 0.071526 0
M  V30 63 O 5.4423 1.48182 1.0446 0
M  V30 64 C 5.4903 2.87511 -2.17646 0
M  V30 65 O 4.5943 3.81281 -1.57158 0
M  V30 66 H 3.9353 0.479014 -0.459828 0
M  V30 67 H 6.4653 0.973411 -1.79961 0
M  V30 68 H 6.4753 3.36745 -2.30362 0
M  V30 69 H 5.1503 2.65002 -3.20541 0
M  V30 70 H 3.7273 3.39885 -1.53403 0
M  V30 71 N 5.9124 1.20967 1.01018 0
M  V30 72 C 6.8604 0.961223 2.1181 0
M  V30 73 C 7.8544 -0.0897034 1.69162 0
M  V30 74 O 9.0604 0.0612271 1.79896 0
M  V30 75 H 5.4354 0.29355 0.692338 0
M  V30 76 H 7.4064 1.90178 2.29946 0
M  V30 77 C 6.1554 0.536854 3.4353 0
M  V30 78 H 5.4784 1.33713 3.76777 0
M  V30 79 H 6.9184 0.402286 4.22087 0
M  V30 80 C 5.3774 -0.751574 3.2841 0
M  V30 81 O 5.9074 -1.80841 3.58691 0
M  V30 82 N 4.1134 -0.716079 2.81639 0
M  V30 83 H 3.6604 0.144236 2.57196 0
M  V30 84 H 3.6184 -1.57847 2.71904 0
M  V30 85 N 7.3905 -1.2043 1.01659 0
M  V30 86 C 8.6375 -1.89797 0.705917 0
M  V30 87 C 8.9655 -1.78848 -0.764439 0
M  V30 88 O 8.2205 -1.16694 -1.57102 0
M  V30 89 C 8.5195 -3.40464 1.08714 0
M  V30 90 C 8.1855 -3.71614 2.5537 0
M  V30 91 C 6.8475 -3.79826 2.95441 0
M  V30 92 C 9.1995 -3.85915 3.50313 0
M  V30 93 C 6.5275 -3.99797 4.29394 0
M  V30 94 C 8.8795 -4.07396 4.83954 0
M  V30 95 C 7.5435 -4.13837 5.23732 0
M  V30 96 H 6.8135 -0.694518 0.258313 0
M  V30 97 H 9.4605 -1.42691 1.27717 0
M  V30 98 H 7.7655 -3.89385 0.434309 0
M  V30 99 H 9.4625 -3.92433 0.824461 0
M  V30 100 H 6.0525 -3.65822 2.23321 0
M  V30 101 H 10.2365 -3.78926 3.20513 0
M  V30 102 H 5.4925 -4.03018 4.59768 0
M  V30 103 H 9.6665 -4.17404 5.57447 0
M  V30 104 H 7.2935 -4.29064 6.27541 0
M  V30 105 N 8.8686 -0.792821 -1.36206 0
M  V30 106 C 10.1156 -0.366786 -1.99151 0
M  V30 107 C 10.4436 1.06243 -1.62919 0
M  V30 108 O 9.6986 1.74927 -0.877442 0
M  V30 109 C 9.9976 -0.481501 -3.54142 0
M  V30 110 C 9.6636 -1.87202 -4.10203 0
M  V30 111 C 8.3256 -2.25248 -4.25226 0
M  V30 112 C 10.6776 -2.78237 -4.40719 0
M  V30 113 C 8.0056 -3.53723 -4.68078 0
M  V30 114 C 10.3576 -4.06144 -4.85005 0
M  V30 115 C 9.0216 -4.44207 -4.98234 0
M  V30 116 H 8.2916 -0.134217 -0.728743 0
M  V30 117 H 10.9386 -1.01094 -1.62641 0
M  V30 118 H 9.2436 0.246146 -3.91026 0
M  V30 119 H 10.9406 -0.132844 -4.0078 0
M  V30 120 H 7.5306 -1.56639 -3.98951 0
M  V30 121 H 11.7146 -2.50097 -4.28679 0
M  V30 122 H 6.9706 -3.8308 -4.76508 0
M  V30 123 H 11.1446 -4.76796 -5.07581 0
M  V30 124 H 8.7716 -5.43814 -5.31197 0
M  V30 125 N 10.3467 1.47872 -0.545128 0
M  V30 126 C 11.2767 2.32661 0.197793 0
M  V30 127 C 12.2577 1.43041 0.920504 0
M  V30 128 O 13.4427 1.71912 0.90333 0
M  V30 129 C 10.5727 3.24569 1.23582 0
M  V30 130 C 9.5267 4.23333 0.630323 0
M  V30 131 C 8.8527 5.0448 1.77211 0
M  V30 132 C 10.1527 5.20704 -0.407974 0
M  V30 133 H 11.8467 2.95024 -0.510045 0
M  V30 134 H 9.3927 1.4187 -0.246731 0
M  V30 135 H 11.3457 3.8272 1.76362 0
M  V30 136 H 10.0697 2.60236 1.97344 0
M  V30 137 H 8.7287 3.6639 0.123922 0
M  V30 138 H 8.3767 4.36561 2.49847 0
M  V30 139 H 8.0767 5.71339 1.37281 0
M  V30 140 H 9.6007 5.65487 2.3034 0
M  V30 141 H 11.0147 5.7329 0.033305 0
M  V30 142 H 9.4117 5.95699 -0.725486 0
M  V30 143 H 10.4817 4.66917 -1.30828 0
M  V30 144 N 11.8248 0.280983 1.55075 0
M  V30 145 C 12.7568 -0.637268 2.20163 0
M  V30 146 C 13.7698 -1.11298 1.18813 0
M  V30 147 O 14.9588 -1.03388 1.4551 0
M  V30 148 C 12.0588 -1.88199 2.81841 0
M  V30 149 C 11.2318 -1.55211 4.08936 0
M  V30 150 C 10.2908 -2.64991 4.54606 0
M  V30 151 O 9.3168 -2.30929 5.2025 0
M  V30 152 N 10.5188 -3.95161 4.25238 0
M  V30 153 H 13.2838 -0.0801694 2.99593 0
M  V30 154 H 10.8448 0.102329 1.61576 0
M  V30 155 H 12.8368 -2.60948 3.09335 0
M  V30 156 H 11.4068 -2.34799 2.06369 0
M  V30 157 H 10.6268 -0.658185 3.88666 0
M  V30 158 H 11.9148 -1.30681 4.91732 0
M  V30 159 H 11.3128 -4.25653 3.72607 0
M  V30 160 H 9.8698 -4.6427 4.5749 0
M  V30 161 N 13.3029 -1.57598 0.00835791 0
M  V30 162 C 14.2129 -2.12385 -0.996487 0
M  V30 163 C 15.2289 -1.07108 -1.37127 0
M  V30 164 O 16.4049 -1.39055 -1.4569 0
M  V30 165 C 13.4699 -2.62314 -2.26699 0
M  V30 166 C 12.5309 -3.82225 -1.95456 0
M  V30 167 C 11.7639 -4.29763 -3.16449 0
M  V30 168 O 11.9869 -3.76584 -4.28416 0
M  V30 169 O 10.9209 -5.21832 -2.99958 0
M  V30 170 H 14.7469 -2.98479 -0.560725 0
M  V30 171 H 12.3319 -1.47903 -0.210987 0
M  V30 172 H 14.2139 -2.94589 -3.01322 0
M  V30 173 H 12.8889 -1.79313 -2.69497 0
M  V30 174 H 11.7959 -3.54909 -1.18282 0
M  V30 175 H 13.1289 -4.66324 -1.57489 0
M  V30 176 N 14.781 0.264519 -1.55364 0
M  V30 177 C 15.691 1.34902 -1.91934 0
M  V30 178 C 16.707 1.53595 -0.817593 0
M  V30 179 O 17.883 1.67558 -1.11742 0
M  V30 180 C 14.948 2.68676 -2.19121 0
M  V30 181 C 14.009 2.58657 -3.4263 0
M  V30 182 C 13.242 3.86051 -3.68511 0
M  V30 183 O 13.465 4.87126 -2.96757 0
M  V30 184 O 12.399 3.85744 -4.62045 0
M  V30 185 H 16.225 1.06883 -2.8427 0
M  V30 186 H 13.81 0.463775 -1.42019 0
M  V30 187 H 15.692 3.47759 -2.37995 0
M  V30 188 H 14.367 2.96463 -1.29966 0
M  V30 189 H 13.274 1.7792 -3.29082 0
M  V30 190 H 14.607 2.35818 -4.32031 0
M  V30 191 N 16.2591 1.48442 0.529413 0
M  V30 192 C 17.2071 1.63452 1.65487 0
M  V30 193 C 18.2011 0.500955 1.61823 0
M  V30 194 O 19.4071 0.679695 1.66674 0
M  V30 195 H 15.7821 0.514905 0.548066 0
M  V30 196 H 17.7531 2.57975 1.49971 0
M  V30 197 C 16.5021 1.69196 3.03756 0
M  V30 198 H 15.8251 2.55784 3.07269 0
M  V30 199 H 17.2651 1.83743 3.82119 0
M  V30 200 C 15.7241 0.430765 3.34135 0
M  V30 201 O 16.2541 -0.4561 3.99102 0
M  V30 202 N 14.4601 0.302293 2.89023 0
M  V30 203 H 14.0071 1.02496 2.36331 0
M  V30 204 H 13.9651 -0.540546 3.09718 0
M  V30 205 N 17.7372 -0.778329 1.37039 0
M  V30 206 C 19.1532 -1.07796 1.17695 0
M  V30 207 C 19.3532 -2.01498 0.00860115 0
M  V30 208 O 18.4092 -2.43901 -0.653352 0
M  V30 209 C 19.7222 -1.68178 2.49272 0
M  V30 210 C 21.2702 -1.80467 2.55735 0
M  V30 211 C 21.7452 -2.44263 3.87427 0
M  V30 212 N 23.2362 -2.51721 3.88833 0
M  V30 213 C 23.9712 -3.01919 4.87476 0
M  V30 214 N 23.4672 -3.5234 5.96513 0
M  V30 215 N 25.2602 -3.00733 4.74885 0
M  V30 216 H 17.4112 -0.156032 2.11826 0
M  V30 217 H 19.6742 -0.131844 0.938787 0
M  V30 218 H 19.3802 -1.06796 3.35093 0
M  V30 219 H 19.2542 -2.67554 2.65885 0
M  V30 220 H 21.6412 -2.40984 1.70325 0
M  V30 221 H 21.7222 -0.798656 2.43013 0
M  V30 222 H 21.3662 -1.84388 4.73248 0
M  V30 223 H 21.2962 -3.45458 3.9745 0
M  V30 224 H 23.7872 -2.1603 3.10063 0
M  V30 225 H 24.1002 -3.89027 6.67741 0
M  V30 226 H 22.4452 -3.50462 6.00168 0
M  V30 227 H 25.6362 -2.60638 3.88826 0
M  V30 228 H 25.8092 -3.39545 5.51918 0
M  V30 229 N 19.2153 -1.21501 -1.00376 0
M  V30 230 C 20.6313 -0.972629 -1.26539 0
M  V30 231 C 20.8313 0.340257 -1.98606 0
M  V30 232 O 19.8873 1.06561 -2.28913 0
M  V30 233 C 21.2003 -2.16404 -2.08781 0
M  V30 234 C 22.7483 -2.20643 -2.22004 0
M  V30 235 C 23.2233 -3.39306 -3.07629 0
M  V30 236 N 24.7143 -3.39401 -3.15217 0
M  V30 237 C 25.4493 -4.27867 -3.81729 0
M  V30 238 N 24.9453 -5.26533 -4.5026 0
M  V30 239 N 26.7383 -4.15672 -3.78382 0
M  V30 240 H 18.8893 -2.05929 -0.520281 0
M  V30 241 H 21.1523 -0.901803 -0.292328 0
M  V30 242 H 20.8583 -3.11554 -1.63178 0
M  V30 243 H 20.7323 -2.15567 -3.09533 0
M  V30 244 H 23.1193 -1.26048 -2.66825 0
M  V30 245 H 23.2003 -2.25523 -1.20718 0
M  V30 246 H 22.8443 -4.34195 -2.63509 0
M  V30 247 H 22.7743 -3.31665 -4.09031 0
M  V30 248 H 25.2653 -2.67997 -2.66432 0
M  V30 249 H 25.5783 -5.90337 -4.98721 0
M  V30 250 H 23.9233 -5.30457 -4.49044 0
M  V30 251 H 27.1143 -3.3785 -3.23998 0
M  V30 252 H 27.2873 -4.84825 -4.2994 0
M  V30 253 N 20.6934 1.19889 -1.02296 0
M  V30 254 C 22.1094 1.41462 -0.738954 0
M  V30 255 C 22.3094 1.89721 0.678846 0
M  V30 256 O 21.3654 2.07016 1.4457 0
M  V30 257 C 22.6784 2.43083 -1.77005 0
M  V30 258 C 24.2264 2.5684 -1.78892 0
M  V30 259 C 24.7014 3.61709 -2.80945 0
M  V30 260 N 26.1924 3.69199 -2.79725 0
M  V30 261 C 26.9274 4.50019 -3.55345 0
M  V30 262 N 26.4234 5.34592 -4.40662 0
M  V30 263 N 28.2164 4.44612 -3.43914 0
M  V30 264 H 20.3674 0.868827 -1.93817 0
M  V30 265 H 22.6304 0.44399 -0.837602 0
M  V30 266 H 22.3364 2.14636 -2.78612 0
M  V30 267 H 22.2104 3.4217 -1.58744 0
M  V30 268 H 24.5974 2.84614 -0.779674 0
M  V30 269 H 24.6784 1.57927 -2.01228 0
M  V30 270 H 24.3224 3.34678 -3.82038 0
M  V30 271 H 24.2524 4.60259 -2.5587 0
M  V30 272 H 26.7434 3.08794 -2.17842 0
M  V30 273 H 27.0564 5.93363 -4.95116 0
M  V30 274 H 25.4014 5.34073 -4.44737 0
M  V30 275 H 28.5924 3.7758 -2.76679 0
M  V30 276 H 28.7654 5.0736 -4.031 0
M  V30 277 N 22.1715 0.800033 1.35784 0
M  V30 278 C 23.4195 0.376597 1.9856 0
M  V30 279 C 23.7405 -1.05812 1.63795 0
M  V30 280 O 23.0105 -1.73103 0.917171 0
M  V30 281 H 21.5905 0.136261 0.734467 0
M  V30 282 H 24.2525 1.02442 1.65806 0
M  V30 283 H 23.3485 0.477002 3.08433 0
M  V30 284 N 23.6496 -1.47581 0.552962 0
M  V30 285 C 24.6126 -2.28439 -0.186605 0
M  V30 286 C 25.6126 -1.36706 -0.84665 0
M  V30 287 O 26.8026 -1.59378 -0.703164 0
M  V30 288 C 23.9346 -3.16264 -1.2724 0
M  V30 289 H 25.1276 -2.95294 0.523609 0
M  V30 290 H 22.6806 -1.532 0.309745 0
M  V30 291 H 23.4156 -2.54091 -2.01514 0
M  V30 292 H 23.2006 -3.83769 -0.803968 0
M  V30 293 H 24.6906 -3.77198 -1.79196 0
M  V30 294 N 25.1277 -0.289203 -1.54924 0
M  V30 295 C 26.0907 0.579144 -2.21762 0
M  V30 296 C 27.0907 1.07047 -1.1999 0
M  V30 297 O 28.2807 0.968384 -1.44803 0
M  V30 298 C 25.4127 1.80055 -2.8947 0
M  V30 299 H 26.6057 -0.00464908 -2.999 0
M  V30 300 H 24.1587 -0.0399306 -1.56249 0
M  V30 301 H 24.8937 2.42449 -2.15381 0
M  V30 302 H 24.6787 1.45602 -3.64064 0
M  V30 303 H 26.1687 2.41773 -3.40493 0
M  V30 304 N 26.6058 1.57591 -0.0167156 0
M  V30 305 C 27.8538 1.90906 0.663285 0
M  V30 306 C 28.1748 0.892509 1.73376 0
M  V30 307 O 27.4448 -0.0677623 1.95783 0
M  V30 308 H 26.0248 0.704637 0.247983 0
M  V30 309 H 28.6868 1.94803 -0.0615909 0
M  V30 310 H 27.7828 2.9116 1.12393 0
M  V30 311 N 28.0839 -0.256276 1.55502 0
M  V30 312 C 29.4999 -0.604325 1.47716 0
M  V30 313 C 29.6999 -1.88763 0.705039 0
M  V30 314 O 28.7559 -2.51445 0.230613 0
M  V30 315 C 30.0689 -0.715756 2.92057 0
M  V30 316 C 31.6169 -0.808706 3.02372 0
M  V30 317 C 32.0919 -0.951777 4.48001 0
M  V30 318 N 33.5829 -1.01688 4.519 0
M  V30 319 C 34.3179 -1.14668 5.61817 0
M  V30 320 N 33.8139 -1.24261 6.81565 0
M  V30 321 N 35.6069 -1.1791 5.49594 0
M  V30 322 H 27.7579 0.586291 2.04148 0
M  V30 323 H 30.0209 0.201015 0.926443 0
M  V30 324 H 29.7269 0.157027 3.51349 0
M  V30 325 H 29.6009 -1.59071 3.42018 0
M  V30 326 H 31.9879 -1.67195 2.43166 0
M  V30 327 H 32.0689 0.0912063 2.55637 0
M  V30 328 H 31.7129 -0.0931291 5.07815 0
M  V30 329 H 31.6429 -1.86659 4.92408 0
M  V30 330 H 34.1339 -0.954468 3.65648 0
M  V30 331 H 34.4469 -1.34046 7.61086 0
M  V30 332 H 32.7919 -1.21236 6.84344 0
M  V30 333 H 35.9829 -1.10057 4.54978 0
M  V30 334 H 36.1559 -1.27681 6.35296 0
M  V30 335 N 29.562 -1.4872 -0.521534 0
M  V30 336 C 30.978 -1.35028 -0.850855 0
M  V30 337 C 31.178 -0.367712 -1.98116 0
M  V30 338 O 30.234 0.208037 -2.51642 0
M  V30 339 C 31.547 -2.75263 -1.21041 0
M  V30 340 C 33.095 -2.83813 -1.31981 0
M  V30 341 C 33.57 -4.24769 -1.71276 0
M  V30 342 N 35.061 -4.27482 -1.78363 0
M  V30 343 C 35.796 -5.33494 -2.1017 0
M  V30 344 N 35.292 -6.49775 -2.40343 0
M  V30 345 N 37.085 -5.20894 -2.11248 0
M  V30 346 H 29.236 -2.11214 0.22413 0
M  V30 347 H 31.499 -0.947252 0.0376439 0
M  V30 348 H 31.205 -3.48765 -0.453415 0
M  V30 349 H 31.079 -3.09327 -2.15863 0
M  V30 350 H 33.466 -2.10561 -2.06756 0
M  V30 351 H 33.547 -2.53358 -0.352596 0
M  V30 352 H 33.191 -4.9854 -0.970588 0
M  V30 353 H 33.121 -4.52673 -2.69062 0
M  V30 354 H 35.612 -3.43611 -1.57288 0
M  V30 355 H 35.925 -7.26402 -2.63743 0
M  V30 356 H 34.27 -6.53035 -2.37844 0
M  V30 357 H 37.461 -4.29065 -1.87139 0
M  V30 358 H 37.634 -6.03612 -2.35704 0
M  V30 359 N 31.0401 0.771051 -1.3745 0
M  V30 360 C 32.4561 1.07171 -1.18265 0
M  V30 361 C 32.6561 2.01491 -0.019287 0
M  V30 362 O 31.7121 2.44244 0.640408 0
M  V30 363 C 33.0251 1.66854 -2.50161 0
M  V30 364 C 34.5731 1.79109 -2.56689 0
M  V30 365 C 35.0481 2.42205 -3.88717 0
M  V30 366 N 36.5391 2.49655 -3.90162 0
M  V30 367 C 37.2741 2.9933 -4.8907 0
M  V30 368 N 36.7701 3.49172 -5.98374 0
M  V30 369 N 38.5631 2.9821 -4.76474 0
M  V30 370 H 30.7141 0.144796 -2.11906 0
M  V30 371 H 32.9771 0.126863 -0.939473 0
M  V30 372 H 32.6831 1.05017 -3.35655 0
M  V30 373 H 32.5571 2.6614 -2.673 0
M  V30 374 H 34.9441 2.40077 -1.71601 0
M  V30 375 H 35.0251 0.785757 -2.43433 0
M  V30 376 H 34.6691 1.81875 -4.74219 0
M  V30 377 H 34.5991 3.43345 -3.99276 0
M  V30 378 H 37.0901 2.14383 -3.11205 0
M  V30 379 H 37.4031 3.8548 -6.69795 0
M  V30 380 H 35.7481 3.47275 -6.02018 0
M  V30 381 H 38.9391 2.58572 -3.90203 0
M  V30 382 H 39.1121 3.36613 -5.53711 0
M  V30 383 N 32.5182 1.22032 0.997298 0
M  V30 384 C 33.4812 0.987909 2.06816 0
M  V30 385 C 34.4812 -0.0440084 1.6074 0
M  V30 386 O 35.6712 0.194053 1.73116 0
M  V30 387 C 32.8032 0.49132 3.37341 0
M  V30 388 H 33.9962 1.93803 2.28868 0
M  V30 389 H 31.5492 1.03838 1.16822 0
M  V30 390 H 32.2842 -0.463364 3.20973 0
M  V30 391 H 32.0692 1.23575 3.72118 0
M  V30 392 H 33.5592 0.348824 4.16141 0
M  V30 393 N 33.9963 -1.19345 1.0293 0
M  V30 394 C 34.9463 -2.20472 0.58104 0
M  V30 395 C 35.9303 -1.56578 -0.370442 0
M  V30 396 O 37.1223 -1.75963 -0.191344 0
M  V30 397 C 34.2513 -3.43236 -0.066306 0
M  V30 398 C 33.3373 -4.14274 0.907642 0
M  V30 399 N 33.7283 -4.61492 2.07023 0
M  V30 400 C 32.0263 -4.39966 0.731177 0
M  V30 401 C 32.7273 -5.1605 2.68454 0
M  V30 402 N 31.7033 -5.06875 1.96414 0
M  V30 403 H 35.5053 -2.54659 1.46717 0
M  V30 404 H 33.0193 -1.35423 0.896345 0
M  V30 405 H 35.0163 -4.14927 -0.405068 0
M  V30 406 H 33.6763 -3.10549 -0.948118 0
M  V30 407 H 34.6873 -4.56304 2.44963 0
M  V30 408 H 31.3643 -4.17377 -0.101507 0
M  V30 409 H 32.7543 -5.6287 3.66915 0
M  V30 410 N 35.4744 -0.807222 -1.35358 0
M  V30 411 C 36.7224 -0.387122 -1.98358 0
M  V30 412 C 37.0434 1.04942 -1.64354 0
M  V30 413 O 36.3134 1.72615 -0.926339 0
M  V30 414 H 34.8934 -0.140154 -0.733734 0
M  V30 415 H 37.5554 -1.0332 -1.6526 0
M  V30 416 H 36.6514 -0.493352 -3.08176 0
M  V30 417 N 36.9525 1.47285 -0.560781 0
M  V30 418 C 37.8845 2.28118 0.222438 0
M  V30 419 C 38.8975 1.37219 0.876056 0
M  V30 420 O 40.0865 1.62011 0.749307 0
M  V30 421 C 37.1865 3.1159 1.33285 0
M  V30 422 C 36.3595 4.30473 0.77534 0
M  V30 423 C 35.4185 4.95513 1.77069 0
M  V30 424 O 34.4445 5.53792 1.31539 0
M  V30 425 N 35.6465 4.90531 3.10418 0
M  V30 426 H 38.4115 2.95976 -0.470958 0
M  V30 427 H 35.9725 1.56955 -0.39709 0
M  V30 428 H 37.9645 3.51967 1.99752 0
M  V30 429 H 36.5345 2.45951 1.92943 0
M  V30 430 H 35.7545 3.94144 -0.0662113 0
M  V30 431 H 37.0425 5.07362 0.382272 0
M  V30 432 H 36.4405 4.44389 3.5005 0
M  V30 433 H 34.9975 5.34917 3.72434 0
M  V30 434 N 38.4306 0.297415 1.54768 0
M  V30 435 C 39.6786 -0.312295 1.99673 0
M  V30 436 C 39.9996 -1.54686 1.18732 0
M  V30 437 O 39.2696 -1.93854 0.282382 0
M  V30 438 H 37.8496 -0.118381 0.73756 0
M  V30 439 H 40.5116 0.407915 1.90583 0
M  V30 440 H 39.6076 -0.586813 3.06534 0
M  V30 441 N 39.9087 -1.5758 0.0250728 0
M  V30 442 C 41.3247 -1.56124 -0.331282 0
M  V30 443 C 41.5247 -1.03029 -1.73169 0
M  V30 444 O 40.5807 -0.675215 -2.43305 0
M  V30 445 C 41.8937 -3.00139 -0.183584 0
M  V30 446 C 43.4417 -3.11946 -0.256654 0
M  V30 447 C 43.9167 -4.57793 -0.137792 0
M  V30 448 N 45.4077 -4.6279 -0.194904 0
M  V30 449 C 46.1427 -5.7326 -0.126655 0
M  V30 450 N 45.6387 -6.928 -0.00755288 0
M  V30 451 N 47.4317 -5.61811 -0.180348 0
M  V30 452 H 39.5827 -1.90424 0.94087 0
M  V30 453 H 41.8457 -0.875761 0.362968 0
M  V30 454 H 41.5517 -3.4292 0.780927 0
M  V30 455 H 41.4257 -3.64899 -0.955448 0
M  V30 456 H 43.8127 -2.69079 -1.21162 0
M  V30 457 H 43.8937 -2.49915 0.545517 0
M  V30 458 H 43.5377 -5.01339 0.813739 0
M  V30 459 H 43.4677 -5.17798 -0.958775 0
M  V30 460 H 45.9587 -3.76807 -0.287267 0
M  V30 461 H 46.2717 -7.72791 0.0379428 0
M  V30 462 H 44.6167 -6.94995 0.0271731 0
M  V30 463 H 47.8077 -4.6731 -0.271767 0
M  V30 464 H 47.9807 -6.47882 -0.123697 0
M  V30 465 N 41.3868 0.248026 -1.55636 0
M  V30 466 C 42.6118 0.998028 -1.81808 0
M  V30 467 C 43.0368 1.78207 -0.601979 0
M  V30 468 O 42.3948 1.75653 0.448961 0
M  V30 469 C 42.4428 1.9125 -3.05705 0
M  V30 470 O 41.5468 3.00406 -2.82542 0
M  V30 471 H 40.8878 0.284045 -0.600179 0
M  V30 472 H 43.4178 0.269357 -2.02819 0
M  V30 473 H 43.4278 2.32737 -3.35108 0
M  V30 474 H 42.1028 1.33602 -3.93857 0
M  V30 475 H 40.6798 2.63056 -2.64303 0
M  V30 476 N 42.8649 1.48995 0.513639 0
M  V30 477 C 44.1129 1.57531 1.26604 0
M  V30 478 C 44.4339 0.258236 1.93283 0
M  V30 479 O 43.7039 -0.721502 1.8213 0
M  V30 480 H 42.2839 0.580387 0.470276 0
M  V30 481 H 44.9459 1.85552 0.596373 0
M  V30 482 H 44.0419 2.36486 2.03669 0
M  V30 483 N 44.343 -0.763751 1.37857 0
M  V30 484 C 45.273 -1.89103 1.36975 0
M  V30 485 C 46.254 -1.68439 0.237152 0
M  V30 486 O 47.439 -1.8918 0.438713 0
M  V30 487 C 44.569 -3.26496 1.18395 0
M  V30 488 C 43.523 -3.61741 2.28751 0
M  V30 489 C 42.849 -4.97762 1.95286 0
M  V30 490 C 44.149 -3.67665 3.70972 0
M  V30 491 H 45.843 -1.90099 2.31307 0
M  V30 492 H 43.389 -0.91319 1.11341 0
M  V30 493 H 45.342 -4.05003 1.16406 0
M  V30 494 H 44.066 -3.25955 0.205215 0
M  V30 495 H 42.725 -2.85547 2.29909 0
M  V30 496 H 42.373 -4.93769 0.959221 0
M  V30 497 H 42.073 -5.22313 2.69189 0
M  V30 498 H 43.597 -5.7866 1.94898 0
M  V30 499 H 45.011 -4.36307 3.719 0
M  V30 500 H 43.408 -4.03718 4.43995 0
M  V30 501 H 44.478 -2.68134 4.0402 0
M  V30 502 N 45.8211 -1.22559 -0.990812 0
M  V30 503 C 47.0491 -1.07779 -1.76611 0
M  V30 504 C 47.4641 0.371513 -1.85109 0
M  V30 505 O 46.8211 1.25737 -1.32274 0
M  V30 506 C 46.8721 -1.68512 -3.19822 0
M  V30 507 O 46.5931 -3.07774 -3.1178 0
M  V30 508 C 48.0941 -1.59035 -4.13791 0
M  V30 509 H 45.3141 -0.377729 -0.554583 0
M  V30 510 H 47.8581 -1.62195 -1.24551 0
M  V30 511 H 46.0131 -1.18154 -3.68942 0
M  V30 512 H 46.4271 -3.37062 -4.01858 0
M  V30 513 H 47.9011 -2.0625 -5.1202 0
M  V30 514 H 48.3781 -0.547273 -4.35777 0
M  V30 515 H 48.9841 -2.08709 -3.70568 0
M  V30 516 N 47.2992 1.18797 -1.03562 0
M  V30 517 C 48.7102 1.70322 -0.764676 0
M  V30 518 C 49.0612 1.82708 0.714996 0
M  V30 519 O 48.1862 1.50299 1.55689 0
M  V30 520 C 48.7812 3.09356 -1.38145 0
M  V30 521 C 47.3402 3.58114 -1.15895 0
M  V30 522 C 46.4872 2.34798 -1.4753 0
M  V30 523 H 49.4382 1.03543 -1.20268 0
M  V30 524 H 49.4592 3.72378 -0.781977 0
M  V30 525 H 48.9712 3.00309 -2.45837 0
M  V30 526 H 47.0722 3.72464 -0.100544 0
M  V30 527 H 47.1852 4.4184 -1.8524 0
M  V30 528 H 45.5492 2.38464 -0.894829 0
M  V30 529 H 46.3322 2.28375 -2.56319 0
M  V30 530 N 48.7773 0.814389 1.34928 0
M  V30 531 C 49.6873 0.231978 2.3345 0
M  V30 532 C 50.7033 -0.629139 1.62228 0
M  V30 533 O 51.8793 -0.539052 1.94052 0
M  V30 534 C 48.9443 -0.603482 3.41407 0
M  V30 535 C 48.0053 0.279037 4.28392 0
M  V30 536 C 47.2383 -0.516643 5.31193 0
M  V30 537 O 47.4613 -1.75068 5.4287 0
M  V30 538 O 46.3953 0.0965652 6.01823 0
M  V30 539 H 50.2213 1.04721 2.85074 0
M  V30 540 H 47.8063 0.576343 1.37836 0
M  V30 541 H 49.6883 -1.07908 4.0735 0
M  V30 542 H 48.3633 -1.39618 2.92042 0
M  V30 543 H 47.2703 0.801948 3.65403 0
M  V30 544 H 48.6033 1.03588 4.81176 0
M  V30 545 N 50.2554 -1.46986 0.568584 0
M  V30 546 C 51.6714 -1.57946 0.229189 0
M  V30 547 C 51.8714 -1.56567 -1.26843 0
M  V30 548 O 50.9274 -1.47511 -2.04931 0
M  V30 549 C 52.2404 -2.87963 0.865909 0
M  V30 550 C 53.7884 -3.01568 0.838188 0
M  V30 551 C 54.2634 -4.34301 1.45419 0
M  V30 552 N 55.7544 -4.40965 1.41788 0
M  V30 553 C 56.4894 -5.42256 1.86403 0
M  V30 554 N 55.9854 -6.50297 2.38926 0
M  V30 555 N 57.7784 -5.3337 1.77405 0
M  V30 556 H 49.9294 -1.46126 1.54146 0
M  V30 557 H 52.1924 -0.696156 0.643484 0
M  V30 558 H 51.8984 -2.94742 1.91886 0
M  V30 559 H 51.7724 -3.75423 0.365687 0
M  V30 560 H 54.1594 -2.94379 -0.206106 0
M  V30 561 H 54.2404 -2.1562 1.37629 0
M  V30 562 H 53.8844 -4.42247 2.49761 0
M  V30 563 H 53.8144 -5.19 0.891435 0
M  V30 564 H 56.3054 -3.63484 1.03381 0
M  V30 565 H 56.6184 -7.23777 2.70863 0
M  V30 566 H 54.9634 -6.51155 2.42944 0
M  V30 567 H 58.1544 -4.47865 1.3614 0
M  V30 568 H 58.3274 -6.12169 2.12492 0
M  V30 569 N 51.7335 -0.305618 -1.54608 0
M  V30 570 C 52.6435 0.57778 -2.27374 0
M  V30 571 C 53.6595 1.14451 -1.31061 0
M  V30 572 O 54.8355 1.16831 -1.6405 0
M  V30 573 C 51.9005 1.73123 -3.00382 0
M  V30 574 C 50.9615 1.19812 -4.12242 0
M  V30 575 C 50.1945 2.2966 -4.81759 0
M  V30 576 O 50.4175 3.49651 -4.50666 0
M  V30 577 O 49.3515 1.96091 -5.69062 0
M  V30 578 H 53.1775 -0.012624 -3.03697 0
M  V30 579 H 50.7625 -0.0719184 -1.49227 0
M  V30 580 H 52.6445 2.40315 -3.4616 0
M  V30 581 H 51.3195 2.30815 -2.26949 0
M  V30 582 H 50.2265 0.491798 -3.70853 0
M  V30 583 H 51.5595 0.666566 -4.87666 0
M  V30 584 N 53.2116 1.57565 -0.0334293 0
M  V30 585 C 54.4596 1.91598 0.642999 0
M  V30 586 C 54.7806 0.910847 1.7242 0
M  V30 587 O 54.0506 -0.0469931 1.95844 0
M  V30 588 H 52.6306 0.707228 0.240496 0
M  V30 589 H 55.2926 1.94726 -0.0822488 0
M  V30 590 H 54.3886 2.92336 1.09298 0
M  V30 591 N 54.6897 -0.239769 1.55765 0
M  V30 592 C 55.6367 -1.29696 1.90913 0
M  V30 593 C 56.6067 -1.47478 0.764164 0
M  V30 594 O 57.7917 -1.61345 1.01845 0
M  V30 595 C 54.9317 -2.64598 2.21544 0
M  V30 596 C 54.0447 -2.54765 3.48882 0
M  V30 597 C 53.1797 -3.82069 3.69049 0
M  V30 598 C 52.2187 -3.66883 4.89963 0
M  V30 599 N 51.3557 -4.86094 5.06614 0
M  V30 600 H 56.1957 -0.990224 2.81067 0
M  V30 601 H 53.7327 -0.477684 1.39128 0
M  V30 602 H 55.6907 -3.43132 2.3731 0
M  V30 603 H 54.3207 -2.93405 1.34585 0
M  V30 604 H 53.3727 -1.67763 3.41409 0
M  V30 605 H 54.6847 -2.39457 4.37563 0
M  V30 606 H 53.8387 -4.69046 3.84812 0
M  V30 607 H 52.5777 -4.00282 2.78614 0
M  V30 608 H 51.5827 -2.78289 4.74168 0
M  V30 609 H 52.8077 -3.50157 5.81865 0
M  V30 610 H 50.7537 -5.04655 4.19117 0
M  V30 611 H 50.6707 -4.73443 5.89396 0
M  V30 612 H 51.9387 -5.74549 5.26795 0
M  V30 613 N 56.1678 -1.49265 -0.50573 0
M  V30 614 C 57.4138 -1.58748 -1.26202 0
M  V30 615 C 57.7468 -0.271227 -1.92297 0
M  V30 616 O 57.0218 0.724831 -1.80489 0
M  V30 617 C 57.3048 -2.74332 -2.33268 0
M  V30 618 C 57.1578 -4.15737 -1.71705 0
M  V30 619 C 58.4768 -2.85576 -3.34865 0
M  V30 620 H 55.5958 -0.577826 -0.457478 0
M  V30 621 H 58.2378 -1.81532 -0.560897 0
M  V30 622 H 56.3878 -2.55036 -2.93068 0
M  V30 623 H 58.0598 -4.46537 -1.15769 0
M  V30 624 H 56.3028 -4.21605 -1.02135 0
M  V30 625 H 56.9738 -4.92477 -2.49341 0
M  V30 626 H 59.4498 -3.03127 -2.8505 0
M  V30 627 H 58.3258 -3.68135 -4.07146 0
M  V30 628 H 58.5868 -1.94732 -3.96903 0
M  V30 629 N 57.6459 0.756429 -1.3826 0
M  V30 630 C 58.5929 1.87011 -1.35261 0
M  V30 631 C 59.5629 1.64695 -0.215616 0
M  V30 632 O 60.7479 1.864 -0.407399 0
M  V30 633 C 57.8879 3.24275 -1.18068 0
M  V30 634 C 57.0009 3.58442 -2.41129 0
M  V30 635 C 56.1359 4.84994 -2.16689 0
M  V30 636 C 55.1749 5.11939 -3.35537 0
M  V30 637 N 54.3119 6.29685 -3.10549 0
M  V30 638 H 59.1519 1.8891 -2.30472 0
M  V30 639 H 56.6889 0.923373 -1.14509 0
M  V30 640 H 58.6469 4.03479 -1.06116 0
M  V30 641 H 57.2769 3.21711 -0.264973 0
M  V30 642 H 56.3289 2.74103 -2.63764 0
M  V30 643 H 57.6409 3.74283 -3.29717 0
M  V30 644 H 56.7949 5.72135 -2.01857 0
M  V30 645 H 55.5339 4.71286 -1.25462 0
M  V30 646 H 54.5389 4.23268 -3.50891 0
M  V30 647 H 55.7639 5.27546 -4.27635 0
M  V30 648 H 53.7099 6.17306 -2.21967 0
M  V30 649 H 53.6269 6.46014 -3.92686 0
M  V30 650 H 54.8949 7.19722 -2.99367 0
M  V30 651 N 59.124 1.23083 0.984299 0
M  V30 652 C 60.054 1.03292 2.09411 0
M  V30 653 C 61.035 -0.048923 1.7003 0
M  V30 654 O 62.22 0.114967 1.93859 0
M  V30 655 C 59.35 0.619155 3.41736 0
M  V30 656 C 58.304 1.64791 3.95004 0
M  V30 657 C 57.63 1.0897 5.23478 0
M  V30 658 C 58.93 3.03999 4.24714 0
M  V30 659 H 60.624 1.96119 2.26225 0
M  V30 660 H 58.17 0.944344 1.08711 0
M  V30 661 H 60.123 0.467777 4.18796 0
M  V30 662 H 58.847 -0.344786 3.24775 0
M  V30 663 H 57.506 1.78721 3.20085 0
M  V30 664 H 57.154 0.11686 5.02864 0
M  V30 665 H 56.854 1.77704 5.60085 0
M  V30 666 H 58.378 0.950093 6.03163 0
M  V30 667 H 59.792 2.93393 4.92538 0
M  V30 668 H 58.189 3.69936 4.72512 0
M  V30 669 H 59.259 3.53285 3.32142 0
M  V30 670 N 60.6021 -1.18246 1.0419 0
M  V30 671 C 61.5651 -2.20128 0.638452 0
M  V30 672 C 62.5651 -1.57885 -0.304805 0
M  V30 673 O 63.7551 -1.73967 -0.0900369 0
M  V30 674 C 60.8871 -3.4084 -0.0637751 0
M  V30 675 H 62.0801 -2.57336 1.54007 0
M  V30 676 H 59.6331 -1.32152 0.834598 0
M  V30 677 H 60.3681 -3.09166 -0.979136 0
M  V30 678 H 60.1531 -3.8726 0.614198 0
M  V30 679 H 61.6431 -4.16274 -0.332512 0
M  V30 680 N 62.0802 -0.821533 -1.34494 0
M  V30 681 C 63.0102 -0.257138 -2.3208 0
M  V30 682 C 63.9912 0.625645 -1.58176 0
M  V30 683 O 65.1762 0.552811 -1.86166 0
M  V30 684 C 62.3062 0.582958 -3.42372 0
M  V30 685 C 61.2602 -0.202571 -4.2752 0
M  V30 686 C 60.5862 0.760179 -5.29269 0
M  V30 687 C 61.8862 -1.40998 -5.02908 0
M  V30 688 H 63.5802 -1.07247 -2.79532 0
M  V30 689 H 61.1262 -0.517163 -1.34393 0
M  V30 690 H 63.0792 0.987972 -4.09655 0
M  V30 691 H 61.8032 1.43133 -2.93565 0
M  V30 692 H 60.4622 -0.588936 -3.61838 0
M  V30 693 H 60.1102 1.60447 -4.76724 0
M  V30 694 H 59.8102 0.238809 -5.87115 0
M  V30 695 H 61.3342 1.16308 -5.9942 0
M  V30 696 H 62.7482 -1.07905 -5.63054 0
M  V30 697 H 61.1452 -1.86689 -5.70322 0
M  V30 698 H 62.2152 -2.1889 -4.32684 0
M  V30 699 N 63.5583 1.46682 -0.576371 0
M  V30 700 C 64.4883 2.33028 0.148397 0
M  V30 701 C 65.4693 1.44961 0.889956 0
M  V30 702 O 66.6543 1.73789 0.866662 0
M  V30 703 C 63.7843 3.27117 1.1667 0
M  V30 704 C 62.7383 4.24575 0.540386 0
M  V30 705 C 62.0643 5.08126 1.6647 0
M  V30 706 C 63.3643 5.19722 -0.518331 0
M  V30 707 H 65.0583 2.93875 -0.572509 0
M  V30 708 H 62.6043 1.41315 -0.276768 0
M  V30 709 H 64.5573 3.86374 1.68204 0
M  V30 710 H 63.2813 2.64364 1.9178 0
M  V30 711 H 61.9403 3.66571 0.0461769 0
M  V30 712 H 61.5883 4.41762 2.40531 0
M  V30 713 H 61.2883 5.74122 1.25131 0
M  V30 714 H 62.8123 5.70246 2.18293 0
M  V30 715 H 64.2263 5.73232 -0.0883058 0
M  V30 716 H 62.6233 5.94026 -0.851679 0
M  V30 717 H 63.6933 4.64037 -1.40703 0
M  V30 718 N 65.0364 0.313813 1.54444 0
M  V30 719 C 65.9664 -0.549454 2.26943 0
M  V30 720 C 66.9474 -1.12741 1.27372 0
M  V30 721 O 68.1324 -1.15436 1.56167 0
M  V30 722 C 65.2624 -1.71523 3.01989 0
M  V30 723 C 64.2164 -1.26703 4.08816 0
M  V30 724 C 63.5424 -2.51898 4.71647 0
M  V30 725 C 64.8424 -0.388962 5.2085 0
M  V30 726 H 66.5364 0.0552661 2.99349 0
M  V30 727 H 64.0824 0.0280207 1.43973 0
M  V30 728 H 66.0354 -2.32535 3.51433 0
M  V30 729 H 64.7594 -2.34639 2.27183 0
M  V30 730 H 63.4184 -0.679896 3.6024 0
M  V30 731 H 63.0664 -3.13356 3.93468 0
M  V30 732 H 62.7664 -2.22605 5.43802 0
M  V30 733 H 64.2904 -3.1369 5.23861 0
M  V30 734 H 65.7044 -0.905107 5.6611 0
M  V30 735 H 64.1014 -0.18924 5.99802 0
M  V30 736 H 65.1714 0.582699 4.81386 0
M  V30 737 N 66.5145 -1.57545 0.0417849 0
M  V30 738 C 67.4775 -2.09885 -0.92093 0
M  V30 739 C 68.4775 -1.01648 -1.24596 0
M  V30 740 O 69.6675 -1.27759 -1.1842 0
M  V30 741 C 66.7995 -2.57527 -2.23367 0
M  V30 742 H 67.9925 -2.96236 -0.467382 0
M  V30 743 H 65.5455 -1.5493 -0.206467 0
M  V30 744 H 66.2805 -1.74542 -2.73323 0
M  V30 745 H 66.0655 -3.36613 -2.01083 0
M  V30 746 H 67.5555 -2.98201 -2.92346 0
M  V30 747 N 67.9926 0.231505 -1.5589 0
M  V30 748 C 68.9556 1.27028 -1.90779 0
M  V30 749 C 69.9556 1.40308 -0.785507 0
M  V30 750 O 71.1456 1.38744 -1.05336 0
M  V30 751 C 68.2776 2.64566 -2.14983 0
M  V30 752 H 69.4706 0.973017 -2.83677 0
M  V30 753 H 67.0236 0.471486 -1.49019 0
M  V30 754 H 67.7586 2.99406 -1.24604 0
M  V30 755 H 67.5436 2.56305 -2.96732 0
M  V30 756 H 69.0336 3.39543 -2.43105 0
M  V30 757 N 69.4707 1.49531 0.497807 0
M  V30 758 C 70.7167 1.59415 1.25358 0
M  V30 759 C 71.0497 0.281422 1.9215 0
M  V30 760 O 70.3247 -0.715249 1.80871 0
M  V30 761 C 70.6077 2.75566 2.3181 0
M  V30 762 C 70.4607 4.16642 1.69498 0
M  V30 763 C 71.7797 2.87347 3.33346 0
M  V30 764 H 68.8987 0.580244 0.454408 0
M  V30 765 H 71.5407 1.81827 0.551262 0
M  V30 766 H 69.6907 2.56587 2.91711 0
M  V30 767 H 71.3627 4.47145 1.13399 0
M  V30 768 H 69.6057 4.22141 0.998978 0
M  V30 769 H 70.2767 4.93792 2.46725 0
M  V30 770 H 72.7527 3.04634 2.83438 0
M  V30 771 H 71.6287 3.70289 4.05188 0
M  V30 772 H 71.8897 1.96834 3.95865 0
M  V30 773 N 70.9488 -0.749086 1.3866 0
M  V30 774 C 72.1968 -1.50535 1.34847 0
M  V30 775 C 72.5178 -1.94909 -0.0595016 0
M  V30 776 O 71.7878 -1.67973 -1.00806 0
M  V30 777 H 70.3678 -0.558395 0.49619 0
M  V30 778 H 73.0298 -0.890165 1.73384 0
M  V30 779 H 72.1258 -2.39413 2.00219 0
M  V30 780 N 72.4269 -1.23603 -0.977757 0
M  V30 781 C 73.3899 -1.02069 -2.05218 0
M  V30 782 C 74.3899 0.0184305 -1.60789 0
M  V30 783 O 75.5799 -0.221569 -1.72785 0
M  V30 784 C 72.7119 -0.544926 -3.36517 0
M  V30 785 H 73.9049 -1.9742 -2.25755 0
M  V30 786 H 71.4579 -1.05684 -1.15155 0
M  V30 787 H 72.1929 0.412241 -3.21669 0
M  V30 788 H 71.9779 -1.2948 -3.70105 0
M  V30 789 H 73.4679 -0.414985 -4.15533 0
M  V30 790 N 73.905 1.17692 -1.04816 0
M  V30 791 C 75.133 1.91786 -0.776254 0
M  V30 792 C 75.548 1.76604 0.667577 0
M  V30 793 O 74.905 1.10067 1.45573 0
M  V30 794 C 74.956 3.42967 -1.14263 0
M  V30 795 O 74.677 3.57678 -2.52978 0
M  V30 796 C 76.178 4.34144 -0.896311 0
M  V30 797 H 73.398 0.608624 -0.282519 0
M  V30 798 H 75.942 1.49268 -1.39783 0
M  V30 799 H 74.097 3.83245 -0.565874 0
M  V30 800 H 74.511 4.51319 -2.67229 0
M  V30 801 H 75.985 5.38744 -1.20244 0
M  V30 802 H 76.462 4.38876 0.168636 0
M  V30 803 H 77.068 3.99574 -1.45672 0
M  V30 804 N 75.3831 0.828654 1.34056 0
M  V30 805 C 76.3131 0.269443 2.3194 0
M  V30 806 C 77.2941 -0.617247 1.58506 0
M  V30 807 O 78.4791 -0.542931 1.86456 0
M  V30 808 C 75.6091 -0.564793 3.42677 0
M  V30 809 C 74.5631 0.225241 4.27407 0
M  V30 810 C 73.8891 -0.7321 5.29664 0
M  V30 811 C 75.1891 1.43663 5.02154 0
M  V30 812 H 76.8831 1.08728 2.7896 0
M  V30 813 H 74.4291 0.524283 1.34117 0
M  V30 814 H 76.3821 -0.966233 4.10173 0
M  V30 815 H 75.1061 -1.41574 2.9432 0
M  V30 816 H 73.7651 0.608117 3.61521 0
M  V30 817 H 73.4131 -1.57916 4.77568 0
M  V30 818 H 73.1131 -0.20767 5.87233 0
M  V30 819 H 74.6371 -1.13128 6.00029 0
M  V30 820 H 76.0511 1.1089 5.62473 0
M  V30 821 H 74.4481 1.89711 5.69324 0
M  V30 822 H 75.5181 2.21181 4.31517 0
M  V30 823 N 76.8612 -1.46375 0.584142 0
M  V30 824 C 77.8242 -2.28784 -0.138108 0
M  V30 825 C 78.8242 -1.38471 -0.817462 0
M  V30 826 O 80.0142 -1.60833 -0.669199 0
M  V30 827 C 77.1462 -3.18892 -1.20503 0
M  V30 828 H 78.3392 -2.94117 0.586127 0
M  V30 829 H 75.8922 -1.52509 0.342171 0
M  V30 830 H 76.6272 -2.58309 -1.96079 0
M  V30 831 H 76.4122 -3.85388 -0.722384 0
M  V30 832 H 77.9022 -3.80914 -1.71155 0
M  V30 833 N 78.3393 -0.321999 -1.54275 0
M  V30 834 C 79.5853 0.281461 -2.00837 0
M  V30 835 C 79.9183 1.51909 -1.20985 0
M  V30 836 O 79.1933 1.923 -0.291733 0
M  V30 837 C 79.4763 0.617162 -3.54772 0
M  V30 838 C 79.3293 -0.631064 -4.45351 0
M  V30 839 C 80.6483 1.43542 -4.16033 0
M  V30 840 H 77.7673 0.100826 -0.730071 0
M  V30 841 H 80.4093 -0.438268 -1.84876 0
M  V30 842 H 78.5593 1.23034 -3.68504 0
M  V30 843 H 80.2313 -1.26934 -4.43492 0
M  V30 844 H 78.4743 -1.26025 -4.15091 0
M  V30 845 H 79.1453 -0.351735 -5.50878 0
M  V30 846 H 81.6213 0.917134 -4.05867 0
M  V30 847 H 80.4973 1.63907 -5.23856 0
M  V30 848 H 80.7583 2.43108 -3.69257 0
M  V30 849 N 79.8174 1.5752 -0.0501392 0
M  V30 850 C 80.7474 2.14502 0.922566 0
M  V30 851 C 81.7284 1.06642 1.3252 0
M  V30 852 O 82.9134 1.34577 1.4001 0
M  V30 853 C 80.0434 2.68916 2.19776 0
M  V30 854 C 78.9974 3.8175 1.93523 0
M  V30 855 C 78.3234 4.22677 3.27487 0
M  V30 856 C 79.6234 5.06932 1.25765 0
M  V30 857 H 81.3174 2.9603 0.447952 0
M  V30 858 H 78.8634 1.42401 0.214024 0
M  V30 859 H 80.8164 3.07419 2.88222 0
M  V30 860 H 79.5404 1.84578 2.69441 0
M  V30 861 H 78.1994 3.43718 1.27489 0
M  V30 862 H 77.8474 3.35291 3.74952 0
M  V30 863 H 77.5474 4.98725 3.1072 0
M  V30 864 H 79.0714 4.63779 3.97166 0
M  V30 865 H 80.4854 5.42888 1.84244 0
M  V30 866 H 78.8824 5.88116 1.19328 0
M  V30 867 H 79.9524 4.84337 0.233536 0
M  V30 868 N 81.2955 -0.223234 1.56011 0
M  V30 869 C 82.5205 -0.968978 1.83373 0
M  V30 870 C 82.9455 -1.77227 0.630254 0
M  V30 871 O 82.3035 -1.76345 -0.420959 0
M  V30 872 C 82.3515 -1.86363 3.08709 0
M  V30 873 O 81.4555 -2.95873 2.87285 0
M  V30 874 H 80.7965 -0.274461 0.604622 0
M  V30 875 H 83.3265 -0.237056 2.03222 0
M  V30 876 H 83.3365 -2.27376 3.38768 0
M  V30 877 H 82.0115 -1.27319 3.95933 0
M  V30 878 H 80.5885 -2.58818 2.68454 0
M  V30 879 N 82.7736 -1.49793 -0.48987 0
M  V30 880 C 84.0196 -1.60078 -1.24511 0
M  V30 881 C 84.3526 -0.291608 -1.91998 0
M  V30 882 O 83.6276 0.705647 -1.81248 0
M  V30 883 C 83.9106 -2.76791 -2.30345 0
M  V30 884 C 83.7636 -4.17535 -1.67286 0
M  V30 885 C 85.0826 -2.89111 -3.31817 0
M  V30 886 H 82.2016 -0.582645 -0.451324 0
M  V30 887 H 84.8436 -1.82117 -0.541612 0
M  V30 888 H 82.9936 -2.5813 -2.90346 0
M  V30 889 H 84.6656 -4.4774 -1.11026 0
M  V30 890 H 82.9086 -4.22665 -0.976577 0
M  V30 891 H 83.5796 -4.95094 -2.44103 0
M  V30 892 H 86.0556 -3.06133 -2.81819 0
M  V30 893 H 84.9316 -3.72433 -4.03219 0
M  V30 894 H 85.1926 -1.9893 -3.94815 0
M  V30 895 N 84.2517 0.741722 -1.39055 0
M  V30 896 C 85.4997 1.49818 -1.35643 0
M  V30 897 C 85.8207 1.94938 0.0491642 0
M  V30 898 O 85.0907 1.68505 0.999141 0
M  V30 899 H 83.6707 0.555755 -0.499144 0
M  V30 900 H 86.3327 0.880957 -1.73854 0
M  V30 901 H 85.4287 2.38348 -2.01486 0
M  V30 902 N 85.7298 1.2412 0.971189 0
M  V30 903 C 86.9578 1.10575 1.74874 0
M  V30 904 C 87.3728 -0.342017 1.85676 0
M  V30 905 O 86.7298 -1.23617 1.34258 0
M  V30 906 C 86.7808 1.73579 3.171 0
M  V30 907 O 86.5018 3.12695 3.06844 0
M  V30 908 C 88.0028 1.65598 4.11208 0
M  V30 909 H 85.2228 0.386504 0.548503 0
M  V30 910 H 87.7668 1.64156 1.21955 0
M  V30 911 H 85.9218 1.24009 3.67016 0
M  V30 912 H 86.3358 3.43412 3.96445 0
M  V30 913 H 87.8098 2.1437 5.08674 0
M  V30 914 H 88.2868 0.616532 4.34851 0
M  V30 915 H 88.8928 2.14578 3.67201 0
M  V30 916 N 87.2079 -1.17134 1.05439 0
M  V30 917 C 88.1179 -2.24878 0.668365 0
M  V30 918 C 89.1339 -1.71186 -0.311687 0
M  V30 919 O 90.3099 -2.00738 -0.163161 0
M  V30 920 C 87.3749 -3.46662 0.051648 0
M  V30 921 C 86.4359 -4.15429 1.08246 0
M  V30 922 C 85.6689 -5.31399 0.495082 0
M  V30 923 O 85.8919 -5.66153 -0.694743 0
M  V30 924 O 84.8259 -5.89187 1.23056 0
M  V30 925 H 88.6519 -2.60189 1.56637 0
M  V30 926 H 86.2369 -1.24482 0.826104 0
M  V30 927 H 88.1189 -4.20394 -0.290966 0
M  V30 928 H 86.7939 -3.13142 -0.819971 0
M  V30 929 H 85.7009 -3.43704 1.47711 0
M  V30 930 H 87.0339 -4.52982 1.92532 0
M  V30 931 N 88.686 -0.835752 -1.33615 0
M  V30 932 C 89.933 -0.429959 -1.97883 0
M  V30 933 C 90.261 1.01006 -1.66217 0
M  V30 934 O 89.516 1.72047 -0.93265 0
M  V30 935 C 89.815 -0.593925 -3.52431 0
M  V30 936 C 89.481 -2.00158 -4.04039 0
M  V30 937 C 88.143 -2.38662 -4.17844 0
M  V30 938 C 90.495 -2.92117 -4.31644 0
M  V30 939 C 87.823 -3.68435 -4.56588 0
M  V30 940 C 90.175 -4.21368 -4.71838 0
M  V30 941 C 88.839 -4.59833 -4.83849 0
M  V30 942 H 88.109 -0.157333 -0.724104 0
M  V30 943 H 90.756 -1.06217 -1.59343 0
M  V30 944 H 89.061 0.121619 -3.91611 0
M  V30 945 H 90.758 -0.260282 -4.00154 0
M  V30 946 H 87.348 -1.69252 -3.93766 0
M  V30 947 H 91.532 -2.63608 -4.20505 0
M  V30 948 H 86.788 -3.98046 -4.64079 0
M  V30 949 H 90.962 -4.92703 -4.92155 0
M  V30 950 H 88.589 -5.60438 -5.13627 0
M  V30 951 N 90.1641 1.46063 -0.591896 0
M  V30 952 C 91.4101 2.03203 -0.0894879 0
M  V30 953 C 91.7651 1.45407 1.25994 0
M  V30 954 O 91.0581 0.61326 1.8152 0
M  V30 955 C 91.2521 3.57391 0.0249813 0
M  V30 956 C 91.0811 4.30142 -1.3118 0
M  V30 957 C 89.8511 4.68688 -1.88838 0
M  V30 958 C 92.0491 4.63098 -2.23708 0
M  V30 959 N 90.0311 5.26228 -3.1616 0
M  V30 960 C 91.4021 5.21305 -3.3562 0
M  V30 961 C 93.4571 4.45031 -2.23274 0
M  V30 962 C 92.1601 5.63351 -4.47245 0
M  V30 963 C 94.1861 4.881 -3.33935 0
M  V30 964 C 93.5481 5.46386 -4.44569 0
M  V30 965 H 89.6471 0.778323 -0.0757431 0
M  V30 966 H 92.2311 1.78094 -0.78681 0
M  V30 967 H 90.4021 3.82195 0.69149 0
M  V30 968 H 92.1341 4.0118 0.532613 0
M  V30 969 H 88.8891 4.5174 -1.42223 0
M  V30 970 H 89.3131 5.59512 -3.8115 0
M  V30 971 H 93.9551 3.99295 -1.39008 0
M  V30 972 H 91.6731 6.08061 -5.32247 0
M  V30 973 H 95.2591 4.75866 -3.34728 0
M  V30 974 H 94.1391 5.79102 -5.28782 0
M  V30 975 N 91.6422 0.330177 1.54103 0
M  V30 976 C 92.8882 -0.270806 2.00984 0
M  V30 977 C 93.2212 -1.51265 1.21789 0
M  V30 978 O 92.4962 -1.92142 0.301927 0
M  V30 979 C 92.7792 -0.598339 3.55094 0
M  V30 980 C 92.6322 0.654674 4.4501 0
M  V30 981 C 93.9512 -1.41334 4.16789 0
M  V30 982 H 91.0702 -0.0969531 0.730595 0
M  V30 983 H 93.7122 0.448066 1.84641 0
M  V30 984 H 91.8622 -1.21078 3.69151 0
M  V30 985 H 93.5342 1.29285 4.42813 0
M  V30 986 H 91.7772 1.28224 4.14416 0
M  V30 987 H 92.4482 0.380944 5.50684 0
M  V30 988 H 94.9242 -0.895597 4.06347 0
M  V30 989 H 93.8002 -1.61127 5.24718 0
M  V30 990 H 94.0612 -2.41146 3.70541 0
M  V30 991 N 93.1203 -1.57491 0.0584922 0
M  V30 992 C 94.0303 -2.15448 -0.928414 0
M  V30 993 C 95.0463 -1.11416 -1.3365 0
M  V30 994 O 96.2223 -1.4362 -1.41193 0
M  V30 995 C 93.2873 -2.69393 -2.18239 0
M  V30 996 C 92.3483 -3.88249 -1.83196 0
M  V30 997 C 91.5813 -4.39613 -3.02616 0
M  V30 998 O 91.8043 -3.90023 -4.16219 0
M  V30 999 O 90.7383 -5.31111 -2.83204 0
M  V30 1000 H 94.5643 -3.00112 -0.465483 0
M  V30 1001 H 92.1493 -1.48499 -0.163826 0
M  V30 1002 H 94.0313 -3.04026 -2.91798 0
M  V30 1003 H 92.7063 -1.87796 -2.63656 0
M  V30 1004 H 91.6133 -3.58492 -1.06931 0
M  V30 1005 H 92.9463 -4.71098 -1.42573 0
M  V30 1006 N 94.5984 0.214957 -1.56127 0
M  V30 1007 C 95.5284 1.2695 -1.95974 0
M  V30 1008 C 96.5094 1.48539 -0.828868 0
M  V30 1009 O 97.6944 1.60611 -1.09168 0
M  V30 1010 C 94.8244 2.61794 -2.28214 0
M  V30 1011 C 93.7784 2.54851 -3.43853 0
M  V30 1012 C 93.1044 3.93785 -3.61715 0
M  V30 1013 C 94.4044 2.09065 -4.78632 0
M  V30 1014 H 96.0984 0.93846 -2.84312 0
M  V30 1015 H 93.6444 0.449996 -1.36788 0
M  V30 1016 H 95.5974 3.35731 -2.54682 0
M  V30 1017 H 94.3214 2.96599 -1.36736 0
M  V30 1018 H 92.9804 1.8337 -3.17444 0
M  V30 1019 H 92.6284 4.25908 -2.67602 0
M  V30 1020 H 92.3284 3.90019 -4.39498 0
M  V30 1021 H 93.8524 4.69374 -3.90539 0
M  V30 1022 H 95.2664 2.7275 -5.04262 0
M  V30 1023 H 93.6634 2.16346 -5.59745 0
M  V30 1024 H 94.7334 1.04315 -4.73547 0
M  V30 1025 N 96.0765 1.50051 0.48192 0
M  V30 1026 C 97.0245 1.68635 1.60203 0
M  V30 1027 C 98.0185 0.552184 1.60148 0
M  V30 1028 O 99.2245 0.732377 1.64427 0
M  V30 1029 H 95.5995 0.532081 0.531407 0
M  V30 1030 H 97.5705 2.62616 1.41688 0
M  V30 1031 C 96.3195 1.78775 2.9822 0
M  V30 1032 H 95.6425 2.6543 2.98976 0
M  V30 1033 H 97.0825 1.95806 3.7608 0
M  V30 1034 C 95.5415 0.536849 3.32595 0
M  V30 1035 O 96.0715 -0.328897 4.00351 0
M  V30 1036 N 94.2775 0.394091 2.87915 0
M  V30 1037 H 93.8245 1.09962 2.32951 0
M  V30 1038 H 93.7825 -0.441737 3.11281 0
M  V30 1039 N 97.5546 -0.734337 1.39446 0
M  V30 1040 C 98.7826 -1.52358 1.39981 0
M  V30 1041 C 99.1976 -1.88799 -0.0054975 0
M  V30 1042 O 98.5546 -1.54146 -0.976998 0
M  V30 1043 C 98.6056 -2.81072 2.27333 0
M  V30 1044 O 98.3266 -2.46178 3.62392 0
M  V30 1045 C 99.8276 -3.75096 2.36259 0
M  V30 1046 H 97.0476 -0.470806 0.478103 0
M  V30 1047 H 99.5916 -0.907339 1.83269 0
M  V30 1048 H 97.7466 -3.39026 1.87457 0
M  V30 1049 H 98.1606 -3.28866 4.08592 0
M  V30 1050 H 99.6346 -4.62305 3.01626 0
M  V30 1051 H 100.112 -4.16892 1.38194 0
M  V30 1052 H 100.718 -3.23061 2.76608 0
M  V30 1053 N 99.0327 -1.24633 -0.964593 0
M  V30 1054 C 100.263 -1.11339 -1.74032 0
M  V30 1055 C 100.671 0.336593 -1.86182 0
M  V30 1056 O 100.014 1.24389 -1.35178 0
M  V30 1057 C 100.076 -1.68284 -3.1768 0
M  V30 1058 C 99.7397 -3.17196 -3.28992 0
M  V30 1059 C 100.737 -4.14308 -3.14078 0
M  V30 1060 C 98.4217 -3.57215 -3.53133 0
M  V30 1061 C 100.416 -5.4942 -3.23135 0
M  V30 1062 C 98.1027 -4.92468 -3.61827 0
M  V30 1063 C 99.1007 -5.8838 -3.46841 0
M  V30 1064 O 98.7887 -7.21173 -3.55197 0
M  V30 1065 H 98.5207 -0.389551 -0.552472 0
M  V30 1066 H 101.075 -1.65282 -1.21946 0
M  V30 1067 H 99.3047 -1.08777 -3.71085 0
M  V30 1068 H 100.994 -1.50234 -3.77074 0
M  V30 1069 H 101.76 -3.84731 -2.95308 0
M  V30 1070 H 97.6387 -2.83063 -3.63863 0
M  V30 1071 H 101.183 -6.24263 -3.11355 0
M  V30 1072 H 97.0797 -5.21714 -3.80111 0
M  V30 1073 H 97.8477 -7.29135 -3.71892 0
M  V30 1074 N 100.511 1.16574 -1.06058 0
M  V30 1075 C 101.458 2.20883 -0.669263 0
M  V30 1076 C 102.428 1.62729 0.332918 0
M  V30 1077 O 103.613 1.895 0.222346 0
M  V30 1078 C 100.753 3.45049 -0.0593572 0
M  V30 1079 C 99.8658 4.17458 -1.11143 0
M  V30 1080 C 99.0008 5.29135 -0.467916 0
M  V30 1081 C 98.0398 5.93343 -1.50369 0
M  V30 1082 N 97.1768 6.96516 -0.883706 0
M  V30 1083 H 102.017 2.53709 -1.5632 0
M  V30 1084 H 99.5538 1.24616 -0.781625 0
M  V30 1085 H 101.512 4.16033 0.311771 0
M  V30 1086 H 100.142 3.12781 0.797992 0
M  V30 1087 H 99.1938 3.45101 -1.60029 0
M  V30 1088 H 100.506 4.61307 -1.89731 0
M  V30 1089 H 99.6598 6.06684 -0.0436871 0
M  V30 1090 H 98.3988 4.86443 0.349864 0
M  V30 1091 H 97.4038 5.14517 -1.93784 0
M  V30 1092 H 98.6288 6.38114 -2.32352 0
M  V30 1093 H 96.5748 6.55943 -0.086595 0
M  V30 1094 H 96.4918 7.38723 -1.607 0
M  V30 1095 H 97.7598 7.77993 -0.484543 0
M  V30 1096 N 101.989 0.842826 1.3317 0
M  V30 1097 C 102.952 0.284065 2.27433 0
M  V30 1098 C 103.952 -0.54948 1.5112 0
M  V30 1099 O 105.142 -0.362699 1.70382 0
M  V30 1100 C 102.274 -0.599384 3.35589 0
M  V30 1101 H 103.467 1.11589 2.78366 0
M  V30 1102 H 101.02 0.616221 1.4364 0
M  V30 1103 H 101.755 -1.45349 2.89904 0
M  V30 1104 H 101.54 -0.00291266 3.921 0
M  V30 1105 H 103.03 -0.983488 4.05854 0
M  V30 1106 N 103.467 -1.45747 0.599634 0
M  V30 1107 C 104.415 -2.322 -0.136426 0
M  V30 1108 C 105.409 -1.45497 -0.867583 0
M  V30 1109 O 106.615 -1.62027 -0.78405 0
M  V30 1110 H 102.99 -0.749368 -0.0628588 0
M  V30 1111 H 104.961 -2.92072 0.611281 0
M  V30 1112 C 103.71 -3.28974 -1.12567 0
M  V30 1113 H 103.033 -3.9568 -0.572484 0
M  V30 1114 H 104.473 -3.92212 -1.61077 0
M  V30 1115 C 102.932 -2.55561 -2.19523 0
M  V30 1116 O 103.462 -2.33111 -3.27143 0
M  V30 1117 N 101.668 -2.15832 -1.94589 0
M  V30 1118 H 101.215 -2.3429 -1.07078 0
M  V30 1119 H 101.173 -1.67034 -2.66359 0
M  V30 1120 N 104.945 -0.338344 -1.53925 0
M  V30 1121 C 106.193 0.259245 -2.0043 0
M  V30 1122 C 106.514 1.51484 -1.22791 0
M  V30 1123 O 105.784 1.93037 -0.33368 0
M  V30 1124 H 104.364 0.0987845 -0.740439 0
M  V30 1125 H 107.026 -0.458302 -1.89435 0
M  V30 1126 H 106.122 0.505334 -3.07982 0
M  V30 1127 N 106.423 1.57458 -0.0668435 0
M  V30 1128 C 107.648 1.9804 0.616027 0
M  V30 1129 C 108.073 0.944771 1.62652 0
M  V30 1130 O 107.431 -0.0902094 1.81075 0
M  V30 1131 C 107.479 3.37665 1.26549 0
M  V30 1132 O 106.583 3.36701 2.38131 0
M  V30 1133 H 105.924 0.644719 0.158849 0
M  V30 1134 H 108.454 2.04121 -0.139891 0
M  V30 1135 H 108.464 3.7474 1.6135 0
M  V30 1136 H 107.139 4.12573 0.525016 0
M  V30 1137 H 105.716 3.1139 2.0516 0
M  V30 1138 N 107.901 -0.206675 1.56239 0
M  V30 1139 C 108.864 -1.23976 1.92776 0
M  V30 1140 C 109.864 -1.39041 0.807729 0
M  V30 1141 O 111.054 -1.37051 1.0753 0
M  V30 1142 C 108.186 -2.61112 2.19165 0
M  V30 1143 H 109.379 -0.927764 2.85189 0
M  V30 1144 H 106.932 -0.447718 1.4975 0
M  V30 1145 H 107.667 -2.97386 1.29352 0
M  V30 1146 H 107.452 -2.51552 3.00772 0
M  V30 1147 H 108.942 -3.35633 2.48476 0
M  V30 1148 N 109.379 -1.50304 -0.473955 0
M  V30 1149 C 110.625 -1.61389 -1.22806 0
M  V30 1150 C 110.958 -0.311955 -1.91678 0
M  V30 1151 O 110.233 0.686384 -1.81986 0
M  V30 1152 C 110.516 -2.79219 -2.27396 0
M  V30 1153 C 110.369 -4.19286 -1.62848 0
M  V30 1154 C 111.688 -2.92614 -3.28732 0
M  V30 1155 H 108.807 -0.587399 -0.445119 0
M  V30 1156 H 111.449 -1.82681 -0.522265 0
M  V30 1157 H 109.599 -2.61195 -2.87592 0
M  V30 1158 H 111.271 -4.48892 -1.06271 0
M  V30 1159 H 109.514 -4.23677 -0.931693 0
M  V30 1160 H 110.185 -4.97655 -2.38838 0
M  V30 1161 H 112.661 -3.09105 -2.78556 0
M  V30 1162 H 111.537 -3.76688 -3.99246 0
M  V30 1163 H 111.798 -2.03107 -3.92683 0
M  V30 1164 N 110.857 0.726932 -1.39834 0
M  V30 1165 C 112.097 1.4992 -1.38936 0
M  V30 1166 C 112.461 1.91996 0.0126883 0
M  V30 1167 O 113.662 2.68399 0.146715 0
M  V30 1168 C 111.933 2.70013 -2.34153 0
M  V30 1169 S 113.492 3.59563 -2.51515 0
M  V30 1170 H 110.31 0.51271 -0.492595 0
M  V30 1171 H 112.912 0.85107 -1.76003 0
M  V30 1172 H 111.616 2.37254 -3.34871 0
M  V30 1173 H 111.147 3.39748 -1.98331 0
M  V30 1174 H 113.162 4.63973 -1.75909 0
M  V30 1175 N 112.336 1.25143 0.95797 0
M  V30 1176 C 113.246 1.06968 2.08794 0
M  V30 1177 C 114.262 0.00773911 1.73998 0
M  V30 1178 O 115.438 0.207972 2.00323 0
M  V30 1179 C 112.503 0.68691 3.39827 0
M  V30 1180 C 111.564 1.82641 3.88511 0
M  V30 1181 C 110.797 1.46181 5.1329 0
M  V30 1182 O 111.02 0.355971 5.69288 0
M  V30 1183 O 109.954 2.29085 5.566 0
M  V30 1184 H 113.78 2.01723 2.27027 0
M  V30 1185 H 111.365 1.04051 1.07209 0
M  V30 1186 H 113.247 0.485417 4.18595 0
M  V30 1187 H 111.922 -0.231417 3.22872 0
M  V30 1188 H 110.829 2.08274 3.10762 0
M  V30 1189 H 112.162 2.72386 4.09959 0
M  V30 1190 N 113.814 -1.1601 1.06675 0
M  V30 1191 C 114.777 -2.18724 0.685001 0
M  V30 1192 C 115.777 -1.58496 -0.271246 0
M  V30 1193 O 116.967 -1.74119 -0.0531156 0
M  V30 1194 C 114.099 -3.40899 0.00853648 0
M  V30 1195 H 115.292 -2.54011 1.59431 0
M  V30 1196 H 112.845 -1.30352 0.862441 0
M  V30 1197 H 113.58 -3.11173 -0.913337 0
M  V30 1198 H 113.365 -3.8587 0.696204 0
M  V30 1199 H 114.855 -4.16886 -0.24414 0
M  V30 1200 N 115.292 -0.849877 -1.32721 0
M  V30 1201 C 116.255 -0.296122 -2.27279 0
M  V30 1202 C 117.255 0.541458 -1.5141 0
M  V30 1203 O 118.445 0.353658 -1.70572 0
M  V30 1204 C 115.577 0.581579 -3.35902 0
M  V30 1205 H 116.77 -1.13064 -2.77771 0
M  V30 1206 H 114.323 -0.62383 -1.43311 0
M  V30 1207 H 115.058 1.43809 -2.9067 0
M  V30 1208 H 114.843 -0.0178814 -3.92096 0
M  V30 1209 H 116.333 0.961951 -4.0637 0
M  V30 1210 N 116.77 1.45427 -0.607355 0
M  V30 1211 C 117.72 2.27612 0.133038 0
M  V30 1212 C 118.704 1.37307 0.838785 0
M  V30 1213 O 119.896 1.61299 0.728813 0
M  V30 1214 C 117.025 3.24173 1.12991 0
M  V30 1215 C 116.111 4.21965 0.425011 0
M  V30 1216 N 116.502 5.02982 -0.533217 0
M  V30 1217 C 114.8 4.40899 0.672593 0
M  V30 1218 C 115.501 5.73931 -0.947518 0
M  V30 1219 N 114.477 5.42819 -0.291321 0
M  V30 1220 H 118.279 2.87649 -0.602935 0
M  V30 1221 H 115.793 1.56576 -0.431006 0
M  V30 1222 H 117.79 3.81783 1.67473 0
M  V30 1223 H 116.45 2.65696 1.86644 0
M  V30 1224 H 117.461 5.09843 -0.90995 0
M  V30 1225 H 114.138 3.93547 1.39382 0
M  V30 1226 H 115.528 6.49037 -1.73782 0
M  V30 1227 N 118.248 0.346503 1.53744 0
M  V30 1228 C 119.178 -0.501193 2.28058 0
M  V30 1229 C 120.159 -1.10014 1.29734 0
M  V30 1230 O 121.344 -1.12097 1.58581 0
M  V30 1231 C 118.474 -1.65078 3.05559 0
M  V30 1232 C 117.428 -1.18003 4.11411 0
M  V30 1233 C 116.754 -2.41837 4.76884 0
M  V30 1234 C 118.054 -0.278394 5.21558 0
M  V30 1235 H 119.748 0.11875 2.99164 0
M  V30 1236 H 117.294 0.0585531 1.43881 0
M  V30 1237 H 119.247 -2.25028 3.56287 0
M  V30 1238 H 117.971 -2.29767 2.32109 0
M  V30 1239 H 116.63 -0.603331 3.61601 0
M  V30 1240 H 116.278 -3.0494 4.00026 0
M  V30 1241 H 115.978 -2.1102 5.48402 0
M  V30 1242 H 117.502 -3.02508 5.30397 0
M  V30 1243 H 118.916 -0.784823 5.67903 0
M  V30 1244 H 117.313 -0.0619707 6.00068 0
M  V30 1245 H 118.383 0.684677 4.80042 0
M  V30 1246 N 119.726 -1.57421 0.075193 0
M  V30 1247 C 120.974 -1.93236 -0.591974 0
M  V30 1248 C 121.295 -0.956241 -1.69944 0
M  V30 1249 O 120.565 -0.00494792 -1.95899 0
M  V30 1250 H 119.145 -0.713355 -0.22166 0
M  V30 1251 H 121.807 -1.9444 0.133848 0
M  V30 1252 H 120.903 -2.95131 -1.01509 0
M  V30 1253 N 121.204 0.198386 -1.56346 0
M  V30 1254 C 122.134 1.24865 -1.9731 0
M  V30 1255 C 123.115 1.47651 -0.844576 0
M  V30 1256 O 124.3 1.59444 -1.10866 0
M  V30 1257 C 121.43 2.59358 -2.30977 0
M  V30 1258 C 120.384 2.5119 -3.46537 0
M  V30 1259 C 119.71 3.89926 -3.65871 0
M  V30 1260 C 121.01 2.03977 -4.80823 0
M  V30 1261 H 122.704 0.908252 -2.85291 0
M  V30 1262 H 120.25 0.435462 -1.37258 0
M  V30 1263 H 122.203 3.33011 -2.58228 0
M  V30 1264 H 120.927 2.95132 -1.39874 0
M  V30 1265 H 119.586 1.79993 -3.19371 0
M  V30 1266 H 119.234 4.23046 -2.72105 0
M  V30 1267 H 118.934 3.85336 -4.4361 0
M  V30 1268 H 120.458 4.65205 -3.95495 0
M  V30 1269 H 121.872 2.67386 -5.07127 0
M  V30 1270 H 120.269 2.10397 -5.62008 0
M  V30 1271 H 121.339 0.992861 -4.74626 0
M  V30 1272 N 122.682 1.50554 0.465978 0
M  V30 1273 C 123.928 1.63006 1.21658 0
M  V30 1274 C 124.283 0.328613 1.89573 0
M  V30 1275 O 123.576 -0.673813 1.79361 0
M  V30 1276 C 123.77 2.75152 2.28093 0
M  V30 1277 C 123.599 4.16075 1.7062 0
M  V30 1278 C 122.369 4.82408 1.50368 0
M  V30 1279 C 124.567 5.00145 1.1983 0
M  V30 1280 N 122.549 6.07532 0.881924 0
M  V30 1281 C 123.92 6.16035 0.700083 0
M  V30 1282 C 125.975 4.85882 1.08733 0
M  V30 1283 C 124.678 7.19228 0.101835 0
M  V30 1284 C 126.704 5.89257 0.503016 0
M  V30 1285 C 126.066 7.04398 0.0152005 0
M  V30 1286 H 122.165 0.650596 0.433877 0
M  V30 1287 H 124.749 1.8769 0.517746 0
M  V30 1288 H 122.92 2.52181 2.95397 0
M  V30 1289 H 124.652 2.76935 2.95109 0
M  V30 1290 H 121.407 4.39788 1.75737 0
M  V30 1291 H 121.831 6.7443 0.589312 0
M  V30 1292 H 126.473 3.97144 1.4504 0
M  V30 1293 H 124.191 8.07637 -0.273426 0
M  V30 1294 H 127.777 5.80286 0.419451 0
M  V30 1295 H 126.657 7.83021 -0.429856 0
M  V30 1296 N 124.16 -0.719506 1.40217 0
M  V30 1297 C 125.107 -1.83359 1.40172 0
M  V30 1298 C 126.077 -1.64065 0.259206 0
M  V30 1299 O 127.262 -1.85254 0.456677 0
M  V30 1300 C 124.402 -3.2103 1.26624 0
M  V30 1301 C 123.515 -3.51923 2.50548 0
M  V30 1302 C 122.65 -4.79079 2.29471 0
M  V30 1303 C 121.689 -5.02863 3.48992 0
M  V30 1304 N 120.826 -6.2123 3.27135 0
M  V30 1305 H 125.666 -1.82733 2.35399 0
M  V30 1306 H 123.203 -0.892688 1.16917 0
M  V30 1307 H 125.161 -4.00524 1.16776 0
M  V30 1308 H 123.791 -3.20895 0.350176 0
M  V30 1309 H 122.843 -2.67014 2.70939 0
M  V30 1310 H 124.155 -3.6541 3.39525 0
M  V30 1311 H 123.309 -5.66582 2.16955 0
M  V30 1312 H 122.048 -4.67794 1.37913 0
M  V30 1313 H 121.053 -4.13816 3.6199 0
M  V30 1314 H 122.278 -5.16023 4.41472 0
M  V30 1315 H 120.224 -6.11204 2.38256 0
M  V30 1316 H 120.141 -6.35375 4.09675 0
M  V30 1317 H 121.409 -7.11532 3.18344 0
M  V30 1318 N 125.638 -1.25649 -0.95132 0
M  V30 1319 C 126.601 -1.06399 -2.03007 0
M  V30 1320 C 127.601 -0.0156794 -1.60792 0
M  V30 1321 O 128.791 -0.25817 -1.72276 0
M  V30 1322 C 125.923 -0.616184 -3.35285 0
M  V30 1323 H 127.116 -2.02164 -2.21517 0
M  V30 1324 H 124.669 -1.08103 -1.12887 0
M  V30 1325 H 125.404 0.343917 -3.22471 0
M  V30 1326 H 125.189 -1.37301 -3.67275 0
M  V30 1327 H 126.679 -0.503032 -4.14559 0
M  V30 1328 N 127.117 1.15442 -1.07289 0
M  V30 1329 C 128.357 1.8788 -0.805012 0
M  V30 1330 C 128.721 1.80413 0.656907 0
M  V30 1331 O 129.922 2.47874 1.0398 0
M  V30 1332 C 128.193 3.3298 -1.29843 0
M  V30 1333 S 129.752 4.23158 -1.16114 0
M  V30 1334 H 126.57 0.64839 -0.291739 0
M  V30 1335 H 129.172 1.39285 -1.37186 0
M  V30 1336 H 127.876 3.35958 -2.35712 0
M  V30 1337 H 127.407 3.86629 -0.726767 0
M  V30 1338 H 129.422 4.96103 -0.0982778 0
M  V30 1339 N 128.595 0.856903 1.32268 0
M  V30 1340 C 129.823 0.475439 2.01363 0
M  V30 1341 C 130.238 -0.928486 1.64392 0
M  V30 1342 O 129.595 -1.60624 0.866387 0
M  V30 1343 C 129.646 0.607545 3.56358 0
M  V30 1344 O 129.367 1.95617 3.92002 0
M  V30 1345 C 130.868 0.225382 4.42727 0
M  V30 1346 H 128.088 0.186636 0.644521 0
M  V30 1347 H 130.632 1.15446 1.68797 0
M  V30 1348 H 128.787 -0.0237719 3.87393 0
M  V30 1349 H 129.201 1.95455 4.86721 0
M  V30 1350 H 130.675 0.368813 5.50767 0
M  V30 1351 H 131.152 -0.834369 4.31202 0
M  V30 1352 H 131.758 0.831864 4.17085 0
M  V30 1353 N 130.073 -1.45103 0.615059 0
M  V30 1354 C 131.02 -2.30586 -0.0993978 0
M  V30 1355 C 131.99 -1.42544 -0.852669 0
M  V30 1356 O 133.175 -1.71465 -0.836917 0
M  V30 1357 C 130.315 -3.27572 -1.08583 0
M  V30 1358 C 129.428 -4.30717 -0.332656 0
M  V30 1359 C 128.563 -5.14807 -1.30947 0
M  V30 1360 C 127.602 -6.09673 -0.544538 0
M  V30 1361 N 126.739 -6.86517 -1.47101 0
M  V30 1362 H 131.579 -2.91144 0.635542 0
M  V30 1363 H 129.116 -1.4346 0.325206 0
M  V30 1364 H 131.074 -3.82276 -1.67095 0
M  V30 1365 H 129.704 -2.68751 -1.78809 0
M  V30 1366 H 128.756 -3.78615 0.368107 0
M  V30 1367 H 130.068 -4.98102 0.263842 0
M  V30 1368 H 129.222 -5.73948 -1.96643 0
M  V30 1369 H 127.961 -4.47458 -1.9399 0
M  V30 1370 H 126.966 -5.49656 0.126003 0
M  V30 1371 H 128.191 -6.79052 0.080947 0
M  V30 1372 H 126.137 -6.21851 -2.08895 0
M  V30 1373 H 126.054 -7.50281 -0.928137 0
M  V30 1374 H 127.322 -7.50194 -2.11731 0
M  V30 1375 N 131.551 -0.354651 -1.53558 0
M  V30 1376 C 132.967 -0.00315426 -1.596 0
M  V30 1377 C 133.167 1.47741 -1.37021 0
M  V30 1378 O 132.223 2.23759 -1.16996 0
M  V30 1379 C 133.536 -0.44929 -2.97325 0
M  V30 1380 C 135.084 -0.402578 -3.104 0
M  V30 1381 C 135.559 -0.824355 -4.5052 0
M  V30 1382 N 137.05 -0.778979 -4.56603 0
M  V30 1383 C 137.785 -1.07715 -5.63192 0
M  V30 1384 N 137.281 -1.44405 -6.77583 0
M  V30 1385 N 139.074 -1.00066 -5.53121 0
M  V30 1386 H 131.225 -1.31893 -1.66487 0
M  V30 1387 H 133.488 -0.538388 -0.780284 0
M  V30 1388 H 133.194 -1.48202 -3.1895 0
M  V30 1389 H 133.068 0.169772 -3.76818 0
M  V30 1390 H 135.455 0.621004 -2.88492 0
M  V30 1391 H 135.536 -1.05699 -2.32941 0
M  V30 1392 H 135.18 -1.846 -4.73165 0
M  V30 1393 H 135.11 -0.147304 -5.26394 0
M  V30 1394 H 137.601 -0.508528 -3.74463 0
M  V30 1395 H 137.914 -1.65612 -7.54846 0
M  V30 1396 H 136.259 -1.4826 -6.79002 0
M  V30 1397 H 139.45 -0.713293 -4.62633 0
M  V30 1398 H 139.623 -1.23638 -6.36096 0
M  V30 1399 N 133.029 1.57378 -0.0835403 0
M  V30 1400 C 133.959 2.1641 0.87686 0
M  V30 1401 C 134.94 1.09429 1.30228 0
M  V30 1402 O 136.125 1.37516 1.37124 0
M  V30 1403 C 133.255 2.73517 2.14022 0
M  V30 1404 C 132.209 3.85769 1.85381 0
M  V30 1405 C 131.535 4.29529 3.18448 0
M  V30 1406 C 132.835 5.09486 1.14984 0
M  V30 1407 H 134.529 2.96914 0.385059 0
M  V30 1408 H 132.075 1.42823 0.18377 0
M  V30 1409 H 134.028 3.13463 2.81636 0
M  V30 1410 H 132.752 1.90252 2.65465 0
M  V30 1411 H 131.411 3.46345 1.20169 0
M  V30 1412 H 131.059 3.43169 3.67755 0
M  V30 1413 H 130.759 5.05204 3.00071 0
M  V30 1414 H 132.283 4.72099 3.8724 0
M  V30 1415 H 133.697 5.46674 1.72687 0
M  V30 1416 H 132.094 5.90515 1.06826 0
M  V30 1417 H 133.164 4.84724 0.130749 0
M  V30 1418 N 134.507 -0.190092 1.56449 0
M  V30 1419 C 135.753 -0.906472 1.82084 0
M  V30 1420 C 136.108 -1.80677 0.661335 0
M  V30 1421 O 135.401 -1.88501 -0.343237 0
M  V30 1422 C 135.595 -1.75382 3.1141 0
M  V30 1423 C 135.424 -0.937053 4.39829 0
M  V30 1424 C 134.194 -0.619507 5.01488 0
M  V30 1425 C 136.392 -0.2874 5.13496 0
M  V30 1426 N 134.374 0.215367 6.13522 0
M  V30 1427 C 135.745 0.409454 6.18646 0
M  V30 1428 C 137.8 -0.203639 4.97483 0
M  V30 1429 C 136.503 1.1821 7.0952 0
M  V30 1430 C 138.529 0.555622 5.88784 0
M  V30 1431 C 137.891 1.24091 6.93384 0
M  V30 1432 H 133.99 -0.310931 0.717528 0
M  V30 1433 H 136.574 -0.174821 1.93914 0
M  V30 1434 H 134.745 -2.45703 3.00806 0
M  V30 1435 H 136.477 -2.41006 3.25112 0
M  V30 1436 H 133.232 -0.945126 4.64074 0
M  V30 1437 H 133.656 0.622562 6.74131 0
M  V30 1438 H 138.298 -0.719099 4.1664 0
M  V30 1439 H 136.016 1.70897 7.89823 0
M  V30 1440 H 139.602 0.621854 5.78467 0
M  V30 1441 H 138.482 1.81901 7.62812 0
M  V30 1442 N 135.985 -1.50799 -0.457987 0
M  V30 1443 C 136.917 -1.66786 -1.57211 0
M  V30 1444 C 137.93 -0.548962 -1.53265 0
M  V30 1445 O 139.119 -0.8226 -1.58416 0
M  V30 1446 C 136.219 -1.64834 -2.96113 0
M  V30 1447 C 135.392 -2.92971 -3.24787 0
M  V30 1448 C 134.451 -2.83485 -4.43309 0
M  V30 1449 O 133.477 -3.5744 -4.42973 0
M  V30 1450 N 134.679 -1.97929 -5.45714 0
M  V30 1451 H 137.444 -2.62889 -1.43909 0
M  V30 1452 H 135.005 -1.48427 -0.646617 0
M  V30 1453 H 136.997 -1.56084 -3.7339 0
M  V30 1454 H 135.567 -0.764118 -3.03117 0
M  V30 1455 H 134.787 -3.15749 -2.36 0
M  V30 1456 H 136.075 -3.77834 -3.40762 0
M  V30 1457 H 135.473 -1.37182 -5.48815 0
M  V30 1458 H 134.03 -1.95073 -6.21924 0
M  V30 1459 N 137.463 0.71206 -1.40597 0
M  V30 1460 C 138.426 1.80785 -1.40888 0
M  V30 1461 C 139.426 1.57937 -0.302103 0
M  V30 1462 O 140.616 1.64913 -0.561182 0
M  V30 1463 C 137.748 3.18927 -1.20409 0
M  V30 1464 H 138.941 1.81924 -2.38419 0
M  V30 1465 H 136.494 0.91805 -1.26497 0
M  V30 1466 H 137.229 3.23436 -0.236522 0
M  V30 1467 H 137.014 3.36911 -2.00582 0
M  V30 1468 H 138.504 3.98949 -1.23408 0
M  V30 1469 N 138.941 1.26152 0.944643 0
M  V30 1470 C 140.218 1.02247 1.66748 0
M  V30 1471 C 140.598 -0.448202 2.06287 0
M  V30 1472 O 139.946 -1.42779 1.78399 0
M  V30 1473 C 140.156 1.96788 2.88228 0
M  V30 1474 C 141.504 2.25201 3.59958 0
M  V30 1475 O 142.528 1.94626 2.98327 0
M  V30 1476 O 141.387 2.77242 4.70956 0
M  V30 1477 H 138.481 0.388517 0.730057 0
M  V30 1478 H 141.027 1.37348 0.99668 0
M  V30 1479 H 139.799 2.96047 2.55875 0
M  V30 1480 H 139.422 1.62145 3.63035 0
M  V30 1481 N 140.419 -1.14872 1.07899 0
M  V30 1482 C 141.665 -1.86064 0.806725 0
M  V30 1483 C 141.998 -1.82434 -0.665706 0
M  V30 1484 O 141.273 -1.25138 -1.48899 0
M  V30 1485 C 141.556 -3.34929 1.32267 0
M  V30 1486 C 141.409 -3.47161 2.86006 0
M  V30 1487 C 142.728 -4.29863 0.943717 0
M  V30 1488 H 139.847 -0.675591 0.294526 0
M  V30 1489 H 142.489 -1.34925 1.33773 0
M  V30 1490 H 140.639 -3.78611 0.870974 0
M  V30 1491 H 142.311 -3.12302 3.39507 0
M  V30 1492 H 140.554 -2.88539 3.23925 0
M  V30 1493 H 141.225 -4.51777 3.17177 0
M  V30 1494 H 143.701 -3.9417 1.33302 0
M  V30 1495 H 142.577 -5.32494 1.33198 0
M  V30 1496 H 142.838 -4.41846 -0.149796 0
M  V30 1497 N 141.898 -0.863906 -1.31812 0
M  V30 1498 C 143.309 -0.52522 -1.7916 0
M  V30 1499 C 143.66 0.957518 -1.71248 0
M  V30 1500 O 142.785 1.74734 -1.27659 0
M  V30 1501 C 143.38 -0.9466 -3.25307 0
M  V30 1502 C 141.939 -0.659668 -3.70574 0
M  V30 1503 C 141.086 -1.14126 -2.52726 0
M  V30 1504 H 144.037 -1.05022 -1.1898 0
M  V30 1505 H 144.058 -0.266766 -3.79564 0
M  V30 1506 H 143.57 -2.02579 -3.31034 0
M  V30 1507 H 141.671 0.408416 -3.70355 0
M  V30 1508 H 141.784 -1.23245 -4.62977 0
M  V30 1509 H 140.148 -0.561216 -2.4844 0
M  V30 1510 H 140.931 -2.22775 -2.61201 0
M  V30 1511 N 143.376 1.44774 -0.622745 0
M  V30 1512 C 144.622 2.0242 -0.124083 0
M  V30 1513 C 144.955 1.4881 1.24777 0
M  V30 1514 O 144.23 0.668799 1.8264 0
M  V30 1515 C 144.513 3.59957 -0.101619 0
M  V30 1516 C 144.366 4.23867 -1.50521 0
M  V30 1517 C 145.685 4.36284 0.578272 0
M  V30 1518 H 142.804 0.735528 -0.0465645 0
M  V30 1519 H 145.446 1.72447 -0.797617 0
M  V30 1520 H 143.596 3.85623 0.471934 0
M  V30 1521 H 145.268 4.09336 -2.12701 0
M  V30 1522 H 143.511 3.81684 -2.06154 0
M  V30 1523 H 144.182 5.32843 -1.4416 0
M  V30 1524 H 146.658 4.16001 0.0906057 0
M  V30 1525 H 145.534 5.46004 0.563149 0
M  V30 1526 H 145.795 4.10271 1.64713 0
M  V30 1527 N 144.854 0.36279 1.53368 0
M  V30 1528 C 146.131 -0.284021 1.93527 0
M  V30 1529 C 146.511 -1.66628 1.29608 0
M  V30 1530 O 145.859 -2.23942 0.45413 0
M  V30 1531 C 146.069 -0.337028 3.47369 0
M  V30 1532 C 147.417 -0.578708 4.20638 0
M  V30 1533 O 148.441 -0.418352 3.53735 0
M  V30 1534 O 147.3 -0.89074 5.39192 0
M  V30 1535 H 144.394 -0.169743 0.809393 0
M  V30 1536 H 146.94 0.41537 1.64538 0
M  V30 1537 H 145.712 0.632217 3.86159 0
M  V30 1538 H 145.335 -1.08243 3.82582 0
M  V30 1539 N 146.332 -1.57332 0.0918853 0
M  V30 1540 C 147.748 -1.57389 -0.264766 0
M  V30 1541 C 147.948 -1.10281 -1.68643 0
M  V30 1542 O 147.004 -0.777801 -2.40222 0
M  V30 1543 C 148.317 -3.00648 -0.0561195 0
M  V30 1544 C 149.865 -3.12754 -0.124116 0
M  V30 1545 C 150.34 -4.57965 0.0564972 0
M  V30 1546 N 151.831 -4.632 0.00155611 0
M  V30 1547 C 152.566 -5.73281 0.116598 0
M  V30 1548 N 152.062 -6.92208 0.286294 0
M  V30 1549 N 153.855 -5.6207 0.0580973 0
M  V30 1550 H 146.006 -1.86262 1.02079 0
M  V30 1551 H 148.269 -0.859579 0.399786 0
M  V30 1552 H 147.975 -3.393 0.925669 0
M  V30 1553 H 147.849 -3.68623 -0.799823 0
M  V30 1554 H 150.236 -2.73976 -1.09641 0
M  V30 1555 H 150.317 -2.47377 0.651024 0
M  V30 1556 H 149.961 -4.97436 1.02564 0
M  V30 1557 H 149.891 -5.21399 -0.738297 0
M  V30 1558 H 152.382 -3.77686 -0.127192 0
M  V30 1559 H 152.695 -7.71934 0.365676 0
M  V30 1560 H 151.04 -6.94254 0.32192 0
M  V30 1561 H 154.231 -4.68043 -0.0733204 0
M  V30 1562 H 154.404 -6.47824 0.151203 0
M  V30 1563 N 147.81 0.181792 -1.56548 0
M  V30 1564 C 149.087 0.926765 -1.72251 0
M  V30 1565 C 149.467 2.00831 -0.650386 0
M  V30 1566 O 148.815 2.26008 0.336521 0
M  V30 1567 C 149.025 1.50106 -3.1507 0
M  V30 1568 C 150.373 1.97805 -3.75711 0
M  V30 1569 O 151.397 1.59922 -3.18282 0
M  V30 1570 O 150.256 2.67555 -4.76525 0
M  V30 1571 H 147.35 0.435506 -0.703039 0
M  V30 1572 H 149.896 0.170443 -1.68842 0
M  V30 1573 H 148.668 0.72212 -3.84579 0
M  V30 1574 H 148.291 2.32186 -3.22763 0
M  V30 1575 N 149.288 1.51039 0.449983 0
M  V30 1576 C 150.516 1.66869 1.2232 0
M  V30 1577 C 150.931 0.360727 1.85322 0
M  V30 1578 O 150.288 -0.659531 1.70166 0
M  V30 1579 C 150.339 2.77524 2.31652 0
M  V30 1580 O 150.06 4.03252 1.7123 0
M  V30 1581 C 151.561 3.04512 3.2216 0
M  V30 1582 H 148.781 0.560326 0.369155 0
M  V30 1583 H 151.325 1.97385 0.534719 0
M  V30 1584 H 149.48 2.49642 2.96239 0
M  V30 1585 H 149.894 4.64609 2.43389 0
M  V30 1586 H 151.368 3.85551 3.95038 0
M  V30 1587 H 151.845 2.16415 3.8218 0
M  V30 1588 H 152.451 3.34005 2.63288 0
M  V30 1589 N 150.766 -0.704594 1.40972 0
M  V30 1590 C 152.006 -1.47691 1.41304 0
M  V30 1591 C 152.37 -1.91992 0.0178582 0
M  V30 1592 O 153.571 -2.68599 -0.103996 0
M  V30 1593 C 151.842 -2.66254 2.38419 0
M  V30 1594 S 153.401 -3.55516 2.57204 0
M  V30 1595 H 150.219 -0.504808 0.500689 0
M  V30 1596 H 152.821 -0.822962 1.77335 0
M  V30 1597 H 151.525 -2.31897 3.38603 0
M  V30 1598 H 151.056 -3.3655 2.03711 0
M  V30 1599 H 153.071 -4.61115 1.83268 0
M  V30 1600 N 152.244 -1.26651 -0.937939 0
M  V30 1601 C 153.492 -1.12165 -1.68118 0
M  V30 1602 C 153.813 0.334983 -1.92101 0
M  V30 1603 O 153.083 1.23583 -1.52 0
M  V30 1604 H 151.663 -0.412093 -0.623048 0
M  V30 1605 H 154.325 -1.59027 -1.12678 0
M  V30 1606 H 153.421 -1.64289 -2.6536 0
M  V30 1607 N 153.722 1.14298 -1.08507 0
M  V30 1608 C 155.133 1.66926 -0.836227 0
M  V30 1609 C 155.484 1.85576 0.63686 0
M  V30 1610 O 154.609 1.56767 1.49175 0
M  V30 1611 C 155.204 3.03219 -1.51142 0
M  V30 1612 C 153.763 3.52876 -1.30979 0
M  V30 1613 C 152.91 2.2833 -1.57356 0
M  V30 1614 H 155.861 0.983491 -1.24552 0
M  V30 1615 H 155.882 3.68726 -0.939211 0
M  V30 1616 H 155.394 2.89612 -2.58353 0
M  V30 1617 H 153.495 3.71703 -0.258429 0
M  V30 1618 H 153.608 4.33586 -2.03814 0
M  V30 1619 H 151.972 2.34454 -0.995164 0
M  V30 1620 H 152.755 2.17298 -2.65775 0
M  V30 1621 N 155.201 0.870884 1.31352 0
M  V30 1622 C 156.164 0.332243 2.26779 0
M  V30 1623 C 157.164 -0.517302 1.52252 0
M  V30 1624 O 158.354 -0.326477 1.71113 0
M  V30 1625 C 155.486 -0.528066 3.36785 0
M  V30 1626 H 156.679 1.17469 2.75937 0
M  V30 1627 H 154.232 0.64655 1.423 0
M  V30 1628 H 154.967 -1.39167 2.92922 0
M  V30 1629 H 154.752 0.0802582 3.92018 0
M  V30 1630 H 156.242 -0.897179 4.07849 0
M  V30 1631 N 156.679 -1.44442 0.630414 0
M  V30 1632 C 157.589 -2.34476 -0.0761693 0
M  V30 1633 C 158.605 -1.52576 -0.836449 0
M  V30 1634 O 159.781 -1.85307 -0.788874 0
M  V30 1635 C 156.846 -3.30545 -1.04599 0
M  V30 1636 C 155.907 -4.28352 -0.28516 0
M  V30 1637 C 155.14 -5.19831 -1.20878 0
M  V30 1638 O 155.363 -5.15223 -2.44747 0
M  V30 1639 O 154.297 -5.97892 -0.693491 0
M  V30 1640 H 158.123 -2.96345 0.664324 0
M  V30 1641 H 155.708 -1.44203 0.39061 0
M  V30 1642 H 157.59 -3.89681 -1.60396 0
M  V30 1643 H 156.265 -2.7121 -1.76711 0
M  V30 1644 H 155.172 -3.72764 0.315837 0
M  V30 1645 H 156.505 -4.90605 0.395924 0
M  V30 1646 N 158.157 -0.370918 -1.53173 0
M  V30 1647 C 159.087 0.464847 -2.28826 0
M  V30 1648 C 160.068 1.07936 -1.31468 0
M  V30 1649 O 161.253 1.0956 -1.60344 0
M  V30 1650 C 158.383 1.60196 -3.08147 0
M  V30 1651 C 157.337 1.11443 -4.13237 0
M  V30 1652 C 156.663 2.3422 -4.80672 0
M  V30 1653 C 157.963 0.195384 -5.21934 0
M  V30 1654 H 159.657 -0.166329 -2.98938 0
M  V30 1655 H 157.203 -0.0814359 -1.4377 0
M  V30 1656 H 159.156 2.19332 -3.59822 0
M  V30 1657 H 157.88 2.26045 -2.35735 0
M  V30 1658 H 156.539 0.545727 -3.62515 0
M  V30 1659 H 156.187 2.98537 -4.04827 0
M  V30 1660 H 155.887 2.02269 -5.51689 0
M  V30 1661 H 157.411 2.94032 -5.35143 0
M  V30 1662 H 158.825 0.694375 -5.69079 0
M  V30 1663 H 157.222 -0.0335027 -6.00091 0
M  V30 1664 H 158.292 -0.760961 -4.78892 0
M  V30 1665 N 159.635 1.57281 -0.100228 0
M  V30 1666 C 161.046 1.81725 0.428107 0
M  V30 1667 C 161.397 1.01619 1.67833 0
M  V30 1668 O 160.522 0.247098 2.14985 0
M  V30 1669 C 161.117 3.29617 0.78347 0
M  V30 1670 C 159.676 3.54808 1.25653 0
M  V30 1671 C 158.823 2.76118 0.255752 0
M  V30 1672 H 161.774 1.55324 -0.325608 0
M  V30 1673 H 161.795 3.4322 1.64256 0
M  V30 1674 H 161.307 3.87893 -0.12665 0
M  V30 1675 H 159.408 3.01868 2.18418 0
M  V30 1676 H 159.521 4.63443 1.21482 0
M  V30 1677 H 157.885 2.43745 0.738956 0
M  V30 1678 H 158.668 3.37145 -0.647136 0
M  V30 1679 N 161.113 -0.173488 1.56642 0
M  V30 1680 C 162.361 -0.888706 1.81512 0
M  V30 1681 C 162.682 -1.82875 0.676872 0
M  V30 1682 O 161.952 -1.93536 -0.303414 0
M  V30 1683 H 160.532 -0.331164 0.669582 0
M  V30 1684 H 163.194 -0.173823 1.94123 0
M  V30 1685 H 162.29 -1.46691 2.75478 0
M  V30 1686 N 162.591 -1.51276 -0.441967 0
M  V30 1687 C 163.501 -1.75092 -1.56141 0
M  V30 1688 C 164.517 -0.634963 -1.62001 0
M  V30 1689 O 165.693 -0.916686 -1.79329 0
M  V30 1690 C 162.758 -1.86666 -2.92158 0
M  V30 1691 C 161.819 -3.10506 -2.96453 0
M  V30 1692 C 161.052 -3.21519 -4.25982 0
M  V30 1693 O 161.275 -2.38586 -5.18105 0
M  V30 1694 O 160.209 -4.14465 -4.36466 0
M  V30 1695 H 164.035 -2.70044 -1.38961 0
M  V30 1696 H 161.62 -1.35722 -0.624499 0
M  V30 1697 H 163.502 -1.96292 -3.72891 0
M  V30 1698 H 162.177 -0.949014 -3.09476 0
M  V30 1699 H 161.084 -3.06363 -2.14692 0
M  V30 1700 H 162.417 -4.01945 -2.84079 0
M  V30 1701 N 164.069 0.697108 -1.41344 0
M  V30 1702 C 165.032 1.79281 -1.42797 0
M  V30 1703 C 166.032 1.57607 -0.318837 0
M  V30 1704 O 167.222 1.64309 -0.578642 0
M  V30 1705 C 164.354 3.17632 -1.23785 0
M  V30 1706 H 165.547 1.79385 -2.40335 0
M  V30 1707 H 163.1 0.904582 -1.27464 0
M  V30 1708 H 163.835 3.23167 -0.270814 0
M  V30 1709 H 163.62 3.34765 -2.04144 0
M  V30 1710 H 165.11 3.97617 -1.27633 0
M  V30 1711 N 165.547 1.27147 0.931209 0
M  V30 1712 C 166.495 1.09398 2.05268 0
M  V30 1713 C 167.489 0.0180591 1.6939 0
M  V30 1714 O 168.695 0.17551 1.79142 0
M  V30 1715 H 165.07 0.336986 0.672268 0
M  V30 1716 H 167.041 2.04416 2.17386 0
M  V30 1717 C 165.79 0.75424 3.39421 0
M  V30 1718 H 165.113 1.57404 3.67511 0
M  V30 1719 H 166.553 0.669903 4.18674 0
M  V30 1720 C 165.012 -0.541197 3.32525 0
M  V30 1721 O 165.542 -1.57664 3.69466 0
M  V30 1722 N 163.748 -0.535517 2.85623 0
M  V30 1723 H 163.295 0.307511 2.55758 0
M  V30 1724 H 163.253 -1.40236 2.81392 0
M  V30 1725 N 167.025 -1.13721 1.09112 0
M  V30 1726 C 168.265 -1.86576 0.834801 0
M  V30 1727 C 168.629 -1.81435 -0.628122 0
M  V30 1728 O 169.83 -2.49497 -1.00024 0
M  V30 1729 C 168.101 -3.30872 1.35124 0
M  V30 1730 S 169.66 -4.21257 1.22832 0
M  V30 1731 H 166.478 -0.643666 0.302017 0
M  V30 1732 H 169.08 -1.37085 1.39385 0
M  V30 1733 H 167.784 -3.32166 2.41027 0
M  V30 1734 H 167.315 -3.85423 0.788185 0
M  V30 1735 H 169.33 -4.95884 0.177191 0
M  V30 1736 N 168.503 -0.877838 -1.30888 0
M  V30 1737 C 169.731 -0.507414 -2.00581 0
M  V30 1738 C 170.146 0.902216 -1.65848 0
M  V30 1739 O 169.503 1.59225 -0.891831 0
M  V30 1740 C 169.554 -0.664162 -3.55347 0
M  V30 1741 O 169.275 -2.01829 -3.8884 0
M  V30 1742 C 170.776 -0.295787 -4.42312 0
M  V30 1743 H 167.996 -0.196866 -0.641471 0
M  V30 1744 H 170.54 -1.18117 -1.66939 0
M  V30 1745 H 168.695 -0.0378619 -3.87381 0
M  V30 1746 H 169.109 -2.03174 -4.8355 0
M  V30 1747 H 170.583 -0.456388 -5.5011 0
M  V30 1748 H 171.06 0.765663 -4.32475 0
M  V30 1749 H 171.666 -0.898113 -4.15709 0
M  V30 1750 N 169.982 1.44106 -0.638065 0
M  V30 1751 C 171.212 2.06037 -0.152394 0
M  V30 1752 C 171.62 1.47808 1.18108 0
M  V30 1753 O 170.963 0.598092 1.73691 0
M  V30 1754 C 171.025 3.59488 0.0293714 0
M  V30 1755 C 170.689 4.4022 -1.22702 0
M  V30 1756 C 171.686 4.73256 -2.15232 0
M  V30 1757 C 169.371 4.8048 -1.46437 0
M  V30 1758 C 171.365 5.45444 -3.29802 0
M  V30 1759 C 169.052 5.52417 -2.61303 0
M  V30 1760 C 170.05 5.84819 -3.52811 0
M  V30 1761 O 169.738 6.55289 -4.65673 0
M  V30 1762 H 169.47 0.671233 -0.0801401 0
M  V30 1763 H 172.024 1.85851 -0.874563 0
M  V30 1764 H 170.254 3.78191 0.806758 0
M  V30 1765 H 171.943 4.03164 0.470475 0
M  V30 1766 H 172.709 4.42684 -1.98131 0
M  V30 1767 H 168.588 4.54676 -0.760977 0
M  V30 1768 H 172.132 5.70653 -4.01249 0
M  V30 1769 H 168.029 5.82404 -2.78344 0
M  V30 1770 H 168.797 6.73762 -4.64744 0
M  V30 1771 N 171.46 0.379036 1.52974 0
M  V30 1772 C 172.707 -0.206421 2.01445 0
M  V30 1773 C 173.035 -1.47668 1.26587 0
M  V30 1774 O 172.29 -1.92514 0.351675 0
M  V30 1775 C 172.589 -0.53096 3.53434 0
M  V30 1776 C 172.255 0.646546 4.46241 0
M  V30 1777 C 170.917 0.969604 4.7133 0
M  V30 1778 C 173.269 1.43479 5.01062 0
M  V30 1779 C 170.597 2.08263 5.48492 0
M  V30 1780 C 172.949 2.53834 5.7944 0
M  V30 1781 C 171.613 2.86659 6.02812 0
M  V30 1782 H 170.883 -0.0755349 0.73714 0
M  V30 1783 H 173.53 0.514271 1.84465 0
M  V30 1784 H 171.835 -1.33285 3.68432 0
M  V30 1785 H 173.532 -0.996417 3.88423 0
M  V30 1786 H 170.122 0.384734 4.2687 0
M  V30 1787 H 174.306 1.19844 4.81613 0
M  V30 1788 H 169.562 2.34078 5.64816 0
M  V30 1789 H 173.736 3.15319 6.20924 0
M  V30 1790 H 171.363 3.73026 6.62387 0
M  V30 1791 N 172.938 -1.57226 0.108567 0
M  V30 1792 C 173.885 -2.14756 -0.845481 0
M  V30 1793 C 174.855 -1.06971 -1.27068 0
M  V30 1794 O 176.04 -1.34827 -1.35005 0
M  V30 1795 C 173.18 -2.74298 -2.09415 0
M  V30 1796 C 172.293 -3.96358 -1.71826 0
M  V30 1797 C 171.428 -4.44021 -2.9158 0
M  V30 1798 C 170.467 -5.58637 -2.50181 0
M  V30 1799 N 169.604 -6.01091 -3.62814 0
M  V30 1800 H 174.444 -2.95961 -0.348035 0
M  V30 1801 H 171.981 -1.46226 -0.160106 0
M  V30 1802 H 173.939 -3.06945 -2.82561 0
M  V30 1803 H 172.569 -1.95801 -2.56636 0
M  V30 1804 H 171.621 -3.69939 -0.885947 0
M  V30 1805 H 172.933 -4.79504 -1.37394 0
M  V30 1806 H 172.087 -4.78522 -3.72963 0
M  V30 1807 H 170.826 -3.59803 -3.29231 0
M  V30 1808 H 169.831 -5.23751 -1.67228 0
M  V30 1809 H 171.056 -6.44613 -2.13659 0
M  V30 1810 H 169.002 -5.19817 -4.00158 0
M  V30 1811 H 168.919 -6.79066 -3.32273 0
M  V30 1812 H 170.187 -6.40227 -4.44668 0
M  V30 1813 N 174.416 0.165178 -1.56732 0
M  V30 1814 C 175.663 0.880807 -1.8234 0
M  V30 1815 C 175.991 1.81977 -0.686621 0
M  V30 1816 O 175.246 1.92971 0.325697 0
M  V30 1817 C 175.545 1.70405 -3.1416 0
M  V30 1818 C 175.211 0.913475 -4.4155 0
M  V30 1819 C 173.873 0.695303 -4.7615 0
M  V30 1820 C 176.225 0.359349 -5.1996 0
M  V30 1821 C 173.553 -0.0879947 -5.86634 0
M  V30 1822 C 175.905 -0.410893 -6.31264 0
M  V30 1823 C 174.569 -0.639808 -6.64427 0
M  V30 1824 H 173.839 0.32231 -0.667231 0
M  V30 1825 H 176.486 0.145402 -1.90947 0
M  V30 1826 H 174.791 2.50903 -3.00923 0
M  V30 1827 H 176.488 2.26091 -3.31186 0
M  V30 1828 H 173.078 1.09357 -4.14414 0
M  V30 1829 H 177.262 0.515228 -4.93618 0
M  V30 1830 H 172.518 -0.27503 -6.10781 0
M  V30 1831 H 176.692 -0.847494 -6.91224 0
M  V30 1832 H 174.319 -1.24864 -7.49875 0
M  V30 1833 N 175.894 1.51508 0.433938 0
M  V30 1834 C 177.141 1.64345 1.18309 0
M  V30 1835 C 177.469 0.361315 1.91115 0
M  V30 1836 O 176.724 -0.654753 1.84422 0
M  V30 1837 C 177.023 2.79928 2.22205 0
M  V30 1838 C 176.689 4.19078 1.66387 0
M  V30 1839 C 175.351 4.56932 1.50887 0
M  V30 1840 C 177.703 5.05894 1.25381 0
M  V30 1841 C 175.031 5.79305 0.928608 0
M  V30 1842 C 177.383 6.2885 0.687823 0
M  V30 1843 C 176.047 6.65473 0.519755 0
M  V30 1844 H 175.317 0.601381 0.432923 0
M  V30 1845 H 177.964 1.85549 0.473676 0
M  V30 1846 H 176.269 2.52959 2.99197 0
M  V30 1847 H 177.966 2.87059 2.79997 0
M  V30 1848 H 174.556 3.89234 1.79428 0
M  V30 1849 H 178.74 4.77253 1.36175 0
M  V30 1850 H 173.996 6.06324 0.786186 0
M  V30 1851 H 178.17 6.95461 0.361581 0
M  V30 1852 H 175.797 7.6017 0.0679979 0
M  V30 1853 N 177.372 -0.689602 1.41712 0
M  V30 1854 C 178.6 -1.47827 1.44758 0
M  V30 1855 C 179.015 -1.88721 0.0545703 0
M  V30 1856 O 178.372 -1.57176 -0.927463 0
M  V30 1857 C 178.423 -2.73698 2.3616 0
M  V30 1858 O 178.144 -2.34524 3.7004 0
M  V30 1859 C 179.645 -3.67389 2.48072 0
M  V30 1860 H 176.865 -0.455357 0.49284 0
M  V30 1861 H 179.409 -0.848574 1.86063 0
M  V30 1862 H 177.564 -3.32891 1.98148 0
M  V30 1863 H 177.978 -3.15701 4.18847 0
M  V30 1864 H 179.452 -4.52475 3.16181 0
M  V30 1865 H 179.929 -4.12284 1.51388 0
M  V30 1866 H 180.535 -3.14097 2.86746 0
M  V30 1867 N 178.85 -1.27639 -0.924453 0
M  V30 1868 C 180.078 -1.16989 -1.70649 0
M  V30 1869 C 180.493 0.272869 -1.86818 0
M  V30 1870 O 179.85 1.18549 -1.38753 0
M  V30 1871 C 179.901 -1.85229 -3.10439 0
M  V30 1872 O 179.622 -3.23868 -2.95028 0
M  V30 1873 C 181.123 -1.80746 -4.04779 0
M  V30 1874 H 178.343 -0.406595 -0.53378 0
M  V30 1875 H 180.887 -1.68569 -1.15778 0
M  V30 1876 H 179.042 -1.37545 -3.6216 0
M  V30 1877 H 179.456 -3.57889 -3.83426 0
M  V30 1878 H 180.93 -2.33101 -5.00368 0
M  V30 1879 H 181.407 -0.777499 -4.32263 0
M  V30 1880 H 182.013 -2.28059 -3.58984 0
M  V30 1881 N 180.328 1.1314 -1.09713 0
M  V30 1882 C 181.576 1.84119 -0.833338 0
M  V30 1883 C 181.897 1.84097 0.642904 0
M  V30 1884 O 181.167 1.29881 1.46655 0
M  V30 1885 H 179.747 0.681766 -0.305293 0
M  V30 1886 H 182.409 1.37038 -1.38588 0
M  V30 1887 H 181.505 2.88543 -1.18951 0
M  V30 1888 N 181.806 0.884767 1.30421 0
M  V30 1889 C 182.716 0.355398 2.31892 0
M  V30 1890 C 183.732 -0.542261 1.65335 0
M  V30 1891 O 184.908 -0.435432 1.96637 0
M  V30 1892 C 181.973 -0.421661 3.44126 0
M  V30 1893 C 181.034 0.505727 4.26311 0
M  V30 1894 C 180.267 -0.234343 5.33185 0
M  V30 1895 O 180.49 -1.46045 5.51386 0
M  V30 1896 O 179.424 0.415443 6.00465 0
M  V30 1897 H 183.25 1.19685 2.79122 0
M  V30 1898 H 180.835 0.648596 1.34587 0
M  V30 1899 H 182.717 -0.861641 4.12497 0
M  V30 1900 H 181.392 -1.23942 2.99032 0
M  V30 1901 H 180.299 0.994513 3.60639 0
M  V30 1902 H 181.632 1.28948 4.75009 0
M  V30 1903 N 183.284 -1.43765 0.645699 0
M  V30 1904 C 184.232 -2.32516 -0.0624849 0
M  V30 1905 C 185.226 -1.48183 -0.820855 0
M  V30 1906 O 186.432 -1.64439 -0.732106 0
M  V30 1907 H 182.807 -0.750989 -0.0389864 0
M  V30 1908 H 184.778 -2.89979 0.703892 0
M  V30 1909 C 183.527 -3.32389 -1.02044 0
M  V30 1910 H 182.85 -3.97301 -0.446312 0
M  V30 1911 H 184.29 -3.97138 -1.48517 0
M  V30 1912 C 182.749 -2.62416 -2.11281 0
M  V30 1913 O 183.279 -2.434 -3.19561 0
M  V30 1914 N 181.485 -2.21913 -1.87624 0
M  V30 1915 H 181.032 -2.37578 -0.995703 0
M  V30 1916 H 180.99 -1.75424 -2.6091 0
M  V30 1917 N 184.763 -0.387143 -1.52771 0
M  V30 1918 C 185.726 0.436939 -2.24997 0
M  V30 1919 C 186.726 0.991991 -1.26555 0
M  V30 1920 O 187.916 0.874335 -1.50669 0
M  V30 1921 C 185.048 1.61281 -3.00335 0
M  V30 1922 H 186.241 -0.195365 -2.99263 0
M  V30 1923 H 183.794 -0.139218 -1.55679 0
M  V30 1924 H 184.529 2.2826 -2.30364 0
M  V30 1925 H 184.314 1.22154 -3.72587 0
M  V30 1926 H 185.804 2.19629 -3.5518 0
M  V30 1927 N 186.241 1.57166 -0.116904 0
M  V30 1928 C 187.657 1.5779 0.239693 0
M  V30 1929 C 187.857 1.1295 1.66867 0
M  V30 1930 O 186.913 0.81592 2.38954 0
M  V30 1931 C 188.226 3.00699 0.00828202 0
M  V30 1932 C 189.774 3.12912 0.0743438 0
M  V30 1933 C 190.249 4.57817 -0.129348 0
M  V30 1934 N 191.74 4.63139 -0.075247 0
M  V30 1935 C 192.475 5.73023 -0.207788 0
M  V30 1936 N 191.971 6.91665 -0.396382 0
M  V30 1937 N 193.764 5.61906 -0.14751 0
M  V30 1938 H 185.915 1.84615 -1.05029 0
M  V30 1939 H 188.178 0.85311 -0.41341 0
M  V30 1940 H 187.884 3.37784 -0.979531 0
M  V30 1941 H 187.758 3.69848 0.741077 0
M  V30 1942 H 190.145 2.75686 1.05268 0
M  V30 1943 H 190.226 2.4631 -0.690297 0
M  V30 1944 H 189.87 4.95742 -1.10465 0
M  V30 1945 H 189.8 5.22507 0.655253 0
M  V30 1946 H 192.291 3.7784 0.0670898 0
M  V30 1947 H 192.604 7.71255 -0.488437 0
M  V30 1948 H 190.949 6.93654 -0.432329 0
M  V30 1949 H 194.14 4.681 -0.00115036 0
M  V30 1950 H 194.313 6.47501 -0.254247 0
M  V30 1951 N 187.719 -0.156864 1.56817 0
M  V30 1952 C 188.968 -0.869504 1.81996 0
M  V30 1953 C 189.281 -1.82777 0.696545 0
M  V30 1954 O 190.487 -2.58384 0.833658 0
M  V30 1955 C 188.943 -1.59679 3.22538 0
M  V30 1956 C 188.551 -0.681431 4.42787 0
M  V30 1957 C 190.295 -2.2968 3.56997 0
M  V30 1958 C 188.202 -1.40978 5.74351 0
M  V30 1959 H 187.132 -0.328438 0.678708 0
M  V30 1960 H 189.783 -0.1223 1.83092 0
M  V30 1961 H 188.165 -2.38927 3.158 0
M  V30 1962 H 189.339 0.0751166 4.60739 0
M  V30 1963 H 187.654 -0.0903431 4.16302 0
M  V30 1964 H 190.251 -2.84794 4.52544 0
M  V30 1965 H 190.594 -3.05707 2.82576 0
M  V30 1966 H 191.127 -1.57361 3.65352 0
M  V30 1967 H 187.866 -0.691561 6.51842 0
M  V30 1968 H 187.386 -2.13929 5.60352 0
M  V30 1969 H 189.065 -1.95337 6.16808 0
M  V30 1970 N 189.197 -1.51736 -0.425897 0
M  V30 1971 C 190.444 -1.6497 -1.17436 0
M  V30 1972 C 190.772 -0.371445 -1.9092 0
M  V30 1973 O 190.027 0.644963 -1.84767 0
M  V30 1974 C 190.326 -2.81103 -2.20717 0
M  V30 1975 C 189.992 -4.19954 -1.64162 0
M  V30 1976 C 188.654 -4.57725 -1.48462 0
M  V30 1977 C 191.006 -5.06552 -1.22696 0
M  V30 1978 C 188.334 -5.79789 -0.897873 0
M  V30 1979 C 190.686 -6.29205 -0.654464 0
M  V30 1980 C 189.35 -6.6574 -0.484456 0
M  V30 1981 H 188.62 -0.603668 -0.429727 0
M  V30 1982 H 191.267 -1.85798 -0.463829 0
M  V30 1983 H 189.572 -2.54542 -2.97852 0
M  V30 1984 H 191.269 -2.8854 -2.78471 0
M  V30 1985 H 187.859 -3.90181 -1.77361 0
M  V30 1986 H 192.043 -4.77968 -1.33642 0
M  V30 1987 H 187.299 -6.06733 -0.75402 0
M  V30 1988 H 191.473 -6.95643 -0.324694 0
M  V30 1989 H 189.1 -7.60195 -0.0276833 0
M  V30 1990 N 190.675 0.682077 -1.42076 0
M  V30 1991 C 191.607 1.80755 -1.40926 0
M  V30 1992 C 192.62 1.59833 -0.309398 0
M  V30 1993 O 193.809 1.69087 -0.572014 0
M  V30 1994 C 190.909 3.17744 -1.17865 0
M  V30 1995 C 190.082 3.65578 -2.40149 0
M  V30 1996 C 189.141 4.81277 -2.12742 0
M  V30 1997 O 188.167 4.92197 -2.85887 0
M  V30 1998 N 189.369 5.69474 -1.12602 0
M  V30 1999 H 192.134 1.82229 -2.37935 0
M  V30 2000 H 189.695 0.864903 -1.36861 0
M  V30 2001 H 191.687 3.9279 -0.9746 0
M  V30 2002 H 190.257 3.11214 -0.294068 0
M  V30 2003 H 189.477 2.81291 -2.76169 0
M  V30 2004 H 190.765 3.94278 -3.21593 0
M  V30 2005 H 190.163 5.63297 -0.520899 0
M  V30 2006 H 188.72 6.44363 -0.981842 0
M  V30 2007 N 192.153 1.28127 0.917671 0
M  V30 2008 C 193.569 1.05749 1.19538 0
M  V30 2009 C 193.769 -0.202633 2.00479 0
M  V30 2010 O 192.825 -0.905382 2.3571 0
M  V30 2011 C 194.138 2.30273 1.93378 0
M  V30 2012 C 195.686 2.35412 2.06277 0
M  V30 2013 C 196.161 3.59692 2.83524 0
M  V30 2014 N 197.652 3.60309 2.91087 0
M  V30 2015 C 198.387 4.53147 3.51348 0
M  V30 2016 N 197.883 5.563 4.12919 0
M  V30 2017 N 199.676 4.40751 3.48849 0
M  V30 2018 H 191.827 2.09024 0.377184 0
M  V30 2019 H 194.09 0.919798 0.22951 0
M  V30 2020 H 193.796 3.22055 1.41328 0
M  V30 2021 H 193.67 2.36378 2.93947 0
M  V30 2022 H 196.057 1.4413 2.57508 0
M  V30 2023 H 196.138 2.33304 1.04895 0
M  V30 2024 H 195.782 4.51316 2.32973 0
M  V30 2025 H 195.712 3.59054 3.85211 0
M  V30 2026 H 198.203 2.85714 2.47338 0
M  V30 2027 H 198.516 6.2329 4.56869 0
M  V30 2028 H 196.861 5.60131 4.11435 0
M  V30 2029 H 200.052 3.59367 2.99955 0
M  V30 2030 H 200.225 5.13291 3.9552 0
M  V30 2031 N 193.631 -1.12557 1.10312 0
M  V30 2032 C 194.859 -1.87864 0.866873 0
M  V30 2033 C 195.274 -1.79588 -0.582557 0
M  V30 2034 O 194.631 -1.16887 -1.40156 0
M  V30 2035 C 194.682 -3.37125 1.30496 0
M  V30 2036 O 194.403 -3.45201 2.69755 0
M  V30 2037 C 195.904 -4.29373 1.10243 0
M  V30 2038 H 193.124 -0.594452 0.311236 0
M  V30 2039 H 195.668 -1.42429 1.46745 0
M  V30 2040 H 193.823 -3.80109 0.748081 0
M  V30 2041 H 194.237 -4.38056 2.88457 0
M  V30 2042 H 195.711 -5.32394 1.45811 0
M  V30 2043 H 196.188 -4.39181 0.0409492 0
M  V30 2044 H 196.794 -3.92169 1.64571 0
M  V30 2045 N 195.109 -0.891671 -1.2995 0
M  V30 2046 C 196.337 -0.52866 -2.00032 0
M  V30 2047 C 196.752 0.884574 -1.66795 0
M  V30 2048 O 196.109 1.5827 -0.908669 0
M  V30 2049 C 196.16 -0.701814 -3.54622 0
M  V30 2050 O 195.881 -2.05942 -3.86678 0
M  V30 2051 C 197.382 -0.342683 -4.41973 0
M  V30 2052 H 194.602 -0.203659 -0.639347 0
M  V30 2053 H 197.146 -1.19881 -1.65677 0
M  V30 2054 H 195.301 -0.0789468 -3.8732 0
M  V30 2055 H 195.715 -2.08291 -4.81368 0
M  V30 2056 H 197.189 -0.514709 -5.49595 0
M  V30 2057 H 197.666 0.71975 -4.33262 0
M  V30 2058 H 198.272 -0.942154 -4.14733 0
M  V30 2059 N 196.587 1.43421 -0.653314 0
M  V30 2060 C 197.534 2.30768 0.0382271 0
M  V30 2061 C 198.504 1.44755 0.814576 0
M  V30 2062 O 199.689 1.73624 0.791162 0
M  V30 2063 C 196.829 3.30336 0.998599 0
M  V30 2064 C 195.942 4.31448 0.218342 0
M  V30 2065 C 195.077 5.18098 1.17252 0
M  V30 2066 C 194.116 6.10902 0.382702 0
M  V30 2067 N 193.253 6.90176 1.28848 0
M  V30 2068 H 198.093 2.89357 -0.712511 0
M  V30 2069 H 195.63 1.42548 -0.363128 0
M  V30 2070 H 197.588 3.86572 1.56901 0
M  V30 2071 H 196.218 2.73397 1.71621 0
M  V30 2072 H 195.27 3.77506 -0.46836 0
M  V30 2073 H 196.582 4.97227 -0.395812 0
M  V30 2074 H 195.736 5.7896 1.81356 0
M  V30 2075 H 194.475 4.52444 1.82058 0
M  V30 2076 H 193.48 5.49128 -0.27169 0
M  V30 2077 H 194.705 6.78598 -0.260957 0
M  V30 2078 H 192.651 6.27171 1.92334 0
M  V30 2079 H 192.568 7.52478 0.728887 0
M  V30 2080 H 193.836 7.55543 1.91766 0
M  V30 2081 N 198.065 0.39524 1.52563 0
M  V30 2082 C 199.012 -0.437036 2.26624 0
M  V30 2083 C 199.982 -1.05281 1.28472 0
M  V30 2084 O 201.167 -1.07971 1.57311 0
M  V30 2085 C 198.307 -1.55524 3.08069 0
M  V30 2086 C 197.42 -0.961745 4.21158 0
M  V30 2087 C 196.555 -2.05149 4.89987 0
M  V30 2088 C 195.594 -1.4342 5.95061 0
M  V30 2089 N 194.731 -2.46351 6.57462 0
M  V30 2090 H 199.571 0.200976 2.97322 0
M  V30 2091 H 197.108 0.110944 1.46681 0
M  V30 2092 H 199.066 -2.21437 3.53584 0
M  V30 2093 H 197.696 -2.16348 2.3957 0
M  V30 2094 H 196.748 -0.192048 3.79915 0
M  V30 2095 H 198.06 -0.470701 4.96574 0
M  V30 2096 H 197.214 -2.78819 5.38837 0
M  V30 2097 H 195.953 -2.57615 4.14109 0
M  V30 2098 H 194.958 -0.682774 5.45544 0
M  V30 2099 H 196.183 -0.917416 6.72875 0
M  V30 2100 H 194.129 -2.97975 5.8442 0
M  V30 2101 H 194.046 -2.02019 7.28508 0
M  V30 2102 H 195.314 -3.19633 7.10954 0
M  V30 2103 N 199.544 -1.57102 0.125237 0
M  V30 2104 C 200.454 -2.19191 -0.8362 0
M  V30 2105 C 201.47 -1.16985 -1.28805 0
M  V30 2106 O 202.646 -1.49479 -1.34974 0
M  V30 2107 C 199.711 -2.78407 -2.06617 0
M  V30 2108 C 198.772 -3.9567 -1.66565 0
M  V30 2109 C 198.005 -4.52052 -2.83698 0
M  V30 2110 O 198.228 -4.07326 -3.99302 0
M  V30 2111 O 197.162 -5.42645 -2.60423 0
M  V30 2112 H 200.988 -3.01816 -0.337776 0
M  V30 2113 H 198.573 -1.4906 -0.100695 0
M  V30 2114 H 200.455 -3.16129 -2.7864 0
M  V30 2115 H 199.13 -1.9881 -2.55453 0
M  V30 2116 H 198.037 -3.62705 -0.916296 0
M  V30 2117 H 199.37 -4.76722 -1.22464 0
M  V30 2118 N 201.022 0.148545 -1.56898 0
M  V30 2119 C 202.268 0.862694 -1.83536 0
M  V30 2120 C 202.601 1.80889 -0.706604 0
M  V30 2121 O 201.876 1.92328 0.289885 0
M  V30 2122 C 202.159 1.63853 -3.20662 0
M  V30 2123 C 202.012 0.713925 -4.44098 0
M  V30 2124 C 203.331 2.60133 -3.54991 0
M  V30 2125 H 200.45 0.312179 -0.667618 0
M  V30 2126 H 203.092 0.127953 -1.89569 0
M  V30 2127 H 201.242 2.26489 -3.1565 0
M  V30 2128 H 202.914 0.098686 -4.61194 0
M  V30 2129 H 201.157 0.0234019 -4.33794 0
M  V30 2130 H 201.828 1.29278 -5.36648 0
M  V30 2131 H 204.304 2.07616 -3.60603 0
M  V30 2132 H 203.18 3.11468 -4.51972 0
M  V30 2133 H 203.441 3.41417 -2.80868 0
M  V30 2134 N 202.5 1.5196 0.417844 0
M  V30 2135 C 203.448 1.75278 1.52907 0
M  V30 2136 C 204.442 0.619611 1.57662 0
M  V30 2137 O 205.648 0.801457 1.61173 0
M  V30 2138 H 202.023 0.554141 0.508362 0
M  V30 2139 H 203.994 2.68389 1.30422 0
M  V30 2140 C 202.743 1.91262 2.90369 0
M  V30 2141 H 202.066 2.77872 2.8745 0
M  V30 2142 H 203.506 2.11581 3.67436 0
M  V30 2143 C 201.965 0.677431 3.30019 0
M  V30 2144 O 202.495 -0.158799 4.01386 0
M  V30 2145 N 200.701 0.515851 2.85985 0
M  V30 2146 H 200.248 1.19744 2.28077 0
M  V30 2147 H 200.206 -0.309315 3.12875 0
M  V30 2148 N 203.978 -0.674533 1.42435 0
M  V30 2149 C 204.908 -1.80009 1.48724 0
M  V30 2150 C 205.889 -1.6659 0.343793 0
M  V30 2151 O 207.074 -1.86007 0.558137 0
M  V30 2152 C 204.204 -3.18306 1.38919 0
M  V30 2153 C 203.158 -3.46461 2.51294 0
M  V30 2154 C 202.484 -4.84335 2.26547 0
M  V30 2155 C 203.784 -3.43328 3.93603 0
M  V30 2156 H 205.478 -1.75004 2.42928 0
M  V30 2157 H 203.024 -0.840533 1.16923 0
M  V30 2158 H 204.977 -3.9678 1.41927 0
M  V30 2159 H 203.701 -3.2399 0.412094 0
M  V30 2160 H 202.36 -2.70348 2.47604 0
M  V30 2161 H 202.008 -4.86669 1.2713 0
M  V30 2162 H 201.708 -5.04136 3.01861 0
M  V30 2163 H 203.232 -5.65094 2.31304 0
M  V30 2164 H 204.646 -4.11772 3.98894 0
M  V30 2165 H 203.043 -3.74664 4.68771 0
M  V30 2166 H 204.113 -2.41897 4.20255 0
M  V30 2167 N 205.456 -1.28612 -0.910864 0
M  V30 2168 C 206.419 -1.12803 -1.9952 0
M  V30 2169 C 207.419 -0.0668264 -1.60661 0
M  V30 2170 O 208.609 -0.312847 -1.71368 0
M  V30 2171 C 205.741 -0.72254 -3.33155 0
M  V30 2172 H 206.934 -2.09109 -2.14973 0
M  V30 2173 H 204.487 -1.11639 -1.09391 0
M  V30 2174 H 205.222 0.241152 -3.23402 0
M  V30 2175 H 205.007 -1.48916 -3.62721 0
M  V30 2176 H 206.497 -0.634666 -4.12749 0
M  V30 2177 N 206.934 1.1197 -1.10907 0
M  V30 2178 C 207.897 2.16031 -0.765707 0
M  V30 2179 C 208.897 1.59393 0.212235 0
M  V30 2180 O 210.087 1.74196 -0.0115441 0
M  V30 2181 C 207.219 3.40632 -0.135053 0
M  V30 2182 H 208.412 2.47919 -1.68748 0
M  V30 2183 H 205.965 1.27061 -0.910226 0
M  V30 2184 H 206.7 3.14348 0.797218 0
M  V30 2185 H 206.485 3.8302 -0.838937 0
M  V30 2186 H 207.975 4.17505 0.0892469 0
M  V30 2187 N 208.412 0.89855 1.29475 0
M  V30 2188 C 209.375 0.380272 2.26023 0
M  V30 2189 C 210.375 -0.484891 1.53315 0
M  V30 2190 O 211.565 -0.290108 1.71767 0
M  V30 2191 C 208.697 -0.45651 3.3783 0
M  V30 2192 H 209.89 1.23295 2.73383 0
M  V30 2193 H 207.443 0.676589 1.40897 0
M  V30 2194 H 208.178 -1.32922 2.95808 0
M  V30 2195 H 207.963 0.163393 3.91759 0
M  V30 2196 H 209.453 -0.810466 4.0966 0
M  V30 2197 N 209.89 -1.43072 0.660911 0
M  V30 2198 C 211.136 -2.0202 0.177708 0
M  V30 2199 C 211.469 -1.52066 -1.20787 0
M  V30 2200 O 210.744 -0.716987 -1.80802 0
M  V30 2201 C 211.027 -3.59561 0.197019 0
M  V30 2202 C 210.88 -4.19727 1.61706 0
M  V30 2203 C 212.199 -4.37664 -0.462396 0
M  V30 2204 H 209.318 -0.734034 0.0660494 0
M  V30 2205 H 211.96 -1.70272 0.843058 0
M  V30 2206 H 210.11 -3.86739 -0.369527 0
M  V30 2207 H 211.782 -4.03553 2.23479 0
M  V30 2208 H 210.025 -3.76084 2.16201 0
M  V30 2209 H 210.696 -5.28834 1.58237 0
M  V30 2210 H 213.172 -4.16095 0.0197215 0
M  V30 2211 H 212.048 -5.47305 -0.418188 0
M  V30 2212 H 212.309 -4.14493 -1.53778 0
M  V30 2213 N 211.368 -0.403325 -1.52352 0
M  V30 2214 C 212.617 0.175668 -2.00934 0
M  V30 2215 C 212.93 1.46718 -1.29356 0
M  V30 2216 O 214.136 2.12708 -1.68724 0
M  V30 2217 C 212.592 0.363612 -3.58058 0
M  V30 2218 C 212.2 -0.915472 -4.38547 0
M  V30 2219 C 213.944 0.89821 -4.14888 0
M  V30 2220 C 211.851 -0.695035 -5.87302 0
M  V30 2221 H 210.781 0.0694234 -0.750797 0
M  V30 2222 H 213.432 -0.527879 -1.75743 0
M  V30 2223 H 211.814 1.12935 -3.79555 0
M  V30 2224 H 212.988 -1.68691 -4.28812 0
M  V30 2225 H 211.303 -1.37606 -3.93006 0
M  V30 2226 H 213.9 1.07907 -5.23699 0
M  V30 2227 H 214.243 1.87126 -3.71873 0
M  V30 2228 H 214.776 0.191681 -3.97338 0
M  V30 2229 H 211.515 -1.63948 -6.34666 0
M  V30 2230 H 211.035 0.0372116 -5.99788 0
M  V30 2231 H 212.714 -0.33497 -6.46132 0
M  V30 2232 N 212.846 1.57033 -0.133567 0
M  V30 2233 C 213.809 2.14897 0.796995 0
M  V30 2234 C 214.809 1.0874 1.18458 0
M  V30 2235 O 215.999 1.34446 1.1077 0
M  V30 2236 C 213.131 2.70112 2.07973 0
M  V30 2237 H 214.324 2.98457 0.293873 0
M  V30 2238 H 211.877 1.55871 0.115787 0
M  V30 2239 H 212.612 1.9018 2.62682 0
M  V30 2240 H 212.397 3.47764 1.81115 0
M  V30 2241 H 213.887 3.14738 2.74462 0
M  V30 2242 N 214.325 -0.140222 1.56975 0
M  V30 2243 C 215.571 -0.852949 1.83991 0
M  V30 2244 C 215.904 -1.80512 0.716187 0
M  V30 2245 O 215.179 -1.92479 -0.279681 0
M  V30 2246 C 215.462 -1.6215 3.21527 0
M  V30 2247 C 215.315 -0.690363 4.4447 0
M  V30 2248 C 216.634 -2.58247 3.56366 0
M  V30 2249 H 213.753 -0.308634 0.669264 0
M  V30 2250 H 216.395 -0.117898 1.89634 0
M  V30 2251 H 214.545 -2.24812 3.16847 0
M  V30 2252 H 216.217 -0.0742264 4.6124 0
M  V30 2253 H 214.46 -0.000396433 4.338 0
M  V30 2254 H 215.131 -1.2643 5.37326 0
M  V30 2255 H 217.607 -2.05701 3.61699 0
M  V30 2256 H 216.483 -3.09067 4.53617 0
M  V30 2257 H 216.744 -3.39923 2.82674 0
M  V30 2258 N 215.803 -1.52179 -0.40978 0
M  V30 2259 C 216.733 -1.78435 -1.5061 0
M  V30 2260 C 217.714 -0.635295 -1.57791 0
M  V30 2261 O 218.899 -0.880823 -1.73076 0
M  V30 2262 C 216.029 -1.93444 -2.88439 0
M  V30 2263 C 214.983 -3.09038 -2.96108 0
M  V30 2264 C 214.309 -3.09268 -4.36185 0
M  V30 2265 C 215.609 -4.48508 -2.67652 0
M  V30 2266 H 217.303 -2.70237 -1.28889 0
M  V30 2267 H 214.849 -1.30036 -0.618605 0
M  V30 2268 H 216.802 -2.10394 -3.65119 0
M  V30 2269 H 215.526 -0.983129 -3.11452 0
M  V30 2270 H 214.185 -2.91837 -2.21872 0
M  V30 2271 H 213.833 -2.11861 -4.56206 0
M  V30 2272 H 213.533 -3.86907 -4.42241 0
M  V30 2273 H 215.057 -3.28348 -5.14801 0
M  V30 2274 H 216.471 -4.65918 -3.34056 0
M  V30 2275 H 214.868 -5.28059 -2.85085 0
M  V30 2276 H 215.938 -4.56649 -1.63095 0
M  V30 2277 N 217.281 0.66697 -1.42791 0
M  V30 2278 C 218.529 1.42417 -1.43394 0
M  V30 2279 C 218.85 1.94925 -0.0542373 0
M  V30 2280 O 218.12 1.73564 0.908415 0
M  V30 2281 H 216.7 0.528515 -0.527902 0
M  V30 2282 H 219.362 0.787562 -1.78279 0
M  V30 2283 H 218.458 2.27333 -2.13837 0
M  V30 2284 N 218.759 1.29093 0.90403 0
M  V30 2285 C 219.689 1.16401 2.02418 0
M  V30 2286 C 220.67 0.0593085 1.69997 0
M  V30 2287 O 221.855 0.238021 1.92736 0
M  V30 2288 C 218.985 0.835233 3.37107 0
M  V30 2289 C 217.939 1.89578 3.83724 0
M  V30 2290 C 217.265 1.42041 5.15489 0
M  V30 2291 C 218.565 3.30394 4.04521 0
M  V30 2292 H 220.259 2.10109 2.13295 0
M  V30 2293 H 217.805 1.01157 1.02486 0
M  V30 2294 H 219.758 0.733169 4.14973 0
M  V30 2295 H 218.482 -0.137543 3.2631 0
M  V30 2296 H 217.141 1.98715 3.08071 0
M  V30 2297 H 216.789 0.436426 5.01103 0
M  V30 2298 H 216.489 2.12964 5.4765 0
M  V30 2299 H 218.013 1.33176 5.959 0
M  V30 2300 H 219.427 3.24123 4.72882 0
M  V30 2301 H 217.824 3.99237 4.48029 0
M  V30 2302 H 218.894 3.73692 3.09002 0
M  V30 2303 N 220.237 -1.11381 1.11499 0
M  V30 2304 C 221.2 -2.15622 0.777153 0
M  V30 2305 C 222.2 -1.59504 -0.203779 0
M  V30 2306 O 223.39 -1.74188 0.020782 0
M  V30 2307 C 220.522 -3.40556 0.153116 0
M  V30 2308 H 221.715 -2.47021 1.70061 0
M  V30 2309 H 219.268 -1.26577 0.916952 0
M  V30 2310 H 220.003 -3.14767 -0.780536 0
M  V30 2311 H 219.788 -3.8257 0.859238 0
M  V30 2312 H 221.278 -4.17546 -0.0671044 0
M  V30 2313 N 221.715 -0.905404 -1.28997 0
M  V30 2314 C 222.961 -0.535039 -1.95615 0
M  V30 2315 C 223.294 0.917404 -1.71165 0
M  V30 2316 O 222.569 1.65123 -1.02785 0
M  V30 2317 C 222.852 -0.834918 -3.50287 0
M  V30 2318 C 222.705 -2.33948 -3.84172 0
M  V30 2319 C 224.024 -0.325318 -4.38896 0
M  V30 2320 H 221.143 -0.195861 -0.710498 0
M  V30 2321 H 223.785 -1.13313 -1.52513 0
M  V30 2322 H 221.935 -0.325904 -3.87131 0
M  V30 2323 H 223.607 -2.91847 -3.57243 0
M  V30 2324 H 221.85 -2.79789 -3.31513 0
M  V30 2325 H 222.521 -2.49987 -4.92149 0
M  V30 2326 H 224.997 -0.761256 -4.09077 0
M  V30 2327 H 223.873 -0.564295 -5.45992 0
M  V30 2328 H 224.134 0.774144 -4.35269 0
M  V30 2329 N 223.193 1.4272 -0.668489 0
M  V30 2330 C 224.126 2.28111 0.0637898 0
M  V30 2331 C 225.104 1.40705 0.814912 0
M  V30 2332 O 226.288 1.70146 0.81134 0
M  V30 2333 C 223.415 3.20429 1.0974 0
M  V30 2334 C 222.461 4.24197 0.442579 0
M  V30 2335 S 223.294 5.29563 -0.795173 0
M  V30 2336 C 224.45 6.25449 0.237516 0
M  V30 2337 H 224.683 2.8987 -0.660521 0
M  V30 2338 H 222.216 1.47456 -0.457821 0
M  V30 2339 H 224.174 3.74158 1.68868 0
M  V30 2340 H 222.835 2.57818 1.79411 0
M  V30 2341 H 222.028 4.88954 1.22227 0
M  V30 2342 H 221.63 3.73925 -0.0749554 0
M  V30 2343 H 223.922 6.68524 1.09915 0
M  V30 2344 H 224.865 7.07104 -0.375421 0
M  V30 2345 H 225.273 5.61511 0.580167 0
M  V30 2346 N 224.671 0.411399 1.52136 0
M  V30 2347 C 225.634 -0.401089 2.25663 0
M  V30 2348 C 226.634 -0.971732 1.28117 0
M  V30 2349 O 227.824 -0.850254 1.52041 0
M  V30 2350 C 224.956 -1.56483 3.02863 0
M  V30 2351 H 226.149 0.24295 2.98914 0
M  V30 2352 H 223.702 0.163968 1.55438 0
M  V30 2353 H 224.437 -2.24567 2.33967 0
M  V30 2354 H 224.222 -1.16211 3.74483 0
M  V30 2355 H 225.712 -2.13951 3.58629 0
M  V30 2356 N 226.149 -1.5696 0.141893 0
M  V30 2357 C 227.079 -2.19516 -0.795936 0
M  V30 2358 C 228.06 -1.14187 -1.26077 0
M  V30 2359 O 229.245 -1.42511 -1.31925 0
M  V30 2360 C 226.375 -2.81272 -2.03723 0
M  V30 2361 C 225.329 -3.92384 -1.70936 0
M  V30 2362 C 224.655 -4.41052 -3.02287 0
M  V30 2363 C 225.955 -5.13403 -0.959954 0
M  V30 2364 H 227.649 -2.98138 -0.274596 0
M  V30 2365 H 225.195 -1.43406 -0.130636 0
M  V30 2366 H 227.148 -3.237 -2.69808 0
M  V30 2367 H 225.872 -1.99973 -2.58221 0
M  V30 2368 H 224.531 -3.50566 -1.07232 0
M  V30 2369 H 224.179 -3.56582 -3.54765 0
M  V30 2370 H 223.879 -5.15993 -2.81114 0
M  V30 2371 H 225.403 -4.86146 -3.69451 0
M  V30 2372 H 226.817 -5.52706 -1.52279 0
M  V30 2373 H 225.214 -5.94073 -0.848357 0
M  V30 2374 H 226.284 -4.84875 0.0492434 0
M  V30 2375 N 227.627 0.131896 -1.57047 0
M  V30 2376 C 228.875 0.840269 -1.83804 0
M  V30 2377 C 229.196 1.81017 -0.72512 0
M  V30 2378 O 228.466 1.94272 0.251995 0
M  V30 2379 H 227.046 0.313294 -0.678127 0
M  V30 2380 H 229.708 0.122294 -1.94516 0
M  V30 2381 H 228.804 1.39335 -2.79271 0
M  V30 2382 N 229.106 1.52395 0.401703 0
M  V30 2383 C 230.346 1.68498 1.15705 0
M  V30 2384 C 230.71 0.409748 1.87577 0
M  V30 2385 O 231.911 0.446983 2.65058 0
M  V30 2386 C 230.182 2.87789 2.11924 0
M  V30 2387 S 231.741 3.24415 2.95466 0
M  V30 2388 H 228.559 0.593267 0.391862 0
M  V30 2389 H 231.161 1.90408 0.443282 0
M  V30 2390 H 229.865 3.7884 1.57824 0
M  V30 2391 H 229.396 2.68175 2.87829 0
M  V30 2392 H 231.411 2.73614 4.13944 0
M  V30 2393 N 230.584 -0.659388 1.43143 0
M  V30 2394 C 231.514 -1.78422 1.50625 0
M  V30 2395 C 232.495 -1.66216 0.361443 0
M  V30 2396 O 233.68 -1.85404 0.577834 0
M  V30 2397 C 230.81 -3.16815 1.42287 0
M  V30 2398 C 229.764 -3.43777 2.54954 0
M  V30 2399 C 229.09 -4.81905 2.31671 0
M  V30 2400 C 230.39 -3.39134 3.97222 0
M  V30 2401 H 232.084 -1.72417 2.44771 0
M  V30 2402 H 229.63 -0.828084 1.17808 0
M  V30 2403 H 231.583 -3.95253 1.46127 0
M  V30 2404 H 230.307 -3.23534 0.446435 0
M  V30 2405 H 228.966 -2.67707 2.50457 0
M  V30 2406 H 228.614 -4.85294 1.32284 0
M  V30 2407 H 228.314 -5.00906 3.07192 0
M  V30 2408 H 229.838 -5.62609 2.37284 0
M  V30 2409 H 231.252 -4.07518 4.03239 0
M  V30 2410 H 229.649 -3.69671 4.72719 0
M  V30 2411 H 230.719 -2.37426 4.22797 0
M  V30 2412 N 232.062 -1.29571 -0.897171 0
M  V30 2413 C 233.302 -1.18959 -1.66217 0
M  V30 2414 C 233.666 0.254271 -1.90309 0
M  V30 2415 O 234.867 0.483407 -2.64417 0
M  V30 2416 C 233.138 -1.98302 -2.9734 0
M  V30 2417 S 234.697 -2.04253 -3.88364 0
M  V30 2418 H 231.515 -0.424137 -0.570639 0
M  V30 2419 H 234.117 -1.6389 -1.06585 0
M  V30 2420 H 232.821 -3.02342 -2.77521 0
M  V30 2421 H 232.352 -1.53986 -3.62011 0
M  V30 2422 H 234.367 -1.16105 -4.82425 0
M  V30 2423 N 233.54 1.10788 -1.12088 0
M  V30 2424 C 234.789 1.82036 -0.868659 0
M  V30 2425 C 235.102 1.85929 0.607426 0
M  V30 2426 O 236.308 2.53346 0.97613 0
M  V30 2427 C 234.764 3.26951 -1.50435 0
M  V30 2428 C 234.372 3.31367 -3.01496 0
M  V30 2429 C 236.116 4.03053 -1.33225 0
M  V30 2430 C 234.023 4.7072 -3.58017 0
M  V30 2431 H 232.953 0.682108 -0.321318 0
M  V30 2432 H 235.604 1.24618 -1.34694 0
M  V30 2433 H 233.986 3.84343 -0.953735 0
M  V30 2434 H 235.16 2.83819 -3.6302 0
M  V30 2435 H 233.475 2.6875 -3.18061 0
M  V30 2436 H 236.072 5.05981 -1.72878 0
M  V30 2437 H 236.415 4.15387 -0.275529 0
M  V30 2438 H 236.948 3.52066 -1.85188 0
M  V30 2439 H 233.687 4.63585 -4.63432 0
M  V30 2440 H 233.207 5.1865 -3.01268 0
M  V30 2441 H 234.886 5.39685 -3.56859 0
M  V30 2442 N 235.018 0.912232 1.28515 0
M  V30 2443 C 236.267 0.540504 1.94323 0
M  V30 2444 C 236.58 -0.920044 1.72611 0
M  V30 2445 O 237.786 -1.39986 2.32629 0
M  V30 2446 C 236.242 0.915803 3.48053 0
M  V30 2447 C 235.85 2.39598 3.78546 0
M  V30 2448 C 237.594 0.614588 4.20027 0
M  V30 2449 C 235.501 2.71148 5.25578 0
M  V30 2450 H 234.431 0.198418 0.727424 0
M  V30 2451 H 237.082 1.11094 1.46049 0
M  V30 2452 H 235.464 0.274168 3.9505 0
M  V30 2453 H 236.638 3.08422 3.42364 0
M  V30 2454 H 234.953 2.66749 3.1974 0
M  V30 2455 H 237.55 0.827002 5.28266 0
M  V30 2456 H 237.893 -0.447531 4.13887 0
M  V30 2457 H 238.426 1.21462 3.78803 0
M  V30 2458 H 235.165 3.76207 5.36794 0
M  V30 2459 H 234.685 2.0696 5.62963 0
M  V30 2460 H 236.364 2.58072 5.93302 0
M  V30 2461 N 236.496 -1.42363 0.676048 0
M  V30 2462 C 237.429 -2.28141 -0.0516916 0
M  V30 2463 C 238.407 -1.41135 -0.807439 0
M  V30 2464 O 239.591 -1.70573 -0.802305 0
M  V30 2465 C 236.718 -3.21007 -1.08039 0
M  V30 2466 C 235.764 -4.24426 -0.420076 0
M  V30 2467 S 236.597 -5.29134 0.823246 0
M  V30 2468 C 237.753 -6.25566 -0.204344 0
M  V30 2469 H 237.986 -2.89515 0.675884 0
M  V30 2470 H 235.519 -1.47211 0.465635 0
M  V30 2471 H 237.477 -3.75048 -1.66881 0
M  V30 2472 H 236.138 -2.58766 -1.78042 0
M  V30 2473 H 235.331 -4.89596 -1.19633 0
M  V30 2474 H 234.933 -3.7388 0.0947845 0
M  V30 2475 H 237.225 -6.69098 -1.06369 0
M  V30 2476 H 238.168 -7.06895 0.412915 0
M  V30 2477 H 238.576 -5.61811 -0.55038 0
M  V30 2478 N 237.974 -0.419461 -1.51915 0
M  V30 2479 C 239.22 0.153166 -2.02221 0
M  V30 2480 C 239.553 1.43907 -1.30401 0
M  V30 2481 O 238.828 1.90055 -0.413438 0
M  V30 2482 C 239.111 0.390291 -3.57979 0
M  V30 2483 C 238.964 -0.913014 -4.40436 0
M  V30 2484 C 240.283 1.16794 -4.2432 0
M  V30 2485 H 237.402 0.0541924 -0.735005 0
M  V30 2486 H 240.044 -0.554955 -1.81715 0
M  V30 2487 H 238.194 0.993491 -3.75582 0
M  V30 2488 H 239.866 -1.54882 -4.34522 0
M  V30 2489 H 238.109 -1.52168 -4.06236 0
M  V30 2490 H 238.78 -0.701361 -5.47526 0
M  V30 2491 H 241.256 0.657161 -4.10878 0
M  V30 2492 H 240.132 1.3026 -5.3322 0
M  V30 2493 H 240.393 2.19132 -3.83971 0
M  V30 2494 N 239.452 1.56882 -0.150215 0
M  V30 2495 C 240.382 2.19935 0.784284 0
M  V30 2496 C 241.363 1.14854 1.25469 0
M  V30 2497 O 242.548 1.43209 1.31168 0
M  V30 2498 C 239.678 2.82349 2.02229 0
M  V30 2499 C 238.632 3.93285 1.68853 0
M  V30 2500 C 237.958 4.42649 2.99944 0
M  V30 2501 C 239.258 5.13904 0.932714 0
M  V30 2502 H 240.952 2.9828 0.258781 0
M  V30 2503 H 238.498 1.43473 0.123029 0
M  V30 2504 H 240.451 3.25126 2.68088 0
M  V30 2505 H 239.175 2.0134 2.57157 0
M  V30 2506 H 237.834 3.5113 1.05371 0
M  V30 2507 H 237.482 3.58458 3.52869 0
M  V30 2508 H 237.182 5.17476 2.78374 0
M  V30 2509 H 238.706 4.88099 3.66868 0
M  V30 2510 H 240.12 5.53506 1.49345 0
M  V30 2511 H 238.517 5.94515 0.81684 0
M  V30 2512 H 239.587 4.84842 -0.0749568 0
M  V30 2513 N 240.93 -0.123565 1.57115 0
M  V30 2514 C 242.155 -0.850398 1.89164 0
M  V30 2515 C 242.58 -1.7286 0.741688 0
M  V30 2516 O 241.938 -1.78665 -0.307958 0
M  V30 2517 C 241.986 -1.66353 3.19936 0
M  V30 2518 O 241.09 -2.77004 3.0552 0
M  V30 2519 H 240.431 -0.235454 0.620852 0
M  V30 2520 H 242.961 -0.107335 2.04318 0
M  V30 2521 H 242.971 -2.05372 3.52543 0
M  V30 2522 H 241.646 -1.01881 4.03228 0
M  V30 2523 H 240.223 -2.41221 2.84371 0
M  V30 2524 N 242.408 -1.52605 -0.393616 0
M  V30 2525 C 243.355 -1.77055 -1.48054 0
M  V30 2526 C 244.325 -0.61358 -1.54352 0
M  V30 2527 O 245.51 -0.852806 -1.70681 0
M  V30 2528 C 242.65 -1.94108 -2.85335 0
M  V30 2529 C 241.763 -3.21792 -2.88226 0
M  V30 2530 C 240.898 -3.29188 -4.16904 0
M  V30 2531 C 239.937 -4.51013 -4.13828 0
M  V30 2532 N 239.074 -4.55716 -5.34105 0
M  V30 2533 H 243.914 -2.69815 -1.26506 0
M  V30 2534 H 241.451 -1.33683 -0.61379 0
M  V30 2535 H 243.409 -2.01979 -3.65049 0
M  V30 2536 H 242.039 -1.04713 -3.05344 0
M  V30 2537 H 241.091 -3.23015 -2.00911 0
M  V30 2538 H 242.403 -4.11557 -2.8182 0
M  V30 2539 H 241.557 -3.36216 -5.05018 0
M  V30 2540 H 240.296 -2.37389 -4.26026 0
M  V30 2541 H 239.301 -4.44115 -3.24102 0
M  V30 2542 H 240.526 -5.44123 -4.06333 0
M  V30 2543 H 238.472 -3.66807 -5.43865 0
M  V30 2544 H 238.389 -5.39346 -5.29756 0
M  V30 2545 H 239.657 -4.66993 -6.2413 0
M  V30 2546 N 243.887 0.651787 -1.4349 0
M  V30 2547 C 245.135 1.40888 -1.44897 0
M  V30 2548 C 245.456 1.94856 -0.0749086 0
M  V30 2549 O 244.726 1.74518 0.889956 0
M  V30 2550 H 243.306 0.522887 -0.533478 0
M  V30 2551 H 245.968 0.768609 -1.79104 0
M  V30 2552 H 245.064 2.25052 -2.16236 0
M  V30 2553 N 245.365 1.30045 0.890287 0
M  V30 2554 C 246.328 1.15963 1.977 0
M  V30 2555 C 247.328 0.0923777 1.60534 0
M  V30 2556 O 248.518 0.340071 1.70848 0
M  V30 2557 C 245.65 0.775451 3.31963 0
M  V30 2558 H 246.843 2.12502 2.11619 0
M  V30 2559 H 244.396 1.13366 1.07601 0
M  V30 2560 H 245.131 -0.189671 3.23745 0
M  V30 2561 H 244.916 1.54668 3.60306 0
M  V30 2562 H 246.406 0.700251 4.11687 0
M  V30 2563 N 246.843 -1.10192 1.12674 0
M  V30 2564 C 247.753 -2.20172 0.810026 0
M  V30 2565 C 248.769 -1.72821 -0.202188 0
M  V30 2566 O 249.945 -2.01369 -0.0351691 0
M  V30 2567 C 247.01 -3.45631 0.272007 0
M  V30 2568 C 246.071 -4.07704 1.34447 0
M  V30 2569 C 245.304 -5.27175 0.832029 0
M  V30 2570 O 245.527 -5.69425 -0.333284 0
M  V30 2571 O 244.461 -5.80168 1.60277 0
M  V30 2572 H 248.287 -2.49701 1.72867 0
M  V30 2573 H 245.872 -1.18977 0.903597 0
M  V30 2574 H 247.754 -4.21394 -0.0230219 0
M  V30 2575 H 246.429 -3.17723 -0.619164 0
M  V30 2576 H 245.336 -3.33614 1.6927 0
M  V30 2577 H 246.669 -4.3982 2.2095 0
M  V30 2578 N 248.321 -0.919034 -1.28029 0
M  V30 2579 C 249.568 -0.554934 -1.94748 0
M  V30 2580 C 249.896 0.90231 -1.72304 0
M  V30 2581 O 249.151 1.65767 -1.04018 0
M  V30 2582 C 249.45 -0.816855 -3.4794 0
M  V30 2583 C 249.116 -2.25448 -3.90492 0
M  V30 2584 C 247.778 -2.64752 -4.01821 0
M  V30 2585 C 250.13 -3.18977 -4.12193 0
M  V30 2586 C 247.458 -3.96727 -4.32232 0
M  V30 2587 C 249.81 -4.50523 -4.44086 0
M  V30 2588 C 248.474 -4.89673 -4.53626 0
M  V30 2589 H 247.744 -0.203065 -0.712633 0
M  V30 2590 H 250.391 -1.16136 -1.52265 0
M  V30 2591 H 248.696 -0.127677 -3.91592 0
M  V30 2592 H 250.393 -0.514238 -3.97689 0
M  V30 2593 H 246.983 -1.93952 -3.82205 0
M  V30 2594 H 251.167 -2.89817 -4.02889 0
M  V30 2595 H 246.423 -4.26754 -4.37825 0
M  V30 2596 H 250.597 -5.23005 -4.59825 0
M  V30 2597 H 248.224 -5.91969 -4.76946 0
M  V30 2598 N 249.799 1.42003 -0.683588 0
M  V30 2599 C 250.729 2.33487 -0.024866 0
M  V30 2600 C 251.71 1.51163 0.779975 0
M  V30 2601 O 252.895 1.79739 0.735362 0
M  V30 2602 C 250.025 3.3487 0.920836 0
M  V30 2603 C 248.979 4.27414 0.223958 0
M  V30 2604 C 248.305 5.19074 1.2832 0
M  V30 2605 C 249.605 5.14445 -0.90242 0
M  V30 2606 H 251.299 2.88819 -0.788921 0
M  V30 2607 H 248.845 1.38873 -0.38083 0
M  V30 2608 H 250.798 3.97787 1.39081 0
M  V30 2609 H 249.522 2.77861 1.71642 0
M  V30 2610 H 248.181 3.65904 -0.225864 0
M  V30 2611 H 247.829 4.58387 2.071 0
M  V30 2612 H 247.529 5.81822 0.821995 0
M  V30 2613 H 249.053 5.84867 1.75392 0
M  V30 2614 H 250.467 5.70998 -0.513272 0
M  V30 2615 H 248.864 5.86072 -1.28997 0
M  V30 2616 H 249.934 4.52322 -1.74737 0
M  V30 2617 N 251.277 0.427512 1.51691 0
M  V30 2618 C 252.207 -0.3796 2.30394 0
M  V30 2619 C 253.188 -1.02982 1.35384 0
M  V30 2620 O 254.373 -1.03534 1.643 0
M  V30 2621 C 251.503 -1.48649 3.1388 0
M  V30 2622 C 250.457 -0.960294 4.17088 0
M  V30 2623 C 249.783 -2.16219 4.89033 0
M  V30 2624 C 251.083 -0.00153679 5.223 0
M  V30 2625 H 252.777 0.277164 2.98114 0
M  V30 2626 H 250.323 0.134739 1.43368 0
M  V30 2627 H 252.276 -2.05826 3.67714 0
M  V30 2628 H 251 -2.1714 2.43962 0
M  V30 2629 H 249.659 -0.410806 3.64291 0
M  V30 2630 H 249.307 -2.83307 4.15628 0
M  V30 2631 H 249.007 -1.81654 5.58816 0
M  V30 2632 H 250.531 -2.73968 5.45687 0
M  V30 2633 H 251.945 -0.482687 5.71264 0
M  V30 2634 H 250.342 0.256199 5.99553 0
M  V30 2635 H 251.412 0.938174 4.75738 0
M  V30 2636 N 252.755 -1.56801 0.158532 0
M  V30 2637 C 254.171 -1.5837 -0.197774 0
M  V30 2638 C 254.371 -1.17334 -1.63814 0
M  V30 2639 O 253.427 -0.878988 -2.36707 0
M  V30 2640 C 254.74 -3.00615 0.0714459 0
M  V30 2641 C 256.288 -3.12999 0.00864533 0
M  V30 2642 C 256.763 -4.57313 0.250685 0
M  V30 2643 N 258.254 -4.62777 0.198014 0
M  V30 2644 C 258.989 -5.72271 0.359642 0
M  V30 2645 N 258.485 -6.90371 0.579625 0
M  V30 2646 N 260.278 -5.61318 0.296438 0
M  V30 2647 H 252.429 -1.81765 1.09887 0
M  V30 2648 H 254.692 -0.841849 0.435884 0
M  V30 2649 H 254.398 -3.35068 1.06874 0
M  V30 2650 H 254.272 -3.71683 -0.642757 0
M  V30 2651 H 256.659 -2.7838 -0.979217 0
M  V30 2652 H 256.74 -2.44393 0.755359 0
M  V30 2653 H 256.384 -4.92639 1.2357 0
M  V30 2654 H 256.314 -5.24061 -0.516489 0
M  V30 2655 H 258.805 -3.77885 0.0331115 0
M  V30 2656 H 259.118 -7.69689 0.69275 0
M  V30 2657 H 257.463 -6.92264 0.616087 0
M  V30 2658 H 260.654 -4.67932 0.125258 0
M  V30 2659 H 260.827 -6.46599 0.425831 0
M  V30 2660 N 254.233 0.115231 -1.57178 0
M  V30 2661 C 255.479 0.82357 -1.85325 0
M  V30 2662 C 255.812 1.79349 -0.744814 0
M  V30 2663 O 255.087 1.92899 0.249024 0
M  V30 2664 C 255.37 1.57014 -3.24066 0
M  V30 2665 C 255.223 0.619565 -4.45513 0
M  V30 2666 C 256.542 2.52545 -3.60429 0
M  V30 2667 H 253.661 0.297948 -0.674089 0
M  V30 2668 H 256.303 0.0877138 -1.89797 0
M  V30 2669 H 254.453 2.19742 -3.20383 0
M  V30 2670 H 256.125 0.000837639 -4.613 0
M  V30 2671 H 254.368 -0.0686174 -4.33746 0
M  V30 2672 H 255.039 1.17866 -5.3927 0
M  V30 2673 H 257.515 1.9992 -3.64926 0
M  V30 2674 H 256.391 3.01811 -4.58477 0
M  V30 2675 H 256.652 3.35383 -2.88047 0
M  V30 2676 N 255.711 1.52812 0.385517 0
M  V30 2677 C 256.959 1.67694 1.12797 0
M  V30 2678 C 257.28 0.421115 1.90399 0
M  V30 2679 O 256.55 -0.564551 1.87589 0
M  V30 2680 H 255.13 0.618155 0.419396 0
M  V30 2681 H 257.792 1.89938 0.436972 0
M  V30 2682 H 256.888 2.52896 1.82894 0
M  V30 2683 N 257.189 -0.644168 1.43834 0
M  V30 2684 C 258.152 -1.73857 1.49353 0
M  V30 2685 C 259.152 -1.56315 0.377112 0
M  V30 2686 O 260.342 -1.62048 0.639226 0
M  V30 2687 C 257.474 -3.12819 1.35488 0
M  V30 2688 H 258.667 -1.70342 2.46827 0
M  V30 2689 H 256.22 -0.856652 1.30733 0
M  V30 2690 H 256.955 -3.2194 0.390569 0
M  V30 2691 H 256.74 -3.26958 2.16428 0
M  V30 2692 H 258.23 -3.92606 1.42302 0
M  V30 2693 N 258.668 -1.30515 -0.883378 0
M  V30 2694 C 259.914 -1.19607 -1.63774 0
M  V30 2695 C 260.247 0.248314 -1.92606 0
M  V30 2696 O 259.522 1.17742 -1.54813 0
M  V30 2697 C 259.805 -2.02669 -2.97653 0
M  V30 2698 C 259.658 -3.55335 -2.75784 0
M  V30 2699 C 260.977 -1.86573 -3.98596 0
M  V30 2700 H 258.096 -0.435856 -0.594305 0
M  V30 2701 H 260.738 -1.60165 -1.02212 0
M  V30 2702 H 258.888 -1.68208 -3.50197 0
M  V30 2703 H 260.56 -3.99863 -2.30016 0
M  V30 2704 H 258.803 -3.79438 -2.1026 0
M  V30 2705 H 259.474 -4.08745 -3.70988 0
M  V30 2706 H 261.95 -2.16703 -3.55217 0
M  V30 2707 H 260.826 -2.47014 -4.90179 0
M  V30 2708 H 261.087 -0.825321 -4.34328 0
M  V30 2709 N 260.146 1.09593 -1.13257 0
M  V30 2710 C 261.386 1.83349 -0.903472 0
M  V30 2711 C 261.75 1.83641 0.560351 0
M  V30 2712 O 262.951 2.53037 0.906947 0
M  V30 2713 C 261.222 3.25629 -1.47311 0
M  V30 2714 S 262.781 4.16408 -1.38382 0
M  V30 2715 H 259.599 0.632014 -0.325699 0
M  V30 2716 H 262.201 1.31817 -1.44376 0
M  V30 2717 H 260.905 3.22991 -2.53189 0
M  V30 2718 H 260.436 3.82233 -0.930689 0
M  V30 2719 H 262.451 4.94884 -0.361113 0
M  V30 2720 N 261.624 0.925811 1.2754 0
M  V30 2721 C 262.871 0.565255 1.94451 0
M  V30 2722 C 263.199 -0.89316 1.7278 0
M  V30 2723 O 262.454 -1.65213 1.04895 0
M  V30 2724 C 262.753 0.835296 3.47502 0
M  V30 2725 C 262.419 2.27515 3.89291 0
M  V30 2726 C 261.081 2.66879 4.00411 0
M  V30 2727 C 263.433 3.21158 4.10496 0
M  V30 2728 C 260.761 3.99014 4.30122 0
M  V30 2729 C 263.113 4.52871 4.4169 0
M  V30 2730 C 261.777 4.92072 4.51023 0
M  V30 2731 H 261.047 0.206841 0.711546 0
M  V30 2732 H 263.694 1.16942 1.51647 0
M  V30 2733 H 261.999 0.148442 3.91519 0
M  V30 2734 H 263.696 0.535322 3.97411 0
M  V30 2735 H 260.286 1.95976 3.81171 0
M  V30 2736 H 264.47 2.9195 4.01346 0
M  V30 2737 H 259.726 4.2907 4.35556 0
M  V30 2738 H 263.9 5.25436 4.57045 0
M  V30 2739 H 261.527 5.9449 4.738 0
M  V30 2740 N 263.102 -1.41638 0.69111 0
M  V30 2741 C 264.35 -2.00902 0.219758 0
M  V30 2742 C 264.671 -1.54994 -1.18329 0
M  V30 2743 O 263.941 -0.778628 -1.79762 0
M  V30 2744 H 262.521 -0.74289 0.0782558 0
M  V30 2745 H 265.183 -1.73327 0.891271 0
M  V30 2746 H 264.279 -3.11224 0.233708 0
M  V30 2747 N 264.58 -0.43555 -1.51462 0
M  V30 2748 C 265.51 0.367376 -2.30592 0
M  V30 2749 C 266.491 1.02263 -1.35928 0
M  V30 2750 O 267.676 1.02661 -1.64847 0
M  V30 2751 C 264.806 1.46983 -3.14664 0
M  V30 2752 C 263.76 0.938161 -4.17591 0
M  V30 2753 C 263.086 2.13622 -4.90173 0
M  V30 2754 C 264.386 -0.0261621 -5.22293 0
M  V30 2755 H 266.08 -0.292969 -2.97963 0
M  V30 2756 H 263.626 -0.14234 -1.43295 0
M  V30 2757 H 265.579 2.03873 -3.688 0
M  V30 2758 H 264.303 2.15843 -2.4511 0
M  V30 2759 H 262.962 0.391481 -3.64504 0
M  V30 2760 H 262.61 2.81098 -4.17124 0
M  V30 2761 H 262.31 1.78688 -5.59772 0
M  V30 2762 H 263.834 2.7107 -5.47132 0
M  V30 2763 H 265.248 0.452384 -5.71512 0
M  V30 2764 H 263.645 -0.287992 -5.99409 0
M  V30 2765 H 264.715 -0.963391 -4.75233 0
M  V30 2766 N 266.058 1.56714 -0.166846 0
M  V30 2767 C 267.283 2.01557 0.488833 0
M  V30 2768 C 267.708 1.0463 1.56314 0
M  V30 2769 O 267.066 0.0251304 1.81283 0
M  V30 2770 C 267.114 3.4503 1.04818 0
M  V30 2771 O 266.218 3.51163 2.16236 0
M  V30 2772 H 265.559 0.653516 0.117526 0
M  V30 2773 H 268.089 2.02818 -0.269421 0
M  V30 2774 H 268.099 3.84243 1.37191 0
M  V30 2775 H 266.774 4.15077 0.261572 0
M  V30 2776 H 265.351 3.23807 1.84942 0
M  V30 2777 N 267.536 -0.106894 1.57237 0
M  V30 2778 C 268.784 -0.810921 1.85117 0
M  V30 2779 C 269.105 -1.7984 0.753827 0
M  V30 2780 O 268.375 -1.94649 -0.221056 0
M  V30 2781 H 266.955 -0.302466 0.683025 0
M  V30 2782 H 269.617 -0.0913324 1.94686 0
M  V30 2783 H 268.713 -1.34875 2.81452 0
M  V30 2784 N 269.014 -1.53014 -0.377408 0
M  V30 2785 C 269.944 -1.81589 -1.46791 0
M  V30 2786 C 270.925 -0.668622 -1.56408 0
M  V30 2787 O 272.11 -0.917337 -1.71168 0
M  V30 2788 C 269.24 -1.99519 -2.8427 0
M  V30 2789 C 268.194 -3.15249 -2.89486 0
M  V30 2790 C 267.52 -3.18451 -4.29527 0
M  V30 2791 C 268.82 -4.54084 -2.58079 0
M  V30 2792 H 270.514 -2.7291 -1.23127 0
M  V30 2793 H 268.06 -1.31319 -0.590883 0
M  V30 2794 H 270.013 -2.18092 -3.60575 0
M  V30 2795 H 268.737 -1.04897 -3.09296 0
M  V30 2796 H 267.396 -2.96477 -2.15631 0
M  V30 2797 H 267.044 -2.2149 -4.5161 0
M  V30 2798 H 266.744 -3.962 -4.33934 0
M  V30 2799 H 268.268 -3.39193 -5.07721 0
M  V30 2800 H 269.682 -4.72899 -3.24098 0
M  V30 2801 H 268.079 -5.33987 -2.7382 0
M  V30 2802 H 269.149 -4.60006 -1.53372 0
M  V30 2803 N 270.492 0.636531 -1.44174 0
M  V30 2804 C 271.422 1.76003 -1.53444 0
M  V30 2805 C 272.403 1.65619 -0.387841 0
M  V30 2806 O 273.588 1.84461 -0.607257 0
M  V30 2807 C 270.718 3.14511 -1.4731 0
M  V30 2808 C 269.672 3.39677 -2.60391 0
M  V30 2809 C 268.998 4.78159 -2.39308 0
M  V30 2810 C 270.298 3.32772 -4.02567 0
M  V30 2811 H 271.992 1.68501 -2.47483 0
M  V30 2812 H 269.538 0.809237 -1.19111 0
M  V30 2813 H 271.491 3.92878 -1.52397 0
M  V30 2814 H 270.215 3.22783 -0.49785 0
M  V30 2815 H 268.874 2.63688 -2.54684 0
M  V30 2816 H 268.522 4.83128 -1.39988 0
M  V30 2817 H 268.222 4.95956 -3.15122 0
M  V30 2818 H 269.746 5.58762 -2.46205 0
M  V30 2819 H 271.16 4.01051 -4.09672 0
M  V30 2820 H 269.557 3.62104 -4.7854 0
M  V30 2821 H 270.627 2.30669 -4.2652 0
M  V30 2822 N 271.97 1.30982 0.876444 0
M  V30 2823 C 272.9 1.20668 1.99903 0
M  V30 2824 C 273.881 0.095354 1.69833 0
M  V30 2825 O 275.066 0.27885 1.92188 0
M  V30 2826 C 272.196 0.90655 3.3526 0
M  V30 2827 C 271.15 1.97675 3.79617 0
M  V30 2828 C 270.476 1.52943 5.1236 0
M  V30 2829 C 271.776 3.389 3.97422 0
M  V30 2830 H 273.47 2.14586 2.0879 0
M  V30 2831 H 271.016 1.03308 1.00317 0
M  V30 2832 H 272.969 0.821025 4.13324 0
M  V30 2833 H 271.693 -0.0682969 3.26529 0
M  V30 2834 H 270.352 2.05205 3.03787 0
M  V30 2835 H 270 0.54262 5.00065 0
M  V30 2836 H 269.7 2.24532 5.43009 0
M  V30 2837 H 271.224 1.45786 5.92941 0
M  V30 2838 H 272.638 3.34081 4.659 0
M  V30 2839 H 271.035 4.0865 4.3946 0
M  V30 2840 H 272.105 3.80163 3.01006 0
M  V30 2841 N 273.449 -1.08991 1.13837 0
M  V30 2842 C 274.379 -2.17771 0.842507 0
M  V30 2843 C 275.36 -1.6892 -0.20001 0
M  V30 2844 O 276.545 -1.94113 -0.0579731 0
M  V30 2845 C 273.675 -3.4589 0.312644 0
M  V30 2846 C 272.629 -4.08099 1.28992 0
M  V30 2847 C 271.955 -5.31098 0.619623 0
M  V30 2848 C 273.255 -4.50077 2.65005 0
M  V30 2849 H 274.949 -2.42777 1.75213 0
M  V30 2850 H 272.495 -1.16682 0.843875 0
M  V30 2851 H 274.448 -4.21297 0.0933043 0
M  V30 2852 H 273.172 -3.20419 -0.632382 0
M  V30 2853 H 271.831 -3.34717 1.49533 0
M  V30 2854 H 271.479 -5.0191 -0.33102 0
M  V30 2855 H 271.179 -5.73674 1.27167 0
M  V30 2856 H 272.703 -6.09224 0.409669 0
M  V30 2857 H 274.117 -5.16688 2.48407 0
M  V30 2858 H 272.514 -5.03553 3.26427 0
M  V30 2859 H 273.584 -3.62257 3.22332 0
M  V30 2860 N 274.927 -0.932562 -1.27047 0
M  V30 2861 C 276.173 -0.576412 -1.94436 0
M  V30 2862 C 276.506 0.880891 -1.73072 0
M  V30 2863 O 275.781 1.62905 -1.06264 0
M  V30 2864 C 276.064 -0.909031 -3.48437 0
M  V30 2865 C 275.917 -2.42044 -3.79123 0
M  V30 2866 C 277.236 -0.418341 -4.38107 0
M  V30 2867 H 274.355 -0.210888 -0.706184 0
M  V30 2868 H 276.997 -1.16522 -1.50075 0
M  V30 2869 H 275.147 -0.407947 -3.86352 0
M  V30 2870 H 276.819 -2.99359 -3.50973 0
M  V30 2871 H 275.062 -2.86758 -3.25503 0
M  V30 2872 H 275.733 -2.6037 -4.86736 0
M  V30 2873 H 278.209 -0.847856 -4.0737 0
M  V30 2874 H 277.085 -0.679981 -5.44672 0
M  V30 2875 H 277.346 0.681642 -4.36814 0
M  V30 2876 N 276.405 1.4127 -0.698611 0
M  V30 2877 C 277.63 2.06024 -0.238512 0
M  V30 2878 C 278.055 1.5224 1.10475 0
M  V30 2879 O 277.413 0.650623 1.69223 0
M  V30 2880 C 277.461 3.59988 -0.209952 0
M  V30 2881 O 276.565 4.04282 0.814235 0
M  V30 2882 H 275.906 0.653829 -0.115775 0
M  V30 2883 H 278.436 1.8098 -0.954326 0
M  V30 2884 H 278.446 4.07979 -0.0418436 0
M  V30 2885 H 277.121 3.98503 -1.1903 0
M  V30 2886 H 275.698 3.6779 0.615234 0
M  V30 2887 N 277.883 0.443576 1.51229 0
M  V30 2888 C 278.813 -0.355142 2.30783 0
M  V30 2889 C 279.794 -1.0154 1.36468 0
M  V30 2890 O 280.979 -1.01785 1.65389 0
M  V30 2891 C 278.109 -1.45312 3.15439 0
M  V30 2892 C 277.063 -0.916002 4.18083 0
M  V30 2893 C 276.389 -2.1102 4.91299 0
M  V30 2894 C 277.689 0.0538602 5.22272 0
M  V30 2895 H 279.383 0.308767 2.97804 0
M  V30 2896 H 276.929 0.149937 1.43217 0
M  V30 2897 H 278.882 -2.01914 3.69876 0
M  V30 2898 H 277.606 -2.14541 2.46252 0
M  V30 2899 H 276.265 -0.372145 3.64706 0
M  V30 2900 H 275.913 -2.78882 4.18609 0
M  V30 2901 H 275.613 -1.75717 5.60712 0
M  V30 2902 H 277.137 -2.68164 5.48562 0
M  V30 2903 H 278.551 -0.422069 5.71744 0
M  V30 2904 H 276.948 0.319776 5.99247 0
M  V30 2905 H 278.018 0.98858 4.74716 0
M  V30 2906 N 279.361 -1.56624 0.175154 0
M  V30 2907 C 280.271 -2.21741 -0.766042 0
M  V30 2908 C 281.287 -1.21023 -1.25018 0
M  V30 2909 O 282.463 -1.53697 -1.3015 0
M  V30 2910 C 279.528 -2.84839 -1.97655 0
M  V30 2911 C 278.589 -4.00769 -1.53892 0
M  V30 2912 C 277.822 -4.60849 -2.69173 0
M  V30 2913 O 278.045 -4.19823 -3.86141 0
M  V30 2914 O 276.979 -5.50655 -2.43028 0
M  V30 2915 H 280.805 -3.02738 -0.241585 0
M  V30 2916 H 278.39 -1.49305 -0.053222 0
M  V30 2917 H 280.272 -3.24834 -2.68442 0
M  V30 2918 H 278.947 -2.06836 -2.48999 0
M  V30 2919 H 277.854 -3.65436 -0.80044 0
M  V30 2920 H 279.187 -4.80376 -1.07236 0
M  V30 2921 N 280.839 0.0985539 -1.57292 0
M  V30 2922 C 282.085 0.803867 -1.86188 0
M  V30 2923 C 282.418 1.78549 -0.763794 0
M  V30 2924 O 281.693 1.93153 0.22855 0
M  V30 2925 C 281.976 1.53568 -3.25713 0
M  V30 2926 C 281.829 0.572277 -4.46145 0
M  V30 2927 C 283.148 2.48708 -3.63087 0
M  V30 2928 H 280.267 0.290781 -0.677211 0
M  V30 2929 H 282.909 0.0675783 -1.8988 0
M  V30 2930 H 281.059 2.16332 -3.22696 0
M  V30 2931 H 282.731 -0.0480894 -4.61275 0
M  V30 2932 H 280.974 -0.114618 -4.33649 0
M  V30 2933 H 281.645 1.12139 -5.40489 0
M  V30 2934 H 284.121 1.96039 -3.67026 0
M  V30 2935 H 282.997 2.96932 -4.61652 0
M  V30 2936 H 283.258 3.32309 -2.91588 0
M  V30 2937 N 282.317 1.53212 0.369288 0
M  V30 2938 C 283.564 1.69215 1.11232 0
M  V30 2939 C 283.892 0.442048 1.8941 0
M  V30 2940 O 283.147 -0.575944 1.87033 0
M  V30 2941 C 283.446 2.89101 2.10132 0
M  V30 2942 C 283.112 4.25758 1.48463 0
M  V30 2943 C 281.774 4.6292 1.31372 0
M  V30 2944 C 284.126 5.10757 1.03811 0
M  V30 2945 C 281.454 5.82722 0.68207 0
M  V30 2946 C 283.806 6.31201 0.420487 0
M  V30 2947 C 282.47 6.67079 0.237038 0
M  V30 2948 H 281.74 0.619201 0.407027 0
M  V30 2949 H 284.387 1.87391 0.394552 0
M  V30 2950 H 282.692 2.65421 2.88199 0
M  V30 2951 H 284.389 2.98676 2.6757 0
M  V30 2952 H 280.979 3.96494 1.62758 0
M  V30 2953 H 285.163 4.82599 1.1581 0
M  V30 2954 H 280.419 6.09113 0.528316 0
M  V30 2955 H 284.593 6.96368 0.0662874 0
M  V30 2956 H 282.22 7.59774 -0.254477 0
M  V30 2957 N 283.795 -0.628877 1.44509 0
M  V30 2958 C 285.211 -0.947305 1.28446 0
M  V30 2959 C 285.411 -2.00275 0.221872 0
M  V30 2960 O 284.467 -2.49447 -0.391471 0
M  V30 2961 C 285.78 -1.40843 2.65676 0
M  V30 2962 C 287.328 -1.52379 2.73404 0
M  V30 2963 C 287.803 -2.01875 4.11109 0
M  V30 2964 N 289.294 -2.09142 4.13296 0
M  V30 2965 C 290.029 -2.48615 5.16699 0
M  V30 2966 N 289.525 -2.87209 6.30462 0
M  V30 2967 N 291.318 -2.48768 5.04054 0
M  V30 2968 H 283.469 0.0690977 2.12288 0
M  V30 2969 H 285.732 -0.0317164 0.947469 0
M  V30 2970 H 285.438 -0.707206 3.44516 0
M  V30 2971 H 285.312 -2.37902 2.92716 0
M  V30 2972 H 287.699 -2.21598 1.9488 0
M  V30 2973 H 287.78 -0.536898 2.50102 0
M  V30 2974 H 287.424 -1.3325 4.90109 0
M  V30 2975 H 287.354 -3.0144 4.31789 0
M  V30 2976 H 289.845 -1.81991 3.31191 0
M  V30 2977 H 290.158 -3.16149 7.05174 0
M  V30 2978 H 288.503 -2.84955 6.33897 0
M  V30 2979 H 291.694 -2.18009 4.14234 0
M  V30 2980 H 291.867 -2.79207 5.84763 0
M  V30 2981 N 285.273 -1.31445 -0.869486 0
M  V30 2982 C 286.223 -1.15731 -1.96444 0
M  V30 2983 C 287.207 -0.0681855 -1.60755 0
M  V30 2984 O 288.399 -0.293154 -1.74555 0
M  V30 2985 C 285.528 -0.867255 -3.32165 0
M  V30 2986 C 284.614 -1.99738 -3.74119 0
M  V30 2987 N 285.005 -3.24447 -3.88031 0
M  V30 2988 C 283.303 -1.89723 -4.03635 0
M  V30 2989 C 284.004 -3.98374 -4.23879 0
M  V30 2990 N 282.98 -3.26547 -4.3459 0
M  V30 2991 H 286.782 -2.10296 -2.05312 0
M  V30 2992 H 284.296 -1.23009 -1.06031 0
M  V30 2993 H 286.293 -0.735668 -4.10358 0
M  V30 2994 H 284.953 0.0701614 -3.24624 0
M  V30 2995 H 285.964 -3.59557 -3.72746 0
M  V30 2996 H 282.641 -1.03449 -4.04481 0
M  V30 2997 H 284.031 -5.05844 -4.42235 0
M  V30 2998 N 286.751 1.08385 -1.14413 0
M  V30 2999 C 287.976 1.85057 -0.936413 0
M  V30 3000 C 288.401 1.81055 0.509971 0
M  V30 3001 O 287.759 1.1958 1.36273 0
M  V30 3002 C 287.807 3.30505 -1.44217 0
M  V30 3003 O 286.911 4.07491 -0.634409 0
M  V30 3004 H 286.252 0.573425 -0.334784 0
M  V30 3005 H 288.782 1.36799 -1.52142 0
M  V30 3006 H 288.792 3.81348 -1.45043 0
M  V30 3007 H 287.467 3.32734 -2.49522 0
M  V30 3008 H 286.044 3.66368 -0.694902 0
M  V30 3009 N 288.23 0.939286 1.26551 0
M  V30 3010 C 289.476 0.586715 1.94128 0
M  V30 3011 C 289.809 -0.8717 1.73537 0
M  V30 3012 O 289.084 -1.62339 1.07127 0
M  V30 3013 C 289.367 0.927497 3.4795 0
M  V30 3014 C 289.22 2.44052 3.77834 0
M  V30 3015 C 290.539 0.441569 4.37879 0
M  V30 3016 H 287.658 0.21463 0.705055 0
M  V30 3017 H 290.3 1.17316 1.49455 0
M  V30 3018 H 288.45 0.428431 3.8613 0
M  V30 3019 H 290.122 3.01216 3.4938 0
M  V30 3020 H 288.365 2.8848 3.23978 0
M  V30 3021 H 289.036 2.62947 4.85348 0
M  V30 3022 H 291.512 0.869448 4.06915 0
M  V30 3023 H 290.388 0.708856 5.44304 0
M  V30 3024 H 290.649 -0.658467 4.37169 0
M  V30 3025 N 289.708 -1.40897 0.706093 0
M  V30 3026 C 291.124 -1.55042 0.37869 0
M  V30 3027 C 291.324 -1.67944 -1.11342 0
M  V30 3028 O 290.38 -1.66372 -1.89938 0
M  V30 3029 C 291.693 -2.78398 1.13643 0
M  V30 3030 C 293.241 -2.92206 1.12181 0
M  V30 3031 C 293.716 -4.18463 1.86152 0
M  V30 3032 N 295.207 -4.25443 1.83173 0
M  V30 3033 C 295.942 -5.2202 2.37239 0
M  V30 3034 N 295.438 -6.24563 2.99821 0
M  V30 3035 N 297.231 -5.14033 2.27435 0
M  V30 3036 H 289.382 -1.30769 1.67372 0
M  V30 3037 H 291.645 -0.631653 0.706907 0
M  V30 3038 H 291.351 -2.7511 2.19106 0
M  V30 3039 H 291.225 -3.70228 0.721853 0
M  V30 3040 H 293.612 -2.95004 0.0754171 0
M  V30 3041 H 293.693 -2.01521 1.57554 0
M  V30 3042 H 293.337 -4.16427 2.90776 0
M  V30 3043 H 293.267 -5.08141 1.38206 0
M  V30 3044 H 295.758 -3.51976 1.37556 0
M  V30 3045 H 296.071 -6.94665 3.38616 0
M  V30 3046 H 294.416 -6.25035 3.03902 0
M  V30 3047 H 297.607 -4.3285 1.78208 0
M  V30 3048 H 297.78 -5.89129 2.69873 0
M  V30 3049 N 291.186 -0.45159 -1.50991 0
M  V30 3050 C 292.149 0.341117 -2.26647 0
M  V30 3051 C 293.149 0.937422 -1.30649 0
M  V30 3052 O 294.339 0.809644 -1.54241 0
M  V30 3053 C 291.471 1.48398 -3.06905 0
M  V30 3054 H 292.664 -0.322117 -2.98165 0
M  V30 3055 H 290.217 -0.205122 -1.54948 0
M  V30 3056 H 290.952 2.18284 -2.39838 0
M  V30 3057 H 290.737 1.06241 -3.77432 0
M  V30 3058 H 292.227 2.04367 -3.64176 0
M  V30 3059 N 292.664 1.56529 -0.183458 0
M  V30 3060 C 293.594 2.21549 0.737456 0
M  V30 3061 C 294.575 1.17489 1.23005 0
M  V30 3062 O 295.76 1.45959 1.281 0
M  V30 3063 C 292.89 2.86575 1.96194 0
M  V30 3064 C 291.844 3.96778 1.60473 0
M  V30 3065 C 291.17 4.48911 2.90487 0
M  V30 3066 C 292.47 5.15767 0.823497 0
M  V30 3067 H 294.164 2.98761 0.195453 0
M  V30 3068 H 291.71 1.43702 0.0925686 0
M  V30 3069 H 293.663 3.30739 2.61131 0
M  V30 3070 H 292.387 2.06749 2.52828 0
M  V30 3071 H 291.046 3.53286 0.978997 0
M  V30 3072 H 290.694 3.65862 3.45186 0
M  V30 3073 H 290.394 5.23265 2.67335 0
M  V30 3074 H 291.918 4.95771 3.56432 0
M  V30 3075 H 293.332 5.56549 1.37571 0
M  V30 3076 H 291.729 5.96114 0.690551 0
M  V30 3077 H 292.799 4.84574 -0.177782 0
M  V30 3078 N 294.142 -0.090211 1.57342 0
M  V30 3079 C 295.072 -1.10976 2.05443 0
M  V30 3080 C 296.053 -1.41482 0.944284 0
M  V30 3081 O 297.238 -1.51428 1.21586 0
M  V30 3082 C 294.368 -2.42831 2.48295 0
M  V30 3083 C 293.322 -2.26721 3.63018 0
M  V30 3084 C 292.648 -3.63796 3.91863 0
M  V30 3085 C 293.948 -1.7037 4.93732 0
M  V30 3086 H 295.642 -0.709564 2.9087 0
M  V30 3087 H 293.188 -0.339874 1.39932 0
M  V30 3088 H 295.141 -3.14431 2.80555 0
M  V30 3089 H 293.865 -2.84795 1.59873 0
M  V30 3090 H 292.524 -1.57565 3.31012 0
M  V30 3091 H 292.172 -4.03297 3.00601 0
M  V30 3092 H 291.872 -3.53861 4.69101 0
M  V30 3093 H 293.396 -4.36855 4.26603 0
M  V30 3094 H 294.81 -2.31816 5.24342 0
M  V30 3095 H 293.207 -1.71181 5.75167 0
M  V30 3096 H 294.277 -0.663542 4.80339 0
M  V30 3097 N 295.62 -1.53406 -0.361157 0
M  V30 3098 C 296.552 -1.76446 -1.46286 0
M  V30 3099 C 297.565 -0.645322 -1.49464 0
M  V30 3100 O 298.754 -0.921681 -1.52864 0
M  V30 3101 C 295.854 -1.83332 -2.85031 0
M  V30 3102 C 295.027 -3.13033 -3.05498 0
M  V30 3103 C 294.086 -3.11104 -4.24383 0
M  V30 3104 O 293.112 -3.84888 -4.19344 0
M  V30 3105 N 294.314 -2.32234 -5.32022 0
M  V30 3106 H 297.079 -2.71508 -1.26899 0
M  V30 3107 H 294.64 -1.52238 -0.550915 0
M  V30 3108 H 296.632 -1.79514 -3.62708 0
M  V30 3109 H 295.202 -0.955342 -2.97644 0
M  V30 3110 H 294.422 -3.30119 -2.15442 0
M  V30 3111 H 295.71 -3.9874 -3.16044 0
M  V30 3112 H 295.108 -1.71807 -5.38979 0
M  V30 3113 H 293.665 -2.3423 -6.08259 0
M  V30 3114 N 297.098 0.621204 -1.44841 0
M  V30 3115 C 298.514 0.94048 -1.28946 0
M  V30 3116 C 298.714 2.00154 -0.23249 0
M  V30 3117 O 297.77 2.49651 0.378237 0
M  V30 3118 C 299.083 1.39433 -2.66419 0
M  V30 3119 C 300.631 1.50927 -2.74208 0
M  V30 3120 C 301.106 1.99692 -4.12174 0
M  V30 3121 N 302.597 2.06947 -4.144 0
M  V30 3122 C 303.332 2.45871 -5.1801 0
M  V30 3123 N 302.828 2.83862 -6.31977 0
M  V30 3124 N 304.621 2.46092 -5.05366 0
M  V30 3125 H 296.772 -0.0803548 -2.12248 0
M  V30 3126 H 299.035 0.0266913 -0.947624 0
M  V30 3127 H 298.741 0.688925 -3.44887 0
M  V30 3128 H 298.615 2.36347 -2.93973 0
M  V30 3129 H 301.002 2.20561 -1.96053 0
M  V30 3130 H 301.083 0.523627 -2.50383 0
M  V30 3131 H 300.727 1.30649 -4.90809 0
M  V30 3132 H 300.657 2.99146 -4.33381 0
M  V30 3133 H 303.148 1.80232 -3.32152 0
M  V30 3134 H 303.461 3.12405 -7.0684 0
M  V30 3135 H 301.806 2.8159 -6.35399 0
M  V30 3136 H 304.997 2.1581 -4.15384 0
M  V30 3137 H 305.17 2.76102 -5.86235 0
M  V30 3138 N 298.576 1.31904 0.862503 0
M  V30 3139 C 299.822 1.22197 1.61851 0
M  V30 3140 C 300.155 -0.217641 1.92977 0
M  V30 3141 O 299.43 -1.15264 1.56666 0
M  V30 3142 C 299.713 2.07378 2.94391 0
M  V30 3143 C 299.566 3.59678 2.70096 0
M  V30 3144 C 300.885 1.92891 3.95577 0
M  V30 3145 H 298.004 0.445255 0.587296 0
M  V30 3146 H 300.646 1.6177 0.99651 0
M  V30 3147 H 298.796 1.73758 3.47477 0
M  V30 3148 H 300.468 4.03472 2.23625 0
M  V30 3149 H 298.711 3.82735 2.04197 0
M  V30 3150 H 299.382 4.14595 3.64438 0
M  V30 3151 H 301.858 2.22327 3.51724 0
M  V30 3152 H 300.734 2.54781 4.86187 0
M  V30 3153 H 300.995 0.894315 4.3296 0
M  V30 3154 N 300.054 -1.07777 1.14986 0
M  V30 3155 C 301.279 -1.84558 0.946213 0
M  V30 3156 C 301.704 -1.81323 -0.500362 0
M  V30 3157 O 301.062 -1.20301 -1.35637 0
M  V30 3158 C 301.11 -3.29736 1.45968 0
M  V30 3159 O 300.214 -4.07149 0.65601 0
M  V30 3160 H 299.555 -0.571641 0.33782 0
M  V30 3161 H 302.085 -1.35991 1.52865 0
M  V30 3162 H 302.095 -3.80574 1.47063 0
M  V30 3163 H 300.77 -3.31406 2.51283 0
M  V30 3164 H 299.347 -3.65994 0.714322 0
M  V30 3165 N 301.532 -0.945985 -1.26051 0
M  V30 3166 C 302.943 -0.638096 -1.75457 0
M  V30 3167 C 303.294 0.846672 -1.76991 0
M  V30 3168 O 302.419 1.66262 -1.38513 0
M  V30 3169 C 303.014 -1.15157 -3.18629 0
M  V30 3170 C 301.573 -0.894004 -3.65629 0
M  V30 3171 C 300.72 -1.29967 -2.44957 0
M  V30 3172 H 303.671 -1.12376 -1.1206 0
M  V30 3173 H 303.692 -0.507615 -3.77099 0
M  V30 3174 H 303.204 -2.23222 -3.1748 0
M  V30 3175 H 301.305 0.172057 -3.72203 0
M  V30 3176 H 301.418 -1.52439 -4.54202 0
M  V30 3177 H 299.782 -0.718078 -2.44368 0
M  V30 3178 H 300.565 -2.38935 -2.46505 0
M  V30 3179 N 303.011 1.40521 -0.713556 0
M  V30 3180 C 303.921 2.34522 -0.0606667 0
M  V30 3181 C 304.937 1.57193 0.74607 0
M  V30 3182 O 306.113 1.89591 0.679493 0
M  V30 3183 C 303.178 3.36081 0.851491 0
M  V30 3184 C 302.239 4.29286 0.0349339 0
M  V30 3185 C 301.472 5.25994 0.903649 0
M  V30 3186 O 301.695 5.28616 2.14292 0
M  V30 3187 O 300.629 6.00918 0.343723 0
M  V30 3188 H 304.455 2.91968 -0.835972 0
M  V30 3189 H 302.04 1.41681 -0.47402 0
M  V30 3190 H 303.922 3.98369 1.37404 0
M  V30 3191 H 302.597 2.81052 1.60598 0
M  V30 3192 H 301.504 3.70289 -0.532633 0
M  V30 3193 H 302.837 4.87462 -0.681287 0
M  V30 3194 N 304.489 0.459591 1.5075 0
M  V30 3195 C 305.9 0.00171547 1.867 0
M  V30 3196 C 306.251 -1.39934 1.37525 0
M  V30 3197 O 305.376 -2.03523 0.735349 0
M  V30 3198 C 305.971 -0.00366298 3.388 0
M  V30 3199 C 304.53 -0.406026 3.74204 0
M  V30 3200 C 303.677 0.38673 2.7459 0
M  V30 3201 H 306.628 0.674413 1.43657 0
M  V30 3202 H 306.649 -0.808371 3.71814 0
M  V30 3203 H 306.161 1.01617 3.74561 0
M  V30 3204 H 304.262 -1.43063 3.4404 0
M  V30 3205 H 304.375 -0.115362 4.78961 0
M  V30 3206 H 302.739 -0.158019 2.54209 0
M  V30 3207 H 303.522 1.40585 3.13194 0
M  V30 3208 N 305.967 -1.56429 0.191757 0
M  V30 3209 C 307.378 -1.83912 -0.321428 0
M  V30 3210 C 307.729 -1.11231 -1.61623 0
M  V30 3211 O 306.854 -0.37202 -2.13178 0
M  V30 3212 C 307.449 -3.33624 -0.589961 0
M  V30 3213 C 306.008 -3.6153 -1.04753 0
M  V30 3214 C 305.155 -2.7714 -0.0943327 0
M  V30 3215 H 308.106 -1.53161 0.415612 0
M  V30 3216 H 308.127 -3.52213 -1.43966 0
M  V30 3217 H 307.639 -3.86495 0.352588 0
M  V30 3218 H 305.74 -3.14089 -2.00447 0
M  V30 3219 H 305.853 -4.69737 -0.942549 0
M  V30 3220 H 304.217 -2.47638 -0.595589 0
M  V30 3221 H 305 -3.32799 0.842601 0
M  V30 3222 N 307.445 0.0818655 -1.57387 0
M  V30 3223 C 308.856 0.634871 -1.75574 0
M  V30 3224 C 309.207 1.78435 -0.815809 0
M  V30 3225 O 308.332 2.164 0.0025366 0
M  V30 3226 C 308.927 1.15845 -3.18379 0
M  V30 3227 C 307.486 1.65741 -3.37945 0
M  V30 3228 C 306.633 0.572549 -2.71325 0
M  V30 3229 H 309.584 -0.144268 -1.58043 0
M  V30 3230 H 309.605 2.02751 -3.21982 0
M  V30 3231 H 309.117 0.321631 -3.86765 0
M  V30 3232 H 307.218 2.51781 -2.74658 0
M  V30 3233 H 307.331 1.74129 -4.46336 0
M  V30 3234 H 305.695 1.01518 -2.33594 0
M  V30 3235 H 306.478 -0.253918 -3.4236 0
M  V30 3236 N 308.923 1.53595 0.353017 0
M  V30 3237 C 309.886 1.80232 1.41594 0
M  V30 3238 C 310.886 0.673081 1.46035 0
M  V30 3239 O 312.076 0.941335 1.46576 0
M  V30 3240 C 309.208 1.93578 2.80607 0
M  V30 3241 H 310.401 2.75174 1.19244 0
M  V30 3242 H 307.954 1.44864 0.586872 0
M  V30 3243 H 308.689 1.00746 3.08254 0
M  V30 3244 H 308.474 2.75724 2.78781 0
M  V30 3245 H 309.964 2.15735 3.57558 0
M  V30 3246 N 310.401 -0.613514 1.45168 0
M  V30 3247 C 311.812 -1.19539 1.43413 0
M  V30 3248 C 312.163 -1.95558 0.158632 0
M  V30 3249 O 311.288 -2.0335 -0.740119 0
M  V30 3250 C 311.883 -2.17445 2.59813 0
M  V30 3251 C 310.442 -2.71022 2.61197 0
M  V30 3252 C 309.589 -1.46323 2.35552 0
M  V30 3253 H 312.54 -0.403163 1.53494 0
M  V30 3254 H 312.561 -3.00373 2.33574 0
M  V30 3255 H 312.073 -1.62089 3.52631 0
M  V30 3256 H 310.174 -3.30332 1.7237 0
M  V30 3257 H 310.287 -3.15859 3.60236 0
M  V30 3258 H 308.651 -1.75072 1.84992 0
M  V30 3259 H 309.434 -0.92844 3.30507 0
M  V30 3260 N 311.879 -1.3236 -0.855495 0
M  V30 3261 C 313.295 -1.11332 -1.14356 0
M  V30 3262 C 313.495 0.106751 -2.01217 0
M  V30 3263 O 312.551 0.791891 -2.39761 0
M  V30 3264 C 313.864 -2.39237 -1.82171 0
M  V30 3265 C 315.412 -2.44986 -1.9481 0
M  V30 3266 C 315.887 -3.7281 -2.66039 0
M  V30 3267 N 317.378 -3.73787 -2.73565 0
M  V30 3268 C 318.113 -4.69394 -3.29327 0
M  V30 3269 N 317.609 -5.75367 -3.85907 0
M  V30 3270 N 319.402 -4.56893 -3.27423 0
M  V30 3271 H 311.553 -2.10586 -0.277027 0
M  V30 3272 H 313.816 -0.929701 -0.185364 0
M  V30 3273 H 313.522 -3.28431 -1.25802 0
M  V30 3274 H 313.396 -2.50134 -2.82335 0
M  V30 3275 H 315.783 -1.56252 -2.50338 0
M  V30 3276 H 315.864 -2.38043 -0.936448 0
M  V30 3277 H 315.508 -4.61918 -2.11174 0
M  V30 3278 H 315.438 -3.77024 -3.67642 0
M  V30 3279 H 317.929 -2.97189 -2.33424 0
M  V30 3280 H 318.242 -6.44378 -4.26611 0
M  V30 3281 H 316.587 -5.79123 -3.84242 0
M  V30 3282 H 319.778 -3.73269 -2.82467 0
M  V30 3283 H 319.951 -5.31577 -3.7058 0
M  V30 3284 N 313.357 1.07166 -1.15556 0
M  V30 3285 C 314.287 2.16403 -0.877046 0
M  V30 3286 C 315.268 1.69217 0.173111 0
M  V30 3287 O 316.453 1.94181 0.027084 0
M  V30 3288 C 313.583 3.45349 -0.367632 0
M  V30 3289 C 312.537 4.05995 -1.35468 0
M  V30 3290 C 311.863 5.30045 -0.704038 0
M  V30 3291 C 313.163 4.45804 -2.72132 0
M  V30 3292 H 314.857 2.39959 -1.79053 0
M  V30 3293 H 312.403 1.15325 -0.862331 0
M  V30 3294 H 314.356 4.21095 -0.160317 0
M  V30 3295 H 313.08 3.21385 0.581326 0
M  V30 3296 H 311.739 3.32296 -1.54839 0
M  V30 3297 H 311.387 5.02373 0.251128 0
M  V30 3298 H 311.087 5.71579 -1.36277 0
M  V30 3299 H 312.611 6.08495 -0.50654 0
M  V30 3300 H 314.025 5.12671 -2.56595 0
M  V30 3301 H 312.422 4.98296 -3.34397 0
M  V30 3302 H 313.492 3.57083 -3.28054 0
M  V30 3303 N 314.835 0.952656 1.25548 0
M  V30 3304 C 316.063 0.623496 1.97282 0
M  V30 3305 C 316.478 -0.803987 1.70826 0
M  V30 3306 O 315.835 -1.53755 0.983147 0
M  V30 3307 C 315.886 0.870209 3.5087 0
M  V30 3308 O 315.607 2.24156 3.76412 0
M  V30 3309 C 317.108 0.553164 4.39835 0
M  V30 3310 H 314.328 0.233931 0.628902 0
M  V30 3311 H 316.872 1.27649 1.59768 0
M  V30 3312 H 315.027 0.263652 3.86502 0
M  V30 3313 H 315.441 2.31021 4.70882 0
M  V30 3314 H 316.915 0.776342 5.46513 0
M  V30 3315 H 317.392 -0.512215 4.36203 0
M  V30 3316 H 317.998 1.13896 4.09766 0
M  V30 3317 N 316.313 -1.40141 0.720998 0
M  V30 3318 C 317.543 -2.04798 0.27226 0
M  V30 3319 C 317.951 -1.54442 -1.09289 0
M  V30 3320 O 317.294 -0.698342 -1.69908 0
M  V30 3321 C 317.356 -3.59048 0.18027 0
M  V30 3322 C 317.02 -4.32317 1.48159 0
M  V30 3323 C 318.017 -4.59902 2.42458 0
M  V30 3324 C 315.702 -4.71125 1.74202 0
M  V30 3325 C 317.696 -5.25288 3.61042 0
M  V30 3326 C 315.383 -5.36242 2.93066 0
M  V30 3327 C 316.381 -5.63254 3.86308 0
M  V30 3328 O 316.069 -6.27024 5.03086 0
M  V30 3329 H 315.801 -0.665419 0.119139 0
M  V30 3330 H 318.355 -1.80436 0.981432 0
M  V30 3331 H 316.585 -3.82251 -0.58489 0
M  V30 3332 H 318.274 -4.05221 -0.234618 0
M  V30 3333 H 319.04 -4.30379 2.23604 0
M  V30 3334 H 314.919 -4.49466 1.02477 0
M  V30 3335 H 318.463 -5.46289 4.33837 0
M  V30 3336 H 314.36 -5.65185 3.11826 0
M  V30 3337 H 315.128 -6.4552 5.03235 0
M  V30 3338 N 317.792 -0.46758 -1.50504 0
M  V30 3339 C 318.702 0.33382 -2.32213 0
M  V30 3340 C 319.718 0.999323 -1.42441 0
M  V30 3341 O 320.894 0.988068 -1.75497 0
M  V30 3342 C 317.959 1.4035 -3.17022 0
M  V30 3343 C 317.02 0.754961 -4.2261 0
M  V30 3344 C 316.253 1.77367 -5.03365 0
M  V30 3345 O 316.476 2.99976 -4.8515 0
M  V30 3346 O 315.41 1.34744 -5.86624 0
M  V30 3347 H 319.236 -0.334067 -3.01857 0
M  V30 3348 H 316.821 -0.229496 -1.47627 0
M  V30 3349 H 318.703 2.02318 -3.69656 0
M  V30 3350 H 317.378 2.05492 -2.5011 0
M  V30 3351 H 316.285 0.0964244 -3.73976 0
M  V30 3352 H 317.618 0.146545 -4.91982 0
M  V30 3353 N 319.27 1.56325 -0.20005 0
M  V30 3354 C 320.5 2.01811 0.442232 0
M  V30 3355 C 320.908 1.07932 1.55394 0
M  V30 3356 O 320.251 0.0772685 1.83537 0
M  V30 3357 C 320.313 3.43685 1.05457 0
M  V30 3358 C 319.977 4.56928 0.0809833 0
M  V30 3359 C 320.974 5.15009 -0.711471 0
M  V30 3360 C 318.659 5.0229 -0.0315364 0
M  V30 3361 C 320.653 6.16904 -1.60336 0
M  V30 3362 C 318.34 6.04028 -0.926981 0
M  V30 3363 C 319.338 6.6121 -1.71146 0
M  V30 3364 O 319.026 7.60971 -2.59189 0
M  V30 3365 H 318.758 0.666173 0.114848 0
M  V30 3366 H 321.312 2.03085 -0.307511 0
M  V30 3367 H 319.542 3.39413 1.85299 0
M  V30 3368 H 321.231 3.72948 1.60201 0
M  V30 3369 H 321.997 4.80827 -0.634873 0
M  V30 3370 H 317.876 4.57476 0.568902 0
M  V30 3371 H 321.42 6.61464 -2.21611 0
M  V30 3372 H 317.317 6.37634 -1.00468 0
M  V30 3373 H 318.085 7.7841 -2.53023 0
M  V30 3374 N 320.748 -0.0735177 1.57428 0
M  V30 3375 C 321.973 -0.789787 1.91774 0
M  V30 3376 C 322.398 -1.70413 0.796306 0
M  V30 3377 O 321.756 -1.79555 -0.250961 0
M  V30 3378 C 321.804 -1.5609 3.25067 0
M  V30 3379 O 320.908 -2.67144 3.14178 0
M  V30 3380 H 320.249 -0.215582 0.628029 0
M  V30 3381 H 322.779 -0.0422781 2.04556 0
M  V30 3382 H 322.789 -1.94052 3.58898 0
M  V30 3383 H 321.464 -0.890015 4.06265 0
M  V30 3384 H 320.041 -2.32052 2.91901 0
M  V30 3385 N 322.226 -1.5378 -0.344866 0
M  V30 3386 C 323.472 -1.72158 -1.0832 0
M  V30 3387 C 323.827 -0.478218 -1.86362 0
M  V30 3388 O 323.12 0.529152 -1.84148 0
M  V30 3389 C 323.314 -2.92407 -2.05506 0
M  V30 3390 C 323.143 -4.28318 -1.37017 0
M  V30 3391 C 321.913 -4.92832 -1.11558 0
M  V30 3392 C 324.111 -5.08086 -0.797071 0
M  V30 3393 N 322.093 -6.12619 -0.396358 0
M  V30 3394 C 323.464 -6.1965 -0.208336 0
M  V30 3395 C 325.519 -4.92986 -0.697787 0
M  V30 3396 C 324.222 -7.17763 0.470023 0
M  V30 3397 C 326.248 -5.91391 -0.033171 0
M  V30 3398 C 325.61 -7.02292 0.544599 0
M  V30 3399 H 321.709 -0.683017 -0.380805 0
M  V30 3400 H 324.293 -1.91211 -0.366961 0
M  V30 3401 H 322.464 -2.74857 -2.74423 0
M  V30 3402 H 324.196 -2.9951 -2.72169 0
M  V30 3403 H 320.951 -4.52362 -1.40234 0
M  V30 3404 H 321.375 -6.7698 -0.0515119 0
M  V30 3405 H 326.017 -4.07414 -1.13022 0
M  V30 3406 H 323.735 -8.0291 0.914351 0
M  V30 3407 H 327.321 -5.81784 0.0430009 0
M  V30 3408 H 326.201 -7.77129 1.05073 0
M  V30 3409 N 323.704 0.605807 -1.45491 0
M  V30 3410 C 324.929 1.39625 -1.53361 0
M  V30 3411 C 325.354 1.87351 -0.167645 0
M  V30 3412 O 324.712 1.60243 0.848051 0
M  V30 3413 C 324.76 2.57559 -2.5238 0
M  V30 3414 O 323.864 3.58248 -2.04285 0
M  V30 3415 H 323.205 0.416771 -0.516912 0
M  V30 3416 H 325.735 0.737103 -1.90861 0
M  V30 3417 H 325.745 3.0478 -2.71244 0
M  V30 3418 H 324.42 2.22171 -3.51586 0
M  V30 3419 H 322.997 3.17664 -1.95305 0
M  V30 3420 N 325.182 1.32811 0.848464 0
M  V30 3421 C 326.112 1.24882 1.97299 0
M  V30 3422 C 327.093 0.131357 1.69592 0
M  V30 3423 O 328.278 0.319553 1.91553 0
M  V30 3424 C 325.408 0.97746 3.33261 0
M  V30 3425 C 324.362 2.05682 3.75338 0
M  V30 3426 C 323.688 1.63777 5.09 0
M  V30 3427 C 324.988 3.47254 3.90144 0
M  V30 3428 H 326.682 2.18966 2.04191 0
M  V30 3429 H 324.228 1.05413 0.981029 0
M  V30 3430 H 326.181 0.908513 4.1149 0
M  V30 3431 H 324.905 0.000980011 3.266 0
M  V30 3432 H 323.564 2.11603 2.99366 0
M  V30 3433 H 323.212 0.648569 4.98801 0
M  V30 3434 H 322.912 2.36 5.38124 0
M  V30 3435 H 324.436 1.5833 5.89715 0
M  V30 3436 H 325.85 3.43888 4.58709 0
M  V30 3437 H 324.247 4.1788 4.30693 0
M  V30 3438 H 325.317 3.86462 2.92874 0
M  V30 3439 N 326.66 -1.06551 1.16123 0
M  V30 3440 C 327.908 -1.78947 0.939267 0
M  V30 3441 C 328.229 -1.87532 -0.534476 0
M  V30 3442 O 327.499 -1.38211 -1.38833 0
M  V30 3443 H 326.079 -0.662807 0.344523 0
M  V30 3444 H 328.741 -1.28725 1.46342 0
M  V30 3445 H 327.837 -2.81117 1.35572 0
M  V30 3446 N 328.138 -0.959301 -1.25041 0
M  V30 3447 C 329.378 -0.624343 -1.94631 0
M  V30 3448 C 329.742 0.82403 -1.73418 0
M  V30 3449 O 330.943 1.26881 -2.3697 0
M  V30 3450 C 329.214 -0.978805 -3.43736 0
M  V30 3451 S 330.773 -0.757127 -4.32219 0
M  V30 3452 H 327.591 -0.229327 -0.673001 0
M  V30 3453 H 330.193 -1.23447 -1.51595 0
M  V30 3454 H 328.897 -2.02997 -3.56679 0
M  V30 3455 H 328.428 -0.359117 -3.91757 0
M  V30 3456 H 330.443 0.369759 -4.9482 0
M  V30 3457 N 329.616 1.39756 -0.72842 0
M  V30 3458 C 330.864 2.00248 -0.272946 0
M  V30 3459 C 331.185 1.58077 1.14178 0
M  V30 3460 O 330.455 0.826014 1.77634 0
M  V30 3461 H 329.035 0.740554 -0.0979247 0
M  V30 3462 H 331.697 1.70903 -0.936912 0
M  V30 3463 H 330.793 3.10495 -0.316142 0
M  V30 3464 N 331.094 0.475555 1.50254 0
M  V30 3465 C 332.34 -0.0780073 2.0265 0
M  V30 3466 C 332.673 -1.38968 1.35652 0
M  V30 3467 O 331.948 -1.8839 0.483691 0
M  V30 3468 C 332.231 -0.257161 3.59181 0
M  V30 3469 C 332.084 1.07585 4.36744 0
M  V30 3470 C 333.403 -1.00965 4.28362 0
M  V30 3471 H 330.522 -0.0268758 0.73651 0
M  V30 3472 H 333.164 0.622015 1.7953 0
M  V30 3473 H 331.314 -0.853412 3.79011 0
M  V30 3474 H 332.986 1.70902 4.28474 0
M  V30 3475 H 331.229 1.6714 4.00308 0
M  V30 3476 H 331.9 0.904088 5.44546 0
M  V30 3477 H 334.376 -0.504214 4.13034 0
M  V30 3478 H 333.252 -1.10381 5.37687 0
M  V30 3479 H 333.513 -2.04731 3.91839 0
M  V30 3480 N 332.573 -1.56217 0.208337 0
M  V30 3481 C 333.821 -1.97558 -0.426076 0
M  V30 3482 C 334.142 -1.09683 -1.61229 0
M  V30 3483 O 333.412 -0.170956 -1.95153 0
M  V30 3484 H 331.992 -0.729575 -0.160405 0
M  V30 3485 H 334.654 -1.92606 0.298155 0
M  V30 3486 H 333.75 -3.02672 -0.761312 0
M  V30 3487 N 334.051 0.0651679 -1.57465 0
M  V30 3488 C 335.014 1.06117 -2.03155 0
M  V30 3489 C 336.014 1.31204 -0.929632 0
M  V30 3490 O 337.204 1.26813 -1.19432 0
M  V30 3491 C 334.336 2.4032 -2.41783 0
M  V30 3492 H 335.529 0.667231 -2.92383 0
M  V30 3493 H 333.082 0.311075 -1.53173 0
M  V30 3494 H 333.817 2.84532 -1.55601 0
M  V30 3495 H 333.602 2.23451 -3.22199 0
M  V30 3496 H 335.092 3.11898 -2.77685 0
M  V30 3497 N 335.529 1.53961 0.336706 0
M  V30 3498 C 336.777 1.71197 1.07405 0
M  V30 3499 C 337.098 0.481475 1.88962 0
M  V30 3500 O 336.368 -0.504585 1.8929 0
M  V30 3501 H 334.948 0.631185 0.399517 0
M  V30 3502 H 337.61 1.91232 0.376323 0
M  V30 3503 H 336.706 2.58587 1.74755 0
M  V30 3504 N 337.007 -0.598083 1.45811 0
M  V30 3505 C 337.937 -1.71873 1.58057 0
M  V30 3506 C 338.918 -1.64533 0.431615 0
M  V30 3507 O 340.103 -1.82787 0.65595 0
M  V30 3508 C 337.233 -3.10495 1.55597 0
M  V30 3509 C 336.187 -3.32654 2.69305 0
M  V30 3510 C 335.513 -4.71646 2.51902 0
M  V30 3511 C 336.813 -3.21981 4.11248 0
M  V30 3512 H 338.507 -1.61881 2.51863 0
M  V30 3513 H 336.053 -0.777372 1.21214 0
M  V30 3514 H 338.006 -3.88699 1.6276 0
M  V30 3515 H 336.73 -3.2135 0.583255 0
M  V30 3516 H 335.389 -2.56843 2.61586 0
M  V30 3517 H 335.037 -4.79246 1.52748 0
M  V30 3518 H 334.737 -4.87426 3.2816 0
M  V30 3519 H 336.261 -5.52038 2.60933 0
M  V30 3520 H 337.675 -3.90049 4.20161 0
M  V30 3521 H 336.072 -3.49289 4.87972 0
M  V30 3522 H 337.142 -2.1928 4.32486 0
M  V30 3523 N 338.485 -1.33259 -0.841409 0
M  V30 3524 C 339.734 -1.23921 -1.59143 0
M  V30 3525 C 340.047 0.1941 -1.94635 0
M  V30 3526 O 341.253 0.409474 -2.68394 0
M  V30 3527 C 339.709 -2.17119 -2.87032 0
M  V30 3528 C 339.317 -3.65606 -2.58914 0
M  V30 3529 C 341.061 -2.16648 -3.65053 0
M  V30 3530 C 338.968 -4.50726 -3.82884 0
M  V30 3531 H 337.898 -0.460264 -0.597221 0
M  V30 3532 H 340.549 -1.58307 -0.927959 0
M  V30 3533 H 338.931 -1.75663 -3.54906 0
M  V30 3534 H 340.105 -4.15487 -1.99267 0
M  V30 3535 H 338.42 -3.68341 -1.942 0
M  V30 3536 H 341.017 -2.77474 -4.57069 0
M  V30 3537 H 341.36 -1.16088 -3.99787 0
M  V30 3538 H 341.893 -2.56453 -3.041 0
M  V30 3539 H 338.632 -5.52151 -3.53283 0
M  V30 3540 H 338.152 -4.0559 -4.41879 0
M  V30 3541 H 339.831 -4.64401 -4.50489 0
M  V30 3542 N 339.963 1.05934 -1.16686 0
M  V30 3543 C 340.893 2.1546 -0.899949 0
M  V30 3544 C 341.874 1.69391 0.155154 0
M  V30 3545 O 343.059 1.94199 0.00648693 0
M  V30 3546 C 340.189 3.44939 -0.404241 0
M  V30 3547 C 339.143 4.04536 -1.39767 0
M  V30 3548 C 338.469 5.29268 -0.760216 0
M  V30 3549 C 339.769 4.42893 -2.76845 0
M  V30 3550 H 341.463 2.38046 -1.81588 0
M  V30 3551 H 339.009 1.14404 -0.874514 0
M  V30 3552 H 340.962 4.20901 -0.204971 0
M  V30 3553 H 339.686 3.21983 0.547206 0
M  V30 3554 H 338.345 3.30635 -1.58355 0
M  V30 3555 H 337.993 5.02611 0.197831 0
M  V30 3556 H 337.693 5.70101 -1.42332 0
M  V30 3557 H 339.217 6.07924 -0.57105 0
M  V30 3558 H 340.631 5.09921 -2.62019 0
M  V30 3559 H 339.028 4.94721 -3.39663 0
M  V30 3560 H 340.098 3.53584 -3.31823 0
M  V30 3561 N 341.441 0.965919 1.2453 0
M  V30 3562 C 342.371 0.513476 2.27784 0
M  V30 3563 C 343.352 -0.445974 1.6415 0
M  V30 3564 O 344.537 -0.342485 1.91156 0
M  V30 3565 C 341.667 -0.198839 3.4673 0
M  V30 3566 C 340.621 0.676456 4.2262 0
M  V30 3567 C 339.947 -0.167248 5.34438 0
M  V30 3568 C 341.247 1.96017 4.84123 0
M  V30 3569 H 342.941 1.3765 2.65881 0
M  V30 3570 H 340.487 0.663321 1.27813 0
M  V30 3571 H 342.44 -0.526567 4.18097 0
M  V30 3572 H 341.164 -1.0962 3.07654 0
M  V30 3573 H 339.823 0.98743 3.53052 0
M  V30 3574 H 339.471 -1.0647 4.91603 0
M  V30 3575 H 339.171 0.415181 5.86131 0
M  V30 3576 H 340.695 -0.489688 6.08633 0
M  V30 3577 H 342.109 1.69814 5.47573 0
M  V30 3578 H 340.506 2.48918 5.4604 0
M  V30 3579 H 341.576 2.65622 4.05676 0
M  V30 3580 N 342.919 -1.39368 0.735821 0
M  V30 3581 C 343.849 -2.33234 0.111506 0
M  V30 3582 C 344.83 -1.53954 -0.723334 0
M  V30 3583 O 346.015 -1.82344 -0.668147 0
M  V30 3584 C 343.145 -3.38057 -0.795917 0
M  V30 3585 C 342.099 -4.2795 -0.065172 0
M  V30 3586 C 341.425 -5.23479 -1.08967 0
M  V30 3587 C 342.725 -5.10741 1.09273 0
M  V30 3588 H 344.419 -2.85692 0.895571 0
M  V30 3589 H 341.965 -1.37364 0.432109 0
M  V30 3590 H 343.918 -4.02675 -1.24221 0
M  V30 3591 H 342.642 -2.8404 -1.61211 0
M  V30 3592 H 341.301 -3.64813 0.361511 0
M  V30 3593 H 340.949 -4.65758 -1.89944 0
M  V30 3594 H 340.649 -5.84472 -0.605489 0
M  V30 3595 H 342.173 -5.90974 -1.53565 0
M  V30 3596 H 343.587 -5.68699 0.724841 0
M  V30 3597 H 341.984 -5.8088 1.50659 0
M  V30 3598 H 343.054 -4.45525 1.91404 0
M  V30 3599 N 344.397 -0.483516 -1.5 0
M  V30 3600 C 345.645 0.067027 -2.01989 0
M  V30 3601 C 345.966 1.3909 -1.36671 0
M  V30 3602 O 345.236 1.88978 -0.516152 0
M  V30 3603 H 343.816 0.0277606 -0.746484 0
M  V30 3604 H 346.478 -0.636773 -1.84204 0
M  V30 3605 H 345.574 0.209484 -3.11396 0
M  V30 3606 N 345.875 1.56104 -0.216619 0
M  V30 3607 C 346.838 2.18819 0.681962 0
M  V30 3608 C 347.838 1.14866 1.12528 0
M  V30 3609 O 349.028 1.40128 1.03488 0
M  V30 3610 C 346.16 2.80756 1.93362 0
M  V30 3611 H 347.353 2.99595 0.135254 0
M  V30 3612 H 344.906 1.56265 0.0330003 0
M  V30 3613 H 345.641 2.03837 2.52232 0
M  V30 3614 H 345.426 3.56876 1.62426 0
M  V30 3615 H 346.916 3.28844 2.57393 0
M  V30 3616 N 347.353 -0.0568162 1.57498 0
M  V30 3617 C 348.601 -0.751617 1.87604 0
M  V30 3618 C 348.922 -1.77351 0.81066 0
M  V30 3619 O 348.192 -1.95254 -0.159018 0
M  V30 3620 H 346.772 -0.280583 0.692302 0
M  V30 3621 H 349.434 -0.0293483 1.94878 0
M  V30 3622 H 348.53 -1.25852 2.856 0
M  V30 3623 N 348.832 -1.54138 -0.328536 0
M  V30 3624 C 350.072 -1.73827 -1.07534 0
M  V30 3625 C 350.436 -0.498777 -1.85408 0
M  V30 3626 O 351.637 -0.572937 -2.62623 0
M  V30 3627 C 349.908 -2.97573 -1.97952 0
M  V30 3628 S 351.467 -3.38143 -2.79652 0
M  V30 3629 H 348.285 -0.611287 -0.36311 0
M  V30 3630 H 350.887 -1.92306 -0.351931 0
M  V30 3631 H 349.591 -3.85939 -1.39569 0
M  V30 3632 H 349.122 -2.81603 -2.74706 0
M  V30 3633 H 351.137 -2.93052 -4.00418 0
M  V30 3634 N 350.31 0.590341 -1.46126 0
M  V30 3635 C 351.557 1.34882 -1.5104 0
M  V30 3636 C 351.885 1.93849 -0.159021 0
M  V30 3637 O 351.14 1.76544 0.844436 0
M  V30 3638 C 351.439 2.5032 -2.55097 0
M  V30 3639 C 351.105 2.09394 -3.99331 0
M  V30 3640 C 349.767 1.97947 -4.38601 0
M  V30 3641 C 352.119 1.77712 -4.89967 0
M  V30 3642 C 349.447 1.53065 -5.66381 0
M  V30 3643 C 351.799 1.34312 -6.18177 0
M  V30 3644 C 350.463 1.21436 -6.56361 0
M  V30 3645 H 349.733 0.493568 -0.552695 0
M  V30 3646 H 352.38 0.665539 -1.79563 0
M  V30 3647 H 350.685 3.24062 -2.20207 0
M  V30 3648 H 352.382 3.08541 -2.56132 0
M  V30 3649 H 348.972 2.19235 -3.68285 0
M  V30 3650 H 353.156 1.85445 -4.60352 0
M  V30 3651 H 348.412 1.41733 -5.94745 0
M  V30 3652 H 352.586 1.08849 -6.87841 0
M  V30 3653 H 350.213 0.864345 -7.5527 0
M  V30 3654 N 351.788 1.33704 0.83433 0
M  V30 3655 C 352.718 1.26967 1.95963 0
M  V30 3656 C 353.699 0.149337 1.69443 0
M  V30 3657 O 354.884 0.339852 1.91203 0
M  V30 3658 C 352.014 1.01275 3.32206 0
M  V30 3659 C 350.968 2.09652 3.73136 0
M  V30 3660 C 350.294 1.69166 5.07235 0
M  V30 3661 C 351.594 3.51372 3.86439 0
M  V30 3662 H 353.288 2.2112 2.01857 0
M  V30 3663 H 350.834 1.06447 0.969793 0
M  V30 3664 H 352.787 0.952106 4.10503 0
M  V30 3665 H 351.511 0.0356203 3.26581 0
M  V30 3666 H 350.17 2.14766 2.97104 0
M  V30 3667 H 349.818 0.701437 4.98085 0
M  V30 3668 H 349.518 2.41694 5.35591 0
M  V30 3669 H 351.042 1.64576 5.88003 0
M  V30 3670 H 352.456 3.48734 4.55036 0
M  V30 3671 H 350.853 4.22425 4.26236 0
M  V30 3672 H 351.923 3.89546 2.88759 0
M  V30 3673 N 353.266 -1.05314 1.17247 0
M  V30 3674 C 354.196 -2.1498 0.911362 0
M  V30 3675 C 355.177 -1.69471 -0.146169 0
M  V30 3676 O 356.362 -1.942 0.003812 0
M  V30 3677 C 353.492 -3.4472 0.422528 0
M  V30 3678 C 352.446 -4.03789 1.4191 0
M  V30 3679 C 351.772 -5.28858 0.788274 0
M  V30 3680 C 353.072 -4.41418 2.7919 0
M  V30 3681 H 354.766 -2.3708 1.82848 0
M  V30 3682 H 352.312 -1.13938 0.880569 0
M  V30 3683 H 354.265 -4.20787 0.227289 0
M  V30 3684 H 352.989 -3.22269 -0.530123 0
M  V30 3685 H 351.648 -3.2979 1.60106 0
M  V30 3686 H 351.296 -5.02709 -0.171173 0
M  V30 3687 H 350.996 -5.69338 1.45353 0
M  V30 3688 H 352.52 -6.07612 0.603282 0
M  V30 3689 H 353.934 -5.08524 2.64719 0
M  V30 3690 H 352.331 -4.92913 3.42282 0
M  V30 3691 H 353.401 -3.51819 3.33693 0
M  V30 3692 N 354.744 -0.972509 -1.24016 0
M  V30 3693 C 355.674 -0.525548 -2.27509 0
M  V30 3694 C 356.655 0.437262 -1.64384 0
M  V30 3695 O 357.84 0.332343 -1.91335 0
M  V30 3696 C 354.97 0.180448 -3.46831 0
M  V30 3697 C 353.924 -0.698859 -4.22256 0
M  V30 3698 C 353.25 0.138903 -5.3452 0
M  V30 3699 C 354.55 -1.98582 -4.83076 0
M  V30 3700 H 356.244 -1.39058 -2.65148 0
M  V30 3701 H 353.79 -0.67009 -1.27459 0
M  V30 3702 H 355.743 0.504387 -4.18371 0
M  V30 3703 H 354.467 1.07987 -3.08231 0
M  V30 3704 H 353.126 -1.00614 -3.52523 0
M  V30 3705 H 352.774 1.03862 -4.9216 0
M  V30 3706 H 352.474 -0.446259 -5.85903 0
M  V30 3707 H 353.998 0.457404 -6.08884 0
M  V30 3708 H 355.412 -1.72715 -5.46665 0
M  V30 3709 H 353.809 -2.5181 -5.44713 0
M  V30 3710 H 354.879 -2.67769 -4.04262 0
M  V30 3711 N 356.222 1.38976 -0.743202 0
M  V30 3712 C 357.45 2.04636 -0.30525 0
M  V30 3713 C 357.865 1.56044 1.06281 0
M  V30 3714 O 357.222 0.728921 1.67311 0
M  V30 3715 C 357.273 3.60193 -0.307177 0
M  V30 3716 O 356.994 4.06998 -1.62124 0
M  V30 3717 C 358.495 4.4306 0.145928 0
M  V30 3718 H 355.715 0.65788 -0.132041 0
M  V30 3719 H 358.259 1.77866 -1.00915 0
M  V30 3720 H 356.414 3.85835 0.347898 0
M  V30 3721 H 356.828 5.01371 -1.54036 0
M  V30 3722 H 358.302 5.51921 0.0934183 0
M  V30 3723 H 358.779 4.22706 1.19231 0
M  V30 3724 H 359.385 4.22584 -0.479886 0
M  V30 3725 N 357.7 0.491464 1.49741 0
M  V30 3726 C 358.63 -0.28154 2.31796 0
M  V30 3727 C 359.611 -0.971473 1.3963 0
M  V30 3728 O 360.796 -0.964719 1.68543 0
M  V30 3729 C 357.926 -1.35203 3.19902 0
M  V30 3730 C 356.88 -0.782529 4.20786 0
M  V30 3731 C 356.206 -1.95283 4.97764 0
M  V30 3732 C 357.506 0.21999 5.21837 0
M  V30 3733 H 359.2 0.403355 2.96671 0
M  V30 3734 H 356.746 0.195425 1.42668 0
M  V30 3735 H 358.699 -1.90045 3.76113 0
M  V30 3736 H 357.423 -2.06598 2.52953 0
M  V30 3737 H 356.082 -0.255928 3.65706 0
M  V30 3738 H 355.73 -2.65423 4.2727 0
M  V30 3739 H 355.43 -1.57789 5.66018 0
M  V30 3740 H 356.954 -2.50577 5.56816 0
M  V30 3741 H 358.368 -0.23996 5.72798 0
M  V30 3742 H 356.765 0.51026 5.97927 0
M  V30 3743 H 357.835 1.13911 4.7133 0
M  V30 3744 N 359.178 -1.55987 0.224894 0
M  V30 3745 C 360.589 -1.84553 -0.282345 0
M  V30 3746 C 360.94 -1.14634 -1.59227 0
M  V30 3747 O 360.065 -0.417155 -2.12341 0
M  V30 3748 C 360.66 -3.348 -0.519062 0
M  V30 3749 C 359.219 -3.63671 -0.970604 0
M  V30 3750 C 358.366 -2.77277 -0.0355261 0
M  V30 3751 H 361.317 -1.52245 0.448006 0
M  V30 3752 H 361.338 -3.55187 -1.36463 0
M  V30 3753 H 360.85 -3.8566 0.43449 0
M  V30 3754 H 358.951 -3.1827 -1.9374 0
M  V30 3755 H 359.064 -4.71631 -0.842698 0
M  V30 3756 H 357.428 -2.48846 -0.542927 0
M  V30 3757 H 358.211 -3.30937 0.913003 0
M  V30 3758 N 360.656 0.0484629 -1.57525 0
M  V30 3759 C 361.881 0.759177 -1.93006 0
M  V30 3760 C 362.306 1.69125 -0.823317 0
M  V30 3761 O 361.664 1.79931 0.222364 0
M  V30 3762 C 361.712 1.50899 -3.27509 0
M  V30 3763 O 360.816 2.62112 -3.18388 0
M  V30 3764 H 360.157 0.205564 -0.631379 0
M  V30 3765 H 362.687 0.00972959 -2.04598 0
M  V30 3766 H 362.697 1.88317 -3.6194 0
M  V30 3767 H 361.372 0.825269 -4.0763 0
M  V30 3768 H 359.949 2.27379 -2.95556 0
M  V30 3769 N 362.134 1.5431 0.320358 0
M  V30 3770 C 363.38 1.73859 1.05568 0
M  V30 3771 C 363.735 0.507807 1.85578 0
M  V30 3772 O 363.028 -0.499789 1.84967 0
M  V30 3773 C 363.222 2.95639 2.00828 0
M  V30 3774 C 363.051 4.30444 1.30186 0
M  V30 3775 C 361.821 4.94544 1.03703 0
M  V30 3776 C 364.019 5.0929 0.716138 0
M  V30 3777 N 362.001 6.13172 0.298846 0
M  V30 3778 C 363.372 6.19903 0.109729 0
M  V30 3779 C 365.427 4.94034 0.619269 0
M  V30 3780 C 364.13 7.16924 -0.584153 0
M  V30 3781 C 366.156 5.91369 -0.0609184 0
M  V30 3782 C 365.518 7.01336 -0.656258 0
M  V30 3783 H 361.617 0.688988 0.36989 0
M  V30 3784 H 364.201 1.9177 0.336494 0
M  V30 3785 H 362.372 2.79188 2.70016 0
M  V30 3786 H 364.104 3.03802 2.6737 0
M  V30 3787 H 360.859 4.54536 1.33019 0
M  V30 3788 H 361.283 6.76977 -0.0561964 0
M  V30 3789 H 365.925 4.0916 1.06526 0
M  V30 3790 H 363.643 8.01354 -1.04197 0
M  V30 3791 H 367.229 5.81642 -0.135552 0
M  V30 3792 H 366.109 7.75359 -1.17423 0
M  V30 3793 N 363.613 -0.582584 1.46437 0
M  V30 3794 C 365.024 -1.1647 1.45916 0
M  V30 3795 C 365.375 -1.95177 0.200077 0
M  V30 3796 O 364.5 -2.04874 -0.696819 0
M  V30 3797 C 365.095 -2.11885 2.64367 0
M  V30 3798 C 363.654 -2.65421 2.66887 0
M  V30 3799 C 362.801 -1.41294 2.38603 0
M  V30 3800 H 365.752 -0.370514 1.54314 0
M  V30 3801 H 365.773 -2.9535 2.39892 0
M  V30 3802 H 365.285 -1.54573 3.5599 0
M  V30 3803 H 363.386 -3.26602 1.79338 0
M  V30 3804 H 363.499 -3.08147 3.66854 0
M  V30 3805 H 361.863 -1.71109 1.88663 0
M  V30 3806 H 362.646 -0.858125 3.32402 0
M  V30 3807 N 365.091 -1.34144 -0.827227 0
M  V30 3808 C 366.337 -1.27455 -1.58515 0
M  V30 3809 C 366.692 0.155271 -1.91772 0
M  V30 3810 O 365.985 1.10042 -1.56848 0
M  V30 3811 C 366.179 -2.09464 -2.89585 0
M  V30 3812 C 366.008 -3.60276 -2.69131 0
M  V30 3813 C 364.778 -4.29565 -2.66087 0
M  V30 3814 C 366.976 -4.54367 -2.40947 0
M  V30 3815 N 364.958 -5.66252 -2.37132 0
M  V30 3816 C 366.329 -5.79027 -2.21648 0
M  V30 3817 C 368.384 -4.43327 -2.26639 0
M  V30 3818 C 367.087 -6.93891 -1.89492 0
M  V30 3819 C 369.113 -5.58019 -1.95878 0
M  V30 3820 C 368.475 -6.81695 -1.774 0
M  V30 3821 H 364.574 -0.521614 -0.582617 0
M  V30 3822 H 367.158 -1.68811 -0.970105 0
M  V30 3823 H 365.329 -1.70411 -3.49019 0
M  V30 3824 H 367.061 -1.94453 -3.54923 0
M  V30 3825 H 363.816 -3.81959 -2.80008 0
M  V30 3826 H 364.24 -6.38338 -2.25507 0
M  V30 3827 H 368.882 -3.48333 -2.39633 0
M  V30 3828 H 366.6 -7.88871 -1.75236 0
M  V30 3829 H 370.186 -5.5142 -1.85546 0
M  V30 3830 H 369.066 -7.68942 -1.53941 0
M  V30 3831 N 366.569 1.04691 -1.17803 0
M  V30 3832 C 367.817 1.7743 -0.967617 0
M  V30 3833 C 368.138 1.88359 0.504574 0
M  V30 3834 O 367.408 1.40402 1.36617 0
M  V30 3835 H 365.988 0.657242 -0.355024 0
M  V30 3836 H 368.65 1.2638 -1.48371 0
M  V30 3837 H 367.746 2.78924 -1.40027 0
M  V30 3838 N 368.047 0.979072 1.23499 0
M  V30 3839 C 369.272 0.664845 1.96455 0
M  V30 3840 C 369.697 -0.761287 1.72006 0
M  V30 3841 O 369.055 -1.51837 0.990713 0
M  V30 3842 C 369.103 0.959479 3.47601 0
M  V30 3843 O 368.207 0.0508168 4.12369 0
M  V30 3844 H 367.548 0.250185 0.615064 0
M  V30 3845 H 370.078 1.31231 1.5697 0
M  V30 3846 H 370.088 0.895642 3.98048 0
M  V30 3847 H 368.763 1.99876 3.64723 0
M  V30 3848 H 367.34 0.16895 3.72517 0
M  V30 3849 N 369.525 -1.3858 0.750561 0
M  V30 3850 C 370.455 -2.33102 0.136237 0
M  V30 3851 C 371.436 -1.54713 -0.706965 0
M  V30 3852 O 372.621 -1.83043 -0.648769 0
M  V30 3853 C 369.751 -3.38882 -0.760017 0
M  V30 3854 C 368.705 -4.27995 -0.0197785 0
M  V30 3855 C 368.031 -5.24605 -1.03408 0
M  V30 3856 C 369.331 -5.09554 1.14684 0
M  V30 3857 H 371.025 -2.84726 0.925822 0
M  V30 3858 H 368.571 -1.36898 0.446654 0
M  V30 3859 H 370.524 -4.0397 -1.19943 0
M  V30 3860 H 369.248 -2.85734 -1.58189 0
M  V30 3861 H 367.907 -3.64409 0.400184 0
M  V30 3862 H 367.555 -4.67746 -1.84994 0
M  V30 3863 H 367.255 -5.85081 -0.543464 0
M  V30 3864 H 368.779 -5.9257 -1.47288 0
M  V30 3865 H 370.193 -5.67899 0.785118 0
M  V30 3866 H 368.59 -5.7925 1.56812 0
M  V30 3867 H 369.66 -4.4347 1.96118 0
M  V30 3868 N 371.003 -0.499398 -1.49478 0
M  V30 3869 C 372.243 0.0440751 -2.04352 0
M  V30 3870 C 372.607 1.34423 -1.37093 0
M  V30 3871 O 373.808 1.97184 -1.82679 0
M  V30 3872 C 372.079 0.194918 -3.56868 0
M  V30 3873 S 373.638 0.69287 -4.33295 0
M  V30 3874 H 370.456 0.00253458 -0.710995 0
M  V30 3875 H 373.058 -0.673 -1.83551 0
M  V30 3876 H 371.762 -0.756672 -4.03364 0
M  V30 3877 H 371.293 0.93728 -3.82071 0
M  V30 3878 H 373.308 1.96226 -4.55752 0
M  V30 3879 N 372.481 1.55866 -0.233164 0
M  V30 3880 C 373.892 1.847 0.272554 0
M  V30 3881 C 374.243 1.15477 1.58617 0
M  V30 3882 O 373.368 0.42841 2.12117 0
M  V30 3883 C 373.963 3.35071 0.501299 0
M  V30 3884 C 372.522 3.6418 0.951304 0
M  V30 3885 C 371.669 2.77292 0.0208209 0
M  V30 3886 H 374.62 1.52005 -0.456074 0
M  V30 3887 H 374.641 3.55906 1.34577 0
M  V30 3888 H 374.153 3.85424 -0.454936 0
M  V30 3889 H 372.254 3.19293 1.92049 0
M  V30 3890 H 372.367 4.72071 0.817675 0
M  V30 3891 H 370.731 2.49131 0.529723 0
M  V30 3892 H 371.514 3.30448 -0.93054 0
M  V30 3893 N 373.959 -0.0401083 1.57549 0
M  V30 3894 C 374.906 -1.04413 2.05831 0
M  V30 3895 C 375.876 -1.36585 0.945184 0
M  V30 3896 O 377.061 -1.47112 1.21502 0
M  V30 3897 C 374.201 -2.34336 2.53339 0
M  V30 3898 C 373.314 -2.08419 3.78398 0
M  V30 3899 C 372.449 -3.32133 4.14561 0
M  V30 3900 C 371.488 -3.01721 5.3257 0
M  V30 3901 N 370.625 -4.17855 5.64218 0
M  V30 3902 H 375.465 -0.625442 2.91363 0
M  V30 3903 H 373.002 -0.297218 1.44066 0
M  V30 3904 H 374.96 -3.10234 2.78946 0
M  V30 3905 H 373.59 -2.73948 1.7074 0
M  V30 3906 H 372.642 -1.23069 3.59942 0
M  V30 3907 H 373.954 -1.81978 4.64419 0
M  V30 3908 H 373.108 -4.16406 4.41238 0
M  V30 3909 H 371.847 -3.61678 3.2717 0
M  V30 3910 H 370.852 -2.15849 5.05657 0
M  V30 3911 H 372.077 -2.73466 6.21605 0
M  V30 3912 H 370.023 -4.47372 4.79786 0
M  V30 3913 H 369.94 -3.94798 6.44725 0
M  V30 3914 H 371.208 -5.03033 5.95465 0
M  V30 3915 N 375.437 -1.54477 -0.31217 0
M  V30 3916 C 376.853 -1.45442 -0.657185 0
M  V30 3917 C 377.053 -0.63653 -1.91182 0
M  V30 3918 O 376.109 -0.139815 -2.52113 0
M  V30 3919 C 377.422 -2.89287 -0.82058 0
M  V30 3920 C 378.97 -2.9926 -0.917188 0
M  V30 3921 C 379.445 -4.44279 -1.11267 0
M  V30 3922 N 380.936 -4.4794 -1.17914 0
M  V30 3923 C 381.671 -5.57318 -1.34848 0
M  V30 3924 N 381.167 -6.76642 -1.48752 0
M  V30 3925 N 382.96 -5.44986 -1.37647 0
M  V30 3926 H 375.111 -2.06129 0.512313 0
M  V30 3927 H 377.374 -0.933088 0.167485 0
M  V30 3928 H 377.08 -3.51687 0.0302604 0
M  V30 3929 H 376.954 -3.36061 -1.71298 0
M  V30 3930 H 379.341 -2.36981 -1.75852 0
M  V30 3931 H 379.422 -2.558 -0.00101257 0
M  V30 3932 H 379.066 -5.07149 -0.27614 0
M  V30 3933 H 378.996 -4.85359 -2.04289 0
M  V30 3934 H 381.487 -3.61969 -1.08567 0
M  V30 3935 H 381.8 -7.55758 -1.61397 0
M  V30 3936 H 380.145 -6.79529 -1.45828 0
M  V30 3937 H 383.336 -4.50715 -1.26388 0
M  V30 3938 H 383.509 -6.3028 -1.50501 0
M  V30 3939 N 376.915 0.57481 -1.46744 0
M  V30 3940 C 378.163 1.33009 -1.52161 0
M  V30 3941 C 378.484 1.94185 -0.178092 0
M  V30 3942 O 377.754 1.7899 0.796196 0
M  V30 3943 H 376.334 0.493873 -0.560445 0
M  V30 3944 H 378.996 0.672589 -1.82927 0
M  V30 3945 H 378.092 2.13273 -2.27862 0
M  V30 3946 N 378.394 1.34581 0.820102 0
M  V30 3947 C 379.344 1.22943 1.92013 0
M  V30 3948 C 380.328 0.127802 1.60392 0
M  V30 3949 O 381.52 0.357737 1.73347 0
M  V30 3950 C 378.649 0.989938 3.28717 0
M  V30 3951 C 377.735 2.13486 3.66449 0
M  V30 3952 N 378.126 3.38625 3.75722 0
M  V30 3953 C 376.424 2.04573 3.96315 0
M  V30 3954 C 377.125 4.13832 4.08801 0
M  V30 3955 N 376.101 3.42451 4.22171 0
M  V30 3956 H 379.903 2.17771 1.97365 0
M  V30 3957 H 377.417 1.2686 1.01392 0
M  V30 3958 H 379.414 0.887462 4.07345 0
M  V30 3959 H 378.074 0.0503691 3.24661 0
M  V30 3960 H 379.085 3.73143 3.59144 0
M  V30 3961 H 375.762 1.1839 4.00362 0
M  V30 3962 H 377.152 5.21909 4.23156 0
M  V30 3963 N 379.872 -1.04064 1.18357 0
M  V30 3964 C 381.288 -1.2947 0.933258 0
M  V30 3965 C 381.488 -1.97466 -0.401169 0
M  V30 3966 O 380.544 -2.25528 -1.13549 0
M  V30 3967 C 381.857 -2.15337 2.09882 0
M  V30 3968 C 383.405 -2.28683 2.13712 0
M  V30 3969 C 383.88 -3.17917 3.29686 0
M  V30 3970 N 385.371 -3.25504 3.29547 0
M  V30 3971 C 386.106 -3.94706 4.15926 0
M  V30 3972 N 385.602 -4.66239 5.12439 0
M  V30 3973 N 387.395 -3.90986 4.0384 0
M  V30 3974 H 379.546 -0.583359 2.04232 0
M  V30 3975 H 381.809 -0.319921 0.892387 0
M  V30 3976 H 381.515 -1.72682 3.06389 0
M  V30 3977 H 381.389 -3.16015 2.05947 0
M  V30 3978 H 383.776 -2.70575 1.17784 0
M  V30 3979 H 383.857 -1.27596 2.21705 0
M  V30 3980 H 383.501 -2.76736 4.25887 0
M  V30 3981 H 383.431 -4.19036 3.1893 0
M  V30 3982 H 385.922 -2.74547 2.59677 0
M  V30 3983 H 386.235 -5.16638 5.74722 0
M  V30 3984 H 384.58 -4.65143 5.16398 0
M  V30 3985 H 387.771 -3.34234 3.27727 0
M  V30 3986 H 387.944 -4.44646 4.71375 0
M  V30 3987 N 381.35 -0.985608 -1.22978 0
M  V30 3988 C 382.313 -0.535071 -2.22867 0
M  V30 3989 C 383.313 0.378123 -1.56291 0
M  V30 3990 O 384.503 0.171092 -1.73358 0
M  V30 3991 C 381.635 0.222702 -3.40172 0
M  V30 3992 H 382.828 -1.41835 -2.6424 0
M  V30 3993 H 380.381 -0.772042 -1.35901 0
M  V30 3994 H 381.116 1.12229 -3.04262 0
M  V30 3995 H 380.901 -0.43288 -3.89703 0
M  V30 3996 H 382.391 0.526335 -4.1427 0
M  V30 3997 N 382.828 1.3818 -0.7579 0
M  V30 3998 C 384.056 2.04301 -0.326937 0
M  V30 3999 C 384.471 1.57163 1.0462 0
M  V30 4000 O 383.828 0.746626 1.66529 0
M  V30 4001 C 383.879 3.59846 -0.345363 0
M  V30 4002 O 383.6 4.05256 -1.66432 0
M  V30 4003 C 385.101 4.4319 0.098927 0
M  V30 4004 H 382.321 0.656443 -0.139012 0
M  V30 4005 H 384.865 1.76786 -1.02796 0
M  V30 4006 H 383.02 3.86182 0.306955 0
M  V30 4007 H 383.434 4.99709 -1.59345 0
M  V30 4008 H 384.908 5.51989 0.0348745 0
M  V30 4009 H 385.385 4.23947 1.14741 0
M  V30 4010 H 385.991 4.22051 -0.52468 0
M  V30 4011 O 384.345 0.648902 1.4789 0
M  V30 4012 H 385.036 0.173089 1.92925 0
M  V30 END ATOM
M  V30 BEGIN BOND
M  V30 END BOND
M  V30 END CTAB
M  END
$$$$
