drugbank_target|P48058 Glutamate receptor 4 (DB00142; DB00237; DB00898; DB04982; DB05047; DB13146)
 OpenBabel12092119413D

  0  0  0     0  0            999 V3000
M  V30 BEGIN CTAB
M  V30 COUNTS 14211 14373 0 0 0
M  V30 BEGIN ATOM
M  V30 1 H -0.908 1.98254 -0.117106 0
M  V30 2 N 0 1.576 0 0
M  V30 3 C 0.933 2.03868 1.02534 0
M  V30 4 C 1.911 0.928543 1.3348 0
M  V30 5 O 3.095 1.19667 1.45644 0
M  V30 6 C 0.222 2.43627 2.35294 0
M  V30 7 C -0.732 3.65373 2.2001 0
M  V30 8 S 0.101 5.13292 1.52614 0
M  V30 9 C 1.257 5.56322 2.86805 0
M  V30 10 H 1.49 2.90518 0.631377 0
M  V30 11 H -0.977 1.52953 0.210867 0
M  V30 12 H 0.981 2.67203 3.11629 0
M  V30 13 H -0.358 1.57376 2.7183 0
M  V30 14 H -1.165 3.90944 3.18086 0
M  V30 15 H -1.563 3.418 1.51819 0
M  V30 16 H 0.729 5.58782 3.83104 0
M  V30 17 H 1.672 6.56266 2.65933 0
M  V30 18 H 2.08 4.83886 2.90714 0
M  V30 19 N 1.4781 -0.272755 1.55222 0
M  V30 20 C 2.8941 -0.619959 1.47067 0
M  V30 21 C 3.0941 -1.895 0.684978 0
M  V30 22 O 2.1501 -2.51675 0.203931 0
M  V30 23 C 3.4631 -0.746693 2.91282 0
M  V30 24 C 5.0111 -0.840731 3.01497 0
M  V30 25 C 5.4861 -0.99924 4.46967 0
M  V30 26 N 6.9771 -1.06476 4.50796 0
M  V30 27 C 7.7121 -1.20621 5.6057 0
M  V30 28 N 7.2081 -1.31483 6.80209 0
M  V30 29 N 9.0011 -1.23733 5.48312 0
M  V30 30 H 1.1521 0.564606 2.04758 0
M  V30 31 H 3.4151 0.191177 0.928523 0
M  V30 32 H 3.1211 0.119753 3.51496 0
M  V30 33 H 2.9951 -1.6269 3.40311 0
M  V30 34 H 5.3821 -1.69764 2.41379 0
M  V30 35 H 5.4631 0.0640874 2.5572 0
M  V30 36 H 5.1071 -0.146984 5.07687 0
M  V30 37 H 5.0371 -1.91871 4.90401 0
M  V30 38 H 7.5281 -0.993196 3.64615 0
M  V30 39 H 7.8411 -1.42111 7.59621 0
M  V30 40 H 6.1861 -1.28487 6.8302 0
M  V30 41 H 9.3771 -1.14877 4.53785 0
M  V30 42 H 9.5501 -1.34412 6.33906 0
M  V30 43 N 2.9562 -1.48159 -0.537278 0
M  V30 44 C 4.2052 -1.5506 -1.28993 0
M  V30 45 C 4.5182 -0.226211 -1.94288 0
M  V30 46 O 5.7242 -0.173395 -2.70946 0
M  V30 47 C 4.1802 -2.73429 -2.34018 0
M  V30 48 C 3.7882 -4.1248 -1.74825 0
M  V30 49 C 5.5322 -2.89638 -3.10339 0
M  V30 50 C 3.4392 -5.22121 -2.77747 0
M  V30 51 H 2.3692 -0.577231 -0.485098 0
M  V30 52 H 5.0202 -1.74478 -0.568317 0
M  V30 53 H 3.4022 -2.47431 -3.09182 0
M  V30 54 H 4.5762 -4.48466 -1.05899 0
M  V30 55 H 2.8912 -4.01327 -1.11022 0
M  V30 56 H 5.4882 -3.68718 -3.87235 0
M  V30 57 H 5.8312 -1.9882 -3.65754 0
M  V30 58 H 6.3642 -3.15502 -2.42288 0
M  V30 59 H 3.1032 -6.1488 -2.27161 0
M  V30 60 H 2.6232 -4.90631 -3.45024 0
M  V30 61 H 4.3022 -5.49924 -3.4087 0
M  V30 62 N 4.4343 0.785586 -1.36625 0
M  V30 63 C 5.6833 1.53883 -1.30396 0
M  V30 64 C 5.9963 1.95271 0.113452 0
M  V30 65 O 7.2023 2.69858 0.298142 0
M  V30 66 C 5.6583 2.77808 -2.28802 0
M  V30 67 C 5.2663 2.43574 -3.75999 0
M  V30 68 C 7.0103 3.55783 -2.31558 0
M  V30 69 C 4.9173 3.63919 -4.66173 0
M  V30 70 H 3.8473 0.577678 -0.484566 0
M  V30 71 H 6.4983 0.861705 -1.62009 0
M  V30 72 H 4.8803 3.47339 -1.90188 0
M  V30 73 H 6.0543 1.81916 -4.23371 0
M  V30 74 H 4.3693 1.78803 -3.76056 0
M  V30 75 H 6.9663 4.45205 -2.96137 0
M  V30 76 H 7.3093 3.94644 -1.3252 0
M  V30 77 H 7.8423 2.93235 -2.68809 0
M  V30 78 H 4.5813 3.3015 -5.66287 0
M  V30 79 H 4.1013 4.2473 -4.23515 0
M  V30 80 H 5.7803 4.30901 -4.82632 0
M  V30 81 N 5.9124 1.20967 1.01018 0
M  V30 82 C 7.1374 1.0503 1.78839 0
M  V30 83 C 7.5624 -0.395752 1.8389 0
M  V30 84 O 6.9204 -1.28529 1.27867 0
M  V30 85 C 6.9684 1.64602 3.2084 0
M  V30 86 O 6.0724 0.887988 4.02726 0
M  V30 87 H 5.4134 0.369987 0.551367 0
M  V30 88 H 7.9434 1.60399 1.27018 0
M  V30 89 H 7.9534 1.68607 3.71532 0
M  V30 90 H 6.6284 2.69841 3.16479 0
M  V30 91 H 5.2054 0.922648 3.61305 0
M  V30 92 N 7.3905 -1.2043 1.01659 0
M  V30 93 C 8.8065 -1.41852 0.731442 0
M  V30 94 C 9.0065 -1.89358 -0.688898 0
M  V30 95 O 8.0625 -2.06247 -1.45666 0
M  V30 96 C 9.3755 -2.44019 1.75714 0
M  V30 97 C 10.9235 -2.57785 1.77527 0
M  V30 98 C 11.3985 -3.63194 2.79023 0
M  V30 99 N 12.8895 -3.70678 2.77763 0
M  V30 100 C 13.6245 -4.51897 3.52954 0
M  V30 101 N 13.1205 -5.36921 4.37821 0
M  V30 102 N 14.9135 -4.4643 3.41551 0
M  V30 103 H 7.0645 -0.879093 1.93354 0
M  V30 104 H 9.3275 -0.448425 0.835236 0
M  V30 105 H 9.0335 -2.1611 2.77469 0
M  V30 106 H 8.9075 -3.43007 1.56927 0
M  V30 107 H 11.2945 -2.85023 0.764569 0
M  V30 108 H 11.3755 -1.58992 2.00387 0
M  V30 109 H 11.0195 -3.36699 3.80258 0
M  V30 110 H 10.9495 -4.61609 2.53425 0
M  V30 111 H 13.4405 -3.09944 2.16201 0
M  V30 112 H 13.7535 -5.95981 4.91962 0
M  V30 113 H 12.0985 -5.36424 4.41899 0
M  V30 114 H 15.2895 -3.79042 2.74672 0
M  V30 115 H 15.4625 -5.09491 4.00404 0
M  V30 116 N 8.8686 -0.792821 -1.36206 0
M  V30 117 C 9.8006 -0.151469 -2.28699 0
M  V30 118 C 10.8136 0.641262 -1.49638 0
M  V30 119 O 12.0026 0.475885 -1.72039 0
M  V30 120 C 9.1026 0.808424 -3.29117 0
M  V30 121 C 8.2756 0.0650202 -4.37352 0
M  V30 122 C 7.3346 0.941358 -5.17711 0
M  V30 123 O 6.3606 0.397352 -5.67811 0
M  V30 124 N 7.5626 2.2652 -5.3448 0
M  V30 125 H 10.3276 -0.945982 -2.84379 0
M  V30 126 H 7.8886 -0.647032 -1.48409 0
M  V30 127 H 9.8806 1.3986 -3.79765 0
M  V30 128 H 8.4506 1.5038 -2.74052 0
M  V30 129 H 7.6706 -0.706255 -3.87822 0
M  V30 130 H 8.9586 -0.447847 -5.06825 0
M  V30 131 H 8.3566 2.73128 -4.95396 0
M  V30 132 H 6.9136 2.80493 -5.88359 0
M  V30 133 N 10.3467 1.47872 -0.545128 0
M  V30 134 C 11.5957 2.01695 -0.0145033 0
M  V30 135 C 11.9087 1.42609 1.33873 0
M  V30 136 O 13.1147 1.88021 1.95858 0
M  V30 137 C 11.5707 3.59892 0.0245068 0
M  V30 138 C 11.1787 4.27966 -1.32475 0
M  V30 139 C 12.9227 4.21507 0.50316 0
M  V30 140 C 10.8297 5.78136 -1.2455 0
M  V30 141 H 9.7597 0.753998 -0.00165172 0
M  V30 142 H 12.4107 1.69985 -0.691175 0
M  V30 143 H 10.7927 3.88509 0.766575 0
M  V30 144 H 11.9667 4.11003 -2.08357 0
M  V30 145 H 10.2817 3.78286 -1.74036 0
M  V30 146 H 12.8787 5.31538 0.580656 0
M  V30 147 H 13.2217 3.87855 1.51243 0
M  V30 148 H 13.7547 3.97376 -0.183681 0
M  V30 149 H 10.4937 6.16388 -2.23039 0
M  V30 150 H 10.0137 5.97469 -0.528282 0
M  V30 151 H 11.6927 6.40099 -0.942488 0
M  V30 152 N 11.8248 0.280983 1.55075 0
M  V30 153 C 13.0708 -0.33461 2.00021 0
M  V30 154 C 13.4038 -1.55063 1.16915 0
M  V30 155 O 12.6788 -1.93006 0.240646 0
M  V30 156 C 12.9618 -0.711007 3.53011 0
M  V30 157 C 12.8148 0.512766 4.46868 0
M  V30 158 C 14.1338 -1.54522 4.12081 0
M  V30 159 H 11.2528 -0.120147 0.727141 0
M  V30 160 H 13.8948 0.389097 1.85973 0
M  V30 161 H 12.0448 -1.32761 3.65112 0
M  V30 162 H 13.7168 1.15131 4.46702 0
M  V30 163 H 11.9598 1.14975 4.18286 0
M  V30 164 H 12.6308 0.205556 5.51617 0
M  V30 165 H 15.1068 -1.02442 4.03293 0
M  V30 166 H 13.9828 -1.77739 5.19327 0
M  V30 167 H 14.2438 -2.52813 3.62682 0
M  V30 168 N 13.3029 -1.57598 0.00835791 0
M  V30 169 C 14.2329 -2.1198 -0.979113 0
M  V30 170 C 15.2139 -1.03091 -1.35301 0
M  V30 171 O 16.3989 -1.30818 -1.43528 0
M  V30 172 C 13.5289 -2.62995 -2.26828 0
M  V30 173 C 12.4829 -3.76485 -2.03576 0
M  V30 174 C 11.8089 -4.13846 -3.38579 0
M  V30 175 C 13.1089 -5.0342 -1.39161 0
M  V30 176 H 14.8029 -2.94738 -0.526281 0
M  V30 177 H 12.3489 -1.41783 -0.251704 0
M  V30 178 H 14.3019 -2.99669 -2.96271 0
M  V30 179 H 13.0259 -1.7737 -2.7424 0
M  V30 180 H 11.6849 -3.40217 -1.36557 0
M  V30 181 H 11.3329 -3.25232 -3.83709 0
M  V30 182 H 11.0329 -4.90312 -3.23834 0
M  V30 183 H 12.5569 -4.53086 -4.09323 0
M  V30 184 H 13.9709 -5.37812 -1.98573 0
M  V30 185 H 12.3679 -5.84746 -1.34878 0
M  V30 186 H 13.4379 -4.83548 -0.361868 0
M  V30 187 N 14.781 0.264519 -1.55364 0
M  V30 188 C 15.711 1.33121 -1.91836 0
M  V30 189 C 16.692 1.51101 -0.781192 0
M  V30 190 O 17.877 1.64003 -1.04003 0
M  V30 191 C 15.007 2.68921 -2.19769 0
M  V30 192 C 13.961 2.65661 -3.35571 0
M  V30 193 C 13.287 4.05093 -3.49004 0
M  V30 194 C 14.587 2.24187 -4.71739 0
M  V30 195 H 16.281 1.02844 -2.81182 0
M  V30 196 H 13.827 0.493286 -1.35287 0
M  V30 197 H 15.78 3.43663 -2.43872 0
M  V30 198 H 14.504 3.00799 -1.27231 0
M  V30 199 H 13.163 1.93377 -3.1145 0
M  V30 200 H 12.811 4.34206 -2.53917 0
M  V30 201 H 12.511 4.03804 -4.26868 0
M  V30 202 H 14.035 4.81561 -3.75408 0
M  V30 203 H 15.449 2.88654 -4.9533 0
M  V30 204 H 13.846 2.34044 -5.52579 0
M  V30 205 H 14.916 1.19327 -4.69988 0
M  V30 206 N 16.2591 1.48442 0.529413 0
M  V30 207 C 17.5061 1.56488 1.28521 0
M  V30 208 C 17.8341 0.239042 1.93025 0
M  V30 209 O 17.0891 -0.770713 1.79885 0
M  V30 210 C 17.3881 2.6523 2.39558 0
M  V30 211 C 17.0541 4.07648 1.92702 0
M  V30 212 C 15.7161 4.46411 1.79641 0
M  V30 213 C 18.0681 4.96896 1.573 0
M  V30 214 C 15.3961 5.72226 1.29514 0
M  V30 215 C 17.7481 6.23202 1.08636 0
M  V30 216 C 16.4121 6.60821 0.941919 0
M  V30 217 H 15.6821 0.572631 0.470292 0
M  V30 218 H 18.3291 1.82161 0.59072 0
M  V30 219 H 16.6341 2.33419 3.14679 0
M  V30 220 H 18.3311 2.68671 2.97686 0
M  V30 221 H 14.9211 3.77036 2.03819 0
M  V30 222 H 19.1051 4.67626 1.66251 0
M  V30 223 H 14.3611 6.00097 1.17019 0
M  V30 224 H 18.5351 6.91753 0.803136 0
M  V30 225 H 16.1621 7.58198 0.5513 0
M  V30 226 N 17.7372 -0.778329 1.37039 0
M  V30 227 C 18.9622 -1.57248 1.35233 0
M  V30 228 C 19.3872 -1.87999 -0.0615568 0
M  V30 229 O 18.7452 -1.48734 -1.03672 0
M  V30 230 C 18.7932 -2.86353 2.19167 0
M  V30 231 O 17.8972 -3.80442 1.59178 0
M  V30 232 H 17.2382 -0.476569 0.462362 0
M  V30 233 H 19.7682 -0.963853 1.80474 0
M  V30 234 H 19.7782 -3.35519 2.32145 0
M  V30 235 H 18.4532 -2.63299 3.21942 0
M  V30 236 H 17.0302 -3.39067 1.55203 0
M  V30 237 N 19.2153 -1.21501 -1.00376 0
M  V30 238 C 20.4633 -1.03095 -1.73827 0
M  V30 239 C 20.7843 0.436341 -1.90055 0
M  V30 240 O 20.0543 1.31466 -1.45236 0
M  V30 241 H 18.6343 -0.378487 -0.644016 0
M  V30 242 H 21.2963 -1.52831 -1.20949 0
M  V30 243 H 20.3923 -1.49991 -2.73695 0
M  V30 244 N 20.6934 1.19889 -1.02296 0
M  V30 245 C 21.9404 1.8942 -0.715972 0
M  V30 246 C 22.2684 1.79251 0.754944 0
M  V30 247 O 21.5234 1.17526 1.56481 0
M  V30 248 C 21.8224 3.39883 -1.10518 0
M  V30 249 C 21.4884 3.70254 -2.57337 0
M  V30 250 C 20.1504 3.78254 -2.97452 0
M  V30 251 C 22.5024 3.84052 -3.52354 0
M  V30 252 C 19.8304 3.97514 -4.31509 0
M  V30 253 C 22.1824 4.04824 -4.86108 0
M  V30 254 C 20.8464 4.11054 -5.25919 0
M  V30 255 H 20.1164 0.693138 -0.261993 0
M  V30 256 H 22.7634 1.42012 -1.28472 0
M  V30 257 H 21.0684 3.8915 -0.454953 0
M  V30 258 H 22.7654 3.9199 -0.845261 0
M  V30 259 H 19.3554 3.64632 -2.25258 0
M  V30 260 H 23.5394 3.77221 -3.22518 0
M  V30 261 H 18.7954 4.00574 -4.61898 0
M  V30 262 H 22.9694 4.14442 -5.59653 0
M  V30 263 H 20.5964 4.2573 -6.29808 0
M  V30 264 N 22.1715 0.800033 1.35784 0
M  V30 265 C 23.4175 0.38701 1.99684 0
M  V30 266 C 23.7725 -1.03268 1.62338 0
M  V30 267 O 23.0655 -1.70543 0.87325 0
M  V30 268 C 23.2595 0.500276 3.53881 0
M  V30 269 C 23.0885 1.92942 4.06206 0
M  V30 270 C 21.8585 2.55637 4.35865 0
M  V30 271 C 24.0565 2.89307 4.25213 0
M  V30 272 N 22.0385 3.9003 4.74078 0
M  V30 273 C 23.4095 4.08556 4.66349 0
M  V30 274 C 25.4645 2.86225 4.07406 0
M  V30 275 C 24.1675 5.25146 4.91543 0
M  V30 276 C 26.1935 4.02011 4.33752 0
M  V30 277 C 25.5555 5.20007 4.75155 0
M  V30 278 H 21.6545 0.189252 0.758754 0
M  V30 279 H 24.2385 1.03988 1.64604 0
M  V30 280 H 22.4095 -0.122568 3.88207 0
M  V30 281 H 24.1415 0.0624733 4.04652 0
M  V30 282 H 20.8965 2.07039 4.25948 0
M  V30 283 H 21.3205 4.59205 4.97454 0
M  V30 284 H 25.9625 1.96154 3.74544 0
M  V30 285 H 23.6805 6.15794 5.23281 0
M  V30 286 H 27.2665 4.00999 4.21534 0
M  V30 287 H 26.1465 6.08113 4.95145 0
M  V30 288 N 23.6496 -1.47581 0.552962 0
M  V30 289 C 24.8976 -2.02082 0.0272703 0
M  V30 290 C 25.2186 -1.4301 -1.32563 0
M  V30 291 O 24.4886 -0.603745 -1.86365 0
M  V30 292 H 23.0686 -0.746966 0.00709182 0
M  V30 293 H 25.7306 -1.81033 0.722008 0
M  V30 294 H 24.8266 -3.12034 -0.0639951 0
M  V30 295 N 25.1277 -0.289203 -1.54924 0
M  V30 296 C 26.0577 0.58549 -2.2604 0
M  V30 297 C 27.0387 1.14753 -1.25562 0
M  V30 298 O 28.2237 1.17906 -1.54311 0
M  V30 299 C 25.3537 1.76305 -2.99222 0
M  V30 300 C 24.3077 1.33191 -4.06748 0
M  V30 301 C 23.6337 2.5937 -4.6758 0
M  V30 302 C 24.9337 0.471775 -5.20165 0
M  V30 303 H 26.6277 -0.00763532 -2.99399 0
M  V30 304 H 24.1737 -0.00511229 -1.43999 0
M  V30 305 H 26.1267 2.38097 -3.47689 0
M  V30 306 H 24.8507 2.38223 -2.23422 0
M  V30 307 H 23.5097 0.737121 -3.59113 0
M  V30 308 H 23.1577 3.19576 -3.88433 0
M  V30 309 H 22.8577 2.31228 -5.40192 0
M  V30 310 H 24.3817 3.21985 -5.18804 0
M  V30 311 H 25.7957 0.995056 -5.64599 0
M  V30 312 H 24.1927 0.284639 -5.99425 0
M  V30 313 H 25.2627 -0.506041 -4.82252 0
M  V30 314 N 26.6058 1.57591 -0.0167156 0
M  V30 315 C 27.5688 2.08393 0.954204 0
M  V30 316 C 28.5688 0.996531 1.26198 0
M  V30 317 O 29.7588 1.25858 1.20438 0
M  V30 318 C 26.8908 2.5394 2.27436 0
M  V30 319 H 28.0838 2.95455 0.514451 0
M  V30 320 H 25.6368 1.54582 0.231089 0
M  V30 321 H 26.3718 1.70171 2.76066 0
M  V30 322 H 26.1568 3.33371 2.06412 0
M  V30 323 H 27.6468 2.93512 2.97053 0
M  V30 324 N 28.0839 -0.256276 1.55502 0
M  V30 325 C 29.0169 -1.34321 1.84481 0
M  V30 326 C 29.9949 -1.46802 0.699131 0
M  V30 327 O 31.1789 -1.63165 0.943904 0
M  V30 328 C 28.3059 -2.71779 2.02123 0
M  V30 329 C 27.3519 -2.76496 3.24734 0
M  V30 330 S 28.1849 -2.3405 4.81644 0
M  V30 331 C 29.3409 -3.73452 5.02279 0
M  V30 332 H 29.5739 -1.09539 2.76385 0
M  V30 333 H 27.1069 -0.45678 1.47489 0
M  V30 334 H 29.0649 -3.50932 2.12972 0
M  V30 335 H 27.7259 -2.93803 1.11078 0
M  V30 336 H 26.9189 -3.77424 3.34016 0
M  V30 337 H 26.5209 -2.05379 3.12563 0
M  V30 338 H 28.8129 -4.6887 4.89047 0
M  V30 339 H 29.7559 -3.6911 6.04287 0
M  V30 340 H 30.1639 -3.6553 4.30172 0
M  V30 341 N 29.562 -1.4872 -0.521534 0
M  V30 342 C 30.81 -1.56857 -1.27437 0
M  V30 343 C 31.131 -0.247982 -1.93417 0
M  V30 344 O 30.401 0.731151 -1.81744 0
M  V30 345 H 28.981 -0.577885 -0.473347 0
M  V30 346 H 31.643 -1.85233 -0.606205 0
M  V30 347 H 30.739 -2.35402 -2.0492 0
M  V30 348 N 31.0401 0.771051 -1.3745 0
M  V30 349 C 32.0031 1.86598 -1.33093 0
M  V30 350 C 33.0031 1.59076 -0.234845 0
M  V30 351 O 34.1931 1.67145 -0.490732 0
M  V30 352 C 31.3251 3.23747 -1.06773 0
M  V30 353 H 32.5181 1.91873 -2.30488 0
M  V30 354 H 30.0711 0.970876 -1.2249 0
M  V30 355 H 30.8061 3.24148 -0.099129 0
M  V30 356 H 30.5911 3.45115 -1.86112 0
M  V30 357 H 32.0811 4.03824 -1.06377 0
M  V30 358 N 32.5182 1.22032 0.997298 0
M  V30 359 C 33.7652 1.04222 1.73621 0
M  V30 360 C 34.0932 -0.423264 1.89839 0
M  V30 361 O 33.3482 -1.3302 1.43542 0
M  V30 362 C 33.6472 1.69345 3.14733 0
M  V30 363 C 33.3132 3.19226 3.18442 0
M  V30 364 C 31.9752 3.60124 3.19161 0
M  V30 365 C 34.3272 4.15181 3.15078 0
M  V30 366 C 31.6552 4.95467 3.14212 0
M  V30 367 C 34.0072 5.50495 3.1167 0
M  V30 368 C 32.6712 5.90779 3.10703 0
M  V30 369 H 31.9412 0.381374 0.635323 0
M  V30 370 H 34.5882 1.51732 1.16831 0
M  V30 371 H 32.8932 1.14147 3.74803 0
M  V30 372 H 34.5902 1.53059 3.7064 0
M  V30 373 H 31.1802 2.86659 3.18629 0
M  V30 374 H 35.3642 3.84605 3.13676 0
M  V30 375 H 30.6202 5.25916 3.11805 0
M  V30 376 H 34.7942 6.24576 3.08022 0
M  V30 377 H 32.4212 6.9562 3.06622 0
M  V30 378 N 33.9963 -1.19345 1.0293 0
M  V30 379 C 35.4073 -1.70725 0.755633 0
M  V30 380 C 35.7583 -1.82326 -0.724676 0
M  V30 381 O 34.8833 -1.49471 -1.56484 0
M  V30 382 C 35.4783 -3.10084 1.36503 0
M  V30 383 C 34.0373 -3.58723 1.13994 0
M  V30 384 C 33.1843 -2.35577 1.46283 0
M  V30 385 H 36.1353 -1.0418 1.19718 0
M  V30 386 H 36.1563 -3.72787 0.762217 0
M  V30 387 H 35.6683 -3.01609 2.44241 0
M  V30 388 H 33.7693 -3.72512 0.0807901 0
M  V30 389 H 33.8823 -4.42816 1.82894 0
M  V30 390 H 32.2463 -2.38935 0.88217 0
M  V30 391 H 33.0293 -2.29731 2.55105 0
M  V30 392 N 35.4744 -0.807222 -1.35358 0
M  V30 393 C 36.6994 -0.399309 -2.0352 0
M  V30 394 C 37.1244 0.981986 -1.60433 0
M  V30 395 O 36.4824 1.63601 -0.781299 0
M  V30 396 C 36.5304 -0.491552 -3.57234 0
M  V30 397 O 35.6344 0.494754 -4.09421 0
M  V30 398 H 34.9754 -0.166682 -0.642739 0
M  V30 399 H 37.5054 -1.09328 -1.72941 0
M  V30 400 H 37.5154 -0.361588 -4.06395 0
M  V30 401 H 36.1904 -1.49907 -3.87944 0
M  V30 402 H 34.7674 0.324977 -3.71481 0
M  V30 403 N 36.9525 1.47285 -0.560781 0
M  V30 404 C 38.1775 2.07359 -0.0410566 0
M  V30 405 C 38.6025 1.41017 1.24483 0
M  V30 406 O 37.9605 0.486368 1.74654 0
M  V30 407 C 38.0085 3.6035 0.134123 0
M  V30 408 O 37.1125 3.94681 1.19587 0
M  V30 409 H 36.4535 0.661887 -0.0529291 0
M  V30 410 H 38.9835 1.89252 -0.777482 0
M  V30 411 H 38.9935 4.0652 0.347207 0
M  V30 412 H 37.6685 4.08034 -0.805047 0
M  V30 413 H 36.2455 3.60251 0.962987 0
M  V30 414 N 38.4306 0.297415 1.54768 0
M  V30 415 C 39.6766 -0.313376 2.00364 0
M  V30 416 C 40.0096 -1.53815 1.18553 0
M  V30 417 O 39.2846 -1.92739 0.261103 0
M  V30 418 C 39.5676 -0.673525 3.53745 0
M  V30 419 C 39.4206 0.560133 4.46299 0
M  V30 420 C 40.7396 -1.50143 4.13697 0
M  V30 421 H 37.8586 -0.112428 0.728374 0
M  V30 422 H 40.5006 0.4088 1.8555 0
M  V30 423 H 38.6506 -1.28881 3.665 0
M  V30 424 H 40.3226 1.19863 4.45455 0
M  V30 425 H 38.5656 1.19405 4.17043 0
M  V30 426 H 39.2366 0.26405 5.51368 0
M  V30 427 H 41.7126 -0.981588 4.04356 0
M  V30 428 H 40.5886 -1.72221 5.21182 0
M  V30 429 H 40.8496 -2.48952 3.65343 0
M  V30 430 N 39.9087 -1.5758 0.0250728 0
M  V30 431 C 40.8407 -2.06869 -0.986796 0
M  V30 432 C 41.8537 -0.991332 -1.29137 0
M  V30 433 O 43.0427 -1.26761 -1.25674 0
M  V30 434 C 40.1427 -2.47486 -2.31525 0
M  V30 435 C 39.3157 -3.78253 -2.19643 0
M  V30 436 C 38.3747 -4.05464 -3.35388 0
M  V30 437 O 37.4007 -4.75774 -3.12454 0
M  V30 438 N 38.6027 -3.55321 -4.59051 0
M  V30 439 H 41.3677 -2.94302 -0.566276 0
M  V30 440 H 38.9287 -1.6109 -0.161776 0
M  V30 441 H 40.9207 -2.62785 -3.07776 0
M  V30 442 H 39.4907 -1.65441 -2.65232 0
M  V30 443 H 38.7107 -3.7279 -1.28144 0
M  V30 444 H 39.9987 -4.63936 -2.08903 0
M  V30 445 H 39.3967 -2.98431 -4.80578 0
M  V30 446 H 37.9537 -3.75905 -5.32483 0
M  V30 447 N 41.3868 0.248026 -1.55636 0
M  V30 448 C 42.6358 0.974134 -1.76617 0
M  V30 449 C 42.9488 1.86528 -0.588796 0
M  V30 450 O 44.1548 2.62805 -0.681594 0
M  V30 451 C 42.6108 1.78213 -3.12679 0
M  V30 452 C 42.2188 0.93843 -4.38061 0
M  V30 453 C 43.9628 2.50104 -3.42999 0
M  V30 454 C 41.8698 1.74225 -5.65155 0
M  V30 455 H 40.7998 0.36745 -0.658405 0
M  V30 456 H 43.4508 0.22884 -1.82067 0
M  V30 457 H 41.8328 2.56933 -3.01333 0
M  V30 458 H 43.0068 0.193635 -4.60393 0
M  V30 459 H 41.3218 0.332905 -4.15067 0
M  V30 460 H 43.9188 3.10694 -4.3517 0
M  V30 461 H 44.2618 3.21662 -2.64271 0
M  V30 462 H 44.7948 1.78395 -3.55556 0
M  V30 463 H 41.5338 1.07043 -6.46701 0
M  V30 464 H 41.0538 2.46235 -5.46926 0
M  V30 465 H 42.7328 2.30967 -6.0437 0
M  V30 466 N 42.8649 1.48995 0.513639 0
M  V30 467 C 44.1129 1.57531 1.26604 0
M  V30 468 C 44.4339 0.258236 1.93283 0
M  V30 469 O 43.7039 -0.721502 1.8213 0
M  V30 470 H 42.2839 0.580387 0.470276 0
M  V30 471 H 44.9459 1.85552 0.596373 0
M  V30 472 H 44.0419 2.36486 2.03669 0
M  V30 473 N 44.343 -0.763751 1.37857 0
M  V30 474 C 45.591 -1.51957 1.33243 0
M  V30 475 C 45.912 -1.94835 -0.0801709 0
M  V30 476 O 45.182 -1.66894 -1.02582 0
M  V30 477 H 43.762 -0.563626 0.49024 0
M  V30 478 H 46.424 -0.908504 1.7243 0
M  V30 479 H 45.52 -2.41523 1.97669 0
M  V30 480 N 45.8211 -1.22559 -0.990812 0
M  V30 481 C 46.7511 -1.0218 -2.09956 0
M  V30 482 C 47.7321 0.0579394 -1.70001 0
M  V30 483 O 48.9171 -0.104684 -1.93918 0
M  V30 484 C 46.0471 -0.601023 -3.4206 0
M  V30 485 C 45.0011 -1.62694 -3.95872 0
M  V30 486 C 44.3271 -1.06193 -5.24049 0
M  V30 487 C 45.6271 -3.01743 -4.2632 0
M  V30 488 H 47.3211 -1.94916 -2.27262 0
M  V30 489 H 44.8671 -0.938566 -1.09211 0
M  V30 490 H 46.8201 -0.445561 -4.19038 0
M  V30 491 H 45.5441 0.362005 -3.24588 0
M  V30 492 H 44.2031 -1.77021 -3.21028 0
M  V30 493 H 43.8511 -0.0901903 -5.02919 0
M  V30 494 H 43.5511 -1.74732 -5.61019 0
M  V30 495 H 45.0751 -0.918092 -6.03658 0
M  V30 496 H 46.4891 -2.90777 -4.94087 0
M  V30 497 H 44.8861 -3.67425 -4.74467 0
M  V30 498 H 45.9561 -3.51518 -3.34011 0
M  V30 499 N 47.2992 1.18797 -1.03562 0
M  V30 500 C 48.5462 1.8865 -0.736023 0
M  V30 501 C 48.8742 1.80041 0.735889 0
M  V30 502 O 48.1292 1.19179 1.55225 0
M  V30 503 C 48.4282 3.38692 -1.14117 0
M  V30 504 C 48.0942 3.67504 -2.6125 0
M  V30 505 C 46.7562 3.75078 -3.01447 0
M  V30 506 C 49.1082 3.80293 -3.56408 0
M  V30 507 C 46.4362 3.92915 -4.35701 0
M  V30 508 C 48.7882 3.99645 -4.90374 0
M  V30 509 C 47.4522 4.05453 -5.30249 0
M  V30 510 H 46.7222 0.690321 -0.26933 0
M  V30 511 H 49.3692 1.40641 -1.29971 0
M  V30 512 H 47.6742 3.88645 -0.496202 0
M  V30 513 H 49.3712 3.91072 -0.886789 0
M  V30 514 H 45.9612 3.62223 -2.29113 0
M  V30 515 H 50.1452 3.73779 -3.26501 0
M  V30 516 H 45.4012 3.95653 -4.66121 0
M  V30 517 H 49.5752 4.08482 -5.64017 0
M  V30 518 H 47.2022 4.19027 -6.34288 0
M  V30 519 N 48.7773 0.814389 1.34928 0
M  V30 520 C 50.0263 0.394871 1.97797 0
M  V30 521 C 50.3393 -1.04555 1.65311 0
M  V30 522 O 51.5453 -1.56856 2.21604 0
M  V30 523 C 50.0013 0.655103 3.53888 0
M  V30 524 C 49.6093 2.10858 3.95276 0
M  V30 525 C 51.3533 0.301329 4.23429 0
M  V30 526 C 49.2603 2.31415 5.44244 0
M  V30 527 H 48.1903 0.143913 0.740139 0
M  V30 528 H 50.8413 0.999544 1.53888 0
M  V30 529 H 49.2233 -0.0196253 3.95995 0
M  V30 530 H 50.3973 2.82176 3.64298 0
M  V30 531 H 48.7123 2.42297 3.38646 0
M  V30 532 H 51.3093 0.432869 5.32945 0
M  V30 533 H 51.6523 -0.75331 4.09428 0
M  V30 534 H 52.1853 0.930288 3.86769 0
M  V30 535 H 48.9243 3.35353 5.63222 0
M  V30 536 H 48.4443 1.6463 5.76764 0
M  V30 537 H 50.1233 2.13352 6.10811 0
M  V30 538 N 50.2554 -1.46986 0.568584 0
M  V30 539 C 51.6714 -1.57946 0.229189 0
M  V30 540 C 51.8714 -1.56567 -1.26843 0
M  V30 541 O 50.9274 -1.47511 -2.04931 0
M  V30 542 C 52.2404 -2.87963 0.865909 0
M  V30 543 C 53.7884 -3.01568 0.838188 0
M  V30 544 C 54.2634 -4.34301 1.45419 0
M  V30 545 N 55.7544 -4.40965 1.41788 0
M  V30 546 C 56.4894 -5.42256 1.86403 0
M  V30 547 N 55.9854 -6.50297 2.38926 0
M  V30 548 N 57.7784 -5.3337 1.77405 0
M  V30 549 H 49.9294 -1.46126 1.54146 0
M  V30 550 H 52.1924 -0.696156 0.643484 0
M  V30 551 H 51.8984 -2.94742 1.91886 0
M  V30 552 H 51.7724 -3.75423 0.365687 0
M  V30 553 H 54.1594 -2.94379 -0.206106 0
M  V30 554 H 54.2404 -2.1562 1.37629 0
M  V30 555 H 53.8844 -4.42247 2.49761 0
M  V30 556 H 53.8144 -5.19 0.891435 0
M  V30 557 H 56.3054 -3.63484 1.03381 0
M  V30 558 H 56.6184 -7.23777 2.70863 0
M  V30 559 H 54.9634 -6.51155 2.42944 0
M  V30 560 H 58.1544 -4.47865 1.3614 0
M  V30 561 H 58.3274 -6.12169 2.12492 0
M  V30 562 N 51.7335 -0.305618 -1.54608 0
M  V30 563 C 52.6815 0.584119 -2.25146 0
M  V30 564 C 53.6755 1.13326 -1.25911 0
M  V30 565 O 54.8815 1.08337 -1.43747 0
M  V30 566 H 51.2565 0.206983 -0.722954 0
M  V30 567 H 53.2275 -0.033291 -2.98381 0
M  V30 568 C 51.9765 1.74225 -3.009 0
M  V30 569 H 51.2995 1.32892 -3.77067 0
M  V30 570 H 52.7395 2.34077 -3.53531 0
M  V30 571 C 51.1985 2.64914 -2.0814 0
M  V30 572 O 51.7285 3.66137 -1.65246 0
M  V30 573 N 49.9345 2.3275 -1.74 0
M  V30 574 H 49.4815 1.50479 -2.09078 0
M  V30 575 H 49.4395 2.93694 -1.12211 0
M  V30 576 N 53.2116 1.57565 -0.0334293 0
M  V30 577 C 54.4396 1.9628 0.654347 0
M  V30 578 C 54.8546 0.910138 1.65414 0
M  V30 579 O 54.2116 -0.107595 1.82183 0
M  V30 580 C 54.2626 3.35067 1.35693 0
M  V30 581 O 53.9836 4.36296 0.397191 0
M  V30 582 C 55.4846 3.88439 2.13613 0
M  V30 583 H 52.7046 0.646369 0.180132 0
M  V30 584 H 55.2486 2.04282 -0.0944721 0
M  V30 585 H 53.4036 3.2827 2.05712 0
M  V30 586 H 53.8176 5.1678 0.896597 0
M  V30 587 H 55.2916 4.8788 2.58219 0
M  V30 588 H 55.7686 3.22914 2.97696 0
M  V30 589 H 56.3746 3.98516 1.48543 0
M  V30 590 N 54.6897 -0.239769 1.55765 0
M  V30 591 C 55.9667 -0.990056 1.68693 0
M  V30 592 C 56.3467 -2.03107 0.5754 0
M  V30 593 O 55.6947 -2.24604 -0.42017 0
M  V30 594 C 55.9047 -1.61696 3.09282 0
M  V30 595 C 57.2527 -2.11613 3.6811 0
M  V30 596 O 58.2767 -1.71624 3.12127 0
M  V30 597 O 57.1357 -2.85057 4.66267 0
M  V30 598 H 54.2297 -0.461299 0.686391 0
M  V30 599 H 56.7757 -0.232991 1.68093 0
M  V30 600 H 55.5477 -0.864357 3.81634 0
M  V30 601 H 55.1707 -2.44005 3.13923 0
M  V30 602 N 56.1678 -1.49265 -0.50573 0
M  V30 603 C 57.0998 -1.617 -1.62437 0
M  V30 604 C 58.1128 -0.499924 -1.54934 0
M  V30 605 O 59.3018 -0.771785 -1.60953 0
M  V30 606 C 56.4018 -1.5533 -3.01207 0
M  V30 607 C 55.5748 -2.8249 -3.33943 0
M  V30 608 C 54.6338 -2.69238 -4.52103 0
M  V30 609 O 53.6598 -3.43167 -4.5412 0
M  V30 610 N 54.8618 -1.80468 -5.51735 0
M  V30 611 H 57.6268 -2.58177 -1.52199 0
M  V30 612 H 55.1878 -1.46294 -0.693511 0
M  V30 613 H 57.1798 -1.44125 -3.78167 0
M  V30 614 H 55.7498 -0.667297 -3.05395 0
M  V30 615 H 54.9698 -3.08081 -2.45926 0
M  V30 616 H 56.2578 -3.66802 -3.5261 0
M  V30 617 H 55.6558 -1.19653 -5.52901 0
M  V30 618 H 54.2128 -1.75188 -6.27816 0
M  V30 619 N 57.6459 0.756429 -1.3826 0
M  V30 620 C 58.5559 1.9009 -1.37488 0
M  V30 621 C 59.5719 1.71855 -0.272366 0
M  V30 622 O 60.7479 1.94827 -0.510318 0
M  V30 623 C 57.8129 3.25421 -1.19592 0
M  V30 624 C 56.8739 3.56202 -2.39622 0
M  V30 625 C 56.1069 4.85075 -2.2257 0
M  V30 626 O 56.3299 5.57246 -1.21793 0
M  V30 627 O 55.2639 5.15269 -3.11098 0
M  V30 628 H 59.0899 1.93695 -2.33914 0
M  V30 629 H 56.6749 0.901313 -1.1915 0
M  V30 630 H 58.5569 4.06337 -1.11661 0
M  V30 631 H 57.2319 3.22634 -0.262486 0
M  V30 632 H 56.1389 2.75458 -2.53128 0
M  V30 633 H 57.4719 3.63747 -3.31586 0
M  V30 634 N 59.124 1.23083 0.984299 0
M  V30 635 C 60.354 1.08556 1.75781 0
M  V30 636 C 60.762 -0.366171 1.85623 0
M  V30 637 O 60.105 -1.26524 1.33182 0
M  V30 638 C 60.167 1.63208 3.20318 0
M  V30 639 C 59.831 3.11922 3.33997 0
M  V30 640 C 60.828 4.09259 3.2063 0
M  V30 641 C 58.513 3.51552 3.58771 0
M  V30 642 C 60.507 5.4421 3.31835 0
M  V30 643 C 58.194 4.86649 3.69616 0
M  V30 644 C 59.192 5.82787 3.56157 0
M  V30 645 O 58.88 7.15431 3.66626 0
M  V30 646 H 58.612 0.380713 0.5586 0
M  V30 647 H 61.166 1.63321 1.2456 0
M  V30 648 H 59.396 1.0286 3.72769 0
M  V30 649 H 61.085 1.44216 3.79416 0
M  V30 650 H 61.851 3.79984 3.01392 0
M  V30 651 H 57.73 2.77239 3.6832 0
M  V30 652 H 61.274 6.1923 3.21247 0
M  V30 653 H 57.171 5.15601 3.88363 0
M  V30 654 H 57.939 7.23127 3.83445 0
M  V30 655 N 60.6021 -1.18246 1.0419 0
M  V30 656 C 61.8301 -1.92195 0.766072 0
M  V30 657 C 62.2451 -1.76247 -0.676933 0
M  V30 658 O 61.6021 -1.09293 -1.46155 0
M  V30 659 C 61.6531 -3.43568 1.12442 0
M  V30 660 O 61.3741 -3.59015 2.51078 0
M  V30 661 C 62.8751 -4.34613 0.873275 0
M  V30 662 H 60.0951 -0.610114 0.279288 0
M  V30 663 H 62.6391 -1.50007 1.38989 0
M  V30 664 H 60.7941 -3.8354 0.545542 0
M  V30 665 H 61.2081 -4.5273 2.64831 0
M  V30 666 H 62.6821 -5.39374 1.17385 0
M  V30 667 H 63.1591 -4.38781 -0.191909 0
M  V30 668 H 63.7651 -4.00341 1.43551 0
M  V30 669 N 62.0802 -0.821533 -1.34494 0
M  V30 670 C 63.0432 -0.247847 -2.27856 0
M  V30 671 C 64.0432 0.573453 -1.50227 0
M  V30 672 O 65.2332 0.389759 -1.69784 0
M  V30 673 C 62.3652 0.652698 -3.34593 0
M  V30 674 H 63.5582 -1.07146 -2.80107 0
M  V30 675 H 61.1112 -0.593291 -1.44602 0
M  V30 676 H 61.8462 1.49943 -2.87555 0
M  V30 677 H 61.6312 0.065292 -3.92046 0
M  V30 678 H 63.1212 1.04793 -4.04238 0
M  V30 679 N 63.5583 1.46682 -0.576371 0
M  V30 680 C 64.8053 2.02412 -0.0595339 0
M  V30 681 C 65.1333 1.44859 1.29793 0
M  V30 682 O 64.3883 0.601099 1.8624 0
M  V30 683 C 64.6873 3.57345 0.062886 0
M  V30 684 C 64.3533 4.33908 -1.22616 0
M  V30 685 C 63.0153 4.54544 -1.57933 0
M  V30 686 C 65.3673 4.77919 -2.07948 0
M  V30 687 C 62.6953 5.16444 -2.78393 0
M  V30 688 C 65.0473 5.41149 -3.27629 0
M  V30 689 C 63.7113 5.60014 -3.63236 0
M  V30 690 H 62.9813 0.74068 -0.021785 0
M  V30 691 H 65.6283 1.76128 -0.751735 0
M  V30 692 H 63.9333 3.82729 0.838178 0
M  V30 693 H 65.6303 3.98136 0.478439 0
M  V30 694 H 62.2203 4.18138 -0.941202 0
M  V30 695 H 66.4043 4.61738 -1.81967 0
M  V30 696 H 61.6603 5.29242 -3.06126 0
M  V30 697 H 65.8343 5.74211 -3.94023 0
M  V30 698 H 63.4613 6.07748 -4.56669 0
M  V30 699 N 65.0364 0.313813 1.54444 0
M  V30 700 C 66.4524 -0.0391619 1.59552 0
M  V30 701 C 66.6524 -1.51322 1.33056 0
M  V30 702 O 65.7084 -2.26782 1.11022 0
M  V30 703 C 67.0214 0.370302 2.98411 0
M  V30 704 C 68.5694 0.320139 3.11358 0
M  V30 705 C 69.0444 0.704617 4.52547 0
M  V30 706 N 70.5354 0.657645 4.58508 0
M  V30 707 C 71.2704 0.927453 5.6585 0
M  V30 708 N 70.7664 1.26389 6.81174 0
M  V30 709 N 72.5594 0.853662 5.5558 0
M  V30 710 H 64.7104 1.27433 1.69925 0
M  V30 711 H 66.9734 0.517511 0.794284 0
M  V30 712 H 66.6794 1.39694 3.22767 0
M  V30 713 H 66.5534 -0.269619 3.76235 0
M  V30 714 H 68.9404 -0.697275 2.86744 0
M  V30 715 H 69.0214 0.99486 2.35661 0
M  V30 716 H 68.6654 1.7199 4.77893 0
M  V30 717 H 68.5954 0.00768843 5.26599 0
M  V30 718 H 71.0864 0.409067 3.75679 0
M  V30 719 H 71.3994 1.4554 7.58972 0
M  V30 720 H 69.7444 1.30206 6.82694 0
M  V30 721 H 72.9354 0.590383 4.64362 0
M  V30 722 H 73.1084 1.0673 6.3915 0
M  V30 723 N 66.5145 -1.57545 0.0417849 0
M  V30 724 C 67.4445 -2.14009 -0.933929 0
M  V30 725 C 68.4255 -1.05938 -1.33083 0
M  V30 726 O 69.6105 -1.33833 -1.40721 0
M  V30 727 C 66.7405 -2.67747 -2.21199 0
M  V30 728 C 65.6945 -3.80718 -1.95544 0
M  V30 729 C 65.0205 -4.20935 -3.29724 0
M  V30 730 C 66.3205 -5.06258 -1.28452 0
M  V30 731 H 68.0145 -2.95788 -0.463645 0
M  V30 732 H 65.5605 -1.42285 -0.221573 0
M  V30 733 H 67.5135 -3.05886 -2.89848 0
M  V30 734 H 66.2375 -1.83147 -2.70416 0
M  V30 735 H 64.8965 -3.43037 -1.2931 0
M  V30 736 H 64.5445 -3.33298 -3.76724 0
M  V30 737 H 64.2445 -4.9707 -3.13361 0
M  V30 738 H 65.7685 -4.61666 -3.9962 0
M  V30 739 H 67.1825 -5.41903 -1.8712 0
M  V30 740 H 65.5795 -5.87475 -1.22445 0
M  V30 741 H 66.6495 -4.84207 -0.259219 0
M  V30 742 N 67.9926 0.231505 -1.5589 0
M  V30 743 C 68.9556 1.27028 -1.90779 0
M  V30 744 C 69.9556 1.40308 -0.785507 0
M  V30 745 O 71.1456 1.38744 -1.05336 0
M  V30 746 C 68.2776 2.64566 -2.14983 0
M  V30 747 H 69.4706 0.973017 -2.83677 0
M  V30 748 H 67.0236 0.471486 -1.49019 0
M  V30 749 H 67.7586 2.99406 -1.24604 0
M  V30 750 H 67.5436 2.56305 -2.96732 0
M  V30 751 H 69.0336 3.39543 -2.43105 0
M  V30 752 N 69.4707 1.49531 0.497807 0
M  V30 753 C 70.7197 1.58426 1.24837 0
M  V30 754 C 71.0327 0.277643 1.93619 0
M  V30 755 O 72.2387 0.24517 2.70391 0
M  V30 756 C 70.6947 2.79538 2.26686 0
M  V30 757 C 70.3027 4.16971 1.63828 0
M  V30 758 C 72.0467 2.97764 3.0255 0
M  V30 759 C 69.9537 5.29301 2.63807 0
M  V30 760 H 68.8837 0.58989 0.469623 0
M  V30 761 H 71.5347 1.75923 0.521857 0
M  V30 762 H 69.9167 2.55542 3.02514 0
M  V30 763 H 71.0907 4.51116 0.939711 0
M  V30 764 H 69.4057 4.04129 1.00342 0
M  V30 765 H 72.0027 3.78856 3.77323 0
M  V30 766 H 72.3457 2.08448 3.60354 0
M  V30 767 H 72.8787 3.21815 2.33838 0
M  V30 768 H 69.6177 6.20687 2.10779 0
M  V30 769 H 69.1377 4.99606 3.31894 0
M  V30 770 H 70.8167 5.58768 3.2617 0
M  V30 771 N 70.9488 -0.749086 1.3866 0
M  V30 772 C 72.1958 -1.50833 1.35114 0
M  V30 773 C 72.5238 -1.94415 -0.0574049 0
M  V30 774 O 71.7788 -1.66065 -1.03541 0
M  V30 775 C 72.0778 -2.7712 2.25697 0
M  V30 776 C 71.7438 -2.52477 3.73585 0
M  V30 777 C 70.4058 -2.45466 4.13884 0
M  V30 778 C 72.7578 -2.31066 4.67181 0
M  V30 779 C 70.0858 -2.15064 5.45861 0
M  V30 780 C 72.4378 -2.02183 5.9942 0
M  V30 781 C 71.1018 -1.93631 6.38798 0
M  V30 782 H 70.3718 -0.551936 0.494416 0
M  V30 783 H 73.0188 -0.860979 1.71054 0
M  V30 784 H 71.3238 -3.46528 1.82827 0
M  V30 785 H 73.0208 -3.35096 2.20254 0
M  V30 786 H 69.6108 -2.58807 3.41638 0
M  V30 787 H 73.7948 -2.35459 4.3689 0
M  V30 788 H 69.0508 -2.06954 5.75308 0
M  V30 789 H 73.2248 -1.8462 6.71482 0
M  V30 790 H 70.8518 -1.69839 7.40985 0
M  V30 791 N 72.4269 -1.23603 -0.977757 0
M  V30 792 C 73.3569 -1.04401 -2.0886 0
M  V30 793 C 74.3379 0.0399052 -1.70053 0
M  V30 794 O 75.5229 -0.125246 -1.93796 0
M  V30 795 C 72.6529 -0.637269 -3.41403 0
M  V30 796 C 71.6069 -1.66883 -3.94124 0
M  V30 797 C 70.9329 -1.11745 -5.22893 0
M  V30 798 C 72.2329 -3.06247 -4.23096 0
M  V30 799 H 73.9269 -1.97316 -2.25182 0
M  V30 800 H 71.4729 -0.950096 -1.08209 0
M  V30 801 H 73.4259 -0.48998 -4.18542 0
M  V30 802 H 72.1499 0.327557 -3.24953 0
M  V30 803 H 70.8089 -1.80416 -3.19133 0
M  V30 804 H 70.4569 -0.143527 -5.02795 0
M  V30 805 H 70.1569 -1.80672 -5.59134 0
M  V30 806 H 71.6809 -0.982067 -6.02651 0
M  V30 807 H 73.0949 -2.96001 -4.90975 0
M  V30 808 H 71.4919 -3.72436 -4.70544 0
M  V30 809 H 72.5619 -3.55041 -3.30263 0
M  V30 810 N 73.905 1.17692 -1.04816 0
M  V30 811 C 74.855 2.1952 -0.616042 0
M  V30 812 C 75.839 1.57147 0.345485 0
M  V30 813 O 77.031 1.76245 0.163325 0
M  V30 814 C 74.16 3.43298 0.0116917 0
M  V30 815 C 73.246 4.12777 -0.973435 0
M  V30 816 N 73.637 4.5814 -2.14339 0
M  V30 817 C 71.935 4.38747 -0.80108 0
M  V30 818 C 72.636 5.11713 -2.7663 0
M  V30 819 N 71.612 5.03686 -2.04453 0
M  V30 820 H 75.414 2.52293 -1.5075 0
M  V30 821 H 72.928 1.3398 -0.917776 0
M  V30 822 H 74.925 4.15519 0.339006 0
M  V30 823 H 73.585 3.12018 0.898593 0
M  V30 824 H 74.596 4.52349 -2.52191 0
M  V30 825 H 71.273 4.17485 0.0350934 0
M  V30 826 H 72.663 5.56962 -3.75823 0
M  V30 827 N 75.3831 0.828654 1.34056 0
M  V30 828 C 76.3311 0.242973 2.31327 0
M  V30 829 C 77.3251 -0.61944 1.57668 0
M  V30 830 O 78.5311 -0.51014 1.7262 0
M  V30 831 H 74.9061 0.059834 0.749616 0
M  V30 832 H 76.8771 1.07809 2.78244 0
M  V30 833 C 75.6261 -0.575733 3.429 0
M  V30 834 H 74.9491 0.0785582 3.99723 0
M  V30 835 H 76.3891 -0.951547 4.13185 0
M  V30 836 C 74.8481 -1.75044 2.87856 0
M  V30 837 O 75.3781 -2.84882 2.83205 0
M  V30 838 N 73.5841 -1.56903 2.44602 0
M  V30 839 H 73.1311 -0.675547 2.48584 0
M  V30 840 H 73.0891 -2.35652 2.08124 0
M  V30 841 N 76.8612 -1.46375 0.584142 0
M  V30 842 C 78.0892 -2.06761 0.0759296 0
M  V30 843 C 78.5042 -1.43266 -1.22965 0
M  V30 844 O 77.8612 -0.538458 -1.74376 0
M  V30 845 C 77.9122 -3.61375 -0.0950384 0
M  V30 846 O 77.6332 -4.22495 1.15887 0
M  V30 847 C 79.1342 -4.38693 -0.637434 0
M  V30 848 H 76.3542 -0.668479 0.0581075 0
M  V30 849 H 78.8982 -1.8798 0.805218 0
M  V30 850 H 77.0532 -3.79578 -0.774554 0
M  V30 851 H 77.4672 -5.15385 0.973598 0
M  V30 852 H 78.9412 -5.47464 -0.706237 0
M  V30 853 H 79.4182 -4.06836 -1.65472 0
M  V30 854 H 80.0242 -4.25299 0.00725967 0
M  V30 855 N 78.3393 -0.321999 -1.54275 0
M  V30 856 C 79.5643 0.285791 -2.05422 0
M  V30 857 C 79.9893 1.45124 -1.19669 0
M  V30 858 O 79.3473 1.80132 -0.205441 0
M  V30 859 C 79.3953 0.69956 -3.53749 0
M  V30 860 O 78.4993 1.8021 -3.70942 0
M  V30 861 H 77.8403 0.0518962 -0.661969 0
M  V30 862 H 80.3703 -0.469954 -1.9913 0
M  V30 863 H 80.3803 0.982649 -3.9599 0
M  V30 864 H 79.0553 -0.152864 -4.15619 0
M  V30 865 H 77.6323 1.51794 -3.40607 0
M  V30 866 N 79.8174 1.5752 -0.0501392 0
M  V30 867 C 81.2284 1.80271 0.485705 0
M  V30 868 C 81.5794 0.96228 1.70981 0
M  V30 869 O 80.7044 0.178578 2.15662 0
M  V30 870 C 81.2994 3.26957 0.887938 0
M  V30 871 C 79.8584 3.5063 1.36877 0
M  V30 872 C 79.0054 2.75165 0.343468 0
M  V30 873 H 81.9564 1.56281 -0.276028 0
M  V30 874 H 81.9774 3.37821 1.75093 0
M  V30 875 H 81.4894 3.881 -0.0031809 0
M  V30 876 H 79.5904 2.94766 2.27911 0
M  V30 877 H 79.7034 4.59343 1.36164 0
M  V30 878 H 78.0674 2.4127 0.816128 0
M  V30 879 H 78.8504 3.39034 -0.539548 0
M  V30 880 N 81.2955 -0.223234 1.56011 0
M  V30 881 C 82.2435 -1.29627 1.93131 0
M  V30 882 C 83.2375 -1.48608 0.813146 0
M  V30 883 O 84.4435 -1.49802 0.997966 0
M  V30 884 H 80.8185 -0.434563 0.613726 0
M  V30 885 H 82.7895 -0.955995 2.82672 0
M  V30 886 C 81.5385 -2.63983 2.26292 0
M  V30 887 H 80.8615 -2.50185 3.11846 0
M  V30 888 H 82.3015 -3.3788 2.56151 0
M  V30 889 C 80.7605 -3.18866 1.08747 0
M  V30 890 O 81.2905 -4.00192 0.347727 0
M  V30 891 N 79.4965 -2.77217 0.871743 0
M  V30 892 H 79.0435 -2.1119 1.47501 0
M  V30 893 H 79.0015 -3.1428 0.0869905 0
M  V30 894 N 82.7736 -1.49793 -0.48987 0
M  V30 895 C 83.7366 -1.66752 -1.57246 0
M  V30 896 C 84.7366 -0.538867 -1.51502 0
M  V30 897 O 85.9266 -0.805545 -1.54456 0
M  V30 898 C 83.0586 -1.67528 -2.96896 0
M  V30 899 H 84.2516 -2.63321 -1.43534 0
M  V30 900 H 81.8046 -1.38992 -0.714914 0
M  V30 901 H 82.5396 -0.725837 -3.16073 0
M  V30 902 H 82.3246 -2.49504 -3.02473 0
M  V30 903 H 83.8146 -1.82667 -3.7553 0
M  V30 904 N 84.2517 0.741722 -1.39055 0
M  V30 905 C 85.4767 1.53607 -1.39354 0
M  V30 906 C 85.9017 1.88096 0.0116905 0
M  V30 907 O 85.2597 1.5143 0.996924 0
M  V30 908 C 85.3077 2.80441 -2.26682 0
M  V30 909 O 84.4117 3.76088 -1.69208 0
M  V30 910 H 83.7527 0.464142 -0.474835 0
M  V30 911 H 86.2827 0.915665 -1.82967 0
M  V30 912 H 86.2927 3.29246 -2.40959 0
M  V30 913 H 84.9677 2.5467 -3.2881 0
M  V30 914 H 83.5447 3.34833 -1.64138 0
M  V30 915 N 85.7298 1.2412 0.971189 0
M  V30 916 C 86.6398 1.04747 2.09917 0
M  V30 917 C 87.6558 -0.0107162 1.73997 0
M  V30 918 O 88.8318 0.186714 2.00533 0
M  V30 919 C 85.8968 0.650828 3.40537 0
M  V30 920 C 84.9578 1.7851 3.90426 0
M  V30 921 C 84.1908 1.40729 5.14812 0
M  V30 922 O 84.4138 0.29557 5.69634 0
M  V30 923 O 83.3478 2.23168 5.58999 0
M  V30 924 H 87.1738 1.99304 2.29154 0
M  V30 925 H 84.7588 1.02908 1.08307 0
M  V30 926 H 86.6408 0.440992 4.19086 0
M  V30 927 H 85.3158 -0.265649 3.22608 0
M  V30 928 H 84.2228 2.04966 3.12953 0
M  V30 929 H 85.5558 2.68023 4.12825 0
M  V30 930 N 87.2079 -1.17134 1.05439 0
M  V30 931 C 88.1709 -2.19439 0.661764 0
M  V30 932 C 89.1709 -1.58199 -0.288042 0
M  V30 933 O 90.3609 -1.74053 -0.0715803 0
M  V30 934 C 87.4929 -3.40889 -0.0276209 0
M  V30 935 H 88.6859 -2.55688 1.56728 0
M  V30 936 H 86.2389 -1.31259 0.848567 0
M  V30 937 H 86.9739 -3.10187 -0.94629 0
M  V30 938 H 86.7589 -3.86586 0.655238 0
M  V30 939 H 88.2489 -4.16603 -0.288342 0
M  V30 940 N 88.686 -0.835752 -1.33615 0
M  V30 941 C 90.097 -0.487099 -1.80234 0
M  V30 942 C 90.448 0.993627 -1.69179 0
M  V30 943 O 89.573 1.77403 -1.23924 0
M  V30 944 C 90.168 -0.877385 -3.27242 0
M  V30 945 C 88.727 -0.580915 -3.7189 0
M  V30 946 C 87.874 -1.0874 -2.5509 0
M  V30 947 H 90.825 -1.02474 -1.2118 0
M  V30 948 H 90.846 -0.186195 -3.80044 0
M  V30 949 H 90.358 -1.95512 -3.35256 0
M  V30 950 H 88.459 0.486881 -3.69405 0
M  V30 951 H 88.572 -1.13396 -4.65487 0
M  V30 952 H 86.936 -0.508392 -2.49575 0
M  V30 953 H 87.719 -2.17184 -2.65868 0
M  V30 954 N 90.1641 1.46063 -0.591896 0
M  V30 955 C 91.4111 2.02338 -0.0809991 0
M  V30 956 C 91.7391 1.46228 1.28249 0
M  V30 957 O 90.9941 0.620818 1.85592 0
M  V30 958 C 91.2931 3.57391 0.0249813 0
M  V30 959 C 90.9591 4.32583 -1.27211 0
M  V30 960 C 89.6211 4.52844 -1.62745 0
M  V30 961 C 91.9731 4.75687 -2.13005 0
M  V30 962 C 89.3011 5.13462 -2.83855 0
M  V30 963 C 91.6531 5.37644 -3.3335 0
M  V30 964 C 90.3171 5.5613 -3.69155 0
M  V30 965 H 89.5871 0.740407 -0.0296397 0
M  V30 966 H 92.2341 1.75321 -0.770374 0
M  V30 967 H 90.5391 3.83597 0.797537 0
M  V30 968 H 92.2361 3.98621 0.436184 0
M  V30 969 H 88.8261 4.17116 -0.985499 0
M  V30 970 H 93.0101 4.59782 -1.86855 0
M  V30 971 H 88.2661 5.25965 -3.11722 0
M  V30 972 H 92.4401 5.7 -4.00092 0
M  V30 973 H 90.0671 6.0287 -4.63089 0
M  V30 974 N 91.6422 0.330177 1.54103 0
M  V30 975 C 92.5902 -0.548226 2.26047 0
M  V30 976 C 93.5842 -1.11309 1.27698 0
M  V30 977 O 94.7902 -1.06036 1.45452 0
M  V30 978 H 91.1652 -0.195456 0.726155 0
M  V30 979 H 93.1362 0.0807567 2.98291 0
M  V30 980 C 91.8852 -1.69415 3.03634 0
M  V30 981 H 91.2082 -1.26876 3.79134 0
M  V30 982 H 92.6482 -2.28423 3.5721 0
M  V30 983 C 91.1072 -2.61569 2.12328 0
M  V30 984 O 91.6372 -3.63462 1.7105 0
M  V30 985 N 89.8432 -2.29952 1.77681 0
M  V30 986 H 89.3902 -1.47134 2.11446 0
M  V30 987 H 89.3482 -2.91871 1.16869 0
M  V30 988 N 93.1203 -1.57491 0.0584922 0
M  V30 989 C 94.0503 -2.14988 -0.911178 0
M  V30 990 C 95.0313 -1.07343 -1.31952 0
M  V30 991 O 96.2163 -1.35318 -1.39294 0
M  V30 992 C 93.3463 -2.70078 -2.18347 0
M  V30 993 C 92.3003 -3.82771 -1.91495 0
M  V30 994 C 91.6263 -4.24408 -3.25241 0
M  V30 995 C 92.9263 -5.07592 -1.23075 0
M  V30 996 H 94.6203 -2.96263 -0.432246 0
M  V30 997 H 92.1663 -1.42512 -0.206469 0
M  V30 998 H 94.1193 -3.08943 -2.86587 0
M  V30 999 H 92.8433 -1.86005 -2.68458 0
M  V30 1000 H 91.5023 -3.44389 -1.25664 0
M  V30 1001 H 91.1503 -3.37275 -3.73168 0
M  V30 1002 H 90.8503 -5.00366 -3.08071 0
M  V30 1003 H 92.3743 -4.65879 -3.94701 0
M  V30 1004 H 93.7883 -5.43857 -1.81362 0
M  V30 1005 H 92.1853 -5.88741 -1.16207 0
M  V30 1006 H 93.2553 -4.84454 -0.207847 0
M  V30 1007 N 94.5984 0.214957 -1.56127 0
M  V30 1008 C 95.8444 0.939762 -1.79712 0
M  V30 1009 C 96.1774 1.83723 -0.629247 0
M  V30 1010 O 95.4524 1.90925 0.371197 0
M  V30 1011 C 95.7354 1.77306 -3.13424 0
M  V30 1012 C 95.5884 0.90164 -4.40671 0
M  V30 1013 C 96.9074 2.74956 -3.43638 0
M  V30 1014 H 94.0264 0.340214 -0.653776 0
M  V30 1015 H 96.6684 0.20824 -1.88855 0
M  V30 1016 H 94.8184 2.39673 -3.0576 0
M  V30 1017 H 96.4904 0.294206 -4.60361 0
M  V30 1018 H 94.7334 0.207368 -4.33304 0
M  V30 1019 H 95.4044 1.51923 -5.30682 0
M  V30 1020 H 97.8804 2.22724 -3.51473 0
M  V30 1021 H 96.7564 3.30358 -4.38355 0
M  V30 1022 H 97.0174 3.53023 -2.66134 0
M  V30 1023 N 96.0765 1.50051 0.48192 0
M  V30 1024 C 97.4875 1.5348 1.06305 0
M  V30 1025 C 97.8385 0.331997 1.93371 0
M  V30 1026 O 96.9635 -0.556256 2.09129 0
M  V30 1027 C 97.5585 2.7813 1.93466 0
M  V30 1028 C 96.1175 2.84275 2.46707 0
M  V30 1029 C 95.2645 2.47637 1.24785 0
M  V30 1030 H 98.2155 1.56472 0.264995 0
M  V30 1031 H 98.2365 2.59372 2.78399 0
M  V30 1032 H 97.7485 3.65654 1.30072 0
M  V30 1033 H 95.8495 2.01077 3.13686 0
M  V30 1034 H 95.9625 3.8691 2.82555 0
M  V30 1035 H 94.3265 1.99835 1.57918 0
M  V30 1036 H 95.1095 3.37457 0.630694 0
M  V30 1037 N 97.5546 -0.734337 1.39446 0
M  V30 1038 C 98.5046 -1.83949 1.34709 0
M  V30 1039 C 99.4886 -1.59279 0.227851 0
M  V30 1040 O 100.681 -1.70771 0.465438 0
M  V30 1041 C 97.8096 -3.21884 1.19356 0
M  V30 1042 C 96.8956 -3.52381 2.35984 0
M  V30 1043 N 97.2866 -3.53811 3.61457 0
M  V30 1044 C 95.5846 -3.82747 2.28956 0
M  V30 1045 C 96.2856 -3.82122 4.38586 0
M  V30 1046 N 95.2616 -3.9993 3.68181 0
M  V30 1047 H 99.0636 -1.83361 2.29687 0
M  V30 1048 H 96.5776 -0.932609 1.32952 0
M  V30 1049 H 98.5746 -4.00998 1.14046 0
M  V30 1050 H 97.2346 -3.23711 0.253295 0
M  V30 1051 H 98.2456 -3.35107 3.94872 0
M  V30 1052 H 94.9226 -3.92175 1.43194 0
M  V30 1053 H 96.3126 -3.89691 5.47349 0
M  V30 1054 N 99.0327 -1.24633 -0.964593 0
M  V30 1055 C 100.279 -1.08949 -1.71049 0
M  V30 1056 C 100.612 0.370302 -1.90637 0
M  V30 1057 O 99.8867 1.27349 -1.47011 0
M  V30 1058 C 100.17 -1.83329 -3.0994 0
M  V30 1059 C 100.023 -3.37077 -2.97824 0
M  V30 1060 C 101.342 -1.60846 -4.09654 0
M  V30 1061 H 98.4607 -0.397178 -0.620821 0
M  V30 1062 H 101.103 -1.5334 -1.12191 0
M  V30 1063 H 99.2527 -1.45597 -3.60186 0
M  V30 1064 H 100.925 -3.84425 -2.5498 0
M  V30 1065 H 99.1677 -3.65298 -2.33965 0
M  V30 1066 H 99.8387 -3.84324 -3.96231 0
M  V30 1067 H 102.315 -1.93674 -3.68279 0
M  V30 1068 H 101.191 -2.1534 -5.04896 0
M  V30 1069 H 101.452 -0.547434 -4.38698 0
M  V30 1070 N 100.511 1.16574 -1.06058 0
M  V30 1071 C 101.788 1.83048 -0.689416 0
M  V30 1072 C 102.168 1.94122 0.829443 0
M  V30 1073 O 101.516 1.48249 1.7388 0
M  V30 1074 C 101.726 3.20186 -1.38859 0
M  V30 1075 C 103.074 3.95989 -1.53226 0
M  V30 1076 O 104.098 3.29696 -1.3483 0
M  V30 1077 O 102.957 5.14813 -1.83384 0
M  V30 1078 H 100.051 0.790258 -0.243764 0
M  V30 1079 H 102.597 1.23797 -1.16071 0
M  V30 1080 H 101.369 3.07146 -2.4244 0
M  V30 1081 H 100.992 3.87112 -0.907216 0
M  V30 1082 N 101.989 0.842826 1.3317 0
M  V30 1083 C 102.937 0.267495 2.31057 0
M  V30 1084 C 103.931 -0.602682 1.58316 0
M  V30 1085 O 105.137 -0.491803 1.73151 0
M  V30 1086 H 101.512 0.0677813 0.748939 0
M  V30 1087 H 103.483 1.10754 2.77085 0
M  V30 1088 C 102.232 -0.539331 3.43492 0
M  V30 1089 H 101.555 0.12095 3.99617 0
M  V30 1090 H 102.995 -0.90767 4.14171 0
M  V30 1091 C 101.454 -1.71981 2.89697 0
M  V30 1092 O 101.984 -2.81862 2.86211 0
M  V30 1093 N 100.19 -1.54299 2.46252 0
M  V30 1094 H 99.7369 -0.649143 2.49287 0
M  V30 1095 H 99.6949 -2.33431 2.10612 0
M  V30 1096 N 103.467 -1.45747 0.599634 0
M  V30 1097 C 104.716 -2.01502 0.0893511 0
M  V30 1098 C 105.029 -1.4748 -1.28488 0
M  V30 1099 O 106.235 -1.95161 -1.88745 0
M  V30 1100 C 104.691 -3.59735 0.109082 0
M  V30 1101 C 104.299 -4.22754 1.48267 0
M  V30 1102 C 106.043 -4.23085 -0.346374 0
M  V30 1103 C 103.95 -5.73115 1.45921 0
M  V30 1104 H 102.88 -0.753417 0.0296347 0
M  V30 1105 H 105.531 -1.67303 0.753788 0
M  V30 1106 H 103.913 -3.91087 -0.621854 0
M  V30 1107 H 105.087 -4.02987 2.23468 0
M  V30 1108 H 103.402 -3.71567 1.87955 0
M  V30 1109 H 105.999 -5.33327 -0.38298 0
M  V30 1110 H 106.342 -3.93201 -1.36743 0
M  V30 1111 H 106.875 -3.9642 0.331038 0
M  V30 1112 H 103.614 -6.07685 2.45762 0
M  V30 1113 H 103.134 -5.95097 0.749665 0
M  V30 1114 H 104.813 -6.3616 1.17941 0
M  V30 1115 N 104.945 -0.338344 -1.53925 0
M  V30 1116 C 105.855 0.529421 -2.28548 0
M  V30 1117 C 106.871 1.11645 -1.3346 0
M  V30 1118 O 108.047 1.13325 -1.66492 0
M  V30 1119 C 105.112 1.66713 -3.03987 0
M  V30 1120 C 104.173 1.11041 -4.14691 0
M  V30 1121 C 103.406 2.19389 -4.86522 0
M  V30 1122 O 103.629 3.40013 -4.57982 0
M  V30 1123 O 102.563 1.83976 -5.73094 0
M  V30 1124 H 106.389 -0.0770399 -3.03602 0
M  V30 1125 H 103.974 -0.103555 -1.49041 0
M  V30 1126 H 105.856 2.32918 -3.5118 0
M  V30 1127 H 104.531 2.25949 -2.31794 0
M  V30 1128 H 103.438 0.413024 -3.71813 0
M  V30 1129 H 104.771 0.562975 -4.8897 0
M  V30 1130 N 106.423 1.57458 -0.0668435 0
M  V30 1131 C 107.651 1.97624 0.612565 0
M  V30 1132 C 108.066 0.94502 1.63447 0
M  V30 1133 O 107.423 -0.0689276 1.8237 0
M  V30 1134 C 107.474 3.37869 1.28555 0
M  V30 1135 O 107.195 4.3704 0.304557 0
M  V30 1136 C 108.696 3.92882 2.05325 0
M  V30 1137 H 105.916 0.650045 0.166381 0
M  V30 1138 H 108.46 2.04035 -0.137782 0
M  V30 1139 H 106.615 3.3256 1.98702 0
M  V30 1140 H 107.029 5.18565 0.786779 0
M  V30 1141 H 108.503 4.93247 2.47812 0
M  V30 1142 H 108.98 3.29156 2.9078 0
M  V30 1143 H 109.586 4.01577 1.40056 0
M  V30 1144 N 107.901 -0.206675 1.56239 0
M  V30 1145 C 108.864 -1.23976 1.92776 0
M  V30 1146 C 109.864 -1.39041 0.807729 0
M  V30 1147 O 111.054 -1.37051 1.0753 0
M  V30 1148 C 108.186 -2.61112 2.19165 0
M  V30 1149 H 109.379 -0.927764 2.85189 0
M  V30 1150 H 106.932 -0.447718 1.4975 0
M  V30 1151 H 107.667 -2.97386 1.29352 0
M  V30 1152 H 107.452 -2.51552 3.00772 0
M  V30 1153 H 108.942 -3.35633 2.48476 0
M  V30 1154 N 109.379 -1.50304 -0.473955 0
M  V30 1155 C 110.327 -1.69482 -1.59307 0
M  V30 1156 C 111.321 -0.560669 -1.59853 0
M  V30 1157 O 112.527 -0.741087 -1.64036 0
M  V30 1158 H 108.902 -0.534892 -0.528578 0
M  V30 1159 H 110.873 -2.63364 -1.40293 0
M  V30 1160 C 109.622 -1.80354 -2.97267 0
M  V30 1161 H 108.945 -2.67012 -2.97564 0
M  V30 1162 H 110.385 -1.97798 -3.75036 0
M  V30 1163 C 108.844 -0.55448 -3.32306 0
M  V30 1164 O 109.374 0.307661 -4.0052 0
M  V30 1165 N 107.58 -0.409354 -2.87702 0
M  V30 1166 H 107.127 -1.11196 -2.32364 0
M  V30 1167 H 107.085 0.425223 -3.11511 0
M  V30 1168 N 110.857 0.726932 -1.39834 0
M  V30 1169 C 112.082 1.52121 -1.40976 0
M  V30 1170 C 112.507 1.88098 -0.00826029 0
M  V30 1171 O 111.865 1.52479 0.980807 0
M  V30 1172 C 111.913 2.78021 -2.29644 0
M  V30 1173 O 111.017 3.74272 -1.73188 0
M  V30 1174 H 110.358 0.45908 -0.479731 0
M  V30 1175 H 112.888 0.896207 -1.83927 0
M  V30 1176 H 112.898 3.26671 -2.44438 0
M  V30 1177 H 111.573 2.51169 -3.31492 0
M  V30 1178 H 110.15 3.33073 -1.6768 0
M  V30 1179 N 112.336 1.25143 0.95797 0
M  V30 1180 C 113.583 1.09692 1.70217 0
M  V30 1181 C 113.911 -0.362654 1.91089 0
M  V30 1182 O 113.166 -1.28386 1.47701 0
M  V30 1183 C 113.465 1.79272 3.09187 0
M  V30 1184 C 113.131 3.29196 3.08125 0
M  V30 1185 C 111.793 3.70096 3.07543 0
M  V30 1186 C 114.145 4.24995 3.0171 0
M  V30 1187 C 111.473 5.05213 2.9829 0
M  V30 1188 C 113.825 5.60132 2.93999 0
M  V30 1189 C 112.489 6.00365 2.9175 0
M  V30 1190 H 111.759 0.401393 0.622868 0
M  V30 1191 H 114.406 1.55372 1.11945 0
M  V30 1192 H 112.711 1.26014 3.70982 0
M  V30 1193 H 114.408 1.64773 3.65583 0
M  V30 1194 H 110.998 2.96651 3.09348 0
M  V30 1195 H 115.182 3.9439 3.01281 0
M  V30 1196 H 110.438 5.35569 2.94916 0
M  V30 1197 H 114.612 6.3406 2.87996 0
M  V30 1198 H 112.239 7.05023 2.84336 0
M  V30 1199 N 113.814 -1.1601 1.06675 0
M  V30 1200 C 114.777 -2.18724 0.685001 0
M  V30 1201 C 115.777 -1.58496 -0.271246 0
M  V30 1202 O 116.967 -1.74119 -0.0531156 0
M  V30 1203 C 114.099 -3.40899 0.00853648 0
M  V30 1204 H 115.292 -2.54011 1.59431 0
M  V30 1205 H 112.845 -1.30352 0.862441 0
M  V30 1206 H 113.58 -3.11173 -0.913337 0
M  V30 1207 H 113.365 -3.8587 0.696204 0
M  V30 1208 H 114.855 -4.16886 -0.24414 0
M  V30 1209 N 115.292 -0.849877 -1.32721 0
M  V30 1210 C 116.538 -0.451591 -1.97708 0
M  V30 1211 C 116.871 0.989175 -1.6712 0
M  V30 1212 O 116.146 1.69334 -0.956891 0
M  V30 1213 C 116.429 -0.685598 -3.53513 0
M  V30 1214 C 116.282 -2.17444 -3.93749 0
M  V30 1215 C 117.601 -0.138874 -4.39881 0
M  V30 1216 H 114.72 -0.16555 -0.718166 0
M  V30 1217 H 117.362 -1.06742 -1.57182 0
M  V30 1218 H 115.512 -0.161416 -3.88165 0
M  V30 1219 H 117.184 -2.76433 -3.693 0
M  V30 1220 H 115.427 -2.65476 -3.43081 0
M  V30 1221 H 116.098 -2.28888 -5.02309 0
M  V30 1222 H 118.574 -0.587068 -4.11938 0
M  V30 1223 H 117.45 -0.332213 -5.47894 0
M  V30 1224 H 117.711 0.95806 -4.31594 0
M  V30 1225 N 116.77 1.45427 -0.607355 0
M  V30 1226 C 117.998 2.06614 -0.108814 0
M  V30 1227 C 118.413 1.45204 1.2067 0
M  V30 1228 O 117.77 0.566132 1.73497 0
M  V30 1229 C 117.821 3.61481 0.0375347 0
M  V30 1230 O 117.542 4.20598 -1.22593 0
M  V30 1231 C 119.043 4.39652 0.567561 0
M  V30 1232 H 116.263 0.66747 -0.0687351 0
M  V30 1233 H 118.807 1.86675 -0.835022 0
M  V30 1234 H 116.962 3.80762 0.714068 0
M  V30 1235 H 117.376 5.1377 -1.05547 0
M  V30 1236 H 118.85 5.48518 0.61905 0
M  V30 1237 H 119.327 4.09417 1.58978 0
M  V30 1238 H 119.933 4.25234 -0.0749202 0
M  V30 1239 N 118.248 0.346503 1.53744 0
M  V30 1240 C 119.196 -0.52422 2.26616 0
M  V30 1241 C 120.19 -1.09948 1.28871 0
M  V30 1242 O 121.396 -1.04488 1.46568 0
M  V30 1243 H 117.771 -0.187743 0.728187 0
M  V30 1244 H 119.742 0.11239 2.98188 0
M  V30 1245 C 118.491 -1.66186 3.05414 0
M  V30 1246 H 117.814 -1.22848 3.80458 0
M  V30 1247 H 119.254 -2.24622 3.59612 0
M  V30 1248 C 117.713 -2.59302 2.1509 0
M  V30 1249 O 118.243 -3.61628 1.74895 0
M  V30 1250 N 116.449 -2.28055 1.8011 0
M  V30 1251 H 115.996 -1.44883 2.12994 0
M  V30 1252 H 115.954 -2.90615 1.19958 0
M  V30 1253 N 119.726 -1.57421 0.075193 0
M  V30 1254 C 120.689 -2.11791 -0.876203 0
M  V30 1255 C 121.689 -1.04268 -1.22412 0
M  V30 1256 O 122.879 -1.30242 -1.15684 0
M  V30 1257 C 120.011 -2.62207 -2.17854 0
M  V30 1258 H 121.204 -2.9716 -0.40444 0
M  V30 1259 H 118.757 -1.55333 -0.173557 0
M  V30 1260 H 119.492 -1.803 -2.6956 0
M  V30 1261 H 119.277 -3.40802 -1.93897 0
M  V30 1262 H 120.767 -3.04335 -2.85955 0
M  V30 1263 N 121.204 0.198386 -1.56346 0
M  V30 1264 C 122.451 0.919286 -1.80431 0
M  V30 1265 C 122.779 1.83393 -0.647866 0
M  V30 1266 O 122.034 1.92236 0.366556 0
M  V30 1267 C 122.333 1.77031 -3.10475 0
M  V30 1268 C 121.999 1.00693 -4.39513 0
M  V30 1269 C 120.661 0.796145 -4.74568 0
M  V30 1270 C 123.013 0.469559 -5.19081 0
M  V30 1271 C 120.341 0.0364588 -5.86689 0
M  V30 1272 C 122.693 -0.2769 -6.31994 0
M  V30 1273 C 121.357 -0.49873 -6.65634 0
M  V30 1274 H 120.627 0.336391 -0.660244 0
M  V30 1275 H 123.274 0.185872 -1.90596 0
M  V30 1276 H 121.579 2.5723 -2.95533 0
M  V30 1277 H 123.276 2.33065 -3.26315 0
M  V30 1278 H 119.866 1.18122 -4.12001 0
M  V30 1279 H 124.05 0.619816 -4.92414 0
M  V30 1280 H 119.306 -0.145412 -6.11227 0
M  V30 1281 H 123.48 -0.700684 -6.92866 0
M  V30 1282 H 121.107 -1.0893 -7.52355 0
M  V30 1283 N 122.682 1.50554 0.465978 0
M  V30 1284 C 123.922 1.63439 1.22747 0
M  V30 1285 C 124.286 0.329822 1.89146 0
M  V30 1286 O 125.487 0.334161 2.66715 0
M  V30 1287 C 123.758 2.78542 2.2394 0
M  V30 1288 S 125.317 3.11591 3.0896 0
M  V30 1289 H 122.135 0.576113 0.416672 0
M  V30 1290 H 124.737 1.88357 0.523641 0
M  V30 1291 H 123.441 3.71805 1.7375 0
M  V30 1292 H 122.972 2.55726 2.98944 0
M  V30 1293 H 124.987 2.55811 4.25176 0
M  V30 1294 N 124.16 -0.719506 1.40217 0
M  V30 1295 C 125.385 -1.51371 1.4178 0
M  V30 1296 C 125.81 -1.88091 0.0182355 0
M  V30 1297 O 125.168 -1.52997 -0.972707 0
M  V30 1298 C 125.216 -2.768 2.31115 0
M  V30 1299 O 124.32 -3.73349 1.7517 0
M  V30 1300 H 123.661 -0.456529 0.482159 0
M  V30 1301 H 126.191 -0.88644 1.844 0
M  V30 1302 H 126.201 -3.25371 2.46167 0
M  V30 1303 H 124.876 -2.49407 3.3282 0
M  V30 1304 H 123.453 -3.32179 1.69444 0
M  V30 1305 N 125.638 -1.25649 -0.95132 0
M  V30 1306 C 126.57 -1.02112 -2.05197 0
M  V30 1307 C 127.583 0.0150571 -1.62793 0
M  V30 1308 O 128.772 -0.223874 -1.77091 0
M  V30 1309 C 125.872 -0.522361 -3.3485 0
M  V30 1310 C 125.045 -1.62546 -4.06076 0
M  V30 1311 C 124.104 -1.12649 -5.14001 0
M  V30 1312 O 123.13 -1.82156 -5.39266 0
M  V30 1313 N 124.332 0.03047 -5.80492 0
M  V30 1314 H 127.097 -1.96885 -2.25957 0
M  V30 1315 H 124.658 -1.16899 -1.1201 0
M  V30 1316 H 126.65 -0.172961 -4.0433 0
M  V30 1317 H 125.22 0.33151 -3.10837 0
M  V30 1318 H 124.44 -2.14628 -3.30649 0
M  V30 1319 H 125.728 -2.36644 -4.50419 0
M  V30 1320 H 125.126 0.611169 -5.62389 0
M  V30 1321 H 123.683 0.320875 -6.5101 0
M  V30 1322 N 127.117 1.15442 -1.07289 0
M  V30 1323 C 128.347 1.89821 -0.815576 0
M  V30 1324 C 128.755 1.7823 0.634867 0
M  V30 1325 O 128.098 1.13152 1.44715 0
M  V30 1326 C 128.16 3.40817 -1.14385 0
M  V30 1327 C 127.824 3.76193 -2.59476 0
M  V30 1328 C 128.821 3.77269 -3.57721 0
M  V30 1329 C 126.506 4.0652 -2.95037 0
M  V30 1330 C 128.5 4.08176 -4.89562 0
M  V30 1331 C 126.187 4.37092 -4.27076 0
M  V30 1332 C 127.185 4.37902 -5.24148 0
M  V30 1333 O 126.873 4.67741 -6.53815 0
M  V30 1334 H 126.605 0.608465 -0.294528 0
M  V30 1335 H 129.159 1.472 -1.43252 0
M  V30 1336 H 127.389 3.83835 -0.469865 0
M  V30 1337 H 129.078 3.96485 -0.869179 0
M  V30 1338 H 129.844 3.5394 -3.3159 0
M  V30 1339 H 125.723 4.05049 -2.20128 0
M  V30 1340 H 129.267 4.08723 -5.65324 0
M  V30 1341 H 125.164 4.59889 -4.5296 0
M  V30 1342 H 125.932 4.85509 -6.58957 0
M  V30 1343 N 128.595 0.856903 1.32268 0
M  V30 1344 C 129.82 0.474569 2.01897 0
M  V30 1345 C 130.245 -0.921766 1.63967 0
M  V30 1346 O 129.603 -1.60589 0.84148 0
M  V30 1347 C 129.651 0.623799 3.55164 0
M  V30 1348 O 128.755 -0.342459 4.10976 0
M  V30 1349 H 128.096 0.190422 0.63611 0
M  V30 1350 H 130.626 1.15672 1.68764 0
M  V30 1351 H 130.636 0.512169 4.04773 0
M  V30 1352 H 129.311 1.64202 3.82113 0
M  V30 1353 H 127.888 -0.18688 3.72431 0
M  V30 1354 N 130.073 -1.45103 0.615059 0
M  V30 1355 C 131.489 -1.57137 0.279322 0
M  V30 1356 C 131.689 -1.60523 -1.21797 0
M  V30 1357 O 130.745 -1.53956 -2.00134 0
M  V30 1358 C 132.058 -2.85062 0.957083 0
M  V30 1359 C 133.606 -2.98749 0.933706 0
M  V30 1360 C 134.081 -4.29455 1.59162 0
M  V30 1361 N 135.572 -4.36231 1.55746 0
M  V30 1362 C 136.307 -5.36051 2.0356 0
M  V30 1363 N 135.803 -6.42367 2.59494 0
M  V30 1364 N 137.596 -5.27456 1.94284 0
M  V30 1365 H 129.747 -1.41148 1.58717 0
M  V30 1366 H 132.01 -0.675331 0.665306 0
M  V30 1367 H 131.716 -2.88488 2.01166 0
M  V30 1368 H 131.59 -3.7407 0.48494 0
M  V30 1369 H 133.977 -2.94886 -0.112347 0
M  V30 1370 H 134.058 -2.11132 1.44419 0
M  V30 1371 H 133.702 -4.34077 2.63704 0
M  V30 1372 H 133.632 -5.15901 1.0561 0
M  V30 1373 H 136.123 -3.60011 1.14893 0
M  V30 1374 H 136.436 -7.14793 2.93752 0
M  V30 1375 H 134.781 -6.43097 2.63537 0
M  V30 1376 H 137.972 -4.43308 1.5032 0
M  V30 1377 H 138.145 -6.05099 2.3186 0
M  V30 1378 N 131.551 -0.354651 -1.53558 0
M  V30 1379 C 132.799 0.237972 -2.00694 0
M  V30 1380 C 133.12 1.50173 -1.24391 0
M  V30 1381 O 132.39 1.92673 -0.354135 0
M  V30 1382 H 130.97 0.0909256 -0.741446 0
M  V30 1383 H 133.632 -0.478368 -1.88938 0
M  V30 1384 H 132.728 0.47264 -3.085 0
M  V30 1385 N 133.029 1.57378 -0.0835403 0
M  V30 1386 C 134.275 1.94217 0.583733 0
M  V30 1387 C 134.608 0.964653 1.68547 0
M  V30 1388 O 133.883 -0.00422258 1.945 0
M  V30 1389 C 134.166 3.41253 1.14972 0
M  V30 1390 C 134.019 4.49768 0.0538277 0
M  V30 1391 C 135.338 3.89352 2.05166 0
M  V30 1392 H 132.457 0.706233 0.210724 0
M  V30 1393 H 135.099 1.89392 -0.1519 0
M  V30 1394 H 133.249 3.45496 1.77665 0
M  V30 1395 H 134.921 4.57641 -0.579851 0
M  V30 1396 H 133.164 4.29432 -0.614068 0
M  V30 1397 H 133.835 5.49817 0.490452 0
M  V30 1398 H 136.311 3.87189 1.52393 0
M  V30 1399 H 135.187 4.92822 2.41698 0
M  V30 1400 H 135.448 3.27973 2.96456 0
M  V30 1401 N 134.507 -0.190092 1.56449 0
M  V30 1402 C 135.754 -0.909705 1.80916 0
M  V30 1403 C 136.082 -1.83047 0.657583 0
M  V30 1404 O 135.337 -1.92428 -0.356356 0
M  V30 1405 C 135.636 -1.75382 3.1141 0
M  V30 1406 C 135.302 -0.983606 4.40041 0
M  V30 1407 C 133.964 -0.770967 4.74984 0
M  V30 1408 C 136.316 -0.442024 5.19322 0
M  V30 1409 C 133.644 -0.0053448 5.867 0
M  V30 1410 C 135.996 0.310412 6.31838 0
M  V30 1411 C 134.66 0.534023 6.6536 0
M  V30 1412 H 133.93 -0.332885 0.662019 0
M  V30 1413 H 136.577 -0.175762 1.90692 0
M  V30 1414 H 134.882 -2.55659 2.96893 0
M  V30 1415 H 136.579 -2.31331 3.27547 0
M  V30 1416 H 133.169 -1.15936 4.12622 0
M  V30 1417 H 137.353 -0.593693 4.92736 0
M  V30 1418 H 132.609 0.177825 6.11141 0
M  V30 1419 H 136.783 0.737419 6.92485 0
M  V30 1420 H 134.41 1.12918 7.51767 0
M  V30 1421 N 135.985 -1.50799 -0.457987 0
M  V30 1422 C 136.948 -1.7005 -1.53674 0
M  V30 1423 C 137.948 -0.570881 -1.50325 0
M  V30 1424 O 139.138 -0.838126 -1.52712 0
M  V30 1425 C 136.27 -1.73788 -2.93276 0
M  V30 1426 H 137.463 -2.66306 -1.37917 0
M  V30 1427 H 135.016 -1.40477 -0.685271 0
M  V30 1428 H 135.751 -0.792717 -3.14462 0
M  V30 1429 H 135.536 -2.55864 -2.97113 0
M  V30 1430 H 137.026 -1.90591 -3.71571 0
M  V30 1431 N 137.463 0.71206 -1.40597 0
M  V30 1432 C 138.712 1.46754 -1.38369 0
M  V30 1433 C 139.025 1.95598 0.0097839 0
M  V30 1434 O 140.231 2.71059 0.154677 0
M  V30 1435 C 138.687 2.65289 -2.43207 0
M  V30 1436 C 138.295 2.23301 -3.88382 0
M  V30 1437 C 140.039 3.43008 -2.50091 0
M  V30 1438 C 137.946 3.38696 -4.84808 0
M  V30 1439 H 136.876 0.55118 -0.514506 0
M  V30 1440 H 139.527 0.774616 -1.66349 0
M  V30 1441 H 137.909 3.36769 -2.08332 0
M  V30 1442 H 139.083 1.59218 -4.32419 0
M  V30 1443 H 137.398 1.58618 -3.85006 0
M  V30 1444 H 139.995 4.28881 -3.1932 0
M  V30 1445 H 140.338 3.87065 -1.53253 0
M  V30 1446 H 140.871 2.78574 -2.83974 0
M  V30 1447 H 137.61 2.99668 -5.82992 0
M  V30 1448 H 137.13 4.01683 -4.45433 0
M  V30 1449 H 138.809 4.04712 -5.04794 0
M  V30 1450 N 138.941 1.26152 0.944643 0
M  V30 1451 C 140.188 1.11492 1.69044 0
M  V30 1452 C 140.516 -0.342366 1.91463 0
M  V30 1453 O 139.771 -1.26812 1.49054 0
M  V30 1454 C 140.07 1.82541 3.07268 0
M  V30 1455 C 139.736 3.32445 3.04616 0
M  V30 1456 C 138.398 3.73337 3.036 0
M  V30 1457 C 140.75 4.28171 2.97185 0
M  V30 1458 C 138.078 5.08348 2.92915 0
M  V30 1459 C 140.43 5.63218 2.88041 0
M  V30 1460 C 139.094 6.03426 2.85366 0
M  V30 1461 H 138.364 0.407977 0.618576 0
M  V30 1462 H 141.011 1.56551 1.10291 0
M  V30 1463 H 139.316 1.29941 3.69625 0
M  V30 1464 H 141.013 1.68642 3.63815 0
M  V30 1465 H 137.603 2.99915 3.06185 0
M  V30 1466 H 141.787 3.97563 2.97081 0
M  V30 1467 H 137.043 5.38667 2.89219 0
M  V30 1468 H 141.217 6.37078 2.81254 0
M  V30 1469 H 138.844 7.07999 2.76842 0
M  V30 1470 N 140.419 -1.14872 1.07899 0
M  V30 1471 C 141.667 -1.85422 0.803941 0
M  V30 1472 C 141.988 -1.83051 -0.67211 0
M  V30 1473 O 141.258 -1.27532 -1.48703 0
M  V30 1474 H 139.838 -0.686537 0.294408 0
M  V30 1475 H 142.5 -1.39226 1.3639 0
M  V30 1476 H 141.596 -2.90399 1.14346 0
M  V30 1477 N 141.898 -0.863906 -1.31812 0
M  V30 1478 C 142.828 -0.330843 -2.31144 0
M  V30 1479 C 143.809 0.575005 -1.60087 0
M  V30 1480 O 144.994 0.493304 -1.8783 0
M  V30 1481 C 142.124 0.47374 -3.44054 0
M  V30 1482 C 141.078 -0.338481 -4.26659 0
M  V30 1483 C 140.404 0.591412 -5.31419 0
M  V30 1484 C 141.704 -1.56926 -4.98168 0
M  V30 1485 H 143.398 -1.16086 -2.75979 0
M  V30 1486 H 140.944 -0.559657 -1.32679 0
M  V30 1487 H 142.897 0.857143 -4.12591 0
M  V30 1488 H 141.621 1.33721 -2.9797 0
M  V30 1489 H 140.28 -0.703754 -3.59782 0
M  V30 1490 H 139.928 1.45199 -4.81587 0
M  V30 1491 H 139.628 0.0519022 -5.87577 0
M  V30 1492 H 141.152 0.97179 -6.02817 0
M  V30 1493 H 142.566 -1.25764 -5.59336 0
M  V30 1494 H 140.963 -2.04739 -5.64094 0
M  V30 1495 H 142.033 -2.32544 -4.25501 0
M  V30 1496 N 143.376 1.44774 -0.622745 0
M  V30 1497 C 144.606 2.06187 -0.130532 0
M  V30 1498 C 145.014 1.46547 1.19669 0
M  V30 1499 O 144.357 0.579636 1.74316 0
M  V30 1500 C 144.419 3.59437 0.0674983 0
M  V30 1501 C 144.083 4.41496 -1.18026 0
M  V30 1502 C 145.08 4.75512 -2.102 0
M  V30 1503 C 142.765 4.82007 -1.41333 0
M  V30 1504 C 144.759 5.48912 -3.23998 0
M  V30 1505 C 142.446 5.55157 -2.55429 0
M  V30 1506 C 143.444 5.88528 -3.46589 0
M  V30 1507 O 143.132 6.60191 -4.58697 0
M  V30 1508 H 142.864 0.672045 -0.0730162 0
M  V30 1509 H 145.418 1.86768 -0.854802 0
M  V30 1510 H 143.648 3.77314 0.846825 0
M  V30 1511 H 145.337 4.02642 0.513209 0
M  V30 1512 H 146.103 4.4476 -1.93425 0
M  V30 1513 H 141.982 4.55457 -0.712709 0
M  V30 1514 H 145.526 5.74877 -3.95174 0
M  V30 1515 H 141.423 5.85324 -2.72151 0
M  V30 1516 H 142.191 6.78654 -4.57571 0
M  V30 1517 N 144.854 0.36279 1.53368 0
M  V30 1518 C 146.131 -0.284021 1.93527 0
M  V30 1519 C 146.511 -1.66628 1.29608 0
M  V30 1520 O 145.859 -2.23942 0.45413 0
M  V30 1521 C 146.069 -0.337028 3.47369 0
M  V30 1522 C 147.417 -0.578708 4.20638 0
M  V30 1523 O 148.441 -0.418352 3.53735 0
M  V30 1524 O 147.3 -0.89074 5.39192 0
M  V30 1525 H 144.394 -0.169743 0.809393 0
M  V30 1526 H 146.94 0.41537 1.64538 0
M  V30 1527 H 145.712 0.632217 3.86159 0
M  V30 1528 H 145.335 -1.08243 3.82582 0
M  V30 1529 N 146.332 -1.57332 0.0918853 0
M  V30 1530 C 147.279 -2.13847 -0.868211 0
M  V30 1531 C 148.249 -1.05618 -1.28196 0
M  V30 1532 O 149.434 -1.33387 -1.36427 0
M  V30 1533 C 146.574 -2.72062 -2.12312 0
M  V30 1534 C 145.687 -3.94514 -1.7602 0
M  V30 1535 C 144.822 -4.40903 -2.96273 0
M  V30 1536 C 143.861 -5.55953 -2.56092 0
M  V30 1537 N 142.998 -5.97209 -3.69169 0
M  V30 1538 H 147.838 -2.95575 -0.379406 0
M  V30 1539 H 145.375 -1.46048 -0.175606 0
M  V30 1540 H 147.333 -3.03931 -2.858 0
M  V30 1541 H 145.963 -1.93068 -2.58698 0
M  V30 1542 H 145.015 -3.68979 -0.925135 0
M  V30 1543 H 146.327 -4.7802 -1.42472 0
M  V30 1544 H 145.481 -4.74539 -3.78018 0
M  V30 1545 H 144.22 -3.56291 -3.33029 0
M  V30 1546 H 143.225 -5.21948 -1.72773 0
M  V30 1547 H 144.45 -6.42311 -2.20484 0
M  V30 1548 H 142.396 -5.15543 -4.05649 0
M  V30 1549 H 142.313 -6.75504 -3.39456 0
M  V30 1550 H 143.581 -6.35475 -4.51434 0
M  V30 1551 N 147.81 0.181792 -1.56548 0
M  V30 1552 C 149.226 0.53316 -1.50431 0
M  V30 1553 C 149.426 1.85184 -0.794297 0
M  V30 1554 O 148.482 2.50058 -0.350318 0
M  V30 1555 C 149.795 0.575597 -2.9514 0
M  V30 1556 C 151.343 0.663519 -3.05886 0
M  V30 1557 C 151.818 0.736946 -4.52032 0
M  V30 1558 N 153.309 0.800118 -4.56237 0
M  V30 1559 C 154.044 0.877327 -5.66649 0
M  V30 1560 N 153.54 0.916016 -6.86718 0
M  V30 1561 N 155.333 0.915542 -5.54594 0
M  V30 1562 H 147.484 -0.683025 -2.01118 0
M  V30 1563 H 149.747 -0.244988 -0.915797 0
M  V30 1564 H 149.453 -0.324482 -3.502 0
M  V30 1565 H 149.327 1.42572 -3.49218 0
M  V30 1566 H 151.714 1.55403 -2.50867 0
M  V30 1567 H 151.795 -0.21307 -2.54911 0
M  V30 1568 H 151.439 -0.149262 -5.07681 0
M  V30 1569 H 151.369 1.62953 -5.00753 0
M  V30 1570 H 153.86 0.778926 -3.69785 0
M  V30 1571 H 154.173 0.975813 -7.66614 0
M  V30 1572 H 152.518 0.884469 -6.89349 0
M  V30 1573 H 155.709 0.882245 -4.59711 0
M  V30 1574 H 155.882 0.972253 -6.40665 0
M  V30 1575 N 149.288 1.51039 0.449983 0
M  V30 1576 C 150.513 1.6715 1.22783 0
M  V30 1577 C 150.938 0.363081 1.84563 0
M  V30 1578 O 150.296 -0.675433 1.68249 0
M  V30 1579 C 150.344 2.77985 2.29689 0
M  V30 1580 O 149.448 2.40707 3.34864 0
M  V30 1581 H 148.789 0.557746 0.360299 0
M  V30 1582 H 151.319 1.97535 0.533005 0
M  V30 1583 H 151.329 3.01693 2.74673 0
M  V30 1584 H 150.004 3.72935 1.84098 0
M  V30 1585 H 148.581 2.27523 2.95445 0
M  V30 1586 N 150.766 -0.704594 1.40972 0
M  V30 1587 C 152.012 -1.46675 1.40051 0
M  V30 1588 C 152.345 -1.94199 0.00641102 0
M  V30 1589 O 151.62 -1.68916 -0.964235 0
M  V30 1590 C 151.903 -2.68505 2.39952 0
M  V30 1591 C 151.756 -2.26805 3.88432 0
M  V30 1592 C 153.075 -3.70686 2.37233 0
M  V30 1593 H 150.194 -0.532015 0.510028 0
M  V30 1594 H 152.836 -0.803255 1.72185 0
M  V30 1595 H 150.986 -3.25114 2.1268 0
M  V30 1596 H 152.658 -1.75592 4.26574 0
M  V30 1597 H 150.901 -1.58685 4.03734 0
M  V30 1598 H 151.572 -3.14181 4.53866 0
M  V30 1599 H 154.048 -3.23731 2.61415 0
M  V30 1600 H 152.924 -4.53553 3.09162 0
M  V30 1601 H 153.185 -4.19754 1.38777 0
M  V30 1602 N 152.244 -1.26651 -0.937939 0
M  V30 1603 C 153.194 -1.05156 -2.02302 0
M  V30 1604 C 154.178 0.0171233 -1.60891 0
M  V30 1605 O 155.37 -0.200213 -1.75864 0
M  V30 1606 C 152.499 -0.689962 -3.36295 0
M  V30 1607 C 151.585 -1.79626 -3.84181 0
M  V30 1608 N 151.976 -3.03422 -4.04684 0
M  V30 1609 C 150.274 -1.6806 -4.13124 0
M  V30 1610 C 150.975 -3.75345 -4.444 0
M  V30 1611 N 149.951 -3.03051 -4.51288 0
M  V30 1612 H 153.753 -1.99117 -2.1617 0
M  V30 1613 H 151.267 -1.17216 -1.12402 0
M  V30 1614 H 153.264 -0.517112 -4.13681 0
M  V30 1615 H 151.924 0.242139 -3.23796 0
M  V30 1616 H 152.935 -3.39293 -3.91281 0
M  V30 1617 H 149.612 -0.818629 -4.09396 0
M  V30 1618 H 151.002 -4.81691 -4.68427 0
M  V30 1619 N 153.722 1.14298 -1.08507 0
M  V30 1620 C 154.95 1.89219 -0.836876 0
M  V30 1621 C 155.365 1.78638 0.611054 0
M  V30 1622 O 154.722 1.14643 1.41998 0
M  V30 1623 C 154.773 3.39158 -1.25116 0
M  V30 1624 O 154.494 3.49449 -2.64229 0
M  V30 1625 C 155.995 4.31073 -1.03398 0
M  V30 1626 H 153.215 0.599328 -0.301739 0
M  V30 1627 H 155.759 1.44746 -1.44461 0
M  V30 1628 H 153.914 3.81251 -0.687514 0
M  V30 1629 H 154.328 4.42589 -2.81452 0
M  V30 1630 H 155.802 5.34646 -1.37323 0
M  V30 1631 H 156.279 4.3919 0.0289259 0
M  V30 1632 H 156.885 3.94738 -1.58311 0
M  V30 1633 N 155.201 0.870884 1.31352 0
M  V30 1634 C 156.131 0.343096 2.30966 0
M  V30 1635 C 157.112 -0.566507 1.60389 0
M  V30 1636 O 158.297 -0.483336 1.88089 0
M  V30 1637 C 155.427 -0.455487 3.443 0
M  V30 1638 C 154.381 0.361103 4.26474 0
M  V30 1639 C 153.707 -0.563221 5.31725 0
M  V30 1640 C 155.007 1.59566 4.97329 0
M  V30 1641 H 156.701 1.17548 2.75359 0
M  V30 1642 H 154.247 0.566686 1.32381 0
M  V30 1643 H 156.2 -0.83525 4.13039 0
M  V30 1644 H 154.924 -1.32139 2.98675 0
M  V30 1645 H 153.583 0.722825 3.59403 0
M  V30 1646 H 153.231 -1.42643 4.82351 0
M  V30 1647 H 152.931 -0.0207409 5.87596 0
M  V30 1648 H 154.455 -0.939808 6.03324 0
M  V30 1649 H 155.869 1.28728 5.58661 0
M  V30 1650 H 154.266 2.07728 5.63 0
M  V30 1651 H 155.336 2.34798 4.24262 0
M  V30 1652 N 156.679 -1.44442 0.630414 0
M  V30 1653 C 157.907 -2.06414 0.141671 0
M  V30 1654 C 158.322 -1.47105 -1.18345 0
M  V30 1655 O 157.679 -0.593662 -1.72574 0
M  V30 1656 C 157.73 -3.61494 0.0199784 0
M  V30 1657 O 157.451 -4.18594 1.29269 0
M  V30 1658 C 158.952 -4.40499 -0.497544 0
M  V30 1659 H 156.172 -0.666292 0.0793452 0
M  V30 1660 H 158.716 -1.85323 0.864614 0
M  V30 1661 H 156.871 -3.8185 -0.653402 0
M  V30 1662 H 157.285 -5.12026 1.13707 0
M  V30 1663 H 158.759 -5.49433 -0.531708 0
M  V30 1664 H 159.236 -4.11895 -1.52445 0
M  V30 1665 H 159.842 -4.25061 0.142562 0
M  V30 1666 N 158.157 -0.370918 -1.53173 0
M  V30 1667 C 159.382 0.220293 -2.06227 0
M  V30 1668 C 159.807 1.41243 -1.24225 0
M  V30 1669 O 159.165 1.79387 -0.262645 0
M  V30 1670 C 159.213 0.586663 -3.55796 0
M  V30 1671 O 158.317 1.68317 -3.76488 0
M  V30 1672 H 157.658 0.0308099 -0.663285 0
M  V30 1673 H 160.188 -0.533068 -1.97534 0
M  V30 1674 H 160.198 0.85617 -3.98916 0
M  V30 1675 H 158.873 -0.285013 -4.14922 0
M  V30 1676 H 157.45 1.40881 -3.45264 0
M  V30 1677 N 159.635 1.57281 -0.100228 0
M  V30 1678 C 160.882 1.94537 0.562268 0
M  V30 1679 C 161.21 0.982315 1.67871 0
M  V30 1680 O 160.465 0.00280936 1.957 0
M  V30 1681 C 160.764 3.38305 1.15259 0
M  V30 1682 C 160.43 4.50618 0.159409 0
M  V30 1683 C 159.092 4.81066 -0.113741 0
M  V30 1684 C 161.444 5.18615 -0.518461 0
M  V30 1685 C 158.772 5.76835 -1.07137 0
M  V30 1686 C 161.124 6.15412 -1.46459 0
M  V30 1687 C 159.788 6.44262 -1.74592 0
M  V30 1688 H 159.058 0.711863 0.205748 0
M  V30 1689 H 161.705 1.90679 -0.17715 0
M  V30 1690 H 160.01 3.38766 1.96836 0
M  V30 1691 H 161.707 3.64435 1.67297 0
M  V30 1692 H 158.297 4.2689 0.382491 0
M  V30 1693 H 162.481 4.95264 -0.320581 0
M  V30 1694 H 157.737 5.975 -1.29628 0
M  V30 1695 H 161.911 6.67194 -1.99564 0
M  V30 1696 H 159.538 7.1828 -2.48953 0
M  V30 1697 N 161.113 -0.173488 1.56642 0
M  V30 1698 C 162.353 -0.896984 1.83667 0
M  V30 1699 C 162.717 -1.79523 0.680842 0
M  V30 1700 O 163.918 -2.55616 0.831488 0
M  V30 1701 C 162.189 -1.67351 3.15798 0
M  V30 1702 S 163.748 -2.44607 3.64298 0
M  V30 1703 H 160.566 -0.300464 0.644393 0
M  V30 1704 H 163.168 -0.158775 1.94854 0
M  V30 1705 H 161.872 -1.00462 3.97914 0
M  V30 1706 H 161.403 -2.45313 3.07546 0
M  V30 1707 H 163.418 -3.69261 3.31452 0
M  V30 1708 N 162.591 -1.51276 -0.441967 0
M  V30 1709 C 163.816 -1.67799 -1.21895 0
M  V30 1710 C 164.241 -0.372864 -1.84367 0
M  V30 1711 O 163.599 0.666501 -1.68604 0
M  V30 1712 C 163.647 -2.79199 -2.28211 0
M  V30 1713 O 162.751 -2.42479 -3.33583 0
M  V30 1714 H 162.092 -0.559649 -0.357336 0
M  V30 1715 H 164.622 -1.97815 -0.522522 0
M  V30 1716 H 164.632 -3.03146 -2.73069 0
M  V30 1717 H 163.307 -3.73906 -1.82118 0
M  V30 1718 H 161.884 -2.29087 -2.94234 0
M  V30 1719 N 164.069 0.697108 -1.41344 0
M  V30 1720 C 165.032 1.79281 -1.42797 0
M  V30 1721 C 166.032 1.57607 -0.318837 0
M  V30 1722 O 167.222 1.64309 -0.578642 0
M  V30 1723 C 164.354 3.17632 -1.23785 0
M  V30 1724 H 165.547 1.79385 -2.40335 0
M  V30 1725 H 163.1 0.904582 -1.27464 0
M  V30 1726 H 163.835 3.23167 -0.270814 0
M  V30 1727 H 163.62 3.34765 -2.04144 0
M  V30 1728 H 165.11 3.97617 -1.27633 0
M  V30 1729 N 165.547 1.27147 0.931209 0
M  V30 1730 C 166.477 1.12081 2.04842 0
M  V30 1731 C 167.458 0.0232364 1.70084 0
M  V30 1732 O 168.643 0.197085 1.93197 0
M  V30 1733 C 165.773 0.76354 3.38803 0
M  V30 1734 C 164.727 1.81396 3.87659 0
M  V30 1735 C 164.053 1.31075 5.18385 0
M  V30 1736 C 165.353 3.21739 4.11438 0
M  V30 1737 H 167.047 2.05537 2.17703 0
M  V30 1738 H 164.593 0.989603 1.04608 0
M  V30 1739 H 166.546 0.644982 4.16435 0
M  V30 1740 H 165.27 -0.206727 3.25945 0
M  V30 1741 H 163.929 1.92136 3.12217 0
M  V30 1742 H 163.577 0.330037 5.01916 0
M  V30 1743 H 163.277 2.013 5.52044 0
M  V30 1744 H 164.801 1.20506 5.98591 0
M  V30 1745 H 166.215 3.14019 4.79651 0
M  V30 1746 H 164.612 3.89644 4.56397 0
M  V30 1747 H 165.682 3.67054 3.16859 0
M  V30 1748 N 167.025 -1.13721 1.09112 0
M  V30 1749 C 167.975 -2.17082 0.697091 0
M  V30 1750 C 168.959 -1.58321 -0.286923 0
M  V30 1751 O 170.151 -1.7673 -0.0978008 0
M  V30 1752 C 167.28 -3.43105 0.115729 0
M  V30 1753 C 166.366 -4.0888 1.12596 0
M  V30 1754 N 166.757 -4.4987 2.31195 0
M  V30 1755 C 165.055 -4.35471 0.963366 0
M  V30 1756 C 165.756 -5.01094 2.95431 0
M  V30 1757 N 164.732 -4.95751 2.23006 0
M  V30 1758 H 168.534 -2.46524 1.6001 0
M  V30 1759 H 166.048 -1.30481 0.966869 0
M  V30 1760 H 168.045 -4.16491 -0.184555 0
M  V30 1761 H 166.705 -3.15138 -0.78217 0
M  V30 1762 H 167.716 -4.42678 2.68806 0
M  V30 1763 H 164.393 -4.17328 0.119878 0
M  V30 1764 H 165.783 -5.4263 3.96236 0
M  V30 1765 N 168.503 -0.877838 -1.30888 0
M  V30 1766 C 169.752 -0.488793 -1.95688 0
M  V30 1767 C 170.065 0.965485 -1.70111 0
M  V30 1768 O 171.271 1.46104 -2.28836 0
M  V30 1769 C 169.727 -0.823201 -3.50359 0
M  V30 1770 C 169.335 -2.29477 -3.84765 0
M  V30 1771 C 171.079 -0.503009 -4.21509 0
M  V30 1772 C 168.986 -2.57118 -5.32583 0
M  V30 1773 H 167.916 -0.179062 -0.732429 0
M  V30 1774 H 170.567 -1.07183 -1.48943 0
M  V30 1775 H 168.949 -0.169331 -3.95638 0
M  V30 1776 H 170.123 -2.99236 -3.5042 0
M  V30 1777 H 168.438 -2.58178 -3.267 0
M  V30 1778 H 171.035 -0.68665 -5.30273 0
M  V30 1779 H 171.378 0.557109 -4.12555 0
M  V30 1780 H 171.911 -1.11376 -3.8189 0
M  V30 1781 H 168.65 -3.61843 -5.4658 0
M  V30 1782 H 168.17 -1.91961 -5.68253 0
M  V30 1783 H 169.849 -2.42251 -5.99936 0
M  V30 1784 N 169.982 1.44106 -0.638065 0
M  V30 1785 C 171.207 2.0685 -0.150916 0
M  V30 1786 C 171.632 1.47417 1.16833 0
M  V30 1787 O 170.99 0.578264 1.71831 0
M  V30 1788 C 171.038 3.60555 -0.05708 0
M  V30 1789 O 170.142 4.00465 0.984972 0
M  V30 1790 H 169.483 0.658151 -0.0879399 0
M  V30 1791 H 172.013 1.84865 -0.876707 0
M  V30 1792 H 172.023 4.07789 0.131232 0
M  V30 1793 H 170.698 4.03193 -1.02021 0
M  V30 1794 H 169.275 3.64849 0.770672 0
M  V30 1795 N 171.46 0.379036 1.52974 0
M  V30 1796 C 172.39 -0.452706 2.29069 0
M  V30 1797 C 173.371 -1.07237 1.32039 0
M  V30 1798 O 174.556 -1.08708 1.60923 0
M  V30 1799 C 171.686 -1.5856 3.08992 0
M  V30 1800 C 170.64 -1.0925 4.13822 0
M  V30 1801 C 169.966 -2.31668 4.81907 0
M  V30 1802 C 171.266 -0.167702 5.22031 0
M  V30 1803 H 172.96 0.182181 2.98845 0
M  V30 1804 H 170.506 0.0890592 1.43724 0
M  V30 1805 H 172.459 -2.1742 3.6098 0
M  V30 1806 H 171.183 -2.24792 2.36931 0
M  V30 1807 H 169.842 -0.526494 3.628 0
M  V30 1808 H 169.49 -2.96386 4.06404 0
M  V30 1809 H 169.19 -1.9934 5.52754 0
M  V30 1810 H 170.714 -2.91189 5.36695 0
M  V30 1811 H 172.128 -0.664186 5.6944 0
M  V30 1812 H 170.525 0.0653265 6.00064 0
M  V30 1813 H 171.595 0.786347 4.78482 0
M  V30 1814 N 172.938 -1.57226 0.108567 0
M  V30 1815 C 174.187 -1.94008 -0.551703 0
M  V30 1816 C 174.5 -0.993442 -1.68494 0
M  V30 1817 O 175.706 -1.25551 -2.40726 0
M  V30 1818 C 174.162 -3.44763 -1.03279 0
M  V30 1819 C 173.77 -4.47943 0.0714193 0
M  V30 1820 C 175.514 -3.90483 -1.66503 0
M  V30 1821 C 173.421 -5.89865 -0.425779 0
M  V30 1822 H 172.351 -0.724206 -0.209863 0
M  V30 1823 H 175.002 -1.82547 0.186741 0
M  V30 1824 H 173.384 -3.51422 -1.82533 0
M  V30 1825 H 174.558 -4.52942 0.847365 0
M  V30 1826 H 172.873 -4.11913 0.609669 0
M  V30 1827 H 175.47 -4.93925 -2.04798 0
M  V30 1828 H 175.813 -3.29877 -2.53942 0
M  V30 1829 H 176.346 -3.86581 -0.938074 0
M  V30 1830 H 173.085 -6.54202 0.412316 0
M  V30 1831 H 172.605 -5.88309 -1.16843 0
M  V30 1832 H 174.284 -6.40844 -0.890397 0
M  V30 1833 N 174.416 0.165178 -1.56732 0
M  V30 1834 C 175.644 0.896218 -1.86482 0
M  V30 1835 C 176.059 1.75555 -0.694675 0
M  V30 1836 O 175.416 1.79379 0.33607 0
M  V30 1837 C 175.467 1.76792 -3.1532 0
M  V30 1838 O 175.188 0.943239 -4.27825 0
M  V30 1839 C 176.689 2.6081 -3.58459 0
M  V30 1840 H 173.909 0.260064 -0.618553 0
M  V30 1841 H 176.453 0.163428 -2.03846 0
M  V30 1842 H 174.608 2.45398 -2.99764 0
M  V30 1843 H 175.022 1.53998 -5.01383 0
M  V30 1844 H 176.496 3.17579 -4.51495 0
M  V30 1845 H 176.973 3.35977 -2.82872 0
M  V30 1846 H 177.579 1.97526 -3.76648 0
M  V30 1847 N 175.894 1.51508 0.433938 0
M  V30 1848 C 177.305 1.56784 1.01369 0
M  V30 1849 C 177.656 0.393349 1.92217 0
M  V30 1850 O 176.781 -0.489441 2.10792 0
M  V30 1851 C 177.376 2.84144 1.8452 0
M  V30 1852 C 175.935 2.9198 2.37539 0
M  V30 1853 C 175.082 2.51482 1.16843 0
M  V30 1854 H 178.033 1.57236 0.215081 0
M  V30 1855 H 178.054 2.68098 2.70007 0
M  V30 1856 H 177.566 3.69607 1.18373 0
M  V30 1857 H 175.667 2.10955 3.0713 0
M  V30 1858 H 175.78 3.95704 2.70103 0
M  V30 1859 H 174.144 2.04758 1.51481 0
M  V30 1860 H 174.927 3.39293 0.523015 0
M  V30 1861 N 177.372 -0.689602 1.41712 0
M  V30 1862 C 178.597 -1.48329 1.44959 0
M  V30 1863 C 179.022 -1.8801 0.0581283 0
M  V30 1864 O 178.38 -1.55026 -0.940035 0
M  V30 1865 C 178.428 -2.71835 2.36935 0
M  V30 1866 O 177.532 -3.69549 1.8305 0
M  V30 1867 H 176.873 -0.446199 0.491734 0
M  V30 1868 H 179.403 -0.847127 1.86239 0
M  V30 1869 H 179.413 -3.20076 2.53013 0
M  V30 1870 H 178.088 -2.42291 3.38035 0
M  V30 1871 H 176.665 -3.2851 1.76452 0
M  V30 1872 N 178.85 -1.27639 -0.924453 0
M  V30 1873 C 180.097 -1.14167 -1.67249 0
M  V30 1874 C 180.425 0.311863 -1.91984 0
M  V30 1875 O 179.68 1.24425 -1.51053 0
M  V30 1876 C 179.979 -1.87407 -3.04325 0
M  V30 1877 C 179.645 -3.37249 -2.99289 0
M  V30 1878 C 178.307 -3.7812 -2.97622 0
M  V30 1879 C 180.659 -4.32845 -2.90336 0
M  V30 1880 C 177.987 -5.12944 -2.8479 0
M  V30 1881 C 180.339 -5.6773 -2.79045 0
M  V30 1882 C 179.003 -6.07889 -2.7573 0
M  V30 1883 H 178.273 -0.417766 -0.612007 0
M  V30 1884 H 180.92 -1.58286 -1.07786 0
M  V30 1885 H 179.225 -1.35805 -3.67511 0
M  V30 1886 H 180.922 -1.74408 -3.61086 0
M  V30 1887 H 177.512 -3.04748 -3.01374 0
M  V30 1888 H 181.696 -4.02239 -2.90719 0
M  V30 1889 H 176.952 -5.432 -2.80612 0
M  V30 1890 H 181.126 -6.41472 -2.71083 0
M  V30 1891 H 178.753 -7.12314 -2.65544 0
M  V30 1892 N 180.328 1.1314 -1.09713 0
M  V30 1893 C 181.739 1.66029 -0.853885 0
M  V30 1894 C 182.09 1.86241 0.617142 0
M  V30 1895 O 181.215 1.5834 1.47503 0
M  V30 1896 C 181.81 3.01599 -1.5435 0
M  V30 1897 C 180.369 3.51467 -1.34714 0
M  V30 1898 C 179.516 2.26648 -1.59769 0
M  V30 1899 H 182.467 0.970226 -1.25588 0
M  V30 1900 H 182.488 3.67709 -0.978267 0
M  V30 1901 H 182 2.86856 -2.6141 0
M  V30 1902 H 180.101 3.71408 -0.297838 0
M  V30 1903 H 180.214 4.314 -2.08401 0
M  V30 1904 H 178.578 2.33385 -1.01998 0
M  V30 1905 H 179.361 2.14467 -2.68065 0
M  V30 1906 N 181.806 0.884767 1.30421 0
M  V30 1907 C 183.034 0.518044 2.0031 0
M  V30 1908 C 183.449 -0.893408 1.66324 0
M  V30 1909 O 182.806 -1.5875 0.900262 0
M  V30 1910 C 182.857 0.682997 3.54989 0
M  V30 1911 O 182.578 2.03888 3.87764 0
M  V30 1912 C 184.079 0.31924 4.42149 0
M  V30 1913 H 181.299 0.200265 0.640418 0
M  V30 1914 H 183.843 1.19001 1.6631 0
M  V30 1915 H 181.998 0.0584052 3.87356 0
M  V30 1916 H 182.412 2.05735 4.82466 0
M  V30 1917 H 183.886 0.485555 5.4986 0
M  V30 1918 H 184.363 -0.742717 4.32875 0
M  V30 1919 H 184.969 0.920147 4.15227 0
M  V30 1920 N 183.284 -1.43765 0.645699 0
M  V30 1921 C 184.194 -2.34544 -0.0512957 0
M  V30 1922 C 185.21 -1.53455 -0.82022 0
M  V30 1923 O 186.386 -1.86133 -0.769176 0
M  V30 1924 C 183.451 -3.31636 -1.01087 0
M  V30 1925 C 182.512 -4.2863 -0.239712 0
M  V30 1926 C 181.745 -5.21084 -1.15358 0
M  V30 1927 O 181.968 -5.1779 -2.39269 0
M  V30 1928 O 180.902 -5.98593 -0.630038 0
M  V30 1929 H 184.728 -2.95624 0.695718 0
M  V30 1930 H 182.313 -1.43781 0.405882 0
M  V30 1931 H 184.195 -3.9136 -1.56254 0
M  V30 1932 H 182.87 -2.73069 -1.73824 0
M  V30 1933 H 181.777 -3.72408 0.355356 0
M  V30 1934 H 183.11 -4.90157 0.447936 0
M  V30 1935 N 184.763 -0.387143 -1.52771 0
M  V30 1936 C 186.011 0.195349 -2.01154 0
M  V30 1937 C 186.332 1.475 -1.27549 0
M  V30 1938 O 185.602 1.91878 -0.394924 0
M  V30 1939 H 184.182 0.075178 -0.743207 0
M  V30 1940 H 186.844 -0.518337 -1.87881 0
M  V30 1941 H 185.94 0.407096 -3.09434 0
M  V30 1942 N 186.241 1.57166 -0.116904 0
M  V30 1943 C 187.151 2.18745 0.847812 0
M  V30 1944 C 188.167 1.163 1.29423 0
M  V30 1945 O 189.343 1.48761 1.35765 0
M  V30 1946 C 186.408 2.77307 2.0809 0
M  V30 1947 C 185.469 3.94781 1.68661 0
M  V30 1948 C 184.702 4.50541 2.86091 0
M  V30 1949 O 184.925 4.05202 4.01456 0
M  V30 1950 O 183.859 5.41256 2.63298 0
M  V30 1951 H 187.685 3.01632 0.353778 0
M  V30 1952 H 185.27 1.49005 0.108599 0
M  V30 1953 H 187.152 3.14647 2.80313 0
M  V30 1954 H 185.827 1.97452 2.56504 0
M  V30 1955 H 184.734 3.62214 0.935518 0
M  V30 1956 H 186.067 4.76065 1.24991 0
M  V30 1957 N 187.719 -0.156864 1.56817 0
M  V30 1958 C 188.944 -0.890331 1.87318 0
M  V30 1959 C 189.369 -1.74394 0.704855 0
M  V30 1960 O 188.727 -1.77972 -0.345786 0
M  V30 1961 C 188.775 -1.73102 3.16336 0
M  V30 1962 O 187.879 -2.83422 2.99576 0
M  V30 1963 H 187.22 -0.24857 0.615718 0
M  V30 1964 H 189.75 -0.150649 2.04045 0
M  V30 1965 H 189.76 -2.12803 3.48107 0
M  V30 1966 H 188.435 -1.10412 4.00976 0
M  V30 1967 H 187.012 -2.47199 2.7919 0
M  V30 1968 N 189.197 -1.51736 -0.425897 0
M  V30 1969 C 190.129 -1.70083 -1.53638 0
M  V30 1970 C 191.142 -0.581349 -1.52066 0
M  V30 1971 O 192.331 -0.856017 -1.56635 0
M  V30 1972 C 189.431 -1.71078 -2.9255 0
M  V30 1973 C 188.604 -2.99795 -3.185 0
M  V30 1974 C 187.663 -2.92825 -4.37196 0
M  V30 1975 O 186.689 -3.66756 -4.35291 0
M  V30 1976 N 187.891 -2.0946 -5.41393 0
M  V30 1977 H 190.656 -2.65882 -1.383 0
M  V30 1978 H 188.217 -1.49765 -0.614988 0
M  V30 1979 H 190.209 -1.63969 -3.69995 0
M  V30 1980 H 188.779 -0.828242 -3.01428 0
M  V30 1981 H 187.999 -3.20684 -2.2925 0
M  V30 1982 H 189.287 -3.84977 -3.32671 0
M  V30 1983 H 188.685 -1.48792 -5.45781 0
M  V30 1984 H 187.242 -2.08221 -6.17647 0
M  V30 1985 N 190.675 0.682077 -1.42076 0
M  V30 1986 C 191.922 1.44215 -1.42156 0
M  V30 1987 C 192.25 1.94468 -0.0354186 0
M  V30 1988 O 191.505 1.70816 0.955002 0
M  V30 1989 C 191.804 2.66036 -2.38662 0
M  V30 1990 C 191.47 2.34366 -3.85206 0
M  V30 1991 C 190.132 2.25439 -4.25124 0
M  V30 1992 C 192.484 2.08513 -4.77673 0
M  V30 1993 C 189.812 1.88775 -5.55501 0
M  V30 1994 C 192.164 1.73354 -6.08384 0
M  V30 1995 C 190.828 1.62933 -6.47309 0
M  V30 1996 H 190.098 0.527718 -0.520187 0
M  V30 1997 H 192.745 0.778387 -1.74967 0
M  V30 1998 H 191.05 3.3741 -1.99152 0
M  V30 1999 H 192.747 3.24205 -2.35991 0
M  V30 2000 H 189.337 2.42213 -3.53597 0
M  V30 2001 H 193.521 2.14346 -4.47626 0
M  V30 2002 H 188.777 1.7927 -5.84527 0
M  V30 2003 H 192.951 1.52373 -6.79526 0
M  V30 2004 H 190.578 1.34292 -7.48244 0
M  V30 2005 N 192.153 1.28127 0.917671 0
M  V30 2006 C 193.399 1.15223 1.66888 0
M  V30 2007 C 193.732 -0.299293 1.9188 0
M  V30 2008 O 193.007 -1.21805 1.51637 0
M  V30 2009 C 193.29 1.94706 3.02922 0
M  V30 2010 C 193.143 3.47898 2.85109 0
M  V30 2011 C 194.462 1.75939 4.03402 0
M  V30 2012 H 191.581 0.419946 0.605652 0
M  V30 2013 H 194.223 1.57398 1.06423 0
M  V30 2014 H 192.373 1.58864 3.54534 0
M  V30 2015 H 194.045 3.93624 2.40537 0
M  V30 2016 H 192.288 3.7373 2.20246 0
M  V30 2017 H 192.959 3.98765 3.81694 0
M  V30 2018 H 195.435 2.07209 3.60837 0
M  V30 2019 H 194.311 2.33931 4.96556 0
M  V30 2020 H 194.572 0.709877 4.36364 0
M  V30 2021 N 193.631 -1.12557 1.10312 0
M  V30 2022 C 194.561 -2.20341 0.772798 0
M  V30 2023 C 195.542 -1.68198 -0.25365 0
M  V30 2024 O 196.727 -1.93831 -0.119699 0
M  V30 2025 C 193.857 -3.46709 0.202443 0
M  V30 2026 C 192.811 -4.11996 1.15943 0
M  V30 2027 C 192.137 -5.328 0.450345 0
M  V30 2028 C 193.437 -4.5828 2.50552 0
M  V30 2029 H 195.131 -2.48229 1.674 0
M  V30 2030 H 192.677 -1.19308 0.806326 0
M  V30 2031 H 194.63 -4.2138 -0.0407752 0
M  V30 2032 H 193.354 -3.18245 -0.734001 0
M  V30 2033 H 192.013 -3.39305 1.38808 0
M  V30 2034 H 191.661 -5.00602 -0.490531 0
M  V30 2035 H 191.361 -5.7743 1.08851 0
M  V30 2036 H 192.885 -6.10219 0.215642 0
M  V30 2037 H 194.299 -5.2433 2.31843 0
M  V30 2038 H 192.696 -5.13683 3.10242 0
M  V30 2039 H 193.766 -3.72329 3.10643 0
M  V30 2040 N 195.109 -0.891671 -1.2995 0
M  V30 2041 C 196.041 -0.320695 -2.26945 0
M  V30 2042 C 197.054 0.528497 -1.53983 0
M  V30 2043 O 198.243 0.346959 -1.75096 0
M  V30 2044 C 195.343 0.562066 -3.34207 0
M  V30 2045 C 194.516 -0.259576 -4.36629 0
M  V30 2046 C 193.575 0.554739 -5.23268 0
M  V30 2047 O 192.601 -0.0249311 -5.69195 0
M  V30 2048 N 193.803 1.8625 -5.4981 0
M  V30 2049 H 196.568 -1.15432 -2.76578 0
M  V30 2050 H 194.129 -0.755336 -1.432 0
M  V30 2051 H 196.121 1.11304 -3.89093 0
M  V30 2052 H 194.691 1.29637 -2.84452 0
M  V30 2053 H 193.911 -0.991986 -3.81514 0
M  V30 2054 H 195.199 -0.822564 -5.02107 0
M  V30 2055 H 194.597 2.35628 -5.14292 0
M  V30 2056 H 193.154 2.36078 -6.07545 0
M  V30 2057 N 196.587 1.43421 -0.653314 0
M  V30 2058 C 197.517 2.33487 0.0246656 0
M  V30 2059 C 198.498 1.49475 0.811863 0
M  V30 2060 O 199.683 1.78139 0.773322 0
M  V30 2061 C 196.813 3.32841 0.99166 0
M  V30 2062 C 195.767 4.26842 0.314568 0
M  V30 2063 C 195.093 5.16236 1.39302 0
M  V30 2064 C 196.393 5.16243 -0.793095 0
M  V30 2065 H 198.087 2.90427 -0.727481 0
M  V30 2066 H 195.633 1.39649 -0.351287 0
M  V30 2067 H 197.586 3.94747 1.47487 0
M  V30 2068 H 196.31 2.74158 1.77497 0
M  V30 2069 H 194.969 3.663 -0.148199 0
M  V30 2070 H 194.617 4.53891 2.16776 0
M  V30 2071 H 194.317 5.79948 0.945223 0
M  V30 2072 H 195.841 5.81015 1.87759 0
M  V30 2073 H 197.255 5.71958 -0.392039 0
M  V30 2074 H 195.652 5.88676 -1.16536 0
M  V30 2075 H 196.722 4.55927 -1.65103 0
M  V30 2076 N 198.065 0.39524 1.52563 0
M  V30 2077 C 199.481 0.0454682 1.59535 0
M  V30 2078 C 199.681 -1.44056 1.4089 0
M  V30 2079 O 198.737 -2.20579 1.22888 0
M  V30 2080 C 200.05 0.527963 2.96029 0
M  V30 2081 C 201.598 0.484733 3.09224 0
M  V30 2082 C 202.073 0.943512 4.48176 0
M  V30 2083 N 203.564 0.899765 4.54377 0
M  V30 2084 C 204.299 1.22609 5.60138 0
M  V30 2085 N 203.795 1.62319 6.73516 0
M  V30 2086 N 205.588 1.14696 5.50274 0
M  V30 2087 H 197.739 1.36261 1.62931 0
M  V30 2088 H 200.002 0.558887 0.765735 0
M  V30 2089 H 199.708 1.56607 3.14908 0
M  V30 2090 H 199.582 -0.0698056 3.77135 0
M  V30 2091 H 201.969 -0.544298 2.90037 0
M  V30 2092 H 202.05 1.11838 2.30056 0
M  V30 2093 H 201.694 1.9708 4.68104 0
M  V30 2094 H 201.624 0.286817 5.25818 0
M  V30 2095 H 204.115 0.607632 3.72983 0
M  V30 2096 H 204.428 1.85567 7.5019 0
M  V30 2097 H 202.773 1.66211 6.74833 0
M  V30 2098 H 205.964 0.835701 4.6058 0
M  V30 2099 H 206.137 1.40459 6.32594 0
M  V30 2100 N 199.544 -1.57102 0.125237 0
M  V30 2101 C 200.955 -1.82384 -0.399142 0
M  V30 2102 C 201.306 -1.04276 -1.66195 0
M  V30 2103 O 200.431 -0.281269 -2.14564 0
M  V30 2104 C 201.026 -3.30821 -0.730932 0
M  V30 2105 C 199.585 -3.56762 -1.19992 0
M  V30 2106 C 198.732 -2.7649 -0.211792 0
M  V30 2107 H 201.683 -1.54786 0.350277 0
M  V30 2108 H 201.704 -3.4579 -1.58775 0
M  V30 2109 H 201.216 -3.87643 0.188345 0
M  V30 2110 H 199.317 -3.05305 -2.13588 0
M  V30 2111 H 199.43 -4.65317 -1.14093 0
M  V30 2112 H 197.794 -2.4489 -0.700085 0
M  V30 2113 H 198.577 -3.36073 0.700691 0
M  V30 2114 N 201.022 0.148545 -1.56898 0
M  V30 2115 C 202.247 0.880385 -1.87787 0
M  V30 2116 C 202.672 1.74018 -0.714093 0
M  V30 2117 O 202.03 1.78153 0.336343 0
M  V30 2118 C 202.078 1.71422 -3.17249 0
M  V30 2119 O 201.182 2.8183 -3.01074 0
M  V30 2120 H 200.523 0.245301 -0.617028 0
M  V30 2121 H 203.053 0.139826 -2.04122 0
M  V30 2122 H 203.063 2.10954 -3.49231 0
M  V30 2123 H 201.738 1.08284 -4.01556 0
M  V30 2124 H 200.315 2.45715 -2.80497 0
M  V30 2125 N 202.5 1.5196 0.417844 0
M  V30 2126 C 203.43 1.77634 1.51554 0
M  V30 2127 C 204.411 0.626918 1.58126 0
M  V30 2128 O 205.596 0.871632 1.7354 0
M  V30 2129 C 202.726 1.91911 2.8946 0
M  V30 2130 C 201.68 3.07463 2.97743 0
M  V30 2131 C 201.006 3.06951 4.37819 0
M  V30 2132 C 202.306 4.47082 2.70027 0
M  V30 2133 H 204 2.6955 1.3032 0
M  V30 2134 H 201.546 1.29706 0.625492 0
M  V30 2135 H 203.499 2.08455 3.6623 0
M  V30 2136 H 202.223 0.966598 3.11969 0
M  V30 2137 H 200.882 2.90656 2.23416 0
M  V30 2138 H 200.53 2.09438 4.57323 0
M  V30 2139 H 200.23 3.84556 4.44286 0
M  V30 2140 H 201.754 3.25613 5.16535 0
M  V30 2141 H 203.168 4.6414 3.36522 0
M  V30 2142 H 201.565 5.2654 2.87881 0
M  V30 2143 H 202.635 4.55777 1.65514 0
M  V30 2144 N 203.978 -0.674533 1.42435 0
M  V30 2145 C 205.394 -0.98769 1.25367 0
M  V30 2146 C 205.594 -2.00879 0.158044 0
M  V30 2147 O 204.65 -2.48075 -0.470633 0
M  V30 2148 C 205.963 -1.49224 2.6106 0
M  V30 2149 C 207.511 -1.61 2.68417 0
M  V30 2150 C 207.986 -2.14852 4.04478 0
M  V30 2151 N 209.477 -2.22185 4.06434 0
M  V30 2152 C 210.212 -2.64928 5.08528 0
M  V30 2153 N 209.708 -3.07121 6.21006 0
M  V30 2154 N 211.501 -2.64679 4.95885 0
M  V30 2155 H 203.652 0.00152503 2.124 0
M  V30 2156 H 205.915 -0.0618434 0.945981 0
M  V30 2157 H 205.621 -0.816453 3.42092 0
M  V30 2158 H 205.495 -2.47094 2.84999 0
M  V30 2159 H 207.882 -2.27686 1.87732 0
M  V30 2160 H 207.963 -0.616195 2.48267 0
M  V30 2161 H 207.607 -1.48775 4.85622 0
M  V30 2162 H 207.537 -3.15024 4.2198 0
M  V30 2163 H 210.028 -1.92435 3.25234 0
M  V30 2164 H 210.341 -3.38423 6.94759 0
M  V30 2165 H 208.686 -3.04978 6.24511 0
M  V30 2166 H 211.877 -2.31078 4.07088 0
M  V30 2167 H 212.05 -2.9767 5.75584 0
M  V30 2168 N 205.456 -1.28612 -0.910864 0
M  V30 2169 C 206.704 -1.15705 -1.65701 0
M  V30 2170 C 207.025 0.29416 -1.92769 0
M  V30 2171 O 206.295 1.20331 -1.54588 0
M  V30 2172 H 204.875 -0.425216 -0.614167 0
M  V30 2173 H 207.537 -1.61381 -1.0928 0
M  V30 2174 H 206.633 -1.6988 -2.61815 0
M  V30 2175 N 206.934 1.1197 -1.10907 0
M  V30 2176 C 207.897 2.16031 -0.765707 0
M  V30 2177 C 208.897 1.59393 0.212235 0
M  V30 2178 O 210.087 1.74196 -0.0115441 0
M  V30 2179 C 207.219 3.40632 -0.135053 0
M  V30 2180 H 208.412 2.47919 -1.68748 0
M  V30 2181 H 205.965 1.27061 -0.910226 0
M  V30 2182 H 206.7 3.14348 0.797218 0
M  V30 2183 H 206.485 3.8302 -0.838937 0
M  V30 2184 H 207.975 4.17505 0.0892469 0
M  V30 2185 N 208.412 0.89855 1.29475 0
M  V30 2186 C 209.342 0.39201 2.30186 0
M  V30 2187 C 210.323 -0.532359 1.61555 0
M  V30 2188 O 211.508 -0.443331 1.89072 0
M  V30 2189 C 208.638 -0.382353 3.45189 0
M  V30 2190 C 207.592 0.451483 4.25612 0
M  V30 2191 C 206.918 -0.450307 5.328 0
M  V30 2192 C 208.218 1.70079 4.93832 0
M  V30 2193 H 209.912 1.23362 2.72804 0
M  V30 2194 H 207.458 0.594638 1.31149 0
M  V30 2195 H 209.411 -0.747451 4.14718 0
M  V30 2196 H 208.135 -1.25774 3.01411 0
M  V30 2197 H 206.794 0.798897 3.57789 0
M  V30 2198 H 206.442 -1.32379 4.85268 0
M  V30 2199 H 206.142 0.103902 5.87508 0
M  V30 2200 H 207.666 -0.811623 6.05182 0
M  V30 2201 H 209.08 1.40549 5.55805 0
M  V30 2202 H 207.477 2.19623 5.58467 0
M  V30 2203 H 208.547 2.43744 4.19186 0
M  V30 2204 N 209.89 -1.43072 0.660911 0
M  V30 2205 C 210.82 -2.33497 -0.0122829 0
M  V30 2206 C 211.801 -1.49903 -0.803925 0
M  V30 2207 O 212.986 -1.78546 -0.763864 0
M  V30 2208 C 210.116 -3.33363 -0.973994 0
M  V30 2209 C 209.07 -4.27003 -0.291928 0
M  V30 2210 C 208.396 -5.16967 -1.36562 0
M  V30 2211 C 209.696 -5.15816 0.820462 0
M  V30 2212 H 211.39 -2.90038 0.742873 0
M  V30 2213 H 208.936 -1.39461 0.358688 0
M  V30 2214 H 210.889 -3.95524 -1.45392 0
M  V30 2215 H 209.613 -2.75095 -1.7604 0
M  V30 2216 H 208.272 -3.66217 0.167623 0
M  V30 2217 H 207.92 -4.55034 -2.14366 0
M  V30 2218 H 207.62 -5.80441 -0.914454 0
M  V30 2219 H 209.144 -5.82003 -1.84675 0
M  V30 2220 H 210.558 -5.71742 0.422366 0
M  V30 2221 H 208.955 -5.8805 1.19656 0
M  V30 2222 H 210.025 -4.55045 1.67518 0
M  V30 2223 N 211.368 -0.403325 -1.52352 0
M  V30 2224 C 212.593 0.176499 -2.06648 0
M  V30 2225 C 213.018 1.38577 -1.27193 0
M  V30 2226 O 212.376 1.7879 -0.300637 0
M  V30 2227 C 212.424 0.511061 -3.5696 0
M  V30 2228 O 211.528 1.60294 -3.79973 0
M  V30 2229 H 210.869 0.0167337 -0.663789 0
M  V30 2230 H 213.399 -0.574848 -1.96359 0
M  V30 2231 H 213.409 0.771362 -4.00642 0
M  V30 2232 H 212.084 -0.37296 -4.14224 0
M  V30 2233 H 210.661 1.33526 -3.48174 0
M  V30 2234 N 212.846 1.57033 -0.133567 0
M  V30 2235 C 213.776 2.1909 0.807567 0
M  V30 2236 C 214.757 1.13517 1.26681 0
M  V30 2237 O 215.942 1.41809 1.32679 0
M  V30 2238 C 213.072 2.80188 2.05212 0
M  V30 2239 C 212.026 3.91471 1.73015 0
M  V30 2240 C 211.352 4.39443 3.04622 0
M  V30 2241 C 212.652 5.12886 0.987168 0
M  V30 2242 H 214.346 2.97988 0.290403 0
M  V30 2243 H 211.892 1.43335 0.138239 0
M  V30 2244 H 213.845 3.22264 2.71521 0
M  V30 2245 H 212.569 1.98601 2.59278 0
M  V30 2246 H 211.228 3.49993 1.0909 0
M  V30 2247 H 210.876 3.54695 3.56651 0
M  V30 2248 H 210.576 5.14495 2.83847 0
M  V30 2249 H 212.1 4.8418 3.72024 0
M  V30 2250 H 213.514 5.51891 1.55208 0
M  V30 2251 H 211.911 5.93615 0.87985 0
M  V30 2252 H 212.981 4.84894 -0.0235286 0
M  V30 2253 N 214.325 -0.140222 1.56975 0
M  V30 2254 C 215.255 -1.17456 2.01808 0
M  V30 2255 C 216.236 -1.44415 0.898794 0
M  V30 2256 O 217.421 -1.5522 1.16707 0
M  V30 2257 C 214.551 -2.50607 2.40444 0
M  V30 2258 C 213.505 -2.38155 3.55621 0
M  V30 2259 C 212.831 -3.76078 3.80091 0
M  V30 2260 C 214.131 -1.85991 4.88062 0
M  V30 2261 H 215.825 -0.801743 2.88466 0
M  V30 2262 H 213.371 -0.38422 1.38779 0
M  V30 2263 H 215.324 -3.23197 2.7041 0
M  V30 2264 H 214.048 -2.89737 1.50732 0
M  V30 2265 H 212.707 -1.68016 3.25832 0
M  V30 2266 H 212.355 -4.12656 2.87618 0
M  V30 2267 H 212.055 -3.68606 4.57606 0
M  V30 2268 H 213.579 -4.50206 4.12488 0
M  V30 2269 H 214.993 -2.4838 5.16701 0
M  V30 2270 H 213.39 -1.89393 5.6943 0
M  V30 2271 H 214.46 -0.816023 4.77984 0
M  V30 2272 N 215.803 -1.52179 -0.40978 0
M  V30 2273 C 217.08 -1.56769 -1.16974 0
M  V30 2274 C 217.46 -0.348322 -2.08206 0
M  V30 2275 O 216.808 0.664862 -2.18613 0
M  V30 2276 C 217.018 -2.89603 -1.9476 0
M  V30 2277 C 218.366 -3.42579 -2.50849 0
M  V30 2278 O 219.39 -2.91338 -2.04941 0
M  V30 2279 O 218.249 -4.32054 -3.34652 0
M  V30 2280 H 215.343 -0.631439 -0.534054 0
M  V30 2281 H 217.889 -1.64507 -0.416613 0
M  V30 2282 H 216.661 -3.698 -1.27921 0
M  V30 2283 H 216.284 -2.85155 -2.77079 0
M  V30 2284 N 217.281 0.66697 -1.42791 0
M  V30 2285 C 218.231 1.77313 -1.43332 0
M  V30 2286 C 219.215 1.5801 -0.303586 0
M  V30 2287 O 220.407 1.68356 -0.546385 0
M  V30 2288 C 217.536 3.15822 -1.34578 0
M  V30 2289 C 216.622 3.40721 -2.52528 0
M  V30 2290 N 217.013 3.36162 -3.77927 0
M  V30 2291 C 215.311 3.71387 -2.46956 0
M  V30 2292 C 216.012 3.60762 -4.56318 0
M  V30 2293 N 214.988 3.81908 -3.86843 0
M  V30 2294 H 218.79 1.72193 -2.38174 0
M  V30 2295 H 216.304 0.868114 -1.3725 0
M  V30 2296 H 218.301 3.951 -1.33048 0
M  V30 2297 H 216.961 3.22133 -0.407453 0
M  V30 2298 H 217.972 3.15885 -4.10411 0
M  V30 2299 H 214.649 3.84897 -1.61743 0
M  V30 2300 H 216.039 3.63132 -5.65318 0
M  V30 2301 N 218.759 1.29093 0.90403 0
M  V30 2302 C 219.989 1.19516 1.68522 0
M  V30 2303 C 220.397 -0.24738 1.87576 0
M  V30 2304 O 219.74 -1.17798 1.40959 0
M  V30 2305 C 219.802 1.83249 3.0929 0
M  V30 2306 C 219.466 3.32531 3.13484 0
M  V30 2307 C 220.463 4.28821 2.93953 0
M  V30 2308 C 218.148 3.73656 3.35688 0
M  V30 2309 C 220.142 5.64212 2.96553 0
M  V30 2310 C 217.829 5.0917 3.37919 0
M  V30 2311 C 218.827 6.04258 3.18373 0
M  V30 2312 O 218.515 7.37298 3.20385 0
M  V30 2313 H 218.247 0.415467 0.533257 0
M  V30 2314 H 220.801 1.70912 1.13922 0
M  V30 2315 H 219.031 1.26358 3.65473 0
M  V30 2316 H 220.72 1.68054 3.69476 0
M  V30 2317 H 221.486 3.98382 2.76616 0
M  V30 2318 H 217.365 3.00101 3.49943 0
M  V30 2319 H 220.909 6.38407 2.81216 0
M  V30 2320 H 216.806 5.39256 3.54787 0
M  V30 2321 H 217.574 7.46048 3.36681 0
M  V30 2322 N 220.237 -1.11381 1.11499 0
M  V30 2323 C 221.147 -2.21019 0.786628 0
M  V30 2324 C 222.163 -1.72597 -0.220507 0
M  V30 2325 O 223.339 -2.01321 -0.0565251 0
M  V30 2326 C 220.404 -3.459 0.235333 0
M  V30 2327 C 219.465 -4.09107 1.30115 0
M  V30 2328 C 218.698 -5.28027 0.776068 0
M  V30 2329 O 218.921 -5.6904 -0.393661 0
M  V30 2330 O 217.855 -5.81835 1.54114 0
M  V30 2331 H 221.681 -2.51521 1.70209 0
M  V30 2332 H 219.266 -1.19928 0.890928 0
M  V30 2333 H 221.148 -4.21346 -0.067715 0
M  V30 2334 H 219.823 -3.17049 -0.652828 0
M  V30 2335 H 218.73 -3.35391 1.65722 0
M  V30 2336 H 220.063 -4.42139 2.16273 0
M  V30 2337 N 221.715 -0.905404 -1.28997 0
M  V30 2338 C 222.961 -0.544465 -1.95977 0
M  V30 2339 C 223.316 0.90041 -1.70031 0
M  V30 2340 O 222.609 1.63064 -1.00601 0
M  V30 2341 C 222.803 -0.779906 -3.48787 0
M  V30 2342 C 222.632 -2.24612 -3.89589 0
M  V30 2343 C 221.402 -2.89464 -4.14172 0
M  V30 2344 C 223.6 -3.22182 -4.00878 0
M  V30 2345 N 221.582 -4.26469 -4.41585 0
M  V30 2346 C 222.953 -4.44323 -4.32409 0
M  V30 2347 C 225.008 -3.17694 -3.83373 0
M  V30 2348 C 223.711 -5.62546 -4.48258 0
M  V30 2349 C 225.737 -4.35208 -4.00435 0
M  V30 2350 C 225.099 -5.56121 -4.3233 0
M  V30 2351 H 221.198 -0.248948 -0.741316 0
M  V30 2352 H 223.782 -1.1674 -1.5582 0
M  V30 2353 H 221.953 -0.186308 -3.87953 0
M  V30 2354 H 223.685 -0.383833 -4.02876 0
M  V30 2355 H 220.44 -2.40232 -4.08149 0
M  V30 2356 H 220.864 -4.97283 -4.5939 0
M  V30 2357 H 225.506 -2.25297 -3.57773 0
M  V30 2358 H 223.224 -6.55429 -4.72692 0
M  V30 2359 H 226.81 -4.33228 -3.88336 0
M  V30 2360 H 225.69 -6.45537 -4.45255 0
M  V30 2361 N 223.193 1.4272 -0.668489 0
M  V30 2362 C 224.141 2.32586 0.0254857 0
M  V30 2363 C 225.135 1.49471 0.797176 0
M  V30 2364 O 226.341 1.65583 0.705853 0
M  V30 2365 H 222.716 0.751514 0.0270339 0
M  V30 2366 H 224.687 2.88823 -0.749936 0
M  V30 2367 C 223.436 3.3397 0.967427 0
M  V30 2368 H 222.759 3.97961 0.383048 0
M  V30 2369 H 224.199 3.9945 1.42181 0
M  V30 2370 C 222.658 2.65744 2.0708 0
M  V30 2371 O 223.188 2.48454 3.15648 0
M  V30 2372 N 221.394 2.2487 1.8407 0
M  V30 2373 H 220.941 2.39132 0.95778 0
M  V30 2374 H 220.899 1.79552 2.58086 0
M  V30 2375 N 224.671 0.411399 1.52136 0
M  V30 2376 C 225.911 -0.163143 2.03748 0
M  V30 2377 C 226.275 -1.42187 1.29022 0
M  V30 2378 O 227.476 -2.075 1.70872 0
M  V30 2379 C 225.747 -0.402651 3.55125 0
M  V30 2380 S 227.306 -0.944315 4.28519 0
M  V30 2381 H 224.124 -0.0439833 0.709638 0
M  V30 2382 H 226.726 0.56484 1.87163 0
M  V30 2383 H 225.43 0.520212 4.0709 0
M  V30 2384 H 224.961 -1.15844 3.75957 0
M  V30 2385 H 226.976 -2.22463 4.43536 0
M  V30 2386 N 226.149 -1.5696 0.141893 0
M  V30 2387 C 227.396 -1.9596 -0.510492 0
M  V30 2388 C 227.724 -1.02648 -1.65208 0
M  V30 2389 O 226.979 -0.0546947 -1.95624 0
M  V30 2390 C 227.278 -3.41242 -1.06249 0
M  V30 2391 C 226.944 -4.50882 -0.0398791 0
M  V30 2392 C 225.606 -4.80595 0.241247 0
M  V30 2393 C 227.958 -5.17058 0.65578 0
M  V30 2394 C 225.286 -5.73792 1.22393 0
M  V30 2395 C 227.638 -6.11313 1.62724 0
M  V30 2396 C 226.302 -6.39407 1.91612 0
M  V30 2397 H 225.572 -0.717068 -0.186802 0
M  V30 2398 H 228.219 -1.90142 0.227643 0
M  V30 2399 H 226.524 -3.43866 -1.87785 0
M  V30 2400 H 228.221 -3.68742 -1.57576 0
M  V30 2401 H 224.811 -4.27754 -0.269174 0
M  V30 2402 H 228.995 -4.94239 0.451779 0
M  V30 2403 H 224.251 -5.93853 1.45424 0
M  V30 2404 H 228.425 -6.61668 2.17183 0
M  V30 2405 H 226.052 -7.11427 2.6791 0
M  V30 2406 N 227.627 0.131896 -1.57047 0
M  V30 2407 C 228.873 0.843179 -1.84441 0
M  V30 2408 C 229.206 1.80129 -0.725749 0
M  V30 2409 O 228.481 1.92624 0.269469 0
M  V30 2410 C 228.764 1.60442 -3.22382 0
M  V30 2411 C 228.617 0.666782 -4.4483 0
M  V30 2412 C 229.936 2.56354 -3.5773 0
M  V30 2413 H 227.055 0.305081 -0.670891 0
M  V30 2414 H 229.697 0.107839 -1.89694 0
M  V30 2415 H 227.847 2.23128 -3.18035 0
M  V30 2416 H 229.519 0.0497646 -4.61273 0
M  V30 2417 H 227.762 -0.022609 -4.33794 0
M  V30 2418 H 228.433 1.23579 -5.37989 0
M  V30 2419 H 230.909 2.0378 -3.62785 0
M  V30 2420 H 229.785 3.06657 -4.5525 0
M  V30 2421 H 230.046 3.38419 -2.84473 0
M  V30 2422 N 229.106 1.52395 0.401703 0
M  V30 2423 C 230.353 1.66817 1.14796 0
M  V30 2424 C 230.681 0.401772 1.90305 0
M  V30 2425 O 229.936 -0.615487 1.85769 0
M  V30 2426 C 230.235 2.84578 2.16217 0
M  V30 2427 C 229.901 4.22513 1.5746 0
M  V30 2428 C 228.563 4.60029 1.41161 0
M  V30 2429 C 230.915 5.0844 1.14622 0
M  V30 2430 C 228.243 5.81144 0.80552 0
M  V30 2431 C 230.595 6.30167 0.55428 0
M  V30 2432 C 229.259 6.66426 0.378482 0
M  V30 2433 H 228.529 0.610428 0.420069 0
M  V30 2434 H 231.176 1.86512 0.434212 0
M  V30 2435 H 229.481 2.59248 2.93764 0
M  V30 2436 H 231.178 2.92933 2.73845 0
M  V30 2437 H 227.768 3.92953 1.71132 0
M  V30 2438 H 231.952 4.80034 1.26021 0
M  V30 2439 H 227.208 6.07855 0.657399 0
M  V30 2440 H 231.382 6.96071 0.213983 0
M  V30 2441 H 229.009 7.60143 -0.0932606 0
M  V30 2442 N 230.584 -0.659388 1.43143 0
M  V30 2443 C 231.514 -1.78422 1.50625 0
M  V30 2444 C 232.495 -1.66216 0.361443 0
M  V30 2445 O 233.68 -1.85404 0.577834 0
M  V30 2446 C 230.81 -3.16815 1.42287 0
M  V30 2447 C 229.764 -3.43777 2.54954 0
M  V30 2448 C 229.09 -4.81905 2.31671 0
M  V30 2449 C 230.39 -3.39134 3.97222 0
M  V30 2450 H 232.084 -1.72417 2.44771 0
M  V30 2451 H 229.63 -0.828084 1.17808 0
M  V30 2452 H 231.583 -3.95253 1.46127 0
M  V30 2453 H 230.307 -3.23534 0.446435 0
M  V30 2454 H 228.966 -2.67707 2.50457 0
M  V30 2455 H 228.614 -4.85294 1.32284 0
M  V30 2456 H 228.314 -5.00906 3.07192 0
M  V30 2457 H 229.838 -5.62609 2.37284 0
M  V30 2458 H 231.252 -4.07518 4.03239 0
M  V30 2459 H 229.649 -3.69671 4.72719 0
M  V30 2460 H 230.719 -2.37426 4.22797 0
M  V30 2461 N 232.062 -1.29571 -0.897171 0
M  V30 2462 C 233.292 -1.20408 -1.67886 0
M  V30 2463 C 233.7 0.237429 -1.87704 0
M  V30 2464 O 233.043 1.17048 -1.41582 0
M  V30 2465 C 233.105 -1.84887 -3.08314 0
M  V30 2466 C 232.769 -3.34189 -3.11716 0
M  V30 2467 C 233.766 -4.30374 -2.91675 0
M  V30 2468 C 231.451 -3.75431 -3.33701 0
M  V30 2469 C 233.445 -5.65776 -2.93557 0
M  V30 2470 C 231.132 -5.10955 -3.35214 0
M  V30 2471 C 232.13 -6.05938 -3.15164 0
M  V30 2472 O 231.818 -7.38987 -3.1647 0
M  V30 2473 H 231.55 -0.418289 -0.531046 0
M  V30 2474 H 234.104 -1.71514 -1.13014 0
M  V30 2475 H 232.334 -1.28295 -3.64798 0
M  V30 2476 H 234.023 -1.70011 -3.6858 0
M  V30 2477 H 234.789 -3.99844 -2.74499 0
M  V30 2478 H 230.668 -3.01953 -3.48347 0
M  V30 2479 H 234.212 -6.39889 -2.77826 0
M  V30 2480 H 230.109 -5.4113 -3.51922 0
M  V30 2481 H 230.877 -7.47823 -3.3272 0
M  V30 2482 N 233.54 1.10788 -1.12088 0
M  V30 2483 C 234.817 1.79136 -0.785476 0
M  V30 2484 C 235.197 1.98246 0.725377 0
M  V30 2485 O 234.545 1.57258 1.65778 0
M  V30 2486 C 234.755 3.12375 -1.55636 0
M  V30 2487 C 236.103 3.8731 -1.74001 0
M  V30 2488 O 237.127 3.22085 -1.52117 0
M  V30 2489 O 235.986 5.04369 -2.10415 0
M  V30 2490 H 233.08 0.776226 -0.285311 0
M  V30 2491 H 235.626 1.1747 -1.2247 0
M  V30 2492 H 234.398 2.93863 -2.5838 0
M  V30 2493 H 234.021 3.81758 -1.11114 0
M  V30 2494 N 235.018 0.912232 1.28515 0
M  V30 2495 C 236.246 0.560416 1.99166 0
M  V30 2496 C 236.661 -0.857927 1.68182 0
M  V30 2497 O 236.018 -1.56805 0.933733 0
M  V30 2498 C 236.069 0.758142 3.53461 0
M  V30 2499 O 235.79 2.12067 3.83352 0
M  V30 2500 C 237.291 0.412954 4.41372 0
M  V30 2501 H 234.511 0.213805 0.636026 0
M  V30 2502 H 237.055 1.22502 1.63749 0
M  V30 2503 H 235.21 0.140556 3.87145 0
M  V30 2504 H 235.624 2.15923 4.77993 0
M  V30 2505 H 237.098 0.60208 5.48707 0
M  V30 2506 H 237.575 -0.65073 4.34353 0
M  V30 2507 H 238.181 1.00802 4.13182 0
M  V30 2508 N 236.496 -1.42363 0.676048 0
M  V30 2509 C 237.773 -1.95183 0.127726 0
M  V30 2510 C 238.153 -1.61641 -1.35777 0
M  V30 2511 O 237.501 -0.913216 -2.09458 0
M  V30 2512 C 237.711 -3.46721 0.398199 0
M  V30 2513 C 239.059 -4.23427 0.315383 0
M  V30 2514 O 240.083 -3.54649 0.332016 0
M  V30 2515 O 238.942 -5.45888 0.25865 0
M  V30 2516 H 236.036 -0.826992 0.00359427 0
M  V30 2517 H 238.582 -1.52184 0.750864 0
M  V30 2518 H 237.354 -3.64344 1.4272 0
M  V30 2519 H 236.977 -3.96769 -0.256885 0
M  V30 2520 N 237.974 -0.419461 -1.51915 0
M  V30 2521 C 239.39 -0.0708431 -1.59443 0
M  V30 2522 C 239.59 1.41796 -1.43164 0
M  V30 2523 O 238.646 2.18596 -1.26381 0
M  V30 2524 C 239.959 -0.574991 -2.95151 0
M  V30 2525 C 241.507 -0.533867 -3.08413 0
M  V30 2526 C 241.982 -1.01469 -4.46618 0
M  V30 2527 N 243.473 -0.971939 -4.52888 0
M  V30 2528 C 244.208 -1.31505 -5.58116 0
M  V30 2529 N 243.704 -1.73014 -6.70849 0
M  V30 2530 N 245.497 -1.23436 -5.48379 0
M  V30 2531 H 237.648 -1.38836 -1.60743 0
M  V30 2532 H 239.911 -0.570998 -0.756747 0
M  V30 2533 H 239.617 -1.61597 -3.12377 0
M  V30 2534 H 239.491 0.00979777 -3.77199 0
M  V30 2535 H 241.878 0.498086 -2.90866 0
M  V30 2536 H 241.959 -1.15484 -2.28248 0
M  V30 2537 H 241.603 -2.04502 -4.6491 0
M  V30 2538 H 241.533 -0.370433 -5.25295 0
M  V30 2539 H 244.024 -0.666893 -3.71969 0
M  V30 2540 H 244.337 -1.97479 -7.47143 0
M  V30 2541 H 242.682 -1.76926 -6.72103 0
M  V30 2542 H 245.873 -0.908869 -4.59192 0
M  V30 2543 H 246.046 -1.50506 -6.30279 0
M  V30 2544 N 239.452 1.56882 -0.150215 0
M  V30 2545 C 240.7 1.9584 0.499105 0
M  V30 2546 C 241.021 1.03623 1.65188 0
M  V30 2547 O 240.291 0.0984084 1.95653 0
M  V30 2548 H 238.871 0.723119 0.187373 0
M  V30 2549 H 241.533 1.9358 -0.226466 0
M  V30 2550 H 240.629 2.99638 0.873122 0
M  V30 2551 N 240.93 -0.123565 1.57115 0
M  V30 2552 C 242.16 -0.845233 1.88519 0
M  V30 2553 C 242.568 -1.74168 0.739064 0
M  V30 2554 O 241.911 -1.81244 -0.299355 0
M  V30 2555 C 241.973 -1.73452 3.14888 0
M  V30 2556 C 241.637 -1.01285 4.45635 0
M  V30 2557 C 242.634 -0.355774 5.18681 0
M  V30 2558 C 240.319 -0.99538 4.92339 0
M  V30 2559 C 242.313 0.309114 6.3665 0
M  V30 2560 C 240 -0.32669 6.10226 0
M  V30 2561 C 240.998 0.324406 6.82229 0
M  V30 2562 O 240.686 0.982437 7.97874 0
M  V30 2563 H 240.418 -0.248534 0.628655 0
M  V30 2564 H 242.972 -0.113907 2.05084 0
M  V30 2565 H 241.202 -2.50737 2.94394 0
M  V30 2566 H 242.891 -2.33021 3.32349 0
M  V30 2567 H 243.657 -0.360918 4.83655 0
M  V30 2568 H 239.536 -1.49159 4.36202 0
M  V30 2569 H 243.08 0.8179 6.92789 0
M  V30 2570 H 238.977 -0.319294 6.4471 0
M  V30 2571 H 239.745 0.886454 8.13686 0
M  V30 2572 N 242.408 -1.52605 -0.393616 0
M  V30 2573 C 243.633 -1.71592 -1.16495 0
M  V30 2574 C 244.058 -0.43133 -1.83088 0
M  V30 2575 O 243.416 0.612523 -1.7064 0
M  V30 2576 C 243.464 -2.86318 -2.19213 0
M  V30 2577 O 242.568 -2.52969 -3.257 0
M  V30 2578 H 241.909 -0.570734 -0.33935 0
M  V30 2579 H 244.439 -1.99377 -0.459324 0
M  V30 2580 H 244.449 -3.1168 -2.63286 0
M  V30 2581 H 243.124 -3.79511 -1.7013 0
M  V30 2582 H 241.701 -2.38332 -2.86797 0
M  V30 2583 N 243.887 0.651787 -1.4349 0
M  V30 2584 C 245.136 1.40754 -1.44469 0
M  V30 2585 C 245.449 1.95463 -0.0731845 0
M  V30 2586 O 246.655 2.71471 0.0395721 0
M  V30 2587 C 245.111 2.54735 -2.5424 0
M  V30 2588 C 244.719 2.06628 -3.97504 0
M  V30 2589 C 246.463 3.32092 -2.64414 0
M  V30 2590 C 244.37 3.17829 -4.98737 0
M  V30 2591 H 243.3 0.528862 -0.53742 0
M  V30 2592 H 245.951 0.703365 -1.69485 0
M  V30 2593 H 244.333 3.2763 -2.22428 0
M  V30 2594 H 245.507 1.40734 -4.38783 0
M  V30 2595 H 243.822 1.42146 -3.91387 0
M  V30 2596 H 246.419 4.14952 -3.37223 0
M  V30 2597 H 246.762 3.80217 -1.69532 0
M  V30 2598 H 247.295 2.66279 -2.95534 0
M  V30 2599 H 244.034 2.74671 -5.95177 0
M  V30 2600 H 243.554 3.82429 -4.62069 0
M  V30 2601 H 245.233 3.82937 -5.21505 0
M  V30 2602 N 245.365 1.30045 0.890287 0
M  V30 2603 C 246.295 1.18541 2.01172 0
M  V30 2604 C 247.276 0.0773356 1.69924 0
M  V30 2605 O 248.461 0.25845 1.92473 0
M  V30 2606 C 245.591 0.870941 3.36202 0
M  V30 2607 C 244.545 1.93637 3.81692 0
M  V30 2608 C 243.871 1.475 5.13953 0
M  V30 2609 C 245.171 3.34666 4.00994 0
M  V30 2610 H 246.865 2.12359 2.11054 0
M  V30 2611 H 244.411 1.02238 1.01407 0
M  V30 2612 H 246.364 0.777141 4.14172 0
M  V30 2613 H 245.088 -0.102926 3.26438 0
M  V30 2614 H 243.747 2.01972 3.05946 0
M  V30 2615 H 243.395 0.489551 5.00612 0
M  V30 2616 H 243.095 2.1876 5.4536 0
M  V30 2617 H 244.619 1.39489 5.94454 0
M  V30 2618 H 246.033 3.2912 4.69417 0
M  V30 2619 H 244.43 4.03966 4.43769 0
M  V30 2620 H 245.5 3.76949 3.05021 0
M  V30 2621 N 246.843 -1.10192 1.12674 0
M  V30 2622 C 247.775 -2.16418 0.754701 0
M  V30 2623 C 248.788 -1.61309 -0.21986 0
M  V30 2624 O 249.977 -1.785 -0.000826841 0
M  V30 2625 C 247.077 -3.38762 0.096698 0
M  V30 2626 C 246.25 -4.23307 1.10136 0
M  V30 2627 C 245.309 -5.24092 0.470513 0
M  V30 2628 O 244.335 -5.57906 1.12824 0
M  V30 2629 N 245.537 -5.75491 -0.760948 0
M  V30 2630 H 248.302 -2.48943 1.66875 0
M  V30 2631 H 245.863 -1.25834 1.01869 0
M  V30 2632 H 247.855 -4.03291 -0.337384 0
M  V30 2633 H 246.425 -3.04192 -0.720153 0
M  V30 2634 H 245.645 -3.55036 1.71299 0
M  V30 2635 H 246.933 -4.76624 1.78064 0
M  V30 2636 H 246.331 -5.50222 -1.31424 0
M  V30 2637 H 244.888 -6.41792 -1.13781 0
M  V30 2638 N 248.321 -0.919034 -1.28029 0
M  V30 2639 C 249.284 -0.416182 -2.2539 0
M  V30 2640 C 250.284 0.460438 -1.54067 0
M  V30 2641 O 251.474 0.262744 -1.72207 0
M  V30 2642 C 248.606 0.402707 -3.38513 0
M  V30 2643 H 249.799 -1.27629 -2.71387 0
M  V30 2644 H 247.352 -0.698919 -1.39803 0
M  V30 2645 H 248.087 1.282 -2.97885 0
M  V30 2646 H 247.872 -0.225698 -3.9145 0
M  V30 2647 H 249.362 0.745191 -4.10897 0
M  V30 2648 N 249.799 1.42003 -0.683588 0
M  V30 2649 C 251.048 2.00638 -0.206681 0
M  V30 2650 C 251.361 1.5472 1.19671 0
M  V30 2651 O 252.567 2.05833 1.77045 0
M  V30 2652 C 251.023 3.58487 -0.318632 0
M  V30 2653 C 250.631 4.1339 -1.72663 0
M  V30 2654 C 252.375 4.24384 0.0991141 0
M  V30 2655 C 250.282 5.63633 -1.79087 0
M  V30 2656 H 249.212 0.750408 -0.0735107 0
M  V30 2657 H 251.863 1.62624 -0.850048 0
M  V30 2658 H 250.245 3.94047 0.392781 0
M  V30 2659 H 251.419 3.89273 -2.46583 0
M  V30 2660 H 249.734 3.59976 -2.09299 0
M  V30 2661 H 252.331 5.34652 0.0713833 0
M  V30 2662 H 252.674 4.00505 1.13586 0
M  V30 2663 H 253.207 3.93816 -0.561599 0
M  V30 2664 H 249.946 5.92323 -2.80774 0
M  V30 2665 H 249.466 5.89714 -1.09535 0
M  V30 2666 H 251.145 6.28201 -1.5483 0
M  V30 2667 N 251.277 0.427512 1.51691 0
M  V30 2668 C 252.21 -0.433876 2.24037 0
M  V30 2669 C 253.188 -1.03287 1.25581 0
M  V30 2670 O 254.372 -1.07722 1.54688 0
M  V30 2671 C 251.499 -1.60385 2.98319 0
M  V30 2672 C 250.545 -1.12648 4.11355 0
M  V30 2673 S 251.378 -0.076543 5.35445 0
M  V30 2674 C 252.534 -1.25141 6.13262 0
M  V30 2675 H 252.767 0.180367 2.96752 0
M  V30 2676 H 250.3 0.211946 1.52938 0
M  V30 2677 H 252.258 -2.27462 3.41718 0
M  V30 2678 H 250.919 -2.18948 2.25213 0
M  V30 2679 H 250.112 -2.0011 4.62571 0
M  V30 2680 H 249.714 -0.534088 3.70167 0
M  V30 2681 H 252.006 -2.17162 6.41753 0
M  V30 2682 H 252.949 -0.779411 7.03797 0
M  V30 2683 H 253.357 -1.48553 5.44603 0
M  V30 2684 N 252.755 -1.56801 0.158532 0
M  V30 2685 C 253.665 -2.20916 -0.789518 0
M  V30 2686 C 254.681 -1.1969 -1.26294 0
M  V30 2687 O 255.857 -1.52308 -1.31773 0
M  V30 2688 C 252.922 -2.82727 -2.00665 0
M  V30 2689 C 251.983 -3.99114 -1.58134 0
M  V30 2690 C 251.216 -4.57968 -2.74045 0
M  V30 2691 O 251.439 -4.15704 -3.90572 0
M  V30 2692 O 250.373 -5.48047 -2.48855 0
M  V30 2693 H 254.199 -3.02464 -0.273681 0
M  V30 2694 H 251.784 -1.4924 -0.0690548 0
M  V30 2695 H 253.666 -3.21968 -2.71872 0
M  V30 2696 H 252.341 -2.04184 -2.51179 0
M  V30 2697 H 251.248 -3.64567 -0.839155 0
M  V30 2698 H 252.581 -4.79212 -1.12325 0
M  V30 2699 N 254.233 0.115231 -1.57178 0
M  V30 2700 C 255.18 1.14115 -2.00615 0
M  V30 2701 C 256.15 1.40939 -0.878941 0
M  V30 2702 O 257.335 1.52741 -1.14345 0
M  V30 2703 C 254.475 2.46156 -2.4187 0
M  V30 2704 C 253.588 2.26236 -3.68024 0
M  V30 2705 C 252.723 3.51534 -3.98243 0
M  V30 2706 C 251.762 3.26787 -5.17568 0
M  V30 2707 N 250.899 4.44298 -5.43639 0
M  V30 2708 H 255.739 0.763743 -2.88047 0
M  V30 2709 H 253.276 0.365615 -1.42484 0
M  V30 2710 H 255.234 3.23189 -2.63827 0
M  V30 2711 H 253.864 2.81783 -1.57475 0
M  V30 2712 H 252.916 1.40102 -3.5366 0
M  V30 2713 H 254.228 2.03929 -4.55208 0
M  V30 2714 H 253.382 4.36984 -4.20868 0
M  V30 2715 H 252.121 3.76876 -3.09541 0
M  V30 2716 H 251.126 2.39729 -4.94783 0
M  V30 2717 H 252.351 3.02812 -6.0785 0
M  V30 2718 H 250.297 4.69754 -4.57895 0
M  V30 2719 H 250.214 4.25109 -6.25154 0
M  V30 2720 H 251.482 5.3087 -5.70786 0
M  V30 2721 N 255.711 1.52812 0.385517 0
M  V30 2722 C 256.674 1.77188 1.45386 0
M  V30 2723 C 257.674 0.641953 1.4743 0
M  V30 2724 O 258.864 0.910033 1.4854 0
M  V30 2725 C 255.996 1.87582 2.8465 0
M  V30 2726 H 257.189 2.72583 1.25054 0
M  V30 2727 H 254.742 1.43586 0.617467 0
M  V30 2728 H 255.477 0.941849 3.10322 0
M  V30 2729 H 255.262 2.69748 2.84567 0
M  V30 2730 H 256.752 2.08102 3.62054 0
M  V30 2731 N 257.189 -0.644168 1.43834 0
M  V30 2732 C 258.437 -1.40117 1.45642 0
M  V30 2733 C 258.758 -1.94814 0.0852413 0
M  V30 2734 O 258.028 -1.74988 -0.880688 0
M  V30 2735 H 256.608 -0.52005 0.536243 0
M  V30 2736 H 259.27 -0.7591 1.7951 0
M  V30 2737 H 258.366 -2.23902 2.17427 0
M  V30 2738 N 258.668 -1.30515 -0.883378 0
M  V30 2739 C 259.6 -1.12846 -1.99496 0
M  V30 2740 C 260.613 -0.0712571 -1.62644 0
M  V30 2741 O 261.802 -0.317432 -1.75655 0
M  V30 2742 C 258.902 -0.699123 -3.3161 0
M  V30 2743 C 258.075 -1.83842 -3.96889 0
M  V30 2744 C 257.134 -1.39737 -5.07307 0
M  V30 2745 O 256.16 -2.10485 -5.28852 0
M  V30 2746 N 257.362 -0.277279 -5.79837 0
M  V30 2747 H 260.127 -2.08585 -2.15203 0
M  V30 2748 H 257.688 -1.22672 -1.05656 0
M  V30 2749 H 259.68 -0.387044 -4.02845 0
M  V30 2750 H 258.25 0.166276 -3.12157 0
M  V30 2751 H 257.47 -2.31853 -3.18807 0
M  V30 2752 H 258.758 -2.60187 -4.37241 0
M  V30 2753 H 258.156 0.3122 -5.64838 0
M  V30 2754 H 256.713 -0.0246623 -6.51795 0
M  V30 2755 N 260.146 1.09593 -1.13257 0
M  V30 2756 C 261.094 2.18271 -0.803783 0
M  V30 2757 C 262.088 1.68054 0.213148 0
M  V30 2758 O 263.294 1.79862 0.0704699 0
M  V30 2759 H 259.669 0.711949 -0.242143 0
M  V30 2760 H 261.64 2.43235 -1.72856 0
M  V30 2761 C 260.389 3.46536 -0.28424 0
M  V30 2762 H 259.712 3.85545 -1.05807 0
M  V30 2763 H 261.152 4.23899 -0.0925945 0
M  V30 2764 C 259.611 3.22036 0.989684 0
M  V30 2765 O 260.141 3.44509 2.06584 0
M  V30 2766 N 258.347 2.7565 0.920086 0
M  V30 2767 H 257.894 2.57562 0.0442019 0
M  V30 2768 H 257.852 2.59635 1.77306 0
M  V30 2769 N 261.624 0.925811 1.2754 0
M  V30 2770 C 262.872 0.564138 1.94067 0
M  V30 2771 C 263.193 -0.897188 1.73134 0
M  V30 2772 O 262.463 -1.63573 1.07799 0
M  V30 2773 H 261.043 0.205645 0.718136 0
M  V30 2774 H 263.705 1.1778 1.55287 0
M  V30 2775 H 262.801 0.76881 3.02483 0
M  V30 2776 N 263.102 -1.41638 0.69111 0
M  V30 2777 C 264.348 -2.02104 0.229258 0
M  V30 2778 C 264.703 -1.53741 -1.15678 0
M  V30 2779 O 263.996 -0.736849 -1.76865 0
M  V30 2780 C 264.19 -3.56714 0.221277 0
M  V30 2781 C 264.019 -4.20083 1.605 0
M  V30 2782 C 262.789 -4.54566 2.20676 0
M  V30 2783 C 264.987 -4.46587 2.55078 0
M  V30 2784 N 262.969 -5.03199 3.5166 0
M  V30 2785 C 264.34 -4.96946 3.70735 0
M  V30 2786 C 266.395 -4.28593 2.53401 0
M  V30 2787 C 265.098 -5.31203 4.8499 0
M  V30 2788 C 267.124 -4.63936 3.66765 0
M  V30 2789 C 266.486 -5.14463 4.81152 0
M  V30 2790 H 262.585 -0.771256 0.12918 0
M  V30 2791 H 265.169 -1.72251 0.907626 0
M  V30 2792 H 263.34 -3.86051 -0.426562 0
M  V30 2793 H 265.072 -4.03896 -0.254983 0
M  V30 2794 H 261.827 -4.4087 1.73005 0
M  V30 2795 H 262.251 -5.31926 4.18789 0
M  V30 2796 H 266.893 -3.88771 1.66184 0
M  V30 2797 H 264.611 -5.69951 5.72871 0
M  V30 2798 H 268.197 -4.51677 3.66714 0
M  V30 2799 H 267.077 -5.41299 5.67419 0
M  V30 2800 N 264.58 -0.43555 -1.51462 0
M  V30 2801 C 265.53 0.394701 -2.24558 0
M  V30 2802 C 266.514 0.99157 -1.26715 0
M  V30 2803 O 267.706 0.910007 -1.51815 0
M  V30 2804 C 264.835 1.4963 -3.08975 0
M  V30 2805 C 263.921 0.908912 -4.14246 0
M  V30 2806 N 264.312 0.0505335 -5.05775 0
M  V30 2807 C 262.61 1.17668 -4.30198 0
M  V30 2808 C 263.311 -0.279161 -5.8103 0
M  V30 2809 N 262.287 0.336767 -5.42556 0
M  V30 2810 H 266.089 -0.267106 -2.92684 0
M  V30 2811 H 263.603 -0.247518 -1.60503 0
M  V30 2812 H 265.6 2.10394 -3.59917 0
M  V30 2813 H 264.26 2.16046 -2.42393 0
M  V30 2814 H 265.271 -0.31577 -5.16936 0
M  V30 2815 H 261.948 1.83847 -3.74842 0
M  V30 2816 H 263.338 -0.977553 -6.64751 0
M  V30 2817 N 266.058 1.56714 -0.166846 0
M  V30 2818 C 267.304 1.97039 0.479962 0
M  V30 2819 C 267.637 1.05264 1.63197 0
M  V30 2820 O 266.912 0.0988833 1.94248 0
M  V30 2821 C 267.195 3.46867 0.967212 0
M  V30 2822 C 267.048 4.49421 -0.18466 0
M  V30 2823 C 268.367 3.9968 1.84238 0
M  V30 2824 H 265.486 0.71641 0.172992 0
M  V30 2825 H 268.128 1.8832 -0.252079 0
M  V30 2826 H 266.278 3.54428 1.59101 0
M  V30 2827 H 267.95 4.53924 -0.821621 0
M  V30 2828 H 266.193 4.25573 -0.840837 0
M  V30 2829 H 266.864 5.51644 0.198317 0
M  V30 2830 H 269.34 3.94723 1.31655 0
M  V30 2831 H 268.216 5.04941 2.15234 0
M  V30 2832 H 268.477 3.43226 2.78654 0
M  V30 2833 N 267.536 -0.106894 1.57237 0
M  V30 2834 C 268.761 -0.830287 1.90055 0
M  V30 2835 C 269.186 -1.72064 0.75998 0
M  V30 2836 O 268.544 -1.78982 -0.288991 0
M  V30 2837 C 268.592 -1.6295 3.21683 0
M  V30 2838 O 267.696 -2.73748 3.08441 0
M  V30 2839 H 267.037 -0.228855 0.623315 0
M  V30 2840 H 269.567 -0.085658 2.04421 0
M  V30 2841 H 269.577 -2.01621 3.54701 0
M  V30 2842 H 268.252 -0.975989 4.04286 0
M  V30 2843 H 266.829 -2.38192 2.86913 0
M  V30 2844 N 269.014 -1.53014 -0.377408 0
M  V30 2845 C 269.977 -1.77957 -1.44444 0
M  V30 2846 C 270.977 -0.649763 -1.47087 0
M  V30 2847 O 272.167 -0.917897 -1.48055 0
M  V30 2848 C 269.299 -1.89089 -2.83651 0
M  V30 2849 H 270.492 -2.73243 -1.23606 0
M  V30 2850 H 268.045 -1.43912 -0.609844 0
M  V30 2851 H 268.78 -0.958293 -3.09818 0
M  V30 2852 H 268.565 -2.71254 -2.83132 0
M  V30 2853 H 270.055 -2.1002 -3.60945 0
M  V30 2854 N 270.492 0.636531 -1.44174 0
M  V30 2855 C 271.741 1.39213 -1.45954 0
M  V30 2856 C 272.054 1.95374 -0.0939119 0
M  V30 2857 O 273.26 2.71498 0.0107767 0
M  V30 2858 C 271.716 2.52025 -2.56927 0
M  V30 2859 C 271.324 2.024 -3.99673 0
M  V30 2860 C 273.068 3.29269 -2.67922 0
M  V30 2861 C 270.975 3.12521 -5.0208 0
M  V30 2862 H 269.905 0.523132 -0.542999 0
M  V30 2863 H 272.556 0.685349 -1.70221 0
M  V30 2864 H 270.938 3.25253 -2.25891 0
M  V30 2865 H 272.112 1.36073 -4.40251 0
M  V30 2866 H 270.427 1.37987 -3.92872 0
M  V30 2867 H 273.024 4.11352 -3.41605 0
M  V30 2868 H 273.367 3.78397 -1.73555 0
M  V30 2869 H 273.9 2.63129 -2.98342 0
M  V30 2870 H 270.639 2.68343 -5.98057 0
M  V30 2871 H 270.159 3.77507 -4.66099 0
M  V30 2872 H 271.838 3.77385 -5.25538 0
M  V30 2873 N 271.97 1.30982 0.876444 0
M  V30 2874 C 273.21 1.21589 1.64303 0
M  V30 2875 C 273.574 -0.223962 1.90689 0
M  V30 2876 O 274.775 -0.44128 2.65153 0
M  V30 2877 C 273.046 2.03007 2.94148 0
M  V30 2878 S 274.605 2.10405 3.85065 0
M  V30 2879 H 271.423 0.433161 0.563819 0
M  V30 2880 H 274.025 1.65565 1.03964 0
M  V30 2881 H 272.729 3.06719 2.72675 0
M  V30 2882 H 272.26 1.59725 3.59515 0
M  V30 2883 H 274.275 1.23765 4.80517 0
M  V30 2884 N 273.449 -1.08991 1.13837 0
M  V30 2885 C 274.695 -1.81526 0.90422 0
M  V30 2886 C 275.028 -1.85706 -0.568066 0
M  V30 2887 O 274.303 -1.32855 -1.42056 0
M  V30 2888 C 274.586 -3.27447 1.49835 0
M  V30 2889 C 274.439 -3.31512 3.04006 0
M  V30 2890 C 275.758 -4.24256 1.17025 0
M  V30 2891 H 272.877 -0.659029 0.329923 0
M  V30 2892 H 275.519 -1.27644 1.40737 0
M  V30 2893 H 273.669 -3.73462 1.07044 0
M  V30 2894 H 275.341 -2.93867 3.55584 0
M  V30 2895 H 273.584 -2.70963 3.38765 0
M  V30 2896 H 274.255 -4.34329 3.40679 0
M  V30 2897 H 276.731 -3.86549 1.54009 0
M  V30 2898 H 275.607 -5.24684 1.61237 0
M  V30 2899 H 275.868 -4.42019 0.0846274 0
M  V30 2900 N 274.927 -0.932562 -1.27047 0
M  V30 2901 C 275.837 -0.441219 -2.30414 0
M  V30 2902 C 276.853 0.480525 -1.67233 0
M  V30 2903 O 278.029 0.362151 -1.98117 0
M  V30 2904 C 275.094 0.293651 -3.45454 0
M  V30 2905 C 274.155 -0.663601 -4.2414 0
M  V30 2906 C 273.388 0.0362932 -5.33688 0
M  V30 2907 O 273.611 1.2548 -5.56427 0
M  V30 2908 O 272.545 -0.638015 -5.98509 0
M  V30 2909 H 276.371 -1.29962 -2.74488 0
M  V30 2910 H 273.956 -0.6981 -1.32087 0
M  V30 2911 H 275.838 0.707951 -4.15411 0
M  V30 2912 H 274.513 1.12758 -3.03426 0
M  V30 2913 H 273.42 -1.12768 -3.56699 0
M  V30 2914 H 274.753 -1.46489 -4.69896 0
M  V30 2915 N 276.405 1.4127 -0.698611 0
M  V30 2916 C 277.353 2.32588 -0.023855 0
M  V30 2917 C 278.347 1.51128 0.765292 0
M  V30 2918 O 279.553 1.67043 0.670571 0
M  V30 2919 H 275.928 0.751918 0.0110871 0
M  V30 2920 H 277.899 2.87167 -0.811031 0
M  V30 2921 C 276.648 3.35947 0.896369 0
M  V30 2922 H 275.971 3.98684 0.298548 0
M  V30 2923 H 277.411 4.02376 1.33676 0
M  V30 2924 C 275.87 2.70076 2.01396 0
M  V30 2925 O 276.4 2.55093 3.10307 0
M  V30 2926 N 274.606 2.28724 1.79259 0
M  V30 2927 H 274.153 2.4111 0.906841 0
M  V30 2928 H 274.111 1.84986 2.54219 0
M  V30 2929 N 277.883 0.443576 1.51229 0
M  V30 2930 C 279.13 -0.120796 2.02139 0
M  V30 2931 C 279.458 -1.42166 1.32736 0
M  V30 2932 O 278.713 -1.90849 0.43301 0
M  V30 2933 C 279.012 -0.380579 3.55368 0
M  V30 2934 C 278.678 0.83523 4.43097 0
M  V30 2935 C 277.34 1.16864 4.66794 0
M  V30 2936 C 279.692 1.64601 4.94526 0
M  V30 2937 C 277.02 2.31339 5.39165 0
M  V30 2938 C 279.372 2.78181 5.68153 0
M  V30 2939 C 278.036 3.11969 5.90112 0
M  V30 2940 H 277.306 -0.0442023 0.73968 0
M  V30 2941 H 279.953 0.592046 1.82118 0
M  V30 2942 H 278.258 -1.17538 3.73754 0
M  V30 2943 H 279.955 -0.830777 3.923 0
M  V30 2944 H 276.545 0.565437 4.24854 0
M  V30 2945 H 280.729 1.40163 4.76097 0
M  V30 2946 H 275.985 2.57823 5.5438 0
M  V30 2947 H 280.159 3.41371 6.06992 0
M  V30 2948 H 277.786 4.00784 6.45969 0
M  V30 2949 N 279.361 -1.56624 0.175154 0
M  V30 2950 C 280.309 -2.19468 -0.770495 0
M  V30 2951 C 281.303 -1.15985 -1.23466 0
M  V30 2952 O 282.509 -1.34176 -1.19987 0
M  V30 2953 H 278.884 -0.703095 -0.266761 0
M  V30 2954 H 280.855 -2.97613 -0.216542 0
M  V30 2955 C 279.604 -2.85264 -1.98796 0
M  V30 2956 H 278.927 -3.64623 -1.63983 0
M  V30 2957 H 280.367 -3.327 -2.62843 0
M  V30 2958 C 278.826 -1.85239 -2.81404 0
M  V30 2959 O 279.356 -1.34024 -3.78682 0
M  V30 2960 N 277.562 -1.53911 -2.46495 0
M  V30 2961 H 277.109 -1.95751 -1.67449 0
M  V30 2962 H 277.067 -0.872382 -3.02054 0
M  V30 2963 N 280.839 0.0985539 -1.57292 0
M  V30 2964 C 282.116 0.834155 -1.76921 0
M  V30 2965 C 282.496 1.97101 -0.755928 0
M  V30 2966 O 281.844 2.27474 0.216245 0
M  V30 2967 C 282.054 1.33194 -3.22584 0
M  V30 2968 C 283.402 1.77611 -3.85668 0
M  V30 2969 O 284.426 1.42825 -3.26312 0
M  V30 2970 O 283.285 2.4192 -4.90038 0
M  V30 2971 H 280.379 0.397628 -0.725135 0
M  V30 2972 H 282.925 0.0807044 -1.69508 0
M  V30 2973 H 281.697 0.517248 -3.87866 0
M  V30 2974 H 281.32 2.1475 -3.34616 0
M  V30 2975 N 282.317 1.53212 0.369288 0
M  V30 2976 C 283.563 1.69466 1.11397 0
M  V30 2977 C 283.896 0.443257 1.89074 0
M  V30 2978 O 283.171 -0.559386 1.86282 0
M  V30 2979 C 283.454 2.9422 2.07621 0
M  V30 2980 C 283.307 4.29508 1.33577 0
M  V30 2981 C 284.626 3.14565 3.07794 0
M  V30 2982 H 281.745 0.616667 0.403597 0
M  V30 2983 H 284.387 1.85845 0.395179 0
M  V30 2984 H 282.537 2.80387 2.68916 0
M  V30 2985 H 284.209 4.55147 0.750955 0
M  V30 2986 H 282.452 4.29088 0.637618 0
M  V30 2987 H 283.123 5.12926 2.03989 0
M  V30 2988 H 285.599 3.2756 2.56601 0
M  V30 2989 H 284.475 4.03297 3.72348 0
M  V30 2990 H 284.736 2.29675 3.77759 0
M  V30 2991 N 283.795 -0.628877 1.44509 0
M  V30 2992 C 285.02 -1.42048 1.5112 0
M  V30 2993 C 285.445 -1.87594 0.137818 0
M  V30 2994 O 284.803 -1.58873 -0.873437 0
M  V30 2995 C 284.851 -2.61541 2.48251 0
M  V30 2996 O 283.955 -3.61453 1.98559 0
M  V30 2997 H 283.296 -0.424942 0.510216 0
M  V30 2998 H 285.826 -0.767374 1.89664 0
M  V30 2999 H 285.836 -3.09057 2.66361 0
M  V30 3000 H 284.511 -2.27736 3.48007 0
M  V30 3001 H 283.088 -3.20731 1.90227 0
M  V30 3002 N 285.273 -1.31445 -0.869486 0
M  V30 3003 C 286.503 -1.23942 -1.65294 0
M  V30 3004 C 286.911 0.197561 -1.88166 0
M  V30 3005 O 286.254 1.14019 -1.44033 0
M  V30 3006 C 286.316 -1.91385 -3.04322 0
M  V30 3007 C 285.98 -3.40726 -3.04557 0
M  V30 3008 C 286.977 -4.36464 -2.82481 0
M  V30 3009 C 284.662 -3.82425 -3.25663 0
M  V30 3010 C 286.656 -5.71876 -2.8149 0
M  V30 3011 C 284.343 -5.1795 -3.243 0
M  V30 3012 C 285.341 -6.12486 -3.02241 0
M  V30 3013 O 285.029 -7.45534 -3.00724 0
M  V30 3014 H 284.761 -0.429459 -0.522054 0
M  V30 3015 H 287.315 -1.73873 -1.0935 0
M  V30 3016 H 285.545 -1.36004 -3.61994 0
M  V30 3017 H 287.234 -1.77791 -3.64891 0
M  V30 3018 H 288 -4.05576 -2.65956 0
M  V30 3019 H 283.879 -3.09274 -3.41863 0
M  V30 3020 H 287.423 -6.45638 -2.64191 0
M  V30 3021 H 283.32 -5.48473 -3.40365 0
M  V30 3022 H 284.088 -7.54713 -3.16782 0
M  V30 3023 N 286.751 1.08385 -1.14413 0
M  V30 3024 C 288.167 1.32844 -0.884563 0
M  V30 3025 C 288.367 1.95841 0.474181 0
M  V30 3026 O 287.423 2.21158 1.21842 0
M  V30 3027 C 288.736 2.22978 -2.01745 0
M  V30 3028 C 290.284 2.36458 -2.05077 0
M  V30 3029 C 290.759 3.29934 -3.1766 0
M  V30 3030 N 292.25 3.37511 -3.17239 0
M  V30 3031 C 292.985 4.09871 -4.0099 0
M  V30 3032 N 292.481 4.84936 -4.94781 0
M  V30 3033 N 294.274 4.05704 -3.89051 0
M  V30 3034 H 286.425 0.658756 -2.01926 0
M  V30 3035 H 288.688 0.352821 -0.879899 0
M  V30 3036 H 288.394 1.83934 -2.99769 0
M  V30 3037 H 288.268 3.23441 -1.94077 0
M  V30 3038 H 290.655 2.7476 -1.0766 0
M  V30 3039 H 290.736 1.35736 -2.16816 0
M  V30 3040 H 290.38 2.92352 -4.15322 0
M  V30 3041 H 290.31 4.30584 -3.03158 0
M  V30 3042 H 292.801 2.83996 -2.49308 0
M  V30 3043 H 293.114 5.37612 -5.55151 0
M  V30 3044 H 291.459 4.83988 -4.98779 0
M  V30 3045 H 294.65 3.46167 -3.15097 0
M  V30 3046 H 294.823 4.61834 -4.54547 0
M  V30 3047 N 288.23 0.939286 1.26551 0
M  V30 3048 C 289.162 0.404704 2.25599 0
M  V30 3049 C 290.175 -0.470983 1.55838 0
M  V30 3050 O 291.364 -0.281734 1.76263 0
M  V30 3051 C 288.464 -0.43764 3.36062 0
M  V30 3052 C 287.637 0.421449 4.35365 0
M  V30 3053 C 286.696 -0.36015 5.24966 0
M  V30 3054 O 285.722 0.236167 5.6871 0
M  V30 3055 N 286.924 -1.65715 5.56344 0
M  V30 3056 H 289.689 1.25618 2.72103 0
M  V30 3057 H 287.25 0.807963 1.40298 0
M  V30 3058 H 289.242 -0.967866 3.92956 0
M  V30 3059 H 287.812 -1.18991 2.89067 0
M  V30 3060 H 287.032 1.1329 3.7757 0
M  V30 3061 H 288.32 1.00835 4.98708 0
M  V30 3062 H 287.718 -2.16378 5.22682 0
M  V30 3063 H 286.275 -2.13366 6.15888 0
M  V30 3064 N 289.708 -1.40897 0.706093 0
M  V30 3065 C 290.638 -2.33418 0.0620085 0
M  V30 3066 C 291.619 -1.52385 -0.755827 0
M  V30 3067 O 292.804 -1.80886 -0.706674 0
M  V30 3068 C 289.934 -3.36293 -0.867445 0
M  V30 3069 C 288.888 -4.27716 -0.155932 0
M  V30 3070 C 288.214 -5.2105 -1.20046 0
M  V30 3071 C 289.514 -5.12944 0.984149 0
M  V30 3072 H 291.208 -2.87527 0.83477 0
M  V30 3073 H 288.754 -1.38249 0.402875 0
M  V30 3074 H 290.707 -3.99949 -1.32735 0
M  V30 3075 H 289.431 -2.80556 -1.67199 0
M  V30 3076 H 288.09 -3.65498 0.284047 0
M  V30 3077 H 287.738 -4.61624 -1.99781 0
M  V30 3078 H 287.438 -5.83056 -0.729328 0
M  V30 3079 H 288.962 -5.87584 -1.66066 0
M  V30 3080 H 290.376 -5.70109 0.604048 0
M  V30 3081 H 288.773 -5.83945 1.38304 0
M  V30 3082 H 289.843 -4.49485 1.81911 0
M  V30 3083 N 291.186 -0.45159 -1.50991 0
M  V30 3084 C 292.116 0.342898 -2.30969 0
M  V30 3085 C 293.097 1.00815 -1.37005 0
M  V30 3086 O 294.282 1.00907 -1.65926 0
M  V30 3087 C 291.412 1.43637 -3.16205 0
M  V30 3088 C 290.366 0.893818 -4.18563 0
M  V30 3089 C 289.692 2.08411 -4.92411 0
M  V30 3090 C 290.992 -0.0815568 -5.22236 0
M  V30 3091 H 292.686 -0.324556 -2.97636 0
M  V30 3092 H 290.232 -0.157531 -1.43136 0
M  V30 3093 H 292.185 1.9995 -3.70942 0
M  V30 3094 H 290.909 2.13232 -2.47386 0
M  V30 3095 H 289.568 0.352798 -3.64898 0
M  V30 3096 H 289.216 2.76658 -4.20082 0
M  V30 3097 H 288.916 1.72741 -5.61636 0
M  V30 3098 H 290.44 2.65251 -5.49976 0
M  V30 3099 H 291.854 0.391742 -5.7196 0
M  V30 3100 H 290.251 -0.351551 -5.99069 0
M  V30 3101 H 291.321 -1.01374 -4.74185 0
M  V30 3102 N 292.664 1.56529 -0.183458 0
M  V30 3103 C 293.574 2.22144 0.754272 0
M  V30 3104 C 294.59 1.21684 1.24374 0
M  V30 3105 O 295.766 1.54385 1.29333 0
M  V30 3106 C 292.831 2.85884 1.96141 0
M  V30 3107 C 291.892 4.01579 1.51765 0
M  V30 3108 C 291.125 4.6227 2.66725 0
M  V30 3109 O 291.348 4.21865 3.83909 0
M  V30 3110 O 290.282 5.51936 2.40104 0
M  V30 3111 H 294.108 3.02861 0.225527 0
M  V30 3112 H 291.693 1.49331 0.0453032 0
M  V30 3113 H 293.575 3.26253 2.66715 0
M  V30 3114 H 292.25 2.08154 2.47899 0
M  V30 3115 H 291.157 3.65856 0.781049 0
M  V30 3116 H 292.49 4.80938 1.04686 0
M  V30 3117 N 294.142 -0.090211 1.57342 0
M  V30 3118 C 295.052 -1.12735 2.05738 0
M  V30 3119 C 296.068 -1.43557 0.983231 0
M  V30 3120 O 297.244 -1.54101 1.29672 0
M  V30 3121 C 294.309 -2.42659 2.47624 0
M  V30 3122 C 293.37 -2.18975 3.69254 0
M  V30 3123 C 292.603 -3.42704 4.09133 0
M  V30 3124 O 292.826 -4.51127 3.49057 0
M  V30 3125 O 291.76 -3.32003 5.02053 0
M  V30 3126 H 295.586 -0.746279 2.94388 0
M  V30 3127 H 293.171 -0.303064 1.46294 0
M  V30 3128 H 295.053 -3.19155 2.7517 0
M  V30 3129 H 293.728 -2.80182 1.62109 0
M  V30 3130 H 292.635 -1.40244 3.46818 0
M  V30 3131 H 293.968 -1.86342 4.55563 0
M  V30 3132 N 295.62 -1.53406 -0.361157 0
M  V30 3133 C 296.55 -1.83136 -1.44857 0
M  V30 3134 C 297.531 -0.685174 -1.5569 0
M  V30 3135 O 298.716 -0.93544 -1.70186 0
M  V30 3136 C 295.846 -2.02522 -2.82138 0
M  V30 3137 C 294.8 -3.18302 -2.86126 0
M  V30 3138 C 294.126 -3.22989 -4.26125 0
M  V30 3139 C 295.426 -4.56796 -2.53248 0
M  V30 3140 H 297.12 -2.74201 -1.20226 0
M  V30 3141 H 294.666 -1.31938 -0.576922 0
M  V30 3142 H 296.619 -2.21904 -3.58241 0
M  V30 3143 H 295.343 -1.08172 -3.08166 0
M  V30 3144 H 294.002 -2.98747 -2.12475 0
M  V30 3145 H 293.65 -2.26267 -4.49235 0
M  V30 3146 H 293.35 -4.00781 -4.29708 0
M  V30 3147 H 294.874 -3.44559 -5.04094 0
M  V30 3148 H 296.288 -4.7631 -3.19064 0
M  V30 3149 H 294.685 -5.36862 -2.68141 0
M  V30 3150 H 295.755 -4.61606 -1.48484 0
M  V30 3151 N 297.098 0.621204 -1.44841 0
M  V30 3152 C 298.375 1.38 -1.38619 0
M  V30 3153 C 298.755 2.11041 -0.0498935 0
M  V30 3154 O 298.103 2.06992 0.967816 0
M  V30 3155 C 298.313 2.33817 -2.59096 0
M  V30 3156 C 299.661 2.96844 -3.03593 0
M  V30 3157 O 300.685 2.44141 -2.59371 0
M  V30 3158 O 299.544 3.92476 -3.80296 0
M  V30 3159 H 296.638 0.61811 -0.549426 0
M  V30 3160 H 299.184 0.645429 -1.56947 0
M  V30 3161 H 297.956 1.79012 -3.47952 0
M  V30 3162 H 297.579 3.14676 -2.43032 0
M  V30 3163 N 298.576 1.31904 0.862503 0
M  V30 3164 C 299.992 1.10724 1.14945 0
M  V30 3165 C 300.192 -0.117421 2.01158 0
M  V30 3166 O 299.248 -0.804595 2.39338 0
M  V30 3167 C 300.561 2.38267 1.83437 0
M  V30 3168 C 302.109 2.43949 1.96106 0
M  V30 3169 C 302.584 3.71394 2.68013 0
M  V30 3170 N 304.075 3.72331 2.75543 0
M  V30 3171 C 304.81 4.67641 3.31812 0
M  V30 3172 N 304.306 5.73313 3.88953 0
M  V30 3173 N 306.099 4.5515 3.29841 0
M  V30 3174 H 298.25 2.10436 0.288191 0
M  V30 3175 H 300.513 0.928705 0.190292 0
M  V30 3176 H 300.219 3.27759 1.27542 0
M  V30 3177 H 300.093 2.48633 2.83657 0
M  V30 3178 H 302.48 1.54922 2.51164 0
M  V30 3179 H 302.561 2.37543 0.949059 0
M  V30 3180 H 302.205 4.60791 2.13621 0
M  V30 3181 H 302.135 3.75069 3.69636 0
M  V30 3182 H 304.626 2.95947 2.34997 0
M  V30 3183 H 304.939 6.42107 4.30022 0
M  V30 3184 H 303.284 5.77077 3.87308 0
M  V30 3185 H 306.475 3.71766 2.84443 0
M  V30 3186 H 306.648 5.29604 3.73394 0
M  V30 3187 N 300.054 -1.07777 1.14986 0
M  V30 3188 C 301.47 -1.32373 0.891596 0
M  V30 3189 C 301.67 -1.9609 -0.463788 0
M  V30 3190 O 300.726 -2.21801 -1.20667 0
M  V30 3191 C 302.039 -2.21905 2.02925 0
M  V30 3192 C 303.587 -2.35367 2.06329 0
M  V30 3193 C 304.062 -3.28245 3.19405 0
M  V30 3194 N 305.553 -3.35824 3.19024 0
M  V30 3195 C 306.288 -4.07739 4.03158 0
M  V30 3196 N 305.784 -4.82306 4.97346 0
M  V30 3197 N 307.577 -4.03635 3.91197 0
M  V30 3198 H 299.728 -0.648039 2.02273 0
M  V30 3199 H 301.991 -0.348149 0.881757 0
M  V30 3200 H 301.697 -1.82342 3.0074 0
M  V30 3201 H 301.571 -3.22407 1.95789 0
M  V30 3202 H 303.958 -2.74186 1.09116 0
M  V30 3203 H 304.039 -1.34585 2.17533 0
M  V30 3204 H 303.683 -2.90146 4.16867 0
M  V30 3205 H 303.613 -4.28971 3.05437 0
M  V30 3206 H 306.104 -2.8267 2.50811 0
M  V30 3207 H 306.417 -5.34661 5.57994 0
M  V30 3208 H 304.762 -4.81337 5.01338 0
M  V30 3209 H 307.953 -3.44491 3.16928 0
M  V30 3210 H 308.126 -4.59417 4.5699 0
M  V30 3211 N 301.532 -0.945985 -1.26051 0
M  V30 3212 C 302.464 -0.416662 -2.25381 0
M  V30 3213 C 303.477 0.462712 -1.56086 0
M  V30 3214 O 304.666 0.272383 -1.7641 0
M  V30 3215 C 301.766 0.419812 -3.3629 0
M  V30 3216 C 300.939 -0.444531 -4.35135 0
M  V30 3217 C 299.998 0.332305 -5.2515 0
M  V30 3218 O 299.024 -0.266324 -5.68577 0
M  V30 3219 N 300.226 1.62763 -5.57215 0
M  V30 3220 H 302.991 -1.27059 -2.71433 0
M  V30 3221 H 300.552 -0.815392 -1.39868 0
M  V30 3222 H 302.544 0.947013 -3.93464 0
M  V30 3223 H 301.114 1.17456 -2.89694 0
M  V30 3224 H 300.334 -1.15291 -3.76964 0
M  V30 3225 H 301.622 -1.03478 -4.98166 0
M  V30 3226 H 301.02 2.13603 -5.23823 0
M  V30 3227 H 299.577 2.10097 -6.17011 0
M  V30 3228 N 303.011 1.40521 -0.713556 0
M  V30 3229 C 303.921 2.34522 -0.0606667 0
M  V30 3230 C 304.937 1.57193 0.74607 0
M  V30 3231 O 306.113 1.89591 0.679493 0
M  V30 3232 C 303.178 3.36081 0.851491 0
M  V30 3233 C 302.239 4.29286 0.0349339 0
M  V30 3234 C 301.472 5.25994 0.903649 0
M  V30 3235 O 301.695 5.28616 2.14292 0
M  V30 3236 O 300.629 6.00918 0.343723 0
M  V30 3237 H 304.455 2.91968 -0.835972 0
M  V30 3238 H 302.04 1.41681 -0.47402 0
M  V30 3239 H 303.922 3.98369 1.37404 0
M  V30 3240 H 302.597 2.81052 1.60598 0
M  V30 3241 H 301.504 3.70289 -0.532633 0
M  V30 3242 H 302.837 4.87462 -0.681287 0
M  V30 3243 N 304.489 0.459591 1.5075 0
M  V30 3244 C 305.436 -0.340524 2.28274 0
M  V30 3245 C 306.406 -0.997371 1.32822 0
M  V30 3246 O 307.591 -1.01202 1.61749 0
M  V30 3247 C 304.731 -1.42317 3.14388 0
M  V30 3248 C 303.844 -0.782251 4.24859 0
M  V30 3249 C 302.979 -1.84182 4.98247 0
M  V30 3250 C 302.018 -1.18053 6.00608 0
M  V30 3251 N 301.155 -2.18244 6.67319 0
M  V30 3252 H 305.995 0.326899 2.96202 0
M  V30 3253 H 303.532 0.173057 1.46078 0
M  V30 3254 H 305.49 -2.06241 3.62658 0
M  V30 3255 H 304.12 -2.05992 2.4853 0
M  V30 3256 H 303.172 -0.0307404 3.80388 0
M  V30 3257 H 304.484 -0.259663 4.98124 0
M  V30 3258 H 303.638 -2.55714 5.50177 0
M  V30 3259 H 302.377 -2.39819 4.24662 0
M  V30 3260 H 301.382 -0.450776 5.47949 0
M  V30 3261 H 302.607 -0.631202 6.7616 0
M  V30 3262 H 300.553 -2.72919 5.96533 0
M  V30 3263 H 300.47 -1.70938 7.36421 0
M  V30 3264 H 301.738 -2.89191 7.23871 0
M  V30 3265 N 305.967 -1.56429 0.191757 0
M  V30 3266 C 306.914 -2.18936 -0.730454 0
M  V30 3267 C 307.884 -1.13557 -1.21219 0
M  V30 3268 O 309.069 -1.41794 -1.27668 0
M  V30 3269 C 306.209 -2.85013 -1.9458 0
M  V30 3270 C 305.322 -4.04909 -1.50574 0
M  V30 3271 C 304.457 -4.58853 -2.67634 0
M  V30 3272 C 303.496 -5.71114 -2.20217 0
M  V30 3273 N 302.633 -6.19478 -3.30442 0
M  V30 3274 H 307.473 -2.97389 -0.190664 0
M  V30 3275 H 305.01 -1.46869 -0.0823694 0
M  V30 3276 H 306.968 -3.21492 -2.65893 0
M  V30 3277 H 305.598 -2.09129 -2.45896 0
M  V30 3278 H 304.65 -3.74115 -0.688605 0
M  V30 3279 H 305.962 -4.86113 -1.11784 0
M  V30 3280 H 305.116 -4.97619 -3.47074 0
M  V30 3281 H 303.855 -3.76749 -3.09696 0
M  V30 3282 H 302.86 -5.31879 -1.3923 0
M  V30 3283 H 304.085 -6.55033 -1.79189 0
M  V30 3284 H 302.031 -5.40297 -3.72041 0
M  V30 3285 H 301.948 -6.95725 -2.9581 0
M  V30 3286 H 303.216 -6.62898 -4.10106 0
M  V30 3287 N 307.445 0.0818655 -1.57387 0
M  V30 3288 C 308.692 0.782914 -1.86753 0
M  V30 3289 C 309.02 1.78082 -0.782118 0
M  V30 3290 O 308.275 1.94426 0.22295 0
M  V30 3291 C 308.574 1.53513 -3.22752 0
M  V30 3292 C 308.24 0.678134 -4.45771 0
M  V30 3293 C 306.902 0.441929 -4.79166 0
M  V30 3294 C 309.254 0.0832243 -5.21134 0
M  V30 3295 C 306.582 -0.398833 -5.85343 0
M  V30 3296 C 308.934 -0.744935 -6.28199 0
M  V30 3297 C 307.598 -0.991107 -6.60101 0
M  V30 3298 H 306.868 0.286489 -0.683378 0
M  V30 3299 H 309.515 0.0439808 -1.91449 0
M  V30 3300 H 307.82 2.34599 -3.138 0
M  V30 3301 H 309.517 2.08218 -3.42705 0
M  V30 3302 H 306.107 0.872357 -4.19628 0
M  V30 3303 H 310.291 0.252847 -4.95655 0
M  V30 3304 H 305.547 -0.598405 -6.08465 0
M  V30 3305 H 309.721 -1.21271 -6.8576 0
M  V30 3306 H 307.348 -1.64437 -7.42202 0
M  V30 3307 N 308.923 1.53595 0.353017 0
M  V30 3308 C 310.169 1.70638 1.09593 0
M  V30 3309 C 310.502 0.463286 1.88593 0
M  V30 3310 O 309.777 -0.539597 1.86865 0
M  V30 3311 C 310.06 2.96406 2.04489 0
M  V30 3312 C 309.913 4.30901 1.29014 0
M  V30 3313 C 311.232 3.17812 3.0444 0
M  V30 3314 H 308.351 0.620913 0.397034 0
M  V30 3315 H 310.993 1.86254 0.375446 0
M  V30 3316 H 309.143 2.83223 2.65927 0
M  V30 3317 H 310.815 4.55917 0.702638 0
M  V30 3318 H 309.058 4.29741 0.592071 0
M  V30 3319 H 309.729 5.1506 1.98537 0
M  V30 3320 H 312.205 3.30263 2.53112 0
M  V30 3321 H 311.081 4.07223 3.6805 0
M  V30 3322 H 311.342 2.33669 3.75301 0
M  V30 3323 N 310.401 -0.613514 1.45168 0
M  V30 3324 C 311.65 -1.36874 1.4815 0
M  V30 3325 C 311.963 -1.952 0.124982 0
M  V30 3326 O 313.169 -2.71481 0.0324176 0
M  V30 3327 C 311.625 -2.47905 2.60904 0
M  V30 3328 C 311.233 -1.96016 4.02842 0
M  V30 3329 C 312.977 -3.24965 2.73126 0
M  V30 3330 C 310.884 -3.04494 5.06988 0
M  V30 3331 H 309.814 -0.514428 0.551253 0
M  V30 3332 H 312.465 -0.658182 1.7129 0
M  V30 3333 H 310.847 -3.21618 2.31037 0
M  V30 3334 H 312.021 -1.29051 4.4236 0
M  V30 3335 H 310.336 -1.31719 3.95018 0
M  V30 3336 H 312.933 -4.05865 3.48106 0
M  V30 3337 H 313.276 -3.75588 1.79553 0
M  V30 3338 H 313.809 -2.5835 3.0249 0
M  V30 3339 H 310.548 -2.58795 6.0225 0
M  V30 3340 H 310.068 -3.70044 4.72046 0
M  V30 3341 H 311.747 -3.68976 5.31475 0
M  V30 3342 N 311.879 -1.3236 -0.855495 0
M  V30 3343 C 313.156 -1.13491 -1.59309 0
M  V30 3344 C 313.536 0.30503 -2.08885 0
M  V30 3345 O 312.884 1.30151 -1.87811 0
M  V30 3346 C 313.094 -2.16176 -2.73987 0
M  V30 3347 C 314.442 -2.49463 -3.43589 0
M  V30 3348 O 315.466 -2.14715 -2.84211 0
M  V30 3349 O 314.325 -3.09027 -4.50738 0
M  V30 3350 H 311.419 -0.437887 -0.701559 0
M  V30 3351 H 313.965 -1.43887 -0.899696 0
M  V30 3352 H 312.737 -3.1297 -2.34873 0
M  V30 3353 H 312.36 -1.86769 -3.51003 0
M  V30 3354 N 313.357 1.07166 -1.15556 0
M  V30 3355 C 314.597 1.81391 -0.94216 0
M  V30 3356 C 314.961 1.84788 0.521272 0
M  V30 3357 O 316.162 2.54904 0.85307 0
M  V30 3358 C 314.433 3.22431 -1.54185 0
M  V30 3359 S 315.992 4.13379 -1.47183 0
M  V30 3360 H 312.81 0.624963 -0.339031 0
M  V30 3361 H 315.412 1.28725 -1.4714 0
M  V30 3362 H 314.116 3.17548 -2.59984 0
M  V30 3363 H 313.647 3.80172 -1.01156 0
M  V30 3364 H 315.662 4.94007 -0.466004 0
M  V30 3365 N 314.835 0.952656 1.25548 0
M  V30 3366 C 315.745 0.47782 2.29682 0
M  V30 3367 C 316.761 -0.453859 1.67977 0
M  V30 3368 O 317.937 -0.330587 1.98668 0
M  V30 3369 C 315.002 -0.238655 3.45878 0
M  V30 3370 C 314.063 0.730994 4.23031 0
M  V30 3371 C 313.296 0.0486165 5.33678 0
M  V30 3372 O 313.519 -1.16612 5.58353 0
M  V30 3373 O 312.453 0.733152 5.97418 0
M  V30 3374 H 316.279 1.34312 2.72386 0
M  V30 3375 H 313.864 0.719026 1.30959 0
M  V30 3376 H 315.746 -0.641774 4.16484 0
M  V30 3377 H 314.421 -1.07916 3.05181 0
M  V30 3378 H 313.328 1.18428 3.5486 0
M  V30 3379 H 314.661 1.53946 4.67506 0
M  V30 3380 N 316.313 -1.40141 0.720998 0
M  V30 3381 C 317.562 -2.0002 0.259804 0
M  V30 3382 C 317.875 -1.57839 -1.15526 0
M  V30 3383 O 319.081 -2.10455 -1.71525 0
M  V30 3384 C 317.537 -3.57516 0.413566 0
M  V30 3385 C 317.145 -4.08667 1.83562 0
M  V30 3386 C 318.889 -4.24498 0.0134387 0
M  V30 3387 C 316.796 -5.58686 1.93968 0
M  V30 3388 H 315.726 -0.748195 0.0933806 0
M  V30 3389 H 318.377 -1.60313 0.892866 0
M  V30 3390 H 316.759 -3.9495 -0.288169 0
M  V30 3391 H 317.933 -3.82598 2.56817 0
M  V30 3392 H 316.248 -3.543 2.1877 0
M  V30 3393 H 318.845 -5.34654 0.0703954 0
M  V30 3394 H 319.188 -4.03375 -1.02927 0
M  V30 3395 H 319.721 -3.92188 0.665815 0
M  V30 3396 H 316.46 -5.8467 2.96379 0
M  V30 3397 H 315.98 -5.86602 1.25131 0
M  V30 3398 H 317.659 -6.23875 1.71431 0
M  V30 3399 N 317.792 -0.46758 -1.50504 0
M  V30 3400 C 318.702 0.33382 -2.32213 0
M  V30 3401 C 319.718 0.999323 -1.42441 0
M  V30 3402 O 320.894 0.988068 -1.75497 0
M  V30 3403 C 317.959 1.4035 -3.17022 0
M  V30 3404 C 317.02 0.754961 -4.2261 0
M  V30 3405 C 316.253 1.77367 -5.03365 0
M  V30 3406 O 316.476 2.99976 -4.8515 0
M  V30 3407 O 315.41 1.34744 -5.86624 0
M  V30 3408 H 319.236 -0.334067 -3.01857 0
M  V30 3409 H 316.821 -0.229496 -1.47627 0
M  V30 3410 H 318.703 2.02318 -3.69656 0
M  V30 3411 H 317.378 2.05492 -2.5011 0
M  V30 3412 H 316.285 0.0964244 -3.73976 0
M  V30 3413 H 317.618 0.146545 -4.91982 0
M  V30 3414 N 319.27 1.56325 -0.20005 0
M  V30 3415 C 320.686 1.58839 0.155716 0
M  V30 3416 C 320.886 1.21636 1.60645 0
M  V30 3417 O 319.942 0.941437 2.34293 0
M  V30 3418 C 321.255 3.0032 -0.151124 0
M  V30 3419 C 322.803 3.12866 -0.0916284 0
M  V30 3420 C 323.278 4.56488 -0.371845 0
M  V30 3421 N 324.769 4.62089 -0.320641 0
M  V30 3422 C 325.504 5.71116 -0.511243 0
M  V30 3423 N 325 6.88592 -0.762461 0
M  V30 3424 N 326.793 5.60335 -0.445157 0
M  V30 3425 H 318.944 1.78788 -1.14668 0
M  V30 3426 H 321.207 0.829996 -0.458051 0
M  V30 3427 H 320.913 3.32117 -1.15721 0
M  V30 3428 H 320.787 3.73257 0.543986 0
M  V30 3429 H 323.174 2.80878 0.905065 0
M  V30 3430 H 323.255 2.42304 -0.81989 0
M  V30 3431 H 322.899 4.89189 -1.36588 0
M  V30 3432 H 322.829 5.25246 0.377362 0
M  V30 3433 H 325.32 3.77665 -0.13329 0
M  V30 3434 H 325.633 7.67581 -0.896576 0
M  V30 3435 H 323.978 6.90387 -0.799412 0
M  V30 3436 H 327.169 4.67436 -0.249278 0
M  V30 3437 H 327.342 6.45243 -0.597116 0
M  V30 3438 N 320.748 -0.0735177 1.57428 0
M  V30 3439 C 321.678 -1.0879 2.06608 0
M  V30 3440 C 322.659 -1.40473 0.959237 0
M  V30 3441 O 323.844 -1.5013 1.23185 0
M  V30 3442 C 320.974 -2.40183 2.50857 0
M  V30 3443 C 319.928 -2.22858 3.65402 0
M  V30 3444 C 319.254 -3.59619 3.957 0
M  V30 3445 C 320.554 -1.65123 4.95511 0
M  V30 3446 H 322.248 -0.678673 2.91607 0
M  V30 3447 H 319.794 -0.325013 1.40284 0
M  V30 3448 H 321.747 -3.11437 2.83874 0
M  V30 3449 H 320.471 -2.83083 1.62885 0
M  V30 3450 H 319.13 -1.54045 3.32664 0
M  V30 3451 H 318.778 -4.00086 3.04861 0
M  V30 3452 H 318.478 -3.48866 4.72828 0
M  V30 3453 H 320.002 -4.32306 4.31212 0
M  V30 3454 H 321.416 -2.26241 5.26771 0
M  V30 3455 H 319.813 -1.65071 5.7695 0
M  V30 3456 H 320.883 -0.612559 4.81015 0
M  V30 3457 N 322.226 -1.5378 -0.344866 0
M  V30 3458 C 323.158 -1.77988 -1.44406 0
M  V30 3459 C 324.171 -0.661138 -1.48771 0
M  V30 3460 O 325.36 -0.937842 -1.51877 0
M  V30 3461 C 322.46 -1.86345 -2.8307 0
M  V30 3462 C 321.633 -3.16256 -3.0216 0
M  V30 3463 C 320.692 -3.15588 -4.21059 0
M  V30 3464 O 319.718 -3.89314 -4.15239 0
M  V30 3465 N 320.92 -2.37864 -5.29529 0
M  V30 3466 H 323.685 -2.72839 -1.24012 0
M  V30 3467 H 321.246 -1.52814 -0.534737 0
M  V30 3468 H 323.238 -1.83351 -3.60783 0
M  V30 3469 H 321.808 -0.986858 -2.96614 0
M  V30 3470 H 321.028 -3.32385 -2.11929 0
M  V30 3471 H 322.316 -4.0207 -3.11797 0
M  V30 3472 H 321.714 -1.77514 -5.37127 0
M  V30 3473 H 320.271 -2.40668 -6.05741 0
M  V30 3474 N 323.704 0.605807 -1.45491 0
M  V30 3475 C 324.652 1.73754 -1.54636 0
M  V30 3476 C 325.646 1.64207 -0.416219 0
M  V30 3477 O 326.852 1.69979 -0.592199 0
M  V30 3478 H 323.227 0.574073 -0.485741 0
M  V30 3479 H 325.198 1.63169 -2.49837 0
M  V30 3480 C 323.947 3.12135 -1.53189 0
M  V30 3481 H 323.27 3.20141 -2.39478 0
M  V30 3482 H 324.71 3.91147 -1.63645 0
M  V30 3483 C 323.169 3.35921 -0.256616 0
M  V30 3484 O 323.699 3.96194 0.662798 0
M  V30 3485 N 321.905 2.90204 -0.151751 0
M  V30 3486 H 321.452 2.41336 -0.90081 0
M  V30 3487 H 321.41 3.06492 0.700699 0
M  V30 3488 N 325.182 1.32811 0.848464 0
M  V30 3489 C 326.431 1.23075 1.59798 0
M  V30 3490 C 326.744 -0.204419 1.94529 0
M  V30 3491 O 327.95 -0.423701 2.68173 0
M  V30 3492 C 326.406 2.15594 2.88179 0
M  V30 3493 C 326.014 3.64228 2.60849 0
M  V30 3494 C 327.758 2.14709 3.66197 0
M  V30 3495 C 325.665 4.48689 3.85269 0
M  V30 3496 H 324.595 0.457091 0.599653 0
M  V30 3497 H 327.246 1.57813 0.936342 0
M  V30 3498 H 325.628 1.73778 3.55833 0
M  V30 3499 H 326.802 4.14424 2.01467 0
M  V30 3500 H 325.117 3.67306 1.96151 0
M  V30 3501 H 327.714 2.75046 4.58534 0
M  V30 3502 H 328.057 1.13966 4.00397 0
M  V30 3503 H 328.59 2.54837 3.05455 0
M  V30 3504 H 325.329 5.5027 3.56207 0
M  V30 3505 H 324.849 4.03241 4.44024 0
M  V30 3506 H 326.528 4.62006 4.52946 0
M  V30 3507 N 326.66 -1.06551 1.16123 0
M  V30 3508 C 327.59 -2.15935 0.88851 0
M  V30 3509 C 328.571 -1.69306 -0.164135 0
M  V30 3510 O 329.756 -1.94193 -0.0167857 0
M  V30 3511 C 326.886 -3.45149 0.385942 0
M  V30 3512 C 325.84 -4.05271 1.3762 0
M  V30 3513 C 325.166 -5.29664 0.732137 0
M  V30 3514 C 326.466 -4.44355 2.74493 0
M  V30 3515 H 328.16 -2.39006 1.80323 0
M  V30 3516 H 325.706 -1.14866 0.868435 0
M  V30 3517 H 327.659 -4.21004 0.182647 0
M  V30 3518 H 326.383 -3.21689 -0.564274 0
M  V30 3519 H 325.042 -3.3147 1.56599 0
M  V30 3520 H 324.69 -5.02499 -0.224483 0
M  V30 3521 H 324.39 -5.70848 1.39307 0
M  V30 3522 H 325.914 -6.08218 0.538802 0
M  V30 3523 H 327.328 -5.11303 2.59311 0
M  V30 3524 H 325.725 -4.96515 3.37035 0
M  V30 3525 H 326.795 -3.55339 3.29943 0
M  V30 3526 N 328.138 -0.959301 -1.25041 0
M  V30 3527 C 329.048 -0.489994 -2.29426 0
M  V30 3528 C 330.064 0.444944 -1.68215 0
M  V30 3529 O 331.24 0.320046 -1.98841 0
M  V30 3530 C 328.305 0.220309 -3.45999 0
M  V30 3531 C 327.366 -0.753418 -4.22637 0
M  V30 3532 C 326.599 -0.076918 -5.33645 0
M  V30 3533 O 326.822 1.13649 -5.58963 0
M  V30 3534 O 325.756 -0.764824 -5.97021 0
M  V30 3535 H 329.582 -1.35755 -2.71669 0
M  V30 3536 H 327.167 -0.725961 -1.30576 0
M  V30 3537 H 329.049 0.619677 -4.16819 0
M  V30 3538 H 327.724 1.06296 -3.0575 0
M  V30 3539 H 326.631 -1.20308 -3.54227 0
M  V30 3540 H 327.964 -1.56423 -4.66683 0
M  V30 3541 N 329.616 1.39756 -0.72842 0
M  V30 3542 C 330.548 2.29157 -0.0446202 0
M  V30 3543 C 331.561 1.46484 0.710367 0
M  V30 3544 O 332.75 1.69632 0.55562 0
M  V30 3545 C 329.85 3.24987 0.961071 0
M  V30 3546 C 329.023 4.36572 0.268967 0
M  V30 3547 C 328.082 5.12756 1.18184 0
M  V30 3548 O 327.108 5.6534 0.661794 0
M  V30 3549 N 328.31 5.23331 2.51206 0
M  V30 3550 H 331.075 2.88482 -0.812295 0
M  V30 3551 H 328.636 1.51265 -0.577098 0
M  V30 3552 H 330.628 3.72827 1.57423 0
M  V30 3553 H 329.198 2.66739 1.63 0
M  V30 3554 H 328.418 3.90694 -0.524574 0
M  V30 3555 H 329.706 5.08363 -0.210934 0
M  V30 3556 H 329.104 4.82116 2.9594 0
M  V30 3557 H 327.661 5.74634 3.07634 0
M  V30 3558 N 331.094 0.475555 1.50254 0
M  V30 3559 C 332.343 -0.0795996 2.01543 0
M  V30 3560 C 332.656 -1.4038 1.36209 0
M  V30 3561 O 333.862 -2.04415 1.7868 0
M  V30 3562 C 332.318 -0.192363 3.59386 0
M  V30 3563 C 331.926 1.12367 4.33679 0
M  V30 3564 C 333.67 -0.699238 4.18701 0
M  V30 3565 C 331.577 0.974453 5.83317 0
M  V30 3566 H 330.507 -0.0335228 0.753254 0
M  V30 3567 H 333.158 0.611128 1.73025 0
M  V30 3568 H 331.54 -0.946974 3.84511 0
M  V30 3569 H 332.714 1.88958 4.20276 0
M  V30 3570 H 331.029 1.562 3.85993 0
M  V30 3571 H 333.626 -0.827978 5.28251 0
M  V30 3572 H 333.969 -1.69171 3.80377 0
M  V30 3573 H 334.502 -0.00188807 3.978 0
M  V30 3574 H 331.241 1.94042 6.26121 0
M  V30 3575 H 330.761 0.248998 5.99283 0
M  V30 3576 H 332.44 0.642867 6.43798 0
M  V30 3577 N 332.573 -1.56217 0.208337 0
M  V30 3578 C 333.819 -1.98242 -0.427552 0
M  V30 3579 C 334.152 -1.09554 -1.60348 0
M  V30 3580 O 333.427 -0.15035 -1.93918 0
M  V30 3581 C 333.71 -3.4931 -0.874907 0
M  V30 3582 C 333.563 -4.48773 0.303751 0
M  V30 3583 C 334.882 -4.04424 -1.73577 0
M  V30 3584 H 332.001 -0.720744 -0.153936 0
M  V30 3585 H 334.643 -1.87586 0.30192 0
M  V30 3586 H 332.793 -3.58522 -1.49648 0
M  V30 3587 H 334.465 -4.51586 0.941682 0
M  V30 3588 H 332.708 -4.23194 0.953375 0
M  V30 3589 H 333.379 -5.51976 -0.0519883 0
M  V30 3590 H 335.855 -3.98075 -1.21143 0
M  V30 3591 H 334.731 -5.1047 -2.01771 0
M  V30 3592 H 334.992 -3.50494 -2.69456 0
M  V30 3593 N 334.051 0.0651679 -1.57465 0
M  V30 3594 C 335.276 0.779605 -1.9219 0
M  V30 3595 C 335.701 1.69988 -0.805333 0
M  V30 3596 O 335.059 1.79685 0.241435 0
M  V30 3597 C 335.107 1.54364 -3.2589 0
M  V30 3598 O 334.211 2.65474 -3.1559 0
M  V30 3599 H 333.552 0.212249 -0.629163 0
M  V30 3600 H 336.082 0.0314294 -2.04576 0
M  V30 3601 H 336.092 1.92146 -3.59922 0
M  V30 3602 H 334.767 0.868457 -4.06732 0
M  V30 3603 H 333.344 2.30501 -2.93128 0
M  V30 3604 N 335.529 1.53961 0.336706 0
M  V30 3605 C 336.775 1.7179 1.07777 0
M  V30 3606 C 337.108 0.483263 1.88091 0
M  V30 3607 O 336.383 -0.519747 1.87427 0
M  V30 3608 C 336.666 2.98558 2.01334 0
M  V30 3609 C 336.519 4.32245 1.24437 0
M  V30 3610 C 337.838 3.21023 3.01052 0
M  V30 3611 H 334.957 0.625089 0.390426 0
M  V30 3612 H 337.599 1.86641 0.35567 0
M  V30 3613 H 335.749 2.86028 2.62908 0
M  V30 3614 H 337.421 4.56637 0.654243 0
M  V30 3615 H 335.664 4.30344 0.546458 0
M  V30 3616 H 336.335 5.17137 1.93063 0
M  V30 3617 H 338.811 3.32929 2.49595 0
M  V30 3618 H 337.687 4.11104 3.6371 0
M  V30 3619 H 337.948 2.37637 3.72802 0
M  V30 3620 N 337.007 -0.598083 1.45811 0
M  V30 3621 C 338.255 -1.35413 1.50026 0
M  V30 3622 C 338.576 -1.94444 0.147177 0
M  V30 3623 O 337.846 -1.77701 -0.824571 0
M  V30 3624 H 336.426 -0.502727 0.552517 0
M  V30 3625 H 339.088 -0.701606 1.81834 0
M  V30 3626 H 338.184 -2.16871 2.2444 0
M  V30 3627 N 338.485 -1.33259 -0.841409 0
M  V30 3628 C 339.432 -1.23302 -1.95103 0
M  V30 3629 C 340.402 -0.112204 -1.65721 0
M  V30 3630 O 341.587 -0.290038 -1.88583 0
M  V30 3631 C 338.727 -0.975583 -3.31023 0
M  V30 3632 C 337.84 -2.18243 -3.72819 0
M  V30 3633 C 336.975 -1.85936 -4.97595 0
M  V30 3634 C 336.014 -3.02866 -5.3192 0
M  V30 3635 N 335.151 -2.70565 -6.47873 0
M  V30 3636 H 339.991 -2.18207 -2.02952 0
M  V30 3637 H 337.528 -1.0851 -0.993173 0
M  V30 3638 H 339.486 -0.80677 -4.09325 0
M  V30 3639 H 338.116 -0.0632755 -3.22738 0
M  V30 3640 H 337.168 -2.46107 -2.90061 0
M  V30 3641 H 338.48 -3.05666 -3.94169 0
M  V30 3642 H 337.634 -1.65684 -5.83638 0
M  V30 3643 H 336.373 -0.957452 -4.78209 0
M  V30 3644 H 335.378 -3.23736 -4.44382 0
M  V30 3645 H 336.603 -3.93809 -5.53255 0
M  V30 3646 H 334.549 -1.8293 -6.29978 0
M  V30 3647 H 334.466 -3.51519 -6.69306 0
M  V30 3648 H 335.734 -2.53774 -7.37034 0
M  V30 3649 N 339.963 1.05934 -1.16686 0
M  V30 3650 C 340.913 2.11764 -0.844978 0
M  V30 3651 C 341.897 1.59922 0.177178 0
M  V30 3652 O 343.089 1.76983 -0.0241768 0
M  V30 3653 C 340.218 3.41493 -0.351812 0
M  V30 3654 C 339.304 4.00152 -1.40496 0
M  V30 3655 N 339.695 4.32874 -2.61636 0
M  V30 3656 C 337.993 4.278 -1.26106 0
M  V30 3657 C 338.694 4.79552 -3.29249 0
M  V30 3658 N 337.67 4.79211 -2.56628 0
M  V30 3659 H 341.472 2.34916 -1.76612 0
M  V30 3660 H 338.986 1.23511 -1.05446 0
M  V30 3661 H 340.983 4.16773 -0.102796 0
M  V30 3662 H 339.643 3.19778 0.56322 0
M  V30 3663 H 340.654 4.23109 -2.98663 0
M  V30 3664 H 337.331 4.15511 -0.407081 0
M  V30 3665 H 338.721 5.14045 -4.32675 0
M  V30 3666 N 341.441 0.965919 1.2453 0
M  V30 3667 C 342.687 0.62776 1.92839 0
M  V30 3668 C 343.02 -0.834694 1.75347 0
M  V30 3669 O 342.295 -1.60031 1.10546 0
M  V30 3670 C 342.578 1.00109 3.45905 0
M  V30 3671 C 342.431 2.52011 3.72573 0
M  V30 3672 C 343.75 0.53435 4.36844 0
M  V30 3673 H 340.869 0.229537 0.700344 0
M  V30 3674 H 343.511 1.2046 1.46933 0
M  V30 3675 H 341.661 0.510238 3.85135 0
M  V30 3676 H 343.333 3.08559 3.42912 0
M  V30 3677 H 341.576 2.95287 3.17786 0
M  V30 3678 H 342.247 2.73183 4.79661 0
M  V30 3679 H 344.723 0.955565 4.04979 0
M  V30 3680 H 343.599 0.824152 5.42678 0
M  V30 3681 H 343.86 -0.565589 4.38467 0
M  V30 3682 N 342.919 -1.39368 0.735821 0
M  V30 3683 C 343.866 -2.30599 0.0963825 0
M  V30 3684 C 344.836 -1.49257 -0.728794 0
M  V30 3685 O 346.021 -1.77941 -0.688588 0
M  V30 3686 C 343.161 -3.35596 -0.804305 0
M  V30 3687 C 342.274 -4.31987 0.0335761 0
M  V30 3688 C 341.409 -5.24053 -0.868461 0
M  V30 3689 C 340.448 -6.12095 -0.0258776 0
M  V30 3690 N 339.585 -6.96514 -0.883893 0
M  V30 3691 H 344.425 -2.8471 0.880002 0
M  V30 3692 H 341.962 -1.40188 0.445619 0
M  V30 3693 H 343.92 -3.95062 -1.34096 0
M  V30 3694 H 342.55 -2.82938 -1.55389 0
M  V30 3695 H 341.602 -3.74133 0.68766 0
M  V30 3696 H 342.914 -4.94074 0.685036 0
M  V30 3697 H 342.068 -5.88549 -1.47293 0
M  V30 3698 H 340.807 -4.62289 -1.5537 0
M  V30 3699 H 339.812 -5.4661 0.591386 0
M  V30 3700 H 341.037 -6.75923 0.656156 0
M  V30 3701 H 338.983 -6.37318 -1.55441 0
M  V30 3702 H 338.9 -7.55448 -0.288931 0
M  V30 3703 H 340.168 -7.65439 -1.4739 0
M  V30 3704 N 344.397 -0.483516 -1.5 0
M  V30 3705 C 345.645 0.067027 -2.01989 0
M  V30 3706 C 345.966 1.3909 -1.36671 0
M  V30 3707 O 345.236 1.88978 -0.516152 0
M  V30 3708 H 343.816 0.0277606 -0.746484 0
M  V30 3709 H 346.478 -0.636773 -1.84204 0
M  V30 3710 H 345.574 0.209484 -3.11396 0
M  V30 3711 N 345.875 1.56104 -0.216619 0
M  V30 3712 C 347.105 2.02269 0.420802 0
M  V30 3713 C 347.513 1.09575 1.5424 0
M  V30 3714 O 346.856 0.0967308 1.83445 0
M  V30 3715 C 346.918 3.44784 1.01806 0
M  V30 3716 C 346.582 4.56988 0.0325154 0
M  V30 3717 C 347.579 5.14225 -0.766055 0
M  V30 3718 C 345.264 5.02228 -0.0848092 0
M  V30 3719 C 347.258 6.15169 -1.6687 0
M  V30 3720 C 344.945 6.03011 -0.990994 0
M  V30 3721 C 345.943 6.59357 -1.78149 0
M  V30 3722 O 345.631 7.58179 -2.67245 0
M  V30 3723 H 345.363 0.667353 0.107776 0
M  V30 3724 H 347.917 2.02747 -0.329034 0
M  V30 3725 H 346.147 3.41359 1.81689 0
M  V30 3726 H 347.836 3.74626 1.56237 0
M  V30 3727 H 348.602 4.80126 -0.685836 0
M  V30 3728 H 344.481 4.58054 0.520349 0
M  V30 3729 H 348.025 6.59076 -2.28615 0
M  V30 3730 H 343.922 6.36532 -1.07225 0
M  V30 3731 H 344.69 7.75682 -2.61265 0
M  V30 3732 N 347.353 -0.0568162 1.57498 0
M  V30 3733 C 348.303 -1.07315 2.01166 0
M  V30 3734 C 349.287 -1.33632 0.896171 0
M  V30 3735 O 350.479 -1.33682 1.16009 0
M  V30 3736 C 347.608 -2.38257 2.47161 0
M  V30 3737 C 346.694 -2.1515 3.65474 0
M  V30 3738 N 347.085 -1.62014 4.7915 0
M  V30 3739 C 345.383 -2.45559 3.72313 0
M  V30 3740 C 346.084 -1.54069 5.60926 0
M  V30 3741 N 345.06 -2.00652 5.05213 0
M  V30 3742 H 348.862 -0.655878 2.86488 0
M  V30 3743 H 346.376 -0.263635 1.60246 0
M  V30 3744 H 348.373 -3.11845 2.76691 0
M  V30 3745 H 347.033 -2.80687 1.63232 0
M  V30 3746 H 348.044 -1.30667 5.01145 0
M  V30 3747 H 344.721 -2.91253 2.99129 0
M  V30 3748 H 346.111 -1.13712 6.62208 0
M  V30 3749 N 348.832 -1.54138 -0.328536 0
M  V30 3750 C 350.062 -1.75807 -1.08516 0
M  V30 3751 C 350.47 -0.50428 -1.82356 0
M  V30 3752 O 349.813 0.534451 -1.75754 0
M  V30 3753 C 349.875 -2.89423 -2.13248 0
M  V30 3754 C 349.539 -4.28504 -1.5885 0
M  V30 3755 C 350.536 -5.09536 -1.03289 0
M  V30 3756 C 348.221 -4.75034 -1.63243 0
M  V30 3757 C 350.215 -6.35206 -0.52845 0
M  V30 3758 C 347.902 -6.00672 -1.12411 0
M  V30 3759 C 348.9 -6.80592 -0.573062 0
M  V30 3760 O 348.588 -8.03867 -0.0723692 0
M  V30 3761 H 348.32 -0.590633 -0.328829 0
M  V30 3762 H 350.874 -2.01819 -0.381868 0
M  V30 3763 H 349.104 -2.5897 -2.87178 0
M  V30 3764 H 350.793 -2.98921 -2.74592 0
M  V30 3765 H 351.559 -4.74745 -0.99206 0
M  V30 3766 H 347.438 -4.12875 -2.05074 0
M  V30 3767 H 350.982 -6.97532 -0.0976774 0
M  V30 3768 H 346.879 -6.34955 -1.162 0
M  V30 3769 H 347.647 -8.18283 -0.188258 0
M  V30 3770 N 350.31 0.590341 -1.46126 0
M  V30 3771 C 351.559 1.34499 -1.50309 0
M  V30 3772 C 351.872 1.94977 -0.156021 0
M  V30 3773 O 353.078 2.71395 -0.0756037 0
M  V30 3774 C 351.534 2.43723 -2.64815 0
M  V30 3775 C 351.142 1.89582 -4.0591 0
M  V30 3776 C 352.886 3.20579 -2.78262 0
M  V30 3777 C 350.793 2.9639 -5.11769 0
M  V30 3778 H 349.723 0.505593 -0.559368 0
M  V30 3779 H 352.374 0.630848 -1.72315 0
M  V30 3780 H 350.756 3.17902 -2.36124 0
M  V30 3781 H 351.93 1.21997 -4.44357 0
M  V30 3782 H 350.245 1.25418 -3.97063 0
M  V30 3783 H 352.842 4.00276 -3.54519 0
M  V30 3784 H 353.185 3.72684 -1.85505 0
M  V30 3785 H 353.718 2.53505 -3.06562 0
M  V30 3786 H 350.457 2.49181 -6.06291 0
M  V30 3787 H 349.977 3.62487 -4.77873 0
M  V30 3788 H 351.656 3.60474 -5.37278 0
M  V30 3789 N 351.788 1.33704 0.83433 0
M  V30 3790 C 353.037 1.24763 1.58484 0
M  V30 3791 C 353.35 -0.183775 1.94735 0
M  V30 3792 O 354.556 -0.395234 2.68608 0
M  V30 3793 C 353.012 2.18638 2.85876 0
M  V30 3794 C 352.62 3.66974 2.56971 0
M  V30 3795 C 354.364 2.18581 3.63899 0
M  V30 3796 C 352.271 4.5275 3.80488 0
M  V30 3797 H 351.201 0.463425 0.594772 0
M  V30 3798 H 353.852 1.58797 0.919551 0
M  V30 3799 H 352.234 1.77542 3.5397 0
M  V30 3800 H 353.408 4.16538 1.9706 0
M  V30 3801 H 351.723 3.69366 1.92244 0
M  V30 3802 H 354.32 2.79894 4.55591 0
M  V30 3803 H 354.663 1.18207 3.99165 0
M  V30 3804 H 355.196 2.58062 3.02735 0
M  V30 3805 H 351.935 5.54017 3.5035 0
M  V30 3806 H 351.455 4.07927 4.39722 0
M  V30 3807 H 353.134 4.66784 4.4802 0
M  V30 3808 N 353.266 -1.05314 1.17247 0
M  V30 3809 C 354.229 -2.112 0.890357 0
M  V30 3810 C 355.229 -1.60359 -0.118943 0
M  V30 3811 O 356.419 -1.73833 0.113086 0
M  V30 3812 C 353.551 -3.39266 0.333422 0
M  V30 3813 H 354.744 -2.37659 1.82916 0
M  V30 3814 H 352.297 -1.21538 0.982758 0
M  V30 3815 H 353.032 -3.18462 -0.612587 0
M  V30 3816 H 352.817 -3.77477 1.06082 0
M  V30 3817 H 354.307 -4.17315 0.154322 0
M  V30 3818 N 354.744 -0.972509 -1.24016 0
M  V30 3819 C 355.692 -0.498562 -2.27194 0
M  V30 3820 C 356.686 0.440372 -1.63576 0
M  V30 3821 O 357.892 0.315133 -1.7722 0
M  V30 3822 H 354.267 -0.142775 -0.738322 0
M  V30 3823 H 356.238 -1.38065 -2.64539 0
M  V30 3824 C 354.987 0.191072 -3.47175 0
M  V30 3825 H 354.31 -0.522318 -3.96373 0
M  V30 3826 H 355.75 0.486445 -4.212 0
M  V30 3827 C 354.209 1.41967 -3.05527 0
M  V30 3828 O 354.739 2.51642 -3.13112 0
M  V30 3829 N 352.945 1.28746 -2.60524 0
M  V30 3830 H 352.492 0.395089 -2.54552 0
M  V30 3831 H 352.45 2.11061 -2.33025 0
M  V30 3832 N 356.222 1.38976 -0.743202 0
M  V30 3833 C 357.152 2.33171 -0.123873 0
M  V30 3834 C 358.133 1.54336 0.71516 0
M  V30 3835 O 359.318 1.82696 0.658467 0
M  V30 3836 C 356.448 3.38474 0.777978 0
M  V30 3837 C 355.402 4.27979 0.0424758 0
M  V30 3838 C 354.728 5.2405 1.06189 0
M  V30 3839 C 356.028 5.10155 -1.1198 0
M  V30 3840 H 357.722 2.85213 -0.910709 0
M  V30 3841 H 355.268 1.37133 -0.439388 0
M  V30 3842 H 357.221 4.03328 1.22084 0
M  V30 3843 H 355.945 2.84891 1.59702 0
M  V30 3844 H 354.604 3.64616 -0.380853 0
M  V30 3845 H 354.252 4.66758 1.87472 0
M  V30 3846 H 353.952 5.84785 0.574485 0
M  V30 3847 H 355.476 5.9178 1.50428 0
M  V30 3848 H 356.89 5.68307 -0.75499 0
M  V30 3849 H 355.287 5.80073 -1.53738 0
M  V30 3850 H 356.357 4.44504 -1.93764 0
M  V30 3851 N 357.7 0.491464 1.49741 0
M  V30 3852 C 358.948 -0.0563141 2.02022 0
M  V30 3853 C 359.269 -1.38363 1.37407 0
M  V30 3854 O 358.539 -1.88702 0.526166 0
M  V30 3855 H 357.119 -0.0238014 0.746621 0
M  V30 3856 H 359.781 0.646533 1.83864 0
M  V30 3857 H 358.877 -0.192967 3.11503 0
M  V30 3858 N 359.178 -1.55987 0.224894 0
M  V30 3859 C 360.425 -1.9839 -0.4059 0
M  V30 3860 C 360.753 -1.11261 -1.59535 0
M  V30 3861 O 360.008 -0.158314 -1.95059 0
M  V30 3862 C 360.307 -3.46394 -0.880106 0
M  V30 3863 C 359.973 -4.5046 0.19918 0
M  V30 3864 C 358.635 -4.7864 0.495661 0
M  V30 3865 C 360.987 -5.12855 0.928939 0
M  V30 3866 C 358.315 -5.66497 1.52636 0
M  V30 3867 C 360.667 -6.01828 1.949 0
M  V30 3868 C 359.331 -6.28351 2.25236 0
M  V30 3869 H 358.601 -0.725961 -0.148529 0
M  V30 3870 H 361.248 -1.88668 0.328113 0
M  V30 3871 H 359.553 -3.53337 -1.69294 0
M  V30 3872 H 361.25 -3.76577 -1.37808 0
M  V30 3873 H 357.84 -4.28579 -0.0420526 0
M  V30 3874 H 362.024 -4.9115 0.713129 0
M  V30 3875 H 357.28 -5.8531 1.76698 0
M  V30 3876 H 361.454 -6.49225 2.51951 0
M  V30 3877 H 359.081 -6.96226 3.05244 0
M  V30 3878 N 360.656 0.0484629 -1.57525 0
M  V30 3879 C 361.603 1.05504 -2.05275 0
M  V30 3880 C 362.573 1.37084 -0.937927 0
M  V30 3881 O 363.758 1.47754 -1.2072 0
M  V30 3882 C 360.898 2.35676 -2.52093 0
M  V30 3883 C 360.011 2.10423 -3.77288 0
M  V30 3884 C 359.146 3.34327 -4.12794 0
M  V30 3885 C 358.185 3.04542 -5.30962 0
M  V30 3886 N 357.322 4.20841 -5.61994 0
M  V30 3887 H 362.162 0.640885 -2.91027 0
M  V30 3888 H 359.699 0.304854 -1.43906 0
M  V30 3889 H 361.657 3.11709 -2.77297 0
M  V30 3890 H 360.287 2.7485 -1.69285 0
M  V30 3891 H 359.339 1.24976 -3.59284 0
M  V30 3892 H 360.651 1.84438 -4.63448 0
M  V30 3893 H 359.805 4.1874 -4.39024 0
M  V30 3894 H 358.544 3.63408 -3.25247 0
M  V30 3895 H 357.549 2.18528 -5.04505 0
M  V30 3896 H 358.774 2.76758 -6.20146 0
M  V30 3897 H 356.72 4.4991 -4.77406 0
M  V30 3898 H 356.637 3.98212 -6.42622 0
M  V30 3899 H 357.905 5.06184 -5.92789 0
M  V30 3900 N 362.134 1.5431 0.320358 0
M  V30 3901 C 363.411 1.63322 1.07635 0
M  V30 3902 C 363.791 0.46912 2.05821 0
M  V30 3903 O 363.139 -0.536274 2.22118 0
M  V30 3904 C 363.349 3.00465 1.77544 0
M  V30 3905 C 364.697 3.56621 2.30449 0
M  V30 3906 O 365.721 3.02791 1.87606 0
M  V30 3907 O 364.58 4.5083 3.08892 0
M  V30 3908 H 361.674 0.661502 0.496331 0
M  V30 3909 H 364.22 1.66656 0.319992 0
M  V30 3910 H 362.992 3.76629 1.06143 0
M  V30 3911 H 362.615 3.00824 2.59982 0
M  V30 3912 N 363.613 -0.582584 1.46437 0
M  V30 3913 C 364.862 -1.337 1.5102 0
M  V30 3914 C 365.175 -1.94891 0.166359 0
M  V30 3915 O 366.381 -2.71351 0.0899954 0
M  V30 3916 C 364.837 -2.42315 2.66104 0
M  V30 3917 C 364.445 -1.87427 4.06909 0
M  V30 3918 C 366.189 -3.19099 2.79958 0
M  V30 3919 C 364.096 -2.93672 5.13333 0
M  V30 3920 H 363.026 -0.502619 0.562041 0
M  V30 3921 H 365.677 -0.621701 1.72647 0
M  V30 3922 H 364.059 -3.16645 2.37807 0
M  V30 3923 H 365.233 -1.19639 4.44998 0
M  V30 3924 H 363.548 -1.2331 3.97723 0
M  V30 3925 H 366.145 -3.9839 3.56636 0
M  V30 3926 H 366.488 -3.71695 1.87479 0
M  V30 3927 H 367.021 -2.51875 3.07902 0
M  V30 3928 H 363.76 -2.45962 6.07604 0
M  V30 3929 H 363.28 -3.59948 4.79789 0
M  V30 3930 H 364.959 -3.5762 5.39182 0
M  V30 3931 N 365.091 -1.34144 -0.827227 0
M  V30 3932 C 366.316 -1.29476 -1.62021 0
M  V30 3933 C 366.741 0.129292 -1.87655 0
M  V30 3934 O 366.099 1.08967 -1.449 0
M  V30 3935 C 366.147 -2.08702 -2.94068 0
M  V30 3936 O 365.251 -1.45359 -3.85933 0
M  V30 3937 H 364.592 -0.444881 -0.492927 0
M  V30 3938 H 367.122 -1.76882 -1.02829 0
M  V30 3939 H 367.132 -2.19898 -3.43669 0
M  V30 3940 H 365.807 -3.12241 -2.74734 0
M  V30 3941 H 364.384 -1.42879 -3.44442 0
M  V30 3942 N 366.569 1.04691 -1.17803 0
M  V30 3943 C 367.499 2.14494 -0.92275 0
M  V30 3944 C 368.48 1.69546 0.137179 0
M  V30 3945 O 369.665 1.94195 -0.0141108 0
M  V30 3946 C 366.795 3.44491 -0.440803 0
M  V30 3947 C 365.749 4.03031 -1.4405 0
M  V30 3948 C 365.075 5.28432 -0.81631 0
M  V30 3949 C 366.375 4.39932 -2.81527 0
M  V30 3950 H 368.069 2.36107 -1.84103 0
M  V30 3951 H 365.615 1.1347 -0.886599 0
M  V30 3952 H 367.568 4.2066 -0.249602 0
M  V30 3953 H 366.292 3.22546 0.513025 0
M  V30 3954 H 364.951 3.28937 -1.61853 0
M  V30 3955 H 364.599 5.02792 0.144511 0
M  V30 3956 H 364.299 5.68559 -1.48371 0
M  V30 3957 H 365.823 6.07284 -0.635496 0
M  V30 3958 H 367.237 5.07113 -2.67412 0
M  V30 3959 H 365.634 4.9109 -3.44892 0
M  V30 3960 H 366.704 3.50045 -3.35554 0
M  V30 3961 N 368.047 0.979072 1.23499 0
M  V30 3962 C 368.957 0.526431 2.28617 0
M  V30 3963 C 369.973 -0.418126 1.68901 0
M  V30 3964 O 371.149 -0.288372 1.99325 0
M  V30 3965 C 368.214 -0.165235 3.46306 0
M  V30 3966 C 367.275 0.82056 4.21385 0
M  V30 3967 C 366.508 0.161807 5.33455 0
M  V30 3968 O 366.731 -1.04742 5.60701 0
M  V30 3969 O 365.665 0.859708 5.95729 0
M  V30 3970 H 369.491 1.4006 2.69475 0
M  V30 3971 H 367.076 0.746643 1.29405 0
M  V30 3972 H 368.958 -0.553287 4.17752 0
M  V30 3973 H 367.633 -1.01419 3.07402 0
M  V30 3974 H 366.54 1.25929 3.52268 0
M  V30 3975 H 367.873 1.63828 4.64135 0
M  V30 3976 N 369.525 -1.3858 0.750561 0
M  V30 3977 C 370.941 -1.53759 0.427824 0
M  V30 3978 C 371.141 -1.71401 -1.05943 0
M  V30 3979 O 370.197 -1.72331 -1.84549 0
M  V30 3980 C 371.51 -2.74642 1.22443 0
M  V30 3981 C 373.058 -2.88489 1.2142 0
M  V30 3982 C 373.533 -4.12329 1.9937 0
M  V30 3983 N 375.024 -4.194 1.96616 0
M  V30 3984 C 375.759 -5.14209 2.53727 0
M  V30 3985 N 375.255 -6.14709 3.19539 0
M  V30 3986 N 377.048 -5.06537 2.43673 0
M  V30 3987 H 369.199 -1.25377 1.71447 0
M  V30 3988 H 371.462 -0.608844 0.726645 0
M  V30 3989 H 371.168 -2.68 2.27747 0
M  V30 3990 H 371.042 -3.67745 0.839273 0
M  V30 3991 H 373.429 -2.94614 0.169232 0
M  V30 3992 H 373.51 -1.96406 1.63885 0
M  V30 3993 H 373.154 -4.06966 3.03877 0
M  V30 3994 H 373.084 -5.03486 1.54302 0
M  V30 3995 H 375.575 -3.47421 1.48684 0
M  V30 3996 H 375.888 -6.8354 3.60545 0
M  V30 3997 H 374.233 -6.1505 3.23633 0
M  V30 3998 H 377.424 -4.26962 1.91889 0
M  V30 3999 H 377.597 -5.80245 2.88479 0
M  V30 4000 N 371.003 -0.499398 -1.49478 0
M  V30 4001 C 372.25 0.0456899 -2.02448 0
M  V30 4002 C 372.578 1.37142 -1.37921 0
M  V30 4003 O 371.833 1.89111 -0.503544 0
M  V30 4004 C 372.132 0.248424 -3.56536 0
M  V30 4005 C 371.798 -0.999107 -4.39692 0
M  V30 4006 C 370.46 -1.34108 -4.62135 0
M  V30 4007 C 372.812 -1.82842 -4.88076 0
M  V30 4008 C 370.14 -2.51191 -5.30208 0
M  V30 4009 C 372.492 -2.99076 -5.57437 0
M  V30 4010 C 371.156 -3.33655 -5.78127 0
M  V30 4011 H 370.426 0.0167191 -0.740811 0
M  V30 4012 H 373.073 -0.65923 -1.79795 0
M  V30 4013 H 371.378 1.03586 -3.77859 0
M  V30 4014 H 373.075 0.684605 -3.95113 0
M  V30 4015 H 369.665 -0.722729 -4.22463 0
M  V30 4016 H 373.849 -1.57737 -4.70566 0
M  V30 4017 H 369.105 -2.78221 -5.44429 0
M  V30 4018 H 373.279 -3.63664 -5.93904 0
M  V30 4019 H 370.906 -4.24483 -6.30649 0
M  V30 4020 N 372.481 1.55866 -0.233164 0
M  V30 4021 C 373.73 1.97779 0.39579 0
M  V30 4022 C 374.043 1.12419 1.60066 0
M  V30 4023 O 375.249 1.44283 2.29988 0
M  V30 4024 C 373.705 3.5188 0.755556 0
M  V30 4025 C 373.313 4.45959 -0.427152 0
M  V30 4026 C 375.057 4.02479 1.34946 0
M  V30 4027 C 372.964 5.91383 -0.0443043 0
M  V30 4028 H 371.894 0.738592 0.15165 0
M  V30 4029 H 374.545 1.80486 -0.331212 0
M  V30 4030 H 372.927 3.64816 1.5403 0
M  V30 4031 H 374.101 4.44776 -1.20462 0
M  V30 4032 H 372.416 4.05765 -0.935068 0
M  V30 4033 H 375.013 5.08637 1.649 0
M  V30 4034 H 375.356 3.49014 2.26925 0
M  V30 4035 H 375.889 3.92813 0.62791 0
M  V30 4036 H 372.628 6.48857 -0.930874 0
M  V30 4037 H 372.148 5.95734 0.697238 0
M  V30 4038 H 373.827 6.45893 0.378334 0
M  V30 4039 N 373.959 -0.0401083 1.57549 0
M  V30 4040 C 374.909 -1.05175 2.02292 0
M  V30 4041 C 375.893 -1.32674 0.910294 0
M  V30 4042 O 377.085 -1.32444 1.17421 0
M  V30 4043 C 374.214 -2.35622 2.49674 0
M  V30 4044 C 373.3 -2.11261 3.67736 0
M  V30 4045 N 373.691 -1.56923 4.80842 0
M  V30 4046 C 371.989 -2.41596 3.74897 0
M  V30 4047 C 372.69 -1.48111 5.62528 0
M  V30 4048 N 371.666 -1.95282 5.07312 0
M  V30 4049 H 375.468 -0.625455 2.87168 0
M  V30 4050 H 372.982 -0.246624 1.60516 0
M  V30 4051 H 374.979 -3.08893 2.79983 0
M  V30 4052 H 373.639 -2.7894 1.662 0
M  V30 4053 H 374.65 -1.25345 5.02503 0
M  V30 4054 H 371.327 -2.88064 3.02201 0
M  V30 4055 H 372.717 -1.06683 6.63377 0
M  V30 4056 N 375.437 -1.54477 -0.31217 0
M  V30 4057 C 376.685 -1.72884 -1.04668 0
M  V30 4058 C 377.006 -0.511477 -1.88173 0
M  V30 4059 O 376.276 0.474407 -1.90069 0
M  V30 4060 H 374.856 -0.637461 -0.389425 0
M  V30 4061 H 377.518 -1.91807 -0.345852 0
M  V30 4062 H 376.614 -2.61334 -1.70619 0
M  V30 4063 N 376.915 0.57481 -1.46744 0
M  V30 4064 C 378.163 1.33009 -1.52161 0
M  V30 4065 C 378.484 1.94185 -0.178092 0
M  V30 4066 O 377.754 1.7899 0.796196 0
M  V30 4067 H 376.334 0.493873 -0.560445 0
M  V30 4068 H 378.996 0.672589 -1.82927 0
M  V30 4069 H 378.092 2.13273 -2.27862 0
M  V30 4070 N 378.394 1.34581 0.820102 0
M  V30 4071 C 379.357 1.2628 1.91275 0
M  V30 4072 C 380.357 0.177344 1.59819 0
M  V30 4073 O 381.547 0.430156 1.68806 0
M  V30 4074 C 378.679 0.950327 3.27386 0
M  V30 4075 H 379.872 2.23421 2.00057 0
M  V30 4076 H 377.425 1.1891 1.0144 0
M  V30 4077 H 378.16 -0.0177938 3.24295 0
M  V30 4078 H 377.945 1.73549 3.51601 0
M  V30 4079 H 379.435 0.917492 4.07396 0
M  V30 4080 N 379.872 -1.04064 1.18357 0
M  V30 4081 C 380.82 -2.14187 0.907007 0
M  V30 4082 C 381.814 -1.68879 -0.132725 0
M  V30 4083 O 383.02 -1.79993 0.0154248 0
M  V30 4084 H 379.395 -0.699585 0.275835 0
M  V30 4085 H 381.366 -2.34711 1.84264 0
M  V30 4086 C 380.115 -3.44785 0.449254 0
M  V30 4087 H 379.438 -3.80058 1.24081 0
M  V30 4088 H 380.878 -4.22974 0.294737 0
M  V30 4089 C 379.337 -3.26391 -0.834909 0
M  V30 4090 O 379.867 -3.53973 -1.89911 0
M  V30 4091 N 378.073 -2.79726 -0.787523 0
M  V30 4092 H 377.62 -2.5748 0.0787347 0
M  V30 4093 H 377.578 -2.67798 -1.64716 0
M  V30 4094 N 381.35 -0.985608 -1.22978 0
M  V30 4095 C 382.596 -0.65836 -1.91816 0
M  V30 4096 C 382.929 0.806692 -1.76653 0
M  V30 4097 O 382.204 1.58252 -1.13078 0
M  V30 4098 C 382.487 -1.056 -3.44268 0
M  V30 4099 C 382.34 -2.57906 -3.68516 0
M  V30 4100 C 383.659 -0.603781 -4.35939 0
M  V30 4101 H 380.778 -0.24065 -0.696604 0
M  V30 4102 H 383.42 -1.22783 -1.44998 0
M  V30 4103 H 381.57 -0.571445 -3.84274 0
M  V30 4104 H 383.242 -3.13976 -3.3796 0
M  V30 4105 H 381.485 -3.00305 -3.13048 0
M  V30 4106 H 382.156 -2.80779 -4.75255 0
M  V30 4107 H 384.632 -1.01987 -4.03408 0
M  V30 4108 H 383.508 -0.910383 -5.41298 0
M  V30 4109 H 383.769 0.495761 -4.39312 0
M  V30 4110 N 382.828 1.3818 -0.7579 0
M  V30 4111 C 384.056 2.04301 -0.326937 0
M  V30 4112 C 384.471 1.57163 1.0462 0
M  V30 4113 O 383.828 0.746626 1.66529 0
M  V30 4114 C 383.879 3.59846 -0.345363 0
M  V30 4115 O 383.6 4.05256 -1.66432 0
M  V30 4116 C 385.101 4.4319 0.098927 0
M  V30 4117 H 382.321 0.656443 -0.139012 0
M  V30 4118 H 384.865 1.76786 -1.02796 0
M  V30 4119 H 383.02 3.86182 0.306955 0
M  V30 4120 H 383.434 4.99709 -1.59345 0
M  V30 4121 H 384.908 5.51989 0.0348745 0
M  V30 4122 H 385.385 4.23947 1.14741 0
M  V30 4123 H 385.991 4.22051 -0.52468 0
M  V30 4124 N 384.306 0.507319 1.49211 0
M  V30 4125 C 385.554 -0.0348839 2.0207 0
M  V30 4126 C 385.875 -1.36898 1.38866 0
M  V30 4127 O 385.145 -1.88133 0.546151 0
M  V30 4128 H 383.725 -0.0158812 0.746831 0
M  V30 4129 H 386.387 0.665998 1.83168 0
M  V30 4130 H 385.483 -0.159917 3.1169 0
M  V30 4131 N 385.784 -1.5574 0.241426 0
M  V30 4132 C 387.031 -1.9881 -0.384836 0
M  V30 4133 C 387.359 -1.12947 -1.58346 0
M  V30 4134 O 386.614 -0.178993 -1.9488 0
M  V30 4135 C 386.913 -3.47308 -0.843317 0
M  V30 4136 C 386.579 -4.50223 0.246946 0
M  V30 4137 C 385.241 -4.78088 0.546399 0
M  V30 4138 C 387.593 -5.11841 0.983282 0
M  V30 4139 C 384.921 -5.64846 1.58636 0
M  V30 4140 C 387.273 -5.99727 2.01272 0
M  V30 4141 C 385.937 -6.25927 2.31888 0
M  V30 4142 H 385.207 -0.727496 -0.140821 0
M  V30 4143 H 387.854 -1.8831 0.348106 0
M  V30 4144 H 386.159 -3.55112 -1.65537 0
M  V30 4145 H 387.856 -3.78017 -1.33806 0
M  V30 4146 H 384.446 -4.286 0.00340639 0
M  V30 4147 H 388.63 -4.90366 0.765182 0
M  V30 4148 H 383.886 -5.83403 1.82896 0
M  V30 4149 H 388.06 -6.46517 2.58823 0
M  V30 4150 H 385.687 -6.92949 3.12611 0
M  V30 4151 N 387.262 0.0317525 -1.57568 0
M  V30 4152 C 388.194 1.06073 -2.03178 0
M  V30 4153 C 389.207 1.32627 -0.944132 0
M  V30 4154 O 390.396 1.30162 -1.22148 0
M  V30 4155 C 387.496 2.40297 -2.38978 0
M  V30 4156 C 386.669 2.33137 -3.70089 0
M  V30 4157 C 385.728 3.49787 -3.9311 0
M  V30 4158 O 384.754 3.29403 -4.64201 0
M  V30 4159 N 385.956 4.71562 -3.38541 0
M  V30 4160 H 388.721 0.672006 -2.92069 0
M  V30 4161 H 386.282 0.219745 -1.60402 0
M  V30 4162 H 388.274 3.1705 -2.51518 0
M  V30 4163 H 386.844 2.71024 -1.55771 0
M  V30 4164 H 386.064 1.415 -3.67928 0
M  V30 4165 H 387.352 2.25493 -4.56104 0
M  V30 4166 H 386.75 4.91024 -2.80912 0
M  V30 4167 H 385.307 5.45689 -3.56464 0
M  V30 4168 N 388.74 1.54641 0.303973 0
M  V30 4169 C 389.67 1.88386 1.3796 0
M  V30 4170 C 390.651 0.742485 1.5304 0
M  V30 4171 O 391.836 0.997959 1.66597 0
M  V30 4172 C 388.966 2.12854 2.74427 0
M  V30 4173 C 387.92 3.28702 2.74115 0
M  V30 4174 C 387.246 3.38582 4.13844 0
M  V30 4175 C 388.546 4.65881 2.3612 0
M  V30 4176 H 390.24 2.78474 1.09966 0
M  V30 4177 H 387.786 1.33988 0.527556 0
M  V30 4178 H 389.739 2.35047 3.49758 0
M  V30 4179 H 388.463 1.19535 3.03939 0
M  V30 4180 H 387.122 3.06428 2.0124 0
M  V30 4181 H 386.77 2.42784 4.40528 0
M  V30 4182 H 386.47 4.16453 4.14537 0
M  V30 4183 H 387.994 3.63031 4.90959 0
M  V30 4184 H 389.408 4.87823 3.01167 0
M  V30 4185 H 387.805 5.46444 2.48031 0
M  V30 4186 H 388.875 4.66799 1.3125 0
M  V30 4187 N 390.218 -0.567019 1.47046 0
M  V30 4188 C 391.464 -1.32658 1.53394 0
M  V30 4189 C 391.797 -1.93254 0.19148 0
M  V30 4190 O 391.072 -1.77338 -0.798844 0
M  V30 4191 C 391.355 -2.44412 2.64452 0
M  V30 4192 C 391.208 -1.88749 4.08282 0
M  V30 4193 C 392.527 -3.46387 2.71485 0
M  V30 4194 H 389.646 -0.48098 0.558415 0
M  V30 4195 H 392.288 -0.635481 1.79058 0
M  V30 4196 H 390.438 -3.03363 2.427 0
M  V30 4197 H 392.11 -1.34134 4.41368 0
M  V30 4198 H 390.353 -1.19481 4.17021 0
M  V30 4199 H 391.024 -2.69491 4.81745 0
M  V30 4200 H 393.5 -2.9734 2.91081 0
M  V30 4201 H 392.376 -4.2202 3.50985 0
M  V30 4202 H 392.637 -4.04616 1.78153 0
M  V30 4203 N 391.696 -1.35014 -0.812953 0
M  V30 4204 C 392.973 -1.18502 -1.55617 0
M  V30 4205 C 393.353 0.238421 -2.09749 0
M  V30 4206 O 392.701 1.2411 -1.91857 0
M  V30 4207 C 392.911 -2.24783 -2.66971 0
M  V30 4208 C 394.259 -2.60268 -3.35478 0
M  V30 4209 O 395.283 -2.23648 -2.77236 0
M  V30 4210 O 394.142 -3.2321 -4.40678 0
M  V30 4211 H 391.236 -0.459984 -0.687272 0
M  V30 4212 H 393.782 -1.46677 -0.853464 0
M  V30 4213 H 392.554 -3.20284 -2.24798 0
M  V30 4214 H 392.177 -1.97841 -3.44884 0
M  V30 4215 N 393.175 1.03435 -1.18907 0
M  V30 4216 C 394.422 1.76743 -0.988334 0
M  V30 4217 C 394.75 1.88447 0.481441 0
M  V30 4218 O 394.005 1.39383 1.37371 0
M  V30 4219 C 394.304 3.19792 -1.59586 0
M  V30 4220 C 393.97 3.28108 -3.09283 0
M  V30 4221 C 392.632 3.30084 -3.5014 0
M  V30 4222 C 394.984 3.27696 -4.05296 0
M  V30 4223 C 392.312 3.29299 -4.85571 0
M  V30 4224 C 394.664 3.28451 -5.4065 0
M  V30 4225 C 393.328 3.28723 -5.80946 0
M  V30 4226 H 392.598 0.64675 -0.361657 0
M  V30 4227 H 395.245 1.21442 -1.48068 0
M  V30 4228 H 393.55 3.78136 -1.02568 0
M  V30 4229 H 395.247 3.75171 -1.41589 0
M  V30 4230 H 391.837 3.27294 -2.76725 0
M  V30 4231 H 396.021 3.25354 -3.74778 0
M  V30 4232 H 391.277 3.2783 -5.16079 0
M  V30 4233 H 395.451 3.27082 -6.14809 0
M  V30 4234 H 393.078 3.27868 -6.85862 0
M  V30 4235 N 394.653 0.992116 1.22453 0
M  V30 4236 C 395.601 0.534644 2.26372 0
M  V30 4237 C 396.595 -0.414293 1.64256 0
M  V30 4238 O 397.801 -0.286899 1.77699 0
M  V30 4239 H 394.176 0.154502 0.735957 0
M  V30 4240 H 396.147 1.42256 2.62309 0
M  V30 4241 C 394.896 -0.135815 3.47435 0
M  V30 4242 H 394.219 0.585311 3.95492 0
M  V30 4243 H 395.659 -0.419374 4.21921 0
M  V30 4244 C 394.118 -1.37089 3.07747 0
M  V30 4245 O 394.648 -2.46629 3.17076 0
M  V30 4246 N 392.854 -1.24585 2.62539 0
M  V30 4247 H 392.401 -0.354542 2.55149 0
M  V30 4248 H 392.359 -2.07327 2.36353 0
M  V30 4249 N 396.131 -1.37776 0.765217 0
M  V30 4250 C 397.359 -2.04124 0.337767 0
M  V30 4251 C 397.774 -1.57715 -1.03785 0
M  V30 4252 O 397.131 -0.755447 -1.6613 0
M  V30 4253 C 397.182 -3.59658 0.364442 0
M  V30 4254 O 396.903 -4.04367 1.68579 0
M  V30 4255 C 398.404 -4.43236 -0.0754221 0
M  V30 4256 H 395.624 -0.655696 0.142491 0
M  V30 4257 H 398.168 -1.76238 1.03732 0
M  V30 4258 H 396.323 -3.86339 -0.286471 0
M  V30 4259 H 396.737 -4.98857 1.61993 0
M  V30 4260 H 398.211 -5.52 -0.00560067 0
M  V30 4261 H 398.688 -4.2455 -1.12491 0
M  V30 4262 H 399.294 -4.21767 0.547055 0
M  V30 4263 N 397.609 -0.515225 -1.4894 0
M  V30 4264 C 399.02 -0.0710067 -1.86565 0
M  V30 4265 C 399.371 1.34733 -1.42623 0
M  V30 4266 O 398.496 2.00653 -0.810379 0
M  V30 4267 C 399.091 -0.122083 -3.3858 0
M  V30 4268 C 397.65 0.266863 -3.75453 0
M  V30 4269 C 396.797 -0.488376 -2.72966 0
M  V30 4270 H 399.748 -0.727266 -1.41055 0
M  V30 4271 H 399.769 0.669818 -3.74558 0
M  V30 4272 H 399.281 -1.15448 -3.70531 0
M  V30 4273 H 397.382 1.30196 -3.49113 0
M  V30 4274 H 397.495 -0.0624811 -4.79059 0
M  V30 4275 H 395.859 0.0635622 -2.54621 0
M  V30 4276 H 396.642 -1.52113 -3.07761 0
M  V30 4277 N 399.087 1.5561 -0.249682 0
M  V30 4278 C 400.02 2.17537 0.689408 0
M  V30 4279 C 400.998 1.12829 1.17083 0
M  V30 4280 O 402.182 1.41229 1.24846 0
M  V30 4281 C 399.309 2.77828 1.93725 0
M  V30 4282 C 398.355 3.95615 1.59346 0
M  V30 4283 S 399.188 5.30988 0.69367 0
M  V30 4284 C 400.344 5.94734 1.95046 0
M  V30 4285 H 400.577 2.96852 0.163142 0
M  V30 4286 H 398.11 1.54362 -0.0341166 0
M  V30 4287 H 400.068 3.13199 2.65361 0
M  V30 4288 H 398.729 1.98454 2.43465 0
M  V30 4289 H 397.922 4.364 2.52132 0
M  V30 4290 H 397.524 3.61535 0.957512 0
M  V30 4291 H 399.816 6.12419 2.89739 0
M  V30 4292 H 400.759 6.90109 1.58604 0
M  V30 4293 H 401.167 5.23832 2.10381 0
M  V30 4294 N 400.565 -0.0233959 1.57583 0
M  V30 4295 C 401.811 -0.714119 1.89811 0
M  V30 4296 C 402.144 -1.74702 0.848113 0
M  V30 4297 O 401.419 -1.94023 -0.136135 0
M  V30 4298 C 401.702 -1.37853 3.32669 0
M  V30 4299 C 401.555 -0.358764 4.48367 0
M  V30 4300 C 402.874 -2.31101 3.7454 0
M  V30 4301 H 399.993 -0.25814 0.690314 0
M  V30 4302 H 402.635 0.0230927 1.89986 0
M  V30 4303 H 400.785 -2.00689 3.3265 0
M  V30 4304 H 402.457 0.268115 4.6052 0
M  V30 4305 H 400.7 0.321387 4.32608 0
M  V30 4306 H 401.371 -0.862242 5.45224 0
M  V30 4307 H 403.847 -1.78304 3.75961 0
M  V30 4308 H 402.723 -2.74567 4.75294 0
M  V30 4309 H 402.984 -3.18018 3.0711 0
M  V30 4310 N 402.043 -1.548 -0.295768 0
M  V30 4311 C 403.292 -1.73538 -1.02798 0
M  V30 4312 C 403.605 -0.531159 -1.8825 0
M  V30 4313 O 404.811 -0.600458 -2.64777 0
M  V30 4314 C 403.267 -3.07051 -1.87744 0
M  V30 4315 C 402.875 -4.34968 -1.07269 0
M  V30 4316 C 404.619 -3.35146 -2.60533 0
M  V30 4317 C 402.526 -5.5953 -1.91521 0
M  V30 4318 H 401.456 -0.646794 -0.387522 0
M  V30 4319 H 404.107 -1.81278 -0.284718 0
M  V30 4320 H 402.489 -2.93289 -2.66078 0
M  V30 4321 H 403.663 -4.5958 -0.335117 0
M  V30 4322 H 401.978 -4.13847 -0.460384 0
M  V30 4323 H 404.575 -4.2541 -3.23929 0
M  V30 4324 H 404.918 -2.54255 -3.29636 0
M  V30 4325 H 405.451 -3.49902 -1.89244 0
M  V30 4326 H 402.19 -6.43103 -1.26878 0
M  V30 4327 H 401.71 -5.39096 -2.62937 0
M  V30 4328 H 403.389 -5.96982 -2.49442 0
M  V30 4329 N 403.521 0.559213 -1.47345 0
M  V30 4330 C 404.468 1.66645 -1.59682 0
M  V30 4331 C 405.438 1.60168 -0.43994 0
M  V30 4332 O 406.623 1.79031 -0.659736 0
M  V30 4333 C 403.763 3.04969 -1.61518 0
M  V30 4334 C 402.876 3.21897 -2.88108 0
M  V30 4335 C 402.011 4.50608 -2.81294 0
M  V30 4336 C 401.05 4.60961 -4.02717 0
M  V30 4337 N 400.187 5.81024 -3.94151 0
M  V30 4338 H 405.027 1.55439 -2.54249 0
M  V30 4339 H 402.564 0.757219 -1.26113 0
M  V30 4340 H 404.522 3.85064 -1.60566 0
M  V30 4341 H 403.152 3.15015 -0.704645 0
M  V30 4342 H 402.204 2.35248 -2.98936 0
M  V30 4343 H 403.516 3.25412 -3.78032 0
M  V30 4344 H 402.67 5.3896 -2.7858 0
M  V30 4345 H 401.409 4.49568 -1.89049 0
M  V30 4346 H 400.414 3.71021 -4.05738 0
M  V30 4347 H 401.639 4.63761 -4.96087 0
M  V30 4348 H 399.585 5.80938 -3.04708 0
M  V30 4349 H 399.502 5.85909 -4.77752 0
M  V30 4350 H 400.77 6.71744 -3.9545 0
M  V30 4351 N 404.999 1.35443 0.805782 0
M  V30 4352 C 405.929 1.31095 1.93226 0
M  V30 4353 C 406.91 0.185244 1.69088 0
M  V30 4354 O 408.095 0.380332 1.90439 0
M  V30 4355 C 405.225 1.08299 3.29983 0
M  V30 4356 C 404.179 2.17519 3.68605 0
M  V30 4357 C 403.505 1.79887 5.03532 0
M  V30 4358 C 404.805 3.5949 3.78898 0
M  V30 4359 H 406.499 2.25352 1.97122 0
M  V30 4360 H 404.045 1.0848 0.946996 0
M  V30 4361 H 405.998 1.03897 4.08391 0
M  V30 4362 H 404.722 0.104885 3.26432 0
M  V30 4363 H 403.381 2.2102 2.92482 0
M  V30 4364 H 403.029 0.80693 4.96485 0
M  V30 4365 H 402.729 2.53001 5.30344 0
M  V30 4366 H 404.253 1.77011 5.84379 0
M  V30 4367 H 405.667 3.58307 4.47536 0
M  V30 4368 H 404.064 4.31371 4.1718 0
M  V30 4369 H 405.134 3.95584 2.80431 0
M  V30 4370 N 406.477 -1.02803 1.19454 0
M  V30 4371 C 407.41 -2.107 0.876396 0
M  V30 4372 C 408.388 -1.61741 -0.166897 0
M  V30 4373 O 409.572 -1.88451 -0.0430195 0
M  V30 4374 C 406.699 -3.37262 0.311758 0
M  V30 4375 C 405.745 -4.05093 1.33424 0
M  V30 4376 S 406.578 -4.50498 2.89503 0
M  V30 4377 C 407.734 -5.80277 2.34584 0
M  V30 4378 H 407.967 -2.37362 1.79016 0
M  V30 4379 H 405.5 -1.15755 1.02177 0
M  V30 4380 H 407.458 -4.10499 -0.00748752 0
M  V30 4381 H 406.119 -3.08693 -0.58032 0
M  V30 4382 H 405.312 -4.9611 0.888302 0
M  V30 4383 H 404.914 -3.3803 1.60037 0
M  V30 4384 H 407.206 -6.54873 1.73633 0
M  V30 4385 H 408.149 -6.29651 3.23952 0
M  V30 4386 H 408.557 -5.3599 1.77131 0
M  V30 4387 N 407.956 -0.998596 -1.21925 0
M  V30 4388 C 409.233 -0.593401 -1.86382 0
M  V30 4389 C 409.613 0.92916 -1.89552 0
M  V30 4390 O 408.961 1.81347 -1.39017 0
M  V30 4391 C 409.171 -1.22039 -3.26967 0
M  V30 4392 C 410.519 -1.32449 -4.03413 0
M  V30 4393 O 411.543 -1.17522 -3.36254 0
M  V30 4394 O 410.402 -1.56395 -5.23644 0
M  V30 4395 H 407.496 -0.202385 -0.801854 0
M  V30 4396 H 410.042 -1.09484 -1.29659 0
M  V30 4397 H 408.814 -2.26158 -3.19325 0
M  V30 4398 H 408.437 -0.704906 -3.91301 0
M  V30 4399 N 409.434 1.37368 -0.772513 0
M  V30 4400 C 410.85 1.53059 -0.452231 0
M  V30 4401 C 411.05 1.73065 1.03203 0
M  V30 4402 O 410.106 1.75245 1.81784 0
M  V30 4403 C 411.419 2.72659 -1.26797 0
M  V30 4404 C 412.967 2.86521 -1.25995 0
M  V30 4405 C 413.442 4.09105 -2.05905 0
M  V30 4406 N 414.933 4.16219 -2.03263 0
M  V30 4407 C 415.668 5.10107 -2.61875 0
M  V30 4408 N 415.164 6.09547 -3.29278 0
M  V30 4409 N 416.957 5.02596 -2.51701 0
M  V30 4410 H 409.108 1.22634 -1.7342 0
M  V30 4411 H 411.371 0.597206 -0.736239 0
M  V30 4412 H 411.077 2.64343 -2.31982 0
M  V30 4413 H 410.951 3.66363 -0.897672 0
M  V30 4414 H 413.338 2.94308 -0.216081 0
M  V30 4415 H 413.419 1.93774 -1.66989 0
M  V30 4416 H 413.063 4.0208 -3.10313 0
M  V30 4417 H 412.993 5.00968 -1.62292 0
M  V30 4418 H 415.484 3.45012 -1.54192 0
M  V30 4419 H 415.797 6.77718 -3.71374 0
M  V30 4420 H 414.142 6.09824 -3.33377 0
M  V30 4421 H 417.333 4.23855 -1.98657 0
M  V30 4422 H 417.506 5.75582 -2.97673 0
M  V30 4423 N 410.912 0.523116 1.48665 0
M  V30 4424 C 412.158 -0.00540031 2.03399 0
M  V30 4425 C 412.513 -1.3264 1.39372 0
M  V30 4426 O 411.806 -1.84184 0.527916 0
M  V30 4427 C 412 -0.191671 3.56886 0
M  V30 4428 C 411.829 1.10972 4.35793 0
M  V30 4429 C 410.599 1.66769 4.76987 0
M  V30 4430 C 412.797 2.01861 4.73029 0
M  V30 4431 N 410.779 2.91268 5.40404 0
M  V30 4432 C 412.15 3.10937 5.36394 0
M  V30 4433 C 414.205 2.02271 4.54962 0
M  V30 4434 C 412.908 4.20478 5.83601 0
M  V30 4435 C 414.934 3.10802 5.03146 0
M  V30 4436 C 414.296 4.18597 5.6653 0
M  V30 4437 H 410.395 0.0393531 0.781009 0
M  V30 4438 H 412.979 0.702876 1.8157 0
M  V30 4439 H 411.15 -0.869025 3.78553 0
M  V30 4440 H 412.882 -0.719177 3.98259 0
M  V30 4441 H 409.637 1.20996 4.57883 0
M  V30 4442 H 410.061 3.54635 5.76683 0
M  V30 4443 H 414.703 1.2023 4.05345 0
M  V30 4444 H 412.421 5.03303 6.32228 0
M  V30 4445 H 416.007 3.12166 4.90962 0
M  V30 4446 H 414.887 5.01193 6.03138 0
M  V30 4447 N 412.39 -1.55475 0.257931 0
M  V30 4448 C 413.337 -2.21837 -0.636939 0
M  V30 4449 C 414.307 -1.18596 -1.16294 0
M  V30 4450 O 415.492 -1.47081 -1.21539 0
M  V30 4451 C 412.632 -2.9301 -1.82317 0
M  V30 4452 C 411.745 -4.10931 -1.33265 0
M  V30 4453 C 410.88 -4.69791 -2.47931 0
M  V30 4454 C 409.919 -5.7994 -1.95796 0
M  V30 4455 N 409.056 -6.32935 -3.0387 0
M  V30 4456 H 413.896 -2.9793 -0.0643591 0
M  V30 4457 H 411.433 -1.47086 -0.0200031 0
M  V30 4458 H 413.391 -3.3248 -2.52018 0
M  V30 4459 H 412.021 -2.1937 -2.36805 0
M  V30 4460 H 411.073 -3.76699 -0.52931 0
M  V30 4461 H 412.385 -4.90417 -0.910654 0
M  V30 4462 H 411.539 -5.11892 -3.25656 0
M  V30 4463 H 410.278 -3.89545 -2.93438 0
M  V30 4464 H 409.283 -5.37305 -1.16546 0
M  V30 4465 H 410.508 -6.62043 -1.51246 0
M  V30 4466 H 408.454 -5.55591 -3.48791 0
M  V30 4467 H 408.371 -7.07645 -2.66035 0
M  V30 4468 H 409.639 -6.79695 -3.81621 0
M  V30 4469 N 413.868 0.0150385 -1.57593 0
M  V30 4470 C 414.815 1.01126 -2.07466 0
M  V30 4471 C 415.785 1.35064 -0.966794 0
M  V30 4472 O 416.97 1.4516 -1.23827 0
M  V30 4473 C 414.11 2.30276 -2.57035 0
M  V30 4474 C 413.223 2.02373 -3.81666 0
M  V30 4475 C 412.358 3.25496 -4.19793 0
M  V30 4476 C 411.397 2.93211 -5.37303 0
M  V30 4477 N 410.534 4.08826 -5.70794 0
M  V30 4478 H 415.374 0.57901 -2.92321 0
M  V30 4479 H 412.911 0.27426 -1.44521 0
M  V30 4480 H 414.869 3.05757 -2.83846 0
M  V30 4481 H 413.499 2.71197 -1.75077 0
M  V30 4482 H 412.551 1.17327 -3.61854 0
M  V30 4483 H 413.863 1.74567 -4.67256 0
M  V30 4484 H 413.017 4.09333 -4.47807 0
M  V30 4485 H 411.756 3.56428 -3.32882 0
M  V30 4486 H 410.761 2.07777 -5.09027 0
M  V30 4487 H 411.986 2.63542 -6.25877 0
M  V30 4488 H 409.932 4.39682 -4.86842 0
M  V30 4489 H 409.849 3.84491 -6.50924 0
M  V30 4490 H 411.117 4.93496 -6.03392 0
M  V30 4491 N 415.346 1.54954 0.287554 0
M  V30 4492 C 416.276 1.89839 1.35954 0
M  V30 4493 C 417.257 0.758675 1.52244 0
M  V30 4494 O 418.442 1.01557 1.65529 0
M  V30 4495 C 415.572 2.15753 2.72154 0
M  V30 4496 C 414.526 3.3159 2.70614 0
M  V30 4497 C 413.852 3.42952 4.10229 0
M  V30 4498 C 415.152 4.68359 2.31165 0
M  V30 4499 H 416.846 2.79625 1.07007 0
M  V30 4500 H 414.392 1.3454 0.513316 0
M  V30 4501 H 416.345 2.38743 3.47246 0
M  V30 4502 H 415.069 1.22752 3.02654 0
M  V30 4503 H 413.728 3.08545 1.97979 0
M  V30 4504 H 413.376 2.47443 4.37928 0
M  V30 4505 H 413.076 4.20826 4.10097 0
M  V30 4506 H 414.6 3.68218 4.87081 0
M  V30 4507 H 416.014 4.9099 2.95976 0
M  V30 4508 H 414.411 5.49044 2.42221 0
M  V30 4509 H 415.481 4.68165 1.26291 0
M  V30 4510 N 416.824 -0.551391 1.4764 0
M  V30 4511 C 418.101 -1.31229 1.45046 0
M  V30 4512 C 418.481 -2.10563 0.150527 0
M  V30 4513 O 417.829 -2.11374 -0.867956 0
M  V30 4514 C 418.039 -2.21189 2.69956 0
M  V30 4515 C 419.387 -2.82021 3.1741 0
M  V30 4516 O 420.411 -2.31488 2.70724 0
M  V30 4517 O 419.27 -3.73885 3.98588 0
M  V30 4518 H 416.364 -0.591193 0.578291 0
M  V30 4519 H 418.91 -0.569813 1.59847 0
M  V30 4520 H 417.682 -1.62207 3.56096 0
M  V30 4521 H 417.305 -3.02722 2.57769 0
M  V30 4522 N 418.302 -1.35869 -0.798587 0
M  V30 4523 C 419.234 -1.25305 -1.91915 0
M  V30 4524 C 420.247 -0.174548 -1.61862 0
M  V30 4525 O 421.436 -0.428499 -1.73281 0
M  V30 4526 C 418.536 -0.9086 -3.26493 0
M  V30 4527 C 417.709 -2.08711 -3.84394 0
M  V30 4528 C 416.768 -1.71717 -4.97393 0
M  V30 4529 O 415.794 -2.43692 -5.14396 0
M  V30 4530 N 416.996 -0.645473 -5.769 0
M  V30 4531 H 419.761 -2.21849 -2.01502 0
M  V30 4532 H 417.322 -1.29143 -0.976408 0
M  V30 4533 H 419.314 -0.642455 -3.99568 0
M  V30 4534 H 417.884 -0.0325815 -3.12583 0
M  V30 4535 H 417.104 -2.51659 -3.03416 0
M  V30 4536 H 418.392 -2.87468 -4.19809 0
M  V30 4537 H 417.79 -0.047648 -5.6568 0
M  V30 4538 H 416.347 -0.43913 -6.50319 0
M  V30 4539 N 419.78 1.02168 -1.19998 0
M  V30 4540 C 421.196 1.27969 -0.953737 0
M  V30 4541 C 421.396 1.98079 0.369703 0
M  V30 4542 O 420.452 2.27306 1.09947 0
M  V30 4543 C 421.765 2.11971 -2.13281 0
M  V30 4544 C 423.313 2.25255 -2.17323 0
M  V30 4545 C 423.788 3.12632 -3.34702 0
M  V30 4546 N 425.279 3.2022 -3.34684 0
M  V30 4547 C 426.014 3.88039 -4.22153 0
M  V30 4548 N 425.51 4.58027 -5.19791 0
M  V30 4549 N 427.303 3.84511 -4.10009 0
M  V30 4550 H 419.454 0.550794 -2.05134 0
M  V30 4551 H 421.717 0.305683 -0.897364 0
M  V30 4552 H 421.423 1.67785 -3.09097 0
M  V30 4553 H 421.297 3.12699 -2.10949 0
M  V30 4554 H 423.684 2.68667 -1.22073 0
M  V30 4555 H 423.765 1.24053 -2.23706 0
M  V30 4556 H 423.409 2.69926 -4.30235 0
M  V30 4557 H 423.339 4.13909 -3.25556 0
M  V30 4558 H 425.83 2.70382 -2.64012 0
M  V30 4559 H 426.143 5.07429 -5.82868 0
M  V30 4560 H 424.488 4.56869 -5.23733 0
M  V30 4561 H 427.679 3.28978 -3.33003 0
M  V30 4562 H 427.852 4.3709 -4.78389 0
M  V30 4563 N 421.258 1.00505 1.21394 0
M  V30 4564 C 422.168 0.574806 2.27449 0
M  V30 4565 C 423.184 -0.382206 1.6975 0
M  V30 4566 O 424.36 -0.246027 1.99892 0
M  V30 4567 C 421.425 -0.0917414 3.46579 0
M  V30 4568 C 420.486 0.909758 4.1955 0
M  V30 4569 C 419.719 0.274924 5.32991 0
M  V30 4570 O 419.942 -0.928254 5.62796 0
M  V30 4571 O 418.876 0.985877 5.93771 0
M  V30 4572 H 422.702 1.45744 2.66444 0
M  V30 4573 H 420.287 0.773923 1.27792 0
M  V30 4574 H 422.169 -0.464551 4.18832 0
M  V30 4575 H 420.844 -0.948755 3.09484 0
M  V30 4576 H 419.751 1.33372 3.49518 0
M  V30 4577 H 421.084 1.73636 4.60555 0
M  V30 4578 N 422.737 -1.36956 0.779787 0
M  V30 4579 C 423.967 -2.03459 0.358877 0
M  V30 4580 C 424.375 -1.58939 -1.02641 0
M  V30 4581 O 423.718 -0.769777 -1.66794 0
M  V30 4582 C 423.78 -3.5796 0.332393 0
M  V30 4583 C 423.444 -4.25644 1.66362 0
M  V30 4584 C 424.441 -4.49205 2.61746 0
M  V30 4585 C 422.126 -4.63313 1.94027 0
M  V30 4586 C 424.12 -5.09503 3.82996 0
M  V30 4587 C 421.807 -5.2333 3.15546 0
M  V30 4588 C 422.805 -5.46363 4.0985 0
M  V30 4589 O 422.493 -6.05122 5.29228 0
M  V30 4590 H 422.225 -0.659767 0.147254 0
M  V30 4591 H 424.779 -1.76111 1.05708 0
M  V30 4592 H 423.009 -3.84388 -0.422237 0
M  V30 4593 H 424.698 -4.05852 -0.0625389 0
M  V30 4594 H 425.464 -4.20508 2.41657 0
M  V30 4595 H 421.343 -4.44715 1.21448 0
M  V30 4596 H 424.887 -5.27397 4.56617 0
M  V30 4597 H 420.784 -5.51451 3.35517 0
M  V30 4598 H 421.552 -6.23595 5.30161 0
M  V30 4599 N 424.215 -0.530993 -1.48385 0
M  V30 4600 C 425.626 -0.0907905 -1.86479 0
M  V30 4601 C 425.977 1.33213 -1.44044 0
M  V30 4602 O 425.102 1.99783 -0.831615 0
M  V30 4603 C 425.697 -0.157987 -3.38431 0
M  V30 4604 C 424.256 0.227026 -3.75715 0
M  V30 4605 C 423.403 -0.5173 -2.72432 0
M  V30 4606 H 426.354 -0.742186 -1.40276 0
M  V30 4607 H 426.375 0.630053 -3.75247 0
M  V30 4608 H 425.887 -1.19372 -3.69286 0
M  V30 4609 H 423.988 1.26486 -3.50474 0
M  V30 4610 H 424.101 -0.113288 -4.78966 0
M  V30 4611 H 422.465 0.0365527 -2.54674 0
M  V30 4612 H 423.248 -1.55368 -3.0613 0
M  V30 4613 N 425.693 1.55336 -0.266172 0
M  V30 4614 C 426.941 1.99003 0.35246 0
M  V30 4615 C 427.262 1.15591 1.57047 0
M  V30 4616 O 426.532 0.243268 1.94384 0
M  V30 4617 H 425.112 0.735025 0.133217 0
M  V30 4618 H 427.774 1.91367 -0.369434 0
M  V30 4619 H 426.87 3.05289 0.648453 0
M  V30 4620 N 427.171 -0.0066808 1.57599 0
M  V30 4621 C 428.396 -0.707738 1.94951 0
M  V30 4622 C 428.821 -1.66882 0.867868 0
M  V30 4623 O 428.179 -1.80457 -0.17458 0
M  V30 4624 C 428.227 -1.42162 3.31394 0
M  V30 4625 O 427.331 -2.53578 3.25226 0
M  V30 4626 H 426.672 -0.188752 0.636607 0
M  V30 4627 H 429.202 0.0445193 2.04552 0
M  V30 4628 H 429.212 -1.78655 3.66806 0
M  V30 4629 H 427.887 -0.716903 4.09675 0
M  V30 4630 H 426.464 -2.19463 3.01481 0
M  V30 4631 N 428.649 -1.55105 -0.279332 0
M  V30 4632 C 429.559 -1.90638 -1.36727 0
M  V30 4633 C 430.575 -0.802899 -1.54368 0
M  V30 4634 O 431.751 -1.10138 -1.68616 0
M  V30 4635 C 428.816 -2.16547 -2.70755 0
M  V30 4636 C 427.877 -3.40146 -2.61915 0
M  V30 4637 C 427.11 -3.6481 -3.8955 0
M  V30 4638 O 427.333 -2.92095 -4.89935 0
M  V30 4639 O 426.267 -4.58343 -3.90135 0
M  V30 4640 H 430.093 -2.83237 -1.09591 0
M  V30 4641 H 427.678 -1.4157 -0.477306 0
M  V30 4642 H 429.56 -2.34665 -3.50014 0
M  V30 4643 H 428.235 -1.27131 -2.9769 0
M  V30 4644 H 427.142 -3.2737 -1.81052 0
M  V30 4645 H 428.475 -4.29761 -2.3993 0
M  V30 4646 N 430.127 0.543554 -1.4793 0
M  V30 4647 C 431.355 1.32516 -1.58894 0
M  V30 4648 C 431.77 1.87215 -0.244131 0
M  V30 4649 O 431.127 1.65709 0.764652 0
M  V30 4650 C 431.178 2.48554 -2.62494 0
M  V30 4651 O 430.899 1.96112 -3.91755 0
M  V30 4652 C 432.4 3.40572 -2.8377 0
M  V30 4653 H 429.62 0.403472 -0.536145 0
M  V30 4654 H 432.164 0.657106 -1.93655 0
M  V30 4655 H 430.319 3.1127 -2.30629 0
M  V30 4656 H 430.733 2.71967 -4.4848 0
M  V30 4657 H 432.207 4.18375 -3.60093 0
M  V30 4658 H 432.684 3.94965 -1.92092 0
M  V30 4659 H 433.29 2.8366 -3.16887 0
M  V30 4660 N 431.605 1.3629 0.791371 0
M  V30 4661 C 433.016 1.27225 1.36641 0
M  V30 4662 C 433.367 -0.0887968 1.95999 0
M  V30 4663 O 432.492 -0.990207 1.92416 0
M  V30 4664 C 433.087 2.30375 2.48421 0
M  V30 4665 C 431.646 2.25004 3.01746 0
M  V30 4666 C 430.793 2.15259 1.7481 0
M  V30 4667 H 433.744 1.47198 0.593173 0
M  V30 4668 H 433.765 1.93905 3.27385 0
M  V30 4669 H 433.277 3.29422 2.05189 0
M  V30 4670 H 431.378 1.29417 3.49403 0
M  V30 4671 H 431.491 3.1761 3.58693 0
M  V30 4672 H 429.855 1.61482 1.96966 0
M  V30 4673 H 430.638 3.16191 1.33709 0
M  V30 4674 N 433.083 -1.0153 1.20538 0
M  V30 4675 C 434.494 -1.56598 1.01657 0
M  V30 4676 C 434.845 -1.91505 -0.426668 0
M  V30 4677 O 433.97 -1.72375 -1.30827 0
M  V30 4678 C 434.565 -2.84542 1.83905 0
M  V30 4679 C 433.124 -3.36133 1.69386 0
M  V30 4680 C 432.271 -2.09427 1.81757 0
M  V30 4681 H 435.222 -0.838974 1.34711 0
M  V30 4682 H 435.243 -3.56004 1.34319 0
M  V30 4683 H 434.755 -2.59105 2.8894 0
M  V30 4684 H 432.856 -3.66528 0.669933 0
M  V30 4685 H 432.969 -4.08248 2.50739 0
M  V30 4686 H 431.333 -2.21941 1.24957 0
M  V30 4687 H 432.116 -1.86414 2.88279 0
M  V30 4688 N 434.561 -1.01147 -1.20859 0
M  V30 4689 C 435.508 -0.577354 -2.23462 0
M  V30 4690 C 436.478 0.399922 -1.61214 0
M  V30 4691 O 437.663 0.300515 -1.88419 0
M  V30 4692 C 434.803 0.083372 -3.44999 0
M  V30 4693 C 433.916 -0.937856 -4.21697 0
M  V30 4694 C 433.051 -0.248717 -5.30617 0
M  V30 4695 C 432.09 -1.25705 -5.99053 0
M  V30 4696 N 431.227 -0.594939 -6.99575 0
M  V30 4697 H 436.067 -1.45695 -2.59956 0
M  V30 4698 H 433.604 -0.729428 -1.27741 0
M  V30 4699 H 435.562 0.483535 -4.14388 0
M  V30 4700 H 434.192 0.926645 -3.09214 0
M  V30 4701 H 433.244 -1.45622 -3.51423 0
M  V30 4702 H 434.556 -1.70493 -4.68757 0
M  V30 4703 H 433.71 0.207215 -6.06346 0
M  V30 4704 H 432.449 0.55071 -4.84581 0
M  V30 4705 H 431.454 -1.72343 -5.2209 0
M  V30 4706 H 432.679 -2.05767 -6.47176 0
M  V30 4707 H 430.625 0.184713 -6.5574 0
M  V30 4708 H 430.542 -1.30017 -7.44736 0
M  V30 4709 H 431.81 -0.162427 -7.79331 0
M  V30 4710 N 436.039 1.36541 -0.78704 0
M  V30 4711 C 437.269 2.03266 -0.369662 0
M  V30 4712 C 437.677 1.59481 1.01796 0
M  V30 4713 O 437.02 0.778612 1.66383 0
M  V30 4714 C 437.082 3.57779 -0.351371 0
M  V30 4715 C 436.746 4.24756 -1.68617 0
M  V30 4716 C 437.743 4.47811 -2.64124 0
M  V30 4717 C 435.428 4.62277 -1.96481 0
M  V30 4718 C 437.422 5.07464 -3.85693 0
M  V30 4719 C 435.109 5.21649 -3.18317 0
M  V30 4720 C 436.107 5.44182 -4.12741 0
M  V30 4721 O 435.795 6.02307 -5.32429 0
M  V30 4722 H 435.527 0.658977 -0.150751 0
M  V30 4723 H 438.081 1.75548 -1.0664 0
M  V30 4724 H 436.311 3.84606 0.401847 0
M  V30 4725 H 438 4.05879 0.0410147 0
M  V30 4726 H 438.766 4.19221 -2.43883 0
M  V30 4727 H 434.645 4.44065 -1.23805 0
M  V30 4728 H 438.189 5.24968 -4.59407 0
M  V30 4729 H 434.086 5.49664 -3.38437 0
M  V30 4730 H 434.854 6.20775 -5.33461 0
M  V30 4731 N 437.518 0.538854 1.48102 0
M  V30 4732 C 438.746 0.0123136 2.06896 0
M  V30 4733 C 439.161 -1.27312 1.39417 0
M  V30 4734 O 438.518 -1.75949 0.484582 0
M  V30 4735 C 438.569 -0.206118 3.60912 0
M  V30 4736 O 438.29 1.0284 4.25859 0
M  V30 4737 C 439.791 -0.772033 4.36526 0
M  V30 4738 H 437.011 0.0375239 0.66995 0
M  V30 4739 H 439.555 0.747032 1.90367 0
M  V30 4740 H 437.71 -0.89091 3.77017 0
M  V30 4741 H 438.124 0.814654 5.18135 0
M  V30 4742 H 439.598 -0.874251 5.45033 0
M  V30 4743 H 440.075 -1.77904 4.01555 0
M  V30 4744 H 440.681 -0.123526 4.25121 0
M  V30 4745 N 438.996 -1.55193 0.274407 0
M  V30 4746 C 440.221 -2.04446 -0.348824 0
M  V30 4747 C 440.646 -1.15149 -1.48735 0
M  V30 4748 O 440.004 -0.149952 -1.80679 0
M  V30 4749 C 440.052 -3.51431 -0.808009 0
M  V30 4750 O 439.156 -3.65225 -1.91531 0
M  V30 4751 H 438.497 -0.66006 -0.0722276 0
M  V30 4752 H 441.027 -2.00481 0.408498 0
M  V30 4753 H 441.037 -3.92781 -1.10395 0
M  V30 4754 H 439.712 -4.15892 0.0249865 0
M  V30 4755 H 438.289 -3.35778 -1.62196 0
M  V30 4756 N 440.474 -0.00167713 -1.576 0
M  V30 4757 C 441.437 0.974046 -2.07473 0
M  V30 4758 C 442.437 1.27143 -0.984444 0
M  V30 4759 O 443.627 1.21633 -1.24703 0
M  V30 4760 C 440.759 2.29849 -2.51759 0
M  V30 4761 H 441.952 0.54262 -2.9495 0
M  V30 4762 H 439.505 0.245829 -1.54355 0
M  V30 4763 H 440.24 2.77677 -1.67529 0
M  V30 4764 H 440.025 2.09584 -3.31386 0
M  V30 4765 H 441.515 2.9984 -2.90664 0
M  V30 4766 N 441.952 1.55251 0.271103 0
M  V30 4767 C 442.882 1.9127 1.33933 0
M  V30 4768 C 443.863 0.77478 1.5143 0
M  V30 4769 O 445.048 1.03307 1.64442 0
M  V30 4770 C 442.178 2.18627 2.69851 0
M  V30 4771 C 441.132 3.34442 2.67081 0
M  V30 4772 C 440.458 3.47284 4.06569 0
M  V30 4773 C 441.758 4.70784 2.26185 0
M  V30 4774 H 443.452 2.80744 1.04035 0
M  V30 4775 H 440.998 1.35077 0.499017 0
M  V30 4776 H 442.951 2.42413 3.44694 0
M  V30 4777 H 441.675 1.25955 3.01335 0
M  V30 4778 H 440.334 3.10627 1.94695 0
M  V30 4779 H 439.982 2.52074 4.35279 0
M  V30 4780 H 439.682 4.25152 4.0561 0
M  V30 4781 H 441.206 3.73363 4.83148 0
M  V30 4782 H 442.62 4.94102 2.90751 0
M  V30 4783 H 441.017 5.51582 2.36384 0
M  V30 4784 H 442.087 4.69478 1.21319 0
M  V30 4785 N 443.43 -0.535701 1.48216 0
M  V30 4786 C 444.658 -1.31671 1.59594 0
M  V30 4787 C 445.073 -1.87083 0.254056 0
M  V30 4788 O 444.43 -1.66112 -0.755854 0
M  V30 4789 C 444.481 -2.47158 2.63809 0
M  V30 4790 O 444.202 -1.94032 3.92789 0
M  V30 4791 C 445.703 -3.39062 2.85573 0
M  V30 4792 H 442.923 -0.400623 0.538277 0
M  V30 4793 H 445.467 -0.646827 1.94001 0
M  V30 4794 H 443.622 -3.10043 2.32276 0
M  V30 4795 H 444.036 -2.69585 4.49916 0
M  V30 4796 H 445.51 -4.16459 3.62306 0
M  V30 4797 H 445.987 -3.93941 1.94184 0
M  V30 4798 H 446.593 -2.81975 3.18387 0
M  V30 4799 N 444.908 -1.36708 -0.784132 0
M  V30 4800 C 446.138 -1.34203 -1.57077 0
M  V30 4801 C 446.546 0.0774945 -1.89041 0
M  V30 4802 O 445.889 1.04628 -1.50992 0
M  V30 4803 C 445.951 -2.10351 -2.91535 0
M  V30 4804 C 445.615 -3.59405 -2.82272 0
M  V30 4805 C 446.612 -4.53545 -2.54151 0
M  V30 4806 C 444.297 -4.02362 -3.00683 0
M  V30 4807 C 446.291 -5.8862 -2.44551 0
M  V30 4808 C 443.978 -5.37526 -2.90704 0
M  V30 4809 C 444.976 -6.30468 -2.62677 0
M  V30 4810 O 444.664 -7.63149 -2.52702 0
M  V30 4811 H 444.396 -0.461791 -0.493685 0
M  V30 4812 H 446.95 -1.80475 -0.980712 0
M  V30 4813 H 445.18 -1.5875 -3.52612 0
M  V30 4814 H 446.869 -2.00636 -3.52845 0
M  V30 4815 H 447.635 -4.21669 -2.39625 0
M  V30 4816 H 443.514 -3.30389 -3.21503 0
M  V30 4817 H 447.058 -6.61133 -2.22596 0
M  V30 4818 H 442.955 -5.69008 -3.04795 0
M  V30 4819 H 443.723 -7.73331 -2.68144 0
M  V30 4820 N 446.386 1.0089 -1.21074 0
M  V30 4821 C 447.663 1.71834 -0.934469 0
M  V30 4822 C 448.043 2.0368 0.554753 0
M  V30 4823 O 447.391 1.70742 1.51854 0
M  V30 4824 C 447.601 2.98061 -1.8155 0
M  V30 4825 C 448.949 3.7117 -2.06199 0
M  V30 4826 O 449.973 3.08034 -1.78867 0
M  V30 4827 O 448.832 4.84721 -2.52404 0
M  V30 4828 H 445.926 0.749253 -0.35007 0
M  V30 4829 H 448.472 1.06668 -1.31985 0
M  V30 4830 H 447.244 2.70908 -2.82355 0
M  V30 4831 H 446.867 3.70968 -1.43068 0
M  V30 4832 N 447.864 1.01787 1.20321 0
M  V30 4833 C 449.112 0.706538 1.89347 0
M  V30 4834 C 449.433 -0.766289 1.79313 0
M  V30 4835 O 448.703 -1.55126 1.19635 0
M  V30 4836 H 447.283 0.258348 0.700903 0
M  V30 4837 H 449.945 1.28974 1.46122 0
M  V30 4838 H 449.041 0.991066 2.95946 0
M  V30 4839 N 449.342 -1.36122 0.79427 0
M  V30 4840 C 450.588 -1.99406 0.369452 0
M  V30 4841 C 450.921 -1.62886 -1.05743 0
M  V30 4842 O 450.196 -0.886053 -1.73145 0
M  V30 4843 C 450.479 -3.56046 0.538833 0
M  V30 4844 C 450.332 -4.02404 2.00976 0
M  V30 4845 C 451.651 -4.40079 -0.0431359 0
M  V30 4846 H 448.77 -0.724397 0.135712 0
M  V30 4847 H 451.412 -1.61461 1.00151 0
M  V30 4848 H 449.562 -3.885 0.000771004 0
M  V30 4849 H 451.234 -3.80415 2.60926 0
M  V30 4850 H 449.477 -3.53765 2.51063 0
M  V30 4851 H 450.148 -5.11344 2.07922 0
M  V30 4852 H 452.624 -4.14013 0.416228 0
M  V30 4853 H 451.5 -5.48799 0.105374 0
M  V30 4854 H 451.761 -4.27264 -1.13571 0
M  V30 4855 N 450.82 -0.546701 -1.47814 0
M  V30 4856 C 451.75 0.195317 -2.32682 0
M  V30 4857 C 452.731 0.918981 -1.43139 0
M  V30 4858 O 453.916 0.901501 -1.72008 0
M  V30 4859 C 451.046 1.23237 -3.247 0
M  V30 4860 C 450 0.625818 -4.234 0
M  V30 4861 C 449.326 1.76674 -5.04669 0
M  V30 4862 C 450.626 -0.413515 -5.2066 0
M  V30 4863 H 452.32 -0.513184 -2.94969 0
M  V30 4864 H 449.866 -0.248241 -1.41844 0
M  V30 4865 H 451.819 1.75955 -3.82907 0
M  V30 4866 H 450.543 1.97067 -2.60446 0
M  V30 4867 H 449.202 0.120023 -3.66403 0
M  V30 4868 H 448.85 2.49383 -4.36826 0
M  V30 4869 H 448.55 1.36673 -5.71484 0
M  V30 4870 H 450.074 2.29738 -5.65732 0
M  V30 4871 H 451.488 0.0272042 -5.73294 0
M  V30 4872 H 449.885 -0.731825 -5.95621 0
M  V30 4873 H 450.955 -1.31325 -4.66778 0
M  V30 4874 N 452.299 1.55045 -0.282633 0
M  V30 4875 C 453.545 2.00056 0.332481 0
M  V30 4876 C 453.878 1.1708 1.54939 0
M  V30 4877 O 453.153 0.2427 1.9298 0
M  V30 4878 C 453.436 3.53086 0.70725 0
M  V30 4879 C 453.289 4.46813 -0.517521 0
M  V30 4880 C 454.608 4.12245 1.54084 0
M  V30 4881 H 451.727 0.727268 0.119373 0
M  V30 4882 H 454.369 1.85932 -0.391076 0
M  V30 4883 H 452.519 3.65253 1.32372 0
M  V30 4884 H 454.191 4.46579 -1.15607 0
M  V30 4885 H 452.434 4.18163 -1.1542 0
M  V30 4886 H 453.105 5.51595 -0.211426 0
M  V30 4887 H 455.581 4.03401 1.02013 0
M  V30 4888 H 454.457 5.19515 1.77186 0
M  V30 4889 H 454.718 3.62951 2.52427 0
M  V30 4890 N 453.777 0.010035 1.57597 0
M  V30 4891 C 454.71 -1.01234 2.04516 0
M  V30 4892 C 455.688 -1.32886 0.937024 0
M  V30 4893 O 456.872 -1.44879 1.20592 0
M  V30 4894 C 453.999 -2.33738 2.45121 0
M  V30 4895 C 453.045 -2.17679 3.66767 0
M  V30 4896 S 453.878 -1.49343 5.14254 0
M  V30 4897 C 455.034 -2.83256 5.58137 0
M  V30 4898 H 455.267 -0.612866 2.90914 0
M  V30 4899 H 452.8 -0.201124 1.53084 0
M  V30 4900 H 454.758 -3.09922 2.69182 0
M  V30 4901 H 453.419 -2.70823 1.59103 0
M  V30 4902 H 452.612 -3.1559 3.92962 0
M  V30 4903 H 452.214 -1.4964 3.42759 0
M  V30 4904 H 454.506 -3.79538 5.6121 0
M  V30 4905 H 455.449 -2.61749 6.57946 0
M  V30 4906 H 455.857 -2.87627 4.85727 0
M  V30 4907 N 455.255 -1.55392 -0.262866 0
M  V30 4908 C 456.218 -1.88181 -1.30846 0
M  V30 4909 C 457.218 -0.757079 -1.41862 0
M  V30 4910 O 458.408 -1.02519 -1.40838 0
M  V30 4911 C 455.54 -2.09609 -2.68844 0
M  V30 4912 H 456.733 -2.81659 -1.02997 0
M  V30 4913 H 454.286 -1.48039 -0.501414 0
M  V30 4914 H 455.021 -1.18547 -3.01856 0
M  V30 4915 H 454.806 -2.91508 -2.62231 0
M  V30 4916 H 456.296 -2.36215 -3.44372 0
M  V30 4917 N 456.733 0.527833 -1.48498 0
M  V30 4918 C 457.643 1.65907 -1.65867 0
M  V30 4919 C 458.659 1.6537 -0.541192 0
M  V30 4920 O 459.835 1.84282 -0.812534 0
M  V30 4921 C 456.9 3.02364 -1.69637 0
M  V30 4922 C 455.961 3.1374 -2.93028 0
M  V30 4923 C 455.194 4.43688 -2.96609 0
M  V30 4924 O 455.417 5.30913 -2.08538 0
M  V30 4925 O 454.351 4.59475 -3.88802 0
M  V30 4926 H 458.177 1.5419 -2.61647 0
M  V30 4927 H 455.762 0.701163 -1.31924 0
M  V30 4928 H 457.644 3.83515 -1.74625 0
M  V30 4929 H 456.319 3.14401 -0.770312 0
M  V30 4930 H 455.226 2.31877 -2.93571 0
M  V30 4931 H 456.559 3.06621 -3.85026 0
M  V30 4932 N 458.211 1.37122 0.776871 0
M  V30 4933 C 459.439 1.3523 1.5659 0
M  V30 4934 C 459.854 -0.0635518 1.88693 0
M  V30 4935 O 459.211 -1.02394 1.51069 0
M  V30 4936 C 459.262 2.18583 2.8793 0
M  V30 4937 O 458.983 3.5465 2.57206 0
M  V30 4938 C 460.484 2.24612 3.82183 0
M  V30 4939 H 457.704 0.4634 0.485285 0
M  V30 4940 H 460.248 1.80392 0.963266 0
M  V30 4941 H 458.403 1.76943 3.4463 0
M  V30 4942 H 458.817 3.98286 3.41275 0
M  V30 4943 H 460.291 2.87267 4.71361 0
M  V30 4944 H 460.768 1.25309 4.20944 0
M  V30 4945 H 461.374 2.66543 3.31414 0
M  V30 4946 N 459.689 -1.00246 1.21608 0
M  V30 4947 C 460.936 -1.74061 1.03485 0
M  V30 4948 C 461.264 -1.89658 -0.431308 0
M  V30 4949 O 460.519 -1.42976 -1.33627 0
M  V30 4950 C 460.818 -3.15448 1.68009 0
M  V30 4951 C 460.484 -3.19792 3.17874 0
M  V30 4952 C 459.146 -3.20685 3.58768 0
M  V30 4953 C 461.498 -3.16835 4.13842 0
M  V30 4954 C 458.826 -3.16309 4.94131 0
M  V30 4955 C 461.178 -3.14001 5.49169 0
M  V30 4956 C 459.842 -3.13204 5.89457 0
M  V30 4957 H 459.112 -0.636934 0.378677 0
M  V30 4958 H 461.759 -1.17473 1.51236 0
M  V30 4959 H 460.064 -3.75284 1.12557 0
M  V30 4960 H 461.761 -3.71285 1.51487 0
M  V30 4961 H 458.351 -3.19842 2.85305 0
M  V30 4962 H 462.535 -3.15303 3.83272 0
M  V30 4963 H 457.791 -3.14032 5.24589 0
M  V30 4964 H 461.965 -3.10667 6.23265 0
M  V30 4965 H 459.592 -3.09568 6.94314 0
M  V30 4966 N 461.167 -1.02423 -1.1978 0
M  V30 4967 C 462.583 -0.740459 -1.41384 0
M  V30 4968 C 462.783 0.676827 -1.89793 0
M  V30 4969 O 461.839 1.4435 -2.0717 0
M  V30 4970 C 463.152 -1.77264 -2.42895 0
M  V30 4971 C 464.7 -1.79165 -2.56649 0
M  V30 4972 C 465.175 -2.8133 -3.6141 0
M  V30 4973 N 466.666 -2.80118 -3.68901 0
M  V30 4974 C 467.401 -3.55824 -4.49641 0
M  V30 4975 N 466.897 -4.41231 -5.34123 0
M  V30 4976 N 468.69 -3.44387 -4.44246 0
M  V30 4977 H 460.841 -1.9391 -0.866764 0
M  V30 4978 H 463.104 -0.838074 -0.443098 0
M  V30 4979 H 462.81 -2.7884 -2.14339 0
M  V30 4980 H 462.684 -1.59108 -3.42001 0
M  V30 4981 H 465.071 -0.782702 -2.84531 0
M  V30 4982 H 465.152 -2.01396 -1.57713 0
M  V30 4983 H 464.796 -3.82394 -3.34271 0
M  V30 4984 H 464.726 -2.56359 -4.59986 0
M  V30 4985 H 467.217 -2.1817 -3.08562 0
M  V30 4986 H 467.53 -4.95747 -5.92836 0
M  V30 4987 H 465.875 -4.45306 -5.33599 0
M  V30 4988 H 469.066 -2.7708 -3.77285 0
M  V30 4989 H 469.239 -4.0364 -5.06931 0
M  V30 4990 N 462.645 1.35699 -0.801477 0
M  V30 4991 C 463.87 2.03687 -0.390678 0
M  V30 4992 C 464.295 1.60015 0.988778 0
M  V30 4993 O 463.653 0.774357 1.63931 0
M  V30 4994 C 463.701 3.57439 -0.476404 0
M  V30 4995 O 462.805 4.09208 0.512106 0
M  V30 4996 H 462.146 0.64344 -0.163956 0
M  V30 4997 H 464.676 1.73403 -1.08594 0
M  V30 4998 H 464.686 4.06544 -0.344357 0
M  V30 4999 H 463.361 3.88576 -1.48262 0
M  V30 5000 H 461.938 3.7134 0.340721 0
M  V30 5001 N 464.123 0.554532 1.47522 0
M  V30 5002 C 465.053 -0.182974 2.32782 0
M  V30 5003 C 466.034 -0.911377 1.43624 0
M  V30 5004 O 467.219 -0.892366 1.72483 0
M  V30 5005 C 464.349 -1.21513 3.25349 0
M  V30 5006 C 463.303 -0.603355 4.23726 0
M  V30 5007 C 462.629 -1.73995 5.05598 0
M  V30 5008 C 463.929 0.441121 5.20434 0
M  V30 5009 H 465.623 0.52882 2.94693 0
M  V30 5010 H 463.169 0.255759 1.41711 0
M  V30 5011 H 465.122 -1.73922 3.83835 0
M  V30 5012 H 463.846 -1.95683 2.61487 0
M  V30 5013 H 462.505 -0.10059 3.66462 0
M  V30 5014 H 462.153 -2.47063 4.38143 0
M  V30 5015 H 461.853 -1.3364 5.72201 0
M  V30 5016 H 463.377 -2.26735 5.66942 0
M  V30 5017 H 464.791 0.00319931 5.733 0
M  V30 5018 H 463.188 0.763402 5.95224 0
M  V30 5019 H 464.258 1.33799 4.66075 0
M  V30 5020 N 465.601 -1.54893 0.290851 0
M  V30 5021 C 467.017 -1.59476 -0.0628432 0
M  V30 5022 C 467.217 -1.30795 -1.5328 0
M  V30 5023 O 466.273 -1.07644 -2.28406 0
M  V30 5024 C 467.586 -2.98928 0.325962 0
M  V30 5025 C 469.134 -3.11799 0.273882 0
M  V30 5026 C 469.609 -4.53544 0.637359 0
M  V30 5027 N 471.1 -4.59433 0.589507 0
M  V30 5028 C 471.835 -5.67164 0.84335 0
M  V30 5029 N 471.331 -6.82975 1.16263 0
M  V30 5030 N 473.124 -5.56786 0.771091 0
M  V30 5031 H 465.275 -1.71798 1.24896 0
M  V30 5032 H 467.538 -0.801879 0.505663 0
M  V30 5033 H 467.244 -3.24805 1.34887 0
M  V30 5034 H 467.118 -3.75793 -0.325441 0
M  V30 5035 H 469.505 -2.85677 -0.739765 0
M  V30 5036 H 469.586 -2.37112 0.959766 0
M  V30 5037 H 469.23 -4.80394 1.64877 0
M  V30 5038 H 469.16 -5.26553 -0.0704866 0
M  V30 5039 H 471.651 -3.76245 0.353252 0
M  V30 5040 H 471.964 -7.61048 1.34257 0
M  V30 5041 H 470.309 -6.84552 1.20057 0
M  V30 5042 H 473.5 -4.65187 0.521383 0
M  V30 5043 H 473.673 -6.40664 0.972295 0
M  V30 5044 N 467.08 -0.0183926 -1.57589 0
M  V30 5045 C 468.496 0.337897 -1.55982 0
M  V30 5046 C 468.696 1.73604 -1.02294 0
M  V30 5047 O 467.752 2.43589 -0.664895 0
M  V30 5048 C 469.065 0.196305 -3.00059 0
M  V30 5049 C 470.613 0.269875 -3.11834 0
M  V30 5050 C 471.088 0.157197 -4.5773 0
M  V30 5051 N 472.579 0.214521 -4.62703 0
M  V30 5052 C 473.314 0.150955 -5.73201 0
M  V30 5053 N 472.81 0.0369212 -6.9279 0
M  V30 5054 N 474.603 0.204162 -5.61729 0
M  V30 5055 H 466.754 -0.93279 -1.90821 0
M  V30 5056 H 469.017 -0.359253 -0.877292 0
M  V30 5057 H 468.723 -0.766383 -3.43248 0
M  V30 5058 H 468.597 0.970908 -3.6449 0
M  V30 5059 H 470.984 1.22302 -2.68563 0
M  V30 5060 H 471.065 -0.534918 -2.50144 0
M  V30 5061 H 470.709 -0.792479 -5.01679 0
M  V30 5062 H 470.639 0.980717 -5.17387 0
M  V30 5063 H 473.13 0.303238 -3.76681 0
M  V30 5064 H 473.443 -0.00518321 -7.728 0
M  V30 5065 H 471.788 0.0022886 -6.95 0
M  V30 5066 H 474.979 0.291575 -4.67191 0
M  V30 5067 H 475.152 0.15116 -6.47824 0
M  V30 5068 N 468.558 1.5553 0.254621 0
M  V30 5069 C 469.49 1.86104 1.33783 0
M  V30 5070 C 470.503 0.746752 1.44663 0
M  V30 5071 O 471.692 1.0248 1.46151 0
M  V30 5072 C 468.792 2.02532 2.71724 0
M  V30 5073 C 467.965 3.33335 2.83208 0
M  V30 5074 C 467.024 3.396 4.01943 0
M  V30 5075 O 466.05 4.12862 3.91834 0
M  V30 5076 N 467.252 2.68332 5.1476 0
M  V30 5077 H 470.017 2.79605 1.07893 0
M  V30 5078 H 467.578 1.55672 0.444732 0
M  V30 5079 H 469.57 2.04074 3.4948 0
M  V30 5080 H 468.14 1.15811 2.90356 0
M  V30 5081 H 467.36 3.44176 1.92189 0
M  V30 5082 H 468.648 4.19565 2.87824 0
M  V30 5083 H 468.046 2.08528 5.25864 0
M  V30 5084 H 466.603 2.75575 5.90679 0
M  V30 5085 N 470.036 -0.519951 1.48776 0
M  V30 5086 C 470.983 -1.62352 1.64044 0
M  V30 5087 C 471.953 -1.58945 0.482251 0
M  V30 5088 O 473.138 -1.77219 0.706971 0
M  V30 5089 C 470.278 -3.00579 1.69547 0
M  V30 5090 C 469.391 -3.14145 2.96541 0
M  V30 5091 C 468.526 -4.42991 2.93142 0
M  V30 5092 C 467.565 -4.50122 4.14797 0
M  V30 5093 N 466.702 -5.7037 4.09418 0
M  V30 5094 H 471.542 -1.48643 2.58281 0
M  V30 5095 H 469.079 -0.723516 1.28077 0
M  V30 5096 H 471.037 -3.80671 1.70719 0
M  V30 5097 H 469.667 -3.13036 0.787918 0
M  V30 5098 H 468.719 -2.27239 3.05068 0
M  V30 5099 H 470.031 -3.15275 3.86527 0
M  V30 5100 H 469.185 -5.31385 2.92772 0
M  V30 5101 H 467.924 -4.44398 2.00902 0
M  V30 5102 H 466.929 -3.60133 4.15433 0
M  V30 5103 H 468.154 -4.50445 5.08208 0
M  V30 5104 H 466.1 -5.72655 3.20004 0
M  V30 5105 H 466.017 -5.73036 4.93119 0
M  V30 5106 H 467.285 -6.61023 4.13121 0
M  V30 5107 N 471.514 -1.37532 -0.769588 0
M  V30 5108 C 472.763 -1.32183 -1.5235 0
M  V30 5109 C 473.076 0.0906555 -1.9539 0
M  V30 5110 O 474.282 0.266628 -2.70188 0
M  V30 5111 C 472.738 -2.32029 -2.75119 0
M  V30 5112 C 472.346 -3.78816 -2.3917 0
M  V30 5113 C 474.09 -2.35694 -3.53056 0
M  V30 5114 C 471.997 -4.70388 -3.58453 0
M  V30 5115 H 470.927 -0.491275 -0.571984 0
M  V30 5116 H 473.578 -1.63004 -0.842739 0
M  V30 5117 H 471.96 -1.94229 -3.45096 0
M  V30 5118 H 473.134 -4.25466 -1.76962 0
M  V30 5119 H 471.449 -3.78117 -1.74402 0
M  V30 5120 H 474.046 -3.01312 -4.41718 0
M  V30 5121 H 474.389 -1.37117 -3.93071 0
M  V30 5122 H 474.922 -2.72212 -2.90078 0
M  V30 5123 H 471.661 -5.70102 -3.23518 0
M  V30 5124 H 471.181 -4.28442 -4.19758 0
M  V30 5125 H 472.86 -4.87628 -4.25239 0
M  V30 5126 N 472.992 0.995999 -1.22138 0
M  V30 5127 C 474.269 1.70834 -0.952642 0
M  V30 5128 C 474.649 2.04257 0.533119 0
M  V30 5129 O 473.997 1.72343 1.50034 0
M  V30 5130 C 474.207 2.96119 -1.84701 0
M  V30 5131 C 475.555 3.68962 -2.10124 0
M  V30 5132 O 476.579 3.0612 -1.82124 0
M  V30 5133 O 475.438 4.82017 -2.57531 0
M  V30 5134 H 472.532 0.745498 -0.357997 0
M  V30 5135 H 475.078 1.05262 -1.33109 0
M  V30 5136 H 473.85 2.67898 -2.85213 0
M  V30 5137 H 473.473 3.6943 -1.46995 0
M  V30 5138 N 474.47 1.03057 1.19235 0
M  V30 5139 C 475.719 0.72326 1.88287 0
M  V30 5140 C 476.032 -0.751333 1.80594 0
M  V30 5141 O 477.238 -1.17176 2.44912 0
M  V30 5142 C 475.694 1.24338 3.3774 0
M  V30 5143 C 475.302 2.74587 3.53986 0
M  V30 5144 C 477.046 1.01213 4.12257 0
M  V30 5145 C 474.953 3.20009 4.97341 0
M  V30 5146 H 473.883 0.266848 0.705201 0
M  V30 5147 H 476.534 1.24509 1.34795 0
M  V30 5148 H 474.916 0.649457 3.90638 0
M  V30 5149 H 476.09 3.39649 3.11408 0
M  V30 5150 H 474.405 2.9601 2.9286 0
M  V30 5151 H 477.002 1.32675 5.17978 0
M  V30 5152 H 477.345 -0.051001 4.16269 0
M  V30 5153 H 477.878 1.57014 3.65501 0
M  V30 5154 H 474.617 4.25659 4.98493 0
M  V30 5155 H 474.137 2.59676 5.40674 0
M  V30 5156 H 475.816 3.13447 5.66003 0
M  V30 5157 N 475.948 -1.35272 0.808662 0
M  V30 5158 C 477.173 -2.03477 0.401475 0
M  V30 5159 C 477.598 -1.60537 -0.980279 0
M  V30 5160 O 476.956 -0.78304 -1.63518 0
M  V30 5161 C 477.004 -3.57181 0.495354 0
M  V30 5162 O 476.108 -4.09474 -0.490397 0
M  V30 5163 H 475.449 -0.642561 0.167366 0
M  V30 5164 H 477.979 -1.72824 1.09512 0
M  V30 5165 H 477.989 -4.06356 0.365912 0
M  V30 5166 H 476.664 -3.87784 1.5032 0
M  V30 5167 H 475.241 -3.71516 -0.321023 0
M  V30 5168 N 477.426 -0.562348 -1.47226 0
M  V30 5169 C 478.842 -0.222492 -1.58042 0
M  V30 5170 C 479.042 1.27505 -1.56028 0
M  V30 5171 O 478.098 2.05555 -1.46641 0
M  V30 5172 C 479.411 -0.853694 -2.88327 0
M  V30 5173 C 480.959 -0.825397 -3.01921 0
M  V30 5174 C 481.434 -1.43576 -4.34914 0
M  V30 5175 N 482.925 -1.39918 -4.41562 0
M  V30 5176 C 483.66 -1.84103 -5.43041 0
M  V30 5177 N 483.156 -2.36167 -6.51304 0
M  V30 5178 N 484.949 -1.75142 -5.34118 0
M  V30 5179 H 477.1 -1.53525 -1.46778 0
M  V30 5180 H 479.363 -0.640527 -0.698877 0
M  V30 5181 H 479.069 -1.90635 -2.95552 0
M  V30 5182 H 478.943 -0.34977 -3.75575 0
M  V30 5183 H 481.33 0.218583 -2.94289 0
M  V30 5184 H 481.411 -1.36713 -2.16202 0
M  V30 5185 H 481.055 -2.47884 -4.43301 0
M  V30 5186 H 480.985 -0.869427 -5.19373 0
M  V30 5187 H 483.476 -1.0184 -3.63919 0
M  V30 5188 H 483.789 -2.67793 -7.24919 0
M  V30 5189 H 482.134 -2.40181 -6.52179 0
M  V30 5190 H 485.325 -1.34241 -4.48439 0
M  V30 5191 H 485.498 -2.09895 -6.13065 0
M  V30 5192 N 478.904 1.54736 -0.299062 0
M  V30 5193 C 480.32 1.59507 0.0543849 0
M  V30 5194 C 480.52 1.31606 1.52585 0
M  V30 5195 O 479.576 1.08853 2.27832 0
M  V30 5196 C 480.889 2.98751 -0.34181 0
M  V30 5197 C 482.437 3.1165 -0.290414 0
M  V30 5198 C 482.912 4.53199 -0.661402 0
M  V30 5199 N 484.403 4.59114 -0.613863 0
M  V30 5200 C 485.138 5.66709 -0.873417 0
M  V30 5201 N 484.634 6.82349 -1.19884 0
M  V30 5202 N 486.427 5.56369 -0.800608 0
M  V30 5203 H 478.578 1.71133 -1.25806 0
M  V30 5204 H 480.841 0.799186 -0.509908 0
M  V30 5205 H 480.547 3.24085 -1.36608 0
M  V30 5206 H 480.421 3.75961 0.305508 0
M  V30 5207 H 482.808 2.86066 0.724605 0
M  V30 5208 H 482.889 2.366 -0.972327 0
M  V30 5209 H 482.533 4.79513 -1.67422 0
M  V30 5210 H 482.463 5.26583 0.0425612 0
M  V30 5211 H 484.954 3.76053 -0.3732 0
M  V30 5212 H 485.267 7.60326 -1.38291 0
M  V30 5213 H 483.612 6.83906 -1.23685 0
M  V30 5214 H 486.803 4.64904 -0.546045 0
M  V30 5215 H 486.976 6.40139 -1.00626 0
M  V30 5216 N 480.382 0.0267497 1.57577 0
M  V30 5217 C 481.63 -0.651116 1.91324 0
M  V30 5218 C 481.951 -1.72804 0.90353 0
M  V30 5219 O 481.221 -1.95822 -0.0552946 0
M  V30 5220 H 479.801 -0.243491 0.706202 0
M  V30 5221 H 482.463 0.0739935 1.94759 0
M  V30 5222 H 481.559 -1.10536 2.9187 0
M  V30 5223 N 481.861 -1.55662 -0.24637 0
M  V30 5224 C 482.809 -1.91186 -1.3248 0
M  V30 5225 C 483.803 -0.790996 -1.49799 0
M  V30 5226 O 485.009 -0.975617 -1.51267 0
M  V30 5227 H 481.384 -0.607207 -0.443626 0
M  V30 5228 H 483.355 -2.81221 -0.997853 0
M  V30 5229 C 482.104 -2.22349 -2.67313 0
M  V30 5230 H 481.427 -3.08097 -2.54786 0
M  V30 5231 H 482.867 -2.51107 -3.41645 0
M  V30 5232 C 481.326 -1.04001 -3.20446 0
M  V30 5233 O 481.856 -0.28828 -4.00664 0
M  V30 5234 N 480.062 -0.830494 -2.7848 0
M  V30 5235 H 479.609 -1.4435 -2.13356 0
M  V30 5236 H 479.567 -0.0403258 -3.14374 0
M  V30 5237 N 483.339 0.512053 -1.4905 0
M  V30 5238 C 484.302 1.59704 -1.64399 0
M  V30 5239 C 485.302 1.52285 -0.516317 0
M  V30 5240 O 486.492 1.55635 -0.782527 0
M  V30 5241 C 483.624 2.9935 -1.63102 0
M  V30 5242 H 484.817 1.47428 -2.61161 0
M  V30 5243 H 482.37 0.735469 -1.37915 0
M  V30 5244 H 483.105 3.17116 -0.678836 0
M  V30 5245 H 482.89 3.06144 -2.44986 0
M  V30 5246 H 484.38 3.782 -1.77072 0
M  V30 5247 N 484.817 1.37938 0.762283 0
M  V30 5248 C 486.065 1.33404 1.51815 0
M  V30 5249 C 486.386 -0.0780975 1.94844 0
M  V30 5250 O 485.656 -1.02405 1.67003 0
M  V30 5251 H 484.236 0.490839 0.563104 0
M  V30 5252 H 486.898 1.72527 0.906669 0
M  V30 5253 H 485.994 1.97926 2.41313 0
M  V30 5254 N 486.295 -0.989507 1.22664 0
M  V30 5255 C 487.572 -1.70326 0.961688 0
M  V30 5256 C 487.952 -2.04537 -0.522279 0
M  V30 5257 O 487.3 -1.73136 -1.49118 0
M  V30 5258 C 487.51 -2.95135 1.86269 0
M  V30 5259 C 488.858 -3.67842 2.12078 0
M  V30 5260 O 489.882 -3.0515 1.83745 0
M  V30 5261 O 488.741 -4.80644 2.60083 0
M  V30 5262 H 485.835 -0.743589 0.361946 0
M  V30 5263 H 488.381 -1.04555 1.33665 0
M  V30 5264 H 487.153 -2.66382 2.8663 0
M  V30 5265 H 486.776 -3.68645 1.48952 0
M  V30 5266 N 487.773 -1.03688 -1.18687 0
M  V30 5267 C 489.013 -0.746858 -1.90267 0
M  V30 5268 C 489.377 0.712075 -1.78307 0
M  V30 5269 O 490.578 1.11553 -2.44559 0
M  V30 5270 C 488.849 -1.19543 -3.36815 0
M  V30 5271 S 490.408 -1.03047 -4.26529 0
M  V30 5272 H 487.226 -0.271663 -0.657054 0
M  V30 5273 H 489.828 -1.32838 -1.43437 0
M  V30 5274 H 488.532 -2.2527 -3.43047 0
M  V30 5275 H 488.063 -0.607533 -3.88681 0
M  V30 5276 H 490.078 0.0543232 -4.9617 0
M  V30 5277 N 489.251 1.34841 -0.815825 0
M  V30 5278 C 490.181 2.32187 -0.247298 0
M  V30 5279 C 491.162 1.5791 0.632344 0
M  V30 5280 O 492.347 1.8593 0.560698 0
M  V30 5281 C 489.477 3.42122 0.597466 0
M  V30 5282 C 488.431 4.27602 -0.184446 0
M  V30 5283 C 487.757 5.28942 0.782609 0
M  V30 5284 C 489.057 5.03502 -1.38865 0
M  V30 5285 H 490.751 2.79985 -1.06061 0
M  V30 5286 H 488.297 1.34611 -0.511461 0
M  V30 5287 H 490.25 4.09232 1.00533 0
M  V30 5288 H 488.974 2.92956 1.44376 0
M  V30 5289 H 487.633 3.62085 -0.573592 0
M  V30 5290 H 487.281 4.7604 1.62466 0
M  V30 5291 H 486.981 5.87008 0.263695 0
M  V30 5292 H 488.505 5.98922 1.18848 0
M  V30 5293 H 489.919 5.63506 -1.05518 0
M  V30 5294 H 488.316 5.71108 -1.8427 0
M  V30 5295 H 489.386 4.33608 -2.17054 0
M  V30 5296 N 490.729 0.570148 1.46925 0
M  V30 5297 C 491.692 -0.159933 2.28641 0
M  V30 5298 C 492.692 -0.830638 1.37685 0
M  V30 5299 O 493.882 -0.684516 1.60187 0
M  V30 5300 C 491.014 -1.2354 3.17727 0
M  V30 5301 H 492.207 0.558035 2.94662 0
M  V30 5302 H 489.76 0.327603 1.52828 0
M  V30 5303 H 490.495 -1.98535 2.56426 0
M  V30 5304 H 490.28 -0.759125 3.84681 0
M  V30 5305 H 491.77 -1.74782 3.79264 0
M  V30 5306 N 492.207 -1.54576 0.307264 0
M  V30 5307 C 493.155 -2.25208 -0.581723 0
M  V30 5308 C 494.149 -1.26031 -1.13192 0
M  V30 5309 O 495.355 -1.43862 -1.08184 0
M  V30 5310 H 491.73 -0.723173 -0.206214 0
M  V30 5311 H 493.701 -2.98378 0.0364663 0
M  V30 5312 C 492.45 -3.01086 -1.73904 0
M  V30 5313 H 491.773 -3.77208 -1.32491 0
M  V30 5314 H 493.213 -3.5378 -2.33701 0
M  V30 5315 C 491.672 -2.08422 -2.64692 0
M  V30 5316 O 492.202 -1.65636 -3.65961 0
M  V30 5317 N 490.408 -1.74247 -2.32564 0
M  V30 5318 H 489.955 -2.09238 -1.50257 0
M  V30 5319 H 489.913 -1.12524 -2.93574 0
M  V30 5320 N 493.685 -0.035106 -1.57561 0
M  V30 5321 C 495.096 0.502885 -1.798 0
M  V30 5322 C 495.447 1.71892 -0.945921 0
M  V30 5323 O 494.572 2.15822 -0.157991 0
M  V30 5324 C 495.167 0.919097 -3.26095 0
M  V30 5325 C 493.726 1.40216 -3.49308 0
M  V30 5326 C 492.873 0.369709 -2.74824 0
M  V30 5327 H 495.824 -0.261102 -1.56537 0
M  V30 5328 H 495.845 1.78308 -3.36135 0
M  V30 5329 H 495.357 0.0338526 -3.88085 0
M  V30 5330 H 493.458 2.30714 -2.92578 0
M  V30 5331 H 493.571 1.40541 -4.58023 0
M  V30 5332 H 491.935 0.839113 -2.40481 0
M  V30 5333 H 492.718 -0.507173 -3.39533 0
M  V30 5334 N 495.163 1.55791 0.238111 0
M  V30 5335 C 496.126 1.90239 1.27835 0
M  V30 5336 C 497.126 0.779552 1.4064 0
M  V30 5337 O 498.316 1.04747 1.3919 0
M  V30 5338 C 495.448 2.13859 2.65475 0
M  V30 5339 H 496.641 2.83262 0.985034 0
M  V30 5340 H 494.194 1.48818 0.477799 0
M  V30 5341 H 494.929 1.23334 2.99932 0
M  V30 5342 H 494.714 2.95643 2.57561 0
M  V30 5343 H 496.204 2.41664 3.40571 0
M  V30 5344 N 496.642 -0.504142 1.49319 0
M  V30 5345 C 497.605 -1.5883 1.65244 0
M  V30 5346 C 498.605 -1.52009 0.524386 0
M  V30 5347 O 499.795 -1.55218 0.79077 0
M  V30 5348 C 496.927 -2.98481 1.64687 0
M  V30 5349 H 498.12 -1.4604 2.61939 0
M  V30 5350 H 495.673 -0.728144 1.38303 0
M  V30 5351 H 496.408 -3.16751 0.695644 0
M  V30 5352 H 496.193 -3.0484 2.46607 0
M  V30 5353 H 497.683 -3.77256 1.79075 0
M  V30 5354 N 498.12 -1.38341 -0.754957 0
M  V30 5355 C 499.531 -1.30803 -1.3322 0
M  V30 5356 C 499.882 0.0368 -1.96165 0
M  V30 5357 O 499.007 0.938844 -1.94974 0
M  V30 5358 C 499.602 -2.3688 -2.42225 0
M  V30 5359 C 498.161 -2.32925 -2.95674 0
M  V30 5360 C 497.308 -2.19819 -1.69042 0
M  V30 5361 H 500.259 -1.48719 -0.553937 0
M  V30 5362 H 500.28 -2.02517 -3.22129 0
M  V30 5363 H 499.792 -3.34747 -1.96383 0
M  V30 5364 H 497.893 -1.38635 -3.45848 0
M  V30 5365 H 498.006 -3.27008 -3.50146 0
M  V30 5366 H 496.37 -1.66648 -1.92615 0
M  V30 5367 H 497.153 -3.19625 -1.25279 0
M  V30 5368 N 499.598 0.982988 -1.23187 0
M  V30 5369 C 500.844 1.7273 -1.07405 0
M  V30 5370 C 501.199 1.885 0.385447 0
M  V30 5371 O 500.492 1.4243 1.28157 0
M  V30 5372 C 500.686 3.12736 -1.73006 0
M  V30 5373 C 500.515 3.10621 -3.25184 0
M  V30 5374 C 499.285 3.15957 -3.94334 0
M  V30 5375 C 501.483 2.93992 -4.21987 0
M  V30 5376 N 499.465 3.03701 -5.33516 0
M  V30 5377 C 500.836 2.8987 -5.48065 0
M  V30 5378 C 502.891 2.78457 -4.12754 0
M  V30 5379 C 501.594 2.71804 -6.65969 0
M  V30 5380 C 503.62 2.61754 -5.30319 0
M  V30 5381 C 502.982 2.58328 -6.55321 0
M  V30 5382 H 499.081 0.641279 -0.447533 0
M  V30 5383 H 501.665 1.16664 -1.55877 0
M  V30 5384 H 499.836 3.67026 -1.2707 0
M  V30 5385 H 501.568 3.75786 -1.50224 0
M  V30 5386 H 498.323 3.24034 -3.45397 0
M  V30 5387 H 498.747 3.00855 -6.06478 0
M  V30 5388 H 503.389 2.79898 -3.16886 0
M  V30 5389 H 501.107 2.69108 -7.61975 0
M  V30 5390 H 504.693 2.50702 -5.25014 0
M  V30 5391 H 503.573 2.45564 -7.4476 0
M  V30 5392 N 501.076 1.04316 1.18135 0
M  V30 5393 C 502.324 0.746542 1.87806 0
M  V30 5394 C 502.645 -0.728082 1.80898 0
M  V30 5395 O 501.915 -1.52554 1.22899 0
M  V30 5396 H 500.495 0.273157 0.695265 0
M  V30 5397 H 503.157 1.32044 1.43354 0
M  V30 5398 H 502.253 1.05362 2.93778 0
M  V30 5399 N 502.554 -1.34406 0.822964 0
M  V30 5400 C 503.486 -2.28305 0.202375 0
M  V30 5401 C 504.499 -1.5103 -0.60777 0
M  V30 5402 O 505.688 -1.73057 -0.437444 0
M  V30 5403 C 502.788 -3.30836 -0.734911 0
M  V30 5404 C 501.961 -4.37388 0.0324177 0
M  V30 5405 C 501.02 -5.1968 -0.825803 0
M  V30 5406 O 500.046 -5.68556 -0.270771 0
M  V30 5407 N 501.248 -5.39393 -2.14558 0
M  V30 5408 H 504.013 -2.82201 1.00909 0
M  V30 5409 H 501.574 -1.4693 0.67993 0
M  V30 5410 H 503.566 -3.82786 -1.31365 0
M  V30 5411 H 502.136 -2.77334 -1.44238 0
M  V30 5412 H 501.356 -3.86152 0.792469 0
M  V30 5413 H 502.644 -5.05702 0.560633 0
M  V30 5414 H 502.042 -5.01357 -2.62025 0
M  V30 5415 H 500.599 -5.94461 -2.67318 0
M  V30 5416 N 504.032 -0.577932 -1.46621 0
M  V30 5417 C 505.28 -0.061566 -2.02006 0
M  V30 5418 C 505.601 1.30117 -1.4524 0
M  V30 5419 O 504.871 1.85313 -0.63529 0
M  V30 5420 H 503.451 -0.0197692 -0.746738 0
M  V30 5421 H 506.113 -0.752631 -1.79782 0
M  V30 5422 H 505.209 0.0110238 -3.12098 0
M  V30 5423 N 505.51 1.54411 -0.315457 0
M  V30 5424 C 506.759 1.99599 0.290395 0
M  V30 5425 C 507.072 1.20746 1.53882 0
M  V30 5426 O 508.278 1.56272 2.22017 0
M  V30 5427 C 506.734 3.5539 0.56797 0
M  V30 5428 C 506.342 4.43068 -0.662945 0
M  V30 5429 C 508.086 4.09067 1.13422 0
M  V30 5430 C 505.993 5.90317 -0.357722 0
M  V30 5431 H 504.923 0.745592 0.112286 0
M  V30 5432 H 507.574 1.78477 -0.426418 0
M  V30 5433 H 505.956 3.72468 1.34476 0
M  V30 5434 H 507.13 4.37765 -1.43869 0
M  V30 5435 H 505.445 4.00238 -1.14884 0
M  V30 5436 H 508.042 5.16663 1.37707 0
M  V30 5437 H 508.385 3.60552 2.08106 0
M  V30 5438 H 508.918 3.95589 0.418805 0
M  V30 5439 H 505.657 6.4301 -1.27351 0
M  V30 5440 H 505.177 5.98592 0.380472 0
M  V30 5441 H 506.856 6.4699 0.0354284 0
M  V30 5442 N 506.988 0.0434614 1.5754 0
M  V30 5443 C 508.265 -0.671479 1.83713 0
M  V30 5444 C 508.645 -1.89495 0.930315 0
M  V30 5445 O 507.993 -2.28498 -0.0105639 0
M  V30 5446 C 508.203 -1.0361 3.33266 0
M  V30 5447 C 509.551 -1.42167 4.00092 0
M  V30 5448 O 510.575 -1.12866 3.37846 0
M  V30 5449 O 509.434 -1.96817 5.09829 0
M  V30 5450 H 506.528 -0.330726 0.75799 0
M  V30 5451 H 509.074 0.0722373 1.69546 0
M  V30 5452 H 507.846 -0.165938 3.90948 0
M  V30 5453 H 507.469 -1.83751 3.52592 0
M  V30 5454 N 508.466 -1.55915 -0.229846 0
M  V30 5455 C 509.399 -1.86734 -1.3117 0
M  V30 5456 C 510.377 -0.723947 -1.45595 0
M  V30 5457 O 511.561 -0.971462 -1.61539 0
M  V30 5458 C 508.688 -2.06707 -2.68309 0
M  V30 5459 C 507.734 -3.2938 -2.70944 0
M  V30 5460 S 508.567 -4.85547 -2.25842 0
M  V30 5461 C 509.723 -5.08546 -3.64873 0
M  V30 5462 H 509.956 -2.78204 -1.04832 0
M  V30 5463 H 507.489 -1.48243 -0.431681 0
M  V30 5464 H 509.447 -2.18898 -3.47267 0
M  V30 5465 H 508.108 -1.16049 -2.91876 0
M  V30 5466 H 507.301 -3.40374 -3.71701 0
M  V30 5467 H 506.903 -3.16004 -2.00044 0
M  V30 5468 H 509.195 -4.96935 -4.60502 0
M  V30 5469 H 510.138 -6.10465 -3.58801 0
M  V30 5470 H 510.546 -4.36314 -3.58176 0
M  V30 5471 N 509.944 0.496216 -1.49584 0
M  V30 5472 C 510.854 1.62352 -1.69349 0
M  V30 5473 C 511.87 1.64184 -0.576147 0
M  V30 5474 O 513.046 1.82517 -0.85144 0
M  V30 5475 C 510.111 2.98698 -1.76013 0
M  V30 5476 C 509.172 3.07454 -2.99617 0
M  V30 5477 C 508.405 4.37296 -3.05953 0
M  V30 5478 O 508.628 5.2637 -2.19752 0
M  V30 5479 O 507.562 4.51124 -3.9846 0
M  V30 5480 H 511.388 1.48606 -2.64859 0
M  V30 5481 H 508.973 0.673022 -1.33382 0
M  V30 5482 H 510.855 3.79725 -1.82721 0
M  V30 5483 H 509.53 3.12696 -0.836828 0
M  V30 5484 H 508.437 2.25597 -2.98424 0
M  V30 5485 H 509.77 2.98385 -3.91443 0
M  V30 5486 N 511.423 1.38739 0.74761 0
M  V30 5487 C 512.839 1.20067 1.05148 0
M  V30 5488 C 513.039 0.0534835 2.01429 0
M  V30 5489 O 512.095 -0.59886 2.45296 0
M  V30 5490 C 513.408 2.52957 1.62584 0
M  V30 5491 C 514.956 2.59692 1.74726 0
M  V30 5492 C 515.431 3.92772 2.35573 0
M  V30 5493 N 516.922 3.94343 2.42997 0
M  V30 5494 C 517.657 4.9408 2.90985 0
M  V30 5495 N 517.153 6.04214 3.38965 0
M  V30 5496 N 518.946 4.81466 2.9008 0
M  V30 5497 H 511.097 2.12121 0.108808 0
M  V30 5498 H 513.36 0.941491 0.110899 0
M  V30 5499 H 513.066 3.37389 0.993051 0
M  V30 5500 H 512.94 2.71779 2.61565 0
M  V30 5501 H 515.327 1.75651 2.3713 0
M  V30 5502 H 515.408 2.44731 0.744326 0
M  V30 5503 H 515.052 4.77238 1.738 0
M  V30 5504 H 514.982 4.05046 3.36519 0
M  V30 5505 H 517.473 3.14799 2.0907 0
M  V30 5506 H 517.786 6.76241 3.74056 0
M  V30 5507 H 516.131 6.07825 3.37007 0
M  V30 5508 H 519.322 3.94535 2.51912 0
M  V30 5509 H 519.495 5.59344 3.27166 0
M  V30 5510 N 512.901 -0.976442 1.23707 0
M  V30 5511 C 514.129 -1.75341 1.09833 0
M  V30 5512 C 514.544 -1.8553 -0.349885 0
M  V30 5513 O 513.901 -1.33732 -1.24185 0
M  V30 5514 C 513.952 -3.17833 1.72233 0
M  V30 5515 O 513.673 -3.08167 3.11391 0
M  V30 5516 C 515.174 -4.11906 1.63853 0
M  V30 5517 H 512.394 -0.550137 0.384175 0
M  V30 5518 H 514.938 -1.2265 1.63638 0
M  V30 5519 H 513.093 -3.67538 1.22452 0
M  V30 5520 H 513.507 -3.97897 3.41729 0
M  V30 5521 H 514.981 -5.09579 2.12211 0
M  V30 5522 H 515.458 -4.35109 0.598092 0
M  V30 5523 H 516.064 -3.68107 2.13019 0
M  V30 5524 N 514.379 -1.04941 -1.1758 0
M  V30 5525 C 515.309 -0.669172 -2.23706 0
M  V30 5526 C 516.29 0.331835 -1.66832 0
M  V30 5527 O 517.475 0.209988 -1.93061 0
M  V30 5528 C 514.605 -0.0404889 -3.47276 0
M  V30 5529 C 513.559 -0.965983 -4.16957 0
M  V30 5530 C 512.885 -0.201312 -5.34321 0
M  V30 5531 C 514.185 -2.28902 -4.69469 0
M  V30 5532 H 515.879 -1.55639 -2.55767 0
M  V30 5533 H 513.425 -0.749793 -1.22939 0
M  V30 5534 H 515.378 0.237298 -4.20731 0
M  V30 5535 H 514.102 0.881658 -3.14475 0
M  V30 5536 H 512.761 -1.22829 -3.45411 0
M  V30 5537 H 512.409 0.723519 -4.97769 0
M  V30 5538 H 512.109 -0.817968 -5.81879 0
M  V30 5539 H 513.633 0.0692499 -6.10561 0
M  V30 5540 H 515.047 -2.07132 -5.34574 0
M  V30 5541 H 513.444 -2.85942 -5.27596 0
M  V30 5542 H 514.514 -2.92937 -3.86414 0
M  V30 5543 N 515.857 1.33968 -0.830081 0
M  V30 5544 C 516.804 2.29387 -0.255008 0
M  V30 5545 C 517.774 1.53923 0.624243 0
M  V30 5546 O 518.959 1.82262 0.564372 0
M  V30 5547 C 516.099 3.4034 0.571209 0
M  V30 5548 C 515.212 4.30729 -0.331083 0
M  V30 5549 C 514.347 5.2879 0.505389 0
M  V30 5550 C 513.386 6.10819 -0.395843 0
M  V30 5551 N 512.523 7.00948 0.401979 0
M  V30 5552 H 517.363 2.77972 -1.07404 0
M  V30 5553 H 514.9 1.36785 -0.541133 0
M  V30 5554 H 516.858 4.03361 1.06562 0
M  V30 5555 H 515.488 2.9297 1.35529 0
M  V30 5556 H 514.54 3.68507 -0.943759 0
M  V30 5557 H 515.852 4.88181 -1.02377 0
M  V30 5558 H 515.006 5.97297 1.06399 0
M  V30 5559 H 513.745 4.71894 1.23155 0
M  V30 5560 H 512.75 5.41238 -0.966529 0
M  V30 5561 H 513.975 6.69797 -1.12023 0
M  V30 5562 H 511.921 6.46512 1.11168 0
M  V30 5563 H 511.838 7.55643 -0.232167 0
M  V30 5564 H 513.106 7.73774 0.943102 0
M  V30 5565 N 517.335 0.585699 1.46312 0
M  V30 5566 C 518.267 -0.183687 2.28463 0
M  V30 5567 C 519.28 -0.85264 1.38686 0
M  V30 5568 O 520.469 -0.721701 1.6326 0
M  V30 5569 C 517.569 -1.27977 3.13808 0
M  V30 5570 C 516.742 -0.702164 4.31727 0
M  V30 5571 C 515.801 -1.68633 4.98447 0
M  V30 5572 O 514.827 -1.22121 5.55945 0
M  V30 5573 N 516.029 -3.02047 4.95729 0
M  V30 5574 H 518.794 0.521127 2.95134 0
M  V30 5575 H 516.355 0.423673 1.56258 0
M  V30 5576 H 518.347 -1.9375 3.55307 0
M  V30 5577 H 516.917 -1.8874 2.4919 0
M  V30 5578 H 516.137 0.1331 3.93975 0
M  V30 5579 H 517.425 -0.296101 5.07938 0
M  V30 5580 H 516.823 -3.42457 4.50266 0
M  V30 5581 H 515.38 -3.63301 5.41161 0
M  V30 5582 N 518.813 -1.54241 0.323641 0
M  V30 5583 C 520.059 -2.00867 -0.279323 0
M  V30 5584 C 520.392 -1.21146 -1.5178 0
M  V30 5585 O 519.667 -0.29378 -1.92269 0
M  V30 5586 C 519.95 -3.54837 -0.613387 0
M  V30 5587 C 519.803 -4.45284 0.635803 0
M  V30 5588 C 521.122 -4.16186 -1.43099 0
M  V30 5589 H 518.241 -0.730177 -0.100049 0
M  V30 5590 H 520.883 -1.84829 0.440235 0
M  V30 5591 H 519.033 -3.68634 -1.22641 0
M  V30 5592 H 520.705 -4.43357 1.27406 0
M  V30 5593 H 518.948 -4.14956 1.26466 0
M  V30 5594 H 519.619 -5.5084 0.357597 0
M  V30 5595 H 522.095 -4.05964 -0.912814 0
M  V30 5596 H 520.971 -5.24031 -1.6335 0
M  V30 5597 H 521.232 -3.69516 -2.42715 0
M  V30 5598 N 520.291 -0.0518155 -1.57515 0
M  V30 5599 C 521.707 0.304735 -1.56664 0
M  V30 5600 C 521.907 1.71395 -1.05953 0
M  V30 5601 O 520.963 2.42123 -0.716414 0
M  V30 5602 C 522.276 0.132614 -3.00407 0
M  V30 5603 C 523.824 0.20367 -3.12337 0
M  V30 5604 C 524.299 0.0600706 -4.57961 0
M  V30 5605 N 525.79 0.116326 -4.63054 0
M  V30 5606 C 526.525 0.0293363 -5.73392 0
M  V30 5607 N 526.021 -0.110038 -6.92713 0
M  V30 5608 N 527.814 0.0849651 -5.62036 0
M  V30 5609 H 519.965 -0.973056 -1.888 0
M  V30 5610 H 522.228 -0.377781 -0.869474 0
M  V30 5611 H 521.934 -0.839019 -3.41546 0
M  V30 5612 H 521.808 0.893376 -3.66468 0
M  V30 5613 H 524.195 1.16578 -2.71097 0
M  V30 5614 H 524.276 -0.587857 -2.48954 0
M  V30 5615 H 523.92 -0.898715 -4.99886 0
M  V30 5616 H 523.85 0.87075 -5.19351 0
M  V30 5617 H 526.341 0.22327 -3.7724 0
M  V30 5618 H 526.654 -0.169104 -7.72615 0
M  V30 5619 H 524.999 -0.145132 -6.94848 0
M  V30 5620 H 528.19 0.192411 -4.67704 0
M  V30 5621 H 528.363 0.0137131 -6.47999 0
M  V30 5622 N 521.769 1.56035 0.221574 0
M  V30 5623 C 523.018 1.78245 0.944016 0
M  V30 5624 C 523.331 0.620371 1.85501 0
M  V30 5625 O 524.537 0.726103 2.6161 0
M  V30 5626 C 522.993 3.15659 1.7288 0
M  V30 5627 C 522.601 4.39591 0.863942 0
M  V30 5628 C 524.345 3.47195 2.44246 0
M  V30 5629 C 522.252 5.6803 1.64607 0
M  V30 5630 H 521.182 0.664547 0.356222 0
M  V30 5631 H 523.833 1.8243 0.197904 0
M  V30 5632 H 522.215 3.0565 2.51781 0
M  V30 5633 H 523.389 4.60655 0.115464 0
M  V30 5634 H 521.704 4.15572 0.262407 0
M  V30 5635 H 524.301 4.40381 3.03263 0
M  V30 5636 H 524.644 2.69693 3.1713 0
M  V30 5637 H 525.177 3.58533 1.72334 0
M  V30 5638 H 521.916 6.48425 0.960507 0
M  V30 5639 H 521.436 5.51027 2.36917 0
M  V30 5640 H 523.115 6.08203 2.20675 0
M  V30 5641 N 523.247 -0.488276 1.49845 0
M  V30 5642 C 524.179 -1.60539 1.63584 0
M  V30 5643 C 525.192 -1.5434 0.517972 0
M  V30 5644 O 526.381 -1.60041 0.790516 0
M  V30 5645 C 523.481 -2.99374 1.58835 0
M  V30 5646 C 522.654 -3.30624 2.86368 0
M  V30 5647 C 521.713 -4.4893 2.74496 0
M  V30 5648 O 520.739 -4.50085 3.48443 0
M  V30 5649 N 521.941 -5.49591 1.86894 0
M  V30 5650 H 524.706 -1.49176 2.59936 0
M  V30 5651 H 522.267 -0.67639 1.47094 0
M  V30 5652 H 524.259 -3.76459 1.48529 0
M  V30 5653 H 522.829 -3.04595 0.702892 0
M  V30 5654 H 522.049 -2.42314 3.1093 0
M  V30 5655 H 523.337 -3.48305 3.70892 0
M  V30 5656 H 522.735 -5.51467 1.26097 0
M  V30 5657 H 521.292 -6.25728 1.82503 0
M  V30 5658 N 524.725 -1.39134 -0.740242 0
M  V30 5659 C 525.973 -1.35803 -1.49673 0
M  V30 5660 C 526.294 0.0470897 -1.94943 0
M  V30 5661 O 525.564 0.997347 -1.68611 0
M  V30 5662 H 524.144 -0.499736 -0.555224 0
M  V30 5663 H 526.806 -1.73947 -0.879107 0
M  V30 5664 H 525.902 -2.0174 -2.38133 0
M  V30 5665 N 526.204 0.969867 -1.24223 0
M  V30 5666 C 527.134 2.08191 -1.05729 0
M  V30 5667 C 528.115 1.70075 0.0290765 0
M  V30 5668 O 529.3 1.93712 -0.137583 0
M  V30 5669 C 526.43 3.40991 -0.658995 0
M  V30 5670 C 525.384 3.93054 -1.69389 0
M  V30 5671 C 524.71 5.22171 -1.15072 0
M  V30 5672 C 526.01 4.21137 -3.08935 0
M  V30 5673 H 527.704 2.23921 -1.98746 0
M  V30 5674 H 525.25 1.07602 -0.956967 0
M  V30 5675 H 527.203 4.18221 -0.51662 0
M  V30 5676 H 525.927 3.25155 0.30686 0
M  V30 5677 H 524.586 3.17977 -1.82444 0
M  V30 5678 H 524.234 5.02694 -0.175539 0
M  V30 5679 H 523.934 5.57973 -1.84229 0
M  V30 5680 H 525.458 6.02013 -1.02042 0
M  V30 5681 H 526.872 4.8908 -2.99121 0
M  V30 5682 H 525.269 4.68163 -3.75425 0
M  V30 5683 H 526.339 3.27996 -3.57137 0
M  V30 5684 N 527.682 1.05563 1.17022 0
M  V30 5685 C 528.91 0.78845 1.91288 0
M  V30 5686 C 529.325 -0.656318 1.77025 0
M  V30 5687 O 528.682 -1.44869 1.10992 0
M  V30 5688 C 528.733 1.16444 3.42232 0
M  V30 5689 O 528.454 2.5525 3.5606 0
M  V30 5690 C 529.955 0.923937 4.33565 0
M  V30 5691 H 527.175 0.286389 0.606813 0
M  V30 5692 H 529.719 1.4073 1.48375 0
M  V30 5693 H 527.874 0.590266 3.82877 0
M  V30 5694 H 528.288 2.70097 4.49609 0
M  V30 5695 H 529.762 1.23672 5.37968 0
M  V30 5696 H 530.239 -0.140688 4.38975 0
M  V30 5697 H 530.845 1.48214 3.98639 0
M  V30 5698 N 529.16 -1.33526 0.837174 0
M  V30 5699 C 530.408 -1.97446 0.431211 0
M  V30 5700 C 530.729 -1.6665 -1.01255 0
M  V30 5701 O 529.999 -0.964559 -1.70508 0
M  V30 5702 H 528.579 -0.73043 0.156463 0
M  V30 5703 H 531.241 -1.62918 1.06976 0
M  V30 5704 H 530.337 -3.07001 0.561877 0
M  V30 5705 N 530.638 -0.59345 -1.46 0
M  V30 5706 C 531.586 0.146268 -2.3214 0
M  V30 5707 C 532.58 0.873743 -1.45128 0
M  V30 5708 O 533.786 0.790912 -1.61693 0
M  V30 5709 H 530.161 0.0660349 -0.749095 0
M  V30 5710 H 532.132 -0.598895 -2.92328 0
M  V30 5711 C 530.881 1.1396 -3.28494 0
M  V30 5712 H 530.204 0.589252 -3.95434 0
M  V30 5713 H 531.644 1.62738 -3.91526 0
M  V30 5714 C 530.103 2.20604 -2.54628 0
M  V30 5715 O 530.633 3.28128 -2.31722 0
M  V30 5716 N 528.839 1.95502 -2.15005 0
M  V30 5717 H 528.386 1.0807 -2.33834 0
M  V30 5718 H 528.344 2.67064 -1.65904 0
M  V30 5719 N 532.116 1.54067 -0.331816 0
M  V30 5720 C 533.362 2.01012 0.268667 0
M  V30 5721 C 533.695 1.2195 1.51136 0
M  V30 5722 O 532.97 0.303972 1.9211 0
M  V30 5723 C 533.253 3.55158 0.59456 0
M  V30 5724 C 533.106 4.4494 -0.659409 0
M  V30 5725 C 534.425 4.16939 1.4089 0
M  V30 5726 H 531.544 0.730698 0.0961756 0
M  V30 5727 H 534.186 1.84593 -0.450031 0
M  V30 5728 H 532.336 3.6928 1.20685 0
M  V30 5729 H 534.008 4.42675 -1.29756 0
M  V30 5730 H 532.251 4.1428 -1.28665 0
M  V30 5731 H 532.922 5.50643 -0.386804 0
M  V30 5732 H 535.398 4.06443 0.891272 0
M  V30 5733 H 534.274 5.24889 1.60569 0
M  V30 5734 H 534.535 3.70798 2.40752 0
M  V30 5735 N 533.594 0.0601682 1.57485 0
M  V30 5736 C 534.526 -0.94047 2.09016 0
M  V30 5737 C 535.539 -1.26897 1.01985 0
M  V30 5738 O 536.728 -1.22819 1.29529 0
M  V30 5739 C 533.828 -2.25955 2.52582 0
M  V30 5740 C 533.001 -2.11163 3.83052 0
M  V30 5741 C 532.06 -3.26273 4.12835 0
M  V30 5742 O 531.086 -3.01779 4.82616 0
M  V30 5743 N 532.288 -4.51022 3.65458 0
M  V30 5744 H 535.053 -0.500578 2.9549 0
M  V30 5745 H 532.614 -0.125852 1.6141 0
M  V30 5746 H 534.606 -3.01846 2.69575 0
M  V30 5747 H 533.176 -2.61481 1.71308 0
M  V30 5748 H 532.396 -1.19808 3.75552 0
M  V30 5749 H 533.684 -1.98517 4.68475 0
M  V30 5750 H 533.082 -4.73811 3.09062 0
M  V30 5751 H 531.639 -5.23978 3.87673 0
M  V30 5752 N 535.072 -1.5615 -0.213296 0
M  V30 5753 C 536.319 -1.79546 -0.936462 0
M  V30 5754 C 536.647 -0.630337 -1.84003 0
M  V30 5755 O 535.902 0.384883 -1.91878 0
M  V30 5756 C 536.201 -3.08772 -1.79985 0
M  V30 5757 C 535.867 -4.38532 -1.04882 0
M  V30 5758 C 534.529 -4.73787 -0.841393 0
M  V30 5759 C 536.881 -5.18609 -0.51907 0
M  V30 5760 C 534.209 -5.86627 -0.0924403 0
M  V30 5761 C 536.561 -6.32229 0.216581 0
M  V30 5762 C 535.225 -6.6608 0.435191 0
M  V30 5763 H 534.495 -0.657004 -0.342676 0
M  V30 5764 H 537.142 -1.9041 -0.204051 0
M  V30 5765 H 535.447 -2.93065 -2.60038 0
M  V30 5766 H 537.144 -3.24077 -2.36168 0
M  V30 5767 H 533.734 -4.10855 -1.22048 0
M  V30 5768 H 537.918 -4.91801 -0.666775 0
M  V30 5769 H 533.174 -6.11338 0.087081 0
M  V30 5770 H 537.348 -6.93503 0.634538 0
M  V30 5771 H 534.975 -7.5336 1.01746 0
M  V30 5772 N 536.55 0.480323 -1.50102 0
M  V30 5773 C 537.827 1.24159 -1.51142 0
M  V30 5774 C 538.207 2.09605 -0.250818 0
M  V30 5775 O 537.555 2.15274 0.766118 0
M  V30 5776 C 537.765 2.08057 -2.80202 0
M  V30 5777 C 539.113 2.66556 -3.30504 0
M  V30 5778 O 540.137 2.18308 -2.81461 0
M  V30 5779 O 538.996 3.54442 -4.15973 0
M  V30 5780 H 536.09 0.562928 -0.605839 0
M  V30 5781 H 538.636 0.492899 -1.62384 0
M  V30 5782 H 537.408 1.45032 -3.6343 0
M  V30 5783 H 537.031 2.90079 -2.71919 0
M  V30 5784 N 538.028 1.39524 0.732853 0
M  V30 5785 C 538.978 1.34905 1.83806 0
M  V30 5786 C 539.962 0.229546 1.59254 0
M  V30 5787 O 541.154 0.467255 1.70721 0
M  V30 5788 C 538.283 1.19699 3.21756 0
M  V30 5789 C 537.369 2.36359 3.5213 0
M  V30 5790 N 537.76 3.61834 3.53426 0
M  V30 5791 C 536.058 2.29363 3.82503 0
M  V30 5792 C 536.759 4.38992 3.81655 0
M  V30 5793 N 535.735 3.68606 3.99538 0
M  V30 5794 H 539.537 2.29882 1.83116 0
M  V30 5795 H 537.051 1.33051 0.931194 0
M  V30 5796 H 539.048 1.14472 4.00876 0
M  V30 5797 H 537.708 0.256739 3.23683 0
M  V30 5798 H 538.719 3.95228 3.34686 0
M  V30 5799 H 535.396 1.43612 3.92023 0
M  V30 5800 H 536.786 5.47763 3.89108 0
M  V30 5801 N 539.506 -0.963266 1.24736 0
M  V30 5802 C 540.736 -1.73913 1.11524 0
M  V30 5803 C 541.144 -1.86218 -0.334612 0
M  V30 5804 O 540.487 -1.3531 -1.24245 0
M  V30 5805 C 540.549 -3.17501 1.68622 0
M  V30 5806 C 540.213 -3.28655 3.17546 0
M  V30 5807 C 541.21 -3.13637 4.14642 0
M  V30 5808 C 538.895 -3.52753 3.5759 0
M  V30 5809 C 540.889 -3.2255 5.49764 0
M  V30 5810 C 538.576 -3.61303 4.92852 0
M  V30 5811 C 539.574 -3.46214 5.88748 0
M  V30 5812 O 539.262 -3.5443 7.2155 0
M  V30 5813 H 538.994 -0.552057 0.390139 0
M  V30 5814 H 541.548 -1.2177 1.65412 0
M  V30 5815 H 539.778 -3.70969 1.09172 0
M  V30 5816 H 541.467 -3.76914 1.50635 0
M  V30 5817 H 542.233 -2.94899 3.85045 0
M  V30 5818 H 538.112 -3.63561 2.83451 0
M  V30 5819 H 541.656 -3.1069 6.24594 0
M  V30 5820 H 537.553 -3.79556 5.22118 0
M  V30 5821 H 538.321 -3.71116 7.29531 0
M  V30 5822 N 540.985 -1.06182 -1.16461 0
M  V30 5823 C 542.233 -0.776326 -1.86595 0
M  V30 5824 C 542.554 0.69921 -1.82033 0
M  V30 5825 O 541.824 1.50579 -1.2531 0
M  V30 5826 H 540.404 -0.284184 -0.690832 0
M  V30 5827 H 543.066 -1.34308 -1.41235 0
M  V30 5828 H 542.162 -1.10022 -2.92064 0
M  V30 5829 N 542.463 1.3308 -0.844243 0
M  V30 5830 C 543.879 1.50447 -0.532729 0
M  V30 5831 C 544.079 1.78292 0.938837 0
M  V30 5832 O 543.135 1.84635 1.72239 0
M  V30 5833 C 544.448 2.65555 -1.41072 0
M  V30 5834 C 545.996 2.7944 -1.41005 0
M  V30 5835 C 546.471 3.97616 -2.27301 0
M  V30 5836 N 547.962 4.0486 -2.2504 0
M  V30 5837 C 548.697 4.95508 -2.88547 0
M  V30 5838 N 548.193 5.91236 -3.61126 0
M  V30 5839 N 549.986 4.88548 -2.77989 0
M  V30 5840 H 542.137 1.13269 -1.79677 0
M  V30 5841 H 544.4 0.55734 -0.766861 0
M  V30 5842 H 544.106 2.51675 -2.45668 0
M  V30 5843 H 543.98 3.61089 -1.09061 0
M  V30 5844 H 546.367 2.92749 -0.371784 0
M  V30 5845 H 546.448 1.8465 -1.77026 0
M  V30 5846 H 546.092 3.85066 -3.3119 0
M  V30 5847 H 546.022 4.91661 -1.88619 0
M  V30 5848 H 548.513 3.36353 -1.72264 0
M  V30 5849 H 548.826 6.57079 -4.06776 0
M  V30 5850 H 547.171 5.91295 -3.65234 0
M  V30 5851 H 550.362 4.12729 -2.20846 0
M  V30 5852 H 550.535 5.58994 -3.27765 0
M  V30 5853 N 543.941 0.601185 1.45683 0
M  V30 5854 C 545.357 0.264315 1.57396 0
M  V30 5855 C 545.557 -1.23324 1.59353 0
M  V30 5856 O 544.613 -2.01594 1.52039 0
M  V30 5857 C 545.926 0.929839 2.85962 0
M  V30 5858 C 547.474 0.905156 2.99626 0
M  V30 5859 C 547.949 1.55057 4.30954 0
M  V30 5860 N 549.44 1.51576 4.37697 0
M  V30 5861 C 550.175 1.98436 5.37969 0
M  V30 5862 N 549.671 2.53352 6.44813 0
M  V30 5863 N 551.464 1.89242 5.29286 0
M  V30 5864 H 543.615 1.57363 1.42656 0
M  V30 5865 H 545.878 0.658831 0.681649 0
M  V30 5866 H 545.584 1.98404 2.90394 0
M  V30 5867 H 545.458 0.449224 3.74515 0
M  V30 5868 H 547.845 -0.14048 2.94765 0
M  V30 5869 H 547.926 1.42397 2.12501 0
M  V30 5870 H 547.57 2.5955 4.36573 0
M  V30 5871 H 547.5 1.00682 5.16886 0
M  V30 5872 H 549.991 1.11452 3.61091 0
M  V30 5873 H 550.304 2.86918 7.17564 0
M  V30 5874 H 548.649 2.57388 6.45582 0
M  V30 5875 H 551.84 1.46083 4.44722 0
M  V30 5876 H 552.013 2.26075 6.07284 0
M  V30 5877 N 545.419 -1.53889 0.339982 0
M  V30 5878 C 546.665 -2.01152 -0.258003 0
M  V30 5879 C 546.998 -1.22749 -1.50487 0
M  V30 5880 O 546.273 -0.314156 -1.91946 0
M  V30 5881 C 546.556 -3.55468 -0.575717 0
M  V30 5882 C 546.409 -4.44584 0.682996 0
M  V30 5883 C 547.728 -4.1768 -1.38677 0
M  V30 5884 H 544.847 -0.731198 -0.0922992 0
M  V30 5885 H 547.489 -1.84352 0.459814 0
M  V30 5886 H 545.639 -3.69914 -1.18725 0
M  V30 5887 H 547.311 -4.41981 1.32102 0
M  V30 5888 H 545.554 -4.13592 1.3086 0
M  V30 5889 H 546.225 -5.5043 0.416001 0
M  V30 5890 H 548.701 -4.0691 -0.869705 0
M  V30 5891 H 547.577 -5.25734 -1.57783 0
M  V30 5892 H 547.838 -3.72069 -2.38782 0
M  V30 5893 N 546.897 -0.0685191 -1.57451 0
M  V30 5894 C 547.845 0.917577 -2.13736 0
M  V30 5895 C 548.839 1.31049 -1.07344 0
M  V30 5896 O 550.045 1.28811 -1.25728 0
M  V30 5897 H 546.42 0.313835 -0.683382 0
M  V30 5898 H 548.391 0.417903 -2.95459 0
M  V30 5899 C 547.14 2.17686 -2.71123 0
M  V30 5900 H 546.463 1.88336 -3.52661 0
M  V30 5901 H 547.903 2.84803 -3.14107 0
M  V30 5902 C 546.362 2.9332 -1.65726 0
M  V30 5903 O 546.892 3.86901 -1.08031 0
M  V30 5904 N 545.098 2.56367 -1.36837 0
M  V30 5905 H 544.645 1.80341 -1.83943 0
M  V30 5906 H 544.603 3.07276 -0.665501 0
M  V30 5907 N 548.375 1.56261 0.205012 0
M  V30 5908 C 549.605 1.83874 0.942018 0
M  V30 5909 C 550.013 0.647595 1.77772 0
M  V30 5910 O 549.356 -0.393098 1.79445 0
M  V30 5911 C 549.418 3.05453 1.89575 0
M  V30 5912 C 549.082 4.39772 1.24296 0
M  V30 5913 C 550.079 5.16133 0.624724 0
M  V30 5914 C 547.764 4.86504 1.24978 0
M  V30 5915 C 549.758 6.37396 0.0220117 0
M  V30 5916 C 547.445 6.07705 0.643232 0
M  V30 5917 C 548.443 6.82993 0.0304164 0
M  V30 5918 O 548.131 8.019 -0.566654 0
M  V30 5919 H 547.863 0.614896 0.280854 0
M  V30 5920 H 550.417 2.04215 0.220285 0
M  V30 5921 H 548.647 2.80972 2.65691 0
M  V30 5922 H 550.336 3.19797 2.4997 0
M  V30 5923 H 551.102 4.81127 0.611666 0
M  V30 5924 H 546.981 4.27865 1.71616 0
M  V30 5925 H 550.525 6.96102 -0.456926 0
M  V30 5926 H 546.422 6.42181 0.653759 0
M  V30 5927 H 547.19 8.17192 -0.462588 0
M  V30 5928 N 549.853 -0.472356 1.50355 0
M  V30 5929 C 551.081 -1.24784 1.65035 0
M  V30 5930 C 551.496 -1.85837 0.333176 0
M  V30 5931 O 550.853 -1.69168 -0.68472 0
M  V30 5932 C 550.904 -2.35747 2.74054 0
M  V30 5933 O 550.625 -1.77197 4.00665 0
M  V30 5934 C 552.126 -3.26645 2.99696 0
M  V30 5935 H 549.346 -0.377432 0.554785 0
M  V30 5936 H 551.89 -0.563962 1.9657 0
M  V30 5937 H 550.045 -2.99912 2.45217 0
M  V30 5938 H 550.459 -2.5026 4.60945 0
M  V30 5939 H 551.933 -4.00718 3.79644 0
M  V30 5940 H 552.41 -3.8535 2.10718 0
M  V30 5941 H 553.016 -2.68218 3.3006 0
M  V30 5942 N 551.331 -1.39911 -0.725443 0
M  V30 5943 C 552.264 -1.33788 -1.84867 0
M  V30 5944 C 553.242 -0.209907 -1.61239 0
M  V30 5945 O 554.426 -0.391943 -1.8438 0
M  V30 5946 C 551.553 -1.07975 -3.21028 0
M  V30 5947 C 550.599 -2.23092 -3.635 0
M  V30 5948 S 551.432 -3.85431 -3.71757 0
M  V30 5949 C 552.588 -3.61862 -5.10692 0
M  V30 5950 H 552.821 -2.28848 -1.89779 0
M  V30 5951 H 550.354 -1.26079 -0.891254 0
M  V30 5952 H 552.312 -0.937669 -3.99647 0
M  V30 5953 H 550.973 -0.145865 -3.13761 0
M  V30 5954 H 550.166 -2.00647 -4.62338 0
M  V30 5955 H 549.768 -2.33553 -2.92112 0
M  V30 5956 H 552.06 -3.19719 -5.97316 0
M  V30 5957 H 553.003 -4.60196 -5.38169 0
M  V30 5958 H 553.411 -2.95757 -4.8082 0
M  V30 5959 N 552.809 0.956637 -1.25245 0
M  V30 5960 C 554.086 1.67716 -1.00651 0
M  V30 5961 C 554.466 2.0585 0.467866 0
M  V30 5962 O 553.814 1.77029 1.44475 0
M  V30 5963 C 554.024 2.90093 -1.94028 0
M  V30 5964 C 555.372 3.6209 -2.21756 0
M  V30 5965 O 556.396 3.00171 -1.9177 0
M  V30 5966 O 555.255 4.7358 -2.72735 0
M  V30 5967 H 552.349 0.733731 -0.381533 0
M  V30 5968 H 554.895 1.00974 -1.3639 0
M  V30 5969 H 553.667 2.58689 -2.93591 0
M  V30 5970 H 553.29 3.64566 -1.58674 0
M  V30 5971 N 554.287 1.06798 1.15896 0
M  V30 5972 C 555.533 0.788934 1.86825 0
M  V30 5973 C 555.866 -0.683084 1.8179 0
M  V30 5974 O 555.141 -1.50086 1.23711 0
M  V30 5975 C 555.424 1.29065 3.36176 0
M  V30 5976 C 555.277 2.8268 3.49874 0
M  V30 5977 C 556.596 0.902655 4.30744 0
M  V30 5978 H 553.715 0.288066 0.678371 0
M  V30 5979 H 556.357 1.32479 1.36195 0
M  V30 5980 H 554.507 0.834806 3.79425 0
M  V30 5981 H 556.179 3.36511 3.15528 0
M  V30 5982 H 554.422 3.21157 2.91617 0
M  V30 5983 H 555.093 3.12852 4.54783 0
M  V30 5984 H 557.569 1.29535 3.95424 0
M  V30 5985 H 556.445 1.28111 5.3374 0
M  V30 5986 H 556.706 -0.191951 4.41683 0
M  V30 5987 N 555.766 -1.3263 0.851289 0
M  V30 5988 C 557.013 -1.97368 0.453023 0
M  V30 5989 C 557.341 -1.67384 -0.990596 0
M  V30 5990 O 556.596 -0.952665 -1.70947 0
M  V30 5991 C 556.895 -3.51713 0.635015 0
M  V30 5992 C 556.561 -4.01676 2.04859 0
M  V30 5993 C 555.223 -4.15031 2.43522 0
M  V30 5994 C 557.575 -4.28206 2.97135 0
M  V30 5995 C 554.903 -4.52257 3.73739 0
M  V30 5996 C 557.255 -4.66889 4.26846 0
M  V30 5997 C 555.919 -4.7845 4.65448 0
M  V30 5998 H 555.189 -0.722219 0.165773 0
M  V30 5999 H 557.836 -1.58092 1.0807 0
M  V30 6000 H 556.141 -3.91726 -0.0759081 0
M  V30 6001 H 557.838 -3.99823 0.306964 0
M  V30 6002 H 554.428 -3.91764 1.73836 0
M  V30 6003 H 558.612 -4.174 2.68498 0
M  V30 6004 H 553.868 -4.59402 4.03435 0
M  V30 6005 H 558.042 -4.86372 4.98413 0
M  V30 6006 H 555.669 -5.07052 5.66395 0
M  V30 6007 N 557.244 -0.608902 -1.45362 0
M  V30 6008 C 558.154 0.110969 -2.34337 0
M  V30 6009 C 559.17 0.859007 -1.51318 0
M  V30 6010 O 560.346 0.816296 -1.84116 0
M  V30 6011 C 557.411 1.09494 -3.28956 0
M  V30 6012 C 556.472 0.348718 -4.27881 0
M  V30 6013 C 555.705 1.28582 -5.17979 0
M  V30 6014 O 555.928 2.52369 -5.11533 0
M  V30 6015 O 554.862 0.782172 -5.96796 0
M  V30 6016 H 558.688 -0.620258 -2.97299 0
M  V30 6017 H 556.273 -0.36916 -1.44767 0
M  V30 6018 H 558.155 1.66163 -3.87257 0
M  V30 6019 H 556.83 1.80717 -2.68557 0
M  V30 6020 H 555.737 -0.260465 -3.73192 0
M  V30 6021 H 557.07 -0.323049 -4.91139 0
M  V30 6022 N 558.722 1.53707 -0.348139 0
M  V30 6023 C 559.652 2.28111 0.498766 0
M  V30 6024 C 560.633 1.29851 1.09876 0
M  V30 6025 O 561.818 1.587 1.11928 0
M  V30 6026 C 558.948 3.05735 1.64753 0
M  V30 6027 C 557.902 4.11537 1.17565 0
M  V30 6028 C 557.228 4.77142 2.4133 0
M  V30 6029 C 558.528 5.21587 0.272844 0
M  V30 6030 H 560.222 2.99152 -0.121934 0
M  V30 6031 H 557.768 1.43875 -0.0600842 0
M  V30 6032 H 559.721 3.56526 2.24649 0
M  V30 6033 H 558.445 2.32354 2.2952 0
M  V30 6034 H 557.104 3.61665 0.599483 0
M  V30 6035 H 556.752 4.0035 3.04514 0
M  V30 6036 H 556.452 5.48626 2.10436 0
M  V30 6037 H 557.976 5.30719 3.01943 0
M  V30 6038 H 559.39 5.67986 0.778779 0
M  V30 6039 H 557.787 6.00074 0.0555849 0
M  V30 6040 H 558.857 4.79969 -0.689785 0
M  V30 6041 N 560.2 0.0768682 1.57412 0
M  V30 6042 C 561.147 -0.888577 2.13009 0
M  V30 6043 C 562.117 -1.29198 1.0439 0
M  V30 6044 O 563.302 -1.37694 1.3208 0
M  V30 6045 C 560.442 -2.14899 2.70023 0
M  V30 6046 C 559.555 -1.79777 3.92816 0
M  V30 6047 C 558.69 -3.00467 4.38056 0
M  V30 6048 C 557.729 -2.61385 5.53484 0
M  V30 6049 N 556.866 -3.74851 5.93659 0
M  V30 6050 H 561.706 -0.407593 2.95199 0
M  V30 6051 H 559.243 -0.189534 1.45874 0
M  V30 6052 H 561.201 -2.88688 3.0119 0
M  V30 6053 H 559.831 -2.60529 1.9059 0
M  V30 6054 H 558.883 -0.960301 3.68079 0
M  V30 6055 H 560.195 -1.47027 4.76639 0
M  V30 6056 H 559.349 -3.82529 4.7091 0
M  V30 6057 H 558.088 -3.36413 3.53097 0
M  V30 6058 H 557.093 -1.77746 5.20275 0
M  V30 6059 H 558.318 -2.26603 6.40178 0
M  V30 6060 H 556.264 -4.1055 5.11649 0
M  V30 6061 H 556.181 -3.45887 6.72234 0
M  V30 6062 H 557.449 -4.57477 6.31138 0
M  V30 6063 N 561.678 -1.56367 -0.196722 0
M  V30 6064 C 562.903 -1.84991 -0.937714 0
M  V30 6065 C 563.328 -0.660244 -1.76132 0
M  V30 6066 O 562.686 0.390967 -1.77034 0
M  V30 6067 C 562.734 -3.11828 -1.81096 0
M  V30 6068 O 561.838 -2.92266 -2.90955 0
M  V30 6069 H 561.179 -0.609193 -0.264159 0
M  V30 6070 H 563.709 -2.03595 -0.202529 0
M  V30 6071 H 563.719 -3.42579 -2.21594 0
M  V30 6072 H 562.394 -3.98037 -1.2058 0
M  V30 6073 H 560.971 -2.72809 -2.54224 0
M  V30 6074 N 563.156 0.464375 -1.50603 0
M  V30 6075 C 564.384 1.23907 -1.65695 0
M  V30 6076 C 564.799 1.85658 -0.343027 0
M  V30 6077 O 564.156 1.69529 0.675739 0
M  V30 6078 C 564.207 2.3429 -2.75301 0
M  V30 6079 O 563.928 1.7507 -4.01599 0
M  V30 6080 C 565.429 3.25051 -3.01424 0
M  V30 6081 H 562.649 0.374485 -0.556778 0
M  V30 6082 H 565.193 0.55353 -1.96866 0
M  V30 6083 H 563.348 2.98607 -2.46804 0
M  V30 6084 H 563.762 2.47812 -4.62266 0
M  V30 6085 H 565.236 3.98699 -3.81763 0
M  V30 6086 H 565.713 3.84227 -2.12758 0
M  V30 6087 H 566.319 2.66463 -3.31477 0
M  V30 6088 N 564.634 1.40294 0.718013 0
M  V30 6089 C 565.882 1.38167 1.47494 0
M  V30 6090 C 566.203 -0.01607 1.94993 0
M  V30 6091 O 565.473 -0.970396 1.70177 0
M  V30 6092 H 564.053 0.508505 0.547203 0
M  V30 6093 H 566.715 1.75324 0.851322 0
M  V30 6094 H 565.811 2.05503 2.34894 0
M  V30 6095 N 566.112 -0.949982 1.2575 0
M  V30 6096 C 567.523 -1.50989 1.09815 0
M  V30 6097 C 567.874 -1.93497 -0.324556 0
M  V30 6098 O 566.999 -1.79068 -1.21506 0
M  V30 6099 C 567.594 -2.74394 1.98729 0
M  V30 6100 C 566.153 -3.26682 1.86965 0
M  V30 6101 C 565.3 -1.99498 1.92603 0
M  V30 6102 H 568.251 -0.766387 1.38968 0
M  V30 6103 H 568.272 -3.48383 1.53001 0
M  V30 6104 H 567.784 -2.43425 3.02268 0
M  V30 6105 H 565.885 -3.62461 0.863279 0
M  V30 6106 H 565.998 -3.94383 2.72027 0
M  V30 6107 H 564.362 -2.15005 1.36546 0
M  V30 6108 H 565.145 -1.70871 2.97755 0
M  V30 6109 N 567.59 -1.07411 -1.15328 0
M  V30 6110 C 569.006 -0.799759 -1.38116 0
M  V30 6111 C 569.206 0.59572 -1.92493 0
M  V30 6112 O 568.262 1.35433 -2.13106 0
M  V30 6113 C 569.575 -1.87407 -2.35158 0
M  V30 6114 C 571.123 -1.89889 -2.48819 0
M  V30 6115 C 571.598 -2.96406 -3.49153 0
M  V30 6116 N 573.089 -2.95512 -3.56689 0
M  V30 6117 C 573.824 -3.74575 -4.34144 0
M  V30 6118 N 573.32 -4.63488 -5.14928 0
M  V30 6119 N 575.113 -3.62919 -4.29239 0
M  V30 6120 H 567.264 -1.97411 -0.78374 0
M  V30 6121 H 569.527 -0.856113 -0.407154 0
M  V30 6122 H 569.233 -2.8768 -2.0232 0
M  V30 6123 H 569.107 -1.73471 -3.34944 0
M  V30 6124 H 571.494 -0.902677 -2.80955 0
M  V30 6125 H 571.575 -2.07904 -1.49029 0
M  V30 6126 H 571.219 -3.96227 -3.17752 0
M  V30 6127 H 571.149 -2.75638 -4.48699 0
M  V30 6128 H 573.64 -2.31061 -2.99031 0
M  V30 6129 H 573.953 -5.20445 -5.71276 0
M  V30 6130 H 572.298 -4.67537 -5.14232 0
M  V30 6131 H 575.489 -2.92833 -3.65194 0
M  V30 6132 H 575.662 -4.24777 -4.89355 0
M  V30 6133 N 569.068 1.32177 -0.85831 0
M  V30 6134 C 570.015 2.28794 -0.303607 0
M  V30 6135 C 570.985 1.55213 0.591453 0
M  V30 6136 O 572.17 1.83418 0.525585 0
M  V30 6137 C 569.31 3.41475 0.49889 0
M  V30 6138 C 568.423 4.2993 -0.422373 0
M  V30 6139 C 567.558 5.29743 0.393111 0
M  V30 6140 C 566.597 6.09842 -0.525317 0
M  V30 6141 N 565.734 7.01643 0.253208 0
M  V30 6142 H 570.574 2.75631 -1.13276 0
M  V30 6143 H 568.111 1.35606 -0.570026 0
M  V30 6144 H 570.069 4.05531 0.979826 0
M  V30 6145 H 568.699 2.95779 1.29284 0
M  V30 6146 H 567.751 3.66422 -1.02171 0
M  V30 6147 H 569.063 4.85899 -1.12709 0
M  V30 6148 H 568.217 5.9942 0.937056 0
M  V30 6149 H 566.956 4.744 1.13117 0
M  V30 6150 H 565.961 5.39066 -1.08112 0
M  V30 6151 H 567.186 6.6727 -1.26205 0
M  V30 6152 H 565.132 6.48725 0.974295 0
M  V30 6153 H 565.049 7.54981 -0.392398 0
M  V30 6154 H 566.317 7.756 0.778761 0
M  V30 6155 N 570.547 0.616602 1.45037 0
M  V30 6156 C 571.793 0.115501 2.02471 0
M  V30 6157 C 572.126 -1.25406 1.4828 0
M  V30 6158 O 571.401 -1.82922 0.661051 0
M  V30 6159 C 571.684 0.0863588 3.59996 0
M  V30 6160 C 571.537 1.48723 4.24501 0
M  V30 6161 C 572.856 -0.596762 4.36035 0
M  V30 6162 H 569.975 0.0434461 0.735718 0
M  V30 6163 H 572.617 0.7903 1.72784 0
M  V30 6164 H 570.767 -0.488277 3.85419 0
M  V30 6165 H 572.439 2.10964 4.10234 0
M  V30 6166 H 570.682 2.04534 3.82555 0
M  V30 6167 H 571.353 1.419 5.3345 0
M  V30 6168 H 573.829 -0.10824 4.15959 0
M  V30 6169 H 572.705 -0.586289 5.4576 0
M  V30 6170 H 572.966 -1.66451 4.09569 0
M  V30 6171 N 572.025 -1.5352 0.356285 0
M  V30 6172 C 573.273 -2.00719 -0.235837 0
M  V30 6173 C 573.594 -1.24551 -1.5004 0
M  V30 6174 O 572.864 -0.356185 -1.92635 0
M  V30 6175 H 571.444 -0.741542 -0.0901366 0
M  V30 6176 H 574.106 -1.88887 0.480378 0
M  V30 6177 H 573.202 -3.08551 -0.469357 0
M  V30 6178 N 573.503 -0.0852151 -1.57369 0
M  V30 6179 C 574.733 0.588605 -1.98038 0
M  V30 6180 C 575.141 1.62869 -0.962817 0
M  V30 6181 O 574.484 1.83611 0.057134 0
M  V30 6182 C 574.546 1.30303 -3.35054 0
M  V30 6183 C 574.21 0.414855 -4.55113 0
M  V30 6184 C 575.207 -0.333011 -5.18832 0
M  V30 6185 C 572.892 0.335804 -5.01176 0
M  V30 6186 C 574.886 -1.14801 -6.26976 0
M  V30 6187 C 572.573 -0.482857 -6.09189 0
M  V30 6188 C 573.571 -1.22342 -6.71953 0
M  V30 6189 O 573.259 -2.02855 -7.77885 0
M  V30 6190 H 572.991 0.163249 -0.655992 0
M  V30 6191 H 575.545 -0.1582 -2.0479 0
M  V30 6192 H 573.775 2.0962 -3.24956 0
M  V30 6193 H 575.464 1.87041 -3.60237 0
M  V30 6194 H 576.23 -0.281611 -4.84182 0
M  V30 6195 H 572.109 0.901869 -4.52092 0
M  V30 6196 H 575.653 -1.72654 -6.75897 0
M  V30 6197 H 571.55 -0.535773 -6.43273 0
M  V30 6198 H 572.318 -1.95432 -7.94826 0
M  V30 6199 N 574.981 1.5647 0.188427 0
M  V30 6200 C 576.227 1.82181 0.904534 0
M  V30 6201 C 576.582 0.663258 1.80606 0
M  V30 6202 O 575.875 -0.341231 1.88537 0
M  V30 6203 C 576.069 3.11596 1.7505 0
M  V30 6204 C 575.898 4.39928 0.932372 0
M  V30 6205 C 574.668 5.01554 0.61417 0
M  V30 6206 C 576.866 5.13527 0.281936 0
M  V30 6207 N 574.848 6.13499 -0.221896 0
M  V30 6208 C 576.219 6.18603 -0.416037 0
M  V30 6209 C 578.274 4.97505 0.198345 0
M  V30 6210 C 576.977 7.09394 -1.18965 0
M  V30 6211 C 579.003 5.88725 -0.561887 0
M  V30 6212 C 578.365 6.93251 -1.24828 0
M  V30 6213 H 574.464 0.717858 0.310168 0
M  V30 6214 H 577.048 1.93932 0.172757 0
M  V30 6215 H 575.219 3.01068 2.45383 0
M  V30 6216 H 576.951 3.25369 2.4066 0
M  V30 6217 H 573.706 4.64174 0.940187 0
M  V30 6218 H 574.13 6.74065 -0.629735 0
M  V30 6219 H 578.772 4.16716 0.714665 0
M  V30 6220 H 576.49 7.8964 -1.71737 0
M  V30 6221 H 580.076 5.78401 -0.628009 0
M  V30 6222 H 578.956 7.62618 -1.82712 0
M  V30 6223 N 576.459 -0.456382 1.50847 0
M  V30 6224 C 577.407 -1.57318 1.71329 0
M  V30 6225 C 578.401 -1.59187 0.579287 0
M  V30 6226 O 579.607 -1.6316 0.76018 0
M  V30 6227 H 575.982 -0.5223 0.541024 0
M  V30 6228 H 577.953 -1.3721 2.64983 0
M  V30 6229 C 576.702 -2.95142 1.83811 0
M  V30 6230 H 576.025 -2.94428 2.70467 0
M  V30 6231 H 577.465 -3.72702 2.02161 0
M  V30 6232 C 575.924 -3.31636 0.593224 0
M  V30 6233 O 576.454 -4.00852 -0.260898 0
M  V30 6234 N 574.66 -2.87205 0.442902 0
M  V30 6235 H 574.207 -2.31051 1.13901 0
M  V30 6236 H 574.165 -3.11986 -0.38884 0
M  V30 6237 N 577.937 -1.40673 -0.710563 0
M  V30 6238 C 579.214 -1.29718 -1.46398 0
M  V30 6239 C 579.594 0.082177 -2.1094 0
M  V30 6240 O 578.942 1.09536 -2.00534 0
M  V30 6241 C 579.152 -2.43967 -2.49562 0
M  V30 6242 C 580.5 -2.84436 -3.15248 0
M  V30 6243 O 581.524 -2.43597 -2.59883 0
M  V30 6244 O 580.383 -3.55008 -4.1549 0
M  V30 6245 H 577.477 -0.509697 -0.651258 0
M  V30 6246 H 580.023 -1.52603 -0.742312 0
M  V30 6247 H 578.795 -3.36076 -2.0042 0
M  V30 6248 H 578.418 -2.22879 -3.29258 0
M  V30 6249 N 579.415 0.9433 -1.26252 0
M  V30 6250 C 580.348 2.04162 -1.01946 0
M  V30 6251 C 581.326 1.62507 0.0550808 0
M  V30 6252 O 582.51 1.883 -0.0869025 0
M  V30 6253 C 579.637 3.34313 -0.54335 0
M  V30 6254 C 578.683 3.94939 -1.61013 0
M  V30 6255 S 579.516 4.29484 -3.19849 0
M  V30 6256 C 580.672 5.62738 -2.74001 0
M  V30 6257 H 580.905 2.24466 -1.94942 0
M  V30 6258 H 578.438 1.08441 -1.09909 0
M  V30 6259 H 580.396 4.09576 -0.275315 0
M  V30 6260 H 579.057 3.11957 0.36629 0
M  V30 6261 H 578.25 4.88812 -1.22795 0
M  V30 6262 H 577.852 3.26202 -1.82943 0
M  V30 6263 H 580.144 6.41356 -2.18333 0
M  V30 6264 H 581.087 6.05839 -3.66558 0
M  V30 6265 H 581.495 5.22514 -2.13634 0
M  V30 6266 N 580.893 1.08022 1.14757 0
M  V30 6267 C 582.17 0.720386 1.81851 0
M  V30 6268 C 582.55 -0.796375 1.95502 0
M  V30 6269 O 581.898 -1.71339 1.51179 0
M  V30 6270 C 582.108 1.44273 3.17783 0
M  V30 6271 C 583.456 1.59925 3.93331 0
M  V30 6272 O 584.48 1.40407 3.2736 0
M  V30 6273 O 583.339 1.92096 5.11626 0
M  V30 6274 H 580.433 0.257142 0.786007 0
M  V30 6275 H 582.979 1.18155 1.21809 0
M  V30 6276 H 581.751 2.47618 3.02987 0
M  V30 6277 H 581.374 0.97279 3.85516 0
M  V30 6278 N 582.371 -1.3172 0.865308 0
M  V30 6279 C 583.318 -2.2863 0.315736 0
M  V30 6280 C 584.288 -1.55524 -0.583213 0
M  V30 6281 O 585.473 -1.83694 -0.51585 0
M  V30 6282 C 582.613 -3.41735 -0.480773 0
M  V30 6283 C 581.726 -4.297 0.445167 0
M  V30 6284 C 580.861 -5.29944 -0.365012 0
M  V30 6285 C 579.9 -6.09554 0.557651 0
M  V30 6286 N 579.037 -7.01768 -0.215994 0
M  V30 6287 H 583.877 -2.75026 1.14736 0
M  V30 6288 H 581.414 -1.35302 0.577209 0
M  V30 6289 H 583.372 -4.06045 -0.958306 0
M  V30 6290 H 582.002 -2.96461 -1.27714 0
M  V30 6291 H 581.054 -3.65875 1.04113 0
M  V30 6292 H 582.366 -4.85295 1.15284 0
M  V30 6293 H 581.52 -5.99908 -0.905255 0
M  V30 6294 H 580.259 -4.74994 -1.106 0
M  V30 6295 H 579.264 -5.38485 1.10969 0
M  V30 6296 H 580.489 -6.66591 1.29742 0
M  V30 6297 H 578.435 -6.49232 -0.939878 0
M  V30 6298 H 578.352 -7.54762 0.432431 0
M  V30 6299 H 579.62 -7.76002 -0.737618 0
M  V30 6300 N 583.85 -0.624285 -1.44708 0
M  V30 6301 C 584.779 0.0717025 -2.3339 0
M  V30 6302 C 585.76 0.841814 -1.47809 0
M  V30 6303 O 586.946 0.809056 -1.76544 0
M  V30 6304 C 584.076 1.05852 -3.30776 0
M  V30 6305 C 583.029 0.400503 -4.26122 0
M  V30 6306 C 582.356 1.49674 -5.13324 0
M  V30 6307 C 583.656 -0.688924 -5.17737 0
M  V30 6308 H 585.35 -0.668819 -2.91834 0
M  V30 6309 H 582.896 -0.32308 -1.40329 0
M  V30 6310 H 584.849 1.5541 -3.91696 0
M  V30 6311 H 583.572 1.82984 -2.70526 0
M  V30 6312 H 582.231 -0.0743687 -3.66525 0
M  V30 6313 H 581.88 2.25877 -4.49431 0
M  V30 6314 H 581.58 1.06188 -5.77926 0
M  V30 6315 H 583.104 1.99427 -5.77115 0
M  V30 6316 H 584.518 -0.276724 -5.72632 0
M  V30 6317 H 582.915 -1.04652 -5.90904 0
M  V30 6318 H 583.985 -1.55884 -4.5916 0
M  V30 6319 N 585.328 1.53329 -0.364422 0
M  V30 6320 C 586.574 2.01537 0.225969 0
M  V30 6321 C 586.907 1.25128 1.48515 0
M  V30 6322 O 586.182 0.344653 1.91422 0
M  V30 6323 C 586.465 3.56339 0.519092 0
M  V30 6324 C 586.318 4.43441 -0.753639 0
M  V30 6325 C 587.637 4.19833 1.32015 0
M  V30 6326 H 584.756 0.732573 0.0806548 0
M  V30 6327 H 587.398 1.83597 -0.489084 0
M  V30 6328 H 585.548 3.71756 1.12825 0
M  V30 6329 H 587.22 4.39823 -1.39116 0
M  V30 6330 H 585.463 4.11457 -1.37424 0
M  V30 6331 H 586.134 5.49699 -0.503517 0
M  V30 6332 H 588.61 4.08242 0.804859 0
M  V30 6333 H 587.486 5.28177 1.49399 0
M  V30 6334 H 587.747 3.75821 2.32832 0
M  V30 6335 N 586.806 0.0935595 1.57322 0
M  V30 6336 C 587.736 -0.863062 2.16964 0
M  V30 6337 C 588.717 -1.29528 1.10256 0
M  V30 6338 O 589.902 -1.36245 1.38387 0
M  V30 6339 C 587.032 -2.12276 2.74875 0
M  V30 6340 C 585.986 -1.82921 3.86942 0
M  V30 6341 C 585.312 -3.15707 4.31548 0
M  V30 6342 C 586.612 -1.11737 5.10208 0
M  V30 6343 H 588.306 -0.366145 2.97153 0
M  V30 6344 H 585.852 -0.174673 1.42937 0
M  V30 6345 H 587.805 -2.79634 3.1525 0
M  V30 6346 H 586.529 -2.64248 1.91938 0
M  V30 6347 H 585.188 -1.17961 3.47103 0
M  V30 6348 H 584.836 -3.65563 3.45504 0
M  V30 6349 H 584.536 -2.96849 5.07104 0
M  V30 6350 H 586.06 -3.84226 4.74555 0
M  V30 6351 H 587.474 -1.69203 5.47762 0
M  V30 6352 H 585.871 -1.03064 5.91183 0
M  V30 6353 H 586.941 -0.0998818 4.84797 0
M  V30 6354 N 588.284 -1.56567 -0.180126 0
M  V30 6355 C 589.533 -1.80685 -0.896426 0
M  V30 6356 C 589.846 -0.669335 -1.83791 0
M  V30 6357 O 591.052 -0.795209 -2.59593 0
M  V30 6358 C 589.508 -3.20132 -1.6445 0
M  V30 6359 C 589.116 -4.41727 -0.747088 0
M  V30 6360 C 590.86 -3.53549 -2.34955 0
M  V30 6361 C 588.767 -5.72195 -1.49489 0
M  V30 6362 H 587.697 -0.673758 -0.338477 0
M  V30 6363 H 590.348 -1.8289 -0.149467 0
M  V30 6364 H 588.73 -3.12218 -2.43589 0
M  V30 6365 H 589.904 -4.608 0.00671129 0
M  V30 6366 H 588.219 -4.16122 -0.152134 0
M  V30 6367 H 590.816 -4.48267 -2.91481 0
M  V30 6368 H 591.159 -2.78006 -3.09868 0
M  V30 6369 H 591.692 -3.62976 -1.62768 0
M  V30 6370 H 588.431 -6.50743 -0.788251 0
M  V30 6371 H 587.951 -5.57115 -2.22224 0
M  V30 6372 H 589.63 -6.1384 -2.04472 0
M  V30 6373 N 589.762 0.448376 -1.51087 0
M  V30 6374 C 590.694 1.56146 -1.67783 0
M  V30 6375 C 591.707 1.52913 -0.55871 0
M  V30 6376 O 592.896 1.57889 -0.83267 0
M  V30 6377 C 589.996 2.95057 -1.66716 0
M  V30 6378 C 589.169 3.22915 -2.95033 0
M  V30 6379 C 588.228 4.41495 -2.86302 0
M  V30 6380 O 587.254 4.40688 -3.60254 0
M  V30 6381 N 588.456 5.44443 -2.014 0
M  V30 6382 H 591.221 1.42232 -2.638 0
M  V30 6383 H 588.782 0.637153 -1.48835 0
M  V30 6384 H 590.774 3.72388 -1.58458 0
M  V30 6385 H 589.344 3.02624 -0.783403 0
M  V30 6386 H 588.564 2.33985 -3.17245 0
M  V30 6387 H 589.852 3.38349 -3.79996 0
M  V30 6388 H 589.25 5.4793 -1.40674 0
M  V30 6389 H 587.807 6.2067 -1.99029 0
M  V30 6390 N 591.24 1.41047 0.703093 0
M  V30 6391 C 592.517 1.30493 1.45708 0
M  V30 6392 C 592.897 -0.0709892 2.10981 0
M  V30 6393 O 592.245 -1.08471 2.01113 0
M  V30 6394 C 592.455 2.45287 2.48265 0
M  V30 6395 C 593.803 2.86104 3.13735 0
M  V30 6396 O 594.827 2.44971 2.58587 0
M  V30 6397 O 593.686 3.57206 4.13601 0
M  V30 6398 H 590.78 0.513144 0.648546 0
M  V30 6399 H 593.326 1.52995 0.734208 0
M  V30 6400 H 592.098 3.37135 1.98635 0
M  V30 6401 H 591.721 2.24622 3.28071 0
M  V30 6402 N 592.718 -0.936591 1.26751 0
M  V30 6403 C 593.964 -1.6858 1.12733 0
M  V30 6404 C 594.297 -1.91414 -0.327745 0
M  V30 6405 O 593.572 -1.49812 -1.24043 0
M  V30 6406 C 593.855 -3.05779 1.90187 0
M  V30 6407 C 593.708 -2.90242 3.43627 0
M  V30 6408 C 595.027 -4.0597 1.69931 0
M  V30 6409 H 592.146 -0.61182 0.410908 0
M  V30 6410 H 594.788 -1.08747 1.55801 0
M  V30 6411 H 592.938 -3.56853 1.53584 0
M  V30 6412 H 594.61 -2.46354 3.9001 0
M  V30 6413 H 592.853 -2.2577 3.70419 0
M  V30 6414 H 593.524 -3.87572 3.93055 0
M  V30 6415 H 596 -3.63874 2.0183 0
M  V30 6416 H 594.876 -4.99974 2.26534 0
M  V30 6417 H 595.137 -4.37369 0.64502 0
M  V30 6418 N 594.196 -1.08629 -1.14182 0
M  V30 6419 C 595.607 -0.838003 -1.66836 0
M  V30 6420 C 595.958 0.634885 -1.85644 0
M  V30 6421 O 595.083 1.49008 -1.56926 0
M  V30 6422 C 595.678 -1.51465 -3.03058 0
M  V30 6423 C 594.237 -1.31355 -3.52736 0
M  V30 6424 C 593.384 -1.57599 -2.28162 0
M  V30 6425 H 596.335 -1.24656 -0.982165 0
M  V30 6426 H 596.356 -0.943134 -3.68626 0
M  V30 6427 H 595.868 -2.58661 -2.89337 0
M  V30 6428 H 593.969 -0.262384 -3.71675 0
M  V30 6429 H 594.082 -2.04275 -4.33369 0
M  V30 6430 H 592.446 -0.997659 -2.34348 0
M  V30 6431 H 593.229 -2.66006 -2.17015 0
M  V30 6432 N 595.674 1.31259 -0.872281 0
M  V30 6433 C 596.902 2.00795 -0.498907 0
M  V30 6434 C 597.317 1.65464 0.909238 0
M  V30 6435 O 596.674 0.885073 1.59602 0
M  V30 6436 C 596.725 3.55625 -0.649092 0
M  V30 6437 O 596.446 3.89692 -2.00179 0
M  V30 6438 C 597.947 4.42434 -0.277034 0
M  V30 6439 H 595.167 0.642299 -0.194145 0
M  V30 6440 H 597.711 1.67438 -1.17408 0
M  V30 6441 H 595.866 3.87394 -0.0214402 0
M  V30 6442 H 596.28 4.84407 -2.01122 0
M  V30 6443 H 597.754 5.50299 -0.433064 0
M  V30 6444 H 598.231 4.32146 0.783989 0
M  V30 6445 H 598.837 4.16086 -0.880483 0
M  V30 6446 N 597.152 0.631951 1.44375 0
M  V30 6447 C 598.082 -0.0593243 2.33425 0
M  V30 6448 C 599.063 -0.833964 1.48253 0
M  V30 6449 O 600.248 -0.799682 1.76971 0
M  V30 6450 C 597.378 -1.04096 3.31333 0
M  V30 6451 C 596.332 -0.377899 4.26328 0
M  V30 6452 C 595.658 -1.4695 5.14111 0
M  V30 6453 C 596.958 0.716371 5.17364 0
M  V30 6454 H 598.652 0.684287 2.91475 0
M  V30 6455 H 596.198 0.330518 1.40156 0
M  V30 6456 H 598.151 -1.53331 3.92514 0
M  V30 6457 H 596.875 -1.81547 2.71493 0
M  V30 6458 H 595.534 0.0938054 3.6648 0
M  V30 6459 H 595.182 -2.2349 4.50623 0
M  V30 6460 H 594.882 -1.03121 5.78481 0
M  V30 6461 H 596.406 -1.96363 5.78164 0
M  V30 6462 H 597.82 0.307089 5.72477 0
M  V30 6463 H 596.217 1.07784 5.90341 0
M  V30 6464 H 597.287 1.58316 4.58327 0
M  V30 6465 N 598.631 -1.53133 0.372548 0
M  V30 6466 C 599.879 -2.00958 -0.214534 0
M  V30 6467 C 600.2 -1.26135 -1.48711 0
M  V30 6468 O 599.47 -0.376597 -1.92246 0
M  V30 6469 H 598.05 -0.742456 -0.0822664 0
M  V30 6470 H 600.712 -1.88367 0.500385 0
M  V30 6471 H 599.808 -3.09031 -0.436605 0
M  V30 6472 N 600.109 -0.101901 -1.5727 0
M  V30 6473 C 601.057 0.872034 -2.15635 0
M  V30 6474 C 602.051 1.28742 -1.10099 0
M  V30 6475 O 603.257 1.26116 -1.28432 0
M  V30 6476 H 599.632 0.299269 -0.689886 0
M  V30 6477 H 601.603 0.355137 -2.96279 0
M  V30 6478 C 600.352 2.11886 -2.7568 0
M  V30 6479 H 599.675 1.80813 -3.56576 0
M  V30 6480 H 601.115 2.78077 -3.20077 0
M  V30 6481 C 599.574 2.89739 -1.7191 0
M  V30 6482 O 600.104 3.84522 -1.16213 0
M  V30 6483 N 598.31 2.53407 -1.42245 0
M  V30 6484 H 597.857 1.76398 -1.87727 0
M  V30 6485 H 597.815 3.05795 -0.730529 0
M  V30 6486 N 601.587 1.56661 0.17182 0
M  V30 6487 C 602.864 1.72838 0.915778 0
M  V30 6488 C 603.244 0.66316 2.00413 0
M  V30 6489 O 602.592 -0.322123 2.26218 0
M  V30 6490 C 602.802 3.16019 1.48097 0
M  V30 6491 C 604.15 3.76962 1.95408 0
M  V30 6492 O 605.174 3.19294 1.57892 0
M  V30 6493 O 604.033 4.78219 2.64516 0
M  V30 6494 H 601.127 0.705797 0.431021 0
M  V30 6495 H 603.673 1.68947 0.159689 0
M  V30 6496 H 602.445 3.85031 0.697618 0
M  V30 6497 H 602.068 3.24234 2.30126 0
M  V30 6498 N 603.065 -0.440357 1.51323 0
M  V30 6499 C 604.293 -1.21255 1.67645 0
M  V30 6500 C 604.708 -1.85088 0.37252 0
M  V30 6501 O 604.065 -1.70582 -0.648683 0
M  V30 6502 C 604.116 -2.29881 2.78993 0
M  V30 6503 O 603.837 -1.68659 4.04334 0
M  V30 6504 C 605.338 -3.20214 3.06558 0
M  V30 6505 H 602.558 -0.36558 0.562666 0
M  V30 6506 H 605.102 -0.52214 1.97722 0
M  V30 6507 H 603.257 -2.94643 2.51524 0
M  V30 6508 H 603.671 -2.40426 4.6615 0
M  V30 6509 H 605.145 -3.92575 3.88058 0
M  V30 6510 H 605.622 -3.80794 2.18844 0
M  V30 6511 H 606.228 -2.61156 3.35675 0
M  V30 6512 N 604.543 -1.41418 -0.695603 0
M  V30 6513 C 605.506 -1.42988 -1.79129 0
M  V30 6514 C 606.506 -0.320514 -1.57573 0
M  V30 6515 O 607.696 -0.58039 -1.64247 0
M  V30 6516 C 604.828 -1.24122 -3.175 0
M  V30 6517 H 606.021 -2.40526 -1.7913 0
M  V30 6518 H 603.574 -1.2756 -0.903225 0
M  V30 6519 H 604.309 -0.274253 -3.23138 0
M  V30 6520 H 604.094 -2.045 -3.34547 0
M  V30 6521 H 605.584 -1.28056 -3.97481 0
M  V30 6522 N 606.021 0.929856 -1.27246 0
M  V30 6523 C 606.984 2.01172 -1.09829 0
M  V30 6524 C 607.984 1.60743 -0.0429687 0
M  V30 6525 O 609.174 1.71813 -0.287373 0
M  V30 6526 C 606.306 3.34191 -0.673003 0
M  V30 6527 H 607.499 2.18054 -2.05895 0
M  V30 6528 H 605.052 1.11036 -1.10003 0
M  V30 6529 H 605.787 3.23009 0.289134 0
M  V30 6530 H 605.572 3.64892 -1.43515 0
M  V30 6531 H 607.062 4.13646 -0.573323 0
M  V30 6532 N 607.499 1.09233 1.13605 0
M  V30 6533 C 608.748 0.82205 1.84188 0
M  V30 6534 C 609.061 -0.654548 1.84323 0
M  V30 6535 O 610.267 -1.04029 2.50779 0
M  V30 6536 C 608.723 1.42066 3.30674 0
M  V30 6537 C 608.331 2.92965 3.38933 0
M  V30 6538 C 610.075 1.22924 4.06313 0
M  V30 6539 C 607.982 3.45922 4.79679 0
M  V30 6540 H 606.912 0.303854 0.690064 0
M  V30 6541 H 609.563 1.31479 1.28006 0
M  V30 6542 H 607.945 0.855613 3.86646 0
M  V30 6543 H 609.119 3.55679 2.92966 0
M  V30 6544 H 607.434 3.11118 2.76757 0
M  V30 6545 H 610.031 1.59945 5.10217 0
M  V30 6546 H 610.374 0.169726 4.15954 0
M  V30 6547 H 610.907 1.76168 3.56665 0
M  V30 6548 H 607.646 4.51484 4.75229 0
M  V30 6549 H 607.166 2.87971 5.26149 0
M  V30 6550 H 608.845 3.43009 5.48592 0
M  V30 6551 N 608.977 -1.30795 0.87923 0
M  V30 6552 C 609.887 -2.32041 0.345565 0
M  V30 6553 C 610.903 -1.65103 -0.549265 0
M  V30 6554 O 612.079 -1.9645 -0.443763 0
M  V30 6555 C 609.144 -3.43944 -0.436245 0
M  V30 6556 C 608.205 -4.26521 0.48765 0
M  V30 6557 C 607.438 -5.33081 -0.256943 0
M  V30 6558 O 607.661 -5.50762 -1.48381 0
M  V30 6559 O 606.595 -6.00635 0.389985 0
M  V30 6560 H 610.421 -2.79627 1.18501 0
M  V30 6561 H 608.006 -1.3486 0.642885 0
M  V30 6562 H 609.888 -4.12128 -0.879119 0
M  V30 6563 H 608.563 -2.98504 -1.25208 0
M  V30 6564 H 607.47 -3.61057 0.979216 0
M  V30 6565 H 608.803 -4.75551 1.26933 0
M  V30 6566 N 610.455 -0.639598 -1.44038 0
M  V30 6567 C 611.403 0.0723409 -2.32487 0
M  V30 6568 C 612.397 0.827129 -1.47834 0
M  V30 6569 O 613.603 0.73907 -1.64127 0
M  V30 6570 H 609.978 0.0421696 -0.750817 0
M  V30 6571 H 611.949 -0.691593 -2.90275 0
M  V30 6572 C 610.698 1.03452 -3.31953 0
M  V30 6573 H 610.021 0.46315 -3.97108 0
M  V30 6574 H 611.461 1.502 -3.96505 0
M  V30 6575 C 609.92 2.12392 -2.61518 0
M  V30 6576 O 610.45 3.2059 -2.42044 0
M  V30 6577 N 608.656 1.88563 -2.21116 0
M  V30 6578 H 608.203 1.00577 -2.37154 0
M  V30 6579 H 608.161 2.61651 -1.74316 0
M  V30 6580 N 611.933 1.52934 -0.380664 0
M  V30 6581 C 613.349 1.59571 -0.0302429 0
M  V30 6582 C 613.549 1.39509 1.45394 0
M  V30 6583 O 612.605 1.20777 2.21741 0
M  V30 6584 C 613.918 2.96519 -0.499691 0
M  V30 6585 C 615.466 3.09672 -0.455204 0
M  V30 6586 C 615.941 4.49056 -0.900703 0
M  V30 6587 N 617.432 4.55215 -0.856367 0
M  V30 6588 C 618.167 5.61282 -1.17259 0
M  V30 6589 N 617.663 6.75035 -1.55885 0
M  V30 6590 N 619.456 5.51343 -1.0944 0
M  V30 6591 H 611.607 1.64224 -1.347 0
M  V30 6592 H 613.87 0.771033 -0.551554 0
M  V30 6593 H 613.576 3.16388 -1.53595 0
M  V30 6594 H 613.45 3.77052 0.105789 0
M  V30 6595 H 615.837 2.89504 0.571949 0
M  V30 6596 H 615.918 2.31113 -1.09638 0
M  V30 6597 H 615.562 4.69964 -1.92604 0
M  V30 6598 H 615.492 5.26068 -0.236629 0
M  V30 6599 H 617.983 3.73546 -0.572013 0
M  V30 6600 H 618.296 7.51926 -1.784 0
M  V30 6601 H 616.641 6.76388 -1.59764 0
M  V30 6602 H 619.832 4.61356 -0.791713 0
M  V30 6603 H 620.005 6.33905 -1.34417 0
M  V30 6604 N 613.412 0.11024 1.57214 0
M  V30 6605 C 614.64 -0.557834 1.99238 0
M  V30 6606 C 615.055 -1.60778 0.989734 0
M  V30 6607 O 614.412 -1.82491 -0.0186092 0
M  V30 6608 C 614.463 -1.19189 3.41286 0
M  V30 6609 O 614.184 -0.183919 4.37714 0
M  V30 6610 C 615.685 -1.94413 3.98395 0
M  V30 6611 H 612.905 -0.148392 0.654386 0
M  V30 6612 H 615.449 0.193996 2.03578 0
M  V30 6613 H 613.604 -1.89456 3.37913 0
M  V30 6614 H 614.018 -0.643475 5.20538 0
M  V30 6615 H 615.492 -2.34116 4.99894 0
M  V30 6616 H 615.969 -2.81592 3.3705 0
M  V30 6617 H 616.575 -1.28928 4.05287 0
M  V30 6618 N 614.89 -1.56749 -0.16351 0
M  V30 6619 C 616.136 -1.82704 -0.880168 0
M  V30 6620 C 616.469 -0.689311 -1.81555 0
M  V30 6621 O 615.744 0.308224 -1.92042 0
M  V30 6622 C 616.027 -3.19084 -1.66905 0
M  V30 6623 C 615.88 -4.43397 -0.756269 0
M  V30 6624 C 617.199 -3.52493 -2.63509 0
M  V30 6625 H 614.318 -0.664608 -0.318535 0
M  V30 6626 H 616.96 -1.89438 -0.146036 0
M  V30 6627 H 615.11 -3.13475 -2.2949 0
M  V30 6628 H 616.782 -4.61079 -0.14269 0
M  V30 6629 H 615.025 -4.33752 -0.0647944 0
M  V30 6630 H 615.696 -5.3539 -1.34393 0
M  V30 6631 H 618.172 -3.58606 -2.11047 0
M  V30 6632 H 617.048 -4.48979 -3.15767 0
M  V30 6633 H 617.309 -2.77597 -3.44082 0
M  V30 6634 N 616.368 0.432326 -1.51554 0
M  V30 6635 C 617.614 1.18309 -1.64714 0
M  V30 6636 C 617.947 1.90745 -0.364696 0
M  V30 6637 O 617.222 1.8381 0.635936 0
M  V30 6638 C 617.505 2.1961 -2.85383 0
M  V30 6639 C 617.358 1.51223 -4.23617 0
M  V30 6640 C 618.677 3.20538 -3.01569 0
M  V30 6641 H 615.796 0.428751 -0.599451 0
M  V30 6642 H 618.438 0.471689 -1.84052 0
M  V30 6643 H 616.588 2.8028 -2.69027 0
M  V30 6644 H 618.26 0.938516 -4.51652 0
M  V30 6645 H 616.503 0.814501 -4.26085 0
M  V30 6646 H 617.174 2.25024 -5.04052 0
M  V30 6647 H 619.65 2.69926 -3.16669 0
M  V30 6648 H 618.526 3.88706 -3.87555 0
M  V30 6649 H 618.787 3.86933 -2.13859 0
M  V30 6650 N 617.846 1.41785 0.688094 0
M  V30 6651 C 619.092 1.41753 1.4503 0
M  V30 6652 C 619.425 0.0290745 1.94178 0
M  V30 6653 O 618.7 -0.944456 1.7003 0
M  V30 6654 C 618.983 2.43069 2.65686 0
M  V30 6655 C 618.836 3.91053 2.22256 0
M  V30 6656 C 620.155 2.41543 3.67893 0
M  V30 6657 H 617.274 0.516202 0.526027 0
M  V30 6658 H 619.916 1.73111 0.783105 0
M  V30 6659 H 618.066 2.1646 3.2261 0
M  V30 6660 H 619.738 4.28594 1.70602 0
M  V30 6661 H 617.981 4.05559 1.53963 0
M  V30 6662 H 618.652 4.57501 3.08863 0
M  V30 6663 H 621.128 2.65175 3.20658 0
M  V30 6664 H 620.004 3.14434 4.49914 0
M  V30 6665 H 620.265 1.43666 4.18106 0
M  V30 6666 N 619.324 -0.923095 1.27737 0
M  V30 6667 C 620.552 -1.70525 1.17171 0
M  V30 6668 C 620.967 -1.86847 -0.270881 0
M  V30 6669 O 620.324 -1.38879 -1.18401 0
M  V30 6670 C 620.375 -3.10242 1.85559 0
M  V30 6671 O 620.096 -2.94683 3.24182 0
M  V30 6672 C 621.597 -4.04586 1.81176 0
M  V30 6673 H 618.817 -0.533347 0.407163 0
M  V30 6674 H 621.361 -1.15599 1.68692 0
M  V30 6675 H 619.516 -3.62014 1.3793 0
M  V30 6676 H 619.93 -3.83045 3.58297 0
M  V30 6677 H 621.404 -5.00119 2.33633 0
M  V30 6678 H 621.881 -4.3218 0.782099 0
M  V30 6679 H 622.487 -3.58741 2.2844 0
M  V30 6680 N 620.802 -1.09834 -1.13024 0
M  V30 6681 C 622.03 -0.858902 -1.8823 0
M  V30 6682 C 622.445 0.590164 -1.79339 0
M  V30 6683 O 621.802 1.4065 -1.16292 0
M  V30 6684 C 621.853 -1.29066 -3.37675 0
M  V30 6685 O 621.574 -2.6829 -3.46341 0
M  V30 6686 C 623.075 -1.08421 -4.29837 0
M  V30 6687 H 620.295 -0.308713 -0.595766 0
M  V30 6688 H 622.839 -1.4614 -1.4305 0
M  V30 6689 H 620.994 -0.731961 -3.80422 0
M  V30 6690 H 621.408 -2.86598 -4.39274 0
M  V30 6691 H 622.882 -1.43553 -5.33007 0
M  V30 6692 H 623.359 -0.0223315 -4.39194 0
M  V30 6693 H 623.965 -1.62907 -3.92863 0
M  V30 6694 N 622.28 1.30327 -0.886154 0
M  V30 6695 C 623.529 1.95373 -0.501243 0
M  V30 6696 C 623.842 1.70722 0.954634 0
M  V30 6697 O 625.048 2.29761 1.44644 0
M  V30 6698 C 623.504 3.49828 -0.845493 0
M  V30 6699 C 623.112 3.83296 -2.31922 0
M  V30 6700 C 624.856 4.2118 -0.529838 0
M  V30 6701 C 622.763 5.30935 -2.60504 0
M  V30 6702 H 621.693 0.731274 -0.183722 0
M  V30 6703 H 624.344 1.48258 -1.08129 0
M  V30 6704 H 622.726 3.95522 -0.19452 0
M  V30 6705 H 623.9 3.48508 -3.01461 0
M  V30 6706 H 622.215 3.2505 -2.60253 0
M  V30 6707 H 624.812 5.29825 -0.720401 0
M  V30 6708 H 625.155 4.12902 0.530828 0
M  V30 6709 H 625.688 3.81173 -1.13806 0
M  V30 6710 H 622.427 5.44265 -3.65316 0
M  V30 6711 H 621.947 5.67019 -1.95575 0
M  V30 6712 H 623.626 5.98381 -2.46066 0
M  V30 6713 N 623.758 0.647228 1.43697 0
M  V30 6714 C 624.691 -0.097646 2.27991 0
M  V30 6715 C 625.669 -0.83571 1.3948 0
M  V30 6716 O 626.853 -0.836509 1.68922 0
M  V30 6717 C 623.98 -1.14484 3.18765 0
M  V30 6718 C 623.026 -0.505503 4.23494 0
M  V30 6719 S 623.859 0.716471 5.30685 0
M  V30 6720 C 625.015 -0.330339 6.25028 0
M  V30 6721 H 625.248 0.617417 2.90818 0
M  V30 6722 H 622.781 0.435881 1.4812 0
M  V30 6723 H 624.739 -1.74403 3.7161 0
M  V30 6724 H 623.4 -1.83219 2.55127 0
M  V30 6725 H 622.593 -1.29473 4.87086 0
M  V30 6726 H 622.195 0.0194377 3.73995 0
M  V30 6727 H 624.487 -1.19828 6.66819 0
M  V30 6728 H 625.43 0.270409 7.07583 0
M  V30 6729 H 625.838 -0.663459 5.60588 0
M  V30 6730 N 625.236 -1.5273 0.388769 0
M  V30 6731 C 626.146 -2.30165 -0.453993 0
M  V30 6732 C 627.162 -1.37058 -1.07197 0
M  V30 6733 O 628.338 -1.70127 -1.0779 0
M  V30 6734 C 625.403 -3.09303 -1.56628 0
M  V30 6735 C 624.464 -4.18117 -0.973467 0
M  V30 6736 C 623.697 -4.93472 -2.03275 0
M  V30 6737 O 623.92 -4.68913 -3.24772 0
M  V30 6738 O 622.854 -5.78833 -1.65034 0
M  V30 6739 H 626.68 -3.03185 0.176816 0
M  V30 6740 H 624.265 -1.4862 0.152501 0
M  V30 6741 H 626.147 -3.58648 -2.21246 0
M  V30 6742 H 624.822 -2.39098 -2.18206 0
M  V30 6743 H 623.729 -3.7297 -0.290556 0
M  V30 6744 H 625.062 -4.90556 -0.401908 0
M  V30 6745 N 626.714 -0.118576 -1.57153 0
M  V30 6746 C 627.939 0.550582 -1.99958 0
M  V30 6747 C 628.364 1.59458 -0.997736 0
M  V30 6748 O 627.722 1.81274 0.0306269 0
M  V30 6749 C 627.77 1.15379 -3.41643 0
M  V30 6750 O 626.874 2.26932 -3.44348 0
M  V30 6751 H 626.215 0.137567 -0.649593 0
M  V30 6752 H 628.745 -0.206926 -2.03551 0
M  V30 6753 H 628.755 1.48942 -3.79843 0
M  V30 6754 H 627.43 0.389087 -4.14076 0
M  V30 6755 H 626.007 1.94812 -3.17967 0
M  V30 6756 N 628.193 1.56834 0.155195 0
M  V30 6757 C 629.604 1.72421 0.716082 0
M  V30 6758 C 629.955 0.731685 1.82046 0
M  V30 6759 O 629.08 -0.103481 2.16152 0
M  V30 6760 C 629.675 3.12629 1.30571 0
M  V30 6761 C 628.234 3.29846 1.81325 0
M  V30 6762 C 627.381 2.68359 0.698494 0
M  V30 6763 H 630.332 1.58544 -0.0703861 0
M  V30 6764 H 630.353 3.12174 2.1755 0
M  V30 6765 H 629.865 3.84844 0.501701 0
M  V30 6766 H 627.966 2.62614 2.64319 0
M  V30 6767 H 628.079 4.37727 1.9476 0
M  V30 6768 H 626.443 2.28604 1.12305 0
M  V30 6769 H 627.226 3.43171 -0.0939366 0
M  V30 6770 N 629.671 -0.424282 1.51781 0
M  V30 6771 C 630.901 -1.19297 1.68677 0
M  V30 6772 C 631.309 -1.85152 0.389258 0
M  V30 6773 O 630.652 -1.72067 -0.643311 0
M  V30 6774 C 630.714 -2.30929 2.75521 0
M  V30 6775 C 630.378 -1.85335 4.17732 0
M  V30 6776 C 631.375 -1.34951 5.0208 0
M  V30 6777 C 629.06 -1.92629 4.63896 0
M  V30 6778 C 631.054 -0.924636 6.30658 0
M  V30 6779 C 628.741 -1.49754 5.92467 0
M  V30 6780 C 629.739 -0.997543 6.75676 0
M  V30 6781 O 629.427 -0.57492 8.01842 0
M  V30 6782 H 629.159 -0.36512 0.568914 0
M  V30 6783 H 631.713 -0.507327 1.99036 0
M  V30 6784 H 629.943 -3.02811 2.40505 0
M  V30 6785 H 631.632 -2.92748 2.81165 0
M  V30 6786 H 632.398 -1.287 4.67612 0
M  V30 6787 H 628.277 -2.30491 3.99243 0
M  V30 6788 H 631.821 -0.533682 6.95556 0
M  V30 6789 H 627.718 -1.55679 6.26446 0
M  V30 6790 H 628.486 -0.699597 8.15505 0
M  V30 6791 N 631.149 -1.42148 -0.680565 0
M  V30 6792 C 632.395 -1.42521 -1.44277 0
M  V30 6793 C 632.728 -0.0393718 -1.9416 0
M  V30 6794 O 632.003 0.935425 -1.70529 0
M  V30 6795 C 632.286 -2.44475 -2.64394 0
M  V30 6796 C 632.139 -3.92226 -2.20179 0
M  V30 6797 C 633.458 -2.43491 -3.66606 0
M  V30 6798 H 630.577 -0.518985 -0.523282 0
M  V30 6799 H 633.219 -1.73524 -0.773914 0
M  V30 6800 H 631.369 -2.18168 -3.21458 0
M  V30 6801 H 633.041 -4.29493 -1.68327 0
M  V30 6802 H 631.284 -4.0637 -1.5181 0
M  V30 6803 H 631.955 -4.59133 -3.06433 0
M  V30 6804 H 634.431 -2.66872 -3.19247 0
M  V30 6805 H 633.307 -3.16816 -4.4824 0
M  V30 6806 H 633.568 -1.45881 -4.17338 0
M  V30 6807 N 632.627 0.916307 -1.28225 0
M  V30 6808 C 633.56 2.01954 -1.06254 0
M  V30 6809 C 634.538 1.62587 0.0205983 0
M  V30 6810 O 635.722 1.88073 -0.126824 0
M  V30 6811 C 632.849 3.33086 -0.614141 0
M  V30 6812 C 631.895 3.91435 -1.69354 0
M  V30 6813 S 632.728 4.22603 -3.28887 0
M  V30 6814 C 633.884 5.568 -2.85876 0
M  V30 6815 H 634.117 2.20281 -1.99659 0
M  V30 6816 H 631.65 1.06085 -1.12184 0
M  V30 6817 H 633.608 4.089 -0.36213 0
M  V30 6818 H 632.269 3.12664 0.300036 0
M  V30 6819 H 631.462 4.86098 -1.33136 0
M  V30 6820 H 631.064 3.22248 -1.89821 0
M  V30 6821 H 633.356 6.3658 -2.31888 0
M  V30 6822 H 634.299 5.97927 -3.79326 0
M  V30 6823 H 634.707 5.17865 -2.24669 0
M  V30 6824 N 634.105 1.10431 1.1244 0
M  V30 6825 C 635.335 0.867612 1.87499 0
M  V30 6826 C 635.743 -0.585475 1.79913 0
M  V30 6827 O 635.086 -1.41539 1.171 0
M  V30 6828 C 635.148 1.2374 3.37533 0
M  V30 6829 C 634.812 2.69751 3.68895 0
M  V30 6830 C 635.809 3.67988 3.67261 0
M  V30 6831 C 633.494 3.06135 3.98229 0
M  V30 6832 C 635.488 5.00632 3.9452 0
M  V30 6833 C 633.175 4.38967 4.25149 0
M  V30 6834 C 634.173 5.36025 4.23281 0
M  V30 6835 O 633.861 6.66465 4.49533 0
M  V30 6836 H 633.593 0.311196 0.600111 0
M  V30 6837 H 636.147 1.47257 1.43194 0
M  V30 6838 H 634.377 0.575537 3.82393 0
M  V30 6839 H 636.066 0.978187 3.93937 0
M  V30 6840 H 636.832 3.41224 3.44661 0
M  V30 6841 H 632.711 2.31214 3.98825 0
M  V30 6842 H 636.255 5.7638 3.92978 0
M  V30 6843 H 632.152 4.6547 4.47223 0
M  V30 6844 H 632.92 6.72095 4.67152 0
M  V30 6845 N 635.583 -1.29855 0.893053 0
M  V30 6846 C 636.53 -2.27909 0.364161 0
M  V30 6847 C 637.5 -1.56726 -0.550093 0
M  V30 6848 O 638.685 -1.84747 -0.47677 0
M  V30 6849 C 635.825 -3.42678 -0.408178 0
M  V30 6850 C 634.938 -4.28659 0.536212 0
M  V30 6851 C 634.073 -5.30599 -0.252521 0
M  V30 6852 C 633.112 -6.08234 0.686822 0
M  V30 6853 N 632.249 -7.02068 -0.0670902 0
M  V30 6854 H 637.089 -2.72531 1.20544 0
M  V30 6855 H 634.626 -1.34047 0.605779 0
M  V30 6856 H 636.584 -4.07986 -0.871962 0
M  V30 6857 H 635.214 -2.99103 -1.21397 0
M  V30 6858 H 634.266 -3.63584 1.1185 0
M  V30 6859 H 635.578 -4.8274 1.25552 0
M  V30 6860 H 634.732 -6.01694 -0.777801 0
M  V30 6861 H 633.471 -4.77233 -1.005 0
M  V30 6862 H 632.476 -5.3601 1.22366 0
M  V30 6863 H 633.701 -6.63689 1.43852 0
M  V30 6864 H 631.647 -6.5108 -0.801955 0
M  V30 6865 H 631.564 -7.53675 0.59243 0
M  V30 6866 H 632.832 -7.77392 -0.572851 0
M  V30 6867 N 637.061 -0.65484 -1.43351 0
M  V30 6868 C 638.008 0.0357713 -2.30772 0
M  V30 6869 C 638.978 0.813035 -1.44841 0
M  V30 6870 O 640.163 0.789314 -1.73708 0
M  V30 6871 C 637.303 0.995084 -3.30442 0
M  V30 6872 C 636.416 0.21375 -4.31471 0
M  V30 6873 C 635.551 1.16701 -5.18222 0
M  V30 6874 C 634.59 0.376201 -6.10943 0
M  V30 6875 N 633.727 1.28113 -6.90313 0
M  V30 6876 H 638.567 -0.71559 -2.89281 0
M  V30 6877 H 636.104 -0.364645 -1.42509 0
M  V30 6878 H 638.062 1.5649 -3.86739 0
M  V30 6879 H 636.692 1.7133 -2.7358 0
M  V30 6880 H 635.744 -0.472377 -3.77456 0
M  V30 6881 H 637.056 -0.401103 -4.97185 0
M  V30 6882 H 636.21 1.8074 -5.79153 0
M  V30 6883 H 634.949 1.81577 -4.52638 0
M  V30 6884 H 633.954 -0.277534 -5.49099 0
M  V30 6885 H 635.179 -0.268178 -6.7857 0
M  V30 6886 H 633.125 1.91666 -6.27376 0
M  V30 6887 H 633.042 0.720879 -7.52555 0
M  V30 6888 H 634.31 1.90962 -7.55747 0
M  V30 6889 N 638.539 1.52521 -0.396863 0
M  V30 6890 C 639.487 2.28217 0.44943 0
M  V30 6891 C 640.481 1.32416 1.05652 0
M  V30 6892 O 641.687 1.49925 0.996124 0
M  V30 6893 H 638.062 0.733966 0.1637 0
M  V30 6894 H 640.033 2.97658 -0.210367 0
M  V30 6895 C 638.782 3.10713 1.56054 0
M  V30 6896 H 638.105 3.84291 1.10273 0
M  V30 6897 H 639.545 3.66803 2.12677 0
M  V30 6898 C 638.004 2.23499 2.52091 0
M  V30 6899 O 638.534 1.8669 3.55682 0
M  V30 6900 N 636.74 1.8751 2.2201 0
M  V30 6901 H 636.287 2.17643 1.37802 0
M  V30 6902 H 636.245 1.29448 2.86514 0
M  V30 6903 N 640.017 0.126909 1.57088 0
M  V30 6904 C 640.967 -0.831678 2.1229 0
M  V30 6905 C 641.951 -1.22292 1.04564 0
M  V30 6906 O 643.143 -1.19269 1.30782 0
M  V30 6907 C 640.272 -2.07866 2.73215 0
M  V30 6908 C 639.358 -1.71143 3.88035 0
M  V30 6909 N 639.749 -1.05136 4.94753 0
M  V30 6910 C 638.047 -2.00549 3.98367 0
M  V30 6911 C 638.748 -0.877257 5.75047 0
M  V30 6912 N 637.724 -1.40477 5.25135 0
M  V30 6913 H 641.526 -0.317926 2.92175 0
M  V30 6914 H 639.04 -0.0753052 1.62225 0
M  V30 6915 H 641.037 -2.77516 3.11111 0
M  V30 6916 H 639.697 -2.59778 1.94796 0
M  V30 6917 H 640.708 -0.71442 5.12949 0
M  V30 6918 H 637.385 -2.54452 3.30999 0
M  V30 6919 H 638.775 -0.358536 6.70943 0
M  V30 6920 N 641.495 -1.56914 -0.146875 0
M  V30 6921 C 642.405 -2.0154 -1.20079 0
M  V30 6922 C 643.421 -0.930838 -1.47008 0
M  V30 6923 O 644.597 -1.24032 -1.58676 0
M  V30 6924 C 641.662 -2.38715 -2.51428 0
M  V30 6925 C 640.723 -3.6112 -2.32145 0
M  V30 6926 C 639.956 -3.96512 -3.57231 0
M  V30 6927 O 640.179 -3.32566 -4.63418 0
M  V30 6928 O 639.113 -4.89758 -3.49887 0
M  V30 6929 H 642.939 -2.91506 -0.851924 0
M  V30 6930 H 640.524 -1.45106 -0.355607 0
M  V30 6931 H 642.406 -2.63485 -3.28867 0
M  V30 6932 H 641.081 -1.51903 -2.85845 0
M  V30 6933 H 639.988 -3.41536 -1.52656 0
M  V30 6934 H 641.321 -4.48549 -2.02644 0
M  V30 6935 N 642.974 0.416227 -1.52004 0
M  V30 6936 C 643.907 1.52736 -1.6955 0
M  V30 6937 C 644.885 1.53264 -0.54305 0
M  V30 6938 O 646.069 1.72077 -0.769527 0
M  V30 6939 C 643.196 2.91283 -1.72835 0
M  V30 6940 C 642.242 3.08695 -2.94295 0
M  V30 6941 S 643.075 2.82758 -4.54762 0
M  V30 6942 C 644.231 4.23548 -4.60823 0
M  V30 6943 H 644.464 1.37623 -2.63528 0
M  V30 6944 H 641.997 0.607335 -1.41954 0
M  V30 6945 H 643.955 3.71134 -1.75413 0
M  V30 6946 H 642.616 3.03742 -0.799966 0
M  V30 6947 H 641.809 4.10042 -2.93056 0
M  V30 6948 H 641.411 2.36699 -2.89568 0
M  V30 6949 H 643.703 5.17078 -4.37763 0
M  V30 6950 H 644.646 4.29813 -5.62731 0
M  V30 6951 H 645.054 4.08188 -3.89927 0
M  V30 6952 N 644.452 1.42507 0.673017 0
M  V30 6953 C 645.699 1.43072 1.43306 0
M  V30 6954 C 646.027 0.0478004 1.94441 0
M  V30 6955 O 645.282 -0.944106 1.71421 0
M  V30 6956 C 645.581 2.40351 2.64511 0
M  V30 6957 C 645.247 3.8669 2.31908 0
M  V30 6958 C 643.909 4.26551 2.22728 0
M  V30 6959 C 646.261 4.78991 2.05467 0
M  V30 6960 C 643.589 5.56691 1.85234 0
M  V30 6961 C 645.941 6.09476 1.69477 0
M  V30 6962 C 644.605 6.48334 1.58808 0
M  V30 6963 H 643.875 0.523536 0.524395 0
M  V30 6964 H 646.522 1.75459 0.76723 0
M  V30 6965 H 644.827 2.01297 3.36135 0
M  V30 6966 H 646.524 2.38051 3.22696 0
M  V30 6967 H 643.114 3.55132 2.39956 0
M  V30 6968 H 647.298 4.48982 2.11492 0
M  V30 6969 H 642.554 5.85657 1.75545 0
M  V30 6970 H 646.728 6.80482 1.48043 0
M  V30 6971 H 644.355 7.49084 1.29525 0
M  V30 6972 N 645.93 -0.909495 1.28709 0
M  V30 6973 C 646.84 -2.04558 1.14861 0
M  V30 6974 C 647.856 -1.73842 0.0741621 0
M  V30 6975 O 649.032 -1.99383 0.2843 0
M  V30 6976 C 646.097 -3.36957 0.816148 0
M  V30 6977 C 645.158 -3.81255 1.97341 0
M  V30 6978 C 644.391 -5.07335 1.65671 0
M  V30 6979 O 644.614 -5.67514 0.573053 0
M  V30 6980 O 643.548 -5.47449 2.50167 0
M  V30 6981 H 647.374 -2.19161 2.10243 0
M  V30 6982 H 644.959 -1.03159 1.08068 0
M  V30 6983 H 646.841 -4.16436 0.644873 0
M  V30 6984 H 645.516 -3.2352 -0.107983 0
M  V30 6985 H 644.423 -3.02584 2.19986 0
M  V30 6986 H 645.756 -3.99261 2.87839 0
M  V30 6987 N 647.408 -1.11026 -1.11852 0
M  V30 6988 C 648.656 -0.854769 -1.83134 0
M  V30 6989 C 648.977 0.621375 -1.84835 0
M  V30 6990 O 648.247 1.45129 -1.31584 0
M  V30 6991 H 646.827 -0.313229 -0.678157 0
M  V30 6992 H 649.489 -1.40178 -1.35411 0
M  V30 6993 H 648.585 -1.22311 -2.87135 0
M  V30 6994 N 648.886 1.2938 -0.899927 0
M  V30 6995 C 649.834 2.29675 -0.367698 0
M  V30 6996 C 650.828 1.60787 0.533282 0
M  V30 6997 O 652.034 1.75126 0.416058 0
M  V30 6998 H 648.409 0.745284 -0.100279 0
M  V30 6999 H 650.38 2.72008 -1.22696 0
M  V30 7000 C 649.129 3.45512 0.389483 0
M  V30 7001 H 648.452 3.98713 -0.294575 0
M  V30 7002 H 649.892 4.17725 0.726744 0
M  V30 7003 C 648.351 2.969 1.59223 0
M  V30 7004 O 648.881 2.98195 2.69152 0
M  V30 7005 N 647.087 2.52728 1.43447 0
M  V30 7006 H 646.634 2.51873 0.540148 0
M  V30 7007 H 646.592 2.20561 2.24054 0
M  V30 7008 N 650.364 0.662433 1.43002 0
M  V30 7009 C 651.641 0.109096 1.95296 0
M  V30 7010 C 652.021 -1.37313 1.60338 0
M  V30 7011 O 651.369 -2.1032 0.893187 0
M  V30 7012 C 651.579 0.365096 3.47085 0
M  V30 7013 C 652.927 0.274964 4.23709 0
M  V30 7014 O 653.951 0.29816 3.5495 0
M  V30 7015 O 652.81 0.206549 5.4611 0
M  V30 7016 H 649.904 -0.00429724 0.826989 0
M  V30 7017 H 652.45 0.736308 1.52894 0
M  V30 7018 H 651.222 1.39237 3.65689 0
M  V30 7019 H 650.845 -0.294733 3.96506 0
M  V30 7020 N 651.842 -1.52309 0.404946 0
M  V30 7021 C 652.789 -2.26898 -0.422597 0
M  V30 7022 C 653.759 -1.2914 -1.04461 0
M  V30 7023 O 654.944 -1.57996 -1.06967 0
M  V30 7024 C 652.084 -3.09053 -1.53559 0
M  V30 7025 C 651.197 -4.21762 -0.934908 0
M  V30 7026 C 650.332 -4.91283 -2.02025 0
M  V30 7027 C 649.371 -5.95962 -1.39628 0
M  V30 7028 N 648.508 -6.59017 -2.42159 0
M  V30 7029 H 653.348 -2.97188 0.219903 0
M  V30 7030 H 650.885 -1.46607 0.120282 0
M  V30 7031 H 652.843 -3.54987 -2.19181 0
M  V30 7032 H 651.473 -2.40942 -2.14818 0
M  V30 7033 H 650.525 -3.80029 -0.167854 0
M  V30 7034 H 651.837 -4.96864 -0.439073 0
M  V30 7035 H 650.991 -5.40601 -2.75383 0
M  V30 7036 H 649.73 -4.15741 -2.54973 0
M  V30 7037 H 648.735 -5.45968 -0.648023 0
M  V30 7038 H 649.96 -6.73445 -0.874553 0
M  V30 7039 H 647.906 -5.86306 -2.94247 0
M  V30 7040 H 647.823 -7.2978 -1.97376 0
M  V30 7041 H 649.091 -7.12974 -3.15099 0
M  V30 7042 N 653.32 -0.135238 -1.57019 0
M  V30 7043 C 654.55 0.525303 -1.9981 0
M  V30 7044 C 654.958 1.59724 -1.01415 0
M  V30 7045 O 654.301 1.837 -0.00130938 0
M  V30 7046 C 654.363 1.19578 -3.3903 0
M  V30 7047 C 654.027 0.269855 -4.56203 0
M  V30 7048 C 655.024 -0.497905 -5.1751 0
M  V30 7049 C 652.709 0.176188 -5.01991 0
M  V30 7050 C 654.703 -1.3469 -6.23007 0
M  V30 7051 C 652.39 -0.676422 -6.07345 0
M  V30 7052 C 653.388 -1.43658 -6.67721 0
M  V30 7053 O 653.076 -2.27501 -7.71037 0
M  V30 7054 H 652.808 0.142296 -0.660854 0
M  V30 7055 H 655.362 -0.223272 -2.04183 0
M  V30 7056 H 653.592 1.99176 -3.3146 0
M  V30 7057 H 655.281 1.75486 -3.66005 0
M  V30 7058 H 656.047 -0.435507 -4.83041 0
M  V30 7059 H 651.926 0.757583 -4.54733 0
M  V30 7060 H 655.47 -1.9407 -6.70062 0
M  V30 7061 H 651.367 -0.740154 -6.41243 0
M  V30 7062 H 652.135 -2.20619 -7.88206 0
M  V30 7063 N 654.798 1.5699 0.138552 0
M  V30 7064 C 655.708 2.02174 1.19008 0
M  V30 7065 C 656.724 0.938622 1.46512 0
M  V30 7066 O 657.9 1.24872 1.58016 0
M  V30 7067 C 654.965 2.40045 2.50159 0
M  V30 7068 C 654.026 3.62346 2.30226 0
M  V30 7069 C 653.259 3.98401 3.55123 0
M  V30 7070 O 653.482 3.35019 4.61647 0
M  V30 7071 O 652.416 4.91606 3.47285 0
M  V30 7072 H 656.242 2.91954 0.836452 0
M  V30 7073 H 653.827 1.45293 0.347907 0
M  V30 7074 H 655.709 2.65225 3.27465 0
M  V30 7075 H 654.384 1.53417 2.85035 0
M  V30 7076 H 653.291 3.42341 1.50843 0
M  V30 7077 H 654.624 4.49617 2.00262 0
M  V30 7078 N 656.276 -0.40816 1.52223 0
M  V30 7079 C 657.524 -1.15274 1.66001 0
M  V30 7080 C 657.845 -1.91003 0.392803 0
M  V30 7081 O 657.115 -1.8673 -0.592336 0
M  V30 7082 H 655.695 -0.428526 0.611861 0
M  V30 7083 H 658.357 -0.46512 1.89269 0
M  V30 7084 H 657.453 -1.86628 2.50153 0
M  V30 7085 N 657.755 -1.42862 -0.66545 0
M  V30 7086 C 658.985 -1.47032 -1.45138 0
M  V30 7087 C 659.393 -0.0829977 -1.89018 0
M  V30 7088 O 658.736 0.914551 -1.59316 0
M  V30 7089 C 658.798 -2.34302 -2.72659 0
M  V30 7090 C 658.462 -3.82034 -2.50796 0
M  V30 7091 C 659.459 -4.73453 -2.14799 0
M  V30 7092 C 657.144 -4.26397 -2.655 0
M  V30 7093 C 659.138 -6.07228 -1.93785 0
M  V30 7094 C 656.825 -5.6023 -2.44103 0
M  V30 7095 C 657.823 -6.50462 -2.08299 0
M  V30 7096 O 657.511 -7.8182 -1.87116 0
M  V30 7097 H 657.243 -0.501969 -0.452772 0
M  V30 7098 H 659.797 -1.88137 -0.82423 0
M  V30 7099 H 658.027 -1.88063 -3.37889 0
M  V30 7100 H 659.716 -2.29818 -3.34572 0
M  V30 7101 H 660.482 -4.4046 -2.03026 0
M  V30 7102 H 656.361 -3.56448 -2.92345 0
M  V30 7103 H 659.905 -6.7762 -1.65763 0
M  V30 7104 H 655.802 -5.92793 -2.55475 0
M  V30 7105 H 656.57 -7.93274 -2.01639 0
M  V30 7106 N 659.233 0.902656 -1.29189 0
M  V30 7107 C 660.473 1.6672 -1.18254 0
M  V30 7108 C 660.837 1.90199 0.262336 0
M  V30 7109 O 662.038 2.6421 0.494612 0
M  V30 7110 C 660.309 2.98178 -1.9704 0
M  V30 7111 S 661.868 3.89226 -2.02605 0
M  V30 7112 H 658.686 0.572432 -0.421714 0
M  V30 7113 H 661.288 1.07279 -1.63436 0
M  V30 7114 H 659.992 2.788 -3.01163 0
M  V30 7115 H 659.523 3.62661 -1.5245 0
M  V30 7116 H 661.538 4.82913 -1.14059 0
M  V30 7117 N 660.711 1.11618 1.11262 0
M  V30 7118 C 661.957 0.867463 1.83311 0
M  V30 7119 C 662.29 -0.605366 1.84524 0
M  V30 7120 O 661.565 -1.44704 1.29965 0
M  V30 7121 C 661.848 1.43207 3.30399 0
M  V30 7122 C 661.701 2.97265 3.3757 0
M  V30 7123 C 663.02 1.08454 4.26528 0
M  V30 7124 H 660.139 0.316578 0.665543 0
M  V30 7125 H 662.781 1.38137 1.30454 0
M  V30 7126 H 660.931 0.994982 3.75543 0
M  V30 7127 H 662.603 3.49591 3.00971 0
M  V30 7128 H 660.846 3.33237 2.77733 0
M  V30 7129 H 661.517 3.31859 4.41105 0
M  V30 7130 H 663.993 1.4619 3.89574 0
M  V30 7131 H 662.869 1.50633 5.27826 0
M  V30 7132 H 663.13 -0.00444568 4.421 0
M  V30 7133 N 662.189 -1.289 0.906776 0
M  V30 7134 C 663.466 -1.90221 0.455537 0
M  V30 7135 C 663.846 -1.82251 -1.06527 0
M  V30 7136 O 663.194 -1.25385 -1.91026 0
M  V30 7137 C 663.404 -3.35015 0.97806 0
M  V30 7138 C 664.752 -4.12018 1.02598 0
M  V30 7139 O 665.776 -3.43947 0.926218 0
M  V30 7140 O 664.635 -5.33677 1.17689 0
M  V30 7141 H 661.729 -0.814505 0.143214 0
M  V30 7142 H 664.275 -1.37317 0.997104 0
M  V30 7143 H 663.047 -3.35006 2.02204 0
M  V30 7144 H 662.67 -3.95408 0.416914 0
M  V30 7145 N 663.667 -0.670007 -1.42649 0
M  V30 7146 C 664.597 -0.00258501 -2.335 0
M  V30 7147 C 665.578 0.794364 -1.50412 0
M  V30 7148 O 666.763 0.75248 -1.79029 0
M  V30 7149 C 663.893 0.952748 -3.33976 0
M  V30 7150 C 662.847 0.264733 -4.2718 0
M  V30 7151 C 662.173 1.33267 -5.17826 0
M  V30 7152 C 663.473 -0.853289 -5.15283 0
M  V30 7153 H 665.167 -0.761326 -2.89559 0
M  V30 7154 H 662.713 -0.367561 -1.3923 0
M  V30 7155 H 664.666 1.4287 -3.96442 0
M  V30 7156 H 663.39 1.74285 -2.7621 0
M  V30 7157 H 662.049 -0.190938 -3.66102 0
M  V30 7158 H 661.697 2.11464 -4.5639 0
M  V30 7159 H 661.397 0.877476 -5.81011 0
M  V30 7160 H 662.921 1.80965 -5.83167 0
M  V30 7161 H 664.335 -0.458763 -5.71462 0
M  V30 7162 H 662.732 -1.23398 -5.87276 0
M  V30 7163 H 663.802 -1.70412 -4.53969 0
M  V30 7164 N 665.145 1.52092 -0.413018 0
M  V30 7165 C 666.108 2.25706 0.398687 0
M  V30 7166 C 667.108 1.28221 0.970368 0
M  V30 7167 O 668.298 1.52131 0.848635 0
M  V30 7168 C 665.43 3.03029 1.5616 0
M  V30 7169 H 666.623 2.98888 -0.246131 0
M  V30 7170 H 664.176 1.5542 -0.165622 0
M  V30 7171 H 664.911 2.34205 2.24317 0
M  V30 7172 H 664.696 3.74606 1.15812 0
M  V30 7173 H 666.186 3.58857 2.13569 0
M  V30 7174 N 666.623 0.143563 1.56945 0
M  V30 7175 C 667.848 -0.518701 2.00809 0
M  V30 7176 C 668.273 -1.5785 1.02298 0
M  V30 7177 O 667.631 -1.813 -0.0017839 0
M  V30 7178 C 667.679 -1.09929 3.43436 0
M  V30 7179 O 666.783 -2.21425 3.47915 0
M  V30 7180 H 666.124 -0.127215 0.6517 0
M  V30 7181 H 668.654 0.239283 2.03196 0
M  V30 7182 H 668.664 -1.4288 3.82164 0
M  V30 7183 H 667.339 -0.323162 4.14643 0
M  V30 7184 H 665.916 -1.89728 3.21026 0
M  V30 7185 N 668.101 -1.57061 -0.130224 0
M  V30 7186 C 669.011 -2.02802 -1.17934 0
M  V30 7187 C 670.027 -0.946378 -1.46013 0
M  V30 7188 O 671.203 -1.25708 -1.57351 0
M  V30 7189 C 668.268 -2.41368 -2.48882 0
M  V30 7190 C 667.329 -3.63561 -2.28301 0
M  V30 7191 C 666.562 -4.00279 -3.53005 0
M  V30 7192 O 666.785 -3.37463 -4.59864 0
M  V30 7193 O 665.719 -4.93441 -3.44673 0
M  V30 7194 H 669.545 -2.92394 -0.820958 0
M  V30 7195 H 667.13 -1.45475 -0.340197 0
M  V30 7196 H 669.012 -2.66958 -3.26054 0
M  V30 7197 H 667.687 -1.54926 -2.84217 0
M  V30 7198 H 666.594 -3.43136 -1.49025 0
M  V30 7199 H 667.927 -4.50673 -1.97875 0
M  V30 7200 N 669.579 0.400081 -1.52437 0
M  V30 7201 C 670.828 1.14332 -1.66166 0
M  V30 7202 C 671.141 1.91419 -0.402253 0
M  V30 7203 O 672.347 2.6824 -0.419487 0
M  V30 7204 C 670.803 2.08137 -2.9361 0
M  V30 7205 C 670.411 1.36524 -4.26691 0
M  V30 7206 C 672.155 2.82664 -3.16703 0
M  V30 7207 C 670.062 2.29031 -5.45251 0
M  V30 7208 H 668.992 0.430499 -0.61902 0
M  V30 7209 H 671.643 0.407017 -1.78929 0
M  V30 7210 H 670.025 2.85358 -2.74567 0
M  V30 7211 H 671.199 0.646061 -4.56249 0
M  V30 7212 H 669.514 0.74002 -4.09771 0
M  V30 7213 H 672.111 3.52037 -4.0246 0
M  V30 7214 H 672.454 3.46122 -2.31312 0
M  V30 7215 H 672.987 2.12541 -3.36261 0
M  V30 7216 H 669.726 1.70206 -6.33017 0
M  V30 7217 H 669.246 2.98896 -5.2002 0
M  V30 7218 H 670.925 2.89359 -5.78689 0
M  V30 7219 N 671.057 1.43213 0.657864 0
M  V30 7220 C 672.02 1.47687 1.75275 0
M  V30 7221 C 673.02 0.362179 1.56668 0
M  V30 7222 O 674.21 0.623734 1.62651 0
M  V30 7223 C 671.342 1.32497 3.14098 0
M  V30 7224 H 672.535 2.4519 1.7269 0
M  V30 7225 H 670.088 1.2991 0.869087 0
M  V30 7226 H 670.823 0.359831 3.22298 0
M  V30 7227 H 670.608 2.13299 3.29008 0
M  V30 7228 H 672.098 1.38549 3.93946 0
M  V30 7229 N 672.536 -0.895792 1.29666 0
M  V30 7230 C 673.483 -2.00035 1.15129 0
M  V30 7231 C 674.453 -1.66043 0.0435819 0
M  V30 7232 O 675.638 -1.89621 0.211811 0
M  V30 7233 C 672.778 -3.34774 0.83787 0
M  V30 7234 C 671.891 -3.81525 2.0264 0
M  V30 7235 C 671.026 -5.04858 1.65201 0
M  V30 7236 C 670.065 -5.43988 2.80612 0
M  V30 7237 N 669.202 -6.58507 2.43544 0
M  V30 7238 H 674.042 -2.11802 2.09628 0
M  V30 7239 H 671.579 -1.03719 1.04311 0
M  V30 7240 H 673.537 -4.12311 0.636824 0
M  V30 7241 H 672.167 -3.22724 -0.0702314 0
M  V30 7242 H 671.219 -2.9999 2.33903 0
M  V30 7243 H 672.531 -4.06472 2.89106 0
M  V30 7244 H 671.685 -5.8999 1.41408 0
M  V30 7245 H 670.424 -4.81759 0.758893 0
M  V30 7246 H 669.429 -4.57388 3.05083 0
M  V30 7247 H 670.654 -5.69066 3.70595 0
M  V30 7248 H 668.6 -6.37004 1.56724 0
M  V30 7249 H 668.517 -6.83269 3.23542 0
M  V30 7250 H 669.785 -7.46897 2.2308 0
M  V30 7251 N 674.014 -1.12206 -1.10668 0
M  V30 7252 C 674.964 -0.75669 -2.15077 0
M  V30 7253 C 675.948 0.243154 -1.59052 0
M  V30 7254 O 677.14 0.0490268 -1.76932 0
M  V30 7255 C 674.269 -0.210303 -3.42655 0
M  V30 7256 C 673.355 -1.23829 -4.05619 0
M  V30 7257 N 673.746 -2.43513 -4.43323 0
M  V30 7258 C 672.044 -1.08309 -4.32649 0
M  V30 7259 C 672.745 -3.09138 -4.92756 0
M  V30 7260 N 671.721 -2.36593 -4.89413 0
M  V30 7261 H 675.523 -1.66747 -2.42018 0
M  V30 7262 H 673.037 -1.00248 -1.27765 0
M  V30 7263 H 675.034 0.0696287 -4.16842 0
M  V30 7264 H 673.694 0.694967 -3.17176 0
M  V30 7265 H 674.705 -2.80912 -4.35097 0
M  V30 7266 H 671.382 -0.234919 -4.16839 0
M  V30 7267 H 672.772 -4.11049 -5.31496 0
M  V30 7268 N 675.492 1.28418 -0.913599 0
M  V30 7269 C 676.741 1.94265 -0.542572 0
M  V30 7270 C 677.054 1.72709 0.918207 0
M  V30 7271 O 678.26 2.32778 1.39738 0
M  V30 7272 C 676.716 3.47956 -0.919507 0
M  V30 7273 C 676.324 3.78291 -2.4 0
M  V30 7274 C 678.068 4.19962 -0.619057 0
M  V30 7275 C 675.975 5.2529 -2.71707 0
M  V30 7276 H 674.905 0.727213 -0.199192 0
M  V30 7277 H 677.556 1.45931 -1.11249 0
M  V30 7278 H 675.938 3.9502 -0.278372 0
M  V30 7279 H 677.112 3.42035 -3.08786 0
M  V30 7280 H 675.427 3.19456 -2.67089 0
M  V30 7281 H 678.024 5.28178 -0.832623 0
M  V30 7282 H 678.367 4.13935 0.443126 0
M  V30 7283 H 678.9 3.78674 -1.21865 0
M  V30 7284 H 675.639 5.36394 -3.76778 0
M  V30 7285 H 675.159 5.62743 -2.07559 0
M  V30 7286 H 676.838 5.93027 -2.58703 0
M  V30 7287 N 676.97 0.677563 1.42291 0
M  V30 7288 C 678.218 0.200578 2.01102 0
M  V30 7289 C 678.539 -1.19803 1.53858 0
M  V30 7290 O 677.809 -1.80496 0.761439 0
M  V30 7291 H 676.389 0.0711634 0.743603 0
M  V30 7292 H 679.051 0.874691 1.7417 0
M  V30 7293 H 678.147 0.204 3.11433 0
M  V30 7294 N 678.448 -1.51871 0.421078 0
M  V30 7295 C 679.697 -2.01125 -0.152206 0
M  V30 7296 C 680.01 -1.3106 -1.45199 0
M  V30 7297 O 681.216 -1.71195 -2.10724 0
M  V30 7298 C 679.672 -3.58458 -0.3218 0
M  V30 7299 C 679.28 -4.37448 0.96659 0
M  V30 7300 C 681.024 -4.15908 -0.84973 0
M  V30 7301 C 678.931 -5.86451 0.763529 0
M  V30 7302 H 677.861 -0.751556 -0.0606565 0
M  V30 7303 H 680.512 -1.75115 0.548354 0
M  V30 7304 H 678.894 -3.80847 -1.08498 0
M  V30 7305 H 680.068 -4.26814 1.73684 0
M  V30 7306 H 678.383 -3.91373 1.42183 0
M  V30 7307 H 680.98 -5.24922 -1.01788 0
M  V30 7308 H 681.323 -3.74031 -1.82774 0
M  V30 7309 H 681.856 -3.97535 -0.145297 0
M  V30 7310 H 678.595 -6.3271 1.71344 0
M  V30 7311 H 678.115 -5.99791 0.0327889 0
M  V30 7312 H 679.794 -6.45697 0.410354 0
M  V30 7313 N 679.926 -0.151884 -1.56866 0
M  V30 7314 C 680.873 0.785936 -2.17006 0
M  V30 7315 C 681.843 1.2407 -1.10435 0
M  V30 7316 O 683.028 1.31235 -1.38499 0
M  V30 7317 C 680.168 2.01771 -2.79969 0
M  V30 7318 C 679.281 1.6083 -4.00946 0
M  V30 7319 C 678.416 2.79224 -4.51893 0
M  V30 7320 C 677.455 2.3468 -5.65324 0
M  V30 7321 N 676.592 3.461 -6.10867 0
M  V30 7322 H 681.432 0.266286 -2.96808 0
M  V30 7323 H 678.969 0.11972 -1.46612 0
M  V30 7324 H 680.927 2.73989 -3.14621 0
M  V30 7325 H 679.557 2.51139 -2.02803 0
M  V30 7326 H 678.609 0.783592 -3.72242 0
M  V30 7327 H 679.921 1.24119 -4.83111 0
M  V30 7328 H 679.075 3.59625 -4.88625 0
M  V30 7329 H 677.814 3.19183 -3.68746 0
M  V30 7330 H 676.819 1.52721 -5.28163 0
M  V30 7331 H 678.044 1.95801 -6.5026 0
M  V30 7332 H 675.99 3.85671 -5.30654 0
M  V30 7333 H 675.907 3.1342 -6.87971 0
M  V30 7334 H 677.175 4.26844 -6.52246 0
M  V30 7335 N 681.404 1.57128 0.121893 0
M  V30 7336 C 682.634 1.88609 0.843227 0
M  V30 7337 C 683.042 0.740917 1.74089 0
M  V30 7338 O 682.385 -0.297426 1.81276 0
M  V30 7339 C 682.447 3.15073 1.73117 0
M  V30 7340 C 682.111 4.45742 1.0081 0
M  V30 7341 C 683.108 5.18719 0.350255 0
M  V30 7342 C 680.793 4.92444 0.99014 0
M  V30 7343 C 682.787 6.36617 -0.315889 0
M  V30 7344 C 680.474 6.10261 0.320196 0
M  V30 7345 C 681.472 6.82194 -0.331666 0
M  V30 7346 O 681.16 7.97769 -0.990927 0
M  V30 7347 H 680.892 0.628919 0.247865 0
M  V30 7348 H 683.446 2.05096 0.111725 0
M  V30 7349 H 681.676 2.9466 2.50424 0
M  V30 7350 H 683.365 3.32597 2.32667 0
M  V30 7351 H 684.131 4.83693 0.35577 0
M  V30 7352 H 680.01 4.36361 1.48695 0
M  V30 7353 H 683.554 6.92701 -0.825272 0
M  V30 7354 H 679.451 6.44743 0.312433 0
M  V30 7355 H 680.219 8.13591 -0.895113 0
M  V30 7356 N 682.882 -0.391992 1.52647 0
M  V30 7357 C 683.829 -1.47866 1.77213 0
M  V30 7358 C 684.799 -1.54286 0.615223 0
M  V30 7359 O 685.984 -1.7059 0.854622 0
M  V30 7360 C 683.124 -2.85129 1.94411 0
M  V30 7361 C 682.237 -2.87883 3.22098 0
M  V30 7362 C 681.372 -4.16553 3.29631 0
M  V30 7363 C 680.411 -4.13348 4.51453 0
M  V30 7364 N 679.548 -5.33619 4.56284 0
M  V30 7365 H 684.388 -1.26219 2.6995 0
M  V30 7366 H 681.925 -0.612367 1.33748 0
M  V30 7367 H 683.883 -3.64833 2.02367 0
M  V30 7368 H 682.513 -3.05232 1.05038 0
M  V30 7369 H 681.565 -2.00567 3.23229 0
M  V30 7370 H 682.877 -2.81382 4.11856 0
M  V30 7371 H 682.031 -5.0466 3.36753 0
M  V30 7372 H 680.77 -4.25773 2.37842 0
M  V30 7373 H 679.775 -3.23629 4.44459 0
M  V30 7374 H 681 -4.05754 5.44555 0
M  V30 7375 H 678.946 -5.43474 3.67385 0
M  V30 7376 H 678.863 -5.29182 5.3991 0
M  V30 7377 H 680.131 -6.23632 4.67657 0
M  V30 7378 N 684.36 -1.4356 -0.65026 0
M  V30 7379 C 685.609 -1.44619 -1.406 0
M  V30 7380 C 685.922 -0.0752645 -1.95455 0
M  V30 7381 O 687.128 0.0366832 -2.71475 0
M  V30 7382 C 685.584 -2.54511 -2.54465 0
M  V30 7383 C 685.192 -3.97723 -2.06204 0
M  V30 7384 C 686.936 -2.64768 -3.31811 0
M  V30 7385 C 684.843 -4.99075 -3.17298 0
M  V30 7386 H 683.773 -0.537983 -0.52829 0
M  V30 7387 H 686.424 -1.69559 -0.701561 0
M  V30 7388 H 684.806 -2.22777 -3.27393 0
M  V30 7389 H 685.98 -4.38932 -1.40267 0
M  V30 7390 H 684.295 -3.91538 -1.41729 0
M  V30 7391 H 686.892 -3.37664 -4.14593 0
M  V30 7392 H 687.235 -1.69936 -3.80036 0
M  V30 7393 H 687.768 -2.95817 -2.65964 0
M  V30 7394 H 684.507 -5.95469 -2.74038 0
M  V30 7395 H 684.027 -4.62476 -3.81937 0
M  V30 7396 H 685.706 -5.21913 -3.82382 0
M  V30 7397 N 685.838 0.888903 -1.30139 0
M  V30 7398 C 686.801 1.97576 -1.16174 0
M  V30 7399 C 687.801 1.60525 -0.094086 0
M  V30 7400 O 688.991 1.70812 -0.341889 0
M  V30 7401 C 686.123 3.3188 -0.778983 0
M  V30 7402 H 687.316 2.11393 -2.12728 0
M  V30 7403 H 684.869 1.0748 -1.1348 0
M  V30 7404 H 685.604 3.23765 0.186225 0
M  V30 7405 H 685.389 3.60141 -1.55051 0
M  V30 7406 H 686.879 4.11612 -0.704631 0
M  V30 7407 N 687.317 1.12792 1.10072 0
M  V30 7408 C 688.566 0.880232 1.81479 0
M  V30 7409 C 688.879 -0.595575 1.86312 0
M  V30 7410 O 690.085 -0.959979 2.53962 0
M  V30 7411 C 688.541 1.52514 3.25987 0
M  V30 7412 C 688.149 3.036 3.29441 0
M  V30 7413 C 689.893 1.35788 4.02196 0
M  V30 7414 C 687.8 3.61007 4.68431 0
M  V30 7415 H 686.73 0.325654 0.680048 0
M  V30 7416 H 689.381 1.35485 1.23758 0
M  V30 7417 H 687.763 0.978188 3.83728 0
M  V30 7418 H 688.937 3.64819 2.81502 0
M  V30 7419 H 687.252 3.19765 2.66719 0
M  V30 7420 H 689.849 1.76096 5.0487 0
M  V30 7421 H 690.192 0.301972 4.15203 0
M  V30 7422 H 690.725 1.87426 3.50879 0
M  V30 7423 H 687.464 4.66375 4.60625 0
M  V30 7424 H 686.984 3.04564 5.16721 0
M  V30 7425 H 688.663 3.60289 5.37402 0
M  V30 7426 N 688.795 -1.27931 0.920396 0
M  V30 7427 C 690.041 -1.94977 0.557832 0
M  V30 7428 C 690.374 -1.72224 -0.897365 0
M  V30 7429 O 689.649 -1.04705 -1.63912 0
M  V30 7430 C 689.932 -3.49289 0.875741 0
M  V30 7431 C 689.785 -3.81416 2.38416 0
M  V30 7432 C 691.104 -4.38486 0.376517 0
M  V30 7433 H 688.223 -0.708164 0.20414 0
M  V30 7434 H 690.865 -1.5118 1.15085 0
M  V30 7435 H 689.015 -3.86724 0.371062 0
M  V30 7436 H 690.687 -3.53813 2.95997 0
M  V30 7437 H 688.93 -3.28225 2.83639 0
M  V30 7438 H 689.601 -4.89198 2.55713 0
M  V30 7439 H 692.077 -4.08161 0.808945 0
M  V30 7440 H 690.953 -5.45296 0.627976 0
M  V30 7441 H 691.214 -4.36143 -0.723293 0
M  V30 7442 N 690.273 -0.685099 -1.4193 0
M  V30 7443 C 691.684 -0.287699 -1.8447 0
M  V30 7444 C 692.035 1.17215 -1.57338 0
M  V30 7445 O 691.16 1.89856 -1.03845 0
M  V30 7446 C 691.755 -0.515385 -3.34857 0
M  V30 7447 C 690.314 -0.172006 -3.76007 0
M  V30 7448 C 689.461 -0.802808 -2.65425 0
M  V30 7449 H 692.412 -0.88652 -1.3163 0
M  V30 7450 H 692.433 0.229251 -3.79809 0
M  V30 7451 H 691.945 -1.57796 -3.54573 0
M  V30 7452 H 690.046 0.886716 -3.61895 0
M  V30 7453 H 690.159 -0.619717 -4.75075 0
M  V30 7454 H 688.523 -0.233267 -2.5363 0
M  V30 7455 H 689.306 -1.86904 -2.87961 0
M  V30 7456 N 691.751 1.51645 -0.429126 0
M  V30 7457 C 693.028 1.94579 0.199614 0
M  V30 7458 C 693.408 1.3673 1.60836 0
M  V30 7459 O 692.756 0.551062 2.21756 0
M  V30 7460 C 692.966 3.48506 0.185685 0
M  V30 7461 C 694.314 4.22756 0.395282 0
M  V30 7462 O 695.338 3.55219 0.264165 0
M  V30 7463 O 694.197 5.42555 0.655475 0
M  V30 7464 H 691.291 0.816007 0.134393 0
M  V30 7465 H 693.837 1.62577 -0.486513 0
M  V30 7466 H 692.609 3.83045 -0.799508 0
M  V30 7467 H 692.232 3.86927 0.91507 0
M  V30 7468 N 693.229 0.160201 1.56784 0
M  V30 7469 C 694.477 -0.486625 1.96154 0
M  V30 7470 C 694.798 -1.64525 1.04673 0
M  V30 7471 O 694.068 -1.95586 0.110864 0
M  V30 7472 H 692.648 -0.182764 0.724297 0
M  V30 7473 H 695.31 0.238787 1.93432 0
M  V30 7474 H 694.406 -0.854025 3.00188 0
M  V30 7475 N 694.707 -1.5719 -0.113559 0
M  V30 7476 C 695.654 -2.00736 -1.13901 0
M  V30 7477 C 696.624 -0.88044 -1.40846 0
M  V30 7478 O 697.809 -1.14507 -1.5262 0
M  V30 7479 C 694.949 -2.42132 -2.45899 0
M  V30 7480 C 694.062 -3.68264 -2.25844 0
M  V30 7481 C 693.197 -3.98617 -3.5111 0
M  V30 7482 C 692.236 -5.17915 -3.26236 0
M  V30 7483 N 691.373 -5.44111 -4.4372 0
M  V30 7484 H 696.213 -2.88128 -0.760677 0
M  V30 7485 H 693.75 -1.42523 -0.364099 0
M  V30 7486 H 695.708 -2.6417 -3.22908 0
M  V30 7487 H 694.338 -1.57775 -2.81615 0
M  V30 7488 H 693.39 -3.53809 -1.39726 0
M  V30 7489 H 694.702 -4.55425 -2.03444 0
M  V30 7490 H 693.856 -4.21333 -4.36536 0
M  V30 7491 H 692.595 -3.09942 -3.76546 0
M  V30 7492 H 691.6 -4.95038 -2.39202 0
M  V30 7493 H 692.825 -6.08172 -3.02165 0
M  V30 7494 H 690.771 -4.58394 -4.69266 0
M  V30 7495 H 690.688 -6.25606 -4.24444 0
M  V30 7496 H 691.956 -5.71351 -5.30263 0
M  V30 7497 N 696.185 0.383891 -1.52853 0
M  V30 7498 C 697.415 1.14783 -1.7178 0
M  V30 7499 C 697.823 1.84055 -0.438211 0
M  V30 7500 O 697.166 1.73713 0.597465 0
M  V30 7501 C 697.228 2.23543 -2.81547 0
M  V30 7502 C 696.892 1.74195 -4.22499 0
M  V30 7503 C 697.889 1.21591 -5.05481 0
M  V30 7504 C 695.574 1.80262 -4.6884 0
M  V30 7505 C 697.568 0.757104 -6.32888 0
M  V30 7506 C 695.255 1.33993 -5.96229 0
M  V30 7507 C 696.253 0.818049 -6.78083 0
M  V30 7508 O 695.941 0.362123 -8.03084 0
M  V30 7509 H 695.673 0.349908 -0.578395 0
M  V30 7510 H 698.227 0.454377 -2.00311 0
M  V30 7511 H 696.457 2.96328 -2.48449 0
M  V30 7512 H 698.146 2.8519 -2.88828 0
M  V30 7513 H 698.912 1.16257 -4.7086 0
M  V30 7514 H 694.791 2.19825 -4.05213 0
M  V30 7515 H 698.335 0.34908 -6.96726 0
M  V30 7516 H 694.232 1.39015 -6.30353 0
M  V30 7517 H 695 0.483134 -8.17073 0
M  V30 7518 N 697.663 1.43903 0.642637 0
M  V30 7519 C 698.911 1.45791 1.39962 0
M  V30 7520 C 699.232 0.0873144 1.94804 0
M  V30 7521 O 698.502 -0.878825 1.75081 0
M  V30 7522 H 697.082 0.536797 0.519479 0
M  V30 7523 H 699.744 1.7959 0.757189 0
M  V30 7524 H 698.84 2.17665 2.2367 0
M  V30 7525 N 699.141 -0.881989 1.30609 0
M  V30 7526 C 700.104 -1.96957 1.1722 0
M  V30 7527 C 701.104 -1.60472 0.102598 0
M  V30 7528 O 702.294 -1.70628 0.350943 0
M  V30 7529 C 699.426 -3.31463 0.796572 0
M  V30 7530 H 700.619 -2.10262 2.13846 0
M  V30 7531 H 698.172 -1.06877 1.14048 0
M  V30 7532 H 698.907 -3.23859 -0.169053 0
M  V30 7533 H 698.692 -3.59314 1.56959 0
M  V30 7534 H 700.182 -4.11233 0.72645 0
M  V30 7535 N 700.619 -1.13374 -1.09472 0
M  V30 7536 C 702.035 -0.871846 -1.33682 0
M  V30 7537 C 702.235 0.492847 -1.9538 0
M  V30 7538 O 701.291 1.23946 -2.19985 0
M  V30 7539 C 702.604 -1.99608 -2.24893 0
M  V30 7540 C 704.152 -2.02812 -2.38404 0
M  V30 7541 C 704.627 -3.14497 -3.3295 0
M  V30 7542 N 706.118 -3.14004 -3.40523 0
M  V30 7543 C 706.853 -3.97061 -4.13679 0
M  V30 7544 N 706.349 -4.90131 -4.89636 0
M  V30 7545 N 708.142 -3.85162 -4.09398 0
M  V30 7546 H 700.293 -2.01288 -0.677995 0
M  V30 7547 H 702.556 -0.876492 -0.361201 0
M  V30 7548 H 702.262 -2.98 -1.86786 0
M  V30 7549 H 702.136 -1.90981 -3.25278 0
M  V30 7550 H 704.523 -1.05034 -2.75775 0
M  V30 7551 H 704.604 -2.15511 -1.37799 0
M  V30 7552 H 704.248 -4.12514 -2.96302 0
M  V30 7553 H 704.178 -2.99035 -4.33458 0
M  V30 7554 H 706.669 -2.46587 -2.86362 0
M  V30 7555 H 706.982 -5.49996 -5.42885 0
M  V30 7556 H 705.327 -4.94138 -4.88726 0
M  V30 7557 H 708.518 -3.11779 -3.49158 0
M  V30 7558 H 708.691 -4.5012 -4.6615 0
M  V30 7559 N 702.098 1.27442 -0.927168 0
M  V30 7560 C 703.375 1.89473 -0.485742 0
M  V30 7561 C 703.755 1.83922 1.03614 0
M  V30 7562 O 703.103 1.28409 1.89007 0
M  V30 7563 C 703.313 3.33417 -1.03123 0
M  V30 7564 C 704.661 4.10333 -1.0914 0
M  V30 7565 O 705.685 3.4243 -0.98082 0
M  V30 7566 O 704.544 5.31737 -1.26165 0
M  V30 7567 H 701.638 0.812124 -0.156154 0
M  V30 7568 H 704.184 1.35713 -1.01882 0
M  V30 7569 H 702.956 3.31747 -2.07508 0
M  V30 7570 H 702.579 3.94695 -0.479767 0
M  V30 7571 N 703.576 0.692616 1.41565 0
M  V30 7572 C 704.539 0.0344174 2.29174 0
M  V30 7573 C 705.539 -0.710961 1.44229 0
M  V30 7574 O 706.729 -0.546293 1.65412 0
M  V30 7575 C 703.861 -0.961682 3.27054 0
M  V30 7576 H 705.054 0.805755 2.88873 0
M  V30 7577 H 702.607 0.455947 1.49502 0
M  V30 7578 H 703.342 -1.76089 2.72329 0
M  V30 7579 H 703.127 -0.430375 3.89731 0
M  V30 7580 H 704.617 -1.4201 3.92712 0
M  V30 7581 N 705.054 -1.51416 0.437162 0
M  V30 7582 C 706.331 -1.94682 -0.189292 0
M  V30 7583 C 706.711 -1.37581 -1.60108 0
M  V30 7584 O 706.059 -0.562815 -2.2146 0
M  V30 7585 C 706.269 -3.48599 -0.167201 0
M  V30 7586 C 707.617 -4.2296 -0.372856 0
M  V30 7587 O 708.641 -3.55354 -0.245323 0
M  V30 7588 O 707.5 -5.42895 -0.626693 0
M  V30 7589 H 704.594 -0.816708 -0.130063 0
M  V30 7590 H 707.14 -1.62316 0.495128 0
M  V30 7591 H 705.912 -3.82616 0.81981 0
M  V30 7592 H 705.535 -3.87406 -0.894537 0
M  V30 7593 N 706.532 -0.168513 -1.56696 0
M  V30 7594 C 707.76 0.483503 -2.01171 0
M  V30 7595 C 708.175 1.56994 -1.04872 0
M  V30 7596 O 707.532 1.82434 -0.0491337 0
M  V30 7597 C 707.583 1.0644 -3.45475 0
M  V30 7598 O 707.304 0.0213375 -4.38095 0
M  V30 7599 C 708.805 1.79493 -4.05336 0
M  V30 7600 H 706.025 0.124002 -0.659443 0
M  V30 7601 H 708.569 -0.269419 -2.02717 0
M  V30 7602 H 706.724 1.76784 -3.44712 0
M  V30 7603 H 707.138 0.449837 -5.22567 0
M  V30 7604 H 708.612 2.15401 -5.08238 0
M  V30 7605 H 709.089 2.68889 -3.47269 0
M  V30 7606 H 709.695 1.13798 -4.09793 0
M  V30 7607 N 708.01 1.57248 0.105221 0
M  V30 7608 C 708.957 2.01338 1.12835 0
M  V30 7609 C 709.927 0.887897 1.40377 0
M  V30 7610 O 711.112 1.15315 1.5201 0
M  V30 7611 C 708.252 2.43432 2.44611 0
M  V30 7612 C 707.365 3.69457 2.23888 0
M  V30 7613 C 706.5 4.00473 3.48991 0
M  V30 7614 C 705.539 5.19638 3.23485 0
M  V30 7615 N 704.676 5.46457 4.40828 0
M  V30 7616 H 709.516 2.88527 0.745386 0
M  V30 7617 H 707.053 1.42714 0.356535 0
M  V30 7618 H 709.011 2.65879 3.21503 0
M  V30 7619 H 707.641 1.59266 2.80774 0
M  V30 7620 H 706.693 3.54545 1.37847 0
M  V30 7621 H 708.005 4.56497 2.01026 0
M  V30 7622 H 707.159 4.23642 4.34295 0
M  V30 7623 H 705.898 3.11935 3.74897 0
M  V30 7624 H 704.903 4.96299 2.36574 0
M  V30 7625 H 706.128 6.09766 2.98935 0
M  V30 7626 H 704.074 4.60876 4.66829 0
M  V30 7627 H 703.991 6.27849 4.2112 0
M  V30 7628 H 705.259 5.74155 5.27225 0
M  V30 7629 N 709.488 -0.375779 1.53054 0
M  V30 7630 C 710.737 -1.11674 1.67964 0
M  V30 7631 C 711.05 -1.90755 0.432655 0
M  V30 7632 O 712.256 -2.67538 0.462109 0
M  V30 7633 C 710.712 -2.0344 2.96884 0
M  V30 7634 C 710.32 -1.29719 4.28809 0
M  V30 7635 C 712.064 -2.7759 3.2116 0
M  V30 7636 C 709.971 -2.20327 5.48826 0
M  V30 7637 H 708.901 -0.420597 0.625791 0
M  V30 7638 H 711.552 -0.378499 1.79554 0
M  V30 7639 H 709.934 -2.80953 2.79072 0
M  V30 7640 H 711.108 -0.573394 4.57219 0
M  V30 7641 H 709.423 -0.674735 4.10897 0
M  V30 7642 H 712.02 -3.4559 4.0801 0
M  V30 7643 H 712.363 -3.42399 2.36789 0
M  V30 7644 H 712.896 -2.07164 3.396 0
M  V30 7645 H 709.635 -1.60113 6.35645 0
M  V30 7646 H 709.155 -2.90585 5.2471 0
M  V30 7647 H 710.834 -2.80116 5.83219 0
M  V30 7648 N 710.966 -1.44241 -0.634997 0
M  V30 7649 C 712.212 -1.48033 -1.39492 0
M  V30 7650 C 712.567 -0.109791 -1.92086 0
M  V30 7651 O 711.86 0.874394 -1.70484 0
M  V30 7652 C 712.054 -2.47279 -2.58046 0
M  V30 7653 C 711.883 -3.93848 -2.17057 0
M  V30 7654 C 710.653 -4.62061 -2.04518 0
M  V30 7655 C 712.851 -4.83172 -1.76208 0
M  V30 7656 N 710.833 -5.93471 -1.57051 0
M  V30 7657 C 712.204 -6.03996 -1.39958 0
M  V30 7658 C 714.259 -4.70271 -1.63554 0
M  V30 7659 C 712.962 -7.13351 -0.923196 0
M  V30 7660 C 714.988 -5.79646 -1.1732 0
M  V30 7661 C 714.35 -6.99609 -0.820181 0
M  V30 7662 H 710.449 -0.596743 -0.505392 0
M  V30 7663 H 713.033 -1.80542 -0.72887 0
M  V30 7664 H 711.204 -2.16766 -3.22284 0
M  V30 7665 H 712.936 -2.41391 -3.24827 0
M  V30 7666 H 709.691 -4.1682 -2.24851 0
M  V30 7667 H 710.115 -6.63275 -1.35628 0
M  V30 7668 H 714.757 -3.77964 -1.8948 0
M  V30 7669 H 712.475 -8.0547 -0.651441 0
M  V30 7670 H 716.061 -5.71689 -1.07993 0
M  V30 7671 H 714.941 -7.82803 -0.467901 0
M  V30 7672 N 712.444 0.87505 -1.31075 0
M  V30 7673 C 713.392 2.00317 -1.18219 0
M  V30 7674 C 714.386 1.69152 -0.0916872 0
M  V30 7675 O 715.592 1.7821 -0.253229 0
M  V30 7676 H 711.967 0.656981 -0.365895 0
M  V30 7677 H 713.938 2.08293 -2.13674 0
M  V30 7678 C 712.687 3.35821 -0.901095 0
M  V30 7679 H 712.01 3.6032 -1.73233 0
M  V30 7680 H 713.45 4.15366 -0.851295 0
M  V30 7681 C 711.909 3.34563 0.396114 0
M  V30 7682 O 712.439 3.75971 1.41452 0
M  V30 7683 N 710.645 2.87681 0.410832 0
M  V30 7684 H 710.192 2.54179 -0.418415 0
M  V30 7685 H 710.15 2.87223 1.27869 0
M  V30 7686 N 713.922 1.13953 1.08869 0
M  V30 7687 C 715.17 0.903023 1.80803 0
M  V30 7688 C 715.491 -0.572151 1.86417 0
M  V30 7689 O 714.761 -1.41589 1.35386 0
M  V30 7690 H 713.341 0.331099 0.669614 0
M  V30 7691 H 716.003 1.43719 1.31647 0
M  V30 7692 H 715.099 1.29881 2.83791 0
M  V30 7693 N 715.4 -1.26948 0.933913 0
M  V30 7694 C 716.333 -2.24977 0.382169 0
M  V30 7695 C 717.311 -1.53893 -0.524949 0
M  V30 7696 O 718.495 -1.82699 -0.464048 0
M  V30 7697 C 715.622 -3.35676 -0.451615 0
M  V30 7698 C 714.668 -4.24686 0.392947 0
M  V30 7699 S 715.501 -5.03898 1.81237 0
M  V30 7700 C 716.657 -6.18078 0.986443 0
M  V30 7701 H 716.89 -2.71429 1.21299 0
M  V30 7702 H 714.423 -1.35701 0.736523 0
M  V30 7703 H 716.381 -3.99901 -0.926797 0
M  V30 7704 H 715.042 -2.8785 -1.25703 0
M  V30 7705 H 714.235 -5.03402 -0.245533 0
M  V30 7706 H 713.837 -3.65288 0.802537 0
M  V30 7707 H 716.129 -6.77125 0.225321 0
M  V30 7708 H 717.072 -6.86216 1.74682 0
M  V30 7709 H 717.48 -5.62047 0.525711 0
M  V30 7710 N 716.879 -0.700114 -1.41195 0
M  V30 7711 C 718.125 -0.233351 -2.01453 0
M  V30 7712 C 718.458 1.16548 -1.55339 0
M  V30 7713 O 717.733 1.78756 -0.766575 0
M  V30 7714 C 718.016 -0.2961 -3.58881 0
M  V30 7715 C 717.869 -1.7322 -4.15108 0
M  V30 7716 C 719.188 0.341525 -4.38773 0
M  V30 7717 H 716.307 -0.0862667 -0.731934 0
M  V30 7718 H 718.949 -0.889693 -1.67882 0
M  V30 7719 H 717.099 0.262736 -3.87611 0
M  V30 7720 H 718.771 -2.34523 -3.97236 0
M  V30 7721 H 717.014 -2.2649 -3.69979 0
M  V30 7722 H 717.685 -1.7276 -5.24269 0
M  V30 7723 H 720.161 -0.134461 -4.15883 0
M  V30 7724 H 719.037 0.267098 -5.4825 0
M  V30 7725 H 719.298 1.42289 -4.18577 0
M  V30 7726 N 718.357 1.51182 -0.445186 0
M  V30 7727 C 719.605 2.01753 0.11841 0
M  V30 7728 C 719.926 1.33087 1.42523 0
M  V30 7729 O 719.196 0.467891 1.9023 0
M  V30 7730 H 717.776 0.745536 0.0467492 0
M  V30 7731 H 720.438 1.85765 -0.589688 0
M  V30 7732 H 719.534 3.10762 0.288665 0
M  V30 7733 N 719.835 0.176821 1.56605 0
M  V30 7734 C 720.745 -0.763682 2.21822 0
M  V30 7735 C 721.761 -1.24889 1.21156 0
M  V30 7736 O 722.937 -1.29987 1.53836 0
M  V30 7737 C 720.002 -1.97352 2.8505 0
M  V30 7738 C 719.063 -1.53466 4.00932 0
M  V30 7739 C 718.296 -2.68682 4.61135 0
M  V30 7740 O 718.519 -3.85694 4.20234 0
M  V30 7741 O 717.453 -2.42442 5.50913 0
M  V30 7742 H 721.279 -0.238363 3.02763 0
M  V30 7743 H 718.864 -0.0516331 1.49311 0
M  V30 7744 H 720.746 -2.68096 3.25119 0
M  V30 7745 H 719.421 -2.48779 2.07101 0
M  V30 7746 H 718.328 -0.796551 3.65521 0
M  V30 7747 H 719.661 -1.06724 4.8049 0
M  V30 7748 N 721.313 -1.57302 -0.09688 0
M  V30 7749 C 722.243 -2.0497 -1.11846 0
M  V30 7750 C 723.224 -0.938278 -1.41882 0
M  V30 7751 O 724.409 -1.20943 -1.51942 0
M  V30 7752 C 721.539 -2.47264 -2.43881 0
M  V30 7753 C 720.493 -3.62053 -2.28257 0
M  V30 7754 C 719.819 -3.90318 -3.65453 0
M  V30 7755 C 721.119 -4.93005 -1.72461 0
M  V30 7756 H 722.813 -2.90567 -0.721888 0
M  V30 7757 H 720.359 -1.39786 -0.345803 0
M  V30 7758 H 722.312 -2.7922 -3.15617 0
M  V30 7759 H 721.036 -1.58664 -2.8547 0
M  V30 7760 H 719.695 -3.30341 -1.58967 0
M  V30 7761 H 719.343 -2.98889 -4.04567 0
M  V30 7762 H 719.043 -4.67597 -3.55846 0
M  V30 7763 H 720.567 -4.24747 -4.3866 0
M  V30 7764 H 721.981 -5.23354 -2.34036 0
M  V30 7765 H 720.378 -5.74436 -1.73618 0
M  V30 7766 H 721.448 -4.80053 -0.683898 0
M  V30 7767 N 722.791 0.367657 -1.53252 0
M  V30 7768 C 724.037 1.11216 -1.69584 0
M  V30 7769 C 724.37 1.89026 -0.445269 0
M  V30 7770 O 723.645 1.86342 0.557404 0
M  V30 7771 C 723.928 2.07308 -2.94441 0
M  V30 7772 C 723.781 1.3312 -4.2965 0
M  V30 7773 C 725.1 3.07459 -3.14892 0
M  V30 7774 H 722.219 0.40294 -0.617096 0
M  V30 7775 H 724.861 0.393201 -1.85887 0
M  V30 7776 H 723.011 2.68617 -2.80673 0
M  V30 7777 H 724.683 0.746111 -4.55226 0
M  V30 7778 H 722.926 0.633051 -4.29156 0
M  V30 7779 H 723.597 2.03443 -5.13142 0
M  V30 7780 H 726.073 2.56252 -3.27832 0
M  V30 7781 H 724.949 3.71919 -4.03693 0
M  V30 7782 H 725.21 3.77514 -2.30077 0
M  V30 7783 N 724.269 1.44576 0.627338 0
M  V30 7784 C 725.499 1.50829 1.41189 0
M  V30 7785 C 725.907 0.133083 1.88731 0
M  V30 7786 O 725.25 -0.87199 1.61685 0
M  V30 7787 C 725.312 2.41449 2.66351 0
M  V30 7788 C 724.976 3.88549 2.40579 0
M  V30 7789 C 725.973 4.78981 2.0217 0
M  V30 7790 C 723.658 4.33287 2.54102 0
M  V30 7791 C 725.652 6.12153 1.77618 0
M  V30 7792 C 723.339 5.66505 2.29163 0
M  V30 7793 C 724.337 6.55756 1.9098 0
M  V30 7794 O 724.025 7.86506 1.66321 0
M  V30 7795 H 723.757 0.513797 0.439304 0
M  V30 7796 H 726.311 1.90256 0.774059 0
M  V30 7797 H 724.541 1.96955 3.32784 0
M  V30 7798 H 726.23 2.38608 3.28361 0
M  V30 7799 H 726.996 4.45689 1.91277 0
M  V30 7800 H 722.875 3.64074 2.82792 0
M  V30 7801 H 726.419 6.81776 1.47739 0
M  V30 7802 H 722.316 5.99358 2.39668 0
M  V30 7803 H 723.084 7.98341 1.80536 0
M  V30 7804 N 725.747 -0.868086 1.31537 0
M  V30 7805 C 726.995 -1.61807 1.21091 0
M  V30 7806 C 727.316 -1.93631 -0.230623 0
M  V30 7807 O 726.586 -1.5846 -1.15183 0
M  V30 7808 H 725.166 -0.599854 0.445178 0
M  V30 7809 H 727.828 -1.03915 1.64887 0
M  V30 7810 H 726.924 -2.56088 1.78396 0
M  V30 7811 N 727.225 -1.14528 -1.08264 0
M  V30 7812 C 728.172 -0.833556 -2.15222 0
M  V30 7813 C 729.142 0.209539 -1.64773 0
M  V30 7814 O 730.327 0.0791388 -1.90636 0
M  V30 7815 C 727.467 -0.318799 -3.43624 0
M  V30 7816 C 726.58 -1.42237 -4.07913 0
M  V30 7817 C 725.715 -0.864704 -5.24115 0
M  V30 7818 C 724.754 -1.94585 -5.80347 0
M  V30 7819 N 723.891 -1.40525 -6.87893 0
M  V30 7820 H 728.731 -1.74965 -2.41228 0
M  V30 7821 H 726.268 -0.873169 -1.18381 0
M  V30 7822 H 728.226 -0.00213088 -4.172 0
M  V30 7823 H 726.856 0.560397 -3.17898 0
M  V30 7824 H 725.908 -1.8554 -3.32083 0
M  V30 7825 H 727.22 -2.23901 -4.45724 0
M  V30 7826 H 726.374 -0.500025 -6.04636 0
M  V30 7827 H 725.113 -0.0171219 -4.87697 0
M  V30 7828 H 724.118 -2.31946 -4.98479 0
M  V30 7829 H 725.343 -2.79704 -6.18823 0
M  V30 7830 H 723.289 -0.579873 -6.53432 0
M  V30 7831 H 723.206 -2.15825 -7.24538 0
M  V30 7832 H 724.474 -1.06852 -7.72142 0
M  V30 7833 N 728.703 1.26451 -0.940633 0
M  V30 7834 C 729.666 2.24651 -0.454378 0
M  V30 7835 C 730.666 1.54826 0.434222 0
M  V30 7836 O 731.856 1.72628 0.233477 0
M  V30 7837 C 728.988 3.39148 0.345192 0
M  V30 7838 H 730.181 2.69182 -1.32217 0
M  V30 7839 H 727.734 1.38596 -0.722547 0
M  V30 7840 H 728.469 3.00018 1.23125 0
M  V30 7841 H 728.254 3.9101 -0.292107 0
M  V30 7842 H 729.744 4.12103 0.675341 0
M  V30 7843 N 730.181 0.707592 1.40822 0
M  V30 7844 C 731.091 0.0507246 2.34545 0
M  V30 7845 C 732.107 -0.752727 1.56876 0
M  V30 7846 O 733.283 -0.687524 1.89302 0
M  V30 7847 C 730.348 -0.865731 3.35717 0
M  V30 7848 C 729.409 -0.0531313 4.29267 0
M  V30 7849 C 728.642 -0.925939 5.25606 0
M  V30 7850 O 728.865 -2.16531 5.27703 0
M  V30 7851 O 727.799 -0.369194 6.00767 0
M  V30 7852 H 731.625 0.823587 2.9232 0
M  V30 7853 H 729.21 0.46801 1.4188 0
M  V30 7854 H 731.092 -1.39091 3.97783 0
M  V30 7855 H 729.767 -1.61788 2.80368 0
M  V30 7856 H 728.674 0.516931 3.70511 0
M  V30 7857 H 730.007 0.660617 4.87747 0
M  V30 7858 N 731.66 -1.50943 0.453197 0
M  V30 7859 C 732.909 -2.01402 -0.10951 0
M  V30 7860 C 733.222 -1.3411 -1.42386 0
M  V30 7861 O 734.428 -1.75626 -2.07045 0
M  V30 7862 C 732.884 -3.5906 -0.245693 0
M  V30 7863 C 732.492 -4.353 1.05916 0
M  V30 7864 C 734.236 -4.17617 -0.761318 0
M  V30 7865 C 732.143 -5.84699 0.887752 0
M  V30 7866 H 731.073 -0.752674 -0.0447013 0
M  V30 7867 H 733.724 -1.73913 0.585375 0
M  V30 7868 H 732.106 -3.83062 -1.00395 0
M  V30 7869 H 733.28 -4.23034 1.82698 0
M  V30 7870 H 731.595 -3.88269 1.50452 0
M  V30 7871 H 734.192 -5.26963 -0.906306 0
M  V30 7872 H 734.535 -3.77824 -1.74799 0
M  V30 7873 H 735.068 -3.97753 -0.0609416 0
M  V30 7874 H 731.807 -6.28933 1.84726 0
M  V30 7875 H 731.327 -5.99587 0.160006 0
M  V30 7876 H 733.006 -6.44682 0.547223 0
M  V30 7877 N 733.138 -0.185124 -1.56509 0
M  V30 7878 C 734.101 0.72591 -2.17401 0
M  V30 7879 C 735.101 1.14819 -1.12575 0
M  V30 7880 O 736.291 1.0629 -1.38015 0
M  V30 7881 C 733.423 1.98979 -2.76803 0
M  V30 7882 H 734.616 0.195588 -2.99262 0
M  V30 7883 H 732.169 0.0644772 -1.56167 0
M  V30 7884 H 732.904 2.56287 -1.98714 0
M  V30 7885 H 732.689 1.69583 -3.53531 0
M  V30 7886 H 734.179 2.63966 -3.23592 0
M  V30 7887 N 734.616 1.57351 0.0885366 0
M  V30 7888 C 735.865 1.85604 0.789556 0
M  V30 7889 C 736.178 0.775352 1.79576 0
M  V30 7890 O 737.384 0.945206 2.54515 0
M  V30 7891 C 735.84 3.29175 1.45506 0
M  V30 7892 C 735.448 4.45331 0.488278 0
M  V30 7893 C 737.192 3.66646 2.13942 0
M  V30 7894 C 735.099 5.79937 1.15874 0
M  V30 7895 H 734.029 0.692346 0.298619 0
M  V30 7896 H 736.68 1.83451 0.0425821 0
M  V30 7897 H 735.062 3.25889 2.24972 0
M  V30 7898 H 736.236 4.59977 -0.275359 0
M  V30 7899 H 734.551 4.16301 -0.0907363 0
M  V30 7900 H 737.148 4.64498 2.6485 0
M  V30 7901 H 737.491 2.956 2.93132 0
M  V30 7902 H 738.024 3.71848 1.41328 0
M  V30 7903 H 734.763 6.54232 0.407508 0
M  V30 7904 H 734.283 5.69123 1.89364 0
M  V30 7905 H 735.962 6.24718 1.68336 0
M  V30 7906 N 736.094 -0.359525 1.53444 0
M  V30 7907 C 737.057 -1.42357 1.7963 0
M  V30 7908 C 738.057 -1.46319 0.666884 0
M  V30 7909 O 739.247 -1.46974 0.935113 0
M  V30 7910 C 736.379 -2.81425 1.92387 0
M  V30 7911 H 737.572 -1.20409 2.74666 0
M  V30 7912 H 735.125 -0.593007 1.44614 0
M  V30 7913 H 735.86 -3.08679 0.994384 0
M  V30 7914 H 735.645 -2.79947 2.74539 0
M  V30 7915 H 737.135 -3.5847 2.14218 0
M  V30 7916 N 737.572 -1.44907 -0.619662 0
M  V30 7917 C 738.983 -1.42905 -1.20146 0
M  V30 7918 C 739.334 -0.150341 -1.95623 0
M  V30 7919 O 738.459 0.748732 -2.03034 0
M  V30 7920 C 739.054 -2.58889 -2.18545 0
M  V30 7921 C 737.613 -2.60046 -2.72127 0
M  V30 7922 C 736.76 -2.3493 -1.4732 0
M  V30 7923 H 739.711 -1.53321 -0.409666 0
M  V30 7924 H 739.732 -2.32298 -3.0136 0
M  V30 7925 H 739.244 -3.51941 -1.63583 0
M  V30 7926 H 737.345 -1.70968 -3.3106 0
M  V30 7927 H 737.458 -3.58893 -3.17384 0
M  V30 7928 H 735.822 -1.84248 -1.75855 0
M  V30 7929 H 736.605 -3.3011 -0.942442 0
M  V30 7930 N 739.05 0.861098 -1.31996 0
M  V30 7931 C 739.98 1.98482 -1.22993 0
M  V30 7932 C 740.961 1.6971 -0.115168 0
M  V30 7933 O 742.146 1.91849 -0.30126 0
M  V30 7934 C 739.276 3.34179 -0.945615 0
M  V30 7935 C 738.23 3.77284 -2.02091 0
M  V30 7936 C 737.556 5.1054 -1.58912 0
M  V30 7937 C 738.856 3.93439 -3.43515 0
M  V30 7938 H 740.55 2.06271 -2.17008 0
M  V30 7939 H 738.096 0.991043 -1.04472 0
M  V30 7940 H 740.049 4.12338 -0.869206 0
M  V30 7941 H 738.773 3.26586 0.0301849 0
M  V30 7942 H 737.432 3.01371 -2.08737 0
M  V30 7943 H 737.08 4.99397 -0.600942 0
M  V30 7944 H 736.78 5.40352 -2.30854 0
M  V30 7945 H 738.304 5.91199 -1.52696 0
M  V30 7946 H 739.718 4.6197 -3.39495 0
M  V30 7947 H 738.115 4.34661 -4.13751 0
M  V30 7948 H 739.185 2.96548 -3.8365 0
M  V30 7949 N 740.528 1.15101 1.07655 0
M  V30 7950 C 741.756 0.947731 1.83918 0
M  V30 7951 C 742.171 -0.503927 1.81951 0
M  V30 7952 O 741.528 -1.34941 1.2287 0
M  V30 7953 C 741.579 1.4503 3.31132 0
M  V30 7954 O 741.3 2.84508 3.33146 0
M  V30 7955 C 742.801 1.28806 4.24174 0
M  V30 7956 H 740.021 0.336786 0.580358 0
M  V30 7957 H 742.565 1.52799 1.35914 0
M  V30 7958 H 740.72 0.912632 3.76497 0
M  V30 7959 H 741.134 3.0723 4.251 0
M  V30 7960 H 742.608 1.6882 5.25551 0
M  V30 7961 H 743.085 0.231851 4.38588 0
M  V30 7962 H 743.691 1.81465 3.84643 0
M  V30 7963 N 742.006 -1.2595 0.947325 0
M  V30 7964 C 743.255 -1.92759 0.593887 0
M  V30 7965 C 743.568 -1.75083 -0.872093 0
M  V30 7966 O 744.774 -2.36401 -1.33518 0
M  V30 7967 C 743.23 -3.45395 1.01144 0
M  V30 7968 C 742.838 -3.71795 2.49946 0
M  V30 7969 C 744.582 -4.18173 0.730185 0
M  V30 7970 C 742.489 -5.17901 2.85539 0
M  V30 7971 H 741.419 -0.721676 0.218403 0
M  V30 7972 H 744.07 -1.4293 1.15079 0
M  V30 7973 H 742.452 -3.94143 0.383007 0
M  V30 7974 H 743.626 -3.33728 3.17746 0
M  V30 7975 H 741.941 -3.12263 2.75465 0
M  V30 7976 H 744.538 -5.25784 0.972367 0
M  V30 7977 H 744.881 -4.14964 -0.333223 0
M  V30 7978 H 745.414 -3.75309 1.31862 0
M  V30 7979 H 742.153 -5.26216 3.90867 0
M  V30 7980 H 741.673 -5.57042 2.22406 0
M  V30 7981 H 743.352 -5.8596 2.74336 0
M  V30 7982 N 743.484 -0.715051 -1.40445 0
M  V30 7983 C 744.712 -0.263959 -2.05209 0
M  V30 7984 C 745.127 1.09403 -1.53871 0
M  V30 7985 O 744.484 1.68746 -0.695064 0
M  V30 7986 C 744.535 -0.234545 -3.60738 0
M  V30 7987 O 744.256 -1.53891 -4.10182 0
M  V30 7988 C 745.757 0.235164 -4.42676 0
M  V30 7989 H 742.977 -0.11876 -0.660407 0
M  V30 7990 H 745.521 -0.973107 -1.79864 0
M  V30 7991 H 743.676 0.425563 -3.85055 0
M  V30 7992 H 744.09 -1.43903 -5.04373 0
M  V30 7993 H 745.564 0.204598 -5.51621 0
M  V30 7994 H 746.041 1.27724 -4.20218 0
M  V30 7995 H 746.647 -0.394649 -4.23465 0
M  V30 7996 N 744.962 1.50701 -0.461195 0
M  V30 7997 C 745.892 2.31182 0.328184 0
M  V30 7998 C 746.873 1.37644 0.999408 0
M  V30 7999 O 748.058 1.66565 0.99848 0
M  V30 8000 C 745.188 3.17113 1.41621 0
M  V30 8001 C 744.142 4.19124 0.867148 0
M  V30 8002 C 743.468 4.93728 2.05272 0
M  V30 8003 C 744.768 5.22174 -0.114808 0
M  V30 8004 H 746.462 2.97423 -0.343501 0
M  V30 8005 H 744.008 1.43033 -0.166641 0
M  V30 8006 H 745.961 3.72208 1.97584 0
M  V30 8007 H 744.685 2.48739 2.11652 0
M  V30 8008 H 743.344 3.65116 0.329557 0
M  V30 8009 H 742.992 4.21835 2.73978 0
M  V30 8010 H 742.692 5.62724 1.69161 0
M  V30 8011 H 744.216 5.51654 2.61744 0
M  V30 8012 H 745.63 5.72198 0.355316 0
M  V30 8013 H 744.027 5.98833 -0.389689 0
M  V30 8014 H 745.097 4.7353 -1.04391 0
M  V30 8015 N 746.441 0.193421 1.56409 0
M  V30 8016 C 747.687 -0.446449 1.97825 0
M  V30 8017 C 748.02 -1.61386 1.08019 0
M  V30 8018 O 747.295 -1.94053 0.131839 0
M  V30 8019 C 747.578 -0.908199 3.48459 0
M  V30 8020 C 747.431 0.260914 4.49043 0
M  V30 8021 C 748.75 -1.77428 4.0275 0
M  V30 8022 H 745.869 -0.160807 0.719243 0
M  V30 8023 H 748.511 0.284006 1.87865 0
M  V30 8024 H 746.661 -1.53062 3.57077 0
M  V30 8025 H 748.333 0.898548 4.52464 0
M  V30 8026 H 746.576 0.912949 4.24085 0
M  V30 8027 H 747.247 -0.104657 5.51901 0
M  V30 8028 H 749.723 -1.24936 3.96901 0
M  V30 8029 H 748.599 -2.06633 5.08521 0
M  V30 8030 H 748.86 -2.72788 3.47907 0
M  V30 8031 N 747.919 -1.57396 -0.0801906 0
M  V30 8032 C 749.335 -1.53564 -0.434778 0
M  V30 8033 C 749.535 -0.912372 -1.79661 0
M  V30 8034 O 748.591 -0.511268 -2.4727 0
M  V30 8035 C 749.904 -2.98244 -0.383561 0
M  V30 8036 C 751.452 -3.09536 -0.46435 0
M  V30 8037 C 751.927 -4.55851 -0.443128 0
M  V30 8038 N 753.418 -4.60456 -0.503448 0
M  V30 8039 C 754.153 -5.71135 -0.509106 0
M  V30 8040 N 753.649 -6.91203 -0.47008 0
M  V30 8041 N 755.442 -5.59353 -0.555035 0
M  V30 8042 H 747.593 -1.96281 0.811635 0
M  V30 8043 H 749.856 -0.898041 0.303689 0
M  V30 8044 H 749.562 -3.47369 0.550236 0
M  V30 8045 H 749.436 -3.57705 -1.19694 0
M  V30 8046 H 751.823 -2.6039 -1.38857 0
M  V30 8047 H 751.904 -2.53 0.377445 0
M  V30 8048 H 751.548 -5.05653 0.477207 0
M  V30 8049 H 751.478 -5.10242 -1.30234 0
M  V30 8050 H 753.969 -3.74048 -0.538199 0
M  V30 8051 H 754.282 -7.7132 -0.478091 0
M  V30 8052 H 752.627 -6.93625 -0.436897 0
M  V30 8053 H 755.818 -4.64453 -0.583158 0
M  V30 8054 H 755.991 -6.4561 -0.555976 0
M  V30 8055 N 749.397 0.351382 -1.53633 0
M  V30 8056 C 750.307 1.45471 -1.84052 0
M  V30 8057 C 751.323 1.57945 -0.730015 0
M  V30 8058 O 752.499 1.73571 -1.02153 0
M  V30 8059 C 749.564 2.80562 -2.03681 0
M  V30 8060 C 748.625 2.77497 -3.27558 0
M  V30 8061 C 747.858 4.06144 -3.46241 0
M  V30 8062 O 748.081 5.03028 -2.68922 0
M  V30 8063 O 747.015 4.11092 -4.39645 0
M  V30 8064 H 750.841 1.22684 -2.77817 0
M  V30 8065 H 748.426 0.542827 -1.3919 0
M  V30 8066 H 750.308 3.6058 -2.18082 0
M  V30 8067 H 748.983 3.03296 -1.13106 0
M  V30 8068 H 747.89 1.96126 -3.18568 0
M  V30 8069 H 749.223 2.59716 -4.18101 0
M  V30 8070 N 750.875 1.45233 0.611969 0
M  V30 8071 C 751.785 1.56098 1.7513 0
M  V30 8072 C 752.801 0.445646 1.68196 0
M  V30 8073 O 753.977 0.705718 1.88631 0
M  V30 8074 C 751.042 1.52052 3.11579 0
M  V30 8075 C 750.103 2.74589 3.29999 0
M  V30 8076 C 749.336 2.70726 4.59938 0
M  V30 8077 O 749.559 1.77806 5.41979 0
M  V30 8078 O 748.493 3.61864 4.80976 0
M  V30 8079 H 752.319 2.52392 1.68914 0
M  V30 8080 H 749.904 1.27695 0.775528 0
M  V30 8081 H 751.786 1.52387 3.92882 0
M  V30 8082 H 750.461 0.589085 3.18295 0
M  V30 8083 H 749.368 2.79817 2.48301 0
M  V30 8084 H 750.701 3.66843 3.28157 0
M  V30 8085 N 752.353 -0.854086 1.3245 0
M  V30 8086 C 753.599 -1.61069 1.23225 0
M  V30 8087 C 753.932 -1.93111 -0.205349 0
M  V30 8088 O 753.207 -1.57397 -1.14265 0
M  V30 8089 C 753.49 -2.93065 2.09249 0
M  V30 8090 C 753.343 -2.67801 3.6139 0
M  V30 8091 C 754.662 -3.94341 1.95406 0
M  V30 8092 H 751.781 -0.584449 0.448986 0
M  V30 8093 H 754.423 -0.986189 1.62402 0
M  V30 8094 H 752.573 -3.46364 1.75967 0
M  V30 8095 H 754.245 -2.21052 4.04887 0
M  V30 8096 H 752.488 -2.01756 3.84027 0
M  V30 8097 H 753.159 -3.6179 4.16907 0
M  V30 8098 H 755.635 -3.50301 2.24562 0
M  V30 8099 H 754.511 -4.84555 2.57872 0
M  V30 8100 H 754.772 -4.32382 0.921865 0
M  V30 8101 N 753.831 -1.1567 -1.07043 0
M  V30 8102 C 755.08 -0.928039 -1.79082 0
M  V30 8103 C 755.393 0.545968 -1.87826 0
M  V30 8104 O 756.599 0.892308 -2.56418 0
M  V30 8105 C 755.055 -1.61103 -3.21829 0
M  V30 8106 C 754.663 -3.12228 -3.21275 0
M  V30 8107 C 756.407 -1.46404 -3.98455 0
M  V30 8108 C 754.314 -3.733 -4.58695 0
M  V30 8109 H 753.244 -0.34357 -0.671175 0
M  V30 8110 H 755.895 -1.38718 -1.20123 0
M  V30 8111 H 754.277 -1.07958 -3.81 0
M  V30 8112 H 755.451 -3.72155 -2.71731 0
M  V30 8113 H 753.766 -3.26725 -2.58147 0
M  V30 8114 H 756.363 -1.8942 -5.00024 0
M  V30 8115 H 756.706 -0.41195 -4.14257 0
M  V30 8116 H 757.239 -1.96663 -3.45787 0
M  V30 8117 H 753.978 -4.78423 -4.48098 0
M  V30 8118 H 753.498 -3.18157 -5.08465 0
M  V30 8119 H 755.177 -3.7441 -5.27661 0
M  V30 8120 N 755.309 1.25446 -0.953992 0
M  V30 8121 C 756.586 1.884 -0.525823 0
M  V30 8122 C 756.966 1.86079 0.996891 0
M  V30 8123 O 756.314 1.32389 1.8624 0
M  V30 8124 C 756.524 3.31154 -1.10172 0
M  V30 8125 C 757.872 4.07926 -1.17819 0
M  V30 8126 O 758.896 3.40273 -1.05323 0
M  V30 8127 O 757.755 5.28942 -1.37415 0
M  V30 8128 H 754.849 0.808629 -0.173345 0
M  V30 8129 H 757.395 1.33522 -1.04738 0
M  V30 8130 H 756.167 3.27271 -2.14499 0
M  V30 8131 H 755.79 3.93588 -0.56338 0
M  V30 8132 N 756.787 0.722489 1.40064 0
M  V30 8133 C 758.034 0.264979 2.00759 0
M  V30 8134 C 758.362 -1.14395 1.57302 0
M  V30 8135 O 757.617 -1.79165 0.787298 0
M  V30 8136 C 757.916 0.300682 3.56133 0
M  V30 8137 C 757.582 1.66087 4.19197 0
M  V30 8138 C 756.244 2.03319 4.36136 0
M  V30 8139 C 758.596 2.55452 4.54306 0
M  V30 8140 C 755.924 3.29448 4.8547 0
M  V30 8141 C 758.276 3.8094 5.05042 0
M  V30 8142 C 756.94 4.1828 5.2019 0
M  V30 8143 H 756.21 0.0969625 0.734629 0
M  V30 8144 H 758.857 0.926877 1.67575 0
M  V30 8145 H 757.162 -0.44479 3.89267 0
M  V30 8146 H 758.859 -0.0712542 4.00937 0
M  V30 8147 H 755.449 1.36137 4.06405 0
M  V30 8148 H 759.633 2.27961 4.40849 0
M  V30 8149 H 754.889 3.58338 4.95382 0
M  V30 8150 H 759.063 4.50351 5.31184 0
M  V30 8151 H 756.69 5.16081 5.58179 0
M  V30 8152 N 758.265 -1.50454 0.469181 0
M  V30 8153 C 759.49 -2.0722 -0.0864892 0
M  V30 8154 C 759.915 -1.33098 -1.32916 0
M  V30 8155 O 759.273 -0.378084 -1.77314 0
M  V30 8156 C 759.321 -3.58845 -0.355384 0
M  V30 8157 O 758.425 -3.86583 -1.43622 0
M  V30 8158 H 757.766 -0.663889 0.0121414 0
M  V30 8159 H 760.296 -1.93674 0.659674 0
M  V30 8160 H 760.306 -4.03617 -0.596447 0
M  V30 8161 H 758.981 -4.12211 0.552698 0
M  V30 8162 H 757.558 -3.5365 -1.18262 0
M  V30 8163 N 759.743 -0.201713 -1.56304 0
M  V30 8164 C 760.69 0.716499 -2.19397 0
M  V30 8165 C 761.66 1.20494 -1.14326 0
M  V30 8166 O 762.845 1.26763 -1.42604 0
M  V30 8167 C 759.985 1.92762 -2.86246 0
M  V30 8168 C 759.098 1.47993 -4.0586 0
M  V30 8169 C 758.233 2.64706 -4.60547 0
M  V30 8170 C 757.272 2.16576 -5.72504 0
M  V30 8171 N 756.409 3.26491 -6.21569 0
M  V30 8172 H 761.249 0.171724 -2.97505 0
M  V30 8173 H 758.786 0.073016 -1.46919 0
M  V30 8174 H 760.744 2.6384 -3.23178 0
M  V30 8175 H 759.374 2.44559 -2.10691 0
M  V30 8176 H 758.426 0.66477 -3.74546 0
M  V30 8177 H 759.738 1.08686 -4.86815 0
M  V30 8178 H 758.892 3.43898 -4.99819 0
M  V30 8179 H 757.631 3.0729 -3.78713 0
M  V30 8180 H 756.636 1.3584 -5.32755 0
M  V30 8181 H 757.861 1.75015 -6.56161 0
M  V30 8182 H 755.807 3.68594 -5.42655 0
M  V30 8183 H 755.724 2.91374 -6.97594 0
M  V30 8184 H 756.992 4.05877 -6.65495 0
M  V30 8185 N 761.222 1.57436 0.0718424 0
M  V30 8186 C 762.633 1.75975 0.623678 0
M  V30 8187 C 762.984 0.827155 1.77912 0
M  V30 8188 O 762.109 0.0112425 2.16397 0
M  V30 8189 C 762.704 3.1911 1.13816 0
M  V30 8190 C 761.263 3.38994 1.63586 0
M  V30 8191 C 760.41 2.71684 0.555261 0
M  V30 8192 H 763.361 1.57948 -0.154328 0
M  V30 8193 H 763.382 3.23267 2.00696 0
M  V30 8194 H 762.894 3.86962 0.296998 0
M  V30 8195 H 760.995 2.76256 2.50027 0
M  V30 8196 H 761.108 4.47436 1.71283 0
M  V30 8197 H 759.472 2.34236 1.00029 0
M  V30 8198 H 760.255 3.42191 -0.275712 0
M  V30 8199 N 762.7 -0.34323 1.53817 0
M  V30 8200 C 763.947 -1.08344 1.71079 0
M  V30 8201 C 764.275 -1.88633 0.474133 0
M  V30 8202 O 763.53 -1.87984 -0.544116 0
M  V30 8203 C 763.829 -2.05195 2.92626 0
M  V30 8204 C 763.495 -1.41215 4.28216 0
M  V30 8205 C 762.157 -1.23495 4.65083 0
M  V30 8206 C 764.509 -0.951273 5.12445 0
M  V30 8207 C 761.837 -0.583065 5.83796 0
M  V30 8208 C 764.189 -0.313292 6.31824 0
M  V30 8209 C 762.853 -0.123779 6.67385 0
M  V30 8210 H 762.123 -0.396458 0.626021 0
M  V30 8211 H 764.77 -0.362689 1.88034 0
M  V30 8212 H 763.075 -2.83653 2.70275 0
M  V30 8213 H 764.772 -2.62462 3.03175 0
M  V30 8214 H 761.362 -1.56005 3.992 0
M  V30 8215 H 765.546 -1.07602 4.84495 0
M  V30 8216 H 760.802 -0.424854 6.09922 0
M  V30 8217 H 764.976 0.0519179 6.96381 0
M  V30 8218 H 762.603 0.383398 7.59233 0
M  V30 8219 N 764.178 -1.45556 -0.604258 0
M  V30 8220 C 765.111 -1.48975 -1.72863 0
M  V30 8221 C 766.089 -0.345803 -1.5888 0
M  V30 8222 O 767.273 -0.546796 -1.80395 0
M  V30 8223 C 764.4 -1.34794 -3.10722 0
M  V30 8224 C 763.446 -2.53096 -3.43285 0
M  V30 8225 S 764.279 -4.15551 -3.37754 0
M  V30 8226 C 765.435 -4.03842 -4.78187 0
M  V30 8227 H 765.668 -2.44108 -1.69701 0
M  V30 8228 H 763.201 -1.33179 -0.781194 0
M  V30 8229 H 765.159 -1.273 -3.90263 0
M  V30 8230 H 763.82 -0.411254 -3.11396 0
M  V30 8231 H 763.013 -2.39109 -4.4367 0
M  V30 8232 H 762.615 -2.57469 -2.71267 0
M  V30 8233 H 764.907 -3.69191 -5.6807 0
M  V30 8234 H 765.85 -5.0415 -4.97231 0
M  V30 8235 H 766.258 -3.35443 -4.54025 0
M  V30 8236 N 765.656 0.84705 -1.32902 0
M  V30 8237 C 766.881 1.63925 -1.27056 0
M  V30 8238 C 767.306 1.87443 0.157136 0
M  V30 8239 O 766.664 1.43266 1.11106 0
M  V30 8240 C 766.712 2.97134 -2.04313 0
M  V30 8241 O 765.816 3.88049 -1.39614 0
M  V30 8242 H 765.157 0.499477 -0.437514 0
M  V30 8243 H 767.687 1.05443 -1.75336 0
M  V30 8244 H 767.697 3.46896 -2.14772 0
M  V30 8245 H 766.372 2.79339 -3.08128 0
M  V30 8246 H 764.949 3.46525 -1.3775 0
M  V30 8247 N 767.134 1.16236 1.06428 0
M  V30 8248 C 768.064 0.890807 2.1584 0
M  V30 8249 C 769.045 -0.162333 1.69324 0
M  V30 8250 O 770.23 -0.0147191 1.94194 0
M  V30 8251 C 767.36 0.389615 3.45108 0
M  V30 8252 C 766.314 1.38051 4.05125 0
M  V30 8253 C 765.64 0.737773 5.29586 0
M  V30 8254 C 766.94 2.74965 4.44062 0
M  V30 8255 H 768.634 1.80577 2.38814 0
M  V30 8256 H 766.18 0.869657 1.14774 0
M  V30 8257 H 768.133 0.187127 4.20984 0
M  V30 8258 H 766.857 -0.560851 3.21748 0
M  V30 8259 H 765.516 1.56952 3.31303 0
M  V30 8260 H 765.164 -0.219135 5.02522 0
M  V30 8261 H 764.864 1.39914 5.70699 0
M  V30 8262 H 766.388 0.545275 6.0816 0
M  V30 8263 H 767.802 2.59855 5.11027 0
M  V30 8264 H 766.199 3.37563 4.96156 0
M  V30 8265 H 767.269 3.30321 3.54987 0
M  V30 8266 N 768.612 -1.24939 0.960631 0
M  V30 8267 C 769.86 -1.92437 0.617441 0
M  V30 8268 C 770.181 -1.75543 -0.849101 0
M  V30 8269 O 769.451 -1.12269 -1.60538 0
M  V30 8270 H 768.031 -0.712192 0.225371 0
M  V30 8271 H 770.693 -1.5198 1.22017 0
M  V30 8272 H 769.789 -3.00247 0.851933 0
M  V30 8273 N 770.09 -0.729906 -1.39679 0
M  V30 8274 C 771.339 -0.272534 -1.9985 0
M  V30 8275 C 771.652 1.14519 -1.58571 0
M  V30 8276 O 772.858 1.70182 -2.11543 0
M  V30 8277 C 771.314 -0.436322 -3.57245 0
M  V30 8278 C 770.922 -1.86161 -4.0749 0
M  V30 8279 C 772.666 -0.0404679 -4.24481 0
M  V30 8280 C 770.573 -1.97522 -5.5744 0
M  V30 8281 H 769.503 -0.0981428 -0.747585 0
M  V30 8282 H 772.154 -0.903056 -1.59741 0
M  V30 8283 H 770.536 0.263015 -3.95126 0
M  V30 8284 H 771.71 -2.59248 -3.80955 0
M  V30 8285 H 770.025 -2.21021 -3.529 0
M  V30 8286 H 772.622 -0.104437 -5.34598 0
M  V30 8287 H 772.965 1.00357 -4.04023 0
M  V30 8288 H 773.498 -0.690774 -3.91757 0
M  V30 8289 H 770.237 -3.00096 -5.82771 0
M  V30 8290 H 769.757 -1.28864 -5.85794 0
M  V30 8291 H 771.436 -1.754 -6.22771 0
M  V30 8292 N 771.568 1.50203 -0.477153 0
M  V30 8293 C 772.793 2.07263 0.0754986 0
M  V30 8294 C 773.218 1.33801 1.32208 0
M  V30 8295 O 772.576 0.387482 1.77111 0
M  V30 8296 C 772.624 3.59028 0.336348 0
M  V30 8297 O 771.728 3.87339 1.4157 0
M  V30 8298 H 771.069 0.663815 -0.015662 0
M  V30 8299 H 773.599 1.93321 -0.669936 0
M  V30 8300 H 773.609 4.03927 0.575034 0
M  V30 8301 H 772.284 4.11912 -0.574551 0
M  V30 8302 H 770.861 3.54272 1.16385 0
M  V30 8303 N 773.046 0.209999 1.56195 0
M  V30 8304 C 774.295 -0.425106 1.97169 0
M  V30 8305 C 774.608 -1.61718 1.10031 0
M  V30 8306 O 775.814 -2.32105 1.40853 0
M  V30 8307 C 774.27 -0.80771 3.50719 0
M  V30 8308 C 773.878 0.360902 4.46544 0
M  V30 8309 C 775.622 -1.40906 4.00432 0
M  V30 8310 C 773.529 -0.0434919 5.91384 0
M  V30 8311 H 772.459 -0.162598 0.736259 0
M  V30 8312 H 775.11 0.304382 1.80958 0
M  V30 8313 H 773.492 -1.59429 3.62489 0
M  V30 8314 H 774.666 1.13846 4.46515 0
M  V30 8315 H 772.981 0.874729 4.07109 0
M  V30 8316 H 775.578 -1.72433 5.06133 0
M  V30 8317 H 775.921 -2.32081 3.45607 0
M  V30 8318 H 776.454 -0.686154 3.91838 0
M  V30 8319 H 773.193 0.834448 6.50167 0
M  V30 8320 H 772.713 -0.785598 5.94633 0
M  V30 8321 H 774.392 -0.474176 6.4526 0
M  V30 8322 N 774.524 -1.57472 -0.0634922 0
M  V30 8323 C 775.457 -1.99571 -1.10664 0
M  V30 8324 C 776.435 -0.874015 -1.37112 0
M  V30 8325 O 777.619 -1.13702 -1.50347 0
M  V30 8326 C 774.746 -2.3395 -2.44918 0
M  V30 8327 C 773.792 -3.56213 -2.34551 0
M  V30 8328 S 774.625 -5.06727 -1.73169 0
M  V30 8329 C 775.781 -5.44316 -3.08984 0
M  V30 8330 H 776.014 -2.87739 -0.747905 0
M  V30 8331 H 773.547 -1.5198 -0.272316 0
M  V30 8332 H 775.505 -2.54431 -3.22141 0
M  V30 8333 H 774.166 -1.46297 -2.7795 0
M  V30 8334 H 773.359 -3.77812 -3.33578 0
M  V30 8335 H 772.961 -3.35406 -1.65466 0
M  V30 8336 H 775.253 -5.42894 -4.05305 0
M  V30 8337 H 776.196 -6.4502 -2.92156 0
M  V30 8338 H 776.604 -4.71781 -3.09972 0
M  V30 8339 N 776.003 0.335068 -1.53997 0
M  V30 8340 C 777.252 1.07182 -1.70865 0
M  V30 8341 C 777.565 1.89541 -0.483078 0
M  V30 8342 O 778.771 2.66219 -0.532879 0
M  V30 8343 C 777.227 1.95497 -3.02174 0
M  V30 8344 C 776.835 1.18304 -4.32097 0
M  V30 8345 C 778.579 2.68978 -3.28407 0
M  V30 8346 C 776.486 2.05699 -5.54474 0
M  V30 8347 H 775.416 0.403857 -0.636722 0
M  V30 8348 H 778.067 0.33076 -1.80494 0
M  V30 8349 H 776.449 2.73456 -2.86423 0
M  V30 8350 H 777.623 0.451969 -4.58578 0
M  V30 8351 H 775.938 0.565556 -4.12541 0
M  V30 8352 H 778.535 3.34651 -4.17029 0
M  V30 8353 H 778.878 3.36 -2.45784 0
M  V30 8354 H 779.411 1.98087 -3.44973 0
M  V30 8355 H 776.15 1.43204 -6.39666 0
M  V30 8356 H 775.67 2.76572 -5.32229 0
M  V30 8357 H 777.349 2.64554 -5.90441 0
M  V30 8358 N 777.481 1.45874 0.596531 0
M  V30 8359 C 778.428 1.55389 1.70655 0
M  V30 8360 C 779.398 0.399036 1.61236 0
M  V30 8361 O 780.583 0.61396 1.80652 0
M  V30 8362 C 777.723 1.53705 3.0898 0
M  V30 8363 C 776.836 2.79823 3.29125 0
M  V30 8364 C 775.971 2.69735 4.5762 0
M  V30 8365 C 775.01 3.90856 4.71061 0
M  V30 8366 N 774.147 3.79237 5.90867 0
M  V30 8367 H 778.987 2.50211 1.61859 0
M  V30 8368 H 776.524 1.24146 0.789069 0
M  V30 8369 H 778.482 1.50715 3.89026 0
M  V30 8370 H 777.112 0.624247 3.16706 0
M  V30 8371 H 776.164 2.92852 2.42779 0
M  V30 8372 H 777.476 3.69628 3.34927 0
M  V30 8373 H 776.63 2.64773 5.45875 0
M  V30 8374 H 775.369 1.77547 4.54234 0
M  V30 8375 H 774.374 3.96164 3.81227 0
M  V30 8376 H 775.599 4.84124 4.76236 0
M  V30 8377 H 773.545 2.89825 5.88504 0
M  V30 8378 H 773.462 4.62686 5.97877 0
M  V30 8379 H 774.73 3.78227 6.8159 0
M  V30 8380 N 778.959 -0.83999 1.33349 0
M  V30 8381 C 779.906 -1.94972 1.23509 0
M  V30 8382 C 780.876 -1.65709 0.113967 0
M  V30 8383 O 782.061 -1.88552 0.292045 0
M  V30 8384 C 779.201 -3.30919 0.979105 0
M  V30 8385 C 778.314 -3.72587 2.18639 0
M  V30 8386 C 777.449 -4.97397 1.86465 0
M  V30 8387 C 776.488 -5.31597 3.03432 0
M  V30 8388 N 775.625 -6.47584 2.71254 0
M  V30 8389 H 780.465 -2.0272 2.18423 0
M  V30 8390 H 778.002 -0.992017 1.08616 0
M  V30 8391 H 779.96 -4.09239 0.811126 0
M  V30 8392 H 778.59 -3.22731 0.0667099 0
M  V30 8393 H 777.642 -2.89799 2.46416 0
M  V30 8394 H 778.954 -3.93844 3.06086 0
M  V30 8395 H 778.108 -5.83462 1.66305 0
M  V30 8396 H 776.847 -4.78107 0.96254 0
M  V30 8397 H 775.852 -4.44037 3.24208 0
M  V30 8398 H 777.077 -5.52836 3.94397 0
M  V30 8399 H 775.023 -6.29783 1.836 0
M  V30 8400 H 774.94 -6.68931 3.52231 0
M  V30 8401 H 776.208 -7.36764 2.54558 0
M  V30 8402 N 780.437 -1.16799 -1.0581 0
M  V30 8403 C 781.848 -0.95945 -1.60161 0
M  V30 8404 C 782.199 0.49543 -1.89842 0
M  V30 8405 O 781.324 1.36957 -1.67546 0
M  V30 8406 C 781.919 -1.73527 -2.90987 0
M  V30 8407 C 780.478 -1.57158 -3.42021 0
M  V30 8408 C 779.625 -1.74089 -2.15843 0
M  V30 8409 H 782.576 -1.31598 -0.886992 0
M  V30 8410 H 782.597 -1.21397 -3.60615 0
M  V30 8411 H 782.109 -2.79411 -2.69353 0
M  V30 8412 H 780.21 -0.537361 -3.68705 0
M  V30 8413 H 780.323 -2.35858 -4.17022 0
M  V30 8414 H 778.687 -1.16874 -2.26302 0
M  V30 8415 H 779.47 -2.81371 -1.96686 0
M  V30 8416 N 781.915 1.24427 -0.967243 0
M  V30 8417 C 782.847 2.24641 -0.454856 0
M  V30 8418 C 783.86 1.56849 0.436152 0
M  V30 8419 O 785.049 1.76846 0.242401 0
M  V30 8420 C 782.149 3.36954 0.362672 0
M  V30 8421 C 781.322 4.34318 -0.518324 0
M  V30 8422 C 780.381 5.25638 0.243122 0
M  V30 8423 O 779.407 5.68043 -0.362791 0
M  V30 8424 N 780.609 5.59897 1.53282 0
M  V30 8425 H 783.374 2.69238 -1.31648 0
M  V30 8426 H 780.935 1.38464 -0.839015 0
M  V30 8427 H 782.927 3.95014 0.880094 0
M  V30 8428 H 781.497 2.91646 1.12522 0
M  V30 8429 H 780.717 3.74953 -1.21672 0
M  V30 8430 H 782.005 4.96338 -1.11919 0
M  V30 8431 H 781.403 5.27373 2.04682 0
M  V30 8432 H 779.96 6.20488 1.99594 0
M  V30 8433 N 783.393 0.737304 1.3929 0
M  V30 8434 C 784.34 0.0988364 2.30588 0
M  V30 8435 C 785.31 -0.727206 1.49335 0
M  V30 8436 O 786.495 -0.686694 1.78014 0
M  V30 8437 C 783.635 -0.800734 3.35682 0
M  V30 8438 C 782.748 0.0381731 4.31983 0
M  V30 8439 C 781.883 -0.862884 5.24145 0
M  V30 8440 C 780.922 -0.0193639 6.12097 0
M  V30 8441 N 780.059 -0.87648 6.96608 0
M  V30 8442 H 784.899 0.883031 2.84617 0
M  V30 8443 H 782.436 0.447111 1.4014 0
M  V30 8444 H 784.394 -1.33676 3.95205 0
M  V30 8445 H 783.024 -1.55088 2.83103 0
M  V30 8446 H 782.076 0.691641 3.74059 0
M  V30 8447 H 783.388 0.690294 4.94 0
M  V30 8448 H 782.542 -1.46667 5.88705 0
M  V30 8449 H 781.281 -1.54878 4.62454 0
M  V30 8450 H 780.286 0.597202 5.46547 0
M  V30 8451 H 781.511 0.663348 6.75852 0
M  V30 8452 H 779.457 -1.54762 6.37483 0
M  V30 8453 H 779.374 -0.280892 7.55478 0
M  V30 8454 H 780.642 -1.46575 7.65595 0
M  V30 8455 N 784.871 -1.49948 0.485112 0
M  V30 8456 C 786.096 -2.073 -0.0645059 0
M  V30 8457 C 786.521 -1.345 -1.31497 0
M  V30 8458 O 785.879 -0.39687 -1.76903 0
M  V30 8459 C 785.927 -3.59201 -0.317304 0
M  V30 8460 O 785.031 -3.88085 -1.39514 0
M  V30 8461 H 784.372 -0.663723 0.0191822 0
M  V30 8462 H 786.902 -1.92963 0.680179 0
M  V30 8463 H 786.912 -4.04227 -0.553604 0
M  V30 8464 H 785.587 -4.11602 0.596387 0
M  V30 8465 H 784.164 -3.54885 -1.14504 0
M  V30 8466 N 786.349 -0.21828 -1.56081 0
M  V30 8467 C 787.296 0.693189 -2.20144 0
M  V30 8468 C 788.266 1.19274 -1.15598 0
M  V30 8469 O 789.451 1.25243 -1.4394 0
M  V30 8470 C 786.591 1.89715 -2.88275 0
M  V30 8471 C 785.704 1.4368 -4.07407 0
M  V30 8472 C 784.839 2.59807 -4.63329 0
M  V30 8473 C 783.878 2.10492 -5.74769 0
M  V30 8474 N 783.015 3.1988 -6.24997 0
M  V30 8475 H 787.855 0.14016 -2.9767 0
M  V30 8476 H 785.392 0.0574292 -1.46988 0
M  V30 8477 H 787.35 2.60398 -3.25958 0
M  V30 8478 H 785.98 2.42311 -2.13273 0
M  V30 8479 H 785.032 0.625007 -3.7523 0
M  V30 8480 H 786.344 1.03517 -4.8794 0
M  V30 8481 H 785.498 3.38577 -5.03438 0
M  V30 8482 H 784.237 3.03256 -3.81951 0
M  V30 8483 H 783.242 1.30182 -5.34165 0
M  V30 8484 H 784.467 1.68045 -6.5798 0
M  V30 8485 H 782.413 3.62817 -5.46534 0
M  V30 8486 H 782.33 2.83958 -7.00645 0
M  V30 8487 H 783.598 3.98796 -6.69763 0
M  V30 8488 N 787.827 1.57504 0.0551401 0
M  V30 8489 C 789.238 1.76626 0.604979 0
M  V30 8490 C 789.589 0.845978 1.77024 0
M  V30 8491 O 788.714 0.0341936 2.16373 0
M  V30 8492 C 789.309 3.203 1.10425 0
M  V30 8493 C 787.868 3.4071 1.59981 0
M  V30 8494 C 787.015 2.72258 0.526414 0
M  V30 8495 H 789.966 1.57775 -0.171072 0
M  V30 8496 H 789.987 3.25377 1.97256 0
M  V30 8497 H 789.499 3.87255 0.255939 0
M  V30 8498 H 787.6 2.78892 2.47083 0
M  V30 8499 H 787.713 4.49227 1.66528 0
M  V30 8500 H 786.077 2.35283 0.97539 0
M  V30 8501 H 786.86 3.41879 -0.311991 0
M  V30 8502 N 789.305 -0.326896 1.54172 0
M  V30 8503 C 790.553 -1.06313 1.71878 0
M  V30 8504 C 790.874 -1.88652 0.493498 0
M  V30 8505 O 790.144 -1.89608 -0.492522 0
M  V30 8506 H 788.724 -0.39549 0.633716 0
M  V30 8507 H 791.386 -0.364139 1.91468 0
M  V30 8508 H 790.482 -1.73105 2.59694 0
M  V30 8509 N 790.784 -1.46188 -0.588786 0
M  V30 8510 C 792.03 -1.51407 -1.34921 0
M  V30 8511 C 792.363 -0.162771 -1.93517 0
M  V30 8512 O 791.638 0.825082 -1.76132 0
M  V30 8513 C 791.921 -2.60795 -2.48311 0
M  V30 8514 C 791.774 -4.05435 -1.94789 0
M  V30 8515 C 793.093 -2.66313 -3.50379 0
M  V30 8516 H 790.212 -0.551213 -0.489217 0
M  V30 8517 H 792.854 -1.78095 -0.661993 0
M  V30 8518 H 791.004 -2.3817 -3.06932 0
M  V30 8519 H 792.676 -4.39328 -1.40672 0
M  V30 8520 H 790.919 -4.15202 -1.25659 0
M  V30 8521 H 791.59 -4.77691 -2.76613 0
M  V30 8522 H 794.066 -2.86634 -3.01629 0
M  V30 8523 H 792.942 -3.44681 -4.27184 0
M  V30 8524 H 793.203 -1.72127 -4.07216 0
M  V30 8525 N 792.262 0.832906 -1.33792 0
M  V30 8526 C 793.509 1.58853 -1.25586 0
M  V30 8527 C 793.837 1.93695 0.176807 0
M  V30 8528 O 793.092 1.59386 1.13554 0
M  V30 8529 C 793.391 2.9047 -2.08235 0
M  V30 8530 C 793.057 2.74965 -3.57358 0
M  V30 8531 C 791.719 2.70444 -3.98012 0
M  V30 8532 C 794.071 2.59347 -4.52093 0
M  V30 8533 C 791.399 2.48212 -5.31608 0
M  V30 8534 C 793.751 2.38649 -5.85858 0
M  V30 8535 C 792.415 2.32533 -6.25687 0
M  V30 8536 H 791.685 0.581285 -0.459553 0
M  V30 8537 H 794.332 0.964501 -1.65438 0
M  V30 8538 H 792.637 3.57111 -1.6118 0
M  V30 8539 H 794.334 3.48001 -1.99239 0
M  V30 8540 H 790.924 2.79319 -3.25083 0
M  V30 8541 H 795.108 2.6187 -4.2159 0
M  V30 8542 H 790.364 2.41929 -5.61498 0
M  V30 8543 H 794.538 2.25549 -6.58863 0
M  V30 8544 H 792.165 2.15067 -7.29143 0
M  V30 8545 N 793.74 1.17359 1.05189 0
M  V30 8546 C 794.965 0.98709 1.82404 0
M  V30 8547 C 795.39 -0.459848 1.82392 0
M  V30 8548 O 794.748 -1.32924 1.23292 0
M  V30 8549 C 794.796 1.53276 3.26403 0
M  V30 8550 O 793.9 0.746541 4.05587 0
M  V30 8551 H 793.241 0.35047 0.563974 0
M  V30 8552 H 795.771 1.55856 1.32552 0
M  V30 8553 H 795.781 1.55504 3.77203 0
M  V30 8554 H 794.456 2.58603 3.25726 0
M  V30 8555 H 793.033 0.795671 3.64312 0
M  V30 8556 N 795.218 -1.23913 0.973828 0
M  V30 8557 C 796.465 -1.92151 0.639079 0
M  V30 8558 C 796.793 -1.76064 -0.826545 0
M  V30 8559 O 796.048 -1.11126 -1.61088 0
M  V30 8560 C 796.347 -3.4406 0.967356 0
M  V30 8561 C 796.013 -3.80321 2.42212 0
M  V30 8562 C 794.675 -3.8993 2.81971 0
M  V30 8563 C 797.027 -3.97935 3.36596 0
M  V30 8564 C 794.355 -4.14575 4.15144 0
M  V30 8565 C 796.707 -4.24079 4.69404 0
M  V30 8566 C 795.371 -4.31908 5.08932 0
M  V30 8567 H 794.641 -0.70313 0.233856 0
M  V30 8568 H 797.288 -1.47072 1.22646 0
M  V30 8569 H 795.593 -3.90667 0.297807 0
M  V30 8570 H 797.29 -3.95077 0.686654 0
M  V30 8571 H 793.88 -3.73411 2.10385 0
M  V30 8572 H 798.064 -3.89908 3.07059 0
M  V30 8573 H 793.32 -4.18858 4.45385 0
M  V30 8574 H 797.494 -4.36652 5.42502 0
M  V30 8575 H 795.121 -4.50758 6.12145 0
M  V30 8576 N 796.696 -0.74468 -1.38897 0
M  V30 8577 C 797.626 -0.126355 -2.33158 0
M  V30 8578 C 798.607 0.713517 -1.54412 0
M  V30 8579 O 799.792 0.656523 -1.82766 0
M  V30 8580 C 796.922 0.774375 -3.38557 0
M  V30 8581 C 795.876 0.0379214 -4.27983 0
M  V30 8582 C 795.202 1.05631 -5.24162 0
M  V30 8583 C 796.502 -1.12523 -5.10035 0
M  V30 8584 H 798.196 -0.913744 -2.85116 0
M  V30 8585 H 795.742 -0.440847 -1.37086 0
M  V30 8586 H 797.695 1.21655 -4.03458 0
M  V30 8587 H 796.419 1.59399 -2.85061 0
M  V30 8588 H 795.078 -0.384733 -3.64576 0
M  V30 8589 H 794.726 1.86975 -4.66958 0
M  V30 8590 H 794.426 0.568261 -5.84846 0
M  V30 8591 H 795.95 1.49799 -5.9194 0
M  V30 8592 H 797.364 -0.761037 -5.68226 0
M  V30 8593 H 795.761 -1.54355 -5.79909 0
M  V30 8594 H 796.831 -1.94237 -4.44297 0
M  V30 8595 N 798.174 1.49689 -0.493057 0
M  V30 8596 C 799.451 1.9525 0.116907 0
M  V30 8597 C 799.831 1.43429 1.54892 0
M  V30 8598 O 799.179 0.644621 2.19219 0
M  V30 8599 C 799.389 3.4898 0.037705 0
M  V30 8600 C 800.737 4.24052 0.215621 0
M  V30 8601 O 801.761 3.5602 0.113266 0
M  V30 8602 O 800.62 5.44847 0.42477 0
M  V30 8603 H 797.714 0.820973 0.099662 0
M  V30 8604 H 800.26 1.60367 -0.555029 0
M  V30 8605 H 799.032 3.79309 -0.961251 0
M  V30 8606 H 798.655 3.9046 0.750137 0
M  V30 8607 N 799.652 0.226554 1.55963 0
M  V30 8608 C 801.063 -0.280381 1.84583 0
M  V30 8609 C 801.414 -1.59105 1.14804 0
M  V30 8610 O 800.539 -2.12297 0.419414 0
M  V30 8611 C 801.134 -0.515499 3.34855 0
M  V30 8612 C 799.693 -0.966733 3.63774 0
M  V30 8613 C 798.84 -0.0325753 2.77281 0
M  V30 8614 H 801.791 0.449626 1.52197 0
M  V30 8615 H 801.812 -1.36085 3.55332 0
M  V30 8616 H 801.324 0.438594 3.85614 0
M  V30 8617 H 799.425 -1.93401 3.18476 0
M  V30 8618 H 799.538 -0.837679 4.7172 0
M  V30 8619 H 797.902 -0.540279 2.48904 0
M  V30 8620 H 798.685 0.916524 3.30839 0
M  V30 8621 N 801.13 -1.57531 -0.0467866 0
M  V30 8622 C 802.06 -2.08425 -1.05268 0
M  V30 8623 C 803.041 -0.982941 -1.38825 0
M  V30 8624 O 804.226 -1.25716 -1.48018 0
M  V30 8625 C 801.356 -2.54897 -2.35891 0
M  V30 8626 C 800.31 -3.69132 -2.16623 0
M  V30 8627 C 799.636 -4.01747 -3.52851 0
M  V30 8628 C 800.936 -4.98243 -1.56689 0
M  V30 8629 H 802.63 -2.92716 -0.62908 0
M  V30 8630 H 800.176 -1.40816 -0.301156 0
M  V30 8631 H 802.129 -2.8912 -3.06574 0
M  V30 8632 H 800.853 -1.67666 -2.80278 0
M  V30 8633 H 799.512 -3.35231 -1.48377 0
M  V30 8634 H 799.16 -3.11608 -3.94853 0
M  V30 8635 H 798.86 -4.78681 -3.4079 0
M  V30 8636 H 800.384 -4.38487 -4.24925 0
M  V30 8637 H 801.798 -5.30535 -2.17268 0
M  V30 8638 H 800.195 -5.79669 -1.55255 0
M  V30 8639 H 801.265 -4.81986 -0.530827 0
M  V30 8640 N 802.608 0.318715 -1.54344 0
M  V30 8641 C 803.571 1.37545 -1.83342 0
M  V30 8642 C 804.571 1.445 -0.705444 0
M  V30 8643 O 805.761 1.44443 -0.973752 0
M  V30 8644 C 802.893 2.76225 -1.99781 0
M  V30 8645 H 804.086 1.13084 -2.77762 0
M  V30 8646 H 801.639 0.554457 -1.46135 0
M  V30 8647 H 802.374 3.05934 -1.07588 0
M  V30 8648 H 802.159 2.7257 -2.81865 0
M  V30 8649 H 803.649 3.52664 -2.23647 0
M  V30 8650 N 804.086 1.46499 0.581025 0
M  V30 8651 C 805.316 1.55244 1.36319 0
M  V30 8652 C 805.724 0.193059 1.88212 0
M  V30 8653 O 805.067 -0.820109 1.64377 0
M  V30 8654 C 805.129 2.498 2.58535 0
M  V30 8655 C 804.793 3.96007 2.28096 0
M  V30 8656 C 805.79 4.85171 1.8683 0
M  V30 8657 C 803.475 4.41152 2.40189 0
M  V30 8658 C 805.469 6.17493 1.58053 0
M  V30 8659 C 803.156 5.73508 2.11024 0
M  V30 8660 C 804.154 6.615 1.70021 0
M  V30 8661 O 803.842 7.914 1.41215 0
M  V30 8662 H 803.574 0.527513 0.422736 0
M  V30 8663 H 806.128 1.92623 0.713139 0
M  V30 8664 H 804.358 2.07443 3.2635 0
M  V30 8665 H 806.047 2.48934 3.20604 0
M  V30 8666 H 806.813 4.51548 1.77001 0
M  V30 8667 H 802.692 3.72886 2.71066 0
M  V30 8668 H 806.236 6.86131 1.25974 0
M  V30 8669 H 802.133 6.06679 2.20478 0
M  V30 8670 H 802.901 8.03681 1.55046 0
M  V30 8671 N 805.565 -0.825799 1.34232 0
M  V30 8672 C 806.475 -1.9684 1.27638 0
M  V30 8673 C 807.491 -1.73018 0.184569 0
M  V30 8674 O 808.667 -1.97172 0.410525 0
M  V30 8675 C 805.732 -3.31084 1.02879 0
M  V30 8676 C 804.793 -3.67933 2.21188 0
M  V30 8677 C 804.026 -4.95772 1.976 0
M  V30 8678 O 804.249 -5.62721 0.93281 0
M  V30 8679 O 803.183 -5.30431 2.84477 0
M  V30 8680 H 807.009 -2.05346 2.23756 0
M  V30 8681 H 804.594 -0.960772 1.1441 0
M  V30 8682 H 806.476 -4.11492 0.908406 0
M  V30 8683 H 805.151 -3.23552 0.0979821 0
M  V30 8684 H 804.058 -2.87981 2.38784 0
M  V30 8685 H 805.391 -3.80147 3.12648 0
M  V30 8686 N 807.043 -1.17915 -1.04565 0
M  V30 8687 C 808.292 -0.965816 -1.77073 0
M  V30 8688 C 808.605 0.506005 -1.88942 0
M  V30 8689 O 809.811 0.837717 -2.58253 0
M  V30 8690 C 808.267 -1.67894 -3.18339 0
M  V30 8691 C 807.875 -3.18972 -3.1458 0
M  V30 8692 C 809.619 -1.54823 -3.9526 0
M  V30 8693 C 807.526 -3.82946 -4.50674 0
M  V30 8694 H 806.456 -0.357729 -0.663736 0
M  V30 8695 H 809.107 -1.41235 -1.17153 0
M  V30 8696 H 807.489 -1.16016 -3.78624 0
M  V30 8697 H 808.663 -3.77835 -2.63776 0
M  V30 8698 H 806.978 -3.32127 -2.51159 0
M  V30 8699 H 809.575 -1.99984 -4.95894 0
M  V30 8700 H 809.918 -0.499727 -4.1329 0
M  V30 8701 H 810.451 -2.03953 -3.41538 0
M  V30 8702 H 807.19 -4.8782 -4.37849 0
M  V30 8703 H 806.71 -3.2887 -5.01602 0
M  V30 8704 H 808.389 -3.85518 -5.196 0
M  V30 8705 N 808.521 1.23394 -0.980386 0
M  V30 8706 C 809.767 1.924 -0.659848 0
M  V30 8707 C 810.122 1.75076 0.797883 0
M  V30 8708 O 809.415 1.10104 1.56805 0
M  V30 8709 C 809.609 3.43542 -0.985588 0
M  V30 8710 C 809.438 3.75568 -2.47343 0
M  V30 8711 C 808.208 3.96257 -3.13541 0
M  V30 8712 C 810.406 3.81045 -3.45412 0
M  V30 8713 N 808.388 4.15489 -4.51932 0
M  V30 8714 C 809.759 4.05269 -4.69209 0
M  V30 8715 C 811.814 3.63837 -3.39893 0
M  V30 8716 C 810.517 4.14071 -5.88164 0
M  V30 8717 C 812.543 3.73892 -4.58212 0
M  V30 8718 C 811.905 3.98553 -5.80805 0
M  V30 8719 H 808.004 0.725229 -0.292518 0
M  V30 8720 H 810.588 1.48615 -1.25784 0
M  V30 8721 H 808.759 3.86163 -0.416289 0
M  V30 8722 H 810.491 3.99887 -0.622324 0
M  V30 8723 H 807.246 3.93168 -2.64038 0
M  V30 8724 H 807.67 4.29058 -5.23677 0
M  V30 8725 H 812.312 3.43767 -2.46139 0
M  V30 8726 H 810.03 4.32949 -6.82335 0
M  V30 8727 H 813.616 3.61932 -4.55518 0
M  V30 8728 H 812.496 4.06148 -6.70831 0
M  V30 8729 N 809.999 0.752036 1.385 0
M  V30 8730 C 810.932 0.0717411 2.28087 0
M  V30 8731 C 811.91 -0.729945 1.45295 0
M  V30 8732 O 813.094 -0.708902 1.74662 0
M  V30 8733 C 810.221 -0.905237 3.26379 0
M  V30 8734 C 809.267 -0.189973 4.26077 0
M  V30 8735 S 810.1 1.10815 5.23909 0
M  V30 8736 C 811.256 0.134202 6.25756 0
M  V30 8737 H 811.489 0.831438 2.85437 0
M  V30 8738 H 809.022 0.544552 1.44478 0
M  V30 8739 H 810.98 -1.46358 3.83523 0
M  V30 8740 H 809.641 -1.63789 2.68015 0
M  V30 8741 H 808.834 -0.92985 4.95348 0
M  V30 8742 H 808.436 0.296804 3.7282 0
M  V30 8743 H 810.728 -0.700345 6.7387 0
M  V30 8744 H 811.671 0.794532 7.03628 0
M  V30 8745 H 812.079 -0.245801 5.63965 0
M  V30 8746 N 811.477 -1.49425 0.500989 0
M  V30 8747 C 812.717 -2.04357 -0.0419004 0
M  V30 8748 C 813.081 -1.37236 -1.34277 0
M  V30 8749 O 814.282 -1.82889 -1.9699 0
M  V30 8750 C 812.553 -3.56889 -0.19112 0
M  V30 8751 S 814.112 -4.33369 -0.688259 0
M  V30 8752 H 810.93 -0.710998 -0.00177796 0
M  V30 8753 H 813.532 -1.83479 0.674953 0
M  V30 8754 H 812.236 -4.03283 0.760964 0
M  V30 8755 H 811.767 -3.82171 -0.933214 0
M  V30 8756 H 813.782 -4.55961 -1.9574 0
M  V30 8757 N 812.955 -0.234822 -1.55841 0
M  V30 8758 C 814.204 0.393685 -1.97821 0
M  V30 8759 C 814.517 1.59947 -1.1259 0
M  V30 8760 O 815.723 2.29835 -1.44528 0
M  V30 8761 C 814.179 0.751811 -3.5196 0
M  V30 8762 C 813.787 -0.431898 -4.45913 0
M  V30 8763 C 815.531 1.34518 -4.02623 0
M  V30 8764 C 813.438 -0.0505976 -5.91378 0
M  V30 8765 H 812.368 0.150864 -0.738753 0
M  V30 8766 H 815.019 -0.333132 -1.80451 0
M  V30 8767 H 813.401 1.53642 -3.6498 0
M  V30 8768 H 814.575 -1.20935 -4.44647 0
M  V30 8769 H 812.89 -0.939385 -4.05666 0
M  V30 8770 H 815.487 1.64359 -5.08813 0
M  V30 8771 H 815.83 2.26554 -3.49255 0
M  V30 8772 H 816.363 0.623729 -3.9288 0
M  V30 8773 H 813.102 -0.937779 -6.48757 0
M  V30 8774 H 812.622 0.690898 -5.95808 0
M  V30 8775 H 814.301 0.37146 -6.45933 0
M  V30 8776 N 814.433 1.57553 0.0384317 0
M  V30 8777 C 815.679 1.89121 0.732199 0
M  V30 8778 C 816.012 0.831404 1.75503 0
M  V30 8779 O 815.287 -0.154642 1.93884 0
M  V30 8780 C 815.57 3.31338 1.41021 0
M  V30 8781 C 815.423 4.48004 0.401532 0
M  V30 8782 C 816.742 3.72318 2.34665 0
M  V30 8783 H 813.861 0.687819 0.264715 0
M  V30 8784 H 816.503 1.89999 -0.00496279 0
M  V30 8785 H 814.653 3.3072 2.03854 0
M  V30 8786 H 816.325 4.60755 -0.224159 0
M  V30 8787 H 814.568 4.32895 -0.280092 0
M  V30 8788 H 815.239 5.44377 0.91423 0
M  V30 8789 H 817.715 3.74243 1.81883 0
M  V30 8790 H 816.591 4.72652 2.7909 0
M  V30 8791 H 816.852 3.04062 3.20934 0
M  V30 8792 N 815.911 -0.310526 1.54511 0
M  V30 8793 C 817.158 -1.04691 1.73338 0
M  V30 8794 C 817.486 -1.87584 0.514038 0
M  V30 8795 O 816.741 -1.89096 -0.504119 0
M  V30 8796 C 817.04 -1.98942 2.96912 0
M  V30 8797 C 816.706 -1.321 4.31115 0
M  V30 8798 C 815.368 -1.13603 4.67598 0
M  V30 8799 C 817.72 -0.842362 5.14348 0
M  V30 8800 C 815.048 -0.459102 5.84901 0
M  V30 8801 C 817.4 -0.179202 6.32346 0
M  V30 8802 C 816.064 0.0178111 6.67498 0
M  V30 8803 H 815.334 -0.38309 0.634289 0
M  V30 8804 H 817.981 -0.322723 1.88761 0
M  V30 8805 H 816.286 -2.77856 2.76231 0
M  V30 8806 H 817.983 -2.55972 3.08674 0
M  V30 8807 H 814.573 -1.47502 4.02419 0
M  V30 8808 H 818.757 -0.973013 4.86668 0
M  V30 8809 H 814.013 -0.295385 6.10686 0
M  V30 8810 H 818.187 0.199619 6.96114 0
M  V30 8811 H 815.814 0.544356 7.58249 0
M  V30 8812 N 817.389 -1.46805 -0.573248 0
M  V30 8813 C 818.352 -1.57655 -1.66366 0
M  V30 8814 C 819.352 -0.452905 -1.5429 0
M  V30 8815 O 820.542 -0.717502 -1.58737 0
M  V30 8816 C 817.674 -1.50584 -3.05839 0
M  V30 8817 H 818.867 -2.54842 -1.581 0
M  V30 8818 H 816.42 -1.34756 -0.791868 0
M  V30 8819 H 817.155 -0.547127 -3.19651 0
M  V30 8820 H 816.94 -2.32118 -3.16012 0
M  V30 8821 H 818.43 -1.61282 -3.85199 0
M  V30 8822 N 818.867 0.818669 -1.34668 0
M  V30 8823 C 820.097 1.60441 -1.30162 0
M  V30 8824 C 820.505 1.88783 0.125579 0
M  V30 8825 O 819.848 1.48281 1.08437 0
M  V30 8826 C 819.91 2.96794 -2.02864 0
M  V30 8827 C 819.574 2.91327 -3.52105 0
M  V30 8828 C 820.571 2.65611 -4.4693 0
M  V30 8829 C 818.256 3.10825 -3.9458 0
M  V30 8830 C 820.25 2.59452 -5.82206 0
M  V30 8831 C 817.937 3.0429 -5.29954 0
M  V30 8832 C 818.935 2.78637 -6.23579 0
M  V30 8833 O 818.623 2.72042 -7.56471 0
M  V30 8834 H 818.355 0.505278 -0.449077 0
M  V30 8835 H 820.909 1.02632 -1.77921 0
M  V30 8836 H 819.139 3.56538 -1.49725 0
M  V30 8837 H 820.828 3.57837 -1.91592 0
M  V30 8838 H 821.594 2.50278 -4.15434 0
M  V30 8839 H 817.473 3.29807 -3.221 0
M  V30 8840 H 821.017 2.39349 -6.55254 0
M  V30 8841 H 816.914 3.19177 -5.61067 0
M  V30 8842 H 817.682 2.87738 -7.66257 0
M  V30 8843 N 820.346 1.18468 1.03938 0
M  V30 8844 C 821.595 0.975193 1.76558 0
M  V30 8845 C 821.908 -0.495978 1.89207 0
M  V30 8846 O 823.114 -0.824009 2.58694 0
M  V30 8847 C 821.57 1.69579 3.17444 0
M  V30 8848 C 821.178 3.20636 3.12884 0
M  V30 8849 C 822.922 1.56917 3.94433 0
M  V30 8850 C 820.829 3.8533 4.48636 0
M  V30 8851 H 819.759 0.361244 0.66183 0
M  V30 8852 H 822.41 1.41854 1.16403 0
M  V30 8853 H 820.792 1.18022 3.78004 0
M  V30 8854 H 821.966 3.79228 2.61768 0
M  V30 8855 H 820.281 3.33454 2.49394 0
M  V30 8856 H 822.878 2.02611 4.94826 0
M  V30 8857 H 823.221 0.521638 4.13019 0
M  V30 8858 H 823.754 2.05762 3.40451 0
M  V30 8859 H 820.493 4.90136 4.35255 0
M  V30 8860 H 820.013 3.31526 4.99851 0
M  V30 8861 H 821.692 3.88269 5.17549 0
M  V30 8862 N 821.824 -1.22873 0.986916 0
M  V30 8863 C 823.072 -1.91084 0.658121 0
M  V30 8864 C 823.393 -1.77304 -0.811675 0
M  V30 8865 O 822.663 -1.15649 -1.58121 0
M  V30 8866 H 821.243 -0.707251 0.240427 0
M  V30 8867 H 823.905 -1.49357 1.25213 0
M  V30 8868 H 823.001 -2.98373 0.915428 0
M  V30 8869 N 823.302 -0.75937 -1.38099 0
M  V30 8870 C 824.548 -0.318584 -2.00282 0
M  V30 8871 C 824.881 1.09854 -1.60143 0
M  V30 8872 O 824.156 1.75344 -0.841702 0
M  V30 8873 C 824.439 -0.448047 -3.57302 0
M  V30 8874 C 824.292 -1.9067 -4.07388 0
M  V30 8875 C 825.611 0.155119 -4.39827 0
M  V30 8876 H 822.73 -0.117233 -0.727616 0
M  V30 8877 H 825.372 -0.960097 -1.63958 0
M  V30 8878 H 823.522 0.0981003 -3.88376 0
M  V30 8879 H 825.194 -2.5116 -3.86932 0
M  V30 8880 H 823.437 -2.41979 -3.6004 0
M  V30 8881 H 824.108 -1.94841 -5.1647 0
M  V30 8882 H 826.584 -0.31073 -4.14938 0
M  V30 8883 H 825.46 0.0343264 -5.48889 0
M  V30 8884 H 825.721 1.24407 -4.24235 0
M  V30 8885 N 824.78 1.49157 -0.508906 0
M  V30 8886 C 826.005 2.07376 0.0315182 0
M  V30 8887 C 826.43 1.36575 1.2934 0
M  V30 8888 O 825.788 0.424963 1.76249 0
M  V30 8889 C 825.836 3.59661 0.260118 0
M  V30 8890 O 824.94 3.90255 1.33322 0
M  V30 8891 H 824.281 0.663334 -0.029739 0
M  V30 8892 H 826.811 1.91857 -0.710791 0
M  V30 8893 H 826.821 4.05056 0.489225 0
M  V30 8894 H 825.496 4.10601 -0.661794 0
M  V30 8895 H 824.073 3.56661 1.08844 0
M  V30 8896 N 826.258 0.243083 1.55714 0
M  V30 8897 C 827.504 -0.383287 1.99145 0
M  V30 8898 C 827.837 -1.57868 1.13098 0
M  V30 8899 O 827.112 -1.93535 0.193509 0
M  V30 8900 C 827.395 -0.796879 3.51172 0
M  V30 8901 C 827.248 0.403642 4.47985 0
M  V30 8902 C 828.567 -1.64525 4.08191 0
M  V30 8903 H 825.686 -0.137843 0.723995 0
M  V30 8904 H 828.328 0.343631 1.86867 0
M  V30 8905 H 826.478 -1.41625 3.61766 0
M  V30 8906 H 828.15 1.04204 4.49376 0
M  V30 8907 H 826.393 1.04741 4.20965 0
M  V30 8908 H 827.064 0.0709794 5.51954 0
M  V30 8909 H 829.54 -1.12246 4.00674 0
M  V30 8910 H 828.416 -1.9035 5.14838 0
M  V30 8911 H 828.677 -2.61582 3.56409 0
M  V30 8912 N 827.736 -1.57571 -0.0300757 0
M  V30 8913 C 828.982 -1.89506 -0.722159 0
M  V30 8914 C 829.315 -0.840699 -1.7506 0
M  V30 8915 O 828.59 0.144358 -1.93964 0
M  V30 8916 C 828.873 -3.32081 -1.39262 0
M  V30 8917 C 828.726 -4.48211 -0.377768 0
M  V30 8918 C 830.045 -3.73557 -2.32687 0
M  V30 8919 H 827.164 -0.689213 -0.261064 0
M  V30 8920 H 829.806 -1.89994 0.0150388 0
M  V30 8921 H 827.956 -3.31796 -2.02098 0
M  V30 8922 H 829.628 -4.6063 0.248591 0
M  V30 8923 H 827.871 -4.3274 0.303045 0
M  V30 8924 H 828.542 -5.44854 -0.885347 0
M  V30 8925 H 831.018 -3.75202 -1.79896 0
M  V30 8926 H 829.894 -4.74125 -2.7658 0
M  V30 8927 H 830.155 -3.05759 -3.19317 0
M  V30 8928 N 829.214 0.302327 -1.54673 0
M  V30 8929 C 830.144 1.37759 -1.88533 0
M  V30 8930 C 831.125 1.52961 -0.744113 0
M  V30 8931 O 832.31 1.6649 -0.999731 0
M  V30 8932 C 829.44 2.74201 -2.13146 0
M  V30 8933 C 828.394 2.73765 -3.28993 0
M  V30 8934 C 827.72 4.13483 -3.39022 0
M  V30 8935 C 829.02 2.35624 -4.66132 0
M  V30 8936 H 830.714 1.0967 -2.78591 0
M  V30 8937 H 828.26 0.52613 -1.34044 0
M  V30 8938 H 830.213 3.49508 -2.35419 0
M  V30 8939 H 828.937 3.03812 -1.19858 0
M  V30 8940 H 827.596 2.00914 -3.06642 0
M  V30 8941 H 827.244 4.40269 -2.43253 0
M  V30 8942 H 826.944 4.14093 -4.16894 0
M  V30 8943 H 828.468 4.90572 -3.63553 0
M  V30 8944 H 829.882 3.00647 -4.88143 0
M  V30 8945 H 828.279 2.47449 -5.46707 0
M  V30 8946 H 829.349 1.30753 -4.66939 0
M  V30 8947 N 830.692 1.47107 0.565454 0
M  V30 8948 C 831.939 1.53308 1.32299 0
M  V30 8949 C 832.267 0.1919 1.93551 0
M  V30 8950 O 831.522 -0.81435 1.77952 0
M  V30 8951 C 831.821 2.59309 2.45954 0
M  V30 8952 C 831.487 4.02827 2.02586 0
M  V30 8953 C 830.149 4.41897 1.90474 0
M  V30 8954 C 832.501 4.92913 1.6937 0
M  V30 8955 C 829.829 5.68898 1.4343 0
M  V30 8956 C 832.181 6.20368 1.238 0
M  V30 8957 C 830.845 6.58327 1.10278 0
M  V30 8958 H 830.115 0.560993 0.484116 0
M  V30 8959 H 832.762 1.80667 0.634965 0
M  V30 8960 H 831.067 2.25676 3.20277 0
M  V30 8961 H 832.764 2.61332 3.04149 0
M  V30 8962 H 829.354 3.71953 2.12952 0
M  V30 8963 H 833.538 4.63433 1.77605 0
M  V30 8964 H 828.794 5.97065 1.31618 0
M  V30 8965 H 832.968 6.89589 0.971586 0
M  V30 8966 H 830.595 7.56628 0.736027 0
M  V30 8967 N 832.17 -0.811516 1.35101 0
M  V30 8968 C 833.1 -1.9378 1.30275 0
M  V30 8969 C 834.081 -1.69165 0.178075 0
M  V30 8970 O 835.266 -1.90599 0.372256 0
M  V30 8971 C 832.396 -3.30439 1.06899 0
M  V30 8972 C 831.35 -3.69523 2.15955 0
M  V30 8973 C 830.676 -5.0429 1.77751 0
M  V30 8974 C 831.976 -3.80419 3.57881 0
M  V30 8975 H 833.67 -1.98075 2.24514 0
M  V30 8976 H 831.216 -0.951586 1.08078 0
M  V30 8977 H 833.169 -4.08828 1.02164 0
M  V30 8978 H 831.893 -3.26473 0.0910462 0
M  V30 8979 H 830.552 -2.93416 2.19778 0
M  V30 8980 H 830.2 -4.96823 0.785876 0
M  V30 8981 H 829.9 -5.31411 2.5075 0
M  V30 8982 H 831.424 -5.85125 1.74533 0
M  V30 8983 H 832.838 -4.49051 3.56407 0
M  V30 8984 H 831.235 -4.19005 4.29598 0
M  V30 8985 H 832.305 -2.82105 3.94391 0
M  V30 8986 N 833.648 -1.19017 -1.03309 0
M  V30 8987 C 834.894 -0.991681 -1.769 0
M  V30 8988 C 835.227 0.476813 -1.88255 0
M  V30 8989 O 834.502 1.35407 -1.39625 0
M  V30 8990 C 834.785 -1.65627 -3.19749 0
M  V30 8991 C 834.638 -3.19813 -3.1629 0
M  V30 8992 C 835.957 -1.37579 -4.18043 0
M  V30 8993 H 833.076 -0.361674 -0.642153 0
M  V30 8994 H 835.718 -1.46795 -1.20628 0
M  V30 8995 H 833.868 -1.25132 -3.67796 0
M  V30 8996 H 835.54 -3.69494 -2.76174 0
M  V30 8997 H 833.783 -3.51578 -2.54117 0
M  V30 8998 H 834.454 -3.61457 -4.17196 0
M  V30 8999 H 836.93 -1.72679 -3.78578 0
M  V30 9000 H 835.806 -1.86636 -5.16196 0
M  V30 9001 H 836.067 -0.300118 -4.4108 0
M  V30 9002 N 835.127 1.22348 -0.993418 0
M  V30 9003 C 836.352 1.95666 -0.687727 0
M  V30 9004 C 836.777 1.72883 0.741161 0
M  V30 9005 O 836.135 1.00837 1.50671 0
M  V30 9006 C 836.183 3.46457 -0.99998 0
M  V30 9007 O 835.287 4.12281 -0.0989386 0
M  V30 9008 H 834.628 0.612102 -0.257346 0
M  V30 9009 H 837.158 1.55428 -1.33054 0
M  V30 9010 H 837.168 3.96976 -0.942035 0
M  V30 9011 H 835.843 3.62365 -2.04118 0
M  V30 9012 H 834.42 3.72295 -0.212413 0
M  V30 9013 N 836.605 0.766683 1.37694 0
M  V30 9014 C 838.021 0.445739 1.53249 0
M  V30 9015 C 838.221 -1.03935 1.72626 0
M  V30 9016 O 837.277 -1.82525 1.74473 0
M  V30 9017 C 838.59 1.2564 2.73194 0
M  V30 9018 C 840.138 1.24779 2.87053 0
M  V30 9019 C 840.613 2.04169 4.09974 0
M  V30 9020 N 842.104 2.01497 4.17077 0
M  V30 9021 C 842.839 2.5971 5.11212 0
M  V30 9022 N 842.335 3.26691 6.10938 0
M  V30 9023 N 844.128 2.49568 5.03659 0
M  V30 9024 H 836.279 1.72899 1.23368 0
M  V30 9025 H 838.542 0.733701 0.600322 0
M  V30 9026 H 838.248 2.30859 2.65324 0
M  V30 9027 H 838.122 0.882133 3.6674 0
M  V30 9028 H 840.509 0.203603 2.94397 0
M  V30 9029 H 840.59 1.66166 1.9448 0
M  V30 9030 H 840.234 3.08606 4.03392 0
M  V30 9031 H 840.164 1.60167 5.01651 0
M  V30 9032 H 842.655 1.52728 3.45662 0
M  V30 9033 H 842.968 3.68497 6.79286 0
M  V30 9034 H 841.313 3.30789 6.11231 0
M  V30 9035 H 844.504 1.96859 4.24693 0
M  V30 9036 H 844.677 2.95231 5.76839 0
M  V30 9037 N 838.083 -1.48885 0.516809 0
M  V30 9038 C 839.33 -2.02488 -0.0220602 0
M  V30 9039 C 839.658 -1.39513 -1.35523 0
M  V30 9040 O 838.913 -0.52558 -1.8851 0
M  V30 9041 C 839.212 -3.56801 -0.206798 0
M  V30 9042 C 838.878 -4.38496 1.05035 0
M  V30 9043 C 837.54 -4.60538 1.39492 0
M  V30 9044 C 839.892 -4.85909 1.88525 0
M  V30 9045 C 837.22 -5.2724 2.57361 0
M  V30 9046 C 839.572 -5.53909 3.05561 0
M  V30 9047 C 838.236 -5.74193 3.4038 0
M  V30 9048 H 837.506 -0.740956 -0.00807238 0
M  V30 9049 H 840.153 -1.79014 0.680168 0
M  V30 9050 H 838.458 -3.79042 -0.991687 0
M  V30 9051 H 840.155 -3.95885 -0.638447 0
M  V30 9052 H 836.745 -4.2159 0.771984 0
M  V30 9053 H 840.929 -4.68694 1.63218 0
M  V30 9054 H 836.185 -5.41145 2.84556 0
M  V30 9055 H 840.359 -5.89619 3.7057 0
M  V30 9056 H 837.986 -6.25652 4.31814 0
M  V30 9057 N 839.561 -0.251338 -1.55583 0
M  V30 9058 C 840.786 0.379136 -2.03905 0
M  V30 9059 C 841.211 1.50428 -1.12929 0
M  V30 9060 O 840.569 1.80882 -0.123114 0
M  V30 9061 C 840.617 0.86009 -3.50193 0
M  V30 9062 O 839.721 1.96932 -3.62342 0
M  V30 9063 H 839.062 0.0820183 -0.658915 0
M  V30 9064 H 841.592 -0.378692 -2.01065 0
M  V30 9065 H 841.602 1.16214 -3.91099 0
M  V30 9066 H 840.277 0.0367559 -4.15884 0
M  V30 9067 H 838.854 1.67163 -3.33333 0
M  V30 9068 N 841.039 1.57585 0.0217189 0
M  V30 9069 C 842.45 1.7787 0.567377 0
M  V30 9070 C 842.801 0.883337 1.7519 0
M  V30 9071 O 841.926 0.0800819 2.16252 0
M  V30 9072 C 842.521 3.2257 1.03606 0
M  V30 9073 C 841.08 3.44026 1.52718 0
M  V30 9074 C 840.227 2.73313 0.468545 0
M  V30 9075 H 843.178 1.57377 -0.2045 0
M  V30 9076 H 843.199 3.29488 1.9031 0
M  V30 9077 H 842.711 3.87711 0.173739 0
M  V30 9078 H 840.812 2.8407 2.41111 0
M  V30 9079 H 840.925 4.52659 1.56962 0
M  V30 9080 H 839.289 2.37299 0.925263 0
M  V30 9081 H 840.072 3.41141 -0.384438 0
M  V30 9082 N 842.517 -0.29412 1.54831 0
M  V30 9083 C 843.747 -1.04572 1.7818 0
M  V30 9084 C 844.155 -1.81187 0.544776 0
M  V30 9085 O 843.498 -1.769 -0.495169 0
M  V30 9086 C 843.56 -2.06748 2.94101 0
M  V30 9087 C 843.224 -1.49265 4.31936 0
M  V30 9088 C 844.221 -0.919136 5.11711 0
M  V30 9089 C 841.906 -1.52621 4.78552 0
M  V30 9090 C 843.9 -0.386824 6.36225 0
M  V30 9091 C 841.587 -0.990031 6.03027 0
M  V30 9092 C 842.585 -0.421315 6.81699 0
M  V30 9093 O 842.273 0.106713 8.03829 0
M  V30 9094 H 842.005 -0.31559 0.597812 0
M  V30 9095 H 844.559 -0.336817 2.0262 0
M  V30 9096 H 842.789 -2.81339 2.65303 0
M  V30 9097 H 844.478 -2.67865 3.04964 0
M  V30 9098 H 845.244 -0.886062 4.76837 0
M  V30 9099 H 841.123 -1.95826 4.17341 0
M  V30 9100 H 844.667 0.0577248 6.97576 0
M  V30 9101 H 840.564 -1.02027 6.37386 0
M  V30 9102 H 841.332 -0.00593526 8.185 0
M  V30 9103 N 843.995 -1.47404 -0.557645 0
M  V30 9104 C 844.905 -1.62491 -1.69216 0
M  V30 9105 C 845.921 -0.507764 -1.66426 0
M  V30 9106 O 847.097 -0.775241 -1.85882 0
M  V30 9107 C 844.162 -1.63511 -3.05721 0
M  V30 9108 C 843.223 -2.86648 -3.1958 0
M  V30 9109 C 842.456 -2.87609 -4.49574 0
M  V30 9110 O 842.679 -1.97799 -5.35006 0
M  V30 9111 O 841.613 -3.79465 -4.67215 0
M  V30 9112 H 845.439 -2.58487 -1.59431 0
M  V30 9113 H 843.024 -1.30485 -0.7276 0
M  V30 9114 H 844.906 -1.66863 -3.86956 0
M  V30 9115 H 843.581 -0.706812 -3.15889 0
M  V30 9116 H 842.488 -2.8884 -2.37744 0
M  V30 9117 H 843.821 -3.7877 -3.14316 0
M  V30 9118 N 845.473 0.80434 -1.35529 0
M  V30 9119 C 846.719 1.56328 -1.30127 0
M  V30 9120 C 847.074 1.92008 0.122699 0
M  V30 9121 O 846.367 1.58693 1.07364 0
M  V30 9122 C 846.561 2.85988 -2.14349 0
M  V30 9123 C 846.39 2.62977 -3.64792 0
M  V30 9124 C 845.16 2.58757 -4.34019 0
M  V30 9125 C 847.358 2.332 -4.58391 0
M  V30 9126 N 845.34 2.27487 -5.70195 0
M  V30 9127 C 846.711 2.11788 -5.82706 0
M  V30 9128 C 848.766 2.19082 -4.4711 0
M  V30 9129 C 847.469 1.77688 -6.97008 0
M  V30 9130 C 849.495 1.86378 -5.61264 0
M  V30 9131 C 848.857 1.65804 -6.84608 0
M  V30 9132 H 844.956 0.57368 -0.531428 0
M  V30 9133 H 847.54 0.941313 -1.70433 0
M  V30 9134 H 845.711 3.46077 -1.76311 0
M  V30 9135 H 847.443 3.51571 -2.00449 0
M  V30 9136 H 844.198 2.73484 -3.86656 0
M  V30 9137 H 844.622 2.1464 -6.42074 0
M  V30 9138 H 849.264 2.33686 -3.5235 0
M  V30 9139 H 846.982 1.61822 -7.91732 0
M  V30 9140 H 850.568 1.7616 -5.5449 0
M  V30 9141 H 849.448 1.40868 -7.71444 0
M  V30 9142 N 846.951 1.19563 1.02676 0
M  V30 9143 C 847.901 0.903055 2.09354 0
M  V30 9144 C 848.885 -0.133009 1.60349 0
M  V30 9145 O 850.077 0.0729744 1.7685 0
M  V30 9146 C 847.206 0.445852 3.40392 0
M  V30 9147 C 846.292 1.51477 3.96126 0
M  V30 9148 N 846.683 2.73474 4.25495 0
M  V30 9149 C 844.981 1.37856 4.2416 0
M  V30 9150 C 845.682 3.42348 4.7029 0
M  V30 9151 N 844.658 2.69746 4.71952 0
M  V30 9152 H 848.46 1.83023 2.29956 0
M  V30 9153 H 845.974 1.08812 1.20556 0
M  V30 9154 H 847.971 0.21769 4.16331 0
M  V30 9155 H 846.631 -0.47482 3.2121 0
M  V30 9156 H 847.642 3.10217 4.14711 0
M  V30 9157 H 844.319 0.521512 4.1423 0
M  V30 9158 H 845.709 4.46686 5.01917 0
M  V30 9159 N 848.429 -1.21819 0.999893 0
M  V30 9160 C 849.657 -1.94758 0.698359 0
M  V30 9161 C 850.072 -1.73771 -0.738183 0
M  V30 9162 O 849.429 -1.04113 -1.49889 0
M  V30 9163 C 849.48 -3.47292 1.00353 0
M  V30 9164 O 849.201 -3.67579 2.38363 0
M  V30 9165 C 850.702 -4.37403 0.72068 0
M  V30 9166 H 847.922 -0.619512 0.257771 0
M  V30 9167 H 850.466 -1.54778 1.33656 0
M  V30 9168 H 848.621 -3.85213 0.411018 0
M  V30 9169 H 849.035 -4.61719 2.48829 0
M  V30 9170 H 850.509 -5.43151 0.984422 0
M  V30 9171 H 850.986 -4.3784 -0.345309 0
M  V30 9172 H 851.592 -4.05119 1.29456 0
M  V30 9173 N 849.908 -0.773975 -1.37286 0
M  V30 9174 C 850.818 -0.162571 -2.34036 0
M  V30 9175 C 851.834 0.677022 -1.60289 0
M  V30 9176 O 853.01 0.596423 -1.92366 0
M  V30 9177 C 850.075 0.70457 -3.39465 0
M  V30 9178 C 849.136 -0.151738 -4.29032 0
M  V30 9179 C 848.369 0.674111 -5.29426 0
M  V30 9180 O 848.592 1.91107 -5.37433 0
M  V30 9181 O 847.526 0.0821398 -6.01844 0
M  V30 9182 H 851.352 -0.962119 -2.88057 0
M  V30 9183 H 848.937 -0.53517 -1.39486 0
M  V30 9184 H 850.819 1.19954 -4.03967 0
M  V30 9185 H 849.494 1.48227 -2.87768 0
M  V30 9186 H 848.401 -0.693118 -3.67623 0
M  V30 9187 H 849.734 -0.892575 -4.84039 0
M  V30 9188 N 851.386 1.48609 -0.524698 0
M  V30 9189 C 852.296 2.33318 0.244923 0
M  V30 9190 C 853.312 1.46153 0.944214 0
M  V30 9191 O 854.488 1.79141 0.920347 0
M  V30 9192 C 851.553 3.22149 1.28144 0
M  V30 9193 C 850.614 4.25184 0.593068 0
M  V30 9194 C 849.847 5.0977 1.5802 0
M  V30 9195 O 850.07 4.96249 2.81235 0
M  V30 9196 O 849.004 5.9134 1.1225 0
M  V30 9197 H 852.83 3.00362 -0.449066 0
M  V30 9198 H 850.415 1.46643 -0.285689 0
M  V30 9199 H 852.297 3.77111 1.88057 0
M  V30 9200 H 850.972 2.57772 1.95793 0
M  V30 9201 H 849.879 3.74071 -0.0464214 0
M  V30 9202 H 851.212 4.92183 -0.0413893 0
M  V30 9203 N 852.864 0.259585 1.55447 0
M  V30 9204 C 854.275 -0.241165 1.85136 0
M  V30 9205 C 854.626 -1.56634 1.18153 0
M  V30 9206 O 853.751 -2.11359 0.464351 0
M  V30 9207 C 854.346 -0.444355 3.35873 0
M  V30 9208 C 852.905 -0.889354 3.65742 0
M  V30 9209 C 852.052 0.0262474 2.77288 0
M  V30 9210 H 855.003 0.481808 1.51209 0
M  V30 9211 H 855.024 -1.28517 3.58139 0
M  V30 9212 H 854.536 0.520289 3.84597 0
M  V30 9213 H 852.637 -1.86602 3.22507 0
M  V30 9214 H 852.75 -0.737432 4.73391 0
M  V30 9215 H 851.114 -0.487361 2.49994 0
M  V30 9216 H 851.897 0.986494 3.28821 0
M  V30 9217 N 854.342 -1.57594 -0.0133615 0
M  V30 9218 C 855.252 -2.10991 -1.02566 0
M  V30 9219 C 856.268 -1.05208 -1.3859 0
M  V30 9220 O 857.444 -1.37034 -1.47593 0
M  V30 9221 C 854.509 -2.59165 -2.30292 0
M  V30 9222 C 853.57 -3.79495 -2.00704 0
M  V30 9223 C 852.803 -4.25361 -3.22341 0
M  V30 9224 O 853.026 -3.70645 -4.33565 0
M  V30 9225 O 851.96 -5.17649 -3.07121 0
M  V30 9226 H 855.786 -2.97678 -0.601806 0
M  V30 9227 H 853.371 -1.47598 -0.23135 0
M  V30 9228 H 855.253 -2.90409 -3.05354 0
M  V30 9229 H 853.928 -1.75582 -2.71942 0
M  V30 9230 H 852.835 -3.53245 -1.23161 0
M  V30 9231 H 854.168 -4.64109 -1.639 0
M  V30 9232 N 855.82 0.285905 -1.54985 0
M  V30 9233 C 857.097 1.0397 -1.65679 0
M  V30 9234 C 857.477 2.04725 -0.514851 0
M  V30 9235 O 856.825 2.23257 0.486663 0
M  V30 9236 C 857.035 1.70807 -3.04345 0
M  V30 9237 C 858.383 2.22447 -3.61666 0
M  V30 9238 O 859.407 1.80815 -3.06895 0
M  V30 9239 O 858.266 2.98773 -4.57599 0
M  V30 9240 H 855.36 0.481473 -0.672394 0
M  V30 9241 H 857.906 0.282789 -1.67327 0
M  V30 9242 H 856.678 0.977271 -3.789 0
M  V30 9243 H 856.301 2.53217 -3.06541 0
M  V30 9244 N 857.298 1.47698 0.54982 0
M  V30 9245 C 858.546 1.54397 1.30407 0
M  V30 9246 C 858.867 0.211026 1.93855 0
M  V30 9247 O 858.137 -0.765701 1.80316 0
M  V30 9248 H 856.717 0.568747 0.484289 0
M  V30 9249 H 859.379 1.84042 0.641444 0
M  V30 9250 H 858.475 2.31449 2.09375 0
M  V30 9251 N 858.776 -0.797141 1.35954 0
M  V30 9252 C 859.723 -1.90944 1.2965 0
M  V30 9253 C 860.693 -1.65262 0.166628 0
M  V30 9254 O 861.878 -1.87527 0.351883 0
M  V30 9255 C 859.018 -3.27637 1.08389 0
M  V30 9256 C 858.131 -3.65442 2.30382 0
M  V30 9257 C 857.266 -4.91213 2.02195 0
M  V30 9258 C 856.305 -5.21674 3.20191 0
M  V30 9259 N 855.442 -6.38627 2.91719 0
M  V30 9260 H 860.282 -1.95668 2.24762 0
M  V30 9261 H 857.819 -0.95696 1.11717 0
M  V30 9262 H 859.777 -4.06451 0.940912 0
M  V30 9263 H 858.407 -3.22355 0.169351 0
M  V30 9264 H 857.459 -2.81813 2.55511 0
M  V30 9265 H 858.771 -3.83907 3.18461 0
M  V30 9266 H 857.925 -5.77876 1.84783 0
M  V30 9267 H 856.664 -4.74803 1.11416 0
M  V30 9268 H 855.669 -4.33498 3.38171 0
M  V30 9269 H 856.894 -5.40009 4.11786 0
M  V30 9270 H 854.84 -6.23623 2.03543 0
M  V30 9271 H 854.757 -6.57387 3.73334 0
M  V30 9272 H 856.025 -7.28292 2.77868 0
M  V30 9273 N 860.254 -1.20106 -1.0204 0
M  V30 9274 C 861.164 -0.962051 -2.13967 0
M  V30 9275 C 862.18 0.0808053 -1.73812 0
M  V30 9276 O 863.356 -0.105774 -2.01122 0
M  V30 9277 C 860.421 -0.513108 -3.42882 0
M  V30 9278 C 859.482 -1.62636 -3.97301 0
M  V30 9279 C 858.715 -1.19875 -5.20063 0
M  V30 9280 O 858.938 -0.0658423 -5.70362 0
M  V30 9281 O 857.872 -2.00467 -5.67536 0
M  V30 9282 H 861.698 -1.8991 -2.36998 0
M  V30 9283 H 859.283 -0.984608 -1.12365 0
M  V30 9284 H 861.165 -0.271797 -4.20523 0
M  V30 9285 H 859.84 0.395402 -3.21276 0
M  V30 9286 H 858.747 -1.92192 -3.20957 0
M  V30 9287 H 860.08 -2.51174 -4.23288 0
M  V30 9288 N 861.732 1.21287 -1.00634 0
M  V30 9289 C 862.98 1.90013 -0.688438 0
M  V30 9290 C 863.301 1.78573 0.783365 0
M  V30 9291 O 862.571 1.1815 1.56261 0
M  V30 9292 H 861.151 0.703336 -0.251648 0
M  V30 9293 H 863.813 1.47346 -1.27574 0
M  V30 9294 H 862.909 2.96879 -0.962781 0
M  V30 9295 N 863.21 0.781244 1.36873 0
M  V30 9296 C 864.621 0.414093 1.8205 0
M  V30 9297 C 864.972 -1.06098 1.65039 0
M  V30 9298 O 864.097 -1.82251 1.16677 0
M  V30 9299 C 864.692 0.744837 3.30511 0
M  V30 9300 C 863.251 0.430621 3.73929 0
M  V30 9301 C 862.398 0.983746 2.59264 0
M  V30 9302 H 865.349 0.975091 1.2521 0
M  V30 9303 H 865.37 0.032936 3.80486 0
M  V30 9304 H 864.882 1.81847 3.42861 0
M  V30 9305 H 862.983 -0.635308 3.67144 0
M  V30 9306 H 863.096 0.945514 4.69677 0
M  V30 9307 H 861.46 0.407433 2.5142 0
M  V30 9308 H 862.243 2.06297 2.74402 0
M  V30 9309 N 864.689 -1.48329 0.532571 0
M  V30 9310 C 865.914 -2.074 0.00147755 0
M  V30 9311 C 866.339 -1.38615 -1.27151 0
M  V30 9312 O 865.697 -0.452949 -1.75551 0
M  V30 9313 C 865.745 -3.60029 -0.202866 0
M  V30 9314 O 864.849 -3.92327 -1.27097 0
M  V30 9315 H 864.19 -0.662777 0.0402883 0
M  V30 9316 H 866.72 -1.90701 0.741224 0
M  V30 9317 H 866.73 -4.05783 -0.424722 0
M  V30 9318 H 865.405 -4.09496 0.727033 0
M  V30 9319 H 863.982 -3.58348 -1.03156 0
M  V30 9320 N 866.167 -0.267825 -1.55308 0
M  V30 9321 C 867.444 0.402449 -1.91415 0
M  V30 9322 C 867.824 1.7428 -1.1912 0
M  V30 9323 O 867.172 2.2631 -0.315609 0
M  V30 9324 C 867.382 0.549926 -3.4464 0
M  V30 9325 C 868.73 0.836188 -4.16285 0
M  V30 9326 O 869.754 0.635009 -3.50494 0
M  V30 9327 O 868.613 1.22051 -5.32697 0
M  V30 9328 H 865.707 0.219177 -0.797427 0
M  V30 9329 H 868.253 -0.313439 -1.6678 0
M  V30 9330 H 867.025 -0.393641 -3.89315 0
M  V30 9331 H 866.648 1.31556 -3.75205 0
M  V30 9332 N 867.645 1.57599 0.00500368 0
M  V30 9333 C 868.577 2.04949 1.02609 0
M  V30 9334 C 869.59 0.966507 1.31006 0
M  V30 9335 O 870.779 1.2434 1.2807 0
M  V30 9336 C 867.879 2.43023 2.36206 0
M  V30 9337 C 867.052 3.73993 2.26821 0
M  V30 9338 C 866.111 3.9899 3.43065 0
M  V30 9339 O 865.137 4.69725 3.21477 0
M  V30 9340 N 866.339 3.46496 4.65748 0
M  V30 9341 H 869.104 2.93167 0.622336 0
M  V30 9342 H 866.665 1.60752 0.192488 0
M  V30 9343 H 868.657 2.56863 3.12735 0
M  V30 9344 H 867.227 1.60349 2.68341 0
M  V30 9345 H 866.447 3.70277 1.35235 0
M  V30 9346 H 867.735 4.59865 2.17719 0
M  V30 9347 H 867.133 2.89206 4.86186 0
M  V30 9348 H 865.69 3.65675 5.3956 0
M  V30 9349 N 869.123 -0.277682 1.55134 0
M  V30 9350 C 870.534 -0.849063 1.66276 0
M  V30 9351 C 870.885 -1.87223 0.5867 0
M  V30 9352 O 870.01 -2.14676 -0.272635 0
M  V30 9353 C 870.605 -1.54681 3.01429 0
M  V30 9354 C 869.164 -2.06628 3.14614 0
M  V30 9355 C 868.311 -0.906748 2.62056 0
M  V30 9356 H 871.262 -0.0541357 1.58608 0
M  V30 9357 H 871.283 -2.41356 2.94156 0
M  V30 9358 H 870.795 -0.80189 3.79725 0
M  V30 9359 H 868.896 -2.84095 2.41082 0
M  V30 9360 H 869.009 -2.2848 4.2111 0
M  V30 9361 H 867.373 -1.29882 2.19095 0
M  V30 9362 H 868.156 -0.175414 3.42852 0
M  V30 9363 N 870.601 -1.47988 -0.541979 0
M  V30 9364 C 872.012 -1.49073 -1.12402 0
M  V30 9365 C 872.363 -0.253825 -1.94551 0
M  V30 9366 O 871.488 0.640056 -2.06718 0
M  V30 9367 C 872.083 -2.7011 -2.04514 0
M  V30 9368 C 870.642 -2.74105 -2.5796 0
M  V30 9369 C 869.789 -2.42409 -1.3466 0
M  V30 9370 H 872.74 -1.55277 -0.327818 0
M  V30 9371 H 872.761 -2.47946 -2.88623 0
M  V30 9372 H 872.273 -3.60117 -1.44697 0
M  V30 9373 H 870.374 -1.88276 -3.21532 0
M  V30 9374 H 870.487 -3.75213 -2.97913 0
M  V30 9375 H 868.851 -1.9331 -1.65841 0
M  V30 9376 H 869.634 -3.34642 -0.766133 0
M  V30 9377 N 872.079 0.78992 -1.36375 0
M  V30 9378 C 873.027 1.92394 -1.30719 0
M  V30 9379 C 874.021 1.68226 -0.199076 0
M  V30 9380 O 875.227 1.76239 -0.366051 0
M  V30 9381 H 871.602 0.632382 -0.406936 0
M  V30 9382 H 873.573 1.94282 -2.26488 0
M  V30 9383 C 872.322 3.2941 -1.11284 0
M  V30 9384 H 871.645 3.48573 -1.95798 0
M  V30 9385 H 873.085 4.09111 -1.11373 0
M  V30 9386 C 871.544 3.36405 0.182543 0
M  V30 9387 O 872.074 3.84206 1.17255 0
M  V30 9388 N 870.28 2.89712 0.227046 0
M  V30 9389 H 869.827 2.51004 -0.579217 0
M  V30 9390 H 869.785 2.94773 1.09344 0
M  V30 9391 N 873.557 1.20646 1.01402 0
M  V30 9392 C 874.467 0.973385 2.13453 0
M  V30 9393 C 875.483 -0.0715865 1.73853 0
M  V30 9394 O 876.659 0.116438 2.01063 0
M  V30 9395 C 873.724 0.531285 3.42605 0
M  V30 9396 C 872.785 1.64741 3.96433 0
M  V30 9397 C 872.018 1.22631 5.1942 0
M  V30 9398 O 872.241 0.0960891 5.70319 0
M  V30 9399 O 871.175 2.03474 5.66465 0
M  V30 9400 H 875.001 1.91164 2.35987 0
M  V30 9401 H 872.586 0.990553 1.11841 0
M  V30 9402 H 874.468 0.294095 4.20373 0
M  V30 9403 H 873.143 -0.378358 3.21481 0
M  V30 9404 H 872.05 1.93891 3.19933 0
M  V30 9405 H 873.383 2.53415 4.2195 0
M  V30 9406 N 875.035 -1.20752 1.01276 0
M  V30 9407 C 876.282 -1.90021 0.699887 0
M  V30 9408 C 876.61 -1.78604 -0.770113 0
M  V30 9409 O 875.865 -1.16195 -1.57471 0
M  V30 9410 C 876.164 -3.40808 1.07633 0
M  V30 9411 C 875.83 -3.72423 2.54189 0
M  V30 9412 C 874.492 -3.80762 2.94234 0
M  V30 9413 C 876.844 -3.87025 3.49086 0
M  V30 9414 C 874.172 -4.01158 4.28123 0
M  V30 9415 C 876.524 -4.0893 4.82658 0
M  V30 9416 C 875.188 -4.15498 5.22415 0
M  V30 9417 H 874.458 -0.695335 0.256107 0
M  V30 9418 H 877.105 -1.43096 1.27263 0
M  V30 9419 H 875.41 -3.89521 0.421944 0
M  V30 9420 H 877.107 -3.92693 0.811997 0
M  V30 9421 H 873.697 -3.66529 2.22158 0
M  V30 9422 H 877.881 -3.79942 3.19309 0
M  V30 9423 H 873.137 -4.04476 4.58486 0
M  V30 9424 H 877.311 -4.19172 5.56119 0
M  V30 9425 H 874.938 -4.31055 6.26176 0
M  V30 9426 N 876.513 -0.788492 -1.36457 0
M  V30 9427 C 877.761 -0.359749 -1.98872 0
M  V30 9428 C 878.082 1.07197 -1.62892 0
M  V30 9429 O 877.352 1.73875 -0.902463 0
M  V30 9430 H 875.932 -0.130029 -0.735596 0
M  V30 9431 H 878.594 -1.01033 -1.66668 0
M  V30 9432 H 877.69 -0.450835 -3.08827 0
M  V30 9433 N 877.991 1.48044 -0.54043 0
M  V30 9434 C 879.24 2.01698 -0.00809961 0
M  V30 9435 C 879.553 1.42184 1.34325 0
M  V30 9436 O 880.759 1.87398 1.96454 0
M  V30 9437 C 879.215 3.59882 0.035933 0
M  V30 9438 C 878.823 4.28384 -1.31115 0
M  V30 9439 C 880.567 4.21346 0.51654 0
M  V30 9440 C 878.474 5.78529 -1.22714 0
M  V30 9441 H 877.404 0.754 0.000742174 0
M  V30 9442 H 880.055 1.70204 -0.685775 0
M  V30 9443 H 878.437 3.88264 0.778906 0
M  V30 9444 H 879.611 4.11663 -2.07051 0
M  V30 9445 H 877.926 3.78837 -1.72834 0
M  V30 9446 H 880.523 5.31351 0.597529 0
M  V30 9447 H 880.866 3.87373 1.52473 0
M  V30 9448 H 881.399 3.97432 -0.171064 0
M  V30 9449 H 878.138 6.17093 -2.21081 0
M  V30 9450 H 877.658 5.97634 -0.50931 0
M  V30 9451 H 879.337 6.40395 -0.92216 0
M  V30 9452 N 879.47 0.276058 1.55163 0
M  V30 9453 C 880.717 -0.340455 1.99618 0
M  V30 9454 C 881.045 -1.5579 1.16446 0
M  V30 9455 O 880.3 -1.94433 0.222359 0
M  V30 9456 C 880.599 -0.765744 3.491 0
M  V30 9457 C 880.265 0.347174 4.49561 0
M  V30 9458 C 878.927 0.65276 4.76752 0
M  V30 9459 C 881.279 1.09705 5.09523 0
M  V30 9460 C 878.607 1.71179 5.61173 0
M  V30 9461 C 880.959 2.14581 5.95095 0
M  V30 9462 C 879.623 2.45773 6.20606 0
M  V30 9463 H 878.893 -0.124581 0.730452 0
M  V30 9464 H 881.54 0.389966 1.87487 0
M  V30 9465 H 879.845 -1.57585 3.58712 0
M  V30 9466 H 881.542 -1.25352 3.80904 0
M  V30 9467 H 878.132 0.0988779 4.28486 0
M  V30 9468 H 882.316 0.874223 4.8854 0
M  V30 9469 H 877.572 1.95846 5.79184 0
M  V30 9470 H 881.746 2.7316 6.40591 0
M  V30 9471 H 879.373 3.27969 6.85813 0
M  V30 9472 N 880.948 -1.576 0.00335426 0
M  V30 9473 C 881.896 -2.09759 -1.00517 0
M  V30 9474 C 882.89 -1.01833 -1.35375 0
M  V30 9475 O 884.096 -1.20294 -1.339 0
M  V30 9476 H 880.471 -0.669821 -0.341825 0
M  V30 9477 H 882.442 -2.93478 -0.539718 0
M  V30 9478 C 881.191 -2.6189 -2.28711 0
M  V30 9479 H 880.514 -3.44571 -2.02758 0
M  V30 9480 H 881.954 -3.02061 -2.97548 0
M  V30 9481 C 880.413 -1.53455 -2.99922 0
M  V30 9482 O 880.943 -0.919402 -3.91037 0
M  V30 9483 N 879.149 -1.2612 -2.61806 0
M  V30 9484 H 878.696 -1.76329 -1.87792 0
M  V30 9485 H 878.654 -0.537872 -3.09765 0
M  V30 9486 N 882.426 0.269451 -1.5528 0
M  V30 9487 C 883.651 1.02299 -1.80415 0
M  V30 9488 C 884.076 1.7902 -0.577363 0
M  V30 9489 O 883.434 1.75018 0.473125 0
M  V30 9490 C 883.482 1.95445 -3.0304 0
M  V30 9491 O 882.586 3.04271 -2.78375 0
M  V30 9492 H 881.927 0.292289 -0.596207 0
M  V30 9493 H 884.457 0.297282 -2.02429 0
M  V30 9494 H 884.467 2.37333 -3.31869 0
M  V30 9495 H 883.142 1.39017 -3.91978 0
M  V30 9496 H 881.719 2.66673 -2.60653 0
M  V30 9497 N 883.904 1.48273 0.534124 0
M  V30 9498 C 884.834 1.6538 1.64839 0
M  V30 9499 C 885.815 0.502741 1.62501 0
M  V30 9500 O 887 0.734799 1.79762 0
M  V30 9501 C 884.13 1.68949 3.03436 0
M  V30 9502 C 883.084 2.83513 3.20631 0
M  V30 9503 C 882.41 2.72169 4.60248 0
M  V30 9504 C 883.71 4.24858 3.03797 0
M  V30 9505 H 885.404 2.58663 1.50777 0
M  V30 9506 H 882.95 1.24479 0.723937 0
M  V30 9507 H 884.903 1.79505 3.81256 0
M  V30 9508 H 883.627 0.722415 3.1851 0
M  V30 9509 H 882.286 2.72505 2.45227 0
M  V30 9510 H 881.934 1.7344 4.72152 0
M  V30 9511 H 881.634 3.49042 4.72698 0
M  V30 9512 H 883.158 2.84687 5.40172 0
M  V30 9513 H 884.572 4.36721 3.71413 0
M  V30 9514 H 882.969 5.02697 3.27743 0
M  V30 9515 H 884.039 4.41611 2.0027 0
M  V30 9516 N 885.382 -0.782676 1.36792 0
M  V30 9517 C 886.628 -1.54238 1.32597 0
M  V30 9518 C 886.983 -1.92179 -0.0921366 0
M  V30 9519 O 886.276 -1.60381 -1.04826 0
M  V30 9520 C 886.47 -2.82542 2.18872 0
M  V30 9521 C 886.299 -2.5714 3.6893 0
M  V30 9522 C 885.069 -2.5182 4.38081 0
M  V30 9523 C 887.267 -2.25878 4.62043 0
M  V30 9524 N 885.249 -2.18387 5.73742 0
M  V30 9525 C 886.62 -2.02491 5.86001 0
M  V30 9526 C 888.675 -2.11941 4.50539 0
M  V30 9527 C 887.378 -1.66576 6.99746 0
M  V30 9528 C 889.404 -1.77426 5.64158 0
M  V30 9529 C 888.766 -1.54891 6.87159 0
M  V30 9530 H 884.865 -0.565152 0.540488 0
M  V30 9531 H 887.449 -0.914079 1.71909 0
M  V30 9532 H 885.62 -3.43228 1.81794 0
M  V30 9533 H 887.352 -3.48338 2.06017 0
M  V30 9534 H 884.107 -2.67298 3.90958 0
M  V30 9535 H 884.531 -2.04398 6.45407 0
M  V30 9536 H 889.173 -2.28051 3.56024 0
M  V30 9537 H 886.891 -1.49205 7.94206 0
M  V30 9538 H 890.477 -1.67316 5.57222 0
M  V30 9539 H 889.357 -1.28577 7.73588 0
M  V30 9540 N 886.86 -1.21182 -1.00761 0
M  V30 9541 C 888.107 -1.02746 -1.74498 0
M  V30 9542 C 888.435 0.439344 -1.89473 0
M  V30 9543 O 887.69 1.34232 -1.42409 0
M  V30 9544 C 887.989 -1.6667 -3.16158 0
M  V30 9545 C 887.655 -3.16515 -3.21137 0
M  V30 9546 C 886.317 -3.57405 -3.22203 0
M  V30 9547 C 888.669 -4.12495 -3.18587 0
M  V30 9548 C 885.997 -4.92786 -3.18401 0
M  V30 9549 C 888.349 -5.47833 -3.16326 0
M  V30 9550 C 887.013 -5.88124 -3.157 0
M  V30 9551 H 886.283 -0.375974 -0.638533 0
M  V30 9552 H 888.93 -1.50736 -1.18114 0
M  V30 9553 H 887.235 -1.10966 -3.75758 0
M  V30 9554 H 888.932 -1.49911 -3.71924 0
M  V30 9555 H 885.522 -2.83947 -3.21048 0
M  V30 9556 H 889.706 -3.81932 -3.16925 0
M  V30 9557 H 884.962 -5.23253 -3.16253 0
M  V30 9558 H 889.136 -6.21942 -3.13306 0
M  V30 9559 H 886.763 -6.92995 -3.12508 0
M  V30 9560 N 888.338 1.20213 -1.01915 0
M  V30 9561 C 889.563 1.94163 -0.729076 0
M  V30 9562 C 889.988 1.74416 0.704323 0
M  V30 9563 O 889.346 1.0401 1.48498 0
M  V30 9564 C 889.394 3.44258 -1.07324 0
M  V30 9565 O 888.498 4.11979 -0.186367 0
M  V30 9566 H 887.839 0.606506 -0.270272 0
M  V30 9567 H 890.369 1.52571 -1.3632 0
M  V30 9568 H 890.379 3.94888 -1.02603 0
M  V30 9569 H 889.054 3.57954 -2.11759 0
M  V30 9570 H 887.631 3.7176 -0.291334 0
M  V30 9571 N 889.816 0.795718 1.36037 0
M  V30 9572 C 890.746 0.212803 2.32528 0
M  V30 9573 C 891.727 -0.655716 1.56953 0
M  V30 9574 O 892.912 -0.588238 1.85077 0
M  V30 9575 C 890.042 -0.648189 3.41198 0
M  V30 9576 C 888.996 0.120948 4.27829 0
M  V30 9577 C 888.322 -0.861044 5.27722 0
M  V30 9578 C 889.622 1.31375 5.05508 0
M  V30 9579 H 891.316 1.01893 2.81528 0
M  V30 9580 H 888.862 0.491422 1.35355 0
M  V30 9581 H 890.815 -1.06597 4.07695 0
M  V30 9582 H 889.539 -1.48709 2.9078 0
M  V30 9583 H 888.198 0.519777 3.62897 0
M  V30 9584 H 887.846 -1.69515 4.73575 0
M  V30 9585 H 887.546 -0.350808 5.86552 0
M  V30 9586 H 889.07 -1.27726 5.97092 0
M  V30 9587 H 890.484 0.971406 5.6501 0
M  V30 9588 H 888.881 1.75772 5.73781 0
M  V30 9589 H 889.951 2.10593 4.36782 0
M  V30 9590 N 891.294 -1.47756 0.548274 0
M  V30 9591 C 892.542 -2.02089 0.0208542 0
M  V30 9592 C 892.863 -1.42589 -1.33017 0
M  V30 9593 O 892.133 -0.597825 -1.86555 0
M  V30 9594 H 890.713 -0.746985 0.00472023 0
M  V30 9595 H 893.375 -1.81262 0.716257 0
M  V30 9596 H 892.471 -3.12012 -0.0739016 0
M  V30 9597 N 892.772 -0.284283 -1.55015 0
M  V30 9598 C 893.735 0.586182 -2.21577 0
M  V30 9599 C 894.735 1.07427 -1.1965 0
M  V30 9600 O 895.925 0.972977 -1.44495 0
M  V30 9601 C 893.057 1.80973 -2.88897 0
M  V30 9602 H 894.25 0.00487253 -2.999 0
M  V30 9603 H 891.803 -0.0349696 -1.56261 0
M  V30 9604 H 892.538 2.43131 -2.14611 0
M  V30 9605 H 892.323 1.46757 -3.636 0
M  V30 9606 H 893.813 2.42853 -3.39724 0
M  V30 9607 N 894.251 1.57596 -0.0117121 0
M  V30 9608 C 895.498 1.91071 0.670667 0
M  V30 9609 C 895.826 0.886457 1.73125 0
M  V30 9610 O 895.081 -0.107135 1.95407 0
M  V30 9611 C 895.38 3.31296 1.34082 0
M  V30 9612 C 895.046 4.49011 0.412305 0
M  V30 9613 C 893.708 4.80945 0.156691 0
M  V30 9614 C 896.06 5.20709 -0.226294 0
M  V30 9615 C 893.388 5.81943 -0.745619 0
M  V30 9616 C 895.74 6.22668 -1.11655 0
M  V30 9617 C 894.404 6.53053 -1.38123 0
M  V30 9618 H 893.674 0.69918 0.245415 0
M  V30 9619 H 896.321 1.91373 -0.0697511 0
M  V30 9620 H 894.626 3.27174 2.15557 0
M  V30 9621 H 896.323 3.54461 1.87506 0
M  V30 9622 H 892.913 4.24067 0.621705 0
M  V30 9623 H 897.097 4.96282 -0.0418456 0
M  V30 9624 H 892.353 6.03839 -0.958566 0
M  V30 9625 H 896.527 6.77351 -1.61767 0
M  V30 9626 H 894.154 7.31132 -2.08208 0
M  V30 9627 N 895.729 -0.261212 1.5542 0
M  V30 9628 C 896.662 -1.34906 1.84054 0
M  V30 9629 C 897.64 -1.47024 0.694466 0
M  V30 9630 O 898.824 -1.63463 0.938719 0
M  V30 9631 C 895.951 -2.7242 2.01259 0
M  V30 9632 C 894.997 -2.77526 3.23855 0
M  V30 9633 S 895.83 -2.35578 4.80898 0
M  V30 9634 C 896.986 -3.75045 5.01091 0
M  V30 9635 H 897.219 -1.10416 2.76035 0
M  V30 9636 H 894.752 -0.461461 1.47343 0
M  V30 9637 H 896.71 -3.51606 2.11857 0
M  V30 9638 H 895.371 -2.94155 1.10145 0
M  V30 9639 H 894.564 -3.78483 3.32816 0
M  V30 9640 H 894.166 -2.0637 3.11909 0
M  V30 9641 H 896.458 -4.7042 4.87556 0
M  V30 9642 H 897.401 -3.71027 6.03112 0
M  V30 9643 H 897.809 -3.66894 4.29009 0
M  V30 9644 N 897.207 -1.48554 -0.526253 0
M  V30 9645 C 898.139 -1.59446 -1.6465 0
M  V30 9646 C 899.152 -0.478525 -1.55608 0
M  V30 9647 O 900.341 -0.74953 -1.62001 0
M  V30 9648 C 897.441 -1.51164 -3.03319 0
M  V30 9649 C 896.614 -2.77861 -3.37805 0
M  V30 9650 C 895.673 -2.62982 -4.5577 0
M  V30 9651 O 894.699 -3.36876 -4.58806 0
M  V30 9652 N 895.901 -1.72847 -5.5417 0
M  V30 9653 H 898.666 -2.56055 -1.55743 0
M  V30 9654 H 896.227 -1.45325 -0.713606 0
M  V30 9655 H 898.219 -1.389 -3.80117 0
M  V30 9656 H 896.789 -0.625147 -3.06285 0
M  V30 9657 H 896.009 -3.04663 -2.50149 0
M  V30 9658 H 897.297 -3.61908 -3.57632 0
M  V30 9659 H 896.695 -1.12022 -5.54498 0
M  V30 9660 H 895.252 -1.6652 -6.3017 0
M  V30 9661 N 898.685 0.775411 -1.37205 0
M  V30 9662 C 899.617 1.89761 -1.28544 0
M  V30 9663 C 900.63 1.61542 -0.201996 0
M  V30 9664 O 901.819 1.72528 -0.457848 0
M  V30 9665 C 898.919 3.24904 -0.963885 0
M  V30 9666 C 898.092 3.80796 -2.15205 0
M  V30 9667 C 897.151 4.94407 -1.80135 0
M  V30 9668 O 896.177 5.10185 -2.52388 0
M  V30 9669 N 897.379 5.75722 -0.743298 0
M  V30 9670 H 900.144 1.97708 -2.25237 0
M  V30 9671 H 897.705 0.954348 -1.30782 0
M  V30 9672 H 899.697 3.9842 -0.710182 0
M  V30 9673 H 898.267 3.12483 -0.085632 0
M  V30 9674 H 897.487 2.99101 -2.56773 0
M  V30 9675 H 898.775 4.1487 -2.94552 0
M  V30 9676 H 898.173 5.65518 -0.143655 0
M  V30 9677 H 896.73 6.4948 -0.549446 0
M  V30 9678 N 900.163 1.21714 1.00117 0
M  V30 9679 C 901.411 1.03465 1.73607 0
M  V30 9680 C 901.732 -0.432295 1.90148 0
M  V30 9681 O 901.002 -1.31157 1.45515 0
M  V30 9682 H 899.582 0.379857 0.643209 0
M  V30 9683 H 902.244 1.53088 1.20624 0
M  V30 9684 H 901.34 1.50574 2.73375 0
M  V30 9685 N 901.641 -1.19671 1.02551 0
M  V30 9686 C 902.881 -1.90971 0.728668 0
M  V30 9687 C 903.245 -1.7762 -0.729057 0
M  V30 9688 O 904.446 -2.43484 -1.13882 0
M  V30 9689 C 902.717 -3.3794 1.16323 0
M  V30 9690 S 904.276 -4.27493 0.989722 0
M  V30 9691 H 901.094 -0.659617 0.265381 0
M  V30 9692 H 903.696 -1.44698 1.31463 0
M  V30 9693 H 902.4 -3.45181 2.21986 0
M  V30 9694 H 901.931 -3.89243 0.570417 0
M  V30 9695 H 903.946 -4.96096 -0.101666 0
M  V30 9696 N 903.119 -0.802921 -1.35613 0
M  V30 9697 C 904.396 -0.304993 -1.93208 0
M  V30 9698 C 904.776 1.20488 -1.73337 0
M  V30 9699 O 904.124 2.00268 -1.10022 0
M  V30 9700 C 904.334 -0.712383 -3.41652 0
M  V30 9701 C 905.682 -0.699785 -4.18794 0
M  V30 9702 O 906.706 -0.653698 -3.5015 0
M  V30 9703 O 905.565 -0.754842 -5.41262 0
M  V30 9704 H 902.659 -0.0789127 -0.823226 0
M  V30 9705 H 905.205 -0.886372 -1.44712 0
M  V30 9706 H 903.977 -1.75316 -3.49829 0
M  V30 9707 H 903.6 -0.105614 -3.9746 0
M  V30 9708 N 904.597 1.47463 -0.556102 0
M  V30 9709 C 905.846 2.01678 -0.029492 0
M  V30 9710 C 906.159 1.436 1.32809 0
M  V30 9711 O 907.365 1.89472 1.94455 0
M  V30 9712 C 905.821 3.599 -0.00223937 0
M  V30 9713 C 905.429 4.26969 -1.35651 0
M  V30 9714 C 907.173 4.2187 0.471822 0
M  V30 9715 C 905.08 5.77194 -1.28843 0
M  V30 9716 H 904.01 0.753965 -0.00725504 0
M  V30 9717 H 906.661 1.69467 -0.703789 0
M  V30 9718 H 905.043 3.89068 0.737682 0
M  V30 9719 H 906.217 4.09444 -2.11406 0
M  V30 9720 H 904.532 3.76983 -1.76842 0
M  V30 9721 H 907.129 5.31955 0.541139 0
M  V30 9722 H 907.472 3.88968 1.48356 0
M  V30 9723 H 908.005 3.97228 -0.213207 0
M  V30 9724 H 904.744 6.14713 -2.27613 0
M  V30 9725 H 904.264 5.9706 -0.572668 0
M  V30 9726 H 905.943 6.3938 -0.990031 0
M  V30 9727 N 906.075 0.2925 1.54862 0
M  V30 9728 C 907.3 -0.32494 2.04839 0
M  V30 9729 C 907.725 -1.47381 1.16877 0
M  V30 9730 O 907.083 -1.80492 0.171028 0
M  V30 9731 C 907.131 -0.76694 3.5235 0
M  V30 9732 O 906.235 -1.87256 3.67436 0
M  V30 9733 H 905.576 -0.0645195 0.660858 0
M  V30 9734 H 908.106 0.431867 1.9999 0
M  V30 9735 H 908.116 -1.05804 3.94043 0
M  V30 9736 H 906.791 0.0735212 4.15835 0
M  V30 9737 H 905.368 -1.58266 3.37648 0
M  V30 9738 N 907.553 -1.57587 0.0200696 0
M  V30 9739 C 908.964 -1.79312 -0.520019 0
M  V30 9740 C 909.315 -0.929475 -1.72787 0
M  V30 9741 O 908.44 -0.137389 -2.15963 0
M  V30 9742 C 909.035 -3.25203 -0.950172 0
M  V30 9743 C 907.594 -3.47954 -1.43543 0
M  V30 9744 C 906.741 -2.74459 -0.395917 0
M  V30 9745 H 909.692 -1.56779 0.246153 0
M  V30 9746 H 909.713 -3.34418 -1.81508 0
M  V30 9747 H 909.225 -3.88035 -0.070883 0
M  V30 9748 H 907.326 -2.90363 -2.33495 0
M  V30 9749 H 907.439 -4.56661 -1.44905 0
M  V30 9750 H 905.803 -2.39669 -0.862022 0
M  V30 9751 H 906.586 -3.40001 0.47475 0
M  V30 9752 N 909.032 0.252966 -1.55557 0
M  V30 9753 C 910.448 0.60118 -1.47844 0
M  V30 9754 C 910.648 1.88612 -0.709055 0
M  V30 9755 O 909.704 2.51395 -0.235964 0
M  V30 9756 C 911.017 0.709539 -2.92209 0
M  V30 9757 C 912.565 0.802269 -3.02544 0
M  V30 9758 C 913.04 0.94224 -4.48203 0
M  V30 9759 N 914.531 1.00726 -4.52116 0
M  V30 9760 C 915.266 1.13472 -5.6206 0
M  V30 9761 N 914.762 1.22811 -6.81828 0
M  V30 9762 N 916.555 1.1674 -5.49844 0
M  V30 9763 H 908.706 -0.590635 -2.04023 0
M  V30 9764 H 910.969 -0.202986 -0.926013 0
M  V30 9765 H 910.675 -0.164505 -3.51315 0
M  V30 9766 H 910.549 1.58343 -3.42356 0
M  V30 9767 H 912.936 1.66677 -2.43522 0
M  V30 9768 H 913.017 -0.0966469 -2.55617 0
M  V30 9769 H 912.661 0.0823209 -5.07833 0
M  V30 9770 H 912.591 1.85611 -4.92805 0
M  V30 9771 H 915.082 0.946684 -3.6585 0
M  V30 9772 H 915.395 1.32426 -7.61369 0
M  V30 9773 H 913.74 1.19779 -6.84601 0
M  V30 9774 H 916.931 1.09089 -4.55211 0
M  V30 9775 H 917.104 1.26329 -6.35567 0
M  V30 9776 N 910.51 1.48831 0.518367 0
M  V30 9777 C 911.735 1.61379 1.30275 0
M  V30 9778 C 912.16 0.278571 1.86026 0
M  V30 9779 O 911.518 -0.751427 1.64995 0
M  V30 9780 C 911.566 2.67225 2.42122 0
M  V30 9781 O 910.67 2.25192 3.45489 0
M  V30 9782 H 910.011 0.540742 0.385349 0
M  V30 9783 H 912.541 1.949 0.622498 0
M  V30 9784 H 912.551 2.88859 2.8814 0
M  V30 9785 H 911.226 3.64155 2.00907 0
M  V30 9786 H 909.803 2.13819 3.05509 0
M  V30 9787 N 911.988 -0.768124 1.37614 0
M  V30 9788 C 912.918 -1.89537 1.36374 0
M  V30 9789 C 913.899 -1.68513 0.231803 0
M  V30 9790 O 915.084 -1.89318 0.432705 0
M  V30 9791 C 912.214 -3.26871 1.17358 0
M  V30 9792 C 911.168 -3.62466 2.27602 0
M  V30 9793 C 910.494 -4.9838 1.93705 0
M  V30 9794 C 911.794 -3.68841 3.69802 0
M  V30 9795 H 913.488 -1.90832 2.30702 0
M  V30 9796 H 911.034 -0.91672 1.11051 0
M  V30 9797 H 912.987 -4.05371 1.15119 0
M  V30 9798 H 911.711 -3.26018 0.194865 0
M  V30 9799 H 910.37 -2.86276 2.29002 0
M  V30 9800 H 910.018 -4.94071 0.943539 0
M  V30 9801 H 909.718 -5.23165 2.6753 0
M  V30 9802 H 911.242 -5.79276 1.93059 0
M  V30 9803 H 912.656 -4.37485 3.70513 0
M  V30 9804 H 911.053 -4.05126 4.42711 0
M  V30 9805 H 912.123 -2.69415 4.03167 0
M  V30 9806 N 913.466 -1.22244 -0.994698 0
M  V30 9807 C 914.691 -1.07299 -1.77487 0
M  V30 9808 C 915.116 0.372302 -1.84379 0
M  V30 9809 O 914.474 1.2689 -1.29494 0
M  V30 9810 C 914.522 -1.68675 -3.18718 0
M  V30 9811 O 913.626 -0.939202 -4.01563 0
M  V30 9812 H 912.967 -0.376979 -0.546611 0
M  V30 9813 H 915.497 -1.62003 -1.24965 0
M  V30 9814 H 915.507 -1.73324 -3.69354 0
M  V30 9815 H 914.182 -2.73849 -3.13017 0
M  V30 9816 H 912.759 -0.968583 -3.60101 0
M  V30 9817 N 914.944 1.19125 -1.03184 0
M  V30 9818 C 916.192 1.8851 -0.728587 0
M  V30 9819 C 916.513 1.80195 0.74531 0
M  V30 9820 O 915.783 1.21437 1.5372 0
M  V30 9821 H 914.363 0.69784 -0.266511 0
M  V30 9822 H 917.025 1.44607 -1.3067 0
M  V30 9823 H 916.121 2.9477 -1.02554 0
M  V30 9824 N 916.422 0.810101 1.35185 0
M  V30 9825 C 917.838 0.494269 1.51754 0
M  V30 9826 C 918.038 -0.983907 1.75845 0
M  V30 9827 O 917.094 -1.76882 1.80191 0
M  V30 9828 C 918.407 1.34268 2.69059 0
M  V30 9829 C 919.955 1.33848 2.82938 0
M  V30 9830 C 920.43 2.17109 4.03271 0
M  V30 9831 N 921.921 2.14664 4.10456 0
M  V30 9832 C 922.656 2.75843 5.02691 0
M  V30 9833 N 922.152 3.45962 6.00235 0
M  V30 9834 N 923.945 2.65465 4.95464 0
M  V30 9835 H 916.096 1.76736 1.17805 0
M  V30 9836 H 918.359 0.752429 0.576676 0
M  V30 9837 H 918.065 2.39183 2.57845 0
M  V30 9838 H 917.939 0.998362 3.63748 0
M  V30 9839 H 920.326 0.29716 2.936 0
M  V30 9840 H 920.407 1.72269 1.89095 0
M  V30 9841 H 920.051 3.21283 3.93369 0
M  V30 9842 H 919.981 1.76046 4.96302 0
M  V30 9843 H 922.472 1.63648 3.40628 0
M  V30 9844 H 922.785 3.89922 6.67219 0
M  V30 9845 H 921.13 3.50067 6.00398 0
M  V30 9846 H 924.321 2.1027 4.18215 0
M  V30 9847 H 924.494 3.13433 5.67154 0
M  V30 9848 N 917.9 -1.47166 0.563914 0
M  V30 9849 C 919.149 -2.0166 0.0401871 0
M  V30 9850 C 919.462 -1.44303 -1.32046 0
M  V30 9851 O 920.668 -1.905 -1.93448 0
M  V30 9852 C 919.124 -3.59894 0.0213257 0
M  V30 9853 C 918.732 -4.26244 1.37914 0
M  V30 9854 C 920.476 -4.22114 -0.449442 0
M  V30 9855 C 918.383 -5.76503 1.31902 0
M  V30 9856 H 917.313 -0.753916 0.0112534 0
M  V30 9857 H 919.964 -1.69091 0.712766 0
M  V30 9858 H 918.346 -3.89454 -0.717038 0
M  V30 9859 H 919.52 -4.08317 2.13574 0
M  V30 9860 H 917.835 -3.76039 1.78839 0
M  V30 9861 H 920.432 -5.32234 -0.51292 0
M  V30 9862 H 920.775 -3.89749 -1.46291 0
M  V30 9863 H 921.308 -3.9711 0.23427 0
M  V30 9864 H 918.047 -6.13498 2.3087 0
M  V30 9865 H 917.567 -5.96748 0.604324 0
M  V30 9866 H 919.246 -6.38846 1.02392 0
M  V30 9867 N 919.378 -0.300708 -1.54705 0
M  V30 9868 C 920.624 0.309111 -2.0043 0
M  V30 9869 C 920.957 1.53562 -1.1888 0
M  V30 9870 O 920.232 1.92683 -0.265205 0
M  V30 9871 C 920.515 0.665995 -3.53888 0
M  V30 9872 C 920.368 -0.56963 -4.46178 0
M  V30 9873 C 921.687 1.49262 -4.14016 0
M  V30 9874 H 918.806 0.110878 -0.728612 0
M  V30 9875 H 921.448 -0.412748 -1.85463 0
M  V30 9876 H 919.598 1.281 -3.66773 0
M  V30 9877 H 921.27 -1.20811 -4.45199 0
M  V30 9878 H 919.513 -1.20292 -4.16788 0
M  V30 9879 H 920.184 -0.275785 -5.51311 0
M  V30 9880 H 922.66 0.972979 -4.04564 0
M  V30 9881 H 921.536 1.71111 -5.21548 0
M  V30 9882 H 921.797 2.48174 -3.65872 0
M  V30 9883 N 920.856 1.57574 -0.0284266 0
M  V30 9884 C 922.104 1.91393 0.649079 0
M  V30 9885 C 922.425 0.905368 1.72708 0
M  V30 9886 O 921.695 -0.0532107 1.95828 0
M  V30 9887 H 920.275 0.70646 0.24274 0
M  V30 9888 H 922.937 1.94752 -0.076066 0
M  V30 9889 H 922.033 2.91988 1.10226 0
M  V30 9890 N 922.334 -0.244713 1.55689 0
M  V30 9891 C 923.582 -0.970525 1.77272 0
M  V30 9892 C 923.903 -1.85771 0.592804 0
M  V30 9893 O 923.173 -1.91952 -0.391323 0
M  V30 9894 H 921.753 -0.361342 0.653789 0
M  V30 9895 H 924.415 -0.262134 1.93129 0
M  V30 9896 H 923.511 -1.59096 2.68505 0
M  V30 9897 N 923.813 -1.49104 -0.510467 0
M  V30 9898 C 925.059 -1.58346 -1.26705 0
M  V30 9899 C 925.392 -0.265121 -1.92382 0
M  V30 9900 O 924.667 0.730558 -1.80258 0
M  V30 9901 C 924.95 -2.7359 -2.34137 0
M  V30 9902 C 924.803 -4.1519 -1.73024 0
M  V30 9903 C 926.122 -2.84511 -3.3577 0
M  V30 9904 H 923.241 -0.57637 -0.459311 0
M  V30 9905 H 925.883 -1.81353 -0.566658 0
M  V30 9906 H 924.033 -2.54105 -2.93876 0
M  V30 9907 H 925.705 -4.46167 -1.17186 0
M  V30 9908 H 923.948 -4.21279 -1.03473 0
M  V30 9909 H 924.619 -4.91683 -2.50903 0
M  V30 9910 H 927.095 -3.0222 -2.86011 0
M  V30 9911 H 925.971 -3.6684 -4.08313 0
M  V30 9912 H 926.232 -1.93471 -3.97519 0
M  V30 9913 N 925.291 0.760815 -1.38019 0
M  V30 9914 C 926.537 1.52109 -1.35034 0
M  V30 9915 C 926.892 1.92302 0.0615509 0
M  V30 9916 O 926.185 1.62028 1.02261 0
M  V30 9917 C 926.379 2.79024 -2.23339 0
M  V30 9918 C 926.208 2.51238 -3.72974 0
M  V30 9919 C 924.978 2.44818 -4.42032 0
M  V30 9920 C 927.176 2.18499 -4.65578 0
M  V30 9921 N 925.158 2.09232 -5.77144 0
M  V30 9922 C 926.529 1.93143 -5.89148 0
M  V30 9923 C 928.584 2.04747 -4.53854 0
M  V30 9924 C 927.287 1.55423 -7.02308 0
M  V30 9925 C 929.313 1.68428 -5.66909 0
M  V30 9926 C 928.675 1.43939 -6.89537 0
M  V30 9927 H 924.774 0.556482 -0.54941 0
M  V30 9928 H 927.358 0.886614 -1.73341 0
M  V30 9929 H 925.529 3.40292 -1.87232 0
M  V30 9930 H 927.261 3.45016 -2.11533 0
M  V30 9931 H 924.016 2.61045 -3.95161 0
M  V30 9932 H 924.44 1.94104 -6.48577 0
M  V30 9933 H 929.082 2.22358 -3.59607 0
M  V30 9934 H 926.8 1.36551 -7.96479 0
M  V30 9935 H 930.386 1.5843 -5.59814 0
M  V30 9936 H 929.266 1.16253 -7.75535 0
M  V30 9937 N 926.769 1.22769 0.988202 0
M  V30 9938 C 928.015 1.06672 1.73184 0
M  V30 9939 C 928.37 -0.393434 1.88334 0
M  V30 9940 O 927.663 -1.2876 1.41885 0
M  V30 9941 C 927.857 1.71679 3.13466 0
M  V30 9942 C 927.686 3.23864 3.11997 0
M  V30 9943 C 926.456 3.92991 3.17626 0
M  V30 9944 C 928.654 4.20737 2.95778 0
M  V30 9945 N 926.636 5.32224 3.05959 0
M  V30 9946 C 928.007 5.46831 2.92191 0
M  V30 9947 C 930.062 4.1157 2.80205 0
M  V30 9948 C 928.765 6.64811 2.74624 0
M  V30 9949 C 930.791 5.29205 2.64 0
M  V30 9950 C 930.153 6.5422 2.61104 0
M  V30 9951 H 926.252 0.44481 0.64317 0
M  V30 9952 H 928.836 1.55381 1.17323 0
M  V30 9953 H 927.007 1.25513 3.67561 0
M  V30 9954 H 928.739 1.48629 3.76419 0
M  V30 9955 H 925.494 3.4402 3.25495 0
M  V30 9956 H 925.918 6.05197 3.03423 0
M  V30 9957 H 930.56 3.15697 2.81239 0
M  V30 9958 H 928.278 7.60828 2.72336 0
M  V30 9959 H 931.864 5.23947 2.52925 0
M  V30 9960 H 930.744 7.43713 2.48719 0
M  V30 9961 N 928.247 -1.18576 1.03814 0
M  V30 9962 C 929.494 -1.88493 0.740036 0
M  V30 9963 C 929.822 -1.80198 -0.732056 0
M  V30 9964 O 929.077 -1.19509 -1.54971 0
M  V30 9965 C 929.376 -3.38448 1.14837 0
M  V30 9966 C 929.042 -3.66947 2.62031 0
M  V30 9967 C 927.704 -3.74435 3.02244 0
M  V30 9968 C 930.056 -3.79534 3.57217 0
M  V30 9969 C 927.384 -3.91986 4.36536 0
M  V30 9970 C 929.736 -3.986 4.91223 0
M  V30 9971 C 928.4 -4.04323 5.31111 0
M  V30 9972 H 927.67 -0.689746 0.270798 0
M  V30 9973 H 930.317 -1.40364 1.3027 0
M  V30 9974 H 928.622 -3.88539 0.504472 0
M  V30 9975 H 930.319 -3.90882 0.89511 0
M  V30 9976 H 926.909 -3.61734 2.29883 0
M  V30 9977 H 931.093 -3.73083 3.27296 0
M  V30 9978 H 926.349 -3.9466 4.66962 0
M  V30 9979 H 930.523 -4.07281 5.64885 0
M  V30 9980 H 928.15 -4.17676 6.35178 0
M  V30 9981 N 929.725 -0.817259 -1.34754 0
M  V30 9982 C 930.972 -0.402648 -1.98457 0
M  V30 9983 C 931.3 1.03287 -1.64809 0
M  V30 9984 O 930.555 1.73316 -0.908851 0
M  V30 9985 C 930.854 -0.5453 -3.53216 0
M  V30 9986 C 930.52 -1.9457 -4.06759 0
M  V30 9987 C 929.182 -2.32881 -4.21094 0
M  V30 9988 C 931.534 -2.86141 -4.35629 0
M  V30 9989 C 928.862 -3.62108 -4.61622 0
M  V30 9990 C 931.214 -4.14826 -4.776 0
M  V30 9991 C 929.878 -4.53121 -4.9014 0
M  V30 9992 H 929.148 -0.147339 -0.726204 0
M  V30 9993 H 931.795 -1.04011 -1.60791 0
M  V30 9994 H 930.1 0.175576 -3.91406 0
M  V30 9995 H 931.797 -0.205112 -4.00475 0
M  V30 9996 H 928.387 -1.6381 -3.96061 0
M  V30 9997 H 932.571 -2.57788 -4.24098 0
M  V30 9998 H 927.827 -3.91613 -4.69521 0
M  V30 9999 H 932.001 -4.85874 -4.98899 0
M  V30 10000 H 929.628 -5.53307 -5.21302 0
M  V30 10001 N 931.203 1.46865 -0.571711 0
M  V30 10002 C 932.431 2.06818 -0.0583975 0
M  V30 10003 C 932.846 1.42218 1.24175 0
M  V30 10004 O 932.203 0.523655 1.74826 0
M  V30 10005 C 932.254 3.61281 0.125673 0
M  V30 10006 O 931.975 4.23462 -1.123 0
M  V30 10007 C 933.476 4.38137 0.674604 0
M  V30 10008 H 930.696 0.668948 -0.052438 0
M  V30 10009 H 933.24 1.88656 -0.789251 0
M  V30 10010 H 931.395 3.78908 0.806707 0
M  V30 10011 H 931.809 5.16192 -0.929869 0
M  V30 10012 H 933.283 5.46845 0.752626 0
M  V30 10013 H 933.76 4.05419 1.68915 0
M  V30 10014 H 934.366 4.2529 0.0287979 0
M  V30 10015 N 932.681 0.308908 1.54543 0
M  V30 10016 C 933.611 -0.556657 2.26768 0
M  V30 10017 C 934.592 -1.13145 1.27013 0
M  V30 10018 O 935.777 -1.15931 1.558 0
M  V30 10019 C 932.907 -1.72481 3.01443 0
M  V30 10020 C 931.861 -1.28001 4.08411 0
M  V30 10021 C 931.187 -2.53395 4.70845 0
M  V30 10022 C 932.487 -0.405497 5.20724 0
M  V30 10023 H 934.181 0.0457618 2.99365 0
M  V30 10024 H 931.727 0.0234495 1.43981 0
M  V30 10025 H 933.68 -2.3365 3.50693 0
M  V30 10026 H 932.404 -2.35359 2.26437 0
M  V30 10027 H 931.063 -0.69133 3.60022 0
M  V30 10028 H 930.711 -3.14604 3.92471 0
M  V30 10029 H 930.411 -2.2433 5.43093 0
M  V30 10030 H 931.935 -3.15352 5.22863 0
M  V30 10031 H 933.349 -0.923076 5.6582 0
M  V30 10032 H 931.746 -0.208282 5.99738 0
M  V30 10033 H 932.816 0.567412 4.81569 0
M  V30 10034 N 934.159 -1.57557 0.0367827 0
M  V30 10035 C 935.408 -1.91291 -0.639569 0
M  V30 10036 C 935.721 -0.915601 -1.72847 0
M  V30 10037 O 936.927 -1.14447 -2.46199 0
M  V30 10038 C 935.383 -3.39697 -1.18888 0
M  V30 10039 C 934.991 -4.47803 -0.132851 0
M  V30 10040 C 936.735 -3.82487 -1.8413 0
M  V30 10041 C 934.642 -5.87311 -0.694229 0
M  V30 10042 H 933.572 -0.713886 -0.242658 0
M  V30 10043 H 936.223 -1.83209 0.103332 0
M  V30 10044 H 934.605 -3.42736 -1.98363 0
M  V30 10045 H 935.779 -4.56334 0.640009 0
M  V30 10046 H 934.094 -4.14264 0.421264 0
M  V30 10047 H 936.691 -4.84076 -2.27101 0
M  V30 10048 H 937.034 -3.17959 -2.68716 0
M  V30 10049 H 937.567 -3.81903 -1.11332 0
M  V30 10050 H 934.306 -6.55401 0.113667 0
M  V30 10051 H 933.826 -5.82371 -1.4354 0
M  V30 10052 H 935.505 -6.36119 -1.1816 0
M  V30 10053 N 935.637 0.236453 -1.55816 0
M  V30 10054 C 936.886 0.960981 -1.77336 0
M  V30 10055 C 937.199 1.86085 -0.602641 0
M  V30 10056 O 938.405 2.62291 -0.701106 0
M  V30 10057 C 936.861 1.75884 -3.13995 0
M  V30 10058 C 936.469 0.905849 -4.38746 0
M  V30 10059 C 938.213 2.47548 -3.44848 0
M  V30 10060 C 936.12 1.7002 -5.66434 0
M  V30 10061 H 935.05 0.362547 -0.661117 0
M  V30 10062 H 937.701 0.215303 -1.82233 0
M  V30 10063 H 936.083 2.54687 -3.03234 0
M  V30 10064 H 937.257 0.159415 -4.60524 0
M  V30 10065 H 935.572 0.30205 -4.15303 0
M  V30 10066 H 938.169 3.07452 -4.37467 0
M  V30 10067 H 938.512 3.19689 -2.66655 0
M  V30 10068 H 939.045 1.75747 -3.56872 0
M  V30 10069 H 935.784 1.02234 -6.47479 0
M  V30 10070 H 935.304 2.42164 -5.48741 0
M  V30 10071 H 936.983 2.26469 -6.0607 0
M  V30 10072 N 937.115 1.49373 0.502552 0
M  V30 10073 C 938.364 1.58028 1.25339 0
M  V30 10074 C 938.677 0.271494 1.93707 0
M  V30 10075 O 939.883 0.236584 2.70467 0
M  V30 10076 C 938.339 2.78817 2.27572 0
M  V30 10077 C 937.947 4.16448 1.65151 0
M  V30 10078 C 939.691 2.96802 3.03494 0
M  V30 10079 C 937.598 5.28461 2.65486 0
M  V30 10080 H 936.528 0.588396 0.471494 0
M  V30 10081 H 939.179 1.75756 0.52744 0
M  V30 10082 H 937.561 2.5458 3.03323 0
M  V30 10083 H 938.735 4.50816 0.954029 0
M  V30 10084 H 937.05 4.03809 1.01625 0
M  V30 10085 H 939.647 3.77656 3.78524 0
M  V30 10086 H 939.99 2.07303 3.61014 0
M  V30 10087 H 940.523 3.21071 2.34858 0
M  V30 10088 H 937.262 6.20015 2.12749 0
M  V30 10089 H 936.782 4.9855 3.33479 0
M  V30 10090 H 938.461 5.5773 3.27943 0
M  V30 10091 N 938.594 -0.753485 1.38421 0
M  V30 10092 C 939.819 -1.54783 1.38047 0
M  V30 10093 C 940.244 -1.8808 -0.0276371 0
M  V30 10094 O 939.602 -1.5058 -1.00973 0
M  V30 10095 C 939.65 -2.82353 2.24297 0
M  V30 10096 O 938.754 -3.77509 1.66014 0
M  V30 10097 H 938.095 -0.468151 0.470883 0
M  V30 10098 H 940.625 -0.931144 1.82184 0
M  V30 10099 H 940.635 -3.31277 2.38159 0
M  V30 10100 H 939.31 -2.57449 3.26639 0
M  V30 10101 H 937.887 -3.36212 1.61294 0
M  V30 10102 N 940.072 -1.23292 -0.981677 0
M  V30 10103 C 941.297 -1.09176 -1.76339 0
M  V30 10104 C 941.722 0.352726 -1.84763 0
M  V30 10105 O 941.08 1.25509 -1.30832 0
M  V30 10106 C 941.128 -1.72046 -3.16911 0
M  V30 10107 O 940.232 -0.98174 -4.00544 0
M  V30 10108 H 939.573 -0.382755 -0.542581 0
M  V30 10109 H 942.103 -1.63319 -1.23239 0
M  V30 10110 H 942.113 -1.77232 -3.67495 0
M  V30 10111 H 940.788 -2.77154 -3.10095 0
M  V30 10112 H 939.365 -1.00672 -3.59054 0
M  V30 10113 N 941.55 1.18024 -1.04442 0
M  V30 10114 C 942.78 1.91753 -0.769044 0
M  V30 10115 C 943.188 1.76629 0.678141 0
M  V30 10116 O 942.531 1.09589 1.47431 0
M  V30 10117 C 942.593 3.43505 -1.0604 0
M  V30 10118 C 942.257 3.82409 -2.50225 0
M  V30 10119 C 943.254 3.8588 -3.48414 0
M  V30 10120 C 940.939 4.13594 -2.85036 0
M  V30 10121 C 942.933 4.19993 -4.79463 0
M  V30 10122 C 940.62 4.47377 -4.1629 0
M  V30 10123 C 941.618 4.50553 -5.13314 0
M  V30 10124 O 941.306 4.83546 -6.42214 0
M  V30 10125 H 941.038 0.615466 -0.279603 0
M  V30 10126 H 943.592 1.5065 -1.3962 0
M  V30 10127 H 941.822 3.84866 -0.376125 0
M  V30 10128 H 943.511 3.98486 -0.772235 0
M  V30 10129 H 944.277 3.6192 -3.2286 0
M  V30 10130 H 940.156 4.10297 -2.10185 0
M  V30 10131 H 943.7 4.22387 -5.55189 0
M  V30 10132 H 939.597 4.70798 -4.4161 0
M  V30 10133 H 940.365 5.01433 -6.46921 0
M  V30 10134 N 943.028 0.824394 1.34319 0
M  V30 10135 C 944.256 0.426194 2.02463 0
M  V30 10136 C 944.671 -0.968298 1.62078 0
M  V30 10137 O 944.028 -1.62689 0.82696 0
M  V30 10138 C 944.079 0.520465 3.57734 0
M  V30 10139 O 943.8 1.86 3.96656 0
M  V30 10140 C 945.301 0.117353 4.43145 0
M  V30 10141 H 942.521 0.170864 0.648881 0
M  V30 10142 H 945.065 1.11296 1.71562 0
M  V30 10143 H 943.22 -0.118233 3.8722 0
M  V30 10144 H 943.634 1.83528 4.91343 0
M  V30 10145 H 945.108 0.234395 5.51502 0
M  V30 10146 H 945.585 -0.939271 4.29039 0
M  V30 10147 H 946.191 0.729908 4.1899 0
M  V30 10148 N 944.506 -1.46559 0.579492 0
M  V30 10149 C 945.469 -2.28739 -0.145371 0
M  V30 10150 C 946.469 -1.38211 -0.821854 0
M  V30 10151 O 947.659 -1.6062 -0.674302 0
M  V30 10152 C 944.791 -3.18507 -1.21515 0
M  V30 10153 H 945.984 -2.94301 0.576786 0
M  V30 10154 H 943.537 -1.52616 0.337327 0
M  V30 10155 H 944.272 -2.57685 -1.96899 0
M  V30 10156 H 944.057 -3.85157 -0.734616 0
M  V30 10157 H 945.547 -3.80369 -1.72363 0
M  V30 10158 N 945.984 -0.3171 -1.54377 0
M  V30 10159 C 946.932 0.567371 -2.25574 0
M  V30 10160 C 947.926 1.12387 -1.2675 0
M  V30 10161 O 949.132 1.07266 -1.44548 0
M  V30 10162 H 945.507 0.201605 -0.724472 0
M  V30 10163 H 947.478 -0.0554644 -2.98348 0
M  V30 10164 C 946.227 1.71984 -3.02187 0
M  V30 10165 H 945.55 1.30086 -3.78044 0
M  V30 10166 H 946.99 2.31443 -3.5526 0
M  V30 10167 C 945.449 2.6336 -2.10103 0
M  V30 10168 O 945.979 3.64899 -1.67962 0
M  V30 10169 N 944.185 2.3145 -1.75725 0
M  V30 10170 H 943.732 1.48921 -2.10191 0
M  V30 10171 H 943.69 2.92852 -1.14391 0
M  V30 10172 N 947.462 1.57535 -0.0451378 0
M  V30 10173 C 948.392 2.14208 0.929372 0
M  V30 10174 C 949.373 1.06221 1.32858 0
M  V30 10175 O 950.558 1.34132 1.40436 0
M  V30 10176 C 947.688 2.68217 2.20629 0
M  V30 10177 C 946.642 3.81134 1.94734 0
M  V30 10178 C 945.968 4.21636 3.28828 0
M  V30 10179 C 947.268 5.06531 1.27374 0
M  V30 10180 H 948.962 2.95886 0.457348 0
M  V30 10181 H 946.508 1.42332 0.218544 0
M  V30 10182 H 948.461 3.06502 2.89196 0
M  V30 10183 H 947.185 1.83722 2.70026 0
M  V30 10184 H 945.844 3.43312 1.28579 0
M  V30 10185 H 945.492 3.34099 3.76014 0
M  V30 10186 H 945.192 4.97736 3.12302 0
M  V30 10187 H 946.716 4.62516 3.98637 0
M  V30 10188 H 948.13 5.423 1.85967 0
M  V30 10189 H 946.527 5.87735 1.21194 0
M  V30 10190 H 947.597 4.84261 0.248913 0
M  V30 10191 N 948.94 -0.228186 1.55939 0
M  V30 10192 C 949.903 -1.26621 1.91049 0
M  V30 10193 C 950.903 -1.40141 0.788491 0
M  V30 10194 O 952.093 -1.3852 1.05631 0
M  V30 10195 C 949.225 -2.64108 2.15545 0
M  V30 10196 H 950.418 -0.966978 2.83883 0
M  V30 10197 H 947.971 -0.468313 1.49119 0
M  V30 10198 H 948.706 -2.99141 1.25241 0
M  V30 10199 H 948.491 -2.55673 2.97277 0
M  V30 10200 H 949.981 -3.39025 2.43827 0
M  V30 10201 N 950.418 -1.49637 -0.494624 0
M  V30 10202 C 951.381 -1.66252 -1.57775 0
M  V30 10203 C 952.381 -0.534054 -1.51672 0
M  V30 10204 O 953.571 -0.800637 -1.54711 0
M  V30 10205 C 950.703 -1.66584 -2.97426 0
M  V30 10206 H 951.896 -2.62864 -1.4437 0
M  V30 10207 H 949.449 -1.38764 -0.719323 0
M  V30 10208 H 950.184 -0.715798 -3.16302 0
M  V30 10209 H 949.969 -2.48543 -3.03264 0
M  V30 10210 H 951.459 -1.81474 -3.76108 0
M  V30 10211 N 951.896 0.746133 -1.38819 0
M  V30 10212 C 953.143 1.50545 -1.35434 0
M  V30 10213 C 953.471 1.94427 0.0532669 0
M  V30 10214 O 952.726 1.66285 1.03188 0
M  V30 10215 C 953.025 2.76639 -2.26286 0
M  V30 10216 C 952.691 2.51682 -3.74122 0
M  V30 10217 C 951.353 2.44584 -4.14406 0
M  V30 10218 C 953.705 2.30071 -4.67672 0
M  V30 10219 C 951.033 2.13902 -5.46318 0
M  V30 10220 C 953.385 2.00907 -5.99849 0
M  V30 10221 C 952.049 1.92271 -6.39209 0
M  V30 10222 H 951.319 0.550883 -0.49559 0
M  V30 10223 H 953.966 0.857337 -1.71237 0
M  V30 10224 H 952.271 3.46138 -1.83564 0
M  V30 10225 H 953.968 3.34626 -2.20967 0
M  V30 10226 H 950.558 2.5808 -3.42188 0
M  V30 10227 H 954.742 2.34528 -4.3739 0
M  V30 10228 H 949.998 2.0573 -5.75748 0
M  V30 10229 H 954.172 1.83191 -6.71874 0
M  V30 10230 H 951.799 1.68261 -7.41345 0
M  V30 10231 N 953.375 1.23811 0.975125 0
M  V30 10232 C 954.305 1.04846 2.08638 0
M  V30 10233 C 955.286 -0.0362859 1.70061 0
M  V30 10234 O 956.471 0.12937 1.93769 0
M  V30 10235 C 953.601 0.644534 3.41267 0
M  V30 10236 C 952.555 1.67722 3.93768 0
M  V30 10237 C 951.881 1.12857 5.22654 0
M  V30 10238 C 953.181 3.07147 4.22443 0
M  V30 10239 H 954.875 1.97795 2.24761 0
M  V30 10240 H 952.421 0.952397 1.08006 0
M  V30 10241 H 954.374 0.498887 4.18436 0
M  V30 10242 H 953.098 -0.320641 3.25022 0
M  V30 10243 H 951.757 1.81095 3.18748 0
M  V30 10244 H 951.405 0.154227 5.02764 0
M  V30 10245 H 951.105 1.81862 5.58749 0
M  V30 10246 H 952.629 0.994891 6.0244 0
M  V30 10247 H 954.043 2.97045 4.90344 0
M  V30 10248 H 952.44 3.73437 4.6975 0
M  V30 10249 H 953.51 3.55743 3.29507 0
M  V30 10250 N 954.853 -1.17469 1.05066 0
M  V30 10251 C 956.081 -1.9162 0.780334 0
M  V30 10252 C 956.496 -1.76745 -0.663817 0
M  V30 10253 O 955.853 -1.10377 -1.45338 0
M  V30 10254 C 955.904 -3.42723 1.14992 0
M  V30 10255 O 955.625 -3.57139 2.53739 0
M  V30 10256 C 957.126 -4.33952 0.905549 0
M  V30 10257 H 954.346 -0.608022 0.283814 0
M  V30 10258 H 956.89 -1.4897 1.401 0
M  V30 10259 H 955.045 -3.83124 0.57403 0
M  V30 10260 H 955.459 -4.5075 2.68189 0
M  V30 10261 H 956.933 -5.38487 1.21391 0
M  V30 10262 H 957.41 -4.38911 -0.159295 0
M  V30 10263 H 958.016 -3.99263 1.46522 0
M  V30 10264 N 956.331 -0.831506 -1.3388 0
M  V30 10265 C 957.577 -0.424302 -1.98312 0
M  V30 10266 C 957.91 1.01211 -1.65741 0
M  V30 10267 O 957.185 1.70636 -0.933464 0
M  V30 10268 C 957.468 -0.636815 -3.54424 0
M  V30 10269 C 957.321 -2.11997 -3.96708 0
M  V30 10270 C 958.64 -0.0782411 -4.4003 0
M  V30 10271 H 955.759 -0.155637 -0.720379 0
M  V30 10272 H 958.401 -1.04566 -1.58638 0
M  V30 10273 H 956.551 -0.107907 -3.8835 0
M  V30 10274 H 958.223 -2.71317 -3.73075 0
M  V30 10275 H 956.466 -2.60723 -3.46707 0
M  V30 10276 H 957.137 -2.21944 -5.05416 0
M  V30 10277 H 959.613 -0.530243 -4.12708 0
M  V30 10278 H 958.489 -0.256676 -5.483 0
M  V30 10279 H 958.75 1.01745 -4.30233 0
M  V30 10280 N 957.809 1.4625 -0.587256 0
M  V30 10281 C 958.719 2.34147 0.145744 0
M  V30 10282 C 959.735 1.50026 0.881376 0
M  V30 10283 O 960.911 1.82884 0.843539 0
M  V30 10284 C 957.976 3.27294 1.14366 0
M  V30 10285 C 957.037 4.27317 0.412199 0
M  V30 10286 C 956.27 5.16013 1.36257 0
M  V30 10287 O 956.493 5.0773 2.59934 0
M  V30 10288 O 955.427 5.95569 0.870681 0
M  V30 10289 H 959.253 2.98187 -0.576055 0
M  V30 10290 H 956.838 1.45299 -0.347628 0
M  V30 10291 H 958.72 3.84747 1.71894 0
M  V30 10292 H 957.395 2.65845 1.84684 0
M  V30 10293 H 956.302 3.73538 -0.205036 0
M  V30 10294 H 957.635 4.91564 -0.250104 0
M  V30 10295 N 959.287 0.325282 1.54207 0
M  V30 10296 C 960.703 -0.0273036 1.59577 0
M  V30 10297 C 960.903 -1.50329 1.34177 0
M  V30 10298 O 959.959 -2.25951 1.12705 0
M  V30 10299 C 961.272 0.392468 2.98128 0
M  V30 10300 C 962.82 0.343269 3.11112 0
M  V30 10301 C 963.295 0.738229 4.52011 0
M  V30 10302 N 964.786 0.691701 4.58006 0
M  V30 10303 C 965.521 0.969479 5.65145 0
M  V30 10304 N 965.017 1.31448 6.80216 0
M  V30 10305 N 966.81 0.894926 5.5493 0
M  V30 10306 H 958.961 1.28692 1.68974 0
M  V30 10307 H 961.224 0.523399 0.790416 0
M  V30 10308 H 960.93 1.42089 3.2172 0
M  V30 10309 H 960.804 -0.241651 3.76425 0
M  V30 10310 H 963.191 -0.675946 2.87254 0
M  V30 10311 H 963.272 1.01235 2.34915 0
M  V30 10312 H 962.916 1.75537 4.76602 0
M  V30 10313 H 962.846 0.0468226 5.26579 0
M  V30 10314 H 965.337 0.436975 3.75365 0
M  V30 10315 H 965.65 1.51177 7.57869 0
M  V30 10316 H 963.995 1.35276 6.81708 0
M  V30 10317 H 967.186 0.624876 4.6391 0
M  V30 10318 H 967.359 1.11476 6.38339 0
M  V30 10319 N 960.765 -1.57509 0.0534917 0
M  V30 10320 C 961.698 -2.0723 -0.955554 0
M  V30 10321 C 962.676 -0.973313 -1.30251 0
M  V30 10322 O 963.86 -1.24541 -1.41498 0
M  V30 10323 C 960.987 -2.51473 -2.2689 0
M  V30 10324 C 960.033 -3.7263 -2.07482 0
M  V30 10325 S 960.866 -5.18177 -1.35104 0
M  V30 10326 C 962.022 -5.65736 -2.67757 0
M  V30 10327 H 962.255 -2.92494 -0.532407 0
M  V30 10328 H 959.788 -1.53581 -0.158831 0
M  V30 10329 H 961.746 -2.77626 -3.02381 0
M  V30 10330 H 960.407 -1.66511 -2.66332 0
M  V30 10331 H 959.6 -4.01515 -3.04633 0
M  V30 10332 H 959.202 -3.46756 -1.4013 0
M  V30 10333 H 961.494 -5.71463 -3.63918 0
M  V30 10334 H 962.437 -6.64914 -2.43506 0
M  V30 10335 H 962.845 -4.93475 -2.74123 0
M  V30 10336 N 962.243 0.219913 -1.56058 0
M  V30 10337 C 963.489 0.945463 -1.79412 0
M  V30 10338 C 963.822 1.83922 -0.62341 0
M  V30 10339 O 963.097 1.90806 0.377256 0
M  V30 10340 C 963.38 1.783 -3.1286 0
M  V30 10341 C 963.233 0.915626 -4.40382 0
M  V30 10342 C 964.552 2.76045 -3.42764 0
M  V30 10343 H 961.671 0.342288 -0.652693 0
M  V30 10344 H 964.313 0.214235 -1.88788 0
M  V30 10345 H 962.463 2.40642 -3.04998 0
M  V30 10346 H 964.135 0.30882 -4.60265 0
M  V30 10347 H 962.378 0.221124 -4.33236 0
M  V30 10348 H 963.049 1.53607 -5.30197 0
M  V30 10349 H 965.525 2.23838 -3.50764 0
M  V30 10350 H 964.401 3.31748 -4.37304 0
M  V30 10351 H 964.662 3.53866 -2.65012 0
M  V30 10352 N 963.721 1.49897 0.486681 0
M  V30 10353 C 964.946 1.64106 1.26823 0
M  V30 10354 C 965.371 0.317967 1.85393 0
M  V30 10355 O 964.729 -0.71626 1.66551 0
M  V30 10356 C 964.777 2.72301 2.36399 0
M  V30 10357 O 963.881 2.32469 3.40634 0
M  V30 10358 H 963.222 0.548794 0.373793 0
M  V30 10359 H 965.752 1.96177 0.581017 0
M  V30 10360 H 965.762 2.94906 2.81948 0
M  V30 10361 H 964.437 3.68335 1.93137 0
M  V30 10362 H 963.014 2.20251 3.00905 0
M  V30 10363 N 965.199 -0.738761 1.39212 0
M  V30 10364 C 966.61 -1.31684 1.32348 0
M  V30 10365 C 966.961 -1.96195 -0.0139041 0
M  V30 10366 O 966.086 -1.96056 -0.916025 0
M  V30 10367 C 966.681 -2.39444 2.39691 0
M  V30 10368 C 965.24 -2.92935 2.36359 0
M  V30 10369 C 964.387 -1.66465 2.21776 0
M  V30 10370 H 967.338 -0.536543 1.49355 0
M  V30 10371 H 967.359 -3.19744 2.06262 0
M  V30 10372 H 966.871 -1.92463 3.37016 0
M  V30 10373 H 964.972 -3.44207 1.42662 0
M  V30 10374 H 965.085 -3.46306 3.31073 0
M  V30 10375 H 963.449 -1.90657 1.68884 0
M  V30 10376 H 964.232 -1.21541 3.21065 0
M  V30 10377 N 966.677 -1.24326 -0.968545 0
M  V30 10378 C 967.926 -1.07647 -1.70572 0
M  V30 10379 C 968.239 0.384821 -1.91777 0
M  V30 10380 O 969.445 0.671782 -2.63058 0
M  V30 10381 C 967.901 -1.87799 -3.07017 0
M  V30 10382 C 967.509 -3.38333 -2.93658 0
M  V30 10383 C 969.253 -1.79647 -3.84613 0
M  V30 10384 C 967.16 -4.10831 -4.25407 0
M  V30 10385 H 966.09 -0.399216 -0.639642 0
M  V30 10386 H 968.741 -1.484 -1.07934 0
M  V30 10387 H 967.123 -1.3986 -3.7048 0
M  V30 10388 H 968.297 -3.93845 -2.39213 0
M  V30 10389 H 966.612 -3.47427 -2.29528 0
M  V30 10390 H 969.209 -2.31116 -4.82172 0
M  V30 10391 H 969.552 -0.761553 -4.09275 0
M  V30 10392 H 970.085 -2.25261 -3.27875 0
M  V30 10393 H 966.824 -5.14679 -4.05939 0
M  V30 10394 H 966.344 -3.60105 -4.79671 0
M  V30 10395 H 968.023 -4.17783 -4.94031 0
M  V30 10396 N 968.156 1.1691 -1.05688 0
M  V30 10397 C 969.066 2.24735 -0.67315 0
M  V30 10398 C 970.082 1.71252 0.308043 0
M  V30 10399 O 971.258 2.00772 0.158889 0
M  V30 10400 C 968.323 3.4665 -0.059026 0
M  V30 10401 C 967.384 4.15198 -1.0913 0
M  V30 10402 C 966.617 5.31292 -0.50639 0
M  V30 10403 O 966.84 5.663 0.682692 0
M  V30 10404 O 965.774 5.88923 -1.2431 0
M  V30 10405 H 969.6 2.59855 -1.57191 0
M  V30 10406 H 967.185 1.24306 -0.828751 0
M  V30 10407 H 969.067 4.20455 0.282018 0
M  V30 10408 H 967.742 3.13316 0.813304 0
M  V30 10409 H 966.649 3.43389 -1.48442 0
M  V30 10410 H 967.982 4.52571 -1.93495 0
M  V30 10411 N 969.634 0.838594 1.33437 0
M  V30 10412 C 970.859 0.446701 2.02532 0
M  V30 10413 C 971.284 -0.944275 1.62681 0
M  V30 10414 O 970.642 -1.61733 0.81927 0
M  V30 10415 C 970.69 0.574794 3.55989 0
M  V30 10416 O 969.794 -0.399063 4.10465 0
M  V30 10417 H 969.135 0.181637 0.638674 0
M  V30 10418 H 971.665 1.13335 1.70342 0
M  V30 10419 H 971.675 0.456339 4.0544 0
M  V30 10420 H 970.35 1.58921 3.8434 0
M  V30 10421 H 968.927 -0.238187 3.72139 0
M  V30 10422 N 971.112 -1.45937 0.595003 0
M  V30 10423 C 972.075 -2.2888 -0.121102 0
M  V30 10424 C 973.075 -1.39075 -0.807149 0
M  V30 10425 O 974.265 -1.61326 -0.657228 0
M  V30 10426 C 971.397 -3.19778 -1.1813 0
M  V30 10427 H 972.59 -2.93673 0.607968 0
M  V30 10428 H 970.143 -1.5225 0.353495 0
M  V30 10429 H 970.878 -2.59759 -1.94154 0
M  V30 10430 H 970.663 -3.85914 -0.693724 0
M  V30 10431 H 972.153 -3.82176 -1.68319 0
M  V30 10432 N 972.59 -0.333456 -1.54032 0
M  V30 10433 C 973.5 0.536674 -2.28379 0
M  V30 10434 C 974.516 1.12068 -1.33104 0
M  V30 10435 O 975.692 1.13853 -1.66131 0
M  V30 10436 C 972.757 1.67677 -3.03456 0
M  V30 10437 C 971.818 1.12357 -4.14336 0
M  V30 10438 C 971.051 2.20933 -4.85823 0
M  V30 10439 O 971.274 3.41466 -4.569 0
M  V30 10440 O 970.208 1.85795 -5.72507 0
M  V30 10441 H 974.034 -0.0674003 -3.03625 0
M  V30 10442 H 971.619 -0.098823 -1.49073 0
M  V30 10443 H 973.501 2.34032 -3.50438 0
M  V30 10444 H 972.176 2.26684 -2.31076 0
M  V30 10445 H 971.083 0.424827 -3.7168 0
M  V30 10446 H 972.416 0.578497 -4.88789 0
M  V30 10447 N 974.068 1.57479 -0.061844 0
M  V30 10448 C 975.345 1.84484 0.649993 0
M  V30 10449 C 975.725 0.952366 1.88396 0
M  V30 10450 O 975.073 0.0161035 2.28494 0
M  V30 10451 C 975.283 3.34452 0.997133 0
M  V30 10452 C 976.631 4.01724 1.37488 0
M  V30 10453 O 977.655 3.3914 1.08916 0
M  V30 10454 O 976.514 5.12091 1.90854 0
M  V30 10455 H 973.608 0.761798 0.321858 0
M  V30 10456 H 976.154 1.6945 -0.0920192 0
M  V30 10457 H 974.926 3.91115 0.120301 0
M  V30 10458 H 974.549 3.54713 1.79624 0
M  V30 10459 N 975.546 -0.211634 1.56173 0
M  V30 10460 C 976.476 -1.26533 1.96244 0
M  V30 10461 C 977.457 -1.48362 0.832028 0
M  V30 10462 O 978.642 -1.60378 1.0951 0
M  V30 10463 C 975.772 -2.61307 2.2877 0
M  V30 10464 C 974.726 -2.54119 3.44395 0
M  V30 10465 C 974.052 -3.93014 3.62552 0
M  V30 10466 C 975.352 -2.08046 4.79076 0
M  V30 10467 H 977.046 -0.932407 2.84511 0
M  V30 10468 H 974.592 -0.447084 1.36884 0
M  V30 10469 H 976.545 -3.35188 2.55396 0
M  V30 10470 H 975.269 -2.96307 1.37367 0
M  V30 10471 H 973.928 -1.82694 3.17834 0
M  V30 10472 H 973.576 -4.25338 2.68508 0
M  V30 10473 H 973.276 -3.89083 4.40327 0
M  V30 10474 H 974.8 -4.68542 3.91537 0
M  V30 10475 H 976.214 -2.71676 5.04842 0
M  V30 10476 H 974.611 -2.15154 5.60204 0
M  V30 10477 H 975.681 -1.03306 4.73768 0
M  V30 10478 N 977.024 -1.50153 -0.478725 0
M  V30 10479 C 977.987 -1.67916 -1.56003 0
M  V30 10480 C 978.987 -0.550111 -1.51097 0
M  V30 10481 O 980.177 -0.817001 -1.53853 0
M  V30 10482 C 977.309 -1.6973 -2.95643 0
M  V30 10483 H 978.502 -2.6438 -1.41573 0
M  V30 10484 H 976.055 -1.39519 -0.704565 0
M  V30 10485 H 976.79 -0.749306 -3.15525 0
M  V30 10486 H 976.575 -2.51745 -3.00611 0
M  V30 10487 H 978.065 -1.85453 -3.74162 0
M  V30 10488 N 978.502 0.731368 -1.39602 0
M  V30 10489 C 979.449 1.84541 -1.38612 0
M  V30 10490 C 980.419 1.64279 -0.245287 0
M  V30 10491 O 981.604 1.85635 -0.440954 0
M  V30 10492 C 978.744 3.22092 -1.23897 0
M  V30 10493 C 977.857 3.54034 -2.47555 0
M  V30 10494 C 976.992 4.81007 -2.25402 0
M  V30 10495 C 976.031 5.05804 -3.44716 0
M  V30 10496 N 975.168 6.23981 -3.21857 0
M  V30 10497 H 980.008 1.84722 -2.33841 0
M  V30 10498 H 977.545 0.902569 -1.16156 0
M  V30 10499 H 979.503 4.01499 -1.13376 0
M  V30 10500 H 978.133 3.2118 -0.322958 0
M  V30 10501 H 977.185 2.69301 -2.68665 0
M  V30 10502 H 978.497 3.68275 -3.36415 0
M  V30 10503 H 977.651 5.68401 -2.12143 0
M  V30 10504 H 976.39 4.68946 -1.33943 0
M  V30 10505 H 975.395 4.1687 -3.58468 0
M  V30 10506 H 976.62 5.19747 -4.37081 0
M  V30 10507 H 974.566 6.13202 -2.33065 0
M  V30 10508 H 974.483 6.38826 -4.04274 0
M  V30 10509 H 975.751 7.14205 -3.123 0
M  V30 10510 N 979.98 1.24838 0.961938 0
M  V30 10511 C 980.912 1.00369 2.06055 0
M  V30 10512 C 981.925 -0.0288583 1.62774 0
M  V30 10513 O 983.114 0.208853 1.77274 0
M  V30 10514 C 980.214 0.493953 3.35281 0
M  V30 10515 C 979.387 1.59097 4.07439 0
M  V30 10516 C 978.446 1.08288 5.14937 0
M  V30 10517 O 977.472 1.77577 5.40791 0
M  V30 10518 N 978.674 -0.0796836 5.80445 0
M  V30 10519 H 981.439 1.94962 2.27618 0
M  V30 10520 H 979 1.15945 1.12997 0
M  V30 10521 H 980.992 0.138675 4.04462 0
M  V30 10522 H 979.562 -0.357851 3.10545 0
M  V30 10523 H 978.782 2.11817 3.32456 0
M  V30 10524 H 980.07 2.32817 4.52409 0
M  V30 10525 H 979.468 -0.658827 5.6185 0
M  V30 10526 H 978.025 -0.376057 6.50714 0
M  V30 10527 N 981.458 -1.16348 1.06306 0
M  V30 10528 C 982.686 -1.90782 0.800614 0
M  V30 10529 C 983.101 -1.77439 -0.645033 0
M  V30 10530 O 982.458 -1.11912 -1.4416 0
M  V30 10531 C 982.509 -3.41484 1.18621 0
M  V30 10532 O 982.23 -3.54428 2.57512 0
M  V30 10533 C 983.731 -4.32968 0.951525 0
M  V30 10534 H 980.951 -0.604977 0.290247 0
M  V30 10535 H 983.495 -1.47476 1.41672 0
M  V30 10536 H 981.65 -3.82493 0.614633 0
M  V30 10537 H 982.064 -4.4788 2.72954 0
M  V30 10538 H 983.538 -5.37169 1.27095 0
M  V30 10539 H 984.015 -4.39055 -0.112734 0
M  V30 10540 H 984.621 -3.97687 1.50749 0
M  V30 10541 N 982.937 -0.845659 -1.3299 0
M  V30 10542 C 983.847 -0.2864 -2.32845 0
M  V30 10543 C 984.863 0.591105 -1.63652 0
M  V30 10544 O 986.039 0.493615 -1.95257 0
M  V30 10545 C 983.104 0.523636 -3.42723 0
M  V30 10546 C 982.165 -0.378945 -4.27624 0
M  V30 10547 C 981.398 0.392526 -5.32255 0
M  V30 10548 O 981.621 1.6235 -5.46808 0
M  V30 10549 O 980.555 -0.237 -6.01433 0
M  V30 10550 H 984.381 -1.11346 -2.82552 0
M  V30 10551 H 981.966 -0.608356 -1.36453 0
M  V30 10552 H 983.848 0.983718 -4.09757 0
M  V30 10553 H 982.523 1.32764 -2.95221 0
M  V30 10554 H 981.43 -0.887012 -3.63432 0
M  V30 10555 H 982.763 -1.1479 -4.78627 0
M  V30 10556 N 984.415 1.45619 -0.602734 0
M  V30 10557 C 985.664 2.01483 -0.0936395 0
M  V30 10558 C 985.977 1.47753 1.28173 0
M  V30 10559 O 987.183 1.95562 1.88329 0
M  V30 10560 C 985.639 3.59711 -0.116738 0
M  V30 10561 C 985.247 4.22437 -1.49166 0
M  V30 10562 C 986.991 4.23157 0.337368 0
M  V30 10563 C 984.898 5.72803 -1.47141 0
M  V30 10564 H 983.828 0.753353 -0.0312382 0
M  V30 10565 H 986.479 1.67142 -0.757347 0
M  V30 10566 H 984.861 3.91218 0.613529 0
M  V30 10567 H 986.035 4.02511 -2.24325 0
M  V30 10568 H 984.35 3.71166 -1.88746 0
M  V30 10569 H 986.947 5.33407 0.371628 0
M  V30 10570 H 987.29 3.93491 1.35906 0
M  V30 10571 H 987.823 3.96349 -0.339474 0
M  V30 10572 H 984.562 6.07161 -2.47055 0
M  V30 10573 H 984.082 5.94936 -0.762329 0
M  V30 10574 H 985.761 6.35907 -1.19294 0
M  V30 10575 N 985.893 0.34162 1.53853 0
M  V30 10576 C 986.856 -0.503541 2.236 0
M  V30 10577 C 987.856 -1.02912 1.23554 0
M  V30 10578 O 989.046 -0.918678 1.48007 0
M  V30 10579 C 986.178 -1.70126 2.95415 0
M  V30 10580 H 987.371 0.106437 2.99711 0
M  V30 10581 H 984.924 0.0929408 1.56023 0
M  V30 10582 H 985.659 -2.34999 2.23486 0
M  V30 10583 H 985.444 -1.33161 3.68796 0
M  V30 10584 H 986.934 -2.30077 3.48503 0
M  V30 10585 N 987.371 -1.57444 0.0701946 0
M  V30 10586 C 988.601 -1.97467 -0.607476 0
M  V30 10587 C 989.009 -0.947232 -1.63781 0
M  V30 10588 O 988.352 0.074652 -1.83548 0
M  V30 10589 C 988.414 -3.33795 -1.33495 0
M  V30 10590 C 988.078 -4.54697 -0.458265 0
M  V30 10591 C 989.075 -5.19127 0.283488 0
M  V30 10592 C 986.76 -5.00833 -0.383612 0
M  V30 10593 C 988.754 -6.28043 1.08813 0
M  V30 10594 C 986.441 -6.09622 0.424705 0
M  V30 10595 C 987.439 -6.7309 1.15925 0
M  V30 10596 O 987.127 -7.79785 1.95423 0
M  V30 10597 H 986.859 -0.654405 -0.169501 0
M  V30 10598 H 989.413 -2.04931 0.138651 0
M  V30 10599 H 987.643 -3.22941 -2.12711 0
M  V30 10600 H 989.332 -3.58435 -1.9047 0
M  V30 10601 H 990.098 -4.84428 0.235397 0
M  V30 10602 H 985.977 -4.51211 -0.944968 0
M  V30 10603 H 989.521 -6.77513 1.66197 0
M  V30 10604 H 985.418 -6.43755 0.474366 0
M  V30 10605 H 986.186 -7.96655 1.87838 0
M  V30 10606 N 988.849 0.203349 -1.56283 0
M  V30 10607 C 990.097 0.923183 -1.79782 0
M  V30 10608 C 990.418 1.84134 -0.64185 0
M  V30 10609 O 989.688 1.92922 0.340292 0
M  V30 10610 H 988.268 0.343881 -0.66314 0
M  V30 10611 H 990.93 0.210837 -1.93756 0
M  V30 10612 H 990.026 1.51921 -2.72629 0
M  V30 10613 N 990.327 1.50405 0.470755 0
M  V30 10614 C 991.555 1.65168 1.24608 0
M  V30 10615 C 991.97 0.335153 1.85801 0
M  V30 10616 O 991.327 -0.682919 1.69241 0
M  V30 10617 C 991.378 2.74305 2.35455 0
M  V30 10618 O 991.099 4.00854 1.76771 0
M  V30 10619 C 992.6 3.00044 3.26326 0
M  V30 10620 H 989.82 0.555186 0.376842 0
M  V30 10621 H 992.364 1.9663 0.56187 0
M  V30 10622 H 990.519 2.45536 2.99651 0
M  V30 10623 H 990.933 4.61211 2.49769 0
M  V30 10624 H 992.407 3.8007 4.00313 0
M  V30 10625 H 992.884 2.11128 3.85126 0
M  V30 10626 H 993.49 3.30345 2.67866 0
M  V30 10627 N 991.805 -0.723954 1.39988 0
M  V30 10628 C 992.735 -1.85103 1.42335 0
M  V30 10629 C 993.716 -1.6769 0.285297 0
M  V30 10630 O 994.901 -1.87846 0.492716 0
M  V30 10631 C 992.031 -3.22972 1.27697 0
M  V30 10632 C 990.985 -3.55041 2.39018 0
M  V30 10633 C 990.311 -4.91965 2.09462 0
M  V30 10634 C 991.611 -3.56889 3.8135 0
M  V30 10635 H 993.305 -1.83396 2.36656 0
M  V30 10636 H 990.851 -0.880926 1.13911 0
M  V30 10637 H 992.804 -4.01503 1.27958 0
M  V30 10638 H 991.528 -3.25233 0.298487 0
M  V30 10639 H 990.187 -2.78845 2.37993 0
M  V30 10640 H 989.835 -4.90819 1.10025 0
M  V30 10641 H 989.535 -5.14389 2.84038 0
M  V30 10642 H 991.059 -5.7284 2.11391 0
M  V30 10643 H 992.473 -4.25476 3.84243 0
M  V30 10644 H 990.87 -3.90836 4.55376 0
M  V30 10645 H 991.94 -2.56452 4.11534 0
M  V30 10646 N 993.283 -1.25346 -0.955304 0
M  V30 10647 C 994.56 -1.00829 -1.67609 0
M  V30 10648 C 994.94 0.465675 -2.059 0
M  V30 10649 O 994.288 1.44287 -1.77182 0
M  V30 10650 C 994.498 -1.94337 -2.89886 0
M  V30 10651 C 995.846 -2.22142 -3.61854 0
M  V30 10652 O 996.87 -1.9209 -2.99967 0
M  V30 10653 O 995.729 -2.73239 -4.73289 0
M  V30 10654 H 992.823 -0.382314 -0.733325 0
M  V30 10655 H 995.369 -1.36498 -1.00829 0
M  V30 10656 H 994.141 -2.93867 -2.58376 0
M  V30 10657 H 993.764 -1.59062 -3.64397 0
M  V30 10658 N 994.761 1.15782 -1.06922 0
M  V30 10659 C 995.986 1.90896 -0.810771 0
M  V30 10660 C 996.411 1.77246 0.629714 0
M  V30 10661 O 995.769 1.10215 1.43953 0
M  V30 10662 C 995.817 3.39397 -1.21829 0
M  V30 10663 O 994.921 4.10818 -0.360934 0
M  V30 10664 H 994.262 0.594497 -0.295752 0
M  V30 10665 H 996.792 1.46652 -1.42669 0
M  V30 10666 H 996.802 3.90181 -1.19259 0
M  V30 10667 H 995.477 3.4865 -2.2675 0
M  V30 10668 H 994.054 3.7019 -0.448748 0
M  V30 10669 N 996.239 0.8527 1.3254 0
M  V30 10670 C 997.487 0.454224 1.96929 0
M  V30 10671 C 997.808 -0.993034 1.67821 0
M  V30 10672 O 997.078 -1.69371 0.984393 0
M  V30 10673 H 995.658 0.164977 0.728554 0
M  V30 10674 H 998.32 1.0887 1.61658 0
M  V30 10675 H 997.416 0.597667 3.06324 0
M  V30 10676 N 997.718 -1.45297 0.610449 0
M  V30 10677 C 998.943 -2.07101 0.111414 0
M  V30 10678 C 999.368 -1.45161 -1.19625 0
M  V30 10679 O 998.726 -0.545368 -1.72903 0
M  V30 10680 C 998.774 -3.60598 -0.0117372 0
M  V30 10681 O 997.878 -3.98512 -1.06122 0
M  V30 10682 H 997.219 -0.659709 0.075364 0
M  V30 10683 H 999.749 -1.86504 0.841269 0
M  V30 10684 H 999.759 -4.07464 -0.209028 0
M  V30 10685 H 998.434 -4.05067 0.943076 0
M  V30 10686 H 997.011 -3.63312 -0.840158 0
M  V30 10687 N 999.196 -0.349774 -1.5367 0
M  V30 10688 C 1000.42 0.246038 -2.05432 0
M  V30 10689 C 1000.84 1.43719 -1.22435 0
M  V30 10690 O 1000.2 1.80622 -0.261166 0
M  V30 10691 C 1000.25 0.65501 -3.55516 0
M  V30 10692 O 999.968 -0.488782 -4.35365 0
M  V30 10693 C 1001.47 1.31088 -4.23475 0
M  V30 10694 H 998.689 0.0463952 -0.669394 0
M  V30 10695 H 1001.23 -0.503566 -1.98203 0
M  V30 10696 H 999.388 1.35455 -3.62947 0
M  V30 10697 H 999.802 -0.161528 -5.24251 0
M  V30 10698 H 1001.28 1.54774 -5.29857 0
M  V30 10699 H 1001.75 2.26636 -3.76208 0
M  V30 10700 H 1002.36 0.653211 -4.20254 0
M  V30 10701 N 1000.67 1.57404 -0.0785433 0
M  V30 10702 C 1001.62 2.13104 0.88631 0
M  V30 10703 C 1002.59 1.04527 1.29086 0
M  V30 10704 O 1003.78 1.32226 1.37553 0
M  V30 10705 C 1000.92 2.70252 2.14611 0
M  V30 10706 C 1000.03 3.93007 1.79358 0
M  V30 10707 C 999.164 4.38376 3 0
M  V30 10708 C 998.203 5.53761 2.60796 0
M  V30 10709 N 997.34 5.94058 3.74219 0
M  V30 10710 H 1002.18 2.95243 0.404452 0
M  V30 10711 H 999.717 1.45894 0.187982 0
M  V30 10712 H 1001.67 3.01497 2.88367 0
M  V30 10713 H 1000.3 1.90868 2.60326 0
M  V30 10714 H 999.357 3.68181 0.956384 0
M  V30 10715 H 1000.67 4.76795 1.4652 0
M  V30 10716 H 999.823 4.71317 3.82027 0
M  V30 10717 H 998.562 3.53455 3.36037 0
M  V30 10718 H 997.567 5.20464 1.77192 0
M  V30 10719 H 998.792 6.40419 2.25922 0
M  V30 10720 H 996.738 5.12085 4.10005 0
M  V30 10721 H 996.655 6.72602 3.45171 0
M  V30 10722 H 997.923 6.31624 4.56805 0
M  V30 10723 N 1002.15 -0.195058 1.56388 0
M  V30 10724 C 1003.06 -1.26219 1.97752 0
M  V30 10725 C 1004.08 -1.49801 0.885192 0
M  V30 10726 O 1005.25 -1.62415 1.19094 0
M  V30 10727 C 1002.32 -2.5865 2.3087 0
M  V30 10728 C 1001.38 -2.4314 3.5381 0
M  V30 10729 C 1000.61 -3.69255 3.85339 0
M  V30 10730 O 1000.84 -4.73425 3.18159 0
M  V30 10731 O 999.77 -3.64782 4.78767 0
M  V30 10732 H 1003.6 -0.941161 2.88749 0
M  V30 10733 H 1001.18 -0.40006 1.43944 0
M  V30 10734 H 1003.06 -3.36814 2.53247 0
M  V30 10735 H 1001.74 -2.9038 1.43042 0
M  V30 10736 H 1000.64 -1.63086 3.3668 0
M  V30 10737 H 1001.98 -2.16341 4.42105 0
M  V30 10738 N 1003.63 -1.50653 -0.462772 0
M  V30 10739 C 1004.88 -1.62057 -1.21424 0
M  V30 10740 C 1005.2 -0.324778 -1.91769 0
M  V30 10741 O 1004.46 0.689828 -1.83139 0
M  V30 10742 C 1004.76 -2.75637 -2.27507 0
M  V30 10743 C 1004.42 -4.15826 -1.74354 0
M  V30 10744 C 1003.09 -4.53969 -1.5958 0
M  V30 10745 C 1005.44 -5.03409 -1.35012 0
M  V30 10746 C 1002.77 -5.77427 -1.03899 0
M  V30 10747 C 1005.12 -6.27422 -0.807704 0
M  V30 10748 C 1003.78 -6.6436 -0.646657 0
M  V30 10749 H 1003.05 -0.59301 -0.44432 0
M  V30 10750 H 1005.7 -1.84612 -0.508999 0
M  V30 10751 H 1004 -2.47203 -3.0397 0
M  V30 10752 H 1005.7 -2.81663 -2.85424 0
M  V30 10753 H 1002.29 -3.85739 -1.86823 0
M  V30 10754 H 1006.48 -4.74567 -1.45258 0
M  V30 10755 H 1001.73 -6.04713 -0.901751 0
M  V30 10756 H 1005.91 -6.94644 -0.494234 0
M  V30 10757 H 1003.53 -7.59901 -0.213053 0
M  V30 10758 N 1005.11 0.71652 -1.4037 0
M  V30 10759 C 1006.36 1.47638 -1.38597 0
M  V30 10760 C 1006.68 1.94496 0.0120141 0
M  V30 10761 O 1005.94 1.68437 0.996373 0
M  V30 10762 C 1006.24 2.71777 -2.32103 0
M  V30 10763 C 1005.9 2.43689 -3.79376 0
M  V30 10764 C 1004.57 2.35739 -4.195 0
M  V30 10765 C 1006.92 2.20099 -4.72447 0
M  V30 10766 C 1004.25 2.02265 -5.50732 0
M  V30 10767 C 1006.6 1.88138 -6.03976 0
M  V30 10768 C 1005.26 1.78669 -6.43143 0
M  V30 10769 H 1004.53 0.540246 -0.507163 0
M  V30 10770 H 1007.18 0.820822 -1.73017 0
M  V30 10771 H 1005.48 3.42166 -1.90865 0
M  V30 10772 H 1007.18 3.29864 -2.28015 0
M  V30 10773 H 1003.77 2.50763 -3.47585 0
M  V30 10774 H 1007.95 2.25198 -4.42266 0
M  V30 10775 H 1003.21 1.93471 -5.79982 0
M  V30 10776 H 1007.38 1.68898 -6.75608 0
M  V30 10777 H 1005.01 1.52498 -7.44747 0
M  V30 10778 N 1006.59 1.25851 0.948643 0
M  V30 10779 C 1008 1.02802 1.22081 0
M  V30 10780 C 1008.2 -0.251461 1.99925 0
M  V30 10781 O 1007.26 -0.962592 2.33432 0
M  V30 10782 C 1008.57 2.25489 1.98936 0
M  V30 10783 C 1010.12 2.30312 2.11956 0
M  V30 10784 C 1010.59 3.52671 2.92211 0
M  V30 10785 N 1012.09 3.53103 2.99787 0
M  V30 10786 C 1012.82 4.44445 3.62294 0
M  V30 10787 N 1012.32 5.46065 4.26362 0
M  V30 10788 N 1014.11 4.32113 3.59493 0
M  V30 10789 H 1006.26 2.08042 0.428044 0
M  V30 10790 H 1008.52 0.913928 0.251872 0
M  V30 10791 H 1008.23 3.18513 1.4914 0
M  V30 10792 H 1008.1 2.2914 2.99624 0
M  V30 10793 H 1010.49 1.37808 2.60946 0
M  V30 10794 H 1010.57 2.30676 1.10554 0
M  V30 10795 H 1010.22 4.45501 2.43909 0
M  V30 10796 H 1010.15 3.49554 3.93853 0
M  V30 10797 H 1012.64 2.79597 2.54232 0
M  V30 10798 H 1012.95 6.11964 4.71932 0
M  V30 10799 H 1011.29 5.49931 4.24972 0
M  V30 10800 H 1014.49 3.51946 3.08629 0
M  V30 10801 H 1014.66 5.03493 4.0792 0
M  V30 10802 N 1008.06 -1.15214 1.07534 0
M  V30 10803 C 1009.48 -1.38031 0.801228 0
M  V30 10804 C 1009.68 -1.92556 -0.593672 0
M  V30 10805 O 1008.74 -2.1325 -1.35206 0
M  V30 10806 C 1010.05 -2.34958 1.87657 0
M  V30 10807 C 1011.6 -2.48617 1.90154 0
M  V30 10808 C 1012.07 -3.48837 2.96777 0
M  V30 10809 N 1013.56 -3.56374 2.95892 0
M  V30 10810 C 1014.3 -4.33746 3.75036 0
M  V30 10811 N 1013.79 -5.14435 4.64036 0
M  V30 10812 N 1015.59 -4.28853 3.63375 0
M  V30 10813 H 1007.74 -0.781639 1.97495 0
M  V30 10814 H 1010 -0.406243 0.856546 0
M  V30 10815 H 1009.71 -2.02013 2.87895 0
M  V30 10816 H 1009.58 -3.3476 1.73827 0
M  V30 10817 H 1011.97 -2.80859 0.905666 0
M  V30 10818 H 1012.05 -1.48808 2.08062 0
M  V30 10819 H 1011.69 -3.1733 3.96565 0
M  V30 10820 H 1011.62 -4.48406 2.76116 0
M  V30 10821 H 1014.11 -2.98784 2.31379 0
M  V30 10822 H 1014.43 -5.70722 5.21053 0
M  V30 10823 H 1012.77 -5.13734 4.68084 0
M  V30 10824 H 1015.96 -3.64882 2.93221 0
M  V30 10825 H 1016.14 -4.88903 4.25298 0
M  V30 10826 N 1009.54 -0.859717 -1.32086 0
M  V30 10827 C 1010.77 -0.478865 -2.01796 0
M  V30 10828 C 1011.19 0.918274 -1.64163 0
M  V30 10829 O 1010.55 1.60409 -0.844896 0
M  V30 10830 C 1010.6 -0.631356 -3.5503 0
M  V30 10831 O 1009.7 0.333712 -4.11048 0
M  V30 10832 H 1009.04 -0.191775 -0.635703 0
M  V30 10833 H 1011.57 -1.16031 -1.68517 0
M  V30 10834 H 1011.58 -0.520783 -4.04663 0
M  V30 10835 H 1010.26 -1.65015 -3.81763 0
M  V30 10836 H 1008.84 0.178953 -3.7247 0
M  V30 10837 N 1011.02 1.44971 -0.618145 0
M  V30 10838 C 1011.97 2.30606 0.09449 0
M  V30 10839 C 1012.94 1.42725 0.849633 0
M  V30 10840 O 1014.12 1.71643 0.833266 0
M  V30 10841 C 1011.26 3.27803 1.07886 0
M  V30 10842 C 1010.38 4.30787 0.323488 0
M  V30 10843 C 1009.51 5.15085 1.29851 0
M  V30 10844 C 1008.55 6.09788 0.531561 0
M  V30 10845 N 1007.69 6.86829 1.4564 0
M  V30 10846 H 1012.53 2.91008 -0.641738 0
M  V30 10847 H 1010.06 1.43391 -0.328259 0
M  V30 10848 H 1012.02 3.82631 1.66281 0
M  V30 10849 H 1010.65 2.69131 1.78237 0
M  V30 10850 H 1009.7 3.78536 -0.376164 0
M  V30 10851 H 1011.02 4.98044 -0.274443 0
M  V30 10852 H 1010.17 5.74365 1.95421 0
M  V30 10853 H 1008.91 4.4787 1.93037 0
M  V30 10854 H 1007.91 5.49628 -0.137702 0
M  V30 10855 H 1009.14 6.79033 -0.0953993 0
M  V30 10856 H 1007.08 6.22295 2.07571 0
M  V30 10857 H 1007 7.50477 0.912167 0
M  V30 10858 H 1008.27 7.50642 2.10134 0
M  V30 10859 N 1012.5 0.357919 1.53482 0
M  V30 10860 C 1013.75 -0.235241 2.00324 0
M  V30 10861 C 1014.06 -1.50494 1.24944 0
M  V30 10862 O 1015.27 -2.17623 1.62335 0
M  V30 10863 C 1013.72 -0.469748 3.56821 0
M  V30 10864 C 1013.33 0.784877 4.41071 0
M  V30 10865 C 1015.07 -1.02098 4.12039 0
M  V30 10866 C 1012.98 0.520377 5.89106 0
M  V30 10867 H 1011.91 -0.0916816 0.748405 0
M  V30 10868 H 1014.56 0.475474 1.77233 0
M  V30 10869 H 1012.94 -1.24153 3.76035 0
M  V30 10870 H 1014.12 1.55886 4.33631 0
M  V30 10871 H 1012.43 1.25878 3.96918 0
M  V30 10872 H 1015.03 -1.23406 5.20264 0
M  V30 10873 H 1015.37 -1.98084 3.66154 0
M  V30 10874 H 1015.91 -0.309554 3.96594 0
M  V30 10875 H 1012.65 1.45035 6.39254 0
M  V30 10876 H 1012.17 -0.215254 5.99414 0
M  V30 10877 H 1013.84 0.143006 6.46842 0
M  V30 10878 N 1013.98 -1.5736 0.0868897 0
M  V30 10879 C 1014.94 -2.12436 -0.860439 0
M  V30 10880 C 1015.94 -1.05175 -1.21634 0
M  V30 10881 O 1017.13 -1.31098 -1.14713 0
M  V30 10882 C 1014.26 -2.63818 -2.159 0
M  V30 10883 H 1015.45 -2.97453 -0.382346 0
M  V30 10884 H 1013.01 -1.55458 -0.162009 0
M  V30 10885 H 1013.74 -1.82298 -2.68212 0
M  V30 10886 H 1013.53 -3.42234 -1.91359 0
M  V30 10887 H 1015.02 -3.06452 -2.83685 0
M  V30 10888 N 1015.45 0.186762 -1.56489 0
M  V30 10889 C 1016.7 0.907194 -1.81378 0
M  V30 10890 C 1017.03 1.82558 -0.662283 0
M  V30 10891 O 1016.31 1.91564 0.336699 0
M  V30 10892 C 1016.59 1.71624 -3.16571 0
M  V30 10893 C 1016.44 0.822009 -4.42225 0
M  V30 10894 C 1017.76 2.68713 -3.48542 0
M  V30 10895 H 1014.88 0.328366 -0.659806 0
M  V30 10896 H 1017.52 0.174142 -1.892 0
M  V30 10897 H 1015.67 2.34119 -3.10033 0
M  V30 10898 H 1017.35 0.211122 -4.60817 0
M  V30 10899 H 1015.59 0.129178 -4.33608 0
M  V30 10900 H 1016.26 1.42326 -5.33336 0
M  V30 10901 H 1018.74 2.16348 -3.55433 0
M  V30 10902 H 1017.61 3.22397 -4.44242 0
M  V30 10903 H 1017.87 3.48165 -2.72459 0
M  V30 10904 N 1016.93 1.50896 0.454776 0
M  V30 10905 C 1018.16 1.66239 1.22671 0
M  V30 10906 C 1018.57 0.351876 1.85899 0
M  V30 10907 O 1017.91 -0.677848 1.70736 0
M  V30 10908 C 1017.98 2.70812 2.36434 0
M  V30 10909 C 1017.64 4.13913 1.93714 0
M  V30 10910 C 1018.64 4.99259 1.45039 0
M  V30 10911 C 1016.32 4.59921 2.01937 0
M  V30 10912 C 1018.32 6.28667 1.05151 0
M  V30 10913 C 1016 5.89329 1.6166 0
M  V30 10914 C 1017 6.73529 1.13347 0
M  V30 10915 O 1016.69 8.0052 0.736354 0
M  V30 10916 H 1016.42 0.561443 0.376508 0
M  V30 10917 H 1018.97 1.97974 0.547325 0
M  V30 10918 H 1017.2 2.34355 3.07595 0
M  V30 10919 H 1018.89 2.7521 2.98353 0
M  V30 10920 H 1019.66 4.64925 1.38095 0
M  V30 10921 H 1015.54 3.94518 2.38488 0
M  V30 10922 H 1019.08 6.94339 0.673711 0
M  V30 10923 H 1014.98 6.23182 1.68269 0
M  V30 10924 H 1015.75 8.1393 0.863759 0
M  V30 10925 N 1018.41 -0.709066 1.40748 0
M  V30 10926 C 1019.32 -1.85314 1.43861 0
M  V30 10927 C 1020.34 -1.70832 0.330539 0
M  V30 10928 O 1021.51 -1.92983 0.576152 0
M  V30 10929 C 1018.58 -3.21174 1.30568 0
M  V30 10930 C 1017.64 -3.47863 2.51574 0
M  V30 10931 C 1016.87 -4.77241 2.38906 0
M  V30 10932 O 1017.09 -5.52791 1.40636 0
M  V30 10933 O 1016.03 -5.04413 3.28407 0
M  V30 10934 H 1019.85 -1.85644 2.40354 0
M  V30 10935 H 1017.44 -0.860352 1.2214 0
M  V30 10936 H 1019.32 -4.02313 1.25388 0
M  V30 10937 H 1018 -3.21557 0.371841 0
M  V30 10938 H 1016.9 -2.66708 2.62331 0
M  V30 10939 H 1018.24 -3.52283 3.43741 0
M  V30 10940 N 1019.89 -1.26353 -0.941956 0
M  V30 10941 C 1020.84 -1.07842 -2.04056 0
M  V30 10942 C 1021.81 0.0163064 -1.66092 0
M  V30 10943 O 1022.99 -0.143313 -1.90261 0
M  V30 10944 C 1020.13 -0.716636 -3.37577 0
M  V30 10945 C 1019.24 -1.88754 -3.88582 0
M  V30 10946 C 1018.38 -1.46893 -5.10486 0
M  V30 10947 C 1017.42 -2.60819 -5.53751 0
M  V30 10948 N 1016.56 -2.19646 -6.66858 0
M  V30 10949 H 1021.4 -2.01856 -2.19221 0
M  V30 10950 H 1018.93 -1.00504 -1.07412 0
M  V30 10951 H 1020.89 -0.487768 -4.14339 0
M  V30 10952 H 1019.52 0.18653 -3.22261 0
M  V30 10953 H 1018.57 -2.22936 -3.08227 0
M  V30 10954 H 1019.88 -2.74264 -4.1663 0
M  V30 10955 H 1019.04 -1.20047 -5.94705 0
M  V30 10956 H 1017.78 -0.584721 -4.84182 0
M  V30 10957 H 1016.78 -2.88396 -4.6809 0
M  V30 10958 H 1018.01 -3.49838 -5.82057 0
M  V30 10959 H 1015.95 -1.33657 -6.4224 0
M  V30 10960 H 1015.87 -2.987 -6.94489 0
M  V30 10961 H 1017.14 -1.96009 -7.54454 0
M  V30 10962 N 1021.37 1.14642 -1.08144 0
M  V30 10963 C 1022.3 2.18656 -0.653066 0
M  V30 10964 C 1023.28 1.59137 0.333803 0
M  V30 10965 O 1024.46 1.86988 0.238305 0
M  V30 10966 C 1021.59 3.38677 0.0398337 0
M  V30 10967 C 1020.64 4.1675 -0.906755 0
M  V30 10968 S 1021.47 4.78103 -2.41201 0
M  V30 10969 C 1022.62 6.01483 -1.73115 0
M  V30 10970 H 1022.86 2.54654 -1.53423 0
M  V30 10971 H 1020.39 1.25731 -0.896162 0
M  V30 10972 H 1022.35 4.08206 0.43334 0
M  V30 10973 H 1021.01 3.01006 0.897457 0
M  V30 10974 H 1020.2 5.02649 -0.368795 0
M  V30 10975 H 1019.8 3.52809 -1.24103 0
M  V30 10976 H 1022.1 6.69353 -1.04752 0
M  V30 10977 H 1023.04 6.59863 -2.56878 0
M  V30 10978 H 1023.45 5.51474 -1.20566 0
M  V30 10979 N 1022.85 0.866709 1.31628 0
M  V30 10980 C 1024.09 0.486046 1.97507 0
M  V30 10981 C 1024.45 -0.95049 1.67283 0
M  V30 10982 O 1023.74 -1.65979 0.957158 0
M  V30 10983 C 1023.93 0.676018 3.50948 0
M  V30 10984 C 1023.76 2.12947 3.96086 0
M  V30 10985 C 1022.53 2.77041 4.22583 0
M  V30 10986 C 1024.73 3.10139 4.10266 0
M  V30 10987 N 1022.71 4.13172 4.54051 0
M  V30 10988 C 1024.08 4.3129 4.45409 0
M  V30 10989 C 1026.14 3.06173 3.92635 0
M  V30 10990 C 1024.84 5.4899 4.6476 0
M  V30 10991 C 1026.87 4.23128 4.13178 0
M  V30 10992 C 1026.23 5.43041 4.48649 0
M  V30 10993 H 1022.33 0.226831 0.748379 0
M  V30 10994 H 1024.91 1.12063 1.59217 0
M  V30 10995 H 1023.08 0.071055 3.88335 0
M  V30 10996 H 1024.82 0.264062 4.03838 0
M  V30 10997 H 1021.57 2.28009 4.15101 0
M  V30 10998 H 1021.99 4.83426 4.7395 0
M  V30 10999 H 1026.64 2.14576 3.64303 0
M  V30 11000 H 1024.35 6.41108 4.91942 0
M  V30 11001 H 1027.94 4.21509 4.01026 0
M  V30 11002 H 1026.82 6.32034 4.64223 0
M  V30 11003 N 1024.32 -1.44642 0.625825 0
M  V30 11004 C 1025.55 -2.06458 0.135116 0
M  V30 11005 C 1025.97 -1.46729 -1.18811 0
M  V30 11006 O 1025.32 -0.58818 -1.72762 0
M  V30 11007 C 1025.37 -3.61499 0.00850114 0
M  V30 11008 O 1025.1 -4.19002 1.2794 0
M  V30 11009 C 1026.6 -4.40339 -0.511527 0
M  V30 11010 H 1023.82 -0.666541 0.0772294 0
M  V30 11011 H 1026.36 -1.85597 0.858726 0
M  V30 11012 H 1024.52 -3.81641 -0.665522 0
M  V30 11013 H 1024.93 -5.12385 1.12081 0
M  V30 11014 H 1026.4 -5.49262 -0.549149 0
M  V30 11015 H 1026.88 -4.11409 -1.53752 0
M  V30 11016 H 1027.49 -4.25104 0.129066 0
M  V30 11017 N 1025.8 -0.366053 -1.5329 0
M  V30 11018 C 1027.03 0.22391 -2.05383 0
M  V30 11019 C 1027.44 1.42962 -1.23929 0
M  V30 11020 O 1026.78 1.81659 -0.273072 0
M  V30 11021 C 1026.84 0.681038 -3.5299 0
M  V30 11022 C 1026.51 -0.40805 -4.55175 0
M  V30 11023 C 1027.51 -1.25806 -5.04449 0
M  V30 11024 C 1025.19 -0.568428 -4.99073 0
M  V30 11025 C 1027.18 -2.25379 -5.96224 0
M  V30 11026 C 1024.87 -1.56752 -5.90654 0
M  V30 11027 C 1025.87 -2.40864 -6.39119 0
M  V30 11028 O 1025.56 -3.39069 -7.28895 0
M  V30 11029 H 1025.29 0.0429593 -0.674634 0
M  V30 11030 H 1027.84 -0.522897 -1.98633 0
M  V30 11031 H 1026.07 1.47945 -3.5728 0
M  V30 11032 H 1027.76 1.19406 -3.8794 0
M  V30 11033 H 1028.53 -1.14536 -4.71282 0
M  V30 11034 H 1024.41 0.0764858 -4.60937 0
M  V30 11035 H 1027.95 -2.91068 -6.33976 0
M  V30 11036 H 1023.85 -1.6807 -6.23236 0
M  V30 11037 H 1024.62 -3.34804 -7.46893 0
M  V30 11038 N 1027.28 1.57312 -0.0952337 0
M  V30 11039 C 1028.21 2.09691 0.900274 0
M  V30 11040 C 1029.19 1.0075 1.27625 0
M  V30 11041 O 1030.37 1.28249 1.38147 0
M  V30 11042 C 1027.5 2.574 2.20142 0
M  V30 11043 C 1026.55 3.78 1.9753 0
M  V30 11044 S 1027.38 5.21577 1.21318 0
M  V30 11045 C 1028.54 5.72636 2.52663 0
M  V30 11046 H 1028.77 2.93803 0.45467 0
M  V30 11047 H 1026.3 1.53948 0.118056 0
M  V30 11048 H 1028.26 2.85546 2.94914 0
M  V30 11049 H 1026.92 1.73514 2.61824 0
M  V30 11050 H 1026.11 4.09451 2.93881 0
M  V30 11051 H 1025.72 3.50349 1.30888 0
M  V30 11052 H 1028.01 5.80911 3.48638 0
M  V30 11053 H 1028.95 6.71136 2.25791 0
M  V30 11054 H 1029.36 5.00569 2.60943 0
M  V30 11055 N 1028.76 -0.17846 1.56586 0
M  V30 11056 C 1030.17 -0.529957 1.50544 0
M  V30 11057 C 1030.37 -1.85015 0.798237 0
M  V30 11058 O 1029.43 -2.49983 0.355639 0
M  V30 11059 C 1030.74 -0.569314 2.95261 0
M  V30 11060 C 1032.29 -0.657008 3.06027 0
M  V30 11061 C 1032.77 -0.727323 4.52188 0
M  V30 11062 N 1034.26 -0.790406 4.56406 0
M  V30 11063 C 1034.99 -0.865265 5.66834 0
M  V30 11064 N 1034.49 -0.901398 6.86911 0
M  V30 11065 N 1036.28 -0.903736 5.54787 0
M  V30 11066 H 1028.43 0.687304 2.00972 0
M  V30 11067 H 1030.69 0.246936 0.915274 0
M  V30 11068 H 1030.4 0.331934 3.5013 0
M  V30 11069 H 1030.27 -1.41828 3.4952 0
M  V30 11070 H 1032.66 -1.54868 2.51197 0
M  V30 11071 H 1032.74 0.218495 2.54865 0
M  V30 11072 H 1032.39 0.160067 5.07648 0
M  V30 11073 H 1032.32 -1.61887 5.01099 0
M  V30 11074 H 1034.81 -0.771054 3.6995 0
M  V30 11075 H 1035.12 -0.959494 7.6682 0
M  V30 11076 H 1033.47 -0.869795 6.89536 0
M  V30 11077 H 1036.66 -0.872459 4.59898 0
M  V30 11078 H 1036.83 -0.958615 6.4087 0
M  V30 11079 N 1030.24 -1.51135 -0.446768 0
M  V30 11080 C 1031.46 -1.67411 -1.22427 0
M  V30 11081 C 1031.89 -0.367009 -1.84485 0
M  V30 11082 O 1031.24 0.67185 -1.68392 0
M  V30 11083 C 1031.29 -2.78473 -2.29096 0
M  V30 11084 O 1030.4 -2.41419 -3.34351 0
M  V30 11085 H 1029.74 -0.558512 -0.359111 0
M  V30 11086 H 1032.27 -1.97648 -0.5288 0
M  V30 11087 H 1032.28 -3.02277 -2.7403 0
M  V30 11088 H 1030.95 -3.73326 -1.83304 0
M  V30 11089 H 1029.53 -2.28152 -2.9496 0
M  V30 11090 N 1031.71 0.701592 -1.41122 0
M  V30 11091 C 1032.68 1.79733 -1.42227 0
M  V30 11092 C 1033.68 1.57708 -0.313831 0
M  V30 11093 O 1034.87 1.64492 -0.573423 0
M  V30 11094 C 1032 3.18024 -1.22775 0
M  V30 11095 H 1033.19 1.80148 -2.39764 0
M  V30 11096 H 1030.74 0.908624 -1.27176 0
M  V30 11097 H 1031.48 3.23252 -0.260552 0
M  V30 11098 H 1031.26 3.35411 -2.0308 0
M  V30 11099 H 1032.75 3.98021 -1.2637 0
M  V30 11100 N 1033.19 1.2685 0.935242 0
M  V30 11101 C 1034.1 1.10716 2.06831 0
M  V30 11102 C 1035.12 0.0391222 1.73956 0
M  V30 11103 O 1036.29 0.244071 1.99916 0
M  V30 11104 C 1033.36 0.748093 3.38533 0
M  V30 11105 C 1032.42 1.89619 3.85153 0
M  V30 11106 C 1031.65 1.55416 5.1057 0
M  V30 11107 O 1031.88 0.458596 5.68553 0
M  V30 11108 O 1030.81 2.39087 5.52378 0
M  V30 11109 H 1034.64 2.05785 2.23352 0
M  V30 11110 H 1032.22 1.05967 1.05315 0
M  V30 11111 H 1034.1 0.560841 4.17651 0
M  V30 11112 H 1032.78 -0.173142 3.23237 0
M  V30 11113 H 1031.68 2.13845 3.06954 0
M  V30 11114 H 1033.02 2.79737 4.04979 0
M  V30 11115 N 1034.67 -1.14067 1.0875 0
M  V30 11116 C 1036.08 -1.66747 0.839778 0
M  V30 11117 C 1036.43 -1.85711 -0.632909 0
M  V30 11118 O 1035.56 -1.57084 -1.48841 0
M  V30 11119 C 1036.15 -3.02896 1.51787 0
M  V30 11120 C 1034.71 -3.52596 1.3173 0
M  V30 11121 C 1033.86 -2.27994 1.57841 0
M  V30 11122 H 1036.81 -0.980838 1.24761 0
M  V30 11123 H 1036.83 -3.68526 0.947057 0
M  V30 11124 H 1036.34 -2.89062 2.58969 0
M  V30 11125 H 1034.44 -3.71647 0.266339 0
M  V30 11126 H 1034.56 -4.33151 2.04736 0
M  V30 11127 H 1032.92 -2.34241 1.00015 0
M  V30 11128 H 1033.7 -2.16732 2.66237 0
M  V30 11129 N 1036.15 -0.873678 -1.31166 0
M  V30 11130 C 1037.37 -0.500242 -2.01277 0
M  V30 11131 C 1037.8 0.900811 -1.65127 0
M  V30 11132 O 1037.16 1.59504 -0.861862 0
M  V30 11133 C 1037.2 -0.668976 -3.5434 0
M  V30 11134 O 1036.31 0.290096 -4.11378 0
M  V30 11135 H 1035.65 -0.198507 -0.633633 0
M  V30 11136 H 1038.18 -1.17811 -1.67277 0
M  V30 11137 H 1038.19 -0.563673 -4.04088 0
M  V30 11138 H 1036.86 -1.69055 -3.79991 0
M  V30 11139 H 1035.44 0.139437 -3.72639 0
M  V30 11140 N 1037.63 1.44308 -0.633487 0
M  V30 11141 C 1038.87 2.02322 -0.139123 0
M  V30 11142 C 1039.21 1.49733 1.23667 0
M  V30 11143 O 1038.48 0.682353 1.82138 0
M  V30 11144 C 1038.76 3.59871 -0.128366 0
M  V30 11145 C 1038.62 4.22737 -1.53667 0
M  V30 11146 C 1039.94 4.36702 0.545834 0
M  V30 11147 H 1037.05 0.735161 -0.0520293 0
M  V30 11148 H 1039.7 1.7185 -0.810411 0
M  V30 11149 H 1037.85 3.85963 0.443263 0
M  V30 11150 H 1039.52 4.07744 -2.15737 0
M  V30 11151 H 1037.76 3.80142 -2.08985 0
M  V30 11152 H 1038.43 5.31757 -1.48116 0
M  V30 11153 H 1040.91 4.16057 0.0596879 0
M  V30 11154 H 1039.78 5.46407 0.522557 0
M  V30 11155 H 1040.05 4.11483 1.6166 0
M  V30 11156 N 1039.1 0.374177 1.53094 0
M  V30 11157 C 1040.35 -0.212816 2.01379 0
M  V30 11158 C 1040.68 -1.48069 1.26118 0
M  V30 11159 O 1039.93 -1.92625 0.345561 0
M  V30 11160 C 1040.23 -0.542179 3.53264 0
M  V30 11161 C 1039.9 0.632375 4.46444 0
M  V30 11162 C 1038.56 0.954635 4.71636 0
M  V30 11163 C 1040.91 1.41887 5.01515 0
M  V30 11164 C 1038.24 2.06521 5.4915 0
M  V30 11165 C 1040.59 2.51993 5.80243 0
M  V30 11166 C 1039.26 2.84744 6.03719 0
M  V30 11167 H 1038.53 -0.0778749 0.736897 0
M  V30 11168 H 1041.17 0.508412 1.84628 0
M  V30 11169 H 1039.48 -1.34454 3.68007 0
M  V30 11170 H 1041.18 -1.00874 3.88105 0
M  V30 11171 H 1037.77 0.371179 4.2699 0
M  V30 11172 H 1041.95 1.18315 4.81991 0
M  V30 11173 H 1037.21 2.32284 5.65557 0
M  V30 11174 H 1041.38 3.13346 6.21922 0
M  V30 11175 H 1039.01 3.70921 6.63568 0
M  V30 11176 N 1040.58 -1.57259 0.103575 0
M  V30 11177 C 1041.81 -1.99 -0.566275 0
M  V30 11178 C 1042.23 -0.982909 -1.61197 0
M  V30 11179 O 1041.58 0.026345 -1.82481 0
M  V30 11180 C 1041.63 -3.40778 -1.20635 0
M  V30 11181 O 1041.35 -4.37632 -0.202472 0
M  V30 11182 C 1042.86 -3.97567 -1.961 0
M  V30 11183 H 1040.08 -0.653751 -0.151164 0
M  V30 11184 H 1042.62 -2.03658 0.185365 0
M  V30 11185 H 1040.77 -3.37107 -1.90886 0
M  V30 11186 H 1041.19 -5.2026 -0.665535 0
M  V30 11187 H 1042.66 -4.98897 -2.36233 0
M  V30 11188 H 1043.14 -3.35853 -2.83018 0
M  V30 11189 H 1043.75 -4.04737 -1.30645 0
M  V30 11190 N 1042.06 0.170153 -1.56679 0
M  V30 11191 C 1043.48 0.521966 -1.50823 0
M  V30 11192 C 1043.68 1.84589 -0.808037 0
M  V30 11193 O 1042.73 2.49791 -0.368891 0
M  V30 11194 C 1044.05 0.553648 -2.95559 0
M  V30 11195 C 1045.59 0.640769 -3.06371 0
M  V30 11196 C 1046.07 0.703332 -4.52567 0
M  V30 11197 N 1047.56 0.76619 -4.56819 0
M  V30 11198 C 1048.29 0.835192 -5.67285 0
M  V30 11199 N 1047.79 0.864957 -6.87379 0
M  V30 11200 N 1049.58 0.874302 -5.55259 0
M  V30 11201 H 1041.73 -0.697952 -2.00605 0
M  V30 11202 H 1044 -0.251787 -0.913952 0
M  V30 11203 H 1043.7 -0.350498 -3.49949 0
M  V30 11204 H 1043.58 1.39973 -3.50268 0
M  V30 11205 H 1045.96 1.53534 -2.52015 0
M  V30 11206 H 1046.05 -0.232008 -2.54746 0
M  V30 11207 H 1045.69 -0.186986 -5.07556 0
M  V30 11208 H 1045.62 1.59227 -5.0195 0
M  V30 11209 H 1048.11 0.751424 -3.70354 0
M  V30 11210 H 1048.42 0.918814 -7.67318 0
M  V30 11211 H 1046.77 0.833215 -6.89987 0
M  V30 11212 H 1049.96 0.848057 -4.60354 0
M  V30 11213 H 1050.13 0.924615 -6.4137 0
M  V30 11214 N 1043.54 1.5137 0.438746 0
M  V30 11215 C 1044.77 1.67774 1.21077 0
M  V30 11216 C 1045.18 0.374489 1.85049 0
M  V30 11217 O 1044.54 -0.646867 1.70651 0
M  V30 11218 C 1044.59 2.79238 2.29584 0
M  V30 11219 O 1044.31 4.04513 1.68228 0
M  V30 11220 C 1045.81 3.06898 3.19888 0
M  V30 11221 H 1043.03 0.563054 0.364981 0
M  V30 11222 H 1045.58 1.97777 0.520035 0
M  V30 11223 H 1043.73 2.51837 2.94375 0
M  V30 11224 H 1044.14 4.66405 2.3993 0
M  V30 11225 H 1045.62 3.88476 3.92162 0
M  V30 11226 H 1046.1 2.19249 3.80561 0
M  V30 11227 H 1046.7 3.35952 2.60799 0
M  V30 11228 N 1045.02 -0.694098 1.41492 0
M  V30 11229 C 1046.24 -1.48286 1.44288 0
M  V30 11230 C 1046.66 -1.88737 0.0485783 0
M  V30 11231 O 1046.02 -1.56881 -0.932449 0
M  V30 11232 C 1046.07 -2.74446 2.3529 0
M  V30 11233 O 1045.79 -2.35698 3.69294 0
M  V30 11234 C 1047.29 -3.68175 2.46905 0
M  V30 11235 H 1044.51 -0.45692 0.491391 0
M  V30 11236 H 1047.05 -0.854477 1.85793 0
M  V30 11237 H 1045.21 -3.33518 1.9709 0
M  V30 11238 H 1045.62 -3.17029 4.17843 0
M  V30 11239 H 1047.1 -4.53476 3.14743 0
M  V30 11240 H 1047.57 -4.12763 1.50078 0
M  V30 11241 H 1048.18 -3.15006 2.85747 0
M  V30 11242 N 1046.49 -1.27344 -0.928501 0
M  V30 11243 C 1047.46 -1.10043 -2.01055 0
M  V30 11244 C 1048.46 -0.0446793 -1.60738 0
M  V30 11245 O 1049.65 -0.289202 -1.71783 0
M  V30 11246 C 1046.78 -0.676559 -3.34119 0
M  V30 11247 H 1047.97 -2.06126 -2.17835 0
M  V30 11248 H 1045.53 -1.10121 -1.10919 0
M  V30 11249 H 1046.26 0.285697 -3.23039 0
M  V30 11250 H 1046.05 -1.43903 -3.64739 0
M  V30 11251 H 1047.54 -0.577725 -4.13584 0
M  V30 11252 N 1047.97 1.13488 -1.09353 0
M  V30 11253 C 1048.88 2.2248 -0.744307 0
M  V30 11254 C 1049.9 1.72145 0.253404 0
M  V30 11255 O 1051.07 2.01176 0.0949339 0
M  V30 11256 C 1048.14 3.46286 -0.16928 0
M  V30 11257 C 1047.2 4.11516 -1.22284 0
M  V30 11258 C 1046.43 5.29412 -0.675161 0
M  V30 11259 O 1046.66 5.68185 0.502182 0
M  V30 11260 O 1045.59 5.8467 -1.42983 0
M  V30 11261 H 1049.42 2.54723 -1.65378 0
M  V30 11262 H 1047 1.21607 -0.867879 0
M  V30 11263 H 1048.88 4.2114 0.14811 0
M  V30 11264 H 1047.56 3.15745 0.713214 0
M  V30 11265 H 1046.47 3.38492 -1.59292 0
M  V30 11266 H 1047.8 4.46186 -2.07796 0
M  V30 11267 N 1049.45 0.880621 1.30701 0
M  V30 11268 C 1050.7 0.495894 1.95922 0
M  V30 11269 C 1051.02 -0.957214 1.69889 0
M  V30 11270 O 1050.29 -1.67245 1.0201 0
M  V30 11271 H 1048.87 0.180394 0.724891 0
M  V30 11272 H 1051.53 1.12274 1.59313 0
M  V30 11273 H 1050.63 0.662508 3.04987 0
M  V30 11274 N 1050.93 -1.4397 0.641131 0
M  V30 11275 C 1052.18 -2.02246 0.14985 0
M  V30 11276 C 1052.51 -1.50387 -1.22871 0
M  V30 11277 O 1051.78 -0.692003 -1.81773 0
M  V30 11278 C 1052.07 -3.59798 0.147449 0
M  V30 11279 C 1051.92 -4.21916 1.55907 0
M  V30 11280 C 1053.24 -4.36985 -0.522667 0
M  V30 11281 H 1050.36 -0.734875 0.0559274 0
M  V30 11282 H 1053 -1.71418 0.819513 0
M  V30 11283 H 1051.15 -3.86193 -0.422789 0
M  V30 11284 H 1052.82 -4.06594 2.17896 0
M  V30 11285 H 1051.06 -3.79028 2.10998 0
M  V30 11286 H 1051.74 -5.30964 1.50934 0
M  V30 11287 H 1054.21 -4.16083 -0.0376226 0
M  V30 11288 H 1053.09 -5.46676 -0.493572 0
M  V30 11289 H 1053.35 -4.12335 -1.59475 0
M  V30 11290 N 1052.41 -0.382291 -1.52893 0
M  V30 11291 C 1053.37 0.44408 -2.24857 0
M  V30 11292 C 1054.37 0.996004 -1.26239 0
M  V30 11293 O 1055.56 0.879114 -1.5039 0
M  V30 11294 C 1052.69 1.62234 -2.99822 0
M  V30 11295 H 1053.89 -0.185862 -2.99324 0
M  V30 11296 H 1051.44 -0.134275 -1.55722 0
M  V30 11297 H 1052.17 2.28991 -2.29638 0
M  V30 11298 H 1051.96 1.23336 -3.72197 0
M  V30 11299 H 1053.45 2.20756 -3.54481 0
M  V30 11300 N 1053.89 1.57202 -0.111913 0
M  V30 11301 C 1055.3 1.57713 0.244702 0
M  V30 11302 C 1055.5 1.12419 1.67225 0
M  V30 11303 O 1054.56 0.808329 2.39212 0
M  V30 11304 C 1055.87 3.00695 0.0178289 0
M  V30 11305 C 1057.42 3.12887 0.0842781 0
M  V30 11306 C 1057.89 4.57856 -0.114812 0
M  V30 11307 N 1059.38 4.6316 -0.0605423 0
M  V30 11308 C 1060.12 5.73086 -0.189594 0
M  V30 11309 N 1059.62 6.91787 -0.37442 0
M  V30 11310 N 1061.41 5.6195 -0.12967 0
M  V30 11311 H 1053.56 1.84947 -1.04443 0
M  V30 11312 H 1055.82 0.854418 -0.4107 0
M  V30 11313 H 1055.53 3.38093 -0.968802 0
M  V30 11314 H 1055.4 3.69611 0.752815 0
M  V30 11315 H 1057.79 2.7535 1.06143 0
M  V30 11316 H 1057.87 2.46528 -0.682474 0
M  V30 11317 H 1057.51 4.9609 -1.0889 0
M  V30 11318 H 1057.44 5.22297 0.671839 0
M  V30 11319 H 1059.94 3.77817 0.0790856 0
M  V30 11320 H 1060.25 7.71406 -0.463948 0
M  V30 11321 H 1058.59 6.93788 -0.410303 0
M  V30 11322 H 1061.78 4.68098 0.0137115 0
M  V30 11323 H 1061.96 6.47578 -0.233688 0
M  V30 11324 N 1055.36 -0.161842 1.56767 0
M  V30 11325 C 1056.61 -0.878224 1.82798 0
M  V30 11326 C 1056.94 -1.81481 0.691242 0
M  V30 11327 O 1056.22 -1.92075 -0.30618 0
M  V30 11328 C 1056.5 -1.66565 3.19262 0
M  V30 11329 C 1056.35 -0.751551 4.43477 0
M  V30 11330 C 1057.67 -2.63134 3.52773 0
M  V30 11331 H 1054.79 -0.317828 0.664947 0
M  V30 11332 H 1057.43 -0.14402 1.89453 0
M  V30 11333 H 1055.58 -2.29157 3.13719 0
M  V30 11334 H 1057.26 -0.137783 4.61094 0
M  V30 11335 H 1055.5 -0.0601785 4.33758 0
M  V30 11336 H 1056.17 -1.33823 5.35533 0
M  V30 11337 H 1058.65 -2.10666 3.5883 0
M  V30 11338 H 1057.52 -3.15289 4.49315 0
M  V30 11339 H 1057.78 -3.43786 2.77963 0
M  V30 11340 N 1056.84 -1.516 -0.430713 0
M  V30 11341 C 1058.26 -1.39923 -0.767706 0
M  V30 11342 C 1058.46 -0.486756 -1.95532 0
M  V30 11343 O 1057.51 0.0555965 -2.52439 0
M  V30 11344 C 1058.83 -2.82074 -1.04187 0
M  V30 11345 C 1060.37 -2.9127 -1.1459 0
M  V30 11346 C 1060.85 -4.34342 -1.45295 0
M  V30 11347 N 1062.34 -4.37479 -1.52206 0
M  V30 11348 C 1063.08 -5.45219 -1.77549 0
M  V30 11349 N 1062.57 -6.6311 -2.0064 0
M  V30 11350 N 1064.36 -5.32707 -1.79386 0
M  V30 11351 H 1056.52 -2.09474 0.351351 0
M  V30 11352 H 1058.78 -0.943247 0.0948151 0
M  V30 11353 H 1058.48 -3.50868 -0.241837 0
M  V30 11354 H 1058.36 -3.21805 -1.96777 0
M  V30 11355 H 1060.75 -2.2267 -1.93655 0
M  V30 11356 H 1060.83 -2.55026 -0.198854 0
M  V30 11357 H 1060.47 -5.03494 -0.667559 0
M  V30 11358 H 1060.4 -4.68105 -2.41217 0
M  V30 11359 H 1062.89 -3.52488 -1.36237 0
M  V30 11360 H 1063.2 -7.41012 -2.19366 0
M  V30 11361 H 1061.55 -6.66214 -1.97948 0
M  V30 11362 H 1064.74 -4.39589 -1.60869 0
M  V30 11363 H 1064.91 -6.16752 -1.98799 0
M  V30 11364 N 1058.32 0.686584 -1.41858 0
M  V30 11365 C 1059.27 1.80038 -1.44413 0
M  V30 11366 C 1060.24 1.63415 -0.297427 0
M  V30 11367 O 1061.42 1.84138 -0.499789 0
M  V30 11368 C 1058.56 3.17988 -1.34082 0
M  V30 11369 C 1057.67 3.45979 -2.58693 0
M  V30 11370 C 1056.81 4.73592 -2.4059 0
M  V30 11371 C 1055.85 4.94581 -3.60633 0
M  V30 11372 N 1054.99 6.13426 -3.41545 0
M  V30 11373 H 1059.83 1.77189 -2.396 0
M  V30 11374 H 1057.36 0.865158 -1.18968 0
M  V30 11375 H 1059.32 3.97689 -1.26092 0
M  V30 11376 H 1057.95 3.1999 -0.424975 0
M  V30 11377 H 1057 2.60617 -2.77097 0
M  V30 11378 H 1058.31 3.57386 -3.47961 0
M  V30 11379 H 1057.47 5.61364 -2.30119 0
M  V30 11380 H 1056.21 4.64448 -1.48794 0
M  V30 11381 H 1055.21 4.05254 -3.71549 0
M  V30 11382 H 1056.44 5.05578 -4.53395 0
M  V30 11383 H 1054.38 6.05477 -2.52456 0
M  V30 11384 H 1054.3 6.25641 -4.24393 0
M  V30 11385 H 1055.57 7.03908 -3.34864 0
M  V30 11386 N 1059.8 1.27835 0.921735 0
M  V30 11387 C 1061.02 1.17465 1.70929 0
M  V30 11388 C 1061.45 -0.264171 1.86236 0
M  V30 11389 O 1060.81 -1.19124 1.36671 0
M  V30 11390 C 1060.85 1.8697 3.08342 0
M  V30 11391 O 1059.96 1.17173 3.95404 0
M  V30 11392 H 1059.3 0.408206 0.523702 0
M  V30 11393 H 1061.83 1.69013 1.15307 0
M  V30 11394 H 1061.84 1.94564 3.58621 0
M  V30 11395 H 1060.51 2.91633 2.96518 0
M  V30 11396 H 1059.09 1.17688 3.53842 0
M  V30 11397 N 1061.28 -1.12907 1.09954 0
M  V30 11398 C 1062.22 -2.18485 0.743848 0
M  V30 11399 C 1063.19 -1.63766 -0.277494 0
M  V30 11400 O 1064.38 -1.90146 -0.157899 0
M  V30 11401 C 1061.52 -3.44649 0.176437 0
M  V30 11402 C 1060.63 -4.13445 1.25248 0
M  V30 11403 C 1059.77 -5.27242 0.647242 0
M  V30 11404 C 1058.8 -5.87897 1.70421 0
M  V30 11405 N 1057.94 -6.93116 1.1196 0
M  V30 11406 H 1062.78 -2.48257 1.64841 0
M  V30 11407 H 1060.32 -1.21891 0.823471 0
M  V30 11408 H 1062.28 -4.16852 -0.170384 0
M  V30 11409 H 1060.91 -3.15309 -0.69137 0
M  V30 11410 H 1059.96 -3.39471 1.7165 0
M  V30 11411 H 1061.27 -4.54601 2.05279 0
M  V30 11412 H 1060.42 -6.06186 0.249579 0
M  V30 11413 H 1059.16 -4.87351 -0.184556 0
M  V30 11414 H 1058.17 -5.07643 2.11136 0
M  V30 11415 H 1059.39 -6.2986 2.53877 0
M  V30 11416 H 1057.34 -6.55271 0.309181 0
M  V30 11417 H 1057.26 -7.32843 1.85681 0
M  V30 11418 H 1058.52 -7.759 0.748326 0
M  V30 11419 N 1062.75 -0.88754 -1.30232 0
M  V30 11420 C 1064 -0.506277 -1.95656 0
M  V30 11421 C 1064.32 0.948191 -1.70395 0
M  V30 11422 O 1063.59 1.66701 -1.02895 0
M  V30 11423 H 1062.17 -0.184235 -0.723924 0
M  V30 11424 H 1064.83 -1.13118 -1.58715 0
M  V30 11425 H 1063.93 -0.678673 -3.04632 0
M  V30 11426 N 1064.23 1.43628 -0.648757 0
M  V30 11427 C 1065.18 2.30755 0.0455536 0
M  V30 11428 C 1066.15 1.44495 0.819168 0
M  V30 11429 O 1067.33 1.73372 0.79667 0
M  V30 11430 C 1064.47 3.30017 1.00908 0
M  V30 11431 C 1063.59 4.31376 0.232039 0
M  V30 11432 C 1062.72 5.17723 1.18897 0
M  V30 11433 C 1061.76 6.10778 0.402096 0
M  V30 11434 N 1060.9 6.89763 1.31038 0
M  V30 11435 H 1065.74 2.89581 -0.70332 0
M  V30 11436 H 1063.28 1.42662 -0.3586 0
M  V30 11437 H 1065.23 3.86072 1.58128 0
M  V30 11438 H 1063.86 2.72851 1.72488 0
M  V30 11439 H 1062.92 3.77652 -0.456373 0
M  V30 11440 H 1064.23 4.9735 -0.380023 0
M  V30 11441 H 1063.38 5.78381 1.83194 0
M  V30 11442 H 1062.12 4.51864 1.83494 0
M  V30 11443 H 1061.13 5.49212 -0.254255 0
M  V30 11444 H 1062.35 6.78678 -0.239411 0
M  V30 11445 H 1060.3 6.26557 1.94324 0
M  V30 11446 H 1060.21 7.52243 0.752774 0
M  V30 11447 H 1061.48 7.54931 1.94164 0
M  V30 11448 N 1065.71 0.390394 1.52688 0
M  V30 11449 C 1066.96 -0.191445 2.01593 0
M  V30 11450 C 1067.29 -1.46723 1.27681 0
M  V30 11451 O 1066.54 -1.92248 0.365972 0
M  V30 11452 C 1066.84 -0.50468 3.53819 0
M  V30 11453 C 1066.51 0.679691 4.45748 0
M  V30 11454 C 1065.17 1.0046 4.70597 0
M  V30 11455 C 1067.52 1.47198 4.99982 0
M  V30 11456 C 1064.85 2.12334 5.46929 0
M  V30 11457 C 1067.2 2.58133 5.77538 0
M  V30 11458 C 1065.86 2.91131 6.00665 0
M  V30 11459 H 1065.13 -0.0700548 0.737681 0
M  V30 11460 H 1067.78 0.527965 1.84078 0
M  V30 11461 H 1066.09 -1.30543 3.69413 0
M  V30 11462 H 1067.78 -0.967524 3.89153 0
M  V30 11463 H 1064.37 0.416446 4.26572 0
M  V30 11464 H 1068.56 1.2342 4.80709 0
M  V30 11465 H 1063.81 2.38269 5.63061 0
M  V30 11466 H 1067.99 3.19925 6.18564 0
M  V30 11467 H 1065.61 3.77938 6.59596 0
M  V30 11468 N 1067.19 -1.57141 0.120249 0
M  V30 11469 C 1068.15 -2.14213 -0.815185 0
M  V30 11470 C 1069.15 -1.07731 -1.19376 0
M  V30 11471 O 1070.34 -1.33502 -1.11906 0
M  V30 11472 C 1067.47 -2.68339 -2.10255 0
M  V30 11473 H 1068.67 -2.98197 -0.319166 0
M  V30 11474 H 1066.22 -1.55767 -0.128997 0
M  V30 11475 H 1066.95 -1.87946 -2.64285 0
M  V30 11476 H 1066.74 -3.46216 -1.84057 0
M  V30 11477 H 1068.23 -3.124 -2.77121 0
M  V30 11478 N 1068.67 0.153526 -1.5685 0
M  V30 11479 C 1069.91 0.867232 -1.8299 0
M  V30 11480 C 1070.24 1.81462 -0.700125 0
M  V30 11481 O 1069.5 1.93207 0.311348 0
M  V30 11482 C 1069.8 1.68066 -3.15418 0
M  V30 11483 C 1069.46 0.880635 -4.42217 0
M  V30 11484 C 1068.12 0.659899 -4.76654 0
M  V30 11485 C 1070.48 0.320698 -5.20212 0
M  V30 11486 C 1067.8 -0.131588 -5.86552 0
M  V30 11487 C 1070.16 -0.457794 -6.30941 0
M  V30 11488 C 1068.82 -0.689168 -6.63933 0
M  V30 11489 H 1068.09 0.317343 -0.669608 0
M  V30 11490 H 1070.74 0.131208 -1.9105 0
M  V30 11491 H 1069.04 2.4866 -3.02779 0
M  V30 11492 H 1070.74 2.23623 -3.32857 0
M  V30 11493 H 1067.33 1.06274 -4.15215 0
M  V30 11494 H 1071.51 0.47853 -4.93988 0
M  V30 11495 H 1066.77 -0.320413 -6.1056 0
M  V30 11496 H 1070.94 -0.898839 -6.90575 0
M  V30 11497 H 1068.57 -1.30433 -7.48927 0
M  V30 11498 N 1070.14 1.51827 0.422667 0
M  V30 11499 C 1071.07 1.77152 1.52117 0
M  V30 11500 C 1072.06 0.621895 1.58324 0
M  V30 11501 O 1073.24 0.866118 1.73816 0
M  V30 11502 C 1070.37 1.90991 2.90068 0
M  V30 11503 C 1069.32 3.06516 2.98717 0
M  V30 11504 C 1068.65 3.05559 4.38791 0
M  V30 11505 C 1069.95 4.46223 2.71445 0
M  V30 11506 H 1071.64 2.69135 1.31175 0
M  V30 11507 H 1069.19 1.29507 0.629607 0
M  V30 11508 H 1071.14 2.07291 3.6689 0
M  V30 11509 H 1069.87 0.956688 3.12274 0
M  V30 11510 H 1068.53 2.89945 2.24338 0
M  V30 11511 H 1068.17 2.07985 4.57986 0
M  V30 11512 H 1067.87 3.83144 4.45505 0
M  V30 11513 H 1069.4 3.23971 5.17566 0
M  V30 11514 H 1070.81 4.63069 3.37994 0
M  V30 11515 H 1069.21 5.25623 2.89552 0
M  V30 11516 H 1070.28 4.5525 1.6696 0
M  V30 11517 N 1071.62 -0.679052 1.4222 0
M  V30 11518 C 1072.55 -1.80481 1.48152 0
M  V30 11519 C 1073.53 -1.66698 0.338502 0
M  V30 11520 O 1074.72 -1.86183 0.552228 0
M  V30 11521 C 1071.85 -3.18746 1.37908 0
M  V30 11522 C 1070.8 -3.47258 2.50192 0
M  V30 11523 C 1070.13 -4.85052 2.25008 0
M  V30 11524 C 1071.43 -3.44576 3.92511 0
M  V30 11525 H 1073.12 -1.75774 2.42371 0
M  V30 11526 H 1070.67 -0.844241 1.16656 0
M  V30 11527 H 1072.62 -3.97229 1.40666 0
M  V30 11528 H 1071.35 -3.24119 0.401806 0
M  V30 11529 H 1070 -2.71133 2.46744 0
M  V30 11530 H 1069.65 -4.8707 1.25584 0
M  V30 11531 H 1069.35 -5.05092 3.00259 0
M  V30 11532 H 1070.88 -5.65825 2.29508 0
M  V30 11533 H 1072.29 -4.13036 3.97585 0
M  V30 11534 H 1070.69 -3.76151 4.67579 0
M  V30 11535 H 1071.76 -2.4323 4.19484 0
M  V30 11536 N 1073.1 -1.28322 -0.914942 0
M  V30 11537 C 1074.01 -1.13993 -2.05043 0
M  V30 11538 C 1075.03 -0.0667921 -1.73872 0
M  V30 11539 O 1076.2 -0.275845 -1.99502 0
M  V30 11540 C 1073.27 -0.801856 -3.373 0
M  V30 11541 C 1072.33 -1.95723 -3.82088 0
M  V30 11542 C 1071.56 -1.63519 -5.08033 0
M  V30 11543 O 1071.78 -0.54899 -5.67752 0
M  V30 11544 O 1070.72 -2.47844 -5.48504 0
M  V30 11545 H 1074.54 -2.09313 -2.2005 0
M  V30 11546 H 1072.13 -1.0763 -1.03616 0
M  V30 11547 H 1074.01 -0.627214 -4.16706 0
M  V30 11548 H 1072.69 0.121696 -3.23471 0
M  V30 11549 H 1071.59 -2.18702 -3.03514 0
M  V30 11550 H 1072.93 -2.86144 -4.00478 0
M  V30 11551 N 1074.58 1.12322 -1.10551 0
M  V30 11552 C 1075.8 1.8822 -0.871093 0
M  V30 11553 C 1076.23 1.7916 0.573005 0
M  V30 11554 O 1075.59 1.14738 1.40374 0
M  V30 11555 C 1075.63 3.35349 -1.32565 0
M  V30 11556 O 1074.74 4.09461 -0.49145 0
M  V30 11557 H 1074.08 0.584787 -0.314516 0
M  V30 11558 H 1076.61 1.42039 -1.47262 0
M  V30 11559 H 1076.62 3.86189 -1.31612 0
M  V30 11560 H 1075.29 3.4126 -2.37728 0
M  V30 11561 H 1073.87 3.68575 -0.566294 0
M  V30 11562 N 1076.06 0.894434 1.2976 0
M  V30 11563 C 1077.28 0.532916 1.99919 0
M  V30 11564 C 1077.7 -0.881022 1.66983 0
M  V30 11565 O 1077.06 -1.58076 0.912035 0
M  V30 11566 C 1077.11 0.70936 3.54472 0
M  V30 11567 O 1076.83 2.06764 3.86239 0
M  V30 11568 C 1078.33 0.352089 4.419 0
M  V30 11569 H 1075.55 0.205019 0.638912 0
M  V30 11570 H 1078.09 1.20233 1.65421 0
M  V30 11571 H 1076.25 0.0871901 3.87302 0
M  V30 11572 H 1076.66 2.09315 4.80924 0
M  V30 11573 H 1078.14 0.526405 5.49484 0
M  V30 11574 H 1078.61 -0.710527 4.33415 0
M  V30 11575 H 1079.22 0.950979 4.14532 0
M  V30 11576 N 1077.53 -1.43282 0.656365 0
M  V30 11577 C 1078.47 -2.28049 -0.083127 0
M  V30 11578 C 1079.45 -1.40009 -0.826812 0
M  V30 11579 O 1080.63 -1.69452 -0.825736 0
M  V30 11580 C 1077.76 -3.19487 -1.12452 0
M  V30 11581 C 1076.8 -4.23807 -0.478527 0
M  V30 11582 S 1077.64 -5.30218 0.750248 0
M  V30 11583 C 1078.79 -6.25225 -0.290534 0
M  V30 11584 H 1079.02 -2.90419 0.635922 0
M  V30 11585 H 1076.56 -1.47839 0.445303 0
M  V30 11586 H 1078.52 -3.72713 -1.72034 0
M  V30 11587 H 1077.18 -2.56288 -1.81591 0
M  V30 11588 H 1076.37 -4.87901 -1.26368 0
M  V30 11589 H 1075.97 -3.73975 0.043251 0
M  V30 11590 H 1078.26 -6.67568 -1.15579 0
M  V30 11591 H 1079.21 -7.07397 0.315458 0
M  V30 11592 H 1079.61 -5.60999 -0.627751 0
M  V30 11593 N 1079.01 -0.398486 -1.52479 0
M  V30 11594 C 1079.96 0.447001 -2.28264 0
M  V30 11595 C 1080.96 1.05511 -1.32529 0
M  V30 11596 O 1082.16 0.994528 -1.5003 0
M  V30 11597 H 1078.54 0.162919 -0.73414 0
M  V30 11598 H 1080.51 -0.213534 -2.97635 0
M  V30 11599 C 1079.26 1.55724 -3.10879 0
M  V30 11600 H 1078.58 1.09864 -3.84409 0
M  V30 11601 H 1080.02 2.12286 -3.67029 0
M  V30 11602 C 1078.48 2.51853 -2.23768 0
M  V30 11603 O 1079.01 3.55483 -1.87069 0
M  V30 11604 N 1077.21 2.2181 -1.87746 0
M  V30 11605 H 1076.76 1.3757 -2.17789 0
M  V30 11606 H 1076.72 2.86376 -1.29753 0
M  V30 11607 N 1080.49 1.57075 -0.12858 0
M  V30 11608 C 1081.4 2.19369 0.831533 0
M  V30 11609 C 1082.42 1.17258 1.28555 0
M  V30 11610 O 1083.59 1.49766 1.34656 0
M  V30 11611 C 1080.66 2.78846 2.06024 0
M  V30 11612 C 1079.72 3.96024 1.65722 0
M  V30 11613 C 1078.95 4.52655 2.82735 0
M  V30 11614 O 1079.18 4.08175 3.98434 0
M  V30 11615 O 1078.11 5.43198 2.59268 0
M  V30 11616 H 1081.94 3.01887 0.331352 0
M  V30 11617 H 1079.52 1.49081 0.0975226 0
M  V30 11618 H 1081.4 3.16721 2.77967 0
M  V30 11619 H 1080.08 1.99353 2.5503 0
M  V30 11620 H 1078.98 3.62899 0.908574 0
M  V30 11621 H 1080.32 4.76981 1.21449 0
M  V30 11622 N 1081.97 -0.145205 1.5693 0
M  V30 11623 C 1083.2 -0.871133 1.87336 0
M  V30 11624 C 1083.61 -1.7517 0.714992 0
M  V30 11625 O 1082.95 -1.80815 -0.324304 0
M  V30 11626 C 1083.01 -1.77775 3.12468 0
M  V30 11627 C 1082.68 -1.07416 4.44197 0
M  V30 11628 C 1083.67 -0.42722 5.18142 0
M  V30 11629 C 1081.36 -1.06313 4.9092 0
M  V30 11630 C 1083.35 0.221348 6.37016 0
M  V30 11631 C 1081.04 -0.410755 6.09718 0
M  V30 11632 C 1082.04 0.230357 6.82611 0
M  V30 11633 O 1081.73 0.872389 7.99152 0
M  V30 11634 H 1081.46 -0.257174 0.62517 0
M  V30 11635 H 1084.01 -0.142159 2.04907 0
M  V30 11636 H 1082.24 -2.54771 2.9091 0
M  V30 11637 H 1083.93 -2.37579 3.29107 0
M  V30 11638 H 1084.7 -0.427536 4.83112 0
M  V30 11639 H 1080.58 -1.55156 4.34105 0
M  V30 11640 H 1084.12 0.722349 6.9385 0
M  V30 11641 H 1080.02 -0.408112 6.44209 0
M  V30 11642 H 1080.78 0.774236 8.1483 0
M  V30 11643 N 1083.45 -1.52049 -0.414609 0
M  V30 11644 C 1084.7 -1.65067 -1.15912 0
M  V30 11645 C 1085.01 -0.383969 -1.91794 0
M  V30 11646 O 1086.22 -0.393872 -2.68628 0
M  V30 11647 C 1084.67 -2.91611 -2.1093 0
M  V30 11648 C 1084.28 -4.25369 -1.4059 0
M  V30 11649 C 1086.02 -3.13992 -2.85674 0
M  V30 11650 C 1083.93 -5.43041 -2.34223 0
M  V30 11651 H 1082.86 -0.614884 -0.436387 0
M  V30 11652 H 1085.51 -1.78533 -0.424072 0
M  V30 11653 H 1083.89 -2.71831 -2.87965 0
M  V30 11654 H 1085.07 -4.55611 -0.689568 0
M  V30 11655 H 1083.38 -4.09047 -0.779088 0
M  V30 11656 H 1085.98 -3.99082 -3.55861 0
M  V30 11657 H 1086.32 -2.27998 -3.48314 0
M  V30 11658 H 1086.86 -3.34217 -2.1574 0
M  V30 11659 H 1083.59 -6.31364 -1.76238 0
M  V30 11660 H 1083.11 -5.17144 -3.03845 0
M  V30 11661 H 1084.79 -5.75901 -2.94868 0
M  V30 11662 N 1084.93 0.6715 -1.42579 0
M  V30 11663 C 1085.84 1.81435 -1.48723 0
M  V30 11664 C 1086.85 1.69895 -0.375716 0
M  V30 11665 O 1088.03 1.91388 -0.627115 0
M  V30 11666 C 1085.09 3.17599 -1.39038 0
M  V30 11667 C 1084.15 3.41071 -2.60709 0
M  V30 11668 C 1083.39 4.7074 -2.51476 0
M  V30 11669 O 1083.61 5.48868 -1.55243 0
M  V30 11670 O 1082.54 4.95528 -3.41666 0
M  V30 11671 H 1086.37 1.79206 -2.45191 0
M  V30 11672 H 1083.95 0.827666 -1.24379 0
M  V30 11673 H 1085.84 3.98847 -1.3601 0
M  V30 11674 H 1084.51 3.20458 -0.456966 0
M  V30 11675 H 1083.42 2.59659 -2.69311 0
M  V30 11676 H 1084.75 3.43045 -3.5296 0
M  V30 11677 N 1086.4 1.28806 0.908124 0
M  V30 11678 C 1087.34 1.09018 2.01613 0
M  V30 11679 C 1088.35 0.0402059 1.6275 0
M  V30 11680 O 1089.54 0.283853 1.76229 0
M  V30 11681 C 1086.64 0.635712 3.32884 0
M  V30 11682 C 1085.81 1.76235 4.00325 0
M  V30 11683 C 1084.87 1.3003 5.09881 0
M  V30 11684 O 1083.9 2.00354 5.32773 0
M  V30 11685 N 1085.1 0.166575 5.80261 0
M  V30 11686 H 1087.86 2.0444 2.19144 0
M  V30 11687 H 1085.42 1.20633 1.07978 0
M  V30 11688 H 1087.42 0.310097 4.0351 0
M  V30 11689 H 1085.99 -0.225816 3.11783 0
M  V30 11690 H 1085.21 2.25727 3.23173 0
M  V30 11691 H 1086.49 2.51796 4.42127 0
M  V30 11692 H 1085.89 -0.419934 5.64139 0
M  V30 11693 H 1084.45 -0.0997281 6.51724 0
M  V30 11694 N 1087.88 -1.11734 1.11145 0
M  V30 11695 C 1089.3 -1.35412 0.844736 0
M  V30 11696 C 1089.5 -1.94347 -0.532111 0
M  V30 11697 O 1088.55 -2.17443 -1.28353 0
M  V30 11698 C 1089.87 -2.28869 1.95037 0
M  V30 11699 C 1091.41 -2.42442 1.97967 0
M  V30 11700 C 1091.89 -3.39219 3.07725 0
M  V30 11701 N 1093.38 -3.4678 3.07079 0
M  V30 11702 C 1094.12 -4.21595 3.88646 0
M  V30 11703 N 1093.61 -4.99411 4.80167 0
M  V30 11704 N 1095.4 -4.17075 3.76835 0
M  V30 11705 H 1087.56 -0.718412 1.99881 0
M  V30 11706 H 1089.82 -0.378787 0.869037 0
M  V30 11707 H 1089.52 -1.92752 2.94176 0
M  V30 11708 H 1089.4 -3.2906 1.84389 0
M  V30 11709 H 1091.79 -2.77835 0.994561 0
M  V30 11710 H 1091.87 -1.42113 2.12691 0
M  V30 11711 H 1091.51 -3.04553 4.0646 0
M  V30 11712 H 1091.44 -4.39394 2.90242 0
M  V30 11713 H 1093.93 -2.91272 2.40767 0
M  V30 11714 H 1094.24 -5.53856 5.38946 0
M  V30 11715 H 1092.59 -4.98582 4.84191 0
M  V30 11716 H 1095.78 -3.55369 3.04681 0
M  V30 11717 H 1095.95 -4.75125 4.40637 0
M  V30 11718 N 1089.36 -0.901303 -1.29284 0
M  V30 11719 C 1090.31 -0.378666 -2.27672 0
M  V30 11720 C 1091.28 0.540102 -1.57074 0
M  V30 11721 O 1092.46 0.464997 -1.85047 0
M  V30 11722 C 1089.6 0.38635 -3.42931 0
M  V30 11723 C 1088.71 -0.563496 -4.28309 0
M  V30 11724 C 1087.85 0.218731 -5.30749 0
M  V30 11725 C 1086.89 -0.725536 -6.07785 0
M  V30 11726 N 1086.03 0.0223854 -7.02096 0
M  V30 11727 H 1090.87 -1.22277 -2.71758 0
M  V30 11728 H 1088.4 -0.614302 -1.33659 0
M  V30 11729 H 1090.36 0.845967 -4.08533 0
M  V30 11730 H 1088.99 1.1949 -2.9987 0
M  V30 11731 H 1088.04 -1.14163 -3.62865 0
M  V30 11732 H 1089.35 -1.28623 -4.81931 0
M  V30 11733 H 1088.51 0.739473 -6.02177 0
M  V30 11734 H 1087.25 0.97459 -4.77863 0
M  V30 11735 H 1086.25 -1.25776 -5.3522 0
M  V30 11736 H 1087.48 -1.48075 -6.6276 0
M  V30 11737 H 1085.42 0.760482 -6.51577 0
M  V30 11738 H 1085.34 -0.640408 -7.53283 0
M  V30 11739 H 1086.61 0.523339 -7.77741 0
M  V30 11740 N 1090.84 1.42931 -0.663954 0
M  V30 11741 C 1092.25 1.84877 -0.260283 0
M  V30 11742 C 1092.6 1.5558 1.19538 0
M  V30 11743 O 1091.72 1.01015 1.91377 0
M  V30 11744 C 1092.32 3.35585 -0.465618 0
M  V30 11745 C 1090.88 3.76221 -0.116169 0
M  V30 11746 C 1090.03 2.66587 -0.763317 0
M  V30 11747 H 1092.98 1.32932 -0.866882 0
M  V30 11748 H 1093 3.79427 0.285608 0
M  V30 11749 H 1092.51 3.56877 -1.52515 0
M  V30 11750 H 1090.61 3.60539 0.940342 0
M  V30 11751 H 1090.72 4.75943 -0.549123 0
M  V30 11752 H 1089.09 2.53948 -0.19559 0
M  V30 11753 H 1089.87 2.90704 -1.82609 0
M  V30 11754 N 1092.32 0.406567 1.52266 0
M  V30 11755 C 1093.56 -0.169611 2.03695 0
M  V30 11756 C 1093.92 -1.42596 1.2857 0
M  V30 11757 O 1095.12 -2.08041 1.70212 0
M  V30 11758 C 1093.39 -0.413924 3.54995 0
M  V30 11759 S 1094.95 -0.957916 4.28217 0
M  V30 11760 H 1091.77 -0.0462362 0.709495 0
M  V30 11761 H 1094.37 0.558895 1.87341 0
M  V30 11762 H 1093.07 0.507285 4.07253 0
M  V30 11763 H 1092.61 -1.17038 3.75587 0
M  V30 11764 H 1094.62 -2.2387 4.42828 0
M  V30 11765 N 1093.79 -1.57004 0.136909 0
M  V30 11766 C 1095.07 -1.87375 -0.561233 0
M  V30 11767 C 1095.45 -1.04117 -1.83638 0
M  V30 11768 O 1094.8 -0.125103 -2.28157 0
M  V30 11769 C 1095.01 -3.38829 -0.836426 0
M  V30 11770 C 1096.36 -4.07826 -1.18164 0
M  V30 11771 O 1097.38 -3.4395 -0.92611 0
M  V30 11772 O 1096.24 -5.20614 -1.66204 0
M  V30 11773 H 1093.33 -0.776287 -0.285145 0
M  V30 11774 H 1095.88 -1.68818 0.172761 0
M  V30 11775 H 1094.65 -3.91244 0.066442 0
M  V30 11776 H 1094.28 -3.62879 -1.62496 0
M  V30 11777 N 1095.27 0.136881 -1.57004 0
M  V30 11778 C 1096.5 0.862436 -1.88068 0
M  V30 11779 C 1096.92 1.74274 -0.726227 0
M  V30 11780 O 1096.27 1.79956 0.30366 0
M  V30 11781 C 1096.32 1.71076 -3.18458 0
M  V30 11782 O 1096.04 0.865918 -4.29457 0
M  V30 11783 C 1097.55 2.54302 -3.63105 0
M  V30 11784 H 1094.77 0.248865 -0.623143 0
M  V30 11785 H 1097.31 0.126633 -2.04108 0
M  V30 11786 H 1095.46 2.39951 -3.04142 0
M  V30 11787 H 1095.88 1.4493 -5.04079 0
M  V30 11788 H 1097.35 3.09384 -4.57149 0
M  V30 11789 H 1097.83 3.3082 -2.88886 0
M  V30 11790 H 1098.44 1.907 -3.80149 0
M  V30 11791 N 1096.75 1.52266 0.40654 0
M  V30 11792 C 1097.68 1.70519 1.51653 0
M  V30 11793 C 1098.66 0.552798 1.52915 0
M  V30 11794 O 1099.85 0.780468 1.71584 0
M  V30 11795 C 1096.97 1.74686 2.90176 0
M  V30 11796 C 1096.02 2.96255 3.06815 0
M  V30 11797 S 1096.85 4.56553 2.79856 0
M  V30 11798 C 1098.01 4.63511 4.20605 0
M  V30 11799 H 1098.24 2.64399 1.35942 0
M  V30 11800 H 1095.77 1.42337 0.598284 0
M  V30 11801 H 1097.73 1.77773 3.7001 0
M  V30 11802 H 1096.39 0.819291 3.03227 0
M  V30 11803 H 1095.59 2.95661 4.08167 0
M  V30 11804 H 1095.19 2.91069 2.34851 0
M  V30 11805 H 1097.48 4.41047 5.1428 0
M  V30 11806 H 1098.42 5.65456 4.26222 0
M  V30 11807 H 1098.83 3.92518 4.05697 0
M  V30 11808 N 1098.23 -0.663929 1.42933 0
M  V30 11809 C 1099.18 -1.77717 1.47259 0
M  V30 11810 C 1100.15 -1.62922 0.323387 0
M  V30 11811 O 1101.33 -1.83319 0.529021 0
M  V30 11812 C 1098.47 -3.15814 1.39124 0
M  V30 11813 C 1097.58 -3.4182 2.64165 0
M  V30 11814 C 1096.72 -4.69705 2.48094 0
M  V30 11815 C 1095.76 -4.88781 3.68456 0
M  V30 11816 N 1094.89 -6.07915 3.51261 0
M  V30 11817 H 1099.73 -1.73355 2.42388 0
M  V30 11818 H 1097.27 -0.846121 1.2033 0
M  V30 11819 H 1099.23 -3.95633 1.32403 0
M  V30 11820 H 1097.86 -3.19274 0.475829 0
M  V30 11821 H 1096.91 -2.56176 2.81208 0
M  V30 11822 H 1098.22 -3.51805 3.53602 0
M  V30 11823 H 1097.38 -5.57632 2.39021 0
M  V30 11824 H 1096.12 -4.62022 1.56164 0
M  V30 11825 H 1095.12 -3.99292 3.7795 0
M  V30 11826 H 1096.35 -4.98301 4.61381 0
M  V30 11827 H 1094.29 -6.01384 2.62057 0
M  V30 11828 H 1094.21 -6.1881 4.34293 0
M  V30 11829 H 1095.48 -6.98492 3.4602 0
M  V30 11830 N 1099.71 -1.29285 -0.901281 0
M  V30 11831 C 1100.95 -1.17339 -1.65407 0
M  V30 11832 C 1101.29 0.274834 -1.92245 0
M  V30 11833 O 1100.56 1.19865 -1.53176 0
M  V30 11834 C 1100.84 -1.98547 -3.00418 0
M  V30 11835 C 1100.7 -3.51501 -2.80655 0
M  V30 11836 C 1102.02 -1.81062 -4.01129 0
M  V30 11837 H 1099.13 -0.427624 -0.600255 0
M  V30 11838 H 1101.78 -1.58741 -1.0441 0
M  V30 11839 H 1099.93 -1.63366 -3.52482 0
M  V30 11840 H 1101.6 -3.96655 -2.35505 0
M  V30 11841 H 1099.84 -3.76504 -2.15469 0
M  V30 11842 H 1100.51 -4.03593 -3.76585 0
M  V30 11843 H 1102.99 -2.11788 -3.58169 0
M  V30 11844 H 1101.86 -2.40235 -4.93536 0
M  V30 11845 H 1102.13 -0.765388 -4.35424 0
M  V30 11846 N 1101.18 1.11143 -1.11736 0
M  V30 11847 C 1102.43 1.82586 -0.866412 0
M  V30 11848 C 1102.75 1.85227 0.609593 0
M  V30 11849 O 1102.02 1.32505 1.44288 0
M  V30 11850 H 1100.6 0.676149 -0.31754 0
M  V30 11851 H 1103.27 1.34516 -1.41037 0
M  V30 11852 H 1102.36 2.8635 -1.24136 0
M  V30 11853 N 1102.66 0.908147 1.28804 0
M  V30 11854 C 1103.91 0.53734 1.94826 0
M  V30 11855 C 1104.23 -0.920962 1.71882 0
M  V30 11856 O 1103.5 -1.65043 1.05534 0
M  V30 11857 H 1102.08 0.195729 0.720902 0
M  V30 11858 H 1104.74 1.15628 1.56895 0
M  V30 11859 H 1103.84 0.727052 3.03513 0
M  V30 11860 N 1104.14 -1.42577 0.671525 0
M  V30 11861 C 1105.09 -2.32591 -0.0205354 0
M  V30 11862 C 1106.08 -1.4964 -0.793993 0
M  V30 11863 O 1107.29 -1.65733 -0.702327 0
M  V30 11864 H 1103.66 -0.75157 -0.0254344 0
M  V30 11865 H 1105.63 -2.88662 0.756082 0
M  V30 11866 C 1104.38 -3.34175 -0.960316 0
M  V30 11867 H 1103.71 -3.98041 -0.374577 0
M  V30 11868 H 1105.15 -3.99752 -1.4133 0
M  V30 11869 C 1103.61 -2.66184 -2.06513 0
M  V30 11870 O 1104.14 -2.49125 -3.15119 0
M  V30 11871 N 1102.34 -2.25261 -1.83591 0
M  V30 11872 H 1101.89 -2.39336 -0.952689 0
M  V30 11873 H 1101.85 -1.80101 -2.57703 0
M  V30 11874 N 1105.62 -0.414636 -1.52048 0
M  V30 11875 C 1106.55 0.399119 -2.30064 0
M  V30 11876 C 1107.53 1.04126 -1.34506 0
M  V30 11877 O 1108.71 1.04923 -1.63416 0
M  V30 11878 C 1105.84 1.51305 -3.12608 0
M  V30 11879 C 1104.8 0.995621 -4.16259 0
M  V30 11880 C 1104.12 2.20357 -4.87183 0
M  V30 11881 C 1105.42 0.0458178 -5.2228 0
M  V30 11882 H 1107.12 -0.251879 -2.98339 0
M  V30 11883 H 1104.66 -0.122579 -1.43477 0
M  V30 11884 H 1106.62 2.08936 -3.65956 0
M  V30 11885 H 1105.34 2.19201 -2.42113 0
M  V30 11886 H 1104 0.441676 -3.6393 0
M  V30 11887 H 1103.65 2.8682 -4.13211 0
M  V30 11888 H 1103.35 1.86385 -5.57256 0
M  V30 11889 H 1104.87 2.78584 -5.43345 0
M  V30 11890 H 1106.29 0.531102 -5.70835 0
M  V30 11891 H 1104.68 -0.20536 -5.99749 0
M  V30 11892 H 1105.75 -0.897807 -4.76516 0
M  V30 11893 N 1107.1 1.56929 -0.145233 0
M  V30 11894 C 1108.37 1.8767 0.551288 0
M  V30 11895 C 1108.75 1.05089 1.83083 0
M  V30 11896 O 1108.1 0.137201 2.28088 0
M  V30 11897 C 1108.31 3.39268 0.818445 0
M  V30 11898 C 1109.66 4.08447 1.16 0
M  V30 11899 O 1110.68 3.44436 0.907857 0
M  V30 11900 O 1109.54 5.21488 1.63441 0
M  V30 11901 H 1106.64 0.777788 0.281024 0
M  V30 11902 H 1109.18 1.68724 -0.181712 0
M  V30 11903 H 1107.95 3.91203 -0.0871897 0
M  V30 11904 H 1107.58 3.63735 1.60569 0
M  V30 11905 N 1108.58 -0.128553 1.57075 0
M  V30 11906 C 1109.8 -0.8564 1.88893 0
M  V30 11907 C 1110.23 -1.73095 0.736196 0
M  V30 11908 O 1109.58 -1.78567 -0.313629 0
M  V30 11909 C 1109.63 -1.67368 3.19406 0
M  V30 11910 O 1108.74 -2.77973 3.04639 0
M  V30 11911 H 1108.08 -0.237424 0.620102 0
M  V30 11912 H 1110.61 -0.113821 2.04283 0
M  V30 11913 H 1110.62 -2.0649 3.51889 0
M  V30 11914 H 1109.29 -1.03161 4.02903 0
M  V30 11915 H 1107.87 -2.42123 2.83603 0
M  V30 11916 N 1110.05 -1.5248 -0.398459 0
M  V30 11917 C 1111 -1.76585 -1.48615 0
M  V30 11918 C 1111.97 -0.608677 -1.54546 0
M  V30 11919 O 1113.16 -0.847383 -1.7095 0
M  V30 11920 C 1110.3 -1.93201 -2.8595 0
M  V30 11921 C 1109.41 -3.20875 -2.89246 0
M  V30 11922 C 1108.54 -3.27862 -4.17947 0
M  V30 11923 C 1107.58 -4.49697 -4.15258 0
M  V30 11924 N 1106.72 -4.54017 -5.35549 0
M  V30 11925 H 1111.56 -2.69412 -1.27362 0
M  V30 11926 H 1109.1 -1.33487 -0.618031 0
M  V30 11927 H 1111.05 -2.00819 -3.65688 0
M  V30 11928 H 1109.68 -1.03743 -3.05675 0
M  V30 11929 H 1108.74 -3.22376 -2.01935 0
M  V30 11930 H 1110.05 -4.1066 -2.83125 0
M  V30 11931 H 1109.2 -3.34611 -5.06083 0
M  V30 11932 H 1107.94 -2.36035 -4.26777 0
M  V30 11933 H 1106.95 -4.43083 -3.25511 0
M  V30 11934 H 1108.17 -5.42831 -4.08059 0
M  V30 11935 H 1106.12 -3.65078 -5.45027 0
M  V30 11936 H 1106.03 -5.37661 -5.31466 0
M  V30 11937 H 1107.3 -4.65009 -6.25609 0
M  V30 11938 N 1111.53 0.65634 -1.43283 0
M  V30 11939 C 1112.78 1.41347 -1.44449 0
M  V30 11940 C 1113.1 1.94879 -0.0687217 0
M  V30 11941 O 1112.37 1.74235 0.895492 0
M  V30 11942 H 1110.95 0.524578 -0.531815 0
M  V30 11943 H 1113.61 0.774292 -1.7886 0
M  V30 11944 H 1112.71 2.25737 -2.15521 0
M  V30 11945 N 1113.01 1.29761 0.894412 0
M  V30 11946 C 1114.24 1.20765 1.67629 0
M  V30 11947 C 1114.65 -0.233434 1.87754 0
M  V30 11948 O 1113.99 -1.16747 1.4183 0
M  V30 11949 C 1114.05 1.85542 3.07919 0
M  V30 11950 C 1113.72 3.34852 3.11004 0
M  V30 11951 C 1114.71 4.30994 2.90758 0
M  V30 11952 C 1112.4 3.76141 3.32901 0
M  V30 11953 C 1114.39 5.664 2.92352 0
M  V30 11954 C 1112.08 5.11667 3.34126 0
M  V30 11955 C 1113.08 6.06607 3.13874 0
M  V30 11956 O 1112.77 7.39659 3.14897 0
M  V30 11957 H 1112.5 0.419418 0.530155 0
M  V30 11958 H 1115.05 1.71754 1.12648 0
M  V30 11959 H 1113.28 1.29071 3.64524 0
M  V30 11960 H 1114.97 1.70795 3.68217 0
M  V30 11961 H 1115.74 4.00427 2.73648 0
M  V30 11962 H 1111.62 3.02694 3.47703 0
M  V30 11963 H 1115.16 6.40479 2.76464 0
M  V30 11964 H 1111.06 5.41877 3.50769 0
M  V30 11965 H 1111.82 7.4853 3.31127 0
M  V30 11966 N 1114.49 -1.10549 1.12324 0
M  V30 11967 C 1115.74 -1.82124 0.876083 0
M  V30 11968 C 1116.06 -1.85547 -0.599761 0
M  V30 11969 O 1115.33 -1.33269 -1.43584 0
M  V30 11970 H 1113.91 -0.674455 0.321122 0
M  V30 11971 H 1116.57 -1.33766 1.41748 0
M  V30 11972 H 1115.66 -2.85688 1.25653 0
M  V30 11973 N 1115.97 -0.914965 -1.28321 0
M  V30 11974 C 1117.21 -0.549562 -1.95212 0
M  V30 11975 C 1117.54 0.904658 -1.71842 0
M  V30 11976 O 1116.82 1.64354 -1.04009 0
M  V30 11977 C 1117.1 -0.860927 -3.49657 0
M  V30 11978 C 1116.96 -2.36797 -3.82423 0
M  V30 11979 C 1118.27 -0.357926 -4.38642 0
M  V30 11980 H 1115.39 -0.201136 -0.709023 0
M  V30 11981 H 1118.04 -1.14443 -1.51667 0
M  V30 11982 H 1116.19 -0.354665 -3.86878 0
M  V30 11983 H 1117.86 -2.94494 -3.55065 0
M  V30 11984 H 1116.1 -2.82245 -3.29424 0
M  V30 11985 H 1116.77 -2.53637 -4.90278 0
M  V30 11986 H 1119.25 -0.791636 -4.085 0
M  V30 11987 H 1118.12 -0.604855 -5.45557 0
M  V30 11988 H 1118.38 0.741775 -4.35833 0
M  V30 11989 N 1117.44 1.42219 -0.679077 0
M  V30 11990 C 1118.41 2.29197 -0.0125475 0
M  V30 11991 C 1119.41 1.43544 0.724691 0
M  V30 11992 O 1120.6 1.64884 0.562052 0
M  V30 11993 C 1117.73 3.26122 0.992846 0
M  V30 11994 H 1118.92 2.89629 -0.778154 0
M  V30 11995 H 1116.47 1.4993 -0.44166 0
M  V30 11996 H 1117.21 2.70637 1.78679 0
M  V30 11997 H 1116.99 3.89302 0.467544 0
M  V30 11998 H 1118.48 3.91339 1.45751 0
M  V30 11999 N 1118.92 0.422693 1.51826 0
M  V30 12000 C 1120.15 -0.147744 2.06372 0
M  V30 12001 C 1120.56 -1.37714 1.29152 0
M  V30 12002 O 1119.92 -1.7917 0.347046 0
M  V30 12003 C 1119.97 -0.484642 3.58237 0
M  V30 12004 O 1119.69 0.695944 4.32537 0
M  V30 12005 C 1121.19 -1.10734 4.29247 0
M  V30 12006 H 1118.41 -0.0144047 0.670845 0
M  V30 12007 H 1120.96 0.597558 1.95575 0
M  V30 12008 H 1119.11 -1.17984 3.68997 0
M  V30 12009 H 1119.53 0.411471 5.22884 0
M  V30 12010 H 1121 -1.29318 5.36639 0
M  V30 12011 H 1121.48 -2.08429 3.86593 0
M  V30 12012 H 1122.08 -0.451958 4.22892 0
M  V30 12013 N 1120.4 -1.5685 0.153553 0
M  V30 12014 C 1121.81 -1.83074 -0.36618 0
M  V30 12015 C 1122.16 -1.07257 -1.64288 0
M  V30 12016 O 1121.29 -0.319925 -2.14022 0
M  V30 12017 C 1121.88 -3.32086 -0.671142 0
M  V30 12018 C 1120.44 -3.58868 -1.13537 0
M  V30 12019 C 1119.59 -2.76827 -0.161887 0
M  V30 12020 H 1122.54 -1.54129 0.378139 0
M  V30 12021 H 1122.56 -3.48598 -1.52512 0
M  V30 12022 H 1122.07 -3.8724 0.258234 0
M  V30 12023 H 1120.17 -3.09107 -2.08047 0
M  V30 12024 H 1120.29 -4.67299 -1.05682 0
M  V30 12025 H 1118.65 -2.46112 -0.6558 0
M  V30 12026 H 1119.43 -3.34755 0.761195 0
M  V30 12027 N 1121.88 0.120221 -1.57141 0
M  V30 12028 C 1122.82 1.14751 -2.00252 0
M  V30 12029 C 1123.79 1.41217 -0.874462 0
M  V30 12030 O 1124.98 1.53104 -1.13859 0
M  V30 12031 C 1122.12 2.46923 -2.41087 0
M  V30 12032 C 1121.23 2.27403 -3.67303 0
M  V30 12033 C 1120.37 3.52797 -3.97125 0
M  V30 12034 C 1119.41 3.28429 -5.16528 0
M  V30 12035 N 1118.54 4.46022 -5.42226 0
M  V30 12036 H 1123.38 0.772884 -2.87803 0
M  V30 12037 H 1120.92 0.370137 -1.42367 0
M  V30 12038 H 1122.88 3.24025 -2.62799 0
M  V30 12039 H 1121.51 2.82281 -1.5658 0
M  V30 12040 H 1120.56 1.41224 -3.53214 0
M  V30 12041 H 1121.87 2.05373 -4.54558 0
M  V30 12042 H 1121.03 4.38318 -4.19479 0
M  V30 12043 H 1119.77 3.77857 -3.08343 0
M  V30 12044 H 1118.77 2.41299 -4.94019 0
M  V30 12045 H 1120 3.0474 -6.06886 0
M  V30 12046 H 1117.94 4.71205 -4.56401 0
M  V30 12047 H 1117.86 4.27092 -6.23802 0
M  V30 12048 H 1119.13 5.3268 -5.69098 0
M  V30 12049 N 1123.36 1.52689 0.390367 0
M  V30 12050 C 1124.6 1.67335 1.13329 0
M  V30 12051 C 1124.93 0.415068 1.90531 0
M  V30 12052 O 1124.2 -0.570504 1.87409 0
M  V30 12053 H 1122.78 0.616821 0.421356 0
M  V30 12054 H 1125.44 1.89799 0.443 0
M  V30 12055 H 1124.53 2.52314 1.83696 0
M  V30 12056 N 1124.83 -0.648732 1.43629 0
M  V30 12057 C 1126.06 -1.44117 1.49148 0
M  V30 12058 C 1126.48 -1.87767 0.111952 0
M  V30 12059 O 1125.84 -1.57655 -0.895249 0
M  V30 12060 C 1125.89 -2.64938 2.44623 0
M  V30 12061 O 1124.99 -3.64155 1.93559 0
M  V30 12062 H 1124.34 -0.431933 0.504312 0
M  V30 12063 H 1126.87 -0.793439 1.88589 0
M  V30 12064 H 1126.88 -3.12698 2.62076 0
M  V30 12065 H 1125.55 -2.3251 3.44836 0
M  V30 12066 H 1124.13 -3.23322 1.85789 0
M  V30 12067 N 1126.31 -1.30234 -0.887518 0
M  V30 12068 C 1127.54 -1.21955 -1.67755 0
M  V30 12069 C 1127.96 0.214701 -1.86871 0
M  V30 12070 O 1127.32 1.15459 -1.39782 0
M  V30 12071 C 1127.37 -1.95079 -3.03276 0
M  V30 12072 O 1126.47 -1.27615 -3.92158 0
M  V30 12073 H 1125.81 -0.421948 -0.512695 0
M  V30 12074 H 1128.34 -1.72011 -1.10785 0
M  V30 12075 H 1128.35 -2.04004 -3.53336 0
M  V30 12076 H 1127.03 -2.99392 -2.88682 0
M  V30 12077 H 1125.61 -1.27029 -3.50597 0
M  V30 12078 N 1127.79 1.09952 -1.12909 0
M  V30 12079 C 1128.72 2.18477 -0.824014 0
M  V30 12080 C 1129.7 1.68744 0.214324 0
M  V30 12081 O 1130.89 1.94057 0.0744281 0
M  V30 12082 C 1128.02 3.46143 -0.283308 0
M  V30 12083 C 1126.97 4.09178 -1.25528 0
M  V30 12084 C 1126.3 5.31604 -0.574574 0
M  V30 12085 C 1127.6 4.52308 -2.6118 0
M  V30 12086 H 1129.29 2.44254 -1.73148 0
M  V30 12087 H 1126.84 1.17394 -0.833952 0
M  V30 12088 H 1128.79 4.21361 -0.057583 0
M  V30 12089 H 1127.51 3.19872 0.659525 0
M  V30 12090 H 1126.17 3.35973 -1.4669 0
M  V30 12091 H 1125.82 5.01611 0.37356 0
M  V30 12092 H 1125.52 5.74732 -1.22299 0
M  V30 12093 H 1127.04 6.0955 -0.358004 0
M  V30 12094 H 1128.46 5.18776 -2.44017 0
M  V30 12095 H 1126.86 5.06302 -3.22147 0
M  V30 12096 H 1127.93 3.64977 -3.19249 0
M  V30 12097 N 1129.27 0.921757 1.27833 0
M  V30 12098 C 1130.68 0.621102 1.47019 0
M  V30 12099 C 1130.88 -0.831338 1.83551 0
M  V30 12100 O 1129.94 -1.60974 1.94534 0
M  V30 12101 C 1131.25 1.56588 2.56712 0
M  V30 12102 C 1132.8 1.57346 2.70576 0
M  V30 12103 C 1133.28 2.50505 3.8342 0
M  V30 12104 N 1134.77 2.48678 3.90786 0
M  V30 12105 C 1135.5 3.17454 4.77505 0
M  V30 12106 N 1135 3.95588 5.68755 0
M  V30 12107 N 1136.79 3.06501 4.71183 0
M  V30 12108 H 1128.94 1.86085 1.02403 0
M  V30 12109 H 1131.21 0.798595 0.510833 0
M  V30 12110 H 1130.91 2.60175 2.36647 0
M  V30 12111 H 1130.79 1.30305 3.53978 0
M  V30 12112 H 1133.17 0.544919 2.90025 0
M  V30 12113 H 1133.25 1.87675 1.73815 0
M  V30 12114 H 1132.9 3.53466 3.64725 0
M  V30 12115 H 1132.83 2.17474 4.79596 0
M  V30 12116 H 1135.32 1.91928 3.25534 0
M  V30 12117 H 1135.63 4.45066 6.31772 0
M  V30 12118 H 1133.98 3.99692 5.6857 0
M  V30 12119 H 1137.17 2.44958 3.9889 0
M  V30 12120 H 1137.34 3.60372 5.3855 0
M  V30 12121 N 1130.75 -1.41857 0.686609 0
M  V30 12122 C 1131.97 -2.05699 0.222561 0
M  V30 12123 C 1132.39 -1.51636 -1.12481 0
M  V30 12124 O 1131.75 -0.660925 -1.70112 0
M  V30 12125 C 1131.8 -3.61138 0.161818 0
M  V30 12126 O 1131.52 -4.13199 1.45596 0
M  V30 12127 C 1133.02 -4.42112 -0.324304 0
M  V30 12128 H 1130.24 -0.662665 0.10543 0
M  V30 12129 H 1132.78 -1.81788 0.936671 0
M  V30 12130 H 1130.94 -3.8412 -0.503056 0
M  V30 12131 H 1131.35 -5.0717 1.33712 0
M  V30 12132 H 1132.83 -5.51097 -0.315694 0
M  V30 12133 H 1133.3 -4.1756 -1.36164 0
M  V30 12134 H 1133.91 -4.24174 0.309251 0
M  V30 12135 N 1132.22 -0.430739 -1.51599 0
M  V30 12136 C 1133.64 0.0339139 -1.86669 0
M  V30 12137 C 1133.99 1.42533 -1.34829 0
M  V30 12138 O 1133.11 2.04889 -0.696376 0
M  V30 12139 C 1133.71 0.0683174 -3.38731 0
M  V30 12140 C 1132.27 0.477363 -3.73361 0
M  V30 12141 C 1131.41 -0.334258 -2.75278 0
M  V30 12142 H 1134.36 -0.646875 -1.44918 0
M  V30 12143 H 1134.38 0.879179 -3.70204 0
M  V30 12144 H 1133.9 -0.944501 -3.76432 0
M  V30 12145 H 1132 1.49603 -3.41247 0
M  V30 12146 H 1132.11 0.206744 -4.78654 0
M  V30 12147 H 1130.47 0.206503 -2.53861 0
M  V30 12148 H 1131.26 -1.34583 -3.1582 0
M  V30 12149 N 1133.7 1.56767 -0.161869 0
M  V30 12150 C 1134.95 1.96885 0.486215 0
M  V30 12151 C 1135.28 1.04745 1.6353 0
M  V30 12152 O 1134.56 0.0927156 1.94279 0
M  V30 12153 C 1134.84 3.46559 0.97822 0
M  V30 12154 C 1134.69 4.49477 -0.17039 0
M  V30 12155 C 1136.01 3.99093 1.85506 0
M  V30 12156 H 1133.13 0.715857 0.175265 0
M  V30 12157 H 1135.77 1.88399 -0.246098 0
M  V30 12158 H 1133.92 3.53921 1.60225 0
M  V30 12159 H 1135.59 4.54183 -0.807205 0
M  V30 12160 H 1133.84 4.25838 -0.827322 0
M  V30 12161 H 1134.51 5.51578 0.21583 0
M  V30 12162 H 1136.98 3.94303 1.32908 0
M  V30 12163 H 1135.86 5.04255 2.16837 0
M  V30 12164 H 1136.12 3.4234 2.79742 0
M  V30 12165 N 1135.18 -0.111886 1.57202 0
M  V30 12166 C 1136.13 -1.15585 2.01849 0
M  V30 12167 C 1137.12 -1.42458 0.916621 0
M  V30 12168 O 1138.33 -1.42337 1.10182 0
M  V30 12169 H 1134.7 -0.389885 0.643035 0
M  V30 12170 H 1136.67 -0.752854 2.88747 0
M  V30 12171 C 1135.42 -2.47247 2.44467 0
M  V30 12172 H 1134.75 -2.27409 3.28824 0
M  V30 12173 H 1136.19 -3.18837 2.79497 0
M  V30 12174 C 1134.65 -3.10339 1.31115 0
M  V30 12175 O 1135.18 -3.96713 0.631029 0
M  V30 12176 N 1133.38 -2.70326 1.0664 0
M  V30 12177 H 1132.93 -2.00182 1.62126 0
M  V30 12178 H 1132.89 -3.12869 0.309944 0
M  V30 12179 N 1136.66 -1.52894 -0.382264 0
M  V30 12180 C 1137.59 -1.81122 -1.47367 0
M  V30 12181 C 1138.57 -0.663653 -1.56619 0
M  V30 12182 O 1139.75 -0.911898 -1.71459 0
M  V30 12183 C 1136.88 -1.98615 -2.84902 0
M  V30 12184 C 1135.84 -3.14328 -2.90485 0
M  V30 12185 C 1135.16 -3.17086 -4.30535 0
M  V30 12186 C 1136.46 -4.53263 -2.59519 0
M  V30 12187 H 1138.16 -2.72518 -1.23993 0
M  V30 12188 H 1135.7 -1.3113 -0.595049 0
M  V30 12189 H 1137.66 -2.16946 -3.61265 0
M  V30 12190 H 1136.38 -1.03915 -3.09628 0
M  V30 12191 H 1135.04 -2.95791 -2.16572 0
M  V30 12192 H 1134.69 -2.20055 -4.52311 0
M  V30 12193 H 1134.39 -3.94821 -4.3519 0
M  V30 12194 H 1135.91 -3.3758 -5.08795 0
M  V30 12195 H 1137.33 -4.71867 -3.25598 0
M  V30 12196 H 1135.72 -5.33115 -2.75514 0
M  V30 12197 H 1136.79 -4.59516 -1.54831 0
M  V30 12198 N 1138.14 0.641106 -1.43971 0
M  V30 12199 C 1139.1 1.73539 -1.49723 0
M  V30 12200 C 1140.1 1.56235 -0.380438 0
M  V30 12201 O 1141.29 1.61912 -0.642673 0
M  V30 12202 C 1138.42 3.1253 -1.36153 0
M  V30 12203 H 1139.62 1.69816 -2.47189 0
M  V30 12204 H 1137.17 0.853867 -1.30915 0
M  V30 12205 H 1137.9 3.21856 -0.39742 0
M  V30 12206 H 1137.69 3.26496 -2.17124 0
M  V30 12207 H 1139.18 3.92303 -1.43138 0
M  V30 12208 N 1139.62 1.30703 0.880598 0
M  V30 12209 C 1140.86 1.19955 1.63519 0
M  V30 12210 C 1141.19 -0.244214 1.92658 0
M  V30 12211 O 1140.47 -1.17412 1.55063 0
M  V30 12212 C 1140.75 2.03302 2.97221 0
M  V30 12213 C 1140.61 3.55921 2.75028 0
M  V30 12214 C 1141.92 1.87421 3.98198 0
M  V30 12215 H 1139.04 0.43712 0.593376 0
M  V30 12216 H 1141.69 1.60382 1.01871 0
M  V30 12217 H 1139.84 1.68953 3.49839 0
M  V30 12218 H 1141.51 4.00352 2.29164 0
M  V30 12219 H 1139.75 3.79885 2.09452 0
M  V30 12220 H 1140.42 4.09533 3.70117 0
M  V30 12221 H 1142.9 2.17459 3.54755 0
M  V30 12222 H 1141.77 2.48057 4.89652 0
M  V30 12223 H 1142.03 0.834563 4.34151 0
M  V30 12224 N 1141.09 -1.09351 1.1349 0
M  V30 12225 C 1142.02 -2.18037 0.835588 0
M  V30 12226 C 1143 -1.68856 -0.205373 0
M  V30 12227 O 1144.19 -1.94094 -0.0641357 0
M  V30 12228 C 1141.32 -3.45987 0.301661 0
M  V30 12229 C 1140.27 -4.08507 1.27696 0
M  V30 12230 C 1139.6 -5.31292 0.602758 0
M  V30 12231 C 1140.9 -4.50916 2.63575 0
M  V30 12232 H 1142.59 -2.43332 1.74441 0
M  V30 12233 H 1140.14 -1.1695 0.840166 0
M  V30 12234 H 1142.09 -4.21324 0.079928 0
M  V30 12235 H 1140.82 -3.20217 -0.642552 0
M  V30 12236 H 1139.48 -3.3519 1.4847 0
M  V30 12237 H 1139.12 -5.01802 -0.346953 0
M  V30 12238 H 1138.82 -5.74075 1.25345 0
M  V30 12239 H 1140.35 -6.09351 0.390325 0
M  V30 12240 H 1141.76 -5.17474 2.46765 0
M  V30 12241 H 1140.16 -5.04586 3.24827 0
M  V30 12242 H 1141.23 -3.63279 3.2118 0
M  V30 12243 N 1142.57 -0.928524 -1.27343 0
M  V30 12244 C 1143.52 -0.426873 -2.26818 0
M  V30 12245 C 1144.49 0.506663 -1.58184 0
M  V30 12246 O 1145.67 0.425641 -1.85992 0
M  V30 12247 C 1142.81 0.313523 -3.43673 0
M  V30 12248 C 1141.93 -0.65422 -4.27018 0
M  V30 12249 C 1141.06 0.106102 -5.31094 0
M  V30 12250 C 1140.1 -0.854293 -6.06109 0
M  V30 12251 N 1139.24 -0.126545 -7.01986 0
M  V30 12252 H 1144.08 -1.28014 -2.69103 0
M  V30 12253 H 1141.61 -0.642515 -1.32326 0
M  V30 12254 H 1143.57 0.75912 -4.10236 0
M  V30 12255 H 1142.2 1.13102 -3.02337 0
M  V30 12256 H 1141.25 -1.21834 -3.60362 0
M  V30 12257 H 1142.57 -1.38817 -4.79094 0
M  V30 12258 H 1141.72 0.611577 -6.0361 0
M  V30 12259 H 1140.46 0.873009 -4.79823 0
M  V30 12260 H 1139.46 -1.37101 -5.32432 0
M  V30 12261 H 1140.69 -1.621 -6.5947 0
M  V30 12262 H 1138.64 0.622102 -6.53044 0
M  V30 12263 H 1138.55 -0.800046 -7.51755 0
M  V30 12264 H 1139.82 0.358251 -7.78676 0
M  V30 12265 N 1144.05 1.41491 -0.694123 0
M  V30 12266 C 1144.98 2.33462 -0.0422169 0
M  V30 12267 C 1145.96 1.51739 0.76872 0
M  V30 12268 O 1147.15 1.8028 0.721985 0
M  V30 12269 C 1144.28 3.35545 0.895925 0
M  V30 12270 C 1143.23 4.27568 0.192188 0
M  V30 12271 C 1142.56 5.20014 1.24459 0
M  V30 12272 C 1143.86 5.1376 -0.940626 0
M  V30 12273 H 1145.55 2.88225 -0.810363 0
M  V30 12274 H 1143.1 1.38586 -0.39114 0
M  V30 12275 H 1145.05 3.9881 1.36121 0
M  V30 12276 H 1143.77 2.79129 1.69572 0
M  V30 12277 H 1142.43 3.65726 -0.25305 0
M  V30 12278 H 1142.08 4.59913 2.03687 0
M  V30 12279 H 1141.78 5.82417 0.778734 0
M  V30 12280 H 1143.3 5.86155 1.71041 0
M  V30 12281 H 1144.72 5.70601 -0.555692 0
M  V30 12282 H 1143.11 5.85097 -1.33349 0
M  V30 12283 H 1144.18 4.51011 -1.78093 0
M  V30 12284 N 1145.53 0.438773 1.51369 0
M  V30 12285 C 1146.75 -0.128221 2.07003 0
M  V30 12286 C 1147.18 -1.3557 1.30393 0
M  V30 12287 O 1146.54 -1.7804 0.342283 0
M  V30 12288 C 1146.58 -0.42761 3.58056 0
M  V30 12289 O 1145.69 -1.51382 3.83611 0
M  V30 12290 H 1145.03 -0.00123679 0.663999 0
M  V30 12291 H 1147.56 0.62052 1.94963 0
M  V30 12292 H 1147.57 -0.677645 4.02333 0
M  V30 12293 H 1146.24 0.469535 4.13241 0
M  V30 12294 H 1144.82 -1.25363 3.51196 0
M  V30 12295 N 1147.01 -1.56678 0.170181 0
M  V30 12296 C 1147.92 -2.21496 -0.773079 0
M  V30 12297 C 1148.93 -1.20626 -1.25401 0
M  V30 12298 O 1150.11 -1.53283 -1.30638 0
M  V30 12299 C 1147.17 -2.8421 -1.98558 0
M  V30 12300 C 1146.23 -4.00278 -1.55164 0
M  V30 12301 C 1145.47 -4.59992 -2.70634 0
M  V30 12302 O 1145.69 -4.18595 -3.87472 0
M  V30 12303 O 1144.62 -5.49881 -2.44775 0
M  V30 12304 H 1148.45 -3.02659 -0.251195 0
M  V30 12305 H 1146.03 -1.49288 -0.0579621 0
M  V30 12306 H 1147.92 -3.2398 -2.69472 0
M  V30 12307 H 1146.59 -2.06045 -2.49654 0
M  V30 12308 H 1145.5 -3.6518 -0.812038 0
M  V30 12309 H 1146.83 -4.80033 -1.0876 0
M  V30 12310 N 1148.48 0.103547 -1.57259 0
M  V30 12311 C 1149.45 1.11039 -2.00507 0
M  V30 12312 C 1150.45 1.33432 -0.897361 0
M  V30 12313 O 1151.64 1.29688 -1.16304 0
M  V30 12314 C 1148.77 2.46144 -2.35851 0
M  V30 12315 H 1149.96 0.738332 -2.90669 0
M  V30 12316 H 1147.51 0.348334 -1.52369 0
M  V30 12317 H 1148.25 2.88242 -1.48617 0
M  V30 12318 H 1148.03 2.31241 -3.16654 0
M  V30 12319 H 1149.52 3.18577 -2.69997 0
M  V30 12320 N 1149.96 1.53094 0.37415 0
M  V30 12321 C 1151.21 1.68527 1.11548 0
M  V30 12322 C 1151.53 0.435253 1.9008 0
M  V30 12323 O 1150.8 -0.550594 1.88003 0
M  V30 12324 H 1149.38 0.621255 0.41479 0
M  V30 12325 H 1152.04 1.90258 0.422844 0
M  V30 12326 H 1151.14 2.54248 1.81009 0
M  V30 12327 N 1151.44 -0.633461 1.44309 0
M  V30 12328 C 1152.69 -1.39513 1.47187 0
M  V30 12329 C 1153.02 -1.93926 0.103186 0
M  V30 12330 O 1152.29 -1.73512 -0.878853 0
M  V30 12331 C 1152.58 -2.56213 2.53036 0
M  V30 12332 C 1152.43 -2.07164 3.99253 0
M  V30 12333 C 1153.75 -3.58403 2.55412 0
M  V30 12334 H 1150.87 -0.505936 0.535908 0
M  V30 12335 H 1153.51 -0.716445 1.75975 0
M  V30 12336 H 1151.66 -3.14111 2.28619 0
M  V30 12337 H 1153.33 -1.54115 4.34795 0
M  V30 12338 H 1151.57 -1.38367 4.11141 0
M  V30 12339 H 1152.25 -2.91172 4.6896 0
M  V30 12340 H 1154.72 -3.103 2.77224 0
M  V30 12341 H 1153.6 -4.37581 3.31382 0
M  V30 12342 H 1153.86 -4.12316 1.59523 0
M  V30 12343 N 1152.92 -1.31168 -0.873655 0
M  V30 12344 C 1153.85 -1.21094 -1.99646 0
M  V30 12345 C 1154.83 -0.0989684 -1.69812 0
M  V30 12346 O 1156.01 -0.282939 -1.92128 0
M  V30 12347 C 1153.14 -0.913684 -3.35066 0
M  V30 12348 C 1152.1 -1.98482 -3.79195 0
M  V30 12349 C 1151.42 -1.54033 -5.12033 0
M  V30 12350 C 1152.72 -3.39745 -3.96699 0
M  V30 12351 H 1154.42 -2.1503 -2.08333 0
M  V30 12352 H 1151.96 -1.03521 -1.00097 0
M  V30 12353 H 1153.92 -0.829821 -4.13149 0
M  V30 12354 H 1152.64 0.0613471 -3.26542 0
M  V30 12355 H 1151.3 -2.05851 -3.03349 0
M  V30 12356 H 1150.95 -0.553261 -4.99948 0
M  V30 12357 H 1150.65 -2.25688 -5.4253 0
M  V30 12358 H 1152.17 -1.47047 -5.92629 0
M  V30 12359 H 1153.59 -3.35071 -4.65188 0
M  V30 12360 H 1151.98 -4.09585 -4.38589 0
M  V30 12361 H 1153.05 -3.80802 -3.00196 0
M  V30 12362 N 1154.4 1.08748 -1.14068 0
M  V30 12363 C 1155.67 1.7769 -0.81766 0
M  V30 12364 C 1156.05 1.99522 0.689501 0
M  V30 12365 O 1155.4 1.60222 1.62914 0
M  V30 12366 C 1155.61 3.09517 -1.61245 0
M  V30 12367 C 1156.96 3.84108 -1.80958 0
M  V30 12368 O 1157.98 3.19289 -1.57902 0
M  V30 12369 O 1156.84 5.00491 -2.19479 0
M  V30 12370 H 1153.94 0.770953 -0.299265 0
M  V30 12371 H 1156.48 1.15242 -1.24569 0
M  V30 12372 H 1155.25 2.89155 -2.63638 0
M  V30 12373 H 1154.88 3.79692 -1.17982 0
M  V30 12374 N 1155.87 0.935264 1.26849 0
M  V30 12375 C 1156.82 0.438896 2.26588 0
M  V30 12376 C 1157.79 -0.498267 1.5845 0
M  V30 12377 O 1158.98 -0.415771 1.86215 0
M  V30 12378 C 1156.12 -0.295293 3.43834 0
M  V30 12379 C 1155.23 0.676857 4.26665 0
M  V30 12380 C 1154.36 -0.0779349 5.31143 0
M  V30 12381 C 1153.4 0.886425 6.05648 0
M  V30 12382 N 1152.54 0.163771 7.01909 0
M  V30 12383 H 1157.38 1.29439 2.6842 0
M  V30 12384 H 1154.92 0.649523 1.31983 0
M  V30 12385 H 1156.88 -0.737354 4.10632 0
M  V30 12386 H 1155.51 -1.11497 3.02933 0
M  V30 12387 H 1154.56 1.23744 3.5971 0
M  V30 12388 H 1155.87 1.41355 4.78351 0
M  V30 12389 H 1155.02 -0.579557 6.03926 0
M  V30 12390 H 1153.76 -0.84755 4.80279 0
M  V30 12391 H 1152.77 1.39923 5.31697 0
M  V30 12392 H 1153.99 1.65595 6.58601 0
M  V30 12393 H 1151.94 -0.58746 6.53364 0
M  V30 12394 H 1151.86 0.839902 7.5132 0
M  V30 12395 H 1153.12 -0.316951 7.78855 0
M  V30 12396 N 1157.35 -1.41121 0.701616 0
M  V30 12397 C 1158.28 -2.33436 0.0545974 0
M  V30 12398 C 1159.26 -1.52144 -0.760662 0
M  V30 12399 O 1160.45 -1.80661 -0.712414 0
M  V30 12400 C 1157.58 -3.36015 -0.878117 0
M  V30 12401 C 1156.53 -4.27664 -0.169511 0
M  V30 12402 C 1155.86 -5.20666 -1.21699 0
M  V30 12403 C 1157.16 -5.13254 0.967859 0
M  V30 12404 H 1158.85 -2.87791 0.825637 0
M  V30 12405 H 1156.4 -1.38377 0.398484 0
M  V30 12406 H 1158.35 -3.99526 -1.34004 0
M  V30 12407 H 1157.08 -2.80024 -1.68089 0
M  V30 12408 H 1155.73 -3.65586 0.272441 0
M  V30 12409 H 1155.38 -4.60987 -2.01246 0
M  V30 12410 H 1155.08 -5.82822 -0.747836 0
M  V30 12411 H 1156.61 -5.87053 -1.6793 0
M  V30 12412 H 1158.02 -5.70298 0.585944 0
M  V30 12413 H 1156.42 -5.84381 1.3645 0
M  V30 12414 H 1157.49 -4.5006 1.80483 0
M  V30 12415 N 1158.83 -0.446794 -1.51134 0
M  V30 12416 C 1159.78 0.359865 -2.27977 0
M  V30 12417 C 1160.75 1.0086 -1.31972 0
M  V30 12418 O 1161.93 1.02569 -1.60886 0
M  V30 12419 C 1159.07 1.44978 -3.1317 0
M  V30 12420 C 1158.19 0.818243 -4.2418 0
M  V30 12421 C 1157.32 1.884 -4.96668 0
M  V30 12422 C 1156.36 1.2314 -5.99586 0
M  V30 12423 N 1155.5 2.23894 -6.65444 0
M  V30 12424 H 1160.34 -0.301775 -2.96468 0
M  V30 12425 H 1157.87 -0.160666 -1.4622 0
M  V30 12426 H 1159.83 2.09308 -3.60896 0
M  V30 12427 H 1158.46 2.08092 -2.46775 0
M  V30 12428 H 1157.51 0.0629889 -3.80348 0
M  V30 12429 H 1158.83 0.301885 -4.97886 0
M  V30 12430 H 1157.98 2.6037 -5.4799 0
M  V30 12431 H 1156.72 2.43411 -4.22614 0
M  V30 12432 H 1155.72 0.497215 -5.47547 0
M  V30 12433 H 1156.95 0.688505 -6.75601 0
M  V30 12434 H 1154.89 2.77967 -5.94197 0
M  V30 12435 H 1154.81 1.77176 -7.34945 0
M  V30 12436 H 1156.08 2.95318 -7.21393 0
M  V30 12437 N 1160.31 1.56586 -0.178487 0
M  V30 12438 C 1161.26 2.19631 0.765822 0
M  V30 12439 C 1162.25 1.16247 1.23219 0
M  V30 12440 O 1163.46 1.34431 1.19701 0
M  V30 12441 H 1159.83 0.703661 0.265264 0
M  V30 12442 H 1161.8 2.97659 0.210207 0
M  V30 12443 C 1160.55 2.85686 1.98188 0
M  V30 12444 H 1159.87 3.64971 1.63206 0
M  V30 12445 H 1161.31 3.33259 2.62134 0
M  V30 12446 C 1159.77 1.85837 2.81009 0
M  V30 12447 O 1160.3 1.3483 3.78396 0
M  V30 12448 N 1158.51 1.54435 2.46167 0
M  V30 12449 H 1158.06 1.96107 1.67032 0
M  V30 12450 H 1158.01 0.878808 3.01868 0
M  V30 12451 N 1161.79 -0.095206 1.57312 0
M  V30 12452 C 1162.73 -1.11551 2.02052 0
M  V30 12453 C 1163.7 -1.39808 0.896818 0
M  V30 12454 O 1164.89 -1.51273 1.1628 0
M  V30 12455 C 1162.03 -2.43056 2.44985 0
M  V30 12456 C 1161.14 -2.21531 3.70875 0
M  V30 12457 C 1160.28 -3.46434 4.02687 0
M  V30 12458 C 1159.32 -3.2017 5.21687 0
M  V30 12459 N 1158.45 -4.37339 5.49253 0
M  V30 12460 H 1163.29 -0.727 2.88996 0
M  V30 12461 H 1160.83 -0.347441 1.42938 0
M  V30 12462 H 1162.79 -3.19803 2.67921 0
M  V30 12463 H 1161.42 -2.79754 1.61051 0
M  V30 12464 H 1160.47 -1.35587 3.55416 0
M  V30 12465 H 1161.78 -1.98116 4.57768 0
M  V30 12466 H 1160.94 -4.31589 4.26399 0
M  V30 12467 H 1159.67 -3.72904 3.14315 0
M  V30 12468 H 1158.68 -2.33409 4.97796 0
M  V30 12469 H 1159.9 -2.95047 6.11657 0
M  V30 12470 H 1157.85 -4.63885 4.6384 0
M  V30 12471 H 1157.77 -4.17114 6.30517 0
M  V30 12472 H 1159.04 -5.23559 5.775 0
M  V30 12473 N 1163.26 -1.53291 -0.366026 0
M  V30 12474 C 1164.51 -1.70649 -1.10683 0
M  V30 12475 C 1164.87 -0.45249 -1.87003 0
M  V30 12476 O 1164.16 0.55448 -1.83401 0
M  V30 12477 C 1164.35 -2.89547 -2.09517 0
M  V30 12478 C 1164.18 -4.26389 -1.42907 0
M  V30 12479 C 1162.95 -4.91247 -1.18339 0
M  V30 12480 C 1165.15 -5.06939 -0.867015 0
M  V30 12481 N 1163.13 -6.12015 -0.480746 0
M  V30 12482 C 1164.5 -6.19304 -0.29371 0
M  V30 12483 C 1166.56 -4.91978 -0.765659 0
M  V30 12484 C 1165.26 -7.18342 0.371063 0
M  V30 12485 C 1167.29 -5.91289 -0.114668 0
M  V30 12486 C 1166.65 -7.02975 0.447764 0
M  V30 12487 H 1162.75 -0.677704 -0.390181 0
M  V30 12488 H 1165.33 -1.90687 -0.393276 0
M  V30 12489 H 1163.5 -2.71049 -2.78185 0
M  V30 12490 H 1165.23 -2.95731 -2.76271 0
M  V30 12491 H 1161.99 -4.50387 -1.46455 0
M  V30 12492 H 1162.41 -6.76845 -0.144802 0
M  V30 12493 H 1167.06 -4.05817 -1.18626 0
M  V30 12494 H 1164.77 -8.04094 0.803615 0
M  V30 12495 H 1168.36 -5.81788 -0.037179 0
M  V30 12496 H 1167.24 -7.78503 0.943529 0
M  V30 12497 N 1164.74 0.6258 -1.44643 0
M  V30 12498 C 1165.99 1.38546 -1.48918 0
M  V30 12499 C 1166.34 1.92013 -0.122019 0
M  V30 12500 O 1165.64 1.71038 0.863521 0
M  V30 12501 C 1165.83 2.56466 -2.48917 0
M  V30 12502 C 1165.66 2.14545 -3.95222 0
M  V30 12503 C 1164.43 2.01572 -4.63354 0
M  V30 12504 C 1166.63 1.73128 -4.84284 0
M  V30 12505 N 1164.61 1.53269 -5.94459 0
M  V30 12506 C 1165.98 1.36109 -6.04875 0
M  V30 12507 C 1168.04 1.60556 -4.71303 0
M  V30 12508 C 1166.74 0.877756 -7.13924 0
M  V30 12509 C 1168.76 1.13627 -5.80382 0
M  V30 12510 C 1168.13 0.775617 -7.00117 0
M  V30 12511 H 1164.23 0.501582 -0.599949 0
M  V30 12512 H 1166.81 0.717359 -1.81003 0
M  V30 12513 H 1164.98 3.20897 -2.18814 0
M  V30 12514 H 1166.71 3.23283 -2.43454 0
M  V30 12515 H 1163.47 2.22192 -4.18244 0
M  V30 12516 H 1163.89 1.31402 -6.64125 0
M  V30 12517 H 1168.53 1.8707 -3.79163 0
M  V30 12518 H 1166.25 0.60014 -8.05868 0
M  V30 12519 H 1169.84 1.04351 -5.72365 0
M  V30 12520 H 1168.72 0.418047 -7.83085 0
M  V30 12521 N 1166.22 1.31629 0.866686 0
M  V30 12522 C 1167.45 1.24293 1.6503 0
M  V30 12523 C 1167.86 -0.193556 1.88207 0
M  V30 12524 O 1167.2 -1.13712 1.44275 0
M  V30 12525 C 1167.26 1.92032 3.03914 0
M  V30 12526 C 1166.93 3.41373 3.03831 0
M  V30 12527 C 1167.92 4.37064 2.81551 0
M  V30 12528 C 1165.61 3.83118 3.24848 0
M  V30 12529 C 1167.6 5.72474 2.80272 0
M  V30 12530 C 1165.29 5.18639 3.23197 0
M  V30 12531 C 1166.29 6.13128 3.00936 0
M  V30 12532 O 1165.98 7.46172 2.99137 0
M  V30 12533 H 1165.71 0.430569 0.521139 0
M  V30 12534 H 1168.26 1.74105 1.0898 0
M  V30 12535 H 1166.49 1.36774 3.61704 0
M  V30 12536 H 1168.18 1.78567 3.64512 0
M  V30 12537 H 1168.95 4.06142 2.65093 0
M  V30 12538 H 1164.83 3.10001 3.41204 0
M  V30 12539 H 1168.37 6.46199 2.62816 0
M  V30 12540 H 1164.27 5.49196 3.39197 0
M  V30 12541 H 1165.04 7.55385 3.15175 0
M  V30 12542 N 1167.7 -1.08142 1.14644 0
M  V30 12543 C 1168.98 -1.77254 0.827071 0
M  V30 12544 C 1169.36 -1.99885 -0.67891 0
M  V30 12545 O 1168.7 -1.61084 -1.62062 0
M  V30 12546 C 1168.91 -3.08658 1.62884 0
M  V30 12547 C 1170.26 -3.83143 1.82993 0
M  V30 12548 O 1171.29 -3.18447 1.59593 0
M  V30 12549 O 1170.15 -4.9932 2.2213 0
M  V30 12550 H 1167.24 -0.769356 0.30335 0
M  V30 12551 H 1169.79 -1.1458 1.25178 0
M  V30 12552 H 1168.56 -2.87753 2.65168 0
M  V30 12553 H 1168.18 -3.79061 1.19994 0
M  V30 12554 N 1169.18 -0.941978 -1.26351 0
M  V30 12555 C 1170.12 -0.450906 -2.26353 0
M  V30 12556 C 1171.09 0.489857 -1.58712 0
M  V30 12557 O 1172.28 0.40589 -1.86433 0
M  V30 12558 C 1169.42 0.277054 -3.43986 0
M  V30 12559 C 1168.53 -0.699474 -4.263 0
M  V30 12560 C 1167.67 0.0497661 -5.31177 0
M  V30 12561 C 1166.71 -0.918531 -6.05169 0
M  V30 12562 N 1165.84 -0.200993 -7.01812 0
M  V30 12563 H 1170.68 -1.30861 -2.6773 0
M  V30 12564 H 1168.22 -0.656514 -1.31637 0
M  V30 12565 H 1170.18 0.715567 -4.11018 0
M  V30 12566 H 1168.81 1.09889 -3.0352 0
M  V30 12567 H 1167.86 -1.2565 -3.59049 0
M  V30 12568 H 1169.17 -1.4389 -4.77595 0
M  V30 12569 H 1168.33 0.547521 -6.04224 0
M  V30 12570 H 1167.07 0.822068 -4.80722 0
M  V30 12571 H 1166.07 -1.4274 -5.30947 0
M  V30 12572 H 1167.3 -1.69085 -6.57713 0
M  V30 12573 H 1165.24 0.552803 -6.53667 0
M  V30 12574 H 1165.16 -0.879735 -7.50864 0
M  V30 12575 H 1166.43 0.275642 -7.79012 0
M  V30 12576 N 1170.66 1.40747 -0.709091 0
M  V30 12577 C 1171.9 2.00606 -0.245324 0
M  V30 12578 C 1172.22 1.56489 1.16346 0
M  V30 12579 O 1171.49 0.801456 1.78755 0
M  V30 12580 H 1170.07 0.741833 -0.0877098 0
M  V30 12581 H 1172.74 1.72178 -0.913271 0
M  V30 12582 H 1171.83 3.10901 -0.273322 0
M  V30 12583 N 1172.13 0.454803 1.50895 0
M  V30 12584 C 1173.04 -0.353495 2.31921 0
M  V30 12585 C 1174.06 -1.01136 1.41589 0
M  V30 12586 O 1175.24 -1.00291 1.74653 0
M  V30 12587 C 1172.3 -1.43032 3.15821 0
M  V30 12588 C 1171.36 -0.790763 4.21954 0
M  V30 12589 C 1170.59 -1.81628 5.01843 0
M  V30 12590 O 1170.82 -3.04078 4.8259 0
M  V30 12591 O 1169.75 -1.39713 5.8546 0
M  V30 12592 H 1173.58 0.308463 3.02129 0
M  V30 12593 H 1171.16 0.216971 1.47816 0
M  V30 12594 H 1173.04 -2.05444 3.67927 0
M  V30 12595 H 1171.72 -2.07605 2.48358 0
M  V30 12596 H 1170.63 -0.128127 3.73881 0
M  V30 12597 H 1171.96 -0.188251 4.9184 0
M  V30 12598 N 1173.61 -1.56489 0.186789 0
M  V30 12599 C 1174.85 -1.99239 -0.456427 0
M  V30 12600 C 1175.22 -1.07076 -1.5937 0
M  V30 12601 O 1176.42 -1.39028 -2.30054 0
M  V30 12602 C 1174.69 -3.45553 -0.912587 0
M  V30 12603 S 1176.25 -4.1033 -1.55481 0
M  V30 12604 H 1173.06 -0.695792 -0.146267 0
M  V30 12605 H 1175.67 -1.93369 0.287899 0
M  V30 12606 H 1174.37 -4.10332 -0.0746877 0
M  V30 12607 H 1173.9 -3.55222 -1.69058 0
M  V30 12608 H 1175.92 -4.06653 -2.84338 0
M  V30 12609 N 1175.09 0.086862 -1.5736 0
M  V30 12610 C 1176.34 0.787281 -1.86135 0
M  V30 12611 C 1176.66 1.78866 -0.776667 0
M  V30 12612 O 1175.93 1.94915 0.19625 0
M  V30 12613 H 1174.51 0.293744 -0.686821 0
M  V30 12614 H 1177.17 0.0665326 -1.94786 0
M  V30 12615 H 1176.27 1.3128 -2.83147 0
M  V30 12616 N 1176.57 1.53483 0.357892 0
M  V30 12617 C 1177.98 1.61641 0.934289 0
M  V30 12618 C 1178.33 0.488655 1.90017 0
M  V30 12619 O 1177.45 -0.38378 2.1297 0
M  V30 12620 C 1178.05 2.92987 1.7013 0
M  V30 12621 C 1176.61 3.03456 2.22692 0
M  V30 12622 C 1175.76 2.56992 1.04165 0
M  V30 12623 H 1178.71 1.58112 0.136452 0
M  V30 12624 H 1178.73 2.81221 2.5631 0
M  V30 12625 H 1178.24 3.75047 0.998056 0
M  V30 12626 H 1176.34 2.25999 2.96235 0
M  V30 12627 H 1176.45 4.08673 2.50046 0
M  V30 12628 H 1174.82 2.12052 1.41088 0
M  V30 12629 H 1175.6 3.41477 0.353272 0
M  V30 12630 N 1178.05 -0.61812 1.44973 0
M  V30 12631 C 1178.99 -1.72942 1.52838 0
M  V30 12632 C 1179.96 -1.6181 0.375056 0
M  V30 12633 O 1181.15 -1.81544 0.587075 0
M  V30 12634 C 1178.29 -3.11228 1.49101 0
M  V30 12635 C 1177.4 -3.33243 2.74906 0
M  V30 12636 C 1176.54 -4.61574 2.62912 0
M  V30 12637 C 1175.57 -4.76811 3.8382 0
M  V30 12638 N 1174.71 -5.96432 3.70424 0
M  V30 12639 H 1179.55 -1.65556 2.47781 0
M  V30 12640 H 1177.09 -0.807411 1.2296 0
M  V30 12641 H 1179.05 -3.9122 1.44923 0
M  V30 12642 H 1177.68 -3.17598 0.577163 0
M  V30 12643 H 1176.73 -2.471 2.89216 0
M  V30 12644 H 1178.04 -3.40377 3.64616 0
M  V30 12645 H 1177.19 -5.49746 2.56641 0
M  V30 12646 H 1175.93 -4.5682 1.70784 0
M  V30 12647 H 1174.94 -3.87066 3.90461 0
M  V30 12648 H 1176.16 -4.83371 4.77001 0
M  V30 12649 H 1174.11 -5.92742 2.81057 0
M  V30 12650 H 1174.03 -6.0468 4.5376 0
M  V30 12651 H 1175.29 -6.8713 3.68067 0
M  V30 12652 N 1179.52 -1.32087 -0.859693 0
M  V30 12653 C 1180.8 -1.12984 -1.59668 0
M  V30 12654 C 1181.18 0.311661 -2.08787 0
M  V30 12655 O 1180.53 1.30746 -1.87397 0
M  V30 12656 C 1180.74 -2.15305 -2.74672 0
M  V30 12657 C 1182.09 -2.48371 -3.44379 0
M  V30 12658 O 1183.11 -2.13811 -2.84891 0
M  V30 12659 O 1181.97 -3.07594 -4.51717 0
M  V30 12660 H 1179.06 -0.435657 -0.702945 0
M  V30 12661 H 1181.61 -1.43601 -0.90426 0
M  V30 12662 H 1180.38 -3.12223 -2.35866 0
M  V30 12663 H 1180 -1.85653 -3.51594 0
M  V30 12664 N 1181 1.07532 -1.15215 0
M  V30 12665 C 1182.23 1.84356 -0.950139 0
M  V30 12666 C 1182.65 1.81429 0.496502 0
M  V30 12667 O 1182.01 1.20589 1.35381 0
M  V30 12668 C 1182.06 3.29425 -1.46669 0
M  V30 12669 O 1181.16 4.07008 -0.664674 0
M  V30 12670 H 1180.5 0.570921 -0.339036 0
M  V30 12671 H 1183.03 1.35665 -1.53154 0
M  V30 12672 H 1183.04 3.8026 -1.47873 0
M  V30 12673 H 1181.72 3.3087 -2.51988 0
M  V30 12674 H 1180.29 3.65841 -0.72211 0
M  V30 12675 N 1182.48 0.948665 1.2585 0
M  V30 12676 C 1183.73 0.59905 1.93018 0
M  V30 12677 C 1184.05 -0.865813 1.74725 0
M  V30 12678 O 1183.32 -1.61602 1.10732 0
M  V30 12679 H 1181.9 0.218565 0.71431 0
M  V30 12680 H 1184.56 1.20561 1.53137 0
M  V30 12681 H 1183.66 0.823244 3.01047 0
M  V30 12682 N 1183.96 -1.40369 0.716545 0
M  V30 12683 C 1185.18 -2.05704 0.264729 0
M  V30 12684 C 1185.61 -1.53634 -1.08527 0
M  V30 12685 O 1184.97 -0.67212 -1.68381 0
M  V30 12686 C 1185.01 -3.59692 0.255778 0
M  V30 12687 O 1184.12 -4.05286 -0.762686 0
M  V30 12688 H 1183.46 -0.652301 0.124092 0
M  V30 12689 H 1185.99 -1.7975 0.977295 0
M  V30 12690 H 1186 -4.07892 0.0937944 0
M  V30 12691 H 1184.67 -3.96955 1.24095 0
M  V30 12692 H 1183.25 -3.68543 -0.568347 0
M  V30 12693 N 1185.44 -0.462799 -1.50652 0
M  V30 12694 C 1186.38 0.335664 -2.28346 0
M  V30 12695 C 1187.35 0.994541 -1.33034 0
M  V30 12696 O 1188.54 1.00857 -1.61964 0
M  V30 12697 C 1185.68 1.41648 -3.1469 0
M  V30 12698 C 1184.79 0.773207 -4.25024 0
M  V30 12699 C 1183.93 1.83121 -4.98638 0
M  V30 12700 C 1182.97 1.16774 -6.00858 0
M  V30 12701 N 1182.1 2.16823 -6.67782 0
M  V30 12702 H 1186.94 -0.333202 -2.96131 0
M  V30 12703 H 1184.48 -0.176166 -1.46041 0
M  V30 12704 H 1186.44 2.05468 -3.63096 0
M  V30 12705 H 1185.07 2.05462 -2.48968 0
M  V30 12706 H 1184.12 0.0226444 -3.80393 0
M  V30 12707 H 1185.43 0.249061 -4.98178 0
M  V30 12708 H 1184.59 2.54543 -5.5072 0
M  V30 12709 H 1183.32 2.38915 -4.25172 0
M  V30 12710 H 1182.33 0.439112 -5.48044 0
M  V30 12711 H 1183.55 0.616809 -6.76293 0
M  V30 12712 H 1181.5 2.71649 -5.97112 0
M  V30 12713 H 1181.42 1.69371 -7.36783 0
M  V30 12714 H 1182.69 2.8765 -7.24484 0
M  V30 12715 N 1186.91 1.56388 -0.195085 0
M  V30 12716 C 1188.19 1.89329 0.491303 0
M  V30 12717 C 1188.57 1.10861 1.79647 0
M  V30 12718 O 1187.92 0.209696 2.27536 0
M  V30 12719 C 1188.13 3.417 0.710096 0
M  V30 12720 C 1189.48 4.11931 1.02947 0
M  V30 12721 O 1190.5 3.4715 0.797817 0
M  V30 12722 O 1189.36 5.26423 1.46767 0
M  V30 12723 H 1186.45 0.786335 0.256137 0
M  V30 12724 H 1189 1.68061 -0.235298 0
M  V30 12725 H 1187.77 3.90727 -0.211604 0
M  V30 12726 H 1187.4 3.6866 1.48916 0
M  V30 12727 N 1188.39 -0.0785156 1.57404 0
M  V30 12728 C 1189.34 -1.09402 2.03224 0
M  V30 12729 C 1190.31 -1.38849 0.911596 0
M  V30 12730 O 1191.49 -1.50031 1.17878 0
M  V30 12731 C 1188.63 -2.40444 2.47549 0
M  V30 12732 C 1187.75 -2.17585 3.73203 0
M  V30 12733 C 1186.88 -3.42143 4.06339 0
M  V30 12734 C 1185.92 -3.14619 5.25054 0
M  V30 12735 N 1185.06 -4.31489 5.5386 0
M  V30 12736 H 1189.9 -0.696307 2.89751 0
M  V30 12737 H 1187.44 -0.332261 1.43298 0
M  V30 12738 H 1189.39 -3.16944 2.71298 0
M  V30 12739 H 1188.02 -2.78031 1.64009 0
M  V30 12740 H 1187.08 -1.3181 3.56834 0
M  V30 12741 H 1188.39 -1.93249 4.59844 0
M  V30 12742 H 1187.54 -4.27042 4.30953 0
M  V30 12743 H 1186.28 -3.69549 3.18253 0
M  V30 12744 H 1185.29 -2.28116 5.00243 0
M  V30 12745 H 1186.51 -2.88543 6.14752 0
M  V30 12746 H 1184.46 -4.58939 4.68734 0
M  V30 12747 H 1184.37 -4.10403 6.34906 0
M  V30 12748 H 1185.64 -5.17404 5.83021 0
M  V30 12749 N 1189.87 -1.5367 -0.349747 0
M  V30 12750 C 1191.1 -1.74547 -1.11089 0
M  V30 12751 C 1191.51 -0.481741 -1.82551 0
M  V30 12752 O 1190.87 0.546272 -1.74132 0
M  V30 12753 C 1190.92 -2.92148 -2.12913 0
M  V30 12754 O 1190.64 -4.13633 -1.44358 0
M  V30 12755 C 1192.14 -3.25027 -3.01451 0
M  V30 12756 H 1189.36 -0.583376 -0.331532 0
M  V30 12757 H 1191.91 -2.00473 -0.403841 0
M  V30 12758 H 1190.06 -2.68572 -2.79192 0
M  V30 12759 H 1190.48 -4.79601 -2.12329 0
M  V30 12760 H 1191.95 -4.10679 -3.68845 0
M  V30 12761 H 1192.43 -2.41064 -3.67131 0
M  V30 12762 H 1193.03 -3.50586 -2.40768 0
M  V30 12763 N 1191.35 0.610423 -1.45298 0
M  V30 12764 C 1192.57 1.40112 -1.52917 0
M  V30 12765 C 1193 1.87404 -0.161696 0
M  V30 12766 O 1192.36 1.59973 0.853135 0
M  V30 12767 C 1192.4 2.58359 -2.51561 0
M  V30 12768 O 1191.51 3.58895 -2.03146 0
M  V30 12769 H 1190.85 0.41841 -0.515586 0
M  V30 12770 H 1193.38 0.743159 -1.90626 0
M  V30 12771 H 1193.39 3.0564 -2.70275 0
M  V30 12772 H 1192.06 2.23286 -3.50879 0
M  V30 12773 H 1190.64 3.18282 -1.94296 0
M  V30 12774 N 1192.83 1.32541 0.852676 0
M  V30 12775 C 1193.79 1.21578 1.94297 0
M  V30 12776 C 1194.79 0.138318 1.60204 0
M  V30 12777 O 1195.98 0.388864 1.69804 0
M  V30 12778 C 1193.11 0.870209 3.29606 0
M  V30 12779 H 1194.3 2.18476 2.05446 0
M  V30 12780 H 1191.86 1.16401 1.0431 0
M  V30 12781 H 1192.59 -0.0968698 3.24155 0
M  V30 12782 H 1192.38 1.64924 3.55728 0
M  V30 12783 H 1193.87 0.817874 4.09513 0
M  V30 12784 N 1194.3 -1.0692 1.15784 0
M  V30 12785 C 1195.23 -2.16216 0.881649 0
M  V30 12786 C 1196.22 -1.69253 -0.16951 0
M  V30 12787 O 1197.4 -1.94186 -0.0229511 0
M  V30 12788 C 1194.53 -3.4527 0.374982 0
M  V30 12789 C 1193.48 -4.05706 1.36332 0
M  V30 12790 C 1192.81 -5.29894 0.715317 0
M  V30 12791 C 1194.11 -4.45224 2.7308 0
M  V30 12792 H 1195.8 -2.39577 1.79563 0
M  V30 12793 H 1193.35 -1.15141 0.864784 0
M  V30 12794 H 1195.3 -4.2106 0.169279 0
M  V30 12795 H 1194.03 -3.21508 -0.574485 0
M  V30 12796 H 1192.69 -3.31965 1.55546 0
M  V30 12797 H 1192.33 -5.02425 -0.240436 0
M  V30 12798 H 1192.03 -5.71287 1.37494 0
M  V30 12799 H 1193.56 -6.08386 0.519489 0
M  V30 12800 H 1194.97 -5.12124 2.57686 0
M  V30 12801 H 1193.37 -4.97583 3.35457 0
M  V30 12802 H 1194.44 -3.56384 3.28813 0
M  V30 12803 N 1195.78 -0.955326 -1.25345 0
M  V30 12804 C 1197.01 -0.627233 -1.97688 0
M  V30 12805 C 1197.43 0.793973 -1.70522 0
M  V30 12806 O 1196.79 1.537 -0.961556 0
M  V30 12807 C 1196.84 -0.892969 -3.49369 0
M  V30 12808 O 1195.94 0.0278871 -4.12391 0
M  V30 12809 H 1195.28 -0.238402 -0.619726 0
M  V30 12810 H 1197.81 -1.28211 -1.59446 0
M  V30 12811 H 1197.82 -0.819517 -3.99685 0
M  V30 12812 H 1196.5 -1.92879 -3.6847 0
M  V30 12813 H 1195.08 -0.0978295 -3.72772 0
M  V30 12814 N 1197.26 1.39987 -0.723979 0
M  V30 12815 C 1198.19 2.3332 -0.0917282 0
M  V30 12816 C 1199.17 1.53335 0.736361 0
M  V30 12817 O 1200.36 1.81771 0.683582 0
M  V30 12818 C 1197.49 3.3737 0.824549 0
M  V30 12819 C 1196.44 4.2788 0.101452 0
M  V30 12820 C 1195.77 5.22536 1.13401 0
M  V30 12821 C 1197.07 5.11649 -1.04939 0
M  V30 12822 H 1198.76 2.86441 -0.871318 0
M  V30 12823 H 1196.31 1.37725 -0.420448 0
M  V30 12824 H 1198.26 4.01607 1.27631 0
M  V30 12825 H 1196.98 2.82663 1.63613 0
M  V30 12826 H 1195.64 3.65107 -0.330569 0
M  V30 12827 H 1195.29 4.64131 1.93886 0
M  V30 12828 H 1194.99 5.83938 0.65502 0
M  V30 12829 H 1196.52 5.89651 1.58569 0
M  V30 12830 H 1197.93 5.69293 -0.6766 0
M  V30 12831 H 1196.33 5.82137 -1.45729 0
M  V30 12832 H 1197.4 4.47132 -1.8762 0
M  V30 12833 N 1198.74 0.470782 1.50404 0
M  V30 12834 C 1199.96 -0.084284 2.07229 0
M  V30 12835 C 1200.39 -1.32774 1.33239 0
M  V30 12836 O 1199.75 -1.77274 0.379971 0
M  V30 12837 C 1199.8 -0.351565 3.58882 0
M  V30 12838 O 1198.9 -1.43211 3.86736 0
M  V30 12839 H 1198.24 0.0128479 0.663876 0
M  V30 12840 H 1200.77 0.661735 1.93603 0
M  V30 12841 H 1200.78 -0.592151 4.0368 0
M  V30 12842 H 1199.46 0.557084 4.12152 0
M  V30 12843 H 1198.03 -1.17886 3.53776 0
M  V30 12844 N 1200.22 -1.56282 0.203376 0
M  V30 12845 C 1201.17 -2.20822 -0.730784 0
M  V30 12846 C 1202.16 -1.18193 -1.21354 0
M  V30 12847 O 1203.37 -1.36318 -1.17547 0
M  V30 12848 H 1199.74 -0.707792 -0.254036 0
M  V30 12849 H 1201.71 -2.97955 -0.162825 0
M  V30 12850 C 1200.46 -2.88803 -1.93618 0
M  V30 12851 H 1199.78 -3.67521 -1.57379 0
M  V30 12852 H 1201.22 -3.37387 -2.56799 0
M  V30 12853 C 1199.68 -1.90285 -2.78017 0
M  V30 12854 O 1200.21 -1.40833 -3.76203 0
M  V30 12855 N 1198.42 -1.58332 -2.43679 0
M  V30 12856 H 1197.97 -1.9874 -1.63891 0
M  V30 12857 H 1197.92 -0.926722 -3.00432 0
M  V30 12858 N 1201.7 0.070167 -1.57444 0
M  V30 12859 C 1202.94 0.770153 -1.87607 0
M  V30 12860 C 1203.27 1.77143 -0.795875 0
M  V30 12861 O 1202.55 1.93533 0.193674 0
M  V30 12862 C 1202.83 1.47668 -3.2843 0
M  V30 12863 C 1202.69 0.491712 -4.47104 0
M  V30 12864 C 1204 2.42118 -3.67514 0
M  V30 12865 H 1201.12 0.278519 -0.682346 0
M  V30 12866 H 1203.77 0.0333184 -1.89971 0
M  V30 12867 H 1201.92 2.10476 -3.26546 0
M  V30 12868 H 1203.59 -0.131283 -4.61113 0
M  V30 12869 H 1201.83 -0.192817 -4.33371 0
M  V30 12870 H 1202.5 1.02372 -5.42424 0
M  V30 12871 H 1204.98 1.89387 -3.70502 0
M  V30 12872 H 1203.85 2.88556 -4.66933 0
M  V30 12873 H 1204.11 3.26995 -2.97534 0
M  V30 12874 N 1203.17 1.53854 0.341593 0
M  V30 12875 C 1204.14 1.8128 1.40251 0
M  V30 12876 C 1205.14 0.683915 1.45531 0
M  V30 12877 O 1206.33 0.952202 1.45872 0
M  V30 12878 C 1203.46 1.95658 2.79161 0
M  V30 12879 H 1204.65 2.76053 1.17195 0
M  V30 12880 H 1202.2 1.45296 0.57609 0
M  V30 12881 H 1202.94 1.03034 3.07497 0
M  V30 12882 H 1202.72 2.77788 2.76724 0
M  V30 12883 H 1204.21 2.18387 3.55945 0
M  V30 12884 N 1204.65 -0.602709 1.4562 0
M  V30 12885 C 1205.9 -1.35889 1.49595 0
M  V30 12886 C 1206.22 -1.9449 0.141002 0
M  V30 12887 O 1205.49 -1.77438 -0.830209 0
M  V30 12888 H 1204.07 -0.504478 0.550918 0
M  V30 12889 H 1206.73 -0.707376 1.8161 0
M  V30 12890 H 1205.83 -2.17583 2.2375 0
M  V30 12891 N 1206.13 -1.32992 -0.845635 0
M  V30 12892 C 1207.38 -1.24249 -1.60281 0
M  V30 12893 C 1207.71 0.193049 -1.93238 0
M  V30 12894 O 1206.98 1.1326 -1.58122 0
M  V30 12895 C 1207.27 -2.1111 -2.91727 0
M  V30 12896 C 1207.12 -3.63088 -2.65494 0
M  V30 12897 C 1208.44 -1.97913 -3.93089 0
M  V30 12898 H 1205.56 -0.452698 -0.581578 0
M  V30 12899 H 1208.2 -1.63026 -0.975828 0
M  V30 12900 H 1206.35 -1.78169 -3.45236 0
M  V30 12901 H 1208.02 -4.06287 -2.18469 0
M  V30 12902 H 1206.26 -3.85304 -1.99306 0
M  V30 12903 H 1206.94 -4.19202 -3.59129 0
M  V30 12904 H 1209.41 -2.26788 -3.48864 0
M  V30 12905 H 1208.29 -2.60952 -4.82903 0
M  V30 12906 H 1208.55 -0.949378 -4.31786 0
M  V30 12907 N 1207.61 1.06304 -1.1635 0
M  V30 12908 C 1208.85 1.79101 -0.94494 0
M  V30 12909 C 1209.18 1.87217 0.527251 0
M  V30 12910 O 1208.44 1.35992 1.40729 0
M  V30 12911 C 1208.74 3.23589 -1.51741 0
M  V30 12912 C 1208.4 3.35552 -3.0119 0
M  V30 12913 C 1207.06 3.38525 -3.41986 0
M  V30 12914 C 1209.42 3.37482 -3.97184 0
M  V30 12915 C 1206.74 3.41042 -4.77396 0
M  V30 12916 C 1209.1 3.41537 -5.3248 0
M  V30 12917 C 1207.76 3.42792 -5.72757 0
M  V30 12918 H 1207.03 0.655377 -0.345778 0
M  V30 12919 H 1209.68 1.25017 -1.45062 0
M  V30 12920 H 1207.98 3.80525 -0.933164 0
M  V30 12921 H 1209.68 3.78512 -1.32399 0
M  V30 12922 H 1206.27 3.33944 -2.68662 0
M  V30 12923 H 1210.45 3.34397 -3.66732 0
M  V30 12924 H 1205.71 3.40317 -5.07931 0
M  V30 12925 H 1209.88 3.41977 -6.0665 0
M  V30 12926 H 1207.51 3.44495 -6.77663 0
M  V30 12927 N 1209.09 0.96196 1.24836 0
M  V30 12928 C 1210.32 0.637214 1.96528 0
M  V30 12929 C 1210.72 -0.79638 1.71623 0
M  V30 12930 O 1210.07 -1.54524 0.993372 0
M  V30 12931 C 1210.13 0.824972 3.49906 0
M  V30 12932 C 1209.79 2.23711 3.985 0
M  V30 12933 C 1210.79 3.21439 4.08623 0
M  V30 12934 C 1208.47 2.56327 4.31974 0
M  V30 12935 C 1210.47 4.49872 4.51546 0
M  V30 12936 C 1208.16 3.84987 4.74582 0
M  V30 12937 C 1209.15 4.81572 4.84332 0
M  V30 12938 O 1208.84 6.07938 5.25991 0
M  V30 12939 H 1208.57 0.237214 0.633013 0
M  V30 12940 H 1211.13 1.29081 1.59773 0
M  V30 12941 H 1209.36 0.114219 3.86531 0
M  V30 12942 H 1211.05 0.500179 4.02806 0
M  V30 12943 H 1211.81 2.97569 3.82985 0
M  V30 12944 H 1207.69 1.81872 4.23608 0
M  V30 12945 H 1211.24 5.25261 4.59071 0
M  V30 12946 H 1207.13 4.08661 4.99666 0
M  V30 12947 H 1207.9 6.11421 5.44157 0
M  V30 12948 N 1210.56 -1.39601 0.731392 0
M  V30 12949 C 1211.81 -1.99821 0.274661 0
M  V30 12950 C 1212.13 -1.58693 -1.1435 0
M  V30 12951 O 1213.33 -2.11724 -1.69957 0
M  V30 12952 C 1211.79 -3.57199 0.440124 0
M  V30 12953 C 1211.4 -4.07292 1.86594 0
M  V30 12954 C 1213.14 -4.24476 0.0449851 0
M  V30 12955 C 1211.05 -5.57229 1.98115 0
M  V30 12956 H 1209.98 -0.747481 0.0989383 0
M  V30 12957 H 1212.63 -1.59645 0.904755 0
M  V30 12958 H 1211.01 -3.95153 -0.25881 0
M  V30 12959 H 1212.18 -3.80679 2.59654 0
M  V30 12960 H 1210.5 -3.52665 2.21397 0
M  V30 12961 H 1213.1 -5.34587 0.110126 0
M  V30 12962 H 1213.44 -4.04129 -0.999269 0
M  V30 12963 H 1213.97 -3.91683 0.694942 0
M  V30 12964 H 1210.71 -5.82452 3.00716 0
M  V30 12965 H 1210.23 -5.85656 1.29487 0
M  V30 12966 H 1211.91 -6.22584 1.76063 0
M  V30 12967 N 1212.04 -0.478751 -1.50152 0
M  V30 12968 C 1212.97 0.301182 -2.31549 0
M  V30 12969 C 1213.95 0.983276 -1.38801 0
M  V30 12970 O 1215.14 0.978973 -1.67719 0
M  V30 12971 C 1212.27 1.3791 -3.18745 0
M  V30 12972 C 1211.22 0.818175 -4.20107 0
M  V30 12973 C 1210.55 1.99496 -4.9609 0
M  V30 12974 C 1211.85 -0.17574 -5.22004 0
M  V30 12975 H 1213.54 -0.378188 -2.97002 0
M  V30 12976 H 1211.09 -0.183323 -1.42828 0
M  V30 12977 H 1213.04 1.93227 -3.74488 0
M  V30 12978 H 1211.77 2.08735 -2.51192 0
M  V30 12979 H 1210.42 0.286924 -3.65475 0
M  V30 12980 H 1210.07 2.69036 -4.25004 0
M  V30 12981 H 1209.77 1.62582 -5.6466 0
M  V30 12982 H 1211.3 2.55288 -5.54671 0
M  V30 12983 H 1212.71 0.288513 -5.72574 0
M  V30 12984 H 1211.11 -0.459549 -5.98338 0
M  V30 12985 H 1212.18 -1.09911 -4.72279 0
M  V30 12986 N 1213.52 1.56172 -0.211661 0
M  V30 12987 C 1214.77 1.98332 0.423332 0
M  V30 12988 C 1215.1 1.09895 1.60115 0
M  V30 12989 O 1214.37 0.154477 1.93886 0
M  V30 12990 C 1214.66 3.49495 0.86747 0
M  V30 12991 C 1214.51 4.48708 -0.313302 0
M  V30 12992 C 1215.83 4.04793 1.72716 0
M  V30 12993 H 1212.95 0.72107 0.152402 0
M  V30 12994 H 1215.59 1.87521 -0.305912 0
M  V30 12995 H 1213.74 3.58839 1.48885 0
M  V30 12996 H 1215.41 4.51385 -0.951291 0
M  V30 12997 H 1213.66 4.2299 -0.96238 0
M  V30 12998 H 1214.33 5.51985 0.0402402 0
M  V30 12999 H 1216.8 3.98332 1.20296 0
M  V30 13000 H 1215.68 5.10898 2.00684 0
M  V30 13001 H 1215.94 3.51067 2.68709 0
M  V30 13002 N 1215 -0.0618163 1.57479 0
M  V30 13003 C 1216.25 -0.757569 1.87364 0
M  V30 13004 C 1216.57 -1.77607 0.805025 0
M  V30 13005 O 1215.84 -1.95202 -0.165216 0
M  V30 13006 H 1214.42 -0.28278 0.691408 0
M  V30 13007 H 1217.08 -0.0355354 1.94868 0
M  V30 13008 H 1216.18 -1.26758 2.85199 0
M  V30 13009 N 1216.48 -1.54033 -0.333429 0
M  V30 13010 C 1217.72 -1.71426 -1.0704 0
M  V30 13011 C 1218.05 -0.485496 -1.8886 0
M  V30 13012 O 1217.32 0.500555 -1.89397 0
M  V30 13013 H 1215.9 -0.632034 -0.398173 0
M  V30 13014 H 1218.56 -1.91312 -0.372252 0
M  V30 13015 H 1217.65 -2.58958 -1.74205 0
M  V30 13016 N 1217.95 0.594978 -1.45938 0
M  V30 13017 C 1218.88 1.71536 -1.58422 0
M  V30 13018 C 1219.87 1.64441 -0.435116 0
M  V30 13019 O 1221.05 1.82647 -0.659839 0
M  V30 13020 C 1218.18 3.10163 -1.56257 0
M  V30 13021 C 1217.13 3.3208 -2.70013 0
M  V30 13022 C 1216.46 4.71108 -2.52905 0
M  V30 13023 C 1217.76 3.21105 -4.11933 0
M  V30 13024 H 1219.45 1.61344 -2.52207 0
M  V30 13025 H 1217 0.774791 -1.2138 0
M  V30 13026 H 1218.95 3.88352 -1.63587 0
M  V30 13027 H 1217.68 3.21225 -0.590093 0
M  V30 13028 H 1216.34 2.56286 -2.62132 0
M  V30 13029 H 1215.98 4.7892 -1.53768 0
M  V30 13030 H 1215.68 4.86727 -3.29197 0
M  V30 13031 H 1217.21 5.51482 -2.62107 0
M  V30 13032 H 1218.62 3.89153 -4.2099 0
M  V30 13033 H 1217.02 3.4825 -4.88715 0
M  V30 13034 H 1218.09 2.18359 -4.32952 0
M  V30 13035 N 1219.43 1.33438 0.838571 0
M  V30 13036 C 1220.68 1.24665 1.59069 0
M  V30 13037 C 1221 -0.187433 1.94097 0
M  V30 13038 O 1220.27 -1.11625 1.60987 0
M  V30 13039 H 1218.85 0.45843 0.589789 0
M  V30 13040 H 1221.51 1.67161 1.00216 0
M  V30 13041 H 1220.61 1.84057 2.52051 0
M  V30 13042 N 1220.91 -1.05686 1.16912 0
M  V30 13043 C 1221.84 -2.15268 0.904532 0
M  V30 13044 C 1222.82 -1.69424 -0.151548 0
M  V30 13045 O 1224.01 -1.942 -0.00235371 0
M  V30 13046 C 1221.14 -3.44853 0.411581 0
M  V30 13047 C 1220.09 -4.04237 1.40628 0
M  V30 13048 C 1219.42 -5.29105 0.771479 0
M  V30 13049 C 1220.72 -4.42303 2.77787 0
M  V30 13050 H 1222.41 -2.37659 1.82094 0
M  V30 13051 H 1219.96 -1.14217 0.876947 0
M  V30 13052 H 1221.91 -4.20857 0.213929 0
M  V30 13053 H 1220.63 -3.22099 -0.540352 0
M  V30 13054 H 1219.29 -3.30297 1.59058 0
M  V30 13055 H 1218.94 -5.02652 -0.187133 0
M  V30 13056 H 1218.64 -5.69797 1.43545 0
M  V30 13057 H 1220.16 -6.07801 0.583988 0
M  V30 13058 H 1221.58 -5.09362 2.63103 0
M  V30 13059 H 1219.98 -4.93997 3.40716 0
M  V30 13060 H 1221.05 -3.52877 3.32575 0
M  V30 13061 N 1222.39 -0.968567 -1.24324 0
M  V30 13062 C 1223.35 -0.504307 -2.23583 0
M  V30 13063 C 1224.35 0.399626 -1.55755 0
M  V30 13064 O 1225.54 0.194966 -1.73106 0
M  V30 13065 C 1222.67 0.26956 -3.39833 0
M  V30 13066 H 1223.87 -1.3818 -2.6617 0
M  V30 13067 H 1221.42 -0.753241 -1.36952 0
M  V30 13068 H 1222.15 1.16411 -3.02686 0
M  V30 13069 H 1221.94 -0.379133 -3.90263 0
M  V30 13070 H 1223.43 0.583376 -4.13505 0
M  V30 13071 N 1223.87 1.39211 -0.738786 0
M  V30 13072 C 1224.8 2.28145 -0.0499733 0
M  V30 13073 C 1225.78 1.44592 0.743776 0
M  V30 13074 O 1226.96 1.73978 0.725536 0
M  V30 13075 C 1224.09 3.255 0.93634 0
M  V30 13076 C 1223.13 4.25876 0.230621 0
M  V30 13077 S 1223.97 5.24942 -1.0581 0
M  V30 13078 C 1225.12 6.25856 -0.0744844 0
M  V30 13079 H 1225.36 2.86218 -0.804163 0
M  V30 13080 H 1222.89 1.44991 -0.53074 0
M  V30 13081 H 1224.85 3.82109 1.50011 0
M  V30 13082 H 1223.51 2.66439 1.66339 0
M  V30 13083 H 1222.7 4.94438 0.977075 0
M  V30 13084 H 1222.3 3.73087 -0.261216 0
M  V30 13085 H 1224.6 6.73172 0.764616 0
M  V30 13086 H 1225.54 7.04354 -0.727354 0
M  V30 13087 H 1225.95 5.63704 0.299605 0
M  V30 13088 N 1225.34 0.486708 1.49896 0
M  V30 13089 C 1226.27 -0.288898 2.31706 0
M  V30 13090 C 1227.26 -0.975901 1.3932 0
M  V30 13091 O 1228.44 -0.970065 1.68236 0
M  V30 13092 C 1225.57 -1.36218 3.19471 0
M  V30 13093 C 1224.52 -0.795884 4.20535 0
M  V30 13094 C 1223.85 -1.96862 4.97141 0
M  V30 13095 C 1225.15 0.203421 5.21904 0
M  V30 13096 H 1226.84 0.393934 2.96797 0
M  V30 13097 H 1224.39 0.190894 1.42729 0
M  V30 13098 H 1226.34 -1.91238 3.75508 0
M  V30 13099 H 1225.07 -2.074 2.52295 0
M  V30 13100 H 1223.73 -0.267538 3.65622 0
M  V30 13101 H 1223.37 -2.66779 4.26425 0
M  V30 13102 H 1223.07 -1.59585 5.65514 0
M  V30 13103 H 1224.6 -2.52343 5.56017 0
M  V30 13104 H 1226.01 -0.258144 5.72719 0
M  V30 13105 H 1224.41 0.491273 5.98086 0
M  V30 13106 H 1225.48 1.12414 4.7169 0
M  V30 13107 N 1226.82 -1.56058 0.219941 0
M  V30 13108 C 1228.07 -1.98554 -0.412808 0
M  V30 13109 C 1228.4 -1.10742 -1.5953 0
M  V30 13110 O 1227.68 -0.164757 -1.93801 0
M  V30 13111 C 1227.96 -3.4995 -0.848923 0
M  V30 13112 C 1227.81 -4.48535 0.337094 0
M  V30 13113 C 1229.13 -4.05703 -1.70567 0
M  V30 13114 H 1226.25 -0.721869 -0.148576 0
M  V30 13115 H 1228.89 -1.87356 0.315852 0
M  V30 13116 H 1227.04 -3.59624 -1.46979 0
M  V30 13117 H 1228.72 -4.50874 0.975216 0
M  V30 13118 H 1226.96 -4.22474 0.984798 0
M  V30 13119 H 1227.63 -5.51999 -0.0109665 0
M  V30 13120 H 1230.11 -3.98964 -1.18182 0
M  V30 13121 H 1228.98 -5.11955 -1.97972 0
M  V30 13122 H 1229.24 -3.52487 -2.66844 0
M  V30 13123 N 1228.3 0.053464 -1.57509 0
M  V30 13124 C 1229.26 1.04604 -2.03938 0
M  V30 13125 C 1230.26 1.30509 -0.939357 0
M  V30 13126 O 1231.45 1.25922 -1.20371 0
M  V30 13127 C 1228.59 2.38516 -2.43563 0
M  V30 13128 H 1229.78 0.645484 -2.92871 0
M  V30 13129 H 1227.33 0.299683 -1.534 0
M  V30 13130 H 1228.07 2.83368 -1.57712 0
M  V30 13131 H 1227.85 2.2105 -3.23851 0
M  V30 13132 H 1229.34 3.09826 -2.79996 0
M  V30 13133 N 1229.78 1.54207 0.325255 0
M  V30 13134 C 1230.71 1.86467 1.40543 0
M  V30 13135 C 1231.69 0.721324 1.54048 0
M  V30 13136 O 1232.88 0.974905 1.67956 0
M  V30 13137 C 1230.01 2.09052 2.77335 0
M  V30 13138 C 1228.96 3.24893 2.78619 0
M  V30 13139 C 1228.29 3.32846 4.1847 0
M  V30 13140 C 1229.59 4.62582 2.42518 0
M  V30 13141 H 1231.28 2.76932 1.13794 0
M  V30 13142 H 1228.83 1.33248 0.545971 0
M  V30 13143 H 1230.78 2.30204 3.52964 0
M  V30 13144 H 1229.5 1.15335 3.05558 0
M  V30 13145 H 1228.16 3.03625 2.05444 0
M  V30 13146 H 1227.81 2.3669 4.43832 0
M  V30 13147 H 1227.51 4.10701 4.20237 0
M  V30 13148 H 1229.03 3.56231 4.95915 0
M  V30 13149 H 1230.45 4.83627 3.07861 0
M  V30 13150 H 1228.84 5.42974 2.55538 0
M  V30 13151 H 1229.91 4.64946 1.3767 0
M  V30 13152 N 1231.26 -0.58723 1.46251 0
M  V30 13153 C 1232.51 -1.34179 1.50595 0
M  V30 13154 C 1232.82 -1.94943 0.160171 0
M  V30 13155 O 1234.03 -2.71378 0.0813797 0
M  V30 13156 C 1232.48 -2.43159 2.65333 0
M  V30 13157 C 1232.09 -1.88718 4.06312 0
M  V30 13158 C 1233.83 -3.19986 2.78943 0
M  V30 13159 C 1231.74 -2.953 5.12398 0
M  V30 13160 H 1230.67 -0.504401 0.560442 0
M  V30 13161 H 1233.32 -0.627179 1.72449 0
M  V30 13162 H 1231.7 -3.17398 2.368 0
M  V30 13163 H 1232.88 -1.21051 4.44616 0
M  V30 13164 H 1231.19 -1.24572 3.97329 0
M  V30 13165 H 1233.79 -3.9952 3.5537 0
M  V30 13166 H 1234.13 -3.72288 1.86298 0
M  V30 13167 H 1234.67 -2.52852 3.07101 0
M  V30 13168 H 1231.4 -2.4789 6.0682 0
M  V30 13169 H 1230.92 -3.61469 4.78644 0
M  V30 13170 H 1232.6 -3.5933 5.38044 0
M  V30 13171 N 1232.74 -1.33881 -0.831482 0
M  V30 13172 C 1233.65 -1.26802 -1.97379 0
M  V30 13173 C 1234.66 -0.177233 -1.73095 0
M  V30 13174 O 1235.84 -0.402163 -1.97344 0
M  V30 13175 C 1232.9 -1.01474 -3.31517 0
M  V30 13176 C 1231.96 -2.19626 -3.68867 0
M  V30 13177 C 1231.2 -1.95497 -4.96605 0
M  V30 13178 O 1231.42 -0.908948 -5.63111 0
M  V30 13179 O 1230.35 -2.82226 -5.31632 0
M  V30 13180 H 1234.18 -2.22883 -2.06293 0
M  V30 13181 H 1231.76 -1.14001 -0.965613 0
M  V30 13182 H 1233.65 -0.890954 -4.11874 0
M  V30 13183 H 1232.32 -0.0842656 -3.2359 0
M  V30 13184 H 1231.23 -2.37561 -2.88991 0
M  V30 13185 H 1232.56 -3.11034 -3.81469 0
M  V30 13186 N 1234.21 1.05064 -1.1747 0
M  V30 13187 C 1235.46 1.78089 -0.963883 0
M  V30 13188 C 1235.79 1.87766 0.507365 0
M  V30 13189 O 1235.04 1.37477 1.39279 0
M  V30 13190 C 1235.34 3.21961 -1.55164 0
M  V30 13191 C 1235.01 3.32339 -3.04732 0
M  V30 13192 C 1233.67 3.34878 -3.45557 0
M  V30 13193 C 1236.02 3.3325 -4.00741 0
M  V30 13194 C 1233.35 3.35959 -4.80987 0
M  V30 13195 C 1235.7 3.3587 -5.36073 0
M  V30 13196 C 1234.37 3.36697 -5.7636 0
M  V30 13197 H 1233.64 0.651672 -0.35271 0
M  V30 13198 H 1236.28 1.23471 -1.4638 0
M  V30 13199 H 1234.59 3.79514 -0.973471 0
M  V30 13200 H 1236.29 3.77087 -1.36406 0
M  V30 13201 H 1232.88 3.31076 -2.72188 0
M  V30 13202 H 1237.06 3.30488 -3.70258 0
M  V30 13203 H 1232.32 3.34911 -5.11512 0
M  V30 13204 H 1236.49 3.35524 -6.10243 0
M  V30 13205 H 1234.12 3.37288 -6.81279 0
M  V30 13206 N 1235.69 0.975146 1.23809 0
M  V30 13207 C 1236.93 0.649078 1.9382 0
M  V30 13208 C 1237.3 -0.801879 1.74453 0
M  V30 13209 O 1238.5 -1.23853 2.38567 0
M  V30 13210 C 1236.77 1.0225 3.42461 0
M  V30 13211 S 1238.33 0.812107 4.3122 0
M  V30 13212 H 1235.14 0.237878 0.670026 0
M  V30 13213 H 1237.75 1.25368 1.50011 0
M  V30 13214 H 1236.45 2.07523 3.54065 0
M  V30 13215 H 1235.98 0.408976 3.91268 0
M  V30 13216 H 1238 -0.306716 4.95251 0
M  V30 13217 N 1237.17 -1.38817 0.746158 0
M  V30 13218 C 1238.4 -2.04274 0.309156 0
M  V30 13219 C 1238.81 -1.56389 -1.06486 0
M  V30 13220 O 1238.15 -0.728875 -1.68621 0
M  V30 13221 C 1238.21 -3.58664 0.245003 0
M  V30 13222 C 1237.88 -4.29574 1.55933 0
M  V30 13223 C 1238.87 -4.55454 2.50714 0
M  V30 13224 C 1236.56 -4.67907 1.82671 0
M  V30 13225 C 1238.55 -5.18691 3.70458 0
M  V30 13226 C 1236.24 -5.30869 3.0269 0
M  V30 13227 C 1237.24 -5.56195 3.96404 0
M  V30 13228 O 1236.93 -6.17848 5.14314 0
M  V30 13229 H 1236.66 -0.663162 0.131121 0
M  V30 13230 H 1239.21 -1.78636 1.01382 0
M  V30 13231 H 1237.44 -3.83244 -0.515847 0
M  V30 13232 H 1239.13 -4.05579 -0.16149 0
M  V30 13233 H 1239.9 -4.26276 2.3133 0
M  V30 13234 H 1235.78 -4.47544 1.10568 0
M  V30 13235 H 1239.32 -5.38375 4.4362 0
M  V30 13236 H 1235.22 -5.59469 3.2197 0
M  V30 13237 H 1235.98 -6.36338 5.14797 0
M  V30 13238 N 1238.65 -0.49465 -1.49636 0
M  V30 13239 C 1239.59 0.287153 -2.29007 0
M  V30 13240 C 1240.56 0.966099 -1.35114 0
M  V30 13241 O 1241.75 0.973991 -1.64067 0
M  V30 13242 C 1238.89 1.34941 -3.17624 0
M  V30 13243 C 1238 0.682879 -4.26569 0
M  V30 13244 C 1237.14 1.72503 -5.0241 0
M  V30 13245 C 1236.18 1.04003 -6.032 0
M  V30 13246 N 1235.31 2.0261 -6.7223 0
M  V30 13247 H 1240.15 -0.395941 -2.95358 0
M  V30 13248 H 1237.69 -0.207103 -1.45635 0
M  V30 13249 H 1239.65 1.9772 -3.67372 0
M  V30 13250 H 1238.28 2.00135 -2.5327 0
M  V30 13251 H 1237.33 -0.0580477 -3.80356 0
M  V30 13252 H 1238.64 0.143334 -4.98594 0
M  V30 13253 H 1237.8 2.42804 -5.55996 0
M  V30 13254 H 1236.54 2.29843 -4.30144 0
M  V30 13255 H 1235.54 0.322765 -5.48852 0
M  V30 13256 H 1236.77 0.473219 -6.77449 0
M  V30 13257 H 1234.71 2.58922 -6.0274 0
M  V30 13258 H 1234.63 1.53704 -7.4021 0
M  V30 13259 H 1235.9 2.72218 -7.30423 0
M  V30 13260 N 1240.13 1.55939 -0.228214 0
M  V30 13261 C 1241.35 2.0332 0.409364 0
M  V30 13262 C 1241.78 1.10683 1.52088 0
M  V30 13263 O 1241.13 0.0962484 1.81044 0
M  V30 13264 C 1241.18 3.48877 0.911981 0
M  V30 13265 O 1240.29 3.59378 2.02289 0
M  V30 13266 H 1239.63 0.657625 0.0917909 0
M  V30 13267 H 1242.16 2.01605 -0.348802 0
M  V30 13268 H 1242.17 3.89331 1.22007 0
M  V30 13269 H 1240.84 4.15783 0.0984902 0
M  V30 13270 H 1239.42 3.30815 1.72093 0
M  V30 13271 N 1241.6 -0.0451101 1.57535 0
M  V30 13272 C 1243.02 -0.400463 1.54494 0
M  V30 13273 C 1243.22 -1.77584 0.952166 0
M  V30 13274 O 1242.28 -2.46069 0.566221 0
M  V30 13275 C 1243.59 -0.31703 2.99024 0
M  V30 13276 C 1245.14 -0.395284 3.10494 0
M  V30 13277 C 1245.61 -0.341475 4.56725 0
M  V30 13278 N 1247.1 -0.400755 4.61463 0
M  V30 13279 C 1247.84 -0.381757 5.72128 0
M  V30 13280 N 1247.33 -0.315995 6.92079 0
M  V30 13281 N 1249.13 -0.4303 5.60451 0
M  V30 13282 H 1241.28 0.855156 1.94424 0
M  V30 13283 H 1243.54 0.323618 0.891053 0
M  V30 13284 H 1243.25 0.627477 3.46057 0
M  V30 13285 H 1243.12 -1.11696 3.60283 0
M  V30 13286 H 1245.51 -1.33022 2.63418 0
M  V30 13287 H 1245.59 0.433709 2.52096 0
M  V30 13288 H 1245.23 0.589725 5.04465 0
M  V30 13289 H 1245.16 -1.18836 5.13016 0
M  V30 13290 H 1247.65 -0.454745 3.75154 0
M  V30 13291 H 1247.97 -0.306158 7.72193 0
M  V30 13292 H 1246.31 -0.282281 6.94427 0
M  V30 13293 H 1249.5 -0.479555 4.65637 0
M  V30 13294 H 1249.68 -0.412025 6.46689 0
M  V30 13295 N 1243.08 -1.54377 -0.317073 0
M  V30 13296 C 1244.05 -1.83488 -1.37349 0
M  V30 13297 C 1245.05 -0.706981 -1.44424 0
M  V30 13298 O 1246.24 -0.975289 -1.44339 0
M  V30 13299 C 1243.37 -2.00074 -2.76013 0
M  V30 13300 H 1244.56 -2.77883 -1.12789 0
M  V30 13301 H 1242.11 -1.46194 -0.552902 0
M  V30 13302 H 1242.85 -1.07913 -3.05819 0
M  V30 13303 H 1242.63 -2.82155 -2.7227 0
M  V30 13304 H 1244.12 -2.24022 -3.52426 0
M  V30 13305 N 1244.56 0.579466 -1.4656 0
M  V30 13306 C 1245.47 1.71609 -1.59961 0
M  V30 13307 C 1246.49 1.67162 -0.483002 0
M  V30 13308 O 1247.66 1.87012 -0.747561 0
M  V30 13309 C 1244.73 3.08114 -1.58954 0
M  V30 13310 C 1243.79 3.238 -2.81872 0
M  V30 13311 C 1243.02 4.53794 -2.80904 0
M  V30 13312 O 1243.24 5.37884 -1.89835 0
M  V30 13313 O 1242.18 4.72796 -3.72488 0
M  V30 13314 H 1246 1.6325 -2.56092 0
M  V30 13315 H 1243.59 0.746891 -1.2939 0
M  V30 13316 H 1245.47 3.8939 -1.611 0
M  V30 13317 H 1244.15 3.16903 -0.65984 0
M  V30 13318 H 1243.05 2.42006 -2.85279 0
M  V30 13319 H 1244.39 3.19904 -3.74062 0
M  V30 13320 N 1246.04 1.3432 0.824371 0
M  V30 13321 C 1247 1.25672 1.91675 0
M  V30 13322 C 1248 0.172269 1.59875 0
M  V30 13323 O 1249.19 0.424794 1.68941 0
M  V30 13324 C 1246.32 0.939928 3.27686 0
M  V30 13325 H 1247.52 2.22785 2.00766 0
M  V30 13326 H 1245.07 1.18587 1.01817 0
M  V30 13327 H 1245.8 -0.0280898 3.24288 0
M  V30 13328 H 1245.59 1.72432 3.5215 0
M  V30 13329 H 1247.08 0.904553 4.07686 0
M  V30 13330 N 1247.52 -1.0444 1.18026 0
M  V30 13331 C 1248.46 -2.12365 0.903865 0
M  V30 13332 C 1249.43 -1.65373 -0.155252 0
M  V30 13333 O 1250.62 -1.90793 -0.016419 0
M  V30 13334 C 1247.76 -3.4239 0.431603 0
M  V30 13335 C 1246.87 -4.03016 1.55571 0
M  V30 13336 C 1246.01 -5.20988 1.03655 0
M  V30 13337 C 1245.05 -5.73636 2.1356 0
M  V30 13338 N 1244.18 -6.82901 1.63066 0
M  V30 13339 H 1249.02 -2.35346 1.82802 0
M  V30 13340 H 1246.56 -1.15447 0.911618 0
M  V30 13341 H 1248.52 -4.16967 0.139296 0
M  V30 13342 H 1247.15 -3.19569 -0.455576 0
M  V30 13343 H 1246.2 -3.25803 1.96358 0
M  V30 13344 H 1247.51 -4.38122 2.38434 0
M  V30 13345 H 1246.67 -6.02665 0.698546 0
M  V30 13346 H 1245.4 -4.87377 0.177457 0
M  V30 13347 H 1244.41 -4.90583 2.4821 0
M  V30 13348 H 1245.63 -6.09293 2.99899 0
M  V30 13349 H 1243.58 -6.51172 0.794394 0
M  V30 13350 H 1243.5 -7.1705 2.3953 0
M  V30 13351 H 1244.77 -7.68211 1.32181 0
M  V30 13352 N 1248.99 -0.981699 -1.2329 0
M  V30 13353 C 1250.41 -0.690539 -1.43888 0
M  V30 13354 C 1250.61 0.742816 -1.87309 0
M  V30 13355 O 1249.67 1.5151 -2.01993 0
M  V30 13356 C 1250.98 -1.68657 -2.48948 0
M  V30 13357 C 1252.53 -1.70076 -2.62761 0
M  V30 13358 C 1253 -2.68513 -3.71032 0
M  V30 13359 N 1254.49 -2.67039 -3.78476 0
M  V30 13360 C 1255.23 -3.39874 -4.61815 0
M  V30 13361 N 1254.72 -4.22273 -5.49233 0
M  V30 13362 N 1256.52 -3.28633 -4.56023 0
M  V30 13363 H 1248.67 -1.90758 -0.934077 0
M  V30 13364 H 1250.93 -0.822058 -0.472149 0
M  V30 13365 H 1250.64 -2.7117 -2.23964 0
M  V30 13366 H 1250.51 -1.47045 -3.47358 0
M  V30 13367 H 1252.9 -0.682673 -2.87095 0
M  V30 13368 H 1252.98 -1.95754 -1.64663 0
M  V30 13369 H 1252.62 -3.70464 -3.47446 0
M  V30 13370 H 1252.55 -2.40109 -4.68674 0
M  V30 13371 H 1255.04 -2.07241 -3.16006 0
M  V30 13372 H 1255.36 -4.74702 -6.09818 0
M  V30 13373 H 1253.7 -4.26364 -5.48852 0
M  V30 13374 H 1256.89 -2.6371 -3.86749 0
M  V30 13375 H 1257.07 -3.85656 -5.20743 0
M  V30 13376 N 1250.47 1.3842 -0.753509 0
M  V30 13377 C 1251.41 2.28079 -0.0741683 0
M  V30 13378 C 1252.38 1.45372 0.728398 0
M  V30 13379 O 1253.57 1.74737 0.707043 0
M  V30 13380 C 1250.69 3.26475 0.901764 0
M  V30 13381 C 1249.74 4.26097 0.185438 0
M  V30 13382 S 1250.57 5.23791 -1.11372 0
M  V30 13383 C 1251.73 6.25741 -0.140861 0
M  V30 13384 H 1251.96 2.85349 -0.834475 0
M  V30 13385 H 1249.5 1.4442 -0.546089 0
M  V30 13386 H 1251.45 3.83678 1.4595 0
M  V30 13387 H 1250.11 2.68189 1.63504 0
M  V30 13388 H 1249.31 4.95447 0.924578 0
M  V30 13389 H 1248.91 3.72789 -0.300772 0
M  V30 13390 H 1251.2 6.73945 0.693174 0
M  V30 13391 H 1252.14 7.03543 -0.80202 0
M  V30 13392 H 1252.55 5.6399 0.2398 0
M  V30 13393 N 1251.95 0.502579 1.49372 0
M  V30 13394 C 1252.9 -0.275004 2.29156 0
M  V30 13395 C 1253.87 -0.95892 1.35624 0
M  V30 13396 O 1255.05 -0.965276 1.64581 0
M  V30 13397 C 1252.19 -1.33255 3.18335 0
M  V30 13398 C 1251.31 -0.660248 4.26925 0
M  V30 13399 C 1250.44 -1.69837 5.03318 0
M  V30 13400 C 1249.48 -1.00802 6.03743 0
M  V30 13401 N 1248.62 -1.99042 6.73295 0
M  V30 13402 H 1253.46 0.411599 2.95144 0
M  V30 13403 H 1250.99 0.214824 1.45523 0
M  V30 13404 H 1252.95 -1.95769 3.68416 0
M  V30 13405 H 1251.58 -1.98789 2.54328 0
M  V30 13406 H 1250.63 0.0782181 3.8032 0
M  V30 13407 H 1251.95 -0.11689 4.98663 0
M  V30 13408 H 1251.1 -2.39852 5.57275 0
M  V30 13409 H 1249.84 -2.27558 4.31357 0
M  V30 13410 H 1248.84 -0.293654 5.49015 0
M  V30 13411 H 1250.07 -0.437285 6.77691 0
M  V30 13412 H 1248.01 -2.55722 6.04104 0
M  V30 13413 H 1247.93 -1.49776 7.41015 0
M  V30 13414 H 1249.2 -2.6834 7.31856 0
M  V30 13415 N 1253.43 -1.55816 0.23648 0
M  V30 13416 C 1254.36 -2.23924 -0.661834 0
M  V30 13417 C 1255.34 -1.21597 -1.18946 0
M  V30 13418 O 1256.52 -1.50222 -1.23073 0
M  V30 13419 C 1253.65 -2.93069 -1.86355 0
M  V30 13420 C 1252.61 -4.01996 -1.46913 0
M  V30 13421 C 1251.93 -4.58512 -2.75083 0
M  V30 13422 C 1253.23 -5.18265 -0.647964 0
M  V30 13423 H 1254.93 -2.99253 -0.0939368 0
M  V30 13424 H 1252.47 -1.43934 -0.0437407 0
M  V30 13425 H 1254.43 -3.39412 -2.49755 0
M  V30 13426 H 1253.15 -2.15212 -2.45665 0
M  V30 13427 H 1251.81 -3.56406 -0.858522 0
M  V30 13428 H 1251.46 -3.77368 -3.3257 0
M  V30 13429 H 1251.16 -5.32037 -2.49421 0
M  V30 13430 H 1252.68 -5.07583 -3.39399 0
M  V30 13431 H 1254.1 -5.60898 -1.18602 0
M  V30 13432 H 1252.49 -5.98114 -0.487823 0
M  V30 13433 H 1253.56 -4.83691 0.342151 0
M  V30 13434 N 1254.91 0.036755 -1.57557 0
M  V30 13435 C 1256.13 0.741086 -1.93172 0
M  V30 13436 C 1256.55 1.69303 -0.835589 0
M  V30 13437 O 1255.91 1.81523 0.1886 0
M  V30 13438 C 1255.96 1.50477 -3.28693 0
M  V30 13439 O 1255.68 0.591046 -4.34095 0
M  V30 13440 C 1257.18 2.30695 -3.78543 0
M  V30 13441 H 1254.4 0.208731 -0.637709 0
M  V30 13442 H 1256.94 -0.00342776 -2.045 0
M  V30 13443 H 1255.1 2.20123 -3.18786 0
M  V30 13444 H 1255.51 1.12579 -5.12276 0
M  V30 13445 H 1256.99 2.79685 -4.759 0
M  V30 13446 H 1257.46 3.11778 -3.0934 0
M  V30 13447 H 1258.07 1.66138 -3.91508 0
M  V30 13448 N 1256.39 1.54543 0.308881 0
M  V30 13449 C 1257.63 1.73449 1.04506 0
M  V30 13450 C 1257.96 0.516034 1.8753 0
M  V30 13451 O 1257.22 -0.502106 1.89149 0
M  V30 13452 C 1257.51 2.97124 1.98626 0
M  V30 13453 C 1257.18 4.31256 1.31641 0
M  V30 13454 C 1255.84 4.67719 1.13105 0
M  V30 13455 C 1258.19 5.14437 0.836888 0
M  V30 13456 C 1255.52 5.84949 0.452878 0
M  V30 13457 C 1257.87 6.32365 0.172473 0
M  V30 13458 C 1256.54 6.67495 -0.0249143 0
M  V30 13459 H 1255.81 0.634697 0.382415 0
M  V30 13460 H 1258.46 1.88795 0.320714 0
M  V30 13461 H 1256.76 2.76526 2.77562 0
M  V30 13462 H 1258.46 3.08946 2.55643 0
M  V30 13463 H 1255.05 4.02576 1.47074 0
M  V30 13464 H 1259.23 4.86772 0.967834 0
M  V30 13465 H 1254.49 6.10717 0.288886 0
M  V30 13466 H 1258.66 6.96092 -0.207027 0
M  V30 13467 H 1256.29 7.5819 -0.552425 0
M  V30 13468 N 1257.86 -0.571685 1.46866 0
M  V30 13469 C 1259.09 -1.36008 1.56578 0
M  V30 13470 C 1259.51 -1.86909 0.211326 0
M  V30 13471 O 1258.87 -1.62179 -0.810421 0
M  V30 13472 C 1258.92 -2.51598 2.58323 0
M  V30 13473 O 1258.02 -3.53383 2.1259 0
M  V30 13474 H 1257.36 -0.404593 0.526498 0
M  V30 13475 H 1259.89 -0.692357 1.92529 0
M  V30 13476 H 1259.9 -2.98366 2.78283 0
M  V30 13477 H 1258.58 -2.13904 3.56676 0
M  V30 13478 H 1257.16 -3.13019 2.02666 0
M  V30 13479 N 1259.34 -1.34755 -0.817236 0
M  V30 13480 C 1260.25 -1.28888 -1.96023 0
M  V30 13481 C 1261.27 -0.195582 -1.72897 0
M  V30 13482 O 1262.44 -0.423071 -1.96906 0
M  V30 13483 C 1259.51 -1.04985 -3.30423 0
M  V30 13484 C 1258.57 -2.23526 -3.66517 0
M  V30 13485 C 1257.8 -2.00753 -4.94504 0
M  V30 13486 O 1258.03 -0.968622 -5.62116 0
M  V30 13487 O 1256.96 -2.87848 -5.28608 0
M  V30 13488 H 1260.79 -2.25059 -2.03917 0
M  V30 13489 H 1258.37 -1.15019 -0.953467 0
M  V30 13490 H 1260.25 -0.934589 -4.10906 0
M  V30 13491 H 1258.93 -0.118582 -3.23483 0
M  V30 13492 H 1257.83 -2.40613 -2.86455 0
M  V30 13493 H 1259.17 -3.15062 -3.78149 0
M  V30 13494 N 1260.82 1.03812 -1.18578 0
M  V30 13495 C 1261.78 2.10049 -0.91718 0
M  V30 13496 C 1262.78 1.60498 0.0985122 0
M  V30 13497 O 1263.97 1.73674 -0.135213 0
M  V30 13498 C 1261.1 3.38813 -0.376599 0
M  V30 13499 H 1262.3 2.3531 -1.85927 0
M  V30 13500 H 1259.85 1.20277 -0.998156 0
M  V30 13501 H 1260.59 3.19216 0.571983 0
M  V30 13502 H 1260.37 3.76096 -1.10881 0
M  V30 13503 H 1261.86 4.17084 -0.207453 0
M  V30 13504 N 1262.3 0.988223 1.22768 0
M  V30 13505 C 1263.55 0.656941 1.90702 0
M  V30 13506 C 1263.86 -0.814058 1.77855 0
M  V30 13507 O 1265.07 -1.25673 2.40663 0
M  V30 13508 C 1263.52 1.12445 3.41883 0
M  V30 13509 C 1263.13 2.62034 3.63376 0
M  V30 13510 C 1264.87 0.867277 4.15546 0
M  V30 13511 C 1262.78 3.02412 5.08233 0
M  V30 13512 H 1261.71 0.242012 0.714105 0
M  V30 13513 H 1264.36 1.19716 1.39069 0
M  V30 13514 H 1262.74 0.512386 3.92671 0
M  V30 13515 H 1263.92 3.28546 3.23101 0
M  V30 13516 H 1262.23 2.85583 3.03037 0
M  V30 13517 H 1264.83 1.14471 5.22303 0
M  V30 13518 H 1265.17 -0.196611 4.15835 0
M  V30 13519 H 1265.71 1.4413 3.70771 0
M  V30 13520 H 1262.44 4.07957 5.1308 0
M  V30 13521 H 1261.96 2.406 5.49429 0
M  V30 13522 H 1263.64 2.93452 5.76624 0
M  V30 13523 N 1263.78 -1.38018 0.760839 0
M  V30 13524 C 1265.19 -1.53437 0.439239 0
M  V30 13525 C 1265.39 -1.72184 -1.04666 0
M  V30 13526 O 1264.45 -1.73698 -1.83263 0
M  V30 13527 C 1265.76 -2.73724 1.24481 0
M  V30 13528 C 1267.31 -2.87579 1.23561 0
M  V30 13529 C 1267.78 -4.10836 2.02429 0
M  V30 13530 N 1269.27 -4.17928 1.99727 0
M  V30 13531 C 1270.01 -5.12309 2.57541 0
M  V30 13532 N 1269.51 -6.12317 3.24098 0
M  V30 13533 N 1271.3 -5.04712 2.47431 0
M  V30 13534 H 1263.45 -1.241 1.72375 0
M  V30 13535 H 1265.71 -0.603427 0.73115 0
M  V30 13536 H 1265.42 -2.663 2.29732 0
M  V30 13537 H 1265.29 -3.67111 0.866579 0
M  V30 13538 H 1267.68 -2.9448 0.191122 0
M  V30 13539 H 1267.76 -1.95183 1.6534 0
M  V30 13540 H 1267.4 -4.04696 3.06893 0
M  V30 13541 H 1267.33 -5.02326 1.58039 0
M  V30 13542 H 1269.83 -3.46307 1.51262 0
M  V30 13543 H 1270.14 -6.80842 3.65615 0
M  V30 13544 H 1268.48 -6.12628 3.28195 0
M  V30 13545 H 1271.67 -4.25524 1.95057 0
M  V30 13546 H 1271.85 -5.78085 2.92783 0
M  V30 13547 N 1265.25 -0.510493 -1.49103 0
M  V30 13548 C 1266.2 0.276449 -2.30951 0
M  V30 13549 C 1267.2 0.953893 -1.3999 0
M  V30 13550 O 1268.4 0.880499 -1.56994 0
M  V30 13551 H 1264.78 0.108013 -0.744202 0
M  V30 13552 H 1266.75 -0.433725 -2.95231 0
M  V30 13553 C 1265.5 1.32234 -3.21573 0
M  V30 13554 H 1264.82 0.810468 -3.91499 0
M  V30 13555 H 1266.26 1.84476 -3.81765 0
M  V30 13556 C 1264.72 2.3456 -2.41833 0
M  V30 13557 O 1265.25 3.40627 -2.12922 0
M  V30 13558 N 1263.45 2.07272 -2.03682 0
M  V30 13559 H 1263 1.21036 -2.27394 0
M  V30 13560 H 1262.96 2.75963 -1.50638 0
M  V30 13561 N 1266.73 1.55688 -0.24474 0
M  V30 13562 C 1267.68 2.21289 0.655723 0
M  V30 13563 C 1268.65 1.17606 1.17295 0
M  V30 13564 O 1269.83 1.46045 1.22782 0
M  V30 13565 C 1266.97 2.91453 1.84794 0
M  V30 13566 C 1266.09 4.09787 1.36744 0
M  V30 13567 C 1265.22 4.67672 2.51905 0
M  V30 13568 C 1264.26 5.78259 2.00706 0
M  V30 13569 N 1263.4 6.30336 3.09225 0
M  V30 13570 H 1268.24 2.97865 0.0896156 0
M  V30 13571 H 1265.77 1.47064 0.0324725 0
M  V30 13572 H 1267.73 3.30331 2.54828 0
M  V30 13573 H 1266.36 2.17355 2.38656 0
M  V30 13574 H 1265.41 3.76237 0.561228 0
M  V30 13575 H 1266.73 4.89627 0.952199 0
M  V30 13576 H 1265.88 5.09113 3.29984 0
M  V30 13577 H 1264.62 3.87044 2.9673 0
M  V30 13578 H 1263.62 5.36298 1.21097 0
M  V30 13579 H 1264.85 6.60737 1.56853 0
M  V30 13580 H 1262.8 5.52614 3.53489 0
M  V30 13581 H 1262.71 7.05364 2.72025 0
M  V30 13582 H 1263.98 6.76435 3.8737 0
M  V30 13583 N 1268.21 -0.0283989 1.57574 0
M  V30 13584 C 1269.17 -1.01346 2.05576 0
M  V30 13585 C 1270.17 -1.28999 0.960001 0
M  V30 13586 O 1271.36 -1.23991 1.2236 0
M  V30 13587 C 1268.49 -2.34611 2.47327 0
M  V30 13588 H 1269.69 -0.598809 2.93861 0
M  V30 13589 H 1267.24 -0.27524 1.53857 0
M  V30 13590 H 1267.98 -2.80823 1.622 0
M  V30 13591 H 1267.76 -2.1587 3.27326 0
M  V30 13592 H 1269.25 -3.05332 2.84889 0
M  V30 13593 N 1269.69 -1.54705 -0.300681 0
M  V30 13594 C 1271.1 -1.45926 -0.646359 0
M  V30 13595 C 1271.3 -0.65072 -1.90704 0
M  V30 13596 O 1270.36 -0.158547 -2.52002 0
M  V30 13597 C 1271.67 -2.89889 -0.799059 0
M  V30 13598 C 1273.22 -2.99934 -0.894923 0
M  V30 13599 C 1273.7 -4.45093 -1.07962 0
M  V30 13600 N 1275.19 -4.48804 -1.14581 0
M  V30 13601 C 1275.92 -5.58305 -1.30702 0
M  V30 13602 N 1275.42 -6.77729 -1.43719 0
M  V30 13603 N 1277.21 -5.45994 -1.33593 0
M  V30 13604 H 1269.36 -2.05742 0.527617 0
M  V30 13605 H 1271.62 -0.931817 0.174415 0
M  V30 13606 H 1271.33 -3.51655 0.0563954 0
M  V30 13607 H 1271.2 -3.37325 -1.68796 0
M  V30 13608 H 1273.59 -2.38281 -1.74086 0
M  V30 13609 H 1273.67 -2.55794 0.0179973 0
M  V30 13610 H 1273.32 -5.0734 -0.238444 0
M  V30 13611 H 1273.25 -4.86864 -2.00677 0
M  V30 13612 H 1275.74 -3.62766 -1.05874 0
M  V30 13613 H 1276.05 -7.56937 -1.55776 0
M  V30 13614 H 1274.4 -6.80594 -1.40774 0
M  V30 13615 H 1277.59 -4.51641 -1.23035 0
M  V30 13616 H 1277.76 -6.31381 -1.45813 0
M  V30 13617 N 1271.17 0.563888 -1.47167 0
M  V30 13618 C 1272.1 1.68137 -1.62025 0
M  V30 13619 C 1273.08 1.63481 -0.469899 0
M  V30 13620 O 1274.26 1.81206 -0.698432 0
M  V30 13621 C 1271.39 3.06779 -1.62801 0
M  V30 13622 C 1270.35 3.26278 -2.76996 0
M  V30 13623 C 1269.67 4.65638 -2.62841 0
M  V30 13624 C 1270.97 3.12295 -4.18651 0
M  V30 13625 H 1272.67 1.55958 -2.55573 0
M  V30 13626 H 1270.21 0.74887 -1.22996 0
M  V30 13627 H 1272.17 3.84795 -1.71787 0
M  V30 13628 H 1270.89 3.19901 -0.658097 0
M  V30 13629 H 1269.55 2.50668 -2.67509 0
M  V30 13630 H 1269.2 4.75551 -1.63892 0
M  V30 13631 H 1268.9 4.79635 -3.39447 0
M  V30 13632 H 1270.42 5.45798 -2.73746 0
M  V30 13633 H 1271.83 3.80136 -4.2915 0
M  V30 13634 H 1270.23 3.37805 -4.95992 0
M  V30 13635 H 1271.3 2.09126 -4.37486 0
M  V30 13636 N 1272.64 1.35187 0.810078 0
M  V30 13637 C 1273.87 1.31528 1.60359 0
M  V30 13638 C 1274.29 -0.105385 1.87805 0
M  V30 13639 O 1273.65 -1.07113 1.46276 0
M  V30 13640 C 1273.7 2.12429 2.91386 0
M  V30 13641 O 1272.8 1.50262 3.84051 0
M  V30 13642 H 1272.15 0.451122 0.487222 0
M  V30 13643 H 1274.68 1.78178 1.00568 0
M  V30 13644 H 1274.69 2.24257 3.40841 0
M  V30 13645 H 1273.36 3.15714 2.70735 0
M  V30 13646 H 1271.94 1.47253 3.42594 0
M  V30 13647 N 1274.12 -1.03182 1.19127 0
M  V30 13648 C 1275.37 -1.75934 0.986415 0
M  V30 13649 C 1275.68 -1.89519 -0.48392 0
M  V30 13650 O 1276.89 -2.59213 -0.80752 0
M  V30 13651 C 1275.35 -3.16358 1.71597 0
M  V30 13652 C 1274.95 -3.10836 3.22622 0
M  V30 13653 C 1276.7 -3.93426 1.59425 0
M  V30 13654 C 1274.61 -4.46174 3.88179 0
M  V30 13655 H 1273.54 -0.659516 0.365451 0
M  V30 13656 H 1276.19 -1.15497 1.42593 0
M  V30 13657 H 1274.57 -3.77245 1.20426 0
M  V30 13658 H 1275.74 -2.59348 3.80887 0
M  V30 13659 H 1274.06 -2.47266 3.35035 0
M  V30 13660 H 1276.65 -4.93526 2.05757 0
M  V30 13661 H 1277 -4.12678 0.547926 0
M  V30 13662 H 1277.53 -3.39134 2.07925 0
M  V30 13663 H 1274.27 -4.32126 4.92897 0
M  V30 13664 H 1273.79 -4.97729 3.34702 0
M  V30 13665 H 1275.47 -5.15066 3.91556 0
M  V30 13666 N 1275.6 -0.99472 -1.22242 0
M  V30 13667 C 1276.83 -0.690097 -1.95052 0
M  V30 13668 C 1277.24 0.745543 -1.73456 0
M  V30 13669 O 1276.6 1.50329 -1.03477 0
M  V30 13670 C 1276.65 -0.988798 -3.47714 0
M  V30 13671 O 1276.37 -2.36803 -3.68587 0
M  V30 13672 C 1277.87 -0.702132 -4.37704 0
M  V30 13673 H 1275.09 -0.255142 -0.620599 0
M  V30 13674 H 1277.64 -1.32998 -1.55344 0
M  V30 13675 H 1275.79 -0.394684 -3.85384 0
M  V30 13676 H 1276.21 -2.4687 -4.62769 0
M  V30 13677 H 1277.68 -0.961389 -5.43564 0
M  V30 13678 H 1278.16 0.363866 -4.3769 0
M  V30 13679 H 1278.76 -1.27738 -4.05664 0
M  V30 13680 N 1277.08 1.37613 -0.768148 0
M  V30 13681 C 1278.33 1.99384 -0.330187 0
M  V30 13682 C 1278.65 1.61283 1.09604 0
M  V30 13683 O 1277.92 0.876551 1.75195 0
M  V30 13684 H 1276.5 0.737445 -0.119095 0
M  V30 13685 H 1279.16 1.6815 -0.985476 0
M  V30 13686 H 1278.26 3.09462 -0.40494 0
M  V30 13687 N 1278.56 0.518393 1.4883 0
M  V30 13688 C 1279.78 -0.0183131 2.07392 0
M  V30 13689 C 1280.21 -1.28468 1.37396 0
M  V30 13690 O 1279.56 -1.75975 0.436177 0
M  V30 13691 C 1279.61 -0.237211 3.59819 0
M  V30 13692 O 1278.72 -1.30835 3.91096 0
M  V30 13693 H 1278.06 0.0339621 0.663131 0
M  V30 13694 H 1280.59 0.722993 1.914 0
M  V30 13695 H 1280.6 -0.463424 4.0536 0
M  V30 13696 H 1279.27 0.687925 4.10171 0
M  V30 13697 H 1277.85 -1.06571 3.57347 0
M  V30 13698 N 1280.03 -1.55556 0.252993 0
M  V30 13699 C 1281.28 -1.99385 -0.370599 0
M  V30 13700 C 1281.61 -1.14101 -1.57145 0
M  V30 13701 O 1280.89 -0.205828 -1.93408 0
M  V30 13702 C 1281.17 -3.51672 -0.774503 0
M  V30 13703 C 1281.02 -4.47719 0.432159 0
M  V30 13704 C 1282.34 -4.0923 -1.61923 0
M  V30 13705 H 1279.46 -0.724858 -0.133231 0
M  V30 13706 H 1282.1 -1.86644 0.355522 0
M  V30 13707 H 1280.25 -3.62661 -1.39318 0
M  V30 13708 H 1281.93 -4.48704 1.07063 0
M  V30 13709 H 1280.17 -4.2029 1.07419 0
M  V30 13710 H 1280.84 -5.51898 0.106123 0
M  V30 13711 H 1283.32 -4.01381 -1.09693 0
M  V30 13712 H 1282.19 -5.16039 -1.87068 0
M  V30 13713 H 1282.45 -3.58067 -2.59307 0
M  V30 13714 N 1281.51 0.0200419 -1.57587 0
M  V30 13715 C 1282.76 0.707627 -1.89307 0
M  V30 13716 C 1283.08 1.7541 -0.851831 0
M  V30 13717 O 1282.35 1.95571 0.113404 0
M  V30 13718 H 1280.93 0.264349 -0.698662 0
M  V30 13719 H 1283.59 -0.0161428 -1.94893 0
M  V30 13720 H 1282.69 1.19152 -2.8846 0
M  V30 13721 N 1282.99 1.54862 0.292472 0
M  V30 13722 C 1283.9 1.89472 1.38339 0
M  V30 13723 C 1284.92 0.789783 1.55043 0
M  V30 13724 O 1286.09 1.08705 1.69544 0
M  V30 13725 C 1283.16 2.14244 2.72581 0
M  V30 13726 C 1282.22 3.37913 2.64789 0
M  V30 13727 C 1281.45 3.61494 3.92629 0
M  V30 13728 O 1281.67 2.87931 4.92394 0
M  V30 13729 O 1280.61 4.55019 3.94007 0
M  V30 13730 H 1284.43 2.82298 1.11989 0
M  V30 13731 H 1282.02 1.41161 0.489291 0
M  V30 13732 H 1283.9 2.31689 3.51991 0
M  V30 13733 H 1282.58 1.24603 2.98757 0
M  V30 13734 H 1281.48 3.25823 1.83821 0
M  V30 13735 H 1282.82 4.27711 2.43565 0
M  V30 13736 N 1284.47 -0.556076 1.47464 0
M  V30 13737 C 1285.42 -1.68406 1.60444 0
M  V30 13738 C 1286.41 -1.627 0.471713 0
M  V30 13739 O 1287.62 -1.67871 0.649551 0
M  V30 13740 H 1283.99 -0.557255 0.504946 0
M  V30 13741 H 1285.96 -1.54595 2.55231 0
M  V30 13742 C 1284.71 -3.06756 1.63695 0
M  V30 13743 H 1284.03 -3.11829 2.50206 0
M  V30 13744 H 1285.47 -3.85368 1.76827 0
M  V30 13745 C 1283.93 -3.34857 0.370485 0
M  V30 13746 O 1284.46 -3.98216 -0.527942 0
M  V30 13747 N 1282.67 -2.89521 0.250163 0
M  V30 13748 H 1282.22 -2.3814 0.982204 0
M  V30 13749 H 1282.17 -3.08694 -0.596268 0
M  V30 13750 N 1285.95 -1.35615 -0.802897 0
M  V30 13751 C 1287.2 -1.28839 -1.55708 0
M  V30 13752 C 1287.52 0.135906 -1.94526 0
M  V30 13753 O 1286.79 1.07317 -1.6389 0
M  V30 13754 H 1285.37 -0.473906 -0.577427 0
M  V30 13755 H 1288.03 -1.69759 -0.957487 0
M  V30 13756 H 1287.12 -1.90675 -2.47082 0
M  V30 13757 N 1287.43 1.02549 -1.19673 0
M  V30 13758 C 1288.84 1.28271 -0.94967 0
M  V30 13759 C 1289.04 1.97961 0.37599 0
M  V30 13760 O 1288.1 2.26955 1.10668 0
M  V30 13761 C 1289.41 2.12647 -2.12607 0
M  V30 13762 C 1290.96 2.25943 -2.16607 0
M  V30 13763 C 1291.43 3.13693 -3.33708 0
M  V30 13764 N 1292.92 3.21281 -3.33665 0
M  V30 13765 C 1293.66 3.89377 -4.20919 0
M  V30 13766 N 1293.16 4.59675 -5.18334 0
M  V30 13767 N 1294.95 3.85811 -4.08786 0
M  V30 13768 H 1287.1 0.557304 -2.04958 0
M  V30 13769 H 1289.36 0.308531 -0.896389 0
M  V30 13770 H 1289.07 1.68766 -3.08563 0
M  V30 13771 H 1288.94 3.13367 -2.09955 0
M  V30 13772 H 1291.33 2.69053 -1.2122 0
M  V30 13773 H 1291.41 1.24762 -2.23311 0
M  V30 13774 H 1291.05 2.7129 -4.29376 0
M  V30 13775 H 1290.98 4.14941 -3.2424 0
M  V30 13776 H 1293.48 2.71218 -2.63152 0
M  V30 13777 H 1293.79 5.09277 -5.81254 0
M  V30 13778 H 1292.13 4.58529 -5.22279 0
M  V30 13779 H 1295.32 3.30033 -3.31957 0
M  V30 13780 H 1295.5 4.38607 -4.76999 0
M  V30 13781 N 1288.9 1.00119 1.21713 0
M  V30 13782 C 1290.15 0.682733 1.90962 0
M  V30 13783 C 1290.48 -0.784131 1.77665 0
M  V30 13784 O 1289.76 -1.56799 1.15084 0
M  V30 13785 C 1290.04 1.09975 3.42896 0
M  V30 13786 C 1289.89 2.62578 3.65202 0
M  V30 13787 C 1291.21 0.659247 4.35134 0
M  V30 13788 H 1288.33 0.249501 0.693483 0
M  V30 13789 H 1290.97 1.24619 1.43423 0
M  V30 13790 H 1289.12 0.620334 3.83515 0
M  V30 13791 H 1290.8 3.18254 3.33934 0
M  V30 13792 H 1289.04 3.04268 3.09198 0
M  V30 13793 H 1289.71 2.86809 4.7164 0
M  V30 13794 H 1292.19 1.07116 4.02076 0
M  V30 13795 H 1291.06 0.979241 5.40095 0
M  V30 13796 H 1291.32 -0.439777 4.39907 0
M  V30 13797 N 1290.38 -1.37203 0.775435 0
M  V30 13798 C 1291.31 -2.32819 0.17826 0
M  V30 13799 C 1292.29 -1.55963 -0.678944 0
M  V30 13800 O 1293.48 -1.84183 -0.615648 0
M  V30 13801 C 1290.61 -3.40198 -0.698768 0
M  V30 13802 C 1289.56 -4.27961 0.057423 0
M  V30 13803 C 1288.89 -5.26385 -0.93929 0
M  V30 13804 C 1290.19 -5.07402 1.23856 0
M  V30 13805 H 1291.88 -2.8301 0.977028 0
M  V30 13806 H 1289.43 -1.3607 0.471274 0
M  V30 13807 H 1291.38 -4.06067 -1.12637 0
M  V30 13808 H 1290.1 -2.88541 -1.53009 0
M  V30 13809 H 1288.76 -3.63628 0.465848 0
M  V30 13810 H 1288.41 -4.71007 -1.76527 0
M  V30 13811 H 1288.11 -5.85966 -0.437844 0
M  V30 13812 H 1289.64 -5.9513 -1.36576 0
M  V30 13813 H 1291.05 -5.6639 0.887423 0
M  V30 13814 H 1289.45 -5.76327 1.67234 0
M  V30 13815 H 1290.52 -4.3986 2.04085 0
M  V30 13816 N 1291.86 -0.526279 -1.48553 0
M  V30 13817 C 1293.09 0.0052277 -2.06899 0
M  V30 13818 C 1293.5 1.2849 -1.38332 0
M  V30 13819 O 1292.86 1.76354 -0.469648 0
M  V30 13820 C 1292.91 0.236709 -3.60724 0
M  V30 13821 O 1292.63 -0.992256 -4.26715 0
M  V30 13822 C 1294.13 0.809014 -4.35855 0
M  V30 13823 H 1291.35 -0.0318426 -0.670244 0
M  V30 13824 H 1293.9 -0.730865 -1.90994 0
M  V30 13825 H 1292.05 0.922842 -3.76248 0
M  V30 13826 H 1292.47 -0.770697 -5.18807 0
M  V30 13827 H 1293.94 0.920428 -5.44272 0
M  V30 13828 H 1294.42 1.81302 -4.00033 0
M  V30 13829 H 1295.02 0.159564 -4.25001 0
M  V30 13830 N 1293.34 1.5542 -0.261239 0
M  V30 13831 C 1294.75 1.85161 0.239195 0
M  V30 13832 C 1295.1 1.18319 1.56509 0
M  V30 13833 O 1294.22 0.4666 2.1131 0
M  V30 13834 C 1294.82 3.3592 0.440781 0
M  V30 13835 C 1293.38 3.65837 0.885461 0
M  V30 13836 C 1292.53 2.77285 -0.0291982 0
M  V30 13837 H 1295.48 1.51158 -0.483417 0
M  V30 13838 H 1295.5 3.58276 1.28136 0
M  V30 13839 H 1295.01 3.84541 -0.524382 0
M  V30 13840 H 1293.11 3.22705 1.86259 0
M  V30 13841 H 1293.22 4.73469 0.732394 0
M  V30 13842 H 1291.59 2.50045 0.484701 0
M  V30 13843 H 1292.37 3.28716 -0.989992 0
M  V30 13844 N 1294.82 -0.0116844 1.57596 0
M  V30 13845 C 1296.09 -0.735344 1.81251 0
M  V30 13846 C 1296.47 -1.92634 0.863446 0
M  V30 13847 O 1295.82 -2.28321 -0.0905028 0
M  V30 13848 C 1296.03 -1.15206 3.29437 0
M  V30 13849 C 1297.38 -1.56078 3.94873 0
M  V30 13850 O 1298.4 -1.24618 3.3369 0
M  V30 13851 O 1297.26 -2.14534 5.0263 0
M  V30 13852 H 1294.36 -0.357044 0.745955 0
M  V30 13853 H 1296.9 0.0128733 1.69695 0
M  V30 13854 H 1295.67 -0.302619 3.90128 0
M  V30 13855 H 1295.3 -1.95975 3.45947 0
M  V30 13856 N 1296.29 -1.55015 -0.284256 0
M  V30 13857 C 1297.53 -1.76836 -1.02511 0
M  V30 13858 C 1297.9 -0.551675 -1.83904 0
M  V30 13859 O 1299.1 -0.647919 -2.60874 0
M  V30 13860 C 1297.37 -3.0312 -1.89348 0
M  V30 13861 S 1298.93 -3.46013 -2.69852 0
M  V30 13862 H 1295.75 -0.621436 -0.345453 0
M  V30 13863 H 1298.35 -1.93235 -0.296708 0
M  V30 13864 H 1297.05 -3.89778 -1.28458 0
M  V30 13865 H 1296.58 -2.89355 -2.66528 0
M  V30 13866 H 1298.6 -3.044 -3.91861 0
M  V30 13867 N 1297.77 0.548248 -1.47757 0
M  V30 13868 C 1299.18 1.13033 -1.48595 0
M  V30 13869 C 1299.53 1.94657 -0.245575 0
M  V30 13870 O 1298.66 2.06445 0.648813 0
M  V30 13871 C 1299.25 2.05657 -2.69241 0
M  V30 13872 C 1297.81 2.59119 -2.73009 0
M  V30 13873 C 1296.96 1.35686 -2.41836 0
M  V30 13874 H 1299.91 0.334397 -1.55137 0
M  V30 13875 H 1299.93 2.89671 -2.4672 0
M  V30 13876 H 1299.44 1.46222 -3.595 0
M  V30 13877 H 1297.54 3.22327 -1.86912 0
M  V30 13878 H 1297.66 2.99501 -3.73946 0
M  V30 13879 H 1296.02 1.66659 -1.92606 0
M  V30 13880 H 1296.8 0.780311 -3.34314 0
M  V30 13881 N 1299.25 1.36039 0.795694 0
M  V30 13882 C 1300.2 1.29853 1.90806 0
M  V30 13883 C 1301.17 0.168387 1.65244 0
M  V30 13884 O 1302.35 0.353879 1.8749 0
M  V30 13885 C 1299.49 1.08737 3.27521 0
M  V30 13886 C 1298.6 2.30771 3.65197 0
M  V30 13887 C 1297.74 2.02718 4.90998 0
M  V30 13888 C 1296.78 3.20746 5.21333 0
M  V30 13889 N 1295.92 2.92399 6.38316 0
M  V30 13890 H 1300.76 2.2497 1.95429 0
M  V30 13891 H 1298.29 1.11819 0.955771 0
M  V30 13892 H 1300.25 0.945236 4.06351 0
M  V30 13893 H 1298.88 0.172781 3.22337 0
M  V30 13894 H 1297.93 2.5581 2.81541 0
M  V30 13895 H 1299.24 3.18869 3.83568 0
M  V30 13896 H 1298.4 1.85398 5.77679 0
M  V30 13897 H 1297.14 1.11921 4.74684 0
M  V30 13898 H 1296.14 3.38632 4.33138 0
M  V30 13899 H 1297.37 4.1236 5.3957 0
M  V30 13900 H 1295.31 2.04207 6.23406 0
M  V30 13901 H 1295.23 3.74034 6.56989 0
M  V30 13902 H 1296.5 2.78643 7.27996 0
M  V30 13903 N 1300.73 -1.01913 1.20215 0
M  V30 13904 C 1301.69 -2.08563 0.950481 0
M  V30 13905 C 1302.69 -1.60634 -0.0729659 0
M  V30 13906 O 1303.88 -1.73437 0.162826 0
M  V30 13907 C 1301.01 -3.38171 0.430453 0
M  V30 13908 H 1302.21 -2.32323 1.89647 0
M  V30 13909 H 1299.76 -1.18674 1.01716 0
M  V30 13910 H 1300.49 -3.20086 -0.521126 0
M  V30 13911 H 1300.28 -3.74284 1.1685 0
M  V30 13912 H 1301.77 -4.16702 0.273781 0
M  V30 13913 N 1302.21 -1.00763 -1.2118 0
M  V30 13914 C 1303.45 -0.692851 -1.90598 0
M  V30 13915 C 1303.79 0.774698 -1.78079 0
M  V30 13916 O 1303.06 1.56186 -1.15914 0
M  V30 13917 C 1303.34 -1.11792 -3.42308 0
M  V30 13918 C 1303.2 -2.64511 -3.63805 0
M  V30 13919 C 1304.52 -0.682314 -4.34779 0
M  V30 13920 H 1301.63 -0.253175 -0.69215 0
M  V30 13921 H 1304.28 -1.25378 -1.4276 0
M  V30 13922 H 1302.43 -0.640665 -3.83181 0
M  V30 13923 H 1304.1 -3.20021 -3.32242 0
M  V30 13924 H 1302.34 -3.05903 -3.0758 0
M  V30 13925 H 1303.01 -2.89306 -4.70113 0
M  V30 13926 H 1305.49 -1.09247 -4.01503 0
M  V30 13927 H 1304.36 -1.00787 -5.39568 0
M  V30 13928 H 1304.63 0.416441 -4.40134 0
M  V30 13929 N 1303.68 1.3679 -0.7827 0
M  V30 13930 C 1304.63 2.27508 -0.149734 0
M  V30 13931 C 1305.62 1.46634 0.662368 0
M  V30 13932 O 1306.81 1.6908 0.523544 0
M  V30 13933 C 1303.94 3.35666 0.719939 0
M  V30 13934 C 1303.03 4.23981 -0.100588 0
M  V30 13935 N 1303.42 4.92513 -1.15173 0
M  V30 13936 C 1301.71 4.45834 0.121653 0
M  V30 13937 C 1302.42 5.57788 -1.65067 0
M  V30 13938 N 1301.39 5.35038 -0.96101 0
M  V30 13939 H 1305.19 2.77973 -0.954365 0
M  V30 13940 H 1302.71 1.50037 -0.62151 0
M  V30 13941 H 1304.7 3.99578 1.18926 0
M  V30 13942 H 1303.36 2.86756 1.52319 0
M  V30 13943 H 1304.38 4.94658 -1.53406 0
M  V30 13944 H 1301.05 4.07773 0.895945 0
M  V30 13945 H 1302.44 6.22534 -2.52787 0
M  V30 13946 N 1305.16 0.53415 1.48272 0
M  V30 13947 C 1306.39 0.00574475 2.06899 0
M  V30 13948 C 1306.81 -1.27754 1.39012 0
M  V30 13949 O 1306.16 -1.76102 0.478993 0
M  V30 13950 C 1306.21 -0.217576 3.60845 0
M  V30 13951 O 1305.93 1.01487 4.26183 0
M  V30 13952 C 1307.44 -0.785888 4.36278 0
M  V30 13953 H 1304.66 0.0353967 0.670066 0
M  V30 13954 H 1307.2 0.740984 1.90603 0
M  V30 13955 H 1305.35 -0.902875 3.76732 0
M  V30 13956 H 1305.77 0.7982 5.18391 0
M  V30 13957 H 1307.24 -0.891551 5.44753 0
M  V30 13958 H 1307.72 -1.79178 4.00989 0
M  V30 13959 H 1308.33 -0.137022 4.25079 0
M  V30 13960 N 1306.64 -1.55279 0.269478 0
M  V30 13961 C 1307.89 -1.99077 -0.348224 0
M  V30 13962 C 1308.21 -1.15925 -1.568 0
M  V30 13963 O 1307.48 -0.247404 -1.94331 0
M  V30 13964 H 1306.06 -0.735307 -0.131653 0
M  V30 13965 H 1308.72 -1.91288 0.373506 0
M  V30 13966 H 1307.82 -3.05427 -0.641953 0
M  V30 13967 N 1308.12 0.00332656 -1.576 0
M  V30 13968 C 1309.35 0.699945 -1.94701 0
M  V30 13969 C 1309.76 1.67492 -0.871312 0
M  V30 13970 O 1309.12 1.81882 0.150054 0
M  V30 13971 C 1309.17 1.43471 -3.31811 0
M  V30 13972 O 1308.89 0.498835 -4.35251 0
M  V30 13973 C 1310.39 2.22614 -3.83351 0
M  V30 13974 H 1307.61 0.195158 -0.641993 0
M  V30 13975 H 1310.16 -0.0468044 -2.04446 0
M  V30 13976 H 1308.31 2.13311 -3.23384 0
M  V30 13977 H 1308.72 1.01688 -5.14548 0
M  V30 13978 H 1310.2 2.69527 -4.81725 0
M  V30 13979 H 1310.68 3.05146 -3.15883 0
M  V30 13980 H 1311.28 1.57796 -3.94944 0
M  V30 13981 N 1309.6 1.55164 0.276031 0
M  V30 13982 C 1310.56 1.87065 1.32436 0
M  V30 13983 C 1311.56 0.745024 1.42499 0
M  V30 13984 O 1312.75 1.01321 1.41702 0
M  V30 13985 C 1309.88 2.07322 2.70611 0
M  V30 13986 H 1311.07 2.80775 1.05382 0
M  V30 13987 H 1308.63 1.47609 0.513947 0
M  V30 13988 H 1309.36 1.15983 3.0285 0
M  V30 13989 H 1309.15 2.89275 2.64693 0
M  V30 13990 H 1310.64 2.33287 3.46362 0
M  V30 13991 N 1311.07 -0.540404 1.48045 0
M  V30 13992 C 1312.32 -1.2932 1.54787 0
M  V30 13993 C 1312.64 -1.94335 0.222109 0
M  V30 13994 O 1313.84 -2.70982 0.167675 0
M  V30 13995 C 1312.3 -2.34594 2.72935 0
M  V30 13996 C 1311.91 -1.75696 4.1211 0
M  V30 13997 C 1313.65 -3.10949 2.88982 0
M  V30 13998 C 1311.56 -2.78849 5.21534 0
M  V30 13999 H 1310.49 -0.486315 0.576206 0
M  V30 14000 H 1313.14 -0.571998 1.74357 0
M  V30 14001 H 1311.52 -3.09704 2.46778 0
M  V30 14002 H 1312.69 -1.06845 4.48242 0
M  V30 14003 H 1311.01 -1.11869 4.01091 0
M  V30 14004 H 1313.61 -3.88012 3.679 0
M  V30 14005 H 1313.95 -3.66173 1.98048 0
M  V30 14006 H 1314.48 -2.42953 3.1499 0
M  V30 14007 H 1311.22 -2.28459 6.144 0
M  V30 14008 H 1310.74 -3.46059 4.89901 0
M  V30 14009 H 1312.42 -3.4203 5.49203 0
M  V30 14010 N 1312.55 -1.36459 -0.788468 0
M  V30 14011 C 1313.97 -1.16893 -1.08666 0
M  V30 14012 C 1314.17 0.00633808 -2.01499 0
M  V30 14013 O 1313.22 0.671417 -2.4341 0
M  V30 14014 C 1314.54 -2.48018 -1.70022 0
M  V30 14015 C 1316.09 -2.5439 -1.82358 0
M  V30 14016 C 1316.56 -3.85605 -2.47129 0
M  V30 14017 N 1318.05 -3.86956 -2.54597 0
M  V30 14018 C 1318.79 -4.85224 -3.05525 0
M  V30 14019 N 1318.28 -5.93885 -3.56753 0
M  V30 14020 N 1320.08 -4.72643 -3.04246 0
M  V30 14021 H 1312.23 -2.11705 -0.171733 0
M  V30 14022 H 1314.49 -0.937784 -0.1388 0
M  V30 14023 H 1314.2 -3.34292 -1.09277 0
M  V30 14024 H 1314.07 -2.63894 -2.69518 0
M  V30 14025 H 1316.46 -1.68534 -2.4224 0
M  V30 14026 H 1316.54 -2.42414 -0.816651 0
M  V30 14027 H 1316.18 -4.71868 -1.87891 0
M  V30 14028 H 1316.11 -3.94878 -3.48395 0
M  V30 14029 H 1318.6 -3.08453 -2.18323 0
M  V30 14030 H 1318.92 -6.64839 -3.93966 0
M  V30 14031 H 1317.26 -5.97553 -3.54902 0
M  V30 14032 H 1320.45 -3.86883 -2.63513 0
M  V30 14033 H 1320.62 -5.49385 -3.43627 0
M  V30 14034 N 1314.03 1.01274 -1.20754 0
M  V30 14035 C 1314.96 2.10029 -0.917628 0
M  V30 14036 C 1315.98 1.62516 0.0961411 0
M  V30 14037 O 1317.16 1.77986 -0.135371 0
M  V30 14038 C 1314.26 3.37037 -0.354891 0
M  V30 14039 C 1313.44 4.1367 -1.42113 0
M  V30 14040 C 1312.5 5.18974 -0.869023 0
M  V30 14041 O 1311.52 5.47671 -1.55063 0
M  V30 14042 N 1312.72 5.79619 0.319631 0
M  V30 14043 H 1315.49 2.35485 -1.85383 0
M  V30 14044 H 1313.05 1.17695 -1.11173 0
M  V30 14045 H 1315.04 4.0469 0.0286895 0
M  V30 14046 H 1313.61 3.088 0.485956 0
M  V30 14047 H 1312.83 3.40931 -1.97889 0
M  V30 14048 H 1314.12 4.61649 -2.13911 0
M  V30 14049 H 1313.52 5.58646 0.89059 0
M  V30 14050 H 1312.08 6.48603 0.644807 0
M  V30 14051 N 1315.51 1.01404 1.20644 0
M  V30 14052 C 1316.73 0.720839 1.9447 0
M  V30 14053 C 1317.16 -0.711711 1.74116 0
M  V30 14054 O 1316.52 -1.48938 1.03379 0
M  V30 14055 C 1316.57 1.05864 3.4471 0
M  V30 14056 O 1315.67 0.168901 4.12054 0
M  V30 14057 H 1315.01 0.267698 0.607646 0
M  V30 14058 H 1317.54 1.35672 1.53147 0
M  V30 14059 H 1317.55 1.00928 3.9532 0
M  V30 14060 H 1316.23 2.1024 3.58848 0
M  V30 14061 H 1314.8 0.275572 3.7188 0
M  V30 14062 N 1316.99 -1.36373 0.789944 0
M  V30 14063 C 1318.21 -2.04011 0.373396 0
M  V30 14064 C 1318.64 -1.59171 -1.00231 0
M  V30 14065 O 1318 -0.760431 -1.64582 0
M  V30 14066 C 1318.04 -3.5783 0.446083 0
M  V30 14067 O 1317.15 -4.08759 -0.54678 0
M  V30 14068 H 1316.49 -0.644807 0.158495 0
M  V30 14069 H 1319.02 -1.74317 1.0712 0
M  V30 14070 H 1319.03 -4.06822 0.309877 0
M  V30 14071 H 1317.7 -3.89819 1.44962 0
M  V30 14072 H 1316.28 -3.71038 -0.372192 0
M  V30 14073 N 1318.47 -0.542005 -1.47987 0
M  V30 14074 C 1319.71 -0.0122873 -2.02096 0
M  V30 14075 C 1320.03 1.3362 -1.42024 0
M  V30 14076 O 1319.3 1.86807 -0.589911 0
M  V30 14077 H 1317.88 -0.00155365 -0.746998 0
M  V30 14078 H 1320.55 -0.708566 -1.81564 0
M  V30 14079 H 1319.64 0.0871275 -3.11978 0
M  V30 14080 N 1319.94 1.55134 -0.277709 0
M  V30 14081 C 1320.87 2.256 0.602232 0
M  V30 14082 C 1321.85 1.24708 1.15681 0
M  V30 14083 O 1323.04 1.53433 1.19046 0
M  V30 14084 C 1320.17 2.97907 1.78519 0
M  V30 14085 C 1319.12 4.0575 1.36203 0
M  V30 14086 C 1318.45 4.65644 2.62829 0
M  V30 14087 C 1319.75 5.19801 0.510327 0
M  V30 14088 H 1321.44 2.99396 0.0145622 0
M  V30 14089 H 1318.99 1.43999 0.00556389 0
M  V30 14090 H 1320.94 3.45915 2.40668 0
M  V30 14091 H 1319.67 2.21649 2.39873 0
M  V30 14092 H 1318.33 3.58557 0.763726 0
M  V30 14093 H 1317.97 3.86053 3.22447 0
M  V30 14094 H 1317.67 5.38463 2.35227 0
M  V30 14095 H 1319.2 5.16403 3.25823 0
M  V30 14096 H 1320.61 5.63845 1.03689 0
M  V30 14097 H 1319.01 5.99197 0.329073 0
M  V30 14098 H 1320.08 4.82614 -0.470273 0
M  V30 14099 N 1321.42 0.00503138 1.57599 0
M  V30 14100 C 1322.38 -0.969628 2.0768 0
M  V30 14101 C 1323.38 -1.26933 0.987148 0
M  V30 14102 O 1324.57 -1.21368 1.24962 0
M  V30 14103 C 1321.71 -2.29312 2.52247 0
M  V30 14104 H 1322.9 -0.536342 2.95065 0
M  V30 14105 H 1320.45 -0.242543 1.54407 0
M  V30 14106 H 1321.19 -2.7732 1.6812 0
M  V30 14107 H 1320.97 -2.08878 3.31832 0
M  V30 14108 H 1322.46 -2.99221 2.91302 0
M  V30 14109 N 1322.9 -1.55308 -0.267798 0
M  V30 14110 C 1324.15 -1.7642 -1.00019 0
M  V30 14111 C 1324.48 -0.566559 -1.85752 0
M  V30 14112 O 1323.75 0.435752 -1.89556 0
M  V30 14113 C 1324.04 -3.07229 -1.87836 0
M  V30 14114 C 1323.89 -4.37358 -1.05061 0
M  V30 14115 C 1325.21 -3.34113 -2.86455 0
M  V30 14116 H 1322.33 -0.641859 -0.362197 0
M  V30 14117 H 1324.97 -1.8804 -0.272188 0
M  V30 14118 H 1323.12 -2.97454 -2.49907 0
M  V30 14119 H 1324.79 -4.59098 -0.450208 0
M  V30 14120 H 1323.03 -4.32351 -0.354242 0
M  V30 14121 H 1323.71 -5.25223 -1.69838 0
M  V30 14122 H 1326.18 -3.43715 -2.34519 0
M  V30 14123 H 1325.06 -4.26896 -3.45038 0
M  V30 14124 H 1325.32 -2.54005 -3.61848 0
M  V30 14125 N 1324.38 0.532545 -1.4833 0
M  V30 14126 C 1325.63 1.28498 -1.55471 0
M  V30 14127 C 1325.94 1.94214 -0.232412 0
M  V30 14128 O 1327.15 2.70889 -0.182044 0
M  V30 14129 C 1325.6 2.33144 -2.74175 0
M  V30 14130 C 1325.21 1.73508 -4.13036 0
M  V30 14131 C 1326.95 3.09413 -2.90627 0
M  V30 14132 C 1324.86 2.76079 -5.23005 0
M  V30 14133 H 1323.79 0.483253 -0.578777 0
M  V30 14134 H 1326.44 0.562744 -1.74658 0
M  V30 14135 H 1324.82 3.08391 -2.48417 0
M  V30 14136 H 1326 1.04466 -4.48802 0
M  V30 14137 H 1324.31 1.0974 -4.01679 0
M  V30 14138 H 1326.91 3.86056 -3.69953 0
M  V30 14139 H 1327.25 3.65118 -1.99987 0
M  V30 14140 H 1327.79 2.4128 -3.16274 0
M  V30 14141 H 1324.52 2.25197 -6.15602 0
M  V30 14142 H 1324.04 3.43456 -4.9173 0
M  V30 14143 H 1325.72 3.39113 -5.51009 0
M  V30 14144 N 1325.86 1.36875 0.78122 0
M  V30 14145 C 1326.82 1.31706 1.8758 0
M  V30 14146 C 1327.82 0.223044 1.59246 0
M  V30 14147 O 1329.01 0.478327 1.67504 0
M  V30 14148 C 1326.14 1.0437 3.2453 0
M  V30 14149 H 1327.33 2.29059 1.93576 0
M  V30 14150 H 1324.89 1.21766 0.979931 0
M  V30 14151 H 1325.62 0.0750941 3.24213 0
M  V30 14152 H 1325.41 1.83548 3.46486 0
M  V30 14153 H 1326.9 1.0338 4.04602 0
M  V30 14154 N 1327.33 -1.00632 1.21289 0
M  V30 14155 C 1328.56 -1.78503 1.05601 0
M  V30 14156 C 1328.98 -1.84015 -0.389879 0
M  V30 14157 O 1328.34 -1.28277 -1.2812 0
M  V30 14158 C 1328.39 -3.20313 1.65626 0
M  V30 14159 O 1327.49 -4.02441 0.900841 0
M  V30 14160 H 1326.83 -0.550183 0.371746 0
M  V30 14161 H 1329.36 -1.26505 1.60803 0
M  V30 14162 H 1329.37 -3.70992 1.69792 0
M  V30 14163 H 1328.05 -3.15616 2.7085 0
M  V30 14164 H 1326.63 -3.61009 0.934178 0
M  V30 14165 N 1328.81 -1.02043 -1.20104 0
M  V30 14166 C 1330.09 -0.626922 -1.85281 0
M  V30 14167 C 1330.47 0.894819 -1.91197 0
M  V30 14168 O 1329.82 1.7881 -1.42265 0
M  V30 14169 C 1330.03 -1.27917 -3.24713 0
M  V30 14170 C 1331.37 -1.39704 -4.00959 0
M  V30 14171 O 1332.4 -1.23568 -3.3408 0
M  V30 14172 O 1331.26 -1.65814 -5.20738 0
M  V30 14173 H 1328.35 -0.216815 -0.798073 0
M  V30 14174 H 1330.9 -1.11804 -1.27663 0
M  V30 14175 H 1329.67 -2.3188 -3.15194 0
M  V30 14176 H 1329.29 -0.775371 -3.89966 0
M  V30 14177 N 1330.29 1.35952 -0.797165 0
M  V30 14178 C 1331.22 2.32506 -0.215277 0
M  V30 14179 C 1332.2 1.57023 0.654046 0
M  V30 14180 O 1333.39 1.85139 0.586268 0
M  V30 14181 C 1330.52 3.41266 0.644557 0
M  V30 14182 C 1329.47 4.27816 -0.125501 0
M  V30 14183 C 1328.8 5.27813 0.855428 0
M  V30 14184 C 1330.1 5.05367 -1.31913 0
M  V30 14185 H 1331.79 2.8142 -1.02193 0
M  V30 14186 H 1329.34 1.35303 -0.492862 0
M  V30 14187 H 1331.29 4.07808 1.06163 0
M  V30 14188 H 1330.01 2.90938 1.484 0
M  V30 14189 H 1328.67 3.62841 -0.523639 0
M  V30 14190 H 1328.32 4.73755 1.69011 0
M  V30 14191 H 1328.02 5.86589 0.344566 0
M  V30 14192 H 1329.54 5.97227 1.2709 0
M  V30 14193 H 1330.96 5.64907 -0.977418 0
M  V30 14194 H 1329.36 5.73593 -1.76382 0
M  V30 14195 H 1330.43 4.36558 -2.11057 0
M  V30 14196 N 1331.77 0.549846 1.47697 0
M  V30 14197 C 1333.18 0.11453 1.86348 0
M  V30 14198 C 1333.53 -1.31368 1.45729 0
M  V30 14199 O 1332.66 -1.98707 0.856989 0
M  V30 14200 C 1333.25 0.201072 3.38203 0
M  V30 14201 C 1331.81 -0.179162 3.75973 0
M  V30 14202 C 1330.96 0.551951 2.71751 0
M  V30 14203 H 1333.91 0.759989 1.39319 0
M  V30 14204 H 1333.93 -0.582216 3.76019 0
M  V30 14205 H 1333.44 1.24065 3.67736 0
M  V30 14206 H 1331.54 -1.22013 3.52056 0
M  V30 14207 H 1331.65 0.174273 4.78783 0
M  V30 14208 H 1330.02 -0.00411819 2.547 0
M  V30 14209 H 1330.8 1.59254 3.04127 0
M  V30 14210 O 1333.29 -1.55727 0.427937 0
M  V30 14211 H 1333.98 -1.93398 -0.108068 0
M  V30 END ATOM
M  V30 BEGIN BOND
M  V30 END BOND
M  V30 END CTAB
M  END
$$$$
