drugbank_target|P0AB71 Fructose-bisphosphate aldolase class 2 (DB03026)
 OpenBabel12092120033D

  0  0  0     0  0            999 V3000
M  V30 BEGIN CTAB
M  V30 COUNTS 5458 5519 0 0 0
M  V30 BEGIN ATOM
M  V30 1 H -0.908 1.98254 -0.117106 0
M  V30 2 N 0 1.576 0 0
M  V30 3 C 0.933 2.03868 1.02534 0
M  V30 4 C 1.911 0.928543 1.3348 0
M  V30 5 O 3.095 1.19667 1.45644 0
M  V30 6 C 0.222 2.43627 2.35294 0
M  V30 7 C -0.732 3.65373 2.2001 0
M  V30 8 S 0.101 5.13292 1.52614 0
M  V30 9 C 1.257 5.56322 2.86805 0
M  V30 10 H 1.49 2.90518 0.631377 0
M  V30 11 H -0.977 1.52953 0.210867 0
M  V30 12 H 0.981 2.67203 3.11629 0
M  V30 13 H -0.358 1.57376 2.7183 0
M  V30 14 H -1.165 3.90944 3.18086 0
M  V30 15 H -1.563 3.418 1.51819 0
M  V30 16 H 0.729 5.58782 3.83104 0
M  V30 17 H 1.672 6.56266 2.65933 0
M  V30 18 H 2.08 4.83886 2.90714 0
M  V30 19 N 1.4781 -0.272755 1.55222 0
M  V30 20 C 2.7031 -1.02683 1.80197 0
M  V30 21 C 3.1281 -1.79142 0.573551 0
M  V30 22 O 2.4861 -1.74917 -0.476849 0
M  V30 23 C 2.5341 -1.9609 3.02624 0
M  V30 24 O 1.6381 -3.04863 2.77727 0
M  V30 25 H 0.9791 -0.293557 0.595584 0
M  V30 26 H 3.5091 -0.30159 2.02365 0
M  V30 27 H 3.5191 -2.38039 3.31363 0
M  V30 28 H 2.1941 -1.39851 3.91682 0
M  V30 29 H 0.7711 -2.67228 2.60084 0
M  V30 30 N 2.9562 -1.48159 -0.537278 0
M  V30 31 C 3.9032 -1.62138 -1.64256 0
M  V30 32 C 4.8732 -0.463668 -1.59497 0
M  V30 33 O 6.0582 -0.686241 -1.78032 0
M  V30 34 C 3.1982 -1.66028 -3.02537 0
M  V30 35 C 2.3112 -2.92855 -3.17585 0
M  V30 36 C 1.4462 -2.87952 -4.46382 0
M  V30 37 C 0.4852 -4.09516 -4.54932 0
M  V30 38 N -0.3778 -4.02733 -5.75109 0
M  V30 39 H 4.4622 -2.56529 -1.51647 0
M  V30 40 H 1.9992 -1.27224 -0.738414 0
M  V30 41 H 3.9572 -1.66265 -3.82638 0
M  V30 42 H 2.5872 -0.751331 -3.13934 0
M  V30 43 H 1.6392 -3.02395 -2.30784 0
M  V30 44 H 2.9512 -3.82822 -3.19764 0
M  V30 45 H 2.1052 -2.8655 -5.34765 0
M  V30 46 H 0.8442 -1.95702 -4.46712 0
M  V30 47 H -0.1508 -4.11201 -3.64957 0
M  V30 48 H 1.0742 -5.02917 -4.56346 0
M  V30 49 H -0.9798 -3.13299 -5.76351 0
M  V30 50 H -1.0628 -4.86397 -5.78752 0
M  V30 51 H 0.2052 -4.05379 -6.65799 0
M  V30 52 N 4.4343 0.785586 -1.36625 0
M  V30 53 C 5.6833 1.53883 -1.30396 0
M  V30 54 C 5.9963 1.95271 0.113452 0
M  V30 55 O 7.2023 2.69858 0.298142 0
M  V30 56 C 5.6583 2.77808 -2.28802 0
M  V30 57 C 5.2663 2.43574 -3.75999 0
M  V30 58 C 7.0103 3.55783 -2.31558 0
M  V30 59 C 4.9173 3.63919 -4.66173 0
M  V30 60 H 3.8473 0.577678 -0.484566 0
M  V30 61 H 6.4983 0.861705 -1.62009 0
M  V30 62 H 4.8803 3.47339 -1.90188 0
M  V30 63 H 6.0543 1.81916 -4.23371 0
M  V30 64 H 4.3693 1.78803 -3.76056 0
M  V30 65 H 6.9663 4.45205 -2.96137 0
M  V30 66 H 7.3093 3.94644 -1.3252 0
M  V30 67 H 7.8423 2.93235 -2.68809 0
M  V30 68 H 4.5813 3.3015 -5.66287 0
M  V30 69 H 4.1013 4.2473 -4.23515 0
M  V30 70 H 5.7803 4.30901 -4.82632 0
M  V30 71 N 5.9124 1.20967 1.01018 0
M  V30 72 C 7.1594 1.02374 1.74716 0
M  V30 73 C 7.4874 -0.443375 1.89379 0
M  V30 74 O 6.7424 -1.34535 1.42123 0
M  V30 75 C 7.0414 1.65997 3.16512 0
M  V30 76 C 6.7074 3.15831 3.2181 0
M  V30 77 C 5.3694 3.56719 3.22963 0
M  V30 78 C 7.7214 4.11816 3.19464 0
M  V30 79 C 5.0494 4.92107 3.19449 0
M  V30 80 C 7.4014 5.47158 3.17491 0
M  V30 81 C 6.0654 5.87451 3.16951 0
M  V30 82 H 5.3354 0.374614 0.639332 0
M  V30 83 H 7.9824 1.50485 1.18434 0
M  V30 84 H 6.2874 1.10166 3.75993 0
M  V30 85 H 7.9844 1.49119 3.72242 0
M  V30 86 H 4.5744 2.83263 3.21652 0
M  V30 87 H 8.7584 3.81257 3.17737 0
M  V30 88 H 4.0144 5.22579 3.17366 0
M  V30 89 H 8.1884 6.21274 3.14629 0
M  V30 90 H 5.8154 6.92329 3.13983 0
M  V30 91 N 7.3905 -1.2043 1.01659 0
M  V30 92 C 8.6675 -1.8548 0.621004 0
M  V30 93 C 9.0475 -1.9091 -0.900919 0
M  V30 94 O 8.3955 -1.41694 -1.79263 0
M  V30 95 C 8.6055 -3.25119 1.2688 0
M  V30 96 C 9.9535 -4.01403 1.38423 0
M  V30 97 O 10.9775 -3.34473 1.22501 0
M  V30 98 O 9.8365 -5.21265 1.64151 0
M  V30 99 H 6.9305 -0.798761 0.214266 0
M  V30 100 H 9.4765 -1.28019 1.11396 0
M  V30 101 H 8.2485 -3.15932 2.30873 0
M  V30 102 H 7.8715 -3.90212 0.762917 0
M  V30 103 N 8.8686 -0.792821 -1.36206 0
M  V30 104 C 10.1156 -0.366786 -1.99151 0
M  V30 105 C 10.4436 1.06243 -1.62919 0
M  V30 106 O 9.6986 1.74927 -0.877442 0
M  V30 107 C 9.9976 -0.481501 -3.54142 0
M  V30 108 C 9.6636 -1.87202 -4.10203 0
M  V30 109 C 8.3256 -2.25248 -4.25226 0
M  V30 110 C 10.6776 -2.78237 -4.40719 0
M  V30 111 C 8.0056 -3.53723 -4.68078 0
M  V30 112 C 10.3576 -4.06144 -4.85005 0
M  V30 113 C 9.0216 -4.44207 -4.98234 0
M  V30 114 H 8.2916 -0.134217 -0.728743 0
M  V30 115 H 10.9386 -1.01094 -1.62641 0
M  V30 116 H 9.2436 0.246146 -3.91026 0
M  V30 117 H 10.9406 -0.132844 -4.0078 0
M  V30 118 H 7.5306 -1.56639 -3.98951 0
M  V30 119 H 11.7146 -2.50097 -4.28679 0
M  V30 120 H 6.9706 -3.8308 -4.76508 0
M  V30 121 H 11.1446 -4.76796 -5.07581 0
M  V30 122 H 8.7716 -5.43814 -5.31197 0
M  V30 123 N 10.3467 1.47872 -0.545128 0
M  V30 124 C 11.5927 2.02793 -0.0166104 0
M  V30 125 C 11.9257 1.41987 1.32489 0
M  V30 126 O 11.2007 0.571045 1.85928 0
M  V30 127 C 11.4837 3.59989 0.0893294 0
M  V30 128 C 11.3367 4.3125 -1.27841 0
M  V30 129 C 12.6557 4.32606 0.808724 0
M  V30 130 H 9.7747 0.736962 -0.00751035 0
M  V30 131 H 12.4167 1.76433 -0.705085 0
M  V30 132 H 10.5667 3.82579 0.675681 0
M  V30 133 H 12.2387 4.20035 -1.90704 0
M  V30 134 H 10.4817 3.92076 -1.85632 0
M  V30 135 H 11.1527 5.39736 -1.15713 0
M  V30 136 H 13.6287 4.14936 0.310992 0
M  V30 137 H 12.5047 5.42251 0.851782 0
M  V30 138 H 12.7657 4.00963 1.86229 0
M  V30 139 N 11.8248 0.280983 1.55075 0
M  V30 140 C 12.7718 -0.603937 2.22758 0
M  V30 141 C 13.7418 -1.1452 1.20309 0
M  V30 142 O 14.9268 -1.19343 1.48869 0
M  V30 143 C 12.0668 -1.77947 2.95684 0
M  V30 144 C 11.1798 -1.2715 4.12864 0
M  V30 145 C 10.3148 -2.4093 4.7342 0
M  V30 146 C 9.3538 -1.87165 5.82783 0
M  V30 147 N 8.4908 -2.94441 6.37377 0
M  V30 148 H 13.3308 -0.020124 2.97993 0
M  V30 149 H 10.8678 0.00183425 1.471 0
M  V30 150 H 12.8258 -2.47055 3.36184 0
M  V30 151 H 11.4558 -2.33522 2.22861 0
M  V30 152 H 10.5078 -0.473331 3.77444 0
M  V30 153 H 11.8198 -0.837751 4.91715 0
M  V30 154 H 10.9738 -3.18021 5.1667 0
M  V30 155 H 9.7128 -2.87623 3.93859 0
M  V30 156 H 8.7178 -1.08556 5.38976 0
M  V30 157 H 9.9428 -1.41401 6.64216 0
M  V30 158 H 7.8888 -3.40505 5.60707 0
M  V30 159 H 7.8058 -2.55501 7.11516 0
M  V30 160 H 9.0738 -3.71489 6.85285 0
M  V30 161 N 13.3029 -1.57598 0.00835791 0
M  V30 162 C 14.7139 -1.7892 -0.53333 0
M  V30 163 C 15.0649 -0.916609 -1.73473 0
M  V30 164 O 14.1899 -0.121336 -2.1606 0
M  V30 165 C 14.7849 -3.24488 -0.974313 0
M  V30 166 C 13.3439 -3.46878 -1.46125 0
M  V30 167 C 12.4909 -2.74157 -0.416302 0
M  V30 168 H 15.4419 -1.56958 0.234495 0
M  V30 169 H 15.4629 -3.3306 -1.83988 0
M  V30 170 H 14.9749 -3.87972 -0.099718 0
M  V30 171 H 13.0759 -2.8862 -2.35646 0
M  V30 172 H 13.1889 -4.55572 -1.48295 0
M  V30 173 H 11.5529 -2.39022 -0.87981 0
M  V30 174 H 12.3359 -3.40345 0.44947 0
M  V30 175 N 14.781 0.264519 -1.55364 0
M  V30 176 C 16.029 0.993021 -1.76021 0
M  V30 177 C 16.35 1.86511 -0.569099 0
M  V30 178 O 15.62 1.91438 0.415735 0
M  V30 179 H 14.2 0.369639 -0.649135 0
M  V30 180 H 16.862 0.286707 -1.9278 0
M  V30 181 H 15.958 1.62502 -2.66457 0
M  V30 182 N 16.2591 1.48442 0.529413 0
M  V30 183 C 17.5051 1.5672 1.28711 0
M  V30 184 C 17.8381 0.2406 1.92704 0
M  V30 185 O 17.1131 -0.753454 1.79313 0
M  V30 186 C 17.3961 2.70587 2.37603 0
M  V30 187 C 17.2491 4.12953 1.78297 0
M  V30 188 C 18.5681 2.80212 3.39366 0
M  V30 189 H 15.6871 0.570474 0.466613 0
M  V30 190 H 18.3291 1.80617 0.589706 0
M  V30 191 H 16.4791 2.50342 2.97088 0
M  V30 192 H 18.1511 4.44639 1.22858 0
M  V30 193 H 16.3941 4.19927 1.0883 0
M  V30 194 H 17.0651 4.88448 2.57144 0
M  V30 195 H 19.5411 2.98553 2.89836 0
M  V30 196 H 18.4171 3.61611 4.12951 0
M  V30 197 H 18.6781 1.88393 3.99951 0
M  V30 198 N 17.7372 -0.778329 1.37039 0
M  V30 199 C 18.9862 -1.53189 1.3121 0
M  V30 200 C 19.2992 -1.95328 -0.103095 0
M  V30 201 O 20.5052 -2.70012 -0.283826 0
M  V30 202 C 18.9612 -2.76591 2.30272 0
M  V30 203 C 18.5692 -2.41577 3.77286 0
M  V30 204 C 20.3132 -3.5455 2.33441 0
M  V30 205 C 18.2202 -3.61441 4.68096 0
M  V30 206 H 17.1502 -0.5751 0.487622 0
M  V30 207 H 19.8012 -0.853101 1.62464 0
M  V30 208 H 18.1832 -3.46326 1.92027 0
M  V30 209 H 19.3572 -1.79668 4.2433 0
M  V30 210 H 17.6722 -1.76806 3.76999 0
M  V30 211 H 20.2692 -4.43628 2.98493 0
M  V30 212 H 20.6122 -3.93936 1.34611 0
M  V30 213 H 21.1452 -2.91805 2.7036 0
M  V30 214 H 17.8842 -3.27142 5.6803 0
M  V30 215 H 17.4042 -4.22478 4.25761 0
M  V30 216 H 19.0832 -4.28335 4.8491 0
M  V30 217 N 19.2153 -1.21501 -1.00376 0
M  V30 218 C 20.4433 -1.059 -1.77744 0
M  V30 219 C 20.8583 0.391125 -1.84704 0
M  V30 220 O 20.2153 1.27133 -1.30933 0
M  V30 221 C 20.2663 -1.65111 -3.21591 0
M  V30 222 O 19.9873 -3.0445 -3.15027 0
M  V30 223 C 21.4883 -1.54637 -4.15454 0
M  V30 224 H 18.7083 -0.371825 -0.558558 0
M  V30 225 H 21.2523 -1.60865 -1.26264 0
M  V30 226 H 19.4073 -1.14235 -3.70175 0
M  V30 227 H 19.8213 -3.3278 -4.0541 0
M  V30 228 H 21.2953 -2.00808 -5.14179 0
M  V30 229 H 21.7723 -0.501022 -4.36333 0
M  V30 230 H 22.3783 -2.04767 -3.72761 0
M  V30 231 N 20.6934 1.19889 -1.02296 0
M  V30 232 C 21.9414 1.89046 -0.714558 0
M  V30 233 C 22.2624 1.79636 0.758681 0
M  V30 234 O 21.5324 1.20292 1.54618 0
M  V30 235 H 20.1124 0.699802 -0.261317 0
M  V30 236 H 22.7744 1.45574 -1.29592 0
M  V30 237 H 21.8704 2.95524 -1.0036 0
M  V30 238 N 22.1715 0.800033 1.35784 0
M  V30 239 C 23.4485 0.30088 1.93272 0
M  V30 240 C 23.8285 -1.20857 1.73081 0
M  V30 241 O 23.1765 -2.00502 1.09596 0
M  V30 242 C 23.3865 0.70511 3.41803 0
M  V30 243 C 24.7345 0.690871 4.18942 0
M  V30 244 O 25.7585 0.646244 3.50289 0
M  V30 245 O 24.6175 0.74332 5.41421 0
M  V30 246 H 21.7115 0.0771605 0.823393 0
M  V30 247 H 24.2575 0.88329 1.449 0
M  V30 248 H 23.0295 1.74571 3.50201 0
M  V30 249 H 22.6525 0.0971541 3.97481 0
M  V30 250 N 23.6496 -1.47581 0.552962 0
M  V30 251 C 24.9266 -1.95563 -0.0381515 0
M  V30 252 C 25.3066 -1.49552 -1.48988 0
M  V30 253 O 24.6546 -0.732414 -2.16444 0
M  V30 254 C 24.8646 -3.48848 0.102919 0
M  V30 255 C 26.2126 -4.24577 -0.0446082 0
M  V30 256 O 27.2366 -3.56187 0.0302548 0
M  V30 257 O 26.0956 -5.46116 -0.204923 0
M  V30 258 H 23.1896 -0.824321 -0.0665067 0
M  V30 259 H 25.7356 -1.58001 0.619186 0
M  V30 260 H 24.5076 -3.75129 1.11328 0
M  V30 261 H 24.1306 -3.93165 -0.592224 0
M  V30 262 N 25.1277 -0.289203 -1.54924 0
M  V30 263 C 26.3737 0.323998 -2.00195 0
M  V30 264 C 26.7067 1.54441 -1.17735 0
M  V30 265 O 25.9817 1.92875 -0.250878 0
M  V30 266 C 26.2647 0.692276 -3.53383 0
M  V30 267 C 26.1177 -0.536457 -4.46589 0
M  V30 268 C 27.4367 1.52335 -4.12895 0
M  V30 269 H 24.5557 0.116289 -0.727768 0
M  V30 270 H 27.1977 -0.398954 -1.85764 0
M  V30 271 H 25.3477 1.30822 -3.65811 0
M  V30 272 H 27.0197 -1.17499 -4.46085 0
M  V30 273 H 25.2627 -1.17192 -4.1767 0
M  V30 274 H 25.9337 -0.234806 -5.515 0
M  V30 275 H 28.4097 1.00302 -4.0383 0
M  V30 276 H 27.2857 1.74982 -5.20262 0
M  V30 277 H 27.5467 2.50886 -3.64018 0
M  V30 278 N 26.6058 1.57591 -0.0167156 0
M  V30 279 C 27.5378 2.06343 0.997753 0
M  V30 280 C 28.5508 0.984469 1.29661 0
M  V30 281 O 29.7398 1.26093 1.26344 0
M  V30 282 C 26.8398 2.46255 2.32834 0
M  V30 283 C 26.0128 3.77083 2.21646 0
M  V30 284 C 25.0718 4.0368 3.37534 0
M  V30 285 O 24.0978 4.7411 3.14973 0
M  V30 286 N 25.2998 3.52881 4.60929 0
M  V30 287 H 28.0648 2.93997 0.581875 0
M  V30 288 H 25.6258 1.61002 0.170316 0
M  V30 289 H 27.6178 2.61149 3.09166 0
M  V30 290 H 26.1878 1.64032 2.66106 0
M  V30 291 H 25.4078 3.72106 1.30119 0
M  V30 292 H 26.6958 4.62822 2.11361 0
M  V30 293 H 26.0938 2.95878 4.82154 0
M  V30 294 H 24.6508 3.73076 5.34469 0
M  V30 295 N 28.0839 -0.256276 1.55502 0
M  V30 296 C 29.0309 -1.31714 1.89526 0
M  V30 297 C 30.0009 -1.4828 0.748479 0
M  V30 298 O 31.1859 -1.62416 1.00128 0
M  V30 299 C 28.3259 -2.66933 2.18725 0
M  V30 300 C 27.4389 -2.58452 3.4616 0
M  V30 301 C 26.5739 -3.85961 3.64976 0
M  V30 302 C 25.6129 -3.72059 4.86044 0
M  V30 303 N 24.7499 -4.9144 5.01429 0
M  V30 304 H 29.5899 -1.01998 2.80001 0
M  V30 305 H 27.1269 -0.492413 1.38613 0
M  V30 306 H 29.0849 -3.4563 2.33657 0
M  V30 307 H 27.7149 -2.94816 1.31466 0
M  V30 308 H 26.7669 -1.71374 3.3961 0
M  V30 309 H 28.0789 -2.44085 4.34999 0
M  V30 310 H 27.2329 -4.73101 3.79816 0
M  V30 311 H 25.9719 -4.03215 2.74353 0
M  V30 312 H 24.9769 -2.83302 4.7119 0
M  V30 313 H 26.2019 -3.56309 5.78118 0
M  V30 314 H 24.1479 -5.09072 4.13741 0
M  V30 315 H 24.0649 -4.79668 5.84341 0
M  V30 316 H 25.3329 -5.80104 5.20672 0
M  V30 317 N 29.562 -1.4872 -0.521534 0
M  V30 318 C 30.808 -1.574 -1.27879 0
M  V30 319 C 31.141 -0.250817 -1.92573 0
M  V30 320 O 30.416 0.743934 -1.79711 0
M  V30 321 C 30.699 -2.71843 -2.36164 0
M  V30 322 C 30.552 -4.13893 -1.76105 0
M  V30 323 C 31.871 -2.82008 -3.37875 0
M  V30 324 H 28.99 -0.572941 -0.463581 0
M  V30 325 H 31.632 -1.80927 -0.580119 0
M  V30 326 H 29.782 -2.51914 -2.95756 0
M  V30 327 H 31.454 -4.45284 -1.20499 0
M  V30 328 H 29.697 -4.20498 -1.06601 0
M  V30 329 H 30.368 -4.89804 -2.5455 0
M  V30 330 H 32.844 -3.00086 -2.88249 0
M  V30 331 H 31.72 -3.63796 -4.11028 0
M  V30 332 H 31.981 -1.90511 -3.98946 0
M  V30 333 N 31.0401 0.771051 -1.3745 0
M  V30 334 C 32.2871 1.52963 -1.32697 0
M  V30 335 C 32.6151 1.94299 0.0883274 0
M  V30 336 O 31.8701 1.64397 1.0617 0
M  V30 337 C 32.1691 2.80676 -2.2126 0
M  V30 338 C 31.8351 2.58389 -3.69521 0
M  V30 339 C 30.4971 2.52019 -4.09927 0
M  V30 340 C 32.8491 2.38469 -4.63446 0
M  V30 341 C 30.1771 2.23721 -5.42371 0
M  V30 342 C 32.5291 2.11694 -5.96128 0
M  V30 343 C 31.1931 2.03769 -6.35637 0
M  V30 344 H 30.4631 0.559732 -0.485573 0
M  V30 345 H 33.1101 0.888083 -1.69662 0
M  V30 346 H 31.4151 3.49392 -1.77291 0
M  V30 347 H 33.1121 3.38557 -2.14895 0
M  V30 348 H 29.7021 2.6421 -3.37478 0
M  V30 349 H 33.8861 2.4238 -4.33089 0
M  V30 350 H 29.1421 2.16081 -5.71943 0
M  V30 351 H 33.3161 1.9528 -6.6846 0
M  V30 352 H 30.9431 1.81606 -7.38189 0
M  V30 353 N 32.5182 1.22032 0.997298 0
M  V30 354 C 33.4502 0.944263 2.08845 0
M  V30 355 C 34.4632 -0.0754663 1.62625 0
M  V30 356 O 35.6522 0.157994 1.77799 0
M  V30 357 C 32.7522 0.397723 3.36558 0
M  V30 358 C 31.9252 1.47362 4.11829 0
M  V30 359 C 30.9842 0.934951 5.17827 0
M  V30 360 O 30.0102 1.62016 5.45655 0
M  V30 361 N 31.2122 -0.245895 5.79979 0
M  V30 362 H 33.9772 1.88363 2.33109 0
M  V30 363 H 31.5382 1.12661 1.16272 0
M  V30 364 H 33.5302 0.0227771 4.04694 0
M  V30 365 H 32.1002 -0.446646 3.09393 0
M  V30 366 H 31.3202 2.02208 3.38386 0
M  V30 367 H 32.6082 2.19764 4.58891 0
M  V30 368 H 32.0062 -0.819475 5.59733 0
M  V30 369 H 30.5632 -0.562272 6.4937 0
M  V30 370 N 33.9963 -1.19345 1.0293 0
M  V30 371 C 35.2423 -1.89318 0.727083 0
M  V30 372 C 35.5753 -1.79446 -0.742483 0
M  V30 373 O 34.8503 -1.1871 -1.54072 0
M  V30 374 C 35.1333 -3.40238 1.17942 0
M  V30 375 C 34.9863 -3.58979 2.71024 0
M  V30 376 C 36.3053 -4.33479 0.760548 0
M  V30 377 H 33.4243 -0.687475 0.265606 0
M  V30 378 H 36.0663 -1.40477 1.2793 0
M  V30 379 H 34.2163 -3.81964 0.709608 0
M  V30 380 H 35.8883 -3.26421 3.25955 0
M  V30 381 H 34.1313 -3.02018 3.11396 0
M  V30 382 H 34.8023 -4.64823 2.9773 0
M  V30 383 H 37.2783 -3.99469 1.16464 0
M  V30 384 H 36.1543 -5.37664 1.10493 0
M  V30 385 H 36.4153 -4.40813 -0.337063 0
M  V30 386 N 35.4744 -0.807222 -1.35358 0
M  V30 387 C 36.4374 -0.223665 -2.28106 0
M  V30 388 C 37.4374 0.589354 -1.4961 0
M  V30 389 O 38.6274 0.407745 -1.69361 0
M  V30 390 C 35.7594 0.688149 -3.33882 0
M  V30 391 H 36.9524 -1.04169 -2.81227 0
M  V30 392 H 34.5054 -0.577921 -1.45223 0
M  V30 393 H 35.2404 1.52984 -2.85948 0
M  V30 394 H 35.0254 0.10687 -3.91954 0
M  V30 395 H 36.5154 1.09075 -4.03104 0
M  V30 396 N 36.9525 1.47285 -0.560781 0
M  V30 397 C 37.8995 2.30058 0.18491 0
M  V30 398 C 38.8695 1.39281 0.904986 0
M  V30 399 O 40.0545 1.68241 0.899979 0
M  V30 400 C 37.1945 3.23317 1.20666 0
M  V30 401 C 36.3075 4.29186 0.492285 0
M  V30 402 C 35.4425 5.09592 1.49964 0
M  V30 403 C 34.4815 6.07232 0.770439 0
M  V30 404 N 33.6185 6.80584 1.72479 0
M  V30 405 H 38.4585 2.93302 -0.527048 0
M  V30 406 H 35.9955 1.44568 -0.271738 0
M  V30 407 H 37.9535 3.75811 1.81168 0
M  V30 408 H 36.5835 2.61929 1.88661 0
M  V30 409 H 35.6355 3.7972 -0.227333 0
M  V30 410 H 36.9475 4.98738 -0.0787929 0
M  V30 411 H 36.1015 5.66254 2.17809 0
M  V30 412 H 34.8405 4.3995 2.10464 0
M  V30 413 H 33.8455 5.49745 0.0780846 0
M  V30 414 H 35.0705 6.78884 0.171134 0
M  V30 415 H 33.0165 6.1367 2.3183 0
M  V30 416 H 32.9335 7.46319 1.20596 0
M  V30 417 H 34.2015 7.41818 2.39428 0
M  V30 418 N 38.4306 0.297415 1.54768 0
M  V30 419 C 39.3406 -0.58983 2.27064 0
M  V30 420 C 40.3566 -1.15144 1.30453 0
M  V30 421 O 41.5326 -1.17699 1.63428 0
M  V30 422 C 38.5976 -1.74714 2.9946 0
M  V30 423 C 37.6586 -1.21997 4.11601 0
M  V30 424 C 36.8916 -2.32212 4.80535 0
M  V30 425 O 37.1146 -3.52036 4.48806 0
M  V30 426 O 36.0486 -1.99106 5.68014 0
M  V30 427 H 39.8746 -0.00348199 3.037 0
M  V30 428 H 37.4596 0.0640035 1.49263 0
M  V30 429 H 39.3416 -2.42147 3.44881 0
M  V30 430 H 38.0166 -2.32016 2.25722 0
M  V30 431 H 36.9236 -0.511458 3.70587 0
M  V30 432 H 38.2566 -0.692419 4.87305 0
M  V30 433 N 39.9087 -1.5758 0.0250728 0
M  V30 434 C 40.8567 -2.11125 -0.97617 0
M  V30 435 C 41.8507 -1.03689 -1.33959 0
M  V30 436 O 43.0567 -1.22128 -1.3223 0
M  V30 437 H 39.4317 -0.674468 -0.332561 0
M  V30 438 H 41.4027 -2.94194 -0.499223 0
M  V30 439 C 40.1517 -2.65017 -2.2508 0
M  V30 440 H 39.4747 -3.47333 -1.9799 0
M  V30 441 H 40.9147 -3.06133 -2.93357 0
M  V30 442 C 39.3737 -1.57574 -2.97779 0
M  V30 443 O 39.9037 -0.973203 -3.89733 0
M  V30 444 N 38.1097 -1.29716 -2.60043 0
M  V30 445 H 37.6567 -1.789 -1.85345 0
M  V30 446 H 37.6147 -0.58051 -3.08994 0
M  V30 447 N 41.3868 0.248026 -1.55636 0
M  V30 448 C 42.3348 1.32683 -1.91045 0
M  V30 449 C 43.3288 1.49883 -0.789401 0
M  V30 450 O 44.5348 1.51371 -0.974007 0
M  V30 451 H 40.9098 0.444272 -0.606734 0
M  V30 452 H 42.8808 1.00085 -2.81115 0
M  V30 453 C 41.6298 2.6755 -2.22064 0
M  V30 454 H 40.9528 2.55114 -3.07826 0
M  V30 455 H 42.3928 3.41912 -2.50743 0
M  V30 456 C 40.8518 3.20556 -1.0366 0
M  V30 457 O 41.3818 4.00695 -0.284016 0
M  V30 458 N 39.5878 2.78568 -0.82753 0
M  V30 459 H 39.1348 2.1351 -1.44123 0
M  V30 460 H 39.0928 3.14378 -0.0369803 0
M  V30 461 N 42.8649 1.48995 0.513639 0
M  V30 462 C 44.1119 1.57843 1.26854 0
M  V30 463 C 44.4399 0.259501 1.92761 0
M  V30 464 O 43.6949 -0.75159 1.80692 0
M  V30 465 C 43.9939 2.67756 2.36731 0
M  V30 466 C 43.6599 4.09669 1.88368 0
M  V30 467 C 42.3219 4.48291 1.74896 0
M  V30 468 C 44.6739 4.98537 1.52021 0
M  V30 469 C 42.0019 5.73568 1.23438 0
M  V30 470 C 44.3539 6.24319 1.0202 0
M  V30 471 C 43.0179 6.61783 0.871778 0
M  V30 472 H 42.2879 0.577587 0.464192 0
M  V30 473 H 44.9349 1.82778 0.571366 0
M  V30 474 H 43.2399 2.36743 3.12185 0
M  V30 475 H 44.9369 2.71813 2.9482 0
M  V30 476 H 41.5269 3.79176 1.99808 0
M  V30 477 H 45.7109 4.69363 1.61281 0
M  V30 478 H 40.9669 6.01304 1.10648 0
M  V30 479 H 45.1409 6.92566 0.729722 0
M  V30 480 H 42.7679 7.5874 0.470852 0
M  V30 481 N 44.343 -0.763751 1.37857 0
M  V30 482 C 45.306 -1.85889 1.34081 0
M  V30 483 C 46.306 -1.58949 0.243277 0
M  V30 484 O 47.496 -1.66882 0.499589 0
M  V30 485 C 44.628 -3.23176 1.08489 0
M  V30 486 H 45.821 -1.90648 2.31502 0
M  V30 487 H 43.374 -0.964367 1.23003 0
M  V30 488 H 44.109 -3.24091 0.116318 0
M  V30 489 H 43.894 -3.44124 1.8794 0
M  V30 490 H 45.384 -4.03254 1.08517 0
M  V30 491 N 45.8211 -1.22559 -0.990812 0
M  V30 492 C 46.7511 -1.0218 -2.09956 0
M  V30 493 C 47.7321 0.0579394 -1.70001 0
M  V30 494 O 48.9171 -0.104684 -1.93918 0
M  V30 495 C 46.0471 -0.601023 -3.4206 0
M  V30 496 C 45.0011 -1.62694 -3.95872 0
M  V30 497 C 44.3271 -1.06193 -5.24049 0
M  V30 498 C 45.6271 -3.01743 -4.2632 0
M  V30 499 H 47.3211 -1.94916 -2.27262 0
M  V30 500 H 44.8671 -0.938566 -1.09211 0
M  V30 501 H 46.8201 -0.445561 -4.19038 0
M  V30 502 H 45.5441 0.362005 -3.24588 0
M  V30 503 H 44.2031 -1.77021 -3.21028 0
M  V30 504 H 43.8511 -0.0901903 -5.02919 0
M  V30 505 H 43.5511 -1.74732 -5.61019 0
M  V30 506 H 45.0751 -0.918092 -6.03658 0
M  V30 507 H 46.4891 -2.90777 -4.94087 0
M  V30 508 H 44.8861 -3.67425 -4.74467 0
M  V30 509 H 45.9561 -3.51518 -3.34011 0
M  V30 510 N 47.2992 1.18797 -1.03562 0
M  V30 511 C 48.7102 1.70322 -0.764676 0
M  V30 512 C 49.0612 1.82708 0.714996 0
M  V30 513 O 48.1862 1.50299 1.55689 0
M  V30 514 C 48.7812 3.09356 -1.38145 0
M  V30 515 C 47.3402 3.58114 -1.15895 0
M  V30 516 C 46.4872 2.34798 -1.4753 0
M  V30 517 H 49.4382 1.03543 -1.20268 0
M  V30 518 H 49.4592 3.72378 -0.781977 0
M  V30 519 H 48.9712 3.00309 -2.45837 0
M  V30 520 H 47.0722 3.72464 -0.100544 0
M  V30 521 H 47.1852 4.4184 -1.8524 0
M  V30 522 H 45.5492 2.38464 -0.894829 0
M  V30 523 H 46.3322 2.28375 -2.56319 0
M  V30 524 N 48.7773 0.814389 1.34928 0
M  V30 525 C 49.7403 0.235759 2.27984 0
M  V30 526 C 50.7403 -0.581412 1.49921 0
M  V30 527 O 51.9303 -0.398758 1.69575 0
M  V30 528 C 49.0623 -0.670433 3.34242 0
M  V30 529 H 50.2553 1.05659 2.80671 0
M  V30 530 H 47.8083 0.585614 1.44915 0
M  V30 531 H 48.5433 -1.51466 2.86755 0
M  V30 532 H 48.3283 -0.0860822 3.92005 0
M  V30 533 H 49.8183 -1.06935 4.03676 0
M  V30 534 N 50.2554 -1.46986 0.568584 0
M  V30 535 C 51.5014 -2.02741 0.0488709 0
M  V30 536 C 51.8344 -1.44077 -1.30214 0
M  V30 537 O 51.1094 -0.600552 -1.84996 0
M  V30 538 C 51.3924 -3.60086 -0.032047 0
M  V30 539 C 51.2454 -4.29162 1.34686 0
M  V30 540 C 52.5644 -4.33838 -0.739798 0
M  V30 541 H 49.6834 -0.736749 0.0192338 0
M  V30 542 H 52.3254 -1.75289 0.733065 0
M  V30 543 H 50.4754 -3.83606 -0.61473 0
M  V30 544 H 52.1474 -4.16948 1.97362 0
M  V30 545 H 50.3904 -3.89073 1.91846 0
M  V30 546 H 51.0614 -5.37826 1.24285 0
M  V30 547 H 53.5374 -4.15378 -0.244939 0
M  V30 548 H 52.4134 -5.43537 -0.765406 0
M  V30 549 H 52.6744 -4.03875 -1.79827 0
M  V30 550 N 51.7335 -0.305618 -1.54608 0
M  V30 551 C 52.6815 0.584119 -2.25146 0
M  V30 552 C 53.6755 1.13326 -1.25911 0
M  V30 553 O 54.8815 1.08337 -1.43747 0
M  V30 554 H 51.2565 0.206983 -0.722954 0
M  V30 555 H 53.2275 -0.033291 -2.98381 0
M  V30 556 C 51.9765 1.74225 -3.009 0
M  V30 557 H 51.2995 1.32892 -3.77067 0
M  V30 558 H 52.7395 2.34077 -3.53531 0
M  V30 559 C 51.1985 2.64914 -2.0814 0
M  V30 560 O 51.7285 3.66137 -1.65246 0
M  V30 561 N 49.9345 2.3275 -1.74 0
M  V30 562 H 49.4815 1.50479 -2.09078 0
M  V30 563 H 49.4395 2.93694 -1.12211 0
M  V30 564 N 53.2116 1.57565 -0.0334293 0
M  V30 565 C 54.4516 1.93844 0.648379 0
M  V30 566 C 54.8156 0.910387 1.69044 0
M  V30 567 O 56.0166 1.15952 2.42505 0
M  V30 568 C 54.2876 3.35017 1.24492 0
M  V30 569 S 55.8466 3.93229 1.94721 0
M  V30 570 H 52.6646 0.678231 0.213364 0
M  V30 571 H 55.2666 1.95254 -0.0981253 0
M  V30 572 H 53.9706 4.07652 0.474128 0
M  V30 573 H 53.5016 3.37061 2.02864 0
M  V30 574 H 55.5166 3.77014 3.22606 0
M  V30 575 N 54.6897 -0.239769 1.55765 0
M  V30 576 C 55.9357 -0.968234 1.78194 0
M  V30 577 C 56.2687 -1.84701 0.599938 0
M  V30 578 O 55.5437 -1.9031 -0.401524 0
M  V30 579 C 55.8267 -1.8227 3.10564 0
M  V30 580 C 55.6797 -0.971633 4.3918 0
M  V30 581 C 56.9987 -2.80388 3.39221 0
M  V30 582 H 54.1177 -0.350572 0.648281 0
M  V30 583 H 56.7597 -0.238259 1.885 0
M  V30 584 H 54.9097 -2.44507 3.01908 0
M  V30 585 H 56.5817 -0.367408 4.59835 0
M  V30 586 H 54.8247 -0.276276 4.32919 0
M  V30 587 H 55.4957 -1.60346 5.28198 0
M  V30 588 H 57.9717 -2.28287 3.47885 0
M  V30 589 H 56.8477 -3.3729 4.33044 0
M  V30 590 H 57.1087 -3.57212 2.60484 0
M  V30 591 N 56.1678 -1.49265 -0.50573 0
M  V30 592 C 57.4158 -1.582 -1.25766 0
M  V30 593 C 57.7368 -0.268482 -1.93143 0
M  V30 594 O 57.0068 0.711833 -1.8251 0
M  V30 595 H 55.5868 -0.582873 -0.467191 0
M  V30 596 H 58.2488 -1.85865 -0.586525 0
M  V30 597 H 57.3448 -2.37563 -2.02412 0
M  V30 598 N 57.6459 0.756429 -1.3826 0
M  V30 599 C 58.8739 1.54565 -1.3754 0
M  V30 600 C 59.2889 1.88767 0.0355331 0
M  V30 601 O 58.6459 1.52572 1.0014 0
M  V30 602 C 58.6969 2.84654 -2.22833 0
M  V30 603 O 58.4179 2.51912 -3.5843 0
M  V30 604 C 59.9189 3.78807 -2.30261 0
M  V30 605 H 57.1389 0.478353 -0.470553 0
M  V30 606 H 59.6829 0.936381 -1.81803 0
M  V30 607 H 57.8379 3.41965 -1.8204 0
M  V30 608 H 58.2519 3.35325 -4.03308 0
M  V30 609 H 59.7259 4.67045 -2.94233 0
M  V30 610 H 60.2029 4.19038 -1.31545 0
M  V30 611 H 60.8089 3.2742 -2.71433 0
M  V30 612 N 59.124 1.23083 0.984299 0
M  V30 613 C 60.401 0.9689 1.69917 0
M  V30 614 C 60.781 -0.513604 2.04757 0
M  V30 615 O 60.129 -1.48383 1.73767 0
M  V30 616 C 60.339 1.87518 2.94343 0
M  V30 617 C 61.687 2.13636 3.6694 0
M  V30 618 O 62.711 1.85036 3.04368 0
M  V30 619 O 61.57 2.62119 4.79537 0
M  V30 620 H 58.664 0.365095 0.742048 0
M  V30 621 H 61.21 1.34107 1.03987 0
M  V30 622 H 59.982 2.87756 2.65164 0
M  V30 623 H 59.605 1.50514 3.6801 0
M  V30 624 N 60.6021 -1.18246 1.0419 0
M  V30 625 C 61.8271 -1.92736 0.765996 0
M  V30 626 C 62.2521 -1.75728 -0.67091 0
M  V30 627 O 61.6101 -1.06825 -1.46486 0
M  V30 628 C 61.6581 -3.42148 1.13875 0
M  V30 629 O 60.7621 -4.11548 0.264954 0
M  V30 630 H 60.1031 -0.601238 0.281797 0
M  V30 631 H 62.6331 -1.49942 1.39207 0
M  V30 632 H 62.6431 -3.92858 1.1012 0
M  V30 633 H 61.3181 -3.53848 2.18551 0
M  V30 634 H 59.8951 -3.71137 0.362226 0
M  V30 635 N 62.0802 -0.821533 -1.34494 0
M  V30 636 C 63.3292 -0.405355 -1.97585 0
M  V30 637 C 63.6422 1.03677 -1.65863 0
M  V30 638 O 64.8482 1.55679 -2.22433 0
M  V30 639 C 63.3042 -0.673861 -3.53535 0
M  V30 640 C 62.9122 -2.12951 -3.94152 0
M  V30 641 C 64.6562 -0.32378 -4.23263 0
M  V30 642 C 62.5632 -2.34298 -5.43009 0
M  V30 643 H 61.4932 -0.147836 -0.739365 0
M  V30 644 H 64.1442 -1.00769 -1.53355 0
M  V30 645 H 62.5262 -0.00137554 -3.96 0
M  V30 646 H 63.7002 -2.84104 -3.62797 0
M  V30 647 H 62.0152 -2.44089 -3.37356 0
M  V30 648 H 64.6122 -0.461126 -5.32708 0
M  V30 649 H 64.9552 0.731586 -4.09821 0
M  V30 650 H 65.4882 -0.950786 -3.8627 0
M  V30 651 H 62.2272 -3.38335 -5.61435 0
M  V30 652 H 61.7472 -1.67687 -5.75883 0
M  V30 653 H 63.4262 -2.16588 -6.09671 0
M  V30 654 N 63.5583 1.46682 -0.576371 0
M  V30 655 C 64.5063 2.31953 0.17335 0
M  V30 656 C 65.5003 1.44098 0.89062 0
M  V30 657 O 66.7063 1.60759 0.809728 0
M  V30 658 H 63.0813 0.748273 0.0747727 0
M  V30 659 H 65.0523 2.93007 -0.564738 0
M  V30 660 C 63.8013 3.27142 1.17786 0
M  V30 661 H 63.1243 3.94719 0.635361 0
M  V30 662 H 64.5643 3.896 1.67296 0
M  V30 663 C 63.0233 2.52036 2.23561 0
M  V30 664 O 63.5533 2.27877 3.3081 0
M  V30 665 N 61.7593 2.12709 1.97998 0
M  V30 666 H 61.3063 2.32557 1.10792 0
M  V30 667 H 61.2643 1.62776 2.68982 0
M  V30 668 N 65.0364 0.313813 1.54444 0
M  V30 669 C 65.9994 -0.54379 2.22656 0
M  V30 670 C 66.9994 -1.05124 1.21678 0
M  V30 671 O 68.1894 -0.945225 1.46325 0
M  V30 672 C 65.3214 -1.75427 2.92298 0
M  V30 673 H 66.5144 0.0523599 2.99854 0
M  V30 674 H 64.0674 0.0647834 1.56166 0
M  V30 675 H 64.8024 -2.38991 2.19211 0
M  V30 676 H 64.5874 -1.39791 3.66334 0
M  V30 677 H 66.0774 -2.36325 3.44297 0
M  V30 678 N 66.5145 -1.57545 0.0417849 0
M  V30 679 C 67.7605 -1.92601 -0.635021 0
M  V30 680 C 68.0935 -0.919627 -1.71045 0
M  V30 681 O 67.3685 0.0557892 -1.9442 0
M  V30 682 C 67.6515 -3.38085 -1.23979 0
M  V30 683 C 67.5045 -4.49467 -0.173057 0
M  V30 684 C 68.8235 -3.83776 -2.15416 0
M  V30 685 H 65.9425 -0.700397 -0.229374 0
M  V30 686 H 68.5845 -1.89728 0.101633 0
M  V30 687 H 66.7345 -3.40664 -1.86762 0
M  V30 688 H 68.4065 -4.59018 0.458312 0
M  V30 689 H 66.6495 -4.30909 0.499996 0
M  V30 690 H 67.3205 -5.48323 -0.636054 0
M  V30 691 H 69.7965 -3.83013 -1.62605 0
M  V30 692 H 68.6725 -4.8624 -2.54679 0
M  V30 693 H 68.9335 -3.19998 -3.05047 0
M  V30 694 N 67.9926 0.231505 -1.5589 0
M  V30 695 C 68.9226 1.29022 -1.94617 0
M  V30 696 C 69.9036 1.4941 -0.813067 0
M  V30 697 O 71.0886 1.6176 -1.07459 0
M  V30 698 C 68.2186 2.64199 -2.25424 0
M  V30 699 C 67.1726 2.58484 -3.41131 0
M  V30 700 C 66.4986 3.97599 -3.57518 0
M  V30 701 C 67.7986 2.1413 -4.76388 0
M  V30 702 H 69.4926 0.968563 -2.83301 0
M  V30 703 H 67.0386 0.464479 -1.36303 0
M  V30 704 H 68.9916 3.38413 -2.51107 0
M  V30 705 H 67.7156 2.98032 -1.33583 0
M  V30 706 H 66.3746 1.86727 -3.15481 0
M  V30 707 H 66.0226 4.28723 -2.6307 0
M  V30 708 H 65.7226 3.94659 -4.35337 0
M  V30 709 H 67.2466 4.7349 -3.85538 0
M  V30 710 H 68.6606 2.78083 -5.01341 0
M  V30 711 H 67.0576 2.2227 -5.57419 0
M  V30 712 H 68.1276 1.09331 -4.72414 0
M  V30 713 N 69.4707 1.49531 0.497807 0
M  V30 714 C 70.3807 1.69176 1.62532 0
M  V30 715 C 71.3967 0.5744 1.64246 0
M  V30 716 O 72.5727 0.849497 1.82608 0
M  V30 717 C 69.6377 1.75695 2.98885 0
M  V30 718 C 68.6987 2.9929 3.07773 0
M  V30 719 C 67.9317 3.05488 4.37622 0
M  V30 720 O 68.1547 2.19192 5.26603 0
M  V30 721 O 67.0887 3.9798 4.51548 0
M  V30 722 H 70.9147 2.647 1.48887 0
M  V30 723 H 68.4997 1.3331 0.674441 0
M  V30 724 H 70.3817 1.82317 3.79919 0
M  V30 725 H 69.0567 0.8335 3.12785 0
M  V30 726 H 67.9637 2.98183 2.25915 0
M  V30 727 H 69.2967 3.91125 2.98801 0
M  V30 728 N 70.9488 -0.749086 1.3866 0
M  V30 729 C 72.1768 -1.53834 1.38358 0
M  V30 730 C 72.5918 -1.88783 -0.0255219 0
M  V30 731 O 71.9488 -1.53101 -0.993292 0
M  V30 732 C 71.9998 -2.83468 2.2434 0
M  V30 733 O 71.7208 -2.50008 3.5976 0
M  V30 734 C 73.2218 -3.7758 2.32267 0
M  V30 735 H 70.4418 -0.47585 0.473083 0
M  V30 736 H 72.9858 -0.926726 1.82297 0
M  V30 737 H 71.1408 -3.40995 1.83851 0
M  V30 738 H 71.5548 -3.33182 4.05081 0
M  V30 739 H 73.0288 -4.65478 2.96706 0
M  V30 740 H 73.5058 -4.18334 1.33765 0
M  V30 741 H 74.1118 -3.25976 2.73166 0
M  V30 742 N 72.4269 -1.23603 -0.977757 0
M  V30 743 C 73.3899 -1.02069 -2.05218 0
M  V30 744 C 74.3899 0.0184305 -1.60789 0
M  V30 745 O 75.5799 -0.221569 -1.72785 0
M  V30 746 C 72.7119 -0.544926 -3.36517 0
M  V30 747 H 73.9049 -1.9742 -2.25755 0
M  V30 748 H 71.4579 -1.05684 -1.15155 0
M  V30 749 H 72.1929 0.412241 -3.21669 0
M  V30 750 H 71.9779 -1.2948 -3.70105 0
M  V30 751 H 73.4679 -0.414985 -4.15533 0
M  V30 752 N 73.905 1.17692 -1.04816 0
M  V30 753 C 74.868 2.19787 -0.650117 0
M  V30 754 C 75.868 1.58044 0.296427 0
M  V30 755 O 77.058 1.74012 0.0808097 0
M  V30 756 C 74.19 3.40869 0.0456987 0
M  V30 757 H 75.383 2.56516 -1.5537 0
M  V30 758 H 72.936 1.31708 -0.841594 0
M  V30 759 H 73.671 3.09681 0.962726 0
M  V30 760 H 73.456 3.86928 -0.634727 0
M  V30 761 H 74.946 4.16445 0.310432 0
M  V30 762 N 75.3831 0.828654 1.34056 0
M  V30 763 C 76.3301 0.252567 2.29414 0
M  V30 764 C 77.3001 -0.62588 1.53857 0
M  V30 765 O 78.4851 -0.566312 1.82202 0
M  V30 766 C 75.6251 -0.574831 3.40279 0
M  V30 767 C 74.7381 0.326499 4.30764 0
M  V30 768 C 73.8731 -0.511016 5.28736 0
M  V30 769 C 72.9121 0.389342 6.1086 0
M  V30 770 N 72.0491 -0.409439 7.00905 0
M  V30 771 H 76.8891 1.07108 2.78086 0
M  V30 772 H 74.4261 0.539677 1.36843 0
M  V30 773 H 76.3841 -1.06992 4.03248 0
M  V30 774 H 75.0141 -1.35841 2.92826 0
M  V30 775 H 74.0661 0.939837 3.68607 0
M  V30 776 H 75.3781 1.01857 4.88289 0
M  V30 777 H 74.5321 -1.07035 5.97184 0
M  V30 778 H 73.2711 -1.23657 4.71763 0
M  V30 779 H 72.2761 0.960769 5.4134 0
M  V30 780 H 73.5011 1.1131 6.69916 0
M  V30 781 H 71.4471 -1.11856 6.46393 0
M  V30 782 H 71.3641 0.224126 7.55668 0
M  V30 783 H 72.6321 -0.951336 7.73673 0
M  V30 784 N 76.8612 -1.46375 0.584142 0
M  V30 785 C 78.1072 -2.02678 0.0703716 0
M  V30 786 C 78.4402 -1.4545 -1.28678 0
M  V30 787 O 77.7152 -0.62014 -1.84349 0
M  V30 788 C 77.9982 -3.60099 0.00614674 0
M  V30 789 C 77.8512 -4.27709 1.3923 0
M  V30 790 C 79.1702 -4.34598 -0.693742 0
M  V30 791 H 76.2892 -0.736504 0.027047 0
M  V30 792 H 78.9312 -1.74501 0.751615 0
M  V30 793 H 77.0812 -3.84236 -0.574009 0
M  V30 794 H 78.7532 -4.14832 2.01773 0
M  V30 795 H 76.9962 -3.87016 1.95962 0
M  V30 796 H 77.6672 -5.36478 1.29982 0
M  V30 797 H 80.1432 -4.15615 -0.200869 0
M  V30 798 H 79.0192 -5.44318 -0.707714 0
M  V30 799 H 79.2802 -4.05759 -1.75533 0
M  V30 800 N 78.3393 -0.321999 -1.54275 0
M  V30 801 C 79.2863 0.544664 -2.24281 0
M  V30 802 C 80.2563 1.1129 -1.23303 0
M  V30 803 O 81.4413 1.15354 -1.51981 0
M  V30 804 C 78.5813 1.70045 -3.00298 0
M  V30 805 C 77.6943 1.16159 -4.1609 0
M  V30 806 C 76.8293 2.28293 -4.79641 0
M  V30 807 C 75.8683 1.71648 -5.8754 0
M  V30 808 N 75.0053 2.77438 -6.44959 0
M  V30 809 H 79.8453 -0.0588907 -2.97942 0
M  V30 810 H 77.3823 -0.0408345 -1.47043 0
M  V30 811 H 79.3403 2.38054 -3.42616 0
M  V30 812 H 77.9703 2.27531 -2.28975 0
M  V30 813 H 77.0223 0.373092 -3.78566 0
M  V30 814 H 78.3343 0.707087 -4.93763 0
M  V30 815 H 77.4883 3.0421 -5.2492 0
M  V30 816 H 76.2273 2.77079 -4.01346 0
M  V30 817 H 75.2323 0.942282 -5.41665 0
M  V30 818 H 76.4573 1.23741 -6.67731 0
M  V30 819 H 74.4033 3.25519 -5.69538 0
M  V30 820 H 74.3203 2.36547 -7.1804 0
M  V30 821 H 75.5883 3.53189 -6.94894 0
M  V30 822 N 79.8174 1.5752 -0.0501392 0
M  V30 823 C 80.7804 2.1037 0.909786 0
M  V30 824 C 81.7804 1.02308 1.24056 0
M  V30 825 O 82.9704 1.28385 1.17741 0
M  V30 826 C 80.1024 2.58708 2.21998 0
M  V30 827 H 81.2954 2.96479 0.451665 0
M  V30 828 H 78.8484 1.55038 0.198248 0
M  V30 829 H 79.5834 1.75989 2.72394 0
M  V30 830 H 79.3684 3.37675 1.99295 0
M  V30 831 H 80.8584 2.99747 2.9076 0
M  V30 832 N 81.2955 -0.223234 1.56011 0
M  V30 833 C 82.7065 -0.790368 1.69145 0
M  V30 834 C 83.0575 -1.85055 0.651845 0
M  V30 835 O 82.1825 -2.15498 -0.197359 0
M  V30 836 C 82.7775 -1.4404 3.06656 0
M  V30 837 C 81.3365 -1.95494 3.2165 0
M  V30 838 C 80.4835 -0.814506 2.65068 0
M  V30 839 H 83.4345 0.00139011 1.587 0
M  V30 840 H 83.4555 -2.30916 3.0242 0
M  V30 841 H 82.9675 -0.668543 3.82298 0
M  V30 842 H 81.0685 -2.75487 2.50874 0
M  V30 843 H 81.1815 -2.13607 4.28846 0
M  V30 844 H 79.5455 -1.22137 2.23505 0
M  V30 845 H 80.3285 -0.0553515 3.43255 0
M  V30 846 N 82.7736 -1.49793 -0.48987 0
M  V30 847 C 84.0196 -1.60078 -1.24511 0
M  V30 848 C 84.3526 -0.291608 -1.91998 0
M  V30 849 O 83.6276 0.705647 -1.81248 0
M  V30 850 C 83.9106 -2.76791 -2.30345 0
M  V30 851 C 83.7636 -4.17535 -1.67286 0
M  V30 852 C 85.0826 -2.89111 -3.31817 0
M  V30 853 H 82.2016 -0.582645 -0.451324 0
M  V30 854 H 84.8436 -1.82117 -0.541612 0
M  V30 855 H 82.9936 -2.5813 -2.90346 0
M  V30 856 H 84.6656 -4.4774 -1.11026 0
M  V30 857 H 82.9086 -4.22665 -0.976577 0
M  V30 858 H 83.5796 -4.95094 -2.44103 0
M  V30 859 H 86.0556 -3.06133 -2.81819 0
M  V30 860 H 84.9316 -3.72433 -4.03219 0
M  V30 861 H 85.1926 -1.9893 -3.94815 0
M  V30 862 N 84.2517 0.741722 -1.39055 0
M  V30 863 C 85.5007 1.49656 -1.35225 0
M  V30 864 C 85.8137 1.95533 0.0512708 0
M  V30 865 O 87.0197 2.7067 0.212138 0
M  V30 866 C 85.4757 2.70389 -2.37525 0
M  V30 867 C 85.0837 2.31489 -3.83558 0
M  V30 868 C 86.8277 3.48236 -2.42759 0
M  V30 869 C 84.7347 3.48903 -4.77515 0
M  V30 870 H 83.6647 0.56197 -0.502699 0
M  V30 871 H 86.3157 0.809727 -1.64668 0
M  V30 872 H 84.6977 3.41113 -2.01142 0
M  V30 873 H 85.8717 1.68354 -4.28945 0
M  V30 874 H 84.1867 1.66749 -3.81554 0
M  V30 875 H 86.7837 4.35558 -3.1015 0
M  V30 876 H 87.1267 3.90229 -1.45008 0
M  V30 877 H 87.6597 2.84535 -2.78002 0
M  V30 878 H 84.3987 3.11966 -5.76504 0
M  V30 879 H 83.9187 4.11041 -4.36813 0
M  V30 880 H 85.5977 4.15328 -4.96096 0
M  V30 881 N 85.7298 1.2412 0.971189 0
M  V30 882 C 86.9758 1.08041 1.71625 0
M  V30 883 C 87.3088 -0.380407 1.90438 0
M  V30 884 O 86.5838 -1.28127 1.46334 0
M  V30 885 C 86.8668 1.81682 3.10908 0
M  V30 886 C 86.7198 3.35493 2.99608 0
M  V30 887 C 88.0388 1.58671 4.10501 0
M  V30 888 H 85.1578 0.39388 0.622919 0
M  V30 889 H 87.7998 1.52743 1.13003 0
M  V30 890 H 85.9498 1.43684 3.60953 0
M  V30 891 H 87.6218 3.83068 2.57015 0
M  V30 892 H 85.8648 3.64052 2.35899 0
M  V30 893 H 86.5358 3.82217 3.98264 0
M  V30 894 H 89.0118 1.91719 3.69301 0
M  V30 895 H 87.8878 2.1266 5.06031 0
M  V30 896 H 88.1488 0.524161 4.38982 0
M  V30 897 N 87.2079 -1.17134 1.05439 0
M  V30 898 C 88.1399 -2.2078 0.615539 0
M  V30 899 C 89.1529 -1.59584 -0.322001 0
M  V30 900 O 90.3419 -1.78133 -0.114344 0
M  V30 901 C 87.4419 -3.38691 -0.118938 0
M  V30 902 C 86.6149 -4.29454 0.829924 0
M  V30 903 C 85.6739 -5.26024 0.136258 0
M  V30 904 O 84.6999 -5.63952 0.77115 0
M  V30 905 N 85.9019 -5.69487 -1.1254 0
M  V30 906 H 88.6669 -2.59052 1.50705 0
M  V30 907 H 86.2279 -1.32058 0.936603 0
M  V30 908 H 88.2199 -4.00329 -0.593179 0
M  V30 909 H 86.7899 -2.98996 -0.91215 0
M  V30 910 H 86.0099 -3.65211 1.48373 0
M  V30 911 H 87.2979 -4.86984 1.47392 0
M  V30 912 H 86.6959 -5.4075 -1.6615 0
M  V30 913 H 85.2529 -6.33257 -1.54366 0
M  V30 914 N 88.686 -0.835752 -1.33615 0
M  V30 915 C 89.933 -0.429959 -1.97883 0
M  V30 916 C 90.261 1.01006 -1.66217 0
M  V30 917 O 89.516 1.72047 -0.93265 0
M  V30 918 C 89.815 -0.593925 -3.52431 0
M  V30 919 C 89.481 -2.00158 -4.04039 0
M  V30 920 C 88.143 -2.38662 -4.17844 0
M  V30 921 C 90.495 -2.92117 -4.31644 0
M  V30 922 C 87.823 -3.68435 -4.56588 0
M  V30 923 C 90.175 -4.21368 -4.71838 0
M  V30 924 C 88.839 -4.59833 -4.83849 0
M  V30 925 H 88.109 -0.157333 -0.724104 0
M  V30 926 H 90.756 -1.06217 -1.59343 0
M  V30 927 H 89.061 0.121619 -3.91611 0
M  V30 928 H 90.758 -0.260282 -4.00154 0
M  V30 929 H 87.348 -1.69252 -3.93766 0
M  V30 930 H 91.532 -2.63608 -4.20505 0
M  V30 931 H 86.788 -3.98046 -4.64079 0
M  V30 932 H 90.962 -4.92703 -4.92155 0
M  V30 933 H 88.589 -5.60438 -5.13627 0
M  V30 934 N 90.1641 1.46063 -0.591896 0
M  V30 935 C 91.3891 2.07226 -0.0850314 0
M  V30 936 C 91.8141 1.43625 1.21463 0
M  V30 937 O 91.1721 0.523305 1.73583 0
M  V30 938 C 91.2201 3.60554 0.0576567 0
M  V30 939 O 90.3241 3.97128 1.11188 0
M  V30 940 H 89.6651 0.660615 -0.0669568 0
M  V30 941 H 92.1951 1.8756 -0.81745 0
M  V30 942 H 92.2051 4.07165 0.2609 0
M  V30 943 H 90.8801 4.06235 -0.891416 0
M  V30 944 H 89.4571 3.62213 0.886356 0
M  V30 945 N 91.6422 0.330177 1.54103 0
M  V30 946 C 92.5902 -0.548226 2.26047 0
M  V30 947 C 93.5842 -1.11309 1.27698 0
M  V30 948 O 94.7902 -1.06036 1.45452 0
M  V30 949 H 91.1652 -0.195456 0.726155 0
M  V30 950 H 93.1362 0.0807567 2.98291 0
M  V30 951 C 91.8852 -1.69415 3.03634 0
M  V30 952 H 91.2082 -1.26876 3.79134 0
M  V30 953 H 92.6482 -2.28423 3.5721 0
M  V30 954 C 91.1072 -2.61569 2.12328 0
M  V30 955 O 91.6372 -3.63462 1.7105 0
M  V30 956 N 89.8432 -2.29952 1.77681 0
M  V30 957 H 89.3902 -1.47134 2.11446 0
M  V30 958 H 89.3482 -2.91871 1.16869 0
M  V30 959 N 93.1203 -1.57491 0.0584922 0
M  V30 960 C 94.3683 -1.92597 -0.612436 0
M  V30 961 C 94.6893 -0.938162 -1.70949 0
M  V30 962 O 93.9593 0.0158301 -1.95894 0
M  V30 963 H 92.5393 -0.710964 -0.229214 0
M  V30 964 H 95.2013 -1.94571 0.113218 0
M  V30 965 H 94.2973 -2.94038 -1.04633 0
M  V30 966 N 94.5984 0.214957 -1.56127 0
M  V30 967 C 95.8464 0.936518 -1.79091 0
M  V30 968 C 96.1674 1.84606 -0.628148 0
M  V30 969 O 95.4374 1.92664 0.35462 0
M  V30 970 H 94.0174 0.3488 -0.660566 0
M  V30 971 H 96.6794 0.22523 -1.93594 0
M  V30 972 H 95.7754 1.53943 -2.71492 0
M  V30 973 N 96.0765 1.50051 0.48192 0
M  V30 974 C 97.0395 1.67584 1.5636 0
M  V30 975 C 98.0395 0.546894 1.51214 0
M  V30 976 O 99.2295 0.813725 1.54026 0
M  V30 977 C 96.3615 1.691 2.96003 0
M  V30 978 H 97.5545 2.64078 1.42136 0
M  V30 979 H 95.1075 1.39369 0.707533 0
M  V30 980 H 95.8425 0.742589 3.15684 0
M  V30 981 H 95.6275 2.51105 3.01146 0
M  V30 982 H 97.1175 1.84656 3.74556 0
M  V30 983 N 97.5546 -0.734337 1.39446 0
M  V30 984 C 98.7796 -1.52866 1.40167 0
M  V30 985 C 99.2046 -1.881 -0.00171513 0
M  V30 986 O 98.5626 -1.51957 -0.988879 0
M  V30 987 C 98.6106 -2.79235 2.28167 0
M  V30 988 O 97.7146 -3.75185 1.71201 0
M  V30 989 H 97.0556 -0.461618 0.477289 0
M  V30 990 H 99.5856 -0.905949 1.8345 0
M  V30 991 H 99.5956 -3.27963 2.42702 0
M  V30 992 H 98.2706 -2.52923 3.30156 0
M  V30 993 H 96.8476 -3.33958 1.65912 0
M  V30 994 N 99.0327 -1.24633 -0.964593 0
M  V30 995 C 100.28 -1.08788 -1.70796 0
M  V30 996 C 100.608 0.372783 -1.90894 0
M  V30 997 O 99.8627 1.29167 -1.47018 0
M  V30 998 C 100.162 -1.7763 -3.10133 0
M  V30 999 C 99.8277 -3.27557 -3.09866 0
M  V30 1000 C 98.4897 -3.6846 -3.09501 0
M  V30 1001 C 100.842 -4.23389 -3.03959 0
M  V30 1002 C 98.1697 -5.03624 -3.00965 0
M  V30 1003 C 100.522 -5.58565 -2.96965 0
M  V30 1004 C 99.1857 -5.98809 -2.9493 0
M  V30 1005 H 98.4557 -0.398084 -0.624988 0
M  V30 1006 H 101.103 -1.54777 -1.12767 0
M  V30 1007 H 99.4077 -1.24044 -3.71645 0
M  V30 1008 H 101.105 -1.62832 -3.66451 0
M  V30 1009 H 97.6947 -2.95006 -3.10917 0
M  V30 1010 H 101.879 -3.92787 -3.03368 0
M  V30 1011 H 97.1347 -5.33998 -2.97752 0
M  V30 1012 H 101.309 -6.32523 -2.91354 0
M  V30 1013 H 98.9357 -7.03505 -2.88071 0
M  V30 1014 N 100.511 1.16574 -1.06058 0
M  V30 1015 C 101.76 1.86385 -0.770944 0
M  V30 1016 C 102.073 1.82448 0.705129 0
M  V30 1017 O 103.279 2.47815 1.10905 0
M  V30 1018 C 101.735 3.34466 -1.32893 0
M  V30 1019 C 101.343 3.46883 -2.83507 0
M  V30 1020 C 103.087 4.09548 -1.11672 0
M  V30 1021 C 100.994 4.89036 -3.32562 0
M  V30 1022 H 99.9238 0.698181 -0.284709 0
M  V30 1023 H 102.575 1.31583 -1.27899 0
M  V30 1024 H 100.957 3.88859 -0.748662 0
M  V30 1025 H 102.131 3.02663 -3.47465 0
M  V30 1026 H 100.446 2.85232 -3.03368 0
M  V30 1027 H 103.043 5.14434 -1.45814 0
M  V30 1028 H 103.386 4.16264 -0.0549535 0
M  V30 1029 H 103.919 3.61387 -1.66265 0
M  V30 1030 H 100.658 4.87499 -4.38207 0
M  V30 1031 H 100.178 5.3389 -2.73351 0
M  V30 1032 H 101.857 5.57843 -3.2775 0
M  V30 1033 N 101.989 0.842826 1.3317 0
M  V30 1034 C 102.952 0.284065 2.27433 0
M  V30 1035 C 103.952 -0.54948 1.5112 0
M  V30 1036 O 105.142 -0.362699 1.70382 0
M  V30 1037 C 102.274 -0.599384 3.35589 0
M  V30 1038 H 103.467 1.11589 2.78366 0
M  V30 1039 H 101.02 0.616221 1.4364 0
M  V30 1040 H 101.755 -1.45349 2.89904 0
M  V30 1041 H 101.54 -0.00291266 3.921 0
M  V30 1042 H 103.03 -0.983488 4.05854 0
M  V30 1043 N 103.467 -1.45747 0.599634 0
M  V30 1044 C 104.715 -2.01893 0.0915472 0
M  V30 1045 C 105.036 -1.47155 -1.27946 0
M  V30 1046 O 104.306 -0.66273 -1.84349 0
M  V30 1047 H 102.886 -0.746363 0.0308524 0
M  V30 1048 H 105.548 -1.78645 0.779237 0
M  V30 1049 H 104.644 -3.1208 0.0353086 0
M  V30 1050 N 104.945 -0.338344 -1.53925 0
M  V30 1051 C 105.892 0.520845 -2.24846 0
M  V30 1052 C 106.862 1.09976 -1.24477 0
M  V30 1053 O 108.047 1.13735 -1.53196 0
M  V30 1054 C 105.187 1.6685 -3.02084 0
M  V30 1055 C 104.3 1.11739 -4.17299 0
M  V30 1056 C 103.435 2.23193 -4.82036 0
M  V30 1057 C 102.474 1.65407 -5.89328 0
M  V30 1058 N 101.611 2.70582 -6.47866 0
M  V30 1059 H 106.451 -0.0904881 -2.97863 0
M  V30 1060 H 103.988 -0.0564282 -1.46992 0
M  V30 1061 H 105.946 2.34407 -3.45122 0
M  V30 1062 H 104.576 2.2509 -2.31375 0
M  V30 1063 H 103.628 0.332919 -3.7894 0
M  V30 1064 H 104.94 0.654677 -4.94485 0
M  V30 1065 H 104.094 2.98626 -5.28117 0
M  V30 1066 H 102.833 2.72807 -4.04262 0
M  V30 1067 H 101.838 0.884779 -5.42634 0
M  V30 1068 H 103.063 1.16652 -6.69006 0
M  V30 1069 H 101.009 3.1946 -5.72959 0
M  V30 1070 H 100.926 2.28917 -7.20509 0
M  V30 1071 H 102.194 3.45799 -6.98601 0
M  V30 1072 N 106.423 1.57458 -0.0668435 0
M  V30 1073 C 107.671 1.92919 0.602214 0
M  V30 1074 C 107.992 0.947215 1.70449 0
M  V30 1075 O 107.262 -0.00544117 1.95899 0
M  V30 1076 H 105.842 0.71217 0.22544 0
M  V30 1077 H 108.504 1.94508 -0.123535 0
M  V30 1078 H 107.6 2.94589 1.03073 0
M  V30 1079 N 107.901 -0.206675 1.56239 0
M  V30 1080 C 109.147 -0.930218 1.80208 0
M  V30 1081 C 109.48 -1.83387 0.638981 0
M  V30 1082 O 108.755 -1.91119 -0.361066 0
M  V30 1083 C 109.038 -1.75641 3.1436 0
M  V30 1084 C 108.891 -0.878257 4.41142 0
M  V30 1085 C 110.21 -2.73129 3.45092 0
M  V30 1086 H 107.329 -0.336742 0.655571 0
M  V30 1087 H 109.971 -0.198222 1.88963 0
M  V30 1088 H 108.121 -2.38048 3.07027 0
M  V30 1089 H 109.793 -0.269787 4.6051 0
M  V30 1090 H 108.036 -0.184385 4.33408 0
M  V30 1091 H 108.707 -1.49106 5.3148 0
M  V30 1092 H 111.183 -2.20856 3.52649 0
M  V30 1093 H 110.059 -3.28028 4.40101 0
M  V30 1094 H 110.32 -3.51606 2.68003 0
M  V30 1095 N 109.379 -1.50304 -0.473955 0
M  V30 1096 C 110.326 -1.68959 -1.57231 0
M  V30 1097 C 111.296 -0.530899 -1.57387 0
M  V30 1098 O 112.481 -0.761133 -1.74961 0
M  V30 1099 C 109.621 -1.7871 -2.95223 0
M  V30 1100 C 108.734 -3.06061 -3.04878 0
M  V30 1101 C 107.869 -3.06626 -4.33767 0
M  V30 1102 C 106.908 -4.28443 -4.37154 0
M  V30 1103 N 106.045 -4.26763 -5.5751 0
M  V30 1104 H 110.885 -2.6273 -1.40631 0
M  V30 1105 H 108.422 -1.30241 -0.683789 0
M  V30 1106 H 110.38 -1.82344 -3.75242 0
M  V30 1107 H 109.01 -0.883806 -3.10465 0
M  V30 1108 H 108.062 -3.11911 -2.17751 0
M  V30 1109 H 109.374 -3.96039 -3.0324 0
M  V30 1110 H 108.528 -3.08973 -5.22131 0
M  V30 1111 H 107.267 -2.14473 -4.3801 0
M  V30 1112 H 106.272 -4.2631 -3.47188 0
M  V30 1113 H 107.497 -5.2182 -4.34605 0
M  V30 1114 H 105.443 -3.37462 -5.62544 0
M  V30 1115 H 105.36 -5.10507 -5.57601 0
M  V30 1116 H 106.628 -4.33253 -6.48006 0
M  V30 1117 N 110.857 0.726932 -1.39834 0
M  V30 1118 C 112.082 1.52121 -1.40976 0
M  V30 1119 C 112.507 1.88098 -0.00826029 0
M  V30 1120 O 111.865 1.52479 0.980807 0
M  V30 1121 C 111.913 2.78021 -2.29644 0
M  V30 1122 O 111.017 3.74272 -1.73188 0
M  V30 1123 H 110.358 0.45908 -0.479731 0
M  V30 1124 H 112.888 0.896207 -1.83927 0
M  V30 1125 H 112.898 3.26671 -2.44438 0
M  V30 1126 H 111.573 2.51169 -3.31492 0
M  V30 1127 H 110.15 3.33073 -1.6768 0
M  V30 1128 N 112.336 1.25143 0.95797 0
M  V30 1129 C 113.613 1.00472 1.67823 0
M  V30 1130 C 113.993 -0.470056 2.058 0
M  V30 1131 O 113.341 -1.44663 1.76875 0
M  V30 1132 C 113.551 1.9372 2.90299 0
M  V30 1133 C 114.899 2.21371 3.62326 0
M  V30 1134 O 115.923 1.91451 3.00375 0
M  V30 1135 O 114.782 2.72231 4.7387 0
M  V30 1136 H 111.876 0.380752 0.734137 0
M  V30 1137 H 114.422 1.36283 1.01119 0
M  V30 1138 H 113.194 2.93316 2.59001 0
M  V30 1139 H 112.817 1.58286 3.64735 0
M  V30 1140 N 113.814 -1.1601 1.06675 0
M  V30 1141 C 115.06 -1.86909 0.786945 0
M  V30 1142 C 115.393 -1.81717 -0.685018 0
M  V30 1143 O 114.668 -1.23551 -1.50218 0
M  V30 1144 C 114.951 -3.36313 1.28707 0
M  V30 1145 C 114.804 -3.50175 2.82308 0
M  V30 1146 C 116.123 -4.3084 0.898071 0
M  V30 1147 H 113.242 -0.678677 0.287343 0
M  V30 1148 H 115.884 -1.36336 1.32334 0
M  V30 1149 H 114.034 -3.79513 0.830768 0
M  V30 1150 H 115.706 -3.15886 3.36175 0
M  V30 1151 H 113.949 -2.91959 3.20847 0
M  V30 1152 H 114.62 -4.55116 3.12368 0
M  V30 1153 H 117.096 -3.95561 1.29114 0
M  V30 1154 H 115.972 -5.33876 1.27543 0
M  V30 1155 H 116.233 -4.41662 -0.196651 0
M  V30 1156 N 115.292 -0.849877 -1.32721 0
M  V30 1157 C 116.703 -0.506188 -1.79707 0
M  V30 1158 C 117.054 0.975627 -1.70223 0
M  V30 1159 O 116.179 1.76078 -1.25799 0
M  V30 1160 C 116.774 -0.912044 -3.26293 0
M  V30 1161 C 115.333 -0.620326 -3.71253 0
M  V30 1162 C 114.48 -1.11439 -2.53922 0
M  V30 1163 H 117.431 -1.03754 -1.20087 0
M  V30 1164 H 117.452 -0.226493 -3.79825 0
M  V30 1165 H 116.964 -1.99057 -3.33164 0
M  V30 1166 H 115.065 0.447674 -3.69901 0
M  V30 1167 H 115.178 -1.18327 -4.64258 0
M  V30 1168 H 113.542 -0.534834 -2.49021 0
M  V30 1169 H 114.325 -2.19992 -2.6355 0
M  V30 1170 N 116.77 1.45427 -0.607355 0
M  V30 1171 C 117.702 2.2871 0.149752 0
M  V30 1172 C 118.715 1.39937 0.831958 0
M  V30 1173 O 119.904 1.64313 0.697385 0
M  V30 1174 C 117.004 3.15673 1.23304 0
M  V30 1175 C 116.177 4.32722 0.637996 0
M  V30 1176 C 115.236 5.00895 1.61215 0
M  V30 1177 O 114.262 5.57697 1.13854 0
M  V30 1178 N 115.464 5.00159 2.94655 0
M  V30 1179 H 118.229 2.94328 -0.564882 0
M  V30 1180 H 115.79 1.55612 -0.446823 0
M  V30 1181 H 117.782 3.58144 1.88454 0
M  V30 1182 H 116.352 2.51965 1.8502 0
M  V30 1183 H 115.572 3.93734 -0.191572 0
M  V30 1184 H 116.86 5.08321 0.220665 0
M  V30 1185 H 116.258 4.553 3.35735 0
M  V30 1186 H 114.815 5.46495 3.55228 0
M  V30 1187 N 118.248 0.346503 1.53744 0
M  V30 1188 C 119.496 -0.248612 2.00565 0
M  V30 1189 C 119.817 -1.5083 1.23593 0
M  V30 1190 O 119.087 -1.92858 0.343912 0
M  V30 1191 H 117.667 -0.0948564 0.740953 0
M  V30 1192 H 120.329 0.468341 1.89189 0
M  V30 1193 H 119.425 -0.488994 3.08245 0
M  V30 1194 N 119.726 -1.57421 0.075193 0
M  V30 1195 C 120.689 -2.11791 -0.876203 0
M  V30 1196 C 121.689 -1.04268 -1.22412 0
M  V30 1197 O 122.879 -1.30242 -1.15684 0
M  V30 1198 C 120.011 -2.62207 -2.17854 0
M  V30 1199 H 121.204 -2.9716 -0.40444 0
M  V30 1200 H 118.757 -1.55333 -0.173557 0
M  V30 1201 H 119.492 -1.803 -2.6956 0
M  V30 1202 H 119.277 -3.40802 -1.93897 0
M  V30 1203 H 120.767 -3.04335 -2.85955 0
M  V30 1204 N 121.204 0.198386 -1.56346 0
M  V30 1205 C 122.167 1.22952 -1.93431 0
M  V30 1206 C 123.167 1.38611 -0.815092 0
M  V30 1207 O 124.357 1.36479 -1.08255 0
M  V30 1208 C 121.489 2.59946 -2.20546 0
M  V30 1209 H 122.682 0.912626 -2.85677 0
M  V30 1210 H 120.235 0.43977 -1.49986 0
M  V30 1211 H 120.97 2.96696 -1.30927 0
M  V30 1212 H 120.755 2.49953 -3.02102 0
M  V30 1213 H 122.245 3.3431 -2.50253 0
M  V30 1214 N 122.682 1.50554 0.465978 0
M  V30 1215 C 123.931 1.61038 1.21448 0
M  V30 1216 C 124.244 0.31865 1.92987 0
M  V30 1217 O 125.45 0.302469 2.6981 0
M  V30 1218 C 123.906 2.84283 2.20706 0
M  V30 1219 C 123.514 4.20352 1.54946 0
M  V30 1220 C 125.258 3.04115 2.96166 0
M  V30 1221 C 123.165 5.34778 2.5252 0
M  V30 1222 H 122.095 0.599718 0.457005 0
M  V30 1223 H 124.746 1.7699 0.484424 0
M  V30 1224 H 123.128 2.61901 2.97025 0
M  V30 1225 H 124.302 4.53008 0.843811 0
M  V30 1226 H 122.617 4.06167 0.917475 0
M  V30 1227 H 125.214 3.86774 3.69202 0
M  V30 1228 H 125.557 2.16045 3.55852 0
M  V30 1229 H 126.09 3.26702 2.26959 0
M  V30 1230 H 122.829 6.25018 1.97566 0
M  V30 1231 H 122.349 5.06534 3.21222 0
M  V30 1232 H 124.028 5.65561 3.14245 0
M  V30 1233 N 124.16 -0.719506 1.40217 0
M  V30 1234 C 125.09 -1.8465 1.42922 0
M  V30 1235 C 126.071 -1.67599 0.29062 0
M  V30 1236 O 127.256 -1.87688 0.498677 0
M  V30 1237 C 124.386 -3.22565 1.28722 0
M  V30 1238 C 123.34 -3.54281 2.40144 0
M  V30 1239 C 122.666 -4.91298 2.11023 0
M  V30 1240 C 123.966 -3.55676 3.82481 0
M  V30 1241 H 125.66 -1.82644 2.37237 0
M  V30 1242 H 123.206 -0.877305 1.1419 0
M  V30 1243 H 125.159 -4.01095 1.29232 0
M  V30 1244 H 123.883 -3.25137 0.308811 0
M  V30 1245 H 122.542 -2.78088 2.38877 0
M  V30 1246 H 122.19 -4.90468 1.11582 0
M  V30 1247 H 121.89 -5.13485 2.8567 0
M  V30 1248 H 123.414 -5.72166 2.13209 0
M  V30 1249 H 124.828 -4.24254 3.85592 0
M  V30 1250 H 123.225 -3.89388 4.56614 0
M  V30 1251 H 124.295 -2.55144 4.12346 0
M  V30 1252 N 125.638 -1.25649 -0.95132 0
M  V30 1253 C 126.886 -1.10375 -1.69298 0
M  V30 1254 C 127.207 0.355339 -1.91735 0
M  V30 1255 O 126.477 1.25188 -1.50681 0
M  V30 1256 H 125.057 -0.405461 -0.627384 0
M  V30 1257 H 127.719 -1.57823 -1.14358 0
M  V30 1258 H 126.815 -1.61465 -2.67087 0
M  V30 1259 N 127.117 1.15442 -1.07289 0
M  V30 1260 C 128.08 2.18358 -0.696591 0
M  V30 1261 C 129.08 1.58637 0.262837 0
M  V30 1262 O 130.27 1.74145 0.0438809 0
M  V30 1263 C 127.402 3.4089 -0.0266151 0
M  V30 1264 H 128.595 2.53162 -1.60776 0
M  V30 1265 H 126.148 1.29893 -0.869342 0
M  V30 1266 H 126.883 3.11653 0.896822 0
M  V30 1267 H 126.668 3.85495 -0.716657 0
M  V30 1268 H 128.158 4.17009 0.222028 0
M  V30 1269 N 128.595 0.856903 1.32268 0
M  V30 1270 C 129.844 0.457599 1.96441 0
M  V30 1271 C 130.157 -0.992426 1.68553 0
M  V30 1272 O 131.363 -1.49727 2.26482 0
M  V30 1273 C 129.819 0.767358 3.51624 0
M  V30 1274 C 129.427 2.23326 3.88367 0
M  V30 1275 C 131.171 0.435887 4.22256 0
M  V30 1276 C 129.078 2.48613 5.36606 0
M  V30 1277 H 128.008 0.167387 0.735185 0
M  V30 1278 H 130.659 1.048 1.5063 0
M  V30 1279 H 129.041 0.106367 3.95857 0
M  V30 1280 H 130.215 2.93623 3.55137 0
M  V30 1281 H 128.53 2.52948 3.30766 0
M  V30 1282 H 131.127 0.602202 5.31298 0
M  V30 1283 H 131.47 -0.622672 4.11617 0
M  V30 1284 H 132.003 1.05286 3.83614 0
M  V30 1285 H 128.742 3.53101 5.52268 0
M  V30 1286 H 128.262 1.82896 5.71235 0
M  V30 1287 H 129.941 2.32676 6.03714 0
M  V30 1288 N 130.073 -1.45103 0.615059 0
M  V30 1289 C 131.298 -2.07064 0.117988 0
M  V30 1290 C 131.723 -1.4554 -1.19163 0
M  V30 1291 O 131.081 -0.550855 -1.72729 0
M  V30 1292 C 131.129 -3.606 -0.000288387 0
M  V30 1293 O 130.233 -3.98847 -1.04856 0
M  V30 1294 H 129.574 -0.659467 0.0774581 0
M  V30 1295 H 132.104 -1.86236 0.847186 0
M  V30 1296 H 132.114 -4.07529 -0.196091 0
M  V30 1297 H 130.789 -4.04765 0.955932 0
M  V30 1298 H 129.366 -3.63577 -0.828619 0
M  V30 1299 N 131.551 -0.354651 -1.53558 0
M  V30 1300 C 132.799 0.237972 -2.00694 0
M  V30 1301 C 133.12 1.50173 -1.24391 0
M  V30 1302 O 132.39 1.92673 -0.354135 0
M  V30 1303 H 130.97 0.0909256 -0.741446 0
M  V30 1304 H 133.632 -0.478368 -1.88938 0
M  V30 1305 H 132.728 0.47264 -3.085 0
M  V30 1306 N 133.029 1.57378 -0.0835403 0
M  V30 1307 C 133.992 2.12252 0.864959 0
M  V30 1308 C 134.992 1.04916 1.21858 0
M  V30 1309 O 136.182 1.30853 1.14991 0
M  V30 1310 C 133.314 2.63358 2.16461 0
M  V30 1311 H 134.507 2.97371 0.388676 0
M  V30 1312 H 132.06 1.55423 0.165317 0
M  V30 1313 H 132.795 1.81727 2.686 0
M  V30 1314 H 132.58 3.41826 1.92087 0
M  V30 1315 H 134.07 3.05847 2.84337 0
M  V30 1316 N 134.507 -0.190092 1.56449 0
M  V30 1317 C 135.457 -1.23977 1.91347 0
M  V30 1318 C 136.441 -1.40747 0.779693 0
M  V30 1319 O 137.633 -1.43033 1.04262 0
M  V30 1320 C 134.762 -2.58347 2.26079 0
M  V30 1321 C 133.848 -2.4535 3.45925 0
M  V30 1322 N 134.239 -2.02039 4.63696 0
M  V30 1323 C 132.537 -2.76229 3.50162 0
M  V30 1324 C 133.238 -2.01053 5.4585 0
M  V30 1325 N 132.214 -2.42747 4.8639 0
M  V30 1326 H 136.016 -0.896318 2.79899 0
M  V30 1327 H 133.53 -0.398496 1.57435 0
M  V30 1328 H 135.527 -3.34173 2.49267 0
M  V30 1329 H 134.187 -2.93512 1.38856 0
M  V30 1330 H 135.198 -1.7267 4.88268 0
M  V30 1331 H 131.875 -3.15556 2.73369 0
M  V30 1332 H 133.265 -1.69426 6.50188 0
M  V30 1333 N 135.985 -1.50799 -0.457987 0
M  V30 1334 C 136.935 -1.67003 -1.55222 0
M  V30 1335 C 137.919 -0.52434 -1.52117 0
M  V30 1336 O 139.111 -0.779345 -1.58919 0
M  V30 1337 C 136.24 -1.77956 -2.93576 0
M  V30 1338 C 135.326 -2.98243 -3.01516 0
M  V30 1339 N 135.717 -4.21732 -2.79241 0
M  V30 1340 C 134.015 -2.97072 -3.32662 0
M  V30 1341 C 134.716 -5.02817 -2.92489 0
M  V30 1342 N 133.692 -4.37038 -3.23262 0
M  V30 1343 H 137.494 -2.60163 -1.36721 0
M  V30 1344 H 135.008 -1.48163 -0.664952 0
M  V30 1345 H 137.005 -1.87671 -3.72271 0
M  V30 1346 H 135.665 -0.859634 -3.13114 0
M  V30 1347 H 136.676 -4.51016 -2.54567 0
M  V30 1348 H 133.353 -2.14631 -3.58106 0
M  V30 1349 H 134.743 -6.11054 -2.79396 0
M  V30 1350 N 137.463 0.71206 -1.40597 0
M  V30 1351 C 138.709 1.47416 -1.39271 0
M  V30 1352 C 139.042 1.942 0.00388791 0
M  V30 1353 O 138.317 1.68403 0.973179 0
M  V30 1354 C 138.6 2.69774 -2.38525 0
M  V30 1355 C 138.453 2.28861 -3.87224 0
M  V30 1356 C 139.772 3.71939 -2.35264 0
M  V30 1357 H 136.891 0.534713 -0.5072 0
M  V30 1358 H 139.533 0.812375 -1.71757 0
M  V30 1359 H 137.683 3.26238 -2.10953 0
M  V30 1360 H 139.355 1.77852 -4.25636 0
M  V30 1361 H 137.598 1.60824 -4.02887 0
M  V30 1362 H 138.269 3.16584 -4.52193 0
M  V30 1363 H 140.745 3.25113 -2.59694 0
M  V30 1364 H 139.621 4.55186 -3.06753 0
M  V30 1365 H 139.882 4.20484 -1.36549 0
M  V30 1366 N 138.941 1.26152 0.944643 0
M  V30 1367 C 139.891 1.04081 2.02857 0
M  V30 1368 C 140.875 -0.0256555 1.6088 0
M  V30 1369 O 142.067 0.190884 1.75968 0
M  V30 1370 C 139.196 0.672118 3.36656 0
M  V30 1371 C 138.282 1.77586 3.85128 0
M  V30 1372 N 138.673 3.01272 4.06287 0
M  V30 1373 C 136.971 1.65867 4.1401 0
M  V30 1374 C 137.672 3.72983 4.46384 0
M  V30 1375 N 136.648 3.00653 4.52889 0
M  V30 1376 H 140.45 1.97968 2.17223 0
M  V30 1377 H 137.964 1.16618 1.13022 0
M  V30 1378 H 139.961 0.495166 4.13949 0
M  V30 1379 H 138.621 -0.259307 3.23663 0
M  V30 1380 H 139.632 3.37213 3.93075 0
M  V30 1381 H 136.309 0.796907 4.09824 0
M  V30 1382 H 137.699 4.792 4.70975 0
M  V30 1383 N 140.419 -1.14872 1.07899 0
M  V30 1384 C 141.351 -2.19425 0.662231 0
M  V30 1385 C 142.364 -1.60231 -0.288079 0
M  V30 1386 O 143.553 -1.78336 -0.076534 0
M  V30 1387 C 140.653 -3.38867 -0.0470695 0
M  V30 1388 C 139.826 -4.27597 0.920831 0
M  V30 1389 C 138.885 -5.25616 0.247805 0
M  V30 1390 O 137.911 -5.62189 0.890599 0
M  V30 1391 N 139.113 -5.71746 -1.00435 0
M  V30 1392 H 141.878 -2.55797 1.56166 0
M  V30 1393 H 139.439 -1.30042 0.964404 0
M  V30 1394 H 141.431 -4.01497 -0.50813 0
M  V30 1395 H 140.001 -3.00864 -0.848523 0
M  V30 1396 H 139.221 -3.61982 1.56087 0
M  V30 1397 H 140.509 -4.83748 1.57688 0
M  V30 1398 H 139.907 -5.44153 -1.54642 0
M  V30 1399 H 138.464 -6.36389 -1.40899 0
M  V30 1400 N 141.898 -0.863906 -1.31812 0
M  V30 1401 C 142.831 -0.259963 -2.26714 0
M  V30 1402 C 143.809 0.607392 -1.50829 0
M  V30 1403 O 144.993 0.562155 -1.79922 0
M  V30 1404 C 142.12 0.632456 -3.32743 0
M  V30 1405 C 141.166 -0.162743 -4.26189 0
M  V30 1406 S 141.999 -1.53726 -5.12961 0
M  V30 1407 C 143.155 -0.650803 -6.22507 0
M  V30 1408 H 143.388 -1.06445 -2.77591 0
M  V30 1409 H 140.921 -0.662071 -1.39485 0
M  V30 1410 H 142.879 1.14167 -3.94305 0
M  V30 1411 H 141.54 1.41083 -2.80632 0
M  V30 1412 H 140.733 0.517366 -5.01338 0
M  V30 1413 H 140.335 -0.60385 -3.69093 0
M  V30 1414 H 142.627 0.141134 -6.77353 0
M  V30 1415 H 143.57 -1.37322 -6.94657 0
M  V30 1416 H 143.978 -0.221041 -5.64067 0
M  V30 1417 N 143.376 1.44774 -0.622745 0
M  V30 1418 C 144.339 2.29069 0.0774015 0
M  V30 1419 C 145.339 1.4059 0.780461 0
M  V30 1420 O 146.529 1.62551 0.626322 0
M  V30 1421 C 143.661 3.21974 1.12006 0
M  V30 1422 H 144.854 2.92459 -0.663901 0
M  V30 1423 H 142.407 1.51548 -0.382486 0
M  V30 1424 H 143.142 2.63417 1.89162 0
M  V30 1425 H 142.927 3.87168 0.619951 0
M  V30 1426 H 144.417 3.85318 1.60995 0
M  V30 1427 N 144.854 0.36279 1.53368 0
M  V30 1428 C 145.764 -0.492994 2.29362 0
M  V30 1429 C 146.78 -1.09507 1.35219 0
M  V30 1430 O 147.956 -1.10662 1.68273 0
M  V30 1431 C 145.021 -1.61855 3.066 0
M  V30 1432 C 144.082 -1.04429 4.16405 0
M  V30 1433 C 143.315 -2.11621 4.89951 0
M  V30 1434 O 143.538 -3.32684 4.63333 0
M  V30 1435 O 142.472 -1.74835 5.75948 0
M  V30 1436 H 146.298 0.125331 3.03441 0
M  V30 1437 H 143.883 0.127253 1.48857 0
M  V30 1438 H 145.765 -2.27302 3.54841 0
M  V30 1439 H 144.44 -2.22233 2.3536 0
M  V30 1440 H 143.347 -0.353819 3.72423 0
M  V30 1441 H 144.68 -0.485113 4.89804 0
M  V30 1442 N 146.332 -1.57332 0.0918853 0
M  V30 1443 C 147.282 -2.10385 -0.87876 0
M  V30 1444 C 148.266 -1.01814 -1.24591 0
M  V30 1445 O 149.458 -1.28093 -1.22152 0
M  V30 1446 C 146.587 -2.68517 -2.13901 0
M  V30 1447 C 145.673 -3.84126 -1.79744 0
M  V30 1448 N 146.064 -4.92288 -1.1613 0
M  V30 1449 C 144.362 -3.93801 -2.09373 0
M  V30 1450 C 145.063 -5.7295 -1.00513 0
M  V30 1451 N 144.039 -5.21876 -1.5214 0
M  V30 1452 H 147.841 -2.91395 -0.38293 0
M  V30 1453 H 145.355 -1.62017 -0.111423 0
M  V30 1454 H 147.352 -3.04852 -2.84378 0
M  V30 1455 H 146.012 -1.88961 -2.64053 0
M  V30 1456 H 147.023 -5.1123 -0.828504 0
M  V30 1457 H 143.7 -3.25249 -2.61762 0
M  V30 1458 H 145.09 -6.69978 -0.507902 0
M  V30 1459 N 147.81 0.181792 -1.56548 0
M  V30 1460 C 149.04 0.914618 -1.85252 0
M  V30 1461 C 149.448 1.76791 -0.673914 0
M  V30 1462 O 148.791 1.80009 0.366416 0
M  V30 1463 C 148.853 1.85019 -3.08234 0
M  V30 1464 C 148.517 1.17754 -4.41569 0
M  V30 1465 C 149.514 0.548035 -5.17003 0
M  V30 1466 C 147.199 1.17742 -4.88305 0
M  V30 1467 C 149.193 -0.0726128 -6.37359 0
M  V30 1468 C 146.88 0.552946 -6.08593 0
M  V30 1469 C 147.878 -0.070978 -6.82963 0
M  V30 1470 O 147.566 -0.685635 -8.00971 0
M  V30 1471 H 147.298 0.271695 -0.618998 0
M  V30 1472 H 149.852 0.189944 -2.0452 0
M  V30 1473 H 148.082 2.61491 -2.84885 0
M  V30 1474 H 149.771 2.45195 -3.23472 0
M  V30 1475 H 150.537 0.540174 -4.81982 0
M  V30 1476 H 146.416 1.65246 -4.30366 0
M  V30 1477 H 149.96 -0.560213 -6.95347 0
M  V30 1478 H 145.857 0.558354 -6.43081 0
M  V30 1479 H 146.625 -0.58385 -8.16415 0
M  V30 1480 N 149.288 1.51039 0.449983 0
M  V30 1481 C 150.536 1.62759 1.19808 0
M  V30 1482 C 150.857 0.339981 1.92013 0
M  V30 1483 O 150.127 -0.643606 1.85026 0
M  V30 1484 H 148.707 0.599811 0.445237 0
M  V30 1485 H 151.369 1.87914 0.517138 0
M  V30 1486 H 150.465 2.44911 1.93455 0
M  V30 1487 N 150.766 -0.704594 1.40972 0
M  V30 1488 C 152.012 -1.46675 1.40051 0
M  V30 1489 C 152.345 -1.94199 0.00641102 0
M  V30 1490 O 151.62 -1.68916 -0.964235 0
M  V30 1491 C 151.903 -2.68505 2.39952 0
M  V30 1492 C 151.756 -2.26805 3.88432 0
M  V30 1493 C 153.075 -3.70686 2.37233 0
M  V30 1494 H 150.194 -0.532015 0.510028 0
M  V30 1495 H 152.836 -0.803255 1.72185 0
M  V30 1496 H 150.986 -3.25114 2.1268 0
M  V30 1497 H 152.658 -1.75592 4.26574 0
M  V30 1498 H 150.901 -1.58685 4.03734 0
M  V30 1499 H 151.572 -3.14181 4.53866 0
M  V30 1500 H 154.048 -3.23731 2.61415 0
M  V30 1501 H 152.924 -4.53553 3.09162 0
M  V30 1502 H 153.185 -4.19754 1.38777 0
M  V30 1503 N 152.244 -1.26651 -0.937939 0
M  V30 1504 C 153.655 -1.1125 -1.49934 0
M  V30 1505 C 154.006 0.306077 -1.93798 0
M  V30 1506 O 153.131 1.19792 -1.80219 0
M  V30 1507 C 153.726 -2.01339 -2.72485 0
M  V30 1508 C 152.285 -1.90074 -3.24883 0
M  V30 1509 C 151.432 -1.94498 -1.97651 0
M  V30 1510 H 154.383 -1.39693 -0.753091 0
M  V30 1511 H 154.404 -1.56319 -3.46907 0
M  V30 1512 H 153.916 -3.04577 -2.40529 0
M  V30 1513 H 152.017 -0.897827 -3.61621 0
M  V30 1514 H 152.13 -2.75778 -3.9177 0
M  V30 1515 H 150.494 -1.38591 -2.13693 0
M  V30 1516 H 151.277 -2.99372 -1.68022 0
M  V30 1517 N 153.722 1.14298 -1.08507 0
M  V30 1518 C 154.968 1.85633 -0.816581 0
M  V30 1519 C 155.301 1.82784 0.656021 0
M  V30 1520 O 154.576 1.25926 1.48233 0
M  V30 1521 C 154.859 3.34223 -1.34041 0
M  V30 1522 C 154.712 3.45639 -2.87843 0
M  V30 1523 C 156.031 4.29356 -0.9665 0
M  V30 1524 H 153.15 0.67402 -0.298104 0
M  V30 1525 H 155.792 1.34214 -1.34487 0
M  V30 1526 H 153.942 3.78144 -0.89104 0
M  V30 1527 H 155.614 3.10498 -3.41158 0
M  V30 1528 H 153.857 2.86817 -3.25451 0
M  V30 1529 H 154.528 4.50089 -3.19569 0
M  V30 1530 H 157.004 3.93457 -1.35391 0
M  V30 1531 H 155.88 5.3178 -1.3602 0
M  V30 1532 H 156.141 4.41919 0.126362 0
M  V30 1533 N 155.201 0.870884 1.31352 0
M  V30 1534 C 156.45 0.478408 1.95944 0
M  V30 1535 C 156.763 -0.974493 1.69597 0
M  V30 1536 O 157.969 -1.47316 2.28058 0
M  V30 1537 C 156.425 0.804609 3.50791 0
M  V30 1538 C 156.033 2.27433 3.85977 0
M  V30 1539 C 157.777 0.480648 4.2177 0
M  V30 1540 C 155.684 2.5429 5.33939 0
M  V30 1541 H 154.614 0.175175 0.733369 0
M  V30 1542 H 157.265 1.06391 1.4951 0
M  V30 1543 H 155.647 0.148347 3.95722 0
M  V30 1544 H 156.821 2.97373 3.52002 0
M  V30 1545 H 155.136 2.56442 3.28065 0
M  V30 1546 H 157.733 0.658519 5.30629 0
M  V30 1547 H 158.076 -0.578979 4.12254 0
M  V30 1548 H 158.609 1.09349 3.82476 0
M  V30 1549 H 155.348 3.58939 5.48491 0
M  V30 1550 H 154.868 1.88945 5.69263 0
M  V30 1551 H 156.547 2.39066 6.01212 0
M  V30 1552 N 156.679 -1.44442 0.630414 0
M  V30 1553 C 157.609 -2.33418 -0.0618083 0
M  V30 1554 C 158.59 -1.48165 -0.835541 0
M  V30 1555 O 159.775 -1.76886 -0.801564 0
M  V30 1556 C 156.905 -3.31222 -1.04449 0
M  V30 1557 C 155.859 -4.26288 -0.382436 0
M  V30 1558 C 155.185 -5.13954 -1.47497 0
M  V30 1559 C 156.485 -5.1744 0.710865 0
M  V30 1560 H 158.179 -2.91548 0.681184 0
M  V30 1561 H 155.725 -1.40191 0.329026 0
M  V30 1562 H 157.678 -3.92351 -1.53748 0
M  V30 1563 H 156.402 -2.71299 -1.81836 0
M  V30 1564 H 155.061 -3.6649 0.0899054 0
M  V30 1565 H 154.709 -4.50385 -2.2397 0
M  V30 1566 H 154.409 -5.7837 -1.03737 0
M  V30 1567 H 155.933 -5.77955 -1.96979 0
M  V30 1568 H 157.347 -5.72509 0.300996 0
M  V30 1569 H 155.744 -5.90455 1.07156 0
M  V30 1570 H 156.814 -4.58496 1.57829 0
M  V30 1571 N 158.157 -0.370918 -1.53173 0
M  V30 1572 C 159.107 0.489588 -2.22681 0
M  V30 1573 C 160.091 1.04442 -1.22395 0
M  V30 1574 O 161.283 0.973578 -1.47819 0
M  V30 1575 C 158.412 1.626 -3.02351 0
M  V30 1576 C 157.498 1.08379 -4.10018 0
M  V30 1577 N 157.889 0.265004 -5.05105 0
M  V30 1578 C 156.187 1.35809 -4.2482 0
M  V30 1579 C 156.888 -0.0324755 -5.81691 0
M  V30 1580 N 155.864 0.566581 -5.40639 0
M  V30 1581 H 159.666 -0.142729 -2.93553 0
M  V30 1582 H 157.18 -0.179221 -1.61408 0
M  V30 1583 H 159.177 2.2547 -3.50669 0
M  V30 1584 H 157.837 2.26132 -2.33011 0
M  V30 1585 H 158.848 -0.0962352 -5.17811 0
M  V30 1586 H 155.525 1.9958 -3.66707 0
M  V30 1587 H 156.915 -0.69473 -6.68299 0
M  V30 1588 N 159.635 1.57281 -0.100228 0
M  V30 1589 C 160.863 1.98879 0.570509 0
M  V30 1590 C 161.278 0.979476 1.61405 0
M  V30 1591 O 160.635 -0.0302288 1.82475 0
M  V30 1592 C 160.686 3.4052 1.2136 0
M  V30 1593 O 160.407 4.37588 0.211786 0
M  V30 1594 C 161.908 3.97149 1.96945 0
M  V30 1595 H 159.128 0.653428 0.152555 0
M  V30 1596 H 161.672 2.03697 -0.18103 0
M  V30 1597 H 159.827 3.367 1.91603 0
M  V30 1598 H 160.241 5.20118 0.676607 0
M  V30 1599 H 161.715 4.98393 2.37294 0
M  V30 1600 H 162.192 3.3525 2.83733 0
M  V30 1601 H 162.798 4.04458 1.31506 0
M  V30 1602 N 161.113 -0.173488 1.56642 0
M  V30 1603 C 162.39 -0.917617 1.7274 0
M  V30 1604 C 162.77 -2.00484 0.661027 0
M  V30 1605 O 162.118 -2.26184 -0.32453 0
M  V30 1606 C 162.328 -1.48433 3.15862 0
M  V30 1607 C 163.676 -1.95809 3.76754 0
M  V30 1608 O 164.7 -1.58231 3.19126 0
M  V30 1609 O 163.559 -2.65024 4.77938 0
M  V30 1610 H 160.653 -0.431772 0.705338 0
M  V30 1611 H 163.199 -0.161487 1.6893 0
M  V30 1612 H 161.971 -0.701715 3.84957 0
M  V30 1613 H 161.594 -2.30471 3.23989 0
M  V30 1614 N 162.591 -1.51276 -0.441967 0
M  V30 1615 C 163.541 -1.6864 -1.53442 0
M  V30 1616 C 164.525 -0.540444 -1.51552 0
M  V30 1617 O 165.717 -0.796157 -1.58083 0
M  V30 1618 C 162.846 -1.8106 -2.91672 0
M  V30 1619 C 161.932 -3.01424 -2.98336 0
M  V30 1620 N 162.323 -4.2467 -2.74752 0
M  V30 1621 C 160.621 -3.00584 -3.29493 0
M  V30 1622 C 161.322 -5.05891 -2.87139 0
M  V30 1623 N 160.298 -4.40442 -3.18609 0
M  V30 1624 H 164.1 -2.61598 -1.33954 0
M  V30 1625 H 161.614 -1.4886 -0.6492 0
M  V30 1626 H 163.611 -1.91609 -3.70259 0
M  V30 1627 H 162.271 -0.892795 -3.12185 0
M  V30 1628 H 163.282 -4.53691 -2.49769 0
M  V30 1629 H 159.959 -2.18417 -3.55809 0
M  V30 1630 H 161.349 -6.13983 -2.72899 0
M  V30 1631 N 164.069 0.697108 -1.41344 0
M  V30 1632 C 165.309 1.46939 -1.42085 0
M  V30 1633 C 165.673 1.9198 -0.0280397 0
M  V30 1634 O 166.874 2.6865 0.0897504 0
M  V30 1635 C 165.145 2.64985 -2.39828 0
M  V30 1636 S 166.704 3.54147 -2.59085 0
M  V30 1637 H 163.522 0.502146 -0.503359 0
M  V30 1638 H 166.124 0.813546 -1.77769 0
M  V30 1639 H 164.828 2.30098 -3.39828 0
M  V30 1640 H 164.359 3.35464 -2.05493 0
M  V30 1641 H 166.374 4.60137 -1.85711 0
M  V30 1642 N 165.547 1.27147 0.931209 0
M  V30 1643 C 166.51 1.09615 2.01289 0
M  V30 1644 C 167.51 0.0412581 1.60747 0
M  V30 1645 O 168.7 0.285545 1.71844 0
M  V30 1646 C 165.832 0.669447 3.34262 0
M  V30 1647 H 167.025 2.05662 2.18273 0
M  V30 1648 H 164.578 1.09885 1.11153 0
M  V30 1649 H 165.313 -0.292572 3.22978 0
M  V30 1650 H 165.098 1.43127 3.65044 0
M  V30 1651 H 166.588 0.568921 4.13706 0
M  V30 1652 N 167.025 -1.13721 1.09112 0
M  V30 1653 C 167.972 -2.19031 0.727591 0
M  V30 1654 C 168.942 -1.63555 -0.289656 0
M  V30 1655 O 170.127 -1.90023 -0.172026 0
M  V30 1656 C 167.267 -3.4477 0.15082 0
M  V30 1657 C 166.38 -4.14365 1.22172 0
M  V30 1658 C 165.515 -5.27709 0.608042 0
M  V30 1659 C 164.554 -5.89147 1.66047 0
M  V30 1660 N 163.691 -6.93929 1.06806 0
M  V30 1661 H 168.531 -2.49475 1.62991 0
M  V30 1662 H 166.068 -1.22499 0.81439 0
M  V30 1663 H 168.026 -4.16714 -0.201358 0
M  V30 1664 H 166.656 -3.14787 -0.714783 0
M  V30 1665 H 165.708 -3.40737 1.69122 0
M  V30 1666 H 167.02 -4.56114 2.01895 0
M  V30 1667 H 166.174 -6.06355 0.204523 0
M  V30 1668 H 164.913 -4.872 -0.220769 0
M  V30 1669 H 163.918 -5.09198 2.07357 0
M  V30 1670 H 165.143 -6.31729 2.49189 0
M  V30 1671 H 163.089 -6.55483 0.260476 0
M  V30 1672 H 163.006 -7.34202 1.8023 0
M  V30 1673 H 164.274 -7.76434 0.690644 0
M  V30 1674 N 168.503 -0.877838 -1.30888 0
M  V30 1675 C 169.45 -0.337538 -2.28318 0
M  V30 1676 C 170.42 0.568346 -1.56074 0
M  V30 1677 O 171.605 0.498298 -1.84178 0
M  V30 1678 C 168.745 0.448142 -3.42178 0
M  V30 1679 C 167.858 -0.48615 -4.29256 0
M  V30 1680 C 166.993 0.314427 -5.30269 0
M  V30 1681 C 166.032 -0.615791 -6.08995 0
M  V30 1682 N 165.169 0.14902 -7.01942 0
M  V30 1683 H 170.009 -1.17356 -2.73919 0
M  V30 1684 H 167.546 -0.590094 -1.34745 0
M  V30 1685 H 169.504 0.919517 -4.06941 0
M  V30 1686 H 168.134 1.24879 -2.97666 0
M  V30 1687 H 167.186 -1.076 -3.64865 0
M  V30 1688 H 168.498 -1.19909 -4.84173 0
M  V30 1689 H 167.652 0.847969 -6.00745 0
M  V30 1690 H 166.391 1.06062 -4.76027 0
M  V30 1691 H 165.396 -1.16102 -5.37401 0
M  V30 1692 H 166.621 -1.36097 -6.65323 0
M  V30 1693 H 164.567 0.877884 -6.50099 0
M  V30 1694 H 164.484 -0.504433 -7.54315 0
M  V30 1695 H 165.752 0.663537 -7.76671 0
M  V30 1696 N 169.982 1.44106 -0.638065 0
M  V30 1697 C 170.912 2.33448 0.0494287 0
M  V30 1698 C 171.893 1.48606 0.827672 0
M  V30 1699 O 173.078 1.77308 0.792173 0
M  V30 1700 C 170.208 3.31771 1.02691 0
M  V30 1701 C 169.162 4.26485 0.359823 0
M  V30 1702 C 168.488 5.14729 1.44769 0
M  V30 1703 C 169.788 5.17056 -0.738296 0
M  V30 1704 H 171.482 2.91183 -0.696636 0
M  V30 1705 H 169.028 1.40014 -0.336456 0
M  V30 1706 H 170.981 3.93161 1.51666 0
M  V30 1707 H 169.705 2.7226 1.80395 0
M  V30 1708 H 168.364 3.66437 -0.10934 0
M  V30 1709 H 168.012 4.51566 2.21578 0
M  V30 1710 H 167.712 5.78913 1.00668 0
M  V30 1711 H 169.236 5.78991 1.93911 0
M  V30 1712 H 170.65 5.72342 -0.331354 0
M  V30 1713 H 169.047 5.89879 -1.10286 0
M  V30 1714 H 170.117 4.57652 -1.60258 0
M  V30 1715 N 171.46 0.379036 1.52974 0
M  V30 1716 C 172.39 -0.452706 2.29069 0
M  V30 1717 C 173.371 -1.07237 1.32039 0
M  V30 1718 O 174.556 -1.08708 1.60923 0
M  V30 1719 C 171.686 -1.5856 3.08992 0
M  V30 1720 C 170.64 -1.0925 4.13822 0
M  V30 1721 C 169.966 -2.31668 4.81907 0
M  V30 1722 C 171.266 -0.167702 5.22031 0
M  V30 1723 H 172.96 0.182181 2.98845 0
M  V30 1724 H 170.506 0.0890592 1.43724 0
M  V30 1725 H 172.459 -2.1742 3.6098 0
M  V30 1726 H 171.183 -2.24792 2.36931 0
M  V30 1727 H 169.842 -0.526494 3.628 0
M  V30 1728 H 169.49 -2.96386 4.06404 0
M  V30 1729 H 169.19 -1.9934 5.52754 0
M  V30 1730 H 170.714 -2.91189 5.36695 0
M  V30 1731 H 172.128 -0.664186 5.6944 0
M  V30 1732 H 170.525 0.0653265 6.00064 0
M  V30 1733 H 171.595 0.786347 4.78482 0
M  V30 1734 N 172.938 -1.57226 0.108567 0
M  V30 1735 C 174.349 -1.8195 -0.418464 0
M  V30 1736 C 174.7 -1.02508 -1.67292 0
M  V30 1737 O 173.825 -0.258496 -2.14851 0
M  V30 1738 C 174.42 -3.30028 -0.765979 0
M  V30 1739 C 172.979 -3.55469 -1.23769 0
M  V30 1740 C 172.126 -2.7625 -0.241106 0
M  V30 1741 H 175.077 -1.55149 0.33384 0
M  V30 1742 H 175.098 -3.44086 -1.62434 0
M  V30 1743 H 174.61 -3.87821 0.147219 0
M  V30 1744 H 172.711 -3.03022 -2.16814 0
M  V30 1745 H 172.824 -4.6408 -1.19022 0
M  V30 1746 H 171.188 -2.44133 -0.72602 0
M  V30 1747 H 171.971 -3.36797 0.665007 0
M  V30 1748 N 174.416 0.165178 -1.56732 0
M  V30 1749 C 175.662 0.877389 -1.83503 0
M  V30 1750 C 176.017 1.79602 -0.689996 0
M  V30 1751 O 175.31 1.89023 0.313205 0
M  V30 1752 C 175.504 1.70405 -3.1416 0
M  V30 1753 C 175.333 0.866961 -4.41264 0
M  V30 1754 C 174.103 0.539646 -5.0241 0
M  V30 1755 C 176.301 0.205671 -5.13889 0
M  V30 1756 N 174.283 -0.312946 -6.13102 0
M  V30 1757 C 175.654 -0.507823 -6.17917 0
M  V30 1758 C 177.709 0.124468 -4.97744 0
M  V30 1759 C 176.412 -1.29483 -7.0755 0
M  V30 1760 C 178.438 -0.649222 -5.87826 0
M  V30 1761 C 177.8 -1.35106 -6.91322 0
M  V30 1762 H 173.899 0.299477 -0.722383 0
M  V30 1763 H 176.483 0.143949 -1.94167 0
M  V30 1764 H 174.654 2.40887 -3.04677 0
M  V30 1765 H 176.386 2.35804 -3.28905 0
M  V30 1766 H 173.141 0.871176 -4.65519 0
M  V30 1767 H 173.565 -0.729731 -6.73056 0
M  V30 1768 H 178.207 0.652724 -4.17731 0
M  V30 1769 H 175.925 -1.83441 -7.87004 0
M  V30 1770 H 179.511 -0.713804 -5.77405 0
M  V30 1771 H 178.391 -1.94013 -7.59821 0
M  V30 1772 N 175.894 1.51508 0.433938 0
M  V30 1773 C 177.143 1.63578 1.18005 0
M  V30 1774 C 177.456 0.359514 1.92268 0
M  V30 1775 O 178.662 0.359632 2.69108 0
M  V30 1776 C 177.118 2.88901 2.14626 0
M  V30 1777 C 176.726 4.23544 1.45995 0
M  V30 1778 C 178.47 3.10328 2.89649 0
M  V30 1779 C 176.377 5.40014 2.4112 0
M  V30 1780 H 175.307 0.609277 0.444182 0
M  V30 1781 H 177.958 1.77978 0.446773 0
M  V30 1782 H 176.34 2.68142 2.91403 0
M  V30 1783 H 177.514 4.54696 0.747532 0
M  V30 1784 H 175.829 4.08021 0.831115 0
M  V30 1785 H 178.426 3.94518 3.60915 0
M  V30 1786 H 178.769 2.23544 3.51189 0
M  V30 1787 H 179.302 3.31443 2.19978 0
M  V30 1788 H 176.041 6.29068 1.84264 0
M  V30 1789 H 175.561 5.13233 3.10406 0
M  V30 1790 H 177.24 5.72099 3.02177 0
M  V30 1791 N 177.372 -0.689602 1.41712 0
M  V30 1792 C 178.649 -1.44457 1.31877 0
M  V30 1793 C 179.029 -2.11039 -0.0508537 0
M  V30 1794 O 178.377 -2.02138 -1.06547 0
M  V30 1795 C 178.587 -2.45913 2.47645 0
M  V30 1796 C 179.935 -3.10991 2.89084 0
M  V30 1797 O 180.959 -2.56238 2.47428 0
M  V30 1798 O 179.818 -4.10174 3.61137 0
M  V30 1799 H 176.912 -0.64362 0.519309 0
M  V30 1800 H 179.458 -0.719576 1.53689 0
M  V30 1801 H 178.23 -1.95409 3.39015 0
M  V30 1802 H 177.853 -3.25913 2.27742 0
M  V30 1803 N 178.85 -1.27639 -0.924453 0
M  V30 1804 C 180.098 -1.13941 -1.66918 0
M  V30 1805 C 180.419 0.314589 -1.92446 0
M  V30 1806 O 179.689 1.21964 -1.53303 0
M  V30 1807 H 178.269 -0.418678 -0.618642 0
M  V30 1808 H 180.931 -1.60213 -1.10985 0
M  V30 1809 H 180.027 -1.67094 -2.63602 0
M  V30 1810 N 180.328 1.1314 -1.09713 0
M  V30 1811 C 181.258 2.20748 -0.761102 0
M  V30 1812 C 182.239 1.68061 0.262566 0
M  V30 1813 O 183.424 1.93765 0.129977 0
M  V30 1814 C 180.554 3.46812 -0.184054 0
M  V30 1815 C 179.508 4.12606 -1.13757 0
M  V30 1816 C 178.834 5.33031 -0.422083 0
M  V30 1817 C 180.134 4.59603 -2.48118 0
M  V30 1818 H 181.828 2.49113 -1.66082 0
M  V30 1819 H 179.374 1.19734 -0.799987 0
M  V30 1820 H 181.327 4.21353 0.0631215 0
M  V30 1821 H 180.051 3.17851 0.750868 0
M  V30 1822 H 178.71 3.40036 -1.37007 0
M  V30 1823 H 178.358 5.00335 0.517072 0
M  V30 1824 H 178.058 5.77999 -1.05788 0
M  V30 1825 H 179.582 6.10325 -0.183277 0
M  V30 1826 H 180.996 5.25552 -2.29059 0
M  V30 1827 H 179.393 5.15321 -3.07514 0
M  V30 1828 H 180.463 3.73971 -3.08665 0
M  V30 1829 N 181.806 0.884767 1.30421 0
M  V30 1830 C 182.736 0.367574 2.30589 0
M  V30 1831 C 183.717 -0.549464 1.60981 0
M  V30 1832 O 184.902 -0.46336 1.88591 0
M  V30 1833 C 182.032 -0.418944 3.44764 0
M  V30 1834 C 180.986 0.406316 4.26067 0
M  V30 1835 C 180.312 -0.506793 5.32293 0
M  V30 1836 C 181.612 1.64832 4.95608 0
M  V30 1837 H 183.306 1.20462 2.74097 0
M  V30 1838 H 180.852 0.580695 1.31772 0
M  V30 1839 H 182.805 -0.791395 4.13902 0
M  V30 1840 H 181.529 -1.28964 3.0006 0
M  V30 1841 H 180.188 0.760903 3.58617 0
M  V30 1842 H 179.836 -1.37519 4.83836 0
M  V30 1843 H 179.536 0.0415828 5.87585 0
M  V30 1844 H 181.06 -0.875764 6.04287 0
M  V30 1845 H 182.474 1.34646 5.57264 0
M  V30 1846 H 180.871 2.13688 5.60765 0
M  V30 1847 H 181.941 2.39284 4.21748 0
M  V30 1848 N 183.284 -1.43765 0.645699 0
M  V30 1849 C 184.561 -1.9541 0.0862963 0
M  V30 1850 C 184.941 -1.58725 -1.39175 0
M  V30 1851 O 184.289 -0.868581 -2.11348 0
M  V30 1852 C 184.499 -3.47488 0.324565 0
M  V30 1853 C 185.847 -4.24001 0.225497 0
M  V30 1854 O 186.871 -3.55274 0.256715 0
M  V30 1855 O 185.73 -5.46313 0.142801 0
M  V30 1856 H 182.824 -0.826882 -0.0139483 0
M  V30 1857 H 185.37 -1.53743 0.718415 0
M  V30 1858 H 184.142 -3.67289 1.3496 0
M  V30 1859 H 183.765 -3.96135 -0.340987 0
M  V30 1860 N 184.763 -0.387143 -1.52771 0
M  V30 1861 C 185.726 0.436939 -2.24997 0
M  V30 1862 C 186.726 0.991991 -1.26555 0
M  V30 1863 O 187.916 0.874335 -1.50669 0
M  V30 1864 C 185.048 1.61281 -3.00335 0
M  V30 1865 H 186.241 -0.195365 -2.99263 0
M  V30 1866 H 183.794 -0.139218 -1.55679 0
M  V30 1867 H 184.529 2.2826 -2.30364 0
M  V30 1868 H 184.314 1.22154 -3.72587 0
M  V30 1869 H 185.804 2.19629 -3.5518 0
M  V30 1870 N 186.241 1.57166 -0.116904 0
M  V30 1871 C 187.489 1.94737 0.540533 0
M  V30 1872 C 187.81 1.00096 1.67349 0
M  V30 1873 O 187.08 0.0568854 1.95817 0
M  V30 1874 H 185.66 0.718981 0.202669 0
M  V30 1875 H 188.322 1.94017 -0.185353 0
M  V30 1876 H 187.418 2.97719 0.936483 0
M  V30 1877 N 187.719 -0.156864 1.56817 0
M  V30 1878 C 188.629 -1.2136 2.00771 0
M  V30 1879 C 189.645 -1.47598 0.921459 0
M  V30 1880 O 190.821 -1.59462 1.2302 0
M  V30 1881 C 187.886 -2.52943 2.37109 0
M  V30 1882 C 186.947 -2.34439 3.59634 0
M  V30 1883 C 186.18 -3.59748 3.94229 0
M  V30 1884 O 186.403 -4.65526 3.29609 0
M  V30 1885 O 185.337 -3.52998 4.8752 0
M  V30 1886 H 189.163 -0.870468 2.90958 0
M  V30 1887 H 186.748 -0.36484 1.44877 0
M  V30 1888 H 188.63 -3.30538 2.61386 0
M  V30 1889 H 187.305 -2.86806 1.5008 0
M  V30 1890 H 186.212 -1.54828 3.40557 0
M  V30 1891 H 187.545 -2.05496 4.4725 0
M  V30 1892 N 189.197 -1.51736 -0.425897 0
M  V30 1893 C 190.144 -1.73875 -1.51776 0
M  V30 1894 C 191.114 -0.580702 -1.55618 0
M  V30 1895 O 192.299 -0.81641 -1.72451 0
M  V30 1896 C 189.439 -1.88012 -2.89388 0
M  V30 1897 C 188.552 -3.15606 -2.94986 0
M  V30 1898 C 187.687 -3.20271 -4.23793 0
M  V30 1899 C 186.726 -4.42134 -4.23302 0
M  V30 1900 N 185.863 -4.44284 -5.43651 0
M  V30 1901 H 190.703 -2.67071 -1.32201 0
M  V30 1902 H 188.24 -1.32351 -0.642008 0
M  V30 1903 H 190.198 -1.9419 -3.69251 0
M  V30 1904 H 188.828 -0.98213 -3.07496 0
M  V30 1905 H 187.88 -3.18681 -2.07717 0
M  V30 1906 H 189.192 -4.05486 -2.90486 0
M  V30 1907 H 188.346 -3.25428 -5.12036 0
M  V30 1908 H 187.085 -2.28299 -4.30965 0
M  V30 1909 H 186.09 -4.3714 -3.3345 0
M  V30 1910 H 187.315 -5.35382 -4.17783 0
M  V30 1911 H 185.261 -3.55188 -5.51523 0
M  V30 1912 H 185.178 -5.27988 -5.41078 0
M  V30 1913 H 186.446 -4.53649 -6.33895 0
M  V30 1914 N 190.675 0.682077 -1.42076 0
M  V30 1915 C 191.625 1.78823 -1.41444 0
M  V30 1916 C 192.609 1.58323 -0.28681 0
M  V30 1917 O 193.801 1.68926 -0.528498 0
M  V30 1918 C 190.93 3.17232 -1.3122 0
M  V30 1919 C 190.016 3.4338 -2.489 0
M  V30 1920 N 190.407 3.40152 -3.7434 0
M  V30 1921 C 188.705 3.73986 -2.43003 0
M  V30 1922 C 189.406 3.65581 -4.52466 0
M  V30 1923 N 188.382 3.85989 -3.8277 0
M  V30 1924 H 192.184 1.7471 -2.36334 0
M  V30 1925 H 189.698 0.882622 -1.36321 0
M  V30 1926 H 191.695 3.96489 -1.2885 0
M  V30 1927 H 190.355 3.22547 -0.373263 0
M  V30 1928 H 191.366 3.20221 -4.07037 0
M  V30 1929 H 188.043 3.86591 -1.57651 0
M  V30 1930 H 189.433 3.69108 -5.61435 0
M  V30 1931 N 192.153 1.28127 0.917671 0
M  V30 1932 C 193.4 1.15052 1.66641 0
M  V30 1933 C 193.728 -0.301677 1.92146 0
M  V30 1934 O 192.983 -1.23622 1.51711 0
M  V30 1935 C 193.282 1.89018 3.03327 0
M  V30 1936 C 192.948 3.38832 2.97496 0
M  V30 1937 C 191.61 3.79693 2.95613 0
M  V30 1938 C 193.962 4.34378 2.88036 0
M  V30 1939 C 191.29 5.14447 2.82066 0
M  V30 1940 C 193.642 5.69201 2.7603 0
M  V30 1941 C 192.306 6.09343 2.72502 0
M  V30 1942 H 191.576 0.421006 0.609783 0
M  V30 1943 H 194.223 1.58855 1.06945 0
M  V30 1944 H 192.528 1.37752 3.66785 0
M  V30 1945 H 194.225 1.76321 3.60156 0
M  V30 1946 H 190.815 3.06342 2.99754 0
M  V30 1947 H 194.999 4.03775 2.88581 0
M  V30 1948 H 190.255 5.44681 2.77728 0
M  V30 1949 H 194.429 6.42901 2.67678 0
M  V30 1950 H 192.056 7.13712 2.61762 0
M  V30 1951 N 193.631 -1.12557 1.10312 0
M  V30 1952 C 194.594 -2.16434 0.75424 0
M  V30 1953 C 195.594 -1.59278 -0.220685 0
M  V30 1954 O 196.784 -1.742 0.00230591 0
M  V30 1955 C 193.916 -3.40699 0.116987 0
M  V30 1956 H 195.109 -2.48811 1.67431 0
M  V30 1957 H 192.662 -1.27542 0.903475 0
M  V30 1958 H 193.397 -3.13921 -0.813877 0
M  V30 1959 H 193.182 -3.83459 0.818613 0
M  V30 1960 H 194.672 -4.17451 -0.111387 0
M  V30 1961 N 195.109 -0.891671 -1.2995 0
M  V30 1962 C 196.072 -0.36828 -2.26222 0
M  V30 1963 C 197.072 0.493014 -1.53056 0
M  V30 1964 O 198.262 0.299213 -1.71611 0
M  V30 1965 C 195.394 0.47442 -3.37583 0
M  V30 1966 H 196.587 -1.21844 -2.74033 0
M  V30 1967 H 194.14 -0.669107 -1.41254 0
M  V30 1968 H 194.875 1.34489 -2.95099 0
M  V30 1969 H 194.66 -0.142615 -3.91841 0
M  V30 1970 H 196.15 0.83218 -4.09224 0
M  V30 1971 N 196.587 1.43421 -0.653314 0
M  V30 1972 C 197.815 2.06163 -0.174491 0
M  V30 1973 C 198.23 1.48969 1.1599 0
M  V30 1974 O 197.587 0.621042 1.71608 0
M  V30 1975 C 197.638 3.61417 -0.0774865 0
M  V30 1976 O 197.359 4.16485 -1.35912 0
M  V30 1977 C 198.86 4.41235 0.427402 0
M  V30 1978 H 196.08 0.664946 -0.0899353 0
M  V30 1979 H 198.624 1.83924 -0.893988 0
M  V30 1980 H 196.779 3.82841 0.59257 0
M  V30 1981 H 197.193 5.10153 -1.21839 0
M  V30 1982 H 198.667 5.5021 0.44423 0
M  V30 1983 H 199.144 4.14268 1.45873 0
M  V30 1984 H 199.75 4.2478 -0.210167 0
M  V30 1985 N 198.065 0.39524 1.52563 0
M  V30 1986 C 199.313 -0.184678 2.01254 0
M  V30 1987 C 199.634 -1.46822 1.28329 0
M  V30 1988 O 198.904 -1.91666 0.405094 0
M  V30 1989 H 197.484 -0.0712355 0.743596 0
M  V30 1990 H 200.146 0.528293 1.87603 0
M  V30 1991 H 199.242 -0.390681 3.09645 0
M  V30 1992 N 199.544 -1.57102 0.125237 0
M  V30 1993 C 200.491 -2.15641 -0.822655 0
M  V30 1994 C 201.461 -1.08313 -1.25927 0
M  V30 1995 O 202.646 -1.36251 -1.33567 0
M  V30 1996 C 199.786 -2.76504 -2.06494 0
M  V30 1997 C 198.899 -3.98158 -1.67612 0
M  V30 1998 C 198.034 -4.47088 -2.86854 0
M  V30 1999 C 197.073 -5.6126 -2.44242 0
M  V30 2000 N 196.21 -6.04905 -3.56419 0
M  V30 2001 H 201.05 -2.96313 -0.316625 0
M  V30 2002 H 198.587 -1.46388 -0.144588 0
M  V30 2003 H 200.545 -3.09925 -2.79289 0
M  V30 2004 H 199.175 -1.98512 -2.54545 0
M  V30 2005 H 198.227 -3.70858 -0.846661 0
M  V30 2006 H 199.539 -4.80934 -1.32301 0
M  V30 2007 H 198.693 -4.82451 -3.67867 0
M  V30 2008 H 197.432 -3.63275 -3.25396 0
M  V30 2009 H 196.437 -5.25495 -1.61663 0
M  V30 2010 H 197.662 -6.46843 -2.0681 0
M  V30 2011 H 195.608 -5.24032 -3.94623 0
M  V30 2012 H 195.525 -6.82552 -3.25051 0
M  V30 2013 H 196.793 -6.44907 -4.37853 0
M  V30 2014 N 201.022 0.148545 -1.56898 0
M  V30 2015 C 202.433 0.708766 -1.72723 0
M  V30 2016 C 202.784 1.81734 -0.739395 0
M  V30 2017 O 201.909 2.16194 0.0943169 0
M  V30 2018 C 202.504 1.29245 -3.13179 0
M  V30 2019 C 201.063 1.79925 -3.30611 0
M  V30 2020 C 200.21 0.687111 -2.68652 0
M  V30 2021 H 203.161 -0.0771063 -1.58513 0
M  V30 2022 H 203.182 2.16224 -3.13093 0
M  V30 2023 H 202.694 0.485382 -3.85053 0
M  V30 2024 H 200.795 2.63203 -2.63732 0
M  V30 2025 H 200.908 1.92903 -4.38549 0
M  V30 2026 H 199.272 1.11335 -2.29078 0
M  V30 2027 H 200.055 -0.108483 -3.43129 0
M  V30 2028 N 202.5 1.5196 0.417844 0
M  V30 2029 C 203.43 1.77634 1.51554 0
M  V30 2030 C 204.411 0.626918 1.58126 0
M  V30 2031 O 205.596 0.871632 1.7354 0
M  V30 2032 C 202.726 1.91911 2.8946 0
M  V30 2033 C 201.68 3.07463 2.97743 0
M  V30 2034 C 201.006 3.06951 4.37819 0
M  V30 2035 C 202.306 4.47082 2.70027 0
M  V30 2036 H 204 2.6955 1.3032 0
M  V30 2037 H 201.546 1.29706 0.625492 0
M  V30 2038 H 203.499 2.08455 3.6623 0
M  V30 2039 H 202.223 0.966598 3.11969 0
M  V30 2040 H 200.882 2.90656 2.23416 0
M  V30 2041 H 200.53 2.09438 4.57323 0
M  V30 2042 H 200.23 3.84556 4.44286 0
M  V30 2043 H 201.754 3.25613 5.16535 0
M  V30 2044 H 203.168 4.6414 3.36522 0
M  V30 2045 H 201.565 5.2654 2.87881 0
M  V30 2046 H 202.635 4.55777 1.65514 0
M  V30 2047 N 203.978 -0.674533 1.42435 0
M  V30 2048 C 205.225 -1.43459 1.42919 0
M  V30 2049 C 205.553 -1.94446 0.0457312 0
M  V30 2050 O 204.808 -1.7132 -0.94593 0
M  V30 2051 C 205.107 -2.64767 2.40069 0
M  V30 2052 C 204.773 -2.3232 3.86443 0
M  V30 2053 C 203.435 -2.23182 4.26314 0
M  V30 2054 C 205.787 -2.05977 4.78773 0
M  V30 2055 C 203.115 -1.85827 5.56494 0
M  V30 2056 C 205.467 -1.70125 6.09295 0
M  V30 2057 C 204.131 -1.59498 6.48164 0
M  V30 2058 H 203.401 -0.524952 0.522978 0
M  V30 2059 H 206.048 -0.769097 1.75377 0
M  V30 2060 H 204.353 -3.36349 2.00939 0
M  V30 2061 H 206.05 -3.22949 2.37707 0
M  V30 2062 H 202.64 -2.40334 3.54877 0
M  V30 2063 H 206.824 -2.11969 4.48757 0
M  V30 2064 H 202.08 -1.76168 5.8547 0
M  V30 2065 H 206.254 -1.48767 6.80324 0
M  V30 2066 H 203.881 -1.30322 7.48946 0
M  V30 2067 N 205.456 -1.28612 -0.910864 0
M  V30 2068 C 206.681 -1.1891 -1.69927 0
M  V30 2069 C 207.106 0.248372 -1.86453 0
M  V30 2070 O 206.464 1.17961 -1.37676 0
M  V30 2071 C 206.512 -1.89578 -3.06745 0
M  V30 2072 O 205.616 -1.20521 -3.94396 0
M  V30 2073 H 204.957 -0.412632 -0.520222 0
M  V30 2074 H 207.487 -1.69985 -1.1387 0
M  V30 2075 H 207.497 -1.97597 -3.56958 0
M  V30 2076 H 206.172 -2.94136 -2.94035 0
M  V30 2077 H 204.749 -1.20684 -3.52831 0
M  V30 2078 N 206.934 1.1197 -1.10907 0
M  V30 2079 C 208.159 1.87942 -0.877064 0
M  V30 2080 C 208.584 1.79341 0.567314 0
M  V30 2081 O 207.942 1.15184 1.40009 0
M  V30 2082 C 207.99 3.34926 -1.33629 0
M  V30 2083 O 207.094 4.09303 -0.504447 0
M  V30 2084 H 206.435 0.583785 -0.316371 0
M  V30 2085 H 208.965 1.4157 -1.47712 0
M  V30 2086 H 208.975 3.8577 -1.32837 0
M  V30 2087 H 207.65 3.40504 -2.3881 0
M  V30 2088 H 206.227 3.68393 -0.577993 0
M  V30 2089 N 208.412 0.89855 1.29475 0
M  V30 2090 C 209.362 0.346767 2.25348 0
M  V30 2091 C 210.346 -0.532509 1.51833 0
M  V30 2092 O 211.538 -0.374714 1.72988 0
M  V30 2093 C 208.667 -0.425681 3.40651 0
M  V30 2094 C 207.753 0.46845 4.21505 0
M  V30 2095 N 208.144 1.57514 4.80648 0
M  V30 2096 C 206.442 0.26603 4.45206 0
M  V30 2097 C 207.143 2.12889 5.41344 0
M  V30 2098 N 206.119 1.42208 5.24669 0
M  V30 2099 H 209.921 1.19219 2.68634 0
M  V30 2100 H 207.435 0.749473 1.44072 0
M  V30 2101 H 209.432 -0.837716 4.08397 0
M  V30 2102 H 208.092 -1.26838 2.98902 0
M  V30 2103 H 209.103 1.95789 4.79465 0
M  V30 2104 H 205.78 -0.538394 4.14014 0
M  V30 2105 H 207.17 3.05901 5.98226 0
M  V30 2106 N 209.89 -1.43072 0.660911 0
M  V30 2107 C 210.823 -2.28074 -0.0758862 0
M  V30 2108 C 211.801 -1.40271 -0.822362 0
M  V30 2109 O 212.985 -1.69713 -0.820352 0
M  V30 2110 C 210.112 -3.19843 -1.11437 0
M  V30 2111 C 209.158 -4.23957 -0.465069 0
M  V30 2112 S 209.991 -5.29978 0.767078 0
M  V30 2113 C 211.147 -6.25314 -0.270682 0
M  V30 2114 H 211.38 -2.90216 0.645139 0
M  V30 2115 H 208.913 -1.47697 0.449995 0
M  V30 2116 H 210.871 -3.73257 -1.70849 0
M  V30 2117 H 209.532 -2.56863 -1.80776 0
M  V30 2118 H 208.725 -4.88299 -1.24819 0
M  V30 2119 H 208.327 -3.73959 0.0551242 0
M  V30 2120 H 210.619 -6.67932 -1.13459 0
M  V30 2121 H 211.562 -7.07293 0.337916 0
M  V30 2122 H 211.97 -5.61195 -0.609937 0
M  V30 2123 N 211.368 -0.403325 -1.52352 0
M  V30 2124 C 212.617 0.175668 -2.00934 0
M  V30 2125 C 212.93 1.46718 -1.29356 0
M  V30 2126 O 214.136 2.12708 -1.68724 0
M  V30 2127 C 212.592 0.363612 -3.58058 0
M  V30 2128 C 212.2 -0.915472 -4.38547 0
M  V30 2129 C 213.944 0.89821 -4.14888 0
M  V30 2130 C 211.851 -0.695035 -5.87302 0
M  V30 2131 H 210.781 0.0694234 -0.750797 0
M  V30 2132 H 213.432 -0.527879 -1.75743 0
M  V30 2133 H 211.814 1.12935 -3.79555 0
M  V30 2134 H 212.988 -1.68691 -4.28812 0
M  V30 2135 H 211.303 -1.37606 -3.93006 0
M  V30 2136 H 213.9 1.07907 -5.23699 0
M  V30 2137 H 214.243 1.87126 -3.71873 0
M  V30 2138 H 214.776 0.191681 -3.97338 0
M  V30 2139 H 211.515 -1.63948 -6.34666 0
M  V30 2140 H 211.035 0.0372116 -5.99788 0
M  V30 2141 H 212.714 -0.33497 -6.46132 0
M  V30 2142 N 212.846 1.57033 -0.133567 0
M  V30 2143 C 214.123 1.87256 0.56522 0
M  V30 2144 C 214.503 1.03726 1.83859 0
M  V30 2145 O 213.851 0.120247 2.28183 0
M  V30 2146 C 214.061 3.3865 0.843636 0
M  V30 2147 C 215.409 4.07574 1.19032 0
M  V30 2148 O 216.433 3.43752 0.933429 0
M  V30 2149 O 215.292 5.20259 1.67312 0
M  V30 2150 H 212.386 0.775678 0.286796 0
M  V30 2151 H 214.932 1.68855 -0.169168 0
M  V30 2152 H 213.704 3.91257 -0.0581149 0
M  V30 2153 H 213.327 3.62532 1.63268 0
M  V30 2154 N 214.325 -0.140222 1.56975 0
M  V30 2155 C 215.255 -1.17456 2.01808 0
M  V30 2156 C 216.236 -1.44415 0.898794 0
M  V30 2157 O 217.421 -1.5522 1.16707 0
M  V30 2158 C 214.551 -2.50607 2.40444 0
M  V30 2159 C 213.505 -2.38155 3.55621 0
M  V30 2160 C 212.831 -3.76078 3.80091 0
M  V30 2161 C 214.131 -1.85991 4.88062 0
M  V30 2162 H 215.825 -0.801743 2.88466 0
M  V30 2163 H 213.371 -0.38422 1.38779 0
M  V30 2164 H 215.324 -3.23197 2.7041 0
M  V30 2165 H 214.048 -2.89737 1.50732 0
M  V30 2166 H 212.707 -1.68016 3.25832 0
M  V30 2167 H 212.355 -4.12656 2.87618 0
M  V30 2168 H 212.055 -3.68606 4.57606 0
M  V30 2169 H 213.579 -4.50206 4.12488 0
M  V30 2170 H 214.993 -2.4838 5.16701 0
M  V30 2171 H 213.39 -1.89393 5.6943 0
M  V30 2172 H 214.46 -0.816023 4.77984 0
M  V30 2173 N 215.803 -1.52179 -0.40978 0
M  V30 2174 C 217.028 -1.70347 -1.18308 0
M  V30 2175 C 217.453 -0.411887 -1.83535 0
M  V30 2176 O 216.811 0.630587 -1.6998 0
M  V30 2177 C 216.859 -2.83977 -2.22238 0
M  V30 2178 O 215.963 -2.495 -3.28365 0
M  V30 2179 H 215.304 -0.567103 -0.345384 0
M  V30 2180 H 217.834 -1.98879 -0.480445 0
M  V30 2181 H 217.844 -3.0887 -2.66577 0
M  V30 2182 H 216.519 -3.77685 -1.74146 0
M  V30 2183 H 215.096 -2.35277 -2.89308 0
M  V30 2184 N 217.281 0.66697 -1.42791 0
M  V30 2185 C 218.191 1.80962 -1.49299 0
M  V30 2186 C 219.207 1.69775 -0.381108 0
M  V30 2187 O 220.383 1.91188 -0.633188 0
M  V30 2188 C 217.448 3.17156 -1.40045 0
M  V30 2189 C 216.509 3.40242 -2.6179 0
M  V30 2190 C 215.742 4.69939 -2.52969 0
M  V30 2191 O 215.965 5.48372 -1.56985 0
M  V30 2192 O 214.899 4.94441 -3.43237 0
M  V30 2193 H 218.725 1.78427 -2.45759 0
M  V30 2194 H 216.31 0.823713 -1.24641 0
M  V30 2195 H 218.192 3.98413 -1.37276 0
M  V30 2196 H 216.867 3.20312 -0.467138 0
M  V30 2197 H 215.774 2.58802 -2.70134 0
M  V30 2198 H 217.107 3.41923 -3.54047 0
M  V30 2199 N 218.759 1.29093 0.90403 0
M  V30 2200 C 219.669 1.15727 2.0407 0
M  V30 2201 C 220.685 0.0815308 1.73809 0
M  V30 2202 O 221.861 0.292749 1.99261 0
M  V30 2203 C 218.926 0.830424 3.36608 0
M  V30 2204 C 217.987 1.98955 3.80415 0
M  V30 2205 C 217.22 1.6782 5.06628 0
M  V30 2206 O 217.443 0.597105 5.67266 0
M  V30 2207 O 216.377 2.52486 5.46383 0
M  V30 2208 H 220.203 2.11171 2.18267 0
M  V30 2209 H 217.788 1.08504 1.027 0
M  V30 2210 H 219.67 0.662521 4.16159 0
M  V30 2211 H 218.345 -0.0942678 3.23563 0
M  V30 2212 H 217.252 2.21267 3.01648 0
M  V30 2213 H 218.585 2.89529 3.98037 0
M  V30 2214 N 220.237 -1.11381 1.11499 0
M  V30 2215 C 221.462 -1.87475 0.887019 0
M  V30 2216 C 221.887 -1.79639 -0.557796 0
M  V30 2217 O 221.245 -1.15924 -1.39396 0
M  V30 2218 C 221.293 -3.34213 1.35403 0
M  V30 2219 O 220.397 -4.0903 0.526146 0
M  V30 2220 H 219.738 -0.582099 0.319463 0
M  V30 2221 H 222.268 -1.40785 1.48461 0
M  V30 2222 H 222.278 -3.8506 1.34881 0
M  V30 2223 H 220.953 -3.39232 2.40612 0
M  V30 2224 H 219.53 -3.68082 0.597522 0
M  V30 2225 N 221.715 -0.905404 -1.28997 0
M  V30 2226 C 222.645 -0.404212 -2.29975 0
M  V30 2227 C 223.626 0.523784 -1.61835 0
M  V30 2228 O 224.811 0.433298 -1.89304 0
M  V30 2229 C 221.941 0.364042 -3.45387 0
M  V30 2230 C 220.895 -0.474048 -4.25367 0
M  V30 2231 C 220.221 0.422045 -5.33032 0
M  V30 2232 C 221.521 -1.72696 -4.92923 0
M  V30 2233 H 223.215 -1.24807 -2.72146 0
M  V30 2234 H 220.761 -0.601585 -1.30832 0
M  V30 2235 H 222.714 0.725447 -4.15109 0
M  V30 2236 H 221.438 1.24174 -3.02074 0
M  V30 2237 H 220.097 -0.81786 -3.57361 0
M  V30 2238 H 219.745 1.29804 -4.85963 0
M  V30 2239 H 219.445 -0.135057 -5.87445 0
M  V30 2240 H 220.969 0.779517 -6.05604 0
M  V30 2241 H 222.383 -1.43495 -5.55051 0
M  V30 2242 H 220.78 -2.22582 -5.57295 0
M  V30 2243 H 221.85 -2.45964 -4.17887 0
M  V30 2244 N 223.193 1.4272 -0.668489 0
M  V30 2245 C 224.125 2.2914 0.052613 0
M  V30 2246 C 225.138 1.43339 0.771857 0
M  V30 2247 O 226.327 1.67123 0.627067 0
M  V30 2248 C 223.427 3.20618 1.09804 0
M  V30 2249 C 222.6 4.35039 0.45389 0
M  V30 2250 C 221.659 5.07282 1.39825 0
M  V30 2251 O 220.685 5.62024 0.900978 0
M  V30 2252 N 221.887 5.12206 2.73176 0
M  V30 2253 H 224.652 2.91668 -0.689209 0
M  V30 2254 H 222.213 1.53577 -0.512422 0
M  V30 2255 H 224.205 3.65815 1.73094 0
M  V30 2256 H 222.775 2.59585 1.74167 0
M  V30 2257 H 221.995 3.92567 -0.358396 0
M  V30 2258 H 223.283 5.088 0.00486972 0
M  V30 2259 H 222.681 4.6913 3.16122 0
M  V30 2260 H 221.238 5.61069 3.31729 0
M  V30 2261 N 224.671 0.411399 1.52136 0
M  V30 2262 C 225.581 -0.419774 2.30814 0
M  V30 2263 C 226.597 -1.0515 1.38634 0
M  V30 2264 O 227.773 -1.05252 1.71709 0
M  V30 2265 C 224.838 -1.52019 3.11594 0
M  V30 2266 C 223.899 -0.91129 4.19516 0
M  V30 2267 C 223.132 -1.95927 4.96436 0
M  V30 2268 O 223.355 -3.17775 4.73683 0
M  V30 2269 O 222.289 -1.56423 5.81219 0
M  V30 2270 H 226.115 0.221805 3.02889 0
M  V30 2271 H 223.7 0.174547 1.48377 0
M  V30 2272 H 225.582 -2.15898 3.61892 0
M  V30 2273 H 224.257 -2.14633 2.42311 0
M  V30 2274 H 223.164 -0.235157 3.7336 0
M  V30 2275 H 224.497 -0.32904 4.91099 0
M  V30 2276 N 226.149 -1.5696 0.141893 0
M  V30 2277 C 227.097 -2.17784 -0.816874 0
M  V30 2278 C 228.091 -1.1334 -1.25899 0
M  V30 2279 O 229.297 -1.316 -1.22806 0
M  V30 2280 H 225.672 -0.697278 -0.281615 0
M  V30 2281 H 227.643 -2.97087 -0.279621 0
M  V30 2282 C 226.392 -2.80983 -2.04802 0
M  V30 2283 H 225.715 -3.61062 -1.7168 0
M  V30 2284 H 227.155 -3.2705 -2.69841 0
M  V30 2285 C 225.614 -1.79228 -2.8527 0
M  V30 2286 O 226.144 -1.25962 -3.8144 0
M  V30 2287 N 224.35 -1.48647 -2.49704 0
M  V30 2288 H 223.897 -1.92155 -1.71564 0
M  V30 2289 H 223.855 -0.808115 -3.03837 0
M  V30 2290 N 227.627 0.131896 -1.57047 0
M  V30 2291 C 228.876 0.84044 -1.83356 0
M  V30 2292 C 229.189 1.81646 -0.725535 0
M  V30 2293 O 230.395 2.57025 -0.874659 0
M  V30 2294 C 228.851 1.54528 -3.25037 0
M  V30 2295 C 228.459 0.610902 -4.43815 0
M  V30 2296 C 230.203 2.23972 -3.60606 0
M  V30 2297 C 228.11 1.31823 -5.76521 0
M  V30 2298 H 227.04 0.317599 -0.683847 0
M  V30 2299 H 229.691 0.0931561 -1.83263 0
M  V30 2300 H 228.073 2.33873 -3.19561 0
M  V30 2301 H 229.247 -0.148407 -4.60561 0
M  V30 2302 H 227.562 0.0241016 -4.16393 0
M  V30 2303 H 230.159 2.77558 -4.57018 0
M  V30 2304 H 230.502 3.01173 -2.87403 0
M  V30 2305 H 231.035 1.51529 -3.6781 0
M  V30 2306 H 227.774 0.587771 -6.52859 0
M  V30 2307 H 227.294 2.04987 -5.63685 0
M  V30 2308 H 228.973 1.855 -6.19838 0
M  V30 2309 N 229.106 1.52395 0.401703 0
M  V30 2310 C 230.016 1.7917 1.51444 0
M  V30 2311 C 231.032 0.677691 1.6026 0
M  V30 2312 O 232.208 0.963909 1.76835 0
M  V30 2313 C 229.273 1.94347 2.87107 0
M  V30 2314 C 228.334 3.18257 2.88116 0
M  V30 2315 C 227.567 3.32701 4.17308 0
M  V30 2316 O 227.79 2.52238 5.11598 0
M  V30 2317 O 226.724 4.25891 4.25324 0
M  V30 2318 H 230.55 2.73633 1.31752 0
M  V30 2319 H 228.135 1.3733 0.588296 0
M  V30 2320 H 230.017 2.06109 3.67555 0
M  V30 2321 H 228.692 1.03073 3.06851 0
M  V30 2322 H 227.599 3.11947 2.06494 0
M  V30 2323 H 228.932 4.09336 2.73322 0
M  V30 2324 N 230.584 -0.659388 1.43143 0
M  V30 2325 C 231.833 -1.41518 1.43721 0
M  V30 2326 C 232.146 -1.95499 0.0628176 0
M  V30 2327 O 233.352 -2.71446 -0.0539683 0
M  V30 2328 C 231.808 -2.5608 2.52885 0
M  V30 2329 C 231.416 -2.08733 3.96402 0
M  V30 2330 C 233.16 -3.3349 2.62649 0
M  V30 2331 C 231.067 -3.20469 4.97045 0
M  V30 2332 H 229.997 -0.531705 0.534608 0
M  V30 2333 H 232.648 -0.712343 1.69109 0
M  V30 2334 H 231.03 -3.28805 2.20688 0
M  V30 2335 H 232.204 -1.43059 4.3803 0
M  V30 2336 H 230.519 -1.44219 3.90627 0
M  V30 2337 H 233.116 -4.16734 3.35017 0
M  V30 2338 H 233.459 -3.8111 1.67513 0
M  V30 2339 H 233.992 -2.67842 2.94118 0
M  V30 2340 H 230.731 -2.77824 5.93712 0
M  V30 2341 H 230.251 -3.84874 4.60034 0
M  V30 2342 H 231.93 -3.85698 5.19467 0
M  V30 2343 N 232.062 -1.29571 -0.897171 0
M  V30 2344 C 233.302 -1.18959 -1.66217 0
M  V30 2345 C 233.666 0.254271 -1.90309 0
M  V30 2346 O 234.867 0.483407 -2.64417 0
M  V30 2347 C 233.138 -1.98302 -2.9734 0
M  V30 2348 S 234.697 -2.04253 -3.88364 0
M  V30 2349 H 231.515 -0.424137 -0.570639 0
M  V30 2350 H 234.117 -1.6389 -1.06585 0
M  V30 2351 H 232.821 -3.02342 -2.77521 0
M  V30 2352 H 232.352 -1.53986 -3.62011 0
M  V30 2353 H 234.367 -1.16105 -4.82425 0
M  V30 2354 N 233.54 1.10788 -1.12088 0
M  V30 2355 C 234.765 1.87002 -0.896949 0
M  V30 2356 C 235.19 1.79933 0.548261 0
M  V30 2357 O 234.548 1.16662 1.38779 0
M  V30 2358 C 234.596 3.3349 -1.37174 0
M  V30 2359 O 233.7 4.08745 -0.547831 0
M  V30 2360 H 233.041 0.580397 -0.322545 0
M  V30 2361 H 235.571 1.39996 -1.49206 0
M  V30 2362 H 235.581 3.84339 -1.36922 0
M  V30 2363 H 234.256 3.37951 -2.42408 0
M  V30 2364 H 232.833 3.6776 -0.617034 0
M  V30 2365 N 235.018 0.912232 1.28515 0
M  V30 2366 C 235.965 0.397954 2.27343 0
M  V30 2367 C 236.935 -0.526766 1.57526 0
M  V30 2368 O 238.12 -0.449292 1.85435 0
M  V30 2369 C 235.26 -0.357263 3.43246 0
M  V30 2370 C 234.373 0.599788 4.27816 0
M  V30 2371 C 233.508 -0.173725 5.30916 0
M  V30 2372 C 232.547 0.777039 6.07148 0
M  V30 2373 N 231.684 0.0371398 7.0209 0
M  V30 2374 H 236.524 1.24577 2.70711 0
M  V30 2375 H 234.061 0.625612 1.33133 0
M  V30 2376 H 236.019 -0.8113 4.09236 0
M  V30 2377 H 234.649 -1.16943 3.00872 0
M  V30 2378 H 233.701 1.17235 3.61884 0
M  V30 2379 H 235.013 1.32704 4.80823 0
M  V30 2380 H 234.167 -0.688394 6.02782 0
M  V30 2381 H 232.906 -0.934041 4.78672 0
M  V30 2382 H 231.911 1.3031 5.34134 0
M  V30 2383 H 233.136 1.53689 6.61481 0
M  V30 2384 H 231.082 -0.705213 6.52198 0
M  V30 2385 H 230.999 0.704249 7.52713 0
M  V30 2386 H 232.267 -0.457383 7.78157 0
M  V30 2387 N 236.496 -1.42363 0.676048 0
M  V30 2388 C 237.726 -2.05561 0.206967 0
M  V30 2389 C 238.134 -1.50887 -1.14148 0
M  V30 2390 O 237.477 -0.643933 -1.72044 0
M  V30 2391 C 237.539 -3.5944 0.0659508 0
M  V30 2392 C 237.203 -4.36812 1.34331 0
M  V30 2393 C 238.2 -4.67383 2.27704 0
M  V30 2394 C 235.885 -4.76429 1.59125 0
M  V30 2395 C 237.879 -5.36509 3.44147 0
M  V30 2396 C 235.566 -5.45294 2.75857 0
M  V30 2397 C 236.564 -5.75259 3.68193 0
M  V30 2398 O 236.252 -6.42712 4.82883 0
M  V30 2399 H 235.984 -0.668872 0.0979084 0
M  V30 2400 H 238.538 -1.83467 0.923531 0
M  V30 2401 H 236.768 -3.80197 -0.706204 0
M  V30 2402 H 238.457 -4.0427 -0.363418 0
M  V30 2403 H 239.223 -4.37275 2.09799 0
M  V30 2404 H 235.102 -4.52498 0.881258 0
M  V30 2405 H 238.646 -5.59814 4.16238 0
M  V30 2406 H 234.543 -5.7482 2.93688 0
M  V30 2407 H 235.311 -6.61204 4.82444 0
M  V30 2408 N 237.974 -0.419461 -1.51915 0
M  V30 2409 C 238.904 0.391813 -2.30189 0
M  V30 2410 C 239.885 1.03699 -1.34836 0
M  V30 2411 O 241.07 1.04403 -1.63748 0
M  V30 2412 C 238.2 1.50312 -3.13087 0
M  V30 2413 C 237.154 0.9824 -4.16573 0
M  V30 2414 C 236.48 2.18809 -4.8788 0
M  V30 2415 C 237.78 0.0292356 -5.22292 0
M  V30 2416 H 239.474 -0.26135 -2.98257 0
M  V30 2417 H 237.02 -0.127134 -1.43438 0
M  V30 2418 H 238.973 2.07773 -3.66617 0
M  V30 2419 H 237.697 2.18431 -2.42807 0
M  V30 2420 H 236.356 0.430119 -3.64068 0
M  V30 2421 H 236.004 2.85507 -4.14119 0
M  V30 2422 H 235.704 1.84615 -5.57845 0
M  V30 2423 H 237.228 2.76858 -5.44226 0
M  V30 2424 H 238.642 0.512976 -5.71 0
M  V30 2425 H 237.039 -0.2244 -5.9968 0
M  V30 2426 H 238.109 -0.912931 -4.76228 0
M  V30 2427 N 239.452 1.56882 -0.150215 0
M  V30 2428 C 240.362 2.20494 0.801222 0
M  V30 2429 C 241.378 1.19019 1.26927 0
M  V30 2430 O 242.554 1.51607 1.32579 0
M  V30 2431 C 239.619 2.81659 2.02161 0
M  V30 2432 C 238.68 3.9827 1.60249 0
M  V30 2433 C 237.913 4.56508 2.7647 0
M  V30 2434 O 238.136 4.13627 3.92771 0
M  V30 2435 O 237.07 5.46719 2.51757 0
M  V30 2436 H 240.896 3.02315 0.289717 0
M  V30 2437 H 238.481 1.49202 0.0769684 0
M  V30 2438 H 240.363 3.20522 2.73576 0
M  V30 2439 H 239.038 2.02849 2.52258 0
M  V30 2440 H 237.945 3.64117 0.858477 0
M  V30 2441 H 239.278 4.78609 1.14864 0
M  V30 2442 N 240.93 -0.123565 1.57115 0
M  V30 2443 C 242.346 -0.476961 1.52306 0
M  V30 2444 C 242.546 -1.82109 0.86248 0
M  V30 2445 O 241.602 -2.48586 0.442884 0
M  V30 2446 C 242.915 -0.465661 2.97073 0
M  V30 2447 C 244.463 -0.549534 3.08138 0
M  V30 2448 C 244.938 -0.568669 4.54456 0
M  V30 2449 N 246.429 -0.630237 4.58892 0
M  V30 2450 C 247.164 -0.666415 5.69514 0
M  V30 2451 N 246.66 -0.660514 6.89644 0
M  V30 2452 N 248.453 -0.709077 5.5761 0
M  V30 2453 H 240.604 0.757198 1.98445 0
M  V30 2454 H 242.867 0.278808 0.906074 0
M  V30 2455 H 242.573 0.454232 3.48754 0
M  V30 2456 H 242.447 -1.29513 3.54269 0
M  V30 2457 H 244.834 -1.45985 2.56461 0
M  V30 2458 H 244.915 0.307532 2.53945 0
M  V30 2459 H 244.559 0.337581 5.06777 0
M  V30 2460 H 244.489 -1.44256 5.06456 0
M  V30 2461 H 246.98 -0.641146 3.72421 0
M  V30 2462 H 247.293 -0.690616 7.69708 0
M  V30 2463 H 245.638 -0.628012 6.92157 0
M  V30 2464 H 248.829 -0.711019 4.62668 0
M  V30 2465 H 249.002 -0.733804 6.43832 0
M  V30 2466 N 242.408 -1.52605 -0.393616 0
M  V30 2467 C 243.341 -1.71798 -1.50202 0
M  V30 2468 C 244.319 -0.565743 -1.52441 0
M  V30 2469 O 245.503 -0.794987 -1.70916 0
M  V30 2470 C 242.63 -1.7714 -2.88685 0
M  V30 2471 C 241.676 -2.98845 -3.04292 0
M  V30 2472 S 242.509 -4.58909 -2.75976 0
M  V30 2473 C 243.665 -4.6706 -4.1666 0
M  V30 2474 H 243.898 -2.65542 -1.33696 0
M  V30 2475 H 241.431 -1.42839 -0.586195 0
M  V30 2476 H 243.389 -1.80903 -3.68489 0
M  V30 2477 H 242.05 -0.844969 -3.02521 0
M  V30 2478 H 241.243 -2.99111 -4.05646 0
M  V30 2479 H 240.845 -2.9305 -2.32374 0
M  V30 2480 H 243.137 -4.45391 -5.10523 0
M  V30 2481 H 244.08 -5.6905 -4.21412 0
M  V30 2482 H 244.488 -3.95944 -4.02354 0
M  V30 2483 N 243.887 0.651787 -1.4349 0
M  V30 2484 C 245.112 1.44434 -1.48841 0
M  V30 2485 C 245.537 1.8779 -0.107955 0
M  V30 2486 O 244.895 1.57464 0.898602 0
M  V30 2487 C 244.943 2.65458 -2.44059 0
M  V30 2488 O 244.047 3.64566 -1.92784 0
M  V30 2489 H 243.388 0.433005 -0.503391 0
M  V30 2490 H 245.918 0.797451 -1.88419 0
M  V30 2491 H 245.928 3.13255 -2.6141 0
M  V30 2492 H 244.603 2.33244 -3.4434 0
M  V30 2493 H 243.18 3.23716 -1.851 0
M  V30 2494 N 245.365 1.30045 0.890287 0
M  V30 2495 C 246.312 1.15976 1.99545 0
M  V30 2496 C 247.282 0.0506202 1.66023 0
M  V30 2497 O 248.467 0.219847 1.89529 0
M  V30 2498 C 245.607 0.852054 3.34416 0
M  V30 2499 C 244.72 2.04255 3.80662 0
M  V30 2500 C 243.855 1.6734 5.04154 0
M  V30 2501 C 242.894 2.82916 5.42794 0
M  V30 2502 N 242.031 2.46333 6.57468 0
M  V30 2503 H 246.871 2.10524 2.10911 0
M  V30 2504 H 244.408 1.04749 1.03276 0
M  V30 2505 H 246.366 0.654296 4.12037 0
M  V30 2506 H 244.996 -0.0565502 3.2275 0
M  V30 2507 H 244.048 2.35172 2.98995 0
M  V30 2508 H 245.36 2.90826 4.05242 0
M  V30 2509 H 244.514 1.43908 5.89386 0
M  V30 2510 H 243.253 0.779308 4.81433 0
M  V30 2511 H 242.258 3.0702 4.56091 0
M  V30 2512 H 243.483 3.73004 5.6749 0
M  V30 2513 H 241.429 1.59423 6.36334 0
M  V30 2514 H 241.346 3.26436 6.81891 0
M  V30 2515 H 242.614 2.26244 7.45945 0
M  V30 2516 N 246.843 -1.10192 1.12674 0
M  V30 2517 C 248.092 -1.81573 0.8783 0
M  V30 2518 C 248.405 -1.86249 -0.597557 0
M  V30 2519 O 249.611 -2.5386 -0.962681 0
M  V30 2520 C 248.067 -3.26149 1.52167 0
M  V30 2521 C 247.675 -3.29763 3.03249 0
M  V30 2522 C 249.419 -4.0234 1.3536 0
M  V30 2523 C 247.326 -4.68815 3.60508 0
M  V30 2524 H 246.256 -0.680394 0.324931 0
M  V30 2525 H 248.907 -1.23902 1.35353 0
M  V30 2526 H 247.289 -3.83832 0.974104 0
M  V30 2527 H 248.463 -2.8189 3.6452 0
M  V30 2528 H 246.778 -2.67059 3.19481 0
M  V30 2529 H 249.375 -5.05058 1.75559 0
M  V30 2530 H 249.718 -4.15235 0.297554 0
M  V30 2531 H 250.251 -3.51079 1.87052 0
M  V30 2532 H 246.99 -4.61121 4.65884 0
M  V30 2533 H 246.51 -5.17045 3.04014 0
M  V30 2534 H 248.189 -5.37785 3.59717 0
M  V30 2535 N 248.321 -0.919034 -1.28029 0
M  V30 2536 C 249.569 -0.553838 -1.94363 0
M  V30 2537 C 249.89 0.906357 -1.72656 0
M  V30 2538 O 249.16 1.64143 -1.0693 0
M  V30 2539 H 247.74 -0.201834 -0.719216 0
M  V30 2540 H 250.402 -1.16954 -1.55909 0
M  V30 2541 H 249.498 -0.752758 -3.02886 0
M  V30 2542 N 249.799 1.42003 -0.683588 0
M  V30 2543 C 250.732 2.28166 0.039592 0
M  V30 2544 C 251.71 1.41562 0.799942 0
M  V30 2545 O 252.894 1.70997 0.793248 0
M  V30 2546 C 250.021 3.21575 1.06335 0
M  V30 2547 C 249.067 4.24643 0.397562 0
M  V30 2548 S 249.9 5.2869 -0.851296 0
M  V30 2549 C 251.056 6.25666 0.171166 0
M  V30 2550 H 251.289 2.89153 -0.691229 0
M  V30 2551 H 248.822 1.46962 -0.473435 0
M  V30 2552 H 250.78 3.75928 1.6489 0
M  V30 2553 H 249.441 2.59707 1.76667 0
M  V30 2554 H 248.634 4.90223 1.17035 0
M  V30 2555 H 248.236 3.73824 -0.114611 0
M  V30 2556 H 250.528 6.69653 1.02819 0
M  V30 2557 H 251.471 7.06666 -0.450397 0
M  V30 2558 H 251.879 5.62095 0.520578 0
M  V30 2559 N 251.277 0.427512 1.51691 0
M  V30 2560 C 252.505 -0.141191 2.06418 0
M  V30 2561 C 252.92 -1.37303 1.29589 0
M  V30 2562 O 252.277 -1.79059 0.352732 0
M  V30 2563 C 252.328 -0.473266 3.58389 0
M  V30 2564 O 252.049 0.709673 4.32314 0
M  V30 2565 C 253.55 -1.09371 4.29596 0
M  V30 2566 H 250.77 -0.0122747 0.670888 0
M  V30 2567 H 253.314 0.603764 1.95384 0
M  V30 2568 H 251.469 -1.16812 3.69369 0
M  V30 2569 H 251.883 0.42807 5.2275 0
M  V30 2570 H 253.357 -1.27613 5.37046 0
M  V30 2571 H 253.834 -2.072 3.87253 0
M  V30 2572 H 254.44 -0.43853 4.23033 0
M  V30 2573 N 252.755 -1.56801 0.158532 0
M  V30 2574 C 253.685 -2.20347 -0.772609 0
M  V30 2575 C 254.666 -1.15518 -1.24859 0
M  V30 2576 O 255.851 -1.43902 -1.30406 0
M  V30 2577 C 252.981 -2.83417 -2.00729 0
M  V30 2578 C 251.935 -3.94174 -1.66765 0
M  V30 2579 C 251.261 -4.44233 -2.97592 0
M  V30 2580 C 252.561 -5.14392 -0.905447 0
M  V30 2581 H 254.255 -2.98413 -0.242959 0
M  V30 2582 H 251.801 -1.43537 -0.115419 0
M  V30 2583 H 253.754 -3.26543 -2.6636 0
M  V30 2584 H 252.478 -2.02701 -2.56086 0
M  V30 2585 H 251.137 -3.51684 -1.03508 0
M  V30 2586 H 250.785 -3.60325 -3.50963 0
M  V30 2587 H 250.485 -5.18945 -2.75626 0
M  V30 2588 H 252.009 -4.90037 -3.64274 0
M  V30 2589 H 253.423 -5.5429 -1.46408 0
M  V30 2590 H 251.82 -5.9494 -0.7853 0
M  V30 2591 H 252.89 -4.84795 0.100668 0
M  V30 2592 N 254.233 0.115231 -1.57178 0
M  V30 2593 C 255.143 1.15994 -2.03918 0
M  V30 2594 C 256.159 1.45103 -0.960268 0
M  V30 2595 O 257.335 1.56144 -1.27204 0
M  V30 2596 C 254.4 2.46568 -2.43732 0
M  V30 2597 C 253.461 2.24822 -3.65723 0
M  V30 2598 C 252.694 3.4917 -4.03629 0
M  V30 2599 O 252.917 4.56623 -3.41835 0
M  V30 2600 O 251.851 3.39949 -4.96708 0
M  V30 2601 H 255.677 0.793019 -2.93164 0
M  V30 2602 H 253.262 0.3263 -1.45793 0
M  V30 2603 H 255.144 3.23492 -2.70057 0
M  V30 2604 H 253.819 2.82726 -1.57631 0
M  V30 2605 H 252.726 1.45744 -3.44542 0
M  V30 2606 H 254.059 1.93566 -4.52541 0
M  V30 2607 N 255.711 1.52812 0.385517 0
M  V30 2608 C 256.96 1.67249 1.12741 0
M  V30 2609 C 257.273 0.4205 1.91027 0
M  V30 2610 O 258.479 0.445064 2.67827 0
M  V30 2611 C 256.935 2.95583 2.05326 0
M  V30 2612 C 256.543 4.27974 1.32447 0
M  V30 2613 C 258.287 3.19386 2.7963 0
M  V30 2614 C 256.194 5.47412 2.23818 0
M  V30 2615 H 255.124 0.6231 0.424573 0
M  V30 2616 H 257.775 1.79309 0.389924 0
M  V30 2617 H 256.157 2.77277 2.82725 0
M  V30 2618 H 257.331 4.56844 0.602495 0
M  V30 2619 H 255.646 4.10459 0.700885 0
M  V30 2620 H 258.243 4.05801 3.48181 0
M  V30 2621 H 258.586 2.34604 3.43899 0
M  V30 2622 H 259.119 3.38274 2.09322 0
M  V30 2623 H 255.858 6.34612 1.64157 0
M  V30 2624 H 255.378 5.22849 2.93921 0
M  V30 2625 H 257.057 5.81423 2.83824 0
M  V30 2626 N 257.189 -0.644168 1.43834 0
M  V30 2627 C 258.099 -1.78563 1.52159 0
M  V30 2628 C 259.115 -1.69147 0.408069 0
M  V30 2629 O 260.291 -1.90156 0.663524 0
M  V30 2630 C 257.356 -3.14888 1.45073 0
M  V30 2631 C 256.417 -3.36034 2.6717 0
M  V30 2632 C 255.65 -4.65855 2.60413 0
M  V30 2633 O 255.873 -5.45805 1.65689 0
M  V30 2634 O 254.807 -4.88918 3.5106 0
M  V30 2635 H 258.633 -1.74494 2.48567 0
M  V30 2636 H 256.218 -0.80378 1.25935 0
M  V30 2637 H 258.1 -3.96179 1.43597 0
M  V30 2638 H 256.775 -3.19528 0.518037 0
M  V30 2639 H 255.682 -2.54472 2.74217 0
M  V30 2640 H 257.015 -3.36247 3.59442 0
M  V30 2641 N 258.668 -1.30515 -0.883378 0
M  V30 2642 C 259.598 -1.19607 -2.00541 0
M  V30 2643 C 260.579 -0.086346 -1.69881 0
M  V30 2644 O 261.764 -0.268654 -1.92333 0
M  V30 2645 C 258.894 -0.888758 -3.35736 0
M  V30 2646 C 257.848 -1.95659 -3.8066 0
M  V30 2647 C 257.174 -1.50224 -5.13164 0
M  V30 2648 C 258.474 -3.36788 -3.99213 0
M  V30 2649 H 260.168 -2.13476 -2.09925 0
M  V30 2650 H 257.714 -1.02775 -1.00863 0
M  V30 2651 H 259.667 -0.799094 -4.13754 0
M  V30 2652 H 258.391 0.0856125 -3.26488 0
M  V30 2653 H 257.05 -2.03591 -3.04871 0
M  V30 2654 H 256.698 -0.516092 -5.00345 0
M  V30 2655 H 256.398 -2.2165 -5.44192 0
M  V30 2656 H 257.922 -1.42639 -5.93706 0
M  V30 2657 H 259.336 -3.31605 -4.67665 0
M  V30 2658 H 257.733 -4.06314 -4.41621 0
M  V30 2659 H 258.803 -3.78561 -3.03017 0
M  V30 2660 N 260.146 1.09593 -1.13257 0
M  V30 2661 C 261.394 1.81375 -0.891492 0
M  V30 2662 C 261.715 1.86049 0.584009 0
M  V30 2663 O 260.985 1.34481 1.42449 0
M  V30 2664 H 259.565 0.671708 -0.326828 0
M  V30 2665 H 262.227 1.3256 -1.42877 0
M  V30 2666 H 261.323 2.84612 -1.28071 0
M  V30 2667 N 261.624 0.925811 1.2754 0
M  V30 2668 C 262.864 0.572521 1.96218 0
M  V30 2669 C 263.228 -0.869719 1.71172 0
M  V30 2670 O 264.429 -1.33119 2.33523 0
M  V30 2671 C 262.7 0.887325 3.4621 0
M  V30 2672 S 264.259 0.642266 4.34074 0
M  V30 2673 H 261.077 0.211403 0.678845 0
M  V30 2674 H 263.679 1.19384 1.54815 0
M  V30 2675 H 262.383 1.93469 3.61936 0
M  V30 2676 H 261.914 0.255123 3.92572 0
M  V30 2677 H 263.929 -0.500822 4.93666 0
M  V30 2678 N 263.102 -1.41638 0.69111 0
M  V30 2679 C 264.33 -2.05628 0.22909 0
M  V30 2680 C 264.745 -1.51992 -1.11999 0
M  V30 2681 O 264.102 -0.666322 -1.69901 0
M  V30 2682 C 264.153 -3.61084 0.173283 0
M  V30 2683 O 263.874 -4.12735 1.46907 0
M  V30 2684 C 265.375 -4.42213 -0.310266 0
M  V30 2685 H 262.595 -0.662327 0.107534 0
M  V30 2686 H 265.139 -1.81489 0.942438 0
M  V30 2687 H 263.294 -3.84278 -0.490858 0
M  V30 2688 H 263.708 -5.06743 1.35322 0
M  V30 2689 H 265.182 -5.51194 -0.298196 0
M  V30 2690 H 265.659 -4.1799 -1.34838 0
M  V30 2691 H 266.265 -4.24074 0.322716 0
M  V30 2692 N 264.58 -0.43555 -1.51462 0
M  V30 2693 C 265.828 0.131254 -2.01673 0
M  V30 2694 C 266.149 1.43368 -1.32177 0
M  V30 2695 O 265.419 1.90524 -0.455769 0
M  V30 2696 H 263.999 0.0514954 -0.745223 0
M  V30 2697 H 266.661 -0.577847 -1.86137 0
M  V30 2698 H 265.757 0.308446 -3.10572 0
M  V30 2699 N 266.058 1.56714 -0.166846 0
M  V30 2700 C 267.306 1.96358 0.478305 0
M  V30 2701 C 267.627 1.0537 1.6408 0
M  V30 2702 O 266.897 0.119154 1.95537 0
M  V30 2703 H 265.477 0.725065 0.179692 0
M  V30 2704 H 268.139 1.93329 -0.246985 0
M  V30 2705 H 267.235 3.00547 0.841292 0
M  V30 2706 N 267.536 -0.106894 1.57237 0
M  V30 2707 C 268.446 -1.14911 2.0453 0
M  V30 2708 C 269.462 -1.44592 0.96795 0
M  V30 2709 O 270.638 -1.55468 1.2803 0
M  V30 2710 C 267.703 -2.45272 2.45036 0
M  V30 2711 C 266.764 -2.22879 3.66911 0
M  V30 2712 C 265.997 -3.47024 4.05475 0
M  V30 2713 O 266.22 -4.54804 3.44252 0
M  V30 2714 O 265.154 -3.3731 4.98504 0
M  V30 2715 H 268.98 -0.777461 2.9358 0
M  V30 2716 H 266.565 -0.318563 1.45964 0
M  V30 2717 H 268.447 -3.22055 2.71769 0
M  V30 2718 H 267.122 -2.81886 1.59129 0
M  V30 2719 H 266.029 -1.43915 3.45311 0
M  V30 2720 H 267.362 -1.91163 4.53561 0
M  V30 2721 N 269.014 -1.53014 -0.377408 0
M  V30 2722 C 269.924 -1.81557 -1.48574 0
M  V30 2723 C 270.94 -0.703102 -1.59162 0
M  V30 2724 O 272.116 -0.99192 -1.75279 0
M  V30 2725 C 269.181 -1.9889 -2.83978 0
M  V30 2726 C 268.242 -3.22801 -2.83016 0
M  V30 2727 C 267.475 -3.39298 -4.11962 0
M  V30 2728 O 267.698 -2.60345 -5.0752 0
M  V30 2729 O 266.632 -4.32604 -4.18494 0
M  V30 2730 H 270.458 -2.75695 -1.27382 0
M  V30 2731 H 268.043 -1.38248 -0.566373 0
M  V30 2732 H 269.925 -2.11931 -3.6423 0
M  V30 2733 H 268.6 -1.07942 -3.05172 0
M  V30 2734 H 267.507 -3.15193 -2.01505 0
M  V30 2735 H 268.84 -4.13632 -2.66775 0
M  V30 2736 N 270.492 0.636531 -1.44174 0
M  V30 2737 C 271.769 1.39463 -1.37148 0
M  V30 2738 C 272.149 2.11082 -0.027507 0
M  V30 2739 O 271.497 2.05954 0.989716 0
M  V30 2740 C 271.707 2.36552 -2.56601 0
M  V30 2741 C 273.055 3.00048 -3.00427 0
M  V30 2742 O 274.079 2.46878 -2.56767 0
M  V30 2743 O 272.938 3.96488 -3.76111 0
M  V30 2744 H 270.032 0.623903 -0.542839 0
M  V30 2745 H 272.578 0.662039 -1.56253 0
M  V30 2746 H 271.35 1.82692 -3.46034 0
M  V30 2747 H 270.973 3.17236 -2.39681 0
M  V30 2748 N 271.97 1.30982 0.876444 0
M  V30 2749 C 273.218 1.20058 1.62575 0
M  V30 2750 C 273.539 -0.242947 1.93481 0
M  V30 2751 O 272.809 -1.1619 1.57724 0
M  V30 2752 H 271.389 0.44135 0.602677 0
M  V30 2753 H 274.051 1.64222 1.04962 0
M  V30 2754 H 273.147 1.76762 2.57219 0
M  V30 2755 N 273.449 -1.08991 1.13837 0
M  V30 2756 C 274.695 -1.81526 0.90422 0
M  V30 2757 C 275.028 -1.85706 -0.568066 0
M  V30 2758 O 274.303 -1.32855 -1.42056 0
M  V30 2759 C 274.586 -3.27447 1.49835 0
M  V30 2760 C 274.439 -3.31512 3.04006 0
M  V30 2761 C 275.758 -4.24256 1.17025 0
M  V30 2762 H 272.877 -0.659029 0.329923 0
M  V30 2763 H 275.519 -1.27644 1.40737 0
M  V30 2764 H 273.669 -3.73462 1.07044 0
M  V30 2765 H 275.341 -2.93867 3.55584 0
M  V30 2766 H 273.584 -2.70963 3.38765 0
M  V30 2767 H 274.255 -4.34329 3.40679 0
M  V30 2768 H 276.731 -3.86549 1.54009 0
M  V30 2769 H 275.607 -5.24684 1.61237 0
M  V30 2770 H 275.868 -4.42019 0.0846274 0
M  V30 2771 N 274.927 -0.932562 -1.27047 0
M  V30 2772 C 276.204 -0.49377 -1.89265 0
M  V30 2773 C 276.584 1.02833 -1.8436 0
M  V30 2774 O 275.932 1.88461 -1.29209 0
M  V30 2775 C 276.142 -1.04536 -3.32976 0
M  V30 2776 C 277.49 -1.10879 -4.09867 0
M  V30 2777 O 278.514 -0.995327 -3.42011 0
M  V30 2778 O 277.373 -1.28417 -5.31198 0
M  V30 2779 H 274.467 -0.159596 -0.811454 0
M  V30 2780 H 277.013 -1.02457 -1.3528 0
M  V30 2781 H 275.785 -2.08913 -3.30864 0
M  V30 2782 H 275.408 -0.496494 -3.94488 0
M  V30 2783 N 276.405 1.4127 -0.698611 0
M  V30 2784 C 277.353 2.32588 -0.023855 0
M  V30 2785 C 278.347 1.51128 0.765292 0
M  V30 2786 O 279.553 1.67043 0.670571 0
M  V30 2787 H 275.928 0.751918 0.0110871 0
M  V30 2788 H 277.899 2.87167 -0.811031 0
M  V30 2789 C 276.648 3.35947 0.896369 0
M  V30 2790 H 275.971 3.98684 0.298548 0
M  V30 2791 H 277.411 4.02376 1.33676 0
M  V30 2792 C 275.87 2.70076 2.01396 0
M  V30 2793 O 276.4 2.55093 3.10307 0
M  V30 2794 N 274.606 2.28724 1.79259 0
M  V30 2795 H 274.153 2.4111 0.906841 0
M  V30 2796 H 274.111 1.84986 2.54219 0
M  V30 2797 N 277.883 0.443576 1.51229 0
M  V30 2798 C 279.108 -0.121648 2.07043 0
M  V30 2799 C 279.533 -1.35156 1.30823 0
M  V30 2800 O 278.891 -1.7793 0.347934 0
M  V30 2801 C 278.939 -0.41624 3.5819 0
M  V30 2802 O 278.043 -1.50163 3.8409 0
M  V30 2803 H 277.384 0.000871367 0.663999 0
M  V30 2804 H 279.914 0.626706 1.94765 0
M  V30 2805 H 279.924 -0.664867 4.02546 0
M  V30 2806 H 278.599 0.482653 4.1309 0
M  V30 2807 H 277.176 -1.24248 3.51592 0
M  V30 2808 N 279.361 -1.56624 0.175154 0
M  V30 2809 C 280.311 -2.14747 -0.766004 0
M  V30 2810 C 281.295 -1.08275 -1.19018 0
M  V30 2811 O 282.487 -1.34388 -1.15191 0
M  V30 2812 C 279.616 -2.79478 -1.99366 0
M  V30 2813 C 278.702 -3.93114 -1.5913 0
M  V30 2814 N 279.093 -4.97752 -0.89872 0
M  V30 2815 C 277.391 -4.04345 -1.88204 0
M  V30 2816 C 278.092 -5.77473 -0.700012 0
M  V30 2817 N 277.068 -5.29207 -1.24263 0
M  V30 2818 H 280.87 -2.93015 -0.22793 0
M  V30 2819 H 278.384 -1.6238 -0.0253843 0
M  V30 2820 H 280.381 -3.19498 -2.67818 0
M  V30 2821 H 279.041 -2.02692 -2.53665 0
M  V30 2822 H 280.052 -5.14903 -0.556347 0
M  V30 2823 H 276.729 -3.38667 -2.44153 0
M  V30 2824 H 278.119 -6.71728 -0.152047 0
M  V30 2825 N 280.839 0.0985539 -1.57292 0
M  V30 2826 C 281.772 1.15082 -1.97057 0
M  V30 2827 C 282.75 1.39025 -0.843255 0
M  V30 2828 O 283.934 1.52842 -1.10325 0
M  V30 2829 C 281.061 2.50069 -2.28437 0
M  V30 2830 C 280.107 2.42428 -3.509 0
M  V30 2831 S 280.94 1.84414 -5.02744 0
M  V30 2832 C 282.096 3.21032 -5.37298 0
M  V30 2833 H 282.329 0.811815 -2.86002 0
M  V30 2834 H 279.862 0.306102 -1.51335 0
M  V30 2835 H 281.82 3.27729 -2.47192 0
M  V30 2836 H 280.481 2.8114 -1.40069 0
M  V30 2837 H 279.674 3.41911 -3.70288 0
M  V30 2838 H 279.276 1.72896 -3.31637 0
M  V30 2839 H 281.568 4.17297 -5.33731 0
M  V30 2840 H 282.511 3.06452 -6.38352 0
M  V30 2841 H 282.919 3.20404 -4.64759 0
M  V30 2842 N 282.317 1.53212 0.369288 0
M  V30 2843 C 283.594 1.59815 1.12776 0
M  V30 2844 C 283.974 0.403402 2.0721 0
M  V30 2845 O 283.322 -0.606667 2.20299 0
M  V30 2846 C 283.532 2.94664 1.87013 0
M  V30 2847 C 284.88 3.49109 2.41677 0
M  V30 2848 O 285.904 2.96669 1.97144 0
M  V30 2849 O 284.763 4.40775 3.23079 0
M  V30 2850 H 281.857 0.645376 0.517125 0
M  V30 2851 H 284.403 1.65553 0.37285 0
M  V30 2852 H 283.175 3.73061 1.18071 0
M  V30 2853 H 282.798 2.92401 2.69421 0
M  V30 2854 N 283.795 -0.628877 1.44509 0
M  V30 2855 C 284.758 -1.72263 1.51188 0
M  V30 2856 C 285.758 -1.55907 0.39367 0
M  V30 2857 O 286.948 -1.61361 0.656377 0
M  V30 2858 C 284.08 -3.11365 1.38798 0
M  V30 2859 H 285.273 -1.67714 2.4862 0
M  V30 2860 H 282.826 -0.842737 1.31634 0
M  V30 2861 H 283.561 -3.21507 0.424693 0
M  V30 2862 H 283.346 -3.24644 2.19884 0
M  V30 2863 H 284.836 -3.91075 1.46458 0
M  V30 2864 N 285.273 -1.31445 -0.869486 0
M  V30 2865 C 286.498 -1.24256 -1.66058 0
M  V30 2866 C 286.923 0.188928 -1.87149 0
M  V30 2867 O 286.281 1.13522 -1.4136 0
M  V30 2868 C 286.329 -1.9924 -3.00559 0
M  V30 2869 O 285.433 -1.33007 -3.90362 0
M  V30 2870 H 284.774 -0.428973 -0.506831 0
M  V30 2871 H 287.304 -1.73521 -1.08404 0
M  V30 2872 H 287.314 -2.08854 -3.50491 0
M  V30 2873 H 285.989 -3.03342 -2.84528 0
M  V30 2874 H 284.566 -1.31848 -3.48813 0
M  V30 2875 N 286.751 1.08385 -1.14413 0
M  V30 2876 C 287.714 2.13486 -0.834048 0
M  V30 2877 C 288.714 1.59988 0.161418 0
M  V30 2878 O 289.904 1.74071 -0.0669575 0
M  V30 2879 C 287.036 3.4003 -0.243354 0
M  V30 2880 H 288.229 2.42425 -1.7655 0
M  V30 2881 H 285.782 1.24101 -0.950189 0
M  V30 2882 H 286.517 3.16726 0.696807 0
M  V30 2883 H 286.302 3.80157 -0.960367 0
M  V30 2884 H 287.792 4.17577 -0.0436242 0
M  V30 2885 N 288.23 0.939286 1.26551 0
M  V30 2886 C 289.16 0.465044 2.28822 0
M  V30 2887 C 290.141 -0.480692 1.63167 0
M  V30 2888 O 291.326 -0.382955 1.90387 0
M  V30 2889 C 288.456 -0.27234 3.46231 0
M  V30 2890 C 287.41 0.58666 4.2396 0
M  V30 2891 C 286.736 -0.280573 5.33963 0
M  V30 2892 C 288.036 1.85704 4.88171 0
M  V30 2893 H 289.73 1.31979 2.68741 0
M  V30 2894 H 287.276 0.636061 1.29191 0
M  V30 2895 H 289.229 -0.615133 4.16886 0
M  V30 2896 H 287.953 -1.16121 3.0526 0
M  V30 2897 H 286.612 0.91232 3.55067 0
M  V30 2898 H 286.26 -1.16874 4.89234 0
M  V30 2899 H 285.96 0.29076 5.8688 0
M  V30 2900 H 287.484 -0.618678 6.07458 0
M  V30 2901 H 288.898 1.58161 5.51052 0
M  V30 2902 H 287.295 2.37279 5.51197 0
M  V30 2903 H 288.365 2.56957 4.11219 0
M  V30 2904 N 289.708 -1.40897 0.706093 0
M  V30 2905 C 290.938 -2.05075 0.250523 0
M  V30 2906 C 291.346 -1.53275 -1.10921 0
M  V30 2907 O 290.689 -0.680281 -1.7064 0
M  V30 2908 C 290.751 -3.59219 0.142178 0
M  V30 2909 C 290.415 -4.33864 1.43566 0
M  V30 2910 C 291.412 -4.62448 2.37566 0
M  V30 2911 C 289.097 -4.72946 1.69195 0
M  V30 2912 C 291.091 -5.29088 3.5545 0
M  V30 2913 C 288.778 -5.3932 2.87362 0
M  V30 2914 C 289.776 -5.6732 3.80312 0
M  V30 2915 O 289.464 -6.32325 4.96408 0
M  V30 2916 H 289.196 -0.666645 0.112074 0
M  V30 2917 H 291.75 -1.81467 0.962239 0
M  V30 2918 H 289.98 -3.81609 -0.6254 0
M  V30 2919 H 291.669 -4.0495 -0.277584 0
M  V30 2920 H 292.435 -4.32727 2.19027 0
M  V30 2921 H 288.314 -4.50527 0.977042 0
M  V30 2922 H 291.858 -5.50859 4.28018 0
M  V30 2923 H 287.755 -5.68461 3.05814 0
M  V30 2924 H 288.523 -6.50821 4.9636 0
M  V30 2925 N 291.186 -0.45159 -1.50991 0
M  V30 2926 C 292.414 0.108334 -2.06616 0
M  V30 2927 C 292.829 1.35224 -1.31757 0
M  V30 2928 O 292.186 1.78475 -0.381174 0
M  V30 2929 C 292.237 0.41619 -3.59096 0
M  V30 2930 O 291.958 -0.778361 -4.3113 0
M  V30 2931 C 293.459 1.02523 -4.31282 0
M  V30 2932 H 290.679 0.00159995 -0.670998 0
M  V30 2933 H 293.223 -0.634771 -1.94399 0
M  V30 2934 H 291.378 1.10921 -3.71181 0
M  V30 2935 H 291.792 -0.511181 -5.22003 0
M  V30 2936 H 293.266 1.19053 -5.39009 0
M  V30 2937 H 293.743 2.01013 -3.905 0
M  V30 2938 H 294.349 0.371173 -4.23677 0
M  V30 2939 N 292.664 1.56529 -0.183458 0
M  V30 2940 C 293.596 2.15747 0.773697 0
M  V30 2941 C 294.609 1.1162 1.1851 0
M  V30 2942 O 295.798 1.3876 1.12285 0
M  V30 2943 C 292.898 2.6952 2.05456 0
M  V30 2944 C 292.071 3.98429 1.8048 0
M  V30 2945 C 291.13 4.37145 2.92901 0
M  V30 2946 O 290.156 5.04791 2.6301 0
M  V30 2947 N 291.358 3.99695 4.2098 0
M  V30 2948 H 294.123 2.98505 0.26736 0
M  V30 2949 H 291.684 1.619 -0.0010878 0
M  V30 2950 H 293.676 2.92412 2.79781 0
M  V30 2951 H 292.246 1.91282 2.47245 0
M  V30 2952 H 291.466 3.8379 0.899947 0
M  V30 2953 H 292.754 4.82597 1.61175 0
M  V30 2954 H 292.152 3.4526 4.48121 0
M  V30 2955 H 290.709 4.27562 4.9197 0
M  V30 2956 N 294.142 -0.090211 1.57342 0
M  V30 2957 C 295.553 -0.644173 1.75235 0
M  V30 2958 C 295.904 -1.78865 0.806335 0
M  V30 2959 O 295.029 -2.16395 -0.0140128 0
M  V30 2960 C 295.624 -1.17532 3.1776 0
M  V30 2961 C 294.183 -1.67531 3.37061 0
M  V30 2962 C 293.33 -0.58693 2.71017 0
M  V30 2963 H 296.281 0.135884 1.58117 0
M  V30 2964 H 296.302 -2.04455 3.20902 0
M  V30 2965 H 295.814 -0.342138 3.86589 0
M  V30 2966 H 293.915 -2.53234 2.73319 0
M  V30 2967 H 294.028 -1.76493 4.45406 0
M  V30 2968 H 292.392 -1.02756 2.33052 0
M  V30 2969 H 293.175 0.235758 3.4249 0
M  V30 2970 N 295.62 -1.53406 -0.361157 0
M  V30 2971 C 296.53 -1.83122 -1.4664 0
M  V30 2972 C 297.546 -0.719943 -1.58407 0
M  V30 2973 O 298.722 -1.01046 -1.74218 0
M  V30 2974 C 295.787 -2.01891 -2.81853 0
M  V30 2975 C 294.848 -3.25784 -2.79577 0
M  V30 2976 C 294.081 -3.43648 -4.0834 0
M  V30 2977 O 294.304 -2.65714 -5.0473 0
M  V30 2978 O 293.238 -4.37018 -4.13883 0
M  V30 2979 H 297.064 -2.7703 -1.24451 0
M  V30 2980 H 294.649 -1.38841 -0.551678 0
M  V30 2981 H 296.531 -2.15782 -3.61962 0
M  V30 2982 H 295.206 -1.11173 -3.0401 0
M  V30 2983 H 294.113 -3.17312 -1.98151 0
M  V30 2984 H 295.446 -4.16439 -2.62373 0
M  V30 2985 N 297.098 0.621204 -1.44841 0
M  V30 2986 C 298.375 1.38 -1.38619 0
M  V30 2987 C 298.755 2.11041 -0.0498935 0
M  V30 2988 O 298.103 2.06992 0.967816 0
M  V30 2989 C 298.313 2.33817 -2.59096 0
M  V30 2990 C 299.661 2.96844 -3.03593 0
M  V30 2991 O 300.685 2.44141 -2.59371 0
M  V30 2992 O 299.544 3.92476 -3.80296 0
M  V30 2993 H 296.638 0.61811 -0.549426 0
M  V30 2994 H 299.184 0.645429 -1.56947 0
M  V30 2995 H 297.956 1.79012 -3.47952 0
M  V30 2996 H 297.579 3.14676 -2.43032 0
M  V30 2997 N 298.576 1.31904 0.862503 0
M  V30 2998 C 299.822 1.22197 1.61851 0
M  V30 2999 C 300.155 -0.217641 1.92977 0
M  V30 3000 O 299.43 -1.15264 1.56666 0
M  V30 3001 C 299.713 2.07378 2.94391 0
M  V30 3002 C 299.566 3.59678 2.70096 0
M  V30 3003 C 300.885 1.92891 3.95577 0
M  V30 3004 H 298.004 0.445255 0.587296 0
M  V30 3005 H 300.646 1.6177 0.99651 0
M  V30 3006 H 298.796 1.73758 3.47477 0
M  V30 3007 H 300.468 4.03472 2.23625 0
M  V30 3008 H 298.711 3.82735 2.04197 0
M  V30 3009 H 299.382 4.14595 3.64438 0
M  V30 3010 H 301.858 2.22327 3.51724 0
M  V30 3011 H 300.734 2.54781 4.86187 0
M  V30 3012 H 300.995 0.894315 4.3296 0
M  V30 3013 N 300.054 -1.07777 1.14986 0
M  V30 3014 C 301.331 -1.7699 0.832695 0
M  V30 3015 C 301.711 -2.001 -0.672561 0
M  V30 3016 O 301.059 -1.61598 -1.6155 0
M  V30 3017 C 301.269 -3.08139 1.63863 0
M  V30 3018 C 302.617 -3.8256 1.84208 0
M  V30 3019 O 303.641 -3.17939 1.60603 0
M  V30 3020 O 302.5 -4.98612 2.23714 0
M  V30 3021 H 299.594 -0.768389 0.305791 0
M  V30 3022 H 302.14 -1.14182 1.25541 0
M  V30 3023 H 300.912 -2.86909 2.6608 0
M  V30 3024 H 300.535 -3.78678 1.21197 0
M  V30 3025 N 301.532 -0.945985 -1.26051 0
M  V30 3026 C 302.762 -0.612136 -1.97323 0
M  V30 3027 C 303.17 0.818171 -1.70595 0
M  V30 3028 O 302.513 1.55777 -0.973613 0
M  V30 3029 C 302.575 -0.780347 -3.50929 0
M  V30 3030 C 302.239 -2.18619 -4.01317 0
M  V30 3031 C 303.236 -3.16209 -4.12683 0
M  V30 3032 C 300.921 -2.50805 -4.35203 0
M  V30 3033 C 302.915 -4.44085 -4.57238 0
M  V30 3034 C 300.602 -3.78912 -4.79446 0
M  V30 3035 C 301.6 -4.75365 -4.90425 0
M  V30 3036 O 301.288 -6.01191 -5.3369 0
M  V30 3037 H 301.02 -0.229134 -0.635982 0
M  V30 3038 H 303.574 -1.27036 -1.61404 0
M  V30 3039 H 301.804 -0.0649864 -3.86645 0
M  V30 3040 H 303.493 -0.448842 -4.03411 0
M  V30 3041 H 304.259 -2.92668 -3.86744 0
M  V30 3042 H 300.138 -1.76463 -4.2589 0
M  V30 3043 H 303.682 -5.19373 -4.65723 0
M  V30 3044 H 299.579 -4.02265 -5.0483 0
M  V30 3045 H 300.347 -6.04442 -5.51899 0
M  V30 3046 N 303.011 1.40521 -0.713556 0
M  V30 3047 C 303.974 2.29098 -0.0684347 0
M  V30 3048 C 304.974 1.45268 0.689472 0
M  V30 3049 O 306.164 1.66205 0.521677 0
M  V30 3050 C 303.296 3.28446 0.913024 0
M  V30 3051 H 304.489 2.87645 -0.84855 0
M  V30 3052 H 302.042 1.48809 -0.47809 0
M  V30 3053 H 302.777 2.74913 1.72027 0
M  V30 3054 H 302.562 3.90327 0.372472 0
M  V30 3055 H 304.052 3.94777 1.36165 0
M  V30 3056 N 304.489 0.459591 1.5075 0
M  V30 3057 C 305.719 -0.0972338 2.06371 0
M  V30 3058 C 306.127 -1.35074 1.32483 0
M  V30 3059 O 305.47 -1.79637 0.384226 0
M  V30 3060 C 305.532 -0.462759 3.56509 0
M  V30 3061 C 305.196 0.687084 4.51805 0
M  V30 3062 C 306.193 1.56578 4.95761 0
M  V30 3063 C 303.878 0.874144 4.94635 0
M  V30 3064 C 305.872 2.61604 5.81242 0
M  V30 3065 C 303.559 1.92765 5.79901 0
M  V30 3066 C 304.557 2.79697 6.23104 0
M  V30 3067 O 304.245 3.83235 7.06673 0
M  V30 3068 H 303.977 -0.00140687 0.675999 0
M  V30 3069 H 306.531 0.644011 1.95043 0
M  V30 3070 H 304.761 -1.25703 3.65699 0
M  V30 3071 H 306.45 -0.953323 3.94546 0
M  V30 3072 H 307.216 1.4329 4.6335 0
M  V30 3073 H 303.095 0.207006 4.60535 0
M  V30 3074 H 306.639 3.29489 6.14884 0
M  V30 3075 H 302.536 2.06064 6.11725 0
M  V30 3076 H 303.304 3.80084 7.24899 0
M  V30 3077 N 305.967 -1.56429 0.191757 0
M  V30 3078 C 307.195 -2.01867 -0.453586 0
M  V30 3079 C 307.61 -1.07191 -1.5542 0
M  V30 3080 O 306.967 -0.0762108 -1.82341 0
M  V30 3081 C 307.018 -3.47017 -1.013 0
M  V30 3082 O 306.739 -4.38078 0.0437005 0
M  V30 3083 C 308.24 -4.07956 -1.73456 0
M  V30 3084 H 305.46 -0.661211 -0.114199 0
M  V30 3085 H 308.004 -2.02295 0.299483 0
M  V30 3086 H 306.159 -3.47298 -1.71647 0
M  V30 3087 H 306.573 -5.23178 -0.372212 0
M  V30 3088 H 308.047 -5.1138 -2.07833 0
M  V30 3089 H 308.524 -3.51222 -2.63704 0
M  V30 3090 H 309.13 -4.11437 -1.07702 0
M  V30 3091 N 307.445 0.0818655 -1.57387 0
M  V30 3092 C 308.355 1.11642 -2.06333 0
M  V30 3093 C 309.371 1.43033 -0.99083 0
M  V30 3094 O 310.547 1.53411 -1.30488 0
M  V30 3095 C 307.612 2.41342 -2.48907 0
M  V30 3096 C 306.673 2.17014 -3.7041 0
M  V30 3097 C 305.906 3.4053 -4.10944 0
M  V30 3098 O 306.129 4.4927 -3.51444 0
M  V30 3099 O 305.063 3.29336 -5.03807 0
M  V30 3100 H 308.889 0.730657 -2.9478 0
M  V30 3101 H 306.474 0.295301 -1.46452 0
M  V30 3102 H 308.356 3.17691 -2.76858 0
M  V30 3103 H 307.031 2.79319 -1.63593 0
M  V30 3104 H 305.938 1.38403 -3.47556 0
M  V30 3105 H 307.271 1.83923 -4.56545 0
M  V30 3106 N 308.923 1.53595 0.353017 0
M  V30 3107 C 309.853 1.83902 1.43883 0
M  V30 3108 C 310.834 0.693421 1.55324 0
M  V30 3109 O 312.019 0.944452 1.69687 0
M  V30 3110 C 309.149 2.04016 2.8106 0
M  V30 3111 C 308.103 3.19814 2.84434 0
M  V30 3112 C 307.429 3.25244 4.24406 0
M  V30 3113 C 308.729 4.58133 2.50822 0
M  V30 3114 H 310.423 2.74835 1.1877 0
M  V30 3115 H 307.969 1.32242 0.569917 0
M  V30 3116 H 309.922 2.238 3.57059 0
M  V30 3117 H 308.646 1.09804 3.07588 0
M  V30 3118 H 307.305 2.9987 2.10887 0
M  V30 3119 H 306.953 2.28646 4.48029 0
M  V30 3120 H 306.653 4.03054 4.27576 0
M  V30 3121 H 308.177 3.47228 5.0226 0
M  V30 3122 H 309.591 4.77995 3.16534 0
M  V30 3123 H 307.988 5.38276 2.6529 0
M  V30 3124 H 309.058 4.62387 1.46034 0
M  V30 3125 N 310.401 -0.613514 1.45168 0
M  V30 3126 C 311.626 -1.40437 1.52618 0
M  V30 3127 C 312.051 -1.87438 0.157707 0
M  V30 3128 O 311.409 -1.59791 -0.856537 0
M  V30 3129 C 311.457 -2.58894 2.51011 0
M  V30 3130 O 310.561 -3.59326 2.02382 0
M  V30 3131 H 309.902 -0.419506 0.514695 0
M  V30 3132 H 312.432 -0.747215 1.90467 0
M  V30 3133 H 312.442 -3.06214 2.69624 0
M  V30 3134 H 311.117 -2.24032 3.50403 0
M  V30 3135 H 309.694 -3.18695 1.93618 0
M  V30 3136 N 311.879 -1.3236 -0.855495 0
M  V30 3137 C 312.826 -1.21225 -1.964 0
M  V30 3138 C 313.796 -0.0946204 -1.6583 0
M  V30 3139 O 314.981 -0.27002 -1.8888 0
M  V30 3140 C 312.121 -0.940419 -3.32039 0
M  V30 3141 C 311.234 -2.14276 -3.75113 0
M  V30 3142 C 310.369 -1.80648 -4.9954 0
M  V30 3143 C 309.408 -2.97208 -5.35102 0
M  V30 3144 N 308.545 -2.63678 -6.50706 0
M  V30 3145 H 313.385 -2.16042 -2.05255 0
M  V30 3146 H 310.922 -1.07451 -1.00463 0
M  V30 3147 H 312.88 -0.763311 -4.10158 0
M  V30 3148 H 311.51 -0.0290413 -3.22787 0
M  V30 3149 H 310.562 -2.43017 -2.92655 0
M  V30 3150 H 311.874 -3.01468 -3.97389 0
M  V30 3151 H 311.028 -1.59484 -5.85363 0
M  V30 3152 H 309.767 -0.906678 -4.79198 0
M  V30 3153 H 308.772 -3.19004 -4.47791 0
M  V30 3154 H 309.997 -3.87918 -5.57401 0
M  V30 3155 H 307.943 -1.76238 -6.31883 0
M  V30 3156 H 307.86 -3.444 -6.72997 0
M  V30 3157 H 309.128 -2.45942 -7.39684 0
M  V30 3158 N 313.357 1.07166 -1.15556 0
M  V30 3159 C 314.606 1.79181 -0.926132 0
M  V30 3160 C 314.919 1.87768 0.547967 0
M  V30 3161 O 316.125 2.56323 0.895036 0
M  V30 3162 C 314.581 3.22 -1.60761 0
M  V30 3163 C 314.189 3.21607 -3.11886 0
M  V30 3164 C 315.933 3.9861 -1.4598 0
M  V30 3165 C 313.84 4.59092 -3.72812 0
M  V30 3166 H 312.77 0.67154 -0.342856 0
M  V30 3167 H 315.421 1.2027 -1.3859 0
M  V30 3168 H 313.803 3.81115 -1.07553 0
M  V30 3169 H 314.977 2.72127 -3.71865 0
M  V30 3170 H 313.292 2.58495 -3.2645 0
M  V30 3171 H 315.889 5.00225 -1.88888 0
M  V30 3172 H 316.232 4.143 -0.407541 0
M  V30 3173 H 316.765 3.45996 -1.96295 0
M  V30 3174 H 313.504 4.48606 -4.77946 0
M  V30 3175 H 313.024 5.08803 -3.17616 0
M  V30 3176 H 314.703 5.28059 -3.73848 0
M  V30 3177 N 314.835 0.952656 1.25548 0
M  V30 3178 C 316.06 0.623025 1.97821 0
M  V30 3179 C 316.485 -0.7976 1.70352 0
M  V30 3180 O 315.843 -1.53905 0.958283 0
M  V30 3181 C 315.891 0.885532 3.49558 0
M  V30 3182 O 314.995 -0.0366641 4.12384 0
M  V30 3183 H 314.336 0.237082 0.620232 0
M  V30 3184 H 316.866 1.27871 1.59719 0
M  V30 3185 H 316.876 0.811009 3.99858 0
M  V30 3186 H 315.551 1.92094 3.6888 0
M  V30 3187 H 314.128 0.0898954 3.72792 0
M  V30 3188 N 316.313 -1.40141 0.720998 0
M  V30 3189 C 317.724 -1.83678 0.334553 0
M  V30 3190 C 318.075 -1.6027 -1.13173 0
M  V30 3191 O 317.2 -1.08643 -1.87152 0
M  V30 3192 C 317.795 -3.33437 0.600437 0
M  V30 3193 C 316.354 -3.75447 0.267642 0
M  V30 3194 C 315.501 -2.63296 0.870097 0
M  V30 3195 H 318.452 -1.29331 0.919732 0
M  V30 3196 H 318.473 -3.80269 -0.132517 0
M  V30 3197 H 317.985 -3.50442 1.66768 0
M  V30 3198 H 316.086 -3.64035 -0.794329 0
M  V30 3199 H 316.199 -4.73344 0.74042 0
M  V30 3200 H 314.563 -2.52954 0.297739 0
M  V30 3201 H 315.346 -2.83112 1.94172 0
M  V30 3202 N 317.792 -0.46758 -1.50504 0
M  V30 3203 C 319.208 -0.121533 -1.59137 0
M  V30 3204 C 319.408 1.3717 -1.47603 0
M  V30 3205 O 318.464 2.14464 -1.33272 0
M  V30 3206 C 319.777 -0.6686 -2.93173 0
M  V30 3207 C 321.325 -0.631716 -3.06559 0
M  V30 3208 C 321.8 -1.15627 -4.43164 0
M  V30 3209 N 323.291 -1.11553 -4.49567 0
M  V30 3210 C 324.026 -1.49195 -5.5365 0
M  V30 3211 N 323.522 -1.94269 -6.65005 0
M  V30 3212 N 325.315 -1.4082 -5.44175 0
M  V30 3213 H 317.466 -1.4388 -1.56245 0
M  V30 3214 H 319.729 -0.594784 -0.738198 0
M  V30 3215 H 319.435 -1.71453 -3.07078 0
M  V30 3216 H 319.309 -0.11021 -3.77039 0
M  V30 3217 H 321.696 0.405297 -2.92304 0
M  V30 3218 H 321.777 -1.22687 -2.24458 0
M  V30 3219 H 321.421 -2.1919 -4.58168 0
M  V30 3220 H 321.351 -0.537365 -5.23851 0
M  V30 3221 H 323.842 -0.784895 -3.69659 0
M  V30 3222 H 324.155 -2.21148 -7.40482 0
M  V30 3223 H 322.5 -1.98219 -6.66134 0
M  V30 3224 H 325.691 -1.0545 -4.56068 0
M  V30 3225 H 325.864 -1.70481 -6.25172 0
M  V30 3226 N 319.27 1.56325 -0.20005 0
M  V30 3227 C 320.517 1.97719 0.437411 0
M  V30 3228 C 320.845 1.08709 1.61284 0
M  V30 3229 O 320.1 0.127261 1.95286 0
M  V30 3230 C 320.399 3.4495 0.935103 0
M  V30 3231 C 320.065 4.5072 -0.12749 0
M  V30 3232 C 318.727 4.79368 -0.419451 0
M  V30 3233 C 321.079 5.14268 -0.847231 0
M  V30 3234 C 318.407 5.68854 -1.43604 0
M  V30 3235 C 320.759 6.04852 -1.85301 0
M  V30 3236 C 319.423 6.31855 -2.15211 0
M  V30 3237 H 318.693 0.723507 0.16006 0
M  V30 3238 H 321.34 1.89166 -0.298056 0
M  V30 3239 H 319.645 3.50599 1.74894 0
M  V30 3240 H 321.342 3.74337 1.43781 0
M  V30 3241 H 317.932 4.28458 0.11023 0
M  V30 3242 H 322.116 4.92222 -0.634901 0
M  V30 3243 H 317.372 5.88047 -1.67364 0
M  V30 3244 H 321.546 6.53152 -2.41591 0
M  V30 3245 H 319.173 7.00994 -2.94129 0
M  V30 3246 N 320.748 -0.0735177 1.57428 0
M  V30 3247 C 321.976 -0.785969 1.9139 0
M  V30 3248 C 322.391 -1.71207 0.795847 0
M  V30 3249 O 321.748 -1.81033 -0.230915 0
M  V30 3250 C 321.799 -1.58107 3.25091 0
M  V30 3251 O 321.52 -0.6922 4.32597 0
M  V30 3252 C 323.021 -2.39467 3.73055 0
M  V30 3253 H 320.241 -0.223558 0.632663 0
M  V30 3254 H 322.785 -0.044302 2.04452 0
M  V30 3255 H 320.94 -2.27503 3.13562 0
M  V30 3256 H 321.354 -1.24504 5.09508 0
M  V30 3257 H 322.828 -2.90716 4.69242 0
M  V30 3258 H 323.305 -3.18913 3.01979 0
M  V30 3259 H 323.911 -1.7523 3.87523 0
M  V30 3260 N 322.226 -1.5378 -0.344866 0
M  V30 3261 C 323.475 -1.7018 -1.08267 0
M  V30 3262 C 323.788 -0.471 -1.89845 0
M  V30 3263 O 324.994 -0.515917 -2.66553 0
M  V30 3264 C 323.45 -3.00923 -1.97417 0
M  V30 3265 C 323.058 -4.31335 -1.21053 0
M  V30 3266 C 324.802 -3.26688 -2.71063 0
M  V30 3267 C 322.709 -5.53153 -2.09225 0
M  V30 3268 H 321.639 -0.634138 -0.407903 0
M  V30 3269 H 324.29 -1.8028 -0.342246 0
M  V30 3270 H 322.672 -2.84676 -2.75274 0
M  V30 3271 H 323.846 -4.58281 -0.481159 0
M  V30 3272 H 322.161 -4.12173 -0.591813 0
M  V30 3273 H 324.758 -4.1489 -3.37299 0
M  V30 3274 H 325.101 -2.43639 -3.37558 0
M  V30 3275 H 325.634 -3.43705 -2.0028 0
M  V30 3276 H 322.373 -6.38741 -1.47274 0
M  V30 3277 H 321.893 -5.30458 -2.79955 0
M  V30 3278 H 323.572 -5.88744 -2.68308 0
M  V30 3279 N 323.704 0.605807 -1.45491 0
M  V30 3280 C 324.667 1.69836 -1.5391 0
M  V30 3281 C 325.667 1.55261 -0.418424 0
M  V30 3282 O 326.857 1.60296 -0.681965 0
M  V30 3283 C 323.989 3.09117 -1.43734 0
M  V30 3284 H 325.182 1.63738 -2.51257 0
M  V30 3285 H 322.735 0.821689 -1.32959 0
M  V30 3286 H 323.47 3.20791 -0.475788 0
M  V30 3287 H 323.255 3.21104 -2.25021 0
M  V30 3288 H 324.745 3.88696 -1.52661 0
M  V30 3289 N 325.182 1.32811 0.848464 0
M  V30 3290 C 326.145 1.22194 1.9391 0
M  V30 3291 C 327.145 0.143404 1.60159 0
M  V30 3292 O 328.335 0.394253 1.6968 0
M  V30 3293 C 325.467 0.88067 3.29328 0
M  V30 3294 H 326.66 2.19127 2.04752 0
M  V30 3295 H 324.213 1.16731 1.0394 0
M  V30 3296 H 324.948 -0.0865776 3.24184 0
M  V30 3297 H 324.733 1.66052 3.55203 0
M  V30 3298 H 326.223 0.830871 4.09251 0
M  V30 3299 N 326.66 -1.06551 1.16123 0
M  V30 3300 C 327.885 -1.83544 0.965735 0
M  V30 3301 C 328.31 -1.81843 -0.481102 0
M  V30 3302 O 327.668 -1.21732 -1.34354 0
M  V30 3303 C 327.716 -3.28169 1.49457 0
M  V30 3304 O 326.82 -4.0643 0.699157 0
M  V30 3305 H 326.161 -0.568026 0.343864 0
M  V30 3306 H 328.691 -1.34362 1.54299 0
M  V30 3307 H 328.701 -3.78992 1.51092 0
M  V30 3308 H 327.376 -3.28722 2.54784 0
M  V30 3309 H 325.953 -3.65216 0.7531 0
M  V30 3310 N 328.138 -0.959301 -1.25041 0
M  V30 3311 C 329.385 -0.616611 -1.92884 0
M  V30 3312 C 329.713 0.847036 -1.75087 0
M  V30 3313 O 328.968 1.62374 -1.09239 0
M  V30 3314 C 329.267 -0.927136 -3.45165 0
M  V30 3315 C 328.933 -2.37757 -3.83122 0
M  V30 3316 C 327.595 -2.77402 -3.93194 0
M  V30 3317 C 329.947 -3.31929 -4.01836 0
M  V30 3318 C 327.275 -4.10277 -4.19392 0
M  V30 3319 C 329.627 -4.64423 -4.29528 0
M  V30 3320 C 328.291 -5.03857 -4.37818 0
M  V30 3321 H 327.561 -0.225634 -0.705812 0
M  V30 3322 H 330.208 -1.20921 -1.48493 0
M  V30 3323 H 328.513 -0.252195 -3.90987 0
M  V30 3324 H 330.21 -0.6405 -3.95852 0
M  V30 3325 H 326.8 -2.06013 -3.75841 0
M  V30 3326 H 330.984 -3.02488 -3.93465 0
M  V30 3327 H 326.24 -4.40467 -4.24027 0
M  V30 3328 H 330.414 -5.37369 -4.42953 0
M  V30 3329 H 328.041 -6.06843 -4.57871 0
M  V30 3330 N 329.616 1.39756 -0.72842 0
M  V30 3331 C 330.864 2.00248 -0.272946 0
M  V30 3332 C 331.185 1.58077 1.14178 0
M  V30 3333 O 330.455 0.826014 1.77634 0
M  V30 3334 H 329.035 0.740554 -0.0979247 0
M  V30 3335 H 331.697 1.70903 -0.936912 0
M  V30 3336 H 330.793 3.10495 -0.316142 0
M  V30 3337 N 331.094 0.475555 1.50254 0
M  V30 3338 C 332.042 -0.330276 2.30243 0
M  V30 3339 C 333.036 -0.986306 1.37726 0
M  V30 3340 O 334.242 -0.9169 1.54897 0
M  V30 3341 H 330.617 -0.125353 0.741479 0
M  V30 3342 H 332.588 0.364702 2.96163 0
M  V30 3343 C 331.337 -1.39704 3.18399 0
M  V30 3344 H 330.66 -0.901621 3.89501 0
M  V30 3345 H 332.1 -1.93336 3.77355 0
M  V30 3346 C 330.559 -2.4014 2.36293 0
M  V30 3347 O 331.089 -3.45504 2.04914 0
M  V30 3348 N 329.295 -2.1197 1.98789 0
M  V30 3349 H 328.842 -1.2631 2.24507 0
M  V30 3350 H 328.8 -2.79403 1.44157 0
M  V30 3351 N 332.573 -1.56217 0.208337 0
M  V30 3352 C 333.819 -1.98242 -0.427552 0
M  V30 3353 C 334.152 -1.09554 -1.60348 0
M  V30 3354 O 333.427 -0.15035 -1.93918 0
M  V30 3355 C 333.71 -3.4931 -0.874907 0
M  V30 3356 C 333.563 -4.48773 0.303751 0
M  V30 3357 C 334.882 -4.04424 -1.73577 0
M  V30 3358 H 332.001 -0.720744 -0.153936 0
M  V30 3359 H 334.643 -1.87586 0.30192 0
M  V30 3360 H 332.793 -3.58522 -1.49648 0
M  V30 3361 H 334.465 -4.51586 0.941682 0
M  V30 3362 H 332.708 -4.23194 0.953375 0
M  V30 3363 H 333.379 -5.51976 -0.0519883 0
M  V30 3364 H 335.855 -3.98075 -1.21143 0
M  V30 3365 H 334.731 -5.1047 -2.01771 0
M  V30 3366 H 334.992 -3.50494 -2.69456 0
M  V30 3367 N 334.051 0.0651679 -1.57465 0
M  V30 3368 C 335.001 1.0838 -2.00594 0
M  V30 3369 C 335.985 1.34106 -0.889071 0
M  V30 3370 O 337.177 1.34295 -1.15299 0
M  V30 3371 C 334.306 2.39565 -2.45894 0
M  V30 3372 C 333.392 2.17085 -3.64328 0
M  V30 3373 N 333.783 1.64553 -4.78285 0
M  V30 3374 C 332.081 2.4753 -3.71006 0
M  V30 3375 C 332.782 1.57042 -5.60101 0
M  V30 3376 N 331.758 2.03328 -5.04141 0
M  V30 3377 H 335.56 0.671062 -2.86136 0
M  V30 3378 H 333.074 0.27213 -1.60104 0
M  V30 3379 H 335.071 3.13308 -2.75034 0
M  V30 3380 H 333.731 2.81549 -1.61741 0
M  V30 3381 H 334.742 1.33323 -5.00445 0
M  V30 3382 H 331.419 2.92835 -2.9758 0
M  V30 3383 H 332.809 1.17223 -6.61595 0
M  V30 3384 N 335.529 1.53961 0.336706 0
M  V30 3385 C 336.777 1.71197 1.07405 0
M  V30 3386 C 337.098 0.481475 1.88962 0
M  V30 3387 O 336.368 -0.504585 1.8929 0
M  V30 3388 H 334.948 0.631185 0.399517 0
M  V30 3389 H 337.61 1.91232 0.376323 0
M  V30 3390 H 336.706 2.58587 1.74755 0
M  V30 3391 N 337.007 -0.598083 1.45811 0
M  V30 3392 C 338.253 -1.35882 1.50545 0
M  V30 3393 C 338.586 -1.93616 0.150445 0
M  V30 3394 O 337.861 -1.75604 -0.83628 0
M  V30 3395 C 338.144 -2.49966 2.59208 0
M  V30 3396 C 337.997 -1.97367 4.04186 0
M  V30 3397 C 339.316 -3.52068 2.64076 0
M  V30 3398 H 336.435 -0.492717 0.548087 0
M  V30 3399 H 339.077 -0.673319 1.77669 0
M  V30 3400 H 337.227 -3.08443 2.3621 0
M  V30 3401 H 338.899 -1.43466 4.38423 0
M  V30 3402 H 337.142 -1.283 4.14393 0
M  V30 3403 H 337.813 -2.79649 4.75921 0
M  V30 3404 H 340.289 -3.03448 2.84708 0
M  V30 3405 H 339.165 -4.2937 3.41954 0
M  V30 3406 H 339.426 -4.08304 1.69531 0
M  V30 3407 N 338.485 -1.33259 -0.841409 0
M  V30 3408 C 339.715 -1.2742 -1.62628 0
M  V30 3409 C 340.123 0.157604 -1.88542 0
M  V30 3410 O 339.466 1.10938 -1.46419 0
M  V30 3411 C 339.528 -1.97797 -3.00194 0
M  V30 3412 C 339.192 -3.47109 -2.97261 0
M  V30 3413 C 340.189 -4.42358 -2.73159 0
M  V30 3414 C 337.874 -3.89247 -3.17478 0
M  V30 3415 C 339.868 -5.77718 -2.69296 0
M  V30 3416 C 337.555 -5.24713 -3.13241 0
M  V30 3417 C 338.553 -6.1876 -2.89181 0
M  V30 3418 O 338.241 -7.51745 -2.84843 0
M  V30 3419 H 337.973 -0.440436 -0.512827 0
M  V30 3420 H 340.527 -1.76153 -1.05638 0
M  V30 3421 H 338.757 -1.43652 -3.59028 0
M  V30 3422 H 340.446 -1.8549 -3.61038 0
M  V30 3423 H 341.212 -4.11127 -2.57294 0
M  V30 3424 H 337.091 -3.16456 -3.35226 0
M  V30 3425 H 340.635 -6.51097 -2.50436 0
M  V30 3426 H 336.532 -5.55569 -3.28654 0
M  V30 3427 H 337.3 -7.61262 -3.00702 0
M  V30 3428 N 339.963 1.05934 -1.16686 0
M  V30 3429 C 340.91 2.13499 -0.876748 0
M  V30 3430 C 341.88 1.65162 0.176299 0
M  V30 3431 O 343.065 1.90757 0.0407143 0
M  V30 3432 C 340.205 3.42912 -0.387967 0
M  V30 3433 C 339.318 4.04964 -1.50426 0
M  V30 3434 C 338.453 5.22266 -0.970125 0
M  V30 3435 C 337.492 5.76309 -2.06238 0
M  V30 3436 N 336.629 6.84922 -1.54356 0
M  V30 3437 H 341.469 2.37654 -1.7979 0
M  V30 3438 H 339.006 1.16598 -0.896843 0
M  V30 3439 H 340.964 4.17111 -0.086186 0
M  V30 3440 H 339.594 3.18963 0.496235 0
M  V30 3441 H 338.646 3.28277 -1.92193 0
M  V30 3442 H 339.958 4.41122 -2.32836 0
M  V30 3443 H 339.112 6.03506 -0.621743 0
M  V30 3444 H 337.851 4.87564 -0.115377 0
M  V30 3445 H 336.856 4.93704 -2.41942 0
M  V30 3446 H 338.081 6.13062 -2.92115 0
M  V30 3447 H 336.027 6.52131 -0.711406 0
M  V30 3448 H 335.944 7.20043 -2.30379 0
M  V30 3449 H 337.212 7.69832 -1.22387 0
M  V30 3450 N 341.441 0.965919 1.2453 0
M  V30 3451 C 342.852 0.665929 1.7442 0
M  V30 3452 C 343.203 -0.818407 1.78316 0
M  V30 3453 O 342.328 -1.64037 1.41141 0
M  V30 3454 C 342.923 1.20211 3.16757 0
M  V30 3455 C 341.482 0.952059 3.6416 0
M  V30 3456 C 340.629 1.33848 2.42858 0
M  V30 3457 H 343.58 1.14144 1.10258 0
M  V30 3458 H 343.601 0.567544 3.76244 0
M  V30 3459 H 343.113 2.28244 3.13889 0
M  V30 3460 H 341.214 -0.112821 3.72429 0
M  V30 3461 H 341.327 1.59645 4.51719 0
M  V30 3462 H 339.691 0.756864 2.43195 0
M  V30 3463 H 340.474 2.42827 2.42673 0
M  V30 3464 N 342.919 -1.39368 0.735821 0
M  V30 3465 C 344.167 -2.00101 0.283562 0
M  V30 3466 C 344.488 -1.5868 -1.13338 0
M  V30 3467 O 343.758 -0.835423 -1.77193 0
M  V30 3468 H 342.338 -0.740024 0.101851 0
M  V30 3469 H 345 -1.70404 0.945962 0
M  V30 3470 H 344.096 -3.10323 0.332604 0
M  V30 3471 N 344.397 -0.483516 -1.5 0
M  V30 3472 C 345.345 0.318061 -2.30415 0
M  V30 3473 C 346.339 0.978988 -1.38247 0
M  V30 3474 O 347.545 0.908673 -1.55381 0
M  V30 3475 H 343.92 0.121419 -0.742133 0
M  V30 3476 H 345.891 -0.380403 -2.95965 0
M  V30 3477 C 344.64 1.38013 -3.19136 0
M  V30 3478 H 343.963 0.880952 -3.89973 0
M  V30 3479 H 345.403 1.91332 -3.78375 0
M  V30 3480 C 343.862 2.38884 -2.37563 0
M  V30 3481 O 344.392 3.44412 -2.06744 0
M  V30 3482 N 342.598 2.10912 -1.99911 0
M  V30 3483 H 342.145 1.25118 -2.25174 0
M  V30 3484 H 342.103 2.78635 -1.45636 0
M  V30 3485 N 345.875 1.56104 -0.216619 0
M  V30 3486 C 347.121 1.98466 0.417033 0
M  V30 3487 C 347.454 1.10403 1.59765 0
M  V30 3488 O 346.729 0.160632 1.93836 0
M  V30 3489 C 347.012 3.49769 0.85637 0
M  V30 3490 C 346.865 4.48606 -0.327546 0
M  V30 3491 C 348.184 4.05339 1.7143 0
M  V30 3492 H 345.303 0.721551 0.150112 0
M  V30 3493 H 347.945 1.87423 -0.311864 0
M  V30 3494 H 346.095 3.5931 1.47745 0
M  V30 3495 H 347.767 4.5108 -0.965618 0
M  V30 3496 H 346.01 4.22682 -0.975805 0
M  V30 3497 H 346.681 5.51995 0.0227149 0
M  V30 3498 H 349.157 3.98712 1.19031 0
M  V30 3499 H 348.033 5.11533 1.99061 0
M  V30 3500 H 348.294 3.51918 2.67593 0
M  V30 3501 N 347.353 -0.0568162 1.57498 0
M  V30 3502 C 348.599 -0.75422 1.88253 0
M  V30 3503 C 348.932 -1.76461 0.810865 0
M  V30 3504 O 348.207 -1.93691 -0.177259 0
M  V30 3505 C 348.49 -1.44878 3.2967 0
M  V30 3506 C 348.343 -0.453789 4.47505 0
M  V30 3507 C 349.662 -2.38994 3.69554 0
M  V30 3508 H 346.781 -0.272724 0.684683 0
M  V30 3509 H 349.423 -0.0172113 1.89992 0
M  V30 3510 H 347.573 -2.077 3.28318 0
M  V30 3511 H 349.245 0.170371 4.60985 0
M  V30 3512 H 347.488 0.229552 4.33192 0
M  V30 3513 H 348.159 -0.977699 5.43273 0
M  V30 3514 H 350.635 -1.86239 3.72095 0
M  V30 3515 H 349.511 -2.84587 4.69363 0
M  V30 3516 H 349.772 -3.24461 3.00296 0
M  V30 3517 N 348.832 -1.54138 -0.328536 0
M  V30 3518 C 349.762 -1.86167 -1.40939 0
M  V30 3519 C 350.743 -0.718044 -1.54202 0
M  V30 3520 O 351.928 -0.971328 -1.68163 0
M  V30 3521 C 349.058 -2.08461 -2.77779 0
M  V30 3522 C 348.012 -3.24299 -2.7931 0
M  V30 3523 C 347.338 -3.31955 -4.19178 0
M  V30 3524 C 348.638 -4.62065 -2.43502 0
M  V30 3525 H 350.332 -2.76689 -1.14383 0
M  V30 3526 H 347.878 -1.33132 -0.548806 0
M  V30 3527 H 349.831 -2.29453 -3.53454 0
M  V30 3528 H 348.555 -1.14684 -3.05802 0
M  V30 3529 H 347.214 -3.03187 -2.0609 0
M  V30 3530 H 346.862 -2.35745 -4.44335 0
M  V30 3531 H 346.562 -4.09805 -4.2111 0
M  V30 3532 H 348.086 -3.55175 -4.96672 0
M  V30 3533 H 349.5 -4.8297 -3.08889 0
M  V30 3534 H 347.897 -5.42429 -2.56693 0
M  V30 3535 H 348.967 -4.64652 -1.38659 0
M  V30 3536 N 350.31 0.590341 -1.46126 0
M  V30 3537 C 351.538 1.37504 -1.54597 0
M  V30 3538 C 351.953 1.87897 -0.184447 0
M  V30 3539 O 351.31 1.63192 0.816984 0
M  V30 3540 C 351.361 2.56779 -2.54454 0
M  V30 3541 O 351.082 2.08476 -3.85317 0
M  V30 3542 C 352.583 3.49427 -2.72792 0
M  V30 3543 H 349.803 0.420325 -0.523037 0
M  V30 3544 H 352.347 0.718383 -1.91467 0
M  V30 3545 H 350.502 3.1845 -2.20609 0
M  V30 3546 H 350.916 2.86097 -4.396 0
M  V30 3547 H 352.39 4.29619 -3.466 0
M  V30 3548 H 352.867 4.00876 -1.79429 0
M  V30 3549 H 353.473 2.93598 -3.07702 0
M  V30 3550 N 351.788 1.33704 0.83433 0
M  V30 3551 C 353.199 1.22813 1.4062 0
M  V30 3552 C 353.55 -0.151107 1.95617 0
M  V30 3553 O 352.675 -1.05092 1.89168 0
M  V30 3554 C 353.27 2.22355 2.55624 0
M  V30 3555 C 351.829 2.1529 3.08751 0
M  V30 3556 C 350.976 2.09589 1.8157 0
M  V30 3557 H 353.927 1.45236 0.639702 0
M  V30 3558 H 353.948 1.83391 3.33389 0
M  V30 3559 H 353.46 3.22728 2.15566 0
M  V30 3560 H 351.561 1.18235 3.53343 0
M  V30 3561 H 351.674 3.06038 3.68616 0
M  V30 3562 H 350.038 1.55134 2.02004 0
M  V30 3563 H 350.821 3.11777 1.43701 0
M  V30 3564 N 353.266 -1.05314 1.17247 0
M  V30 3565 C 354.494 -1.81971 0.984593 0
M  V30 3566 C 354.909 -1.82929 -0.467166 0
M  V30 3567 O 354.266 -1.25564 -1.32438 0
M  V30 3568 C 354.317 -3.28143 1.51672 0
M  V30 3569 O 354.038 -3.27347 2.91163 0
M  V30 3570 C 355.539 -4.21493 1.37326 0
M  V30 3571 H 352.759 -0.573455 0.348411 0
M  V30 3572 H 355.303 -1.32808 1.55506 0
M  V30 3573 H 353.458 -3.74582 0.988302 0
M  V30 3574 H 353.872 -4.18824 3.15732 0
M  V30 3575 H 355.346 -5.22043 1.79375 0
M  V30 3576 H 355.823 -4.38031 0.320169 0
M  V30 3577 H 356.429 -3.80909 1.89178 0
M  V30 3578 N 354.744 -0.972509 -1.24016 0
M  V30 3579 C 355.993 -0.632603 -1.91523 0
M  V30 3580 C 356.306 0.836641 -1.76804 0
M  V30 3581 O 357.512 1.28728 -2.39043 0
M  V30 3582 C 355.968 -1.08082 -3.43287 0
M  V30 3583 C 355.576 -2.57386 -3.66683 0
M  V30 3584 C 357.32 -0.814288 -4.16617 0
M  V30 3585 C 355.227 -2.95915 -5.12043 0
M  V30 3586 H 354.157 -0.232898 -0.717129 0
M  V30 3587 H 356.808 -1.17936 -1.40582 0
M  V30 3588 H 355.19 -0.462339 -3.93292 0
M  V30 3589 H 356.364 -3.24405 -3.27258 0
M  V30 3590 H 354.679 -2.81701 -3.06649 0
M  V30 3591 H 357.276 -1.0781 -5.23718 0
M  V30 3592 H 357.619 0.24955 -4.15551 0
M  V30 3593 H 358.152 -1.39397 -3.72577 0
M  V30 3594 H 354.891 -4.0139 -5.18234 0
M  V30 3595 H 354.411 -2.33584 -5.52448 0
M  V30 3596 H 356.09 -2.86086 -5.80314 0
M  V30 3597 N 356.222 1.38976 -0.743202 0
M  V30 3598 C 357.152 2.33171 -0.123873 0
M  V30 3599 C 358.133 1.54336 0.71516 0
M  V30 3600 O 359.318 1.82696 0.658467 0
M  V30 3601 C 356.448 3.38474 0.777978 0
M  V30 3602 C 355.402 4.27979 0.0424758 0
M  V30 3603 C 354.728 5.2405 1.06189 0
M  V30 3604 C 356.028 5.10155 -1.1198 0
M  V30 3605 H 357.722 2.85213 -0.910709 0
M  V30 3606 H 355.268 1.37133 -0.439388 0
M  V30 3607 H 357.221 4.03328 1.22084 0
M  V30 3608 H 355.945 2.84891 1.59702 0
M  V30 3609 H 354.604 3.64616 -0.380853 0
M  V30 3610 H 354.252 4.66758 1.87472 0
M  V30 3611 H 353.952 5.84785 0.574485 0
M  V30 3612 H 355.476 5.9178 1.50428 0
M  V30 3613 H 356.89 5.68307 -0.75499 0
M  V30 3614 H 355.287 5.80073 -1.53738 0
M  V30 3615 H 356.357 4.44504 -1.93764 0
M  V30 3616 N 357.7 0.491464 1.49741 0
M  V30 3617 C 359.116 0.146835 1.58923 0
M  V30 3618 C 359.316 -1.34804 1.49767 0
M  V30 3619 O 358.372 -2.12317 1.36667 0
M  V30 3620 C 359.685 0.715157 2.92072 0
M  V30 3621 C 361.233 0.680407 3.05515 0
M  V30 3622 C 361.708 1.22663 4.41269 0
M  V30 3623 N 363.199 1.18691 4.47735 0
M  V30 3624 C 363.934 1.57984 5.51207 0
M  V30 3625 N 363.43 2.04824 6.6183 0
M  V30 3626 N 365.223 1.49459 5.41866 0
M  V30 3627 H 357.374 1.46347 1.53936 0
M  V30 3628 H 359.637 0.606453 0.728642 0
M  V30 3629 H 359.343 1.76317 3.04311 0
M  V30 3630 H 359.217 0.17018 3.76816 0
M  V30 3631 H 361.604 -0.358743 2.92911 0
M  V30 3632 H 361.685 1.26242 2.22478 0
M  V30 3633 H 361.329 2.26451 4.54623 0
M  V30 3634 H 361.259 0.620637 5.2293 0
M  V30 3635 H 363.75 0.843605 3.68364 0
M  V30 3636 H 364.063 2.32901 7.3687 0
M  V30 3637 H 362.408 2.08791 6.62896 0
M  V30 3638 H 365.599 1.12692 4.54333 0
M  V30 3639 H 365.772 1.80406 6.22381 0
M  V30 3640 N 359.178 -1.55987 0.224894 0
M  V30 3641 C 360.455 -1.90232 -0.455083 0
M  V30 3642 C 360.835 -1.14269 -1.77499 0
M  V30 3643 O 360.183 -0.253079 -2.27094 0
M  V30 3644 C 360.393 -3.42993 -0.644758 0
M  V30 3645 C 361.741 -4.13821 -0.950669 0
M  V30 3646 O 362.765 -3.4861 -0.731423 0
M  V30 3647 O 361.624 -5.29128 -1.36695 0
M  V30 3648 H 358.718 -0.79108 -0.241084 0
M  V30 3649 H 361.264 -1.67581 0.267327 0
M  V30 3650 H 360.036 -3.90252 0.28613 0
M  V30 3651 H 359.659 -3.71434 -1.41853 0
M  V30 3652 N 360.656 0.0484629 -1.57525 0
M  V30 3653 C 361.881 0.759177 -1.93006 0
M  V30 3654 C 362.306 1.69125 -0.823317 0
M  V30 3655 O 361.664 1.79931 0.222364 0
M  V30 3656 C 361.712 1.50899 -3.27509 0
M  V30 3657 O 360.816 2.62112 -3.18388 0
M  V30 3658 H 360.157 0.205564 -0.631379 0
M  V30 3659 H 362.687 0.00972959 -2.04598 0
M  V30 3660 H 362.697 1.88317 -3.6194 0
M  V30 3661 H 361.372 0.825269 -4.0763 0
M  V30 3662 H 359.949 2.27379 -2.95556 0
M  V30 3663 N 362.134 1.5431 0.320358 0
M  V30 3664 C 363.066 1.80262 1.41556 0
M  V30 3665 C 364.079 0.684723 1.477 0
M  V30 3666 O 365.268 0.961886 1.50366 0
M  V30 3667 C 362.368 1.90825 2.8007 0
M  V30 3668 C 361.541 3.21023 2.97091 0
M  V30 3669 C 360.6 3.22247 4.15985 0
M  V30 3670 O 359.626 3.95871 4.08992 0
M  V30 3671 N 360.828 2.46258 5.25678 0
M  V30 3672 H 363.593 2.74778 1.19655 0
M  V30 3673 H 361.154 1.53646 0.510358 0
M  V30 3674 H 363.146 1.89067 3.57821 0
M  V30 3675 H 361.716 1.03392 2.95006 0
M  V30 3676 H 360.936 3.35715 2.06614 0
M  V30 3677 H 362.224 4.0698 3.05361 0
M  V30 3678 H 361.622 1.86037 5.34235 0
M  V30 3679 H 360.179 2.50275 6.01835 0
M  V30 3680 N 363.613 -0.582584 1.46437 0
M  V30 3681 C 364.523 -1.71949 1.59595 0
M  V30 3682 C 365.539 -1.67264 0.479443 0
M  V30 3683 O 366.715 -1.87171 0.743579 0
M  V30 3684 C 363.78 -3.08452 1.58298 0
M  V30 3685 C 362.841 -3.244 2.81182 0
M  V30 3686 C 362.074 -4.54391 2.79937 0
M  V30 3687 O 362.297 -5.38287 1.8869 0
M  V30 3688 O 361.231 -4.73588 3.71481 0
M  V30 3689 H 365.057 -1.63795 2.55744 0
M  V30 3690 H 362.642 -0.749643 1.29231 0
M  V30 3691 H 364.524 -3.89732 1.60271 0
M  V30 3692 H 363.199 -3.17043 0.653094 0
M  V30 3693 H 362.106 -2.42613 2.84763 0
M  V30 3694 H 363.439 -3.20699 3.7338 0
M  V30 3695 N 365.091 -1.34144 -0.827227 0
M  V30 3696 C 366.321 -1.29138 -1.61267 0
M  V30 3697 C 366.729 0.137597 -1.88699 0
M  V30 3698 O 366.072 1.09379 -1.47587 0
M  V30 3699 C 366.134 -2.0097 -2.9808 0
M  V30 3700 C 365.798 -3.50242 -2.93563 0
M  V30 3701 C 366.795 -4.4523 -2.68452 0
M  V30 3702 C 364.48 -3.92592 -3.13331 0
M  V30 3703 C 366.474 -5.80542 -2.63154 0
M  V30 3704 C 364.161 -5.28005 -3.07658 0
M  V30 3705 C 365.159 -6.21792 -2.82602 0
M  V30 3706 O 364.847 -7.54723 -2.76853 0
M  V30 3707 H 364.579 -0.445851 -0.508127 0
M  V30 3708 H 367.133 -1.77263 -1.03763 0
M  V30 3709 H 365.363 -1.47451 -3.57484 0
M  V30 3710 H 367.052 -1.89309 -3.5905 0
M  V30 3711 H 367.818 -4.13832 -2.52919 0
M  V30 3712 H 363.697 -3.19994 -3.31851 0
M  V30 3713 H 367.241 -6.53717 -2.43516 0
M  V30 3714 H 363.138 -5.59023 -3.22743 0
M  V30 3715 H 363.906 -7.64409 -2.92611 0
M  V30 3716 N 366.569 1.04691 -1.17803 0
M  V30 3717 C 367.815 1.78045 -0.970969 0
M  V30 3718 C 368.148 1.87686 0.498751 0
M  V30 3719 O 367.423 1.38035 1.37027 0
M  V30 3720 C 367.706 3.2166 -1.61884 0
M  V30 3721 C 367.559 3.20001 -3.161 0
M  V30 3722 C 368.878 4.1962 -1.3269 0
M  V30 3723 H 365.997 0.64633 -0.354155 0
M  V30 3724 H 368.639 1.22333 -1.45378 0
M  V30 3725 H 366.789 3.69232 -1.20831 0
M  V30 3726 H 368.461 2.80467 -3.66246 0
M  V30 3727 H 366.704 2.58203 -3.48588 0
M  V30 3728 H 367.375 4.21386 -3.56564 0
M  V30 3729 H 369.851 3.80567 -1.68249 0
M  V30 3730 H 368.727 5.18339 -1.80599 0
M  V30 3731 H 368.988 4.414 -0.248622 0
M  V30 3732 N 368.047 0.979072 1.23499 0
M  V30 3733 C 369.272 0.664845 1.96455 0
M  V30 3734 C 369.697 -0.761287 1.72006 0
M  V30 3735 O 369.055 -1.51837 0.990713 0
M  V30 3736 C 369.103 0.959479 3.47601 0
M  V30 3737 O 368.207 0.0508168 4.12369 0
M  V30 3738 H 367.548 0.250185 0.615064 0
M  V30 3739 H 370.078 1.31231 1.5697 0
M  V30 3740 H 370.088 0.895642 3.98048 0
M  V30 3741 H 368.763 1.99876 3.64723 0
M  V30 3742 H 367.34 0.16895 3.72517 0
M  V30 3743 N 369.525 -1.3858 0.750561 0
M  V30 3744 C 370.472 -2.30483 0.120835 0
M  V30 3745 C 371.442 -1.50022 -0.712923 0
M  V30 3746 O 372.627 -1.78662 -0.669676 0
M  V30 3747 C 369.767 -3.36431 -0.768666 0
M  V30 3748 C 368.88 -4.31927 0.0793922 0
M  V30 3749 C 368.015 -5.24944 -0.81283 0
M  V30 3750 C 367.054 -6.12088 0.0390447 0
M  V30 3751 N 366.191 -6.97412 -0.809969 0
M  V30 3752 H 371.031 -2.83761 0.91015 0
M  V30 3753 H 368.568 -1.39707 0.460463 0
M  V30 3754 H 370.526 -3.96462 -1.29898 0
M  V30 3755 H 369.156 -2.8457 -1.5238 0
M  V30 3756 H 368.208 -3.73382 0.727303 0
M  V30 3757 H 369.52 -4.93319 0.737401 0
M  V30 3758 H 368.674 -5.90078 -1.41042 0
M  V30 3759 H 367.413 -4.63911 -1.50458 0
M  V30 3760 H 366.418 -5.45952 0.649328 0
M  V30 3761 H 367.643 -6.75189 0.727809 0
M  V30 3762 H 365.589 -6.38931 -1.48672 0
M  V30 3763 H 365.506 -7.55712 -0.208789 0
M  V30 3764 H 366.774 -7.66959 -1.39263 0
M  V30 3765 N 371.003 -0.499398 -1.49478 0
M  V30 3766 C 371.95 0.279881 -2.29097 0
M  V30 3767 C 372.92 0.961805 -1.3542 0
M  V30 3768 O 374.105 0.968777 -1.64376 0
M  V30 3769 C 371.245 1.33932 -3.18051 0
M  V30 3770 C 370.358 0.669333 -4.26783 0
M  V30 3771 C 369.493 1.70907 -5.02955 0
M  V30 3772 C 368.532 1.02087 -6.03527 0
M  V30 3773 N 367.669 2.00474 -6.7287 0
M  V30 3774 H 372.509 -0.405317 -2.95231 0
M  V30 3775 H 370.046 -0.211726 -1.45568 0
M  V30 3776 H 372.004 1.96553 -3.67998 0
M  V30 3777 H 370.634 1.9933 -2.53904 0
M  V30 3778 H 369.686 -0.0701234 -3.80335 0
M  V30 3779 H 370.998 0.127503 -4.98637 0
M  V30 3780 H 370.152 2.41037 -5.56764 0
M  V30 3781 H 368.891 2.28476 -4.30871 0
M  V30 3782 H 367.896 0.305338 -5.48951 0
M  V30 3783 H 369.121 0.451708 -6.77596 0
M  V30 3784 H 367.067 2.57007 -6.03559 0
M  V30 3785 H 366.984 1.51353 -7.40694 0
M  V30 3786 H 368.252 2.69897 -7.31284 0
M  V30 3787 N 372.481 1.55866 -0.233164 0
M  V30 3788 C 373.431 2.17442 0.685774 0
M  V30 3789 C 374.415 1.12617 1.14918 0
M  V30 3790 O 375.607 1.3857 1.10124 0
M  V30 3791 C 372.736 2.86685 1.88856 0
M  V30 3792 C 371.822 3.98749 1.4443 0
M  V30 3793 N 372.213 5.00744 0.713364 0
M  V30 3794 C 370.511 4.11052 1.73068 0
M  V30 3795 C 371.212 5.79673 0.485205 0
M  V30 3796 N 370.188 5.33454 1.04536 0
M  V30 3797 H 373.99 2.93659 0.119022 0
M  V30 3798 H 371.504 1.62362 -0.0348995 0
M  V30 3799 H 373.501 3.29218 2.55776 0
M  V30 3800 H 372.161 2.11967 2.45967 0
M  V30 3801 H 373.172 5.16613 0.364861 0
M  V30 3802 H 369.849 3.47495 2.31416 0
M  V30 3803 H 371.239 6.71829 -0.097365 0
M  V30 3804 N 373.959 -0.0401083 1.57549 0
M  V30 3805 C 374.907 -1.06264 2.06908 0
M  V30 3806 C 375.901 -1.38132 0.980608 0
M  V30 3807 O 377.107 -1.37167 1.16556 0
M  V30 3808 H 373.482 -0.360166 0.660139 0
M  V30 3809 H 375.453 -0.620445 2.91878 0
M  V30 3810 C 374.202 -2.35846 2.55483 0
M  V30 3811 H 373.525 -2.12183 3.38849 0
M  V30 3812 H 374.965 -3.05765 2.93741 0
M  V30 3813 C 373.424 -3.0404 1.45126 0
M  V30 3814 O 373.954 -3.93424 0.811216 0
M  V30 3815 N 372.16 -2.65184 1.18852 0
M  V30 3816 H 371.707 -1.92584 1.71083 0
M  V30 3817 H 371.665 -3.1113 0.452244 0
M  V30 3818 N 375.437 -1.54477 -0.31217 0
M  V30 3819 C 376.367 -1.87652 -1.38957 0
M  V30 3820 C 377.348 -0.734358 -1.53431 0
M  V30 3821 O 378.533 -0.98911 -1.67123 0
M  V30 3822 C 375.663 -2.11396 -2.75552 0
M  V30 3823 C 374.617 -3.27243 -2.75855 0
M  V30 3824 C 373.943 -3.36382 -4.15633 0
M  V30 3825 C 375.243 -4.64622 -2.38587 0
M  V30 3826 H 376.937 -2.77887 -1.11442 0
M  V30 3827 H 374.483 -1.33707 -0.534655 0
M  V30 3828 H 376.436 -2.33189 -3.51 0
M  V30 3829 H 375.16 -1.17921 -3.04569 0
M  V30 3830 H 373.819 -3.05356 -2.02863 0
M  V30 3831 H 373.467 -2.40445 -4.41809 0
M  V30 3832 H 373.167 -4.14249 -4.1674 0
M  V30 3833 H 374.691 -3.60422 -4.92877 0
M  V30 3834 H 376.105 -4.86219 -3.03749 0
M  V30 3835 H 374.502 -5.45121 -2.50925 0
M  V30 3836 H 375.572 -4.66097 -1.33723 0
M  V30 3837 N 376.915 0.57481 -1.46744 0
M  V30 3838 C 378.326 1.15695 -1.46532 0
M  V30 3839 C 378.677 1.95068 -0.210425 0
M  V30 3840 O 377.802 2.05241 0.685944 0
M  V30 3841 C 378.397 2.1048 -2.65487 0
M  V30 3842 C 376.956 2.64002 -2.68291 0
M  V30 3843 C 376.103 1.40026 -2.39349 0
M  V30 3844 H 379.054 0.362325 -1.54509 0
M  V30 3845 H 379.075 2.94074 -2.41455 0
M  V30 3846 H 378.587 1.52683 -3.56805 0
M  V30 3847 H 376.688 3.25646 -1.81067 0
M  V30 3848 H 376.801 3.06197 -3.68483 0
M  V30 3849 H 375.165 1.70106 -1.89568 0
M  V30 3850 H 375.948 0.840485 -3.32852 0
M  V30 3851 N 378.394 1.34581 0.820102 0
M  V30 3852 C 379.344 1.22943 1.92013 0
M  V30 3853 C 380.328 0.127802 1.60392 0
M  V30 3854 O 381.52 0.357737 1.73347 0
M  V30 3855 C 378.649 0.989938 3.28717 0
M  V30 3856 C 377.735 2.13486 3.66449 0
M  V30 3857 N 378.126 3.38625 3.75722 0
M  V30 3858 C 376.424 2.04573 3.96315 0
M  V30 3859 C 377.125 4.13832 4.08801 0
M  V30 3860 N 376.101 3.42451 4.22171 0
M  V30 3861 H 379.903 2.17771 1.97365 0
M  V30 3862 H 377.417 1.2686 1.01392 0
M  V30 3863 H 379.414 0.887462 4.07345 0
M  V30 3864 H 378.074 0.0503691 3.24661 0
M  V30 3865 H 379.085 3.73143 3.59144 0
M  V30 3866 H 375.762 1.1839 4.00362 0
M  V30 3867 H 377.152 5.21909 4.23156 0
M  V30 3868 N 379.872 -1.04064 1.18357 0
M  V30 3869 C 380.82 -2.14187 0.907007 0
M  V30 3870 C 381.814 -1.68879 -0.132725 0
M  V30 3871 O 383.02 -1.79993 0.0154248 0
M  V30 3872 H 379.395 -0.699585 0.275835 0
M  V30 3873 H 381.366 -2.34711 1.84264 0
M  V30 3874 C 380.115 -3.44785 0.449254 0
M  V30 3875 H 379.438 -3.80058 1.24081 0
M  V30 3876 H 380.878 -4.22974 0.294737 0
M  V30 3877 C 379.337 -3.26391 -0.834909 0
M  V30 3878 O 379.867 -3.53973 -1.89911 0
M  V30 3879 N 378.073 -2.79726 -0.787523 0
M  V30 3880 H 377.62 -2.5748 0.0787347 0
M  V30 3881 H 377.578 -2.67798 -1.64716 0
M  V30 3882 N 381.35 -0.985608 -1.22978 0
M  V30 3883 C 382.575 -0.675254 -1.961 0
M  V30 3884 C 383 0.752154 -1.72407 0
M  V30 3885 O 382.358 1.5131 -0.998751 0
M  V30 3886 C 382.406 -0.977899 -3.47087 0
M  V30 3887 O 381.51 -0.072685 -4.12336 0
M  V30 3888 H 380.851 -0.253443 -0.613728 0
M  V30 3889 H 383.381 -1.32061 -1.56272 0
M  V30 3890 H 383.391 -0.916739 -3.97567 0
M  V30 3891 H 382.066 -2.01807 -3.63657 0
M  V30 3892 H 380.643 -0.188703 -3.72422 0
M  V30 3893 N 382.828 1.3818 -0.7579 0
M  V30 3894 C 383.758 2.33027 -0.148597 0
M  V30 3895 C 384.739 1.55085 0.69875 0
M  V30 3896 O 385.924 1.83384 0.639053 0
M  V30 3897 C 383.054 3.3928 0.742034 0
M  V30 3898 C 382.008 4.28 -0.00291946 0
M  V30 3899 C 381.334 5.25146 1.00625 0
M  V30 3900 C 382.634 5.08938 -1.17385 0
M  V30 3901 H 384.328 2.84231 -0.940909 0
M  V30 3902 H 381.874 1.36659 -0.453908 0
M  V30 3903 H 383.827 4.046 1.17799 0
M  V30 3904 H 382.551 2.86569 1.56671 0
M  V30 3905 H 381.21 3.64192 -0.419504 0
M  V30 3906 H 380.858 4.68721 1.8251 0
M  V30 3907 H 380.558 5.85361 0.512428 0
M  V30 3908 H 382.082 5.93342 1.44143 0
M  V30 3909 H 383.496 5.67474 -0.815224 0
M  V30 3910 H 381.893 5.7841 -1.59882 0
M  V30 3911 H 382.963 4.42424 -1.98468 0
M  V30 3912 N 384.306 0.507319 1.49211 0
M  V30 3913 C 385.254 -0.281364 2.30892 0
M  V30 3914 C 386.248 -0.95687 1.39787 0
M  V30 3915 O 387.454 -0.883838 1.56807 0
M  V30 3916 H 383.829 -0.109597 0.743971 0
M  V30 3917 H 385.8 0.42744 2.95323 0
M  V30 3918 C 384.549 -1.32918 3.21291 0
M  V30 3919 H 383.872 -0.818799 3.91326 0
M  V30 3920 H 385.312 -1.85288 3.81372 0
M  V30 3921 C 383.771 -2.35074 2.41333 0
M  V30 3922 O 384.301 -3.4108 2.12197 0
M  V30 3923 N 382.507 -2.07705 2.03241 0
M  V30 3924 H 382.054 -1.2152 2.27136 0
M  V30 3925 H 382.012 -2.76283 1.50051 0
M  V30 3926 N 385.784 -1.5574 0.241426 0
M  V30 3927 C 387.031 -1.9881 -0.384836 0
M  V30 3928 C 387.359 -1.12947 -1.58346 0
M  V30 3929 O 386.614 -0.178993 -1.9488 0
M  V30 3930 C 386.913 -3.47308 -0.843317 0
M  V30 3931 C 386.579 -4.50223 0.246946 0
M  V30 3932 C 385.241 -4.78088 0.546399 0
M  V30 3933 C 387.593 -5.11841 0.983282 0
M  V30 3934 C 384.921 -5.64846 1.58636 0
M  V30 3935 C 387.273 -5.99727 2.01272 0
M  V30 3936 C 385.937 -6.25927 2.31888 0
M  V30 3937 H 385.207 -0.727496 -0.140821 0
M  V30 3938 H 387.854 -1.8831 0.348106 0
M  V30 3939 H 386.159 -3.55112 -1.65537 0
M  V30 3940 H 387.856 -3.78017 -1.33806 0
M  V30 3941 H 384.446 -4.286 0.00340639 0
M  V30 3942 H 388.63 -4.90366 0.765182 0
M  V30 3943 H 383.886 -5.83403 1.82896 0
M  V30 3944 H 388.06 -6.46517 2.58823 0
M  V30 3945 H 385.687 -6.92949 3.12611 0
M  V30 3946 N 387.262 0.0317525 -1.57568 0
M  V30 3947 C 388.508 0.724175 -1.8943 0
M  V30 3948 C 388.841 1.75149 -0.838836 0
M  V30 3949 O 388.116 1.93948 0.146422 0
M  V30 3950 C 388.399 1.39615 -3.31933 0
M  V30 3951 C 388.252 0.382537 -4.4817 0
M  V30 3952 C 389.571 2.33084 -3.73309 0
M  V30 3953 H 386.69 0.261797 -0.688935 0
M  V30 3954 H 389.332 -0.013017 -1.89996 0
M  V30 3955 H 387.482 2.02451 -3.31581 0
M  V30 3956 H 389.154 -0.243689 -4.60656 0
M  V30 3957 H 387.397 -0.29844 -4.32772 0
M  V30 3958 H 388.068 0.891145 -5.44759 0
M  V30 3959 H 390.544 1.80295 -3.7501 0
M  V30 3960 H 389.42 2.77084 -4.73831 0
M  V30 3961 H 389.681 3.19643 -3.05419 0
M  V30 3962 N 388.74 1.54641 0.303973 0
M  V30 3963 C 389.987 1.7378 1.03955 0
M  V30 3964 C 390.315 0.521986 1.87365 0
M  V30 3965 O 389.57 -0.496099 1.89308 0
M  V30 3966 C 389.869 2.97753 1.97681 0
M  V30 3967 C 389.535 4.31671 1.30271 0
M  V30 3968 C 388.197 4.68075 1.11619 0
M  V30 3969 C 390.549 5.147 0.82055 0
M  V30 3970 C 387.877 5.8509 0.434304 0
M  V30 3971 C 390.229 6.32416 0.152395 0
M  V30 3972 C 388.893 6.67484 -0.0461067 0
M  V30 3973 H 388.163 0.635908 0.380398 0
M  V30 3974 H 390.81 1.88896 0.314718 0
M  V30 3975 H 389.115 2.77406 2.76682 0
M  V30 3976 H 390.812 3.09756 2.54661 0
M  V30 3977 H 387.402 4.03041 1.45795 0
M  V30 3978 H 391.586 4.87077 0.952374 0
M  V30 3979 H 386.842 6.10806 0.269495 0
M  V30 3980 H 391.016 6.96023 -0.229126 0
M  V30 3981 H 388.643 7.58011 -0.576494 0
M  V30 3982 N 390.218 -0.567019 1.47046 0
M  V30 3983 C 391.168 -1.67018 1.55207 0
M  V30 3984 C 392.152 -1.55543 0.411714 0
M  V30 3985 O 393.344 -1.64192 0.661064 0
M  V30 3986 C 390.473 -3.05801 1.56014 0
M  V30 3987 C 389.559 -3.22515 2.75399 0
M  V30 3988 N 389.95 -3.09329 4.00186 0
M  V30 3989 C 388.248 -3.53493 2.71954 0
M  V30 3990 C 388.949 -3.2847 4.80086 0
M  V30 3991 N 387.925 -3.54352 4.12233 0
M  V30 3992 H 391.727 -1.55377 2.4947 0
M  V30 3993 H 389.241 -0.771503 1.42904 0
M  V30 3994 H 391.238 -3.84996 1.59949 0
M  V30 3995 H 389.898 -3.18561 0.628396 0
M  V30 3996 H 390.909 -2.86863 4.31196 0
M  V30 3997 H 387.586 -3.7284 1.87873 0
M  V30 3998 H 388.976 -3.23326 5.88991 0
M  V30 3999 N 391.696 -1.35014 -0.812953 0
M  V30 4000 C 392.944 -1.27678 -1.56661 0
M  V30 4001 C 393.265 0.150359 -1.94419 0
M  V30 4002 O 392.535 1.08532 -1.63088 0
M  V30 4003 H 391.115 -0.469602 -0.580933 0
M  V30 4004 H 393.777 -1.69043 -0.970076 0
M  V30 4005 H 392.873 -1.88833 -2.48492 0
M  V30 4006 N 393.175 1.03435 -1.18907 0
M  V30 4007 C 394.423 1.76394 -0.986382 0
M  V30 4008 C 394.744 1.88883 0.484567 0
M  V30 4009 O 394.014 1.41843 1.3512 0
M  V30 4010 H 392.594 0.65344 -0.361975 0
M  V30 4011 H 395.256 1.248 -1.49703 0
M  V30 4012 H 394.352 2.77424 -1.42978 0
M  V30 4013 N 394.653 0.992116 1.22453 0
M  V30 4014 C 395.878 0.685644 1.95739 0
M  V30 4015 C 396.303 -0.743 1.72804 0
M  V30 4016 O 395.661 -1.50778 1.00676 0
M  V30 4017 C 395.709 0.996293 3.46564 0
M  V30 4018 O 394.813 0.0945512 4.12292 0
M  V30 4019 H 394.154 0.256694 0.612376 0
M  V30 4020 H 396.684 1.32888 1.5557 0
M  V30 4021 H 396.694 0.93781 3.97076 0
M  V30 4022 H 395.369 2.03733 3.62582 0
M  V30 4023 H 393.946 0.208451 3.72317 0
M  V30 4024 N 396.131 -1.37776 0.765217 0
M  V30 4025 C 397.379 -1.99454 0.325943 0
M  V30 4026 C 397.7 -1.61049 -1.09947 0
M  V30 4027 O 396.97 -0.872821 -1.75381 0
M  V30 4028 H 395.55 -0.737697 0.117525 0
M  V30 4029 H 398.212 -1.68359 0.981895 0
M  V30 4030 H 397.308 -3.09547 0.398353 0
M  V30 4031 N 397.609 -0.515225 -1.4894 0
M  V30 4032 C 398.834 0.022727 -2.07388 0
M  V30 4033 C 399.259 1.2876 -1.37122 0
M  V30 4034 O 398.617 1.76067 -0.432431 0
M  V30 4035 C 398.665 0.244869 -3.59768 0
M  V30 4036 O 397.769 1.31667 -3.90817 0
M  V30 4037 H 397.11 -0.0325506 -0.663202 0
M  V30 4038 H 399.64 -0.718918 -1.91553 0
M  V30 4039 H 399.65 0.47205 -4.0526 0
M  V30 4040 H 398.325 -0.679194 -4.10317 0
M  V30 4041 H 396.902 1.07331 -3.5712 0
M  V30 4042 N 399.087 1.5561 -0.249682 0
M  V30 4043 C 400.315 2.03411 0.378352 0
M  V30 4044 C 400.73 1.12886 1.51335 0
M  V30 4045 O 400.087 0.143833 1.81932 0
M  V30 4046 C 400.138 3.50537 0.88351 0
M  V30 4047 O 399.859 4.37614 -0.20626 0
M  V30 4048 C 401.36 4.14113 1.58195 0
M  V30 4049 H 398.58 0.664994 0.08958 0
M  V30 4050 H 401.124 2.01044 -0.374357 0
M  V30 4051 H 399.279 3.5343 1.58639 0
M  V30 4052 H 399.693 5.24199 0.177782 0
M  V30 4053 H 401.167 5.18741 1.8871 0
M  V30 4054 H 401.644 3.60767 2.50487 0
M  V30 4055 H 402.25 4.15151 0.923573 0
M  V30 4056 N 400.565 -0.0233959 1.57583 0
M  V30 4057 C 401.528 -1.00693 2.05897 0
M  V30 4058 C 402.528 -1.28693 0.964092 0
M  V30 4059 O 403.718 -1.23602 1.22753 0
M  V30 4060 C 400.85 -2.33825 2.4807 0
M  V30 4061 H 402.043 -0.589476 2.9405 0
M  V30 4062 H 399.596 -0.270354 1.53944 0
M  V30 4063 H 400.331 -2.80307 1.6309 0
M  V30 4064 H 400.116 -2.1483 3.2801 0
M  V30 4065 H 401.606 -3.04426 2.85857 0
M  V30 4066 N 402.043 -1.548 -0.295768 0
M  V30 4067 C 402.975 -1.82492 -1.3867 0
M  V30 4068 C 403.988 -0.708134 -1.46592 0
M  V30 4069 O 405.177 -0.985686 -1.48817 0
M  V30 4070 C 402.277 -1.95256 -2.76999 0
M  V30 4071 C 401.45 -3.25709 -2.91946 0
M  V30 4072 C 400.509 -3.28824 -4.10806 0
M  V30 4073 O 399.535 -4.02328 -4.02643 0
M  V30 4074 N 400.737 -2.5459 -5.21694 0
M  V30 4075 H 403.502 -2.76646 -1.15269 0
M  V30 4076 H 401.063 -1.54438 -0.485849 0
M  V30 4077 H 403.055 -1.94736 -3.54768 0
M  V30 4078 H 401.625 -1.08072 -2.93324 0
M  V30 4079 H 400.845 -3.38959 -2.01247 0
M  V30 4080 H 402.133 -4.11786 -2.98847 0
M  V30 4081 H 401.531 -1.94512 -5.31208 0
M  V30 4082 H 400.088 -2.59818 -5.97778 0
M  V30 4083 N 403.521 0.559213 -1.47345 0
M  V30 4084 C 404.431 1.69388 -1.62311 0
M  V30 4085 C 405.447 1.6648 -0.505993 0
M  V30 4086 O 406.623 1.85964 -0.773262 0
M  V30 4087 C 403.688 3.05894 -1.63185 0
M  V30 4088 C 402.749 3.19885 -2.86307 0
M  V30 4089 C 401.982 4.49879 -2.87131 0
M  V30 4090 O 402.205 5.35217 -1.97229 0
M  V30 4091 O 401.139 4.67618 -3.78968 0
M  V30 4092 H 404.965 1.59706 -2.58317 0
M  V30 4093 H 402.55 0.728989 -1.30407 0
M  V30 4094 H 404.432 3.87133 -1.66451 0
M  V30 4095 H 403.107 3.15964 -0.70345 0
M  V30 4096 H 402.014 2.38052 -2.88587 0
M  V30 4097 H 403.347 3.14718 -3.78435 0
M  V30 4098 N 404.999 1.35443 0.805782 0
M  V30 4099 C 406.248 1.28097 1.55801 0
M  V30 4100 C 406.561 -0.142428 1.95081 0
M  V30 4101 O 407.767 -0.33817 2.69386 0
M  V30 4102 C 406.223 2.24653 2.81174 0
M  V30 4103 C 405.831 3.72342 2.49129 0
M  V30 4104 C 407.575 2.2625 3.59181 0
M  V30 4105 C 405.482 4.60719 3.70799 0
M  V30 4106 H 404.412 0.475937 0.584808 0
M  V30 4107 H 407.063 1.60712 0.885661 0
M  V30 4108 H 405.445 1.85011 3.50124 0
M  V30 4109 H 406.619 4.20624 1.88181 0
M  V30 4110 H 404.934 3.73361 1.84366 0
M  V30 4111 H 407.531 2.89495 4.49552 0
M  V30 4112 H 407.874 1.26647 3.96568 0
M  V30 4113 H 408.407 2.64426 2.97193 0
M  V30 4114 H 405.146 5.61324 3.3852 0
M  V30 4115 H 404.666 4.17163 4.3097 0
M  V30 4116 H 406.345 4.76182 4.38018 0
M  V30 4117 N 406.477 -1.02803 1.19454 0
M  V30 4118 C 407.424 -2.11099 0.933046 0
M  V30 4119 C 408.394 -1.65571 -0.132447 0
M  V30 4120 O 409.579 -1.90797 0.00987576 0
M  V30 4121 C 406.719 -3.41763 0.478747 0
M  V30 4122 C 405.832 -4.00833 1.6111 0
M  V30 4123 C 404.967 -5.19511 1.10825 0
M  V30 4124 C 404.006 -5.70639 2.21445 0
M  V30 4125 N 403.143 -6.80589 1.72461 0
M  V30 4126 H 407.983 -2.32804 1.86028 0
M  V30 4127 H 405.52 -1.14179 0.927441 0
M  V30 4128 H 407.478 -4.16736 0.196745 0
M  V30 4129 H 406.108 -3.20166 -0.411493 0
M  V30 4130 H 405.16 -3.23066 2.00829 0
M  V30 4131 H 406.472 -4.34794 2.4445 0
M  V30 4132 H 405.626 -6.01645 0.781533 0
M  V30 4133 H 404.365 -4.87086 0.244606 0
M  V30 4134 H 403.37 -4.87116 2.54947 0
M  V30 4135 H 404.595 -6.05102 3.08267 0
M  V30 4136 H 402.541 -6.50016 0.884056 0
M  V30 4137 H 402.458 -7.13681 2.49389 0
M  V30 4138 H 403.726 -7.66317 1.42755 0
M  V30 4139 N 407.956 -0.998596 -1.21925 0
M  V30 4140 C 409.233 -0.593401 -1.86382 0
M  V30 4141 C 409.613 0.92916 -1.89552 0
M  V30 4142 O 408.961 1.81347 -1.39017 0
M  V30 4143 C 409.171 -1.22039 -3.26967 0
M  V30 4144 C 410.519 -1.32449 -4.03413 0
M  V30 4145 O 411.543 -1.17522 -3.36254 0
M  V30 4146 O 410.402 -1.56395 -5.23644 0
M  V30 4147 H 407.496 -0.202385 -0.801854 0
M  V30 4148 H 410.042 -1.09484 -1.29659 0
M  V30 4149 H 408.814 -2.26158 -3.19325 0
M  V30 4150 H 408.437 -0.704906 -3.91301 0
M  V30 4151 N 409.434 1.37368 -0.772513 0
M  V30 4152 C 410.659 2.0447 -0.347386 0
M  V30 4153 C 411.084 1.57882 1.0225 0
M  V30 4154 O 410.442 0.73941 1.65537 0
M  V30 4155 C 410.49 3.58369 -0.400479 0
M  V30 4156 O 409.594 4.0803 0.598789 0
M  V30 4157 H 408.935 0.646773 -0.15027 0
M  V30 4158 H 411.465 1.75667 -1.04892 0
M  V30 4159 H 411.475 4.07183 -0.258045 0
M  V30 4160 H 410.15 3.91633 -1.39986 0
M  V30 4161 H 408.727 3.70534 0.419411 0
M  V30 4162 N 410.912 0.523116 1.48665 0
M  V30 4163 C 412.158 -0.0134963 2.02796 0
M  V30 4164 C 412.491 -1.34582 1.40004 0
M  V30 4165 O 411.766 -1.86756 0.543381 0
M  V30 4166 C 412.049 -0.14276 3.59817 0
M  V30 4167 C 411.902 1.21425 4.331 0
M  V30 4168 C 413.221 -0.872856 4.31357 0
M  V30 4169 H 410.34 -0.00343074 0.736992 0
M  V30 4170 H 412.982 0.678816 1.7746 0
M  V30 4171 H 411.132 -0.732401 3.81534 0
M  V30 4172 H 412.804 1.84447 4.2282 0
M  V30 4173 H 411.047 1.79791 3.94788 0
M  V30 4174 H 411.718 1.07687 5.41394 0
M  V30 4175 H 414.194 -0.372555 4.14429 0
M  V30 4176 H 413.07 -0.932185 5.40927 0
M  V30 4177 H 413.331 -1.92161 3.98154 0
M  V30 4178 N 412.39 -1.55475 0.257931 0
M  V30 4179 C 413.615 -2.04064 -0.370488 0
M  V30 4180 C 414.04 -1.13565 -1.49948 0
M  V30 4181 O 413.398 -0.130781 -1.80828 0
M  V30 4182 C 413.446 -3.50554 -0.845237 0
M  V30 4183 O 412.55 -3.63173 -1.95394 0
M  V30 4184 H 411.891 -0.659257 -0.0792243 0
M  V30 4185 H 414.421 -2.00903 0.387212 0
M  V30 4186 H 414.431 -3.91588 -1.14555 0
M  V30 4187 H 413.106 -4.15896 -0.0191259 0
M  V30 4188 H 411.683 -3.34039 -1.65748 0
M  V30 4189 N 413.868 0.0150385 -1.57593 0
M  V30 4190 C 415.098 0.713359 -1.93894 0
M  V30 4191 C 415.506 1.68663 -0.857289 0
M  V30 4192 O 414.849 1.82876 0.173788 0
M  V30 4193 C 414.911 1.51348 -3.26089 0
M  V30 4194 C 414.575 0.703451 -4.51554 0
M  V30 4195 C 415.572 -0.00237924 -5.199 0
M  V30 4196 C 413.257 0.653854 -4.98026 0
M  V30 4197 C 415.251 -0.746955 -6.33008 0
M  V30 4198 C 412.938 -0.0944578 -6.11027 0
M  V30 4199 C 413.936 -0.793609 -6.78374 0
M  V30 4200 O 413.624 -1.52974 -7.89211 0
M  V30 4201 H 413.356 0.204637 -0.644282 0
M  V30 4202 H 415.91 -0.0276411 -2.05381 0
M  V30 4203 H 414.14 2.29862 -3.10967 0
M  V30 4204 H 415.829 2.09572 -3.47612 0
M  V30 4205 H 416.595 0.0268803 -4.84993 0
M  V30 4206 H 412.474 1.18756 -4.45441 0
M  V30 4207 H 416.018 -1.2932 -6.85509 0
M  V30 4208 H 411.915 -0.125591 -6.45378 0
M  V30 4209 H 412.683 -1.44488 -8.05646 0
M  V30 4210 N 415.346 1.54954 0.287554 0
M  V30 4211 C 416.594 1.74528 1.01904 0
M  V30 4212 C 416.915 0.541349 1.87335 0
M  V30 4213 O 416.185 -0.444108 1.908 0
M  V30 4214 H 414.765 0.643576 0.379235 0
M  V30 4215 H 417.427 1.92333 0.315294 0
M  V30 4216 H 416.523 2.64015 1.6644 0
M  V30 4217 N 416.824 -0.551391 1.4764 0
M  V30 4218 C 418.07 -1.31024 1.54792 0
M  V30 4219 C 418.403 -1.9304 0.211967 0
M  V30 4220 O 417.678 -1.78175 -0.77999 0
M  V30 4221 C 417.961 -2.41593 2.67029 0
M  V30 4222 C 417.814 -1.84408 4.10261 0
M  V30 4223 C 419.133 -3.43488 2.75143 0
M  V30 4224 H 416.252 -0.475031 0.563485 0
M  V30 4225 H 418.894 -0.616454 1.79722 0
M  V30 4226 H 417.044 -3.00772 2.45904 0
M  V30 4227 H 418.716 -1.29445 4.42766 0
M  V30 4228 H 416.959 -1.15051 4.18265 0
M  V30 4229 H 417.63 -2.64367 4.84576 0
M  V30 4230 H 420.106 -2.94236 2.94218 0
M  V30 4231 H 418.982 -4.18274 3.55441 0
M  V30 4232 H 419.243 -4.02703 1.82435 0
M  V30 4233 N 418.302 -1.35869 -0.798587 0
M  V30 4234 C 419.548 -1.2978 -1.55836 0
M  V30 4235 C 419.881 0.125322 -1.93795 0
M  V30 4236 O 419.156 1.07658 -1.61987 0
M  V30 4237 C 419.439 -2.21188 -2.84162 0
M  V30 4238 C 419.292 -3.72155 -2.52628 0
M  V30 4239 C 420.611 -2.11545 -3.85923 0
M  V30 4240 H 417.73 -0.472769 -0.565383 0
M  V30 4241 H 420.372 -1.66341 -0.918192 0
M  V30 4242 H 418.522 -1.90139 -3.38791 0
M  V30 4243 H 420.194 -4.13682 -2.04121 0
M  V30 4244 H 418.437 -3.92042 -1.85704 0
M  V30 4245 H 419.108 -4.31511 -3.44242 0
M  V30 4246 H 421.584 -2.38855 -3.40716 0
M  V30 4247 H 420.46 -2.77688 -4.73477 0
M  V30 4248 H 420.721 -1.09987 -4.282 0
M  V30 4249 N 419.78 1.02168 -1.19998 0
M  V30 4250 C 420.727 2.10601 -0.944228 0
M  V30 4251 C 421.697 1.65639 0.123664 0
M  V30 4252 O 422.882 1.9079 -0.0199941 0
M  V30 4253 C 420.022 3.41504 -0.496865 0
M  V30 4254 C 419.135 3.99973 -1.63234 0
M  V30 4255 C 418.27 5.18915 -1.13579 0
M  V30 4256 C 417.309 5.69456 -2.24468 0
M  V30 4257 N 416.446 6.79665 -1.76068 0
M  V30 4258 H 421.286 2.31814 -1.8726 0
M  V30 4259 H 418.823 1.13686 -0.933483 0
M  V30 4260 H 420.781 4.16626 -0.218843 0
M  V30 4261 H 419.411 3.2038 0.394508 0
M  V30 4262 H 418.463 3.21997 -2.0254 0
M  V30 4263 H 419.775 4.33492 -2.46752 0
M  V30 4264 H 418.929 6.01222 -0.813429 0
M  V30 4265 H 417.668 4.8695 -0.270434 0
M  V30 4266 H 416.673 4.85757 -2.57526 0
M  V30 4267 H 417.898 6.03459 -3.11472 0
M  V30 4268 H 415.844 6.49538 -0.918516 0
M  V30 4269 H 415.761 7.12349 -2.5317 0
M  V30 4270 H 417.029 7.65549 -1.46817 0
M  V30 4271 N 421.258 1.00505 1.21394 0
M  V30 4272 C 422.191 0.51032 2.22421 0
M  V30 4273 C 423.169 -0.436 1.56645 0
M  V30 4274 O 424.353 -0.358709 1.85055 0
M  V30 4275 C 421.48 -0.258733 3.3771 0
M  V30 4276 C 420.526 0.635395 4.2174 0
M  V30 4277 S 421.359 2.09783 4.92698 0
M  V30 4278 C 422.515 1.33862 6.11418 0
M  V30 4279 H 422.748 1.36637 2.64041 0
M  V30 4280 H 420.281 0.812991 1.31262 0
M  V30 4281 H 422.239 -0.696372 4.0455 0
M  V30 4282 H 420.9 -1.0902 2.94573 0
M  V30 4283 H 420.093 0.0430189 5.03982 0
M  V30 4284 H 419.695 1.01031 3.60095 0
M  V30 4285 H 421.987 0.612541 6.74725 0
M  V30 4286 H 422.93 2.13675 6.75092 0
M  V30 4287 H 423.338 0.846568 5.58116 0
M  V30 4288 N 422.737 -1.36956 0.779787 0
M  V30 4289 C 423.685 -2.32053 0.15942 0
M  V30 4290 C 424.679 -1.55333 -0.675878 0
M  V30 4291 O 425.885 -1.70668 -0.57204 0
M  V30 4292 H 422.26 -0.751286 0.0327707 0
M  V30 4293 H 424.231 -2.8195 0.977078 0
M  V30 4294 C 422.98 -3.40602 -0.698977 0
M  V30 4295 H 422.303 -3.99746 -0.0655966 0
M  V30 4296 H 423.743 -4.09486 -1.09989 0
M  V30 4297 C 422.202 -2.81359 -1.85307 0
M  V30 4298 O 422.732 -2.72751 -2.94906 0
M  V30 4299 N 420.938 -2.38786 -1.65619 0
M  V30 4300 H 420.485 -2.45987 -0.764725 0
M  V30 4301 H 420.443 -1.99493 -2.43002 0
M  V30 4302 N 424.215 -0.530993 -1.48385 0
M  V30 4303 C 425.464 0.00474348 -2.01699 0
M  V30 4304 C 425.777 1.35227 -1.41325 0
M  V30 4305 O 426.983 1.97643 -1.86144 0
M  V30 4306 C 425.439 0.0588473 -3.59852 0
M  V30 4307 C 425.047 -1.28385 -4.2921 0
M  V30 4308 C 426.791 0.543358 -4.21008 0
M  V30 4309 C 424.698 -1.19028 -5.79298 0
M  V30 4310 H 423.628 0.00554317 -0.75398 0
M  V30 4311 H 426.279 -0.674924 -1.70637 0
M  V30 4312 H 424.661 0.803612 -3.8776 0
M  V30 4313 H 425.835 -2.04426 -4.12973 0
M  V30 4314 H 424.15 -1.70418 -3.7993 0
M  V30 4315 H 426.747 0.631351 -5.3096 0
M  V30 4316 H 427.09 1.54937 -3.86394 0
M  V30 4317 H 427.623 -0.145754 -3.97533 0
M  V30 4318 H 424.362 -2.17147 -6.18488 0
M  V30 4319 H 423.882 -0.471246 -5.97946 0
M  V30 4320 H 425.561 -0.881365 -6.40969 0
M  V30 4321 N 425.693 1.55336 -0.266172 0
M  V30 4322 C 426.97 1.91372 0.404486 0
M  V30 4323 C 427.35 1.18935 1.74407 0
M  V30 4324 O 426.698 0.3132 2.26343 0
M  V30 4325 C 426.908 3.44581 0.553593 0
M  V30 4326 C 428.256 4.16196 0.840618 0
M  V30 4327 O 429.28 3.50426 0.638739 0
M  V30 4328 O 428.139 5.32567 1.22618 0
M  V30 4329 H 425.233 0.797194 0.220025 0
M  V30 4330 H 427.779 1.66813 -0.311664 0
M  V30 4331 H 426.551 3.89357 -0.389498 0
M  V30 4332 H 426.174 3.75065 1.31955 0
M  V30 4333 N 427.171 -0.0066808 1.57599 0
M  V30 4334 C 428.399 -0.704087 1.94551 0
M  V30 4335 C 428.814 -1.67677 0.867746 0
M  V30 4336 O 428.171 -1.8185 -0.153925 0
M  V30 4337 C 428.222 -1.44177 3.31505 0
M  V30 4338 O 427.943 -0.508097 4.35144 0
M  V30 4339 C 429.444 -2.23429 3.82876 0
M  V30 4340 H 426.664 -0.196523 0.641576 0
M  V30 4341 H 429.208 0.042453 2.04456 0
M  V30 4342 H 427.363 -2.13999 3.22929 0
M  V30 4343 H 427.777 -1.02782 5.14331 0
M  V30 4344 H 429.251 -2.70552 4.8115 0
M  V30 4345 H 429.728 -3.05818 3.15233 0
M  V30 4346 H 430.334 -1.58636 3.94607 0
M  V30 4347 N 428.649 -1.55105 -0.279332 0
M  V30 4348 C 429.926 -1.66119 -1.03267 0
M  V30 4349 C 430.306 -0.523525 -2.04505 0
M  V30 4350 O 429.654 0.477194 -2.23462 0
M  V30 4351 C 429.864 -3.05067 -1.69515 0
M  V30 4352 C 431.212 -3.62606 -2.20912 0
M  V30 4353 O 432.236 -3.07659 -1.79512 0
M  V30 4354 O 431.095 -4.58861 -2.96831 0
M  V30 4355 H 428.189 -0.674429 -0.478618 0
M  V30 4356 H 430.735 -1.67446 -0.275694 0
M  V30 4357 H 429.507 -3.79311 -0.9612 0
M  V30 4358 H 429.13 -3.07611 -2.51915 0
M  V30 4359 N 430.127 0.543554 -1.4793 0
M  V30 4360 C 431.355 1.32516 -1.58894 0
M  V30 4361 C 431.77 1.87215 -0.244131 0
M  V30 4362 O 431.127 1.65709 0.764652 0
M  V30 4363 C 431.178 2.48554 -2.62494 0
M  V30 4364 O 430.899 1.96112 -3.91755 0
M  V30 4365 C 432.4 3.40572 -2.8377 0
M  V30 4366 H 429.62 0.403472 -0.536145 0
M  V30 4367 H 432.164 0.657106 -1.93655 0
M  V30 4368 H 430.319 3.1127 -2.30629 0
M  V30 4369 H 430.733 2.71967 -4.4848 0
M  V30 4370 H 432.207 4.18375 -3.60093 0
M  V30 4371 H 432.684 3.94965 -1.92092 0
M  V30 4372 H 433.29 2.8366 -3.16887 0
M  V30 4373 N 431.605 1.3629 0.791371 0
M  V30 4374 C 432.537 1.26321 1.91248 0
M  V30 4375 C 433.55 0.18313 1.61767 0
M  V30 4376 O 434.739 0.437682 1.73051 0
M  V30 4377 C 431.839 0.925901 3.26007 0
M  V30 4378 C 431.012 2.10746 3.83281 0
M  V30 4379 C 430.071 1.74352 4.96475 0
M  V30 4380 O 429.097 2.46416 5.13096 0
M  V30 4381 N 430.299 0.676058 5.7655 0
M  V30 4382 H 433.064 2.22915 2.00323 0
M  V30 4383 H 430.625 1.29659 0.969546 0
M  V30 4384 H 432.617 0.663636 3.99222 0
M  V30 4385 H 431.187 0.0491581 3.12561 0
M  V30 4386 H 430.407 2.53264 3.02077 0
M  V30 4387 H 431.695 2.8969 4.18279 0
M  V30 4388 H 431.093 0.0776467 5.65647 0
M  V30 4389 H 429.65 0.473612 6.50077 0
M  V30 4390 N 433.083 -1.0153 1.20538 0
M  V30 4391 C 434.329 -1.75517 1.02787 0
M  V30 4392 C 434.684 -1.87411 -0.435289 0
M  V30 4393 O 433.977 -1.38982 -1.31889 0
M  V30 4394 C 434.171 -3.17213 1.64654 0
M  V30 4395 C 434 -3.19134 3.16834 0
M  V30 4396 C 432.77 -3.26301 3.85818 0
M  V30 4397 C 434.968 -3.05077 4.14044 0
M  V30 4398 N 432.95 -3.17739 5.25276 0
M  V30 4399 C 434.321 -3.04299 5.40187 0
M  V30 4400 C 436.376 -2.89303 4.05226 0
M  V30 4401 C 435.079 -2.89365 6.58529 0
M  V30 4402 C 437.105 -2.75723 5.23193 0
M  V30 4403 C 436.467 -2.75612 6.48242 0
M  V30 4404 H 432.566 -0.652919 0.430373 0
M  V30 4405 H 435.15 -1.20755 1.52729 0
M  V30 4406 H 433.321 -3.70266 1.17294 0
M  V30 4407 H 435.053 -3.79637 1.40208 0
M  V30 4408 H 431.808 -3.33078 3.36684 0
M  V30 4409 H 432.232 -3.16829 5.98288 0
M  V30 4410 H 436.874 -2.88201 3.09354 0
M  V30 4411 H 434.592 -2.89216 7.54573 0
M  V30 4412 H 438.178 -2.64533 5.18183 0
M  V30 4413 H 437.058 -2.65224 7.37988 0
M  V30 4414 N 434.561 -1.01147 -1.20859 0
M  V30 4415 C 435.524 -0.582224 -2.21682 0
M  V30 4416 C 436.524 0.344887 -1.57058 0
M  V30 4417 O 437.714 0.134281 -1.73682 0
M  V30 4418 C 434.846 0.150496 -3.40568 0
M  V30 4419 H 436.039 -1.47408 -2.61172 0
M  V30 4420 H 433.592 -0.800695 -1.34233 0
M  V30 4421 H 434.327 1.0575 -3.06574 0
M  V30 4422 H 434.112 -0.515444 -3.88697 0
M  V30 4423 H 435.602 0.438344 -4.15293 0
M  V30 4424 N 436.039 1.36541 -0.78704 0
M  V30 4425 C 437.267 2.03561 -0.370199 0
M  V30 4426 C 437.682 1.59347 1.01263 0
M  V30 4427 O 437.039 0.781781 1.64907 0
M  V30 4428 C 437.09 3.59033 -0.421614 0
M  V30 4429 O 436.811 4.01634 -1.7499 0
M  V30 4430 C 438.312 4.433 0.00489763 0
M  V30 4431 H 435.532 0.653346 -0.152904 0
M  V30 4432 H 438.076 1.74566 -1.06522 0
M  V30 4433 H 436.231 3.86746 0.224971 0
M  V30 4434 H 436.645 4.96217 -1.69909 0
M  V30 4435 H 438.119 5.51939 -0.0822184 0
M  V30 4436 H 438.596 4.26285 1.05723 0
M  V30 4437 H 439.202 4.20843 -0.614085 0
M  V30 4438 N 437.518 0.538854 1.48102 0
M  V30 4439 C 438.764 0.0161732 2.03394 0
M  V30 4440 C 439.119 -1.31154 1.40771 0
M  V30 4441 O 438.412 -1.83613 0.547421 0
M  V30 4442 C 438.606 -0.153808 3.57069 0
M  V30 4443 C 438.435 1.15588 4.34591 0
M  V30 4444 C 437.205 1.71818 4.75191 0
M  V30 4445 C 439.403 2.06867 4.70861 0
M  V30 4446 N 437.385 2.96983 5.37284 0
M  V30 4447 C 438.756 3.16609 5.33066 0
M  V30 4448 C 440.811 2.07085 4.52791 0
M  V30 4449 C 439.514 4.26645 5.79109 0
M  V30 4450 C 441.54 3.16121 4.99821 0
M  V30 4451 C 440.902 4.24582 5.62058 0
M  V30 4452 H 437.001 0.0476346 0.780548 0
M  V30 4453 H 439.585 0.722094 1.80815 0
M  V30 4454 H 437.756 -0.828825 3.79454 0
M  V30 4455 H 439.488 -0.676896 3.98999 0
M  V30 4456 H 436.243 1.25845 4.56574 0
M  V30 4457 H 436.667 3.60732 5.72889 0
M  V30 4458 H 441.309 1.24522 4.04047 0
M  V30 4459 H 439.027 5.0998 6.26854 0
M  V30 4460 H 442.613 3.17355 4.87624 0
M  V30 4461 H 441.493 5.07562 5.97788 0
M  V30 4462 N 438.996 -1.55193 0.274407 0
M  V30 4463 C 439.906 -2.26164 -0.623473 0
M  V30 4464 C 440.922 -1.28729 -1.17068 0
M  V30 4465 O 442.098 -1.61663 -1.20112 0
M  V30 4466 C 439.163 -2.96833 -1.7914 0
M  V30 4467 C 438.224 -4.09745 -1.28093 0
M  V30 4468 C 437.457 -4.77034 -2.3932 0
M  V30 4469 O 437.68 -4.4353 -3.5866 0
M  V30 4470 O 436.614 -5.64996 -2.07516 0
M  V30 4471 H 440.44 -3.03661 -0.0485661 0
M  V30 4472 H 438.025 -1.49341 0.0418382 0
M  V30 4473 H 439.907 -3.41248 -2.4724 0
M  V30 4474 H 438.582 -2.22253 -2.35341 0
M  V30 4475 H 437.489 -3.69787 -0.566416 0
M  V30 4476 H 438.822 -4.86224 -0.764683 0
M  V30 4477 N 440.474 -0.00167713 -1.576 0
M  V30 4478 C 441.722 0.681471 -1.90264 0
M  V30 4479 C 442.043 1.7422 -0.875924 0
M  V30 4480 O 441.313 1.95709 0.0864412 0
M  V30 4481 H 439.893 0.254696 -0.702239 0
M  V30 4482 H 442.555 -0.0429996 -1.94853 0
M  V30 4483 H 441.651 1.15166 -2.90075 0
M  V30 4484 N 441.952 1.55251 0.271103 0
M  V30 4485 C 443.198 1.76207 1.00394 0
M  V30 4486 C 443.531 0.562604 1.85872 0
M  V30 4487 O 442.806 -0.439785 1.89463 0
M  V30 4488 C 443.089 3.06828 1.8849 0
M  V30 4489 C 442.942 4.37134 1.05992 0
M  V30 4490 C 444.261 3.33503 2.87165 0
M  V30 4491 H 441.38 0.641086 0.363562 0
M  V30 4492 H 444.022 1.87982 0.276189 0
M  V30 4493 H 442.172 2.96921 2.5054 0
M  V30 4494 H 443.844 4.59001 0.459978 0
M  V30 4495 H 442.087 4.32275 0.363443 0
M  V30 4496 H 442.758 5.2486 1.70955 0
M  V30 4497 H 445.234 3.43215 2.3525 0
M  V30 4498 H 444.11 4.2616 3.45946 0
M  V30 4499 H 444.371 2.53235 3.62387 0
M  V30 4500 N 443.43 -0.535701 1.48216 0
M  V30 4501 C 444.36 -1.65014 1.65204 0
M  V30 4502 C 445.341 -1.62554 0.501011 0
M  V30 4503 O 446.526 -1.7984 0.732886 0
M  V30 4504 C 443.656 -3.03616 1.68626 0
M  V30 4505 C 442.61 -3.20932 2.83172 0
M  V30 4506 C 441.936 -4.60537 2.71679 0
M  V30 4507 C 443.236 -3.04249 4.24535 0
M  V30 4508 H 444.93 -1.51053 2.58502 0
M  V30 4509 H 442.476 -0.725262 1.24402 0
M  V30 4510 H 444.429 -3.81446 1.79099 0
M  V30 4511 H 443.153 -3.18587 0.719026 0
M  V30 4512 H 441.812 -2.45517 2.72244 0
M  V30 4513 H 441.46 -4.72336 1.72937 0
M  V30 4514 H 441.16 -4.73069 3.48538 0
M  V30 4515 H 442.684 -5.40475 2.84112 0
M  V30 4516 H 444.098 -3.71877 4.36326 0
M  V30 4517 H 442.495 -3.28278 5.02348 0
M  V30 4518 H 443.565 -2.00739 4.41397 0
M  V30 4519 N 444.908 -1.36708 -0.784132 0
M  V30 4520 C 445.856 -1.31533 -1.91838 0
M  V30 4521 C 446.85 -0.206205 -1.6814 0
M  V30 4522 O 448.056 -0.373519 -1.76082 0
M  V30 4523 H 444.431 -0.409613 -0.630651 0
M  V30 4524 H 446.402 -2.2731 -1.9332 0
M  V30 4525 C 445.151 -1.12679 -3.28936 0
M  V30 4526 H 444.474 -1.97274 -3.4774 0
M  V30 4527 H 445.914 -1.13106 -4.08636 0
M  V30 4528 C 444.373 0.168281 -3.36479 0
M  V30 4529 O 444.903 1.15625 -3.84699 0
M  V30 4530 N 443.109 0.214762 -2.89805 0
M  V30 4531 H 442.656 -0.589852 -2.50756 0
M  V30 4532 H 442.614 1.08094 -2.95234 0
M  V30 4533 N 446.386 1.0089 -1.21074 0
M  V30 4534 C 447.616 1.77933 -1.04993 0
M  V30 4535 C 448.024 1.84847 0.403495 0
M  V30 4536 O 447.367 1.30606 1.29181 0
M  V30 4537 C 447.429 3.23541 -1.56722 0
M  V30 4538 C 447.093 3.40214 -3.05129 0
M  V30 4539 C 448.09 3.2881 -4.02716 0
M  V30 4540 C 445.775 3.65781 -3.44252 0
M  V30 4541 C 447.769 3.42732 -5.37414 0
M  V30 4542 C 445.456 3.79346 -4.79103 0
M  V30 4543 C 446.454 3.67827 -5.75493 0
M  V30 4544 O 446.142 3.80965 -7.07899 0
M  V30 4545 H 445.874 0.566157 -0.369381 0
M  V30 4546 H 448.428 1.27826 -1.60779 0
M  V30 4547 H 446.658 3.74766 -0.953285 0
M  V30 4548 H 448.347 3.82245 -1.36543 0
M  V30 4549 H 449.113 3.08986 -3.73835 0
M  V30 4550 H 444.992 3.73831 -2.69762 0
M  V30 4551 H 448.536 3.33658 -6.12632 0
M  V30 4552 H 444.433 3.98672 -5.07672 0
M  V30 4553 H 445.201 3.97937 -7.15254 0
M  V30 4554 N 447.864 1.01787 1.20321 0
M  V30 4555 C 449.094 0.72614 1.93419 0
M  V30 4556 C 449.502 -0.717317 1.75075 0
M  V30 4557 O 448.845 -1.49836 1.06278 0
M  V30 4558 C 448.907 0.983621 3.45782 0
M  V30 4559 C 448.571 2.41645 3.87888 0
M  V30 4560 C 449.568 3.39732 3.93545 0
M  V30 4561 C 447.253 2.75752 4.19841 0
M  V30 4562 C 449.247 4.69988 4.30569 0
M  V30 4563 C 446.934 4.06221 4.56539 0
M  V30 4564 C 447.932 5.0315 4.61876 0
M  V30 4565 O 447.62 6.31284 4.97731 0
M  V30 4566 H 447.352 0.265824 0.621541 0
M  V30 4567 H 449.906 1.3623 1.53722 0
M  V30 4568 H 448.136 0.290301 3.85609 0
M  V30 4569 H 449.825 0.683279 4.00108 0
M  V30 4570 H 450.591 3.14718 3.69022 0
M  V30 4571 H 446.47 2.00993 4.14877 0
M  V30 4572 H 450.014 5.45642 4.3465 0
M  V30 4573 H 445.911 4.31013 4.80518 0
M  V30 4574 H 446.679 6.35591 5.15719 0
M  V30 4575 N 449.342 -1.36122 0.79427 0
M  V30 4576 C 450.289 -2.29982 0.194101 0
M  V30 4577 C 451.259 -1.52214 -0.664833 0
M  V30 4578 O 452.444 -1.80702 -0.612498 0
M  V30 4579 C 449.584 -3.38706 -0.661244 0
M  V30 4580 C 448.697 -4.31456 0.216766 0
M  V30 4581 C 447.832 -5.27265 -0.645411 0
M  V30 4582 C 446.871 -6.11653 0.233756 0
M  V30 4583 N 446.008 -6.99636 -0.587682 0
M  V30 4584 H 450.848 -2.80722 0.999965 0
M  V30 4585 H 448.385 -1.38172 0.504677 0
M  V30 4586 H 450.343 -4.00394 -1.17219 0
M  V30 4587 H 448.973 -2.89274 -1.43249 0
M  V30 4588 H 448.025 -3.7088 0.845724 0
M  V30 4589 H 449.337 -4.90724 0.893973 0
M  V30 4590 H 448.491 -5.94266 -1.22198 0
M  V30 4591 H 447.23 -4.68463 -1.35623 0
M  V30 4592 H 446.235 -5.4361 0.82269 0
M  V30 4593 H 447.46 -6.72531 0.942247 0
M  V30 4594 H 445.406 -6.43337 -1.2827 0
M  V30 4595 H 445.323 -7.55993 0.0317402 0
M  V30 4596 H 446.591 -7.71001 -1.14792 0
M  V30 4597 N 450.82 -0.546701 -1.47814 0
M  V30 4598 C 451.783 0.196287 -2.28358 0
M  V30 4599 C 452.783 0.852437 -1.36346 0
M  V30 4600 O 453.973 0.709913 -1.59078 0
M  V30 4601 C 451.105 1.28579 -3.15722 0
M  V30 4602 H 452.298 -0.511086 -2.95513 0
M  V30 4603 H 449.851 -0.303248 -1.5333 0
M  V30 4604 H 450.586 2.0259 -2.53235 0
M  V30 4605 H 450.371 0.820229 -3.83425 0
M  V30 4606 H 451.861 1.80793 -3.76435 0
M  V30 4607 N 452.299 1.55045 -0.282633 0
M  V30 4608 C 453.247 2.24254 0.617478 0
M  V30 4609 C 454.241 1.24215 1.15183 0
M  V30 4610 O 455.447 1.42123 1.10459 0
M  V30 4611 H 451.822 0.719801 0.217693 0
M  V30 4612 H 453.793 2.98398 0.0110076 0
M  V30 4613 C 452.542 2.98281 1.78672 0
M  V30 4614 H 451.865 3.75053 1.38475 0
M  V30 4615 H 453.305 3.50017 2.393 0
M  V30 4616 C 451.764 2.04184 2.67975 0
M  V30 4617 O 452.294 1.59792 3.6855 0
M  V30 4618 N 450.5 1.70526 2.35307 0
M  V30 4619 H 450.047 2.06821 1.53567 0
M  V30 4620 H 450.005 1.07839 2.95327 0
M  V30 4621 N 453.777 0.010035 1.57597 0
M  V30 4622 C 454.687 -0.994226 2.12491 0
M  V30 4623 C 455.703 -1.37013 1.07254 0
M  V30 4624 O 456.879 -1.45542 1.3921 0
M  V30 4625 C 453.944 -2.2642 2.62555 0
M  V30 4626 C 453.005 -1.95049 3.82432 0
M  V30 4627 C 452.238 -3.15991 4.30099 0
M  V30 4628 O 452.461 -4.28015 3.7704 0
M  V30 4629 O 451.395 -2.99403 5.22151 0
M  V30 4630 H 455.221 -0.557549 2.98538 0
M  V30 4631 H 452.806 -0.209413 1.47925 0
M  V30 4632 H 454.688 -3.01009 2.9491 0
M  V30 4633 H 453.363 -2.69306 1.796 0
M  V30 4634 H 452.27 -1.17904 3.55034 0
M  V30 4635 H 453.603 -1.56992 4.66491 0
M  V30 4636 N 455.255 -1.55392 -0.262866 0
M  V30 4637 C 456.218 -1.88181 -1.30846 0
M  V30 4638 C 457.218 -0.757079 -1.41862 0
M  V30 4639 O 458.408 -1.02519 -1.40838 0
M  V30 4640 C 455.54 -2.09609 -2.68844 0
M  V30 4641 H 456.733 -2.81659 -1.02997 0
M  V30 4642 H 454.286 -1.48039 -0.501414 0
M  V30 4643 H 455.021 -1.18547 -3.01856 0
M  V30 4644 H 454.806 -2.91508 -2.62231 0
M  V30 4645 H 456.296 -2.36215 -3.44372 0
M  V30 4646 N 456.733 0.527833 -1.48498 0
M  V30 4647 C 457.963 1.30633 -1.60058 0
M  V30 4648 C 458.371 1.87394 -0.260786 0
M  V30 4649 O 457.714 1.67227 0.760317 0
M  V30 4650 C 457.776 2.49361 -2.58958 0
M  V30 4651 C 457.44 2.13671 -4.03972 0
M  V30 4652 C 458.437 1.69217 -4.91591 0
M  V30 4653 C 456.122 2.24129 -4.49524 0
M  V30 4654 C 458.116 1.35689 -6.2279 0
M  V30 4655 C 455.803 1.90212 -5.80743 0
M  V30 4656 C 456.801 1.46063 -6.67199 0
M  V30 4657 O 456.489 1.12593 -7.95976 0
M  V30 4658 H 456.221 0.403444 -0.54241 0
M  V30 4659 H 458.775 0.643233 -1.95068 0
M  V30 4660 H 457.005 3.18659 -2.19073 0
M  V30 4661 H 458.694 3.11421 -2.6033 0
M  V30 4662 H 459.46 1.60607 -4.57636 0
M  V30 4663 H 455.339 2.57447 -3.82416 0
M  V30 4664 H 458.883 1.01157 -6.90227 0
M  V30 4665 H 454.78 1.98464 -6.14233 0
M  V30 4666 H 455.548 1.25972 -8.08748 0
M  V30 4667 N 458.211 1.37122 0.776871 0
M  V30 4668 C 459.141 1.35164 1.90402 0
M  V30 4669 C 460.122 0.221069 1.68657 0
M  V30 4670 O 461.307 0.420642 1.8959 0
M  V30 4671 C 458.437 1.15274 3.27611 0
M  V30 4672 C 457.391 2.25289 3.63908 0
M  V30 4673 C 456.717 1.90527 4.99603 0
M  V30 4674 C 458.017 3.67446 3.71188 0
M  V30 4675 H 459.711 2.29482 1.92297 0
M  V30 4676 H 457.257 1.10465 0.923773 0
M  V30 4677 H 459.21 1.12536 4.06096 0
M  V30 4678 H 457.934 0.174102 3.26136 0
M  V30 4679 H 456.593 2.27174 2.87728 0
M  V30 4680 H 456.241 0.91206 4.94662 0
M  V30 4681 H 455.941 2.64193 5.24858 0
M  V30 4682 H 457.465 1.89367 5.80493 0
M  V30 4683 H 458.879 3.67719 4.39836 0
M  V30 4684 H 457.276 4.40123 4.07936 0
M  V30 4685 H 458.346 4.01443 2.71977 0
M  V30 4686 N 459.689 -1.00246 1.21608 0
M  V30 4687 C 460.621 -2.09244 0.935401 0
M  V30 4688 C 461.634 -1.62592 -0.0823594 0
M  V30 4689 O 462.823 -1.77865 0.150456 0
M  V30 4690 C 459.923 -3.36724 0.383453 0
M  V30 4691 C 459.096 -4.1245 1.45615 0
M  V30 4692 C 458.155 -5.18219 0.912991 0
M  V30 4693 O 457.181 -5.46337 1.59701 0
M  V30 4694 N 458.383 -5.7987 -0.270478 0
M  V30 4695 H 461.148 -2.33905 1.87373 0
M  V30 4696 H 458.709 -1.16748 1.12167 0
M  V30 4697 H 460.701 -4.047 0.00562157 0
M  V30 4698 H 459.271 -3.09201 -0.459758 0
M  V30 4699 H 458.491 -3.39241 2.00772 0
M  V30 4700 H 459.779 -4.59819 2.17817 0
M  V30 4701 H 459.177 -5.59381 -0.843195 0
M  V30 4702 H 457.734 -6.49126 -0.589794 0
M  V30 4703 N 461.167 -1.02423 -1.1978 0
M  V30 4704 C 462.415 -0.716569 -1.8897 0
M  V30 4705 C 462.736 0.756769 -1.79716 0
M  V30 4706 O 462.006 1.5449 -1.20456 0
M  V30 4707 H 460.586 -0.262062 -0.699523 0
M  V30 4708 H 463.248 -1.29747 -1.45436 0
M  V30 4709 H 462.344 -1.00675 -2.95417 0
M  V30 4710 N 462.645 1.35699 -0.801477 0
M  V30 4711 C 463.577 2.28598 -0.166028 0
M  V30 4712 C 464.59 1.50044 0.631721 0
M  V30 4713 O 465.779 1.72339 0.464921 0
M  V30 4714 C 462.879 3.29625 0.787451 0
M  V30 4715 C 462.052 4.37384 0.037171 0
M  V30 4716 C 461.111 5.183 0.908375 0
M  V30 4717 O 460.137 5.68053 0.361189 0
M  V30 4718 N 461.339 5.35912 2.23112 0
M  V30 4719 H 464.104 2.83771 -0.964071 0
M  V30 4720 H 461.665 1.47994 -0.656469 0
M  V30 4721 H 463.657 3.80648 1.37439 0
M  V30 4722 H 462.227 2.75004 1.48632 0
M  V30 4723 H 461.447 3.87364 -0.730935 0
M  V30 4724 H 462.735 5.0653 -0.480109 0
M  V30 4725 H 462.133 4.97125 2.69968 0
M  V30 4726 H 460.69 5.90133 2.76741 0
M  V30 4727 N 464.123 0.554532 1.47522 0
M  V30 4728 C 465.053 -0.182974 2.32782 0
M  V30 4729 C 466.034 -0.911377 1.43624 0
M  V30 4730 O 467.219 -0.892366 1.72483 0
M  V30 4731 C 464.349 -1.21513 3.25349 0
M  V30 4732 C 463.303 -0.603355 4.23726 0
M  V30 4733 C 462.629 -1.73995 5.05598 0
M  V30 4734 C 463.929 0.441121 5.20434 0
M  V30 4735 H 465.623 0.52882 2.94693 0
M  V30 4736 H 463.169 0.255759 1.41711 0
M  V30 4737 H 465.122 -1.73922 3.83835 0
M  V30 4738 H 463.846 -1.95683 2.61487 0
M  V30 4739 H 462.505 -0.10059 3.66462 0
M  V30 4740 H 462.153 -2.47063 4.38143 0
M  V30 4741 H 461.853 -1.3364 5.72201 0
M  V30 4742 H 463.377 -2.26735 5.66942 0
M  V30 4743 H 464.791 0.00319931 5.733 0
M  V30 4744 H 463.188 0.763402 5.95224 0
M  V30 4745 H 464.258 1.33799 4.66075 0
M  V30 4746 N 465.601 -1.54893 0.290851 0
M  V30 4747 C 466.849 -1.99538 -0.320756 0
M  V30 4748 C 467.17 -1.18075 -1.55188 0
M  V30 4749 O 466.44 -0.274162 -1.93972 0
M  V30 4750 H 465.02 -0.737052 -0.121507 0
M  V30 4751 H 467.682 -1.90755 0.399832 0
M  V30 4752 H 466.778 -3.06282 -0.599802 0
M  V30 4753 N 467.08 -0.0183926 -1.57589 0
M  V30 4754 C 468.028 0.985111 -2.10709 0
M  V30 4755 C 469.022 1.34397 -1.0312 0
M  V30 4756 O 470.228 1.32746 -1.21567 0
M  V30 4757 H 466.603 0.335418 -0.673052 0
M  V30 4758 H 468.574 0.511689 -2.9398 0
M  V30 4759 C 467.323 2.26202 -2.64061 0
M  V30 4760 H 466.646 1.9946 -3.4649 0
M  V30 4761 H 468.086 2.94652 -3.04887 0
M  V30 4762 C 466.545 2.98444 -1.5631 0
M  V30 4763 O 467.075 3.90142 -0.956674 0
M  V30 4764 N 465.281 2.6059 -1.28612 0
M  V30 4765 H 464.828 1.86101 -1.78112 0
M  V30 4766 H 464.786 3.09238 -0.567406 0
M  V30 4767 N 468.558 1.5553 0.254621 0
M  V30 4768 C 469.969 1.67518 0.824286 0
M  V30 4769 C 470.32 0.614429 1.86331 0
M  V30 4770 O 469.445 -0.240736 2.15057 0
M  V30 4771 C 470.04 3.03692 1.50189 0
M  V30 4772 C 468.599 3.17646 2.01935 0
M  V30 4773 C 467.746 2.63373 0.867746 0
M  V30 4774 H 470.697 1.58671 0.0305843 0
M  V30 4775 H 470.718 2.97706 2.36962 0
M  V30 4776 H 470.23 3.80874 0.745431 0
M  V30 4777 H 468.331 2.45273 2.80485 0
M  V30 4778 H 468.444 4.24455 2.22204 0
M  V30 4779 H 466.808 2.20999 1.26616 0
M  V30 4780 H 467.591 3.43074 0.124498 0
M  V30 4781 N 470.036 -0.519951 1.48776 0
M  V30 4782 C 470.983 -1.62352 1.64044 0
M  V30 4783 C 471.953 -1.58945 0.482251 0
M  V30 4784 O 473.138 -1.77219 0.706971 0
M  V30 4785 C 470.278 -3.00579 1.69547 0
M  V30 4786 C 469.391 -3.14145 2.96541 0
M  V30 4787 C 468.526 -4.42991 2.93142 0
M  V30 4788 C 467.565 -4.50122 4.14797 0
M  V30 4789 N 466.702 -5.7037 4.09418 0
M  V30 4790 H 471.542 -1.48643 2.58281 0
M  V30 4791 H 469.079 -0.723516 1.28077 0
M  V30 4792 H 471.037 -3.80671 1.70719 0
M  V30 4793 H 469.667 -3.13036 0.787918 0
M  V30 4794 H 468.719 -2.27239 3.05068 0
M  V30 4795 H 470.031 -3.15275 3.86527 0
M  V30 4796 H 469.185 -5.31385 2.92772 0
M  V30 4797 H 467.924 -4.44398 2.00902 0
M  V30 4798 H 466.929 -3.60133 4.15433 0
M  V30 4799 H 468.154 -4.50445 5.08208 0
M  V30 4800 H 466.1 -5.72655 3.20004 0
M  V30 4801 H 466.017 -5.73036 4.93119 0
M  V30 4802 H 467.285 -6.61023 4.13121 0
M  V30 4803 N 471.514 -1.37532 -0.769588 0
M  V30 4804 C 472.762 -1.32597 -1.5252 0
M  V30 4805 C 473.083 0.0884294 -1.94799 0
M  V30 4806 O 472.353 1.03289 -1.66458 0
M  V30 4807 H 470.933 -0.487846 -0.565699 0
M  V30 4808 H 473.595 -1.72044 -0.915806 0
M  V30 4809 H 472.691 -1.96643 -2.42359 0
M  V30 4810 N 472.992 0.995999 -1.22138 0
M  V30 4811 C 473.902 2.11985 -1.00496 0
M  V30 4812 C 474.918 1.7394 0.0457701 0
M  V30 4813 O 476.094 2.00868 -0.146273 0
M  V30 4814 C 473.159 3.41779 -0.582086 0
M  V30 4815 C 472.22 3.93943 -1.70608 0
M  V30 4816 C 471.453 5.17542 -1.30328 0
M  V30 4817 O 471.676 5.70114 -0.180743 0
M  V30 4818 O 470.61 5.63382 -2.11861 0
M  V30 4819 H 474.436 2.33123 -1.94647 0
M  V30 4820 H 472.021 1.10358 -1.00705 0
M  V30 4821 H 473.903 4.1989 -0.356467 0
M  V30 4822 H 472.578 3.22007 0.330592 0
M  V30 4823 H 471.485 3.17019 -1.98619 0
M  V30 4824 H 472.818 4.18141 -2.59651 0
M  V30 4825 N 474.47 1.03057 1.19235 0
M  V30 4826 C 475.747 0.642608 1.84743 0
M  V30 4827 C 476.127 -0.878577 1.91948 0
M  V30 4828 O 475.475 -1.77597 1.43776 0
M  V30 4829 C 475.685 1.30665 3.23616 0
M  V30 4830 C 477.033 1.43098 3.9976 0
M  V30 4831 O 478.057 1.26396 3.3302 0
M  V30 4832 O 476.916 1.70223 5.19313 0
M  V30 4833 H 474.01 0.223573 0.796206 0
M  V30 4834 H 476.556 1.12883 1.26711 0
M  V30 4835 H 475.328 2.34544 3.13217 0
M  V30 4836 H 474.951 0.808405 3.89295 0
M  V30 4837 N 475.948 -1.35272 0.808662 0
M  V30 4838 C 476.88 -2.28507 0.178149 0
M  V30 4839 C 477.893 -1.50377 -0.623754 0
M  V30 4840 O 479.082 -1.72583 -0.455774 0
M  V30 4841 C 476.182 -3.30038 -0.769959 0
M  V30 4842 C 475.355 -4.37398 -0.0139749 0
M  V30 4843 C 474.414 -5.18775 -0.880875 0
M  V30 4844 O 473.44 -5.68236 -0.331059 0
M  V30 4845 N 474.642 -5.37087 -2.20267 0
M  V30 4846 H 477.407 -2.83255 0.979106 0
M  V30 4847 H 474.968 -1.47643 0.664308 0
M  V30 4848 H 476.96 -3.81371 -1.35418 0
M  V30 4849 H 475.53 -2.75789 -1.47171 0
M  V30 4850 H 474.75 -3.86971 0.751468 0
M  V30 4851 H 476.038 -5.06268 0.506965 0
M  V30 4852 H 475.436 -4.9855 -2.67328 0
M  V30 4853 H 473.993 -5.91593 -2.73608 0
M  V30 4854 N 477.426 -0.562348 -1.47226 0
M  V30 4855 C 478.837 -0.130325 -1.86245 0
M  V30 4856 C 479.188 1.30128 -1.46838 0
M  V30 4857 O 478.313 1.97974 -0.873805 0
M  V30 4858 C 478.908 -0.229738 -3.3802 0
M  V30 4859 C 477.467 0.14728 -3.76112 0
M  V30 4860 C 476.614 -0.574971 -2.71274 0
M  V30 4861 H 479.565 -0.771773 -1.3867 0
M  V30 4862 H 479.586 0.550316 -3.76499 0
M  V30 4863 H 479.098 -1.27178 -3.66671 0
M  V30 4864 H 477.199 1.19023 -3.53078 0
M  V30 4865 H 477.312 -0.214858 -4.78618 0
M  V30 4866 H 475.676 -0.0174756 -2.54694 0
M  V30 4867 H 476.459 -1.61827 -3.02766 0
M  V30 4868 N 478.904 1.54736 -0.299062 0
M  V30 4869 C 479.852 2.24897 0.593658 0
M  V30 4870 C 480.846 1.25429 1.13859 0
M  V30 4871 O 482.052 1.43286 1.08945 0
M  V30 4872 H 478.427 0.72207 0.210046 0
M  V30 4873 H 480.398 2.98393 -0.0206421 0
M  V30 4874 C 479.147 3.00159 1.75499 0
M  V30 4875 H 478.47 3.76501 1.34489 0
M  V30 4876 H 479.91 3.52535 2.35574 0
M  V30 4877 C 478.369 2.07015 2.65794 0
M  V30 4878 O 478.899 1.63692 3.66835 0
M  V30 4879 N 477.105 1.73012 2.33485 0
M  V30 4880 H 476.652 2.08439 1.51364 0
M  V30 4881 H 476.61 1.10965 2.94167 0
M  V30 4882 N 480.382 0.0267497 1.57577 0
M  V30 4883 C 481.329 -0.955894 2.10075 0
M  V30 4884 C 482.299 -1.32453 1.00226 0
M  V30 4885 O 483.484 -1.41826 1.27632 0
M  V30 4886 C 480.624 -2.2338 2.6305 0
M  V30 4887 C 479.737 -1.92183 3.86898 0
M  V30 4888 C 478.872 -3.14251 4.28275 0
M  V30 4889 C 477.911 -2.78862 5.44888 0
M  V30 4890 N 477.048 -3.93548 5.81433 0
M  V30 4891 H 481.888 -0.501303 2.93753 0
M  V30 4892 H 479.425 -0.235847 1.45197 0
M  V30 4893 H 481.383 -2.98124 2.91853 0
M  V30 4894 H 480.013 -2.6646 1.82205 0
M  V30 4895 H 479.065 -1.07692 3.64838 0
M  V30 4896 H 480.377 -1.62117 4.7172 0
M  V30 4897 H 479.531 -3.97317 4.58502 0
M  V30 4898 H 478.27 -3.47476 3.42215 0
M  V30 4899 H 477.275 -1.94208 5.14357 0
M  V30 4900 H 478.5 -2.46855 6.32645 0
M  V30 4901 H 476.446 -4.2662 4.98328 0
M  V30 4902 H 476.363 -3.67098 6.6089 0
M  V30 4903 H 477.631 -4.77325 6.16264 0
M  V30 4904 N 481.861 -1.55662 -0.24637 0
M  V30 4905 C 482.808 -1.90361 -1.30504 0
M  V30 4906 C 483.778 -0.757905 -1.47801 0
M  V30 4907 O 484.963 -1.01161 -1.61775 0
M  V30 4908 C 482.103 -2.2042 -2.65535 0
M  V30 4909 C 481.216 -3.47799 -2.56242 0
M  V30 4910 C 480.351 -3.67426 -3.8363 0
M  V30 4911 C 479.39 -4.88403 -3.68956 0
M  V30 4912 N 478.527 -5.04548 -4.88237 0
M  V30 4913 H 483.367 -2.80645 -1.00213 0
M  V30 4914 H 480.904 -1.38924 -0.483577 0
M  V30 4915 H 482.862 -2.35853 -3.44135 0
M  V30 4916 H 481.492 -1.3334 -2.93973 0
M  V30 4917 H 480.544 -3.40694 -1.69208 0
M  V30 4918 H 481.856 -4.36544 -2.4131 0
M  V30 4919 H 481.01 -3.82821 -4.70673 0
M  V30 4920 H 479.749 -2.76914 -4.01459 0
M  V30 4921 H 478.754 -4.72984 -2.80296 0
M  V30 4922 H 479.979 -5.80375 -3.52621 0
M  V30 4923 H 477.925 -4.16974 -5.06427 0
M  V30 4924 H 477.842 -5.87384 -4.75937 0
M  V30 4925 H 479.11 -5.24355 -5.76777 0
M  V30 4926 N 483.339 0.512053 -1.4905 0
M  V30 4927 C 484.569 1.28928 -1.61434 0
M  V30 4928 C 484.977 1.87107 -0.280647 0
M  V30 4929 O 484.32 1.68024 0.742537 0
M  V30 4930 C 484.382 2.466 -2.61588 0
M  V30 4931 C 484.046 2.09375 -4.06216 0
M  V30 4932 C 485.043 1.63994 -4.93358 0
M  V30 4933 C 482.728 2.19348 -4.51876 0
M  V30 4934 C 484.722 1.29076 -6.24194 0
M  V30 4935 C 482.409 1.84041 -5.82728 0
M  V30 4936 C 483.407 1.38978 -6.68711 0
M  V30 4937 O 483.095 1.04144 -7.97126 0
M  V30 4938 H 482.827 0.397668 -0.546659 0
M  V30 4939 H 485.381 0.622507 -1.9574 0
M  V30 4940 H 483.611 3.16318 -2.22441 0
M  V30 4941 H 485.3 3.08642 -2.63619 0
M  V30 4942 H 486.066 1.55744 -4.59313 0
M  V30 4943 H 481.945 2.53376 -3.85125 0
M  V30 4944 H 485.489 0.938303 -6.91261 0
M  V30 4945 H 481.386 1.91938 -6.16304 0
M  V30 4946 H 482.154 1.17387 -8.10039 0
M  V30 4947 N 484.817 1.37938 0.762283 0
M  V30 4948 C 486.047 1.36685 1.54922 0
M  V30 4949 C 486.455 -0.0474099 1.89141 0
M  V30 4950 O 485.798 -1.02213 1.52638 0
M  V30 4951 C 485.86 2.14963 2.88152 0
M  V30 4952 C 485.524 3.6385 2.76518 0
M  V30 4953 C 486.521 4.57531 2.46904 0
M  V30 4954 C 484.206 4.07095 2.94243 0
M  V30 4955 C 486.2 5.92436 2.35156 0
M  V30 4956 C 483.887 5.42083 2.82116 0
M  V30 4957 C 484.885 6.34567 2.52614 0
M  V30 4958 O 484.573 7.67073 2.40529 0
M  V30 4959 H 484.305 0.469586 0.486276 0
M  V30 4960 H 486.859 1.82012 0.951876 0
M  V30 4961 H 485.089 1.6434 3.50042 0
M  V30 4962 H 486.778 2.06224 3.49609 0
M  V30 4963 H 487.544 4.25428 2.32886 0
M  V30 4964 H 483.423 3.35462 3.16206 0
M  V30 4965 H 486.967 6.64591 2.12049 0
M  V30 4966 H 482.864 5.73785 2.95704 0
M  V30 4967 H 483.632 7.77499 2.55807 0
M  V30 4968 N 486.295 -0.989507 1.22664 0
M  V30 4969 C 487.572 -1.70326 0.961688 0
M  V30 4970 C 487.952 -2.04537 -0.522279 0
M  V30 4971 O 487.3 -1.73136 -1.49118 0
M  V30 4972 C 487.51 -2.95135 1.86269 0
M  V30 4973 C 488.858 -3.67842 2.12078 0
M  V30 4974 O 489.882 -3.0515 1.83745 0
M  V30 4975 O 488.741 -4.80644 2.60083 0
M  V30 4976 H 485.835 -0.743589 0.361946 0
M  V30 4977 H 488.381 -1.04555 1.33665 0
M  V30 4978 H 487.153 -2.66382 2.8663 0
M  V30 4979 H 486.776 -3.68645 1.48952 0
M  V30 4980 N 487.773 -1.03688 -1.18687 0
M  V30 4981 C 489.184 -0.766488 -1.70241 0
M  V30 4982 C 489.535 0.713052 -1.82784 0
M  V30 4983 O 488.66 1.55529 -1.50465 0
M  V30 4984 C 489.255 -1.38475 -3.09209 0
M  V30 4985 C 487.814 -1.16276 -3.5799 0
M  V30 4986 C 486.961 -1.4778 -2.34641 0
M  V30 4987 H 489.912 -1.20378 -1.03415 0
M  V30 4988 H 489.933 -0.785939 -3.72295 0
M  V30 4989 H 489.445 -2.46157 -3.00048 0
M  V30 4990 H 487.546 -0.104508 -3.72453 0
M  V30 4991 H 487.659 -1.8571 -4.41643 0
M  V30 4992 H 486.023 -0.897366 -2.38368 0
M  V30 4993 H 486.806 -2.56562 -2.28102 0
M  V30 4994 N 489.251 1.34841 -0.815825 0
M  V30 4995 C 490.667 1.51543 -0.500697 0
M  V30 4996 C 490.867 1.76261 0.976444 0
M  V30 4997 O 489.923 1.8094 1.76117 0
M  V30 4998 C 491.236 2.68487 -1.35407 0
M  V30 4999 C 492.784 2.82368 -1.35046 0
M  V30 5000 C 493.259 4.02347 -2.18816 0
M  V30 5001 N 494.75 4.09542 -2.16402 0
M  V30 5002 C 495.485 5.01517 -2.77971 0
M  V30 5003 N 494.981 5.98763 -3.48503 0
M  V30 5004 N 496.774 4.94334 -2.67563 0
M  V30 5005 H 488.925 1.17055 -1.77234 0
M  V30 5006 H 491.188 0.573481 -0.754866 0
M  V30 5007 H 490.894 2.56829 -2.40274 0
M  V30 5008 H 490.768 3.63321 -1.01377 0
M  V30 5009 H 493.155 2.93471 -0.309604 0
M  V30 5010 H 493.236 1.88363 -1.73069 0
M  V30 5011 H 492.88 3.92004 -3.22948 0
M  V30 5012 H 492.81 4.95551 -1.78148 0
M  V30 5013 H 495.301 3.39932 -1.65091 0
M  V30 5014 H 495.614 6.6556 -3.92747 0
M  V30 5015 H 493.959 5.98909 -3.52609 0
M  V30 5016 H 497.15 4.1732 -2.12041 0
M  V30 5017 H 497.323 5.6582 -3.15834 0
M  V30 5018 N 490.729 0.570148 1.46925 0
M  V30 5019 C 491.975 0.0510284 2.02736 0
M  V30 5020 C 492.308 -1.3006 1.44215 0
M  V30 5021 O 491.583 -1.84932 0.602521 0
M  V30 5022 C 491.866 -0.028215 3.60089 0
M  V30 5023 C 491.719 1.35142 4.29018 0
M  V30 5024 C 493.038 -0.735181 4.33916 0
M  V30 5025 H 490.157 0.0200178 0.736728 0
M  V30 5026 H 492.799 0.73493 1.75211 0
M  V30 5027 H 490.949 -0.610648 3.83671 0
M  V30 5028 H 492.621 1.97806 4.16738 0
M  V30 5029 H 490.864 1.9226 3.88868 0
M  V30 5030 H 491.535 1.24857 5.37694 0
M  V30 5031 H 494.011 -0.240519 4.15404 0
M  V30 5032 H 492.887 -0.759622 5.43618 0
M  V30 5033 H 493.148 -1.79397 4.04066 0
M  V30 5034 N 492.207 -1.54576 0.307264 0
M  V30 5035 C 493.453 -2.01272 -0.293453 0
M  V30 5036 C 493.808 -1.19178 -1.51044 0
M  V30 5037 O 493.101 -0.261704 -1.89804 0
M  V30 5038 C 493.295 -3.50572 -0.695253 0
M  V30 5039 C 493.124 -4.47118 0.481249 0
M  V30 5040 C 491.894 -4.958 0.97524 0
M  V30 5041 C 494.092 -4.96853 1.32823 0
M  V30 5042 N 492.074 -5.76212 2.11785 0
M  V30 5043 C 493.445 -5.75028 2.31824 0
M  V30 5044 C 495.5 -4.79026 1.35788 0
M  V30 5045 C 494.203 -6.37276 3.33574 0
M  V30 5046 C 496.229 -5.42097 2.364 0
M  V30 5047 C 495.591 -6.2011 3.34129 0
M  V30 5048 H 491.69 -0.778709 -0.0716705 0
M  V30 5049 H 494.274 -1.89695 0.438602 0
M  V30 5050 H 492.445 -3.62427 -1.39647 0
M  V30 5051 H 494.177 -3.84056 -1.27604 0
M  V30 5052 H 490.932 -4.70405 0.549184 0
M  V30 5053 H 491.356 -6.21101 2.69375 0
M  V30 5054 H 495.998 -4.18288 0.616021 0
M  V30 5055 H 493.716 -6.97144 4.08676 0
M  V30 5056 H 497.302 -5.30229 2.39475 0
M  V30 5057 H 496.182 -6.68049 4.10707 0
M  V30 5058 N 493.685 -0.035106 -1.57561 0
M  V30 5059 C 494.615 0.942993 -2.13612 0
M  V30 5060 C 495.596 1.33531 -1.05373 0
M  V30 5061 O 496.781 1.41287 -1.33235 0
M  V30 5062 C 493.911 2.22332 -2.66807 0
M  V30 5063 C 492.865 1.97156 -3.79886 0
M  V30 5064 C 492.191 3.31506 -4.19533 0
M  V30 5065 C 493.491 1.30596 -5.05709 0
M  V30 5066 H 495.185 0.476179 -2.95589 0
M  V30 5067 H 492.731 0.227602 -1.4219 0
M  V30 5068 H 494.684 2.91142 -3.04654 0
M  V30 5069 H 493.408 2.7119 -1.81999 0
M  V30 5070 H 492.067 1.30763 -3.42486 0
M  V30 5071 H 491.715 3.78134 -3.31698 0
M  V30 5072 H 491.415 3.15465 -4.95738 0
M  V30 5073 H 492.939 4.01574 -4.59968 0
M  V30 5074 H 494.353 1.89416 -5.41105 0
M  V30 5075 H 492.75 1.24934 -5.86951 0
M  V30 5076 H 493.82 0.279742 -4.84092 0
M  V30 5077 N 495.163 1.55791 0.238111 0
M  V30 5078 C 496.579 1.48411 0.587045 0
M  V30 5079 C 496.779 0.72702 1.87927 0
M  V30 5080 O 495.835 0.259942 2.51158 0
M  V30 5081 C 497.148 2.92873 0.681623 0
M  V30 5082 C 498.696 3.03295 0.773363 0
M  V30 5083 C 499.171 4.49082 0.899428 0
M  V30 5084 N 500.662 4.53056 0.964075 0
M  V30 5085 C 501.397 5.63117 1.08104 0
M  V30 5086 N 500.893 6.82969 1.16299 0
M  V30 5087 N 502.686 5.50933 1.11488 0
M  V30 5088 H 494.837 2.0345 -0.610076 0
M  V30 5089 H 497.1 0.924034 -0.211813 0
M  V30 5090 H 496.806 3.51142 -0.19802 0
M  V30 5091 H 496.68 3.43851 1.55069 0
M  V30 5092 H 499.067 2.45101 1.64346 0
M  V30 5093 H 499.148 2.55513 -0.121034 0
M  V30 5094 H 498.792 5.07889 0.0338586 0
M  V30 5095 H 498.722 4.94553 1.809 0
M  V30 5096 H 501.213 3.66737 0.91173 0
M  V30 5097 H 501.526 7.62598 1.25155 0
M  V30 5098 H 499.871 6.85712 1.13241 0
M  V30 5099 H 503.062 4.56231 1.0474 0
M  V30 5100 H 503.235 6.36743 1.20259 0
M  V30 5101 N 496.642 -0.504142 1.49319 0
M  V30 5102 C 497.605 -1.5883 1.65244 0
M  V30 5103 C 498.605 -1.52009 0.524386 0
M  V30 5104 O 499.795 -1.55218 0.79077 0
M  V30 5105 C 496.927 -2.98481 1.64687 0
M  V30 5106 H 498.12 -1.4604 2.61939 0
M  V30 5107 H 495.673 -0.728144 1.38303 0
M  V30 5108 H 496.408 -3.16751 0.695644 0
M  V30 5109 H 496.193 -3.0484 2.46607 0
M  V30 5110 H 497.683 -3.77256 1.79075 0
M  V30 5111 N 498.12 -1.38341 -0.754957 0
M  V30 5112 C 499.368 -1.34208 -1.51105 0
M  V30 5113 C 499.689 0.0677634 -1.94882 0
M  V30 5114 O 498.959 1.01517 -1.67544 0
M  V30 5115 H 497.539 -0.493819 -0.560493 0
M  V30 5116 H 500.201 -1.73005 -0.897507 0
M  V30 5117 H 499.297 -1.99203 -2.4026 0
M  V30 5118 N 499.598 0.982988 -1.23187 0
M  V30 5119 C 500.53 2.07729 -0.968572 0
M  V30 5120 C 501.543 1.62702 0.0564821 0
M  V30 5121 O 502.732 1.77603 -0.178733 0
M  V30 5122 C 499.832 3.36071 -0.436974 0
M  V30 5123 C 499.005 4.10081 -1.52159 0
M  V30 5124 C 498.064 5.16701 -0.99532 0
M  V30 5125 O 497.09 5.43727 -1.68373 0
M  V30 5126 N 498.292 5.80226 0.178192 0
M  V30 5127 H 501.057 2.30894 -1.9107 0
M  V30 5128 H 498.618 1.14949 -1.1401 0
M  V30 5129 H 500.61 4.04639 -0.0700051 0
M  V30 5130 H 499.18 3.09893 0.410509 0
M  V30 5131 H 498.4 3.36004 -2.06144 0
M  V30 5132 H 499.688 4.56295 -2.25105 0
M  V30 5133 H 499.086 5.60651 0.754096 0
M  V30 5134 H 497.643 6.49982 0.486449 0
M  V30 5135 N 501.076 1.04316 1.18135 0
M  V30 5136 C 502.304 0.768117 1.92113 0
M  V30 5137 C 502.719 -0.675057 1.76319 0
M  V30 5138 O 502.076 -1.46038 1.09449 0
M  V30 5139 C 502.127 1.12808 3.43448 0
M  V30 5140 O 501.848 2.5146 3.58747 0
M  V30 5141 C 503.349 0.8779 4.3452 0
M  V30 5142 H 500.569 0.279937 0.609817 0
M  V30 5143 H 503.113 1.39149 1.49859 0
M  V30 5144 H 501.268 0.549623 3.83481 0
M  V30 5145 H 501.682 2.65313 4.52448 0
M  V30 5146 H 503.156 1.17959 5.39249 0
M  V30 5147 H 503.633 -0.187239 4.38801 0
M  V30 5148 H 504.239 1.43977 4.00188 0
M  V30 5149 N 502.554 -1.34406 0.822964 0
M  V30 5150 C 503.779 -2.0304 0.423034 0
M  V30 5151 C 504.204 -1.61568 -0.963196 0
M  V30 5152 O 503.562 -0.800339 -1.62678 0
M  V30 5153 C 503.61 -3.56636 0.53321 0
M  V30 5154 O 502.714 -4.09971 -0.446939 0
M  V30 5155 H 502.055 -0.64075 0.174171 0
M  V30 5156 H 504.585 -1.71653 1.11339 0
M  V30 5157 H 504.595 -4.05945 0.408991 0
M  V30 5158 H 503.27 -3.86168 1.54425 0
M  V30 5159 H 501.847 -3.71835 -0.281601 0
M  V30 5160 N 504.032 -0.577932 -1.46621 0
M  V30 5161 C 504.965 0.206312 -2.27265 0
M  V30 5162 C 505.943 0.901306 -1.35334 0
M  V30 5163 O 507.127 0.916151 -1.64739 0
M  V30 5164 C 504.254 1.29563 -3.1294 0
M  V30 5165 C 503.3 0.706981 -4.206 0
M  V30 5166 S 504.133 -0.462459 -5.33499 0
M  V30 5167 C 505.289 0.628171 -6.2274 0
M  V30 5168 H 505.522 -0.477961 -2.93433 0
M  V30 5169 H 503.055 -0.364715 -1.50031 0
M  V30 5170 H 505.013 1.91935 -3.62865 0
M  V30 5171 H 503.674 1.95183 -2.46095 0
M  V30 5172 H 502.867 1.52565 -4.80354 0
M  V30 5173 H 502.469 0.159022 -3.73662 0
M  V30 5174 H 504.761 1.51506 -6.60342 0
M  V30 5175 H 505.704 0.0674961 -7.08068 0
M  V30 5176 H 506.112 0.930167 -5.56784 0
M  V30 5177 N 505.51 1.54411 -0.315457 0
M  V30 5178 C 506.759 1.99599 0.290395 0
M  V30 5179 C 507.072 1.20746 1.53882 0
M  V30 5180 O 508.278 1.56272 2.22017 0
M  V30 5181 C 506.734 3.5539 0.56797 0
M  V30 5182 C 506.342 4.43068 -0.662945 0
M  V30 5183 C 508.086 4.09067 1.13422 0
M  V30 5184 C 505.993 5.90317 -0.357722 0
M  V30 5185 H 504.923 0.745592 0.112286 0
M  V30 5186 H 507.574 1.78477 -0.426418 0
M  V30 5187 H 505.956 3.72468 1.34476 0
M  V30 5188 H 507.13 4.37765 -1.43869 0
M  V30 5189 H 505.445 4.00238 -1.14884 0
M  V30 5190 H 508.042 5.16663 1.37707 0
M  V30 5191 H 508.385 3.60552 2.08106 0
M  V30 5192 H 508.918 3.95589 0.418805 0
M  V30 5193 H 505.657 6.4301 -1.27351 0
M  V30 5194 H 505.177 5.98592 0.380472 0
M  V30 5195 H 506.856 6.4699 0.0354284 0
M  V30 5196 N 506.988 0.0434614 1.5754 0
M  V30 5197 C 507.951 -0.918696 2.09982 0
M  V30 5198 C 508.951 -1.24488 1.01781 0
M  V30 5199 O 510.141 -1.18284 1.27885 0
M  V30 5200 C 507.273 -2.23093 2.57764 0
M  V30 5201 H 508.466 -0.464229 2.96285 0
M  V30 5202 H 506.019 -0.204818 1.54952 0
M  V30 5203 H 506.754 -2.73137 1.74832 0
M  V30 5204 H 506.539 -2.00724 3.36827 0
M  V30 5205 H 508.029 -2.92028 2.98512 0
M  V30 5206 N 508.466 -1.55915 -0.229846 0
M  V30 5207 C 509.882 -1.48721 -0.579166 0
M  V30 5208 C 510.082 -0.736976 -1.87539 0
M  V30 5209 O 509.138 -0.273258 -2.51017 0
M  V30 5210 C 510.451 -2.9323 -0.666082 0
M  V30 5211 C 511.999 -3.03701 -0.757267 0
M  V30 5212 C 512.474 -4.49552 -0.8756 0
M  V30 5213 N 513.965 -4.53561 -0.940035 0
M  V30 5214 C 514.7 -5.63683 -1.05116 0
M  V30 5215 N 514.196 -6.83576 -1.12675 0
M  V30 5216 N 515.989 -5.51516 -1.08565 0
M  V30 5217 H 508.14 -2.03123 0.620857 0
M  V30 5218 H 510.403 -0.922898 0.21671 0
M  V30 5219 H 510.109 -3.51032 0.21664 0
M  V30 5220 H 509.983 -3.44668 -1.53243 0
M  V30 5221 H 512.37 -2.45969 -1.63043 0
M  V30 5222 H 512.451 -2.55446 0.134583 0
M  V30 5223 H 512.095 -5.079 -0.00692351 0
M  V30 5224 H 512.025 -4.95506 -1.78274 0
M  V30 5225 H 514.516 -3.67215 -0.892269 0
M  V30 5226 H 514.829 -7.63251 -1.21109 0
M  V30 5227 H 513.174 -6.86303 -1.09603 0
M  V30 5228 H 516.365 -4.5678 -1.02319 0
M  V30 5229 H 516.538 -6.37372 -1.1688 0
M  V30 5230 N 509.944 0.496216 -1.49584 0
M  V30 5231 C 510.874 1.60576 -1.69521 0
M  V30 5232 C 511.855 1.61169 -0.543933 0
M  V30 5233 O 513.04 1.77834 -0.78031 0
M  V30 5234 C 510.17 2.99038 -1.76616 0
M  V30 5235 C 509.124 3.13312 -2.91581 0
M  V30 5236 C 508.45 4.53172 -2.83794 0
M  V30 5237 C 509.75 2.92886 -4.32452 0
M  V30 5238 H 511.444 1.44146 -2.62416 0
M  V30 5239 H 508.99 0.692024 -1.26282 0
M  V30 5240 H 510.943 3.76564 -1.8915 0
M  V30 5241 H 509.667 3.16568 -0.80324 0
M  V30 5242 H 508.326 2.38213 -2.78658 0
M  V30 5243 H 507.974 4.67585 -1.854 0
M  V30 5244 H 507.674 4.63662 -3.60958 0
M  V30 5245 H 509.198 5.32752 -2.98342 0
M  V30 5246 H 510.612 3.60178 -4.46032 0
M  V30 5247 H 509.009 3.14844 -5.10875 0
M  V30 5248 H 510.079 1.88966 -4.46565 0
M  V30 5249 N 511.423 1.38739 0.74761 0
M  V30 5250 C 512.333 1.38696 1.89211 0
M  V30 5251 C 513.349 0.283303 1.71678 0
M  V30 5252 O 514.525 0.522713 1.94498 0
M  V30 5253 C 511.59 1.21662 3.24653 0
M  V30 5254 C 510.651 2.41886 3.54669 0
M  V30 5255 C 509.884 2.25655 4.83648 0
M  V30 5256 O 510.107 1.25339 5.56459 0
M  V30 5257 O 509.041 3.14372 5.13277 0
M  V30 5258 H 512.867 2.35143 1.92202 0
M  V30 5259 H 510.452 1.19721 0.893708 0
M  V30 5260 H 512.334 1.14246 4.05618 0
M  V30 5261 H 511.009 0.283024 3.2246 0
M  V30 5262 H 509.916 2.54877 2.73841 0
M  V30 5263 H 511.249 3.33895 3.61628 0
M  V30 5264 N 512.901 -0.976442 1.23707 0
M  V30 5265 C 513.848 -2.06952 1.02174 0
M  V30 5266 C 514.818 -1.65984 -0.0621034 0
M  V30 5267 O 516.003 -1.90584 0.0907906 0
M  V30 5268 C 513.143 -3.39425 0.62327 0
M  V30 5269 C 512.256 -3.9364 1.77966 0
M  V30 5270 C 511.391 -5.14343 1.3276 0
M  V30 5271 C 510.43 -5.60733 2.45449 0
M  V30 5272 N 509.567 -6.72662 2.01172 0
M  V30 5273 H 514.407 -2.24704 1.95734 0
M  V30 5274 H 511.944 -1.10143 0.975034 0
M  V30 5275 H 513.902 -4.15526 0.37332 0
M  V30 5276 H 512.532 -3.21624 -0.275329 0
M  V30 5277 H 511.584 -3.14258 2.14351 0
M  V30 5278 H 512.896 -4.24035 2.62671 0
M  V30 5279 H 512.05 -5.97789 1.03601 0
M  V30 5280 H 510.789 -4.8561 0.450975 0
M  V30 5281 H 509.794 -4.75865 2.75378 0
M  V30 5282 H 511.019 -5.91483 3.33654 0
M  V30 5283 H 508.965 -6.45681 1.15895 0
M  V30 5284 H 508.882 -7.02462 2.79434 0
M  V30 5285 H 510.15 -7.59572 1.75129 0
M  V30 5286 N 514.379 -1.04941 -1.1758 0
M  V30 5287 C 515.342 -0.652456 -2.19717 0
M  V30 5288 C 516.342 0.294745 -1.58076 0
M  V30 5289 O 517.532 0.0789579 -1.74021 0
M  V30 5290 C 514.664 0.0420712 -3.40874 0
M  V30 5291 H 515.857 -1.55642 -2.5635 0
M  V30 5292 H 513.41 -0.842995 -1.31618 0
M  V30 5293 H 514.145 0.95943 -3.09783 0
M  V30 5294 H 513.93 -0.638844 -3.86861 0
M  V30 5295 H 515.42 0.306 -4.16477 0
M  V30 5296 N 515.857 1.33968 -0.830081 0
M  V30 5297 C 517.104 1.98063 -0.421566 0
M  V30 5298 C 517.432 1.65787 1.0171 0
M  V30 5299 O 516.687 0.925348 1.72441 0
M  V30 5300 C 516.986 3.52679 -0.57898 0
M  V30 5301 C 516.652 4.04884 -1.98443 0
M  V30 5302 C 515.314 4.18852 -2.36888 0
M  V30 5303 C 517.666 4.32879 -2.90285 0
M  V30 5304 C 514.994 4.58145 -3.66497 0
M  V30 5305 C 517.346 4.7362 -4.19364 0
M  V30 5306 C 516.01 4.85794 -4.57778 0
M  V30 5307 H 515.28 0.724765 -0.154262 0
M  V30 5308 H 517.927 1.59792 -1.05541 0
M  V30 5309 H 516.232 3.91556 0.138219 0
M  V30 5310 H 517.929 4.00261 -0.243317 0
M  V30 5311 H 514.519 3.9448 -1.67581 0
M  V30 5312 H 518.703 4.21619 -2.61823 0
M  V30 5313 H 513.959 4.65762 -3.96075 0
M  V30 5314 H 518.133 4.9424 -4.90612 0
M  V30 5315 H 515.76 5.15998 -5.58256 0
M  V30 5316 N 517.335 0.585699 1.46312 0
M  V30 5317 C 518.267 -0.183687 2.28463 0
M  V30 5318 C 519.28 -0.85264 1.38686 0
M  V30 5319 O 520.469 -0.721701 1.6326 0
M  V30 5320 C 517.569 -1.27977 3.13808 0
M  V30 5321 C 516.742 -0.702164 4.31727 0
M  V30 5322 C 515.801 -1.68633 4.98447 0
M  V30 5323 O 514.827 -1.22121 5.55945 0
M  V30 5324 N 516.029 -3.02047 4.95729 0
M  V30 5325 H 518.794 0.521127 2.95134 0
M  V30 5326 H 516.355 0.423673 1.56258 0
M  V30 5327 H 518.347 -1.9375 3.55307 0
M  V30 5328 H 516.917 -1.8874 2.4919 0
M  V30 5329 H 516.137 0.1331 3.93975 0
M  V30 5330 H 517.425 -0.296101 5.07938 0
M  V30 5331 H 516.823 -3.42457 4.50266 0
M  V30 5332 H 515.38 -3.63301 5.41161 0
M  V30 5333 N 518.813 -1.54241 0.323641 0
M  V30 5334 C 519.723 -2.28033 -0.551205 0
M  V30 5335 C 520.739 -1.32388 -1.12913 0
M  V30 5336 O 521.915 -1.65403 -1.14908 0
M  V30 5337 C 518.98 -3.02382 -1.69606 0
M  V30 5338 C 518.041 -4.13612 -1.14993 0
M  V30 5339 C 517.274 -4.84407 -2.24022 0
M  V30 5340 O 517.497 -4.54716 -3.44368 0
M  V30 5341 O 516.431 -5.71312 -1.89436 0
M  V30 5342 H 520.257 -3.03662 0.048066 0
M  V30 5343 H 517.842 -1.49133 0.0893289 0
M  V30 5344 H 519.724 -3.48941 -2.36259 0
M  V30 5345 H 518.399 -2.29628 -2.28151 0
M  V30 5346 H 517.306 -3.71402 -0.448484 0
M  V30 5347 H 518.639 -4.8841 -0.609608 0
M  V30 5348 N 520.291 -0.0518155 -1.57515 0
M  V30 5349 C 521.221 0.920283 -2.146 0
M  V30 5350 C 522.202 1.32406 -1.06783 0
M  V30 5351 O 523.387 1.39866 -1.34726 0
M  V30 5352 C 520.517 2.1949 -2.6915 0
M  V30 5353 C 519.471 1.93116 -3.81956 0
M  V30 5354 C 518.797 3.27037 -4.23026 0
M  V30 5355 C 520.097 1.25225 -5.07066 0
M  V30 5356 H 521.791 0.444801 -2.96077 0
M  V30 5357 H 519.337 0.212508 -1.42423 0
M  V30 5358 H 521.29 2.87894 -3.07725 0
M  V30 5359 H 520.014 2.69244 -1.84865 0
M  V30 5360 H 518.673 1.27123 -3.43854 0
M  V30 5361 H 518.321 3.74595 -3.3569 0
M  V30 5362 H 518.021 3.10189 -4.99056 0
M  V30 5363 H 519.545 3.96673 -4.64202 0
M  V30 5364 H 520.959 1.83666 -5.43083 0
M  V30 5365 H 519.356 1.18702 -5.88243 0
M  V30 5366 H 520.426 0.228382 -4.84362 0
M  V30 5367 N 521.769 1.56035 0.221574 0
M  V30 5368 C 522.717 1.93269 1.29421 0
M  V30 5369 C 523.711 0.814727 1.48521 0
M  V30 5370 O 524.917 0.999559 1.49696 0
M  V30 5371 H 521.292 0.614188 0.43391 0
M  V30 5372 H 523.263 2.82773 0.952987 0
M  V30 5373 C 522.012 2.26573 2.63742 0
M  V30 5374 H 521.335 3.12112 2.49853 0
M  V30 5375 H 522.775 2.5651 3.37607 0
M  V30 5376 C 521.234 1.09086 3.1875 0
M  V30 5377 O 521.764 0.351985 4.00155 0
M  V30 5378 N 519.97 0.874693 2.77124 0
M  V30 5379 H 519.517 1.47726 2.11033 0
M  V30 5380 H 519.475 0.0903349 3.1427 0
M  V30 5381 N 523.247 -0.488276 1.49845 0
M  V30 5382 C 524.21 -1.57069 1.66919 0
M  V30 5383 C 525.21 -1.51445 0.540479 0
M  V30 5384 O 526.4 -1.5437 0.807188 0
M  V30 5385 C 523.532 -2.96718 1.67844 0
M  V30 5386 H 524.725 -1.43254 2.63474 0
M  V30 5387 H 522.278 -0.713435 1.39068 0
M  V30 5388 H 523.013 -3.15996 0.7292 0
M  V30 5389 H 522.798 -3.02208 2.49826 0
M  V30 5390 H 524.288 -3.75335 1.83066 0
M  V30 5391 N 524.725 -1.39134 -0.740242 0
M  V30 5392 C 525.974 -1.35384 -1.49512 0
M  V30 5393 C 526.287 0.04919 -1.95538 0
M  V30 5394 O 527.493 0.209257 -2.70692 0
M  V30 5395 C 525.949 -2.37812 -2.70136 0
M  V30 5396 C 525.557 -3.83804 -2.31081 0
M  V30 5397 C 527.301 -2.4313 -3.47977 0
M  V30 5398 C 525.208 -4.77886 -3.48395 0
M  V30 5399 H 524.138 -0.503297 -0.561434 0
M  V30 5400 H 526.789 -1.64754 -0.807974 0
M  V30 5401 H 525.171 -2.01505 -3.40899 0
M  V30 5402 H 526.345 -4.29123 -1.67898 0
M  V30 5403 H 524.66 -3.81732 -1.66343 0
M  V30 5404 H 527.257 -3.10614 -4.35228 0
M  V30 5405 H 527.6 -1.45423 -3.90074 0
M  V30 5406 H 528.133 -2.78304 -2.84239 0
M  V30 5407 H 524.872 -5.76836 -3.11353 0
M  V30 5408 H 524.392 -4.3725 -4.10576 0
M  V30 5409 H 526.071 -4.96538 -4.148 0
M  V30 5410 N 526.204 0.969867 -1.24223 0
M  V30 5411 C 527.481 1.68774 -0.988664 0
M  V30 5412 C 527.861 2.05342 0.489673 0
M  V30 5413 O 527.209 1.75486 1.46345 0
M  V30 5414 C 527.419 2.92135 -1.90941 0
M  V30 5415 C 528.767 3.64422 -2.17903 0
M  V30 5416 O 529.791 3.02188 -1.88576 0
M  V30 5417 O 528.65 4.76446 -2.67697 0
M  V30 5418 H 525.744 0.737736 -0.37373 0
M  V30 5419 H 528.29 1.02415 -1.35312 0
M  V30 5420 H 527.062 2.61788 -2.90831 0
M  V30 5421 H 526.685 3.66228 -1.54798 0
M  V30 5422 N 527.682 1.05563 1.17022 0
M  V30 5423 C 528.928 0.769074 1.87652 0
M  V30 5424 C 529.261 -0.702326 1.81055 0
M  V30 5425 O 528.536 -1.5139 1.22112 0
M  V30 5426 C 528.819 1.25492 3.37526 0
M  V30 5427 C 528.672 2.78953 3.52853 0
M  V30 5428 C 529.991 0.856919 4.31677 0
M  V30 5429 H 527.11 0.280854 0.681388 0
M  V30 5430 H 529.752 1.31027 1.37593 0
M  V30 5431 H 527.902 0.794516 3.80289 0
M  V30 5432 H 529.574 3.33146 3.19079 0
M  V30 5433 H 527.817 3.18046 2.95007 0
M  V30 5434 H 528.488 3.08011 4.58076 0
M  V30 5435 H 530.964 1.25334 3.96775 0
M  V30 5436 H 529.84 1.22443 5.35069 0
M  V30 5437 H 530.101 -0.238787 4.41455 0
M  V30 5438 N 529.16 -1.33526 0.837174 0
M  V30 5439 C 530.09 -2.31764 0.284206 0
M  V30 5440 C 531.071 -1.58896 -0.607142 0
M  V30 5441 O 532.256 -1.86798 -0.531047 0
M  V30 5442 C 529.386 -3.43029 -0.542962 0
M  V30 5443 C 528.34 -4.27255 0.252451 0
M  V30 5444 C 527.666 -5.3012 -0.69836 0
M  V30 5445 C 528.966 -5.01229 1.46858 0
M  V30 5446 H 530.66 -2.78262 1.10502 0
M  V30 5447 H 528.206 -1.3378 0.532812 0
M  V30 5448 H 530.159 -4.1078 -0.940096 0
M  V30 5449 H 528.883 -2.95216 -1.39697 0
M  V30 5450 H 527.542 -3.61127 0.631124 0
M  V30 5451 H 527.19 -4.78564 -1.54872 0
M  V30 5452 H 526.89 -5.87353 -0.170274 0
M  V30 5453 H 528.414 -6.00737 -1.09305 0
M  V30 5454 H 529.828 -5.61756 1.14469 0
M  V30 5455 H 528.225 -5.68104 1.93333 0
M  V30 5456 H 529.295 -4.301 2.23924 0
M  V30 5457 O 530.677 -0.734023 -1.43855 0
M  V30 5458 H 531.368 -0.285275 -1.91588 0
M  V30 END ATOM
M  V30 BEGIN BOND
M  V30 END BOND
M  V30 END CTAB
M  END
$$$$
