drugbank_target|P02458 Collagen alpha-1(II) chain (DB00048)
 OpenBabel12092120063D

  0  0  0     0  0            999 V3000
M  V30 BEGIN CTAB
M  V30 COUNTS 19521 19847 0 0 0
M  V30 BEGIN ATOM
M  V30 1 H -0.908 1.98254 -0.117106 0
M  V30 2 N 0 1.576 0 0
M  V30 3 C 0.933 2.03868 1.02534 0
M  V30 4 C 1.911 0.928543 1.3348 0
M  V30 5 O 3.095 1.19667 1.45644 0
M  V30 6 C 0.222 2.43627 2.35294 0
M  V30 7 C -0.732 3.65373 2.2001 0
M  V30 8 S 0.101 5.13292 1.52614 0
M  V30 9 C 1.257 5.56322 2.86805 0
M  V30 10 H 1.49 2.90518 0.631377 0
M  V30 11 H -0.977 1.52953 0.210867 0
M  V30 12 H 0.981 2.67203 3.11629 0
M  V30 13 H -0.358 1.57376 2.7183 0
M  V30 14 H -1.165 3.90944 3.18086 0
M  V30 15 H -1.563 3.418 1.51819 0
M  V30 16 H 0.729 5.58782 3.83104 0
M  V30 17 H 1.672 6.56266 2.65933 0
M  V30 18 H 2.08 4.83886 2.90714 0
M  V30 19 N 1.4781 -0.272755 1.55222 0
M  V30 20 C 2.7271 -1.00211 1.75045 0
M  V30 21 C 3.0401 -1.87441 0.559046 0
M  V30 22 O 4.2461 -2.63856 0.639698 0
M  V30 23 C 2.7021 -1.83165 3.09804 0
M  V30 24 C 2.3101 -1.008 4.36513 0
M  V30 25 C 4.0541 -2.55529 3.38977 0
M  V30 26 C 1.9611 -1.83194 5.62311 0
M  V30 27 H 0.8911 -0.377878 0.652476 0
M  V30 28 H 3.5421 -0.257776 1.8168 0
M  V30 29 H 1.9241 -2.61694 2.97207 0
M  V30 30 H 3.0981 -0.266855 4.60027 0
M  V30 31 H 1.4131 -0.398897 4.14485 0
M  V30 32 H 4.0101 -3.17578 4.30172 0
M  V30 33 H 4.3531 -3.25825 2.59121 0
M  V30 34 H 4.8861 -1.84029 3.52673 0
M  V30 35 H 1.6251 -1.17318 6.44916 0
M  V30 36 H 1.1451 -2.54905 5.4294 0
M  V30 37 H 2.8241 -2.40552 6.00619 0
M  V30 38 N 2.9562 -1.48159 -0.537278 0
M  V30 39 C 4.3722 -1.34118 -0.865129 0
M  V30 40 C 4.5722 -0.346678 -1.98495 0
M  V30 41 O 3.6282 0.234715 -2.51407 0
M  V30 42 C 4.9412 -2.73963 -1.23954 0
M  V30 43 C 6.4892 -2.82397 -1.34984 0
M  V30 44 C 6.9642 -4.22928 -1.75772 0
M  V30 45 N 8.4552 -4.25566 -1.82887 0
M  V30 46 C 9.1902 -5.31235 -2.15817 0
M  V30 47 N 8.6862 -6.47189 -2.47222 0
M  V30 48 N 10.4792 -5.18624 -2.16761 0
M  V30 49 H 2.6302 -2.1144 0.201715 0
M  V30 50 H 4.8932 -0.947598 0.0275949 0
M  V30 51 H 4.5992 -3.48264 -0.490381 0
M  V30 52 H 4.4732 -3.0702 -2.19132 0
M  V30 53 H 6.8602 -2.08356 -2.08978 0
M  V30 54 H 6.9412 -2.5297 -0.379448 0
M  V30 55 H 6.5852 -4.97482 -1.02341 0
M  V30 56 H 6.5152 -4.49794 -2.73848 0
M  V30 57 H 9.0062 -3.41924 -1.60924 0
M  V30 58 H 9.3192 -7.23564 -2.71433 0
M  V30 59 H 7.6642 -6.50476 -2.44757 0
M  V30 60 H 10.8552 -4.27056 -1.91679 0
M  V30 61 H 11.0282 -6.01078 -2.42093 0
M  V30 62 N 4.4343 0.785586 -1.36625 0
M  V30 63 C 5.3643 1.91259 -1.33949 0
M  V30 64 C 6.3453 1.68795 -0.210325 0
M  V30 65 O 7.5303 1.89854 -0.408561 0
M  V30 66 C 4.6603 3.28339 -1.13186 0
M  V30 67 C 3.6143 3.65335 -2.22967 0
M  V30 68 C 2.9403 5.00806 -1.87342 0
M  V30 69 C 4.2403 3.7352 -3.65075 0
M  V30 70 H 5.9343 1.93755 -2.28253 0
M  V30 71 H 3.4803 0.930788 -1.09874 0
M  V30 72 H 5.4333 4.06804 -1.09948 0
M  V30 73 H 4.1573 3.2624 -0.153332 0
M  V30 74 H 2.8163 2.89169 -2.25337 0
M  V30 75 H 2.4643 4.95233 -0.880545 0
M  V30 76 H 2.1643 5.26529 -2.60846 0
M  V30 77 H 3.6883 5.81687 -1.85667 0
M  V30 78 H 5.1023 4.42168 -3.64911 0
M  V30 79 H 3.4993 4.10731 -4.37516 0
M  V30 80 H 4.5693 2.74527 -3.99703 0
M  V30 81 N 5.9124 1.20967 1.01018 0
M  V30 82 C 7.1604 1.02172 1.74371 0
M  V30 83 C 7.4814 -0.446414 1.89821 0
M  V30 84 O 6.7514 -1.32234 1.44537 0
M  V30 85 H 5.3314 0.375066 0.646014 0
M  V30 86 H 7.9934 1.52187 1.21758 0
M  V30 87 H 7.0894 1.48538 2.74487 0
M  V30 88 N 7.3905 -1.2043 1.01659 0
M  V30 89 C 8.3535 -2.21433 0.591616 0
M  V30 90 C 9.3535 -1.57203 -0.338226 0
M  V30 91 O 10.5435 -1.73737 -0.126918 0
M  V30 92 C 7.6755 -3.40628 -0.136058 0
M  V30 93 H 8.8685 -2.60545 1.48514 0
M  V30 94 H 6.4215 -1.33893 0.806379 0
M  V30 95 H 7.1565 -3.07019 -1.04449 0
M  V30 96 H 6.9415 -3.88475 0.531917 0
M  V30 97 H 8.4315 -4.15475 -0.420735 0
M  V30 98 N 8.8686 -0.792821 -1.36206 0
M  V30 99 C 10.2796 -0.429513 -1.81692 0
M  V30 100 C 10.6306 1.04695 -1.65932 0
M  V30 101 O 9.7556 1.81256 -1.18218 0
M  V30 102 C 10.3506 -0.772831 -3.29868 0
M  V30 103 C 8.9096 -0.462307 -3.7355 0
M  V30 104 C 8.0566 -1.00569 -2.5842 0
M  V30 105 H 11.0076 -0.985672 -1.24379 0
M  V30 106 H 11.0286 -0.0651928 -3.80444 0
M  V30 107 H 10.5406 -1.84747 -3.41307 0
M  V30 108 H 8.6416 0.604158 -3.67669 0
M  V30 109 H 8.7546 -0.985299 -4.68859 0
M  V30 110 H 7.1186 -0.428734 -2.51066 0
M  V30 111 H 7.9016 -2.08616 -2.72643 0
M  V30 112 N 10.3467 1.47872 -0.545128 0
M  V30 113 C 11.2787 2.27869 0.246621 0
M  V30 114 C 12.2917 1.36282 0.890561 0
M  V30 115 O 13.4807 1.61207 0.766449 0
M  V30 116 C 10.5807 3.10159 1.36582 0
M  V30 117 C 9.7537 4.29627 0.820954 0
M  V30 118 C 8.8127 4.93607 1.82314 0
M  V30 119 O 7.8387 5.52366 1.37406 0
M  V30 120 N 9.0407 4.87211 3.15603 0
M  V30 121 H 11.8057 2.96459 -0.439539 0
M  V30 122 H 9.3667 1.57367 -0.380421 0
M  V30 123 H 11.3587 3.49829 2.03474 0
M  V30 124 H 9.9287 2.43891 1.9554 0
M  V30 125 H 9.1487 3.94192 -0.0244032 0
M  V30 126 H 10.4367 5.06928 0.436063 0
M  V30 127 H 9.8347 4.40651 3.54744 0
M  V30 128 H 8.3917 5.30937 3.78087 0
M  V30 129 N 11.8248 0.280983 1.55075 0
M  V30 130 C 13.0528 -0.337293 2.04132 0
M  V30 131 C 13.4678 -1.4903 1.15912 0
M  V30 132 O 12.8248 -1.81606 0.180459 0
M  V30 133 C 12.8758 -0.812706 3.52246 0
M  V30 134 O 12.5968 0.294387 4.3711 0
M  V30 135 C 14.0978 -1.4982 4.17216 0
M  V30 136 H 11.3178 -0.0761638 0.666663 0
M  V30 137 H 13.8618 0.414787 2.00249 0
M  V30 138 H 12.0168 -1.51486 3.56554 0
M  V30 139 H 12.4308 -0.0721325 5.2445 0
M  V30 140 H 13.9048 -1.7822 5.22438 0
M  V30 141 H 14.3818 -2.43168 3.65741 0
M  V30 142 H 14.9878 -0.839742 4.16927 0
M  V30 143 N 13.3029 -1.57598 0.00835791 0
M  V30 144 C 14.2329 -2.1198 -0.979113 0
M  V30 145 C 15.2139 -1.03091 -1.35301 0
M  V30 146 O 16.3989 -1.30818 -1.43528 0
M  V30 147 C 13.5289 -2.62995 -2.26828 0
M  V30 148 C 12.4829 -3.76485 -2.03576 0
M  V30 149 C 11.8089 -4.13846 -3.38579 0
M  V30 150 C 13.1089 -5.0342 -1.39161 0
M  V30 151 H 14.8029 -2.94738 -0.526281 0
M  V30 152 H 12.3489 -1.41783 -0.251704 0
M  V30 153 H 14.3019 -2.99669 -2.96271 0
M  V30 154 H 13.0259 -1.7737 -2.7424 0
M  V30 155 H 11.6849 -3.40217 -1.36557 0
M  V30 156 H 11.3329 -3.25232 -3.83709 0
M  V30 157 H 11.0329 -4.90312 -3.23834 0
M  V30 158 H 12.5569 -4.53086 -4.09323 0
M  V30 159 H 13.9709 -5.37812 -1.98573 0
M  V30 160 H 12.3679 -5.84746 -1.34878 0
M  V30 161 H 13.4379 -4.83548 -0.361868 0
M  V30 162 N 14.781 0.264519 -1.55364 0
M  V30 163 C 16.027 0.99646 -1.76631 0
M  V30 164 C 16.36 1.85632 -0.570478 0
M  V30 165 O 15.635 1.89647 0.43175 0
M  V30 166 C 15.918 1.87187 -3.07625 0
M  V30 167 C 15.771 1.04138 -4.37579 0
M  V30 168 C 17.09 2.85749 -3.34717 0
M  V30 169 H 14.209 0.360841 -0.642622 0
M  V30 170 H 16.851 0.268218 -1.88097 0
M  V30 171 H 15.001 2.49279 -2.9798 0
M  V30 172 H 16.673 0.440517 -4.59192 0
M  V30 173 H 14.916 0.345115 -4.32425 0
M  V30 174 H 15.587 1.68729 -5.2558 0
M  V30 175 H 18.063 2.33793 -3.4421 0
M  V30 176 H 16.939 3.44136 -4.27623 0
M  V30 177 H 17.2 3.61311 -2.54768 0
M  V30 178 N 16.2591 1.48442 0.529413 0
M  V30 179 C 17.1891 1.65902 1.64313 0
M  V30 180 C 18.1701 0.507897 1.6234 0
M  V30 181 O 19.3551 0.740503 1.79528 0
M  V30 182 C 16.4851 1.69911 3.02898 0
M  V30 183 C 15.4391 2.8453 3.19729 0
M  V30 184 C 14.7651 2.73629 4.59381 0
M  V30 185 C 16.0651 4.25821 3.02447 0
M  V30 186 H 17.7591 2.5914 1.49955 0
M  V30 187 H 15.3051 1.24709 0.719982 0
M  V30 188 H 17.2581 1.80715 3.80684 0
M  V30 189 H 15.9821 0.732524 3.18279 0
M  V30 190 H 14.6411 2.73283 2.44361 0
M  V30 191 H 14.2891 1.74938 4.71599 0
M  V30 192 H 13.9891 3.50541 4.71588 0
M  V30 193 H 15.5131 2.86401 5.39265 0
M  V30 194 H 16.9271 4.37898 3.70024 0
M  V30 195 H 15.3241 5.03735 3.26146 0
M  V30 196 H 16.3941 4.42244 1.98867 0
M  V30 197 N 17.7372 -0.778329 1.37039 0
M  V30 198 C 18.6672 -1.90546 1.34962 0
M  V30 199 C 19.6482 -1.68681 0.219274 0
M  V30 200 O 20.8332 -1.89634 0.418624 0
M  V30 201 C 17.9632 -3.27734 1.14925 0
M  V30 202 C 16.9172 -3.64147 2.24902 0
M  V30 203 C 16.2432 -4.99806 1.89996 0
M  V30 204 C 17.5432 -3.71579 3.67051 0
M  V30 205 H 19.2372 -1.92541 2.29277 0
M  V30 206 H 16.7832 -0.924948 1.10366 0
M  V30 207 H 18.7362 -4.06215 1.12104 0
M  V30 208 H 17.4602 -3.26154 0.170631 0
M  V30 209 H 16.1192 -2.8797 2.26868 0
M  V30 210 H 15.7672 -4.94759 0.906796 0
M  V30 211 H 15.4672 -5.25139 2.63634 0
M  V30 212 H 16.9912 -5.80694 1.88749 0
M  V30 213 H 18.4052 -4.40227 3.67251 0
M  V30 214 H 16.8022 -4.08405 4.39688 0
M  V30 215 H 17.8722 -2.72404 4.01154 0
M  V30 216 N 19.2153 -1.21501 -1.00376 0
M  V30 217 C 20.4433 -1.059 -1.77744 0
M  V30 218 C 20.8583 0.391125 -1.84704 0
M  V30 219 O 20.2153 1.27133 -1.30933 0
M  V30 220 C 20.2663 -1.65111 -3.21591 0
M  V30 221 O 19.9873 -3.0445 -3.15027 0
M  V30 222 C 21.4883 -1.54637 -4.15454 0
M  V30 223 H 18.7083 -0.371825 -0.558558 0
M  V30 224 H 21.2523 -1.60865 -1.26264 0
M  V30 225 H 19.4073 -1.14235 -3.70175 0
M  V30 226 H 19.8213 -3.3278 -4.0541 0
M  V30 227 H 21.2953 -2.00808 -5.14179 0
M  V30 228 H 21.7723 -0.501022 -4.36333 0
M  V30 229 H 22.3783 -2.04767 -3.72761 0
M  V30 230 N 20.6934 1.19889 -1.02296 0
M  V30 231 C 21.6234 2.25141 -0.619174 0
M  V30 232 C 22.6044 1.66051 0.368915 0
M  V30 233 O 23.7894 1.92546 0.252941 0
M  V30 234 C 20.9194 3.4728 0.0368783 0
M  V30 235 C 19.8734 4.19005 -0.872865 0
M  V30 236 C 19.1994 5.34637 -0.0822402 0
M  V30 237 C 20.4994 4.74452 -2.18387 0
M  V30 238 H 22.1934 2.59171 -1.49903 0
M  V30 239 H 19.7394 1.24579 -0.722222 0
M  V30 240 H 21.6924 4.20098 0.330958 0
M  V30 241 H 20.4164 3.12433 0.95149 0
M  V30 242 H 19.0754 3.48061 -1.15105 0
M  V30 243 H 18.7234 4.96034 0.83422 0
M  V30 244 H 18.4234 5.83557 -0.688149 0
M  V30 245 H 19.9474 6.10255 0.205238 0
M  V30 246 H 21.3614 5.39055 -1.95172 0
M  V30 247 H 19.7584 5.33834 -2.74119 0
M  V30 248 H 20.8284 3.92844 -2.84257 0
M  V30 249 N 22.1715 0.800033 1.35784 0
M  V30 250 C 23.1015 0.220184 2.3246 0
M  V30 251 C 24.0825 -0.65073 1.57161 0
M  V30 252 O 25.2675 -0.582359 1.85263 0
M  V30 253 C 22.3975 -0.637353 3.41402 0
M  V30 254 C 21.3515 0.134531 4.27789 0
M  V30 255 C 20.6775 -0.844285 5.27992 0
M  V30 256 C 21.9775 1.32979 5.05088 0
M  V30 257 H 23.6715 1.02787 2.81203 0
M  V30 258 H 21.2175 0.495717 1.35199 0
M  V30 259 H 23.1705 -1.05302 4.08031 0
M  V30 260 H 21.8945 -1.47785 2.91251 0
M  V30 261 H 20.5535 0.531296 3.6273 0
M  V30 262 H 20.2015 -1.68011 4.74111 0
M  V30 263 H 19.9015 -0.332184 5.8666 0
M  V30 264 H 21.4255 -1.2583 5.97494 0
M  V30 265 H 22.8395 0.98934 5.64699 0
M  V30 266 H 21.2365 1.77593 5.7322 0
M  V30 267 H 22.3065 2.11978 4.36111 0
M  V30 268 N 23.6496 -1.47581 0.552962 0
M  V30 269 C 24.8956 -2.02782 0.0273648 0
M  V30 270 C 25.2286 -1.42687 -1.31734 0
M  V30 271 O 24.5036 -0.580897 -1.85623 0
M  V30 272 C 24.7866 -3.60031 -0.0702371 0
M  V30 273 C 24.6396 -4.30566 1.30126 0
M  V30 274 C 25.9586 -4.33028 -0.785771 0
M  V30 275 H 23.0776 -0.736912 0.0114185 0
M  V30 276 H 25.7196 -1.76056 0.714432 0
M  V30 277 H 23.8696 -3.82932 -0.655382 0
M  V30 278 H 25.5416 -4.19018 1.92929 0
M  V30 279 H 23.7846 -3.91086 1.87709 0
M  V30 280 H 24.4556 -5.39114 1.18573 0
M  V30 281 H 26.9316 -4.15095 -0.288982 0
M  V30 282 H 25.8076 -5.42695 -0.823013 0
M  V30 283 H 26.0686 -4.01945 -1.841 0
M  V30 284 N 25.1277 -0.289203 -1.54924 0
M  V30 285 C 26.0907 0.579144 -2.21762 0
M  V30 286 C 27.0907 1.07047 -1.1999 0
M  V30 287 O 28.2807 0.968384 -1.44803 0
M  V30 288 C 25.4127 1.80055 -2.8947 0
M  V30 289 H 26.6057 -0.00464908 -2.999 0
M  V30 290 H 24.1587 -0.0399306 -1.56249 0
M  V30 291 H 24.8937 2.42449 -2.15381 0
M  V30 292 H 24.6787 1.45602 -3.64064 0
M  V30 293 H 26.1687 2.41773 -3.40493 0
M  V30 294 N 26.6058 1.57591 -0.0167156 0
M  V30 295 C 27.5688 2.08393 0.954204 0
M  V30 296 C 28.5688 0.996531 1.26198 0
M  V30 297 O 29.7588 1.25858 1.20438 0
M  V30 298 C 26.8908 2.5394 2.27436 0
M  V30 299 H 28.0838 2.95455 0.514451 0
M  V30 300 H 25.6368 1.54582 0.231089 0
M  V30 301 H 26.3718 1.70171 2.76066 0
M  V30 302 H 26.1568 3.33371 2.06412 0
M  V30 303 H 27.6468 2.93512 2.97053 0
M  V30 304 N 28.0839 -0.256276 1.55502 0
M  V30 305 C 29.3299 -0.987079 1.77157 0
M  V30 306 C 29.6629 -1.85327 0.580315 0
M  V30 307 O 28.9379 -1.89874 -0.421686 0
M  V30 308 C 29.2209 -1.85553 3.08613 0
M  V30 309 C 29.0739 -1.01816 4.38125 0
M  V30 310 C 30.3929 -2.8397 3.36228 0
M  V30 311 H 27.5119 -0.357428 0.644526 0
M  V30 312 H 30.1539 -0.258239 1.88237 0
M  V30 313 H 28.3039 -2.47695 2.99298 0
M  V30 314 H 29.9759 -0.416159 4.59419 0
M  V30 315 H 28.2189 -0.322178 4.32602 0
M  V30 316 H 28.8899 -1.65939 5.26468 0
M  V30 317 H 31.3659 -2.31964 3.45445 0
M  V30 318 H 30.2419 -3.41864 4.29442 0
M  V30 319 H 30.5029 -3.59955 2.56681 0
M  V30 320 N 29.562 -1.4872 -0.521534 0
M  V30 321 C 30.492 -1.66771 -1.63431 0
M  V30 322 C 31.473 -0.516499 -1.62069 0
M  V30 323 O 32.658 -0.750013 -1.79132 0
M  V30 324 C 29.788 -1.71515 -3.01993 0
M  V30 325 C 28.742 -2.86222 -3.18216 0
M  V30 326 C 28.068 -2.76061 -4.57924 0
M  V30 327 C 29.368 -4.27419 -3.00184 0
M  V30 328 H 31.062 -2.59932 -1.48579 0
M  V30 329 H 28.608 -1.25089 -0.713358 0
M  V30 330 H 30.561 -1.82731 -3.7972 0
M  V30 331 H 29.285 -0.749393 -3.17886 0
M  V30 332 H 27.944 -2.74575 -2.42908 0
M  V30 333 H 27.592 -1.77437 -4.70665 0
M  V30 334 H 27.292 -3.53037 -4.69722 0
M  V30 335 H 28.816 -2.89256 -5.37739 0
M  V30 336 H 30.23 -4.39855 -3.67697 0
M  V30 337 H 28.627 -5.05458 -3.2347 0
M  V30 338 H 29.697 -4.43293 -1.96518 0
M  V30 339 N 31.0401 0.771051 -1.3745 0
M  V30 340 C 32.4561 1.07171 -1.18265 0
M  V30 341 C 32.6561 2.01491 -0.019287 0
M  V30 342 O 31.7121 2.44244 0.640408 0
M  V30 343 C 33.0251 1.66854 -2.50161 0
M  V30 344 C 34.5731 1.79109 -2.56689 0
M  V30 345 C 35.0481 2.42205 -3.88717 0
M  V30 346 N 36.5391 2.49655 -3.90162 0
M  V30 347 C 37.2741 2.9933 -4.8907 0
M  V30 348 N 36.7701 3.49172 -5.98374 0
M  V30 349 N 38.5631 2.9821 -4.76474 0
M  V30 350 H 30.7141 0.144796 -2.11906 0
M  V30 351 H 32.9771 0.126863 -0.939473 0
M  V30 352 H 32.6831 1.05017 -3.35655 0
M  V30 353 H 32.5571 2.6614 -2.673 0
M  V30 354 H 34.9441 2.40077 -1.71601 0
M  V30 355 H 35.0251 0.785757 -2.43433 0
M  V30 356 H 34.6691 1.81875 -4.74219 0
M  V30 357 H 34.5991 3.43345 -3.99276 0
M  V30 358 H 37.0901 2.14383 -3.11205 0
M  V30 359 H 37.4031 3.8548 -6.69795 0
M  V30 360 H 35.7481 3.47275 -6.02018 0
M  V30 361 H 38.9391 2.58572 -3.90203 0
M  V30 362 H 39.1121 3.36613 -5.53711 0
M  V30 363 N 32.5182 1.22032 0.997298 0
M  V30 364 C 33.7582 1.05375 1.75144 0
M  V30 365 C 34.1222 -0.404696 1.87686 0
M  V30 366 O 35.3232 -0.691998 2.5974 0
M  V30 367 C 33.5942 1.74046 3.12158 0
M  V30 368 S 35.1532 1.72745 4.03366 0
M  V30 369 H 31.9712 0.377449 0.602539 0
M  V30 370 H 34.5732 1.54902 1.19272 0
M  V30 371 H 33.2772 2.79332 3.00669 0
M  V30 372 H 32.8082 1.24731 3.73103 0
M  V30 373 H 34.8232 0.774015 4.90126 0
M  V30 374 N 33.9963 -1.19345 1.0293 0
M  V30 375 C 34.9283 -2.22036 0.56857 0
M  V30 376 C 35.9413 -1.58865 -0.355779 0
M  V30 377 O 37.1303 -1.77851 -0.152103 0
M  V30 378 C 34.2303 -3.38363 -0.190752 0
M  V30 379 C 33.4033 -4.31118 0.738643 0
M  V30 380 C 32.4623 -5.26194 0.0246497 0
M  V30 381 O 31.4883 -5.65461 0.651354 0
M  V30 382 N 32.6903 -5.66971 -1.24594 0
M  V30 383 H 35.4553 -2.6219 1.45177 0
M  V30 384 H 33.0163 -1.34015 0.908381 0
M  V30 385 H 35.0083 -3.98981 -0.677961 0
M  V30 386 H 33.5783 -2.96994 -0.975366 0
M  V30 387 H 32.7983 -3.68276 1.40593 0
M  V30 388 H 34.0863 -4.90001 1.37029 0
M  V30 389 H 33.4843 -5.37104 -1.77583 0
M  V30 390 H 32.0413 -6.2984 -1.67764 0
M  V30 391 N 35.4744 -0.807222 -1.35358 0
M  V30 392 C 36.7224 -0.387122 -1.98358 0
M  V30 393 C 37.0434 1.04942 -1.64354 0
M  V30 394 O 36.3134 1.72615 -0.926339 0
M  V30 395 H 34.8934 -0.140154 -0.733734 0
M  V30 396 H 37.5554 -1.0332 -1.6526 0
M  V30 397 H 36.6514 -0.493352 -3.08176 0
M  V30 398 N 36.9525 1.47285 -0.560781 0
M  V30 399 C 37.8845 2.28118 0.222438 0
M  V30 400 C 38.8975 1.37219 0.876056 0
M  V30 401 O 40.0865 1.62011 0.749307 0
M  V30 402 C 37.1865 3.1159 1.33285 0
M  V30 403 C 36.3595 4.30473 0.77534 0
M  V30 404 C 35.4185 4.95513 1.77069 0
M  V30 405 O 34.4445 5.53792 1.31539 0
M  V30 406 N 35.6465 4.90531 3.10418 0
M  V30 407 H 38.4115 2.95976 -0.470958 0
M  V30 408 H 35.9725 1.56955 -0.39709 0
M  V30 409 H 37.9645 3.51967 1.99752 0
M  V30 410 H 36.5345 2.45951 1.92943 0
M  V30 411 H 35.7545 3.94144 -0.0662113 0
M  V30 412 H 37.0425 5.07362 0.382272 0
M  V30 413 H 36.4405 4.44389 3.5005 0
M  V30 414 H 34.9975 5.34917 3.72434 0
M  V30 415 N 38.4306 0.297415 1.54768 0
M  V30 416 C 39.7076 -0.365847 1.92148 0
M  V30 417 C 40.0876 -1.71975 1.22424 0
M  V30 418 O 39.4356 -2.25666 0.358739 0
M  V30 419 C 39.6456 -0.484056 3.45627 0
M  V30 420 C 40.9936 -0.756594 4.17805 0
M  V30 421 O 42.0176 -0.568007 3.51642 0
M  V30 422 O 40.8766 -1.11863 5.34929 0
M  V30 423 H 37.9706 -0.203919 0.801465 0
M  V30 424 H 40.5166 0.34521 1.66152 0
M  V30 425 H 39.2886 0.467865 3.88493 0
M  V30 426 H 38.9116 -1.24372 3.77647 0
M  V30 427 N 39.9087 -1.5758 0.0250728 0
M  V30 428 C 41.1547 -1.91917 -0.655413 0
M  V30 429 C 41.4877 -0.901433 -1.72011 0
M  V30 430 O 40.7627 0.0764069 -1.9435 0
M  V30 431 C 41.0457 -3.36751 -1.27558 0
M  V30 432 C 40.8987 -4.49258 -0.220719 0
M  V30 433 C 42.2177 -3.81469 -2.19475 0
M  V30 434 H 39.3367 -0.697925 -0.23679 0
M  V30 435 H 41.9787 -1.89825 0.0815036 0
M  V30 436 H 40.1287 -3.38664 -1.90365 0
M  V30 437 H 41.8007 -4.59478 0.409601 0
M  V30 438 H 40.0437 -4.31415 0.454264 0
M  V30 439 H 40.7147 -5.47618 -0.694175 0
M  V30 440 H 43.1907 -3.81266 -1.66659 0
M  V30 441 H 42.0667 -4.83512 -2.59822 0
M  V30 442 H 42.3277 -3.16744 -3.08424 0
M  V30 443 N 41.3868 0.248026 -1.55636 0
M  V30 444 C 42.3188 1.32993 -1.8667 0
M  V30 445 C 43.3318 1.44345 -0.752877 0
M  V30 446 O 44.5208 1.45715 -1.03098 0
M  V30 447 C 41.6208 2.70863 -2.03682 0
M  V30 448 C 40.7938 2.81792 -3.34532 0
M  V30 449 C 39.8528 4.005 -3.41301 0
M  V30 450 O 38.8788 3.9008 -4.14519 0
M  V30 451 N 40.0808 5.13618 -2.70512 0
M  V30 452 H 42.8458 1.06707 -2.8006 0
M  V30 453 H 40.4068 0.438129 -1.55859 0
M  V30 454 H 42.3988 3.48612 -2.05553 0
M  V30 455 H 40.9688 2.89862 -1.17041 0
M  V30 456 H 40.1888 1.90729 -3.44987 0
M  V30 457 H 41.4768 2.86043 -4.20781 0
M  V30 458 H 40.8748 5.24975 -2.10755 0
M  V30 459 H 39.4318 5.89505 -2.78077 0
M  V30 460 N 42.8649 1.48995 0.513639 0
M  V30 461 C 43.7749 1.67443 1.64317 0
M  V30 462 C 44.7909 0.556947 1.64846 0
M  V30 463 O 45.9669 0.830082 1.83498 0
M  V30 464 C 43.0319 1.72515 3.00732 0
M  V30 465 C 42.0929 2.96009 3.1093 0
M  V30 466 C 41.3259 3.00829 4.40837 0
M  V30 467 O 41.5489 2.13594 5.28898 0
M  V30 468 O 40.4829 3.93168 4.55744 0
M  V30 469 H 44.3089 2.63106 1.51687 0
M  V30 470 H 41.8939 1.32588 0.688543 0
M  V30 471 H 43.7759 1.78277 3.81831 0
M  V30 472 H 42.4509 0.800278 3.13651 0
M  V30 473 H 41.3579 2.9577 2.29065 0
M  V30 474 H 42.6909 3.87934 3.02933 0
M  V30 475 N 44.343 -0.763751 1.37857 0
M  V30 476 C 45.306 -1.85889 1.34081 0
M  V30 477 C 46.306 -1.58949 0.243277 0
M  V30 478 O 47.496 -1.66882 0.499589 0
M  V30 479 C 44.628 -3.23176 1.08489 0
M  V30 480 H 45.821 -1.90648 2.31502 0
M  V30 481 H 43.374 -0.964367 1.23003 0
M  V30 482 H 44.109 -3.24091 0.116318 0
M  V30 483 H 43.894 -3.44124 1.8794 0
M  V30 484 H 45.384 -4.03254 1.08517 0
M  V30 485 N 45.8211 -1.22559 -0.990812 0
M  V30 486 C 47.0691 -1.04933 -1.72724 0
M  V30 487 C 47.3901 0.416158 -1.90508 0
M  V30 488 O 46.6601 1.29918 -1.46622 0
M  V30 489 H 45.2401 -0.385296 -0.639965 0
M  V30 490 H 47.9021 -1.54105 -1.19322 0
M  V30 491 H 46.9981 -1.52886 -2.72089 0
M  V30 492 N 47.2992 1.18797 -1.03562 0
M  V30 493 C 48.5242 1.9314 -0.755764 0
M  V30 494 C 48.9492 1.7537 0.68022 0
M  V30 495 O 48.3072 1.06046 1.47051 0
M  V30 496 C 48.3552 3.42747 -1.12058 0
M  V30 497 O 47.4592 4.11683 -0.243124 0
M  V30 498 H 46.8002 0.602724 -0.278604 0
M  V30 499 H 49.3302 1.50678 -1.3841 0
M  V30 500 H 49.3402 3.93437 -1.08035 0
M  V30 501 H 48.0152 3.55002 -2.16672 0
M  V30 502 H 46.5922 3.71323 -0.342539 0
M  V30 503 N 48.7773 0.814389 1.34928 0
M  V30 504 C 50.0173 0.404165 2.00364 0
M  V30 505 C 50.3813 -1.01166 1.63185 0
M  V30 506 O 51.5823 -1.52431 2.21401 0
M  V30 507 C 49.8533 0.590718 3.52484 0
M  V30 508 S 51.4123 0.272075 4.37956 0
M  V30 509 H 48.2303 0.15311 0.694319 0
M  V30 510 H 50.8323 1.05834 1.64376 0
M  V30 511 H 49.5363 1.62099 3.77031 0
M  V30 512 H 49.0673 -0.0785013 3.93322 0
M  V30 513 H 51.0823 -0.917405 4.87645 0
M  V30 514 N 50.2554 -1.46986 0.568584 0
M  V30 515 C 51.5014 -2.02741 0.0488709 0
M  V30 516 C 51.8344 -1.44077 -1.30214 0
M  V30 517 O 51.1094 -0.600552 -1.84996 0
M  V30 518 C 51.3924 -3.60086 -0.032047 0
M  V30 519 C 51.2454 -4.29162 1.34686 0
M  V30 520 C 52.5644 -4.33838 -0.739798 0
M  V30 521 H 49.6834 -0.736749 0.0192338 0
M  V30 522 H 52.3254 -1.75289 0.733065 0
M  V30 523 H 50.4754 -3.83606 -0.61473 0
M  V30 524 H 52.1474 -4.16948 1.97362 0
M  V30 525 H 50.3904 -3.89073 1.91846 0
M  V30 526 H 51.0614 -5.37826 1.24285 0
M  V30 527 H 53.5374 -4.15378 -0.244939 0
M  V30 528 H 52.4134 -5.43537 -0.765406 0
M  V30 529 H 52.6744 -4.03875 -1.79827 0
M  V30 530 N 51.7335 -0.305618 -1.54608 0
M  V30 531 C 52.6655 0.602161 -2.21149 0
M  V30 532 C 53.6785 1.09394 -1.20569 0
M  V30 533 O 54.8675 1.0106 -1.47136 0
M  V30 534 C 51.9675 1.83692 -2.84799 0
M  V30 535 C 51.1405 1.48686 -4.11353 0
M  V30 536 C 50.1995 2.57725 -4.58764 0
M  V30 537 O 49.2255 2.22623 -5.23858 0
M  V30 538 N 50.4275 3.88346 -4.31471 0
M  V30 539 H 53.1925 0.0324966 -2.99682 0
M  V30 540 H 50.7535 -0.128021 -1.61393 0
M  V30 541 H 52.7455 2.55994 -3.13448 0
M  V30 542 H 51.3155 2.31486 -2.10078 0
M  V30 543 H 50.5355 0.596269 -3.89664 0
M  V30 544 H 51.8235 1.22842 -4.93748 0
M  V30 545 H 51.2215 4.19671 -3.79331 0
M  V30 546 H 49.7785 4.56932 -4.64818 0
M  V30 547 N 53.2116 1.57565 -0.0334293 0
M  V30 548 C 54.4886 1.83282 0.683163 0
M  V30 549 C 54.8686 0.91823 1.90084 0
M  V30 550 O 54.2166 -0.025113 2.28486 0
M  V30 551 C 54.4266 3.32599 1.0573 0
M  V30 552 C 55.7746 3.99179 1.44711 0
M  V30 553 O 56.7986 3.3712 1.15015 0
M  V30 554 O 55.6576 5.08565 2.0006 0
M  V30 555 H 52.7516 0.755869 0.335546 0
M  V30 556 H 55.2976 1.69589 -0.0614402 0
M  V30 557 H 54.0696 3.90834 0.190828 0
M  V30 558 H 53.6926 3.51415 1.85993 0
M  V30 559 N 54.6897 -0.239769 1.55765 0
M  V30 560 C 55.9377 -0.964892 1.77579 0
M  V30 561 C 56.2587 -1.85582 0.598699 0
M  V30 562 O 55.5287 -1.92075 -0.385226 0
M  V30 563 H 54.1087 -0.359265 0.654933 0
M  V30 564 H 56.7707 -0.256001 1.93211 0
M  V30 565 H 55.8667 -1.58243 2.69009 0
M  V30 566 N 56.1678 -1.49265 -0.50573 0
M  V30 567 C 57.0998 -1.617 -1.62437 0
M  V30 568 C 58.1128 -0.499924 -1.54934 0
M  V30 569 O 59.3018 -0.771785 -1.60953 0
M  V30 570 C 56.4018 -1.5533 -3.01207 0
M  V30 571 C 55.5748 -2.8249 -3.33943 0
M  V30 572 C 54.6338 -2.69238 -4.52103 0
M  V30 573 O 53.6598 -3.43167 -4.5412 0
M  V30 574 N 54.8618 -1.80468 -5.51735 0
M  V30 575 H 57.6268 -2.58177 -1.52199 0
M  V30 576 H 55.1878 -1.46294 -0.693511 0
M  V30 577 H 57.1798 -1.44125 -3.78167 0
M  V30 578 H 55.7498 -0.667297 -3.05395 0
M  V30 579 H 54.9698 -3.08081 -2.45926 0
M  V30 580 H 56.2578 -3.66802 -3.5261 0
M  V30 581 H 55.6558 -1.19653 -5.52901 0
M  V30 582 H 54.2128 -1.75188 -6.27816 0
M  V30 583 N 57.6459 0.756429 -1.3826 0
M  V30 584 C 59.0619 1.0591 -1.19395 0
M  V30 585 C 59.2619 2.01459 -0.0406567 0
M  V30 586 O 58.3179 2.44909 0.614467 0
M  V30 587 C 59.6309 1.64191 -2.51916 0
M  V30 588 C 61.1789 1.76376 -2.58574 0
M  V30 589 C 61.6539 2.38069 -3.91264 0
M  V30 590 N 63.1449 2.45503 -3.92788 0
M  V30 591 C 63.8799 2.94126 -4.92217 0
M  V30 592 N 63.3759 3.42805 -6.02043 0
M  V30 593 N 65.1689 2.9314 -4.7961 0
M  V30 594 H 57.3199 0.122313 -2.12048 0
M  V30 595 H 59.5829 0.116892 -0.940766 0
M  V30 596 H 59.2889 1.01451 -3.3675 0
M  V30 597 H 59.1629 2.6329 -2.70108 0
M  V30 598 H 61.5499 2.38244 -1.74137 0
M  V30 599 H 61.6309 0.759894 -2.44252 0
M  V30 600 H 61.2749 1.76835 -4.76121 0
M  V30 601 H 61.2049 3.39091 -4.02895 0
M  V30 602 H 63.6959 2.1107 -3.13461 0
M  V30 603 H 64.0089 3.78354 -6.73846 0
M  V30 604 H 62.3539 3.4087 -6.05667 0
M  V30 605 H 65.5449 2.54419 -3.92923 0
M  V30 606 H 65.7179 3.30721 -5.5725 0
M  V30 607 N 59.124 1.23083 0.984299 0
M  V30 608 C 60.354 1.08556 1.75781 0
M  V30 609 C 60.762 -0.366171 1.85623 0
M  V30 610 O 60.105 -1.26524 1.33182 0
M  V30 611 C 60.167 1.63208 3.20318 0
M  V30 612 C 59.831 3.11922 3.33997 0
M  V30 613 C 60.828 4.09259 3.2063 0
M  V30 614 C 58.513 3.51552 3.58771 0
M  V30 615 C 60.507 5.4421 3.31835 0
M  V30 616 C 58.194 4.86649 3.69616 0
M  V30 617 C 59.192 5.82787 3.56157 0
M  V30 618 O 58.88 7.15431 3.66626 0
M  V30 619 H 58.612 0.380713 0.5586 0
M  V30 620 H 61.166 1.63321 1.2456 0
M  V30 621 H 59.396 1.0286 3.72769 0
M  V30 622 H 61.085 1.44216 3.79416 0
M  V30 623 H 61.851 3.79984 3.01392 0
M  V30 624 H 57.73 2.77239 3.6832 0
M  V30 625 H 61.274 6.1923 3.21247 0
M  V30 626 H 57.171 5.15601 3.88363 0
M  V30 627 H 57.939 7.23127 3.83445 0
M  V30 628 N 60.6021 -1.18246 1.0419 0
M  V30 629 C 61.5501 -2.23968 0.627792 0
M  V30 630 C 62.5441 -1.65828 -0.346019 0
M  V30 631 O 63.7501 -1.78733 -0.213175 0
M  V30 632 H 60.1251 -0.728939 0.184802 0
M  V30 633 H 62.0961 -2.56202 1.52981 0
M  V30 634 C 60.8451 -3.47699 0.00796591 0
M  V30 635 H 60.1681 -3.92734 0.748347 0
M  V30 636 H 61.6081 -4.23294 -0.24455 0
M  V30 637 C 60.0671 -3.13153 -1.24246 0
M  V30 638 O 60.5971 -3.27003 -2.33307 0
M  V30 639 N 58.8031 -2.67467 -1.13622 0
M  V30 640 H 58.3501 -2.56396 -0.248734 0
M  V30 641 H 58.3081 -2.44724 -1.97377 0
M  V30 642 N 62.0802 -0.821533 -1.34494 0
M  V30 643 C 63.3572 -0.33159 -1.92769 0
M  V30 644 C 63.7372 1.18088 -1.74981 0
M  V30 645 O 63.0852 1.98733 -1.12772 0
M  V30 646 C 63.2952 -0.759398 -3.40638 0
M  V30 647 C 64.6432 -0.757433 -4.1779 0
M  V30 648 O 65.6672 -0.70189 -3.49216 0
M  V30 649 O 64.5262 -0.829361 -5.4017 0
M  V30 650 H 61.6202 -0.0902502 -0.822061 0
M  V30 651 H 64.1662 -0.906231 -1.43477 0
M  V30 652 H 62.9382 -1.8012 -3.47379 0
M  V30 653 H 62.5612 -0.160378 -3.97276 0
M  V30 654 N 63.5583 1.46682 -0.576371 0
M  V30 655 C 64.5053 2.30241 0.160499 0
M  V30 656 C 65.4753 1.40233 0.890162 0
M  V30 657 O 66.6603 1.69186 0.882084 0
M  V30 658 C 63.8003 3.24578 1.1723 0
M  V30 659 C 62.9133 4.29684 0.446736 0
M  V30 660 C 62.0483 5.11154 1.44551 0
M  V30 661 C 61.0873 6.08015 0.70599 0
M  V30 662 N 60.2243 6.82376 1.65251 0
M  V30 663 H 65.0643 2.92727 -0.558127 0
M  V30 664 H 62.6013 1.44272 -0.287056 0
M  V30 665 H 64.5593 3.77711 1.77172 0
M  V30 666 H 63.1893 2.63916 1.85872 0
M  V30 667 H 62.2413 3.79458 -0.267594 0
M  V30 668 H 63.5533 4.98626 -0.131686 0
M  V30 669 H 62.7073 5.68533 2.11791 0
M  V30 670 H 61.4463 4.42158 2.05786 0
M  V30 671 H 60.4513 5.49796 0.0197725 0
M  V30 672 H 61.6763 6.79028 0.09912 0
M  V30 673 H 59.6223 6.16094 2.25308 0
M  V30 674 H 59.5393 7.47556 1.12673 0
M  V30 675 H 60.8073 7.44316 2.31546 0
M  V30 676 N 65.0364 0.313813 1.54444 0
M  V30 677 C 66.3134 -0.345447 1.92525 0
M  V30 678 C 66.6934 -1.70667 1.24242 0
M  V30 679 O 66.0414 -2.25273 0.382654 0
M  V30 680 C 66.2514 -0.44737 3.46121 0
M  V30 681 C 67.5994 -0.712238 4.18584 0
M  V30 682 O 68.6234 -0.530678 3.52225 0
M  V30 683 O 67.4824 -1.06183 5.36085 0
M  V30 684 H 64.5764 -0.195407 0.803583 0
M  V30 685 H 67.1224 0.362813 1.65776 0
M  V30 686 H 65.8944 0.509043 3.87975 0
M  V30 687 H 65.5174 -1.20359 3.78945 0
M  V30 688 N 66.5145 -1.57545 0.0417849 0
M  V30 689 C 67.7605 -1.92601 -0.635021 0
M  V30 690 C 68.0935 -0.919627 -1.71045 0
M  V30 691 O 67.3685 0.0557892 -1.9442 0
M  V30 692 C 67.6515 -3.38085 -1.23979 0
M  V30 693 C 67.5045 -4.49467 -0.173057 0
M  V30 694 C 68.8235 -3.83776 -2.15416 0
M  V30 695 H 65.9425 -0.700397 -0.229374 0
M  V30 696 H 68.5845 -1.89728 0.101633 0
M  V30 697 H 66.7345 -3.40664 -1.86762 0
M  V30 698 H 68.4065 -4.59018 0.458312 0
M  V30 699 H 66.6495 -4.30909 0.499996 0
M  V30 700 H 67.3205 -5.48323 -0.636054 0
M  V30 701 H 69.7965 -3.83013 -1.62605 0
M  V30 702 H 68.6725 -4.8624 -2.54679 0
M  V30 703 H 68.9335 -3.19998 -3.05047 0
M  V30 704 N 67.9926 0.231505 -1.5589 0
M  V30 705 C 69.2386 0.954429 -1.79617 0
M  V30 706 C 69.5936 1.82367 -0.613199 0
M  V30 707 O 68.8866 1.87524 0.393094 0
M  V30 708 C 69.0806 1.83577 -3.0665 0
M  V30 709 C 68.9096 1.05334 -4.3719 0
M  V30 710 C 67.6796 0.75225 -4.99669 0
M  V30 711 C 69.8776 0.423444 -5.12554 0
M  V30 712 N 67.8596 -0.052627 -6.13877 0
M  V30 713 C 69.2306 -0.245287 -6.19515 0
M  V30 714 C 71.2856 0.335466 -4.96769 0
M  V30 715 C 69.9886 -0.993566 -7.12405 0
M  V30 716 C 72.0146 -0.399321 -5.9005 0
M  V30 717 C 71.3766 -1.05663 -6.9643 0
M  V30 718 H 67.4756 0.329846 -0.709031 0
M  V30 719 H 70.0596 0.226172 -1.93382 0
M  V30 720 H 68.2306 2.53592 -2.94186 0
M  V30 721 H 69.9626 2.49541 -3.18608 0
M  V30 722 H 66.7176 1.06783 -4.61405 0
M  V30 723 H 67.1416 -0.443609 -6.75545 0
M  V30 724 H 71.7836 0.829311 -4.14587 0
M  V30 725 H 69.5016 -1.49896 -7.94076 0
M  V30 726 H 73.0876 -0.468265 -5.79913 0
M  V30 727 H 71.9676 -1.61612 -7.67366 0
M  V30 728 N 69.4707 1.49531 0.497807 0
M  V30 729 C 70.4177 1.66436 1.59899 0
M  V30 730 C 71.3877 0.505793 1.58212 0
M  V30 731 O 72.5727 0.733202 1.7615 0
M  V30 732 C 69.7127 1.7399 2.98029 0
M  V30 733 C 68.8257 3.01172 3.09708 0
M  V30 734 C 67.9607 2.99686 4.38591 0
M  V30 735 C 66.9997 4.21434 4.43914 0
M  V30 736 N 66.1367 4.1784 5.64229 0
M  V30 737 H 70.9767 2.60459 1.44793 0
M  V30 738 H 68.5137 1.29137 0.704423 0
M  V30 739 H 70.4717 1.76352 3.78095 0
M  V30 740 H 69.1017 0.834301 3.11832 0
M  V30 741 H 68.1537 3.08408 2.22685 0
M  V30 742 H 69.4657 3.91165 3.09502 0
M  V30 743 H 68.6197 3.00628 5.2698 0
M  V30 744 H 67.3587 2.07477 4.41367 0
M  V30 745 H 66.3637 4.20733 3.53926 0
M  V30 746 H 67.5887 5.14839 4.42851 0
M  V30 747 H 65.5347 3.28469 5.67841 0
M  V30 748 H 65.4517 5.01571 5.65652 0
M  V30 749 H 66.7197 4.22889 6.54817 0
M  V30 750 N 70.9488 -0.749086 1.3866 0
M  V30 751 C 72.3598 -1.32664 1.31366 0
M  V30 752 C 72.7108 -1.96179 -0.028484 0
M  V30 753 O 71.8358 -1.9537 -0.93057 0
M  V30 754 C 72.4308 -2.41219 2.37905 0
M  V30 755 C 70.9898 -2.94684 2.34176 0
M  V30 756 C 70.1368 -1.68108 2.20533 0
M  V30 757 H 73.0878 -0.547628 1.48952 0
M  V30 758 H 73.1088 -3.21268 2.0388 0
M  V30 759 H 72.6208 -1.94962 3.35576 0
M  V30 760 H 70.7218 -3.45258 1.401 0
M  V30 761 H 70.8348 -3.48757 3.2849 0
M  V30 762 H 69.1988 -1.91907 1.67463 0
M  V30 763 H 69.9818 -1.23923 3.20153 0
M  V30 764 N 72.4269 -1.23603 -0.977757 0
M  V30 765 C 73.3369 -1.03632 -2.1047 0
M  V30 766 C 74.3529 0.0199435 -1.73989 0
M  V30 767 O 75.5289 -0.176076 -2.00629 0
M  V30 768 C 72.5939 -0.63276 -3.40877 0
M  V30 769 C 71.6549 -1.76437 -3.91367 0
M  V30 770 C 70.8879 -1.37997 -5.15551 0
M  V30 771 O 71.1109 -0.265357 -5.69782 0
M  V30 772 O 70.0449 -2.20201 -5.60174 0
M  V30 773 H 73.8709 -1.98086 -2.30208 0
M  V30 774 H 71.4559 -1.02332 -1.08851 0
M  V30 775 H 73.3379 -0.418761 -4.19314 0
M  V30 776 H 72.0129 0.282754 -3.22463 0
M  V30 777 H 70.9199 -2.03304 -3.14036 0
M  V30 778 H 72.2529 -2.6583 -4.14241 0
M  V30 779 N 73.905 1.17692 -1.04816 0
M  V30 780 C 75.316 1.69501 -0.782698 0
M  V30 781 C 75.667 1.83456 0.695577 0
M  V30 782 O 74.792 1.51942 1.54086 0
M  V30 783 C 75.387 3.07874 -1.41419 0
M  V30 784 C 73.946 3.56864 -1.19686 0
M  V30 785 C 73.093 2.3322 -1.50012 0
M  V30 786 H 76.044 1.02262 -1.2136 0
M  V30 787 H 76.065 3.71528 -0.821428 0
M  V30 788 H 75.577 2.97685 -2.49009 0
M  V30 789 H 73.678 3.72337 -0.140043 0
M  V30 790 H 73.791 4.39851 -1.89916 0
M  V30 791 H 72.155 2.37501 -0.920071 0
M  V30 792 H 72.938 2.25644 -2.58727 0
M  V30 793 N 75.3831 0.828654 1.34056 0
M  V30 794 C 76.6231 0.425394 1.99924 0
M  V30 795 C 76.9871 -0.994294 1.64249 0
M  V30 796 O 78.1881 -1.50074 2.23005 0
M  V30 797 C 76.4591 0.628071 3.51838 0
M  V30 798 S 78.0181 0.318511 4.37642 0
M  V30 799 H 74.8361 0.160465 0.692656 0
M  V30 800 H 77.4381 1.07572 1.63244 0
M  V30 801 H 76.1421 1.66089 3.7529 0
M  V30 802 H 75.6731 -0.0367799 3.93383 0
M  V30 803 H 77.6881 -0.865632 4.88591 0
M  V30 804 N 76.8612 -1.46375 0.584142 0
M  V30 805 C 78.2772 -1.57694 0.245929 0
M  V30 806 C 78.4772 -1.57903 -1.25175 0
M  V30 807 O 77.5332 -1.49676 -2.03355 0
M  V30 808 C 78.8462 -2.87028 0.896402 0
M  V30 809 C 80.3942 -3.00662 0.870127 0
M  V30 810 C 80.8692 -4.32734 1.50017 0
M  V30 811 N 82.3602 -4.39436 1.46458 0
M  V30 812 C 83.0952 -5.40248 1.92144 0
M  V30 813 N 82.5912 -6.47726 2.4581 0
M  V30 814 N 84.3842 -5.31459 1.83052 0
M  V30 815 H 76.5352 -1.44483 1.55687 0
M  V30 816 H 78.7982 -0.689291 0.650831 0
M  V30 817 H 78.5042 -2.9269 1.95002 0
M  V30 818 H 78.3782 -3.75014 0.405486 0
M  V30 819 H 80.7652 -2.94581 -0.174871 0
M  V30 820 H 80.8462 -2.14148 1.39908 0
M  V30 821 H 80.4902 -4.39573 2.54437 0
M  V30 822 H 80.4202 -5.18025 0.946432 0
M  V30 823 H 82.9112 -3.62367 1.07231 0
M  V30 824 H 83.2242 -7.20863 2.78525 0
M  V30 825 H 81.5692 -6.48542 2.49836 0
M  V30 826 H 84.7602 -4.46396 1.40883 0
M  V30 827 H 84.9332 -6.09881 2.18973 0
M  V30 828 N 78.3393 -0.321999 -1.54275 0
M  V30 829 C 79.5883 0.281931 -1.9972 0
M  V30 830 C 79.9013 1.53369 -1.21397 0
M  V30 831 O 81.1073 2.21352 -1.57211 0
M  V30 832 C 79.5633 0.5529 -3.55628 0
M  V30 833 C 79.1713 -0.681721 -4.42783 0
M  V30 834 C 80.9153 1.11687 -4.09544 0
M  V30 835 C 78.8223 -0.382742 -5.9016 0
M  V30 836 H 77.7523 0.109124 -0.746062 0
M  V30 837 H 80.4033 -0.43398 -1.78294 0
M  V30 838 H 78.7853 1.32896 -3.73035 0
M  V30 839 H 79.9593 -1.45723 -4.37151 0
M  V30 840 H 78.2743 -1.1658 -3.99748 0
M  V30 841 H 80.8713 1.35515 -5.17242 0
M  V30 842 H 81.2143 2.06575 -3.61431 0
M  V30 843 H 81.7473 0.402032 -3.95763 0
M  V30 844 H 78.4863 -1.30076 -6.42464 0
M  V30 845 H 78.0063 0.355094 -5.98748 0
M  V30 846 H 79.6853 0.00800157 -6.47 0
M  V30 847 N 79.8174 1.5752 -0.0501392 0
M  V30 848 C 81.0574 1.94521 0.627783 0
M  V30 849 C 81.4214 0.928265 1.68069 0
M  V30 850 O 82.6224 1.18517 2.41261 0
M  V30 851 C 80.8934 3.36319 1.20932 0
M  V30 852 S 82.4524 3.95272 1.90539 0
M  V30 853 H 79.2704 0.680456 0.206158 0
M  V30 854 H 81.8724 1.95139 -0.118829 0
M  V30 855 H 80.5764 4.08132 0.430865 0
M  V30 856 H 80.1074 3.39193 1.99277 0
M  V30 857 H 82.1224 3.80415 3.18589 0
M  V30 858 N 81.2955 -0.223234 1.56011 0
M  V30 859 C 82.5415 -0.949279 1.79211 0
M  V30 860 C 82.8745 -1.84054 0.619494 0
M  V30 861 O 82.1495 -1.90726 -0.381317 0
M  V30 862 C 82.4325 -1.78965 3.12479 0
M  V30 863 C 82.2855 -0.924997 4.40186 0
M  V30 864 C 83.6045 -2.76774 3.42175 0
M  V30 865 H 80.7235 -0.343676 0.651963 0
M  V30 866 H 83.3655 -0.218253 1.88742 0
M  V30 867 H 81.5155 -2.41291 3.04485 0
M  V30 868 H 83.1875 -0.318615 4.60198 0
M  V30 869 H 81.4305 -0.230344 4.33188 0
M  V30 870 H 82.1015 -1.54735 5.29869 0
M  V30 871 H 84.5775 -2.24584 3.50287 0
M  V30 872 H 83.4535 -3.32678 4.36597 0
M  V30 873 H 83.7145 -3.54429 2.64258 0
M  V30 874 N 82.7736 -1.49793 -0.48987 0
M  V30 875 C 84.0136 -1.61466 -1.25332 0
M  V30 876 C 84.3776 -0.299688 -1.89647 0
M  V30 877 O 85.5786 -0.291687 -2.67213 0
M  V30 878 C 83.8496 -2.74944 -2.28343 0
M  V30 879 S 85.4086 -3.06637 -3.13878 0
M  V30 880 H 82.2266 -0.569411 -0.425784 0
M  V30 881 H 84.8286 -1.875 -0.553541 0
M  V30 882 H 83.5326 -3.68994 -1.79643 0
M  V30 883 H 83.0636 -2.50938 -3.02975 0
M  V30 884 H 85.0786 -2.49015 -4.29192 0
M  V30 885 N 84.2517 0.741722 -1.39055 0
M  V30 886 C 85.5287 1.49252 -1.26425 0
M  V30 887 C 85.9087 2.10705 0.129144 0
M  V30 888 O 85.2567 1.98045 1.13976 0
M  V30 889 C 85.4667 2.54934 -2.38347 0
M  V30 890 C 86.8147 3.21506 -2.77343 0
M  V30 891 O 87.8387 2.65245 -2.37747 0
M  V30 892 O 86.6977 4.23294 -3.45665 0
M  V30 893 H 83.7917 0.662451 -0.495064 0
M  V30 894 H 86.3377 0.776121 -1.50912 0
M  V30 895 H 85.1097 2.07857 -3.31529 0
M  V30 896 H 84.7327 3.34141 -2.15489 0
M  V30 897 N 85.7298 1.2412 0.971189 0
M  V30 898 C 86.9578 1.10575 1.74874 0
M  V30 899 C 87.3728 -0.342017 1.85676 0
M  V30 900 O 86.7298 -1.23617 1.34258 0
M  V30 901 C 86.7808 1.73579 3.171 0
M  V30 902 O 86.5018 3.12695 3.06844 0
M  V30 903 C 88.0028 1.65598 4.11208 0
M  V30 904 H 85.2228 0.386504 0.548503 0
M  V30 905 H 87.7668 1.64156 1.21955 0
M  V30 906 H 85.9218 1.24009 3.67016 0
M  V30 907 H 86.3358 3.43412 3.96445 0
M  V30 908 H 87.8098 2.1437 5.08674 0
M  V30 909 H 88.2868 0.616532 4.34851 0
M  V30 910 H 88.8928 2.14578 3.67201 0
M  V30 911 N 87.2079 -1.17134 1.05439 0
M  V30 912 C 88.4559 -1.87085 0.764429 0
M  V30 913 C 88.7769 -1.81584 -0.710787 0
M  V30 914 O 88.0469 -1.24349 -1.51374 0
M  V30 915 H 86.6269 -0.692627 0.279779 0
M  V30 916 H 89.2889 -1.42087 1.33406 0
M  V30 917 H 88.3849 -2.92759 1.0816 0
M  V30 918 N 88.686 -0.835752 -1.33615 0
M  V30 919 C 89.914 -0.443344 -2.02094 0
M  V30 920 C 90.329 0.954522 -1.62894 0
M  V30 921 O 89.686 1.61982 -0.840723 0
M  V30 922 C 89.737 -0.550775 -3.5728 0
M  V30 923 O 89.458 -1.89356 -3.95065 0
M  V30 924 C 90.959 -0.154919 -4.43029 0
M  V30 925 H 88.179 -0.176359 -0.647409 0
M  V30 926 H 90.723 -1.12746 -1.70612 0
M  V30 927 H 88.878 0.0853997 -3.87306 0
M  V30 928 H 89.292 -1.87687 -4.89769 0
M  V30 929 H 90.766 -0.281144 -5.51284 0
M  V30 930 H 91.243 0.902863 -4.2982 0
M  V30 931 H 91.849 -0.765404 -4.18356 0
M  V30 932 N 90.1641 1.46063 -0.591896 0
M  V30 933 C 91.4101 2.02638 -0.0811191 0
M  V30 934 C 91.7431 1.4613 1.27905 0
M  V30 935 O 91.0181 0.629908 1.84017 0
M  V30 936 C 91.3011 3.60091 -0.0252436 0
M  V30 937 C 91.1541 4.26965 -1.41496 0
M  V30 938 C 92.4731 4.3496 0.670685 0
M  V30 939 H 89.5921 0.73635 -0.0309524 0
M  V30 940 H 92.2341 1.741 -0.760859 0
M  V30 941 H 90.3841 3.84535 0.553624 0
M  V30 942 H 92.0561 4.13756 -2.0397 0
M  V30 943 H 90.2991 3.85971 -1.98011 0
M  V30 944 H 90.9701 5.35781 -1.32825 0
M  V30 945 H 93.4461 4.15716 0.178825 0
M  V30 946 H 92.3221 5.44686 0.678837 0
M  V30 947 H 92.5831 4.06685 1.73379 0
M  V30 948 N 91.6422 0.330177 1.54103 0
M  V30 949 C 92.5722 -0.525353 2.27513 0
M  V30 950 C 93.5532 -1.11383 1.2856 0
M  V30 951 O 94.7382 -1.13773 1.57383 0
M  V30 952 C 91.8682 -1.6831 3.03791 0
M  V30 953 C 90.8222 -1.2236 4.10137 0
M  V30 954 C 90.1482 -2.46882 4.74293 0
M  V30 955 C 91.4482 -0.333697 5.21233 0
M  V30 956 H 93.1422 0.087013 2.99274 0
M  V30 957 H 90.6882 0.0432893 1.43935 0
M  V30 958 H 92.6412 -2.28795 3.5388 0
M  V30 959 H 91.3652 -2.32216 2.29659 0
M  V30 960 H 90.0242 -0.64165 3.60941 0
M  V30 961 H 89.6722 -3.09165 3.96769 0
M  V30 962 H 89.3722 -2.16825 5.46133 0
M  V30 963 H 90.8962 -3.08117 5.27159 0
M  V30 964 H 92.3102 -0.845013 5.67038 0
M  V30 965 H 90.7072 -0.125612 5.99969 0
M  V30 966 H 91.7772 0.633724 4.80741 0
M  V30 967 N 93.1203 -1.57491 0.0584922 0
M  V30 968 C 94.3603 -1.94851 -0.617458 0
M  V30 969 C 94.7243 -0.937165 -1.67575 0
M  V30 970 O 95.9253 -1.19795 -2.40629 0
M  V30 971 C 94.1963 -3.36955 -1.19147 0
M  V30 972 S 95.7553 -3.96277 -1.8844 0
M  V30 973 H 92.5733 -0.681539 -0.202547 0
M  V30 974 H 95.1753 -1.95073 0.129176 0
M  V30 975 H 93.8793 -4.08355 -0.409215 0
M  V30 976 H 93.4103 -3.40245 -1.97476 0
M  V30 977 H 95.4253 -3.82099 -3.16568 0
M  V30 978 N 94.5984 0.214957 -1.56127 0
M  V30 979 C 95.8754 0.963093 -1.70247 0
M  V30 980 C 96.2554 2.02166 -0.60764 0
M  V30 981 O 95.6034 2.25244 0.384385 0
M  V30 982 C 95.8134 1.56756 -3.11815 0
M  V30 983 C 97.1614 2.0573 -3.7143 0
M  V30 984 O 98.1854 1.66637 -3.14818 0
M  V30 985 O 97.0444 2.77603 -4.70743 0
M  V30 986 H 94.1384 0.450321 -0.693643 0
M  V30 987 H 96.6844 0.206219 -1.68442 0
M  V30 988 H 95.4564 0.803533 -3.82961 0
M  V30 989 H 95.0794 2.3898 -3.17765 0
M  V30 990 N 96.0765 1.50051 0.48192 0
M  V30 991 C 97.3535 1.51009 1.2432 0
M  V30 992 C 97.7335 0.248587 2.09631 0
M  V30 993 O 97.0815 -0.768409 2.15192 0
M  V30 994 C 97.2915 2.79981 2.08355 0
M  V30 995 C 98.6395 3.3022 2.66908 0
M  V30 996 O 99.6635 2.81228 2.18607 0
M  V30 997 O 98.5225 4.15595 3.54884 0
M  V30 998 H 95.6165 0.605239 0.563573 0
M  V30 999 H 98.1625 1.62332 0.494627 0
M  V30 1000 H 96.9345 3.63275 1.45419 0
M  V30 1001 H 96.5575 2.7161 2.90368 0
M  V30 1002 N 97.5546 -0.734337 1.39446 0
M  V30 1003 C 98.8036 -1.48937 1.36017 0
M  V30 1004 C 99.1166 -1.95557 -0.0409005 0
M  V30 1005 O 100.323 -2.70779 -0.19778 0
M  V30 1006 C 98.7786 -2.69125 2.38955 0
M  V30 1007 C 98.3866 -2.29452 3.8478 0
M  V30 1008 C 100.131 -3.46944 2.44603 0
M  V30 1009 C 98.0376 -3.46366 4.79358 0
M  V30 1010 H 96.9676 -0.559296 0.505672 0
M  V30 1011 H 99.6186 -0.800983 1.65095 0
M  V30 1012 H 98.0006 -3.40041 2.02948 0
M  V30 1013 H 99.1746 -1.66077 4.29831 0
M  V30 1014 H 97.4896 -1.64723 3.82433 0
M  V30 1015 H 100.087 -4.33907 3.12456 0
M  V30 1016 H 100.43 -3.89454 1.47076 0
M  V30 1017 H 100.963 -2.83056 2.79507 0
M  V30 1018 H 97.7016 -3.08905 5.78151 0
M  V30 1019 H 97.2216 -4.08719 4.38986 0
M  V30 1020 H 98.9006 -4.12691 4.98292 0
M  V30 1021 N 99.0327 -1.24633 -0.964593 0
M  V30 1022 C 100.282 -1.08188 -1.7023 0
M  V30 1023 C 100.595 0.37873 -1.91898 0
M  V30 1024 O 101.801 0.663427 -2.6327 0
M  V30 1025 C 100.257 -1.88773 -3.06419 0
M  V30 1026 C 99.8647 -3.39263 -2.92582 0
M  V30 1027 C 101.609 -1.80867 -3.84041 0
M  V30 1028 C 99.5157 -4.1218 -4.24101 0
M  V30 1029 H 98.4457 -0.401245 -0.638372 0
M  V30 1030 H 101.097 -1.48742 -1.07462 0
M  V30 1031 H 99.4787 -1.41035 -3.70034 0
M  V30 1032 H 100.653 -3.94603 -2.37961 0
M  V30 1033 H 98.9677 -3.48154 -2.28424 0
M  V30 1034 H 101.565 -2.32646 -4.81435 0
M  V30 1035 H 101.908 -0.774543 -4.09031 0
M  V30 1036 H 102.441 -2.26301 -3.27159 0
M  V30 1037 H 99.1797 -5.15965 -4.04303 0
M  V30 1038 H 98.6997 -3.61626 -4.78526 0
M  V30 1039 H 100.379 -4.19349 -4.92702 0
M  V30 1040 N 100.511 1.16574 -1.06058 0
M  V30 1041 C 101.751 1.88723 -0.78504 0
M  V30 1042 C 102.115 1.79706 0.676006 0
M  V30 1043 O 103.316 2.46757 1.06603 0
M  V30 1044 C 101.587 3.34338 -1.26304 0
M  V30 1045 S 103.146 4.24366 -1.1162 0
M  V30 1046 H 99.9638 0.651448 -0.284846 0
M  V30 1047 H 102.566 1.40732 -1.35701 0
M  V30 1048 H 101.27 3.38439 -2.32136 0
M  V30 1049 H 100.801 3.87378 -0.685719 0
M  V30 1050 H 102.816 4.96179 -0.0456539 0
M  V30 1051 N 101.989 0.842826 1.3317 0
M  V30 1052 C 102.899 0.281444 2.32906 0
M  V30 1053 C 103.915 -0.594587 1.63526 0
M  V30 1054 O 105.091 -0.49777 1.95152 0
M  V30 1055 C 102.156 -0.530929 3.42611 0
M  V30 1056 C 101.217 0.369843 4.27704 0
M  V30 1057 C 100.45 -0.403853 5.3217 0
M  V30 1058 O 100.673 -1.63513 5.46461 0
M  V30 1059 O 99.6069 0.224199 6.01482 0
M  V30 1060 H 103.433 1.10744 2.82789 0
M  V30 1061 H 101.018 0.60545 1.36582 0
M  V30 1062 H 102.9 -0.992437 4.09547 0
M  V30 1063 H 101.575 -1.33392 2.94938 0
M  V30 1064 H 100.482 0.879275 3.6362 0
M  V30 1065 H 101.815 1.13771 4.78871 0
M  V30 1066 N 103.467 -1.45747 0.599634 0
M  V30 1067 C 104.744 -1.95585 0.0240846 0
M  V30 1068 C 105.124 -1.54217 -1.44154 0
M  V30 1069 O 104.472 -0.800903 -2.14004 0
M  V30 1070 C 104.682 -3.48344 0.21385 0
M  V30 1071 C 106.03 -4.24504 0.0904902 0
M  V30 1072 O 107.054 -3.55911 0.143558 0
M  V30 1073 O 105.913 -5.46491 -0.0310766 0
M  V30 1074 H 103.007 -0.82602 -0.0402478 0
M  V30 1075 H 105.553 -1.55951 0.669139 0
M  V30 1076 H 104.325 -3.71397 1.23206 0
M  V30 1077 H 103.948 -3.9485 -0.466842 0
M  V30 1078 N 104.945 -0.338344 -1.53925 0
M  V30 1079 C 106.191 0.260143 -2.01125 0
M  V30 1080 C 106.524 1.50617 -1.22589 0
M  V30 1081 O 105.799 1.91979 -0.312113 0
M  V30 1082 C 106.082 0.579499 -3.55407 0
M  V30 1083 C 105.935 -0.678264 -4.44657 0
M  V30 1084 C 107.254 1.39122 -4.17532 0
M  V30 1085 H 104.373 0.0930772 -0.731099 0
M  V30 1086 H 107.015 -0.457852 -1.84401 0
M  V30 1087 H 105.165 1.19118 -3.69788 0
M  V30 1088 H 106.837 -1.31631 -4.42121 0
M  V30 1089 H 105.08 -1.3042 -4.13731 0
M  V30 1090 H 105.751 -0.410143 -5.50474 0
M  V30 1091 H 108.227 0.874035 -4.06817 0
M  V30 1092 H 107.103 1.58342 -5.25565 0
M  V30 1093 H 107.364 2.39178 -3.71815 0
M  V30 1094 N 106.423 1.57458 -0.0668435 0
M  V30 1095 C 107.37 2.12439 0.902122 0
M  V30 1096 C 108.34 1.03565 1.2986 0
M  V30 1097 O 109.525 1.312 1.38532 0
M  V30 1098 C 106.665 2.6865 2.16614 0
M  V30 1099 C 105.778 3.91663 1.82274 0
M  V30 1100 C 104.913 4.36134 3.0325 0
M  V30 1101 C 103.952 5.51808 2.64904 0
M  V30 1102 N 103.089 5.9126 3.78624 0
M  V30 1103 H 107.929 2.94934 0.426382 0
M  V30 1104 H 105.466 1.4575 0.198819 0
M  V30 1105 H 107.424 2.99346 2.90599 0
M  V30 1106 H 106.054 1.88928 2.61737 0
M  V30 1107 H 105.106 3.6746 0.983719 0
M  V30 1108 H 106.418 4.75693 1.50059 0
M  V30 1109 H 105.572 4.68465 3.85519 0
M  V30 1110 H 104.311 3.50948 3.38655 0
M  V30 1111 H 103.316 5.19133 1.81055 0
M  V30 1112 H 104.541 6.38722 2.30675 0
M  V30 1113 H 102.487 5.09024 4.138 0
M  V30 1114 H 102.404 6.70018 3.5016 0
M  V30 1115 H 103.672 6.28212 4.61486 0
M  V30 1116 N 107.901 -0.206675 1.56239 0
M  V30 1117 C 109.178 -0.954051 1.70755 0
M  V30 1118 C 109.558 -2.01841 0.618353 0
M  V30 1119 O 108.906 -2.25444 -0.372434 0
M  V30 1120 C 109.116 -1.551 3.12642 0
M  V30 1121 C 110.464 -2.03757 3.72516 0
M  V30 1122 O 111.488 -1.64965 3.15698 0
M  V30 1123 O 110.347 -2.75103 4.72208 0
M  V30 1124 H 107.441 -0.446636 0.696021 0
M  V30 1125 H 109.987 -0.197283 1.68549 0
M  V30 1126 H 108.759 -0.783212 3.83382 0
M  V30 1127 H 108.382 -2.37291 3.19028 0
M  V30 1128 N 109.379 -1.50304 -0.473955 0
M  V30 1129 C 110.619 -1.62786 -1.23612 0
M  V30 1130 C 110.983 -0.319786 -1.89318 0
M  V30 1131 O 112.184 -0.320012 -2.66888 0
M  V30 1132 C 110.455 -2.77351 -2.25414 0
M  V30 1133 S 112.014 -3.09948 -3.10608 0
M  V30 1134 H 108.832 -0.573895 -0.419721 0
M  V30 1135 H 111.434 -1.88076 -0.533623 0
M  V30 1136 H 110.138 -3.70879 -1.75719 0
M  V30 1137 H 109.669 -2.54137 -3.00296 0
M  V30 1138 H 111.684 -2.53553 -4.26527 0
M  V30 1139 N 110.857 0.726932 -1.39834 0
M  V30 1140 C 111.787 1.85405 -1.41941 0
M  V30 1141 C 112.768 1.67751 -0.281728 0
M  V30 1142 O 113.953 1.8795 -0.488717 0
M  V30 1143 C 111.083 3.23243 -1.2701 0
M  V30 1144 C 110.037 3.55549 -2.38262 0
M  V30 1145 C 109.363 4.9241 -2.08415 0
M  V30 1146 C 110.663 3.577 -3.80589 0
M  V30 1147 H 112.357 1.83899 -2.36266 0
M  V30 1148 H 109.903 0.883349 -1.13723 0
M  V30 1149 H 111.856 4.01775 -1.27103 0
M  V30 1150 H 110.58 3.25296 -0.291564 0
M  V30 1151 H 109.239 2.79351 -2.37399 0
M  V30 1152 H 108.887 4.91052 -1.0898 0
M  V30 1153 H 108.587 5.14992 -2.82943 0
M  V30 1154 H 110.111 5.73289 -2.10171 0
M  V30 1155 H 111.525 4.26293 -3.83337 0
M  V30 1156 H 109.922 3.91804 -4.54543 0
M  V30 1157 H 110.992 2.57328 -4.10987 0
M  V30 1158 N 112.336 1.25143 0.95797 0
M  V30 1159 C 113.561 1.12521 1.74223 0
M  V30 1160 C 113.986 -0.317402 1.85403 0
M  V30 1161 O 113.344 -1.2299 1.33204 0
M  V30 1162 C 113.392 1.78062 3.1357 0
M  V30 1163 O 112.496 1.058 3.98598 0
M  V30 1164 H 111.837 0.39304 0.535178 0
M  V30 1165 H 114.367 1.65641 1.201 0
M  V30 1166 H 114.377 1.84213 3.64046 0
M  V30 1167 H 113.052 2.83021 3.04749 0
M  V30 1168 H 111.629 1.07506 3.57067 0
M  V30 1169 N 113.814 -1.1601 1.06675 0
M  V30 1170 C 115.225 -1.68235 0.809565 0
M  V30 1171 C 115.576 -1.8454 -0.666303 0
M  V30 1172 O 114.701 -1.54374 -1.5165 0
M  V30 1173 C 115.296 -3.05585 1.46299 0
M  V30 1174 C 113.855 -3.54915 1.25349 0
M  V30 1175 C 113.002 -2.30804 1.53703 0
M  V30 1176 H 115.953 -1.00318 1.22971 0
M  V30 1177 H 115.974 -3.70174 0.880431 0
M  V30 1178 H 115.486 -2.93686 2.53713 0
M  V30 1179 H 113.587 -3.72067 0.199261 0
M  V30 1180 H 113.7 -4.36774 1.9689 0
M  V30 1181 H 112.064 -2.36007 0.957739 0
M  V30 1182 H 112.847 -2.21499 2.62284 0
M  V30 1183 N 115.292 -0.849877 -1.32721 0
M  V30 1184 C 116.202 -0.293791 -2.32753 0
M  V30 1185 C 117.218 0.585906 -1.63839 0
M  V30 1186 O 118.394 0.487413 -1.95413 0
M  V30 1187 C 115.459 0.512752 -3.42887 0
M  V30 1188 C 114.52 -0.39252 -4.27502 0
M  V30 1189 C 113.753 0.375625 -5.32377 0
M  V30 1190 O 113.976 1.60613 -5.4732 0
M  V30 1191 O 112.91 -0.256094 -6.01355 0
M  V30 1192 H 116.736 -1.12242 -2.82197 0
M  V30 1193 H 114.321 -0.612685 -1.36259 0
M  V30 1194 H 116.203 0.970704 -4.10067 0
M  V30 1195 H 114.878 1.31826 -2.95641 0
M  V30 1196 H 113.785 -0.898547 -3.63149 0
M  V30 1197 H 115.118 -1.16309 -4.7826 0
M  V30 1198 N 116.77 1.45427 -0.607355 0
M  V30 1199 C 118.019 2.01452 -0.100036 0
M  V30 1200 C 118.332 1.48159 1.27704 0
M  V30 1201 O 119.538 1.96159 1.87707 0
M  V30 1202 C 117.994 3.59672 -0.128158 0
M  V30 1203 C 117.602 4.21962 -1.50507 0
M  V30 1204 C 119.346 4.23262 0.323932 0
M  V30 1205 C 117.253 5.72333 -1.48959 0
M  V30 1206 H 116.183 0.75325 -0.0336299 0
M  V30 1207 H 118.834 1.66901 -0.76265 0
M  V30 1208 H 117.216 3.91411 0.601105 0
M  V30 1209 H 118.39 4.01796 -2.25602 0
M  V30 1210 H 116.705 3.70565 -1.89923 0
M  V30 1211 H 119.302 5.33522 0.354691 0
M  V30 1212 H 119.645 3.93921 1.34656 0
M  V30 1213 H 120.178 3.96239 -0.352056 0
M  V30 1214 H 116.917 6.06373 -2.48981 0
M  V30 1215 H 116.437 5.94691 -0.781214 0
M  V30 1216 H 118.116 6.35525 -1.21313 0
M  V30 1217 N 118.248 0.346503 1.53744 0
M  V30 1218 C 119.659 -0.136779 1.86198 0
M  V30 1219 C 120.01 -1.49749 1.26766 0
M  V30 1220 O 119.135 -2.08417 0.582355 0
M  V30 1221 C 119.73 -0.254966 3.37839 0
M  V30 1222 C 118.289 -0.682482 3.70161 0
M  V30 1223 C 117.436 0.181981 2.76702 0
M  V30 1224 H 120.387 0.565994 1.48264 0
M  V30 1225 H 120.408 -1.08195 3.64793 0
M  V30 1226 H 119.92 0.735526 3.81066 0
M  V30 1227 H 118.021 -1.68189 3.3248 0
M  V30 1228 H 118.134 -0.470326 4.76786 0
M  V30 1229 H 116.498 -0.34615 2.52337 0
M  V30 1230 H 117.281 1.16966 3.2276 0
M  V30 1231 N 119.726 -1.57421 0.075193 0
M  V30 1232 C 120.973 -1.93618 -0.593146 0
M  V30 1233 C 121.301 -0.955484 -1.69413 0
M  V30 1234 O 120.556 0.0283251 -1.9568 0
M  V30 1235 C 120.855 -3.36428 -1.20626 0
M  V30 1236 C 120.521 -4.50307 -0.231078 0
M  V30 1237 C 119.183 -4.81186 0.0371936 0
M  V30 1238 C 121.535 -5.19374 0.435888 0
M  V30 1239 C 118.863 -5.78466 0.979461 0
M  V30 1240 C 121.215 -6.17665 1.3665 0
M  V30 1241 C 119.879 -6.46958 1.6432 0
M  V30 1242 H 119.149 -0.708499 -0.217047 0
M  V30 1243 H 121.796 -1.90937 0.146793 0
M  V30 1244 H 120.101 -3.35592 -2.02201 0
M  V30 1245 H 121.798 -3.61727 -1.73073 0
M  V30 1246 H 118.388 -4.26227 -0.450357 0
M  V30 1247 H 122.572 -4.95711 0.241748 0
M  V30 1248 H 117.828 -5.99487 1.20106 0
M  V30 1249 H 122.002 -6.70284 1.88924 0
M  V30 1250 H 119.629 -7.2215 2.37494 0
M  V30 1251 N 121.204 0.198386 -1.56346 0
M  V30 1252 C 122.452 0.91747 -1.80075 0
M  V30 1253 C 122.773 1.83929 -0.647692 0
M  V30 1254 O 122.043 1.93029 0.334166 0
M  V30 1255 H 120.623 0.341774 -0.664228 0
M  V30 1256 H 123.285 0.204684 -1.93822 0
M  V30 1257 H 122.381 1.51055 -2.7311 0
M  V30 1258 N 122.682 1.50554 0.465978 0
M  V30 1259 C 123.592 1.72585 1.58907 0
M  V30 1260 C 124.608 0.60911 1.6299 0
M  V30 1261 O 125.784 0.88804 1.80765 0
M  V30 1262 C 122.849 1.81995 2.95091 0
M  V30 1263 C 121.91 3.05751 3.01355 0
M  V30 1264 C 121.143 3.14702 4.31043 0
M  V30 1265 O 121.366 2.30313 5.21835 0
M  V30 1266 O 120.3 4.07468 4.43005 0
M  V30 1267 H 124.126 2.67799 1.43239 0
M  V30 1268 H 121.711 1.34711 0.646013 0
M  V30 1269 H 123.593 1.90335 3.75966 0
M  V30 1270 H 122.268 0.899659 3.10947 0
M  V30 1271 H 121.175 3.02908 2.19539 0
M  V30 1272 H 122.508 3.97375 2.90437 0
M  V30 1273 N 124.16 -0.719506 1.40217 0
M  V30 1274 C 125.4 -1.49181 1.39729 0
M  V30 1275 C 125.764 -1.92 -0.00250614 0
M  V30 1276 O 126.965 -2.68473 -0.132479 0
M  V30 1277 C 125.236 -2.68767 2.35582 0
M  V30 1278 S 126.795 -3.58224 2.53418 0
M  V30 1279 H 123.613 -0.510091 0.495307 0
M  V30 1280 H 126.215 -0.841724 1.76452 0
M  V30 1281 H 124.919 -2.35475 3.36124 0
M  V30 1282 H 124.45 -3.38691 2.0013 0
M  V30 1283 H 126.465 -4.63033 1.78367 0
M  V30 1284 N 125.638 -1.25649 -0.95132 0
M  V30 1285 C 126.878 -1.11802 -1.71113 0
M  V30 1286 C 127.242 0.334758 -1.89059 0
M  V30 1287 O 128.443 0.595121 -2.62129 0
M  V30 1288 C 126.714 -1.85512 -3.05483 0
M  V30 1289 S 128.273 -1.87597 -3.96677 0
M  V30 1290 H 125.091 -0.399552 -0.588115 0
M  V30 1291 H 127.693 -1.59222 -1.1344 0
M  V30 1292 H 126.397 -2.90299 -2.90094 0
M  V30 1293 H 125.928 -1.38493 -3.68216 0
M  V30 1294 H 127.943 -0.955389 -4.86916 0
M  V30 1295 N 127.117 1.15442 -1.07289 0
M  V30 1296 C 128.528 1.67803 -0.818475 0
M  V30 1297 C 128.879 1.8489 0.656507 0
M  V30 1298 O 128.004 1.55176 1.50829 0
M  V30 1299 C 128.599 3.04805 -1.47917 0
M  V30 1300 C 127.158 3.54245 -1.27229 0
M  V30 1301 C 126.305 2.29986 -1.54925 0
M  V30 1302 H 129.256 0.996646 -1.23502 0
M  V30 1303 H 129.277 3.69702 -0.90005 0
M  V30 1304 H 128.789 2.92336 -2.55267 0
M  V30 1305 H 126.89 3.71956 -0.21899 0
M  V30 1306 H 127.003 4.35723 -1.99203 0
M  V30 1307 H 125.367 2.35496 -0.970242 0
M  V30 1308 H 126.15 2.20105 -2.63455 0
M  V30 1309 N 128.595 0.856903 1.32268 0
M  V30 1310 C 129.844 0.457599 1.96441 0
M  V30 1311 C 130.157 -0.992426 1.68553 0
M  V30 1312 O 131.363 -1.49727 2.26482 0
M  V30 1313 C 129.819 0.767358 3.51624 0
M  V30 1314 C 129.427 2.23326 3.88367 0
M  V30 1315 C 131.171 0.435887 4.22256 0
M  V30 1316 C 129.078 2.48613 5.36606 0
M  V30 1317 H 128.008 0.167387 0.735185 0
M  V30 1318 H 130.659 1.048 1.5063 0
M  V30 1319 H 129.041 0.106367 3.95857 0
M  V30 1320 H 130.215 2.93623 3.55137 0
M  V30 1321 H 128.53 2.52948 3.30766 0
M  V30 1322 H 131.127 0.602202 5.31298 0
M  V30 1323 H 131.47 -0.622672 4.11617 0
M  V30 1324 H 132.003 1.05286 3.83614 0
M  V30 1325 H 128.742 3.53101 5.52268 0
M  V30 1326 H 128.262 1.82896 5.71235 0
M  V30 1327 H 129.941 2.32676 6.03714 0
M  V30 1328 N 130.073 -1.45103 0.615059 0
M  V30 1329 C 131.313 -2.04069 0.116282 0
M  V30 1330 C 131.677 -1.4721 -1.2326 0
M  V30 1331 O 132.878 -1.97577 -1.82255 0
M  V30 1332 C 131.149 -3.57298 0.085482 0
M  V30 1333 S 132.708 -4.37394 -0.351015 0
M  V30 1334 H 129.526 -0.709006 0.0532183 0
M  V30 1335 H 132.128 -1.77709 0.81484 0
M  V30 1336 H 130.832 -3.9619 1.0706 0
M  V30 1337 H 130.363 -3.88244 -0.634835 0
M  V30 1338 H 132.378 -4.69734 -1.59889 0
M  V30 1339 N 131.551 -0.354651 -1.53558 0
M  V30 1340 C 132.962 0.126902 -1.86268 0
M  V30 1341 C 133.313 1.49075 -1.27558 0
M  V30 1342 O 132.438 2.08105 -0.5934 0
M  V30 1343 C 133.033 0.237046 -3.3797 0
M  V30 1344 C 131.592 0.662842 -3.70518 0
M  V30 1345 C 130.739 -0.196652 -2.76602 0
M  V30 1346 H 133.69 -0.573849 -1.47962 0
M  V30 1347 H 133.711 1.06259 -3.65362 0
M  V30 1348 H 133.223 -0.755725 -3.80671 0
M  V30 1349 H 131.324 1.66424 -3.33367 0
M  V30 1350 H 131.437 0.445034 -4.77029 0
M  V30 1351 H 129.801 0.332763 -2.52517 0
M  V30 1352 H 130.584 -1.18676 -3.22135 0
M  V30 1353 N 133.029 1.57378 -0.0835403 0
M  V30 1354 C 134.257 1.98263 0.59157 0
M  V30 1355 C 134.672 0.962302 1.62435 0
M  V30 1356 O 134.029 -0.049581 1.82433 0
M  V30 1357 C 134.08 3.39214 1.24965 0
M  V30 1358 O 133.801 4.37339 0.258186 0
M  V30 1359 C 135.302 3.95038 2.01147 0
M  V30 1360 H 132.522 0.651773 0.159477 0
M  V30 1361 H 135.066 2.03878 -0.159415 0
M  V30 1362 H 133.221 3.34649 1.95164 0
M  V30 1363 H 133.635 5.19371 0.731734 0
M  V30 1364 H 135.109 4.95848 2.42567 0
M  V30 1365 H 135.586 3.32222 2.87272 0
M  V30 1366 H 136.192 4.0304 1.35789 0
M  V30 1367 N 134.507 -0.190092 1.56449 0
M  V30 1368 C 135.784 -0.935886 1.71757 0
M  V30 1369 C 136.164 -2.01173 0.639726 0
M  V30 1370 O 135.512 -2.25827 -0.348502 0
M  V30 1371 C 135.722 -1.51775 3.1427 0
M  V30 1372 C 137.07 -1.99794 3.74656 0
M  V30 1373 O 138.094 -1.61607 3.1743 0
M  V30 1374 O 136.953 -2.70079 4.751 0
M  V30 1375 H 134.047 -0.439229 0.700719 0
M  V30 1376 H 136.593 -0.179395 1.68749 0
M  V30 1377 H 135.365 -0.742505 3.84191 0
M  V30 1378 H 134.988 -2.33894 3.21527 0
M  V30 1379 N 135.985 -1.50799 -0.457987 0
M  V30 1380 C 136.915 -1.73553 -1.5621 0
M  V30 1381 C 137.896 -0.584774 -1.59732 0
M  V30 1382 O 139.081 -0.825314 -1.7579 0
M  V30 1383 C 136.211 -1.84169 -2.94447 0
M  V30 1384 C 135.165 -2.99461 -3.0579 0
M  V30 1385 C 134.491 -2.95235 -4.45803 0
M  V30 1386 C 135.791 -4.39766 -2.81786 0
M  V30 1387 H 137.485 -2.66 -1.37421 0
M  V30 1388 H 135.031 -1.28002 -0.659662 0
M  V30 1389 H 136.984 -1.98672 -3.71628 0
M  V30 1390 H 135.708 -0.883545 -3.14422 0
M  V30 1391 H 134.367 -2.8463 -2.31044 0
M  V30 1392 H 134.015 -1.97239 -4.62715 0
M  V30 1393 H 133.715 -3.72642 -4.54326 0
M  V30 1394 H 135.239 -3.11803 -5.24987 0
M  V30 1395 H 136.653 -4.55054 -3.4871 0
M  V30 1396 H 135.05 -5.18722 -3.0174 0
M  V30 1397 H 136.12 -4.51229 -1.7754 0
M  V30 1398 N 137.463 0.71206 -1.40597 0
M  V30 1399 C 138.426 1.80785 -1.40888 0
M  V30 1400 C 139.426 1.57937 -0.302103 0
M  V30 1401 O 140.616 1.64913 -0.561182 0
M  V30 1402 C 137.748 3.18927 -1.20409 0
M  V30 1403 H 138.941 1.81924 -2.38419 0
M  V30 1404 H 136.494 0.91805 -1.26497 0
M  V30 1405 H 137.229 3.23436 -0.236522 0
M  V30 1406 H 137.014 3.36911 -2.00582 0
M  V30 1407 H 138.504 3.98949 -1.23408 0
M  V30 1408 N 138.941 1.26152 0.944643 0
M  V30 1409 C 140.169 1.14259 1.72489 0
M  V30 1410 C 140.584 -0.302555 1.8636 0
M  V30 1411 O 139.941 -1.20741 1.36849 0
M  V30 1412 C 139.992 1.80266 3.13347 0
M  V30 1413 O 139.713 3.19133 3.00143 0
M  V30 1414 C 141.214 1.74283 4.07603 0
M  V30 1415 H 138.434 0.398051 0.540181 0
M  V30 1416 H 140.978 1.66706 1.18446 0
M  V30 1417 H 139.133 1.31766 3.64303 0
M  V30 1418 H 139.547 3.51744 3.89071 0
M  V30 1419 H 141.021 2.25111 5.04013 0
M  V30 1420 H 141.498 0.708631 4.33446 0
M  V30 1421 H 142.104 2.22319 3.62567 0
M  V30 1422 N 140.419 -1.14872 1.07899 0
M  V30 1423 C 141.382 -2.17986 0.708161 0
M  V30 1424 C 142.382 -1.58775 -0.25442 0
M  V30 1425 O 143.572 -1.74166 -0.034645 0
M  V30 1426 C 140.704 -3.40871 0.0446929 0
M  V30 1427 H 141.897 -2.52306 1.62116 0
M  V30 1428 H 139.45 -1.2943 0.876218 0
M  V30 1429 H 140.185 -3.12124 -0.880281 0
M  V30 1430 H 139.97 -3.8511 0.737091 0
M  V30 1431 H 141.46 -4.17121 -0.19991 0
M  V30 1432 N 141.898 -0.863906 -1.31812 0
M  V30 1433 C 143.123 -0.48527 -2.01643 0
M  V30 1434 C 143.548 0.913058 -1.64453 0
M  V30 1435 O 142.906 1.6014 -0.849985 0
M  V30 1436 C 142.954 -0.642625 -3.54828 0
M  V30 1437 O 142.058 0.320659 -4.11151 0
M  V30 1438 H 141.399 -0.193793 -0.635091 0
M  V30 1439 H 143.929 -1.16565 -1.68148 0
M  V30 1440 H 143.939 -0.533628 -4.04495 0
M  V30 1441 H 142.614 -1.66227 -3.81237 0
M  V30 1442 H 141.191 0.167126 -3.72525 0
M  V30 1443 N 143.376 1.44774 -0.622745 0
M  V30 1444 C 144.624 2.01721 -0.123655 0
M  V30 1445 C 144.945 1.49172 1.25589 0
M  V30 1446 O 144.215 0.691974 1.83272 0
M  V30 1447 H 142.795 0.745777 -0.0427225 0
M  V30 1448 H 145.457 1.77382 -0.807559 0
M  V30 1449 H 144.553 3.11984 -0.0849534 0
M  V30 1450 N 144.854 0.36279 1.53368 0
M  V30 1451 C 145.786 -0.519668 2.23231 0
M  V30 1452 C 146.799 -1.04844 1.24546 0
M  V30 1453 O 147.988 -0.955296 1.50786 0
M  V30 1454 C 145.088 -1.72995 2.9142 0
M  V30 1455 C 144.261 -1.33316 4.16588 0
M  V30 1456 C 143.32 -2.40521 4.68013 0
M  V30 1457 O 142.346 -2.03027 5.3176 0
M  V30 1458 N 143.548 -3.72065 4.45587 0
M  V30 1459 H 146.313 0.078751 2.99597 0
M  V30 1460 H 143.874 0.187833 1.60807 0
M  V30 1461 H 145.866 -2.44184 3.22733 0
M  V30 1462 H 144.436 -2.2353 2.18525 0
M  V30 1463 H 143.656 -0.451236 3.91609 0
M  V30 1464 H 144.944 -1.04432 4.97967 0
M  V30 1465 H 144.342 -4.05304 3.94646 0
M  V30 1466 H 142.899 -4.39366 4.81457 0
M  V30 1467 N 146.332 -1.57332 0.0918853 0
M  V30 1468 C 147.743 -1.81496 -0.437739 0
M  V30 1469 C 148.094 -1.00727 -1.6837 0
M  V30 1470 O 147.219 -0.235694 -2.15113 0
M  V30 1471 C 147.814 -3.29197 -0.800939 0
M  V30 1472 C 146.373 -3.54136 -1.27532 0
M  V30 1473 C 145.52 -2.75979 -0.270392 0
M  V30 1474 H 148.471 -1.55494 0.317366 0
M  V30 1475 H 148.492 -3.42344 -1.66074 0
M  V30 1476 H 148.004 -3.87955 0.106078 0
M  V30 1477 H 146.105 -3.00705 -2.20016 0
M  V30 1478 H 146.218 -4.62792 -1.23938 0
M  V30 1479 H 144.582 -2.43349 -0.751872 0
M  V30 1480 H 145.365 -3.37484 0.629248 0
M  V30 1481 N 147.81 0.181792 -1.56548 0
M  V30 1482 C 149.058 0.89832 -1.81038 0
M  V30 1483 C 149.379 1.83232 -0.667164 0
M  V30 1484 O 148.649 1.93372 0.313673 0
M  V30 1485 H 147.229 0.33471 -0.667816 0
M  V30 1486 H 149.891 0.184116 -1.94028 0
M  V30 1487 H 148.987 1.4815 -2.74696 0
M  V30 1488 N 149.288 1.51039 0.449983 0
M  V30 1489 C 150.699 1.557 1.03026 0
M  V30 1490 C 151.05 0.372939 1.92623 0
M  V30 1491 O 150.175 -0.511771 2.10261 0
M  V30 1492 C 150.77 2.82171 1.87523 0
M  V30 1493 C 149.329 2.89444 2.40622 0
M  V30 1494 C 148.476 2.50228 1.19504 0
M  V30 1495 H 151.427 1.56999 0.231745 0
M  V30 1496 H 151.448 2.65219 2.72835 0
M  V30 1497 H 150.96 3.68331 1.22286 0
M  V30 1498 H 149.061 2.07685 3.0935 0
M  V30 1499 H 149.174 3.92816 2.74285 0
M  V30 1500 H 147.538 2.03139 1.53644 0
M  V30 1501 H 148.321 3.38719 0.558972 0
M  V30 1502 N 150.766 -0.704594 1.40972 0
M  V30 1503 C 151.713 -1.81862 1.42109 0
M  V30 1504 C 152.683 -1.63781 0.276593 0
M  V30 1505 O 153.868 -1.84759 0.4763 0
M  V30 1506 C 151.008 -3.19669 1.30022 0
M  V30 1507 C 150.121 -3.49246 2.54267 0
M  V30 1508 C 149.256 -4.76618 2.3454 0
M  V30 1509 C 148.295 -4.99133 3.54306 0
M  V30 1510 N 147.432 -6.17726 3.33706 0
M  V30 1511 H 152.272 -1.80226 2.37324 0
M  V30 1512 H 149.809 -0.880238 1.17857 0
M  V30 1513 H 151.767 -3.99263 1.21018 0
M  V30 1514 H 150.397 -3.20506 0.384192 0
M  V30 1515 H 149.449 -2.64125 2.73756 0
M  V30 1516 H 150.761 -3.61788 3.43381 0
M  V30 1517 H 149.915 -5.64249 2.22952 0
M  V30 1518 H 148.654 -4.66305 1.42867 0
M  V30 1519 H 147.659 -4.09953 3.66359 0
M  V30 1520 H 148.884 -5.11311 4.4692 0
M  V30 1521 H 146.83 -6.08642 2.44725 0
M  V30 1522 H 146.747 -6.30995 4.16391 0
M  V30 1523 H 148.015 -7.08115 3.25873 0
M  V30 1524 N 152.244 -1.26651 -0.937939 0
M  V30 1525 C 153.492 -1.12165 -1.68118 0
M  V30 1526 C 153.813 0.334983 -1.92101 0
M  V30 1527 O 153.083 1.23583 -1.52 0
M  V30 1528 H 151.663 -0.412093 -0.623048 0
M  V30 1529 H 154.325 -1.59027 -1.12678 0
M  V30 1530 H 153.421 -1.64289 -2.6536 0
M  V30 1531 N 153.722 1.14298 -1.08507 0
M  V30 1532 C 154.654 2.1907 -0.673859 0
M  V30 1533 C 155.667 1.60381 0.279577 0
M  V30 1534 O 156.856 1.78374 0.0670754 0
M  V30 1535 C 153.956 3.38888 0.0290979 0
M  V30 1536 C 153.129 4.27103 -0.943494 0
M  V30 1537 C 152.188 5.25477 -0.275676 0
M  V30 1538 O 151.214 5.61709 -0.920401 0
M  V30 1539 N 152.416 5.7227 0.974013 0
M  V30 1540 H 155.181 2.54965 -1.57521 0
M  V30 1541 H 152.742 1.29528 -0.971287 0
M  V30 1542 H 154.734 4.01761 0.48683 0
M  V30 1543 H 153.304 3.01309 0.832555 0
M  V30 1544 H 152.524 3.61149 -1.58004 0
M  V30 1545 H 153.812 4.82905 -1.60251 0
M  V30 1546 H 153.21 5.44965 1.51755 0
M  V30 1547 H 151.767 6.37127 1.37522 0
M  V30 1548 N 155.201 0.870884 1.31352 0
M  V30 1549 C 156.148 0.325425 2.28494 0
M  V30 1550 C 157.118 -0.576615 1.5577 0
M  V30 1551 O 158.303 -0.508059 1.83911 0
M  V30 1552 C 155.443 -0.466283 3.41935 0
M  V30 1553 C 154.556 0.463378 4.29508 0
M  V30 1554 C 153.691 -0.342544 5.30094 0
M  V30 1555 C 152.73 0.583486 6.09313 0
M  V30 1556 N 151.867 -0.186244 7.01853 0
M  V30 1557 H 156.707 1.15901 2.74538 0
M  V30 1558 H 154.244 0.58294 1.35056 0
M  V30 1559 H 156.202 -0.941085 4.06447 0
M  V30 1560 H 154.832 -1.26456 2.97 0
M  V30 1561 H 153.884 1.05663 3.65431 0
M  V30 1562 H 155.196 1.1734 4.84802 0
M  V30 1563 H 154.35 -0.879816 6.00287 0
M  V30 1564 H 153.089 -1.08585 4.75458 0
M  V30 1565 H 152.094 1.13251 5.3801 0
M  V30 1566 H 153.319 1.32566 6.66035 0
M  V30 1567 H 151.265 -0.912348 6.49625 0
M  V30 1568 H 151.182 0.464422 7.54572 0
M  V30 1569 H 152.45 -0.704716 7.76308 0
M  V30 1570 N 156.679 -1.44442 0.630414 0
M  V30 1571 C 157.927 -2.01653 0.134351 0
M  V30 1572 C 158.248 -1.49836 -1.24796 0
M  V30 1573 O 157.518 -0.701684 -1.82902 0
M  V30 1574 H 156.098 -0.74554 0.0466769 0
M  V30 1575 H 158.76 -1.76952 0.816955 0
M  V30 1576 H 157.856 -3.11935 0.101498 0
M  V30 1577 N 158.157 -0.370918 -1.53173 0
M  V30 1578 C 159.067 0.480823 -2.2962 0
M  V30 1579 C 160.083 1.08789 -1.35798 0
M  V30 1580 O 161.259 1.09768 -1.68858 0
M  V30 1581 C 158.324 1.60227 -3.07454 0
M  V30 1582 C 157.385 1.0222 -4.16953 0
M  V30 1583 C 156.618 2.0902 -4.91066 0
M  V30 1584 O 156.841 3.30222 -4.65091 0
M  V30 1585 O 155.775 1.71778 -5.76867 0
M  V30 1586 H 159.601 -0.141421 -3.03371 0
M  V30 1587 H 157.186 -0.135146 -1.48787 0
M  V30 1588 H 159.068 2.25417 -3.56041 0
M  V30 1589 H 157.743 2.20982 -2.36535 0
M  V30 1590 H 156.65 0.334064 -3.72605 0
M  V30 1591 H 157.983 0.459131 -4.90054 0
M  V30 1592 N 159.635 1.57281 -0.100228 0
M  V30 1593 C 161.046 1.81725 0.428107 0
M  V30 1594 C 161.397 1.01619 1.67833 0
M  V30 1595 O 160.522 0.247098 2.14985 0
M  V30 1596 C 161.117 3.29617 0.78347 0
M  V30 1597 C 159.676 3.54808 1.25653 0
M  V30 1598 C 158.823 2.76118 0.255752 0
M  V30 1599 H 161.774 1.55324 -0.325608 0
M  V30 1600 H 161.795 3.4322 1.64256 0
M  V30 1601 H 161.307 3.87893 -0.12665 0
M  V30 1602 H 159.408 3.01868 2.18418 0
M  V30 1603 H 159.521 4.63443 1.21482 0
M  V30 1604 H 157.885 2.43745 0.738956 0
M  V30 1605 H 158.668 3.37145 -0.647136 0
M  V30 1606 N 161.113 -0.173488 1.56642 0
M  V30 1607 C 162.361 -0.888706 1.81512 0
M  V30 1608 C 162.682 -1.82875 0.676872 0
M  V30 1609 O 161.952 -1.93536 -0.303414 0
M  V30 1610 H 160.532 -0.331164 0.669582 0
M  V30 1611 H 163.194 -0.173823 1.94123 0
M  V30 1612 H 162.29 -1.46691 2.75478 0
M  V30 1613 N 162.591 -1.51276 -0.441967 0
M  V30 1614 C 163.868 -1.54252 -1.20273 0
M  V30 1615 C 164.248 -0.30408 -2.08898 0
M  V30 1616 O 163.596 0.711084 -2.17154 0
M  V30 1617 C 163.806 -2.85406 -2.00859 0
M  V30 1618 C 165.154 -3.37181 -2.58059 0
M  V30 1619 O 166.178 -2.86925 -2.11074 0
M  V30 1620 O 165.037 -4.24858 -3.43741 0
M  V30 1621 H 162.131 -0.619969 -0.547328 0
M  V30 1622 H 164.677 -1.63586 -0.451413 0
M  V30 1623 H 163.449 -3.67003 -1.35736 0
M  V30 1624 H 163.072 -2.79213 -2.83065 0
M  V30 1625 N 164.069 0.697108 -1.41344 0
M  V30 1626 C 165.318 1.45279 -1.39918 0
M  V30 1627 C 165.631 1.95597 -0.0109624 0
M  V30 1628 O 166.837 2.71208 0.125919 0
M  V30 1629 C 165.293 2.62695 -2.46007 0
M  V30 1630 C 164.901 2.19169 -3.90729 0
M  V30 1631 C 166.645 3.40336 -2.53715 0
M  V30 1632 C 164.552 3.33535 -4.88373 0
M  V30 1633 H 163.482 0.545692 -0.520323 0
M  V30 1634 H 166.133 0.756929 -1.67161 0
M  V30 1635 H 164.515 3.34541 -2.11892 0
M  V30 1636 H 165.689 1.54623 -4.34083 0
M  V30 1637 H 164.004 1.54525 -3.86666 0
M  V30 1638 H 166.601 4.2547 -3.2385 0
M  V30 1639 H 166.944 3.85418 -1.5735 0
M  V30 1640 H 167.477 2.75546 -2.86913 0
M  V30 1641 H 164.216 2.93468 -5.86137 0
M  V30 1642 H 163.736 3.96936 -4.49668 0
M  V30 1643 H 165.415 3.99335 -5.09059 0
M  V30 1644 N 165.547 1.27147 0.931209 0
M  V30 1645 C 166.494 1.09568 2.03134 0
M  V30 1646 C 167.464 -0.00222433 1.661 0
M  V30 1647 O 168.649 0.159439 1.90133 0
M  V30 1648 C 165.789 0.745231 3.36957 0
M  V30 1649 C 164.902 1.92041 3.86968 0
M  V30 1650 C 164.037 1.51216 5.09222 0
M  V30 1651 C 163.076 2.65504 5.5152 0
M  V30 1652 N 162.213 2.25291 6.64972 0
M  V30 1653 H 167.053 2.03708 2.17502 0
M  V30 1654 H 164.59 1.01411 1.06556 0
M  V30 1655 H 166.548 0.522878 4.1391 0
M  V30 1656 H 165.178 -0.159202 3.22407 0
M  V30 1657 H 164.23 2.25541 3.06326 0
M  V30 1658 H 165.542 2.77787 4.1429 0
M  V30 1659 H 164.696 1.25084 5.93666 0
M  V30 1660 H 163.435 0.625749 4.83669 0
M  V30 1661 H 162.44 2.92354 4.65628 0
M  V30 1662 H 163.665 3.54761 5.7907 0
M  V30 1663 H 161.611 1.39098 6.41083 0
M  V30 1664 H 161.528 3.04577 6.91931 0
M  V30 1665 H 162.796 2.02398 7.52765 0
M  V30 1666 N 167.025 -1.13721 1.09112 0
M  V30 1667 C 168.302 -1.81155 0.737706 0
M  V30 1668 C 168.682 -1.96253 -0.777683 0
M  V30 1669 O 168.03 -1.52807 -1.69889 0
M  V30 1670 C 168.24 -3.16392 1.47299 0
M  V30 1671 C 169.588 -3.91787 1.63671 0
M  V30 1672 O 170.612 -3.26005 1.43524 0
M  V30 1673 O 169.471 -5.0977 1.96969 0
M  V30 1674 H 166.565 -0.783518 0.26463 0
M  V30 1675 H 169.111 -1.20676 1.19312 0
M  V30 1676 H 167.883 -3.0061 2.50498 0
M  V30 1677 H 167.506 -3.8457 1.00953 0
M  V30 1678 N 168.503 -0.877838 -1.30888 0
M  V30 1679 C 169.752 -0.488793 -1.95688 0
M  V30 1680 C 170.065 0.965485 -1.70111 0
M  V30 1681 O 171.271 1.46104 -2.28836 0
M  V30 1682 C 169.727 -0.823201 -3.50359 0
M  V30 1683 C 169.335 -2.29477 -3.84765 0
M  V30 1684 C 171.079 -0.503009 -4.21509 0
M  V30 1685 C 168.986 -2.57118 -5.32583 0
M  V30 1686 H 167.916 -0.179062 -0.732429 0
M  V30 1687 H 170.567 -1.07183 -1.48943 0
M  V30 1688 H 168.949 -0.169331 -3.95638 0
M  V30 1689 H 170.123 -2.99236 -3.5042 0
M  V30 1690 H 168.438 -2.58178 -3.267 0
M  V30 1691 H 171.035 -0.68665 -5.30273 0
M  V30 1692 H 171.378 0.557109 -4.12555 0
M  V30 1693 H 171.911 -1.11376 -3.8189 0
M  V30 1694 H 168.65 -3.61843 -5.4658 0
M  V30 1695 H 168.17 -1.91961 -5.68253 0
M  V30 1696 H 169.849 -2.42251 -5.99936 0
M  V30 1697 N 169.982 1.44106 -0.638065 0
M  V30 1698 C 171.228 2.02277 -0.145546 0
M  V30 1699 C 171.561 1.50125 1.23191 0
M  V30 1700 O 170.836 0.688133 1.8192 0
M  V30 1701 C 171.119 3.59829 -0.139791 0
M  V30 1702 C 170.972 4.22247 -1.55008 0
M  V30 1703 C 172.291 4.36873 0.531966 0
M  V30 1704 H 169.41 0.734992 -0.0543632 0
M  V30 1705 H 172.052 1.71592 -0.815863 0
M  V30 1706 H 170.202 3.86102 0.431007 0
M  V30 1707 H 171.874 4.07057 -2.1703 0
M  V30 1708 H 170.117 3.79476 -2.10191 0
M  V30 1709 H 170.788 5.31284 -1.49804 0
M  V30 1710 H 173.264 4.16074 0.0464781 0
M  V30 1711 H 172.14 5.4657 0.505206 0
M  V30 1712 H 172.401 4.11995 1.60352 0
M  V30 1713 N 171.46 0.379036 1.52974 0
M  V30 1714 C 172.708 -0.206014 2.01047 0
M  V30 1715 C 173.029 -1.48175 1.26765 0
M  V30 1716 O 172.299 -1.92085 0.384743 0
M  V30 1717 H 170.879 -0.0791184 0.742798 0
M  V30 1718 H 173.541 0.508366 1.88153 0
M  V30 1719 H 172.637 -0.423501 3.09213 0
M  V30 1720 N 172.938 -1.57226 0.108567 0
M  V30 1721 C 174.349 -1.8195 -0.418464 0
M  V30 1722 C 174.7 -1.02508 -1.67292 0
M  V30 1723 O 173.825 -0.258496 -2.14851 0
M  V30 1724 C 174.42 -3.30028 -0.765979 0
M  V30 1725 C 172.979 -3.55469 -1.23769 0
M  V30 1726 C 172.126 -2.7625 -0.241106 0
M  V30 1727 H 175.077 -1.55149 0.33384 0
M  V30 1728 H 175.098 -3.44086 -1.62434 0
M  V30 1729 H 174.61 -3.87821 0.147219 0
M  V30 1730 H 172.711 -3.03022 -2.16814 0
M  V30 1731 H 172.824 -4.6408 -1.19022 0
M  V30 1732 H 171.188 -2.44133 -0.72602 0
M  V30 1733 H 171.971 -3.36797 0.665007 0
M  V30 1734 N 174.416 0.165178 -1.56732 0
M  V30 1735 C 175.363 1.2044 -1.96883 0
M  V30 1736 C 176.333 1.43664 -0.833657 0
M  V30 1737 O 177.518 1.56302 -1.09427 0
M  V30 1738 C 174.658 2.53727 -2.33916 0
M  V30 1739 C 173.771 2.3783 -3.6064 0
M  V30 1740 C 172.906 3.64026 -3.86857 0
M  V30 1741 C 171.945 3.43088 -5.06909 0
M  V30 1742 N 171.082 4.61369 -5.29229 0
M  V30 1743 H 175.922 0.854996 -2.85471 0
M  V30 1744 H 173.459 0.41076 -1.41249 0
M  V30 1745 H 175.417 3.31419 -2.53411 0
M  V30 1746 H 174.047 2.8665 -1.48431 0
M  V30 1747 H 173.099 1.51282 -3.49024 0
M  V30 1748 H 174.411 2.18308 -4.4849 0
M  V30 1749 H 173.565 4.50152 -4.06753 0
M  V30 1750 H 172.304 3.86533 -2.97394 0
M  V30 1751 H 171.309 2.55349 -4.86906 0
M  V30 1752 H 172.534 3.21997 -5.97909 0
M  V30 1753 H 170.48 4.84084 -4.42718 0
M  V30 1754 H 170.397 4.44783 -6.11313 0
M  V30 1755 H 171.665 5.48761 -5.53608 0
M  V30 1756 N 175.894 1.51508 0.433938 0
M  V30 1757 C 177.142 1.6402 1.18075 0
M  V30 1758 C 177.463 0.360328 1.91642 0
M  V30 1759 O 176.733 -0.623945 1.85698 0
M  V30 1760 H 175.313 0.6045 0.43885 0
M  V30 1761 H 177.975 1.88452 0.497178 0
M  V30 1762 H 177.071 2.46949 1.90847 0
M  V30 1763 N 177.372 -0.689602 1.41712 0
M  V30 1764 C 178.783 -1.26973 1.36875 0
M  V30 1765 C 179.134 -1.96124 0.054748 0
M  V30 1766 O 178.259 -1.99141 -0.84687 0
M  V30 1767 C 178.854 -2.30912 2.47922 0
M  V30 1768 C 177.413 -2.84486 2.46464 0
M  V30 1769 C 176.56 -1.58603 2.27465 0
M  V30 1770 H 179.511 -0.48396 1.51141 0
M  V30 1771 H 179.532 -3.12331 2.17323 0
M  V30 1772 H 179.044 -1.80554 3.43543 0
M  V30 1773 H 177.145 -3.39005 1.54617 0
M  V30 1774 H 177.258 -3.34511 3.42986 0
M  V30 1775 H 175.622 -1.84632 1.75451 0
M  V30 1776 H 176.405 -1.10233 3.25121 0
M  V30 1777 N 178.85 -1.27639 -0.924453 0
M  V30 1778 C 180.261 -1.12834 -1.48746 0
M  V30 1779 C 180.612 0.285505 -1.94112 0
M  V30 1780 O 179.737 1.17874 -1.81479 0
M  V30 1781 C 180.332 -2.04217 -2.70334 0
M  V30 1782 C 178.891 -1.93509 -3.22848 0
M  V30 1783 C 178.038 -1.96583 -1.95577 0
M  V30 1784 H 180.989 -1.40484 -0.738233 0
M  V30 1785 H 181.01 -1.59989 -3.4523 0
M  V30 1786 H 180.522 -3.07111 -2.37285 0
M  V30 1787 H 178.623 -0.936131 -3.60649 0
M  V30 1788 H 178.736 -2.79917 -3.88823 0
M  V30 1789 H 177.1 -1.4085 -2.12211 0
M  V30 1790 H 177.883 -3.01137 -1.64837 0
M  V30 1791 N 180.328 1.1314 -1.09713 0
M  V30 1792 C 181.576 1.84119 -0.833338 0
M  V30 1793 C 181.897 1.84097 0.642904 0
M  V30 1794 O 181.167 1.29881 1.46655 0
M  V30 1795 H 179.747 0.681766 -0.305293 0
M  V30 1796 H 182.409 1.37038 -1.38588 0
M  V30 1797 H 181.505 2.88543 -1.18951 0
M  V30 1798 N 181.806 0.884767 1.30421 0
M  V30 1799 C 183.217 0.553656 1.78302 0
M  V30 1800 C 183.568 -0.930153 1.7275 0
M  V30 1801 O 182.693 -1.72681 1.30423 0
M  V30 1802 C 183.288 0.998234 3.2376 0
M  V30 1803 C 181.847 0.71854 3.69478 0
M  V30 1804 C 180.994 1.18132 2.50879 0
M  V30 1805 H 183.945 1.06901 1.17294 0
M  V30 1806 H 183.966 0.327118 3.79091 0
M  V30 1807 H 183.478 2.0782 3.27769 0
M  V30 1808 H 181.579 -0.349444 3.70958 0
M  V30 1809 H 181.692 1.30595 4.60958 0
M  V30 1810 H 180.056 0.600669 2.47516 0
M  V30 1811 H 180.839 2.26902 2.57624 0
M  V30 1812 N 183.284 -1.43765 0.645699 0
M  V30 1813 C 184.216 -2.29027 -0.0890605 0
M  V30 1814 C 185.229 -1.42093 -0.794563 0
M  V30 1815 O 186.418 -1.66104 -0.653575 0
M  V30 1816 C 183.518 -3.18831 -1.14891 0
M  V30 1817 C 182.691 -4.34261 -0.523043 0
M  V30 1818 C 181.75 -5.04994 -1.47878 0
M  V30 1819 O 180.776 -5.6052 -0.990277 0
M  V30 1820 N 181.978 -5.07795 -2.81291 0
M  V30 1821 H 184.743 -2.92727 0.64272 0
M  V30 1822 H 182.304 -1.54373 0.487924 0
M  V30 1823 H 184.296 -3.63015 -1.78892 0
M  V30 1824 H 182.866 -2.56782 -1.78275 0
M  V30 1825 H 182.086 -3.93088 0.295896 0
M  V30 1826 H 183.374 -5.08728 -0.0858147 0
M  V30 1827 H 182.772 -4.64042 -3.23546 0
M  V30 1828 H 181.329 -5.55721 -3.40614 0
M  V30 1829 N 184.763 -0.387143 -1.52771 0
M  V30 1830 C 186.011 0.195349 -2.01154 0
M  V30 1831 C 186.332 1.475 -1.27549 0
M  V30 1832 O 185.602 1.91878 -0.394924 0
M  V30 1833 H 184.182 0.075178 -0.743207 0
M  V30 1834 H 186.844 -0.518337 -1.87881 0
M  V30 1835 H 185.94 0.407096 -3.09434 0
M  V30 1836 N 186.241 1.57166 -0.116904 0
M  V30 1837 C 187.652 1.82169 0.408809 0
M  V30 1838 C 188.003 1.03393 1.66746 0
M  V30 1839 O 187.128 0.269886 2.1471 0
M  V30 1840 C 187.723 3.30429 0.748466 0
M  V30 1841 C 186.282 3.5612 1.21882 0
M  V30 1842 C 185.429 2.76374 0.226452 0
M  V30 1843 H 188.38 1.5497 -0.342063 0
M  V30 1844 H 188.401 3.44943 1.60607 0
M  V30 1845 H 187.913 3.87737 -0.167784 0
M  V30 1846 H 186.014 3.04168 2.15204 0
M  V30 1847 H 186.127 4.64705 1.16559 0
M  V30 1848 H 184.491 2.44515 0.713063 0
M  V30 1849 H 185.274 3.3644 -0.682859 0
M  V30 1850 N 187.719 -0.156864 1.56817 0
M  V30 1851 C 188.682 -1.17781 1.96622 0
M  V30 1852 C 189.682 -1.36401 0.851555 0
M  V30 1853 O 190.872 -1.33561 1.11836 0
M  V30 1854 C 188.004 -2.54008 2.27361 0
M  V30 1855 H 189.197 -0.836564 2.87996 0
M  V30 1856 H 186.75 -0.39985 1.51099 0
M  V30 1857 H 187.485 -2.9312 1.38748 0
M  V30 1858 H 187.27 -2.41856 3.08623 0
M  V30 1859 H 188.76 -3.27558 2.59029 0
M  V30 1860 N 189.197 -1.51736 -0.425897 0
M  V30 1861 C 190.445 -1.64644 -1.17204 0
M  V30 1862 C 190.766 -0.370486 -1.91448 0
M  V30 1863 O 190.036 0.614088 -1.86026 0
M  V30 1864 H 188.616 -0.606819 -0.435638 0
M  V30 1865 H 191.278 -1.88713 -0.487177 0
M  V30 1866 H 190.374 -2.47958 -1.89534 0
M  V30 1867 N 190.675 0.682077 -1.42076 0
M  V30 1868 C 191.585 1.82535 -1.47371 0
M  V30 1869 C 192.601 1.7017 -0.363079 0
M  V30 1870 O 193.777 1.91848 -0.612875 0
M  V30 1871 C 190.842 3.18624 -1.36674 0
M  V30 1872 C 189.903 3.42999 -2.58167 0
M  V30 1873 C 189.136 4.72595 -2.4797 0
M  V30 1874 O 189.359 5.50006 -1.5116 0
M  V30 1875 O 188.293 4.98054 -3.37974 0
M  V30 1876 H 192.119 1.81023 -2.43853 0
M  V30 1877 H 189.704 0.836887 -1.2376 0
M  V30 1878 H 191.586 3.99847 -1.33043 0
M  V30 1879 H 190.261 3.20789 -0.433138 0
M  V30 1880 H 189.168 2.61653 -2.67373 0
M  V30 1881 H 190.501 3.45659 -3.50401 0
M  V30 1882 N 192.153 1.28127 0.917671 0
M  V30 1883 C 193.085 1.07517 2.02417 0
M  V30 1884 C 194.098 0.0281099 1.62776 0
M  V30 1885 O 195.287 0.270748 1.76435 0
M  V30 1886 C 192.387 0.610957 3.33347 0
M  V30 1887 C 191.56 1.73255 4.01624 0
M  V30 1888 C 190.619 1.26238 5.10833 0
M  V30 1889 O 189.645 1.96389 5.34247 0
M  V30 1890 N 190.847 0.123448 5.80369 0
M  V30 1891 H 193.612 2.02806 2.20658 0
M  V30 1892 H 191.173 1.19827 1.08871 0
M  V30 1893 H 193.165 0.280101 4.0373 0
M  V30 1894 H 191.735 -0.24898 3.11607 0
M  V30 1895 H 190.955 2.23319 3.24842 0
M  V30 1896 H 192.243 2.48503 4.43986 0
M  V30 1897 H 191.641 -0.461847 5.63812 0
M  V30 1898 H 190.198 -0.148158 6.51632 0
M  V30 1899 N 193.631 -1.12557 1.10312 0
M  V30 1900 C 194.879 -1.83675 0.843091 0
M  V30 1901 C 195.2 -1.84435 -0.633131 0
M  V30 1902 O 194.47 -1.30657 -1.45964 0
M  V30 1903 H 193.05 -0.680138 0.308904 0
M  V30 1904 H 195.712 -1.36301 1.39313 0
M  V30 1905 H 194.808 -2.87908 1.2048 0
M  V30 1906 N 195.109 -0.891671 -1.2995 0
M  V30 1907 C 196.52 -0.563104 -1.78006 0
M  V30 1908 C 196.871 0.920978 -1.73241 0
M  V30 1909 O 195.996 1.71987 -1.31337 0
M  V30 1910 C 196.591 -1.01539 -3.23226 0
M  V30 1911 C 195.15 -0.738124 -3.69092 0
M  V30 1912 C 194.297 -1.19461 -2.50249 0
M  V30 1913 H 197.248 -1.07522 -1.16725 0
M  V30 1914 H 197.269 -0.347217 -3.78912 0
M  V30 1915 H 196.781 -2.09555 -3.26662 0
M  V30 1916 H 194.882 0.329766 -3.71138 0
M  V30 1917 H 194.995 -1.33037 -4.60259 0
M  V30 1918 H 193.359 -0.613787 -2.47194 0
M  V30 1919 H 194.142 -2.28265 -2.56417 0
M  V30 1920 N 196.587 1.43421 -0.653314 0
M  V30 1921 C 198.003 1.56341 -0.320886 0
M  V30 1922 C 198.203 1.63696 1.17499 0
M  V30 1923 O 197.259 1.59208 1.95982 0
M  V30 1924 C 198.572 2.82424 -1.03233 0
M  V30 1925 C 200.12 2.96168 -1.01259 0
M  V30 1926 C 200.595 4.25084 -1.70492 0
M  V30 1927 N 202.086 4.31948 -1.67257 0
M  V30 1928 C 202.821 5.30466 -2.17701 0
M  V30 1929 N 202.317 6.35261 -2.76434 0
M  V30 1930 N 204.11 5.2212 -2.082 0
M  V30 1931 H 196.261 1.3689 -1.62403 0
M  V30 1932 H 198.524 0.657455 -0.682977 0
M  V30 1933 H 198.23 2.83053 -2.08744 0
M  V30 1934 H 198.104 3.72653 -0.583948 0
M  V30 1935 H 200.491 2.9508 0.0341235 0
M  V30 1936 H 200.572 2.07229 -1.49966 0
M  V30 1937 H 200.216 4.26932 -2.7512 0
M  V30 1938 H 200.146 5.1292 -1.19251 0
M  V30 1939 H 202.637 3.56838 -1.24398 0
M  V30 1940 H 202.95 7.06754 -3.12601 0
M  V30 1941 H 201.295 6.35884 -2.80495 0
M  V30 1942 H 204.486 4.39166 -1.62021 0
M  V30 1943 H 204.659 5.98739 -2.47822 0
M  V30 1944 N 198.065 0.39524 1.52563 0
M  V30 1945 C 199.313 -0.184678 2.01254 0
M  V30 1946 C 199.634 -1.46822 1.28329 0
M  V30 1947 O 198.904 -1.91666 0.405094 0
M  V30 1948 H 197.484 -0.0712355 0.743596 0
M  V30 1949 H 200.146 0.528293 1.87603 0
M  V30 1950 H 199.242 -0.390681 3.09645 0
M  V30 1951 N 199.544 -1.57102 0.125237 0
M  V30 1952 C 200.821 -1.86953 -0.575142 0
M  V30 1953 C 201.201 -1.02749 -1.84407 0
M  V30 1954 O 200.549 -0.108144 -2.28244 0
M  V30 1955 C 200.759 -3.38198 -0.861583 0
M  V30 1956 C 202.107 -4.06937 -1.21192 0
M  V30 1957 O 203.131 -3.43252 -0.951645 0
M  V30 1958 O 201.99 -5.19364 -1.70068 0
M  V30 1959 H 199.084 -0.774147 -0.290906 0
M  V30 1960 H 201.63 -1.68942 0.160211 0
M  V30 1961 H 200.402 -3.91282 0.0373647 0
M  V30 1962 H 200.025 -3.61661 -1.65188 0
M  V30 1963 N 201.022 0.148545 -1.56898 0
M  V30 1964 C 202.438 0.501131 -1.51528 0
M  V30 1965 C 202.638 1.83458 -0.833399 0
M  V30 1966 O 201.694 2.49259 -0.40328 0
M  V30 1967 C 203.007 0.512864 -2.96294 0
M  V30 1968 C 204.555 0.598487 -3.07225 0
M  V30 1969 C 205.03 0.640897 -4.53494 0
M  V30 1970 N 206.521 0.703163 -4.57832 0
M  V30 1971 C 207.256 0.756935 -5.68382 0
M  V30 1972 N 206.752 0.770147 -6.88506 0
M  V30 1973 N 208.545 0.797698 -5.56411 0
M  V30 1974 H 200.696 -0.725532 -1.99624 0
M  V30 1975 H 202.959 -0.264358 -0.910395 0
M  V30 1976 H 202.665 -0.398691 -3.49433 0
M  V30 1977 H 202.539 1.35133 -3.52163 0
M  V30 1978 H 204.926 1.50046 -2.54106 0
M  V30 1979 H 205.007 -0.267093 -2.54402 0
M  V30 1980 H 204.651 -0.256915 -5.0725 0
M  V30 1981 H 204.581 1.52295 -5.04097 0
M  V30 1982 H 207.072 0.700314 -3.71354 0
M  V30 1983 H 207.385 0.812983 -7.68512 0
M  V30 1984 H 205.73 0.738049 -6.9107 0
M  V30 1985 H 208.921 0.784535 -4.61479 0
M  V30 1986 H 209.094 0.83614 -6.42583 0
M  V30 1987 N 202.5 1.5196 0.417844 0
M  V30 1988 C 203.748 1.65263 1.16329 0
M  V30 1989 C 204.069 0.380634 1.91249 0
M  V30 1990 O 203.339 -0.604214 1.86349 0
M  V30 1991 H 201.919 0.60912 0.432414 0
M  V30 1992 H 204.581 1.88969 0.477162 0
M  V30 1993 H 203.677 2.4896 1.88217 0
M  V30 1994 N 203.978 -0.674533 1.42435 0
M  V30 1995 C 205.255 -1.4305 1.33402 0
M  V30 1996 C 205.635 -2.11081 -0.0284674 0
M  V30 1997 O 204.983 -2.03257 -1.04397 0
M  V30 1998 C 205.193 -2.43272 2.50239 0
M  V30 1999 C 206.541 -3.07907 2.92367 0
M  V30 2000 O 207.565 -2.53599 2.50132 0
M  V30 2001 O 206.424 -4.0632 3.65467 0
M  V30 2002 H 203.518 -0.638076 0.526106 0
M  V30 2003 H 206.064 -0.703235 1.54443 0
M  V30 2004 H 204.836 -1.91803 3.41068 0
M  V30 2005 H 204.459 -3.23479 2.31186 0
M  V30 2006 N 205.456 -1.28612 -0.910864 0
M  V30 2007 C 206.403 -1.12786 -2.01365 0
M  V30 2008 C 207.373 -0.024201 -1.66082 0
M  V30 2009 O 208.558 -0.189667 -1.89855 0
M  V30 2010 C 205.698 -0.798743 -3.35729 0
M  V30 2011 C 204.811 -1.98173 -3.83864 0
M  V30 2012 C 203.946 -1.59298 -5.06752 0
M  V30 2013 C 202.985 -2.74245 -5.47226 0
M  V30 2014 N 202.122 -2.35842 -6.61304 0
M  V30 2015 H 206.962 -2.07142 -2.14234 0
M  V30 2016 H 204.499 -1.03093 -1.0493 0
M  V30 2017 H 206.457 -0.588662 -4.13026 0
M  V30 2018 H 205.087 0.10789 -3.2262 0
M  V30 2019 H 204.139 -2.30386 -3.02699 0
M  V30 2020 H 205.451 -2.84343 -4.09818 0
M  V30 2021 H 204.605 -1.34513 -5.916 0
M  V30 2022 H 203.344 -0.702618 -4.82612 0
M  V30 2023 H 202.349 -2.99725 -4.60918 0
M  V30 2024 H 203.574 -3.63928 -5.73353 0
M  V30 2025 H 201.52 -1.49279 -6.38789 0
M  V30 2026 H 201.437 -3.15546 -6.86998 0
M  V30 2027 H 202.705 -2.14348 -7.4945 0
M  V30 2028 N 206.934 1.1197 -1.10907 0
M  V30 2029 C 208.182 1.83225 -0.852819 0
M  V30 2030 C 208.503 1.84769 0.623341 0
M  V30 2031 O 207.773 1.3143 1.45269 0
M  V30 2032 H 206.353 0.67849 -0.312507 0
M  V30 2033 H 209.015 1.3556 -1.40033 0
M  V30 2034 H 208.111 2.87265 -1.22005 0
M  V30 2035 N 208.412 0.89855 1.29475 0
M  V30 2036 C 209.322 0.379974 2.31502 0
M  V30 2037 C 210.338 -0.524695 1.659 0
M  V30 2038 O 211.514 -0.414551 1.97087 0
M  V30 2039 C 208.579 -0.385138 3.44554 0
M  V30 2040 C 207.64 0.550914 4.2575 0
M  V30 2041 C 206.873 -0.177778 5.33404 0
M  V30 2042 O 207.096 -1.40189 5.52904 0
M  V30 2043 O 206.03 0.479106 5.9999 0
M  V30 2044 H 209.856 1.22639 2.77837 0
M  V30 2045 H 207.441 0.662834 1.33891 0
M  V30 2046 H 209.323 -0.817841 4.13388 0
M  V30 2047 H 207.998 -1.20763 3.0033 0
M  V30 2048 H 206.905 1.03271 3.59564 0
M  V30 2049 H 208.238 1.33979 4.73614 0
M  V30 2050 N 209.89 -1.43072 0.660911 0
M  V30 2051 C 210.837 -2.30785 -0.0259884 0
M  V30 2052 C 211.807 -1.45184 -0.806888 0
M  V30 2053 O 212.992 -1.74041 -0.781943 0
M  V30 2054 C 210.132 -3.30861 -0.981067 0
M  V30 2055 C 209.245 -4.31558 -0.195458 0
M  V30 2056 C 208.38 -5.18712 -1.14503 0
M  V30 2057 C 207.419 -6.11097 -0.350299 0
M  V30 2058 N 206.556 -6.90849 -1.25186 0
M  V30 2059 H 211.396 -2.88975 0.727846 0
M  V30 2060 H 208.933 -1.42353 0.370682 0
M  V30 2061 H 210.891 -3.87399 -1.54849 0
M  V30 2062 H 209.521 -2.74304 -1.70169 0
M  V30 2063 H 208.573 -3.77252 0.488374 0
M  V30 2064 H 209.885 -4.9701 0.422176 0
M  V30 2065 H 209.039 -5.79914 -1.78284 0
M  V30 2066 H 207.778 -4.53404 -1.79656 0
M  V30 2067 H 206.783 -5.48976 0.300808 0
M  V30 2068 H 208.008 -6.7845 0.296941 0
M  V30 2069 H 205.954 -6.28182 -1.89005 0
M  V30 2070 H 205.871 -7.52854 -0.688971 0
M  V30 2071 H 207.139 -7.5655 -1.87757 0
M  V30 2072 N 211.368 -0.403325 -1.52352 0
M  V30 2073 C 212.616 0.174003 -2.0135 0
M  V30 2074 C 212.937 1.46139 -1.29106 0
M  V30 2075 O 212.207 1.91448 -0.415253 0
M  V30 2076 H 210.787 0.0672911 -0.743963 0
M  V30 2077 H 213.449 -0.538235 -1.87321 0
M  V30 2078 H 212.545 0.374254 -3.09848 0
M  V30 2079 N 212.846 1.57033 -0.133567 0
M  V30 2080 C 213.809 2.14897 0.796995 0
M  V30 2081 C 214.809 1.0874 1.18458 0
M  V30 2082 O 215.999 1.34446 1.1077 0
M  V30 2083 C 213.131 2.70112 2.07973 0
M  V30 2084 H 214.324 2.98457 0.293873 0
M  V30 2085 H 211.877 1.55871 0.115787 0
M  V30 2086 H 212.612 1.9018 2.62682 0
M  V30 2087 H 212.397 3.47764 1.81115 0
M  V30 2088 H 213.887 3.14738 2.74462 0
M  V30 2089 N 214.325 -0.140222 1.56975 0
M  V30 2090 C 215.736 -0.699596 1.73097 0
M  V30 2091 C 216.087 -1.8134 0.749022 0
M  V30 2092 O 215.212 -2.16241 -0.0828503 0
M  V30 2093 C 215.807 -1.27582 3.1386 0
M  V30 2094 C 214.366 -1.78169 3.31561 0
M  V30 2095 C 213.513 -0.672855 2.69013 0
M  V30 2096 H 216.464 0.0855115 1.58469 0
M  V30 2097 H 216.485 -2.14561 3.14235 0
M  V30 2098 H 215.997 -0.464955 3.85305 0
M  V30 2099 H 214.098 -2.61801 2.65124 0
M  V30 2100 H 214.211 -1.90574 4.39566 0
M  V30 2101 H 212.575 -1.10118 2.29665 0
M  V30 2102 H 213.358 0.126679 3.43066 0
M  V30 2103 N 215.803 -1.52179 -0.40978 0
M  V30 2104 C 217.051 -1.65878 -1.15451 0
M  V30 2105 C 217.372 -0.390771 -1.91044 0
M  V30 2106 O 216.642 0.594323 -1.86667 0
M  V30 2107 H 215.222 -0.611405 -0.429177 0
M  V30 2108 H 217.884 -1.89219 -0.467134 0
M  V30 2109 H 216.98 -2.49954 -1.86894 0
M  V30 2110 N 217.281 0.66697 -1.42791 0
M  V30 2111 C 218.692 1.2478 -1.38877 0
M  V30 2112 C 219.043 1.96012 -0.0859426 0
M  V30 2113 O 218.168 2.00463 0.815081 0
M  V30 2114 C 218.763 2.26938 -2.51564 0
M  V30 2115 C 217.322 2.80529 -2.50959 0
M  V30 2116 C 216.469 1.54965 -2.29959 0
M  V30 2117 H 219.42 0.459853 -1.51892 0
M  V30 2118 H 219.441 3.08834 -2.22265 0
M  V30 2119 H 218.953 1.75065 -3.46372 0
M  V30 2120 H 217.054 3.36502 -1.59991 0
M  V30 2121 H 217.167 3.29012 -3.48265 0
M  V30 2122 H 215.531 1.81817 -1.78366 0
M  V30 2123 H 216.314 1.05047 -3.26833 0
M  V30 2124 N 218.759 1.29093 0.90403 0
M  V30 2125 C 220.175 1.07011 1.1841 0
M  V30 2126 C 220.375 -0.181358 2.00682 0
M  V30 2127 O 219.431 -0.880331 2.36657 0
M  V30 2128 C 220.744 2.32311 1.90924 0
M  V30 2129 C 222.292 2.37587 2.03768 0
M  V30 2130 C 222.767 3.62679 2.79693 0
M  V30 2131 N 224.258 3.63376 2.87249 0
M  V30 2132 C 224.993 4.56848 3.46522 0
M  V30 2133 N 224.489 5.60648 4.06996 0
M  V30 2134 N 226.282 4.44426 3.44154 0
M  V30 2135 H 218.433 2.09412 0.354993 0
M  V30 2136 H 220.696 0.922181 0.219742 0
M  V30 2137 H 220.402 3.23536 1.37905 0
M  V30 2138 H 220.276 2.39483 2.91424 0
M  V30 2139 H 222.663 1.46853 2.55965 0
M  V30 2140 H 222.744 2.34403 1.02415 0
M  V30 2141 H 222.388 4.53762 2.28173 0
M  V30 2142 H 222.318 3.63119 3.81381 0
M  V30 2143 H 224.809 2.88321 2.44293 0
M  V30 2144 H 225.122 6.28101 4.50232 0
M  V30 2145 H 223.467 5.64463 4.05471 0
M  V30 2146 H 226.658 3.62529 2.96126 0
M  V30 2147 H 226.831 5.17457 3.90054 0
M  V30 2148 N 220.237 -1.11381 1.11499 0
M  V30 2149 C 221.485 -1.8277 0.862524 0
M  V30 2150 C 221.806 -1.85097 -0.613534 0
M  V30 2151 O 221.076 -1.32198 -1.4457 0
M  V30 2152 H 219.656 -0.676823 0.316101 0
M  V30 2153 H 222.318 -1.34816 1.4075 0
M  V30 2154 H 221.414 -2.86614 1.23527 0
M  V30 2155 N 221.715 -0.905404 -1.28997 0
M  V30 2156 C 223.131 -0.60233 -1.47798 0
M  V30 2157 C 223.331 0.854645 -1.82478 0
M  V30 2158 O 222.387 1.63439 -1.92468 0
M  V30 2159 C 223.7 -1.53306 -2.58685 0
M  V30 2160 C 225.248 -1.53887 -2.72558 0
M  V30 2161 C 225.723 -2.45602 -3.86579 0
M  V30 2162 N 227.214 -2.43681 -3.93921 0
M  V30 2163 C 227.949 -3.11347 -4.81509 0
M  V30 2164 N 227.445 -3.88313 -5.73746 0
M  V30 2165 N 229.238 -3.00476 -4.75048 0
M  V30 2166 H 221.389 -1.84765 -1.04764 0
M  V30 2167 H 223.652 -0.792025 -0.520961 0
M  V30 2168 H 223.358 -2.57141 -2.39941 0
M  V30 2169 H 223.232 -1.25787 -3.55609 0
M  V30 2170 H 225.619 -0.507941 -2.90696 0
M  V30 2171 H 225.7 -1.85447 -1.76191 0
M  V30 2172 H 225.344 -3.48792 -3.69197 0
M  V30 2173 H 225.274 -2.11349 -4.82327 0
M  V30 2174 H 227.765 -1.87767 -3.27951 0
M  V30 2175 H 228.078 -4.36985 -6.37389 0
M  V30 2176 H 226.423 -3.92419 -5.73614 0
M  V30 2177 H 229.614 -2.39858 -4.01977 0
M  V30 2178 H 229.787 -3.53485 -5.43095 0
M  V30 2179 N 223.193 1.4272 -0.668489 0
M  V30 2180 C 224.47 1.95248 -0.117373 0
M  V30 2181 C 224.85 1.60919 1.36632 0
M  V30 2182 O 224.198 0.902095 2.09939 0
M  V30 2183 C 224.408 3.46927 -0.379806 0
M  V30 2184 C 225.756 4.23588 -0.292923 0
M  V30 2185 O 226.78 3.5482 -0.313204 0
M  V30 2186 O 225.639 5.46017 -0.229697 0
M  V30 2187 H 222.733 0.827 0.00079152 0
M  V30 2188 H 225.279 1.52581 -0.742783 0
M  V30 2189 H 224.051 3.65096 -1.40786 0
M  V30 2190 H 223.674 3.96627 0.277923 0
M  V30 2191 N 224.671 0.411399 1.52136 0
M  V30 2192 C 225.919 -0.163322 2.01439 0
M  V30 2193 C 226.24 -1.45453 1.29879 0
M  V30 2194 O 225.51 -1.91225 0.4254 0
M  V30 2195 H 224.09 -0.0633447 0.744309 0
M  V30 2196 H 226.752 0.548161 1.87033 0
M  V30 2197 H 225.848 -0.357817 3.10042 0
M  V30 2198 N 226.149 -1.5696 0.141893 0
M  V30 2199 C 227.059 -2.20066 -0.812905 0
M  V30 2200 C 228.075 -1.18344 -1.27557 0
M  V30 2201 O 229.251 -1.50902 -1.33381 0
M  V30 2202 C 226.316 -2.80583 -2.03652 0
M  V30 2203 C 225.377 -3.97414 -1.62359 0
M  V30 2204 C 224.61 -4.55036 -2.78887 0
M  V30 2205 O 224.833 -4.11538 -3.94959 0
M  V30 2206 O 223.767 -5.45376 -2.54653 0
M  V30 2207 H 227.593 -3.02157 -0.305746 0
M  V30 2208 H 225.178 -1.49159 -0.0848799 0
M  V30 2209 H 227.06 -3.19067 -2.75272 0
M  V30 2210 H 225.735 -2.01508 -2.5333 0
M  V30 2211 H 224.642 -3.63656 -0.877775 0
M  V30 2212 H 225.975 -4.77994 -1.17401 0
M  V30 2213 N 227.627 0.131896 -1.57047 0
M  V30 2214 C 229.038 0.690407 -1.73465 0
M  V30 2215 C 229.389 1.8094 -0.758629 0
M  V30 2216 O 228.514 2.16282 0.0713813 0
M  V30 2217 C 229.109 1.25916 -3.14532 0
M  V30 2218 C 227.668 1.76409 -3.32501 0
M  V30 2219 C 226.815 0.658579 -2.69366 0
M  V30 2220 H 229.766 -0.0939144 -1.58422 0
M  V30 2221 H 229.787 2.12892 -3.15369 0
M  V30 2222 H 229.299 0.444515 -3.85546 0
M  V30 2223 H 227.4 2.60391 -2.66509 0
M  V30 2224 H 227.513 1.88241 -4.4057 0
M  V30 2225 H 225.877 1.08899 -2.30246 0
M  V30 2226 H 226.66 -0.14487 -3.42994 0
M  V30 2227 N 229.106 1.52395 0.401703 0
M  V30 2228 C 230.354 1.66488 1.14569 0
M  V30 2229 C 230.675 0.400897 1.90835 0
M  V30 2230 O 229.945 -0.584415 1.8698 0
M  V30 2231 H 228.525 0.613672 0.425929 0
M  V30 2232 H 231.187 1.89464 0.457093 0
M  V30 2233 H 230.283 2.50942 1.85566 0
M  V30 2234 N 230.584 -0.659388 1.43143 0
M  V30 2235 C 231.812 -1.44723 1.47861 0
M  V30 2236 C 232.227 -1.88563 0.0945886 0
M  V30 2237 O 231.584 -1.59108 -0.893915 0
M  V30 2238 C 231.635 -2.68627 2.41913 0
M  V30 2239 O 231.356 -2.26623 3.74932 0
M  V30 2240 C 232.857 -3.62045 2.55809 0
M  V30 2241 H 230.077 -0.444801 0.502387 0
M  V30 2242 H 232.621 -0.808916 1.87821 0
M  V30 2243 H 230.776 -3.28613 2.05164 0
M  V30 2244 H 231.19 -3.06745 4.2545 0
M  V30 2245 H 232.664 -4.45666 3.25708 0
M  V30 2246 H 233.141 -4.08981 1.60099 0
M  V30 2247 H 233.747 -3.07944 2.93344 0
M  V30 2248 N 232.062 -1.29571 -0.897171 0
M  V30 2249 C 233.473 -1.15964 -1.46319 0
M  V30 2250 C 233.824 0.244267 -1.94674 0
M  V30 2251 O 232.949 1.13998 -1.83939 0
M  V30 2252 C 233.544 -2.09906 -2.65942 0
M  V30 2253 C 232.103 -2.00314 -3.18671 0
M  V30 2254 C 231.25 -2.00687 -1.91363 0
M  V30 2255 H 234.201 -1.42019 -0.708268 0
M  V30 2256 H 234.222 -1.67276 -3.41759 0
M  V30 2257 H 233.734 -3.12075 -2.30718 0
M  V30 2258 H 231.835 -1.01242 -3.58582 0
M  V30 2259 H 231.948 -2.88102 -3.82798 0
M  V30 2260 H 230.312 -1.45319 -2.09175 0
M  V30 2261 H 231.095 -3.04566 -1.58413 0
M  V30 2262 N 233.54 1.10788 -1.12088 0
M  V30 2263 C 234.788 1.8231 -0.872205 0
M  V30 2264 C 235.109 1.85419 0.603709 0
M  V30 2265 O 234.379 1.32963 1.43867 0
M  V30 2266 H 232.959 0.675137 -0.319686 0
M  V30 2267 H 235.621 1.34068 -1.41463 0
M  V30 2268 H 234.717 2.85955 -1.25045 0
M  V30 2269 N 235.018 0.912232 1.28515 0
M  V30 2270 C 235.966 0.389597 2.29314 0
M  V30 2271 C 236.96 -0.517915 1.61289 0
M  V30 2272 O 238.166 -0.399328 1.75515 0
M  V30 2273 H 234.541 0.107386 0.744293 0
M  V30 2274 H 236.512 1.25286 2.70825 0
M  V30 2275 C 235.261 -0.356496 3.45868 0
M  V30 2276 H 234.584 0.332608 3.98414 0
M  V30 2277 H 236.024 -0.686851 4.184 0
M  V30 2278 C 234.483 -1.56383 2.98406 0
M  V30 2279 O 235.013 -2.66294 3.00749 0
M  V30 2280 N 233.219 -1.41029 2.54085 0
M  V30 2281 H 232.766 -0.516089 2.52377 0
M  V30 2282 H 232.724 -2.21939 2.22689 0
M  V30 2283 N 236.496 -1.42363 0.676048 0
M  V30 2284 C 237.907 -1.84649 0.275948 0
M  V30 2285 C 238.258 -1.56588 -1.18214 0
M  V30 2286 O 237.383 -1.02634 -1.90513 0
M  V30 2287 C 237.978 -3.35178 0.494053 0
M  V30 2288 C 236.537 -3.76109 0.148061 0
M  V30 2289 C 235.684 -2.65931 0.785891 0
M  V30 2290 H 238.635 -1.32192 0.878121 0
M  V30 2291 H 238.656 -3.79655 -0.25343 0
M  V30 2292 H 238.168 -3.55571 1.55535 0
M  V30 2293 H 236.269 -3.61323 -0.909742 0
M  V30 2294 H 236.382 -4.7546 0.589454 0
M  V30 2295 H 234.746 -2.53773 0.217113 0
M  V30 2296 H 235.529 -2.89146 1.85067 0
M  V30 2297 N 237.974 -0.419461 -1.51915 0
M  V30 2298 C 239.222 0.152637 -2.01523 0
M  V30 2299 C 239.543 1.44762 -1.30649 0
M  V30 2300 O 238.813 1.90997 -0.435535 0
M  V30 2301 H 237.393 0.0593966 -0.744635 0
M  V30 2302 H 240.055 -0.558073 -1.86739 0
M  V30 2303 H 239.151 0.341369 -3.10227 0
M  V30 2304 N 239.452 1.56882 -0.150215 0
M  V30 2305 C 240.863 1.82995 0.370076 0
M  V30 2306 C 241.214 1.06907 1.64515 0
M  V30 2307 O 240.339 0.315369 2.1409 0
M  V30 2308 C 240.934 3.31942 0.678208 0
M  V30 2309 C 239.493 3.58625 1.14301 0
M  V30 2310 C 238.64 2.76792 0.167778 0
M  V30 2311 H 241.591 1.54209 -0.374858 0
M  V30 2312 H 241.612 3.48272 1.53254 0
M  V30 2313 H 241.124 3.87294 -0.249991 0
M  V30 2314 H 239.225 3.08664 2.08704 0
M  V30 2315 H 239.338 4.67073 1.06676 0
M  V30 2316 H 237.702 2.45972 0.661037 0
M  V30 2317 H 238.485 3.34916 -0.754069 0
M  V30 2318 N 240.93 -0.123565 1.57115 0
M  V30 2319 C 242.341 -0.681198 1.73829 0
M  V30 2320 C 242.692 -1.80535 0.768214 0
M  V30 2321 O 241.817 -2.16317 -0.0599103 0
M  V30 2322 C 242.412 -1.24246 3.15196 0
M  V30 2323 C 240.971 -1.74643 3.33432 0
M  V30 2324 C 240.118 -0.644284 2.69711 0
M  V30 2325 H 243.069 0.102315 1.5837 0
M  V30 2326 H 243.09 -2.11216 3.16493 0
M  V30 2327 H 242.602 -0.424062 3.85776 0
M  V30 2328 H 240.703 -2.58974 2.67886 0
M  V30 2329 H 240.816 -1.85902 4.41562 0
M  V30 2330 H 239.18 -1.07676 2.3082 0
M  V30 2331 H 239.963 0.163058 3.42913 0
M  V30 2332 N 242.408 -1.52605 -0.393616 0
M  V30 2333 C 243.656 -1.67093 -1.13685 0
M  V30 2334 C 243.977 -0.411011 -1.90619 0
M  V30 2335 O 243.247 0.574491 -1.87287 0
M  V30 2336 H 241.827 -0.615923 -0.422668 0
M  V30 2337 H 244.489 -1.89704 -0.447039 0
M  V30 2338 H 243.585 -2.51922 -1.84232 0
M  V30 2339 N 243.887 0.651787 -1.4349 0
M  V30 2340 C 245.298 1.233 -1.40193 0
M  V30 2341 C 245.649 1.9591 -0.106727 0
M  V30 2342 O 244.774 2.01316 0.793773 0
M  V30 2343 C 245.369 2.24257 -2.53957 0
M  V30 2344 C 243.928 2.77852 -2.5392 0
M  V30 2345 C 243.075 1.52517 -2.3159 0
M  V30 2346 H 246.026 0.443717 -1.52371 0
M  V30 2347 H 246.047 3.0646 -2.25528 0
M  V30 2348 H 245.559 1.71382 -3.4821 0
M  V30 2349 H 243.66 3.34786 -1.63551 0
M  V30 2350 H 243.773 3.25299 -3.51735 0
M  V30 2351 H 242.137 1.79915 -1.80285 0
M  V30 2352 H 242.92 1.01574 -3.27929 0
M  V30 2353 N 245.365 1.30045 0.890287 0
M  V30 2354 C 246.776 1.16738 1.45702 0
M  V30 2355 C 247.127 -0.233939 1.948 0
M  V30 2356 O 246.252 -1.13021 1.84541 0
M  V30 2357 C 246.847 2.11313 2.64825 0
M  V30 2358 C 245.406 2.02001 3.17604 0
M  V30 2359 C 244.553 2.01699 1.90296 0
M  V30 2360 H 247.504 1.42392 0.700726 0
M  V30 2361 H 247.525 1.69086 3.40867 0
M  V30 2362 H 247.037 3.13294 2.2906 0
M  V30 2363 H 245.138 1.03142 3.5804 0
M  V30 2364 H 245.251 2.90128 3.81264 0
M  V30 2365 H 243.615 1.46427 2.08402 0
M  V30 2366 H 244.398 3.05402 1.56795 0
M  V30 2367 N 246.843 -1.10192 1.12674 0
M  V30 2368 C 248.091 -1.81845 0.881861 0
M  V30 2369 C 248.412 -1.85737 -0.593867 0
M  V30 2370 O 247.682 -1.33724 -1.4316 0
M  V30 2371 H 246.262 -0.673432 0.323261 0
M  V30 2372 H 248.924 -1.33316 1.42172 0
M  V30 2373 H 248.02 -2.85288 1.2656 0
M  V30 2374 N 248.321 -0.919034 -1.28029 0
M  V30 2375 C 249.732 -0.600735 -1.76771 0
M  V30 2376 C 250.083 0.884024 -1.75156 0
M  V30 2377 O 249.208 1.69163 -1.34956 0
M  V30 2378 C 249.803 -1.08372 -3.21 0
M  V30 2379 C 248.362 -0.816248 -3.67443 0
M  V30 2380 C 247.509 -1.24742 -2.47658 0
M  V30 2381 H 250.46 -1.09974 -1.14418 0
M  V30 2382 H 250.481 -0.427512 -3.78091 0
M  V30 2383 H 249.993 -2.16437 -3.22144 0
M  V30 2384 H 248.094 0.250968 -3.71754 0
M  V30 2385 H 248.207 -1.4277 -4.57333 0
M  V30 2386 H 246.571 -0.666083 -2.45836 0
M  V30 2387 H 247.354 -2.33653 -2.51518 0
M  V30 2388 N 249.799 1.42003 -0.683588 0
M  V30 2389 C 251.21 1.84501 -0.285736 0
M  V30 2390 C 251.561 1.57213 1.17382 0
M  V30 2391 O 250.686 1.03642 1.89966 0
M  V30 2392 C 251.281 3.34912 -0.511821 0
M  V30 2393 C 249.84 3.76025 -0.168005 0
M  V30 2394 C 248.987 2.6551 -0.799983 0
M  V30 2395 H 251.938 1.31724 -0.885119 0
M  V30 2396 H 251.959 3.79784 0.233292 0
M  V30 2397 H 251.471 3.54741 -1.57418 0
M  V30 2398 H 249.572 3.61801 0.890567 0
M  V30 2399 H 249.685 4.75141 -0.614661 0
M  V30 2400 H 248.049 2.53654 -0.230568 0
M  V30 2401 H 248.832 2.8816 -1.86597 0
M  V30 2402 N 251.277 0.427512 1.51691 0
M  V30 2403 C 252.525 -0.141948 2.01601 0
M  V30 2404 C 252.846 -1.44067 1.31414 0
M  V30 2405 O 252.116 -1.90763 0.445658 0
M  V30 2406 H 250.696 -0.0554468 0.744939 0
M  V30 2407 H 253.358 0.567968 1.86441 0
M  V30 2408 H 252.454 -0.324913 3.10404 0
M  V30 2409 N 252.755 -1.56801 0.158532 0
M  V30 2410 C 254.166 -1.83189 -0.360366 0
M  V30 2411 C 254.517 -1.07778 -1.63946 0
M  V30 2412 O 253.642 -0.326718 -2.13919 0
M  V30 2413 C 254.237 -3.32297 -0.660595 0
M  V30 2414 C 252.796 -3.59227 -1.12398 0
M  V30 2415 C 251.943 -2.76877 -0.153097 0
M  V30 2416 H 254.894 -1.54008 0.383031 0
M  V30 2417 H 254.915 -3.4908 -1.51405 0
M  V30 2418 H 254.427 -3.87156 0.270527 0
M  V30 2419 H 252.528 -3.09766 -2.07064 0
M  V30 2420 H 252.641 -4.67632 -1.04197 0
M  V30 2421 H 251.005 -2.46319 -0.647983 0
M  V30 2422 H 251.788 -3.34511 0.77182 0
M  V30 2423 N 254.233 0.115231 -1.57178 0
M  V30 2424 C 255.644 0.67197 -1.74188 0
M  V30 2425 C 255.995 1.80125 -0.777777 0
M  V30 2426 O 255.12 2.16346 0.0484376 0
M  V30 2427 C 255.715 1.22573 -3.1585 0
M  V30 2428 C 254.274 1.72872 -3.34353 0
M  V30 2429 C 253.421 0.629972 -2.70049 0
M  V30 2430 H 256.372 -0.110712 -1.58313 0
M  V30 2431 H 256.393 2.09535 -3.17609 0
M  V30 2432 H 255.905 0.403598 -3.85996 0
M  V30 2433 H 254.006 2.5755 -2.69256 0
M  V30 2434 H 254.119 1.83557 -4.42542 0
M  V30 2435 H 252.483 1.0645 -2.31388 0
M  V30 2436 H 253.266 -0.181241 -3.42821 0
M  V30 2437 N 255.711 1.52812 0.385517 0
M  V30 2438 C 256.959 1.67694 1.12797 0
M  V30 2439 C 257.28 0.421115 1.90399 0
M  V30 2440 O 256.55 -0.564551 1.87589 0
M  V30 2441 H 255.13 0.618155 0.419396 0
M  V30 2442 H 257.792 1.89938 0.436972 0
M  V30 2443 H 256.888 2.52896 1.82894 0
M  V30 2444 N 257.189 -0.644168 1.43834 0
M  V30 2445 C 258.119 -1.76814 1.52509 0
M  V30 2446 C 259.1 -1.65823 0.379052 0
M  V30 2447 O 260.285 -1.84781 0.597466 0
M  V30 2448 C 257.415 -3.15288 1.4564 0
M  V30 2449 C 256.369 -3.41053 2.58586 0
M  V30 2450 C 255.695 -4.79421 2.36769 0
M  V30 2451 C 256.995 -3.34902 4.00797 0
M  V30 2452 H 258.689 -1.69812 2.46586 0
M  V30 2453 H 256.235 -0.815542 1.1868 0
M  V30 2454 H 258.188 -3.93681 1.50311 0
M  V30 2455 H 256.912 -3.23043 0.480725 0
M  V30 2456 H 255.571 -2.65035 2.53282 0
M  V30 2457 H 255.219 -4.83863 1.37424 0
M  V30 2458 H 254.919 -4.9762 3.12487 0
M  V30 2459 H 256.443 -5.6006 2.43238 0
M  V30 2460 H 257.857 -4.03218 4.07539 0
M  V30 2461 H 256.254 -3.64637 4.76613 0
M  V30 2462 H 257.324 -2.32928 4.25291 0
M  V30 2463 N 258.668 -1.30515 -0.883378 0
M  V30 2464 C 259.916 -1.19194 -1.63209 0
M  V30 2465 C 260.237 0.253205 -1.93349 0
M  V30 2466 O 259.507 1.17025 -1.57105 0
M  V30 2467 H 258.087 -0.438148 -0.605009 0
M  V30 2468 H 260.749 -1.63663 -1.05832 0
M  V30 2469 H 259.845 -1.75396 -2.58153 0
M  V30 2470 N 260.146 1.09593 -1.13257 0
M  V30 2471 C 261.394 1.81375 -0.891492 0
M  V30 2472 C 261.715 1.86049 0.584009 0
M  V30 2473 O 260.985 1.34481 1.42449 0
M  V30 2474 H 259.565 0.671708 -0.326828 0
M  V30 2475 H 262.227 1.3256 -1.42877 0
M  V30 2476 H 261.323 2.84612 -1.28071 0
M  V30 2477 N 261.624 0.925811 1.2754 0
M  V30 2478 C 262.572 0.413897 2.28888 0
M  V30 2479 C 263.566 -0.500779 1.61829 0
M  V30 2480 O 264.772 -0.38069 1.75928 0
M  V30 2481 H 261.147 0.115274 0.743112 0
M  V30 2482 H 263.118 1.28151 2.69481 0
M  V30 2483 C 261.867 -0.319792 3.46226 0
M  V30 2484 H 261.19 0.374846 3.98039 0
M  V30 2485 H 262.63 -0.642435 4.19105 0
M  V30 2486 C 261.089 -1.53209 3.00048 0
M  V30 2487 O 261.619 -2.6309 3.03557 0
M  V30 2488 N 259.825 -1.38326 2.55566 0
M  V30 2489 H 259.372 -0.489292 2.5291 0
M  V30 2490 H 259.33 -2.19564 2.25031 0
M  V30 2491 N 263.102 -1.41638 0.69111 0
M  V30 2492 C 264.349 -2.01299 0.220193 0
M  V30 2493 C 264.677 -1.54715 -1.17871 0
M  V30 2494 O 263.932 -0.747193 -1.80874 0
M  V30 2495 C 264.231 -3.56714 0.221277 0
M  V30 2496 C 263.897 -4.22792 1.56709 0
M  V30 2497 C 262.559 -4.40557 1.93554 0
M  V30 2498 C 264.911 -4.59883 2.45268 0
M  V30 2499 C 262.239 -4.92688 3.18552 0
M  V30 2500 C 264.591 -5.13403 3.69595 0
M  V30 2501 C 263.255 -5.29379 4.06589 0
M  V30 2502 H 262.525 -0.736606 0.0805743 0
M  V30 2503 H 265.172 -1.69598 0.889319 0
M  V30 2504 H 263.477 -3.8818 -0.531391 0
M  V30 2505 H 265.174 -4.00678 -0.160547 0
M  V30 2506 H 261.764 -4.09336 1.2705 0
M  V30 2507 H 265.948 -4.45817 2.18084 0
M  V30 2508 H 261.204 -5.03242 3.47214 0
M  V30 2509 H 265.378 -5.41084 4.38407 0
M  V30 2510 H 263.005 -5.69537 5.03519 0
M  V30 2511 N 264.58 -0.43555 -1.51462 0
M  V30 2512 C 265.543 0.365137 -2.26273 0
M  V30 2513 C 266.543 0.951227 -1.29647 0
M  V30 2514 O 267.733 0.825958 -1.53374 0
M  V30 2515 C 264.865 1.51645 -3.05314 0
M  V30 2516 H 266.058 -0.290474 -2.9849 0
M  V30 2517 H 263.611 -0.188676 -1.55157 0
M  V30 2518 H 264.346 2.20816 -2.3751 0
M  V30 2519 H 264.131 1.10238 -3.76284 0
M  V30 2520 H 265.621 2.08218 -3.61987 0
M  V30 2521 N 266.058 1.56714 -0.166846 0
M  V30 2522 C 267.021 2.16539 0.751232 0
M  V30 2523 C 268.021 1.11228 1.16125 0
M  V30 2524 O 269.211 1.36765 1.07894 0
M  V30 2525 C 266.343 2.74462 2.02196 0
M  V30 2526 H 267.536 2.99013 0.230499 0
M  V30 2527 H 265.089 1.56081 0.0826982 0
M  V30 2528 H 265.824 1.95709 2.58589 0
M  V30 2529 H 265.609 3.51527 1.73698 0
M  V30 2530 H 267.099 3.20489 2.67725 0
M  V30 2531 N 267.536 -0.106894 1.57237 0
M  V30 2532 C 268.468 -1.15646 1.97885 0
M  V30 2533 C 269.481 -1.36981 0.879779 0
M  V30 2534 O 270.67 -1.35841 1.15799 0
M  V30 2535 C 267.77 -2.51425 2.27241 0
M  V30 2536 C 266.943 -2.50529 3.58545 0
M  V30 2537 C 266.002 -3.68145 3.75973 0
M  V30 2538 O 265.028 -3.51176 4.47956 0
M  V30 2539 N 266.23 -4.87177 3.15656 0
M  V30 2540 H 268.995 -0.81059 2.8853 0
M  V30 2541 H 266.556 -0.296024 1.59171 0
M  V30 2542 H 268.548 -3.28689 2.36105 0
M  V30 2543 H 267.118 -2.78147 1.42663 0
M  V30 2544 H 266.338 -1.58894 3.60758 0
M  V30 2545 H 267.626 -2.46997 4.44826 0
M  V30 2546 H 267.024 -5.03868 2.57165 0
M  V30 2547 H 265.581 -5.62075 3.30023 0
M  V30 2548 N 269.014 -1.53014 -0.377408 0
M  V30 2549 C 269.947 -1.73382 -1.48371 0
M  V30 2550 C 270.925 -0.581879 -1.51832 0
M  V30 2551 O 272.109 -0.81307 -1.70063 0
M  V30 2552 C 269.236 -1.80192 -2.8679 0
M  V30 2553 C 268.282 -3.02056 -3.01105 0
M  V30 2554 S 269.115 -4.61811 -2.71093 0
M  V30 2555 C 270.271 -4.71453 -4.11683 0
M  V30 2556 H 270.504 -2.66946 -1.30872 0
M  V30 2557 H 268.037 -1.43453 -0.571012 0
M  V30 2558 H 269.995 -1.84802 -3.6655 0
M  V30 2559 H 268.656 -0.877008 -3.01608 0
M  V30 2560 H 267.849 -3.03396 -4.02451 0
M  V30 2561 H 267.451 -2.95498 -2.29253 0
M  V30 2562 H 269.743 -4.50781 -5.0577 0
M  V30 2563 H 270.686 -5.73487 -4.15353 0
M  V30 2564 H 271.094 -4.00189 -3.98132 0
M  V30 2565 N 270.492 0.636531 -1.44174 0
M  V30 2566 C 271.455 1.73063 -1.50273 0
M  V30 2567 C 272.455 1.56113 -0.385397 0
M  V30 2568 O 273.645 1.61707 -0.64781 0
M  V30 2569 C 270.777 3.12096 -1.37145 0
M  V30 2570 H 271.97 1.69031 -2.47727 0
M  V30 2571 H 269.523 0.849706 -1.31186 0
M  V30 2572 H 270.258 3.21728 -0.407636 0
M  V30 2573 H 270.043 3.25805 -2.18159 0
M  V30 2574 H 271.533 3.91846 -1.44382 0
M  V30 2575 N 271.97 1.30982 0.876444 0
M  V30 2576 C 273.218 1.20058 1.62575 0
M  V30 2577 C 273.539 -0.242947 1.93481 0
M  V30 2578 O 272.809 -1.1619 1.57724 0
M  V30 2579 H 271.389 0.44135 0.602677 0
M  V30 2580 H 274.051 1.64222 1.04962 0
M  V30 2581 H 273.147 1.76762 2.57219 0
M  V30 2582 N 273.449 -1.08991 1.13837 0
M  V30 2583 C 274.697 -1.80899 0.901098 0
M  V30 2584 C 275.018 -1.86356 -0.574134 0
M  V30 2585 O 274.288 -1.35235 -1.41733 0
M  V30 2586 H 272.868 -0.669966 0.330386 0
M  V30 2587 H 275.53 -1.318 1.43578 0
M  V30 2588 H 274.626 -2.83929 1.29578 0
M  V30 2589 N 274.927 -0.932562 -1.27047 0
M  V30 2590 C 276.174 -0.575559 -1.94148 0
M  V30 2591 C 276.502 0.883984 -1.73251 0
M  V30 2592 O 275.757 1.64655 -1.0577 0
M  V30 2593 C 276.056 -0.853713 -3.47054 0
M  V30 2594 C 275.722 -2.29577 -3.88079 0
M  V30 2595 C 274.384 -2.68999 -3.9899 0
M  V30 2596 C 276.736 -3.23331 -4.08787 0
M  V30 2597 C 274.064 -4.01289 -4.28 0
M  V30 2598 C 276.416 -4.55207 -4.39282 0
M  V30 2599 C 275.08 -4.94457 -4.48407 0
M  V30 2600 H 274.35 -0.210612 -0.710439 0
M  V30 2601 H 276.997 -1.17744 -1.51025 0
M  V30 2602 H 275.302 -0.169204 -3.91434 0
M  V30 2603 H 276.999 -0.55639 -3.97121 0
M  V30 2604 H 273.589 -1.97994 -3.80127 0
M  V30 2605 H 277.773 -2.94074 -3.99793 0
M  V30 2606 H 273.029 -4.31374 -4.33275 0
M  V30 2607 H 277.203 -5.27852 -4.54252 0
M  V30 2608 H 274.83 -5.96994 -4.7064 0
M  V30 2609 N 276.405 1.4127 -0.698611 0
M  V30 2610 C 277.682 1.94955 -0.158762 0
M  V30 2611 C 278.062 1.63781 1.33188 0
M  V30 2612 O 277.41 0.946423 2.07979 0
M  V30 2613 C 277.62 3.46044 -0.453309 0
M  V30 2614 C 278.968 4.22872 -0.382707 0
M  V30 2615 O 279.992 3.54076 -0.388396 0
M  V30 2616 O 278.851 5.45407 -0.345463 0
M  V30 2617 H 275.945 0.82683 -0.0167505 0
M  V30 2618 H 278.491 1.50971 -0.77498 0
M  V30 2619 H 277.263 3.62028 -1.48498 0
M  V30 2620 H 276.886 3.97128 0.19373 0
M  V30 2621 N 277.883 0.443576 1.51229 0
M  V30 2622 C 278.793 -0.370721 2.31652 0
M  V30 2623 C 279.809 -1.02186 1.40833 0
M  V30 2624 O 280.985 -1.01586 1.73903 0
M  V30 2625 C 278.05 -1.45376 3.14749 0
M  V30 2626 C 277.111 -0.822099 4.21355 0
M  V30 2627 C 276.344 -1.85353 5.0048 0
M  V30 2628 O 276.567 -3.07656 4.80316 0
M  V30 2629 O 275.501 -1.4406 5.84406 0
M  V30 2630 H 279.327 0.286002 3.0235 0
M  V30 2631 H 276.912 0.20598 1.47973 0
M  V30 2632 H 278.794 -2.08173 3.66391 0
M  V30 2633 H 277.469 -2.09445 2.46809 0
M  V30 2634 H 276.376 -0.155909 3.73775 0
M  V30 2635 H 277.709 -0.224797 4.91686 0
M  V30 2636 N 279.361 -1.56624 0.175154 0
M  V30 2637 C 280.308 -2.18149 -0.753634 0
M  V30 2638 C 281.278 -1.12265 -1.22417 0
M  V30 2639 O 282.463 -1.40432 -1.29165 0
M  V30 2640 C 279.603 -2.82933 -1.97592 0
M  V30 2641 C 278.716 -4.03289 -1.5486 0
M  V30 2642 C 277.851 -4.55988 -2.72485 0
M  V30 2643 C 276.89 -5.68746 -2.26262 0
M  V30 2644 N 276.027 -6.15938 -3.36994 0
M  V30 2645 H 280.867 -2.9717 -0.222195 0
M  V30 2646 H 278.404 -1.46774 -0.0979422 0
M  V30 2647 H 280.362 -3.18653 -2.69288 0
M  V30 2648 H 278.992 -2.06509 -2.481 0
M  V30 2649 H 278.044 -3.73364 -0.728246 0
M  V30 2650 H 279.356 -4.849 -1.16933 0
M  V30 2651 H 278.51 -4.9391 -3.52332 0
M  V30 2652 H 277.249 -3.73443 -3.13674 0
M  V30 2653 H 276.254 -5.30372 -1.44863 0
M  V30 2654 H 277.479 -6.53095 -1.86127 0
M  V30 2655 H 275.425 -5.36321 -3.77751 0
M  V30 2656 H 275.342 -6.92548 -3.03172 0
M  V30 2657 H 276.61 -6.58511 -4.17114 0
M  V30 2658 N 280.839 0.0985539 -1.57292 0
M  V30 2659 C 281.802 1.10402 -2.00858 0
M  V30 2660 C 282.802 1.33146 -0.901593 0
M  V30 2661 O 283.992 1.29318 -1.16716 0
M  V30 2662 C 281.124 2.45394 -2.36632 0
M  V30 2663 H 282.317 0.729099 -2.90902 0
M  V30 2664 H 279.87 0.343495 -1.52479 0
M  V30 2665 H 280.605 2.87769 -1.49531 0
M  V30 2666 H 280.39 2.30235 -3.17387 0
M  V30 2667 H 281.88 3.17718 -2.71007 0
M  V30 2668 N 282.317 1.53212 0.369288 0
M  V30 2669 C 283.565 1.68881 1.11012 0
M  V30 2670 C 283.886 0.441285 1.89941 0
M  V30 2671 O 283.156 -0.544623 1.88177 0
M  V30 2672 H 281.736 0.622569 0.412816 0
M  V30 2673 H 284.398 1.90391 0.416802 0
M  V30 2674 H 283.494 2.54822 1.80201 0
M  V30 2675 N 283.795 -0.628877 1.44509 0
M  V30 2676 C 285.043 -1.38565 1.4712 0
M  V30 2677 C 285.364 -1.94712 0.105899 0
M  V30 2678 O 284.634 -1.75912 -0.862079 0
M  V30 2679 H 283.214 -0.514333 0.541729 0
M  V30 2680 H 285.876 -0.740018 1.80305 0
M  V30 2681 H 284.972 -2.21583 2.19789 0
M  V30 2682 N 285.273 -1.31445 -0.869486 0
M  V30 2683 C 286.236 -1.19094 -1.9583 0
M  V30 2684 C 287.236 -0.117906 -1.60367 0
M  V30 2685 O 288.426 -0.367208 -1.70286 0
M  V30 2686 C 285.558 -0.828165 -3.30688 0
M  V30 2687 H 286.751 -2.15842 -2.08212 0
M  V30 2688 H 284.304 -1.15063 -1.05784 0
M  V30 2689 H 285.039 0.138142 -3.24006 0
M  V30 2690 H 284.824 -1.6038 -3.578 0
M  V30 2691 H 286.314 -0.765658 -4.10521 0
M  V30 2692 N 286.751 1.08385 -1.14413 0
M  V30 2693 C 287.683 2.1519 -0.789036 0
M  V30 2694 C 288.696 1.61638 0.19417 0
M  V30 2695 O 289.885 1.78479 -0.0275711 0
M  V30 2696 C 286.985 3.38565 -0.15058 0
M  V30 2697 C 286.158 4.21501 -1.16857 0
M  V30 2698 C 285.217 5.23277 -0.553832 0
M  V30 2699 O 284.243 5.56041 -1.21686 0
M  V30 2700 N 285.445 5.76629 0.669296 0
M  V30 2701 H 288.21 2.46257 -1.70814 0
M  V30 2702 H 285.771 1.24198 -1.03858 0
M  V30 2703 H 287.763 4.03777 0.273181 0
M  V30 2704 H 286.333 3.05299 0.671667 0
M  V30 2705 H 285.553 3.52265 -1.76926 0
M  V30 2706 H 286.841 4.73731 -1.85624 0
M  V30 2707 H 286.239 5.52243 1.22654 0
M  V30 2708 H 284.796 6.43521 1.03556 0
M  V30 2709 N 288.23 0.939286 1.26551 0
M  V30 2710 C 289.16 0.465044 2.28822 0
M  V30 2711 C 290.141 -0.480692 1.63167 0
M  V30 2712 O 291.326 -0.382955 1.90387 0
M  V30 2713 C 288.456 -0.27234 3.46231 0
M  V30 2714 C 287.41 0.58666 4.2396 0
M  V30 2715 C 286.736 -0.280573 5.33963 0
M  V30 2716 C 288.036 1.85704 4.88171 0
M  V30 2717 H 289.73 1.31979 2.68741 0
M  V30 2718 H 287.276 0.636061 1.29191 0
M  V30 2719 H 289.229 -0.615133 4.16886 0
M  V30 2720 H 287.953 -1.16121 3.0526 0
M  V30 2721 H 286.612 0.91232 3.55067 0
M  V30 2722 H 286.26 -1.16874 4.89234 0
M  V30 2723 H 285.96 0.29076 5.8688 0
M  V30 2724 H 287.484 -0.618678 6.07458 0
M  V30 2725 H 288.898 1.58161 5.51052 0
M  V30 2726 H 287.295 2.37279 5.51197 0
M  V30 2727 H 288.365 2.56957 4.11219 0
M  V30 2728 N 289.708 -1.40897 0.706093 0
M  V30 2729 C 290.956 -2.00657 0.241054 0
M  V30 2730 C 291.277 -1.56241 -1.16678 0
M  V30 2731 O 290.547 -0.79765 -1.78926 0
M  V30 2732 H 289.127 -0.742018 0.0861308 0
M  V30 2733 H 291.789 -1.72372 0.909604 0
M  V30 2734 H 290.885 -3.10958 0.266705 0
M  V30 2735 N 291.186 -0.45159 -1.50991 0
M  V30 2736 C 292.432 0.110237 -2.025 0
M  V30 2737 C 292.765 1.41109 -1.33424 0
M  V30 2738 O 292.04 1.89135 -0.453659 0
M  V30 2739 C 292.323 0.314271 -3.58726 0
M  V30 2740 C 292.176 -1.00623 -4.38401 0
M  V30 2741 C 293.495 1.07767 -4.26702 0
M  V30 2742 H 290.614 0.0385897 -0.735989 0
M  V30 2743 H 293.256 -0.593374 -1.80497 0
M  V30 2744 H 291.406 0.913601 -3.77605 0
M  V30 2745 H 293.078 -1.64064 -4.31139 0
M  V30 2746 H 291.321 -1.6075 -4.02917 0
M  V30 2747 H 291.992 -0.817341 -5.45915 0
M  V30 2748 H 294.468 0.56986 -4.12179 0
M  V30 2749 H 293.344 1.18921 -5.35863 0
M  V30 2750 H 293.605 2.10939 -3.88532 0
M  V30 2751 N 292.664 1.56529 -0.183458 0
M  V30 2752 C 293.597 2.14417 0.781052 0
M  V30 2753 C 294.575 1.07761 1.21763 0
M  V30 2754 O 295.759 1.35807 1.30724 0
M  V30 2755 C 292.886 2.69361 2.05335 0
M  V30 2756 C 291.932 3.885 1.75982 0
M  V30 2757 S 292.765 5.27568 0.918256 0
M  V30 2758 C 293.921 5.85926 2.20095 0
M  V30 2759 H 294.154 2.95893 0.2889 0
M  V30 2760 H 291.687 1.54368 0.0313844 0
M  V30 2761 H 293.645 3.01662 2.78406 0
M  V30 2762 H 292.306 1.87949 2.51663 0
M  V30 2763 H 291.499 4.25314 2.70415 0
M  V30 2764 H 291.101 3.57149 1.10999 0
M  V30 2765 H 293.393 5.99579 3.15453 0
M  V30 2766 H 294.336 6.82761 1.87731 0
M  V30 2767 H 294.744 5.14438 2.32409 0
M  V30 2768 N 294.142 -0.090211 1.57342 0
M  V30 2769 C 295.074 -1.13541 1.99101 0
M  V30 2770 C 296.087 -1.3604 0.894258 0
M  V30 2771 O 297.276 -1.34606 1.17233 0
M  V30 2772 C 294.376 -2.49001 2.29895 0
M  V30 2773 C 293.549 -2.46712 3.61182 0
M  V30 2774 C 292.608 -3.64136 3.79857 0
M  V30 2775 O 291.634 -3.46405 4.51655 0
M  V30 2776 N 292.836 -4.83802 3.20806 0
M  V30 2777 H 295.601 -0.779942 2.89373 0
M  V30 2778 H 293.162 -0.279125 1.59476 0
M  V30 2779 H 295.154 -3.26166 2.39578 0
M  V30 2780 H 293.724 -2.76619 1.45605 0
M  V30 2781 H 292.944 -1.55058 3.62423 0
M  V30 2782 H 294.232 -2.42265 4.4742 0
M  V30 2783 H 293.63 -5.01112 2.62494 0
M  V30 2784 H 292.187 -5.58543 3.35966 0
M  V30 2785 N 295.62 -1.53406 -0.361157 0
M  V30 2786 C 296.868 -1.69467 -1.10115 0
M  V30 2787 C 297.189 -0.451352 -1.89705 0
M  V30 2788 O 296.459 0.534636 -1.88463 0
M  V30 2789 H 295.039 -0.624749 -0.409508 0
M  V30 2790 H 297.701 -1.90609 -0.406699 0
M  V30 2791 H 296.797 -2.55774 -1.78847 0
M  V30 2792 N 297.098 0.621204 -1.44841 0
M  V30 2793 C 298.509 1.20298 -1.42777 0
M  V30 2794 C 298.86 1.95639 -0.148259 0
M  V30 2795 O 297.985 2.02955 0.750892 0
M  V30 2796 C 298.58 2.1882 -2.58657 0
M  V30 2797 C 297.139 2.72403 -2.59756 0
M  V30 2798 C 296.286 1.4757 -2.34773 0
M  V30 2799 H 299.237 0.411297 -1.53278 0
M  V30 2800 H 299.258 3.01607 -2.31977 0
M  V30 2801 H 298.77 1.63957 -3.51766 0
M  V30 2802 H 296.871 3.31242 -1.70615 0
M  V30 2803 H 296.984 3.17765 -3.58556 0
M  V30 2804 H 295.348 1.76051 -1.8406 0
M  V30 2805 H 296.131 0.945954 -3.3001 0
M  V30 2806 N 298.576 1.31904 0.862503 0
M  V30 2807 C 299.509 1.14514 1.97388 0
M  V30 2808 C 300.487 0.0466493 1.62533 0
M  V30 2809 O 301.671 0.204484 1.87388 0
M  V30 2810 C 298.798 0.751347 3.30261 0
M  V30 2811 C 297.844 1.85395 3.84098 0
M  V30 2812 S 298.677 3.46081 4.08642 0
M  V30 2813 C 299.833 3.08655 5.44502 0
M  V30 2814 H 300.066 2.08597 2.11836 0
M  V30 2815 H 297.599 1.16475 1.01356 0
M  V30 2816 H 299.557 0.530901 4.07052 0
M  V30 2817 H 298.218 -0.170493 3.13637 0
M  V30 2818 H 297.411 1.53122 4.80177 0
M  V30 2819 H 297.013 2.02984 3.14123 0
M  V30 2820 H 299.305 2.58012 6.26447 0
M  V30 2821 H 300.248 4.03726 5.81731 0
M  V30 2822 H 300.656 2.45891 5.08132 0
M  V30 2823 N 300.054 -1.07777 1.14986 0
M  V30 2824 C 301.302 -1.79934 0.920235 0
M  V30 2825 C 301.623 -1.86955 -0.554336 0
M  V30 2826 O 300.893 -1.36731 -1.40291 0
M  V30 2827 H 299.473 -0.666424 0.337473 0
M  V30 2828 H 302.135 -1.3027 1.44968 0
M  V30 2829 H 301.231 -2.82539 1.32583 0
M  V30 2830 N 301.532 -0.945985 -1.26051 0
M  V30 2831 C 302.943 -0.638096 -1.75457 0
M  V30 2832 C 303.294 0.846672 -1.76991 0
M  V30 2833 O 302.419 1.66262 -1.38513 0
M  V30 2834 C 303.014 -1.15157 -3.18629 0
M  V30 2835 C 301.573 -0.894004 -3.65629 0
M  V30 2836 C 300.72 -1.29967 -2.44957 0
M  V30 2837 H 303.671 -1.12376 -1.1206 0
M  V30 2838 H 303.692 -0.507615 -3.77099 0
M  V30 2839 H 303.204 -2.23222 -3.1748 0
M  V30 2840 H 301.305 0.172057 -3.72203 0
M  V30 2841 H 301.418 -1.52439 -4.54202 0
M  V30 2842 H 299.782 -0.718078 -2.44368 0
M  V30 2843 H 300.565 -2.38935 -2.46505 0
M  V30 2844 N 303.011 1.40521 -0.713556 0
M  V30 2845 C 303.944 2.28198 -0.00881422 0
M  V30 2846 C 304.922 1.43227 0.769735 0
M  V30 2847 O 306.106 1.72641 0.756799 0
M  V30 2848 C 303.233 3.23758 0.994899 0
M  V30 2849 C 302.279 4.25391 0.3074 0
M  V30 2850 S 303.112 5.26765 -0.963247 0
M  V30 2851 C 304.268 6.25888 0.0384143 0
M  V30 2852 H 304.501 2.87622 -0.752407 0
M  V30 2853 H 302.034 1.45925 -0.504502 0
M  V30 2854 H 303.992 3.79341 1.56879 0
M  V30 2855 H 302.653 2.63396 1.71118 0
M  V30 2856 H 301.846 4.92596 1.0661 0
M  V30 2857 H 301.448 3.73497 -0.193879 0
M  V30 2858 H 303.74 6.71683 0.885912 0
M  V30 2859 H 304.683 7.05552 -0.60019 0
M  V30 2860 H 305.091 5.63072 0.401233 0
M  V30 2861 N 304.489 0.459591 1.5075 0
M  V30 2862 C 305.737 -0.0991532 2.01857 0
M  V30 2863 C 306.058 -1.41247 1.34441 0
M  V30 2864 O 305.328 -1.89775 0.486022 0
M  V30 2865 H 303.908 -0.039633 0.745948 0
M  V30 2866 H 306.57 0.607387 1.85194 0
M  V30 2867 H 305.666 -0.258998 3.11023 0
M  V30 2868 N 305.967 -1.56429 0.191757 0
M  V30 2869 C 307.378 -1.83912 -0.321428 0
M  V30 2870 C 307.729 -1.11231 -1.61623 0
M  V30 2871 O 306.854 -0.37202 -2.13178 0
M  V30 2872 C 307.449 -3.33624 -0.589961 0
M  V30 2873 C 306.008 -3.6153 -1.04753 0
M  V30 2874 C 305.155 -2.7714 -0.0943327 0
M  V30 2875 H 308.106 -1.53161 0.415612 0
M  V30 2876 H 308.127 -3.52213 -1.43966 0
M  V30 2877 H 307.639 -3.86495 0.352588 0
M  V30 2878 H 305.74 -3.14089 -2.00447 0
M  V30 2879 H 305.853 -4.69737 -0.942549 0
M  V30 2880 H 304.217 -2.47638 -0.595589 0
M  V30 2881 H 305 -3.32799 0.842601 0
M  V30 2882 N 307.445 0.0818655 -1.57387 0
M  V30 2883 C 308.861 0.436412 -1.53517 0
M  V30 2884 C 309.061 1.79758 -0.910459 0
M  V30 2885 O 308.117 2.47324 -0.508636 0
M  V30 2886 C 309.43 0.386734 -2.98203 0
M  V30 2887 C 310.978 0.467644 -3.09487 0
M  V30 2888 C 311.453 0.447978 -4.55804 0
M  V30 2889 N 312.944 0.508348 -4.60402 0
M  V30 2890 C 313.679 0.515184 -5.71081 0
M  V30 2891 N 313.175 0.477435 -6.91153 0
M  V30 2892 N 314.968 0.560988 -5.59294 0
M  V30 2893 H 307.119 -0.809546 -1.96367 0
M  V30 2894 H 309.382 -0.302733 -0.898363 0
M  V30 2895 H 309.088 -0.546539 -3.47427 0
M  V30 2896 H 308.962 1.20075 -3.57578 0
M  V30 2897 H 311.349 1.39134 -2.60242 0
M  V30 2898 H 311.43 -0.374753 -2.5304 0
M  V30 2899 H 311.074 -0.471826 -5.05704 0
M  V30 2900 H 311.004 1.30777 -5.10103 0
M  V30 2901 H 313.495 0.54218 -3.7399 0
M  V30 2902 H 313.808 0.486299 -7.71268 0
M  V30 2903 H 312.153 0.444278 -6.93579 0
M  V30 2904 H 315.344 0.5881 -4.64391 0
M  V30 2905 H 315.517 0.562846 -6.45551 0
M  V30 2906 N 308.923 1.53595 0.353017 0
M  V30 2907 C 310.171 1.70049 1.09215 0
M  V30 2908 C 310.492 0.461406 1.89463 0
M  V30 2909 O 309.762 -0.524633 1.88744 0
M  V30 2910 H 308.342 0.626912 0.40619 0
M  V30 2911 H 311.004 1.90822 0.396585 0
M  V30 2912 H 310.1 2.56718 1.77488 0
M  V30 2913 N 310.401 -0.613514 1.45168 0
M  V30 2914 C 311.812 -1.19539 1.43413 0
M  V30 2915 C 312.163 -1.95558 0.158632 0
M  V30 2916 O 311.288 -2.0335 -0.740119 0
M  V30 2917 C 311.883 -2.17445 2.59813 0
M  V30 2918 C 310.442 -2.71022 2.61197 0
M  V30 2919 C 309.589 -1.46323 2.35552 0
M  V30 2920 H 312.54 -0.403163 1.53494 0
M  V30 2921 H 312.561 -3.00373 2.33574 0
M  V30 2922 H 312.073 -1.62089 3.52631 0
M  V30 2923 H 310.174 -3.30332 1.7237 0
M  V30 2924 H 310.287 -3.15859 3.60236 0
M  V30 2925 H 308.651 -1.75072 1.84992 0
M  V30 2926 H 309.434 -0.92844 3.30507 0
M  V30 2927 N 311.879 -1.3236 -0.855495 0
M  V30 2928 C 313.29 -1.2056 -1.42556 0
M  V30 2929 C 313.641 0.182209 -1.95352 0
M  V30 2930 O 312.766 1.08088 -1.87472 0
M  V30 2931 C 313.361 -2.1826 -2.59129 0
M  V30 2932 C 311.92 -2.10351 -3.12137 0
M  V30 2933 C 311.067 -2.06674 -1.84882 0
M  V30 2934 H 314.018 -1.442 -0.662727 0
M  V30 2935 H 314.039 -1.78064 -3.36264 0
M  V30 2936 H 313.551 -3.19257 -2.20673 0
M  V30 2937 H 311.652 -1.12599 -3.55179 0
M  V30 2938 H 311.765 -3.00135 -3.73438 0
M  V30 2939 H 310.129 -1.51901 -2.04446 0
M  V30 2940 H 310.912 -3.09451 -1.48643 0
M  V30 2941 N 313.357 1.07166 -1.15556 0
M  V30 2942 C 314.605 1.79443 -0.929764 0
M  V30 2943 C 314.926 1.87246 0.544414 0
M  V30 2944 O 314.196 1.37473 1.39564 0
M  V30 2945 H 312.776 0.664625 -0.341003 0
M  V30 2946 H 315.438 1.29499 -1.45657 0
M  V30 2947 H 314.534 2.81832 -1.34079 0
M  V30 2948 N 314.835 0.952656 1.25548 0
M  V30 2949 C 316.246 0.647392 1.75116 0
M  V30 2950 C 316.597 -0.837274 1.77438 0
M  V30 2951 O 315.722 -1.65525 1.39393 0
M  V30 2952 C 316.317 1.16845 3.18014 0
M  V30 2953 C 314.876 0.913382 3.6515 0
M  V30 2954 C 314.023 1.31265 2.44264 0
M  V30 2955 H 316.974 1.12968 1.11462 0
M  V30 2956 H 316.995 0.527606 3.76824 0
M  V30 2957 H 316.507 2.24902 3.16292 0
M  V30 2958 H 314.608 -0.152316 3.72289 0
M  V30 2959 H 314.721 1.54845 4.53387 0
M  V30 2960 H 313.085 0.731028 2.43984 0
M  V30 2961 H 313.868 2.40239 2.45234 0
M  V30 2962 N 316.313 -1.40141 0.720998 0
M  V30 2963 C 317.276 -2.29058 0.0805834 0
M  V30 2964 C 318.276 -1.45632 -0.681758 0
M  V30 2965 O 319.466 -1.6648 -0.512856 0
M  V30 2966 C 316.598 -3.28925 -0.895593 0
M  V30 2967 H 317.791 -2.87191 0.863793 0
M  V30 2968 H 315.344 -1.48553 0.485975 0
M  V30 2969 H 316.079 -2.75822 -1.70566 0
M  V30 2970 H 315.864 -3.90519 -0.351766 0
M  V30 2971 H 317.354 -3.95494 -1.34069 0
M  V30 2972 N 317.792 -0.46758 -1.50504 0
M  V30 2973 C 319.04 0.0884469 -2.01906 0
M  V30 2974 C 319.361 1.40532 -1.35188 0
M  V30 2975 O 318.631 1.89515 -0.496079 0
M  V30 2976 H 317.211 0.0356765 -0.746148 0
M  V30 2977 H 319.873 -0.6172 -1.84869 0
M  V30 2978 H 318.969 0.2425 -3.11156 0
M  V30 2979 N 319.27 1.56325 -0.20005 0
M  V30 2980 C 320.233 2.18084 0.705132 0
M  V30 2981 C 321.233 1.13666 1.1374 0
M  V30 2982 O 322.423 1.39023 1.04968 0
M  V30 2983 C 319.555 2.78689 1.96329 0
M  V30 2984 H 320.748 2.99435 0.167023 0
M  V30 2985 H 318.301 1.56221 0.0495725 0
M  V30 2986 H 319.036 2.0115 2.5438 0
M  V30 2987 H 318.821 3.55133 1.66202 0
M  V30 2988 H 320.311 3.26096 2.60866 0
M  V30 2989 N 320.748 -0.0735177 1.57428 0
M  V30 2990 C 322.159 -0.625551 1.75908 0
M  V30 2991 C 322.51 -1.78 0.825261 0
M  V30 2992 O 321.635 -2.16398 0.00893964 0
M  V30 2993 C 322.23 -1.14155 3.18989 0
M  V30 2994 C 320.789 -1.63946 3.38819 0
M  V30 2995 C 319.936 -0.558151 2.71625 0
M  V30 2996 H 322.887 0.152647 1.57964 0
M  V30 2997 H 322.908 -2.0104 3.23053 0
M  V30 2998 H 322.42 -0.301116 3.8693 0
M  V30 2999 H 320.521 -2.50321 2.7599 0
M  V30 3000 H 320.634 -1.71759 4.47253 0
M  V30 3001 H 318.998 -1.00278 2.34129 0
M  V30 3002 H 319.781 0.272071 3.4222 0
M  V30 3003 N 322.226 -1.5378 -0.344866 0
M  V30 3004 C 323.474 -1.70625 -1.08311 0
M  V30 3005 C 323.795 -0.471447 -1.89215 0
M  V30 3006 O 323.065 0.514616 -1.8902 0
M  V30 3007 H 321.645 -0.629058 -0.402859 0
M  V30 3008 H 324.307 -1.9103 -0.386459 0
M  V30 3009 H 323.403 -2.57656 -1.76124 0
M  V30 3010 N 323.704 0.605807 -1.45491 0
M  V30 3011 C 325.115 1.18777 -1.44045 0
M  V30 3012 C 325.466 1.95471 -0.169001 0
M  V30 3013 O 324.591 2.0374 0.729324 0
M  V30 3014 C 325.186 2.16064 -2.60963 0
M  V30 3015 C 323.745 2.69633 -2.62631 0
M  V30 3016 C 322.892 1.45072 -2.36325 0
M  V30 3017 H 325.843 0.395017 -1.53705 0
M  V30 3018 H 325.864 2.9913 -2.35163 0
M  V30 3019 H 325.376 1.60217 -3.53486 0
M  V30 3020 H 323.477 3.29414 -1.74119 0
M  V30 3021 H 323.59 3.13944 -3.61906 0
M  V30 3022 H 321.954 1.74089 -1.85917 0
M  V30 3023 H 322.737 0.910899 -3.30995 0
M  V30 3024 N 325.182 1.32811 0.848464 0
M  V30 3025 C 326.114 1.18095 1.96433 0
M  V30 3026 C 327.127 0.114354 1.62398 0
M  V30 3027 O 328.316 0.363892 1.74751 0
M  V30 3028 C 325.416 0.786798 3.2964 0
M  V30 3029 C 324.589 1.943 3.91875 0
M  V30 3030 C 323.648 1.53138 5.03423 0
M  V30 3031 O 322.674 2.24432 5.23086 0
M  V30 3032 N 323.876 0.430915 5.78898 0
M  V30 3033 H 326.641 2.14218 2.09597 0
M  V30 3034 H 324.202 1.2543 1.02367 0
M  V30 3035 H 326.194 0.493715 4.01677 0
M  V30 3036 H 324.764 -0.0834541 3.12489 0
M  V30 3037 H 323.984 2.40224 3.12547 0
M  V30 3038 H 325.272 2.71689 4.30189 0
M  V30 3039 H 324.67 -0.162333 5.65467 0
M  V30 3040 H 323.227 0.197466 6.51501 0
M  V30 3041 N 326.66 -1.06551 1.16123 0
M  V30 3042 C 327.908 -1.78947 0.939267 0
M  V30 3043 C 328.229 -1.87532 -0.534476 0
M  V30 3044 O 327.499 -1.38211 -1.38833 0
M  V30 3045 H 326.079 -0.662807 0.344523 0
M  V30 3046 H 328.741 -1.28725 1.46342 0
M  V30 3047 H 327.837 -2.81117 1.35572 0
M  V30 3048 N 328.138 -0.959301 -1.25041 0
M  V30 3049 C 329.385 -0.616611 -1.92884 0
M  V30 3050 C 329.713 0.847036 -1.75087 0
M  V30 3051 O 328.968 1.62374 -1.09239 0
M  V30 3052 C 329.267 -0.927136 -3.45165 0
M  V30 3053 C 328.933 -2.37757 -3.83122 0
M  V30 3054 C 327.595 -2.77402 -3.93194 0
M  V30 3055 C 329.947 -3.31929 -4.01836 0
M  V30 3056 C 327.275 -4.10277 -4.19392 0
M  V30 3057 C 329.627 -4.64423 -4.29528 0
M  V30 3058 C 328.291 -5.03857 -4.37818 0
M  V30 3059 H 327.561 -0.225634 -0.705812 0
M  V30 3060 H 330.208 -1.20921 -1.48493 0
M  V30 3061 H 328.513 -0.252195 -3.90987 0
M  V30 3062 H 330.21 -0.6405 -3.95852 0
M  V30 3063 H 326.8 -2.06013 -3.75841 0
M  V30 3064 H 330.984 -3.02488 -3.93465 0
M  V30 3065 H 326.24 -4.40467 -4.24027 0
M  V30 3066 H 330.414 -5.37369 -4.42953 0
M  V30 3067 H 328.041 -6.06843 -4.57871 0
M  V30 3068 N 329.616 1.39756 -0.72842 0
M  V30 3069 C 330.548 2.29157 -0.0446202 0
M  V30 3070 C 331.561 1.46484 0.710367 0
M  V30 3071 O 332.75 1.69632 0.55562 0
M  V30 3072 C 329.85 3.24987 0.961071 0
M  V30 3073 C 329.023 4.36572 0.268967 0
M  V30 3074 C 328.082 5.12756 1.18184 0
M  V30 3075 O 327.108 5.6534 0.661794 0
M  V30 3076 N 328.31 5.23331 2.51206 0
M  V30 3077 H 331.075 2.88482 -0.812295 0
M  V30 3078 H 328.636 1.51265 -0.577098 0
M  V30 3079 H 330.628 3.72827 1.57423 0
M  V30 3080 H 329.198 2.66739 1.63 0
M  V30 3081 H 328.418 3.90694 -0.524574 0
M  V30 3082 H 329.706 5.08363 -0.210934 0
M  V30 3083 H 329.104 4.82116 2.9594 0
M  V30 3084 H 327.661 5.74634 3.07634 0
M  V30 3085 N 331.094 0.475555 1.50254 0
M  V30 3086 C 332.342 -0.077738 2.0195 0
M  V30 3087 C 332.663 -1.39813 1.35931 0
M  V30 3088 O 331.933 -1.89249 0.506123 0
M  V30 3089 H 330.513 -0.031719 0.746326 0
M  V30 3090 H 333.175 0.626995 1.84539 0
M  V30 3091 H 332.271 -0.225995 3.11281 0
M  V30 3092 N 332.573 -1.56217 0.208337 0
M  V30 3093 C 333.521 -2.21053 -0.723769 0
M  V30 3094 C 334.515 -1.18578 -1.20978 0
M  V30 3095 O 335.721 -1.36691 -1.17114 0
M  V30 3096 H 332.096 -0.708595 -0.251788 0
M  V30 3097 H 334.067 -2.98006 -0.153365 0
M  V30 3098 C 332.816 -2.89417 -1.927 0
M  V30 3099 H 332.139 -3.68019 -1.56212 0
M  V30 3100 H 333.579 -3.38201 -2.55727 0
M  V30 3101 C 332.038 -1.91166 -2.77411 0
M  V30 3102 O 332.568 -1.42026 -3.75754 0
M  V30 3103 N 330.774 -1.59105 -2.43175 0
M  V30 3104 H 330.321 -1.99259 -1.63259 0
M  V30 3105 H 330.279 -0.936255 -3.00136 0
M  V30 3106 N 334.051 0.0651679 -1.57465 0
M  V30 3107 C 335.462 0.616213 -1.76238 0
M  V30 3108 C 335.813 1.7756 -0.834689 0
M  V30 3109 O 334.938 2.1639 -0.0204156 0
M  V30 3110 C 335.533 1.12462 -3.1959 0
M  V30 3111 C 334.092 1.62147 -3.39684 0
M  V30 3112 C 333.239 0.543739 -2.71917 0
M  V30 3113 H 336.19 -0.161022 -1.57881 0
M  V30 3114 H 336.211 1.99324 -3.24114 0
M  V30 3115 H 335.723 0.280592 -3.87084 0
M  V30 3116 H 333.824 2.48854 -2.77313 0
M  V30 3117 H 333.937 1.69385 -4.48158 0
M  V30 3118 H 332.301 0.990352 -2.34657 0
M  V30 3119 H 333.084 -0.290216 -3.42071 0
M  V30 3120 N 335.529 1.53961 0.336706 0
M  V30 3121 C 336.777 1.71197 1.07405 0
M  V30 3122 C 337.098 0.481475 1.88962 0
M  V30 3123 O 336.368 -0.504585 1.8929 0
M  V30 3124 H 334.948 0.631185 0.399517 0
M  V30 3125 H 337.61 1.91232 0.376323 0
M  V30 3126 H 336.706 2.58587 1.74755 0
M  V30 3127 N 337.007 -0.598083 1.45811 0
M  V30 3128 C 337.917 -1.73632 1.57763 0
M  V30 3129 C 338.933 -1.67763 0.461676 0
M  V30 3130 O 340.109 -1.87949 0.723685 0
M  V30 3131 C 337.174 -3.10114 1.55018 0
M  V30 3132 C 336.235 -3.27364 2.77726 0
M  V30 3133 C 335.468 -4.57334 2.75102 0
M  V30 3134 O 335.691 -5.40258 1.8297 0
M  V30 3135 O 334.625 -4.77502 3.66437 0
M  V30 3136 H 338.451 -1.66498 2.53992 0
M  V30 3137 H 336.036 -0.763308 1.28429 0
M  V30 3138 H 337.918 -3.9141 1.56129 0
M  V30 3139 H 336.593 -3.17718 0.619431 0
M  V30 3140 H 335.5 -2.45619 2.82174 0
M  V30 3141 H 336.833 -3.24641 3.69958 0
M  V30 3142 N 338.485 -1.33259 -0.841409 0
M  V30 3143 C 339.896 -1.22066 -1.41269 0
M  V30 3144 C 340.247 0.161479 -1.95534 0
M  V30 3145 O 339.372 1.06094 -1.88608 0
M  V30 3146 C 339.967 -2.20996 -2.568 0
M  V30 3147 C 338.526 -2.13649 -3.09888 0
M  V30 3148 C 337.673 -2.08623 -1.82679 0
M  V30 3149 H 340.624 -1.44895 -0.647395 0
M  V30 3150 H 340.645 -1.81621 -3.34356 0
M  V30 3151 H 340.157 -3.2158 -2.17274 0
M  V30 3152 H 338.258 -1.16359 -3.53965 0
M  V30 3153 H 338.371 -3.04079 -3.70234 0
M  V30 3154 H 336.735 -1.54061 -2.02824 0
M  V30 3155 H 337.518 -3.1101 -1.45353 0
M  V30 3156 N 339.963 1.05934 -1.16686 0
M  V30 3157 C 341.211 1.78447 -0.948744 0
M  V30 3158 C 341.532 1.87813 0.524523 0
M  V30 3159 O 340.802 1.38945 1.38098 0
M  V30 3160 H 339.382 0.660971 -0.348033 0
M  V30 3161 H 342.044 1.27947 -1.47022 0
M  V30 3162 H 341.14 2.80394 -1.37061 0
M  V30 3163 N 341.441 0.965919 1.2453 0
M  V30 3164 C 342.351 0.502154 2.29163 0
M  V30 3165 C 343.367 -0.436017 1.68448 0
M  V30 3166 O 344.543 -0.309497 1.99008 0
M  V30 3167 C 341.608 -0.201956 3.46111 0
M  V30 3168 C 340.669 0.775821 4.22232 0
M  V30 3169 C 339.902 0.105217 5.33596 0
M  V30 3170 O 340.125 -1.10683 5.59558 0
M  V30 3171 O 339.059 0.796475 5.96607 0
M  V30 3172 H 342.885 1.37194 2.70946 0
M  V30 3173 H 340.47 0.732875 1.30189 0
M  V30 3174 H 342.352 -0.597564 4.17142 0
M  V30 3175 H 341.027 -1.04673 3.06309 0
M  V30 3176 H 339.934 1.22185 3.53584 0
M  V30 3177 H 341.267 1.58896 4.65846 0
M  V30 3178 N 342.919 -1.39368 0.735821 0
M  V30 3179 C 344.33 -1.83313 0.354015 0
M  V30 3180 C 344.681 -1.61461 -1.11466 0
M  V30 3181 O 343.806 -1.10621 -1.85989 0
M  V30 3182 C 344.401 -3.32781 0.635769 0
M  V30 3183 C 342.96 -3.75142 0.307448 0
M  V30 3184 C 342.107 -2.62358 0.897974 0
M  V30 3185 H 345.058 -1.28349 0.933398 0
M  V30 3186 H 345.079 -3.80388 -0.0921773 0
M  V30 3187 H 344.591 -3.48654 1.70476 0
M  V30 3188 H 342.692 -3.64857 -0.755674 0
M  V30 3189 H 342.805 -4.72532 0.790583 0
M  V30 3190 H 341.169 -2.52624 0.324551 0
M  V30 3191 H 341.952 -2.81036 1.97164 0
M  V30 3192 N 344.397 -0.483516 -1.5 0
M  V30 3193 C 345.645 0.067027 -2.01989 0
M  V30 3194 C 345.966 1.3909 -1.36671 0
M  V30 3195 O 345.236 1.88978 -0.516152 0
M  V30 3196 H 343.816 0.0277606 -0.746484 0
M  V30 3197 H 346.478 -0.636773 -1.84204 0
M  V30 3198 H 345.574 0.209484 -3.11396 0
M  V30 3199 N 345.875 1.56104 -0.216619 0
M  V30 3200 C 347.121 1.98466 0.417033 0
M  V30 3201 C 347.454 1.10403 1.59765 0
M  V30 3202 O 346.729 0.160632 1.93836 0
M  V30 3203 C 347.012 3.49769 0.85637 0
M  V30 3204 C 346.865 4.48606 -0.327546 0
M  V30 3205 C 348.184 4.05339 1.7143 0
M  V30 3206 H 345.303 0.721551 0.150112 0
M  V30 3207 H 347.945 1.87423 -0.311864 0
M  V30 3208 H 346.095 3.5931 1.47745 0
M  V30 3209 H 347.767 4.5108 -0.965618 0
M  V30 3210 H 346.01 4.22682 -0.975805 0
M  V30 3211 H 346.681 5.51995 0.0227149 0
M  V30 3212 H 349.157 3.98712 1.19031 0
M  V30 3213 H 348.033 5.11533 1.99061 0
M  V30 3214 H 348.294 3.51918 2.67593 0
M  V30 3215 N 347.353 -0.0568162 1.57498 0
M  V30 3216 C 348.578 -0.769402 1.92601 0
M  V30 3217 C 349.003 -1.69559 0.814336 0
M  V30 3218 O 348.361 -1.79811 -0.231903 0
M  V30 3219 C 348.409 -1.52634 3.26704 0
M  V30 3220 O 347.513 -2.63797 3.16994 0
M  V30 3221 H 346.854 -0.208909 0.63028 0
M  V30 3222 H 349.384 -0.0205798 2.0459 0
M  V30 3223 H 349.394 -1.90234 3.60936 0
M  V30 3224 H 348.069 -0.846875 4.07186 0
M  V30 3225 H 346.646 -2.28943 2.94346 0
M  V30 3226 N 348.832 -1.54138 -0.328536 0
M  V30 3227 C 350.08 -1.71765 -1.06496 0
M  V30 3228 C 350.401 -0.49149 -1.88704 0
M  V30 3229 O 349.671 0.494539 -1.89555 0
M  V30 3230 H 348.251 -0.633295 -0.396164 0
M  V30 3231 H 350.913 -1.91429 -0.366176 0
M  V30 3232 H 350.009 -2.5951 -1.73381 0
M  V30 3233 N 350.31 0.590341 -1.46126 0
M  V30 3234 C 351.721 1.17243 -1.45296 0
M  V30 3235 C 352.072 1.95281 -0.189723 0
M  V30 3236 O 351.197 2.04502 0.707674 0
M  V30 3237 C 351.792 2.13284 -2.6324 0
M  V30 3238 C 350.351 2.66832 -2.65476 0
M  V30 3239 C 349.498 1.42557 -2.3785 0
M  V30 3240 H 352.449 0.378692 -1.54116 0
M  V30 3241 H 352.47 2.96619 -2.38323 0
M  V30 3242 H 351.982 1.56459 -3.55165 0
M  V30 3243 H 350.083 3.27548 -1.77603 0
M  V30 3244 H 350.196 3.10088 -3.65215 0
M  V30 3245 H 348.56 1.72107 -1.87753 0
M  V30 3246 H 349.343 0.875741 -3.31942 0
M  V30 3247 N 351.788 1.33704 0.83433 0
M  V30 3248 C 352.721 1.18675 1.94914 0
M  V30 3249 C 353.699 0.0811145 1.62398 0
M  V30 3250 O 354.883 0.244186 1.86912 0
M  V30 3251 C 352.01 0.821231 3.28593 0
M  V30 3252 C 351.056 1.93501 3.80079 0
M  V30 3253 S 351.889 3.54671 4.01209 0
M  V30 3254 C 353.045 3.20136 5.37833 0
M  V30 3255 H 353.278 2.13043 2.07364 0
M  V30 3256 H 350.811 1.18598 0.988624 0
M  V30 3257 H 352.769 0.617123 4.05835 0
M  V30 3258 H 351.43 -0.103927 3.13928 0
M  V30 3259 H 350.623 1.63273 4.76821 0
M  V30 3260 H 350.225 2.09601 3.09747 0
M  V30 3261 H 352.517 2.71242 6.20833 0
M  V30 3262 H 353.46 4.15975 5.73036 0
M  V30 3263 H 353.868 2.56613 5.02802 0
M  V30 3264 N 353.266 -1.05314 1.17247 0
M  V30 3265 C 354.514 -1.77941 0.958194 0
M  V30 3266 C 354.835 -1.88089 -0.514556 0
M  V30 3267 O 354.105 -1.39676 -1.37359 0
M  V30 3268 H 352.685 -0.659116 0.351533 0
M  V30 3269 H 355.347 -1.27166 1.47699 0
M  V30 3270 H 354.443 -2.79663 1.38546 0
M  V30 3271 N 354.744 -0.972509 -1.24016 0
M  V30 3272 C 356.155 -0.67517 -1.74064 0
M  V30 3273 C 356.506 0.808939 -1.78747 0
M  V30 3274 O 355.631 1.63286 -1.42009 0
M  V30 3275 C 356.226 -1.21889 -3.16115 0
M  V30 3276 C 354.785 -0.971358 -3.6365 0
M  V30 3277 C 353.932 -1.35134 -2.42145 0
M  V30 3278 H 356.883 -1.14727 -1.09651 0
M  V30 3279 H 356.904 -0.587489 -3.75937 0
M  V30 3280 H 356.416 -2.29906 -3.12674 0
M  V30 3281 H 354.517 0.0930686 -3.72484 0
M  V30 3282 H 354.63 -1.62039 -4.50866 0
M  V30 3283 H 352.994 -0.769751 -2.4279 0
M  V30 3284 H 353.777 -2.4411 -2.41381 0
M  V30 3285 N 356.222 1.38976 -0.743202 0
M  V30 3286 C 357.638 1.53984 -0.419664 0
M  V30 3287 C 357.838 1.70837 1.0685 0
M  V30 3288 O 356.894 1.7135 1.8546 0
M  V30 3289 C 358.207 2.75287 -1.20985 0
M  V30 3290 C 359.755 2.89129 -1.19889 0
M  V30 3291 C 360.23 4.13381 -1.97181 0
M  V30 3292 N 361.721 4.20437 -1.94389 0
M  V30 3293 C 362.456 5.15547 -2.50996 0
M  V30 3294 N 361.952 6.16395 -3.16274 0
M  V30 3295 N 363.745 5.07822 -2.40984 0
M  V30 3296 H 355.896 1.26285 -1.7078 0
M  V30 3297 H 358.159 0.612689 -0.723406 0
M  V30 3298 H 357.865 2.69204 -2.26323 0
M  V30 3299 H 357.739 3.68184 -0.819759 0
M  V30 3300 H 360.126 2.947 -0.153606 0
M  V30 3301 H 360.207 1.97272 -1.62841 0
M  V30 3302 H 359.851 4.08572 -3.01714 0
M  V30 3303 H 359.781 5.04298 -1.51629 0
M  V30 3304 H 362.272 3.48205 -1.46839 0
M  V30 3305 H 362.585 6.85443 -3.56915 0
M  V30 3306 H 360.93 6.16758 -3.20367 0
M  V30 3307 H 364.121 4.27973 -1.89622 0
M  V30 3308 H 364.294 5.81767 -2.85397 0
M  V30 3309 N 357.7 0.491464 1.49741 0
M  V30 3310 C 358.948 -0.0563141 2.02022 0
M  V30 3311 C 359.269 -1.38363 1.37407 0
M  V30 3312 O 358.539 -1.88702 0.526166 0
M  V30 3313 H 357.119 -0.0238014 0.746621 0
M  V30 3314 H 359.781 0.646533 1.83864 0
M  V30 3315 H 358.877 -0.192967 3.11503 0
M  V30 3316 N 359.178 -1.55987 0.224894 0
M  V30 3317 C 360.589 -1.84553 -0.282345 0
M  V30 3318 C 360.94 -1.14634 -1.59227 0
M  V30 3319 O 360.065 -0.417155 -2.12341 0
M  V30 3320 C 360.66 -3.348 -0.519062 0
M  V30 3321 C 359.219 -3.63671 -0.970604 0
M  V30 3322 C 358.366 -2.77277 -0.0355261 0
M  V30 3323 H 361.317 -1.52245 0.448006 0
M  V30 3324 H 361.338 -3.55187 -1.36463 0
M  V30 3325 H 360.85 -3.8566 0.43449 0
M  V30 3326 H 358.951 -3.1827 -1.9374 0
M  V30 3327 H 359.064 -4.71631 -0.842698 0
M  V30 3328 H 357.428 -2.48846 -0.542927 0
M  V30 3329 H 358.211 -3.30937 0.913003 0
M  V30 3330 N 360.656 0.0484629 -1.57525 0
M  V30 3331 C 362.067 0.597486 -1.76881 0
M  V30 3332 C 362.418 1.76664 -0.853475 0
M  V30 3333 O 361.543 2.16357 -0.0433656 0
M  V30 3334 C 362.138 1.09066 -3.20765 0
M  V30 3335 C 360.697 1.58535 -3.41385 0
M  V30 3336 C 359.844 0.514868 -2.72478 0
M  V30 3337 H 362.795 -0.177758 -1.57701 0
M  V30 3338 H 362.816 1.95875 -3.2621 0
M  V30 3339 H 362.328 0.239521 -3.8736 0
M  V30 3340 H 360.429 2.45898 -2.79937 0
M  V30 3341 H 360.542 1.64622 -4.49929 0
M  V30 3342 H 358.906 0.965407 -2.35695 0
M  V30 3343 H 359.689 -0.32648 -3.41744 0
M  V30 3344 N 362.134 1.5431 0.320358 0
M  V30 3345 C 363.382 1.72327 1.05583 0
M  V30 3346 C 363.703 0.50149 1.88441 0
M  V30 3347 O 362.973 -0.48448 1.89815 0
M  V30 3348 H 361.553 0.635387 0.3928 0
M  V30 3349 H 364.215 1.91621 0.356019 0
M  V30 3350 H 363.311 2.60426 1.72003 0
M  V30 3351 N 363.613 -0.582584 1.46437 0
M  V30 3352 C 365.024 -1.1647 1.45916 0
M  V30 3353 C 365.375 -1.95177 0.200077 0
M  V30 3354 O 364.5 -2.04874 -0.696819 0
M  V30 3355 C 365.095 -2.11885 2.64367 0
M  V30 3356 C 363.654 -2.65421 2.66887 0
M  V30 3357 C 362.801 -1.41294 2.38603 0
M  V30 3358 H 365.752 -0.370514 1.54314 0
M  V30 3359 H 365.773 -2.9535 2.39892 0
M  V30 3360 H 365.285 -1.54573 3.5599 0
M  V30 3361 H 363.386 -3.26602 1.79338 0
M  V30 3362 H 363.499 -3.08147 3.66854 0
M  V30 3363 H 361.863 -1.71109 1.88663 0
M  V30 3364 H 362.646 -0.858125 3.32402 0
M  V30 3365 N 365.091 -1.34144 -0.827227 0
M  V30 3366 C 366.502 -1.23557 -1.39966 0
M  V30 3367 C 366.853 0.140731 -1.95695 0
M  V30 3368 O 365.978 1.04087 -1.89723 0
M  V30 3369 C 366.573 -2.23708 -2.54441 0
M  V30 3370 C 365.132 -2.16924 -3.07605 0
M  V30 3371 C 364.279 -2.10549 -1.80456 0
M  V30 3372 H 367.23 -1.45573 -0.631991 0
M  V30 3373 H 367.251 -1.85157 -3.32411 0
M  V30 3374 H 366.763 -3.23866 -2.13851 0
M  V30 3375 H 364.864 -1.20107 -3.52711 0
M  V30 3376 H 364.977 -3.07988 -3.66988 0
M  V30 3377 H 363.341 -1.56203 -2.01178 0
M  V30 3378 H 364.124 -3.12535 -1.42046 0
M  V30 3379 N 366.569 1.04691 -1.17803 0
M  V30 3380 C 367.817 1.7743 -0.967617 0
M  V30 3381 C 368.138 1.88359 0.504574 0
M  V30 3382 O 367.408 1.40402 1.36617 0
M  V30 3383 H 365.988 0.657242 -0.355024 0
M  V30 3384 H 368.65 1.2638 -1.48371 0
M  V30 3385 H 367.746 2.78924 -1.40027 0
M  V30 3386 N 368.047 0.979072 1.23499 0
M  V30 3387 C 368.994 0.517904 2.24914 0
M  V30 3388 C 369.964 -0.442525 1.60097 0
M  V30 3389 O 371.149 -0.350365 1.87556 0
M  V30 3390 C 368.289 -0.174813 3.44657 0
M  V30 3391 C 367.402 0.825721 4.24035 0
M  V30 3392 C 366.537 0.107946 5.3109 0
M  V30 3393 C 365.576 1.09778 6.02175 0
M  V30 3394 N 364.713 0.40925 7.00906 0
M  V30 3395 H 369.553 1.38751 2.63727 0
M  V30 3396 H 367.09 0.695303 1.2963 0
M  V30 3397 H 369.048 -0.593233 4.12961 0
M  V30 3398 H 367.678 -1.0083 3.06648 0
M  V30 3399 H 366.73 1.36253 3.55161 0
M  V30 3400 H 368.042 1.58005 4.73113 0
M  V30 3401 H 367.196 -0.367904 6.05583 0
M  V30 3402 H 365.935 -0.678994 4.8295 0
M  V30 3403 H 364.94 1.5844 5.26476 0
M  V30 3404 H 366.165 1.88536 6.52404 0
M  V30 3405 H 364.111 -0.358506 6.5502 0
M  V30 3406 H 364.028 1.10226 7.47921 0
M  V30 3407 H 365.296 -0.0442557 7.79487 0
M  V30 3408 N 369.525 -1.3858 0.750561 0
M  V30 3409 C 370.936 -1.82927 0.373438 0
M  V30 3410 C 371.287 -1.62634 -1.09748 0
M  V30 3411 O 370.412 -1.12588 -1.84805 0
M  V30 3412 C 371.007 -3.32088 0.671029 0
M  V30 3413 C 369.566 -3.74795 0.34722 0
M  V30 3414 C 368.713 -2.61391 0.92575 0
M  V30 3415 H 371.664 -1.27351 0.946958 0
M  V30 3416 H 371.685 -3.80465 -0.0518269 0
M  V30 3417 H 371.197 -3.46826 1.74164 0
M  V30 3418 H 369.298 -3.65638 -0.716933 0
M  V30 3419 H 369.411 -4.71667 0.840656 0
M  V30 3420 H 367.775 -2.52265 0.351327 0
M  V30 3421 H 368.558 -2.78929 2.00133 0
M  V30 3422 N 371.003 -0.499398 -1.49478 0
M  V30 3423 C 372.251 0.0455996 -2.02049 0
M  V30 3424 C 372.572 1.37633 -1.38138 0
M  V30 3425 O 371.842 1.8842 -0.536166 0
M  V30 3426 H 370.422 0.0198416 -0.746736 0
M  V30 3427 H 373.084 -0.656274 -1.83519 0
M  V30 3428 H 372.18 0.176445 -3.11601 0
M  V30 3429 N 372.481 1.55866 -0.233164 0
M  V30 3430 C 373.758 1.90471 0.444988 0
M  V30 3431 C 374.138 1.15209 1.7689 0
M  V30 3432 O 373.486 0.265119 2.26957 0
M  V30 3433 C 373.696 3.4333 0.626559 0
M  V30 3434 C 375.044 4.14319 0.92871 0
M  V30 3435 O 376.068 3.48993 0.712926 0
M  V30 3436 O 374.927 5.29846 1.33887 0
M  V30 3437 H 372.021 0.792347 0.236885 0
M  V30 3438 H 374.567 1.67437 -0.276211 0
M  V30 3439 H 373.339 3.90095 -0.306822 0
M  V30 3440 H 372.962 3.72181 1.39881 0
M  V30 3441 N 373.959 -0.0401083 1.57549 0
M  V30 3442 C 375.236 -0.767917 1.79896 0
M  V30 3443 C 375.616 -1.9416 0.82856 0
M  V30 3444 O 374.964 -2.2812 -0.131671 0
M  V30 3445 C 375.174 -1.2113 3.27305 0
M  V30 3446 C 376.522 -1.63175 3.91994 0
M  V30 3447 O 377.546 -1.30616 3.31388 0
M  V30 3448 O 376.405 -2.23565 4.98679 0
M  V30 3449 H 373.499 -0.370441 0.739393 0
M  V30 3450 H 376.045 -0.017737 1.69691 0
M  V30 3451 H 374.817 -0.372937 3.89519 0
M  V30 3452 H 374.44 -2.02183 3.42356 0
M  V30 3453 N 375.437 -1.54477 -0.31217 0
M  V30 3454 C 376.685 -1.72884 -1.04668 0
M  V30 3455 C 377.006 -0.511477 -1.88173 0
M  V30 3456 O 376.276 0.474407 -1.90069 0
M  V30 3457 H 374.856 -0.637461 -0.389425 0
M  V30 3458 H 377.518 -1.91807 -0.345852 0
M  V30 3459 H 376.614 -2.61334 -1.70619 0
M  V30 3460 N 376.915 0.57481 -1.46744 0
M  V30 3461 C 377.825 1.711 -1.60505 0
M  V30 3462 C 378.841 1.67008 -0.488307 0
M  V30 3463 O 380.017 1.86774 -0.753495 0
M  V30 3464 C 377.082 3.07608 -1.59932 0
M  V30 3465 C 376.143 3.22904 -2.82898 0
M  V30 3466 C 375.376 4.529 -2.82343 0
M  V30 3467 O 375.599 5.37278 -1.91542 0
M  V30 3468 O 374.533 4.71611 -3.73987 0
M  V30 3469 H 378.359 1.62436 -2.56609 0
M  V30 3470 H 375.944 0.742779 -1.29627 0
M  V30 3471 H 377.826 3.88877 -1.62336 0
M  V30 3472 H 376.501 3.16692 -0.669898 0
M  V30 3473 H 375.408 2.41099 -2.86046 0
M  V30 3474 H 376.741 3.18715 -3.75076 0
M  V30 3475 N 378.394 1.34581 0.820102 0
M  V30 3476 C 379.357 1.2628 1.91275 0
M  V30 3477 C 380.357 0.177344 1.59819 0
M  V30 3478 O 381.547 0.430156 1.68806 0
M  V30 3479 C 378.679 0.950327 3.27386 0
M  V30 3480 H 379.872 2.23421 2.00057 0
M  V30 3481 H 377.425 1.1891 1.0144 0
M  V30 3482 H 378.16 -0.0177938 3.24295 0
M  V30 3483 H 377.945 1.73549 3.51601 0
M  V30 3484 H 379.435 0.917492 4.07396 0
M  V30 3485 N 379.872 -1.04064 1.18357 0
M  V30 3486 C 381.12 -1.76915 0.977013 0
M  V30 3487 C 381.441 -1.88624 -0.494577 0
M  V30 3488 O 380.711 -1.41125 -1.3587 0
M  V30 3489 H 379.291 -0.65535 0.358504 0
M  V30 3490 H 381.953 -1.25592 1.49039 0
M  V30 3491 H 381.049 -2.78178 1.41504 0
M  V30 3492 N 381.35 -0.985608 -1.22978 0
M  V30 3493 C 382.297 -0.529825 -2.24636 0
M  V30 3494 C 383.267 0.434028 -1.60329 0
M  V30 3495 O 384.452 0.340414 -1.87739 0
M  V30 3496 C 381.592 0.156533 -3.44745 0
M  V30 3497 C 380.705 -0.848197 -4.23591 0
M  V30 3498 C 379.84 -0.136109 -5.31026 0
M  V30 3499 C 378.879 -1.1297 -6.01585 0
M  V30 3500 N 378.016 -0.446415 -7.00679 0
M  V30 3501 H 382.856 -1.40148 -2.62988 0
M  V30 3502 H 380.393 -0.702168 -1.29259 0
M  V30 3503 H 382.351 0.571324 -4.1327 0
M  V30 3504 H 380.981 0.992025 -3.07179 0
M  V30 3505 H 380.033 -1.38135 -3.54433 0
M  V30 3506 H 381.345 -1.60512 -4.72268 0
M  V30 3507 H 380.499 0.335784 -6.0577 0
M  V30 3508 H 379.238 0.653373 -4.83304 0
M  V30 3509 H 378.243 -1.6123 -5.25628 0
M  V30 3510 H 379.468 -1.91993 -6.51395 0
M  V30 3511 H 377.414 0.323763 -6.55201 0
M  V30 3512 H 377.331 -1.1419 -7.47326 0
M  V30 3513 H 378.599 0.00291697 -7.795 0
M  V30 3514 N 382.828 1.3818 -0.7579 0
M  V30 3515 C 384.239 1.82726 -0.383134 0
M  V30 3516 C 384.59 1.63214 1.08884 0
M  V30 3517 O 383.715 1.13566 1.84205 0
M  V30 3518 C 384.31 3.31728 -0.688631 0
M  V30 3519 C 382.869 3.74606 -0.367091 0
M  V30 3520 C 382.016 2.60896 -0.939599 0
M  V30 3521 H 384.967 1.26847 -0.953699 0
M  V30 3522 H 384.988 3.80487 0.0316492 0
M  V30 3523 H 384.5 3.45898 -1.76001 0
M  V30 3524 H 382.601 3.66013 0.697532 0
M  V30 3525 H 382.714 4.71215 -0.865658 0
M  V30 3526 H 381.078 2.52075 -0.3647 0
M  V30 3527 H 381.861 2.77864 -2.0161 0
M  V30 3528 N 384.306 0.507319 1.49211 0
M  V30 3529 C 385.554 -0.0348839 2.0207 0
M  V30 3530 C 385.875 -1.36898 1.38866 0
M  V30 3531 O 385.145 -1.88133 0.546151 0
M  V30 3532 H 383.725 -0.0158812 0.746831 0
M  V30 3533 H 386.387 0.665998 1.83168 0
M  V30 3534 H 385.483 -0.159917 3.1169 0
M  V30 3535 N 385.784 -1.5574 0.241426 0
M  V30 3536 C 386.731 -2.21149 -0.660432 0
M  V30 3537 C 387.701 -1.17356 -1.17545 0
M  V30 3538 O 388.886 -1.45784 -1.23093 0
M  V30 3539 C 386.026 -2.91059 -1.85414 0
M  V30 3540 C 385.139 -4.09495 -1.37616 0
M  V30 3541 C 384.274 -4.67135 -2.529 0
M  V30 3542 C 383.313 -5.77831 -2.01936 0
M  V30 3543 N 382.45 -6.29677 -3.10566 0
M  V30 3544 H 387.29 -2.97845 -0.095955 0
M  V30 3545 H 384.827 -1.47057 -0.0356024 0
M  V30 3546 H 386.785 -3.29788 -2.5553 0
M  V30 3547 H 385.415 -2.16846 -2.39118 0
M  V30 3548 H 384.467 -3.76117 -0.569235 0
M  V30 3549 H 385.779 -4.89423 -0.962618 0
M  V30 3550 H 384.933 -5.08409 -3.31067 0
M  V30 3551 H 383.672 -3.86411 -2.97553 0
M  V30 3552 H 382.677 -5.36039 -1.22238 0
M  V30 3553 H 383.902 -6.60402 -1.58259 0
M  V30 3554 H 381.848 -5.5186 -3.54664 0
M  V30 3555 H 381.765 -7.04783 -2.73526 0
M  V30 3556 H 383.033 -6.75609 -3.88809 0
M  V30 3557 N 387.262 0.0317525 -1.57568 0
M  V30 3558 C 388.225 1.01783 -2.0536 0
M  V30 3559 C 389.225 1.29203 -0.957253 0
M  V30 3560 O 390.415 1.24251 -1.22095 0
M  V30 3561 C 387.547 2.35137 -2.46827 0
M  V30 3562 H 388.74 0.605062 -2.93733 0
M  V30 3563 H 386.293 0.278514 -1.53799 0
M  V30 3564 H 387.028 2.81168 -1.61602 0
M  V30 3565 H 386.813 2.16566 -3.26866 0
M  V30 3566 H 388.303 3.05938 -2.84239 0
M  V30 3567 N 388.74 1.54641 0.303973 0
M  V30 3568 C 389.988 1.73437 1.0375 0
M  V30 3569 C 390.309 0.521449 1.87899 0
M  V30 3570 O 389.579 -0.46432 1.90318 0
M  V30 3571 H 388.159 0.639518 0.386039 0
M  V30 3572 H 390.821 1.91988 0.335675 0
M  V30 3573 H 389.917 2.62235 1.69231 0
M  V30 3574 N 390.218 -0.567019 1.47046 0
M  V30 3575 C 391.128 -1.70247 1.6141 0
M  V30 3576 C 392.144 -1.66746 0.497157 0
M  V30 3577 O 393.32 -1.86371 0.763389 0
M  V30 3578 C 390.385 -3.06756 1.61561 0
M  V30 3579 C 389.446 -3.21399 2.84607 0
M  V30 3580 C 388.679 -4.51396 2.84741 0
M  V30 3581 O 388.902 -5.36255 1.94388 0
M  V30 3582 O 387.836 -4.69621 3.76483 0
M  V30 3583 H 391.662 -1.61073 2.57467 0
M  V30 3584 H 389.247 -0.735894 1.30019 0
M  V30 3585 H 391.129 -3.8801 1.64396 0
M  V30 3586 H 389.804 -3.16333 0.686684 0
M  V30 3587 H 388.711 -2.39579 2.8732 0
M  V30 3588 H 390.044 -3.16721 3.76761 0
M  V30 3589 N 391.696 -1.35014 -0.812953 0
M  V30 3590 C 393.112 -1.14914 -1.10757 0
M  V30 3591 C 393.312 0.0426818 -2.01455 0
M  V30 3592 O 392.368 0.715212 -2.42159 0
M  V30 3593 C 393.681 -2.44911 -1.74468 0
M  V30 3594 C 395.229 -2.5106 -1.86917 0
M  V30 3595 C 395.704 -3.81085 -2.54044 0
M  V30 3596 N 397.195 -3.82301 -2.61535 0
M  V30 3597 C 397.93 -4.79634 -3.14227 0
M  V30 3598 N 397.426 -5.87353 -3.67407 0
M  V30 3599 N 399.219 -4.67078 -3.12721 0
M  V30 3600 H 391.37 -2.1136 -0.20989 0
M  V30 3601 H 393.633 -0.935128 -0.155692 0
M  V30 3602 H 393.339 -3.32267 -1.15289 0
M  V30 3603 H 393.213 -2.58989 -2.74234 0
M  V30 3604 H 395.6 -1.64137 -2.45241 0
M  V30 3605 H 395.681 -2.40901 -0.860242 0
M  V30 3606 H 395.325 -4.68402 -1.96372 0
M  V30 3607 H 395.255 -3.88529 -3.55461 0
M  V30 3608 H 397.746 -3.04465 -2.23851 0
M  V30 3609 H 398.059 -6.57624 -4.05894 0
M  V30 3610 H 396.404 -5.91054 -3.65623 0
M  V30 3611 H 399.595 -3.82067 -2.70449 0
M  V30 3612 H 399.768 -5.43098 -3.53481 0
M  V30 3613 N 393.175 1.03435 -1.18907 0
M  V30 3614 C 394.423 1.76394 -0.986382 0
M  V30 3615 C 394.744 1.88883 0.484567 0
M  V30 3616 O 394.014 1.41843 1.3512 0
M  V30 3617 H 392.594 0.65344 -0.361975 0
M  V30 3618 H 395.256 1.248 -1.49703 0
M  V30 3619 H 394.352 2.77424 -1.42978 0
M  V30 3620 N 394.653 0.992116 1.22453 0
M  V30 3621 C 396.064 0.702776 1.72968 0
M  V30 3622 C 396.415 -0.780399 1.80012 0
M  V30 3623 O 395.54 -1.61007 1.44589 0
M  V30 3624 C 396.135 1.26903 3.14135 0
M  V30 3625 C 394.694 1.02909 3.62059 0
M  V30 3626 C 393.841 1.38969 2.39964 0
M  V30 3627 H 396.792 1.16457 1.07812 0
M  V30 3628 H 396.813 0.647223 3.74955 0
M  V30 3629 H 396.325 2.34851 3.08977 0
M  V30 3630 H 394.426 -0.0337979 3.72585 0
M  V30 3631 H 394.539 1.69191 4.48231 0
M  V30 3632 H 392.903 0.808279 2.41535 0
M  V30 3633 H 393.686 2.4792 2.37467 0
M  V30 3634 N 396.131 -1.37776 0.765217 0
M  V30 3635 C 397.542 -1.82521 0.392819 0
M  V30 3636 C 397.893 -1.63789 -1.08017 0
M  V30 3637 O 397.018 -1.14542 -1.83601 0
M  V30 3638 C 397.613 -3.31358 0.706214 0
M  V30 3639 C 396.172 -3.74406 0.386952 0
M  V30 3640 C 395.319 -2.60394 0.953422 0
M  V30 3641 H 398.27 -1.2634 0.960412 0
M  V30 3642 H 398.291 -3.80498 -0.0114706 0
M  V30 3643 H 397.803 -3.44959 1.77833 0
M  V30 3644 H 395.904 -3.66377 -0.678112 0
M  V30 3645 H 396.017 -4.70749 0.890636 0
M  V30 3646 H 394.381 -2.51878 0.378064 0
M  V30 3647 H 395.164 -2.76791 2.03081 0
M  V30 3648 N 397.609 -0.515225 -1.4894 0
M  V30 3649 C 398.857 0.0241671 -2.02086 0
M  V30 3650 C 399.178 1.3616 -1.3959 0
M  V30 3651 O 398.448 1.87841 -0.556121 0
M  V30 3652 H 397.028 0.0119203 -0.746905 0
M  V30 3653 H 399.69 -0.675702 -1.82812 0
M  V30 3654 H 398.786 0.143385 -3.1177 0
M  V30 3655 N 399.087 1.5561 -0.249682 0
M  V30 3656 C 400.498 1.84979 0.252949 0
M  V30 3657 C 400.849 1.17153 1.57384 0
M  V30 3658 O 399.974 0.450884 2.11651 0
M  V30 3659 C 400.569 3.35584 0.465732 0
M  V30 3660 C 399.128 3.65169 0.912624 0
M  V30 3661 C 398.275 2.77299 -0.00859085 0
M  V30 3662 H 401.226 1.51513 -0.47217 0
M  V30 3663 H 401.247 3.57313 1.30795 0
M  V30 3664 H 400.759 3.8492 -0.49579 0
M  V30 3665 H 398.86 3.21312 1.88652 0
M  V30 3666 H 398.973 4.72912 0.767559 0
M  V30 3667 H 397.337 2.49678 0.50327 0
M  V30 3668 H 398.12 3.29442 -0.965537 0
M  V30 3669 N 400.565 -0.0233959 1.57583 0
M  V30 3670 C 401.497 -1.04994 2.03737 0
M  V30 3671 C 402.51 -1.32125 0.951152 0
M  V30 3672 O 403.699 -1.29512 1.22837 0
M  V30 3673 C 400.799 -2.39026 2.40249 0
M  V30 3674 C 399.972 -2.31171 3.7132 0
M  V30 3675 C 399.031 -3.47698 3.94959 0
M  V30 3676 O 398.057 -3.26937 4.65941 0
M  V30 3677 N 399.259 -4.6976 3.41037 0
M  V30 3678 H 402.024 -0.656507 2.92421 0
M  V30 3679 H 399.585 -0.211235 1.60516 0
M  V30 3680 H 401.577 -3.15712 2.53196 0
M  V30 3681 H 400.147 -2.70194 1.57207 0
M  V30 3682 H 399.367 -1.39547 3.68674 0
M  V30 3683 H 400.655 -2.23071 4.57293 0
M  V30 3684 H 400.053 -4.89528 2.83512 0
M  V30 3685 H 398.61 -5.43791 3.59353 0
M  V30 3686 N 402.043 -1.548 -0.295768 0
M  V30 3687 C 403.291 -1.73985 -1.02828 0
M  V30 3688 C 403.612 -0.531406 -1.87619 0
M  V30 3689 O 402.882 0.454221 -1.90561 0
M  V30 3690 H 401.462 -0.641556 -0.382642 0
M  V30 3691 H 404.124 -1.92163 -0.325489 0
M  V30 3692 H 403.22 -2.63129 -1.67838 0
M  V30 3693 N 403.521 0.559213 -1.47345 0
M  V30 3694 C 404.484 1.64854 -1.59235 0
M  V30 3695 C 405.484 1.53851 -0.467607 0
M  V30 3696 O 406.674 1.58045 -0.732617 0
M  V30 3697 C 403.806 3.04388 -1.53496 0
M  V30 3698 H 404.999 1.55662 -2.56339 0
M  V30 3699 H 402.552 0.778973 -1.35505 0
M  V30 3700 H 403.287 3.19115 -0.577604 0
M  V30 3701 H 403.072 3.13783 -2.35123 0
M  V30 3702 H 404.562 3.83642 -1.6495 0
M  V30 3703 N 404.999 1.35443 0.805782 0
M  V30 3704 C 406.415 1.15499 1.10146 0
M  V30 3705 C 406.615 -0.0319975 2.01475 0
M  V30 3706 O 405.671 -0.70236 2.42535 0
M  V30 3707 C 406.984 2.45833 1.73166 0
M  V30 3708 C 408.532 2.52047 1.85583 0
M  V30 3709 C 409.007 3.82427 2.52019 0
M  V30 3710 N 410.498 3.83682 2.59504 0
M  V30 3711 C 411.233 4.81294 3.11679 0
M  V30 3712 N 410.729 5.89294 3.64287 0
M  V30 3713 N 412.522 4.6873 3.1024 0
M  V30 3714 H 404.673 2.11469 0.198678 0
M  V30 3715 H 406.936 0.93594 0.150731 0
M  V30 3716 H 406.642 3.32874 1.13526 0
M  V30 3717 H 406.516 2.6044 2.72857 0
M  V30 3718 H 408.903 1.65435 2.44367 0
M  V30 3719 H 408.984 2.41354 0.847455 0
M  V30 3720 H 408.628 4.69437 1.93885 0
M  V30 3721 H 408.558 3.90409 3.53395 0
M  V30 3722 H 411.049 3.05648 2.22234 0
M  V30 3723 H 411.362 6.59768 4.02401 0
M  V30 3724 H 409.707 5.92985 3.62483 0
M  V30 3725 H 412.898 3.83496 2.68419 0
M  V30 3726 H 413.071 5.44965 3.50596 0
M  V30 3727 N 406.477 -1.02803 1.19454 0
M  V30 3728 C 407.725 -1.75869 0.995722 0
M  V30 3729 C 408.046 -1.89138 -0.474543 0
M  V30 3730 O 407.316 -1.42558 -1.34366 0
M  V30 3731 H 405.896 -0.651511 0.365435 0
M  V30 3732 H 408.558 -1.24004 1.50363 0
M  V30 3733 H 407.654 -2.76661 1.44447 0
M  V30 3734 N 407.956 -0.998596 -1.21925 0
M  V30 3735 C 409.203 -0.677663 -1.90824 0
M  V30 3736 C 409.531 0.790905 -1.77693 0
M  V30 3737 O 408.786 1.58817 -1.14349 0
M  V30 3738 C 409.085 -1.03648 -3.42041 0
M  V30 3739 C 408.751 -2.49825 -3.75364 0
M  V30 3740 C 407.413 -2.8977 -3.8417 0
M  V30 3741 C 409.765 -3.44545 -3.91073 0
M  V30 3742 C 407.093 -4.23412 -4.06127 0
M  V30 3743 C 409.445 -4.77853 -4.14535 0
M  V30 3744 C 408.109 -5.17531 -4.21566 0
M  V30 3745 H 407.379 -0.247975 -0.698276 0
M  V30 3746 H 410.026 -1.25584 -1.44571 0
M  V30 3747 H 408.331 -0.376457 -3.89987 0
M  V30 3748 H 410.028 -0.766113 -3.93614 0
M  V30 3749 H 406.618 -2.17866 -3.69097 0
M  V30 3750 H 410.802 -3.14853 -3.83642 0
M  V30 3751 H 406.058 -4.53734 -4.09799 0
M  V30 3752 H 410.232 -5.51189 -4.25633 0
M  V30 3753 H 407.859 -6.21102 -4.38333 0
M  V30 3754 N 409.434 1.37368 -0.772513 0
M  V30 3755 C 410.845 1.8231 -0.402493 0
M  V30 3756 C 411.196 1.6436 1.07146 0
M  V30 3757 O 410.321 1.15514 1.82991 0
M  V30 3758 C 410.916 3.30979 -0.723776 0
M  V30 3759 C 409.475 3.74195 -0.406802 0
M  V30 3760 C 408.622 2.59885 -0.967218 0
M  V30 3761 H 411.573 1.25829 -0.967099 0
M  V30 3762 H 411.594 3.80499 -0.00870832 0
M  V30 3763 H 411.106 3.44011 -1.7966 0
M  V30 3764 H 409.207 3.66732 0.658673 0
M  V30 3765 H 409.32 4.7027 -0.915588 0
M  V30 3766 H 407.684 2.51674 -0.391416 0
M  V30 3767 H 408.467 2.7571 -2.04546 0
M  V30 3768 N 410.912 0.523116 1.48665 0
M  V30 3769 C 412.16 -0.0134497 2.02096 0
M  V30 3770 C 412.481 -1.35418 1.40311 0
M  V30 3771 O 411.751 -1.87543 0.566074 0
M  V30 3772 H 410.331 -0.00795915 0.746958 0
M  V30 3773 H 412.993 0.685388 1.82451 0
M  V30 3774 H 412.089 -0.126849 3.11842 0
M  V30 3775 N 412.39 -1.55475 0.257931 0
M  V30 3776 C 413.618 -2.03609 -0.367559 0
M  V30 3777 C 414.033 -1.13687 -1.50734 0
M  V30 3778 O 413.39 -0.153479 -1.81853 0
M  V30 3779 C 413.441 -3.51001 -0.864908 0
M  V30 3780 O 413.162 -4.37499 0.229465 0
M  V30 3781 C 414.663 -4.14946 -1.55997 0
M  V30 3782 H 411.883 -0.665459 -0.0860521 0
M  V30 3783 H 414.427 -2.00843 0.385014 0
M  V30 3784 H 412.582 -3.54266 -1.56762 0
M  V30 3785 H 412.996 -5.24286 -0.14998 0
M  V30 3786 H 414.47 -5.19735 -1.85956 0
M  V30 3787 H 414.947 -3.6209 -2.4857 0
M  V30 3788 H 415.553 -4.15635 -0.901543 0
M  V30 3789 N 413.868 0.0150385 -1.57593 0
M  V30 3790 C 415.279 0.559832 -1.78109 0
M  V30 3791 C 415.63 1.74814 -0.890756 0
M  V30 3792 O 414.755 2.16216 -0.0892482 0
M  V30 3793 C 415.35 1.02238 -3.23006 0
M  V30 3794 C 413.909 1.51258 -3.44671 0
M  V30 3795 C 413.056 0.456955 -2.73509 0
M  V30 3796 H 416.007 -0.211169 -1.57289 0
M  V30 3797 H 416.028 1.88912 -3.30292 0
M  V30 3798 H 415.54 0.157302 -3.87781 0
M  V30 3799 H 413.641 2.39905 -2.8509 0
M  V30 3800 H 413.754 1.55042 -4.5332 0
M  V30 3801 H 412.118 0.915196 -2.37689 0
M  V30 3802 H 412.901 -0.398896 -3.40975 0
M  V30 3803 N 415.346 1.54954 0.287554 0
M  V30 3804 C 416.594 1.74528 1.01904 0
M  V30 3805 C 416.915 0.541349 1.87335 0
M  V30 3806 O 416.185 -0.444108 1.908 0
M  V30 3807 H 414.765 0.643576 0.379235 0
M  V30 3808 H 417.427 1.92333 0.315294 0
M  V30 3809 H 416.523 2.64015 1.6644 0
M  V30 3810 N 416.824 -0.551391 1.4764 0
M  V30 3811 C 417.754 -1.66757 1.63445 0
M  V30 3812 C 418.735 -1.63077 0.483742 0
M  V30 3813 O 419.92 -1.80607 0.71377 0
M  V30 3814 C 417.05 -3.05387 1.65396 0
M  V30 3815 C 416.004 -3.23918 2.79752 0
M  V30 3816 C 415.33 -4.63393 2.66779 0
M  V30 3817 C 416.63 -3.08735 4.21284 0
M  V30 3818 H 418.324 -1.53786 2.56886 0
M  V30 3819 H 415.87 -0.738415 1.23626 0
M  V30 3820 H 417.823 -3.83325 1.75043 0
M  V30 3821 H 416.547 -3.19332 0.685195 0
M  V30 3822 H 415.206 -2.48391 2.69625 0
M  V30 3823 H 414.854 -4.74144 1.67918 0
M  V30 3824 H 414.554 -4.7674 3.43501 0
M  V30 3825 H 416.078 -5.43458 2.78364 0
M  V30 3826 H 417.492 -3.76484 4.32357 0
M  V30 3827 H 415.889 -3.33588 4.98838 0
M  V30 3828 H 416.959 -2.0541 4.39243 0
M  V30 3829 N 418.302 -1.35869 -0.798587 0
M  V30 3830 C 419.713 -1.26498 -1.37314 0
M  V30 3831 C 420.064 0.0991899 -1.95949 0
M  V30 3832 O 419.189 1.0004 -1.91888 0
M  V30 3833 C 419.784 -2.29054 -2.49639 0
M  V30 3834 C 418.343 -2.234 -3.02935 0
M  V30 3835 C 417.49 -2.14329 -1.75949 0
M  V30 3836 H 420.441 -1.46881 -0.600971 0
M  V30 3837 H 420.462 -1.92166 -3.28409 0
M  V30 3838 H 419.974 -3.2833 -2.06933 0
M  V30 3839 H 418.075 -1.27562 -3.50084 0
M  V30 3840 H 418.188 -3.15703 -3.60372 0
M  V30 3841 H 416.552 -1.60435 -1.9782 0
M  V30 3842 H 417.335 -3.15477 -1.35384 0
M  V30 3843 N 419.78 1.02168 -1.19998 0
M  V30 3844 C 421.028 1.75338 -1.00504 0
M  V30 3845 C 421.349 1.89387 0.464506 0
M  V30 3846 O 420.619 1.43268 1.33608 0
M  V30 3847 H 419.199 0.649564 -0.368885 0
M  V30 3848 H 421.861 1.23205 -1.51018 0
M  V30 3849 H 420.957 2.75892 -1.45912 0
M  V30 3850 N 421.258 1.00505 1.21394 0
M  V30 3851 C 422.504 0.688793 1.90745 0
M  V30 3852 C 422.837 -0.778486 1.77914 0
M  V30 3853 O 422.112 -1.56433 1.15581 0
M  V30 3854 C 422.395 1.11063 3.42545 0
M  V30 3855 C 422.248 2.63737 3.64367 0
M  V30 3856 C 423.567 0.673059 4.34923 0
M  V30 3857 H 420.686 0.251702 0.692687 0
M  V30 3858 H 423.328 1.25074 1.43026 0
M  V30 3859 H 421.478 0.632508 3.83317 0
M  V30 3860 H 423.15 3.19313 3.32922 0
M  V30 3861 H 421.393 3.05248 3.08231 0
M  V30 3862 H 422.064 2.88305 4.70727 0
M  V30 3863 H 424.54 1.08392 4.01734 0
M  V30 3864 H 423.416 0.996383 5.39781 0
M  V30 3865 H 423.677 -0.425808 4.40045 0
M  V30 3866 N 422.737 -1.36956 0.779787 0
M  V30 3867 C 423.684 -2.30175 0.169697 0
M  V30 3868 C 424.654 -1.51501 -0.68094 0
M  V30 3869 O 425.839 -1.80042 -0.631629 0
M  V30 3870 C 422.979 -3.37985 -0.697131 0
M  V30 3871 C 422.092 -4.31661 0.170992 0
M  V30 3872 C 421.227 -5.2655 -0.701298 0
M  V30 3873 C 420.266 -6.11867 0.168869 0
M  V30 3874 N 419.403 -6.98973 -0.661855 0
M  V30 3875 H 424.243 -2.81767 0.970135 0
M  V30 3876 H 421.78 -1.38699 0.489994 0
M  V30 3877 H 423.738 -3.99128 -1.2146 0
M  V30 3878 H 422.368 -2.87739 -1.46309 0
M  V30 3879 H 421.42 -3.71756 0.80634 0
M  V30 3880 H 422.732 -4.91644 0.841875 0
M  V30 3881 H 421.886 -5.92937 -1.28494 0
M  V30 3882 H 420.625 -4.66998 -1.40584 0
M  V30 3883 H 419.63 -5.44452 0.764986 0
M  V30 3884 H 420.855 -6.73493 0.870863 0
M  V30 3885 H 418.801 -6.41941 -1.35086 0
M  V30 3886 H 418.718 -7.55984 -0.0484447 0
M  V30 3887 H 419.986 -7.6974 -1.22963 0
M  V30 3888 N 424.215 -0.530993 -1.48385 0
M  V30 3889 C 425.463 0.00273189 -2.021 0
M  V30 3890 C 425.784 1.34672 -1.41027 0
M  V30 3891 O 425.054 1.8724 -0.576012 0
M  V30 3892 H 423.634 0.00399774 -0.746989 0
M  V30 3893 H 426.296 -0.695054 -1.82085 0
M  V30 3894 H 425.392 0.11031 -3.11905 0
M  V30 3895 N 425.693 1.55336 -0.266172 0
M  V30 3896 C 426.643 2.18848 0.639497 0
M  V30 3897 C 427.627 1.1503 1.12503 0
M  V30 3898 O 428.819 1.40875 1.0716 0
M  V30 3899 C 425.948 2.90626 1.82733 0
M  V30 3900 C 425.034 4.01723 1.35939 0
M  V30 3901 N 425.425 5.02145 0.606988 0
M  V30 3902 C 423.723 4.1463 1.6431 0
M  V30 3903 C 424.424 5.80572 0.362138 0
M  V30 3904 N 423.4 5.35551 0.931971 0
M  V30 3905 H 427.202 2.93845 0.0567057 0
M  V30 3906 H 424.716 1.62252 -0.0693312 0
M  V30 3907 H 426.713 3.34569 2.48735 0
M  V30 3908 H 425.373 2.17137 2.41416 0
M  V30 3909 H 426.384 5.17271 0.255198 0
M  V30 3910 H 423.061 3.52326 2.23993 0
M  V30 3911 H 424.451 6.71472 -0.239848 0
M  V30 3912 N 427.171 -0.0066808 1.57599 0
M  V30 3913 C 428.587 -0.36267 1.55425 0
M  V30 3914 C 428.787 -1.75209 0.995187 0
M  V30 3915 O 427.843 -2.44616 0.626058 0
M  V30 3916 C 429.156 -0.244017 2.99708 0
M  V30 3917 C 430.704 -0.319451 3.11366 0
M  V30 3918 C 431.179 -0.229998 4.57422 0
M  V30 3919 N 432.67 -0.288105 4.62303 0
M  V30 3920 C 433.405 -0.242127 5.72889 0
M  V30 3921 N 432.901 -0.147133 6.92644 0
M  V30 3922 N 434.694 -0.293502 5.61333 0
M  V30 3923 H 426.845 0.902314 1.92281 0
M  V30 3924 H 429.108 0.34525 0.882896 0
M  V30 3925 H 428.814 0.711678 3.44424 0
M  V30 3926 H 428.688 -1.02877 3.629 0
M  V30 3927 H 431.075 -1.26559 2.66584 0
M  V30 3928 H 431.156 0.495055 2.50964 0
M  V30 3929 H 430.8 0.712566 5.02877 0
M  V30 3930 H 430.73 -1.0629 5.15761 0
M  V30 3931 H 433.221 -0.363126 3.76151 0
M  V30 3932 H 433.534 -0.117763 7.7271 0
M  V30 3933 H 431.879 -0.112857 6.94908 0
M  V30 3934 H 435.07 -0.365864 4.66668 0
M  V30 3935 H 435.243 -0.254204 6.47501 0
M  V30 3936 N 428.649 -1.55105 -0.279332 0
M  V30 3937 C 429.897 -1.75066 -1.00977 0
M  V30 3938 C 430.218 -0.551276 -1.87045 0
M  V30 3939 O 429.488 0.433984 -1.91032 0
M  V30 3940 H 428.068 -0.645578 -0.375816 0
M  V30 3941 H 430.73 -1.92497 -0.305089 0
M  V30 3942 H 429.826 -2.64894 -1.65038 0
M  V30 3943 N 430.127 0.543554 -1.4793 0
M  V30 3944 C 431.357 1.32324 -1.58663 0
M  V30 3945 C 431.765 1.8766 -0.240896 0
M  V30 3946 O 431.108 1.66411 0.778011 0
M  V30 3947 C 431.17 2.52094 -2.56299 0
M  V30 3948 C 430.834 2.17944 -4.01683 0
M  V30 3949 C 431.831 1.74422 -4.89768 0
M  V30 3950 C 429.516 2.28884 -4.47121 0
M  V30 3951 C 431.51 1.42287 -6.21316 0
M  V30 3952 C 429.197 1.96361 -5.78693 0
M  V30 3953 C 430.195 1.53132 -6.65612 0
M  V30 3954 O 429.883 1.21029 -7.94737 0
M  V30 3955 H 429.615 0.409174 -0.538101 0
M  V30 3956 H 432.169 0.663887 -1.94375 0
M  V30 3957 H 430.399 3.20965 -2.15681 0
M  V30 3958 H 432.088 3.14165 -2.57012 0
M  V30 3959 H 432.854 1.65452 -4.55907 0
M  V30 3960 H 428.733 2.61488 -3.79664 0
M  V30 3961 H 432.277 1.08472 -6.89115 0
M  V30 3962 H 428.174 2.04967 -6.12094 0
M  V30 3963 H 428.942 1.34543 -8.07366 0
M  V30 3964 N 431.605 1.3629 0.791371 0
M  V30 3965 C 433.016 1.27225 1.36641 0
M  V30 3966 C 433.367 -0.0887968 1.95999 0
M  V30 3967 O 432.492 -0.990207 1.92416 0
M  V30 3968 C 433.087 2.30375 2.48421 0
M  V30 3969 C 431.646 2.25004 3.01746 0
M  V30 3970 C 430.793 2.15259 1.7481 0
M  V30 3971 H 433.744 1.47198 0.593173 0
M  V30 3972 H 433.765 1.93905 3.27385 0
M  V30 3973 H 433.277 3.29422 2.05189 0
M  V30 3974 H 431.378 1.29417 3.49403 0
M  V30 3975 H 431.491 3.1761 3.58693 0
M  V30 3976 H 429.855 1.61482 1.96966 0
M  V30 3977 H 430.638 3.16191 1.33709 0
M  V30 3978 N 433.083 -1.0153 1.20538 0
M  V30 3979 C 434.331 -1.74803 1.01432 0
M  V30 3980 C 434.652 -1.8963 -0.454456 0
M  V30 3981 O 433.922 -1.43975 -1.32846 0
M  V30 3982 H 432.502 -0.647598 0.372324 0
M  V30 3983 H 435.164 -1.22402 1.5167 0
M  V30 3984 H 434.26 -2.75114 1.47373 0
M  V30 3985 N 434.561 -1.01147 -1.20859 0
M  V30 3986 C 435.491 -0.597663 -2.25722 0
M  V30 3987 C 436.472 0.384744 -1.65692 0
M  V30 3988 O 437.657 0.271303 -1.92296 0
M  V30 3989 C 434.787 0.0700149 -3.47229 0
M  V30 3990 C 433.741 -0.832843 -4.19819 0
M  V30 3991 C 433.067 -0.0312202 -5.34691 0
M  V30 3992 C 434.367 -2.1385 -4.76514 0
M  V30 3993 H 436.061 -1.47423 -2.60589 0
M  V30 3994 H 433.607 -0.710301 -1.25263 0
M  V30 3995 H 435.56 0.37103 -4.19763 0
M  V30 3996 H 434.284 0.981259 -3.11511 0
M  V30 3997 H 432.943 -1.11778 -3.49144 0
M  V30 3998 H 432.591 0.881515 -4.95215 0
M  V30 3999 H 432.291 -0.632434 -5.84187 0
M  V30 4000 H 433.815 0.26346 -6.10031 0
M  V30 4001 H 435.229 -1.9002 -5.40893 0
M  V30 4002 H 433.626 -2.69012 -5.36426 0
M  V30 4003 H 434.696 -2.80495 -3.95538 0
M  V30 4004 N 436.039 1.36541 -0.78704 0
M  V30 4005 C 437.316 1.9355 -0.282424 0
M  V30 4006 C 437.696 1.71919 1.22503 0
M  V30 4007 O 437.044 1.07677 2.01539 0
M  V30 4008 C 437.254 3.4246 -0.672462 0
M  V30 4009 C 438.602 4.19582 -0.650863 0
M  V30 4010 O 439.626 3.50889 -0.612789 0
M  V30 4011 O 438.485 5.42106 -0.691623 0
M  V30 4012 H 435.579 0.824091 -0.0693 0
M  V30 4013 H 438.125 1.45736 -0.869423 0
M  V30 4014 H 436.897 3.51851 -1.71221 0
M  V30 4015 H 436.52 3.97556 -0.0592211 0
M  V30 4016 N 437.518 0.538854 1.48102 0
M  V30 4017 C 438.766 0.00798599 2.02098 0
M  V30 4018 C 439.087 -1.33922 1.41739 0
M  V30 4019 O 438.357 -1.86932 0.585934 0
M  V30 4020 H 436.937 -3.62179e-05 0.747 0
M  V30 4021 H 439.599 0.7047 1.81714 0
M  V30 4022 H 438.695 -0.0937672 3.11959 0
M  V30 4023 N 438.996 -1.55193 0.274407 0
M  V30 4024 C 439.959 -2.212 -0.600279 0
M  V30 4025 C 440.959 -1.18963 -1.08187 0
M  V30 4026 O 442.149 -1.43873 -0.982158 0
M  V30 4027 C 439.281 -2.87739 -1.82809 0
M  V30 4028 H 440.474 -2.9989 -0.0239682 0
M  V30 4029 H 438.027 -1.5628 0.0250192 0
M  V30 4030 H 438.762 -2.13058 -2.44493 0
M  V30 4031 H 438.547 -3.62658 -1.49069 0
M  V30 4032 H 440.037 -3.38171 -2.45011 0
M  V30 4033 N 440.474 -0.00167713 -1.576 0
M  V30 4034 C 441.421 0.989195 -2.08527 0
M  V30 4035 C 442.391 1.34031 -0.981065 0
M  V30 4036 O 443.576 1.43839 -1.2536 0
M  V30 4037 C 440.716 2.27537 -2.59463 0
M  V30 4038 C 439.829 1.98314 -3.83791 0
M  V30 4039 C 438.964 3.21025 -4.23222 0
M  V30 4040 C 438.003 2.87495 -5.40382 0
M  V30 4041 N 437.14 4.02749 -5.75098 0
M  V30 4042 H 441.98 0.547973 -2.92919 0
M  V30 4043 H 439.517 0.258917 -1.44803 0
M  V30 4044 H 441.475 3.02729 -2.87073 0
M  V30 4045 H 440.105 2.69325 -1.77943 0
M  V30 4046 H 439.157 1.13482 -3.63078 0
M  V30 4047 H 440.469 1.69601 -4.69081 0
M  V30 4048 H 439.623 4.04561 -4.52123 0
M  V30 4049 H 438.362 3.52877 -3.36644 0
M  V30 4050 H 437.367 2.02367 -5.11202 0
M  V30 4051 H 438.592 2.56889 -6.28637 0
M  V30 4052 H 436.538 4.34494 -4.91478 0
M  V30 4053 H 436.455 3.77566 -6.54966 0
M  V30 4054 H 437.723 4.87068 -6.08592 0
M  V30 4055 N 441.952 1.55251 0.271103 0
M  V30 4056 C 443.2 1.75599 1.00047 0
M  V30 4057 C 443.521 0.561188 1.8675 0
M  V30 4058 O 442.791 -0.423846 1.9126 0
M  V30 4059 H 441.371 0.647562 0.372387 0
M  V30 4060 H 444.033 1.92656 0.294876 0
M  V30 4061 H 443.129 2.65766 1.6363 0
M  V30 4062 N 443.43 -0.535701 1.48216 0
M  V30 4063 C 444.34 -1.66785 1.64985 0
M  V30 4064 C 445.356 -1.65654 0.532414 0
M  V30 4065 O 446.532 -1.8471 0.80275 0
M  V30 4066 C 443.597 -3.0326 1.68031 0
M  V30 4067 C 442.658 -3.1529 2.9136 0
M  V30 4068 C 441.891 -4.45255 2.94252 0
M  V30 4069 O 442.114 -5.32011 2.05719 0
M  V30 4070 O 441.048 -4.6153 3.86359 0
M  V30 4071 H 444.874 -1.55576 2.60825 0
M  V30 4072 H 442.459 -0.70815 1.31551 0
M  V30 4073 H 444.341 -3.84436 1.72589 0
M  V30 4074 H 443.016 -3.14805 0.753628 0
M  V30 4075 H 441.923 -2.3343 2.92337 0
M  V30 4076 H 443.256 -3.08658 3.83394 0
M  V30 4077 N 444.908 -1.36708 -0.784132 0
M  V30 4078 C 445.871 -1.31307 -1.87859 0
M  V30 4079 C 446.871 -0.219654 -1.59293 0
M  V30 4080 O 448.061 -0.47476 -1.67606 0
M  V30 4081 C 445.193 -1.03679 -3.24751 0
M  V30 4082 H 446.386 -2.28647 -1.94064 0
M  V30 4083 H 443.939 -1.21558 -0.98252 0
M  V30 4084 H 444.674 -0.0681936 -3.24228 0
M  V30 4085 H 444.459 -1.82811 -3.46876 0
M  V30 4086 H 445.949 -1.02518 -4.04821 0
M  V30 4087 N 446.386 1.0089 -1.21074 0
M  V30 4088 C 447.634 1.74262 -1.02358 0
M  V30 4089 C 447.955 1.89869 0.444393 0
M  V30 4090 O 447.225 1.44677 1.32081 0
M  V30 4091 H 445.805 0.645615 -0.375754 0
M  V30 4092 H 448.467 1.21596 -1.52317 0
M  V30 4093 H 447.563 2.74328 -1.4883 0
M  V30 4094 N 447.864 1.01787 1.20321 0
M  V30 4095 C 448.827 0.593972 2.2137 0
M  V30 4096 C 449.827 -0.336553 1.57239 0
M  V30 4097 O 451.017 -0.125069 1.7375 0
M  V30 4098 C 448.149 -0.132433 3.40643 0
M  V30 4099 H 449.342 1.48791 2.60387 0
M  V30 4100 H 446.895 0.807803 1.33807 0
M  V30 4101 H 447.63 -1.04123 3.0713 0
M  V30 4102 H 447.415 0.53605 3.88418 0
M  V30 4103 H 448.905 -0.416314 4.1552 0
M  V30 4104 N 449.342 -1.36122 0.79427 0
M  V30 4105 C 450.753 -1.81646 0.431446 0
M  V30 4106 C 451.104 -1.66043 -1.04518 0
M  V30 4107 O 450.229 -1.1841 -1.8113 0
M  V30 4108 C 450.824 -3.29785 0.776341 0
M  V30 4109 C 449.383 -3.73501 0.466282 0
M  V30 4110 C 448.53 -2.58313 1.00844 0
M  V30 4111 H 451.481 -1.24274 0.986995 0
M  V30 4112 H 451.502 -3.80437 0.0692413 0
M  V30 4113 H 451.014 -3.4111 1.8511 0
M  V30 4114 H 449.115 -3.67733 -0.600245 0
M  V30 4115 H 449.228 -4.68754 0.990288 0
M  V30 4116 H 447.592 -2.5102 0.431406 0
M  V30 4117 H 448.375 -2.72421 2.08906 0
M  V30 4118 N 450.82 -0.546701 -1.47814 0
M  V30 4119 C 452.068 -0.0187037 -2.02091 0
M  V30 4120 C 452.389 1.33168 -1.42447 0
M  V30 4121 O 451.659 1.86619 -0.595839 0
M  V30 4122 H 450.239 -0.00392531 -0.74699 0
M  V30 4123 H 452.901 -0.714327 -1.81338 0
M  V30 4124 H 451.997 0.0772219 -3.12004 0
M  V30 4125 N 452.299 1.55045 -0.282633 0
M  V30 4126 C 453.545 2.00056 0.332481 0
M  V30 4127 C 453.878 1.1708 1.54939 0
M  V30 4128 O 453.153 0.2427 1.9298 0
M  V30 4129 C 453.436 3.53086 0.70725 0
M  V30 4130 C 453.289 4.46813 -0.517521 0
M  V30 4131 C 454.608 4.12245 1.54084 0
M  V30 4132 H 451.727 0.727268 0.119373 0
M  V30 4133 H 454.369 1.85932 -0.391076 0
M  V30 4134 H 452.519 3.65253 1.32372 0
M  V30 4135 H 454.191 4.46579 -1.15607 0
M  V30 4136 H 452.434 4.18163 -1.1542 0
M  V30 4137 H 453.105 5.51595 -0.211426 0
M  V30 4138 H 455.581 4.03401 1.02013 0
M  V30 4139 H 454.457 5.19515 1.77186 0
M  V30 4140 H 454.718 3.62951 2.52427 0
M  V30 4141 N 453.777 0.010035 1.57597 0
M  V30 4142 C 454.724 -0.978122 2.09049 0
M  V30 4143 C 455.694 -1.33509 0.988159 0
M  V30 4144 O 456.879 -1.43172 1.26121 0
M  V30 4145 C 454.019 -2.26158 2.60666 0
M  V30 4146 C 453.132 -1.96275 3.84838 0
M  V30 4147 C 452.267 -3.18776 4.24918 0
M  V30 4148 C 451.306 -2.84625 5.41899 0
M  V30 4149 N 450.443 -3.99693 5.77226 0
M  V30 4150 H 455.283 -0.532431 2.93205 0
M  V30 4151 H 452.82 -0.251234 1.44939 0
M  V30 4152 H 454.778 -3.01202 2.88675 0
M  V30 4153 H 453.408 -2.68378 1.79369 0
M  V30 4154 H 452.46 -1.11555 3.63675 0
M  V30 4155 H 453.772 -1.67111 4.69974 0
M  V30 4156 H 452.926 -4.02157 4.54262 0
M  V30 4157 H 451.665 -3.51087 3.38511 0
M  V30 4158 H 450.67 -1.99653 5.12268 0
M  V30 4159 H 451.895 -2.53551 6.29991 0
M  V30 4160 H 449.841 -4.31882 4.93776 0
M  V30 4161 H 449.758 -3.74087 6.56959 0
M  V30 4162 H 451.026 -4.83834 6.11167 0
M  V30 4163 N 455.255 -1.55392 -0.262866 0
M  V30 4164 C 456.503 -1.76127 -0.991147 0
M  V30 4165 C 456.824 -0.571083 -1.8645 0
M  V30 4166 O 456.094 0.413698 -1.91482 0
M  V30 4167 H 454.674 -0.649528 -0.368948 0
M  V30 4168 H 457.336 -1.9281 -0.284655 0
M  V30 4169 H 456.432 -2.6663 -1.62219 0
M  V30 4170 N 456.733 0.527833 -1.48498 0
M  V30 4171 C 457.643 1.65907 -1.65867 0
M  V30 4172 C 458.659 1.6537 -0.541192 0
M  V30 4173 O 459.835 1.84282 -0.812534 0
M  V30 4174 C 456.9 3.02364 -1.69637 0
M  V30 4175 C 455.961 3.1374 -2.93028 0
M  V30 4176 C 455.194 4.43688 -2.96609 0
M  V30 4177 O 455.417 5.30913 -2.08538 0
M  V30 4178 O 454.351 4.59475 -3.88802 0
M  V30 4179 H 458.177 1.5419 -2.61647 0
M  V30 4180 H 455.762 0.701163 -1.31924 0
M  V30 4181 H 457.644 3.83515 -1.74625 0
M  V30 4182 H 456.319 3.14401 -0.770312 0
M  V30 4183 H 455.226 2.31877 -2.93571 0
M  V30 4184 H 456.559 3.06621 -3.85026 0
M  V30 4185 N 458.211 1.37122 0.776871 0
M  V30 4186 C 459.436 1.354 1.57104 0
M  V30 4187 C 459.861 -0.0595562 1.88006 0
M  V30 4188 O 459.219 -1.03514 1.48844 0
M  V30 4189 C 459.267 2.19472 2.8612 0
M  V30 4190 O 458.371 1.59582 3.80273 0
M  V30 4191 H 457.712 0.462869 0.476076 0
M  V30 4192 H 460.242 1.80577 0.961932 0
M  V30 4193 H 460.252 2.32502 3.35271 0
M  V30 4194 H 458.927 3.22222 2.62956 0
M  V30 4195 H 457.504 1.55564 3.38902 0
M  V30 4196 N 459.689 -1.00246 1.21608 0
M  V30 4197 C 460.937 -1.73717 1.0328 0
M  V30 4198 C 461.258 -1.90102 -0.434318 0
M  V30 4199 O 460.528 -1.45376 -1.31311 0
M  V30 4200 H 459.108 -0.643613 0.379172 0
M  V30 4201 H 461.77 -1.20787 1.52959 0
M  V30 4202 H 460.866 -2.73535 1.50283 0
M  V30 4203 N 461.167 -1.02423 -1.1978 0
M  V30 4204 C 462.392 -0.7373 -1.93852 0
M  V30 4205 C 462.817 0.696923 -1.74713 0
M  V30 4206 O 462.175 1.48056 -1.04638 0
M  V30 4207 C 462.223 -1.08783 -3.438 0
M  V30 4208 O 461.327 -0.20383 -4.11896 0
M  V30 4209 H 460.668 -0.27284 -0.605355 0
M  V30 4210 H 463.198 -1.36966 -1.51992 0
M  V30 4211 H 463.208 -1.04276 -3.9445 0
M  V30 4212 H 461.883 -2.13274 -3.57053 0
M  V30 4213 H 460.46 -0.307091 -3.71633 0
M  V30 4214 N 462.645 1.35699 -0.801477 0
M  V30 4215 C 464.056 1.81415 -0.441073 0
M  V30 4216 C 464.407 1.66595 1.03636 0
M  V30 4217 O 463.532 1.19369 1.80499 0
M  V30 4218 C 464.127 3.29369 -0.793819 0
M  V30 4219 C 462.686 3.73248 -0.486083 0
M  V30 4220 C 461.833 2.57775 -1.02213 0
M  V30 4221 H 464.784 1.23749 -0.993572 0
M  V30 4222 H 464.805 3.80395 -0.0894158 0
M  V30 4223 H 464.317 3.40123 -1.86917 0
M  V30 4224 H 462.418 3.68046 0.580735 0
M  V30 4225 H 462.531 4.68222 -1.01513 0
M  V30 4226 H 460.895 2.50788 -0.444712 0
M  V30 4227 H 461.678 2.71309 -2.10348 0
M  V30 4228 N 464.123 0.554532 1.47522 0
M  V30 4229 C 465.371 0.0294208 2.02079 0
M  V30 4230 C 465.692 -1.32411 1.43151 0
M  V30 4231 O 464.962 -1.863 0.605728 0
M  V30 4232 H 463.542 0.00788672 0.746958 0
M  V30 4233 H 466.204 0.723934 1.80956 0
M  V30 4234 H 465.3 -0.0606745 3.12041 0
M  V30 4235 N 465.601 -1.54893 0.290851 0
M  V30 4236 C 466.511 -2.26812 -0.59945 0
M  V30 4237 C 467.527 -1.29963 -1.15696 0
M  V30 4238 O 468.703 -1.62928 -1.18391 0
M  V30 4239 C 465.768 -2.98716 -1.75982 0
M  V30 4240 C 464.829 -4.1108 -1.2374 0
M  V30 4241 C 464.062 -4.79546 -2.34246 0
M  V30 4242 O 464.285 -4.47309 -3.53936 0
M  V30 4243 O 463.219 -5.67165 -2.01512 0
M  V30 4244 H 467.045 -3.03696 -0.0163561 0
M  V30 4245 H 464.63 -1.49289 0.0576755 0
M  V30 4246 H 466.512 -3.43851 -2.43607 0
M  V30 4247 H 465.187 -2.24737 -2.3297 0
M  V30 4248 H 464.094 -3.70367 -0.527163 0
M  V30 4249 H 465.427 -4.87007 -0.71307 0
M  V30 4250 N 467.08 -0.0183926 -1.57589 0
M  V30 4251 C 468.028 0.985111 -2.10709 0
M  V30 4252 C 469.022 1.34397 -1.0312 0
M  V30 4253 O 470.228 1.32746 -1.21567 0
M  V30 4254 H 466.603 0.335418 -0.673052 0
M  V30 4255 H 468.574 0.511689 -2.9398 0
M  V30 4256 C 467.323 2.26202 -2.64061 0
M  V30 4257 H 466.646 1.9946 -3.4649 0
M  V30 4258 H 468.086 2.94652 -3.04887 0
M  V30 4259 C 466.545 2.98444 -1.5631 0
M  V30 4260 O 467.075 3.90142 -0.956674 0
M  V30 4261 N 465.281 2.6059 -1.28612 0
M  V30 4262 H 464.828 1.86101 -1.78112 0
M  V30 4263 H 464.786 3.09238 -0.567406 0
M  V30 4264 N 468.558 1.5553 0.254621 0
M  V30 4265 C 469.806 1.7665 0.981793 0
M  V30 4266 C 470.127 0.580963 1.86145 0
M  V30 4267 O 469.397 -0.403537 1.91699 0
M  V30 4268 H 467.977 0.651475 0.365498 0
M  V30 4269 H 470.639 1.92958 0.274426 0
M  V30 4270 H 469.735 2.67486 1.60802 0
M  V30 4271 N 470.036 -0.519951 1.48776 0
M  V30 4272 C 471.261 -1.30447 1.6124 0
M  V30 4273 C 471.686 -1.86055 0.276591 0
M  V30 4274 O 471.044 -1.64915 -0.753183 0
M  V30 4275 C 471.092 -2.42406 2.66967 0
M  V30 4276 O 470.196 -3.45728 2.24824 0
M  V30 4277 H 469.537 -0.385924 0.540332 0
M  V30 4278 H 472.067 -0.624572 1.94834 0
M  V30 4279 H 472.077 -2.88447 2.88552 0
M  V30 4280 H 470.752 -2.01294 3.63941 0
M  V30 4281 H 469.329 -3.05737 2.13494 0
M  V30 4282 N 471.514 -1.37532 -0.769588 0
M  V30 4283 C 472.925 -1.29382 -1.346 0
M  V30 4284 C 473.276 0.0576039 -1.96115 0
M  V30 4285 O 472.401 0.95947 -1.93967 0
M  V30 4286 C 472.996 -2.34298 -2.44724 0
M  V30 4287 C 471.555 -2.29776 -2.98128 0
M  V30 4288 C 470.702 -2.18013 -1.71364 0
M  V30 4289 H 473.653 -1.48123 -0.56968 0
M  V30 4290 H 473.674 -1.99089 -3.24259 0
M  V30 4291 H 473.186 -3.32645 -1.99922 0
M  V30 4292 H 471.287 -1.34959 -3.47299 0
M  V30 4293 H 471.4 -3.23276 -3.53595 0
M  V30 4294 H 469.764 -1.64595 -1.94372 0
M  V30 4295 H 470.547 -3.18278 -1.28662 0
M  V30 4296 N 472.992 0.995999 -1.22138 0
M  V30 4297 C 474.24 1.73167 -1.042 0
M  V30 4298 C 474.561 1.90329 0.42423 0
M  V30 4299 O 473.831 1.4607 1.30539 0
M  V30 4300 H 472.411 0.641593 -0.38258 0
M  V30 4301 H 475.073 1.19974 -1.53598 0
M  V30 4302 H 474.169 2.72734 -1.51731 0
M  V30 4303 N 474.47 1.03057 1.19235 0
M  V30 4304 C 475.881 0.757449 1.70645 0
M  V30 4305 C 476.232 -0.722735 1.82403 0
M  V30 4306 O 475.357 -1.56325 1.49638 0
M  V30 4307 C 475.952 1.36833 3.09939 0
M  V30 4308 C 474.511 1.14375 3.58602 0
M  V30 4309 C 473.658 1.46533 2.35422 0
M  V30 4310 H 476.609 1.19828 1.04052 0
M  V30 4311 H 476.63 0.766184 3.72706 0
M  V30 4312 H 476.142 2.44562 3.01349 0
M  V30 4313 H 474.243 0.0847542 3.72504 0
M  V30 4314 H 474.356 1.83366 4.42622 0
M  V30 4315 H 472.72 0.884712 2.38841 0
M  V30 4316 H 473.503 2.55349 2.2946 0
M  V30 4317 N 475.948 -1.35272 0.808662 0
M  V30 4318 C 476.881 -2.27595 0.165994 0
M  V30 4319 C 477.859 -1.48189 -0.669241 0
M  V30 4320 O 479.043 -1.77444 -0.636073 0
M  V30 4321 C 476.17 -3.29843 -0.769505 0
M  V30 4322 C 475.216 -4.26498 -0.0136267 0
M  V30 4323 S 476.049 -5.18878 1.32384 0
M  V30 4324 C 477.205 -6.24666 0.392838 0
M  V30 4325 H 477.438 -2.81755 0.948756 0
M  V30 4326 H 474.971 -1.42103 0.603828 0
M  V30 4327 H 476.929 -3.89247 -1.30374 0
M  V30 4328 H 475.59 -2.74558 -1.52567 0
M  V30 4329 H 474.783 -4.98769 -0.724227 0
M  V30 4330 H 474.385 -3.71274 0.450713 0
M  V30 4331 H 476.677 -6.7619 -0.4211 0
M  V30 4332 H 477.62 -6.99741 1.0848 0
M  V30 4333 H 478.028 -5.64499 -0.0123908 0
M  V30 4334 N 477.426 -0.562348 -1.47226 0
M  V30 4335 C 478.674 -0.0401371 -2.0206 0
M  V30 4336 C 478.995 1.3165 -1.43852 0
M  V30 4337 O 478.265 1.85976 -0.615599 0
M  V30 4338 H 476.845 -0.0118479 -0.746906 0
M  V30 4339 H 479.507 -0.73352 -1.8057 0
M  V30 4340 H 478.603 0.0441254 -3.12069 0
M  V30 4341 N 478.904 1.54736 -0.299062 0
M  V30 4342 C 480.315 1.8569 0.193971 0
M  V30 4343 C 480.666 1.22101 1.53577 0
M  V30 4344 O 479.791 0.51799 2.10109 0
M  V30 4345 C 480.386 3.36895 0.358733 0
M  V30 4346 C 478.945 3.67887 0.795986 0
M  V30 4347 C 478.092 2.77131 -0.096807 0
M  V30 4348 H 481.043 1.49934 -0.520134 0
M  V30 4349 H 481.064 3.61294 1.19361 0
M  V30 4350 H 480.576 3.83148 -0.617998 0
M  V30 4351 H 478.677 3.27151 1.78334 0
M  V30 4352 H 478.79 4.75114 0.616718 0
M  V30 4353 H 477.154 2.51153 0.423581 0
M  V30 4354 H 477.937 3.26204 -1.06986 0
M  V30 4355 N 480.382 0.0267497 1.57577 0
M  V30 4356 C 481.798 -0.32962 1.56159 0
M  V30 4357 C 481.998 -1.73059 1.03213 0
M  V30 4358 O 481.054 -2.43233 0.677804 0
M  V30 4359 C 482.367 -0.18039 3.00158 0
M  V30 4360 C 483.915 -0.253334 3.11973 0
M  V30 4361 C 484.39 -0.132921 4.57807 0
M  V30 4362 N 485.881 -0.189979 4.6281 0
M  V30 4363 C 486.616 -0.120554 5.73273 0
M  V30 4364 N 486.112 -0.000180315 6.928 0
M  V30 4365 N 487.905 -0.174369 5.61829 0
M  V30 4366 H 480.056 0.942896 1.90324 0
M  V30 4367 H 482.319 0.3639 0.875375 0
M  V30 4368 H 482.025 0.784576 3.42837 0
M  V30 4369 H 481.899 -0.951565 3.65 0
M  V30 4370 H 484.286 -1.20876 2.69208 0
M  V30 4371 H 484.367 0.548177 2.49857 0
M  V30 4372 H 484.011 0.819073 5.01252 0
M  V30 4373 H 483.941 -0.953264 5.179 0
M  V30 4374 H 486.432 -0.283257 3.76837 0
M  V30 4375 H 486.745 0.0461666 7.72786 0
M  V30 4376 H 485.09 0.034569 6.94991 0
M  V30 4377 H 488.281 -0.266794 4.67339 0
M  V30 4378 H 488.454 -0.116802 6.47895 0
M  V30 4379 N 481.861 -1.55662 -0.24637 0
M  V30 4380 C 483.109 -1.77168 -0.972411 0
M  V30 4381 C 483.43 -0.590827 -1.85834 0
M  V30 4382 O 482.7 0.393365 -1.9191 0
M  V30 4383 H 481.28 -0.653405 -0.362038 0
M  V30 4384 H 483.942 -1.93101 -0.264189 0
M  V30 4385 H 483.038 -2.68335 -1.59382 0
M  V30 4386 N 483.339 0.512053 -1.4905 0
M  V30 4387 C 484.269 1.62365 -1.67809 0
M  V30 4388 C 485.25 1.61737 -0.526809 0
M  V30 4389 O 486.435 1.78651 -0.761404 0
M  V30 4390 C 483.565 3.00895 -1.73435 0
M  V30 4391 C 482.519 3.16387 -2.88242 0
M  V30 4392 C 481.845 4.56157 -2.78971 0
M  V30 4393 C 483.145 2.97457 -4.29321 0
M  V30 4394 H 484.839 1.46921 -2.60873 0
M  V30 4395 H 482.385 0.705379 -1.2554 0
M  V30 4396 H 484.338 3.78549 -1.85145 0
M  V30 4397 H 483.062 3.17403 -0.769619 0
M  V30 4398 H 481.721 2.41155 -2.76116 0
M  V30 4399 H 481.369 4.69525 -1.8043 0
M  V30 4400 H 481.069 4.67465 -3.5602 0
M  V30 4401 H 482.593 5.35886 -2.92675 0
M  V30 4402 H 484.007 3.64888 -4.42187 0
M  V30 4403 H 482.404 3.20245 -5.07507 0
M  V30 4404 H 483.474 1.93692 -4.44535 0
M  V30 4405 N 484.817 1.37938 0.762283 0
M  V30 4406 C 486.228 1.30094 1.33912 0
M  V30 4407 C 486.579 -0.0472026 1.96143 0
M  V30 4408 O 485.704 -0.94917 1.94473 0
M  V30 4409 C 486.299 2.35592 2.43478 0
M  V30 4410 C 484.858 2.31353 2.96905 0
M  V30 4411 C 484.005 2.18919 1.70205 0
M  V30 4412 H 486.956 1.48423 0.561816 0
M  V30 4413 H 486.977 2.00806 3.23199 0
M  V30 4414 H 486.489 3.33701 1.98155 0
M  V30 4415 H 484.59 1.36799 3.46579 0
M  V30 4416 H 484.703 3.25147 3.51875 0
M  V30 4417 H 483.067 1.65624 1.93496 0
M  V30 4418 H 483.85 3.18956 1.26973 0
M  V30 4419 N 486.295 -0.989507 1.22664 0
M  V30 4420 C 487.543 -1.72612 1.05117 0
M  V30 4421 C 487.864 -1.90552 -0.414131 0
M  V30 4422 O 487.134 -1.4676 -1.29762 0
M  V30 4423 H 485.714 -0.639555 0.385977 0
M  V30 4424 H 488.376 -1.19158 1.54232 0
M  V30 4425 H 487.472 -2.71926 1.53175 0
M  V30 4426 N 487.773 -1.03688 -1.18687 0
M  V30 4427 C 488.683 -0.634908 -2.25845 0
M  V30 4428 C 489.699 0.337065 -1.70704 0
M  V30 4429 O 490.875 0.192943 -2.00474 0
M  V30 4430 C 487.94 -0.000180054 -3.467 0
M  V30 4431 C 487.001 -1.02067 -4.1699 0
M  V30 4432 C 486.234 -0.41614 -5.32075 0
M  V30 4433 O 486.457 0.778712 -5.65059 0
M  V30 4434 O 485.391 -1.14296 -5.90948 0
M  V30 4435 H 489.217 -1.52757 -2.62486 0
M  V30 4436 H 486.802 -0.807533 -1.25695 0
M  V30 4437 H 488.684 0.353342 -4.19916 0
M  V30 4438 H 487.359 0.866367 -3.11891 0
M  V30 4439 H 486.266 -1.42592 -3.45859 0
M  V30 4440 H 487.599 -1.85786 -4.5579 0
M  V30 4441 N 489.251 1.34841 -0.815825 0
M  V30 4442 C 490.667 1.51543 -0.500697 0
M  V30 4443 C 490.867 1.76261 0.976444 0
M  V30 4444 O 489.923 1.8094 1.76117 0
M  V30 4445 C 491.236 2.68487 -1.35407 0
M  V30 4446 C 492.784 2.82368 -1.35046 0
M  V30 4447 C 493.259 4.02347 -2.18816 0
M  V30 4448 N 494.75 4.09542 -2.16402 0
M  V30 4449 C 495.485 5.01517 -2.77971 0
M  V30 4450 N 494.981 5.98763 -3.48503 0
M  V30 4451 N 496.774 4.94334 -2.67563 0
M  V30 4452 H 488.925 1.17055 -1.77234 0
M  V30 4453 H 491.188 0.573481 -0.754866 0
M  V30 4454 H 490.894 2.56829 -2.40274 0
M  V30 4455 H 490.768 3.63321 -1.01377 0
M  V30 4456 H 493.155 2.93471 -0.309604 0
M  V30 4457 H 493.236 1.88363 -1.73069 0
M  V30 4458 H 492.88 3.92004 -3.22948 0
M  V30 4459 H 492.81 4.95551 -1.78148 0
M  V30 4460 H 495.301 3.39932 -1.65091 0
M  V30 4461 H 495.614 6.6556 -3.92747 0
M  V30 4462 H 493.959 5.98909 -3.52609 0
M  V30 4463 H 497.15 4.1732 -2.12041 0
M  V30 4464 H 497.323 5.6582 -3.15834 0
M  V30 4465 N 490.729 0.570148 1.46925 0
M  V30 4466 C 491.977 0.0508523 2.02036 0
M  V30 4467 C 492.298 -1.30885 1.44548 0
M  V30 4468 O 491.568 -1.85647 0.625453 0
M  V30 4469 H 490.148 0.0158088 0.746833 0
M  V30 4470 H 492.81 0.743086 1.80178 0
M  V30 4471 H 491.906 -0.027575 3.12088 0
M  V30 4472 N 492.207 -1.54576 0.307264 0
M  V30 4473 C 493.623 -1.59534 -0.0459251 0
M  V30 4474 C 493.823 -1.32414 -1.51884 0
M  V30 4475 O 492.879 -1.1006 -2.27251 0
M  V30 4476 C 494.192 -2.98566 0.357649 0
M  V30 4477 C 495.74 -3.11491 0.306937 0
M  V30 4478 C 496.215 -4.52842 0.685427 0
M  V30 4479 N 497.706 -4.58782 0.638203 0
M  V30 4480 C 498.441 -5.66238 0.903458 0
M  V30 4481 N 497.937 -6.81703 1.23501 0
M  V30 4482 N 499.73 -5.55937 0.830102 0
M  V30 4483 H 491.881 -1.70464 1.26712 0
M  V30 4484 H 494.144 -0.79647 0.514139 0
M  V30 4485 H 493.85 -3.23356 1.38325 0
M  V30 4486 H 493.724 -3.76117 -0.285565 0
M  V30 4487 H 496.111 -2.86446 -0.709424 0
M  V30 4488 H 496.192 -2.36081 0.984861 0
M  V30 4489 H 495.836 -4.78618 1.69963 0
M  V30 4490 H 495.766 -5.26598 -0.0146346 0
M  V30 4491 H 498.257 -3.75849 0.393138 0
M  V30 4492 H 498.57 -7.59582 1.42322 0
M  V30 4493 H 496.915 -6.8324 1.27311 0
M  V30 4494 H 500.106 -4.64608 0.570693 0
M  V30 4495 H 500.279 -6.39597 1.04019 0
M  V30 4496 N 493.685 -0.035106 -1.57561 0
M  V30 4497 C 494.913 0.652258 -1.9635 0
M  V30 4498 C 495.328 1.65317 -0.911897 0
M  V30 4499 O 494.685 1.82194 0.105657 0
M  V30 4500 C 494.736 1.35337 -3.35211 0
M  V30 4501 O 494.457 0.392548 -4.36338 0
M  V30 4502 C 495.958 2.13199 -3.88666 0
M  V30 4503 H 493.178 0.179444 -0.646561 0
M  V30 4504 H 495.722 -0.0966459 -2.04271 0
M  V30 4505 H 493.877 2.05362 -3.28489 0
M  V30 4506 H 494.291 0.891097 -5.16875 0
M  V30 4507 H 495.765 2.577 -4.88154 0
M  V30 4508 H 496.242 2.97353 -3.23231 0
M  V30 4509 H 496.848 1.48118 -3.98674 0
M  V30 4510 N 495.163 1.55791 0.238111 0
M  V30 4511 C 496.411 1.77681 0.963001 0
M  V30 4512 C 496.732 0.600674 1.85518 0
M  V30 4513 O 496.002 -0.383182 1.92116 0
M  V30 4514 H 494.582 0.655315 0.358568 0
M  V30 4515 H 497.244 1.93239 0.253945 0
M  V30 4516 H 496.34 2.69177 1.57956 0
M  V30 4517 N 496.642 -0.504142 1.49319 0
M  V30 4518 C 498.053 -1.08572 1.51885 0
M  V30 4519 C 498.404 -1.93842 0.303255 0
M  V30 4520 O 497.529 -2.0828 -0.58724 0
M  V30 4521 C 498.124 -1.97574 2.75227 0
M  V30 4522 C 496.683 -2.509 2.80581 0
M  V30 4523 C 495.83 -1.28447 2.45757 0
M  V30 4524 H 498.781 -0.288194 1.56061 0
M  V30 4525 H 498.802 -2.82219 2.55211 0
M  V30 4526 H 498.314 -1.35486 3.63683 0
M  V30 4527 H 496.415 -3.16636 1.96398 0
M  V30 4528 H 496.528 -2.88268 3.82673 0
M  V30 4529 H 494.892 -1.60868 1.97468 0
M  V30 4530 H 495.675 -0.68072 3.36483 0
M  V30 4531 N 498.12 -1.38341 -0.754957 0
M  V30 4532 C 499.083 -1.35262 -1.85032 0
M  V30 4533 C 500.083 -0.253393 -1.58791 0
M  V30 4534 O 501.273 -0.510205 -1.66561 0
M  V30 4535 C 498.405 -1.10544 -3.22479 0
M  V30 4536 H 499.598 -2.32712 -1.8917 0
M  V30 4537 H 497.151 -1.23614 -0.956515 0
M  V30 4538 H 497.886 -0.136952 -3.24011 0
M  V30 4539 H 497.671 -1.90127 -3.4292 0
M  V30 4540 H 499.161 -1.11082 -4.02555 0
M  V30 4541 N 499.598 0.982988 -1.23187 0
M  V30 4542 C 500.846 1.72052 -1.06031 0
M  V30 4543 C 501.167 1.90769 0.404019 0
M  V30 4544 O 500.437 1.47446 1.28982 0
M  V30 4545 H 499.017 0.637499 -0.389363 0
M  V30 4546 H 501.679 1.18338 -1.54862 0
M  V30 4547 H 500.775 2.7111 -1.54615 0
M  V30 4548 N 501.076 1.04316 1.18135 0
M  V30 4549 C 502.039 0.640794 2.2006 0
M  V30 4550 C 503.039 -0.303124 1.57917 0
M  V30 4551 O 504.229 -0.0881855 1.73977 0
M  V30 4552 C 501.361 -0.060148 3.40847 0
M  V30 4553 H 502.554 1.54281 2.57172 0
M  V30 4554 H 500.107 0.836004 1.32063 0
M  V30 4555 H 500.842 -0.975845 3.0927 0
M  V30 4556 H 500.627 0.618319 3.87194 0
M  V30 4557 H 502.117 -0.328082 4.16309 0
M  V30 4558 N 502.554 -1.34406 0.822964 0
M  V30 4559 C 503.517 -2.2783 0.250271 0
M  V30 4560 C 504.517 -1.50288 -0.571854 0
M  V30 4561 O 505.707 -1.69825 -0.387952 0
M  V30 4562 C 502.839 -3.34663 -0.649137 0
M  V30 4563 H 504.032 -2.79992 1.07444 0
M  V30 4564 H 501.585 -1.44539 0.594829 0
M  V30 4565 H 502.32 -2.87714 -1.49637 0
M  V30 4566 H 502.105 -3.92052 -0.0611199 0
M  V30 4567 H 503.595 -4.04349 -1.04363 0
M  V30 4568 N 504.032 -0.577932 -1.46621 0
M  V30 4569 C 505.28 -0.061566 -2.02006 0
M  V30 4570 C 505.601 1.30117 -1.4524 0
M  V30 4571 O 504.871 1.85313 -0.63529 0
M  V30 4572 H 503.451 -0.0197692 -0.746738 0
M  V30 4573 H 506.113 -0.752631 -1.79782 0
M  V30 4574 H 505.209 0.0110238 -3.12098 0
M  V30 4575 N 505.51 1.54411 -0.315457 0
M  V30 4576 C 506.473 2.22713 0.54142 0
M  V30 4577 C 507.473 1.2179 1.04995 0
M  V30 4578 O 508.663 1.46426 0.943667 0
M  V30 4579 C 505.795 2.92485 1.75116 0
M  V30 4580 H 506.988 2.99849 -0.0555508 0
M  V30 4581 H 504.541 1.56159 -0.0664453 0
M  V30 4582 H 505.276 2.19466 2.38758 0
M  V30 4583 H 505.061 3.66483 1.39401 0
M  V30 4584 H 506.551 3.44548 2.35959 0
M  V30 4585 N 506.988 0.0434614 1.5754 0
M  V30 4586 C 508.404 -0.313039 1.565 0
M  V30 4587 C 508.604 -1.71954 1.05043 0
M  V30 4588 O 507.66 -2.425 0.703564 0
M  V30 4589 C 508.973 -0.148544 3.00333 0
M  V30 4590 C 510.521 -0.220231 3.12224 0
M  V30 4591 C 510.996 -0.0843565 4.57922 0
M  V30 4592 N 512.487 -0.140881 4.62986 0
M  V30 4593 C 513.222 -0.0597443 5.73369 0
M  V30 4594 N 512.718 0.0733004 6.92761 0
M  V30 4595 N 514.511 -0.11477 5.61983 0
M  V30 4596 H 506.662 0.96303 1.89313 0
M  V30 4597 H 508.925 0.373164 0.871466 0
M  V30 4598 H 508.631 0.820894 3.41986 0
M  V30 4599 H 508.505 -0.912798 3.65989 0
M  V30 4600 H 510.892 -1.18014 2.70475 0
M  V30 4601 H 510.973 0.574646 2.49262 0
M  V30 4602 H 510.617 0.872192 5.00355 0
M  V30 4603 H 510.547 -0.898281 5.18882 0
M  V30 4604 H 513.038 -0.243273 3.77116 0
M  V30 4605 H 513.351 0.128128 7.72694 0
M  V30 4606 H 511.696 0.10828 6.94916 0
M  V30 4607 H 514.887 -0.217212 4.67596 0
M  V30 4608 H 515.06 -0.0480779 6.47982 0
M  V30 4609 N 508.466 -1.55915 -0.229846 0
M  V30 4610 C 509.714 -1.7819 -0.953565 0
M  V30 4611 C 510.035 -0.610504 -1.85197 0
M  V30 4612 O 509.305 0.372988 -1.92316 0
M  V30 4613 H 507.885 -0.657208 -0.355087 0
M  V30 4614 H 510.547 -1.9337 -0.243693 0
M  V30 4615 H 509.643 -2.70011 -1.56527 0
M  V30 4616 N 509.944 0.496216 -1.49584 0
M  V30 4617 C 510.892 1.61805 -1.67098 0
M  V30 4618 C 511.886 1.60667 -0.536877 0
M  V30 4619 O 513.092 1.65118 -0.716654 0
M  V30 4620 H 509.467 0.53646 -0.526986 0
M  V30 4621 H 511.438 1.44187 -2.61252 0
M  V30 4622 C 510.187 2.99912 -1.75921 0
M  V30 4623 H 509.51 3.01496 -2.62565 0
M  V30 4624 H 510.95 3.77931 -1.92209 0
M  V30 4625 C 509.409 3.33092 -0.505088 0
M  V30 4626 O 509.939 4.00019 0.367085 0
M  V30 4627 N 508.145 2.88278 -0.366599 0
M  V30 4628 H 507.692 2.33989 -1.07735 0
M  V30 4629 H 507.65 3.10846 0.47142 0
M  V30 4630 N 511.423 1.38739 0.74761 0
M  V30 4631 C 512.7 1.25791 1.49786 0
M  V30 4632 C 513.08 -0.138075 2.10648 0
M  V30 4633 O 512.428 -1.14815 1.9756 0
M  V30 4634 C 512.638 2.37265 2.55942 0
M  V30 4635 C 513.986 2.75978 3.22679 0
M  V30 4636 O 515.01 2.36621 2.6625 0
M  V30 4637 O 513.869 3.43867 4.24756 0
M  V30 4638 H 510.963 0.492251 0.664543 0
M  V30 4639 H 513.509 1.50582 0.782511 0
M  V30 4640 H 512.281 3.30644 2.0926 0
M  V30 4641 H 511.904 2.14071 3.35051 0
M  V30 4642 N 512.901 -0.976442 1.23707 0
M  V30 4643 C 514.149 -1.71487 1.06942 0
M  V30 4644 C 514.47 -1.9098 -0.393897 0
M  V30 4645 O 513.74 -1.48128 -1.28198 0
M  V30 4646 H 512.32 -0.635425 0.392739 0
M  V30 4647 H 514.982 -1.17515 1.55487 0
M  V30 4648 H 514.078 -2.70286 1.56051 0
M  V30 4649 N 514.379 -1.04941 -1.1758 0
M  V30 4650 C 515.311 -0.606174 -2.21039 0
M  V30 4651 C 516.324 0.328763 -1.59446 0
M  V30 4652 O 517.513 0.121895 -1.78083 0
M  V30 4653 C 514.613 0.133294 -3.38638 0
M  V30 4654 C 513.786 -0.811711 -4.29802 0
M  V30 4655 C 512.845 -0.113958 -5.26077 0
M  V30 4656 O 511.871 -0.747237 -5.64274 0
M  V30 4657 N 513.073 1.14953 -5.69004 0
M  V30 4658 H 515.838 -1.49606 -2.59689 0
M  V30 4659 H 513.399 -0.930997 -1.32454 0
M  V30 4660 H 515.391 0.610144 -4.00074 0
M  V30 4661 H 513.961 0.924816 -2.98607 0
M  V30 4662 H 513.181 -1.46824 -3.65837 0
M  V30 4663 H 514.469 -1.45326 -4.87604 0
M  V30 4664 H 513.867 1.68441 -5.40041 0
M  V30 4665 H 512.424 1.57049 -6.32597 0
M  V30 4666 N 515.857 1.33968 -0.830081 0
M  V30 4667 C 517.268 1.80439 -0.479455 0
M  V30 4668 C 517.619 1.68756 1.00079 0
M  V30 4669 O 516.744 1.23171 1.77927 0
M  V30 4670 C 517.339 3.27611 -0.863505 0
M  V30 4671 C 515.898 3.72133 -0.565145 0
M  V30 4672 C 515.045 2.55549 -1.07657 0
M  V30 4673 H 517.996 1.21614 -1.0196 0
M  V30 4674 H 518.017 3.8012 -0.170083 0
M  V30 4675 H 517.529 3.36082 -1.94089 0
M  V30 4676 H 515.63 3.69196 0.502536 0
M  V30 4677 H 515.743 4.65963 -1.11422 0
M  V30 4678 H 514.107 2.49788 -0.497807 0
M  V30 4679 H 514.89 2.66786 -2.16055 0
M  V30 4680 N 517.335 0.585699 1.46312 0
M  V30 4681 C 518.583 0.072278 2.01971 0
M  V30 4682 C 518.904 -1.29345 1.45928 0
M  V30 4683 O 518.174 -1.84973 0.645109 0
M  V30 4684 H 516.754 0.023729 0.746623 0
M  V30 4685 H 519.416 0.762155 1.7938 0
M  V30 4686 H 518.512 0.00552767 3.121 0
M  V30 4687 N 518.813 -1.54241 0.323641 0
M  V30 4688 C 520.224 -1.85975 -0.164405 0
M  V30 4689 C 520.575 -1.24529 -1.51615 0
M  V30 4690 O 519.7 -0.551351 -2.09258 0
M  V30 4691 C 520.295 -3.37424 -0.305091 0
M  V30 4692 C 518.854 -3.69107 -0.737358 0
M  V30 4693 C 518.001 -2.76942 0.140884 0
M  V30 4694 H 520.952 -1.49088 0.543922 0
M  V30 4695 H 520.973 -3.63147 -1.13598 0
M  V30 4696 H 520.485 -3.82116 0.678876 0
M  V30 4697 H 518.586 -3.29947 -1.73107 0
M  V30 4698 H 518.699 -4.76035 -0.541053 0
M  V30 4699 H 517.063 -2.51795 -0.383572 0
M  V30 4700 H 517.846 -3.24461 1.12162 0
M  V30 4701 N 520.291 -0.0518155 -1.57515 0
M  V30 4702 C 521.254 0.907547 -2.10467 0
M  V30 4703 C 522.254 1.23947 -1.02439 0
M  V30 4704 O 523.444 1.17604 -1.2851 0
M  V30 4705 C 520.576 2.21723 -2.58944 0
M  V30 4706 H 521.769 0.44851 -2.96527 0
M  V30 4707 H 519.322 0.196598 -1.55059 0
M  V30 4708 H 520.057 2.72206 -1.76279 0
M  V30 4709 H 519.842 1.98935 -3.37886 0
M  V30 4710 H 521.332 2.90441 -3.00056 0
M  V30 4711 N 521.769 1.56035 0.221574 0
M  V30 4712 C 523.017 1.78693 0.944102 0
M  V30 4713 C 523.338 0.620317 1.8487 0
M  V30 4714 O 522.608 -0.362784 1.92512 0
M  V30 4715 H 521.188 0.659082 0.351597 0
M  V30 4716 H 523.85 1.93497 0.233435 0
M  V30 4717 H 522.946 2.70837 1.55093 0
M  V30 4718 N 523.247 -0.488276 1.49845 0
M  V30 4719 C 524.658 -1.06955 1.53028 0
M  V30 4720 C 525.009 -1.9351 0.323797 0
M  V30 4721 O 524.134 -2.08891 -0.565116 0
M  V30 4722 C 524.729 -1.94643 2.77307 0
M  V30 4723 C 523.288 -2.4791 2.83227 0
M  V30 4724 C 522.435 -1.25833 2.47106 0
M  V30 4725 H 525.386 -0.271626 1.56358 0
M  V30 4726 H 525.407 -2.79496 2.5819 0
M  V30 4727 H 524.919 -1.31621 3.65099 0
M  V30 4728 H 523.02 -3.14535 1.99745 0
M  V30 4729 H 523.133 -2.84193 3.85709 0
M  V30 4730 H 521.497 -1.58764 1.99163 0
M  V30 4731 H 522.28 -0.644993 3.37186 0
M  V30 4732 N 524.725 -1.39134 -0.740242 0
M  V30 4733 C 526.136 -1.32208 -1.31825 0
M  V30 4734 C 526.487 0.0159919 -1.96193 0
M  V30 4735 O 525.612 0.918111 -1.95958 0
M  V30 4736 C 526.207 -2.39436 -2.39699 0
M  V30 4737 C 524.766 -2.36048 -2.93187 0
M  V30 4738 C 523.913 -2.21599 -1.66701 0
M  V30 4739 H 526.864 -1.49298 -0.538133 0
M  V30 4740 H 526.885 -2.05922 -3.19963 0
M  V30 4741 H 526.397 -3.36811 -1.92821 0
M  V30 4742 H 524.498 -1.42295 -3.44359 0
M  V30 4743 H 524.611 -3.30704 -3.46658 0
M  V30 4744 H 522.975 -1.68681 -1.90837 0
M  V30 4745 H 523.758 -3.20936 -1.21882 0
M  V30 4746 N 526.204 0.969867 -1.24223 0
M  V30 4747 C 527.452 1.70918 -1.0785 0
M  V30 4748 C 527.773 1.91186 0.383763 0
M  V30 4749 O 527.043 1.48806 1.27411 0
M  V30 4750 H 525.623 0.633334 -0.396103 0
M  V30 4751 H 528.285 1.16689 -1.56108 0
M  V30 4752 H 527.381 2.69455 -1.57482 0
M  V30 4753 N 527.682 1.05563 1.17022 0
M  V30 4754 C 529.093 0.793475 1.69 0
M  V30 4755 C 529.444 -0.683882 1.83895 0
M  V30 4756 O 528.569 -1.53116 1.5292 0
M  V30 4757 C 529.164 1.43376 3.06967 0
M  V30 4758 C 527.723 1.21956 3.56095 0
M  V30 4759 C 526.87 1.51494 2.3226 0
M  V30 4760 H 529.821 1.22008 1.01487 0
M  V30 4761 H 529.842 0.845068 3.70997 0
M  V30 4762 H 529.354 2.50899 2.96093 0
M  V30 4763 H 527.455 0.163749 3.7224 0
M  V30 4764 H 527.568 1.92713 4.38633 0
M  V30 4765 H 525.932 0.935175 2.3691 0
M  V30 4766 H 526.715 2.60159 2.23992 0
M  V30 4767 N 529.16 -1.33526 0.837174 0
M  V30 4768 C 530.406 -1.9813 0.432704 0
M  V30 4769 C 530.739 -1.66168 -1.00508 0
M  V30 4770 O 530.014 -0.94069 -1.70239 0
M  V30 4771 C 530.297 -3.54151 0.651834 0
M  V30 4772 C 530.15 -3.95806 2.13676 0
M  V30 4773 C 531.469 -4.39993 0.0968937 0
M  V30 4774 H 528.588 -0.719713 0.15869 0
M  V30 4775 H 531.23 -1.58193 1.05237 0
M  V30 4776 H 529.38 -3.88301 0.124369 0
M  V30 4777 H 531.052 -3.71921 2.72896 0
M  V30 4778 H 529.295 -3.45599 2.62191 0
M  V30 4779 H 529.966 -5.0447 2.24084 0
M  V30 4780 H 532.442 -4.12479 0.547733 0
M  V30 4781 H 531.318 -5.48186 0.279917 0
M  V30 4782 H 531.579 -4.3066 -0.9992 0
M  V30 4783 N 530.638 -0.59345 -1.46 0
M  V30 4784 C 531.886 -0.082988 -2.0193 0
M  V30 4785 C 532.207 1.28569 -1.46612 0
M  V30 4786 O 531.477 1.84629 -0.654909 0
M  V30 4787 H 530.057 -0.0276882 -0.746487 0
M  V30 4788 H 532.719 -0.771657 -1.78973 0
M  V30 4789 H 531.815 -0.022079 -3.12092 0
M  V30 4790 N 532.116 1.54067 -0.331816 0
M  V30 4791 C 533.527 1.86059 0.15454 0
M  V30 4792 C 533.878 1.25331 1.50952 0
M  V30 4793 O 533.003 0.562441 2.08963 0
M  V30 4794 C 533.598 3.37581 0.287192 0
M  V30 4795 C 532.157 3.69493 0.717773 0
M  V30 4796 C 531.304 2.76863 -0.155569 0
M  V30 4797 H 534.255 1.48797 -0.55182 0
M  V30 4798 H 534.276 3.63744 1.11671 0
M  V30 4799 H 533.788 3.81751 -0.699131 0
M  V30 4800 H 531.889 3.3086 1.71354 0
M  V30 4801 H 532.002 4.76315 0.5158 0
M  V30 4802 H 530.366 2.51995 0.370213 0
M  V30 4803 H 531.149 3.23861 -1.13881 0
M  V30 4804 N 533.594 0.0601682 1.57485 0
M  V30 4805 C 534.557 -0.896373 2.10945 0
M  V30 4806 C 535.557 -1.23402 1.03095 0
M  V30 4807 O 536.747 -1.16921 1.29132 0
M  V30 4808 C 533.879 -2.20346 2.60116 0
M  V30 4809 H 535.072 -0.432778 2.96761 0
M  V30 4810 H 532.625 -0.188372 1.55161 0
M  V30 4811 H 533.36 -2.71268 1.7772 0
M  V30 4812 H 533.145 -1.9714 3.38937 0
M  V30 4813 H 534.635 -2.88846 3.01592 0
M  V30 4814 N 535.072 -1.5615 -0.213296 0
M  V30 4815 C 536.32 -1.79191 -0.934612 0
M  V30 4816 C 536.641 -0.630112 -1.84539 0
M  V30 4817 O 535.911 0.35257 -1.92701 0
M  V30 4818 H 534.491 -0.660937 -0.348097 0
M  V30 4819 H 537.153 -1.93618 -0.22317 0
M  V30 4820 H 536.249 -2.71656 -1.53654 0
M  V30 4821 N 536.55 0.480323 -1.50102 0
M  V30 4822 C 537.798 1.23063 -1.60312 0
M  V30 4823 C 538.119 1.92659 -0.301226 0
M  V30 4824 O 537.389 1.83691 0.680753 0
M  V30 4825 H 535.969 0.457231 -0.590719 0
M  V30 4826 H 538.631 0.554893 -1.86834 0
M  V30 4827 H 537.727 1.9835 -2.40964 0
M  V30 4828 N 538.028 1.39524 0.732853 0
M  V30 4829 C 539.439 1.32905 1.31122 0
M  V30 4830 C 539.79 -0.00558708 1.96199 0
M  V30 4831 O 538.915 -0.907706 1.96443 0
M  V30 4832 C 539.51 2.40704 2.38426 0
M  V30 4833 C 538.069 2.37599 2.91931 0
M  V30 4834 C 537.216 2.2248 1.65523 0
M  V30 4835 H 540.167 1.49581 0.530207 0
M  V30 4836 H 540.188 2.07616 3.18867 0
M  V30 4837 H 539.7 3.37829 1.91033 0
M  V30 4838 H 537.801 1.44119 3.43599 0
M  V30 4839 H 537.914 3.32538 3.44899 0
M  V30 4840 H 536.278 1.69691 1.8994 0
M  V30 4841 H 537.061 3.21577 1.20178 0
M  V30 4842 N 539.506 -0.963266 1.24736 0
M  V30 4843 C 540.754 -1.70343 1.08755 0
M  V30 4844 C 541.075 -1.91387 -0.373619 0
M  V30 4845 O 540.345 -1.4948 -1.2662 0
M  V30 4846 H 538.925 -0.631224 0.399456 0
M  V30 4847 H 541.587 -1.15859 1.56725 0
M  V30 4848 H 540.683 -2.68616 1.58909 0
M  V30 4849 N 540.985 -1.06182 -1.16461 0
M  V30 4850 C 542.232 -0.777863 -1.86964 0
M  V30 4851 C 542.56 0.695602 -1.81636 0
M  V30 4852 O 541.815 1.52532 -1.22607 0
M  V30 4853 C 542.114 -1.21633 -3.36066 0
M  V30 4854 C 541.78 -2.69371 -3.61594 0
M  V30 4855 C 540.442 -3.09727 -3.6827 0
M  V30 4856 C 542.794 -3.64791 -3.7226 0
M  V30 4857 C 540.122 -4.44345 -3.83112 0
M  V30 4858 C 542.474 -4.99155 -3.88623 0
M  V30 4859 C 541.138 -5.39149 -3.93541 0
M  V30 4860 H 540.408 -0.28464 -0.68415 0
M  V30 4861 H 543.055 -1.33071 -1.37711 0
M  V30 4862 H 541.36 -0.582651 -3.87443 0
M  V30 4863 H 543.057 -0.973682 -3.88999 0
M  V30 4864 H 539.647 -2.37124 -3.57029 0
M  V30 4865 H 543.831 -3.34746 -3.66413 0
M  V30 4866 H 539.087 -4.74819 -3.85172 0
M  V30 4867 H 543.261 -5.72976 -3.95817 0
M  V30 4868 H 540.888 -6.43464 -4.04794 0
M  V30 4869 N 542.463 1.3308 -0.844243 0
M  V30 4870 C 543.874 1.7992 -0.498566 0
M  V30 4871 C 544.225 1.69808 0.982834 0
M  V30 4872 O 543.35 1.25051 1.7661 0
M  V30 4873 C 543.945 3.26677 -0.898204 0
M  V30 4874 C 542.504 3.71513 -0.604583 0
M  V30 4875 C 541.651 2.54393 -1.10362 0
M  V30 4876 H 544.602 1.20526 -1.03244 0
M  V30 4877 H 544.623 3.79918 -0.21039 0
M  V30 4878 H 544.135 3.34004 -1.97643 0
M  V30 4879 H 542.236 3.69708 0.46335 0
M  V30 4880 H 542.349 4.64755 -1.16358 0
M  V30 4881 H 540.713 2.49246 -0.524273 0
M  V30 4882 H 541.496 2.6448 -2.18873 0
M  V30 4883 N 543.941 0.601185 1.45683 0
M  V30 4884 C 545.189 0.0936957 2.01883 0
M  V30 4885 C 545.51 -1.2779 1.47291 0
M  V30 4886 O 544.78 -1.84279 0.664691 0
M  V30 4887 H 543.36 0.0316466 0.746329 0
M  V30 4888 H 546.022 0.781137 1.78562 0
M  V30 4889 H 545.118 0.0386297 3.12076 0
M  V30 4890 N 545.419 -1.53889 0.339982 0
M  V30 4891 C 546.382 -2.23547 -0.50592 0
M  V30 4892 C 547.382 -1.23445 -1.03044 0
M  V30 4893 O 548.572 -1.47909 -0.920253 0
M  V30 4894 C 545.704 -2.95234 -1.7044 0
M  V30 4895 H 546.897 -2.99722 0.103247 0
M  V30 4896 H 544.45 -1.56033 0.0912804 0
M  V30 4897 H 545.185 -2.23236 -2.35236 0
M  V30 4898 H 544.97 -3.68654 -1.33553 0
M  V30 4899 H 546.46 -3.48258 -2.30447 0
M  V30 4900 N 546.897 -0.0685191 -1.57451 0
M  V30 4901 C 548.308 0.464634 -1.80826 0
M  V30 4902 C 548.659 1.69847 -0.982169 0
M  V30 4903 O 547.784 2.15439 -0.203734 0
M  V30 4904 C 548.379 0.849721 -3.27971 0
M  V30 4905 C 546.938 1.32776 -3.52204 0
M  V30 4906 C 546.085 0.311332 -2.75547 0
M  V30 4907 H 549.036 -0.294248 -1.55948 0
M  V30 4908 H 549.057 1.71138 -3.39841 0
M  V30 4909 H 548.569 -0.0484736 -3.8807 0
M  V30 4910 H 546.67 2.24456 -2.97406 0
M  V30 4911 H 546.783 1.30794 -4.60901 0
M  V30 4912 H 545.147 0.787915 -2.42206 0
M  V30 4913 H 545.93 -0.579078 -3.38381 0
M  V30 4914 N 548.375 1.56261 0.205012 0
M  V30 4915 C 549.623 1.79684 0.925096 0
M  V30 4916 C 549.944 0.63989 1.84202 0
M  V30 4917 O 549.214 -0.342345 1.92885 0
M  V30 4918 H 547.794 0.662774 0.344587 0
M  V30 4919 H 550.456 1.93734 0.212899 0
M  V30 4920 H 549.552 2.72467 1.52211 0
M  V30 4921 N 549.853 -0.472356 1.50355 0
M  V30 4922 C 550.816 -1.5529 1.68576 0
M  V30 4923 C 551.816 -1.50863 0.556511 0
M  V30 4924 O 553.006 -1.53505 0.823516 0
M  V30 4925 C 550.138 -2.94921 1.70981 0
M  V30 4926 H 551.331 -1.40451 2.64978 0
M  V30 4927 H 548.884 -0.698645 1.39816 0
M  V30 4928 H 549.619 -3.15204 0.762675 0
M  V30 4929 H 549.404 -2.99541 2.53017 0
M  V30 4930 H 550.894 -3.73372 1.87037 0
M  V30 4931 N 551.331 -1.39911 -0.725443 0
M  V30 4932 C 552.278 -1.39393 -1.83952 0
M  V30 4933 C 553.248 -0.252249 -1.64173 0
M  V30 4934 O 554.433 -0.44882 -1.85446 0
M  V30 4935 C 551.573 -1.25262 -3.21564 0
M  V30 4936 C 550.686 -2.49054 -3.52982 0
M  V30 4937 C 549.821 -2.27439 -4.80047 0
M  V30 4938 C 548.86 -3.46857 -5.04338 0
M  V30 4939 N 547.997 -3.24499 -6.22611 0
M  V30 4940 H 552.837 -2.34622 -1.83729 0
M  V30 4941 H 550.374 -1.16537 -0.897636 0
M  V30 4942 H 552.332 -1.15077 -4.01015 0
M  V30 4943 H 550.962 -0.33657 -3.21041 0
M  V30 4944 H 550.014 -2.69805 -2.6816 0
M  V30 4945 H 551.326 -3.37973 -3.66846 0
M  V30 4946 H 550.48 -2.14551 -5.67497 0
M  V30 4947 H 549.219 -1.35929 -4.68374 0
M  V30 4948 H 548.224 -3.60232 -4.15346 0
M  V30 4949 H 549.449 -4.3928 -5.17889 0
M  V30 4950 H 547.395 -2.35663 -6.12208 0
M  V30 4951 H 547.312 -4.06978 -6.37106 0
M  V30 4952 H 548.58 -3.15325 -7.12875 0
M  V30 4953 N 552.809 0.956637 -1.25245 0
M  V30 4954 C 554.057 1.69764 -1.09657 0
M  V30 4955 C 554.378 1.91583 0.363464 0
M  V30 4956 O 553.648 1.50149 1.25825 0
M  V30 4957 H 552.228 0.629097 -0.402798 0
M  V30 4958 H 554.89 1.15026 -1.57337 0
M  V30 4959 H 553.986 2.67769 -1.60331 0
M  V30 4960 N 554.287 1.06798 1.15896 0
M  V30 4961 C 555.197 0.694564 2.24083 0
M  V30 4962 C 556.213 -0.291687 1.71538 0
M  V30 4963 O 557.389 -0.139723 2.00915 0
M  V30 4964 C 554.454 0.0921014 3.46578 0
M  V30 4965 C 553.515 1.13087 4.14137 0
M  V30 4966 C 552.748 0.557064 5.30785 0
M  V30 4967 O 552.971 -0.628623 5.66925 0
M  V30 4968 O 551.905 1.29924 5.8771 0
M  V30 4969 H 555.731 1.59663 2.58344 0
M  V30 4970 H 553.316 0.840575 1.2351 0
M  V30 4971 H 555.198 -0.241884 4.20705 0
M  V30 4972 H 553.873 -0.78337 3.14078 0
M  V30 4973 H 552.78 1.51712 3.41957 0
M  V30 4974 H 554.113 1.97805 4.50704 0
M  V30 4975 N 555.766 -1.3263 0.851289 0
M  V30 4976 C 556.729 -2.27247 0.298541 0
M  V30 4977 C 557.729 -1.51467 -0.539847 0
M  V30 4978 O 558.919 -1.7061 -0.351843 0
M  V30 4979 C 556.051 -3.35964 -0.578004 0
M  V30 4980 H 557.244 -2.7765 1.13359 0
M  V30 4981 H 554.797 -1.43245 0.625354 0
M  V30 4982 H 555.532 -2.90823 -1.435 0
M  V30 4983 H 555.317 -3.92094 0.0220539 0
M  V30 4984 H 556.807 -4.06472 -0.957626 0
M  V30 4985 N 557.244 -0.608902 -1.45362 0
M  V30 4986 C 558.492 -0.104401 -2.0183 0
M  V30 4987 C 558.813 1.27007 -1.47967 0
M  V30 4988 O 558.083 1.83924 -0.674455 0
M  V30 4989 H 556.663 -0.0356042 -0.746151 0
M  V30 4990 H 559.325 -0.790596 -1.78145 0
M  V30 4991 H 558.421 -0.0551793 -3.12051 0
M  V30 4992 N 558.722 1.53707 -0.348139 0
M  V30 4993 C 560.133 1.86213 0.134797 0
M  V30 4994 C 560.484 1.26925 1.49614 0
M  V30 4995 O 559.609 0.584573 2.08355 0
M  V30 4996 C 560.204 3.37866 0.251371 0
M  V30 4997 C 558.763 3.70233 0.678543 0
M  V30 4998 C 557.91 2.76683 -0.184925 0
M  V30 4999 H 560.861 1.48204 -0.567571 0
M  V30 5000 H 560.882 3.64908 1.07806 0
M  V30 5001 H 560.394 3.80988 -0.739581 0
M  V30 5002 H 558.495 3.32659 1.67835 0
M  V30 5003 H 558.608 4.76836 0.465251 0
M  V30 5004 H 556.972 2.52374 0.343465 0
M  V30 5005 H 557.755 3.22635 -1.1731 0
M  V30 5006 N 560.2 0.0768682 1.57412 0
M  V30 5007 C 561.428 -0.59997 1.9801 0
M  V30 5008 C 561.843 -1.62842 0.955408 0
M  V30 5009 O 561.2 -1.8241 -0.057314 0
M  V30 5010 C 561.251 -1.26401 3.38681 0
M  V30 5011 O 560.972 -0.276723 4.37225 0
M  V30 5012 C 562.473 -2.0282 3.94182 0
M  V30 5013 H 559.693 -0.162239 0.651091 0
M  V30 5014 H 562.237 0.150771 2.03943 0
M  V30 5015 H 560.392 -1.96581 3.33819 0
M  V30 5016 H 560.806 -0.753744 5.19056 0
M  V30 5017 H 562.28 -2.44667 4.94815 0
M  V30 5018 H 562.757 -2.88678 3.31001 0
M  V30 5019 H 563.363 -1.37496 4.02461 0
M  V30 5020 N 561.678 -1.56367 -0.196722 0
M  V30 5021 C 562.926 -1.80172 -0.915554 0
M  V30 5022 C 563.247 -0.649649 -1.8386 0
M  V30 5023 O 562.517 0.332111 -1.93064 0
M  V30 5024 H 561.097 -0.664592 -0.341067 0
M  V30 5025 H 563.759 -1.93844 -0.202622 0
M  V30 5026 H 562.855 -2.7327 -1.50764 0
M  V30 5027 N 563.156 0.464375 -1.50603 0
M  V30 5028 C 564.119 1.54393 -1.69397 0
M  V30 5029 C 565.119 1.50566 -0.564504 0
M  V30 5030 O 566.309 1.53066 -0.831645 0
M  V30 5031 C 563.441 2.9401 -1.72543 0
M  V30 5032 H 564.634 1.39044 -2.65719 0
M  V30 5033 H 562.187 0.69122 -1.40185 0
M  V30 5034 H 562.922 3.14795 -0.77938 0
M  V30 5035 H 562.707 2.98195 -2.54602 0
M  V30 5036 H 564.197 3.72375 -1.89015 0
M  V30 5037 N 564.634 1.40294 0.718013 0
M  V30 5038 C 566.05 1.2227 1.02577 0
M  V30 5039 C 566.25 0.0961976 2.0127 0
M  V30 5040 O 565.306 -0.546695 2.46511 0
M  V30 5041 C 566.619 2.56348 1.57182 0
M  V30 5042 C 568.167 2.6334 1.69178 0
M  V30 5043 C 568.642 3.9768 2.27188 0
M  V30 5044 N 570.133 3.99409 2.34578 0
M  V30 5045 C 570.868 5.00141 2.8044 0
M  V30 5046 N 570.364 6.11268 3.26073 0
M  V30 5047 N 572.157 4.87511 2.79802 0
M  V30 5048 H 564.308 2.12304 0.0637899 0
M  V30 5049 H 566.571 0.943632 0.0909036 0
M  V30 5050 H 566.277 3.3942 0.921262 0
M  V30 5051 H 566.151 2.77266 2.55741 0
M  V30 5052 H 568.538 1.80641 2.33351 0
M  V30 5053 H 568.619 2.46255 0.692247 0
M  V30 5054 H 568.263 4.80817 1.63638 0
M  V30 5055 H 568.193 4.12093 3.27852 0
M  V30 5056 H 570.684 3.19162 2.02346 0
M  V30 5057 H 570.997 6.84023 3.59628 0
M  V30 5058 H 569.342 6.14837 3.24038 0
M  V30 5059 H 572.533 3.9979 2.43487 0
M  V30 5060 H 572.706 5.66158 3.15228 0
M  V30 5061 N 566.112 -0.949982 1.2575 0
M  V30 5062 C 567.36 -1.6918 1.10555 0
M  V30 5063 C 567.681 -1.91773 -0.353298 0
M  V30 5064 O 566.951 -1.50814 -1.25027 0
M  V30 5065 H 565.531 -0.626952 0.406129 0
M  V30 5066 H 568.193 -1.1419 1.57945 0
M  V30 5067 H 567.289 -2.66915 1.61749 0
M  V30 5068 N 567.59 -1.07411 -1.15328 0
M  V30 5069 C 569.001 -0.820261 -1.67716 0
M  V30 5070 C 569.352 0.654539 -1.8496 0
M  V30 5071 O 568.477 1.50664 -1.55337 0
M  V30 5072 C 569.072 -1.48242 -3.04647 0
M  V30 5073 C 567.631 -1.27606 -3.5411 0
M  V30 5074 C 566.778 -1.5517 -2.29821 0
M  V30 5075 H 569.729 -1.23608 -0.995332 0
M  V30 5076 H 569.75 -0.903984 -3.69606 0
M  V30 5077 H 569.262 -2.55578 -2.92064 0
M  V30 5078 H 567.363 -0.222948 -3.71932 0
M  V30 5079 H 567.476 -1.99667 -4.35511 0
M  V30 5080 H 565.84 -0.972747 -2.35393 0
M  V30 5081 H 566.623 -2.63689 -2.19824 0
M  V30 5082 N 569.068 1.32177 -0.85831 0
M  V30 5083 C 569.978 2.32561 -0.308606 0
M  V30 5084 C 570.994 1.64209 0.575462 0
M  V30 5085 O 572.17 1.95719 0.474961 0
M  V30 5086 C 569.235 3.43207 0.490909 0
M  V30 5087 C 568.296 4.27243 -0.419733 0
M  V30 5088 C 567.529 5.32605 0.341719 0
M  V30 5089 O 567.752 5.48332 1.57125 0
M  V30 5090 O 566.686 6.0118 -0.294379 0
M  V30 5091 H 570.512 2.81477 -1.14037 0
M  V30 5092 H 568.097 1.35866 -0.621349 0
M  V30 5093 H 569.979 4.10677 0.944574 0
M  V30 5094 H 568.654 2.96474 1.29941 0
M  V30 5095 H 567.561 3.62569 -0.921652 0
M  V30 5096 H 568.894 4.7751 -1.19352 0
M  V30 5097 N 570.547 0.616602 1.45037 0
M  V30 5098 C 571.795 0.115103 2.01772 0
M  V30 5099 C 572.116 -1.2622 1.48639 0
M  V30 5100 O 571.386 -1.83563 0.684199 0
M  V30 5101 H 569.966 0.0395607 0.745952 0
M  V30 5102 H 572.628 0.800032 1.77723 0
M  V30 5103 H 571.724 0.0717274 3.12018 0
M  V30 5104 N 572.025 -1.5352 0.356285 0
M  V30 5105 C 572.988 -2.24071 -0.482182 0
M  V30 5106 C 573.988 -1.24531 -1.01729 0
M  V30 5107 O 575.178 -1.48876 -0.904513 0
M  V30 5108 C 572.31 -2.97025 -1.67299 0
M  V30 5109 H 573.503 -2.99596 0.135031 0
M  V30 5110 H 571.056 -1.55928 0.107825 0
M  V30 5111 H 571.791 -2.25719 -2.32855 0
M  V30 5112 H 571.576 -3.7005 -1.29636 0
M  V30 5113 H 573.066 -3.50683 -2.26741 0
M  V30 5114 N 573.503 -0.0852151 -1.57369 0
M  V30 5115 C 574.435 0.907099 -2.10486 0
M  V30 5116 C 575.448 1.25259 -1.03991 0
M  V30 5117 O 576.637 1.20743 -1.31467 0
M  V30 5118 C 573.737 2.21908 -2.56145 0
M  V30 5119 C 572.91 2.05042 -3.86363 0
M  V30 5120 C 571.969 3.19664 -4.17973 0
M  V30 5121 O 570.995 2.94062 -4.87356 0
M  V30 5122 N 572.197 4.45151 -3.72587 0
M  V30 5123 H 574.962 0.453505 -2.96249 0
M  V30 5124 H 572.523 0.100157 -1.6159 0
M  V30 5125 H 574.515 2.97519 -2.74343 0
M  V30 5126 H 573.085 2.58723 -1.75446 0
M  V30 5127 H 572.305 1.13819 -3.77411 0
M  V30 5128 H 573.593 1.91039 -4.71574 0
M  V30 5129 H 572.991 4.68834 -3.16561 0
M  V30 5130 H 571.548 5.17744 -3.9596 0
M  V30 5131 N 574.981 1.5647 0.188427 0
M  V30 5132 C 576.229 1.80655 0.905986 0
M  V30 5133 C 576.55 0.659391 1.83513 0
M  V30 5134 O 575.82 -0.321868 1.93238 0
M  V30 5135 H 574.4 0.666391 0.337538 0
M  V30 5136 H 577.062 1.93949 0.192339 0
M  V30 5137 H 576.158 2.74066 1.49313 0
M  V30 5138 N 576.459 -0.456382 1.50847 0
M  V30 5139 C 577.87 -1.03685 1.55262 0
M  V30 5140 C 578.221 -1.92779 0.364771 0
M  V30 5141 O 577.346 -2.10043 -0.52068 0
M  V30 5142 C 577.941 -1.88718 2.81374 0
M  V30 5143 C 576.5 -2.41847 2.88422 0
M  V30 5144 C 575.647 -1.20564 2.49719 0
M  V30 5145 H 578.598 -0.238399 1.56899 0
M  V30 5146 H 578.619 -2.73957 2.6406 0
M  V30 5147 H 578.131 -1.23847 3.67809 0
M  V30 5148 H 576.232 -3.10228 2.06372 0
M  V30 5149 H 576.345 -2.75947 3.9165 0
M  V30 5150 H 574.709 -1.54504 2.02486 0
M  V30 5151 H 575.492 -0.573326 3.38479 0
M  V30 5152 N 577.937 -1.40673 -0.710563 0
M  V30 5153 C 579.353 -1.22813 -1.01928 0
M  V30 5154 C 579.553 -0.10687 -2.01216 0
M  V30 5155 O 578.609 0.533614 -2.46797 0
M  V30 5156 C 579.922 -2.57178 -1.5582 0
M  V30 5157 C 581.47 -2.64233 -1.67779 0
M  V30 5158 C 581.945 -3.98879 -2.25076 0
M  V30 5159 N 583.436 -4.00647 -2.32456 0
M  V30 5160 C 584.171 -5.01621 -2.77784 0
M  V30 5161 N 583.667 -6.12989 -3.22826 0
M  V30 5162 N 585.46 -4.88988 -2.77213 0
M  V30 5163 H 577.611 -2.12335 -0.05253 0
M  V30 5164 H 579.874 -0.9441 -0.085898 0
M  V30 5165 H 579.58 -3.39903 -0.903249 0
M  V30 5166 H 579.454 -2.78618 -2.54267 0
M  V30 5167 H 581.841 -1.81876 -2.3239 0
M  V30 5168 H 581.922 -2.46619 -0.679178 0
M  V30 5169 H 581.566 -4.81678 -1.61086 0
M  V30 5170 H 581.496 -4.13826 -3.25661 0
M  V30 5171 H 583.987 -3.20231 -2.0065 0
M  V30 5172 H 584.3 -6.85921 -3.55995 0
M  V30 5173 H 582.645 -6.16547 -3.20773 0
M  V30 5174 H 585.836 -4.01075 -2.41363 0
M  V30 5175 H 586.009 -5.67822 -3.12221 0
M  V30 5176 N 579.415 0.9433 -1.26252 0
M  V30 5177 C 580.663 1.68592 -1.11451 0
M  V30 5178 C 580.984 1.91957 0.343123 0
M  V30 5179 O 580.254 1.51475 1.24226 0
M  V30 5180 H 578.834 0.624789 -0.409448 0
M  V30 5181 H 581.496 1.13351 -1.58548 0
M  V30 5182 H 580.592 2.66054 -1.63162 0
M  V30 5183 N 580.893 1.08022 1.14757 0
M  V30 5184 C 581.803 0.718292 2.23333 0
M  V30 5185 C 582.819 -0.273477 1.71837 0
M  V30 5186 O 583.995 -0.118406 2.01052 0
M  V30 5187 C 581.06 0.128855 3.4646 0
M  V30 5188 C 580.121 1.17473 4.12915 0
M  V30 5189 C 579.354 0.61333 5.30164 0
M  V30 5190 O 579.577 -0.568458 5.6756 0
M  V30 5191 O 578.511 1.3615 5.86299 0
M  V30 5192 H 582.337 1.62394 2.56636 0
M  V30 5193 H 579.922 0.853628 1.22611 0
M  V30 5194 H 581.804 -0.197249 4.20938 0
M  V30 5195 H 580.479 -0.750014 3.14891 0
M  V30 5196 H 579.386 1.5533 3.40328 0
M  V30 5197 H 580.719 2.02574 4.48581 0
M  V30 5198 N 582.371 -1.3172 0.865308 0
M  V30 5199 C 583.782 -1.79104 0.527126 0
M  V30 5200 C 584.133 -1.7135 -0.955695 0
M  V30 5201 O 583.258 -1.27845 -1.74598 0
M  V30 5202 C 583.853 -3.25207 0.950061 0
M  V30 5203 C 582.412 -3.70504 0.663611 0
M  V30 5204 C 581.559 -2.52605 1.14395 0
M  V30 5205 H 584.51 -1.18868 1.05148 0
M  V30 5206 H 584.531 -3.79535 0.270805 0
M  V30 5207 H 584.043 -3.30818 2.02931 0
M  V30 5208 H 582.144 -3.70398 -0.404474 0
M  V30 5209 H 582.257 -4.62845 1.23737 0
M  V30 5210 H 580.621 -2.4838 0.563859 0
M  V30 5211 H 581.404 -2.60964 2.23053 0
M  V30 5212 N 583.85 -0.624285 -1.44708 0
M  V30 5213 C 585.098 -0.125802 -2.01708 0
M  V30 5214 C 585.418 1.2543 -1.49306 0
M  V30 5215 O 584.689 1.83198 -0.693924 0
M  V30 5216 H 583.269 -0.0435161 -0.745731 0
M  V30 5217 H 585.931 -0.809446 -1.77296 0
M  V30 5218 H 585.027 -0.0882734 -3.11975 0
M  V30 5219 N 585.328 1.53329 -0.364422 0
M  V30 5220 C 586.556 2.05657 0.226424 0
M  V30 5221 C 586.971 1.23801 1.42544 0
M  V30 5222 O 586.328 0.27839 1.80364 0
M  V30 5223 C 586.379 3.56125 0.621056 0
M  V30 5224 O 586.1 4.34879 -0.530304 0
M  V30 5225 C 587.601 4.24706 1.27041 0
M  V30 5226 H 584.821 0.669806 0.0400056 0
M  V30 5227 H 587.365 1.97714 -0.522456 0
M  V30 5228 H 585.52 3.64223 1.31985 0
M  V30 5229 H 585.934 5.24073 -0.211546 0
M  V30 5230 H 587.408 5.3131 1.49711 0
M  V30 5231 H 587.885 3.78354 2.23036 0
M  V30 5232 H 588.491 4.20858 0.613079 0
M  V30 5233 N 586.806 0.0935595 1.57322 0
M  V30 5234 C 588.217 -0.435807 1.81542 0
M  V30 5235 C 588.568 -1.68263 1.00907 0
M  V30 5236 O 587.693 -2.15087 0.237983 0
M  V30 5237 C 588.288 -0.797436 3.29282 0
M  V30 5238 C 586.847 -1.27155 3.54272 0
M  V30 5239 C 585.994 -0.267455 2.76007 0
M  V30 5240 H 588.945 0.31902 1.5546 0
M  V30 5241 H 588.966 -1.6571 3.42521 0
M  V30 5242 H 588.478 0.110206 3.87943 0
M  V30 5243 H 586.579 -2.19696 3.00939 0
M  V30 5244 H 586.692 -1.23445 4.62923 0
M  V30 5245 H 585.056 -0.749282 2.43429 0
M  V30 5246 H 585.839 0.632839 3.37417 0
M  V30 5247 N 588.284 -1.56567 -0.180126 0
M  V30 5248 C 589.532 -1.81133 -0.896392 0
M  V30 5249 C 589.853 -0.669114 -1.83161 0
M  V30 5250 O 589.123 0.311616 -1.93406 0
M  V30 5251 H 587.703 -0.668172 -0.333999 0
M  V30 5252 H 590.365 -1.94048 -0.182051 0
M  V30 5253 H 589.461 -2.74854 -1.47857 0
M  V30 5254 N 589.762 0.448376 -1.51087 0
M  V30 5255 C 590.987 1.22605 -1.6728 0
M  V30 5256 C 591.412 1.84524 -0.365045 0
M  V30 5257 O 590.77 1.6832 0.673642 0
M  V30 5258 C 590.818 2.29393 -2.78229 0
M  V30 5259 O 589.922 3.34608 -2.41063 0
M  V30 5260 H 589.263 0.359705 -0.558129 0
M  V30 5261 H 591.793 0.530903 -1.97592 0
M  V30 5262 H 591.803 2.74352 -3.01986 0
M  V30 5263 H 590.478 1.83701 -3.73131 0
M  V30 5264 H 589.055 2.95202 -2.27838 0
M  V30 5265 N 591.24 1.41047 0.703093 0
M  V30 5266 C 592.651 1.35657 1.28274 0
M  V30 5267 C 593.002 0.0360309 1.96167 0
M  V30 5268 O 592.127 -0.865833 1.98324 0
M  V30 5269 C 592.722 2.45707 2.33267 0
M  V30 5270 C 591.281 2.43738 2.86825 0
M  V30 5271 C 590.428 2.25941 1.60767 0
M  V30 5272 H 593.379 1.50672 0.49836 0
M  V30 5273 H 593.4 2.14333 3.14391 0
M  V30 5274 H 592.912 3.41805 1.83824 0
M  V30 5275 H 591.013 1.51375 3.40465 0
M  V30 5276 H 591.126 3.39779 3.37768 0
M  V30 5277 H 589.49 1.73681 1.86298 0
M  V30 5278 H 590.273 3.24054 1.1333 0
M  V30 5279 N 592.718 -0.936591 1.26751 0
M  V30 5280 C 593.966 -1.67998 1.12343 0
M  V30 5281 C 594.287 -1.92137 -0.332938 0
M  V30 5282 O 593.557 -1.52132 -1.23421 0
M  V30 5283 H 592.137 -0.622609 0.412756 0
M  V30 5284 H 594.799 -1.12509 1.59147 0
M  V30 5285 H 593.895 -2.65185 1.64571 0
M  V30 5286 N 594.196 -1.08629 -1.14182 0
M  V30 5287 C 595.607 -0.838003 -1.66836 0
M  V30 5288 C 595.958 0.634885 -1.85644 0
M  V30 5289 O 595.083 1.49008 -1.56926 0
M  V30 5290 C 595.678 -1.51465 -3.03058 0
M  V30 5291 C 594.237 -1.31355 -3.52736 0
M  V30 5292 C 593.384 -1.57599 -2.28162 0
M  V30 5293 H 596.335 -1.24656 -0.982165 0
M  V30 5294 H 596.356 -0.943134 -3.68626 0
M  V30 5295 H 595.868 -2.58661 -2.89337 0
M  V30 5296 H 593.969 -0.262384 -3.71675 0
M  V30 5297 H 594.082 -2.04275 -4.33369 0
M  V30 5298 H 592.446 -0.997659 -2.34348 0
M  V30 5299 H 593.229 -2.66006 -2.17015 0
M  V30 5300 N 595.674 1.31259 -0.872281 0
M  V30 5301 C 596.637 2.26744 -0.334656 0
M  V30 5302 C 597.637 1.52307 0.515681 0
M  V30 5303 O 598.827 1.71148 0.324656 0
M  V30 5304 C 595.959 3.36841 0.524482 0
M  V30 5305 H 597.152 2.75812 -1.17762 0
M  V30 5306 H 594.705 1.42232 -0.648064 0
M  V30 5307 H 595.44 2.93069 1.38855 0
M  V30 5308 H 595.225 3.92009 -0.0844299 0
M  V30 5309 H 596.715 4.07944 0.892838 0
M  V30 5310 N 597.152 0.631951 1.44375 0
M  V30 5311 C 598.4 0.136497 2.01639 0
M  V30 5312 C 598.721 -1.24637 1.49969 0
M  V30 5313 O 597.991 -1.82827 0.70363 0
M  V30 5314 H 596.571 0.0474703 0.74549 0
M  V30 5315 H 599.233 0.818837 1.76865 0
M  V30 5316 H 598.329 0.104817 3.11924 0
M  V30 5317 N 598.631 -1.53133 0.372548 0
M  V30 5318 C 599.594 -2.24569 -0.458389 0
M  V30 5319 C 600.594 -1.25603 -1.00402 0
M  V30 5320 O 601.784 -1.49827 -0.888672 0
M  V30 5321 C 598.916 -2.98783 -1.6414 0
M  V30 5322 H 600.109 -2.99436 0.166799 0
M  V30 5323 H 597.662 -1.55805 0.124357 0
M  V30 5324 H 598.397 -2.28176 -2.30448 0
M  V30 5325 H 598.182 -3.71404 -1.25704 0
M  V30 5326 H 599.672 -3.53068 -2.23008 0
M  V30 5327 N 600.109 -0.101901 -1.5727 0
M  V30 5328 C 601.334 0.571759 -1.99363 0
M  V30 5329 C 601.759 1.60507 -0.980768 0
M  V30 5330 O 601.117 1.81231 0.0498517 0
M  V30 5331 C 601.165 1.18996 -3.404 0
M  V30 5332 O 600.269 2.30572 -3.41922 0
M  V30 5333 H 599.61 0.144449 -0.648098 0
M  V30 5334 H 602.14 -0.185325 -2.03759 0
M  V30 5335 H 602.15 1.52962 -3.78241 0
M  V30 5336 H 600.825 0.432984 -4.1364 0
M  V30 5337 H 599.402 1.98173 -3.15883 0
M  V30 5338 N 601.587 1.56661 0.17182 0
M  V30 5339 C 602.835 1.81606 0.886774 0
M  V30 5340 C 603.156 0.678818 1.82803 0
M  V30 5341 O 602.426 -0.301354 1.93568 0
M  V30 5342 H 601.006 0.669934 0.330451 0
M  V30 5343 H 603.668 1.94142 0.171757 0
M  V30 5344 H 602.764 2.75634 1.46398 0
M  V30 5345 N 603.065 -0.440357 1.51323 0
M  V30 5346 C 604.013 -1.55492 1.72988 0
M  V30 5347 C 605.007 -1.58564 0.596138 0
M  V30 5348 O 606.213 -1.62345 0.777443 0
M  V30 5349 H 602.588 -0.516532 0.546533 0
M  V30 5350 H 604.559 -1.34392 2.66423 0
M  V30 5351 C 603.308 -2.93176 1.86931 0
M  V30 5352 H 602.631 -2.91543 2.73574 0
M  V30 5353 H 604.071 -3.70537 2.06103 0
M  V30 5354 C 602.53 -3.30988 0.628365 0
M  V30 5355 O 603.06 -4.01106 -0.218367 0
M  V30 5356 N 601.266 -2.86719 0.473339 0
M  V30 5357 H 600.813 -2.2983 1.16345 0
M  V30 5358 H 600.771 -3.12381 -0.355727 0
M  V30 5359 N 604.543 -1.41418 -0.695603 0
M  V30 5360 C 605.954 -1.36335 -1.27552 0
M  V30 5361 C 606.305 -0.0464336 -1.96145 0
M  V30 5362 O 605.43 0.855304 -1.9878 0
M  V30 5363 C 606.025 -2.46941 -2.3196 0
M  V30 5364 C 604.584 -2.45256 -2.85529 0
M  V30 5365 C 603.731 -2.2679 -1.59566 0
M  V30 5366 H 606.682 -1.50934 -0.490362 0
M  V30 5367 H 606.703 -2.15997 -3.1325 0
M  V30 5368 H 606.215 -3.42775 -1.82008 0
M  V30 5369 H 604.316 -1.53179 -3.39657 0
M  V30 5370 H 604.429 -3.41565 -3.35961 0
M  V30 5371 H 602.793 -1.74667 -1.85374 0
M  V30 5372 H 603.576 -3.24651 -1.1161 0
M  V30 5373 N 606.021 0.929856 -1.27246 0
M  V30 5374 C 607.269 1.674 -1.13233 0
M  V30 5375 C 607.59 1.92311 0.322744 0
M  V30 5376 O 606.86 1.52784 1.22612 0
M  V30 5377 H 605.44 0.620411 -0.416052 0
M  V30 5378 H 608.102 1.11663 -1.59741 0
M  V30 5379 H 607.198 2.64308 -1.65975 0
M  V30 5380 N 607.499 1.09233 1.13605 0
M  V30 5381 C 608.727 0.848908 1.88683 0
M  V30 5382 C 609.142 -0.599667 1.79024 0
M  V30 5383 O 608.499 -1.41265 1.15544 0
M  V30 5384 C 608.55 1.27273 3.38355 0
M  V30 5385 O 608.271 2.66449 3.47759 0
M  V30 5386 C 609.772 1.0614 4.30406 0
M  V30 5387 H 606.992 0.305549 0.597395 0
M  V30 5388 H 609.536 1.4538 1.43823 0
M  V30 5389 H 607.691 0.711776 3.80805 0
M  V30 5390 H 608.105 2.84264 4.40788 0
M  V30 5391 H 609.579 1.40725 5.33761 0
M  V30 5392 H 610.056 -0.000960332 4.392 0
M  V30 5393 H 610.662 1.60821 3.93722 0
M  V30 5394 N 608.977 -1.30795 0.87923 0
M  V30 5395 C 610.254 -1.91145 0.415086 0
M  V30 5396 C 610.634 -1.7995 -1.10368 0
M  V30 5397 O 609.982 -1.21305 -1.93642 0
M  V30 5398 C 610.192 -3.37014 0.906778 0
M  V30 5399 C 611.54 -4.14101 0.938358 0
M  V30 5400 O 612.564 -3.45834 0.853053 0
M  V30 5401 O 611.423 -5.36054 1.06342 0
M  V30 5402 H 608.517 -0.81736 0.125905 0
M  V30 5403 H 611.063 -1.39401 0.967753 0
M  V30 5404 H 609.835 -3.3922 1.95053 0
M  V30 5405 H 609.458 -3.96204 0.332948 0
M  V30 5406 N 610.455 -0.639598 -1.44038 0
M  V30 5407 C 611.703 -0.147188 -2.01563 0
M  V30 5408 C 612.024 1.2384 -1.50628 0
M  V30 5409 O 611.294 1.82452 -0.713316 0
M  V30 5410 H 609.874 -0.0514231 -0.745228 0
M  V30 5411 H 612.536 -0.828205 -1.76428 0
M  V30 5412 H 611.632 -0.121358 -3.11864 0
M  V30 5413 N 611.933 1.52934 -0.380664 0
M  V30 5414 C 613.182 2.00651 0.205477 0
M  V30 5415 C 613.495 1.27164 1.48623 0
M  V30 5416 O 614.701 1.65547 2.15189 0
M  V30 5417 C 613.157 3.57479 0.416726 0
M  V30 5418 C 612.765 4.39857 -0.850268 0
M  V30 5419 C 614.509 4.13509 0.959702 0
M  V30 5420 C 612.416 5.88269 -0.607773 0
M  V30 5421 H 611.346 0.749684 0.0805614 0
M  V30 5422 H 613.997 1.76508 -0.501732 0
M  V30 5423 H 612.379 3.77836 1.18557 0
M  V30 5424 H 613.553 4.31269 -1.62307 0
M  V30 5425 H 611.868 3.95005 -1.31756 0
M  V30 5426 H 614.465 5.22039 1.15669 0
M  V30 5427 H 614.808 3.69054 1.92626 0
M  V30 5428 H 615.341 3.9701 0.250645 0
M  V30 5429 H 612.08 6.3703 -1.54509 0
M  V30 5430 H 611.6 5.99667 0.126247 0
M  V30 5431 H 613.279 6.46558 -0.239014 0
M  V30 5432 N 613.412 0.11024 1.57214 0
M  V30 5433 C 614.823 -0.416527 1.81994 0
M  V30 5434 C 615.174 -1.67183 1.02686 0
M  V30 5435 O 614.299 -2.14823 0.260782 0
M  V30 5436 C 614.894 -0.762466 3.30109 0
M  V30 5437 C 613.453 -1.23391 3.556 0
M  V30 5438 C 612.6 -0.238166 2.76275 0
M  V30 5439 H 615.551 0.335491 1.55113 0
M  V30 5440 H 615.572 -1.62068 3.44259 0
M  V30 5441 H 615.084 0.151346 3.87805 0
M  V30 5442 H 613.185 -2.16492 3.03253 0
M  V30 5443 H 613.298 -1.18528 4.64207 0
M  V30 5444 H 611.662 -0.723421 2.4421 0
M  V30 5445 H 612.445 0.668591 3.36727 0
M  V30 5446 N 614.89 -1.56749 -0.16351 0
M  V30 5447 C 616.138 -1.82074 -0.87713 0
M  V30 5448 C 616.459 -0.688503 -1.82441 0
M  V30 5449 O 615.729 0.291085 -1.93725 0
M  V30 5450 H 614.309 -0.671677 -0.326893 0
M  V30 5451 H 616.971 -1.9423 -0.161459 0
M  V30 5452 H 616.067 -2.76407 -1.44934 0
M  V30 5453 N 616.368 0.432326 -1.51554 0
M  V30 5454 C 617.331 1.50765 -1.72634 0
M  V30 5455 C 618.331 1.49334 -0.596314 0
M  V30 5456 O 619.521 1.51268 -0.863925 0
M  V30 5457 C 616.653 2.90284 -1.7874 0
M  V30 5458 H 617.846 1.33377 -2.68609 0
M  V30 5459 H 615.399 0.661329 -1.4162 0
M  V30 5460 H 616.134 3.13071 -0.845977 0
M  V30 5461 H 615.919 2.92727 -2.6087 0
M  V30 5462 H 617.409 3.68282 -1.96871 0
M  V30 5463 N 617.846 1.41785 0.688094 0
M  V30 5464 C 618.793 1.44221 1.80191 0
M  V30 5465 C 619.763 0.295688 1.63447 0
M  V30 5466 O 620.948 0.49783 1.84191 0
M  V30 5467 C 618.088 1.33743 3.1813 0
M  V30 5468 C 617.201 2.58325 3.46254 0
M  V30 5469 C 616.336 2.40086 4.73848 0
M  V30 5470 C 615.375 3.60107 4.94964 0
M  V30 5471 N 614.512 3.40892 6.13789 0
M  V30 5472 H 619.352 2.39411 1.77444 0
M  V30 5473 H 616.889 1.18876 0.866423 0
M  V30 5474 H 618.847 1.25669 3.97823 0
M  V30 5475 H 617.477 0.42157 3.20035 0
M  V30 5476 H 616.529 2.7682 2.60912 0
M  V30 5477 H 617.841 3.4758 3.57756 0
M  V30 5478 H 616.995 2.29522 5.61609 0
M  V30 5479 H 615.734 1.483 4.64606 0
M  V30 5480 H 614.739 3.71118 4.05649 0
M  V30 5481 H 615.964 4.52857 5.06061 0
M  V30 5482 H 613.91 2.51812 6.05745 0
M  V30 5483 H 613.827 4.23727 6.26092 0
M  V30 5484 H 615.095 3.34114 7.04264 0
M  V30 5485 N 619.324 -0.923095 1.27737 0
M  V30 5486 C 620.572 -1.66797 1.14119 0
M  V30 5487 C 620.893 -1.92479 -0.312541 0
M  V30 5488 O 620.163 -1.53432 -1.218 0
M  V30 5489 H 618.743 -0.618196 0.419336 0
M  V30 5490 H 621.405 -1.10815 1.60331 0
M  V30 5491 H 620.501 -2.63424 1.67374 0
M  V30 5492 N 620.802 -1.09834 -1.13024 0
M  V30 5493 C 622.027 -0.85909 -1.88771 0
M  V30 5494 C 622.452 0.584402 -1.78791 0
M  V30 5495 O 621.81 1.41101 -1.13842 0
M  V30 5496 C 621.858 -1.30427 -3.36186 0
M  V30 5497 O 620.962 -0.465368 -4.09766 0
M  V30 5498 H 620.303 -0.310786 -0.586778 0
M  V30 5499 H 622.833 -1.46355 -1.42973 0
M  V30 5500 H 622.843 -1.2915 -3.8702 0
M  V30 5501 H 621.518 -2.3555 -3.42767 0
M  V30 5502 H 620.095 -0.542814 -3.68928 0
M  V30 5503 N 622.28 1.30327 -0.886154 0
M  V30 5504 C 623.243 2.26376 -0.358687 0
M  V30 5505 C 624.243 1.52845 0.499498 0
M  V30 5506 O 625.433 1.71483 0.306485 0
M  V30 5507 C 622.565 3.37379 0.488726 0
M  V30 5508 H 623.758 2.74547 -1.20681 0
M  V30 5509 H 621.311 1.41536 -0.663113 0
M  V30 5510 H 622.046 2.94526 1.35739 0
M  V30 5511 H 621.831 3.91897 -0.126003 0
M  V30 5512 H 623.321 4.08868 0.84952 0
M  V30 5513 N 623.758 0.647228 1.43697 0
M  V30 5514 C 625.006 0.157876 2.01482 0
M  V30 5515 C 625.327 -1.23039 1.51282 0
M  V30 5516 O 624.597 -1.82071 0.722982 0
M  V30 5517 H 623.177 0.0553745 0.744945 0
M  V30 5518 H 625.839 0.83755 1.75986 0
M  V30 5519 H 624.935 0.137895 3.11795 0
M  V30 5520 N 625.236 -1.5273 0.388769 0
M  V30 5521 C 626.199 -2.25043 -0.434544 0
M  V30 5522 C 627.199 -1.26661 -0.990644 0
M  V30 5523 O 628.389 -1.50762 -0.872731 0
M  V30 5524 C 625.521 -3.00507 -1.60961 0
M  V30 5525 H 626.714 -2.99242 0.198549 0
M  V30 5526 H 624.267 -1.55664 0.140875 0
M  V30 5527 H 625.002 -2.30607 -2.28015 0
M  V30 5528 H 624.787 -3.72716 -1.21757 0
M  V30 5529 H 626.277 -3.55413 -2.19251 0
M  V30 5530 N 626.714 -0.118576 -1.57153 0
M  V30 5531 C 628.125 0.40687 -1.82213 0
M  V30 5532 C 628.476 1.66636 -1.03571 0
M  V30 5533 O 627.601 2.14682 -0.272171 0
M  V30 5534 C 628.196 0.744949 -3.30509 0
M  V30 5535 C 626.755 1.21503 -3.5625 0
M  V30 5536 C 625.902 0.223511 -2.76398 0
M  V30 5537 H 628.853 -0.343712 -1.54933 0
M  V30 5538 H 628.874 1.6024 -3.45114 0
M  V30 5539 H 628.386 -0.171911 -3.87719 0
M  V30 5540 H 626.487 2.1488 -3.04396 0
M  V30 5541 H 626.6 1.16065 -4.64829 0
M  V30 5542 H 624.964 0.71046 -2.44591 0
M  V30 5543 H 625.747 -0.686439 -3.36367 0
M  V30 5544 N 628.193 1.56834 0.155195 0
M  V30 5545 C 629.441 1.82536 0.867462 0
M  V30 5546 C 629.762 0.698168 1.82073 0
M  V30 5547 O 629.032 -0.280807 1.93877 0
M  V30 5548 H 627.612 0.673401 0.323327 0
M  V30 5549 H 630.274 1.94313 0.151156 0
M  V30 5550 H 629.37 2.77171 1.43466 0
M  V30 5551 N 629.671 -0.424282 1.51781 0
M  V30 5552 C 630.92 -1.16961 1.64326 0
M  V30 5553 C 631.233 -1.92035 0.371749 0
M  V30 5554 O 632.439 -2.68873 0.37676 0
M  V30 5555 C 630.895 -2.12782 2.90262 0
M  V30 5556 C 630.503 -1.43295 4.24465 0
M  V30 5557 C 632.247 -2.87667 3.12166 0
M  V30 5558 C 630.154 -2.37676 5.41538 0
M  V30 5559 H 629.084 -0.440293 0.612093 0
M  V30 5560 H 631.735 -0.435431 1.78259 0
M  V30 5561 H 630.117 -2.8969 2.69992 0
M  V30 5562 H 631.291 -0.718564 4.55163 0
M  V30 5563 H 629.606 -0.805118 4.08542 0
M  V30 5564 H 632.203 -3.58395 3.96808 0
M  V30 5565 H 632.546 -3.49758 2.25776 0
M  V30 5566 H 633.079 -2.17863 3.32837 0
M  V30 5567 H 629.818 -1.80255 6.30229 0
M  V30 5568 H 629.338 -3.07132 5.15199 0
M  V30 5569 H 631.017 -2.98529 5.74012 0
M  V30 5570 N 631.149 -1.42148 -0.680565 0
M  V30 5571 C 632.112 -1.4488 -1.77602 0
M  V30 5572 C 633.112 -0.337209 -1.57224 0
M  V30 5573 O 634.302 -0.597778 -1.63622 0
M  V30 5574 C 631.434 -1.27483 -3.16166 0
M  V30 5575 H 632.627 -2.42412 -1.76568 0
M  V30 5576 H 630.18 -1.28511 -0.889645 0
M  V30 5577 H 630.915 -0.30851 -3.22829 0
M  V30 5578 H 630.7 -2.08037 -3.3236 0
M  V30 5579 H 632.19 -1.32265 -3.96101 0
M  V30 5580 N 632.627 0.916307 -1.28225 0
M  V30 5581 C 633.875 1.6619 -1.15002 0
M  V30 5582 C 634.196 1.92642 0.302329 0
M  V30 5583 O 633.466 1.54076 1.20985 0
M  V30 5584 H 632.046 0.615964 -0.422608 0
M  V30 5585 H 634.708 1.09963 -1.60917 0
M  V30 5586 H 633.804 2.62533 -1.68769 0
M  V30 5587 N 634.105 1.10431 1.1244 0
M  V30 5588 C 635.068 0.756542 2.16354 0
M  V30 5589 C 636.068 -0.21899 1.59302 0
M  V30 5590 O 637.258 0.00415969 1.742 0
M  V30 5591 C 634.39 0.120612 3.40687 0
M  V30 5592 H 635.583 1.67696 2.48632 0
M  V30 5593 H 633.136 0.904832 1.27446 0
M  V30 5594 H 633.871 -0.810536 3.14008 0
M  V30 5595 H 633.656 0.822693 3.83372 0
M  V30 5596 H 635.146 -0.106945 4.17463 0
M  V30 5597 N 635.583 -1.29855 0.893053 0
M  V30 5598 C 636.994 -1.77946 0.564998 0
M  V30 5599 C 637.345 -1.73339 -0.919134 0
M  V30 5600 O 636.47 -1.3152 -1.71847 0
M  V30 5601 C 637.065 -3.23118 1.01883 0
M  V30 5602 C 635.624 -3.69013 0.742051 0
M  V30 5603 C 634.771 -2.50121 1.19727 0
M  V30 5604 H 637.722 -1.16611 1.07646 0
M  V30 5605 H 637.743 -3.78875 0.351249 0
M  V30 5606 H 637.255 -3.26439 2.09903 0
M  V30 5607 H 635.356 -3.71173 -0.325816 0
M  V30 5608 H 635.469 -4.60117 1.33527 0
M  V30 5609 H 633.833 -2.47128 0.616418 0
M  V30 5610 H 634.616 -2.56174 2.28538 0
M  V30 5611 N 637.061 -0.65484 -1.43351 0
M  V30 5612 C 638.309 -0.168559 -2.01396 0
M  V30 5613 C 638.63 1.22235 -1.51933 0
M  V30 5614 O 637.9 1.81685 -0.732627 0
M  V30 5615 H 636.48 -0.0593244 -0.744641 0
M  V30 5616 H 639.142 -0.846871 -1.75539 0
M  V30 5617 H 638.238 -0.154428 -3.11718 0
M  V30 5618 N 638.539 1.52521 -0.396863 0
M  V30 5619 C 639.786 2.01672 0.182898 0
M  V30 5620 C 640.114 1.28302 1.46181 0
M  V30 5621 O 639.369 0.374118 1.92091 0
M  V30 5622 C 639.668 3.5403 0.489677 0
M  V30 5623 C 639.334 4.45456 -0.698581 0
M  V30 5624 C 637.996 4.70166 -1.02454 0
M  V30 5625 C 640.348 4.99354 -1.49316 0
M  V30 5626 C 637.676 5.46024 -2.1465 0
M  V30 5627 C 640.028 5.76439 -2.60579 0
M  V30 5628 C 638.692 5.99426 -2.93675 0
M  V30 5629 H 637.962 0.737971 0.066927 0
M  V30 5630 H 640.609 1.83853 -0.535764 0
M  V30 5631 H 638.914 3.69963 1.28976 0
M  V30 5632 H 640.611 3.8956 0.951018 0
M  V30 5633 H 637.201 4.26392 -0.434525 0
M  V30 5634 H 641.385 4.80182 -1.25457 0
M  V30 5635 H 636.641 5.62046 -2.40654 0
M  V30 5636 H 640.815 6.17202 -3.22544 0
M  V30 5637 H 638.442 6.57988 -3.80731 0
M  V30 5638 N 640.017 0.126909 1.57088 0
M  V30 5639 C 641.428 -0.397201 1.82426 0
M  V30 5640 C 641.779 -1.66084 1.04453 0
M  V30 5641 O 640.904 -2.14534 0.283552 0
M  V30 5642 C 641.499 -0.727411 3.30899 0
M  V30 5643 C 640.058 -1.19612 3.56889 0
M  V30 5644 C 639.205 -0.20885 2.76512 0
M  V30 5645 H 642.156 0.351924 1.54749 0
M  V30 5646 H 642.177 -1.58407 3.45959 0
M  V30 5647 H 641.689 0.19247 3.87622 0
M  V30 5648 H 639.79 -2.13263 3.05532 0
M  V30 5649 H 639.903 -1.13598 4.65438 0
M  V30 5650 H 638.267 -0.697479 2.44964 0
M  V30 5651 H 639.05 0.704267 3.35998 0
M  V30 5652 N 641.495 -1.56914 -0.146875 0
M  V30 5653 C 642.743 -1.82994 -0.85777 0
M  V30 5654 C 643.064 -0.707814 -1.817 0
M  V30 5655 O 642.334 0.270521 -1.94023 0
M  V30 5656 H 640.914 -0.675106 -0.319751 0
M  V30 5657 H 643.576 -1.9439 -0.140849 0
M  V30 5658 H 642.672 -2.77928 -1.41994 0
M  V30 5659 N 642.974 0.416227 -1.52004 0
M  V30 5660 C 644.385 0.995319 -1.57957 0
M  V30 5661 C 644.736 1.91744 -0.415754 0
M  V30 5662 O 643.861 2.11349 0.464808 0
M  V30 5663 C 644.456 1.81191 -2.86278 0
M  V30 5664 C 643.015 2.34115 -2.94732 0
M  V30 5665 C 642.162 1.139 -2.52828 0
M  V30 5666 H 645.113 0.196716 -1.57476 0
M  V30 5667 H 645.134 2.66859 -2.71231 0
M  V30 5668 H 644.646 1.14051 -3.70963 0
M  V30 5669 H 642.747 3.04647 -2.14525 0
M  V30 5670 H 642.86 2.65466 -3.98829 0
M  V30 5671 H 641.224 1.49081 -2.06511 0
M  V30 5672 H 642.007 0.483383 -3.3988 0
M  V30 5673 N 644.452 1.42507 0.673017 0
M  V30 5674 C 645.868 1.25472 0.986355 0
M  V30 5675 C 646.068 0.160181 2.00862 0
M  V30 5676 O 645.124 -0.467993 2.48125 0
M  V30 5677 C 646.437 2.61219 1.48947 0
M  V30 5678 C 647.985 2.68589 1.60715 0
M  V30 5679 C 648.46 4.04707 2.14422 0
M  V30 5680 N 649.951 4.0667 2.21752 0
M  V30 5681 C 650.686 5.0881 2.64386 0
M  V30 5682 N 650.182 6.21332 3.0646 0
M  V30 5683 N 651.975 4.96166 2.64151 0
M  V30 5684 H 644.126 2.124 -0.00378532 0
M  V30 5685 H 646.389 0.946046 0.0608367 0
M  V30 5686 H 646.095 3.42179 0.812812 0
M  V30 5687 H 645.969 2.85261 2.46791 0
M  V30 5688 H 648.356 1.87974 2.27486 0
M  V30 5689 H 648.437 2.48333 0.613552 0
M  V30 5690 H 648.081 4.8578 1.48258 0
M  V30 5691 H 648.011 4.22315 3.14575 0
M  V30 5692 H 650.502 3.25438 1.92089 0
M  V30 5693 H 650.815 6.95118 3.37684 0
M  V30 5694 H 649.16 6.24835 3.04313 0
M  V30 5695 H 652.351 4.07334 2.30644 0
M  V30 5696 H 652.524 5.759 2.97057 0
M  V30 5697 N 645.93 -0.909495 1.28709 0
M  V30 5698 C 647.178 -1.65577 1.15882 0
M  V30 5699 C 647.499 -1.928 -0.292108 0
M  V30 5700 O 646.769 -1.54716 -1.20166 0
M  V30 5701 H 645.349 -0.613714 0.425869 0
M  V30 5702 H 648.011 -1.09108 1.61498 0
M  V30 5703 H 647.107 -2.61634 1.70159 0
M  V30 5704 N 647.408 -1.11026 -1.11852 0
M  V30 5705 C 648.819 -0.873203 -1.65021 0
M  V30 5706 C 649.17 0.595364 -1.86949 0
M  V30 5707 O 648.295 1.45645 -1.60051 0
M  V30 5708 C 648.89 -1.57859 -2.99777 0
M  V30 5709 C 647.449 -1.38807 -3.49871 0
M  V30 5710 C 646.596 -1.62403 -2.24768 0
M  V30 5711 H 649.547 -1.26712 -0.955503 0
M  V30 5712 H 649.568 -1.02111 -3.66543 0
M  V30 5713 H 649.08 -2.6474 -2.83786 0
M  V30 5714 H 647.181 -0.341163 -3.71035 0
M  V30 5715 H 647.294 -2.13421 -4.28938 0
M  V30 5716 H 645.658 -1.04714 -2.32179 0
M  V30 5717 H 646.441 -2.70549 -2.11324 0
M  V30 5718 N 648.886 1.2938 -0.899927 0
M  V30 5719 C 650.297 1.77644 -0.574427 0
M  V30 5720 C 650.648 1.73824 0.909928 0
M  V30 5721 O 649.773 1.32429 1.71147 0
M  V30 5722 C 650.368 3.22573 -1.03595 0
M  V30 5723 C 648.927 3.68614 -0.76161 0
M  V30 5724 C 648.074 2.49483 -1.21052 0
M  V30 5725 H 651.025 1.16038 -1.08263 0
M  V30 5726 H 651.046 3.78684 -0.371337 0
M  V30 5727 H 650.558 3.25321 -2.11631 0
M  V30 5728 H 648.659 3.7134 0.306127 0
M  V30 5729 H 648.772 4.59402 -1.35965 0
M  V30 5730 H 647.136 2.46798 -0.629515 0
M  V30 5731 H 647.919 2.54959 -2.29893 0
M  V30 5732 N 650.364 0.662433 1.43002 0
M  V30 5733 C 651.612 0.179237 2.01304 0
M  V30 5734 C 651.933 -1.21428 1.52579 0
M  V30 5735 O 651.203 -1.81294 0.742252 0
M  V30 5736 H 649.783 0.0632725 0.744316 0
M  V30 5737 H 652.445 0.856169 1.75088 0
M  V30 5738 H 651.541 0.170957 3.11631 0
M  V30 5739 N 651.842 -1.52309 0.404946 0
M  V30 5740 C 653.253 -1.86585 -0.0655926 0
M  V30 5741 C 653.604 -1.3239 -1.44801 0
M  V30 5742 O 652.729 -0.6615 -2.06042 0
M  V30 5743 C 653.324 -3.38566 -0.125801 0
M  V30 5744 C 651.883 -3.72497 -0.540666 0
M  V30 5745 C 651.03 -2.75806 0.287487 0
M  V30 5746 H 653.981 -1.45995 0.622185 0
M  V30 5747 H 654.002 -3.68658 -0.941888 0
M  V30 5748 H 653.514 -3.77981 0.880473 0
M  V30 5749 H 651.615 -3.38659 -1.55373 0
M  V30 5750 H 651.728 -4.78234 -0.287956 0
M  V30 5751 H 650.092 -2.53474 -0.249561 0
M  V30 5752 H 650.875 -3.18059 1.29203 0
M  V30 5753 N 653.32 -0.135238 -1.57019 0
M  V30 5754 C 654.252 0.839675 -2.13265 0
M  V30 5755 C 655.265 1.21887 -1.07923 0
M  V30 5756 O 656.454 1.16499 -1.35241 0
M  V30 5757 C 653.554 2.13647 -2.63075 0
M  V30 5758 C 652.727 1.92646 -3.92691 0
M  V30 5759 C 651.786 3.06205 -4.27931 0
M  V30 5760 O 650.812 2.78409 -4.96465 0
M  V30 5761 N 652.014 4.33072 -3.86561 0
M  V30 5762 H 654.779 0.359026 -2.97542 0
M  V30 5763 H 652.34 0.0486979 -1.61827 0
M  V30 5764 H 654.332 2.88641 -2.8367 0
M  V30 5765 H 652.902 2.5301 -1.83588 0
M  V30 5766 H 652.122 1.01754 -3.80841 0
M  V30 5767 H 653.41 1.75939 -4.77413 0
M  V30 5768 H 652.808 4.58526 -3.31316 0
M  V30 5769 H 651.365 5.04885 -4.12231 0
M  V30 5770 N 654.798 1.5699 0.138552 0
M  V30 5771 C 656.046 1.83446 0.848053 0
M  V30 5772 C 656.367 0.71744 1.81322 0
M  V30 5773 O 655.637 -0.260228 1.94164 0
M  V30 5774 H 654.217 0.676792 0.316166 0
M  V30 5775 H 656.879 1.94462 0.130538 0
M  V30 5776 H 655.975 2.78677 1.40518 0
M  V30 5777 N 656.276 -0.40816 1.52223 0
M  V30 5778 C 657.239 -1.48 1.7501 0
M  V30 5779 C 658.239 -1.48367 0.619996 0
M  V30 5780 O 659.429 -1.49874 0.887881 0
M  V30 5781 C 656.561 -2.87403 1.83336 0
M  V30 5782 H 657.754 -1.29086 2.70697 0
M  V30 5783 H 655.307 -0.638715 1.42654 0
M  V30 5784 H 656.042 -3.11686 0.895677 0
M  V30 5785 H 655.827 -2.8854 2.65494 0
M  V30 5786 H 657.317 -3.65103 2.02705 0
M  V30 5787 N 657.755 -1.42862 -0.66545 0
M  V30 5788 C 658.983 -1.47246 -1.45349 0
M  V30 5789 C 659.398 -0.0865944 -1.88601 0
M  V30 5790 O 658.755 0.900652 -1.58728 0
M  V30 5791 C 658.806 -2.40772 -2.6965 0
M  V30 5792 O 658.527 -3.73968 -2.2821 0
M  V30 5793 C 660.028 -2.54272 -3.63126 0
M  V30 5794 H 657.248 -0.500497 -0.446927 0
M  V30 5795 H 659.792 -1.87477 -0.816871 0
M  V30 5796 H 657.947 -2.0377 -3.29479 0
M  V30 5797 H 658.361 -4.24146 -3.08546 0
M  V30 5798 H 659.835 -3.23815 -4.47043 0
M  V30 5799 H 660.312 -1.58364 -4.09656 0
M  V30 5800 H 660.918 -2.92036 -3.09185 0
M  V30 5801 N 659.233 0.902656 -1.29189 0
M  V30 5802 C 660.481 1.6496 -1.16758 0
M  V30 5803 C 660.802 1.92952 0.28188 0
M  V30 5804 O 660.072 1.55351 1.19344 0
M  V30 5805 H 658.652 0.611447 -0.429118 0
M  V30 5806 H 661.314 1.0825 -1.62074 0
M  V30 5807 H 660.41 2.60728 -1.71544 0
M  V30 5808 N 660.711 1.11618 1.11262 0
M  V30 5809 C 662.122 0.881942 1.64556 0
M  V30 5810 C 662.473 -0.585442 1.87262 0
M  V30 5811 O 661.598 -1.44795 1.60821 0
M  V30 5812 C 662.193 1.59446 2.98935 0
M  V30 5813 C 660.752 1.40661 3.4913 0
M  V30 5814 C 659.899 1.63593 2.23903 0
M  V30 5815 H 662.85 1.27217 0.94877 0
M  V30 5816 H 662.871 1.04054 3.65996 0
M  V30 5817 H 662.383 2.66241 2.82378 0
M  V30 5818 H 660.484 0.360835 3.70849 0
M  V30 5819 H 660.597 2.15693 4.27801 0
M  V30 5820 H 658.961 1.05944 2.3162 0
M  V30 5821 H 659.744 2.71666 2.09886 0
M  V30 5822 N 662.189 -1.289 0.906776 0
M  V30 5823 C 663.119 -2.29932 0.406659 0
M  V30 5824 C 664.1 -1.6189 -0.522061 0
M  V30 5825 O 665.285 -1.8935 -0.431283 0
M  V30 5826 C 662.415 -3.45425 -0.360366 0
M  V30 5827 C 661.369 -4.25316 0.478574 0
M  V30 5828 C 660.695 -5.33076 -0.416373 0
M  V30 5829 C 661.995 -4.92739 1.7322 0
M  V30 5830 H 663.689 -2.72013 1.25097 0
M  V30 5831 H 661.235 -1.30768 0.602977 0
M  V30 5832 H 663.188 -4.15186 -0.721029 0
M  V30 5833 H 661.912 -3.02206 -1.23852 0
M  V30 5834 H 660.571 -3.57273 0.821662 0
M  V30 5835 H 660.219 -4.86101 -1.29287 0
M  V30 5836 H 659.919 -5.8743 0.141309 0
M  V30 5837 H 661.443 -6.05686 -0.773072 0
M  V30 5838 H 662.857 -5.54898 1.44086 0
M  V30 5839 H 661.254 -5.57057 2.23175 0
M  V30 5840 H 662.324 -4.17625 2.46408 0
M  V30 5841 N 663.667 -0.670007 -1.42649 0
M  V30 5842 C 664.915 -0.18991 -2.01206 0
M  V30 5843 C 665.236 1.20617 -1.53221 0
M  V30 5844 O 664.506 1.80898 -0.751856 0
M  V30 5845 H 663.086 -0.0672189 -0.743969 0
M  V30 5846 H 665.748 -0.865442 -1.74631 0
M  V30 5847 H 664.844 -0.187481 -3.11536 0
M  V30 5848 N 665.145 1.52092 -0.413018 0
M  V30 5849 C 666.556 1.86617 0.0556967 0
M  V30 5850 C 666.907 1.33156 1.44097 0
M  V30 5851 O 666.032 0.672417 2.05688 0
M  V30 5852 C 666.627 3.38628 0.107844 0
M  V30 5853 C 665.186 3.72778 0.520904 0
M  V30 5854 C 664.333 2.75649 -0.302109 0
M  V30 5855 H 667.284 1.45663 -0.629919 0
M  V30 5856 H 667.305 3.69152 0.922324 0
M  V30 5857 H 666.817 3.77508 -0.900506 0
M  V30 5858 H 664.918 3.39478 1.53575 0
M  V30 5859 H 665.031 4.7838 0.262591 0
M  V30 5860 H 663.395 2.53603 0.236115 0
M  V30 5861 H 664.178 3.17369 -1.30888 0
M  V30 5862 N 666.623 0.143563 1.56945 0
M  V30 5863 C 667.57 -0.797433 2.16586 0
M  V30 5864 C 668.54 -1.24654 1.09775 0
M  V30 5865 O 669.725 -1.31968 1.37801 0
M  V30 5866 C 666.865 -2.03253 2.78895 0
M  V30 5867 C 665.978 -1.62954 4.00087 0
M  V30 5868 C 665.113 -2.81617 4.50406 0
M  V30 5869 C 664.152 -2.37675 5.64072 0
M  V30 5870 N 663.289 -3.49335 6.09023 0
M  V30 5871 H 668.129 -0.282023 2.96662 0
M  V30 5872 H 665.666 -0.127494 1.46546 0
M  V30 5873 H 667.624 -2.75653 3.13163 0
M  V30 5874 H 666.254 -2.52211 2.01469 0
M  V30 5875 H 665.306 -0.803322 3.71821 0
M  V30 5876 H 666.618 -1.26679 4.82446 0
M  V30 5877 H 665.772 -3.62212 4.86711 0
M  V30 5878 H 664.511 -3.21134 3.67048 0
M  V30 5879 H 663.516 -1.55519 5.27346 0
M  V30 5880 H 664.741 -1.99247 6.49213 0
M  V30 5881 H 662.687 -3.8848 5.28601 0
M  V30 5882 H 662.604 -3.17064 6.86299 0
M  V30 5883 H 663.872 -4.30297 6.49973 0
M  V30 5884 N 668.101 -1.57061 -0.130224 0
M  V30 5885 C 669.349 -1.83893 -0.838313 0
M  V30 5886 C 669.67 -0.727046 -1.80939 0
M  V30 5887 O 668.94 0.249927 -1.94299 0
M  V30 5888 H 667.52 -0.67846 -0.312573 0
M  V30 5889 H 670.182 -1.94529 -0.120224 0
M  V30 5890 H 669.278 -2.79419 -1.39038 0
M  V30 5891 N 669.579 0.400081 -1.52437 0
M  V30 5892 C 670.511 1.50729 -1.72666 0
M  V30 5893 C 671.524 1.51058 -0.607075 0
M  V30 5894 O 672.713 1.5516 -0.88248 0
M  V30 5895 C 669.813 2.89604 -1.76019 0
M  V30 5896 C 668.986 3.13365 -3.05157 0
M  V30 5897 C 668.045 4.32163 -3.00203 0
M  V30 5898 O 667.071 4.29004 -3.74092 0
M  V30 5899 N 668.273 5.3776 -2.18619 0
M  V30 5900 H 671.038 1.33767 -2.68191 0
M  V30 5901 H 668.599 0.58948 -1.50787 0
M  V30 5902 H 670.591 3.67159 -1.70225 0
M  V30 5903 H 669.161 2.99979 -0.879284 0
M  V30 5904 H 668.381 2.23774 -3.24529 0
M  V30 5905 H 669.669 3.26089 -3.90568 0
M  V30 5906 H 669.067 5.43177 -1.58035 0
M  V30 5907 H 667.624 6.14023 -2.18674 0
M  V30 5908 N 671.057 1.43213 0.657864 0
M  V30 5909 C 672.285 1.48015 1.44566 0
M  V30 5910 C 672.7 0.0965951 1.88553 0
M  V30 5911 O 672.057 -0.892221 1.59203 0
M  V30 5912 C 672.108 2.42199 2.68369 0
M  V30 5913 O 671.829 3.75173 2.26223 0
M  V30 5914 C 673.33 2.56195 3.61772 0
M  V30 5915 H 670.55 0.502861 0.444266 0
M  V30 5916 H 673.094 1.87907 0.806917 0
M  V30 5917 H 671.249 2.05514 3.28394 0
M  V30 5918 H 671.663 4.25776 3.06293 0
M  V30 5919 H 673.137 3.26182 4.4532 0
M  V30 5920 H 673.614 1.60534 4.0881 0
M  V30 5921 H 674.22 2.93671 3.07632 0
M  V30 5922 N 672.536 -0.895792 1.29666 0
M  V30 5923 C 673.784 -1.64339 1.17631 0
M  V30 5924 C 674.105 -1.93099 -0.271643 0
M  V30 5925 O 673.375 -1.55981 -1.18518 0
M  V30 5926 H 671.955 -0.609162 0.432354 0
M  V30 5927 H 674.617 -1.07389 1.62646 0
M  V30 5928 H 673.713 -2.59815 1.72924 0
M  V30 5929 N 674.014 -1.12206 -1.10668 0
M  V30 5930 C 674.924 -0.800686 -2.20513 0
M  V30 5931 C 675.94 0.209512 -1.72734 0
M  V30 5932 O 677.116 0.043705 -2.01353 0
M  V30 5933 C 674.181 -0.257353 -3.45744 0
M  V30 5934 C 673.242 -1.32718 -4.0827 0
M  V30 5935 C 672.475 -0.809674 -5.27522 0
M  V30 5936 O 672.698 0.35742 -5.69279 0
M  V30 5937 O 671.632 -1.57816 -5.80842 0
M  V30 5938 H 675.458 -1.71807 -2.50432 0
M  V30 5939 H 673.043 -0.898546 -1.19359 0
M  V30 5940 H 674.925 0.0408849 -4.2138 0
M  V30 5941 H 673.6 0.632627 -3.17458 0
M  V30 5942 H 672.507 -1.67855 -3.34329 0
M  V30 5943 H 673.84 -2.19083 -4.40753 0
M  V30 5944 N 675.492 1.28418 -0.913599 0
M  V30 5945 C 676.903 1.77024 -0.593237 0
M  V30 5946 C 677.254 1.74779 0.891441 0
M  V30 5947 O 676.379 1.34237 1.69733 0
M  V30 5948 C 676.974 3.21456 -1.07011 0
M  V30 5949 C 675.533 3.67786 -0.800664 0
M  V30 5950 C 674.68 2.48185 -1.23691 0
M  V30 5951 H 677.631 1.14883 -1.09487 0
M  V30 5952 H 677.652 3.78269 -0.411481 0
M  V30 5953 H 677.164 3.23058 -2.1507 0
M  V30 5954 H 675.265 3.71644 0.266725 0
M  V30 5955 H 675.378 4.57934 -1.4083 0
M  V30 5956 H 673.742 2.46116 -0.655655 0
M  V30 5957 H 674.525 2.52506 -2.32585 0
M  V30 5958 N 676.97 0.677563 1.42291 0
M  V30 5959 C 678.218 0.200578 2.01102 0
M  V30 5960 C 678.539 -1.19803 1.53858 0
M  V30 5961 O 677.809 -1.80496 0.761439 0
M  V30 5962 H 676.389 0.0711634 0.743603 0
M  V30 5963 H 679.051 0.874691 1.7417 0
M  V30 5964 H 678.147 0.204 3.11433 0
M  V30 5965 N 678.448 -1.51871 0.421078 0
M  V30 5966 C 679.697 -2.01125 -0.152206 0
M  V30 5967 C 680.01 -1.3106 -1.45199 0
M  V30 5968 O 681.216 -1.71195 -2.10724 0
M  V30 5969 C 679.672 -3.58458 -0.3218 0
M  V30 5970 C 679.28 -4.37448 0.96659 0
M  V30 5971 C 681.024 -4.15908 -0.84973 0
M  V30 5972 C 678.931 -5.86451 0.763529 0
M  V30 5973 H 677.861 -0.751556 -0.0606565 0
M  V30 5974 H 680.512 -1.75115 0.548354 0
M  V30 5975 H 678.894 -3.80847 -1.08498 0
M  V30 5976 H 680.068 -4.26814 1.73684 0
M  V30 5977 H 678.383 -3.91373 1.42183 0
M  V30 5978 H 680.98 -5.24922 -1.01788 0
M  V30 5979 H 681.323 -3.74031 -1.82774 0
M  V30 5980 H 681.856 -3.97535 -0.145297 0
M  V30 5981 H 678.595 -6.3271 1.71344 0
M  V30 5982 H 678.115 -5.99791 0.0327889 0
M  V30 5983 H 679.794 -6.45697 0.410354 0
M  V30 5984 N 679.926 -0.151884 -1.56866 0
M  V30 5985 C 680.889 0.771861 -2.15812 0
M  V30 5986 C 681.889 1.17181 -1.10115 0
M  V30 5987 O 683.079 1.09194 -1.35729 0
M  V30 5988 C 680.211 2.04806 -2.7252 0
M  V30 5989 H 681.404 0.259021 -2.98779 0
M  V30 5990 H 678.957 0.097588 -1.55995 0
M  V30 5991 H 679.692 2.60445 -1.93233 0
M  V30 5992 H 679.477 1.77044 -3.49854 0
M  V30 5993 H 680.967 2.70771 -3.1792 0
M  V30 5994 N 681.404 1.57128 0.121893 0
M  V30 5995 C 682.652 1.84335 0.828548 0
M  V30 5996 C 682.973 0.736632 1.80551 0
M  V30 5997 O 682.243 -0.23962 1.94429 0
M  V30 5998 H 680.823 0.680108 0.30897 0
M  V30 5999 H 683.485 1.9459 0.109906 0
M  V30 6000 H 682.581 2.80152 1.37554 0
M  V30 6001 N 682.882 -0.391992 1.52647 0
M  V30 6002 C 684.129 -1.13732 1.67545 0
M  V30 6003 C 684.457 -1.90045 0.413881 0
M  V30 6004 O 683.712 -1.86157 -0.603646 0
M  V30 6005 C 684.011 -2.14401 2.85949 0
M  V30 6006 C 683.677 -1.54767 4.23507 0
M  V30 6007 C 682.339 -1.38229 4.60919 0
M  V30 6008 C 684.691 -1.11382 5.0916 0
M  V30 6009 C 682.019 -0.7685 5.81645 0
M  V30 6010 C 684.371 -0.514143 6.30507 0
M  V30 6011 C 683.035 -0.33604 6.66654 0
M  V30 6012 H 682.305 -0.416174 0.613091 0
M  V30 6013 H 684.952 -0.422327 1.86785 0
M  V30 6014 H 683.257 -2.92108 2.61114 0
M  V30 6015 H 684.954 -2.71974 2.94671 0
M  V30 6016 H 681.544 -1.68626 3.94035 0
M  V30 6017 H 685.728 -1.22962 4.80826 0
M  V30 6018 H 680.984 -0.618681 6.08262 0
M  V30 6019 H 685.158 -0.169657 6.96193 0
M  V30 6020 H 682.785 0.14166 7.60068 0
M  V30 6021 N 684.36 -1.4356 -0.65026 0
M  V30 6022 C 685.307 -1.48948 -1.76304 0
M  V30 6023 C 686.277 -0.338919 -1.62605 0
M  V30 6024 O 687.462 -0.54649 -1.82806 0
M  V30 6025 C 684.602 -1.42131 -3.14472 0
M  V30 6026 C 683.715 -2.67415 -3.39284 0
M  V30 6027 C 682.85 -2.52565 -4.67316 0
M  V30 6028 C 681.889 -3.73103 -4.85243 0
M  V30 6029 N 681.026 -3.57046 -6.04535 0
M  V30 6030 H 685.866 -2.44032 -1.71034 0
M  V30 6031 H 683.403 -1.21131 -0.834601 0
M  V30 6032 H 685.361 -1.36172 -3.94351 0
M  V30 6033 H 683.991 -0.506273 -3.18805 0
M  V30 6034 H 683.043 -2.8364 -2.53481 0
M  V30 6035 H 684.355 -3.56943 -3.48415 0
M  V30 6036 H 683.509 -2.44331 -5.55326 0
M  V30 6037 H 682.248 -1.60566 -4.60511 0
M  V30 6038 H 681.253 -3.81743 -3.95667 0
M  V30 6039 H 682.478 -4.66115 -4.93876 0
M  V30 6040 H 680.424 -2.67783 -5.98856 0
M  V30 6041 H 680.341 -4.40178 -6.14638 0
M  V30 6042 H 681.609 -3.52669 -6.95158 0
M  V30 6043 N 685.838 0.888903 -1.30139 0
M  V30 6044 C 687.086 1.63713 -1.18501 0
M  V30 6045 C 687.407 1.9324 0.261399 0
M  V30 6046 O 686.677 1.56608 1.17689 0
M  V30 6047 H 685.257 0.606861 -0.435579 0
M  V30 6048 H 687.919 1.06525 -1.63213 0
M  V30 6049 H 687.015 2.58894 -1.743 0
M  V30 6050 N 687.317 1.12792 1.10072 0
M  V30 6051 C 688.227 0.812369 2.20086 0
M  V30 6052 C 689.243 -0.200349 1.72843 0
M  V30 6053 O 690.419 -0.0330262 2.01373 0
M  V30 6054 C 687.484 0.275685 3.45602 0
M  V30 6055 C 686.545 1.34881 4.07561 0
M  V30 6056 C 685.778 0.837639 5.27086 0
M  V30 6057 O 686.001 -0.327224 5.69461 0
M  V30 6058 O 684.935 1.60894 5.79997 0
M  V30 6059 H 688.761 1.73133 2.49517 0
M  V30 6060 H 686.346 0.904863 1.18881 0
M  V30 6061 H 688.228 -0.0185375 4.21396 0
M  V30 6062 H 686.903 -0.615783 3.17789 0
M  V30 6063 H 685.81 1.69625 3.33434 0
M  V30 6064 H 687.143 2.21418 4.39585 0
M  V30 6065 N 688.795 -1.27931 0.920396 0
M  V30 6066 C 689.727 -2.26175 0.371169 0
M  V30 6067 C 690.74 -1.55122 -0.494065 0
M  V30 6068 O 691.929 -1.75825 -0.30787 0
M  V30 6069 C 689.029 -3.35376 -0.487481 0
M  V30 6070 C 688.202 -4.35943 0.356772 0
M  V30 6071 C 687.261 -5.24374 -0.438042 0
M  V30 6072 O 686.287 -5.68998 0.151715 0
M  V30 6073 N 687.489 -5.53823 -1.73956 0
M  V30 6074 H 690.254 -2.73938 1.21564 0
M  V30 6075 H 687.815 -1.41482 0.787047 0
M  V30 6076 H 689.807 -3.91476 -1.02609 0
M  V30 6077 H 688.377 -2.87269 -1.23269 0
M  V30 6078 H 687.597 -3.7921 1.07672 0
M  V30 6079 H 688.885 -5.0015 0.934206 0
M  V30 6080 H 688.283 -5.19413 -2.24114 0
M  V30 6081 H 686.84 -6.12653 -2.22486 0
M  V30 6082 N 690.273 -0.685099 -1.4193 0
M  V30 6083 C 691.521 -0.21124 -2.00993 0
M  V30 6084 C 691.842 1.18985 -1.54491 0
M  V30 6085 O 691.112 1.8009 -0.771 0
M  V30 6086 H 689.692 -0.0751059 -0.743215 0
M  V30 6087 H 692.354 -0.883915 -1.73704 0
M  V30 6088 H 691.45 -0.220513 -3.1132 0
M  V30 6089 N 691.751 1.51645 -0.429126 0
M  V30 6090 C 693.162 1.86665 0.0359003 0
M  V30 6091 C 693.513 1.34677 1.42676 0
M  V30 6092 O 692.638 0.694195 2.04963 0
M  V30 6093 C 693.233 3.38724 0.0719221 0
M  V30 6094 C 691.792 3.7331 0.481336 0
M  V30 6095 C 690.939 2.75313 -0.331329 0
M  V30 6096 H 693.89 1.44987 -0.645333 0
M  V30 6097 H 693.911 3.7011 0.883118 0
M  V30 6098 H 693.423 3.76532 -0.940495 0
M  V30 6099 H 691.524 3.41088 1.49966 0
M  V30 6100 H 691.637 4.78631 0.211837 0
M  V30 6101 H 690.001 2.53839 0.209204 0
M  V30 6102 H 690.784 3.15963 -1.34247 0
M  V30 6103 N 693.229 0.160201 1.56784 0
M  V30 6104 C 694.176 -0.774416 2.1742 0
M  V30 6105 C 695.146 -1.23483 1.11091 0
M  V30 6106 O 696.331 -1.30499 1.39193 0
M  V30 6107 C 693.471 -2.00283 2.81035 0
M  V30 6108 C 692.584 -1.58701 4.01793 0
M  V30 6109 C 691.719 -2.76824 4.53367 0
M  V30 6110 C 690.758 -2.31679 5.66561 0
M  V30 6111 N 689.895 -3.42856 6.12694 0
M  V30 6112 H 694.735 -0.250542 2.96945 0
M  V30 6113 H 692.272 -0.111943 1.46673 0
M  V30 6114 H 694.23 -2.72316 3.16069 0
M  V30 6115 H 692.86 -2.5006 2.04132 0
M  V30 6116 H 691.912 -0.76384 3.72652 0
M  V30 6117 H 693.224 -1.21555 4.83762 0
M  V30 6118 H 692.378 -3.57029 4.90525 0
M  V30 6119 H 691.117 -3.17223 3.70433 0
M  V30 6120 H 690.122 -1.49917 5.28966 0
M  V30 6121 H 691.347 -1.9235 6.5129 0
M  V30 6122 H 689.293 -3.82852 5.32692 0
M  V30 6123 H 689.21 -3.09767 6.89624 0
M  V30 6124 H 690.478 -4.23379 6.545 0
M  V30 6125 N 694.707 -1.5719 -0.113559 0
M  V30 6126 C 695.955 -1.84772 -0.818761 0
M  V30 6127 C 696.276 -0.746196 -1.80158 0
M  V30 6128 O 695.546 0.229305 -1.94553 0
M  V30 6129 H 694.126 -0.681737 -0.305359 0
M  V30 6130 H 696.788 -1.94645 -0.0995845 0
M  V30 6131 H 695.884 -2.80878 -1.36067 0
M  V30 6132 N 696.185 0.383891 -1.52853 0
M  V30 6133 C 697.095 1.49343 -1.80925 0
M  V30 6134 C 698.111 1.59458 -0.696348 0
M  V30 6135 O 699.287 1.75698 -0.984481 0
M  V30 6136 C 696.352 2.84819 -1.97684 0
M  V30 6137 C 695.413 2.84382 -3.21598 0
M  V30 6138 C 694.646 4.13397 -3.37548 0
M  V30 6139 O 694.869 5.08619 -2.58192 0
M  V30 6140 O 693.803 4.20325 -4.30826 0
M  V30 6141 H 697.629 1.2855 -2.75152 0
M  V30 6142 H 695.214 0.572229 -1.38007 0
M  V30 6143 H 697.096 3.65125 -2.10385 0
M  V30 6144 H 695.771 3.05627 -1.06647 0
M  V30 6145 H 694.678 2.0284 -3.14336 0
M  V30 6146 H 696.011 2.68526 -4.12498 0
M  V30 6147 N 697.663 1.43903 0.642637 0
M  V30 6148 C 699.074 1.40975 1.22404 0
M  V30 6149 C 699.425 0.1192 1.95838 0
M  V30 6150 O 698.55 -0.780939 2.01818 0
M  V30 6151 C 699.145 2.5538 2.22636 0
M  V30 6152 C 697.704 2.55684 2.76229 0
M  V30 6153 C 696.851 2.32556 1.51039 0
M  V30 6154 H 699.802 1.5265 0.434006 0
M  V30 6155 H 699.823 2.27474 3.05017 0
M  V30 6156 H 699.335 3.49294 1.69161 0
M  V30 6157 H 697.436 1.65679 3.33738 0
M  V30 6158 H 697.549 3.53799 3.23053 0
M  V30 6159 H 695.913 1.81427 1.78764 0
M  V30 6160 H 696.696 3.28569 0.99484 0
M  V30 6161 N 699.141 -0.881989 1.30609 0
M  V30 6162 C 700.389 -1.63082 1.19368 0
M  V30 6163 C 700.71 -1.93376 -0.251147 0
M  V30 6164 O 699.98 -1.5723 -1.16857 0
M  V30 6165 H 698.56 -0.604542 0.438791 0
M  V30 6166 H 701.222 -1.05658 1.63776 0
M  V30 6167 H 700.318 -2.57966 1.7567 0
M  V30 6168 N 700.619 -1.13374 -1.09472 0
M  V30 6169 C 702.03 -0.90801 -1.63132 0
M  V30 6170 C 702.381 0.555576 -1.8817 0
M  V30 6171 O 701.506 1.42218 -1.63104 0
M  V30 6172 C 702.101 -1.64182 -2.96361 0
M  V30 6173 C 700.66 -1.46197 -3.46848 0
M  V30 6174 C 699.807 -1.67134 -2.21273 0
M  V30 6175 H 702.758 -1.2871 -0.928411 0
M  V30 6176 H 702.779 -1.09863 -3.64294 0
M  V30 6177 H 702.291 -2.707 -2.78106 0
M  V30 6178 H 700.392 -0.419788 -3.70228 0
M  V30 6179 H 700.505 -2.22472 -4.24315 0
M  V30 6180 H 698.869 -1.09616 -2.29905 0
M  V30 6181 H 699.652 -2.74971 -2.05538 0
M  V30 6182 N 702.098 1.27442 -0.927168 0
M  V30 6183 C 703.061 2.2512 -0.430525 0
M  V30 6184 C 704.061 1.54357 0.450619 0
M  V30 6185 O 705.251 1.72371 0.251774 0
M  V30 6186 C 702.383 3.38763 0.381144 0
M  V30 6187 H 703.576 2.70569 -1.29354 0
M  V30 6188 H 701.129 1.39355 -0.707806 0
M  V30 6189 H 701.864 2.98695 1.263 0
M  V30 6190 H 701.649 3.91298 -0.250618 0
M  V30 6191 H 703.139 4.11364 0.719012 0
M  V30 6192 N 703.576 0.692616 1.41565 0
M  V30 6193 C 704.824 0.221896 2.00878 0
M  V30 6194 C 705.145 -1.18164 1.5512 0
M  V30 6195 O 704.415 -1.79679 0.78054 0
M  V30 6196 H 702.995 0.0790463 0.742806 0
M  V30 6197 H 705.657 0.893115 1.73232 0
M  V30 6198 H 704.753 0.23702 3.11199 0
M  V30 6199 N 705.054 -1.51416 0.437162 0
M  V30 6200 C 706.465 -1.86682 -0.0260005 0
M  V30 6201 C 706.816 -1.35432 -1.4196 0
M  V30 6202 O 705.941 -0.705055 -2.04592 0
M  V30 6203 C 706.536 -3.38757 -0.0539577 0
M  V30 6204 C 705.095 -3.7356 -0.461532 0
M  V30 6205 C 704.242 -2.75134 0.345924 0
M  V30 6206 H 707.193 -1.44642 0.653013 0
M  V30 6207 H 707.214 -3.70573 -0.863478 0
M  V30 6208 H 706.726 -3.76028 0.96045 0
M  V30 6209 H 704.827 -3.41878 -1.48155 0
M  V30 6210 H 704.94 -4.78737 -0.186451 0
M  V30 6211 H 703.304 -2.53947 -0.195739 0
M  V30 6212 H 704.087 -3.15247 1.35921 0
M  V30 6213 N 706.532 -0.168513 -1.56696 0
M  V30 6214 C 707.464 0.794249 -2.14998 0
M  V30 6215 C 708.477 1.1957 -1.10485 0
M  V30 6216 O 709.666 1.13604 -1.37682 0
M  V30 6217 C 706.766 2.08018 -2.67547 0
M  V30 6218 C 705.939 1.84274 -3.96689 0
M  V30 6219 C 704.998 2.97059 -4.3433 0
M  V30 6220 O 704.024 2.67815 -5.02259 0
M  V30 6221 N 705.226 4.24775 -3.9566 0
M  V30 6222 H 707.991 0.295832 -2.98236 0
M  V30 6223 H 705.552 0.0143611 -1.61894 0
M  V30 6224 H 707.544 2.82559 -2.89729 0
M  V30 6225 H 706.114 2.49059 -1.88914 0
M  V30 6226 H 705.334 0.936528 -3.82914 0
M  V30 6227 H 706.622 1.65773 -4.81037 0
M  V30 6228 H 706.02 4.51395 -3.40968 0
M  V30 6229 H 704.577 4.96027 -4.22848 0
M  V30 6230 N 708.01 1.57248 0.105221 0
M  V30 6231 C 709.258 1.85204 0.808951 0
M  V30 6232 C 709.579 0.75574 1.7976 0
M  V30 6233 O 708.849 -0.218984 1.94672 0
M  V30 6234 H 707.429 0.683346 0.301739 0
M  V30 6235 H 710.091 1.94695 0.0892605 0
M  V30 6236 H 709.187 2.81595 1.34575 0
M  V30 6237 N 709.488 -0.375779 1.53054 0
M  V30 6238 C 710.451 -1.44254 1.7811 0
M  V30 6239 C 711.451 -1.47018 0.651328 0
M  V30 6240 O 712.641 -1.47957 0.919472 0
M  V30 6241 C 709.773 -2.8345 1.89391 0
M  V30 6242 H 710.966 -1.23316 2.73374 0
M  V30 6243 H 708.519 -0.608312 1.43977 0
M  V30 6244 H 709.254 -3.09716 0.961589 0
M  V30 6245 H 709.039 -2.82844 2.71555 0
M  V30 6246 H 710.529 -3.60722 2.10404 0
M  V30 6247 N 710.966 -1.44241 -0.634997 0
M  V30 6248 C 712.377 -1.41622 -1.21655 0
M  V30 6249 C 712.728 -0.129584 -1.95772 0
M  V30 6250 O 711.853 0.770225 -2.02229 0
M  V30 6251 C 712.448 -2.56557 -2.21278 0
M  V30 6252 C 711.007 -2.57145 -2.7487 0
M  V30 6253 C 710.154 -2.33354 -1.49804 0
M  V30 6254 H 713.105 -1.52878 -0.425905 0
M  V30 6255 H 713.126 -2.29089 -3.03807 0
M  V30 6256 H 712.638 -3.50186 -1.67306 0
M  V30 6257 H 710.739 -1.67447 -3.32855 0
M  V30 6258 H 710.852 -3.55507 -3.21172 0
M  V30 6259 H 709.216 -1.82372 -1.77799 0
M  V30 6260 H 709.999 -3.29092 -0.977402 0
M  V30 6261 N 712.444 0.87505 -1.31075 0
M  V30 6262 C 713.692 1.62447 -1.20231 0
M  V30 6263 C 714.013 1.93506 0.240888 0
M  V30 6264 O 713.283 1.57847 1.16022 0
M  V30 6265 H 711.863 0.602207 -0.441991 0
M  V30 6266 H 714.525 1.04788 -1.64334 0
M  V30 6267 H 713.621 2.57031 -1.77036 0
M  V30 6268 N 713.922 1.13953 1.08869 0
M  V30 6269 C 715.333 0.916649 1.62648 0
M  V30 6270 C 715.684 -0.545589 1.88462 0
M  V30 6271 O 714.809 -1.41351 1.63856 0
M  V30 6272 C 715.404 1.65751 2.95486 0
M  V30 6273 C 713.963 1.48034 3.46068 0
M  V30 6274 C 713.11 1.68305 2.20383 0
M  V30 6275 H 716.061 1.292 0.921572 0
M  V30 6276 H 716.082 1.11794 3.63707 0
M  V30 6277 H 715.594 2.72171 2.76667 0
M  V30 6278 H 713.695 0.439416 3.7 0
M  V30 6279 H 713.808 2.24719 4.23129 0
M  V30 6280 H 712.172 1.10833 2.29321 0
M  V30 6281 H 712.955 2.76057 2.04077 0
M  V30 6282 N 715.4 -1.26948 0.933913 0
M  V30 6283 C 716.363 -2.24889 0.442457 0
M  V30 6284 C 717.363 -1.54594 -0.442426 0
M  V30 6285 O 718.553 -1.72502 -0.242629 0
M  V30 6286 C 715.685 -3.3896 -0.363173 0
M  V30 6287 H 716.878 -2.69879 1.30787 0
M  V30 6288 H 714.431 -1.38978 0.715187 0
M  V30 6289 H 715.166 -2.99361 -1.24714 0
M  V30 6290 H 714.951 -3.9116 0.271366 0
M  V30 6291 H 716.441 -4.11739 -0.697186 0
M  V30 6292 N 716.879 -0.700114 -1.41195 0
M  V30 6293 C 718.127 -0.232546 -2.00758 0
M  V30 6294 C 718.448 1.1734 -1.55745 0
M  V30 6295 O 717.718 1.79262 -0.790058 0
M  V30 6296 H 716.298 -0.0829845 -0.742376 0
M  V30 6297 H 718.96 -0.902289 -1.72756 0
M  V30 6298 H 718.056 -0.253521 -3.11069 0
M  V30 6299 N 718.357 1.51182 -0.445186 0
M  V30 6300 C 719.267 2.31692 0.368255 0
M  V30 6301 C 720.283 1.40942 1.02036 0
M  V30 6302 O 721.459 1.74011 1.01401 0
M  V30 6303 C 718.524 3.14903 1.45041 0
M  V30 6304 C 717.585 4.21442 0.817615 0
M  V30 6305 C 716.818 5.00677 1.8482 0
M  V30 6306 O 717.041 4.80644 3.07145 0
M  V30 6307 O 715.975 5.84559 1.43438 0
M  V30 6308 H 719.801 3.0232 -0.289219 0
M  V30 6309 H 717.386 1.47951 -0.207555 0
M  V30 6310 H 719.268 3.66612 2.07783 0
M  V30 6311 H 717.943 2.47031 2.09182 0
M  V30 6312 H 716.85 3.73791 0.151931 0
M  V30 6313 H 718.183 4.9171 0.219564 0
M  V30 6314 N 719.835 0.176821 1.56605 0
M  V30 6315 C 720.745 -0.763682 2.21822 0
M  V30 6316 C 721.761 -1.24889 1.21156 0
M  V30 6317 O 722.937 -1.29987 1.53836 0
M  V30 6318 C 720.002 -1.97352 2.8505 0
M  V30 6319 C 719.063 -1.53466 4.00932 0
M  V30 6320 C 718.296 -2.68682 4.61135 0
M  V30 6321 O 718.519 -3.85694 4.20234 0
M  V30 6322 O 717.453 -2.42442 5.50913 0
M  V30 6323 H 721.279 -0.238363 3.02763 0
M  V30 6324 H 718.864 -0.0516331 1.49311 0
M  V30 6325 H 720.746 -2.68096 3.25119 0
M  V30 6326 H 719.421 -2.48779 2.07101 0
M  V30 6327 H 718.328 -0.796551 3.65521 0
M  V30 6328 H 719.661 -1.06724 4.8049 0
M  V30 6329 N 721.313 -1.57302 -0.09688 0
M  V30 6330 C 722.561 -1.8563 -0.799117 0
M  V30 6331 C 722.882 -0.765263 -1.79356 0
M  V30 6332 O 722.152 0.208657 -1.94786 0
M  V30 6333 H 720.732 -0.684937 -0.298111 0
M  V30 6334 H 723.394 -1.9474 -0.0789341 0
M  V30 6335 H 722.49 -2.82305 -1.3308 0
M  V30 6336 N 722.791 0.367657 -1.53252 0
M  V30 6337 C 723.738 1.45028 -1.79543 0
M  V30 6338 C 724.708 1.53288 -0.63969 0
M  V30 6339 O 725.893 1.69209 -0.881653 0
M  V30 6340 C 723.033 2.82 -1.98923 0
M  V30 6341 C 722.146 2.82722 -3.26638 0
M  V30 6342 C 721.281 4.11257 -3.36216 0
M  V30 6343 C 720.32 4.06113 -4.57972 0
M  V30 6344 N 719.457 5.26293 -4.64715 0
M  V30 6345 H 724.297 1.21908 -2.71923 0
M  V30 6346 H 721.834 0.591011 -1.34705 0
M  V30 6347 H 723.792 3.61568 -2.08146 0
M  V30 6348 H 722.422 3.03523 -1.09881 0
M  V30 6349 H 721.474 1.95399 -3.26379 0
M  V30 6350 H 722.786 2.74794 -4.16281 0
M  V30 6351 H 721.94 4.99239 -3.44739 0
M  V30 6352 H 720.679 4.21935 -2.44586 0
M  V30 6353 H 719.684 3.16517 -4.49552 0
M  V30 6354 H 720.909 3.97039 -5.50942 0
M  V30 6355 H 718.855 5.37561 -3.75985 0
M  V30 6356 H 718.772 5.20526 -5.4826 0
M  V30 6357 H 720.04 6.16113 -4.77519 0
M  V30 6358 N 724.269 1.44576 0.627338 0
M  V30 6359 C 725.685 1.28546 0.945938 0
M  V30 6360 C 725.885 0.224003 2.00251 0
M  V30 6361 O 724.941 -0.388817 2.49488 0
M  V30 6362 C 726.254 2.65825 1.40561 0
M  V30 6363 C 727.802 2.73566 1.52088 0
M  V30 6364 C 728.277 4.11323 2.01438 0
M  V30 6365 N 729.768 4.13519 2.08702 0
M  V30 6366 C 730.503 5.16964 2.48065 0
M  V30 6367 N 729.999 6.30768 2.86538 0
M  V30 6368 N 731.792 5.04319 2.48232 0
M  V30 6369 H 723.943 2.1228 -0.0713567 0
M  V30 6370 H 726.206 0.947503 0.0307081 0
M  V30 6371 H 725.912 3.44591 0.703539 0
M  V30 6372 H 725.786 2.92969 2.37591 0
M  V30 6373 H 728.173 1.95116 2.21391 0
M  V30 6374 H 728.254 2.50159 0.534237 0
M  V30 6375 H 727.898 4.9025 1.32729 0
M  V30 6376 H 727.828 4.32109 3.0098 0
M  V30 6377 H 730.319 3.31385 1.81638 0
M  V30 6378 H 730.632 7.0551 3.15398 0
M  V30 6379 H 728.977 6.342 2.84281 0
M  V30 6380 H 732.168 4.14465 2.17569 0
M  V30 6381 H 732.341 5.85059 2.78585 0
M  V30 6382 N 725.747 -0.868086 1.31537 0
M  V30 6383 C 726.995 -1.61807 1.21091 0
M  V30 6384 C 727.316 -1.93631 -0.230623 0
M  V30 6385 O 726.586 -1.5846 -1.15183 0
M  V30 6386 H 725.166 -0.599854 0.445178 0
M  V30 6387 H 727.828 -1.03915 1.64887 0
M  V30 6388 H 726.924 -2.56088 1.78396 0
M  V30 6389 N 727.225 -1.14528 -1.08264 0
M  V30 6390 C 728.188 -0.83632 -2.13397 0
M  V30 6391 C 729.188 0.159715 -1.60005 0
M  V30 6392 O 730.378 -0.0688098 -1.74064 0
M  V30 6393 C 727.51 -0.246973 -3.40004 0
M  V30 6394 H 728.703 -1.76808 -2.42237 0
M  V30 6395 H 726.256 -0.951509 -1.24 0
M  V30 6396 H 726.991 0.693436 -3.168 0
M  V30 6397 H 726.776 -0.964412 -3.80055 0
M  V30 6398 H 728.266 -0.0480679 -4.17572 0
M  V30 6399 N 728.703 1.26451 -0.940633 0
M  V30 6400 C 730.119 1.4608 -0.642859 0
M  V30 6401 C 730.319 1.84765 0.803998 0
M  V30 6402 O 729.375 1.96902 1.58069 0
M  V30 6403 C 730.688 2.54359 -1.60381 0
M  V30 6404 C 732.236 2.6821 -1.61345 0
M  V30 6405 C 732.711 3.79659 -2.56169 0
M  V30 6406 N 734.202 3.87051 -2.54452 0
M  V30 6407 C 734.937 4.72739 -3.24507 0
M  V30 6408 N 734.433 5.6282 -4.03987 0
M  V30 6409 N 736.226 4.66581 -3.13462 0
M  V30 6410 H 728.377 0.996289 -1.87584 0
M  V30 6411 H 730.64 0.498921 -0.80609 0
M  V30 6412 H 730.346 2.32758 -2.6366 0
M  V30 6413 H 730.22 3.52005 -1.35545 0
M  V30 6414 H 732.607 2.89184 -0.587913 0
M  V30 6415 H 732.688 1.7101 -1.90235 0
M  V30 6416 H 732.332 3.59438 -3.58841 0
M  V30 6417 H 732.262 4.76315 -2.2457 0
M  V30 6418 H 734.753 3.22649 -1.96739 0
M  V30 6419 H 735.066 6.25095 -4.54396 0
M  V30 6420 H 733.411 5.62574 -4.08088 0
M  V30 6421 H 736.602 3.9521 -2.50852 0
M  V30 6422 H 736.775 5.33141 -3.68327 0
M  V30 6423 N 730.181 0.707592 1.40822 0
M  V30 6424 C 731.429 0.243189 2.00632 0
M  V30 6425 C 731.75 -1.16512 1.56365 0
M  V30 6426 O 731.02 -1.78841 0.799553 0
M  V30 6427 H 729.6 0.0869203 0.741926 0
M  V30 6428 H 732.262 0.911438 1.72275 0
M  V30 6429 H 731.358 0.270014 3.1093 0
M  V30 6430 N 731.66 -1.50943 0.453197 0
M  V30 6431 C 732.57 -2.31884 -0.355963 0
M  V30 6432 C 733.586 -1.41481 -1.01287 0
M  V30 6433 O 734.762 -1.74546 -1.00477 0
M  V30 6434 C 731.827 -3.15668 -1.43369 0
M  V30 6435 C 730.888 -4.2187 -0.795253 0
M  V30 6436 C 730.121 -5.0165 -1.82162 0
M  V30 6437 O 730.344 -4.82266 -3.04592 0
M  V30 6438 O 729.278 -5.85311 -1.40336 0
M  V30 6439 H 733.104 -3.02162 0.305248 0
M  V30 6440 H 730.689 -1.47839 0.215398 0
M  V30 6441 H 732.571 -3.67709 -2.05836 0
M  V30 6442 H 731.246 -2.48137 -2.07869 0
M  V30 6443 H 730.153 -3.73867 -0.132106 0
M  V30 6444 H 731.486 -4.9182 -0.193484 0
M  V30 6445 N 733.138 -0.185124 -1.56509 0
M  V30 6446 C 734.549 0.329221 -1.83774 0
M  V30 6447 C 734.9 1.62093 -1.10545 0
M  V30 6448 O 734.025 2.13334 -0.36298 0
M  V30 6449 C 734.62 0.604099 -3.33371 0
M  V30 6450 C 733.179 1.06284 -3.61083 0
M  V30 6451 C 732.326 0.10608 -2.77097 0
M  V30 6452 H 735.277 -0.409116 -1.53336 0
M  V30 6453 H 735.298 1.45458 -3.51599 0
M  V30 6454 H 734.81 -0.336201 -3.86641 0
M  V30 6455 H 732.911 2.01777 -3.13236 0
M  V30 6456 H 733.024 0.962453 -4.69333 0
M  V30 6457 H 731.388 0.606082 -2.47384 0
M  V30 6458 H 732.171 -0.828486 -3.33153 0
M  V30 6459 N 734.616 1.57351 0.0885366 0
M  V30 6460 C 735.864 1.86051 0.789262 0
M  V30 6461 C 736.185 0.774763 1.78948 0
M  V30 6462 O 735.455 -0.198324 1.94894 0
M  V30 6463 H 734.035 0.686508 0.294475 0
M  V30 6464 H 736.697 1.94779 0.0686055 0
M  V30 6465 H 735.793 2.83007 1.31581 0
M  V30 6466 N 736.094 -0.359525 1.53444 0
M  V30 6467 C 737.342 -1.09935 1.69584 0
M  V30 6468 C 737.663 -1.89656 0.453371 0
M  V30 6469 O 736.933 -1.8852 -0.53263 0
M  V30 6470 H 735.513 -0.408843 0.625185 0
M  V30 6471 H 738.175 -0.40467 1.90653 0
M  V30 6472 H 737.271 -1.78575 2.55964 0
M  V30 6473 N 737.572 -1.44907 -0.619662 0
M  V30 6474 C 738.818 -1.48512 -1.38102 0
M  V30 6475 C 739.151 -0.121686 -1.93818 0
M  V30 6476 O 738.426 0.862256 -1.74343 0
M  V30 6477 C 738.709 -2.55469 -2.53787 0
M  V30 6478 C 738.562 -4.01212 -2.03345 0
M  V30 6479 C 739.881 -2.58821 -3.55949 0
M  V30 6480 H 737 -0.540712 -0.500799 0
M  V30 6481 H 739.642 -1.7665 -0.69962 0
M  V30 6482 H 737.792 -2.31606 -3.11915 0
M  V30 6483 H 739.464 -4.36245 -1.49959 0
M  V30 6484 H 737.707 -4.12443 -1.34438 0
M  V30 6485 H 738.378 -4.71717 -2.86683 0
M  V30 6486 H 740.854 -2.80172 -3.07641 0
M  V30 6487 H 739.73 -3.35542 -4.34399 0
M  V30 6488 H 739.991 -1.63451 -4.10775 0
M  V30 6489 N 739.05 0.861098 -1.31996 0
M  V30 6490 C 740.298 1.61162 -1.21947 0
M  V30 6491 C 740.619 1.93751 0.220351 0
M  V30 6492 O 739.889 1.59069 1.14341 0
M  V30 6493 H 738.469 0.597485 -0.448353 0
M  V30 6494 H 741.131 1.03039 -1.65436 0
M  V30 6495 H 740.227 2.55138 -1.79752 0
M  V30 6496 N 740.528 1.15101 1.07655 0
M  V30 6497 C 741.939 0.933848 1.61667 0
M  V30 6498 C 742.29 -0.525569 1.8903 0
M  V30 6499 O 741.415 -1.39605 1.65346 0
M  V30 6500 C 742.01 1.68876 2.93711 0
M  V30 6501 C 740.569 1.51697 3.44478 0
M  V30 6502 C 739.716 1.70633 2.18586 0
M  V30 6503 H 742.667 1.30171 0.907816 0
M  V30 6504 H 742.688 1.15645 3.625 0
M  V30 6505 H 742.2 2.7509 2.73764 0
M  V30 6506 H 740.301 0.478635 3.69513 0
M  V30 6507 H 740.414 2.29194 4.20722 0
M  V30 6508 H 738.778 1.13259 2.28132 0
M  V30 6509 H 739.561 2.78206 2.01137 0
M  V30 6510 N 742.006 -1.2595 0.947325 0
M  V30 6511 C 743.255 -1.92759 0.593887 0
M  V30 6512 C 743.568 -1.75083 -0.872093 0
M  V30 6513 O 744.774 -2.36401 -1.33518 0
M  V30 6514 C 743.23 -3.45395 1.01144 0
M  V30 6515 C 742.838 -3.71795 2.49946 0
M  V30 6516 C 744.582 -4.18173 0.730185 0
M  V30 6517 C 742.489 -5.17901 2.85539 0
M  V30 6518 H 741.419 -0.721676 0.218403 0
M  V30 6519 H 744.07 -1.4293 1.15079 0
M  V30 6520 H 742.452 -3.94143 0.383007 0
M  V30 6521 H 743.626 -3.33728 3.17746 0
M  V30 6522 H 741.941 -3.12263 2.75465 0
M  V30 6523 H 744.538 -5.25784 0.972367 0
M  V30 6524 H 744.881 -4.14964 -0.333223 0
M  V30 6525 H 745.414 -3.75309 1.31862 0
M  V30 6526 H 742.153 -5.26216 3.90867 0
M  V30 6527 H 741.673 -5.57042 2.22406 0
M  V30 6528 H 743.352 -5.8596 2.74336 0
M  V30 6529 N 743.484 -0.715051 -1.40445 0
M  V30 6530 C 744.732 -0.253826 -2.005 0
M  V30 6531 C 745.053 1.15681 -1.5698 0
M  V30 6532 O 744.323 1.78414 -0.809027 0
M  V30 6533 H 742.903 -0.0908537 -0.741454 0
M  V30 6534 H 745.565 -0.920561 -1.7179 0
M  V30 6535 H 744.661 -0.286499 -3.10782 0
M  V30 6536 N 744.962 1.50701 -0.461195 0
M  V30 6537 C 746.373 1.867 -0.00370227 0
M  V30 6538 C 746.724 1.37673 1.39787 0
M  V30 6539 O 745.849 0.737515 2.03445 0
M  V30 6540 C 746.444 3.388 5.75786e-05 0
M  V30 6541 C 745.003 3.74247 0.402044 0
M  V30 6542 C 744.15 2.74549 -0.389652 0
M  V30 6543 H 747.101 1.43585 -0.675942 0
M  V30 6544 H 747.122 3.719 0.804414 0
M  V30 6545 H 746.634 3.74452 -1.02015 0
M  V30 6546 H 744.735 3.44192 1.42697 0
M  V30 6547 H 744.848 4.78973 0.110265 0
M  V30 6548 H 743.212 2.54226 0.155314 0
M  V30 6549 H 743.995 3.13044 -1.40919 0
M  V30 6550 N 746.441 0.193421 1.56409 0
M  V30 6551 C 747.852 -0.319471 1.83946 0
M  V30 6552 C 748.203 -1.61505 1.11403 0
M  V30 6553 O 747.328 -2.13139 0.374289 0
M  V30 6554 C 747.923 -0.586411 3.33686 0
M  V30 6555 C 746.482 -1.04368 3.61641 0
M  V30 6556 C 745.629 -0.0913834 2.77149 0
M  V30 6557 H 748.58 0.417242 1.53117 0
M  V30 6558 H 748.601 -1.43591 3.52366 0
M  V30 6559 H 748.113 0.356701 3.86457 0
M  V30 6560 H 746.214 -2.00113 3.14302 0
M  V30 6561 H 746.327 -0.937549 4.69837 0
M  V30 6562 H 744.691 -0.592954 2.47702 0
M  V30 6563 H 745.474 0.846142 3.32709 0
M  V30 6564 N 747.919 -1.57396 -0.0801906 0
M  V30 6565 C 749.167 -1.86467 -0.779384 0
M  V30 6566 C 749.488 -0.784243 -1.78535 0
M  V30 6567 O 748.758 0.187986 -1.94996 0
M  V30 6568 H 747.338 -0.68806 -0.29083 0
M  V30 6569 H 750 -1.94813 -0.0582749 0
M  V30 6570 H 749.096 -2.83701 -1.30078 0
M  V30 6571 N 749.397 0.351382 -1.53633 0
M  V30 6572 C 750.307 1.45471 -1.84052 0
M  V30 6573 C 751.323 1.57945 -0.730015 0
M  V30 6574 O 752.499 1.73571 -1.02153 0
M  V30 6575 C 749.564 2.80562 -2.03681 0
M  V30 6576 C 748.625 2.77497 -3.27558 0
M  V30 6577 C 747.858 4.06144 -3.46241 0
M  V30 6578 O 748.081 5.03028 -2.68922 0
M  V30 6579 O 747.015 4.11092 -4.39645 0
M  V30 6580 H 750.841 1.22684 -2.77817 0
M  V30 6581 H 748.426 0.542827 -1.3919 0
M  V30 6582 H 750.308 3.6058 -2.18082 0
M  V30 6583 H 748.983 3.03296 -1.13106 0
M  V30 6584 H 747.89 1.96126 -3.18568 0
M  V30 6585 H 749.223 2.59716 -4.18101 0
M  V30 6586 N 750.875 1.45233 0.611969 0
M  V30 6587 C 752.291 1.29542 0.932251 0
M  V30 6588 C 752.491 0.24523 2.00002 0
M  V30 6589 O 751.547 -0.362333 2.49887 0
M  V30 6590 C 752.86 2.67301 1.37733 0
M  V30 6591 C 754.408 2.75163 1.49178 0
M  V30 6592 C 754.883 4.13437 1.97064 0
M  V30 6593 N 756.374 4.15709 2.04304 0
M  V30 6594 C 757.109 5.19566 2.42568 0
M  V30 6595 N 756.605 6.33771 2.79832 0
M  V30 6596 N 758.398 5.06923 2.42869 0
M  V30 6597 H 750.549 2.12192 -0.0938679 0
M  V30 6598 H 752.812 0.947775 0.0206569 0
M  V30 6599 H 752.518 3.45318 0.666951 0
M  V30 6600 H 752.392 2.95472 2.3447 0
M  V30 6601 H 754.779 1.97453 2.19309 0
M  V30 6602 H 754.86 2.50712 0.507674 0
M  V30 6603 H 754.504 4.91631 1.27521 0
M  V30 6604 H 754.434 4.35277 2.9638 0
M  V30 6605 H 756.925 3.33293 1.78113 0
M  V30 6606 H 757.238 7.08815 3.07898 0
M  V30 6607 H 755.583 6.37179 2.77538 0
M  V30 6608 H 758.774 4.1675 2.1316 0
M  V30 6609 H 758.947 5.87981 2.72364 0
M  V30 6610 N 752.353 -0.854086 1.3245 0
M  V30 6611 C 753.601 -1.60513 1.228 0
M  V30 6612 C 753.922 -1.93865 -0.210073 0
M  V30 6613 O 753.192 -1.59673 -1.13496 0
M  V30 6614 H 751.772 -0.595099 0.451516 0
M  V30 6615 H 754.434 -1.0216 1.6598 0
M  V30 6616 H 753.53 -2.54182 1.81102 0
M  V30 6617 N 753.831 -1.1567 -1.07043 0
M  V30 6618 C 754.794 -0.858906 -2.12498 0
M  V30 6619 C 755.794 0.142735 -1.60165 0
M  V30 6620 O 756.984 -0.0872678 -1.73981 0
M  V30 6621 C 754.116 -0.283021 -3.39723 0
M  V30 6622 H 755.309 -1.79368 -2.40348 0
M  V30 6623 H 752.862 -0.964608 -1.22984 0
M  V30 6624 H 753.597 0.659796 -3.17517 0
M  V30 6625 H 753.382 -1.00467 -3.7901 0
M  V30 6626 H 754.872 -0.0923543 -4.17498 0
M  V30 6627 N 755.309 1.25446 -0.953992 0
M  V30 6628 C 756.72 1.75047 -0.649255 0
M  V30 6629 C 757.071 1.77527 0.835385 0
M  V30 6630 O 756.196 1.39569 1.65377 0
M  V30 6631 C 756.791 3.17889 -1.17183 0
M  V30 6632 C 755.35 3.65052 -0.917267 0
M  V30 6633 C 754.497 2.44124 -1.31525 0
M  V30 6634 H 757.448 1.11342 -1.13087 0
M  V30 6635 H 757.469 3.76768 -0.531616 0
M  V30 6636 H 756.981 3.16052 -2.25239 0
M  V30 6637 H 755.082 3.72305 0.148354 0
M  V30 6638 H 755.195 4.53222 -1.55328 0
M  V30 6639 H 753.559 2.43906 -0.733624 0
M  V30 6640 H 754.342 2.44979 -2.405 0
M  V30 6641 N 756.787 0.722489 1.40064 0
M  V30 6642 C 758.035 0.264455 2.00362 0
M  V30 6643 C 758.356 -1.14847 1.57592 0
M  V30 6644 O 757.626 -1.77982 0.818477 0
M  V30 6645 H 756.206 0.0947846 0.740962 0
M  V30 6646 H 758.868 0.929659 1.71299 0
M  V30 6647 H 757.964 0.302977 3.10626 0
M  V30 6648 N 758.265 -1.50454 0.469181 0
M  V30 6649 C 759.213 -2.30101 -0.340033 0
M  V30 6650 C 760.207 -1.37306 -0.992135 0
M  V30 6651 O 761.413 -1.54506 -0.923458 0
M  V30 6652 H 757.788 -0.740941 -0.128495 0
M  V30 6653 H 759.759 -2.96315 0.352144 0
M  V30 6654 C 758.508 -3.17804 -1.41052 0
M  V30 6655 H 757.831 -3.89115 -0.918124 0
M  V30 6656 H 759.271 -3.76533 -1.94934 0
M  V30 6657 C 757.73 -2.35272 -2.4114 0
M  V30 6658 O 758.26 -2.03448 -3.4637 0
M  V30 6659 N 756.466 -1.97889 -2.1281 0
M  V30 6660 H 756.013 -2.2397 -1.27261 0
M  V30 6661 H 755.971 -1.42971 -2.80012 0
M  V30 6662 N 759.743 -0.201713 -1.56304 0
M  V30 6663 C 761.159 0.154025 -1.58855 0
M  V30 6664 C 761.359 1.60516 -1.21807 0
M  V30 6665 O 760.415 2.34193 -0.94393 0
M  V30 6666 C 761.728 -0.154319 -3.00304 0
M  V30 6667 C 763.276 -0.0949578 -3.12856 0
M  V30 6668 C 763.751 -0.376703 -4.56448 0
M  V30 6669 N 765.242 -0.325558 -4.62054 0
M  V30 6670 C 765.977 -0.51732 -5.71062 0
M  V30 6671 N 765.473 -0.769789 -6.8851 0
M  V30 6672 N 767.266 -0.45112 -5.60287 0
M  V30 6673 H 759.417 -1.14858 -1.78666 0
M  V30 6674 H 761.68 -0.458934 -0.829508 0
M  V30 6675 H 761.386 -1.16074 -3.31994 0
M  V30 6676 H 761.26 0.540014 -3.73314 0
M  V30 6677 H 763.647 0.902075 -2.80974 0
M  V30 6678 H 763.728 -0.822468 -2.42217 0
M  V30 6679 H 763.372 -1.37108 -4.89044 0
M  V30 6680 H 763.302 0.371772 -5.25286 0
M  V30 6681 H 765.793 -0.137308 -3.7765 0
M  V30 6682 H 766.106 -0.904744 -7.67486 0
M  V30 6683 H 764.451 -0.806758 -6.90302 0
M  V30 6684 H 767.642 -0.254253 -4.67409 0
M  V30 6685 H 767.815 -0.603982 -6.45179 0
M  V30 6686 N 761.222 1.57436 0.0718424 0
M  V30 6687 C 762.47 1.86878 0.769484 0
M  V30 6688 C 762.791 0.7937 1.78116 0
M  V30 6689 O 762.061 -0.177642 1.95093 0
M  V30 6690 H 760.641 0.689593 0.287177 0
M  V30 6691 H 763.303 1.94841 0.0479427 0
M  V30 6692 H 762.399 2.84387 1.28572 0
M  V30 6693 N 762.7 -0.34323 1.53817 0
M  V30 6694 C 763.947 -1.08344 1.71079 0
M  V30 6695 C 764.275 -1.88633 0.474133 0
M  V30 6696 O 763.53 -1.87984 -0.544116 0
M  V30 6697 C 763.829 -2.05195 2.92626 0
M  V30 6698 C 763.495 -1.41215 4.28216 0
M  V30 6699 C 762.157 -1.23495 4.65083 0
M  V30 6700 C 764.509 -0.951273 5.12445 0
M  V30 6701 C 761.837 -0.583065 5.83796 0
M  V30 6702 C 764.189 -0.313292 6.31824 0
M  V30 6703 C 762.853 -0.123779 6.67385 0
M  V30 6704 H 762.123 -0.396458 0.626021 0
M  V30 6705 H 764.77 -0.362689 1.88034 0
M  V30 6706 H 763.075 -2.83653 2.70275 0
M  V30 6707 H 764.772 -2.62462 3.03175 0
M  V30 6708 H 761.362 -1.56005 3.992 0
M  V30 6709 H 765.546 -1.07602 4.84495 0
M  V30 6710 H 760.802 -0.424854 6.09922 0
M  V30 6711 H 764.976 0.0519179 6.96381 0
M  V30 6712 H 762.603 0.383398 7.59233 0
M  V30 6713 N 764.178 -1.45556 -0.604258 0
M  V30 6714 C 765.589 -1.44171 -1.18624 0
M  V30 6715 C 765.94 -0.171081 -1.95453 0
M  V30 6716 O 765.065 0.727156 -2.03817 0
M  V30 6717 C 765.66 -2.61193 -2.15786 0
M  V30 6718 C 764.219 -2.62918 -2.69353 0
M  V30 6719 C 763.366 -2.36479 -1.4482 0
M  V30 6720 H 766.317 -1.53747 -0.393381 0
M  V30 6721 H 766.338 -2.35481 -2.98879 0
M  V30 6722 H 765.85 -3.53656 -1.59841 0
M  V30 6723 H 763.951 -1.7447 -3.29228 0
M  V30 6724 H 764.064 -3.6224 -3.13559 0
M  V30 6725 H 762.428 -1.86103 -1.73891 0
M  V30 6726 H 763.211 -3.31091 -0.907376 0
M  V30 6727 N 765.656 0.84705 -1.32902 0
M  V30 6728 C 766.904 1.5986 -1.2365 0
M  V30 6729 C 767.225 1.93974 0.199789 0
M  V30 6730 O 766.495 1.60273 1.12648 0
M  V30 6731 H 765.075 0.592696 -0.454665 0
M  V30 6732 H 767.737 1.01278 -1.66519 0
M  V30 6733 H 766.833 2.53218 -1.82448 0
M  V30 6734 N 767.134 1.16236 1.06428 0
M  V30 6735 C 768.066 0.825446 2.1382 0
M  V30 6736 C 769.079 -0.166707 1.61944 0
M  V30 6737 O 770.268 0.0578606 1.78406 0
M  V30 6738 C 767.368 0.208023 3.38261 0
M  V30 6739 C 766.541 1.23994 4.19457 0
M  V30 6740 C 765.6 0.642569 5.22262 0
M  V30 6741 O 764.626 1.31106 5.53895 0
M  V30 6742 N 765.828 -0.571327 5.77682 0
M  V30 6743 H 768.593 1.7497 2.43322 0
M  V30 6744 H 766.154 1.05951 1.22417 0
M  V30 6745 H 768.146 -0.204608 4.04182 0
M  V30 6746 H 766.716 -0.619752 3.06395 0
M  V30 6747 H 765.936 1.82879 3.49212 0
M  V30 6748 H 767.224 1.93638 4.70512 0
M  V30 6749 H 766.622 -1.13263 5.54245 0
M  V30 6750 H 765.179 -0.926187 6.45186 0
M  V30 6751 N 768.612 -1.24939 0.960631 0
M  V30 6752 C 769.889 -1.88118 0.535807 0
M  V30 6753 C 770.269 -1.86605 -0.987009 0
M  V30 6754 O 769.617 -1.33375 -1.85536 0
M  V30 6755 C 769.827 -3.30565 1.11927 0
M  V30 6756 C 771.175 -4.07296 1.19981 0
M  V30 6757 O 772.199 -3.39709 1.07126 0
M  V30 6758 O 771.058 -5.28206 1.40218 0
M  V30 6759 H 768.152 -0.807698 0.177631 0
M  V30 6760 H 770.698 -1.32964 1.05445 0
M  V30 6761 H 769.47 -3.26128 2.16231 0
M  V30 6762 H 769.093 -3.93284 0.584245 0
M  V30 6763 N 770.09 -0.729906 -1.39679 0
M  V30 6764 C 771.338 -0.275077 -2.00219 0
M  V30 6765 C 771.659 1.1401 -1.58199 0
M  V30 6766 O 770.929 1.77546 -0.827904 0
M  V30 6767 H 769.509 -0.0987127 -0.740449 0
M  V30 6768 H 772.171 -0.93873 -1.70804 0
M  V30 6769 H 771.267 -0.319446 -3.10461 0
M  V30 6770 N 771.568 1.50203 -0.477153 0
M  V30 6771 C 772.498 2.31517 0.303646 0
M  V30 6772 C 773.479 1.38696 0.984753 0
M  V30 6773 O 774.664 1.67615 0.980758 0
M  V30 6774 C 771.794 3.18598 1.38249 0
M  V30 6775 C 770.748 4.2002 0.822645 0
M  V30 6776 C 770.074 4.95878 2.00024 0
M  V30 6777 C 771.374 5.22023 -0.170185 0
M  V30 6778 H 773.068 2.97042 -0.375027 0
M  V30 6779 H 770.614 1.42848 -0.181802 0
M  V30 6780 H 772.567 3.74282 1.93625 0
M  V30 6781 H 771.291 2.5097 2.09002 0
M  V30 6782 H 769.95 3.65445 0.290813 0
M  V30 6783 H 769.598 4.24717 2.69489 0
M  V30 6784 H 769.298 5.64487 1.63183 0
M  V30 6785 H 770.822 5.54399 2.55878 0
M  V30 6786 H 772.236 5.72543 0.294606 0
M  V30 6787 H 770.633 5.98386 -0.453181 0
M  V30 6788 H 771.703 4.72396 -1.09408 0
M  V30 6789 N 773.046 0.209999 1.56195 0
M  V30 6790 C 774.009 -0.691232 2.18528 0
M  V30 6791 C 775.009 -1.13013 1.14388 0
M  V30 6792 O 776.199 -1.04081 1.39688 0
M  V30 6793 C 773.331 -1.94551 2.79934 0
M  V30 6794 H 774.524 -0.147953 2.99535 0
M  V30 6795 H 772.077 -0.0396243 1.5625 0
M  V30 6796 H 772.812 -2.53094 2.02766 0
M  V30 6797 H 772.597 -1.63938 3.56184 0
M  V30 6798 H 774.087 -2.58785 3.2775 0
M  V30 6799 N 774.524 -1.57472 -0.0634922 0
M  V30 6800 C 775.772 -1.87283 -0.759563 0
M  V30 6801 C 776.093 -0.803135 -1.77693 0
M  V30 6802 O 775.363 0.167293 -1.95184 0
M  V30 6803 H 773.943 -0.691106 -0.283516 0
M  V30 6804 H 776.605 -1.94864 -0.0376091 0
M  V30 6805 H 775.701 -2.85064 -1.27062 0
M  V30 6806 N 776.003 0.335068 -1.53997 0
M  V30 6807 C 777.414 0.910191 -1.6301 0
M  V30 6808 C 777.765 1.89271 -0.516809 0
M  V30 6809 O 776.89 2.13516 0.352123 0
M  V30 6810 C 777.485 1.65761 -2.9548 0
M  V30 6811 C 776.044 2.18163 -3.06728 0
M  V30 6812 C 775.191 1.00338 -2.5851 0
M  V30 6813 H 778.142 0.112965 -1.58297 0
M  V30 6814 H 778.163 2.52107 -2.84995 0
M  V30 6815 H 777.675 0.94227 -3.76488 0
M  V30 6816 H 775.776 2.92847 -2.30372 0
M  V30 6817 H 775.889 2.43952 -4.1234 0
M  V30 6818 H 774.253 1.37925 -2.14124 0
M  V30 6819 H 775.036 0.30254 -3.41964 0
M  V30 6820 N 777.481 1.45874 0.596531 0
M  V30 6821 C 778.428 1.55389 1.70655 0
M  V30 6822 C 779.398 0.399036 1.61236 0
M  V30 6823 O 780.583 0.61396 1.80652 0
M  V30 6824 C 777.723 1.53705 3.0898 0
M  V30 6825 C 776.836 2.79823 3.29125 0
M  V30 6826 C 775.971 2.69735 4.5762 0
M  V30 6827 C 775.01 3.90856 4.71061 0
M  V30 6828 N 774.147 3.79237 5.90867 0
M  V30 6829 H 778.987 2.50211 1.61859 0
M  V30 6830 H 776.524 1.24146 0.789069 0
M  V30 6831 H 778.482 1.50715 3.89026 0
M  V30 6832 H 777.112 0.624247 3.16706 0
M  V30 6833 H 776.164 2.92852 2.42779 0
M  V30 6834 H 777.476 3.69628 3.34927 0
M  V30 6835 H 776.63 2.64773 5.45875 0
M  V30 6836 H 775.369 1.77547 4.54234 0
M  V30 6837 H 774.374 3.96164 3.81227 0
M  V30 6838 H 775.599 4.84124 4.76236 0
M  V30 6839 H 773.545 2.89825 5.88504 0
M  V30 6840 H 773.462 4.62686 5.97877 0
M  V30 6841 H 774.73 3.78227 6.8159 0
M  V30 6842 N 778.959 -0.83999 1.33349 0
M  V30 6843 C 780.207 -1.59202 1.24496 0
M  V30 6844 C 780.528 -1.94077 -0.189499 0
M  V30 6845 O 779.798 -1.60868 -1.11796 0
M  V30 6846 H 778.378 -0.590276 0.457802 0
M  V30 6847 H 781.04 -1.00394 1.67054 0
M  V30 6848 H 780.136 -2.52247 1.83788 0
M  V30 6849 N 780.437 -1.16799 -1.0581 0
M  V30 6850 C 781.4 -0.881396 -2.11575 0
M  V30 6851 C 782.4 0.12574 -1.60308 0
M  V30 6852 O 783.59 -0.105716 -1.73879 0
M  V30 6853 C 780.722 -0.319037 -3.39404 0
M  V30 6854 H 781.915 -1.81907 -2.38432 0
M  V30 6855 H 779.468 -0.977597 -1.21954 0
M  V30 6856 H 780.203 0.626082 -3.18199 0
M  V30 6857 H 779.988 -1.04481 -3.77923 0
M  V30 6858 H 781.478 -0.13663 -4.17376 0
M  V30 6859 N 781.915 1.24427 -0.967243 0
M  V30 6860 C 783.326 1.74349 -0.667785 0
M  V30 6861 C 783.677 1.78403 0.816509 0
M  V30 6862 O 782.802 1.41315 1.63887 0
M  V30 6863 C 783.397 3.16628 -1.20548 0
M  V30 6864 C 781.956 3.64059 -0.955934 0
M  V30 6865 C 781.103 2.42715 -1.34106 0
M  V30 6866 H 784.054 1.10136 -1.14262 0
M  V30 6867 H 784.075 3.76183 -0.571547 0
M  V30 6868 H 783.587 3.13646 -2.28578 0
M  V30 6869 H 781.688 3.72441 0.108858 0
M  V30 6870 H 781.801 4.51549 -1.60126 0
M  V30 6871 H 780.165 2.43114 -0.759452 0
M  V30 6872 H 780.948 2.42414 -2.43085 0
M  V30 6873 N 783.393 0.737304 1.3929 0
M  V30 6874 C 784.641 0.285691 2.00071 0
M  V30 6875 C 784.962 -1.13169 1.58801 0
M  V30 6876 O 784.232 -1.77104 0.837308 0
M  V30 6877 H 782.812 0.102638 0.739915 0
M  V30 6878 H 785.474 0.947775 1.70303 0
M  V30 6879 H 784.57 0.335906 3.10287 0
M  V30 6880 N 784.871 -1.49948 0.485112 0
M  V30 6881 C 785.781 -2.32587 -0.306697 0
M  V30 6882 C 786.797 -1.43598 -0.982632 0
M  V30 6883 O 787.973 -1.76638 -0.967519 0
M  V30 6884 C 785.038 -3.18638 -1.3664 0
M  V30 6885 C 784.099 -4.23462 -0.705589 0
M  V30 6886 C 783.332 -5.05401 -1.7148 0
M  V30 6887 O 783.555 -4.88618 -2.94293 0
M  V30 6888 O 782.489 -5.88157 -1.27889 0
M  V30 6889 H 786.315 -3.01447 0.369272 0
M  V30 6890 H 783.9 -1.47349 0.246709 0
M  V30 6891 H 785.782 -3.71992 -1.9799 0
M  V30 6892 H 784.457 -2.52491 -2.02559 0
M  V30 6893 H 783.364 -3.74063 -0.0527733 0
M  V30 6894 H 784.697 -4.92119 -0.0891187 0
M  V30 6895 N 786.349 -0.21828 -1.56081 0
M  V30 6896 C 787.765 0.137168 -1.59009 0
M  V30 6897 C 787.965 1.59215 -1.23503 0
M  V30 6898 O 787.021 2.33178 -0.968716 0
M  V30 6899 C 788.334 -0.186162 -3.00123 0
M  V30 6900 C 789.882 -0.128135 -3.12738 0
M  V30 6901 C 790.357 -0.425094 -4.56023 0
M  V30 6902 N 791.848 -0.374547 -4.61683 0
M  V30 6903 C 792.583 -0.57786 -5.70481 0
M  V30 6904 N 792.079 -0.842771 -6.87655 0
M  V30 6905 N 793.872 -0.510521 -5.59777 0
M  V30 6906 H 786.023 -1.16746 -1.77437 0
M  V30 6907 H 788.286 -0.467706 -0.824594 0
M  V30 6908 H 787.992 -1.19589 -3.30744 0
M  V30 6909 H 787.866 0.500388 -3.73866 0
M  V30 6910 H 790.253 0.872224 -2.81915 0
M  V30 6911 H 790.334 -0.848112 -2.41331 0
M  V30 6912 H 789.978 -1.42288 -4.87562 0
M  V30 6913 H 789.908 0.316038 -5.25651 0
M  V30 6914 H 792.399 -0.177356 -3.77484 0
M  V30 6915 H 792.712 -0.986095 -7.66483 0
M  V30 6916 H 791.057 -0.879929 -6.89407 0
M  V30 6917 H 794.248 -0.303813 -4.67113 0
M  V30 6918 H 794.421 -0.672378 -6.44502 0
M  V30 6919 N 787.827 1.57504 0.0551401 0
M  V30 6920 C 789.075 1.87684 0.74962 0
M  V30 6921 C 789.396 0.812547 1.77264 0
M  V30 6922 O 788.666 -0.15694 1.9527 0
M  V30 6923 H 787.246 0.6926 0.279846 0
M  V30 6924 H 789.908 1.94881 0.0272745 0
M  V30 6925 H 789.004 2.85734 1.25548 0
M  V30 6926 N 789.305 -0.326896 1.54172 0
M  V30 6927 C 790.716 -0.901533 1.63491 0
M  V30 6928 C 791.067 -1.88994 0.52684 0
M  V30 6929 O 790.192 -2.137 -0.340794 0
M  V30 6930 C 790.787 -1.64192 2.96355 0
M  V30 6931 C 789.346 -2.16533 3.07881 0
M  V30 6932 C 788.493 -0.98966 2.59039 0
M  V30 6933 H 791.444 -0.104568 1.58355 0
M  V30 6934 H 791.465 -2.50592 2.86328 0
M  V30 6935 H 790.977 -0.922291 3.76982 0
M  V30 6936 H 789.078 -2.91622 2.31922 0
M  V30 6937 H 789.191 -2.41762 4.13628 0
M  V30 6938 H 787.555 -1.36787 2.14852 0
M  V30 6939 H 788.338 -0.284401 3.4212 0
M  V30 6940 N 790.784 -1.46188 -0.588786 0
M  V30 6941 C 792.009 -1.5498 -1.37826 0
M  V30 6942 C 792.434 -0.189498 -1.87143 0
M  V30 6943 O 791.792 0.829293 -1.61222 0
M  V30 6944 C 791.84 -2.55369 -2.54596 0
M  V30 6945 O 790.944 -2.08452 -3.55839 0
M  V30 6946 H 790.285 -0.521741 -0.41071 0
M  V30 6947 H 792.815 -1.91708 -0.714779 0
M  V30 6948 H 792.825 -2.74782 -3.01594 0
M  V30 6949 H 791.5 -3.54155 -2.18052 0
M  V30 6950 H 790.077 -1.98999 -3.15363 0
M  V30 6951 N 792.262 0.832906 -1.33792 0
M  V30 6952 C 793.51 1.58539 -1.25338 0
M  V30 6953 C 793.831 1.94175 0.179204 0
M  V30 6954 O 793.101 1.61458 1.10941 0
M  V30 6955 H 791.681 0.58784 -0.460926 0
M  V30 6956 H 794.343 0.995064 -1.67584 0
M  V30 6957 H 793.439 2.51268 -1.85123 0
M  V30 6958 N 793.74 1.17359 1.05189 0
M  V30 6959 C 794.67 0.91365 2.14883 0
M  V30 6960 C 795.651 -0.144365 1.69486 0
M  V30 6961 O 796.836 0.00587861 1.94199 0
M  V30 6962 C 793.966 0.426196 3.44675 0
M  V30 6963 C 792.92 1.4234 4.03638 0
M  V30 6964 C 792.246 0.793902 5.28773 0
M  V30 6965 C 793.546 2.7966 4.41121 0
M  V30 6966 H 795.24 1.831 2.36885 0
M  V30 6967 H 792.786 0.881781 1.13845 0
M  V30 6968 H 794.739 0.231767 4.20762 0
M  V30 6969 H 793.463 -0.526693 3.22325 0
M  V30 6970 H 792.122 1.60457 3.2962 0
M  V30 6971 H 791.77 -0.165824 5.02727 0
M  V30 6972 H 791.47 1.45959 5.69183 0
M  V30 6973 H 792.994 0.609747 6.07548 0
M  V30 6974 H 794.408 2.6526 5.08242 0
M  V30 6975 H 792.805 3.42807 4.92548 0
M  V30 6976 H 793.875 3.34068 3.51464 0
M  V30 6977 N 795.218 -1.23913 0.973828 0
M  V30 6978 C 796.181 -2.23367 0.51378 0
M  V30 6979 C 797.181 -1.55923 -0.39302 0
M  V30 6980 O 798.371 -1.73187 -0.187626 0
M  V30 6981 C 795.503 -3.39944 -0.255152 0
M  V30 6982 H 796.696 -2.65581 1.39307 0
M  V30 6983 H 794.249 -1.36632 0.759039 0
M  V30 6984 H 794.984 -3.03177 -1.15127 0
M  V30 6985 H 794.769 -3.90098 0.395673 0
M  V30 6986 H 796.259 -4.13749 -0.565842 0
M  V30 6987 N 796.696 -0.74468 -1.38897 0
M  V30 6988 C 797.944 -0.296298 -1.99916 0
M  V30 6989 C 798.265 1.12325 -1.59399 0
M  V30 6990 O 797.535 1.76658 -0.846689 0
M  V30 6991 H 796.115 -0.106561 -0.73936 0
M  V30 6992 H 798.777 -0.956793 -1.69798 0
M  V30 6993 H 797.873 -0.352356 -3.10105 0
M  V30 6994 N 798.174 1.49689 -0.493057 0
M  V30 6995 C 799.585 1.8665 -0.0433032 0
M  V30 6996 C 799.936 1.40607 1.36836 0
M  V30 6997 O 799.061 0.780503 2.01834 0
M  V30 6998 C 799.656 3.38724 -0.0718069 0
M  V30 6999 C 798.215 3.75015 0.32257 0
M  V30 7000 C 797.362 2.7366 -0.4478 0
M  V30 7001 H 800.313 1.42119 -0.706246 0
M  V30 7002 H 800.334 3.73522 0.725347 0
M  V30 7003 H 799.846 3.72204 -1.09935 0
M  V30 7004 H 797.947 3.47142 1.35364 0
M  V30 7005 H 798.06 4.79099 0.00864259 0
M  V30 7006 H 796.424 2.54498 0.101354 0
M  V30 7007 H 797.207 3.09985 -1.47527 0
M  V30 7008 N 799.652 0.226554 1.55963 0
M  V30 7009 C 800.599 -0.681504 2.20509 0
M  V30 7010 C 801.569 -1.1866 1.16229 0
M  V30 7011 O 802.754 -1.24478 1.44602 0
M  V30 7012 C 799.894 -1.88183 2.89277 0
M  V30 7013 C 799.007 -1.41517 4.08163 0
M  V30 7014 C 798.142 -2.57346 4.647 0
M  V30 7015 C 797.181 -2.07441 5.75877 0
M  V30 7016 N 796.318 -3.16561 6.26685 0
M  V30 7017 H 801.158 -0.124372 2.9774 0
M  V30 7018 H 798.695 -0.0496333 1.47016 0
M  V30 7019 H 800.653 -2.58666 3.27335 0
M  V30 7020 H 799.283 -2.41177 2.14555 0
M  V30 7021 H 798.335 -0.605099 3.75557 0
M  V30 7022 H 799.647 -1.00928 4.88482 0
M  V30 7023 H 798.801 -3.35903 5.05227 0
M  V30 7024 H 797.54 -3.01227 3.83554 0
M  V30 7025 H 796.545 -1.27347 5.34848 0
M  V30 7026 H 797.77 -1.64554 6.58862 0
M  V30 7027 H 795.716 -3.59914 5.48451 0
M  V30 7028 H 795.633 -2.80239 7.02141 0
M  V30 7029 H 796.901 -3.95238 6.71868 0
M  V30 7030 N 801.13 -1.57531 -0.0467866 0
M  V30 7031 C 802.378 -1.88078 -0.739656 0
M  V30 7032 C 802.699 -0.821936 -1.76831 0
M  V30 7033 O 801.969 0.146582 -1.95351 0
M  V30 7034 H 800.549 -0.694075 -0.276169 0
M  V30 7035 H 803.211 -1.94893 -0.0169391 0
M  V30 7036 H 802.307 -2.86396 -1.24031 0
M  V30 7037 N 802.608 0.318715 -1.54344 0
M  V30 7038 C 803.571 1.37545 -1.83342 0
M  V30 7039 C 804.571 1.445 -0.705444 0
M  V30 7040 O 805.761 1.44443 -0.973752 0
M  V30 7041 C 802.893 2.76225 -1.99781 0
M  V30 7042 H 804.086 1.13084 -2.77762 0
M  V30 7043 H 801.639 0.554457 -1.46135 0
M  V30 7044 H 802.374 3.05934 -1.07588 0
M  V30 7045 H 802.159 2.7257 -2.81865 0
M  V30 7046 H 803.649 3.52664 -2.23647 0
M  V30 7047 N 804.086 1.46499 0.581025 0
M  V30 7048 C 805.034 1.57562 1.71105 0
M  V30 7049 C 806.028 0.44403 1.63477 0
M  V30 7050 O 807.234 0.620964 1.6895 0
M  V30 7051 H 803.609 0.495415 0.565746 0
M  V30 7052 H 805.58 2.5257 1.58905 0
M  V30 7053 C 804.329 1.58465 3.0949 0
M  V30 7054 H 803.652 2.44877 3.16031 0
M  V30 7055 H 805.092 1.70261 3.88313 0
M  V30 7056 C 803.551 0.313596 3.35437 0
M  V30 7057 O 804.081 -0.595456 3.97262 0
M  V30 7058 N 802.287 0.200986 2.89904 0
M  V30 7059 H 801.834 0.941643 2.39773 0
M  V30 7060 H 801.792 -0.648577 3.07638 0
M  V30 7061 N 805.565 -0.825799 1.34232 0
M  V30 7062 C 806.813 -1.57873 1.26177 0
M  V30 7063 C 807.134 -1.94267 -0.168904 0
M  V30 7064 O 806.404 -1.62045 -1.10084 0
M  V30 7065 H 804.984 -0.585388 0.464037 0
M  V30 7066 H 807.646 -0.986163 1.6811 0
M  V30 7067 H 806.742 -2.50283 1.86453 0
M  V30 7068 N 807.043 -1.17915 -1.04565 0
M  V30 7069 C 808.32 -0.881187 -1.74627 0
M  V30 7070 C 808.7 0.617123 -2.01878 0
M  V30 7071 O 808.048 1.57032 -1.65991 0
M  V30 7072 C 808.258 -1.72299 -3.03503 0
M  V30 7073 C 809.606 -1.94688 -3.77335 0
M  V30 7074 O 810.63 -1.6931 -3.13389 0
M  V30 7075 O 809.489 -2.37379 -4.92253 0
M  V30 7076 H 806.583 -0.326864 -0.759664 0
M  V30 7077 H 809.129 -1.28642 -1.10676 0
M  V30 7078 H 807.901 -2.73891 -2.79462 0
M  V30 7079 H 807.524 -1.31593 -3.75192 0
M  V30 7080 N 808.521 1.23394 -0.980386 0
M  V30 7081 C 809.932 1.73631 -0.686239 0
M  V30 7082 C 810.283 1.79259 0.797541 0
M  V30 7083 O 809.408 1.43046 1.62379 0
M  V30 7084 C 810.003 3.15332 -1.239 0
M  V30 7085 C 808.562 3.63024 -0.994494 0
M  V30 7086 C 807.709 2.41279 -1.36673 0
M  V30 7087 H 810.66 1.08918 -1.15423 0
M  V30 7088 H 810.681 3.75556 -0.611414 0
M  V30 7089 H 810.193 3.11204 -2.31892 0
M  V30 7090 H 808.294 3.72535 0.0693492 0
M  V30 7091 H 808.407 4.49825 -1.64906 0
M  V30 7092 H 806.771 2.42295 -0.785195 0
M  V30 7093 H 807.554 2.39822 -2.45642 0
M  V30 7094 N 809.999 0.752036 1.385 0
M  V30 7095 C 811.247 0.306895 1.99756 0
M  V30 7096 C 811.568 -1.11478 1.59992 0
M  V30 7097 O 810.838 -1.76206 0.856045 0
M  V30 7098 H 809.418 0.11048 0.738785 0
M  V30 7099 H 812.08 0.965785 1.69289 0
M  V30 7100 H 811.176 0.368797 3.09913 0
M  V30 7101 N 811.477 -1.49425 0.500989 0
M  V30 7102 C 812.893 -1.58826 0.156951 0
M  V30 7103 C 813.093 -1.50622 -1.33848 0
M  V30 7104 O 812.149 -1.38016 -2.11442 0
M  V30 7105 C 813.462 -2.91611 0.73374 0
M  V30 7106 C 815.01 -3.05076 0.699846 0
M  V30 7107 C 815.485 -4.40479 1.2547 0
M  V30 7108 N 816.976 -4.4697 1.2154 0
M  V30 7109 C 817.711 -5.50189 1.6149 0
M  V30 7110 N 817.207 -6.60512 2.09034 0
M  V30 7111 N 819 -5.40903 1.52907 0
M  V30 7112 H 811.151 -1.53001 1.47324 0
M  V30 7113 H 813.414 -0.724765 0.61108 0
M  V30 7114 H 813.12 -3.03182 1.78251 0
M  V30 7115 H 812.994 -3.767 0.19417 0
M  V30 7116 H 815.381 -2.93134 -0.340085 0
M  V30 7117 H 815.462 -2.2167 1.27656 0
M  V30 7118 H 815.106 -4.53172 2.29341 0
M  V30 7119 H 815.036 -5.22524 0.653921 0
M  V30 7120 H 817.527 -3.67819 0.867043 0
M  V30 7121 H 817.84 -7.35372 2.37588 0
M  V30 7122 H 816.185 -6.61553 2.13008 0
M  V30 7123 H 819.376 -4.53606 1.15583 0
M  V30 7124 H 819.549 -6.21219 1.84365 0
M  V30 7125 N 812.955 -0.234822 -1.55841 0
M  V30 7126 C 814.366 0.270588 -1.84729 0
M  V30 7127 C 814.717 1.58494 -1.15646 0
M  V30 7128 O 813.842 2.12071 -0.430667 0
M  V30 7129 C 814.437 0.497733 -3.35124 0
M  V30 7130 C 812.996 0.947428 -3.64281 0
M  V30 7131 C 812.143 0.01787 -2.77294 0
M  V30 7132 H 815.094 -0.457691 -1.51957 0
M  V30 7133 H 815.115 1.34199 -3.56049 0
M  V30 7134 H 814.627 -0.459037 -3.85376 0
M  V30 7135 H 812.728 1.91709 -3.19497 0
M  V30 7136 H 812.841 0.812651 -4.72158 0
M  V30 7137 H 811.205 0.527071 -2.49187 0
M  V30 7138 H 811.988 -0.934056 -3.30349 0
M  V30 7139 N 814.433 1.57553 0.0384317 0
M  V30 7140 C 815.681 1.88468 0.729672 0
M  V30 7141 C 816.002 0.831302 1.76393 0
M  V30 7142 O 815.272 -0.13622 1.95426 0
M  V30 7143 H 813.852 0.695529 0.272485 0
M  V30 7144 H 816.514 1.94899 0.0066032 0
M  V30 7145 H 815.61 2.8705 1.22511 0
M  V30 7146 N 815.911 -0.310526 1.54511 0
M  V30 7147 C 816.821 -1.4054 1.87844 0
M  V30 7148 C 817.837 -1.55954 0.771635 0
M  V30 7149 O 819.013 -1.70801 1.06719 0
M  V30 7150 C 816.078 -2.75063 2.11048 0
M  V30 7151 C 815.139 -2.68715 3.348 0
M  V30 7152 C 814.372 -3.96821 3.56887 0
M  V30 7153 O 814.595 -4.95721 2.82165 0
M  V30 7154 O 813.529 -3.99291 4.50389 0
M  V30 7155 H 817.355 -1.15275 2.80972 0
M  V30 7156 H 814.94 -0.505732 1.4058 0
M  V30 7157 H 816.822 -3.54671 2.27566 0
M  V30 7158 H 815.497 -3.00191 1.21108 0
M  V30 7159 H 814.404 -1.87611 3.23655 0
M  V30 7160 H 815.737 -2.4854 4.2484 0
M  V30 7161 N 817.389 -1.46805 -0.573248 0
M  V30 7162 C 818.8 -1.46655 -1.15539 0
M  V30 7163 C 819.151 -0.2125 -1.95046 0
M  V30 7164 O 818.276 0.683759 -2.05314 0
M  V30 7165 C 818.871 -2.65711 -2.10198 0
M  V30 7166 C 817.43 -2.68572 -2.63716 0
M  V30 7167 C 816.577 -2.39498 -1.39772 0
M  V30 7168 H 819.528 -1.54547 -0.36068 0
M  V30 7169 H 819.549 -2.41768 -2.93817 0
M  V30 7170 H 819.061 -3.56967 -1.52303 0
M  V30 7171 H 817.162 -1.81414 -3.25453 0
M  V30 7172 H 817.275 -3.68809 -3.05805 0
M  V30 7173 H 815.639 -1.89749 -1.69904 0
M  V30 7174 H 816.422 -3.32942 -0.836943 0
M  V30 7175 N 818.867 0.818669 -1.34668 0
M  V30 7176 C 820.115 1.57201 -1.27013 0
M  V30 7177 C 820.436 1.94354 0.158599 0
M  V30 7178 O 819.706 1.62626 1.09223 0
M  V30 7179 H 818.286 0.582919 -0.467135 0
M  V30 7180 H 820.948 0.977234 -1.6863 0
M  V30 7181 H 820.044 2.49291 -1.87778 0
M  V30 7182 N 820.346 1.18468 1.03938 0
M  V30 7183 C 821.276 0.936389 2.13902 0
M  V30 7184 C 822.257 -0.126381 1.6963 0
M  V30 7185 O 823.442 0.0264757 1.94182 0
M  V30 7186 C 820.572 0.462729 3.44204 0
M  V30 7187 C 819.526 1.46613 4.02105 0
M  V30 7188 C 818.852 0.84994 5.27902 0
M  V30 7189 C 820.152 2.84323 4.3813 0
M  V30 7190 H 821.846 1.85602 2.3493 0
M  V30 7191 H 819.392 0.893806 1.12903 0
M  V30 7192 H 821.345 0.276382 4.20493 0
M  V30 7193 H 820.069 -0.492477 3.22866 0
M  V30 7194 H 818.728 1.63944 3.27899 0
M  V30 7195 H 818.376 -0.112493 5.02874 0
M  V30 7196 H 818.076 1.51988 5.67603 0
M  V30 7197 H 819.6 0.674152 6.06867 0
M  V30 7198 H 821.014 2.70636 5.054 0
M  V30 7199 H 819.411 3.48012 4.88884 0
M  V30 7200 H 820.481 3.37776 3.47901 0
M  V30 7201 N 821.824 -1.22873 0.986916 0
M  V30 7202 C 823.235 -1.73264 0.695438 0
M  V30 7203 C 823.586 -1.79679 -0.788023 0
M  V30 7204 O 822.711 -1.43905 -1.61618 0
M  V30 7205 C 823.306 -3.14671 1.2557 0
M  V30 7206 C 821.865 -3.62492 1.01373 0
M  V30 7207 C 821.012 -2.40551 1.37951 0
M  V30 7208 H 823.963 -1.08304 1.15999 0
M  V30 7209 H 823.984 -3.75226 0.631322 0
M  V30 7210 H 823.496 -3.0997 2.33539 0
M  V30 7211 H 821.597 -3.72567 -0.0495917 0
M  V30 7212 H 821.71 -4.48944 1.67289 0
M  V30 7213 H 820.074 -2.41875 0.798033 0
M  V30 7214 H 820.857 -2.38516 2.46911 0
M  V30 7215 N 823.302 -0.75937 -1.38099 0
M  V30 7216 C 824.55 -0.317485 -1.99591 0
M  V30 7217 C 824.871 1.10628 -1.60581 0
M  V30 7218 O 824.141 1.7575 -0.865378 0
M  V30 7219 H 822.721 -0.114397 -0.738189 0
M  V30 7220 H 825.383 -0.974749 -1.68774 0
M  V30 7221 H 824.479 -0.385227 -3.09713 0
M  V30 7222 N 824.78 1.49157 -0.508906 0
M  V30 7223 C 825.743 2.27784 0.25434 0
M  V30 7224 C 826.743 1.34132 0.88686 0
M  V30 7225 O 827.933 1.5722 0.750168 0
M  V30 7226 C 825.065 3.12347 1.36573 0
M  V30 7227 H 826.258 2.96718 -0.435714 0
M  V30 7228 H 823.811 1.54052 -0.264128 0
M  V30 7229 H 824.546 2.47997 2.08969 0
M  V30 7230 H 824.331 3.81213 0.917543 0
M  V30 7231 H 825.821 3.71712 1.90315 0
M  V30 7232 N 826.258 0.243083 1.55714 0
M  V30 7233 C 827.674 -0.111853 1.59208 0
M  V30 7234 C 827.874 -1.5723 1.2602 0
M  V30 7235 O 826.93 -2.31608 1.00569 0
M  V30 7236 C 828.243 0.233885 2.99789 0
M  V30 7237 C 829.791 0.177873 3.12494 0
M  V30 7238 C 830.266 0.49759 4.55289 0
M  V30 7239 N 831.757 0.447949 4.61029 0
M  V30 7240 C 832.492 0.668545 5.69489 0
M  V30 7241 N 831.988 0.952064 6.86227 0
M  V30 7242 N 833.781 0.599512 5.58894 0
M  V30 7243 H 825.932 1.19554 1.75558 0
M  V30 7244 H 828.195 0.480765 0.817049 0
M  V30 7245 H 827.901 1.24835 3.28799 0
M  V30 7246 H 827.775 -0.440846 3.74615 0
M  V30 7247 H 830.162 -0.827263 2.83267 0
M  V30 7248 H 830.243 0.886399 2.39951 0
M  V30 7249 H 829.887 1.50026 4.85237 0
M  V30 7250 H 829.817 -0.232371 5.26087 0
M  V30 7251 H 832.308 0.237388 3.77154 0
M  V30 7252 H 832.621 1.10791 7.64817 0
M  V30 7253 H 830.966 0.989496 6.8792 0
M  V30 7254 H 834.157 0.378088 4.66571 0
M  V30 7255 H 834.33 0.774828 6.43351 0
M  V30 7256 N 827.736 -1.57571 -0.0300757 0
M  V30 7257 C 828.984 -1.88852 -0.719666 0
M  V30 7258 C 829.305 -0.840645 -1.75949 0
M  V30 7259 O 828.575 0.125854 -1.95495 0
M  V30 7260 H 827.155 -0.696965 -0.268792 0
M  V30 7261 H 829.817 -1.949 0.00373285 0
M  V30 7262 H 828.913 -2.87695 -1.20987 0
M  V30 7263 N 829.214 0.302327 -1.54673 0
M  V30 7264 C 830.144 1.37759 -1.88533 0
M  V30 7265 C 831.125 1.52961 -0.744113 0
M  V30 7266 O 832.31 1.6649 -0.999731 0
M  V30 7267 C 829.44 2.74201 -2.13146 0
M  V30 7268 C 828.394 2.73765 -3.28993 0
M  V30 7269 C 827.72 4.13483 -3.39022 0
M  V30 7270 C 829.02 2.35624 -4.66132 0
M  V30 7271 H 830.714 1.0967 -2.78591 0
M  V30 7272 H 828.26 0.52613 -1.34044 0
M  V30 7273 H 830.213 3.49508 -2.35419 0
M  V30 7274 H 828.937 3.03812 -1.19858 0
M  V30 7275 H 827.596 2.00914 -3.06642 0
M  V30 7276 H 827.244 4.40269 -2.43253 0
M  V30 7277 H 826.944 4.14093 -4.16894 0
M  V30 7278 H 828.468 4.90572 -3.63553 0
M  V30 7279 H 829.882 3.00647 -4.88143 0
M  V30 7280 H 828.279 2.47449 -5.46707 0
M  V30 7281 H 829.349 1.30753 -4.66939 0
M  V30 7282 N 830.692 1.47107 0.565454 0
M  V30 7283 C 831.92 1.56909 1.3486 0
M  V30 7284 C 832.335 0.216312 1.87557 0
M  V30 7285 O 831.692 -0.789168 1.64555 0
M  V30 7286 C 831.743 2.58776 2.52423 0
M  V30 7287 O 831.464 3.888 2.01906 0
M  V30 7288 C 832.965 2.78683 3.44747 0
M  V30 7289 H 830.185 0.530096 0.411387 0
M  V30 7290 H 832.729 1.92658 0.685782 0
M  V30 7291 H 830.884 2.25983 3.1466 0
M  V30 7292 H 831.298 4.44393 2.78595 0
M  V30 7293 H 832.772 3.53842 4.23674 0
M  V30 7294 H 833.249 1.86208 3.97773 0
M  V30 7295 H 833.855 3.12641 2.88333 0
M  V30 7296 N 832.17 -0.811516 1.35101 0
M  V30 7297 C 833.418 -1.56525 1.27845 0
M  V30 7298 C 833.739 -1.94435 -0.14829 0
M  V30 7299 O 833.009 -1.63203 -1.08359 0
M  V30 7300 H 831.589 -0.580433 0.47022 0
M  V30 7301 H 834.251 -0.968277 1.69146 0
M  V30 7302 H 833.347 -2.48291 1.89097 0
M  V30 7303 N 833.648 -1.19017 -1.03309 0
M  V30 7304 C 835.064 -0.941483 -1.28873 0
M  V30 7305 C 835.264 0.388587 -1.97718 0
M  V30 7306 O 834.32 1.12111 -2.26246 0
M  V30 7307 C 835.633 -2.11249 -2.13996 0
M  V30 7308 C 837.181 -2.15164 -2.27318 0
M  V30 7309 C 837.656 -3.31704 -3.15811 0
M  V30 7310 N 839.147 -3.31613 -3.23399 0
M  V30 7311 C 839.882 -4.18431 -3.9205 0
M  V30 7312 N 839.378 -5.15397 -4.62966 0
M  V30 7313 N 841.171 -4.06321 -3.88406 0
M  V30 7314 H 833.322 -2.04599 -0.570343 0
M  V30 7315 H 835.585 -0.894406 -0.314232 0
M  V30 7316 H 835.291 -3.07482 -1.70727 0
M  V30 7317 H 835.165 -2.07955 -3.14697 0
M  V30 7318 H 837.552 -1.19504 -2.6982 0
M  V30 7319 H 837.633 -2.22513 -1.26182 0
M  V30 7320 H 837.277 -4.2764 -2.74019 0
M  V30 7321 H 837.207 -3.21592 -4.16997 0
M  V30 7322 H 839.698 -2.6142 -2.72888 0
M  V30 7323 H 840.011 -5.78 -5.12968 0
M  V30 7324 H 838.356 -5.19349 -4.61846 0
M  V30 7325 H 841.547 -3.29849 -3.3214 0
M  V30 7326 H 841.72 -4.74196 -4.41635 0
M  V30 7327 N 835.127 1.22348 -0.993418 0
M  V30 7328 C 836.538 1.72893 -0.704616 0
M  V30 7329 C 836.889 1.80095 0.778483 0
M  V30 7330 O 836.014 1.4476 1.60853 0
M  V30 7331 C 836.609 3.14 -1.27237 0
M  V30 7332 C 835.168 3.61949 -1.03294 0
M  V30 7333 C 834.315 2.39816 -1.39225 0
M  V30 7334 H 837.266 1.07688 -1.16572 0
M  V30 7335 H 837.287 3.74886 -0.651212 0
M  V30 7336 H 836.799 3.08727 -2.3518 0
M  V30 7337 H 834.9 3.72588 0.0298329 0
M  V30 7338 H 835.013 4.48051 -1.69668 0
M  V30 7339 H 833.377 2.41448 -0.810849 0
M  V30 7340 H 834.16 2.37203 -2.48172 0
M  V30 7341 N 836.605 0.766683 1.37694 0
M  V30 7342 C 837.853 0.328065 1.9942 0
M  V30 7343 C 838.174 -1.09775 1.61166 0
M  V30 7344 O 837.444 -1.75288 0.874686 0
M  V30 7345 H 836.024 0.11831 0.737572 0
M  V30 7346 H 838.686 0.983686 1.68255 0
M  V30 7347 H 837.782 0.401647 3.09505 0
M  V30 7348 N 838.083 -1.48885 0.516809 0
M  V30 7349 C 839.36 -1.95412 -0.0858293 0
M  V30 7350 C 839.74 -1.45875 -1.5259 0
M  V30 7351 O 839.088 -0.679415 -2.18166 0
M  V30 7352 C 839.298 -3.48995 0.0178194 0
M  V30 7353 C 840.646 -4.24342 -0.14813 0
M  V30 7354 O 841.67 -3.56155 -0.0566125 0
M  V30 7355 O 840.529 -5.45454 -0.338035 0
M  V30 7356 H 837.623 -0.822455 -0.0865884 0
M  V30 7357 H 840.169 -1.59464 0.580472 0
M  V30 7358 H 838.941 -3.77732 1.02147 0
M  V30 7359 H 838.564 -3.91604 -0.687924 0
M  V30 7360 N 839.561 -0.251338 -1.55583 0
M  V30 7361 C 840.524 0.63305 -2.20284 0
M  V30 7362 C 841.524 1.09941 -1.17344 0
M  V30 7363 O 842.714 1.00341 -1.42399 0
M  V30 7364 C 839.846 1.8706 -2.84993 0
M  V30 7365 H 841.039 0.0684846 -2.99822 0
M  V30 7366 H 838.592 -0.00181653 -1.563 0
M  V30 7367 H 839.327 2.47629 -2.09405 0
M  V30 7368 H 839.112 1.54436 -3.60405 0
M  V30 7369 H 840.602 2.50004 -3.34496 0
M  V30 7370 N 841.039 1.57585 0.0217189 0
M  V30 7371 C 842.287 1.89231 0.709641 0
M  V30 7372 C 842.608 0.849964 1.75501 0
M  V30 7373 O 841.878 -0.115485 1.95559 0
M  V30 7374 H 840.458 0.69838 0.265092 0
M  V30 7375 H 843.12 1.94895 -0.0140688 0
M  V30 7376 H 842.216 2.88333 1.19459 0
M  V30 7377 N 842.517 -0.29412 1.54831 0
M  V30 7378 C 843.928 -0.866651 1.65366 0
M  V30 7379 C 844.279 -1.87834 0.56681 0
M  V30 7380 O 843.404 -2.14374 -0.295389 0
M  V30 7381 C 843.999 -1.57869 2.99771 0
M  V30 7382 C 842.558 -2.09954 3.12404 0
M  V30 7383 C 841.705 -0.934492 2.6108 0
M  V30 7384 H 844.656 -0.0709551 1.58541 0
M  V30 7385 H 844.677 -2.44462 2.91579 0
M  V30 7386 H 844.189 -0.84212 3.78853 0
M  V30 7387 H 842.29 -2.86637 2.38055 0
M  V30 7388 H 842.403 -2.32934 4.18663 0
M  V30 7389 H 840.767 -1.32199 2.17705 0
M  V30 7390 H 841.55 -0.211768 3.42646 0
M  V30 7391 N 843.995 -1.47404 -0.557645 0
M  V30 7392 C 844.927 -1.55917 -1.67995 0
M  V30 7393 C 845.94 -0.445411 -1.56588 0
M  V30 7394 O 847.129 -0.714999 -1.63554 0
M  V30 7395 C 844.229 -1.44697 -3.06457 0
M  V30 7396 C 843.402 -2.70633 -3.43622 0
M  V30 7397 C 842.461 -2.53256 -4.61246 0
M  V30 7398 O 841.487 -3.27068 -4.65849 0
M  V30 7399 N 842.689 -1.61053 -5.57711 0
M  V30 7400 H 845.454 -2.52694 -1.61139 0
M  V30 7401 H 843.015 -1.43778 -0.744271 0
M  V30 7402 H 845.007 -1.30806 -3.82978 0
M  V30 7403 H 843.577 -0.560039 -3.07542 0
M  V30 7404 H 842.797 -2.99288 -2.56555 0
M  V30 7405 H 844.085 -3.5424 -3.65228 0
M  V30 7406 H 843.483 -1.00235 -5.56749 0
M  V30 7407 H 842.04 -1.53115 -6.33561 0
M  V30 7408 N 845.473 0.80434 -1.35529 0
M  V30 7409 C 846.721 1.55845 -1.28673 0
M  V30 7410 C 847.042 1.94511 0.137976 0
M  V30 7411 O 846.312 1.63775 1.07492 0
M  V30 7412 H 844.892 0.577931 -0.473291 0
M  V30 7413 H 847.554 0.959293 -1.69657 0
M  V30 7414 H 846.65 2.47285 -1.90411 0
M  V30 7415 N 846.951 1.19563 1.02676 0
M  V30 7416 C 847.898 0.935291 2.11 0
M  V30 7417 C 848.868 -0.130685 1.65585 0
M  V30 7418 O 850.053 0.0119062 1.90796 0
M  V30 7419 C 847.193 0.482384 3.41712 0
M  V30 7420 C 846.306 1.61537 4.00662 0
M  V30 7421 C 845.441 1.11378 5.19392 0
M  V30 7422 C 844.48 2.22052 5.70403 0
M  V30 7423 N 843.617 1.73185 6.80405 0
M  V30 7424 H 848.457 1.86275 2.32606 0
M  V30 7425 H 845.994 0.928656 1.14081 0
M  V30 7426 H 847.952 0.20118 4.16715 0
M  V30 7427 H 846.582 -0.408086 3.2021 0
M  V30 7428 H 845.634 2.01173 3.22852 0
M  V30 7429 H 846.946 2.44912 4.34534 0
M  V30 7430 H 846.1 0.787935 6.01562 0
M  V30 7431 H 844.839 0.249789 4.8706 0
M  V30 7432 H 843.844 2.55465 4.86845 0
M  V30 7433 H 845.069 3.08911 6.04774 0
M  V30 7434 H 843.015 0.890973 6.49921 0
M  V30 7435 H 842.932 2.50148 7.13416 0
M  V30 7436 H 844.2 1.4357 7.66164 0
M  V30 7437 N 848.429 -1.21819 0.999893 0
M  V30 7438 C 849.675 -1.91035 0.680701 0
M  V30 7439 C 850.008 -1.77582 -0.786021 0
M  V30 7440 O 849.283 -1.14917 -1.56921 0
M  V30 7441 C 849.566 -3.43013 1.0961 0
M  V30 7442 C 849.419 -3.65481 2.6219 0
M  V30 7443 C 850.738 -4.35204 0.654616 0
M  V30 7444 H 847.857 -0.693748 0.248763 0
M  V30 7445 H 850.499 -1.43555 1.24466 0
M  V30 7446 H 848.649 -3.83581 0.616253 0
M  V30 7447 H 850.321 -3.34273 3.17899 0
M  V30 7448 H 848.564 -3.09522 3.03938 0
M  V30 7449 H 849.235 -4.71945 2.86307 0
M  V30 7450 H 851.711 -4.0219 1.06688 0
M  V30 7451 H 850.587 -5.40198 0.973492 0
M  V30 7452 H 850.848 -4.3986 -0.444458 0
M  V30 7453 N 849.908 -0.773975 -1.37286 0
M  V30 7454 C 851.156 -0.338636 -1.99243 0
M  V30 7455 C 851.477 1.08919 -1.61746 0
M  V30 7456 O 850.747 1.74822 -0.88397 0
M  V30 7457 H 849.327 -0.12222 -0.736934 0
M  V30 7458 H 851.989 -0.992595 -1.67731 0
M  V30 7459 H 851.085 -0.418055 -3.09287 0
M  V30 7460 N 851.386 1.48609 -0.524698 0
M  V30 7461 C 852.797 1.86516 -0.0828846 0
M  V30 7462 C 853.148 1.43478 1.33822 0
M  V30 7463 O 852.273 0.823139 2.00133 0
M  V30 7464 C 852.868 3.38495 -0.143639 0
M  V30 7465 C 851.427 3.75615 0.242951 0
M  V30 7466 C 850.574 2.72649 -0.505747 0
M  V30 7467 H 853.525 1.40589 -0.736233 0
M  V30 7468 H 853.546 3.74977 0.645955 0
M  V30 7469 H 853.058 3.69789 -1.17805 0
M  V30 7470 H 851.159 3.49935 1.27971 0
M  V30 7471 H 851.272 4.7901 -0.0929834 0
M  V30 7472 H 849.636 2.54656 0.0473482 0
M  V30 7473 H 850.419 3.06786 -1.54069 0
M  V30 7474 N 852.864 0.259585 1.55447 0
M  V30 7475 C 854.089 -0.368317 2.04103 0
M  V30 7476 C 854.514 -1.49827 1.13725 0
M  V30 7477 O 853.872 -1.80814 0.132705 0
M  V30 7478 C 853.92 -0.841506 3.50644 0
M  V30 7479 O 853.024 -1.95008 3.63381 0
M  V30 7480 H 852.365 -0.0785227 0.659341 0
M  V30 7481 H 854.895 0.389349 2.00861 0
M  V30 7482 H 854.905 -1.14138 3.9171 0
M  V30 7483 H 853.58 -0.0147001 4.15897 0
M  V30 7484 H 852.157 -1.65393 3.34215 0
M  V30 7485 N 854.342 -1.57594 -0.0133615 0
M  V30 7486 C 855.59 -1.89605 -0.699596 0
M  V30 7487 C 855.911 -0.85926 -1.75048 0
M  V30 7488 O 855.181 0.105112 -1.95618 0
M  V30 7489 H 853.761 -0.699776 -0.261385 0
M  V30 7490 H 856.423 -1.94885 0.0244044 0
M  V30 7491 H 855.519 -2.88962 -1.17928 0
M  V30 7492 N 855.82 0.285905 -1.54985 0
M  V30 7493 C 856.783 1.33625 -1.86218 0
M  V30 7494 C 857.783 1.42971 -0.735936 0
M  V30 7495 O 858.973 1.42345 -1.00417 0
M  V30 7496 C 856.105 2.71926 -2.05595 0
M  V30 7497 H 857.298 1.07167 -2.80099 0
M  V30 7498 H 854.851 0.523335 -1.47278 0
M  V30 7499 H 855.586 3.03583 -1.14053 0
M  V30 7500 H 855.371 2.6653 -2.87583 0
M  V30 7501 H 856.861 3.47841 -2.31077 0
M  V30 7502 N 857.298 1.47698 0.54982 0
M  V30 7503 C 858.709 1.48474 1.13191 0
M  V30 7504 C 859.06 0.243504 1.94683 0
M  V30 7505 O 858.185 -0.651009 2.06375 0
M  V30 7506 C 858.78 2.69022 2.05944 0
M  V30 7507 C 857.339 2.72733 2.5941 0
M  V30 7508 C 856.486 2.41691 1.35944 0
M  V30 7509 H 859.437 1.55101 0.336048 0
M  V30 7510 H 859.458 2.46412 2.89934 0
M  V30 7511 H 858.97 3.59345 1.46605 0
M  V30 7512 H 857.071 1.86568 3.22526 0
M  V30 7513 H 857.184 3.73628 2.99899 0
M  V30 7514 H 855.548 1.92428 1.66864 0
M  V30 7515 H 856.331 3.34231 0.783869 0
M  V30 7516 N 858.776 -0.797141 1.35954 0
M  V30 7517 C 860.024 -1.55161 1.29497 0
M  V30 7518 C 860.345 -1.94582 -0.127659 0
M  V30 7519 O 859.615 -1.64343 -1.06622 0
M  V30 7520 H 858.195 -0.575413 0.47635 0
M  V30 7521 H 860.857 -0.950282 1.70164 0
M  V30 7522 H 859.953 -2.46272 1.9172 0
M  V30 7523 N 860.254 -1.20106 -1.0204 0
M  V30 7524 C 861.164 -0.962051 -2.13967 0
M  V30 7525 C 862.18 0.0808053 -1.73812 0
M  V30 7526 O 863.356 -0.105774 -2.01122 0
M  V30 7527 C 860.421 -0.513108 -3.42882 0
M  V30 7528 C 859.482 -1.62636 -3.97301 0
M  V30 7529 C 858.715 -1.19875 -5.20063 0
M  V30 7530 O 858.938 -0.0658423 -5.70362 0
M  V30 7531 O 857.872 -2.00467 -5.67536 0
M  V30 7532 H 861.698 -1.8991 -2.36998 0
M  V30 7533 H 859.283 -0.984608 -1.12365 0
M  V30 7534 H 861.165 -0.271797 -4.20523 0
M  V30 7535 H 859.84 0.395402 -3.21276 0
M  V30 7536 H 858.747 -1.92192 -3.20957 0
M  V30 7537 H 860.08 -2.51174 -4.23288 0
M  V30 7538 N 861.732 1.21287 -1.00634 0
M  V30 7539 C 863.009 1.86 -0.605257 0
M  V30 7540 C 863.389 1.90139 0.917072 0
M  V30 7541 O 862.737 1.40169 1.80458 0
M  V30 7542 C 862.947 3.26183 -1.24119 0
M  V30 7543 C 864.295 4.02562 -1.35015 0
M  V30 7544 O 865.319 3.35499 -1.19661 0
M  V30 7545 O 864.178 5.22638 -1.59726 0
M  V30 7546 H 861.272 0.800549 -0.207486 0
M  V30 7547 H 863.818 1.28959 -1.10307 0
M  V30 7548 H 862.59 3.17878 -2.28186 0
M  V30 7549 H 862.213 3.90845 -0.729807 0
M  V30 7550 N 863.21 0.781244 1.36873 0
M  V30 7551 C 864.458 0.349198 1.9906 0
M  V30 7552 C 864.779 -1.0806 1.62321 0
M  V30 7553 O 864.049 -1.74351 0.893229 0
M  V30 7554 H 862.629 0.126126 0.736275 0
M  V30 7555 H 865.291 1.00148 1.67202 0
M  V30 7556 H 864.387 0.434451 3.09061 0
M  V30 7557 N 864.689 -1.48329 0.532571 0
M  V30 7558 C 866.105 -1.58458 0.190605 0
M  V30 7559 C 866.305 -1.53427 -1.30623 0
M  V30 7560 O 865.361 -1.4247 -2.08467 0
M  V30 7561 C 866.674 -2.89989 0.79543 0
M  V30 7562 C 868.222 -3.03523 0.7644 0
M  V30 7563 C 868.697 -4.37718 1.34785 0
M  V30 7564 N 870.188 -4.44292 1.30993 0
M  V30 7565 C 870.923 -5.4664 1.73124 0
M  V30 7566 N 870.419 -6.5593 2.22997 0
M  V30 7567 N 872.212 -5.37538 1.64346 0
M  V30 7568 H 864.363 -1.49842 1.50537 0
M  V30 7569 H 866.626 -0.71164 0.626316 0
M  V30 7570 H 866.332 -2.99333 1.84642 0
M  V30 7571 H 866.206 -3.76203 0.27403 0
M  V30 7572 H 868.593 -2.93789 -0.277831 0
M  V30 7573 H 868.674 -2.18912 1.3233 0
M  V30 7574 H 868.318 -4.48206 2.38902 0
M  V30 7575 H 868.248 -5.21019 0.764609 0
M  V30 7576 H 870.739 -3.65897 0.944868 0
M  V30 7577 H 871.052 -7.30167 2.53133 0
M  V30 7578 H 869.397 -6.56886 2.26992 0
M  V30 7579 H 872.588 -4.51052 1.25178 0
M  V30 7580 H 872.761 -6.17169 1.97501 0
M  V30 7581 N 866.167 -0.267825 -1.55308 0
M  V30 7582 C 867.578 0.231344 -1.85261 0
M  V30 7583 C 867.929 1.56006 -1.18982 0
M  V30 7584 O 867.054 2.1111 -0.475554 0
M  V30 7585 C 867.649 0.426537 -3.36104 0
M  V30 7586 C 866.208 0.869945 -3.66209 0
M  V30 7587 C 865.355 -0.0409522 -2.7727 0
M  V30 7588 H 868.306 -0.489821 -1.50952 0
M  V30 7589 H 868.327 1.26616 -3.58816 0
M  V30 7590 H 867.839 -0.540678 -3.84315 0
M  V30 7591 H 865.94 1.84889 -3.23492 0
M  V30 7592 H 866.053 0.712316 -4.73775 0
M  V30 7593 H 864.417 0.474097 -2.50249 0
M  V30 7594 H 865.2 -1.00392 -3.28293 0
M  V30 7595 N 867.645 1.57599 0.00500368 0
M  V30 7596 C 868.893 1.89973 0.68953 0
M  V30 7597 C 869.214 0.868531 1.7459 0
M  V30 7598 O 868.484 -0.0947367 1.95671 0
M  V30 7599 H 867.064 0.701153 0.25767 0
M  V30 7600 H 869.726 1.94869 -0.0347392 0
M  V30 7601 H 868.822 2.89584 1.16394 0
M  V30 7602 N 869.123 -0.277682 1.55134 0
M  V30 7603 C 870.534 -0.849063 1.66276 0
M  V30 7604 C 870.885 -1.87223 0.5867 0
M  V30 7605 O 870.01 -2.14676 -0.272635 0
M  V30 7606 C 870.605 -1.54681 3.01429 0
M  V30 7607 C 869.164 -2.06628 3.14614 0
M  V30 7608 C 868.311 -0.906748 2.62056 0
M  V30 7609 H 871.262 -0.0541357 1.58608 0
M  V30 7610 H 871.283 -2.41356 2.94156 0
M  V30 7611 H 870.795 -0.80189 3.79725 0
M  V30 7612 H 868.896 -2.84095 2.41082 0
M  V30 7613 H 869.009 -2.2848 4.2111 0
M  V30 7614 H 867.373 -1.29882 2.19095 0
M  V30 7615 H 868.156 -0.175414 3.42852 0
M  V30 7616 N 870.601 -1.47988 -0.541979 0
M  V30 7617 C 872.012 -1.49073 -1.12402 0
M  V30 7618 C 872.363 -0.253825 -1.94551 0
M  V30 7619 O 871.488 0.640056 -2.06718 0
M  V30 7620 C 872.083 -2.7011 -2.04514 0
M  V30 7621 C 870.642 -2.74105 -2.5796 0
M  V30 7622 C 869.789 -2.42409 -1.3466 0
M  V30 7623 H 872.74 -1.55277 -0.327818 0
M  V30 7624 H 872.761 -2.47946 -2.88623 0
M  V30 7625 H 872.273 -3.60117 -1.44697 0
M  V30 7626 H 870.374 -1.88276 -3.21532 0
M  V30 7627 H 870.487 -3.75213 -2.97913 0
M  V30 7628 H 868.851 -1.9331 -1.65841 0
M  V30 7629 H 869.634 -3.34642 -0.766133 0
M  V30 7630 N 872.079 0.78992 -1.36375 0
M  V30 7631 C 873.327 1.54472 -1.30319 0
M  V30 7632 C 873.648 1.94647 0.117338 0
M  V30 7633 O 872.918 1.64906 1.05748 0
M  V30 7634 H 871.498 0.572879 -0.479394 0
M  V30 7635 H 874.16 0.941245 -1.70665 0
M  V30 7636 H 873.256 2.45252 -1.93024 0
M  V30 7637 N 873.557 1.20646 1.01402 0
M  V30 7638 C 874.968 1.01823 1.56489 0
M  V30 7639 C 875.319 -0.42463 1.9155 0
M  V30 7640 O 874.444 -1.30644 1.72514 0
M  V30 7641 C 875.039 1.84208 2.84347 0
M  V30 7642 C 873.598 1.69743 3.35953 0
M  V30 7643 C 872.745 1.8198 2.09233 0
M  V30 7644 H 875.696 1.348 0.837539 0
M  V30 7645 H 875.717 1.34698 3.55861 0
M  V30 7646 H 875.229 2.89215 2.58798 0
M  V30 7647 H 873.33 0.673833 3.66456 0
M  V30 7648 H 873.443 2.51173 4.07981 0
M  V30 7649 H 871.807 1.25193 2.21808 0
M  V30 7650 H 872.59 2.88477 1.86107 0
M  V30 7651 N 875.035 -1.20752 1.01276 0
M  V30 7652 C 875.967 -2.22798 0.537917 0
M  V30 7653 C 876.98 -1.5836 -0.377638 0
M  V30 7654 O 878.169 -1.77624 -0.176599 0
M  V30 7655 C 875.269 -3.38068 -0.237364 0
M  V30 7656 C 874.442 -4.32095 0.679161 0
M  V30 7657 C 873.501 -5.26178 -0.0478676 0
M  V30 7658 O 872.527 -5.66305 0.573366 0
M  V30 7659 N 873.729 -5.65201 -1.32396 0
M  V30 7660 H 876.494 -2.64166 1.4155 0
M  V30 7661 H 874.055 -1.35254 0.889826 0
M  V30 7662 H 876.047 -3.98009 -0.73288 0
M  V30 7663 H 874.617 -2.95622 -1.0162 0
M  V30 7664 H 873.837 -3.70179 1.35505 0
M  V30 7665 H 875.125 -4.91842 1.30263 0
M  V30 7666 H 874.523 -5.34606 -1.84968 0
M  V30 7667 H 873.08 -6.27468 -1.76428 0
M  V30 7668 N 876.513 -0.788492 -1.36457 0
M  V30 7669 C 877.761 -0.359749 -1.98872 0
M  V30 7670 C 878.082 1.07197 -1.62892 0
M  V30 7671 O 877.352 1.73875 -0.902463 0
M  V30 7672 H 875.932 -0.130029 -0.735596 0
M  V30 7673 H 878.594 -1.01033 -1.66668 0
M  V30 7674 H 877.69 -0.450835 -3.08827 0
M  V30 7675 N 877.991 1.48044 -0.54043 0
M  V30 7676 C 878.954 2.28273 0.205966 0
M  V30 7677 C 879.954 1.35983 0.858209 0
M  V30 7678 O 881.144 1.58776 0.716651 0
M  V30 7679 C 878.276 3.15174 1.29917 0
M  V30 7680 H 879.469 2.95727 -0.498555 0
M  V30 7681 H 877.022 1.53457 -0.296745 0
M  V30 7682 H 877.757 2.52374 2.03661 0
M  V30 7683 H 877.542 3.83074 0.836475 0
M  V30 7684 H 879.032 3.75666 1.82387 0
M  V30 7685 N 879.47 0.276058 1.55163 0
M  V30 7686 C 880.886 -0.0780579 1.59409 0
M  V30 7687 C 881.086 -1.54521 1.29327 0
M  V30 7688 O 880.142 -2.29422 1.05459 0
M  V30 7689 C 881.455 0.297422 2.99225 0
M  V30 7690 C 883.003 0.244117 3.12047 0
M  V30 7691 C 883.478 0.594051 4.54131 0
M  V30 7692 N 884.969 0.54564 4.59975 0
M  V30 7693 C 885.704 0.789192 5.67943 0
M  V30 7694 N 885.2 1.09741 6.84053 0
M  V30 7695 N 886.993 0.717926 5.57496 0
M  V30 7696 H 879.144 1.23251 1.72982 0
M  V30 7697 H 881.407 0.497988 0.806667 0
M  V30 7698 H 881.113 1.31782 3.26077 0
M  V30 7699 H 880.987 -0.361286 3.75466 0
M  V30 7700 H 883.374 -0.766992 2.84958 0
M  V30 7701 H 883.455 0.937097 2.38017 0
M  V30 7702 H 883.099 1.60285 4.81945 0
M  V30 7703 H 883.029 -0.120728 5.26462 0
M  V30 7704 H 885.52 0.317334 3.76565 0
M  V30 7705 H 885.833 1.26989 7.62295 0
M  V30 7706 H 884.178 1.13519 6.85666 0
M  V30 7707 H 887.369 0.47697 4.65664 0
M  V30 7708 H 887.542 0.911118 6.41563 0
M  V30 7709 N 880.948 -1.576 0.00335426 0
M  V30 7710 C 882.196 -1.90336 -0.679446 0
M  V30 7711 C 882.517 -0.877777 -1.74127 0
M  V30 7712 O 881.787 0.0843585 -1.95718 0
M  V30 7713 H 880.367 -0.702509 -0.253948 0
M  V30 7714 H 883.029 -1.94848 0.0450731 0
M  V30 7715 H 882.125 -2.90197 -1.14857 0
M  V30 7716 N 882.426 0.269451 -1.5528 0
M  V30 7717 C 883.358 1.35553 -1.84819 0
M  V30 7718 C 884.371 1.45369 -0.732914 0
M  V30 7719 O 885.56 1.47122 -1.0108 0
M  V30 7720 C 882.66 2.73645 -1.9993 0
M  V30 7721 C 881.833 2.86376 -3.30617 0
M  V30 7722 C 880.892 4.05165 -3.35749 0
M  V30 7723 O 879.918 3.95756 -4.09104 0
M  V30 7724 N 881.12 5.17297 -2.63408 0
M  V30 7725 H 883.885 1.10557 -2.78563 0
M  V30 7726 H 881.446 0.459566 -1.5524 0
M  V30 7727 H 883.438 3.51411 -2.00729 0
M  V30 7728 H 882.008 2.91448 -1.13035 0
M  V30 7729 H 881.228 1.95465 -3.42326 0
M  V30 7730 H 882.516 2.91815 -4.16799 0
M  V30 7731 H 881.914 5.2783 -2.03501 0
M  V30 7732 H 880.471 5.93281 -2.69927 0
M  V30 7733 N 883.904 1.48273 0.534124 0
M  V30 7734 C 885.315 1.49667 1.1161 0
M  V30 7735 C 885.666 0.264139 1.94414 0
M  V30 7736 O 884.791 -0.629084 2.07054 0
M  V30 7737 C 885.386 2.71191 2.03079 0
M  V30 7738 C 883.945 2.7547 2.56502 0
M  V30 7739 C 883.092 2.43119 1.33373 0
M  V30 7740 H 886.043 1.55449 0.319578 0
M  V30 7741 H 886.064 2.49473 2.87304 0
M  V30 7742 H 885.576 3.60879 1.42785 0
M  V30 7743 H 883.677 1.89979 3.20529 0
M  V30 7744 H 883.79 3.76787 2.95919 0
M  V30 7745 H 882.154 1.94187 1.64813 0
M  V30 7746 H 882.937 3.35044 0.748375 0
M  V30 7747 N 885.382 -0.782676 1.36792 0
M  V30 7748 C 886.63 -1.53778 1.31136 0
M  V30 7749 C 886.951 -1.94706 -0.107014 0
M  V30 7750 O 886.221 -1.65465 -1.04872 0
M  V30 7751 H 884.801 -0.570328 0.482426 0
M  V30 7752 H 887.463 -0.932181 1.71162 0
M  V30 7753 H 886.559 -2.44224 1.94321 0
M  V30 7754 N 886.86 -1.21182 -1.00761 0
M  V30 7755 C 888.106 -1.02898 -1.74756 0
M  V30 7756 C 888.439 0.436774 -1.89225 0
M  V30 7757 O 887.714 1.32415 -1.42466 0
M  V30 7758 C 887.997 -1.72372 -3.16164 0
M  V30 7759 C 887.85 -3.2645 -3.09435 0
M  V30 7760 C 889.169 -1.46415 -4.15031 0
M  V30 7761 H 886.288 -0.375214 -0.634337 0
M  V30 7762 H 888.93 -1.49321 -1.17487 0
M  V30 7763 H 887.08 -1.32906 -3.65059 0
M  V30 7764 H 888.752 -3.75269 -2.68274 0
M  V30 7765 H 886.995 -3.56889 -2.46603 0
M  V30 7766 H 887.666 -3.70226 -4.09435 0
M  V30 7767 H 890.142 -1.80671 -3.7483 0
M  V30 7768 H 889.018 -1.97544 -5.12121 0
M  V30 7769 H 889.279 -0.39361 -4.40344 0
M  V30 7770 N 888.338 1.20213 -1.01915 0
M  V30 7771 C 889.271 2.2181 -0.536243 0
M  V30 7772 C 890.249 1.57144 0.417689 0
M  V30 7773 O 891.433 1.85461 0.337088 0
M  V30 7774 C 888.56 3.37989 0.219303 0
M  V30 7775 C 887.606 4.2097 -0.684571 0
M  V30 7776 S 888.439 4.90216 -2.15519 0
M  V30 7777 C 889.595 6.09814 -1.40988 0
M  V30 7778 H 889.828 2.62429 -1.39709 0
M  V30 7779 H 887.361 1.30305 -0.828254 0
M  V30 7780 H 889.319 4.05335 0.649112 0
M  V30 7781 H 887.98 2.95825 1.05575 0
M  V30 7782 H 887.173 5.03897 -0.101833 0
M  V30 7783 H 886.775 3.58892 -1.05227 0
M  V30 7784 H 889.067 6.73964 -0.691243 0
M  V30 7785 H 890.01 6.72552 -2.21539 0
M  V30 7786 H 890.418 5.5709 -0.911645 0
M  V30 7787 N 889.816 0.795718 1.36037 0
M  V30 7788 C 891.064 0.370291 1.98679 0
M  V30 7789 C 891.385 -1.06332 1.63458 0
M  V30 7790 O 890.655 -1.73394 0.911671 0
M  V30 7791 H 889.235 0.133928 0.734896 0
M  V30 7792 H 891.897 1.01915 1.6613 0
M  V30 7793 H 890.993 0.467207 3.08583 0
M  V30 7794 N 891.294 -1.47756 0.548274 0
M  V30 7795 C 892.541 -2.02489 0.0208955 0
M  V30 7796 C 892.869 -1.42356 -1.32533 0
M  V30 7797 O 892.124 -0.565448 -1.87353 0
M  V30 7798 C 892.423 -3.5716 -0.131069 0
M  V30 7799 C 892.089 -4.36169 1.14313 0
M  V30 7800 C 890.751 -4.57476 1.4923 0
M  V30 7801 C 893.103 -4.81801 1.9879 0
M  V30 7802 C 890.431 -5.21662 2.68487 0
M  V30 7803 C 892.783 -5.47303 3.17242 0
M  V30 7804 C 891.447 -5.66844 3.52483 0
M  V30 7805 H 890.717 -0.740961 0.00764621 0
M  V30 7806 H 893.364 -1.77531 0.717987 0
M  V30 7807 H 891.669 -3.8106 -0.911063 0
M  V30 7808 H 893.366 -3.9715 -0.55433 0
M  V30 7809 H 889.956 -4.19858 0.861235 0
M  V30 7810 H 894.14 -4.65126 1.73123 0
M  V30 7811 H 889.396 -5.34987 2.95971 0
M  V30 7812 H 893.57 -5.81626 3.82994 0
M  V30 7813 H 891.197 -6.16352 4.44988 0
M  V30 7814 N 892.772 -0.284283 -1.55015 0
M  V30 7815 C 894.183 0.211681 -1.85496 0
M  V30 7816 C 894.534 1.54735 -1.2063 0
M  V30 7817 O 893.659 2.10594 -0.497918 0
M  V30 7818 C 894.254 0.390864 -3.36538 0
M  V30 7819 C 892.813 0.831055 -3.67111 0
M  V30 7820 C 891.96 -0.0703581 -2.77211 0
M  V30 7821 H 894.911 -0.505803 -1.50424 0
M  V30 7822 H 894.932 1.22803 -3.60138 0
M  V30 7823 H 894.444 -0.581409 -3.8372 0
M  V30 7824 H 892.545 1.81447 -3.25434 0
M  V30 7825 H 892.658 0.662026 -4.74504 0
M  V30 7826 H 891.022 0.447528 -2.50737 0
M  V30 7827 H 891.805 -1.03868 -3.2721 0
M  V30 7828 N 894.251 1.57596 -0.0117121 0
M  V30 7829 C 895.499 1.90694 0.669342 0
M  V30 7830 C 895.82 0.886999 1.73659 0
M  V30 7831 O 895.09 -0.0739779 1.9576 0
M  V30 7832 H 893.67 0.703846 0.250219 0
M  V30 7833 H 896.332 1.94821 -0.0554057 0
M  V30 7834 H 895.428 2.90802 1.13316 0
M  V30 7835 N 895.729 -0.261212 1.5542 0
M  V30 7836 C 897.14 -0.83138 1.67167 0
M  V30 7837 C 897.491 -1.8659 0.606525 0
M  V30 7838 O 896.616 -2.14953 -0.24985 0
M  V30 7839 C 897.211 -1.51475 3.03052 0
M  V30 7840 C 895.77 -2.0328 3.16787 0
M  V30 7841 C 894.917 -0.878903 2.63003 0
M  V30 7842 H 897.868 -0.0373102 1.58656 0
M  V30 7843 H 897.889 -2.38222 2.96699 0
M  V30 7844 H 897.401 -0.76157 3.80554 0
M  V30 7845 H 895.502 -2.81523 2.44082 0
M  V30 7846 H 895.615 -2.24001 4.2351 0
M  V30 7847 H 893.979 -1.27551 2.2046 0
M  V30 7848 H 894.762 -0.13904 3.43018 0
M  V30 7849 N 897.207 -1.48554 -0.526253 0
M  V30 7850 C 898.154 -1.63354 -1.63046 0
M  V30 7851 C 899.124 -0.475509 -1.59148 0
M  V30 7852 O 900.309 -0.699453 -1.77517 0
M  V30 7853 C 897.449 -1.68271 -3.01295 0
M  V30 7854 C 896.562 -2.95207 -3.15399 0
M  V30 7855 C 895.697 -2.91262 -4.4423 0
M  V30 7856 C 894.736 -4.12886 -4.51876 0
M  V30 7857 N 893.873 -4.06996 -5.721 0
M  V30 7858 H 898.713 -2.57649 -1.49737 0
M  V30 7859 H 896.25 -1.27769 -0.728938 0
M  V30 7860 H 898.208 -1.69104 -3.81392 0
M  V30 7861 H 896.838 -0.774641 -3.13367 0
M  V30 7862 H 895.89 -3.04102 -2.2853 0
M  V30 7863 H 897.202 -3.85187 -3.1691 0
M  V30 7864 H 896.356 -2.90516 -5.32621 0
M  V30 7865 H 895.095 -1.99016 -4.45246 0
M  V30 7866 H 894.1 -4.13902 -3.61891 0
M  V30 7867 H 895.325 -5.06294 -4.52596 0
M  V30 7868 H 893.271 -3.17573 -5.74006 0
M  V30 7869 H 893.188 -4.90685 -5.75121 0
M  V30 7870 H 894.456 -4.10315 -6.62768 0
M  V30 7871 N 898.685 0.775411 -1.37205 0
M  V30 7872 C 899.933 1.53081 -1.3195 0
M  V30 7873 C 900.254 1.9476 0.0966864 0
M  V30 7874 O 899.524 1.66019 1.03993 0
M  V30 7875 H 898.104 0.567762 -0.485444 0
M  V30 7876 H 900.766 0.92309 -1.71654 0
M  V30 7877 H 899.862 2.4319 -1.95614 0
M  V30 7878 N 900.163 1.21714 1.00117 0
M  V30 7879 C 901.126 0.981338 2.07129 0
M  V30 7880 C 902.126 -0.0491116 1.60725 0
M  V30 7881 O 903.316 0.188555 1.73177 0
M  V30 7882 C 900.448 0.480608 3.37495 0
M  V30 7883 H 901.641 1.93075 2.29482 0
M  V30 7884 H 899.194 1.03467 1.17151 0
M  V30 7885 H 899.929 -0.473552 3.20824 0
M  V30 7886 H 899.714 1.22393 3.72508 0
M  V30 7887 H 901.204 0.33561 4.16249 0
M  V30 7888 N 901.641 -1.19671 1.02551 0
M  V30 7889 C 902.589 -2.24812 0.596867 0
M  V30 7890 C 903.583 -1.65336 -0.368839 0
M  V30 7891 O 904.789 -1.78422 -0.237786 0
M  V30 7892 H 901.164 -0.731417 0.174739 0
M  V30 7893 H 903.135 -2.58286 1.49435 0
M  V30 7894 C 901.884 -3.47677 -0.0399514 0
M  V30 7895 H 901.207 -3.93728 0.694153 0
M  V30 7896 H 902.647 -4.22917 -0.302861 0
M  V30 7897 C 901.106 -3.11411 -1.2855 0
M  V30 7898 O 901.636 -3.23757 -2.37791 0
M  V30 7899 N 899.842 -2.65875 -1.17297 0
M  V30 7900 H 899.389 -2.56029 -0.284045 0
M  V30 7901 H 899.347 -2.41981 -2.00731 0
M  V30 7902 N 903.119 -0.802921 -1.35613 0
M  V30 7903 C 904.367 -0.380822 -1.9848 0
M  V30 7904 C 904.688 1.05464 -1.6402 0
M  V30 7905 O 903.958 1.72908 -0.920854 0
M  V30 7906 H 902.538 -0.137824 -0.734176 0
M  V30 7907 H 905.2 -1.02795 -1.65587 0
M  V30 7908 H 904.296 -0.483565 -3.08331 0
M  V30 7909 N 904.597 1.47463 -0.556102 0
M  V30 7910 C 905.507 2.33785 0.195378 0
M  V30 7911 C 906.523 1.48123 0.913 0
M  V30 7912 O 907.699 1.81053 0.882141 0
M  V30 7913 C 904.764 3.24795 1.21282 0
M  V30 7914 C 903.825 4.26346 0.502747 0
M  V30 7915 C 903.058 5.13007 1.47172 0
M  V30 7916 O 903.281 5.02103 2.70646 0
M  V30 7917 O 902.215 5.93588 0.996814 0
M  V30 7918 H 906.041 2.99341 -0.512676 0
M  V30 7919 H 903.626 1.46004 -0.31673 0
M  V30 7920 H 905.508 3.81015 1.80016 0
M  V30 7921 H 904.183 2.61868 1.90282 0
M  V30 7922 H 903.09 3.73889 -0.125757 0
M  V30 7923 H 904.423 4.91984 -0.145779 0
M  V30 7924 N 906.075 0.2925 1.54862 0
M  V30 7925 C 907.486 -0.201841 1.85606 0
M  V30 7926 C 907.837 -1.54093 1.21449 0
M  V30 7927 O 906.962 -2.10327 0.509079 0
M  V30 7928 C 907.557 -0.373011 3.3674 0
M  V30 7929 C 906.116 -0.811574 3.67547 0
M  V30 7930 C 905.263 0.0850583 2.7717 0
M  V30 7931 H 908.214 0.513774 1.50153 0
M  V30 7932 H 908.235 -1.20892 3.60785 0
M  V30 7933 H 907.747 0.601751 3.83407 0
M  V30 7934 H 905.848 -1.79719 3.26392 0
M  V30 7935 H 905.961 -0.636853 4.74848 0
M  V30 7936 H 904.325 -0.434224 2.50971 0
M  V30 7937 H 905.108 1.05602 3.26654 0
M  V30 7938 N 907.553 -1.57587 0.0200696 0
M  V30 7939 C 908.801 -1.91046 -0.65922 0
M  V30 7940 C 909.122 -0.896197 -1.73186 0
M  V30 7941 O 908.392 0.0635952 -1.95797 0
M  V30 7942 H 906.972 -0.705163 -0.246483 0
M  V30 7943 H 909.634 -1.94789 0.0657368 0
M  V30 7944 H 908.73 -2.91399 -1.11773 0
M  V30 7945 N 909.032 0.252966 -1.55557 0
M  V30 7946 C 909.979 1.3131 -1.89806 0
M  V30 7947 C 910.949 1.48121 -0.751633 0
M  V30 7948 O 912.134 1.62202 -1.00474 0
M  V30 7949 C 909.274 2.66467 -2.19293 0
M  V30 7950 C 908.387 2.57714 -3.46709 0
M  V30 7951 C 907.522 3.85184 -3.65796 0
M  V30 7952 C 906.561 3.71023 -4.86835 0
M  V30 7953 N 905.698 4.90371 -5.02474 0
M  V30 7954 H 910.538 1.01402 -2.80217 0
M  V30 7955 H 908.075 0.489462 -1.38718 0
M  V30 7956 H 910.033 3.45132 -2.34392 0
M  V30 7957 H 908.663 2.94536 -1.32093 0
M  V30 7958 H 907.715 1.70651 -3.39974 0
M  V30 7959 H 909.027 2.43158 -4.35517 0
M  V30 7960 H 908.181 4.72292 -3.80822 0
M  V30 7961 H 906.92 4.0263 -2.7521 0
M  V30 7962 H 905.925 2.82299 -4.71792 0
M  V30 7963 H 907.15 3.55078 -5.78875 0
M  V30 7964 H 905.096 5.0819 -4.14824 0
M  V30 7965 H 905.013 4.78423 -5.85361 0
M  V30 7966 H 906.281 5.78995 -5.21905 0
M  V30 7967 N 910.51 1.48831 0.518367 0
M  V30 7968 C 911.473 1.63721 1.604 0
M  V30 7969 C 912.473 0.509857 1.52503 0
M  V30 7970 O 913.663 0.775922 1.55965 0
M  V30 7971 C 910.795 1.61831 3.00039 0
M  V30 7972 H 911.988 2.60534 1.48533 0
M  V30 7973 H 909.541 1.37602 0.741309 0
M  V30 7974 H 910.276 0.665387 3.17401 0
M  V30 7975 H 910.061 2.43686 3.0718 0
M  V30 7976 H 911.551 1.75467 3.78947 0
M  V30 7977 N 911.988 -0.768124 1.37614 0
M  V30 7978 C 913.236 -1.52379 1.3276 0
M  V30 7979 C 913.557 -1.94809 -0.0863564 0
M  V30 7980 O 912.827 -1.66568 -1.03112 0
M  V30 7981 H 911.407 -0.565179 0.488448 0
M  V30 7982 H 914.069 -0.913974 1.72141 0
M  V30 7983 H 913.165 -2.4215 1.96901 0
M  V30 7984 N 913.466 -1.22244 -0.994698 0
M  V30 7985 C 914.376 -1.00722 -2.11878 0
M  V30 7986 C 915.392 0.043919 -1.73945 0
M  V30 7987 O 916.568 -0.148411 -2.00852 0
M  V30 7988 C 913.633 -0.585723 -3.41717 0
M  V30 7989 C 912.694 -1.71027 -3.93762 0
M  V30 7990 C 911.927 -1.30879 -5.17403 0
M  V30 7991 O 912.15 -0.18681 -5.70094 0
M  V30 7992 O 911.084 -2.1246 -5.63156 0
M  V30 7993 H 914.91 -1.94894 -2.32916 0
M  V30 7994 H 912.495 -1.00822 -1.10251 0
M  V30 7995 H 914.377 -0.360935 -4.19851 0
M  V30 7996 H 913.052 0.327166 -3.22042 0
M  V30 7997 H 911.959 -1.98956 -3.16808 0
M  V30 7998 H 913.292 -2.60096 -4.17865 0
M  V30 7999 N 914.944 1.19125 -1.03184 0
M  V30 8000 C 915.891 2.2245 -0.6152 0
M  V30 8001 C 916.861 1.61869 0.372502 0
M  V30 8002 O 918.046 1.88901 0.268491 0
M  V30 8003 C 915.186 3.45091 0.0248027 0
M  V30 8004 C 914.299 4.20044 -1.0093 0
M  V30 8005 C 913.434 5.30119 -0.338744 0
M  V30 8006 C 912.473 5.96833 -1.35855 0
M  V30 8007 N 911.61 6.98464 -0.713594 0
M  V30 8008 H 916.45 2.57445 -1.50086 0
M  V30 8009 H 913.987 1.26485 -0.751005 0
M  V30 8010 H 915.945 4.15149 0.413131 0
M  V30 8011 H 914.575 3.10742 0.874028 0
M  V30 8012 H 913.627 3.48901 -1.51566 0
M  V30 8013 H 914.939 4.65796 -1.78425 0
M  V30 8014 H 914.093 6.0661 0.104269 0
M  V30 8015 H 912.832 4.85446 0.468382 0
M  V30 8016 H 911.837 5.1909 -1.81179 0
M  V30 8017 H 913.062 6.4359 -2.16722 0
M  V30 8018 H 911.008 6.55959 0.0733863 0
M  V30 8019 H 910.925 7.42422 -1.42638 0
M  V30 8020 H 912.193 7.78943 -0.294681 0
M  V30 8021 N 916.422 0.810101 1.35185 0
M  V30 8022 C 917.67 0.391343 1.98275 0
M  V30 8023 C 917.991 -1.04592 1.64577 0
M  V30 8024 O 917.261 -1.72417 0.93001 0
M  V30 8025 H 915.841 0.141715 0.733434 0
M  V30 8026 H 918.503 1.03672 1.6504 0
M  V30 8027 H 917.599 0.49991 3.0807 0
M  V30 8028 N 917.9 -1.47166 0.563914 0
M  V30 8029 C 918.83 -2.32894 -0.168148 0
M  V30 8030 C 919.811 -1.44202 -0.902214 0
M  V30 8031 O 920.996 -1.73048 -0.881365 0
M  V30 8032 C 918.126 -3.26116 -1.19439 0
M  V30 8033 C 917.08 -4.24101 -0.576363 0
M  V30 8034 C 916.406 -5.06696 -1.70772 0
M  V30 8035 C 917.706 -5.20142 0.47425 0
M  V30 8036 H 919.4 -2.9435 0.547573 0
M  V30 8037 H 916.946 -1.41545 0.264778 0
M  V30 8038 H 918.899 -3.84935 -1.71474 0
M  V30 8039 H 917.623 -2.62728 -1.94014 0
M  V30 8040 H 916.282 -3.66519 -0.0772534 0
M  V30 8041 H 915.93 -4.39707 -2.44268 0
M  V30 8042 H 915.63 -5.7304 -1.29994 0
M  V30 8043 H 917.154 -5.68375 -2.2312 0
M  V30 8044 H 918.568 -5.73286 0.0397035 0
M  V30 8045 H 916.965 -5.94726 0.801287 0
M  V30 8046 H 918.035 -4.65214 1.36764 0
M  V30 8047 N 919.378 -0.300708 -1.54705 0
M  V30 8048 C 920.789 0.191995 -1.8571 0
M  V30 8049 C 921.14 1.53447 -1.22264 0
M  V30 8050 O 920.265 2.10054 -0.520226 0
M  V30 8051 C 920.86 0.355148 -3.36933 0
M  V30 8052 C 919.419 0.792071 -3.67972 0
M  V30 8053 C 918.566 -0.099756 -2.77121 0
M  V30 8054 H 921.517 -0.521729 -1.49879 0
M  V30 8055 H 921.538 1.18977 -3.61421 0
M  V30 8056 H 921.05 -0.622075 -3.83082 0
M  V30 8057 H 919.151 1.77986 -3.27341 0
M  V30 8058 H 919.264 0.611661 -4.75179 0
M  V30 8059 H 917.628 0.420909 -2.51198 0
M  V30 8060 H 918.411 -1.07333 -3.2609 0
M  V30 8061 N 920.856 1.57574 -0.0284266 0
M  V30 8062 C 922.104 1.91393 0.649079 0
M  V30 8063 C 922.425 0.905368 1.72708 0
M  V30 8064 O 921.695 -0.0532107 1.95828 0
M  V30 8065 H 920.275 0.70646 0.24274 0
M  V30 8066 H 922.937 1.94752 -0.076066 0
M  V30 8067 H 922.033 2.91988 1.10226 0
M  V30 8068 N 922.334 -0.244713 1.55689 0
M  V30 8069 C 923.297 -1.2864 1.89695 0
M  V30 8070 C 924.297 -1.40969 0.773583 0
M  V30 8071 O 925.487 -1.39632 1.04156 0
M  V30 8072 C 922.619 -2.66379 2.12732 0
M  V30 8073 H 923.812 -0.997033 2.82841 0
M  V30 8074 H 921.365 -0.484103 1.48614 0
M  V30 8075 H 922.1 -3.00452 1.22062 0
M  V30 8076 H 921.885 -2.58812 2.94549 0
M  V30 8077 H 923.375 -3.41592 2.40218 0
M  V30 8078 N 923.813 -1.49104 -0.510467 0
M  V30 8079 C 925.224 -1.51423 -1.09215 0
M  V30 8080 C 925.575 -0.295035 -1.93969 0
M  V30 8081 O 924.7 0.596064 -2.08029 0
M  V30 8082 C 925.295 -2.74387 -1.98739 0
M  V30 8083 C 923.854 -2.79515 -2.52088 0
M  V30 8084 C 923.001 -2.4521 -1.29488 0
M  V30 8085 H 925.952 -1.55938 -0.294807 0
M  V30 8086 H 925.973 -2.54012 -2.83298 0
M  V30 8087 H 925.485 -3.63105 -1.37026 0
M  V30 8088 H 923.586 -1.95054 -3.17466 0
M  V30 8089 H 923.699 -3.81447 -2.89887 0
M  V30 8090 H 922.063 -1.96785 -1.61703 0
M  V30 8091 H 922.846 -3.36192 -0.694978 0
M  V30 8092 N 925.291 0.760815 -1.38019 0
M  V30 8093 C 926.539 1.51673 -1.33566 0
M  V30 8094 C 926.86 1.94852 0.076024 0
M  V30 8095 O 926.13 1.67112 1.02227 0
M  V30 8096 H 924.71 0.562581 -0.491438 0
M  V30 8097 H 927.372 0.904832 -1.72623 0
M  V30 8098 H 926.468 2.41102 -1.98182 0
M  V30 8099 N 926.769 1.22769 0.988202 0
M  V30 8100 C 927.699 1.02627 2.09738 0
M  V30 8101 C 928.68 -0.0543211 1.70013 0
M  V30 8102 O 929.865 0.108811 1.93895 0
M  V30 8103 C 926.995 0.608302 3.41931 0
M  V30 8104 C 925.949 1.63536 3.95525 0
M  V30 8105 C 925.275 1.07308 5.23822 0
M  V30 8106 C 926.575 3.02649 4.25677 0
M  V30 8107 H 928.269 1.954 2.26847 0
M  V30 8108 H 925.815 0.940888 1.09011 0
M  V30 8109 H 927.768 0.454478 4.18942 0
M  V30 8110 H 926.492 -0.355095 3.24664 0
M  V30 8111 H 925.151 1.77704 3.20651 0
M  V30 8112 H 924.799 0.100894 5.02899 0
M  V30 8113 H 924.499 1.75925 5.60646 0
M  V30 8114 H 926.023 0.930938 6.03462 0
M  V30 8115 H 927.437 2.91828 4.93467 0
M  V30 8116 H 925.834 3.68434 4.73684 0
M  V30 8117 H 926.904 3.52228 3.33262 0
M  V30 8118 N 928.247 -1.18576 1.03814 0
M  V30 8119 C 929.663 -1.4051 0.756909 0
M  V30 8120 C 929.863 -1.9057 -0.654631 0
M  V30 8121 O 928.919 -2.0884 -1.41922 0
M  V30 8122 C 930.232 -2.4081 1.80087 0
M  V30 8123 C 931.78 -2.54541 1.82148 0
M  V30 8124 C 932.255 -3.58102 2.85529 0
M  V30 8125 N 933.746 -3.65607 2.84404 0
M  V30 8126 C 934.481 -4.45458 3.61047 0
M  V30 8127 N 933.977 -5.28937 4.47434 0
M  V30 8128 N 935.77 -4.40196 3.49548 0
M  V30 8129 H 927.921 -0.844075 1.94908 0
M  V30 8130 H 930.184 -0.433287 0.843188 0
M  V30 8131 H 929.89 -2.1107 2.81322 0
M  V30 8132 H 929.764 -3.4012 1.63089 0
M  V30 8133 H 932.151 -2.83598 0.815855 0
M  V30 8134 H 932.232 -1.55352 2.03223 0
M  V30 8135 H 931.876 -3.29786 3.86269 0
M  V30 8136 H 931.806 -4.56963 2.6171 0
M  V30 8137 H 934.297 -3.05994 2.21756 0
M  V30 8138 H 934.61 -5.8701 5.02632 0
M  V30 8139 H 932.955 -5.28366 4.51503 0
M  V30 8140 H 936.146 -3.74026 2.81464 0
M  V30 8141 H 936.319 -5.02186 4.09528 0
M  V30 8142 N 929.725 -0.817259 -1.34754 0
M  V30 8143 C 930.973 -0.401852 -1.98065 0
M  V30 8144 C 931.294 1.03718 -1.65129 0
M  V30 8145 O 930.564 1.71921 -0.939141 0
M  V30 8146 H 929.144 -0.145603 -0.732672 0
M  V30 8147 H 931.806 -1.04545 -1.64488 0
M  V30 8148 H 930.902 -0.516241 -3.07801 0
M  V30 8149 N 931.203 1.46865 -0.571711 0
M  V30 8150 C 932.133 2.3298 0.155795 0
M  V30 8151 C 933.114 1.44678 0.894553 0
M  V30 8152 O 934.299 1.73513 0.872176 0
M  V30 8153 C 931.429 3.26745 1.17708 0
M  V30 8154 C 930.383 4.24401 0.553863 0
M  V30 8155 C 929.709 5.07595 1.68083 0
M  V30 8156 C 931.009 5.19884 -0.501827 0
M  V30 8157 H 932.703 2.94056 -0.563176 0
M  V30 8158 H 930.249 1.41402 -0.27228 0
M  V30 8159 H 932.202 3.85838 1.6943 0
M  V30 8160 H 930.926 2.63753 1.92618 0
M  V30 8161 H 929.585 3.66554 0.057815 0
M  V30 8162 H 929.233 4.40996 2.41933 0
M  V30 8163 H 928.933 5.73722 1.26953 0
M  V30 8164 H 930.457 5.6955 2.20103 0
M  V30 8165 H 931.871 5.73257 -0.0701057 0
M  V30 8166 H 930.268 5.94293 -0.832815 0
M  V30 8167 H 931.338 4.64482 -1.39229 0
M  V30 8168 N 932.681 0.308908 1.54543 0
M  V30 8169 C 934.092 -0.182144 1.85809 0
M  V30 8170 C 934.443 -1.52796 1.23076 0
M  V30 8171 O 933.568 -2.09775 0.531358 0
M  V30 8172 C 934.163 -0.337275 3.37117 0
M  V30 8173 C 932.722 -0.772545 3.68387 0
M  V30 8174 C 931.869 0.114451 2.77064 0
M  V30 8175 H 934.82 0.529671 1.496 0
M  V30 8176 H 934.841 -1.17058 3.62046 0
M  V30 8177 H 934.353 0.642382 3.82747 0
M  V30 8178 H 932.454 -1.76247 3.2828 0
M  V30 8179 H 932.567 -0.586453 4.75497 0
M  V30 8180 H 930.931 -0.407581 2.51418 0
M  V30 8181 H 931.714 1.09061 3.25516 0
M  V30 8182 N 934.159 -1.57557 0.0367827 0
M  V30 8183 C 935.407 -1.91735 -0.63892 0
M  V30 8184 C 935.728 -0.914515 -1.72226 0
M  V30 8185 O 934.998 0.0428248 -1.95853 0
M  V30 8186 H 933.578 -0.707738 -0.23899 0
M  V30 8187 H 936.24 -1.94708 0.0863931 0
M  V30 8188 H 935.336 -2.92568 -1.08676 0
M  V30 8189 N 935.637 0.236453 -1.55816 0
M  V30 8190 C 936.584 1.29289 -1.91188 0
M  V30 8191 C 937.554 1.47315 -0.767301 0
M  V30 8192 O 938.739 1.61128 -1.02189 0
M  V30 8193 C 935.879 2.64126 -2.22107 0
M  V30 8194 C 934.992 2.54022 -3.49423 0
M  V30 8195 C 934.127 3.81282 -3.69861 0
M  V30 8196 C 933.166 3.65839 -4.90743 0
M  V30 8197 N 932.303 4.85014 -5.07647 0
M  V30 8198 H 937.143 0.98424 -2.81277 0
M  V30 8199 H 934.68 0.474722 -1.39229 0
M  V30 8200 H 936.638 3.42626 -2.3804 0
M  V30 8201 H 935.268 2.93118 -1.35209 0
M  V30 8202 H 934.32 1.67036 -3.41765 0
M  V30 8203 H 935.632 2.38525 -4.38072 0
M  V30 8204 H 934.786 4.68226 -3.8581 0
M  V30 8205 H 933.525 3.99688 -2.79465 0
M  V30 8206 H 932.53 2.77279 -4.74759 0
M  V30 8207 H 933.755 3.48918 -5.82609 0
M  V30 8208 H 931.701 5.03762 -4.20191 0
M  V30 8209 H 931.618 4.72188 -5.90402 0
M  V30 8210 H 932.886 5.73427 -5.28017 0
M  V30 8211 N 937.115 1.49373 0.502552 0
M  V30 8212 C 938.392 1.49282 1.26389 0
M  V30 8213 C 938.772 0.219674 2.09954 0
M  V30 8214 O 938.12 -0.797991 2.14113 0
M  V30 8215 C 938.33 2.77083 2.12194 0
M  V30 8216 C 939.678 3.26511 2.71433 0
M  V30 8217 O 940.702 2.78189 2.22462 0
M  V30 8218 O 939.561 4.10665 3.60578 0
M  V30 8219 H 936.655 0.597415 0.57186 0
M  V30 8220 H 939.201 1.61634 0.516951 0
M  V30 8221 H 937.973 3.61237 1.50411 0
M  V30 8222 H 937.596 2.67583 2.94084 0
M  V30 8223 N 938.594 -0.753485 1.38421 0
M  V30 8224 C 939.842 -1.50962 1.34368 0
M  V30 8225 C 940.163 -1.94889 -0.0656895 0
M  V30 8226 O 939.433 -1.67652 -1.01339 0
M  V30 8227 H 938.013 -0.559967 0.494415 0
M  V30 8228 H 940.675 -0.895665 1.73101 0
M  V30 8229 H 939.771 -2.40048 1.99458 0
M  V30 8230 N 940.072 -1.23292 -0.981677 0
M  V30 8231 C 940.982 -1.02964 -2.10798 0
M  V30 8232 C 941.998 0.0254674 -1.73981 0
M  V30 8233 O 943.174 -0.169706 -2.00684 0
M  V30 8234 C 940.239 -0.621934 -3.41076 0
M  V30 8235 C 939.3 -1.75194 -3.91926 0
M  V30 8236 C 938.533 -1.36359 -5.15986 0
M  V30 8237 O 938.756 -0.247265 -5.69864 0
M  V30 8238 O 937.69 -2.18421 -5.60871 0
M  V30 8239 H 941.516 -1.97354 -2.30836 0
M  V30 8240 H 939.101 -1.01986 -1.09175 0
M  V30 8241 H 940.983 -0.405446 -4.19445 0
M  V30 8242 H 939.658 0.29299 -3.22371 0
M  V30 8243 H 938.565 -2.02305 -3.1468 0
M  V30 8244 H 939.898 -2.64513 -4.15083 0
M  V30 8245 N 941.55 1.18024 -1.04442 0
M  V30 8246 C 942.778 1.92032 -0.770161 0
M  V30 8247 C 943.193 1.76391 0.673181 0
M  V30 8248 O 942.55 1.09604 1.45922 0
M  V30 8249 C 942.601 3.43328 -1.13173 0
M  V30 8250 O 942.322 3.5848 -2.51841 0
M  V30 8251 C 943.823 4.34427 -0.882523 0
M  V30 8252 H 941.043 0.609518 -0.280586 0
M  V30 8253 H 943.587 1.49711 -1.39308 0
M  V30 8254 H 941.742 3.83423 -0.553704 0
M  V30 8255 H 942.156 4.52166 -2.65794 0
M  V30 8256 H 943.63 5.39123 -1.18533 0
M  V30 8257 H 944.107 4.3882 0.18257 0
M  V30 8258 H 944.713 4.00035 -1.44403 0
M  V30 8259 N 943.028 0.824394 1.34319 0
M  V30 8260 C 944.276 0.41235 1.97849 0
M  V30 8261 C 944.597 -1.02841 1.65677 0
M  V30 8262 O 943.867 -1.71421 0.948245 0
M  V30 8263 H 942.447 0.149486 0.73189 0
M  V30 8264 H 945.109 1.05416 1.63931 0
M  V30 8265 H 944.205 0.532557 3.07523 0
M  V30 8266 N 944.506 -1.46559 0.579492 0
M  V30 8267 C 945.469 -2.28739 -0.145371 0
M  V30 8268 C 946.469 -1.38211 -0.821854 0
M  V30 8269 O 947.659 -1.6062 -0.674302 0
M  V30 8270 C 944.791 -3.18507 -1.21515 0
M  V30 8271 H 945.984 -2.94301 0.576786 0
M  V30 8272 H 943.537 -1.52616 0.337327 0
M  V30 8273 H 944.272 -2.57685 -1.96899 0
M  V30 8274 H 944.057 -3.85157 -0.734616 0
M  V30 8275 H 945.547 -3.80369 -1.72363 0
M  V30 8276 N 945.984 -0.3171 -1.54377 0
M  V30 8277 C 946.947 0.53905 -2.22771 0
M  V30 8278 C 947.947 1.04865 -1.21901 0
M  V30 8279 O 949.137 0.942108 -1.46526 0
M  V30 8280 C 946.269 1.74804 -2.92671 0
M  V30 8281 H 947.462 -0.0587417 -2.99842 0
M  V30 8282 H 945.015 -0.068107 -1.56152 0
M  V30 8283 H 945.75 2.38524 -2.1972 0
M  V30 8284 H 945.535 1.39011 -3.66631 0
M  V30 8285 H 947.025 2.35592 -3.44799 0
M  V30 8286 N 947.462 1.57535 -0.0451378 0
M  V30 8287 C 948.71 1.92071 0.628743 0
M  V30 8288 C 949.031 0.923635 1.71738 0
M  V30 8289 O 948.301 -0.0324376 1.95873 0
M  V30 8290 H 946.881 0.708995 0.235233 0
M  V30 8291 H 949.543 1.9466 -0.0967177 0
M  V30 8292 H 948.639 2.9314 1.07123 0
M  V30 8293 N 948.94 -0.228186 1.55939 0
M  V30 8294 C 950.351 -0.795734 1.68893 0
M  V30 8295 C 950.702 -1.85261 0.645967 0
M  V30 8296 O 949.827 -2.15434 -0.2042 0
M  V30 8297 C 950.422 -1.45013 3.06197 0
M  V30 8298 C 948.981 -1.96514 3.21028 0
M  V30 8299 C 948.128 -0.822918 2.64808 0
M  V30 8300 H 951.079 -0.0036485 1.587 0
M  V30 8301 H 951.1 -2.31875 3.01685 0
M  V30 8302 H 950.612 -0.680678 3.82084 0
M  V30 8303 H 948.713 -2.76282 2.49998 0
M  V30 8304 H 948.826 -2.14967 4.28166 0
M  V30 8305 H 947.19 -1.22846 2.23116 0
M  V30 8306 H 947.973 -0.0662493 3.43236 0
M  V30 8307 N 950.418 -1.49637 -0.494624 0
M  V30 8308 C 951.829 -1.52573 -1.07603 0
M  V30 8309 C 952.18 -0.315591 -1.93645 0
M  V30 8310 O 951.305 0.573966 -2.08649 0
M  V30 8311 C 951.9 -2.7648 -1.95817 0
M  V30 8312 C 950.459 -2.82173 -2.49109 0
M  V30 8313 C 949.606 -2.4657 -1.2688 0
M  V30 8314 H 952.557 -1.56242 -0.278251 0
M  V30 8315 H 952.578 -2.57003 -2.80588 0
M  V30 8316 H 952.09 -3.64538 -1.33167 0
M  V30 8317 H 950.191 -1.9841 -3.15379 0
M  V30 8318 H 950.304 -3.84501 -2.85825 0
M  V30 8319 H 948.668 -1.98489 -1.59607 0
M  V30 8320 H 949.451 -3.3691 -0.659281 0
M  V30 8321 N 951.896 0.746133 -1.38819 0
M  V30 8322 C 953.144 1.50247 -1.35167 0
M  V30 8323 C 953.465 1.94921 0.0553531 0
M  V30 8324 O 952.735 1.68187 1.00449 0
M  V30 8325 H 951.315 0.557337 -0.497377 0
M  V30 8326 H 953.977 0.886472 -1.73573 0
M  V30 8327 H 953.073 2.38986 -2.00728 0
M  V30 8328 N 953.375 1.23811 0.975125 0
M  V30 8329 C 954.786 1.0675 1.53171 0
M  V30 8330 C 955.137 -0.363475 1.92804 0
M  V30 8331 O 954.262 -1.25089 1.76583 0
M  V30 8332 C 954.857 1.93161 2.78342 0
M  V30 8333 C 953.416 1.80346 3.30382 0
M  V30 8334 C 952.563 1.88544 2.03338 0
M  V30 8335 H 955.514 1.37396 0.79423 0
M  V30 8336 H 955.535 1.45951 3.51395 0
M  V30 8337 H 955.047 2.97302 2.49465 0
M  V30 8338 H 953.148 0.790077 3.64127 0
M  V30 8339 H 953.261 2.64026 3.99784 0
M  V30 8340 H 951.625 1.32186 2.17713 0
M  V30 8341 H 952.408 2.94252 1.76836 0
M  V30 8342 N 954.853 -1.17469 1.05066 0
M  V30 8343 C 955.816 -2.19648 0.654793 0
M  V30 8344 C 956.816 -1.58107 -0.293063 0
M  V30 8345 O 958.006 -1.74029 -0.077106 0
M  V30 8346 C 955.138 -3.40878 -0.0384437 0
M  V30 8347 H 956.331 -2.56184 1.55915 0
M  V30 8348 H 953.884 -1.31528 0.844396 0
M  V30 8349 H 954.619 -3.09885 -0.956133 0
M  V30 8350 H 954.404 -3.86792 0.642961 0
M  V30 8351 H 955.894 -4.1651 -0.301568 0
M  V30 8352 N 956.331 -0.831506 -1.3388 0
M  V30 8353 C 957.579 -0.422837 -1.97627 0
M  V30 8354 C 957.9 1.01961 -1.6622 0
M  V30 8355 O 957.17 1.70916 -0.957323 0
M  V30 8356 H 955.75 -0.153365 -0.731087 0
M  V30 8357 H 958.412 -1.06284 -1.6337 0
M  V30 8358 H 957.508 -0.548858 -3.07236 0
M  V30 8359 N 957.809 1.4625 -0.587256 0
M  V30 8360 C 959.22 1.85997 -0.161918 0
M  V30 8361 C 959.571 1.49025 1.27616 0
M  V30 8362 O 958.696 0.907282 1.96462 0
M  V30 8363 C 959.291 3.37582 -0.287077 0
M  V30 8364 C 957.85 3.76308 0.0834211 0
M  V30 8365 C 956.997 2.70259 -0.620932 0
M  V30 8366 H 959.948 1.3734 -0.795199 0
M  V30 8367 H 959.969 3.77379 0.486333 0
M  V30 8368 H 959.481 3.64459 -1.33383 0
M  V30 8369 H 957.582 3.55047 1.13013 0
M  V30 8370 H 957.695 4.78184 -0.296064 0
M  V30 8371 H 956.059 2.54628 -0.0607027 0
M  V30 8372 H 956.842 2.99975 -1.66942 0
M  V30 8373 N 959.287 0.325282 1.54207 0
M  V30 8374 C 960.25 -0.527228 2.23054 0
M  V30 8375 C 961.25 -1.04217 1.22456 0
M  V30 8376 O 962.44 -0.934325 1.47024 0
M  V30 8377 C 959.572 -1.7325 2.93594 0
M  V30 8378 H 960.765 0.0746423 2.99807 0
M  V30 8379 H 958.318 0.0763872 1.56113 0
M  V30 8380 H 959.053 -2.37356 2.20981 0
M  V30 8381 H 958.838 -1.37065 3.67363 0
M  V30 8382 H 960.328 -2.3376 3.46043 0
M  V30 8383 N 960.765 -1.57509 0.0534917 0
M  V30 8384 C 962.013 -1.92402 -0.618548 0
M  V30 8385 C 962.334 -0.93273 -1.71246 0
M  V30 8386 O 961.604 0.0220495 -1.95888 0
M  V30 8387 H 960.184 -0.710233 -0.23147 0
M  V30 8388 H 962.846 -1.94606 0.10704 0
M  V30 8389 H 961.942 -2.93704 -1.05566 0
M  V30 8390 N 962.243 0.219913 -1.56058 0
M  V30 8391 C 963.153 1.29349 -1.95719 0
M  V30 8392 C 964.169 1.5119 -0.861248 0
M  V30 8393 O 965.345 1.64289 -1.16495 0
M  V30 8394 C 962.41 2.6229 -2.26726 0
M  V30 8395 C 961.471 2.48738 -3.49897 0
M  V30 8396 C 960.704 3.75339 -3.79416 0
M  V30 8397 O 960.927 4.78427 -3.10586 0
M  V30 8398 O 959.861 3.72352 -4.72903 0
M  V30 8399 H 963.687 0.986979 -2.87215 0
M  V30 8400 H 961.272 0.42291 -1.43289 0
M  V30 8401 H 963.154 3.408 -2.47857 0
M  V30 8402 H 961.829 2.92619 -1.38404 0
M  V30 8403 H 960.736 1.68422 -3.34043 0
M  V30 8404 H 962.069 2.23347 -4.38608 0
M  V30 8405 N 963.721 1.49897 0.486681 0
M  V30 8406 C 965.137 1.36977 0.819109 0
M  V30 8407 C 965.337 0.41385 1.97204 0
M  V30 8408 O 964.393 -0.149249 2.52059 0
M  V30 8409 C 965.706 2.78013 1.14584 0
M  V30 8410 C 967.254 2.86816 1.25321 0
M  V30 8411 C 967.729 4.28651 1.61316 0
M  V30 8412 N 969.22 4.31528 1.68337 0
M  V30 8413 C 969.955 5.38254 1.97662 0
M  V30 8414 N 969.451 6.55207 2.25113 0
M  V30 8415 N 971.244 5.25683 1.99033 0
M  V30 8416 H 963.395 2.10634 -0.273364 0
M  V30 8417 H 965.658 0.946116 -0.0597418 0
M  V30 8418 H 965.364 3.49728 0.371892 0
M  V30 8419 H 965.238 3.1428 2.08585 0
M  V30 8420 H 967.625 2.15329 2.01785 0
M  V30 8421 H 967.706 2.54112 0.293368 0
M  V30 8422 H 967.35 5.00669 0.853968 0
M  V30 8423 H 967.28 4.5883 2.58424 0
M  V30 8424 H 969.771 3.47189 1.49226 0
M  V30 8425 H 970.084 7.32359 2.46717 0
M  V30 8426 H 968.429 6.58408 2.22538 0
M  V30 8427 H 971.62 4.33316 1.77074 0
M  V30 8428 H 971.793 6.08949 2.21552 0
M  V30 8429 N 965.199 -0.738761 1.39212 0
M  V30 8430 C 966.447 -1.49529 1.35962 0
M  V30 8431 C 966.768 -1.94948 -0.0450152 0
M  V30 8432 O 966.038 -1.68717 -0.995552 0
M  V30 8433 H 964.618 -0.554692 0.500326 0
M  V30 8434 H 967.28 -0.877255 1.74041 0
M  V30 8435 H 966.376 -2.37919 2.01993 0
M  V30 8436 N 966.677 -1.24326 -0.968545 0
M  V30 8437 C 967.587 -1.05194 -2.09694 0
M  V30 8438 C 968.603 0.00701291 -1.73999 0
M  V30 8439 O 969.779 -0.190981 -2.00492 0
M  V30 8440 C 966.844 -0.658075 -3.40397 0
M  V30 8441 C 965.905 -1.79341 -3.90045 0
M  V30 8442 C 965.138 -1.41824 -5.14511 0
M  V30 8443 O 965.361 -0.307693 -5.69569 0
M  V30 8444 O 964.295 -2.24358 -5.58522 0
M  V30 8445 H 968.121 -1.99791 -2.2873 0
M  V30 8446 H 965.706 -1.03138 -1.08088 0
M  V30 8447 H 967.588 -0.449911 -4.18991 0
M  V30 8448 H 966.263 0.258782 -3.22664 0
M  V30 8449 H 965.17 -2.05632 -3.12516 0
M  V30 8450 H 966.503 -2.68901 -4.12254 0
M  V30 8451 N 968.156 1.1691 -1.05688 0
M  V30 8452 C 969.088 2.20648 -0.620237 0
M  V30 8453 C 970.101 1.59652 0.318604 0
M  V30 8454 O 971.29 1.78157 0.110553 0
M  V30 8455 C 968.39 3.38716 0.111729 0
M  V30 8456 C 967.563 4.29277 -0.839062 0
M  V30 8457 C 966.622 5.25993 -0.147453 0
M  V30 8458 O 965.648 5.63787 -0.783151 0
M  V30 8459 N 966.85 5.69725 1.11327 0
M  V30 8460 H 969.615 2.58731 -1.51256 0
M  V30 8461 H 967.176 1.31858 -0.939412 0
M  V30 8462 H 969.168 4.00455 0.584657 0
M  V30 8463 H 967.738 2.99189 0.905784 0
M  V30 8464 H 966.958 3.64894 -1.4915 0
M  V30 8465 H 968.246 4.86669 -1.48428 0
M  V30 8466 H 967.644 5.41103 1.64999 0
M  V30 8467 H 966.201 6.33584 1.53018 0
M  V30 8468 N 969.634 0.838594 1.33437 0
M  V30 8469 C 970.882 0.433312 1.974 0
M  V30 8470 C 971.203 -1.01078 1.66758 0
M  V30 8471 O 970.473 -1.70406 0.966373 0
M  V30 8472 H 969.053 0.15724 0.730263 0
M  V30 8473 H 971.715 1.07149 1.62804 0
M  V30 8474 H 970.811 0.565144 3.06941 0
M  V30 8475 N 971.112 -1.45937 0.595003 0
M  V30 8476 C 972.075 -2.2888 -0.121102 0
M  V30 8477 C 973.075 -1.39075 -0.807149 0
M  V30 8478 O 974.265 -1.61326 -0.657228 0
M  V30 8479 C 971.397 -3.19778 -1.1813 0
M  V30 8480 H 972.59 -2.93673 0.607968 0
M  V30 8481 H 970.143 -1.5225 0.353495 0
M  V30 8482 H 970.878 -2.59759 -1.94154 0
M  V30 8483 H 970.663 -3.85914 -0.693724 0
M  V30 8484 H 972.153 -3.82176 -1.68319 0
M  V30 8485 N 972.59 -0.333456 -1.54032 0
M  V30 8486 C 974.001 0.15256 -1.86076 0
M  V30 8487 C 974.352 1.50819 -1.25492 0
M  V30 8488 O 973.477 2.08903 -0.564665 0
M  V30 8489 C 974.072 0.283599 -3.37611 0
M  V30 8490 C 972.631 0.713841 -3.69569 0
M  V30 8491 C 971.778 -0.158515 -2.76847 0
M  V30 8492 H 974.729 -0.553404 -1.48738 0
M  V30 8493 H 974.75 1.11284 -3.63863 0
M  V30 8494 H 974.262 -0.703193 -3.81676 0
M  V30 8495 H 972.363 1.71002 -3.31042 0
M  V30 8496 H 972.476 0.510731 -4.7637 0
M  V30 8497 H 970.84 0.367531 -2.52034 0
M  V30 8498 H 971.623 -1.14226 -3.2374 0
M  V30 8499 N 974.068 1.57479 -0.061844 0
M  V30 8500 C 975.316 1.92727 0.608336 0
M  V30 8501 C 975.637 0.941799 1.70749 0
M  V30 8502 O 974.907 -0.0116608 1.95897 0
M  V30 8503 H 973.487 0.71145 0.2277 0
M  V30 8504 H 976.149 1.94546 -0.117359 0
M  V30 8505 H 975.245 2.9426 1.04007 0
M  V30 8506 N 975.546 -0.211634 1.56173 0
M  V30 8507 C 976.957 -0.777776 1.69728 0
M  V30 8508 C 977.308 -1.84566 0.66558 0
M  V30 8509 O 976.433 -2.15639 -0.181338 0
M  V30 8510 C 977.028 -1.41757 3.07718 0
M  V30 8511 C 975.587 -1.93098 3.23094 0
M  V30 8512 C 974.734 -0.794785 2.65666 0
M  V30 8513 H 977.685 0.0131839 1.58695 0
M  V30 8514 H 977.706 -2.28662 3.04128 0
M  V30 8515 H 977.218 -0.640114 3.82785 0
M  V30 8516 H 975.319 -2.73615 2.52914 0
M  V30 8517 H 975.432 -2.10414 4.30422 0
M  V30 8518 H 973.796 -1.20473 2.24407 0
M  V30 8519 H 974.579 -0.0298408 3.43287 0
M  V30 8520 N 977.024 -1.50153 -0.478725 0
M  V30 8521 C 978.249 -1.64776 -1.2595 0
M  V30 8522 C 978.674 -0.327794 -1.85222 0
M  V30 8523 O 978.032 0.707418 -1.66929 0
M  V30 8524 C 978.08 -2.73551 -2.34952 0
M  V30 8525 O 977.184 -2.34273 -3.39397 0
M  V30 8526 H 976.525 -0.550769 -0.370877 0
M  V30 8527 H 979.055 -1.96482 -0.570605 0
M  V30 8528 H 979.065 -2.96397 -2.8038 0
M  V30 8529 H 977.74 -3.69354 -1.91181 0
M  V30 8530 H 976.317 -2.21844 -2.99733 0
M  V30 8531 N 978.502 0.731368 -1.39602 0
M  V30 8532 C 979.75 1.48805 -1.36753 0
M  V30 8533 C 980.071 1.94969 0.034676 0
M  V30 8534 O 979.341 1.69243 0.986591 0
M  V30 8535 H 977.921 0.55203 -0.503261 0
M  V30 8536 H 980.583 0.868013 -1.74504 0
M  V30 8537 H 979.679 2.36844 -2.03252 0
M  V30 8538 N 979.98 1.24838 0.961938 0
M  V30 8539 C 981.227 1.09151 1.70564 0
M  V30 8540 C 981.555 -0.368719 1.90973 0
M  V30 8541 O 980.81 -1.28854 1.47293 0
M  V30 8542 C 981.109 1.78289 3.09754 0
M  V30 8543 C 980.775 3.28216 3.09169 0
M  V30 8544 C 979.437 3.69118 3.08716 0
M  V30 8545 C 981.789 4.24035 3.03058 0
M  V30 8546 C 979.117 5.04263 2.99892 0
M  V30 8547 C 981.469 5.59195 2.95776 0
M  V30 8548 C 980.133 5.99436 2.93655 0
M  V30 8549 H 979.403 0.399414 0.624139 0
M  V30 8550 H 982.05 1.55016 1.12438 0
M  V30 8551 H 980.355 1.24835 3.7138 0
M  V30 8552 H 982.052 1.63612 3.66104 0
M  V30 8553 H 978.642 2.95667 3.10289 0
M  V30 8554 H 982.826 3.93431 3.02532 0
M  V30 8555 H 978.082 5.3463 2.96615 0
M  V30 8556 H 982.256 6.33142 2.90007 0
M  V30 8557 H 979.883 7.04116 2.86573 0
M  V30 8558 N 981.458 -1.16348 1.06306 0
M  V30 8559 C 982.39 -2.20316 0.631929 0
M  V30 8560 C 983.403 -1.59819 -0.310133 0
M  V30 8561 O 984.592 -1.78213 -0.101103 0
M  V30 8562 C 981.692 -3.3877 -0.0937645 0
M  V30 8563 C 980.865 -4.28826 0.861816 0
M  V30 8564 C 979.924 -5.25908 0.175346 0
M  V30 8565 O 978.95 -5.63363 0.813039 0
M  V30 8566 N 980.152 -5.70307 -1.08305 0
M  V30 8567 H 982.917 -2.57925 1.52626 0
M  V30 8568 H 980.478 -1.31358 0.946392 0
M  V30 8569 H 982.47 -4.00759 -0.563412 0
M  V30 8570 H 981.04 -2.99666 -0.889904 0
M  V30 8571 H 980.26 -3.64098 1.51083 0
M  V30 8572 H 981.548 -4.85875 1.51007 0
M  V30 8573 H 980.946 -5.4197 -1.62127 0
M  V30 8574 H 979.503 -6.34387 -1.49656 0
M  V30 8575 N 982.937 -0.845659 -1.3299 0
M  V30 8576 C 984.185 -0.443774 -1.97168 0
M  V30 8577 C 984.506 1.00192 -1.67292 0
M  V30 8578 O 983.776 1.69891 -0.975397 0
M  V30 8579 H 982.356 -0.161111 -0.729419 0
M  V30 8580 H 985.018 -1.08011 -1.62233 0
M  V30 8581 H 984.114 -0.581414 -3.06637 0
M  V30 8582 N 984.415 1.45619 -0.602734 0
M  V30 8583 C 985.345 2.33258 0.106342 0
M  V30 8584 C 986.326 1.46543 0.863664 0
M  V30 8585 O 987.511 1.75324 0.835175 0
M  V30 8586 C 984.641 3.29168 1.10751 0
M  V30 8587 C 983.595 4.25481 0.463717 0
M  V30 8588 C 982.921 5.11046 1.57278 0
M  V30 8589 C 984.221 5.18702 -0.61199 0
M  V30 8590 H 985.915 2.92795 -0.625423 0
M  V30 8591 H 983.461 1.40793 -0.302213 0
M  V30 8592 H 985.414 3.89346 1.61208 0
M  V30 8593 H 984.138 2.6778 1.8698 0
M  V30 8594 H 982.797 3.66595 -0.0199496 0
M  V30 8595 H 982.445 4.46029 2.32524 0
M  V30 8596 H 982.145 5.76286 1.14755 0
M  V30 8597 H 983.669 5.74091 2.07972 0
M  V30 8598 H 985.083 5.72979 -0.191686 0
M  V30 8599 H 983.48 5.92393 -0.958686 0
M  V30 8600 H 984.55 4.61424 -1.4905 0
M  V30 8601 N 985.893 0.34162 1.53853 0
M  V30 8602 C 987.304 -0.14269 1.86154 0
M  V30 8603 C 987.655 -1.50151 1.2629 0
M  V30 8604 O 986.78 -2.08601 0.575735 0
M  V30 8605 C 987.375 -0.265691 3.37757 0
M  V30 8606 C 985.934 -0.694231 3.69942 0
M  V30 8607 C 985.081 0.173195 2.76759 0
M  V30 8608 H 988.032 0.561284 1.48443 0
M  V30 8609 H 988.053 -1.09352 3.64448 0
M  V30 8610 H 987.565 0.723424 3.81298 0
M  V30 8611 H 985.666 -1.69244 3.31945 0
M  V30 8612 H 985.779 -0.485461 4.76634 0
M  V30 8613 H 984.143 -0.35416 2.52226 0
M  V30 8614 H 984.926 1.15941 3.23129 0
M  V30 8615 N 987.371 -1.57444 0.0701946 0
M  V30 8616 C 988.619 -1.93047 -0.598106 0
M  V30 8617 C 988.94 -0.950841 -1.70247 0
M  V30 8618 O 988.21 0.00127177 -1.959 0
M  V30 8619 H 986.79 -0.712648 -0.223924 0
M  V30 8620 H 989.452 -1.94481 0.127674 0
M  V30 8621 H 988.548 -2.94807 -1.02445 0
M  V30 8622 N 988.849 0.203349 -1.56283 0
M  V30 8623 C 990.26 0.768764 -1.70138 0
M  V30 8624 C 990.611 1.8421 -0.675358 0
M  V30 8625 O 989.736 2.15732 0.1699 0
M  V30 8626 C 990.331 1.40123 -3.08466 0
M  V30 8627 C 988.89 1.91382 -3.24114 0
M  V30 8628 C 988.037 0.780685 -2.66084 0
M  V30 8629 H 990.988 -0.0215997 -1.58685 0
M  V30 8630 H 991.009 2.27046 -3.05336 0
M  V30 8631 H 990.521 0.619805 -3.83119 0
M  V30 8632 H 988.622 2.7227 -2.54362 0
M  V30 8633 H 988.735 2.08128 -4.31531 0
M  V30 8634 H 987.099 1.19281 -2.25042 0
M  V30 8635 H 987.882 0.0116351 -3.43298 0
M  V30 8636 N 990.327 1.50405 0.470755 0
M  V30 8637 C 991.738 1.54266 1.05162 0
M  V30 8638 C 992.089 0.346359 1.93119 0
M  V30 8639 O 991.214 -0.540699 2.09536 0
M  V30 8640 C 991.809 2.7956 1.91394 0
M  V30 8641 C 990.368 2.86101 2.44588 0
M  V30 8642 C 989.515 2.48557 1.22941 0
M  V30 8643 H 992.466 1.56665 0.253359 0
M  V30 8644 H 992.487 2.61434 2.76464 0
M  V30 8645 H 991.999 3.66611 1.27351 0
M  V30 8646 H 990.1 2.03403 3.12183 0
M  V30 8647 H 990.213 3.88999 2.79672 0
M  V30 8648 H 988.577 2.01003 1.56429 0
M  V30 8649 H 989.36 3.37916 0.605598 0
M  V30 8650 N 991.805 -0.723954 1.39988 0
M  V30 8651 C 993.053 -1.48078 1.3754 0
M  V30 8652 C 993.374 -1.94985 -0.0243358 0
M  V30 8653 O 992.644 -1.69764 -0.977602 0
M  V30 8654 H 991.224 -0.549354 0.506181 0
M  V30 8655 H 993.886 -0.858746 1.74962 0
M  V30 8656 H 992.982 -2.35763 2.04505 0
M  V30 8657 N 993.283 -1.25346 -0.955304 0
M  V30 8658 C 994.694 -1.09173 -1.51453 0
M  V30 8659 C 995.045 0.332755 -1.93358 0
M  V30 8660 O 994.17 1.22264 -1.78551 0
M  V30 8661 C 994.765 -1.97564 -2.75234 0
M  V30 8662 C 993.324 -1.85579 -3.27471 0
M  V30 8663 C 992.471 -1.91755 -2.00313 0
M  V30 8664 H 995.422 -1.38642 -0.772271 0
M  V30 8665 H 995.443 -1.51523 -3.49029 0
M  V30 8666 H 994.955 -3.01233 -2.44704 0
M  V30 8667 H 993.056 -0.847906 -3.62824 0
M  V30 8668 H 993.169 -2.70353 -3.95533 0
M  V30 8669 H 991.533 -1.35633 -2.15582 0
M  V30 8670 H 992.316 -2.97028 -1.72132 0
M  V30 8671 N 994.761 1.15782 -1.06922 0
M  V30 8672 C 996.172 1.68062 -0.813144 0
M  V30 8673 C 996.523 1.84681 0.662374 0
M  V30 8674 O 995.648 1.54696 1.51321 0
M  V30 8675 C 996.243 3.05273 -1.46949 0
M  V30 8676 C 994.802 3.54647 -1.26104 0
M  V30 8677 C 993.949 2.30477 -1.54194 0
M  V30 8678 H 996.9 1.00056 -1.23185 0
M  V30 8679 H 996.921 3.69986 -0.888308 0
M  V30 8680 H 996.433 2.93145 -2.54337 0
M  V30 8681 H 994.534 3.72024 -0.20718 0
M  V30 8682 H 994.647 4.36354 -1.97819 0
M  V30 8683 H 993.011 2.35803 -0.96276 0
M  V30 8684 H 993.794 2.2094 -2.62755 0
M  V30 8685 N 996.239 0.8527 1.3254 0
M  V30 8686 C 997.487 0.454224 1.96929 0
M  V30 8687 C 997.808 -0.993034 1.67821 0
M  V30 8688 O 997.078 -1.69371 0.984393 0
M  V30 8689 H 995.658 0.164977 0.728554 0
M  V30 8690 H 998.32 1.0887 1.61658 0
M  V30 8691 H 997.416 0.597667 3.06324 0
M  V30 8692 N 997.718 -1.45297 0.610449 0
M  V30 8693 C 998.628 -2.34349 -0.108475 0
M  V30 8694 C 999.644 -1.51409 -0.857397 0
M  V30 8695 O 1000.82 -1.84202 -0.814337 0
M  V30 8696 C 997.885 -3.29072 -1.09144 0
M  V30 8697 C 996.946 -4.27918 -0.344165 0
M  V30 8698 C 996.179 -5.18116 -1.28031 0
M  V30 8699 O 996.402 -5.11802 -2.51824 0
M  V30 8700 O 995.336 -5.96879 -0.775821 0
M  V30 8701 H 999.162 -2.97232 0.623421 0
M  V30 8702 H 996.747 -1.44728 0.3707 0
M  V30 8703 H 998.629 -3.87433 -1.65751 0
M  V30 8704 H 997.304 -2.68749 -1.80431 0
M  V30 8705 H 996.211 -3.73164 0.264437 0
M  V30 8706 H 997.544 -4.91104 0.328275 0
M  V30 8707 N 999.196 -0.349774 -1.5367 0
M  V30 8708 C 1000.44 0.244343 -2.00617 0
M  V30 8709 C 1000.76 1.50567 -1.23914 0
M  V30 8710 O 1000.03 1.92784 -0.348016 0
M  V30 8711 H 998.615 0.0932792 -0.741153 0
M  V30 8712 H 1001.28 -0.472367 -1.89089 0
M  V30 8713 H 1000.37 0.482433 -3.08349 0
M  V30 8714 N 1000.67 1.57404 -0.0785433 0
M  V30 8715 C 1001.92 1.93361 0.58786 0
M  V30 8716 C 1002.24 0.959856 1.6974 0
M  V30 8717 O 1001.51 0.0091173 1.95898 0
M  V30 8718 H 1000.09 0.713825 0.220141 0
M  V30 8719 H 1002.75 1.94411 -0.137986 0
M  V30 8720 H 1001.85 2.95346 1.00881 0
M  V30 8721 N 1002.15 -0.195058 1.56388 0
M  V30 8722 C 1003.1 -1.24175 1.94549 0
M  V30 8723 C 1004.07 -1.45229 0.806089 0
M  V30 8724 O 1005.25 -1.58362 1.06425 0
M  V30 8725 C 1002.39 -2.58145 2.29031 0
M  V30 8726 C 1001.51 -2.44669 3.56035 0
M  V30 8727 C 1000.64 -3.71342 3.7984 0
M  V30 8728 C 999.681 -3.52699 5.0027 0
M  V30 8729 N 998.818 -4.71385 5.20328 0
M  V30 8730 H 1003.66 -0.909319 2.83788 0
M  V30 8731 H 1001.19 -0.437641 1.40439 0
M  V30 8732 H 1003.15 -3.36195 2.4704 0
M  V30 8733 H 1001.78 -2.8943 1.42933 0
M  V30 8734 H 1000.83 -1.57916 3.46073 0
M  V30 8735 H 1002.15 -2.26827 4.44242 0
M  V30 8736 H 1001.3 -4.57832 3.98088 0
M  V30 8737 H 1000.04 -3.92138 2.89964 0
M  V30 8738 H 999.045 -2.64594 4.81944 0
M  V30 8739 H 1000.27 -3.33349 5.91655 0
M  V30 8740 H 998.216 -4.92444 4.33399 0
M  V30 8741 H 998.133 -4.56368 6.02714 0
M  V30 8742 H 999.401 -5.59226 5.43035 0
M  V30 8743 N 1003.63 -1.50653 -0.462772 0
M  V30 8744 C 1005.04 -1.54821 -1.04342 0
M  V30 8745 C 1005.39 -0.356595 -1.92932 0
M  V30 8746 O 1004.52 0.529579 -2.0982 0
M  V30 8747 C 1005.11 -2.80571 -1.89909 0
M  V30 8748 C 1003.67 -2.87394 -2.43067 0
M  V30 8749 C 1002.82 -2.49206 -1.21621 0
M  V30 8750 H 1005.77 -1.56797 -0.245048 0
M  V30 8751 H 1005.79 -2.62897 -2.75074 0
M  V30 8752 H 1005.3 -3.67281 -1.25405 0
M  V30 8753 H 1003.4 -2.05055 -3.111 0
M  V30 8754 H 1003.52 -3.90477 -2.77605 0
M  V30 8755 H 1001.88 -2.01829 -1.55361 0
M  V30 8756 H 1002.66 -3.38233 -0.587669 0
M  V30 8757 N 1005.11 0.71652 -1.4037 0
M  V30 8758 C 1006.36 1.47347 -1.38324 0
M  V30 8759 C 1006.68 1.94995 0.0139949 0
M  V30 8760 O 1005.95 1.7028 0.968585 0
M  V30 8761 H 1004.53 0.546662 -0.509087 0
M  V30 8762 H 1007.19 0.849455 -1.75415 0
M  V30 8763 H 1006.29 2.34675 -2.05752 0
M  V30 8764 N 1006.59 1.25851 0.948643 0
M  V30 8765 C 1007.86 1.01717 1.67072 0
M  V30 8766 C 1008.24 -0.454749 2.06144 0
M  V30 8767 O 1007.59 -1.43345 1.77945 0
M  V30 8768 C 1007.8 1.95872 2.88852 0
M  V30 8769 C 1009.15 2.24057 3.60671 0
M  V30 8770 O 1010.17 1.93678 2.98944 0
M  V30 8771 O 1009.03 2.75745 4.71833 0
M  V30 8772 H 1006.13 0.386198 0.731287 0
M  V30 8773 H 1008.67 1.37031 1.00104 0
M  V30 8774 H 1007.44 2.95233 2.56814 0
M  V30 8775 H 1007.07 1.60992 3.63548 0
M  V30 8776 N 1008.06 -1.15214 1.07534 0
M  V30 8777 C 1009 -2.19634 0.655261 0
M  V30 8778 C 1010.01 -1.60139 -0.293165 0
M  V30 8779 O 1011.2 -1.78311 -0.0821957 0
M  V30 8780 C 1008.3 -3.38851 -0.0578281 0
M  V30 8781 C 1007.47 -4.27888 0.90725 0
M  V30 8782 C 1006.53 -5.25692 0.231115 0
M  V30 8783 O 1005.56 -5.62469 0.872746 0
M  V30 8784 N 1006.76 -5.71424 -1.0225 0
M  V30 8785 H 1009.52 -2.56292 1.55353 0
M  V30 8786 H 1007.08 -1.30347 0.960271 0
M  V30 8787 H 1009.08 -4.01334 -0.520874 0
M  V30 8788 H 1007.65 -3.00593 -0.858071 0
M  V30 8789 H 1006.87 -3.62475 1.54937 0
M  V30 8790 H 1008.15 -4.84246 1.56151 0
M  V30 8791 H 1007.55 -5.43659 -1.56369 0
M  V30 8792 H 1006.11 -6.35938 -1.42919 0
M  V30 8793 N 1009.54 -0.859717 -1.32086 0
M  V30 8794 C 1010.79 -0.464662 -1.96686 0
M  V30 8795 C 1011.11 0.98412 -1.68345 0
M  V30 8796 O 1010.38 1.68847 -0.993361 0
M  V30 8797 H 1008.96 -0.168838 -0.727669 0
M  V30 8798 H 1011.62 -1.09726 -1.61079 0
M  V30 8799 H 1010.72 -0.613904 -3.06003 0
M  V30 8800 N 1011.02 1.44971 -0.618145 0
M  V30 8801 C 1012.27 2.02458 -0.117656 0
M  V30 8802 C 1012.6 1.48413 1.25248 0
M  V30 8803 O 1011.87 0.662997 1.82851 0
M  V30 8804 C 1012.16 3.59987 -0.0901897 0
M  V30 8805 C 1012.01 4.24343 -1.49175 0
M  V30 8806 C 1013.33 4.36099 0.592121 0
M  V30 8807 H 1010.45 0.735672 -0.0442291 0
M  V30 8808 H 1013.09 1.727 -0.792138 0
M  V30 8809 H 1011.24 3.85471 0.484175 0
M  V30 8810 H 1012.91 4.10009 -2.114 0
M  V30 8811 H 1011.16 3.82337 -2.04941 0
M  V30 8812 H 1011.83 5.33298 -1.42468 0
M  V30 8813 H 1014.3 4.1597 0.103813 0
M  V30 8814 H 1013.18 5.45822 0.580481 0
M  V30 8815 H 1013.44 4.09746 1.66015 0
M  V30 8816 N 1012.5 0.357919 1.53482 0
M  V30 8817 C 1013.91 -0.122938 1.86295 0
M  V30 8818 C 1014.26 -1.48803 1.27875 0
M  V30 8819 O 1013.39 -2.07978 0.597828 0
M  V30 8820 C 1013.98 -0.229853 3.38019 0
M  V30 8821 C 1012.54 -0.654955 3.70658 0
M  V30 8822 C 1011.69 0.202539 2.76559 0
M  V30 8823 H 1014.64 0.576997 1.47839 0
M  V30 8824 H 1014.66 -1.05481 3.65587 0
M  V30 8825 H 1014.17 0.763825 3.80509 0
M  V30 8826 H 1012.27 -1.65714 3.33721 0
M  V30 8827 H 1012.38 -0.43488 4.77122 0
M  V30 8828 H 1010.75 -0.327388 2.52587 0
M  V30 8829 H 1011.53 1.19361 3.21882 0
M  V30 8830 N 1013.98 -1.5736 0.0868897 0
M  V30 8831 C 1015.22 -1.9367 -0.577598 0
M  V30 8832 C 1015.55 -0.968844 -1.69229 0
M  V30 8833 O 1014.82 -0.0195061 -1.9589 0
M  V30 8834 H 1013.4 -0.714983 -0.216353 0
M  V30 8835 H 1016.06 -1.94335 0.148294 0
M  V30 8836 H 1015.15 -2.95877 -0.993128 0
M  V30 8837 N 1015.45 0.186762 -1.56489 0
M  V30 8838 C 1016.36 1.25169 -1.98419 0
M  V30 8839 C 1017.38 1.49329 -0.893124 0
M  V30 8840 O 1018.56 1.61781 -1.19954 0
M  V30 8841 C 1015.62 2.57422 -2.32239 0
M  V30 8842 C 1014.68 2.4126 -3.55095 0
M  V30 8843 C 1013.92 3.67206 -3.87292 0
M  V30 8844 O 1014.14 4.71731 -3.20665 0
M  V30 8845 O 1013.07 3.62238 -4.80695 0
M  V30 8846 H 1016.9 0.925834 -2.89244 0
M  V30 8847 H 1014.48 0.392421 -1.44154 0
M  V30 8848 H 1016.37 3.35466 -2.5503 0
M  V30 8849 H 1015.04 2.89618 -1.44579 0
M  V30 8850 H 1013.95 1.61299 -3.37541 0
M  V30 8851 H 1015.28 2.13994 -4.43247 0
M  V30 8852 N 1016.93 1.50896 0.454776 0
M  V30 8853 C 1017.9 1.70377 1.53312 0
M  V30 8854 C 1018.9 0.57408 1.50203 0
M  V30 8855 O 1020.09 0.841374 1.52534 0
M  V30 8856 C 1017.22 1.74411 2.92905 0
M  V30 8857 H 1018.41 2.66599 1.37349 0
M  V30 8858 H 1015.96 1.40622 0.68228 0
M  V30 8859 H 1016.7 0.799408 3.14293 0
M  V30 8860 H 1016.48 2.56496 2.96568 0
M  V30 8861 H 1017.97 1.91382 3.71164 0
M  V30 8862 N 1018.41 -0.709066 1.40748 0
M  V30 8863 C 1019.66 -1.46611 1.39103 0
M  V30 8864 C 1019.98 -1.95 -0.00365366 0
M  V30 8865 O 1019.25 -1.70791 -0.959541 0
M  V30 8866 H 1017.83 -0.543954 0.511979 0
M  V30 8867 H 1020.49 -0.840141 1.75863 0
M  V30 8868 H 1019.59 -2.33581 2.06994 0
M  V30 8869 N 1019.89 -1.26353 -0.941956 0
M  V30 8870 C 1020.85 -1.07904 -2.02211 0
M  V30 8871 C 1021.85 -0.0276283 -1.60776 0
M  V30 8872 O 1023.04 -0.270965 -1.7208 0
M  V30 8873 C 1020.17 -0.641084 -3.34818 0
M  V30 8874 H 1021.37 -2.03804 -2.20009 0
M  V30 8875 H 1018.92 -1.08939 -1.12081 0
M  V30 8876 H 1019.66 0.319943 -3.22718 0
M  V30 8877 H 1019.44 -1.40027 -3.66244 0
M  V30 8878 H 1020.93 -0.533826 -4.14174 0
M  V30 8879 N 1021.37 1.14642 -1.08144 0
M  V30 8880 C 1022.78 1.6719 -0.830923 0
M  V30 8881 C 1023.13 1.85373 0.642749 0
M  V30 8882 O 1022.25 1.56293 1.49671 0
M  V30 8883 C 1022.85 3.03697 -1.50179 0
M  V30 8884 C 1021.41 3.5329 -1.29858 0
M  V30 8885 C 1020.56 2.28828 -1.5663 0
M  V30 8886 H 1023.51 0.987441 -1.24239 0
M  V30 8887 H 1023.53 3.69023 -0.9275 0
M  V30 8888 H 1023.04 2.90431 -2.57432 0
M  V30 8889 H 1021.14 3.71783 -0.246626 0
M  V30 8890 H 1021.25 4.34231 -2.02436 0
M  V30 8891 H 1019.62 2.34769 -0.987716 0
M  V30 8892 H 1020.4 2.18141 -2.65084 0
M  V30 8893 N 1022.85 0.866709 1.31628 0
M  V30 8894 C 1024.09 0.475086 1.96437 0
M  V30 8895 C 1024.41 -0.975179 1.68865 0
M  V30 8896 O 1023.68 -1.68317 1.0023 0
M  V30 8897 H 1022.26 0.172695 0.726764 0
M  V30 8898 H 1024.93 1.10578 1.60494 0
M  V30 8899 H 1024.02 0.630123 3.05673 0
M  V30 8900 N 1024.32 -1.44642 0.625825 0
M  V30 8901 C 1025.25 -2.33397 -0.0692188 0
M  V30 8902 C 1026.23 -1.47898 -0.840241 0
M  V30 8903 O 1027.42 -1.7663 -0.807176 0
M  V30 8904 C 1024.55 -3.30888 -1.055 0
M  V30 8905 C 1023.5 -4.26164 -0.395968 0
M  V30 8906 C 1022.83 -5.13483 -1.49128 0
M  V30 8907 C 1024.13 -5.17663 0.694433 0
M  V30 8908 H 1025.82 -2.91763 0.671925 0
M  V30 8909 H 1023.37 -1.40294 0.324573 0
M  V30 8910 H 1025.32 -3.91861 -1.54993 0
M  V30 8911 H 1024.05 -2.7072 -1.82696 0
M  V30 8912 H 1022.71 -3.66516 0.0782691 0
M  V30 8913 H 1022.35 -4.49672 -2.25399 0
M  V30 8914 H 1022.05 -5.78038 -1.05573 0
M  V30 8915 H 1023.58 -5.77327 -1.98813 0
M  V30 8916 H 1024.99 -5.72602 0.282818 0
M  V30 8917 H 1023.39 -5.90793 1.05281 0
M  V30 8918 H 1024.46 -4.58994 1.56372 0
M  V30 8919 N 1025.8 -0.366053 -1.5329 0
M  V30 8920 C 1027.05 0.223824 -2.01561 0
M  V30 8921 C 1027.38 1.48382 -1.25286 0
M  V30 8922 O 1026.66 1.91385 -0.34669 0
M  V30 8923 C 1026.94 0.5153 -3.56394 0
M  V30 8924 C 1026.79 -0.758357 -4.43361 0
M  V30 8925 C 1028.11 1.31568 -4.19974 0
M  V30 8926 H 1025.23 0.0798751 -0.732659 0
M  V30 8927 H 1027.87 -0.491038 -1.83545 0
M  V30 8928 H 1026.02 1.12429 -3.71876 0
M  V30 8929 H 1027.69 -1.39584 -4.39675 0
M  V30 8930 H 1025.94 -1.37862 -4.11311 0
M  V30 8931 H 1026.61 -0.509366 -5.49645 0
M  V30 8932 H 1029.08 0.800514 -4.08327 0
M  V30 8933 H 1027.96 1.48837 -5.28336 0
M  V30 8934 H 1028.22 2.32432 -3.76069 0
M  V30 8935 N 1027.28 1.57312 -0.0952337 0
M  V30 8936 C 1028.53 1.93974 0.567319 0
M  V30 8937 C 1028.85 0.977805 1.68713 0
M  V30 8938 O 1028.12 0.0298944 1.95877 0
M  V30 8939 H 1026.7 0.71612 0.212558 0
M  V30 8940 H 1029.36 1.94254 -0.158598 0
M  V30 8941 H 1028.46 2.964 0.977423 0
M  V30 8942 N 1028.76 -0.17846 1.56586 0
M  V30 8943 C 1030.17 -0.741599 1.71339 0
M  V30 8944 C 1030.52 -1.83112 0.704579 0
M  V30 8945 O 1029.64 -2.15975 -0.135557 0
M  V30 8946 C 1030.24 -1.35198 3.10656 0
M  V30 8947 C 1028.8 -1.86202 3.27118 0
M  V30 8948 C 1027.95 -0.738255 2.67292 0
M  V30 8949 H 1030.9 0.0468424 1.58631 0
M  V30 8950 H 1030.92 -2.2216 3.0891 0
M  V30 8951 H 1030.43 -0.558776 3.84056 0
M  V30 8952 H 1028.53 -2.68188 2.58661 0
M  V30 8953 H 1028.64 -2.01237 4.34788 0
M  V30 8954 H 1027.01 -1.15686 2.26912 0
M  V30 8955 H 1027.79 0.0429821 3.43273 0
M  V30 8956 N 1030.24 -1.51135 -0.446768 0
M  V30 8957 C 1031.65 -1.39101 -0.782504 0
M  V30 8958 C 1031.85 -0.46599 -1.96038 0
M  V30 8959 O 1030.91 0.0823679 -2.52366 0
M  V30 8960 C 1032.22 -2.80953 -1.07173 0
M  V30 8961 C 1033.77 -2.90038 -1.17673 0
M  V30 8962 C 1034.24 -4.32777 -1.49894 0
M  V30 8963 N 1035.73 -4.3584 -1.56837 0
M  V30 8964 C 1036.47 -5.43305 -1.83322 0
M  V30 8965 N 1035.97 -6.60945 -2.07662 0
M  V30 8966 N 1037.76 -5.30775 -1.85026 0
M  V30 8967 H 1029.91 -2.09835 0.329114 0
M  V30 8968 H 1032.17 -0.944199 0.0848054 0
M  V30 8969 H 1031.88 -3.50591 -0.279037 0
M  V30 8970 H 1031.75 -3.197 -2.00179 0
M  V30 8971 H 1034.14 -2.20603 -1.96005 0
M  V30 8972 H 1034.22 -2.54801 -0.225892 0
M  V30 8973 H 1033.86 -5.02757 -0.720924 0
M  V30 8974 H 1033.79 -4.6552 -2.46168 0
M  V30 8975 H 1036.29 -3.51023 -1.39968 0
M  V30 8976 H 1036.6 -7.38643 -2.27214 0
M  V30 8977 H 1034.94 -6.64077 -2.05003 0
M  V30 8978 H 1038.13 -4.37858 -1.65523 0
M  V30 8979 H 1038.31 -6.14609 -2.05329 0
M  V30 8980 N 1031.71 0.701592 -1.41122 0
M  V30 8981 C 1032.96 1.45871 -1.39879 0
M  V30 8982 C 1033.28 1.94999 -0.00668769 0
M  V30 8983 O 1032.55 1.71298 0.95047 0
M  V30 8984 H 1031.13 0.541231 -0.514857 0
M  V30 8985 H 1033.79 0.830803 -1.76306 0
M  V30 8986 H 1032.89 2.32479 -2.0823 0
M  V30 8987 N 1033.19 1.2685 0.935242 0
M  V30 8988 C 1034.1 1.10716 2.06831 0
M  V30 8989 C 1035.12 0.0391222 1.73956 0
M  V30 8990 O 1036.29 0.244071 1.99916 0
M  V30 8991 C 1033.36 0.748093 3.38533 0
M  V30 8992 C 1032.42 1.89619 3.85153 0
M  V30 8993 C 1031.65 1.55416 5.1057 0
M  V30 8994 O 1031.88 0.458596 5.68553 0
M  V30 8995 O 1030.81 2.39087 5.52378 0
M  V30 8996 H 1034.64 2.05785 2.23352 0
M  V30 8997 H 1032.22 1.05967 1.05315 0
M  V30 8998 H 1034.1 0.560841 4.17651 0
M  V30 8999 H 1032.78 -0.173142 3.23237 0
M  V30 9000 H 1031.68 2.13845 3.06954 0
M  V30 9001 H 1033.02 2.79737 4.04979 0
M  V30 9002 N 1034.67 -1.14067 1.0875 0
M  V30 9003 C 1036.09 -1.37173 0.815823 0
M  V30 9004 C 1036.29 -1.93175 -0.573215 0
M  V30 9005 O 1035.34 -2.14672 -1.32937 0
M  V30 9006 C 1036.66 -2.32955 1.90138 0
M  V30 9007 C 1038.2 -2.46586 1.9278 0
M  V30 9008 C 1038.68 -3.4567 3.0046 0
M  V30 9009 N 1040.17 -3.53216 2.99655 0
M  V30 9010 C 1040.9 -4.29743 3.79616 0
M  V30 9011 N 1040.4 -5.09484 4.69466 0
M  V30 9012 N 1042.19 -4.24975 3.67903 0
M  V30 9013 H 1034.34 -0.760648 1.98313 0
M  V30 9014 H 1036.61 -0.397135 0.860807 0
M  V30 9015 H 1036.31 -1.98949 2.90021 0
M  V30 9016 H 1036.19 -3.32897 1.77368 0
M  V30 9017 H 1038.57 -2.79882 0.935404 0
M  V30 9018 H 1038.66 -1.46593 2.09629 0
M  V30 9019 H 1038.3 -3.13106 3.99909 0
M  V30 9020 H 1038.23 -4.45452 2.80856 0
M  V30 9021 H 1040.72 -2.96314 2.34535 0
M  V30 9022 H 1041.03 -5.65163 5.27077 0
M  V30 9023 H 1039.38 -5.08741 4.73506 0
M  V30 9024 H 1042.57 -3.61751 2.97075 0
M  V30 9025 H 1042.74 -4.84364 4.30459 0
M  V30 9026 N 1036.15 -0.873678 -1.31166 0
M  V30 9027 C 1037.4 -0.485497 -1.96182 0
M  V30 9028 C 1037.72 0.96621 -1.69379 0
M  V30 9029 O 1036.99 1.67783 -1.01121 0
M  V30 9030 H 1035.57 -0.176547 -0.725838 0
M  V30 9031 H 1038.23 -1.11428 -1.59906 0
M  V30 9032 H 1037.33 -0.646325 -3.05334 0
M  V30 9033 N 1037.63 1.44308 -0.633487 0
M  V30 9034 C 1038.87 2.02023 -0.138917 0
M  V30 9035 C 1039.2 1.49841 1.24008 0
M  V30 9036 O 1038.46 0.673718 1.83738 0
M  V30 9037 C 1038.76 3.57316 -0.0773886 0
M  V30 9038 C 1038.42 4.28762 -1.39548 0
M  V30 9039 C 1037.08 4.47997 -1.75648 0
M  V30 9040 C 1039.44 4.69391 -2.26542 0
M  V30 9041 C 1036.76 5.05121 -2.98445 0
M  V30 9042 C 1039.12 5.27876 -3.48612 0
M  V30 9043 C 1037.78 5.45329 -3.84932 0
M  V30 9044 H 1037.05 0.739254 -0.0508333 0
M  V30 9045 H 1039.7 1.73043 -0.820271 0
M  V30 9046 H 1038 3.85724 0.687345 0
M  V30 9047 H 1039.7 3.99706 0.321837 0
M  V30 9048 H 1036.29 4.14122 -1.10456 0
M  V30 9049 H 1040.47 4.54241 -1.99946 0
M  V30 9050 H 1035.73 5.16821 -3.26658 0
M  V30 9051 H 1039.9 5.58307 -4.16253 0
M  V30 9052 H 1037.53 5.8936 -4.80166 0
M  V30 9053 N 1039.1 0.374177 1.53094 0
M  V30 9054 C 1040.52 -0.103172 1.86415 0
M  V30 9055 C 1040.87 -1.47439 1.29446 0
M  V30 9056 O 1039.99 -2.07333 0.619853 0
M  V30 9057 C 1040.59 -0.193988 3.38244 0
M  V30 9058 C 1039.15 -0.615605 3.71332 0
M  V30 9059 C 1038.29 0.23186 2.76329 0
M  V30 9060 H 1041.24 0.592644 1.47219 0
M  V30 9061 H 1041.26 -1.01597 3.66686 0
M  V30 9062 H 1040.78 0.80414 3.79678 0
M  V30 9063 H 1038.88 -1.62165 3.3546 0
M  V30 9064 H 1038.99 -0.38425 4.77557 0
M  V30 9065 H 1037.35 -0.300579 2.5292 0
M  V30 9066 H 1038.14 1.22769 3.20597 0
M  V30 9067 N 1040.58 -1.57259 0.103575 0
M  V30 9068 C 1041.83 -1.94272 -0.557024 0
M  V30 9069 C 1042.15 -0.986739 -1.68192 0
M  V30 9070 O 1041.42 -0.0402818 -1.95859 0
M  V30 9071 H 1040 -0.717237 -0.208757 0
M  V30 9072 H 1042.66 -1.94167 0.168898 0
M  V30 9073 H 1041.76 -2.96914 -0.961691 0
M  V30 9074 N 1042.06 0.170153 -1.56679 0
M  V30 9075 C 1042.97 1.23057 -1.99735 0
M  V30 9076 C 1043.99 1.48374 -0.908912 0
M  V30 9077 O 1045.16 1.60499 -1.21663 0
M  V30 9078 C 1042.23 2.54944 -2.34956 0
M  V30 9079 C 1041.29 2.3748 -3.57634 0
M  V30 9080 C 1040.52 3.63078 -3.91165 0
M  V30 9081 O 1040.74 4.68304 -3.2565 0
M  V30 9082 O 1039.68 3.57119 -4.8451 0
M  V30 9083 H 1043.5 0.895104 -2.9021 0
M  V30 9084 H 1041.09 0.377109 -1.44562 0
M  V30 9085 H 1042.97 3.32742 -2.58574 0
M  V30 9086 H 1041.65 2.88068 -1.47643 0
M  V30 9087 H 1040.55 1.57709 -3.39232 0
M  V30 9088 H 1041.89 2.0928 -4.45491 0
M  V30 9089 N 1043.54 1.5137 0.438746 0
M  V30 9090 C 1044.95 1.39514 0.775116 0
M  V30 9091 C 1045.15 0.47638 1.95788 0
M  V30 9092 O 1044.21 -0.0689832 2.52406 0
M  V30 9093 C 1045.52 2.81517 1.05681 0
M  V30 9094 C 1047.07 2.90658 1.16133 0
M  V30 9095 C 1047.55 4.33566 1.47597 0
M  V30 9096 N 1049.04 4.36665 1.54524 0
M  V30 9097 C 1049.77 5.4427 1.80438 0
M  V30 9098 N 1049.27 6.62037 2.04154 0
M  V30 9099 N 1051.06 5.31749 1.82208 0
M  V30 9100 H 1043.21 2.09657 -0.340237 0
M  V30 9101 H 1045.48 0.943736 -0.0898115 0
M  V30 9102 H 1045.18 3.50734 0.260441 0
M  V30 9103 H 1045.06 3.20757 1.98481 0
M  V30 9104 H 1047.44 2.2164 1.94833 0
M  V30 9105 H 1047.52 2.54917 0.212376 0
M  V30 9106 H 1047.17 5.03133 0.694251 0
M  V30 9107 H 1047.1 4.66819 2.43696 0
M  V30 9108 H 1049.59 3.51761 1.38105 0
M  V30 9109 H 1049.9 7.39838 2.23293 0
M  V30 9110 H 1048.25 6.65155 2.01479 0
M  V30 9111 H 1051.44 4.3873 1.63198 0
M  V30 9112 H 1051.61 6.15689 2.02067 0
M  V30 9113 N 1045.02 -0.694098 1.41492 0
M  V30 9114 C 1046.26 -1.45127 1.4065 0
M  V30 9115 C 1046.59 -1.94993 0.0170289 0
M  V30 9116 O 1045.86 -1.71799 -0.941372 0
M  V30 9117 H 1044.44 -0.538493 0.51772 0
M  V30 9118 H 1047.1 -0.821441 1.76744 0
M  V30 9119 H 1046.19 -2.31372 2.0946 0
M  V30 9120 N 1046.49 -1.27344 -0.928501 0
M  V30 9121 C 1047.72 -1.16557 -1.7155 0
M  V30 9122 C 1048.14 0.274044 -1.86093 0
M  V30 9123 O 1047.5 1.19847 -1.36038 0
M  V30 9124 C 1047.55 -1.85332 -3.09329 0
M  V30 9125 O 1046.65 -1.15074 -3.9602 0
M  V30 9126 H 1046 -0.405423 -0.525859 0
M  V30 9127 H 1048.53 -1.68399 -1.16202 0
M  V30 9128 H 1048.54 -1.92659 -3.59648 0
M  V30 9129 H 1047.21 -2.90056 -2.98061 0
M  V30 9130 H 1045.79 -1.1581 -3.54461 0
M  V30 9131 N 1047.97 1.13488 -1.09353 0
M  V30 9132 C 1049.38 1.66299 -0.848609 0
M  V30 9133 C 1049.73 1.86044 0.623051 0
M  V30 9134 O 1048.86 1.57871 1.48005 0
M  V30 9135 C 1049.45 3.02087 -1.53391 0
M  V30 9136 C 1048.01 3.51893 -1.33598 0
M  V30 9137 C 1047.16 2.27154 -1.59048 0
M  V30 9138 H 1050.11 0.974208 -1.25279 0
M  V30 9139 H 1050.13 3.68018 -0.966587 0
M  V30 9140 H 1049.64 2.87684 -2.60498 0
M  V30 9141 H 1047.75 3.715 -0.286045 0
M  V30 9142 H 1047.86 4.32059 -2.0703 0
M  V30 9143 H 1046.22 2.33708 -1.01256 0
M  V30 9144 H 1047.01 2.15317 -2.67383 0
M  V30 9145 N 1049.45 0.880621 1.30701 0
M  V30 9146 C 1050.7 0.495894 1.95922 0
M  V30 9147 C 1051.02 -0.957214 1.69889 0
M  V30 9148 O 1050.29 -1.67245 1.0201 0
M  V30 9149 H 1048.87 0.180394 0.724891 0
M  V30 9150 H 1051.53 1.12274 1.59313 0
M  V30 9151 H 1050.63 0.662508 3.04987 0
M  V30 9152 N 1050.93 -1.4397 0.641131 0
M  V30 9153 C 1051.89 -2.29149 -0.0482243 0
M  V30 9154 C 1052.89 -1.41572 -0.762495 0
M  V30 9155 O 1054.08 -1.63335 -0.605571 0
M  V30 9156 C 1051.21 -3.23375 -1.07896 0
M  V30 9157 H 1052.41 -2.9159 0.70109 0
M  V30 9158 H 1049.96 -1.51048 0.401754 0
M  V30 9159 H 1050.7 -2.65804 -1.85792 0
M  V30 9160 H 1050.48 -3.87926 -0.570597 0
M  V30 9161 H 1051.97 -3.87337 -1.56075 0
M  V30 9162 N 1052.41 -0.382291 -1.52893 0
M  V30 9163 C 1053.34 0.491199 -2.23875 0
M  V30 9164 C 1054.35 1.03249 -1.25871 0
M  V30 9165 O 1055.54 0.936016 -1.5199 0
M  V30 9166 C 1052.64 1.6927 -2.936 0
M  V30 9167 C 1051.81 1.28 -4.18252 0
M  V30 9168 C 1050.87 2.34541 -4.71038 0
M  V30 9169 O 1049.9 1.96239 -5.34302 0
M  V30 9170 N 1051.1 3.6636 -4.50289 0
M  V30 9171 H 1053.87 -0.116897 -2.99472 0
M  V30 9172 H 1051.43 -0.208296 -1.60554 0
M  V30 9173 H 1053.42 2.40054 -3.25816 0
M  V30 9174 H 1051.99 2.20729 -2.21354 0
M  V30 9175 H 1051.21 0.40133 -3.92152 0
M  V30 9176 H 1052.5 0.98082 -4.99257 0
M  V30 9177 H 1051.9 4.00245 -3.99775 0
M  V30 9178 H 1050.45 4.332 -4.87013 0
M  V30 9179 N 1053.89 1.57202 -0.111913 0
M  V30 9180 C 1055.13 1.94565 0.546713 0
M  V30 9181 C 1055.45 0.995644 1.67666 0
M  V30 9182 O 1054.72 0.0506681 1.95834 0
M  V30 9183 H 1053.3 0.718334 0.204951 0
M  V30 9184 H 1055.97 1.94074 -0.179193 0
M  V30 9185 H 1055.06 2.9742 0.945931 0
M  V30 9186 N 1055.36 -0.161842 1.56767 0
M  V30 9187 C 1056.29 -1.20226 2.0017 0
M  V30 9188 C 1057.27 -1.4564 0.878807 0
M  V30 9189 O 1058.46 -1.56813 1.14557 0
M  V30 9190 C 1055.59 -2.53897 2.36968 0
M  V30 9191 C 1054.54 -2.43033 3.52305 0
M  V30 9192 C 1053.87 -3.81281 3.74872 0
M  V30 9193 C 1055.17 -1.927 4.85453 0
M  V30 9194 H 1056.86 -0.84142 2.87333 0
M  V30 9195 H 1054.41 -0.403309 1.38237 0
M  V30 9196 H 1056.36 -3.26893 2.6593 0
M  V30 9197 H 1055.09 -2.91787 1.46724 0
M  V30 9198 H 1053.75 -1.7249 3.23485 0
M  V30 9199 H 1053.39 -4.1658 2.81904 0
M  V30 9200 H 1053.09 -3.74877 4.52483 0
M  V30 9201 H 1054.62 -4.55848 4.06245 0
M  V30 9202 H 1056.03 -2.55477 5.13229 0
M  V30 9203 H 1054.43 -1.97222 5.66766 0
M  V30 9204 H 1055.5 -0.881816 4.76814 0
M  V30 9205 N 1056.84 -1.516 -0.430713 0
M  V30 9206 C 1057.77 -1.69594 -1.54177 0
M  V30 9207 C 1058.79 -0.576518 -1.5225 0
M  V30 9208 O 1059.98 -0.85104 -1.56906 0
M  V30 9209 C 1057.08 -1.70148 -2.93092 0
M  V30 9210 C 1056.25 -2.98782 -3.1945 0
M  V30 9211 C 1055.31 -2.91435 -4.38123 0
M  V30 9212 O 1054.33 -3.65372 -4.36454 0
M  V30 9213 N 1055.54 -2.0774 -5.42056 0
M  V30 9214 H 1058.3 -2.65442 -1.39143 0
M  V30 9215 H 1055.86 -1.49569 -0.61974 0
M  V30 9216 H 1057.85 -1.62793 -3.70514 0
M  V30 9217 H 1056.42 -0.818667 -3.0169 0
M  V30 9218 H 1055.64 -3.19954 -2.30267 0
M  V30 9219 H 1056.93 -3.83919 -3.33892 0
M  V30 9220 H 1056.33 -1.47059 -5.46251 0
M  V30 9221 H 1054.89 -2.06259 -6.18305 0
M  V30 9222 N 1058.32 0.686584 -1.41858 0
M  V30 9223 C 1059.57 1.44379 -1.41418 0
M  V30 9224 C 1059.89 1.94981 -0.0273696 0
M  V30 9225 O 1059.16 1.72296 0.932248 0
M  V30 9226 H 1057.74 0.53574 -0.520568 0
M  V30 9227 H 1060.4 0.812056 -1.77177 0
M  V30 9228 H 1059.5 2.30258 -2.10684 0
M  V30 9229 N 1059.8 1.27835 0.921735 0
M  V30 9230 C 1061.21 1.13151 1.48505 0
M  V30 9231 C 1061.56 -0.281373 1.94172 0
M  V30 9232 O 1060.68 -1.17487 1.8173 0
M  V30 9233 C 1061.28 2.04792 2.69899 0
M  V30 9234 C 1059.84 1.94196 3.22436 0
M  V30 9235 C 1058.99 1.96999 1.95158 0
M  V30 9236 H 1061.94 1.40641 0.735241 0
M  V30 9237 H 1061.96 1.60724 3.44889 0
M  V30 9238 H 1061.47 3.07615 2.36631 0
M  V30 9239 H 1059.57 0.943805 3.60448 0
M  V30 9240 H 1059.68 2.80744 3.88226 0
M  V30 9241 H 1058.05 1.41301 2.11911 0
M  V30 9242 H 1058.83 3.01487 1.64196 0
M  V30 9243 N 1061.28 -1.12907 1.09954 0
M  V30 9244 C 1062.69 -1.363 0.830326 0
M  V30 9245 C 1062.89 -1.93772 -0.552694 0
M  V30 9246 O 1061.95 -2.1607 -1.30652 0
M  V30 9247 C 1063.26 -2.30925 1.92598 0
M  V30 9248 C 1064.81 -2.44528 1.95385 0
M  V30 9249 C 1065.28 -3.42464 3.0411 0
M  V30 9250 N 1066.77 -3.50018 3.03384 0
M  V30 9251 C 1067.51 -4.25693 3.84152 0
M  V30 9252 N 1067.01 -5.04476 4.74843 0
M  V30 9253 N 1068.8 -4.21049 3.7239 0
M  V30 9254 H 1060.95 -0.739571 1.99108 0
M  V30 9255 H 1063.21 -0.387983 0.86497 0
M  V30 9256 H 1062.92 -1.95861 2.92115 0
M  V30 9257 H 1062.79 -3.30997 1.80889 0
M  V30 9258 H 1065.18 -2.78875 0.965037 0
M  V30 9259 H 1065.26 -1.44361 2.11172 0
M  V30 9260 H 1064.9 -3.08847 4.03207 0
M  V30 9261 H 1064.83 -4.42448 2.85565 0
M  V30 9262 H 1067.33 -2.93809 2.37665 0
M  V30 9263 H 1067.64 -5.59541 5.33042 0
M  V30 9264 H 1065.98 -5.0369 4.78875 0
M  V30 9265 H 1069.17 -3.5858 3.00895 0
M  V30 9266 H 1069.35 -4.79771 4.35572 0
M  V30 9267 N 1062.75 -0.88754 -1.30232 0
M  V30 9268 C 1064 -0.506277 -1.95656 0
M  V30 9269 C 1064.32 0.948191 -1.70395 0
M  V30 9270 O 1063.59 1.66701 -1.02895 0
M  V30 9271 H 1062.17 -0.184235 -0.723924 0
M  V30 9272 H 1064.83 -1.13118 -1.58715 0
M  V30 9273 H 1063.93 -0.678673 -3.04632 0
M  V30 9274 N 1064.23 1.43628 -0.648757 0
M  V30 9275 C 1065.16 2.33478 0.0320785 0
M  V30 9276 C 1066.14 1.49217 0.816605 0
M  V30 9277 O 1067.33 1.77892 0.778974 0
M  V30 9278 C 1064.46 3.32525 1.00222 0
M  V30 9279 C 1063.41 4.2674 0.328119 0
M  V30 9280 C 1062.74 5.15791 1.4094 0
M  V30 9281 C 1064.04 5.16493 -0.776701 0
M  V30 9282 H 1065.73 2.90657 -0.718257 0
M  V30 9283 H 1063.28 1.3976 -0.346852 0
M  V30 9284 H 1065.23 3.94277 1.4874 0
M  V30 9285 H 1063.96 2.73593 1.78366 0
M  V30 9286 H 1062.61 3.66346 -0.136569 0
M  V30 9287 H 1062.26 4.53201 2.18216 0
M  V30 9288 H 1061.96 5.79645 0.963631 0
M  V30 9289 H 1063.49 5.80416 1.89603 0
M  V30 9290 H 1064.9 5.7208 -0.373878 0
M  V30 9291 H 1063.3 5.89043 -1.14667 0
M  V30 9292 H 1064.37 4.56448 -1.63654 0
M  V30 9293 N 1065.71 0.390394 1.52688 0
M  V30 9294 C 1067.12 -0.083394 1.86514 0
M  V30 9295 C 1067.47 -1.46057 1.31003 0
M  V30 9296 O 1066.6 -2.06663 0.641809 0
M  V30 9297 C 1067.19 -0.158102 3.38431 0
M  V30 9298 C 1065.75 -0.576186 3.71964 0
M  V30 9299 C 1064.9 0.261156 2.76068 0
M  V30 9300 H 1067.85 0.608226 1.46582 0
M  V30 9301 H 1067.87 -0.977023 3.67742 0
M  V30 9302 H 1067.38 0.844365 3.78803 0
M  V30 9303 H 1065.48 -1.58598 3.37161 0
M  V30 9304 H 1065.6 -0.333577 4.77937 0
M  V30 9305 H 1063.96 -0.273737 2.53225 0
M  V30 9306 H 1064.74 1.26162 3.19277 0
M  V30 9307 N 1067.19 -1.57141 0.120249 0
M  V30 9308 C 1068.44 -1.94852 -0.536387 0
M  V30 9309 C 1068.76 -1.00452 -1.67136 0
M  V30 9310 O 1068.03 -0.061053 -1.95805 0
M  V30 9311 H 1066.61 -0.719411 -0.201138 0
M  V30 9312 H 1069.27 -1.93977 0.189482 0
M  V30 9313 H 1068.37 -2.97917 -0.930145 0
M  V30 9314 N 1068.67 0.153526 -1.5685 0
M  V30 9315 C 1069.89 0.882335 -1.87143 0
M  V30 9316 C 1070.31 1.75034 -0.707702 0
M  V30 9317 O 1069.67 1.79624 0.32273 0
M  V30 9318 C 1069.72 1.74444 -3.16625 0
M  V30 9319 O 1069.44 0.911419 -4.28515 0
M  V30 9320 C 1070.94 2.58139 -3.60388 0
M  V30 9321 H 1068.16 0.25546 -0.620469 0
M  V30 9322 H 1070.7 0.148275 -2.03962 0
M  V30 9323 H 1068.86 2.43163 -3.0158 0
M  V30 9324 H 1069.27 1.50268 -5.02513 0
M  V30 9325 H 1070.75 3.14215 -4.53842 0
M  V30 9326 H 1071.22 3.33865 -2.85361 0
M  V30 9327 H 1071.83 1.94721 -3.78105 0
M  V30 9328 N 1070.14 1.51827 0.422667 0
M  V30 9329 C 1071.56 1.57533 1.00201 0
M  V30 9330 C 1071.91 0.407623 1.91919 0
M  V30 9331 O 1071.03 -0.473763 2.1115 0
M  V30 9332 C 1071.63 2.85508 1.82403 0
M  V30 9333 C 1070.19 2.93737 2.35362 0
M  V30 9334 C 1069.33 2.52343 1.14971 0
M  V30 9335 H 1072.28 1.57391 0.20339 0
M  V30 9336 H 1072.3 2.70097 2.68007 0
M  V30 9337 H 1071.82 3.70477 1.15623 0
M  V30 9338 H 1069.92 2.13231 3.05554 0
M  V30 9339 H 1070.03 3.977 2.67155 0
M  V30 9340 H 1068.39 2.05878 1.49955 0
M  V30 9341 H 1069.18 3.39672 0.497786 0
M  V30 9342 N 1071.62 -0.679052 1.4222 0
M  V30 9343 C 1072.87 -1.43627 1.42182 0
M  V30 9344 C 1073.19 -1.94964 0.0377095 0
M  V30 9345 O 1072.46 -1.72788 -0.923098 0
M  V30 9346 H 1071.04 -0.532972 0.523402 0
M  V30 9347 H 1073.7 -0.802649 1.77605 0
M  V30 9348 H 1072.8 -2.29137 2.11902 0
M  V30 9349 N 1073.1 -1.28322 -0.914942 0
M  V30 9350 C 1074.33 -1.18254 -1.69775 0
M  V30 9351 C 1074.74 0.258978 -1.87015 0
M  V30 9352 O 1074.1 1.17514 -1.3963 0
M  V30 9353 C 1074.15 -1.8753 -3.09054 0
M  V30 9354 O 1073.87 -3.26051 -2.92613 0
M  V30 9355 C 1075.37 -1.83749 -4.03424 0
M  V30 9356 H 1072.59 -0.41055 -0.530744 0
M  V30 9357 H 1075.14 -1.69425 -1.14523 0
M  V30 9358 H 1073.29 -1.40233 -3.61128 0
M  V30 9359 H 1073.71 -3.60729 -3.80756 0
M  V30 9360 H 1075.18 -2.36813 -4.98622 0
M  V30 9361 H 1075.66 -0.809601 -4.31674 0
M  V30 9362 H 1076.26 -2.3072 -3.57279 0
M  V30 9363 N 1074.58 1.12322 -1.10551 0
M  V30 9364 C 1075.86 1.80201 -0.760715 0
M  V30 9365 C 1076.24 1.97228 0.752628 0
M  V30 9366 O 1075.58 1.54958 1.67929 0
M  V30 9367 C 1075.79 3.14491 -1.51316 0
M  V30 9368 C 1077.14 3.89671 -1.68647 0
M  V30 9369 O 1078.17 3.24151 -1.47664 0
M  V30 9370 O 1077.02 5.0722 -2.03445 0
M  V30 9371 H 1074.12 0.780084 -0.274587 0
M  V30 9372 H 1076.66 1.19147 -1.20839 0
M  V30 9373 H 1075.44 2.97396 -2.54306 0
M  V30 9374 H 1075.06 3.83253 -1.05842 0
M  V30 9375 N 1076.06 0.894434 1.2976 0
M  V30 9376 C 1077.3 0.516646 1.95385 0
M  V30 9377 C 1077.63 -0.939141 1.70895 0
M  V30 9378 O 1076.9 -1.66153 1.03778 0
M  V30 9379 H 1075.48 0.188072 0.722937 0
M  V30 9380 H 1078.14 1.13958 1.58113 0
M  V30 9381 H 1077.23 0.694819 3.04267 0
M  V30 9382 N 1077.53 -1.43282 0.656365 0
M  V30 9383 C 1078.95 -1.85012 0.250475 0
M  V30 9384 C 1079.3 -1.54944 -1.20361 0
M  V30 9385 O 1078.42 -0.999983 -1.9191 0
M  V30 9386 C 1079.02 -3.35827 0.447815 0
M  V30 9387 C 1077.58 -3.76277 0.0962151 0
M  V30 9388 C 1076.72 -2.66988 0.749168 0
M  V30 9389 H 1079.67 -1.3339 0.85982 0
M  V30 9390 H 1079.69 -3.7927 -0.305726 0
M  V30 9391 H 1079.21 -3.5768 1.5062 0
M  V30 9392 H 1077.31 -3.60035 -0.959449 0
M  V30 9393 H 1077.42 -4.76227 0.523875 0
M  V30 9394 H 1075.78 -2.54048 0.18212 0
M  V30 9395 H 1076.57 -2.91669 1.81064 0
M  V30 9396 N 1079.01 -0.398486 -1.52479 0
M  V30 9397 C 1079.96 0.432212 -2.26717 0
M  V30 9398 C 1080.93 1.05007 -1.28696 0
M  V30 9399 O 1082.12 1.07636 -1.57541 0
M  V30 9400 C 1079.26 1.54868 -3.08399 0
M  V30 9401 C 1078.37 0.952779 -4.21362 0
M  V30 9402 C 1077.5 2.04106 -4.90423 0
M  V30 9403 C 1076.54 1.42153 -5.95364 0
M  V30 9404 N 1075.68 2.44951 -6.57984 0
M  V30 9405 H 1080.52 -0.207303 -2.97278 0
M  V30 9406 H 1078.06 -0.114066 -1.46657 0
M  V30 9407 H 1080.01 2.20684 -3.54054 0
M  V30 9408 H 1078.64 2.15837 -2.4003 0
M  V30 9409 H 1077.7 0.183962 -3.79955 0
M  V30 9410 H 1079.01 0.460131 -4.96673 0
M  V30 9411 H 1078.16 2.77672 -5.39429 0
M  V30 9412 H 1076.9 2.56733 -4.14656 0
M  V30 9413 H 1075.91 0.671161 -5.45688 0
M  V30 9414 H 1077.13 0.903093 -6.73068 0
M  V30 9415 H 1075.08 2.9673 -5.85053 0
M  V30 9416 H 1074.99 2.00468 -7.28937 0
M  V30 9417 H 1076.26 3.18119 -7.11632 0
M  V30 9418 N 1080.49 1.57075 -0.12858 0
M  V30 9419 C 1081.74 1.95134 0.526046 0
M  V30 9420 C 1082.06 1.01337 1.66601 0
M  V30 9421 O 1081.33 0.0714361 1.9577 0
M  V30 9422 H 1079.91 0.720468 0.19732 0
M  V30 9423 H 1082.57 1.93874 -0.199767 0
M  V30 9424 H 1081.67 2.98406 0.914332 0
M  V30 9425 N 1081.97 -0.145205 1.5693 0
M  V30 9426 C 1082.93 -1.16316 1.97492 0
M  V30 9427 C 1083.93 -1.35764 0.861668 0
M  V30 9428 O 1085.12 -1.32726 1.12825 0
M  V30 9429 C 1082.25 -2.52311 2.29242 0
M  V30 9430 H 1083.45 -0.815138 2.8861 0
M  V30 9431 H 1081 -0.38861 1.51392 0
M  V30 9432 H 1081.74 -2.92081 1.40922 0
M  V30 9433 H 1081.52 -2.39555 3.10412 0
M  V30 9434 H 1083.01 -3.25624 2.61456 0
M  V30 9435 N 1083.45 -1.52049 -0.414609 0
M  V30 9436 C 1084.67 -1.6997 -1.18848 0
M  V30 9437 C 1085.1 -0.406058 -1.83665 0
M  V30 9438 O 1084.46 0.635981 -1.69779 0
M  V30 9439 C 1084.5 -2.8327 -2.23138 0
M  V30 9440 O 1083.61 -2.48457 -3.29155 0
M  V30 9441 H 1082.95 -0.566003 -0.347183 0
M  V30 9442 H 1085.48 -1.98726 -0.486757 0
M  V30 9443 H 1085.49 -3.08022 -2.67557 0
M  V30 9444 H 1084.16 -3.7713 -1.75344 0
M  V30 9445 H 1082.74 -2.34357 -2.90054 0
M  V30 9446 N 1084.93 0.6715 -1.42579 0
M  V30 9447 C 1086.17 1.42871 -1.42941 0
M  V30 9448 C 1086.49 1.94941 -0.0480483 0
M  V30 9449 O 1085.76 1.73275 0.913921 0
M  V30 9450 H 1084.34 0.530189 -0.526221 0
M  V30 9451 H 1087.01 0.793219 -1.78028 0
M  V30 9452 H 1086.1 2.2801 -2.13114 0
M  V30 9453 N 1086.4 1.28806 0.908124 0
M  V30 9454 C 1087.81 1.14719 1.47297 0
M  V30 9455 C 1088.17 -0.260763 1.94459 0
M  V30 9456 O 1087.29 -1.15553 1.82966 0
M  V30 9457 C 1087.89 2.07643 2.67712 0
M  V30 9458 C 1086.44 1.97605 3.20358 0
M  V30 9459 C 1085.59 1.99058 1.93058 0
M  V30 9460 H 1088.54 1.41413 0.720283 0
M  V30 9461 H 1088.56 1.64372 3.43165 0
M  V30 9462 H 1088.08 3.10108 2.33355 0
M  V30 9463 H 1086.18 0.981982 3.59427 0
M  V30 9464 H 1086.29 2.84846 3.85226 0
M  V30 9465 H 1084.65 1.43541 2.104 0
M  V30 9466 H 1085.44 3.03212 1.60989 0
M  V30 9467 N 1087.88 -1.11734 1.11145 0
M  V30 9468 C 1088.84 -2.15868 0.770303 0
M  V30 9469 C 1089.84 -1.59438 -0.208842 0
M  V30 9470 O 1091.03 -1.74193 0.0152516 0
M  V30 9471 C 1088.17 -3.40603 0.142303 0
M  V30 9472 H 1089.36 -2.4756 1.69276 0
M  V30 9473 H 1086.91 -1.26867 0.912929 0
M  V30 9474 H 1087.65 -3.14517 -0.790526 0
M  V30 9475 H 1087.43 -3.8284 0.847087 0
M  V30 9476 H 1088.92 -4.17523 -0.0803608 0
M  V30 9477 N 1089.36 -0.901303 -1.29284 0
M  V30 9478 C 1090.61 -0.527 -1.95108 0
M  V30 9479 C 1090.93 0.930065 -1.71391 0
M  V30 9480 O 1090.2 1.65601 -1.04658 0
M  V30 9481 H 1088.78 -0.191903 -0.721929 0
M  V30 9482 H 1091.44 -1.14795 -1.57506 0
M  V30 9483 H 1090.54 -0.710945 -3.03895 0
M  V30 9484 N 1090.84 1.42931 -0.663954 0
M  V30 9485 C 1092.25 1.84877 -0.260283 0
M  V30 9486 C 1092.6 1.5558 1.19538 0
M  V30 9487 O 1091.72 1.01015 1.91377 0
M  V30 9488 C 1092.32 3.35585 -0.465618 0
M  V30 9489 C 1090.88 3.76221 -0.116169 0
M  V30 9490 C 1090.03 2.66587 -0.763317 0
M  V30 9491 H 1092.98 1.32932 -0.866882 0
M  V30 9492 H 1093 3.79427 0.285608 0
M  V30 9493 H 1092.51 3.56877 -1.52515 0
M  V30 9494 H 1090.61 3.60539 0.940342 0
M  V30 9495 H 1090.72 4.75943 -0.549123 0
M  V30 9496 H 1089.09 2.53948 -0.19559 0
M  V30 9497 H 1089.87 2.90704 -1.82609 0
M  V30 9498 N 1092.32 0.406567 1.52266 0
M  V30 9499 C 1093.73 -0.063607 1.86592 0
M  V30 9500 C 1094.08 -1.4466 1.32544 0
M  V30 9501 O 1093.2 -2.05971 0.663692 0
M  V30 9502 C 1093.8 -0.122198 3.3858 0
M  V30 9503 C 1092.36 -0.536701 3.72554 0
M  V30 9504 C 1091.5 0.290422 2.75775 0
M  V30 9505 H 1094.45 0.623738 1.45929 0
M  V30 9506 H 1094.48 -0.937964 3.68758 0
M  V30 9507 H 1093.99 0.884495 3.77887 0
M  V30 9508 H 1092.09 -1.55013 3.38824 0
M  V30 9509 H 1092.2 -0.282867 4.78264 0
M  V30 9510 H 1090.57 -0.246864 2.53501 0
M  V30 9511 H 1091.35 1.29541 3.17921 0
M  V30 9512 N 1093.79 -1.57004 0.136909 0
M  V30 9513 C 1095.04 -1.9541 -0.51569 0
M  V30 9514 C 1095.36 -1.02219 -1.66061 0
M  V30 9515 O 1094.63 -0.0818172 -1.95729 0
M  V30 9516 H 1093.21 -0.721504 -0.193497 0
M  V30 9517 H 1095.88 -1.93765 0.210046 0
M  V30 9518 H 1094.97 -2.98887 -0.898494 0
M  V30 9519 N 1095.27 0.136881 -1.57004 0
M  V30 9520 C 1096.24 1.15267 -1.98106 0
M  V30 9521 C 1097.24 1.35305 -0.868856 0
M  V30 9522 O 1098.43 1.32126 -1.13527 0
M  V30 9523 C 1095.56 2.51092 -2.30577 0
M  V30 9524 H 1096.75 0.799821 -2.89038 0
M  V30 9525 H 1094.3 0.380576 -1.51596 0
M  V30 9526 H 1095.04 2.9133 -1.42469 0
M  V30 9527 H 1094.82 2.37906 -3.11678 0
M  V30 9528 H 1096.31 3.24232 -2.63179 0
M  V30 9529 N 1096.75 1.52266 0.40654 0
M  V30 9530 C 1097.68 1.72025 1.51459 0
M  V30 9531 C 1098.7 0.600667 1.51314 0
M  V30 9532 O 1099.88 0.875894 1.55532 0
M  V30 9533 C 1096.98 1.7479 2.90348 0
M  V30 9534 C 1096.16 3.03826 3.14656 0
M  V30 9535 C 1095.22 2.98369 4.33431 0
M  V30 9536 O 1094.24 3.7227 4.30586 0
M  V30 9537 N 1095.44 2.16338 5.38682 0
M  V30 9538 H 1098.21 2.67622 1.34903 0
M  V30 9539 H 1095.77 1.50536 0.595867 0
M  V30 9540 H 1097.76 1.68667 3.67877 0
M  V30 9541 H 1096.33 0.86656 3.00349 0
M  V30 9542 H 1095.55 3.23577 2.25148 0
M  V30 9543 H 1096.84 3.89182 3.27742 0
M  V30 9544 H 1096.24 1.55731 5.43842 0
M  V30 9545 H 1094.8 2.1607 6.14945 0
M  V30 9546 N 1098.23 -0.663929 1.42933 0
M  V30 9547 C 1099.48 -1.42111 1.43697 0
M  V30 9548 C 1099.8 -1.94913 0.0583858 0
M  V30 9549 O 1099.07 -1.73757 -0.904719 0
M  V30 9550 H 1097.65 -0.527391 0.529026 0
M  V30 9551 H 1100.31 -0.783766 1.78446 0
M  V30 9552 H 1099.41 -2.26877 2.1432 0
M  V30 9553 N 1099.71 -1.29285 -0.901281 0
M  V30 9554 C 1101.12 -1.15499 -1.46686 0
M  V30 9555 C 1101.47 0.250446 -1.94595 0
M  V30 9556 O 1100.59 1.14581 -1.83576 0
M  V30 9557 C 1101.19 -2.0906 -2.66607 0
M  V30 9558 C 1099.75 -1.99301 -3.19306 0
M  V30 9559 C 1098.89 -2.00079 -1.91999 0
M  V30 9560 H 1101.85 -1.41793 -0.712773 0
M  V30 9561 H 1101.87 -1.6619 -3.42288 0
M  V30 9562 H 1101.38 -3.11341 -2.31707 0
M  V30 9563 H 1099.48 -1.00103 -3.58901 0
M  V30 9564 H 1099.59 -2.86885 -3.8371 0
M  V30 9565 H 1097.96 -1.44655 -2.09636 0
M  V30 9566 H 1098.74 -3.04061 -1.59379 0
M  V30 9567 N 1101.18 1.11143 -1.11736 0
M  V30 9568 C 1102.6 1.64462 -0.883693 0
M  V30 9569 C 1102.95 1.87324 0.583448 0
M  V30 9570 O 1102.07 1.60975 1.44623 0
M  V30 9571 C 1102.67 2.98765 -1.59764 0
M  V30 9572 C 1101.23 3.4898 -1.41032 0
M  V30 9573 C 1100.37 2.23729 -1.63831 0
M  V30 9574 H 1103.32 0.947415 -1.27317 0
M  V30 9575 H 1103.34 3.65885 -1.04443 0
M  V30 9576 H 1102.86 2.82094 -2.66542 0
M  V30 9577 H 1100.96 3.7081 -0.364781 0
M  V30 9578 H 1101.07 4.27571 -2.16148 0
M  V30 9579 H 1099.43 2.31507 -1.06191 0
M  V30 9580 H 1100.22 2.09597 -2.7189 0
M  V30 9581 N 1102.66 0.908147 1.28804 0
M  V30 9582 C 1103.91 0.53734 1.94826 0
M  V30 9583 C 1104.23 -0.920962 1.71882 0
M  V30 9584 O 1103.5 -1.65043 1.05534 0
M  V30 9585 H 1102.08 0.195729 0.720902 0
M  V30 9586 H 1104.74 1.15628 1.56895 0
M  V30 9587 H 1103.84 0.727052 3.03513 0
M  V30 9588 N 1104.14 -1.42577 0.671525 0
M  V30 9589 C 1105.07 -2.33499 0.00506984 0
M  V30 9590 C 1106.05 -1.50497 -0.792763 0
M  V30 9591 O 1107.24 -1.79109 -0.750574 0
M  V30 9592 C 1104.37 -3.34077 -0.949194 0
M  V30 9593 C 1103.32 -4.27208 -0.260187 0
M  V30 9594 C 1102.65 -5.17968 -1.32716 0
M  V30 9595 C 1103.95 -5.15192 0.858772 0
M  V30 9596 H 1105.64 -2.89477 0.764407 0
M  V30 9597 H 1103.19 -1.39191 0.369043 0
M  V30 9598 H 1105.14 -3.96594 -1.42448 0
M  V30 9599 H 1103.86 -2.76396 -1.73991 0
M  V30 9600 H 1102.52 -3.66082 0.194834 0
M  V30 9601 H 1102.17 -4.56615 -2.10979 0
M  V30 9602 H 1101.87 -5.81104 -0.871293 0
M  V30 9603 H 1103.39 -5.83359 -1.80345 0
M  V30 9604 H 1104.81 -5.71412 0.464844 0
M  V30 9605 H 1103.21 -5.87144 1.24023 0
M  V30 9606 H 1104.28 -4.53787 1.70895 0
M  V30 9607 N 1105.62 -0.414636 -1.52048 0
M  V30 9608 C 1106.55 0.443601 -2.24866 0
M  V30 9609 C 1107.56 1.00556 -1.28032 0
M  V30 9610 O 1108.75 0.903566 -1.53941 0
M  V30 9611 C 1105.85 1.63004 -2.97124 0
M  V30 9612 C 1105.03 1.191 -4.20873 0
M  V30 9613 C 1104.08 2.24497 -4.75907 0
M  V30 9614 O 1103.11 1.84861 -5.38345 0
M  V30 9615 N 1104.31 3.56727 -4.57959 0
M  V30 9616 H 1107.08 -0.180393 -2.99157 0
M  V30 9617 H 1104.64 -0.242305 -1.60077 0
M  V30 9618 H 1106.63 2.33089 -3.30835 0
M  V30 9619 H 1105.2 2.15984 -2.25986 0
M  V30 9620 H 1104.42 0.318059 -3.92915 0
M  V30 9621 H 1105.71 0.874699 -5.01225 0
M  V30 9622 H 1105.11 3.91675 -4.08175 0
M  V30 9623 H 1103.66 4.22772 -4.96092 0
M  V30 9624 N 1107.1 1.56929 -0.145233 0
M  V30 9625 C 1108.34 1.95681 0.50532 0
M  V30 9626 C 1108.67 1.03098 1.65516 0
M  V30 9627 O 1107.94 0.0921961 1.95683 0
M  V30 9628 H 1106.52 0.72252 0.189668 0
M  V30 9629 H 1109.18 1.93651 -0.220318 0
M  V30 9630 H 1108.27 2.99359 0.882631 0
M  V30 9631 N 1108.58 -0.128553 1.57075 0
M  V30 9632 C 1109.51 -1.18822 1.94825 0
M  V30 9633 C 1110.49 -1.40609 0.816571 0
M  V30 9634 O 1111.67 -1.5492 1.07388 0
M  V30 9635 C 1108.8 -2.54383 2.23623 0
M  V30 9636 C 1107.84 -2.4908 3.4621 0
M  V30 9637 S 1108.68 -1.93974 4.99133 0
M  V30 9638 C 1109.83 -3.31228 5.31074 0
M  V30 9639 H 1110.07 -0.866246 2.844 0
M  V30 9640 H 1107.6 -0.334927 1.50724 0
M  V30 9641 H 1109.56 -3.32386 2.40893 0
M  V30 9642 H 1108.22 -2.83761 1.34678 0
M  V30 9643 H 1107.41 -3.48915 3.63695 0
M  V30 9644 H 1107.01 -1.79193 3.28277 0
M  V30 9645 H 1109.3 -4.27407 5.25671 0
M  V30 9646 H 1110.25 -3.18578 6.32387 0
M  V30 9647 H 1110.66 -3.29215 4.5856 0
M  V30 9648 N 1110.05 -1.5248 -0.398459 0
M  V30 9649 C 1111.46 -1.59107 -0.976817 0
M  V30 9650 C 1111.82 -0.438104 -1.91246 0
M  V30 9651 O 1110.94 0.440111 -2.11877 0
M  V30 9652 C 1111.54 -2.88373 -1.77838 0
M  V30 9653 C 1110.09 -2.97445 -2.30659 0
M  V30 9654 C 1109.24 -2.5414 -1.10942 0
M  V30 9655 H 1112.19 -1.57695 -0.178324 0
M  V30 9656 H 1112.21 -2.74327 -2.63676 0
M  V30 9657 H 1111.73 -3.72269 -1.09714 0
M  V30 9658 H 1109.83 -2.18066 -3.02123 0
M  V30 9659 H 1109.94 -4.019 -2.60794 0
M  V30 9660 H 1108.3 -2.08237 -1.46661 0
M  V30 9661 H 1109.09 -3.40421 -0.443684 0
M  V30 9662 N 1111.53 0.65634 -1.43283 0
M  V30 9663 C 1112.78 1.41347 -1.44449 0
M  V30 9664 C 1113.1 1.94879 -0.0687217 0
M  V30 9665 O 1112.37 1.74235 0.895492 0
M  V30 9666 H 1110.95 0.524578 -0.531815 0
M  V30 9667 H 1113.61 0.774292 -1.7886 0
M  V30 9668 H 1112.71 2.25737 -2.15521 0
M  V30 9669 N 1113.01 1.29761 0.894412 0
M  V30 9670 C 1113.92 1.1724 2.03204 0
M  V30 9671 C 1114.94 0.0944452 1.73743 0
M  V30 9672 O 1116.11 0.307549 1.99038 0
M  V30 9673 C 1113.18 0.855416 3.35981 0
M  V30 9674 C 1112.24 2.01777 3.78926 0
M  V30 9675 C 1111.47 1.71581 5.05367 0
M  V30 9676 O 1111.69 0.639245 5.66807 0
M  V30 9677 O 1110.63 2.56539 5.44492 0
M  V30 9678 H 1114.45 2.12787 2.16692 0
M  V30 9679 H 1112.04 1.09264 1.0189 0
M  V30 9680 H 1113.92 0.693429 4.15656 0
M  V30 9681 H 1112.6 -0.0702195 3.23624 0
M  V30 9682 H 1111.5 2.23502 2.99996 0
M  V30 9683 H 1112.84 2.92479 3.95875 0
M  V30 9684 N 1114.49 -1.10549 1.12324 0
M  V30 9685 C 1115.9 -1.34508 0.85905 0
M  V30 9686 C 1116.1 -1.94901 -0.511468 0
M  V30 9687 O 1115.16 -2.18793 -1.2604 0
M  V30 9688 C 1116.47 -2.26788 1.97453 0
M  V30 9689 C 1118.02 -2.40328 2.00528 0
M  V30 9690 C 1118.5 -3.35936 3.11305 0
M  V30 9691 N 1119.99 -3.43504 3.1074 0
M  V30 9692 C 1120.72 -4.17449 3.93096 0
M  V30 9693 N 1120.22 -4.9429 4.85437 0
M  V30 9694 N 1122.01 -4.13055 3.81237 0
M  V30 9695 H 1114.16 -0.697171 2.00632 0
M  V30 9696 H 1116.42 -0.369548 0.873005 0
M  V30 9697 H 1116.13 -1.89621 2.96204 0
M  V30 9698 H 1116 -3.27086 1.87869 0
M  V30 9699 H 1118.39 -2.76765 1.02397 0
M  V30 9700 H 1118.47 -1.39849 2.14186 0
M  V30 9701 H 1118.12 -3.00225 4.09667 0
M  V30 9702 H 1118.05 -4.36291 2.94886 0
M  V30 9703 H 1120.54 -2.88702 2.43843 0
M  V30 9704 H 1120.85 -5.48109 5.4479 0
M  V30 9705 H 1119.2 -4.93419 4.89452 0
M  V30 9706 H 1122.39 -3.52117 3.08433 0
M  V30 9707 H 1122.56 -4.70424 4.45651 0
M  V30 9708 N 1115.97 -0.914965 -1.28321 0
M  V30 9709 C 1117.21 -0.547665 -1.94538 0
M  V30 9710 C 1117.53 0.911834 -1.72368 0
M  V30 9711 O 1116.8 1.64481 -1.06408 0
M  V30 9712 H 1115.38 -0.199549 -0.719853 0
M  V30 9713 H 1118.05 -1.16459 -1.5628 0
M  V30 9714 H 1117.14 -0.743138 -3.03124 0
M  V30 9715 N 1117.44 1.42219 -0.679077 0
M  V30 9716 C 1118.41 2.29197 -0.0125475 0
M  V30 9717 C 1119.41 1.43544 0.724691 0
M  V30 9718 O 1120.6 1.64884 0.562052 0
M  V30 9719 C 1117.73 3.26122 0.992846 0
M  V30 9720 H 1118.92 2.89629 -0.778154 0
M  V30 9721 H 1116.47 1.4993 -0.44166 0
M  V30 9722 H 1117.21 2.70637 1.78679 0
M  V30 9723 H 1116.99 3.89302 0.467544 0
M  V30 9724 H 1118.48 3.91339 1.45751 0
M  V30 9725 N 1118.92 0.422693 1.51826 0
M  V30 9726 C 1119.88 -0.384307 2.25955 0
M  V30 9727 C 1120.88 -0.962184 1.28836 0
M  V30 9728 O 1122.07 -0.838931 1.52668 0
M  V30 9729 C 1119.21 -1.54228 3.04018 0
M  V30 9730 H 1120.4 0.265157 2.98726 0
M  V30 9731 H 1117.95 0.175515 1.55311 0
M  V30 9732 H 1118.69 -2.22822 2.35629 0
M  V30 9733 H 1118.47 -1.13425 3.75336 0
M  V30 9734 H 1119.96 -2.1128 3.60209 0
M  V30 9735 N 1120.4 -1.5685 0.153553 0
M  V30 9736 C 1121.65 -1.95946 -0.494936 0
M  V30 9737 C 1121.97 -1.03975 -1.64967 0
M  V30 9738 O 1121.24 -0.102572 -1.95631 0
M  V30 9739 H 1119.82 -0.723516 -0.185833 0
M  V30 9740 H 1122.48 -1.93531 0.230585 0
M  V30 9741 H 1121.58 -2.99823 -0.866743 0
M  V30 9742 N 1121.88 0.120221 -1.57141 0
M  V30 9743 C 1123.13 0.826791 -1.83976 0
M  V30 9744 C 1123.44 1.81102 -0.739014 0
M  V30 9745 O 1124.65 2.56368 -0.893736 0
M  V30 9746 C 1123.1 1.52108 -3.26176 0
M  V30 9747 C 1122.71 0.577902 -4.44257 0
M  V30 9748 C 1124.45 2.21286 -3.62261 0
M  V30 9749 C 1122.36 1.27535 -5.77485 0
M  V30 9750 H 1121.29 0.312508 -0.686189 0
M  V30 9751 H 1123.94 0.0795343 -1.83328 0
M  V30 9752 H 1122.32 2.31492 -3.2129 0
M  V30 9753 H 1123.5 -0.182629 -4.60438 0
M  V30 9754 H 1121.81 -0.00684348 -4.16399 0
M  V30 9755 H 1124.41 2.74154 -4.59068 0
M  V30 9756 H 1124.75 2.99029 -2.89634 0
M  V30 9757 H 1125.29 1.48791 -3.68925 0
M  V30 9758 H 1122.02 0.539237 -6.53278 0
M  V30 9759 H 1121.54 2.00792 -5.65192 0
M  V30 9760 H 1123.22 1.80888 -6.21199 0
M  V30 9761 N 1123.36 1.52689 0.390367 0
M  V30 9762 C 1124.32 1.76726 1.45947 0
M  V30 9763 C 1125.32 0.637269 1.47633 0
M  V30 9764 O 1126.51 0.905312 1.48828 0
M  V30 9765 C 1123.64 1.86678 2.85244 0
M  V30 9766 H 1124.83 2.72185 1.25918 0
M  V30 9767 H 1122.39 1.4339 0.622023 0
M  V30 9768 H 1123.12 0.931991 3.10619 0
M  V30 9769 H 1122.91 2.68843 2.85422 0
M  V30 9770 H 1124.4 2.06952 3.62713 0
M  V30 9771 N 1124.83 -0.648732 1.43629 0
M  V30 9772 C 1126.08 -1.40579 1.45196 0
M  V30 9773 C 1126.4 -1.9484 0.0790556 0
M  V30 9774 O 1125.67 -1.74707 -0.886239 0
M  V30 9775 H 1124.25 -0.52175 0.53459 0
M  V30 9776 H 1126.92 -0.764796 1.79268 0
M  V30 9777 H 1126.01 -2.24591 2.16715 0
M  V30 9778 N 1126.31 -1.30234 -0.887518 0
M  V30 9779 C 1127.72 -1.17048 -1.45453 0
M  V30 9780 C 1128.07 0.229793 -1.9485 0
M  V30 9781 O 1127.2 1.12628 -1.84781 0
M  V30 9782 C 1127.79 -2.11876 -2.64375 0
M  V30 9783 C 1126.35 -2.02676 -3.17174 0
M  V30 9784 C 1125.5 -2.02104 -1.89866 0
M  V30 9785 H 1128.45 -1.42541 -0.697694 0
M  V30 9786 H 1128.47 -1.69811 -3.40506 0
M  V30 9787 H 1127.98 -3.13781 -2.28392 0
M  V30 9788 H 1126.09 -1.03904 -3.57819 0
M  V30 9789 H 1126.2 -2.90939 -3.80646 0
M  V30 9790 H 1124.56 -1.4687 -2.0809 0
M  V30 9791 H 1125.35 -3.05735 -1.56145 0
M  V30 9792 N 1127.79 1.09952 -1.12909 0
M  V30 9793 C 1128.74 2.16436 -0.801514 0
M  V30 9794 C 1129.71 1.64444 0.233976 0
M  V30 9795 O 1130.89 1.90497 0.10743 0
M  V30 9796 C 1128.03 3.4406 -0.267753 0
M  V30 9797 C 1127.15 4.09979 -1.36165 0
M  V30 9798 C 1126.28 5.25341 -0.786803 0
M  V30 9799 C 1125.32 5.83172 -1.85948 0
M  V30 9800 N 1124.46 6.89904 -1.30298 0
M  V30 9801 H 1129.3 2.43799 -1.71365 0
M  V30 9802 H 1126.83 1.19665 -0.855499 0
M  V30 9803 H 1128.79 4.17157 0.0598031 0
M  V30 9804 H 1127.42 3.17031 0.607528 0
M  V30 9805 H 1126.47 3.34801 -1.8059 0
M  V30 9806 H 1127.79 4.48999 -2.17259 0
M  V30 9807 H 1126.94 6.05312 -0.410211 0
M  V30 9808 H 1125.68 4.87669 0.055279 0
M  V30 9809 H 1124.68 5.01867 -2.24521 0
M  V30 9810 H 1125.91 6.22907 -2.70487 0
M  V30 9811 H 1123.85 6.54221 -0.482806 0
M  V30 9812 H 1123.77 7.27662 -2.05046 0
M  V30 9813 H 1125.04 7.73643 -0.953779 0
M  V30 9814 N 1129.27 0.921757 1.27833 0
M  V30 9815 C 1130.52 0.557974 1.94245 0
M  V30 9816 C 1130.84 -0.90268 1.72849 0
M  V30 9817 O 1130.11 -1.63915 1.07279 0
M  V30 9818 H 1128.69 0.203364 0.718785 0
M  V30 9819 H 1131.35 1.17286 1.5566 0
M  V30 9820 H 1130.45 0.759202 3.02725 0
M  V30 9821 N 1130.75 -1.41857 0.686609 0
M  V30 9822 C 1132.02 -1.95082 0.142228 0
M  V30 9823 C 1132.4 -1.62646 -1.34572 0
M  V30 9824 O 1131.75 -0.928757 -2.08773 0
M  V30 9825 C 1131.96 -3.46415 0.423955 0
M  V30 9826 C 1133.31 -4.23181 0.346842 0
M  V30 9827 O 1134.33 -3.54393 0.358363 0
M  V30 9828 O 1133.19 -5.4568 0.299211 0
M  V30 9829 H 1130.29 -0.826943 0.00974 0
M  V30 9830 H 1132.83 -1.51622 0.762153 0
M  V30 9831 H 1131.6 -3.63273 1.45424 0
M  V30 9832 H 1131.23 -3.96949 -0.227391 0
M  V30 9833 N 1132.22 -0.430739 -1.51599 0
M  V30 9834 C 1133.64 -0.0826902 -1.59386 0
M  V30 9835 C 1133.84 1.40729 -1.44214 0
M  V30 9836 O 1132.9 2.1765 -1.28002 0
M  V30 9837 C 1134.21 -0.59691 -2.94716 0
M  V30 9838 C 1135.76 -0.556772 -3.08008 0
M  V30 9839 C 1136.23 -1.04786 -4.45852 0
M  V30 9840 N 1137.72 -1.00557 -4.52153 0
M  V30 9841 C 1138.46 -1.35649 -5.57124 0
M  V30 9842 N 1137.95 -1.77994 -6.69545 0
M  V30 9843 N 1139.75 -1.27508 -5.47447 0
M  V30 9844 H 1131.9 -1.40027 -1.59707 0
M  V30 9845 H 1134.16 -0.576606 -0.752482 0
M  V30 9846 H 1133.87 -1.63914 -3.11167 0
M  V30 9847 H 1133.74 -0.0182342 -3.77196 0
M  V30 9848 H 1136.13 0.476457 -2.91228 0
M  V30 9849 H 1136.21 -1.17177 -2.27383 0
M  V30 9850 H 1135.85 -2.07952 -4.63377 0
M  V30 9851 H 1135.78 -0.409461 -5.25006 0
M  V30 9852 H 1138.27 -0.694518 -3.71463 0
M  V30 9853 H 1138.59 -2.03026 -7.45654 0
M  V30 9854 H 1136.93 -1.81916 -6.70769 0
M  V30 9855 H 1140.12 -0.942969 -4.58504 0
M  V30 9856 H 1140.3 -1.55185 -6.29143 0
M  V30 9857 N 1133.7 1.56767 -0.161869 0
M  V30 9858 C 1134.95 1.96206 0.484537 0
M  V30 9859 C 1135.27 1.04848 1.64414 0
M  V30 9860 O 1134.54 0.112946 1.95574 0
M  V30 9861 H 1133.12 0.724491 0.181994 0
M  V30 9862 H 1135.78 1.93406 -0.240845 0
M  V30 9863 H 1134.88 3.00279 0.85083 0
M  V30 9864 N 1135.18 -0.111886 1.57202 0
M  V30 9865 C 1136.46 -0.849125 1.76208 0
M  V30 9866 C 1136.84 -1.97735 0.73919 0
M  V30 9867 O 1136.19 -2.27283 -0.235523 0
M  V30 9868 C 1136.4 -1.35924 3.21443 0
M  V30 9869 C 1137.74 -1.80874 3.84148 0
M  V30 9870 O 1138.77 -1.45587 3.25089 0
M  V30 9871 O 1137.63 -2.46065 4.87969 0
M  V30 9872 H 1134.72 -0.403761 0.721738 0
M  V30 9873 H 1137.27 -0.0950726 1.69433 0
M  V30 9874 H 1136.04 -0.550113 3.87414 0
M  V30 9875 H 1135.66 -2.17579 3.32784 0
M  V30 9876 N 1136.66 -1.52894 -0.382264 0
M  V30 9877 C 1137.9 -1.68515 -1.12829 0
M  V30 9878 C 1138.24 -0.427211 -1.89443 0
M  V30 9879 O 1137.51 0.57516 -1.85801 0
M  V30 9880 C 1137.8 -2.92449 -2.10108 0
M  V30 9881 C 1137.65 -4.2836 -1.37214 0
M  V30 9882 C 1138.97 -3.11944 -3.1045 0
M  V30 9883 H 1136.09 -0.613223 -0.408811 0
M  V30 9884 H 1138.73 -1.85503 -0.410921 0
M  V30 9885 H 1136.88 -2.78097 -2.71283 0
M  V30 9886 H 1138.55 -4.54493 -0.789516 0
M  V30 9887 H 1136.79 -4.28532 -0.673973 0
M  V30 9888 H 1137.46 -5.11178 -2.0833 0
M  V30 9889 H 1139.94 -3.25372 -2.59369 0
M  V30 9890 H 1138.82 -4.00125 -3.75754 0
M  V30 9891 H 1139.08 -2.26465 -3.79692 0
M  V30 9892 N 1138.14 0.641106 -1.43971 0
M  V30 9893 C 1139.39 1.39807 -1.4594 0
M  V30 9894 C 1139.71 1.94795 -0.0893874 0
M  V30 9895 O 1138.98 1.75175 0.876962 0
M  V30 9896 H 1137.56 0.518908 -0.537349 0
M  V30 9897 H 1140.22 0.755278 -1.79671 0
M  V30 9898 H 1139.31 2.23439 -2.17903 0
M  V30 9899 N 1139.62 1.30703 0.880598 0
M  V30 9900 C 1140.53 1.19389 2.01949 0
M  V30 9901 C 1141.54 0.112868 1.73634 0
M  V30 9902 O 1142.72 0.328643 1.98701 0
M  V30 9903 C 1139.78 0.891004 3.35055 0
M  V30 9904 C 1138.84 2.05784 3.76764 0
M  V30 9905 C 1138.08 1.76931 5.03519 0
M  V30 9906 O 1138.3 0.699326 5.66097 0
M  V30 9907 O 1137.23 2.623 5.4174 0
M  V30 9908 H 1141.06 2.15073 2.14423 0
M  V30 9909 H 1138.64 1.10339 1.00726 0
M  V30 9910 H 1140.53 0.737476 4.14897 0
M  V30 9911 H 1139.2 -0.0358909 3.2368 0
M  V30 9912 H 1138.11 2.26672 2.97608 0
M  V30 9913 H 1139.44 2.96661 3.9275 0
M  V30 9914 N 1141.09 -1.09351 1.1349 0
M  V30 9915 C 1142.04 -2.16008 0.812981 0
M  V30 9916 C 1143.01 -1.64566 -0.225252 0
M  V30 9917 O 1144.2 -1.90552 -0.0973261 0
M  V30 9918 C 1141.34 -3.43913 0.285996 0
M  V30 9919 C 1140.45 -4.09251 1.38338 0
M  V30 9920 C 1139.58 -5.24916 0.814652 0
M  V30 9921 C 1138.62 -5.82178 1.89038 0
M  V30 9922 N 1137.76 -6.89203 1.33955 0
M  V30 9923 H 1142.6 -2.42887 1.72655 0
M  V30 9924 H 1140.14 -1.19209 0.861833 0
M  V30 9925 H 1142.09 -4.17183 -0.0376794 0
M  V30 9926 H 1140.72 -3.17349 -0.590707 0
M  V30 9927 H 1139.78 -3.33838 1.82363 0
M  V30 9928 H 1141.09 -4.4784 2.19638 0
M  V30 9929 H 1140.24 -6.05086 0.442306 0
M  V30 9930 H 1138.98 -4.87691 -0.029416 0
M  V30 9931 H 1137.99 -5.00669 2.27179 0
M  V30 9932 H 1139.21 -6.21464 2.73787 0
M  V30 9933 H 1137.16 -6.53956 0.517494 0
M  V30 9934 H 1137.07 -7.26565 2.08902 0
M  V30 9935 H 1138.34 -7.73126 0.994793 0
M  V30 9936 N 1142.57 -0.928524 -1.27343 0
M  V30 9937 C 1143.82 -0.568267 -1.93946 0
M  V30 9938 C 1144.14 0.893501 -1.73325 0
M  V30 9939 O 1143.41 1.63344 -1.08147 0
M  V30 9940 H 1141.99 -0.207173 -0.717696 0
M  V30 9941 H 1144.65 -1.1811 -1.55036 0
M  V30 9942 H 1143.75 -0.775246 -3.02318 0
M  V30 9943 N 1144.05 1.41491 -0.694123 0
M  V30 9944 C 1145.46 1.84283 -0.299439 0
M  V30 9945 C 1145.81 1.58081 1.16211 0
M  V30 9946 O 1144.94 1.05051 1.89191 0
M  V30 9947 C 1145.53 3.34522 -0.536696 0
M  V30 9948 C 1144.09 3.7589 -0.195944 0
M  V30 9949 C 1143.24 2.64908 -0.819692 0
M  V30 9950 H 1146.19 1.31063 -0.894884 0
M  V30 9951 H 1146.21 3.79947 0.205062 0
M  V30 9952 H 1145.72 3.53561 -1.6005 0
M  V30 9953 H 1143.82 3.62452 0.863655 0
M  V30 9954 H 1143.94 4.74671 -0.649954 0
M  V30 9955 H 1142.3 2.53476 -0.249412 0
M  V30 9956 H 1143.08 2.86765 -1.88734 0
M  V30 9957 N 1145.53 0.438773 1.51369 0
M  V30 9958 C 1146.44 -0.378074 2.31534 0
M  V30 9959 C 1147.45 -1.02632 1.40508 0
M  V30 9960 O 1148.63 -1.02138 1.73579 0
M  V30 9961 C 1145.69 -1.46374 3.14286 0
M  V30 9962 C 1144.76 -0.835473 4.21092 0
M  V30 9963 C 1143.99 -1.86941 4.99889 0
M  V30 9964 O 1144.21 -3.0918 4.79337 0
M  V30 9965 O 1143.15 -1.45914 5.83946 0
M  V30 9966 H 1146.97 0.276401 3.0244 0
M  V30 9967 H 1144.56 0.201281 1.48038 0
M  V30 9968 H 1146.44 -2.09335 3.65728 0
M  V30 9969 H 1145.11 -2.10227 2.46143 0
M  V30 9970 H 1144.02 -0.167775 3.73724 0
M  V30 9971 H 1145.35 -0.240406 4.91613 0
M  V30 9972 N 1147.01 -1.56678 0.170181 0
M  V30 9973 C 1148.25 -1.9646 -0.474125 0
M  V30 9974 C 1148.57 -1.05719 -1.63855 0
M  V30 9975 O 1147.84 -0.123316 -1.95511 0
M  V30 9976 H 1146.42 -0.725446 -0.178149 0
M  V30 9977 H 1149.09 -1.93276 0.251099 0
M  V30 9978 H 1148.18 -3.00726 -0.834894 0
M  V30 9979 N 1148.48 0.103547 -1.57259 0
M  V30 9980 C 1149.45 1.11039 -2.00507 0
M  V30 9981 C 1150.45 1.33432 -0.897361 0
M  V30 9982 O 1151.64 1.29688 -1.16304 0
M  V30 9983 C 1148.77 2.46144 -2.35851 0
M  V30 9984 H 1149.96 0.738332 -2.90669 0
M  V30 9985 H 1147.51 0.348334 -1.52369 0
M  V30 9986 H 1148.25 2.88242 -1.48617 0
M  V30 9987 H 1148.03 2.31241 -3.16654 0
M  V30 9988 H 1149.52 3.18577 -2.69997 0
M  V30 9989 N 1149.96 1.53094 0.37415 0
M  V30 9990 C 1151.37 1.60641 0.951381 0
M  V30 9991 C 1151.72 0.468474 1.90525 0
M  V30 9992 O 1150.85 -0.406347 2.12551 0
M  V30 9993 C 1151.44 2.91166 1.73228 0
M  V30 9994 C 1150 3.01077 2.25898 0
M  V30 9995 C 1149.15 2.55873 1.06885 0
M  V30 9996 H 1152.1 1.57959 0.153214 0
M  V30 9997 H 1152.12 2.78487 2.59278 0
M  V30 9998 H 1151.63 3.73968 1.03778 0
M  V30 9999 H 1149.73 2.22844 2.98615 0
M  V30 10000 H 1149.85 4.05998 2.54367 0
M  V30 10001 H 1148.21 2.10544 1.43329 0
M  V30 10002 H 1148.99 3.41084 0.38947 0
M  V30 10003 N 1151.44 -0.633461 1.44309 0
M  V30 10004 C 1152.69 -1.39031 1.46679 0
M  V30 10005 C 1153.01 -1.94745 0.0997165 0
M  V30 10006 O 1152.28 -1.75637 -0.867659 0
M  V30 10007 H 1150.86 -0.516051 0.540093 0
M  V30 10008 H 1153.52 -0.745739 1.80069 0
M  V30 10009 H 1152.62 -2.2228 2.19085 0
M  V30 10010 N 1152.92 -1.31168 -0.873655 0
M  V30 10011 C 1153.87 -1.18507 -1.98052 0
M  V30 10012 C 1154.84 -0.0717583 -1.65945 0
M  V30 10013 O 1156.02 -0.243965 -1.89234 0
M  V30 10014 C 1153.16 -0.894571 -3.33304 0
M  V30 10015 C 1152.27 -2.09086 -3.7803 0
M  V30 10016 C 1151.41 -1.73747 -5.01982 0
M  V30 10017 C 1150.45 -2.89805 -5.39147 0
M  V30 10018 N 1149.58 -2.54686 -6.54278 0
M  V30 10019 H 1154.42 -2.13193 -2.08213 0
M  V30 10020 H 1151.96 -1.06056 -1.01934 0
M  V30 10021 H 1153.92 -0.706714 -4.11171 0
M  V30 10022 H 1152.55 0.0154449 -3.22796 0
M  V30 10023 H 1151.6 -2.38961 -2.95976 0
M  V30 10024 H 1152.91 -2.95963 -4.01506 0
M  V30 10025 H 1152.07 -1.51402 -5.87505 0
M  V30 10026 H 1150.81 -0.840553 -4.80402 0
M  V30 10027 H 1149.81 -3.12803 -4.52144 0
M  V30 10028 H 1151.04 -3.802 -5.62694 0
M  V30 10029 H 1148.98 -1.67513 -6.34252 0
M  V30 10030 H 1148.9 -3.35093 -6.77679 0
M  V30 10031 H 1150.17 -2.35725 -7.43003 0
M  V30 10032 N 1154.4 1.08748 -1.14068 0
M  V30 10033 C 1155.67 1.7769 -0.81766 0
M  V30 10034 C 1156.05 1.99522 0.689501 0
M  V30 10035 O 1155.4 1.60222 1.62914 0
M  V30 10036 C 1155.61 3.09517 -1.61245 0
M  V30 10037 C 1156.96 3.84108 -1.80958 0
M  V30 10038 O 1157.98 3.19289 -1.57902 0
M  V30 10039 O 1156.84 5.00491 -2.19479 0
M  V30 10040 H 1153.94 0.770953 -0.299265 0
M  V30 10041 H 1156.48 1.15242 -1.24569 0
M  V30 10042 H 1155.25 2.89155 -2.63638 0
M  V30 10043 H 1154.88 3.79692 -1.17982 0
M  V30 10044 N 1155.87 0.935264 1.26849 0
M  V30 10045 C 1157.12 0.578545 1.93642 0
M  V30 10046 C 1157.44 -0.884296 1.73796 0
M  V30 10047 O 1156.71 -1.62768 1.09011 0
M  V30 10048 H 1155.29 0.210976 0.716588 0
M  V30 10049 H 1157.96 1.1893 1.54407 0
M  V30 10050 H 1157.05 0.791268 3.01903 0
M  V30 10051 N 1157.35 -1.41121 0.701616 0
M  V30 10052 C 1158.6 -2.00733 0.234682 0
M  V30 10053 C 1158.92 -1.55869 -1.17174 0
M  V30 10054 O 1158.19 -0.791965 -1.79178 0
M  V30 10055 H 1156.77 -0.742288 0.0837745 0
M  V30 10056 H 1159.43 -1.7266 0.904127 0
M  V30 10057 H 1158.53 -3.11041 0.256831 0
M  V30 10058 N 1158.83 -0.446794 -1.51134 0
M  V30 10059 C 1160.25 -0.0995905 -1.59289 0
M  V30 10060 C 1160.45 1.39191 -1.45699 0
M  V30 10061 O 1159.5 2.1628 -1.30303 0
M  V30 10062 C 1160.82 -0.628135 -2.94066 0
M  V30 10063 C 1162.36 -0.589409 -3.074 0
M  V30 10064 C 1162.84 -1.09509 -4.44715 0
M  V30 10065 N 1164.33 -1.05347 -4.51061 0
M  V30 10066 C 1165.06 -1.41551 -5.55654 0
M  V30 10067 N 1164.56 -1.85086 -6.67619 0
M  V30 10068 N 1166.35 -1.33307 -5.46064 0
M  V30 10069 H 1158.5 -1.41713 -1.58213 0
M  V30 10070 H 1160.77 -0.584555 -0.746324 0
M  V30 10071 H 1160.47 -1.67205 -3.09411 0
M  V30 10072 H 1160.35 -0.0582398 -3.77155 0
M  V30 10073 H 1162.73 0.445541 -2.91717 0
M  V30 10074 H 1162.82 -1.19582 -2.26128 0
M  V30 10075 H 1162.46 -2.12855 -4.61146 0
M  V30 10076 H 1162.39 -0.465122 -5.24542 0
M  V30 10077 H 1164.88 -0.733877 -3.70706 0
M  V30 10078 H 1165.19 -2.10923 -7.43459 0
M  V30 10079 H 1163.54 -1.8902 -6.68802 0
M  V30 10080 H 1166.73 -0.991547 -4.57478 0
M  V30 10081 H 1166.9 -1.6185 -6.27462 0
M  V30 10082 N 1160.31 1.56586 -0.178487 0
M  V30 10083 C 1161.56 1.96709 0.4637 0
M  V30 10084 C 1161.88 1.06586 1.63292 0
M  V30 10085 O 1161.15 0.133683 1.95443 0
M  V30 10086 H 1159.73 0.726381 0.174299 0
M  V30 10087 H 1162.39 1.9314 -0.261345 0
M  V30 10088 H 1161.49 3.01164 0.818934 0
M  V30 10089 N 1161.79 -0.095206 1.57312 0
M  V30 10090 C 1162.72 -1.11627 2.05089 0
M  V30 10091 C 1163.7 -1.41782 0.939787 0
M  V30 10092 O 1164.88 -1.51813 1.21105 0
M  V30 10093 C 1162.01 -2.43618 2.47523 0
M  V30 10094 C 1160.97 -2.27872 3.62296 0
M  V30 10095 C 1160.29 -3.65038 3.90706 0
M  V30 10096 C 1161.59 -1.71936 4.93189 0
M  V30 10097 H 1163.29 -0.718795 2.90644 0
M  V30 10098 H 1160.83 -0.344315 1.39823 0
M  V30 10099 H 1162.79 -3.1532 2.79556 0
M  V30 10100 H 1161.51 -2.85301 1.58968 0
M  V30 10101 H 1160.17 -1.58615 3.3051 0
M  V30 10102 H 1159.82 -4.04249 2.99319 0
M  V30 10103 H 1159.52 -3.55349 4.67976 0
M  V30 10104 H 1161.04 -4.38208 4.25213 0
M  V30 10105 H 1162.45 -2.33479 5.23603 0
M  V30 10106 H 1160.85 -1.73006 5.74621 0
M  V30 10107 H 1161.92 -0.678789 4.80125 0
M  V30 10108 N 1163.26 -1.53291 -0.366026 0
M  V30 10109 C 1164.49 -1.73359 -1.12934 0
M  V30 10110 C 1164.91 -0.462352 -1.83051 0
M  V30 10111 O 1164.26 0.564711 -1.73543 0
M  V30 10112 C 1164.32 -2.89873 -2.15999 0
M  V30 10113 O 1164.04 -4.12079 -1.48737 0
M  V30 10114 C 1165.54 -3.21811 -3.04881 0
M  V30 10115 H 1162.76 -0.579827 -0.337701 0
M  V30 10116 H 1165.3 -2.00033 -0.425081 0
M  V30 10117 H 1163.46 -2.65595 -2.82025 0
M  V30 10118 H 1163.87 -4.77322 -2.17404 0
M  V30 10119 H 1165.34 -4.06744 -3.7318 0
M  V30 10120 H 1165.82 -2.37156 -3.69667 0
M  V30 10121 H 1166.43 -3.48013 -2.44473 0
M  V30 10122 N 1164.74 0.6258 -1.44643 0
M  V30 10123 C 1165.99 1.38251 -1.47414 0
M  V30 10124 C 1166.31 1.94689 -0.110043 0
M  V30 10125 O 1165.58 1.76095 0.858333 0
M  V30 10126 H 1164.16 0.513179 -0.542823 0
M  V30 10127 H 1166.82 0.736179 -1.80462 0
M  V30 10128 H 1165.92 2.21115 -2.2026 0
M  V30 10129 N 1166.22 1.31629 0.866686 0
M  V30 10130 C 1167.63 1.19347 1.43573 0
M  V30 10131 C 1167.98 -0.198765 1.95191 0
M  V30 10132 O 1167.11 -1.09674 1.86549 0
M  V30 10133 C 1167.7 2.16055 2.6097 0
M  V30 10134 C 1166.26 2.07697 3.13909 0
M  V30 10135 C 1165.41 2.05099 1.86627 0
M  V30 10136 H 1168.36 1.43633 0.674929 0
M  V30 10137 H 1168.38 1.75207 3.37761 0
M  V30 10138 H 1167.89 3.17375 2.23371 0
M  V30 10139 H 1165.99 1.09583 3.56121 0
M  V30 10140 H 1166.11 2.96958 3.75969 0
M  V30 10141 H 1164.47 1.50162 2.05727 0
M  V30 10142 H 1165.25 3.0818 1.51261 0
M  V30 10143 N 1167.7 -1.08142 1.14644 0
M  V30 10144 C 1168.95 -1.79959 0.910908 0
M  V30 10145 C 1169.26 -1.87296 -0.563866 0
M  V30 10146 O 1170.47 -2.55555 -0.916735 0
M  V30 10147 C 1168.92 -3.23351 1.58025 0
M  V30 10148 C 1168.53 -3.2424 3.09148 0
M  V30 10149 C 1170.28 -3.99834 1.42595 0
M  V30 10150 C 1168.18 -4.62236 3.68906 0
M  V30 10151 H 1167.11 -0.674423 0.33715 0
M  V30 10152 H 1169.76 -1.21441 1.37566 0
M  V30 10153 H 1168.15 -3.82013 1.04318 0
M  V30 10154 H 1169.32 -2.75269 3.69545 0
M  V30 10155 H 1167.63 -2.61253 3.24246 0
M  V30 10156 H 1170.23 -5.01809 1.8464 0
M  V30 10157 H 1170.57 -4.14631 0.372402 0
M  V30 10158 H 1171.11 -3.47648 1.93354 0
M  V30 10159 H 1167.85 -4.52642 4.74126 0
M  V30 10160 H 1167.37 -5.11477 3.1329 0
M  V30 10161 H 1169.05 -5.3121 3.69358 0
M  V30 10162 N 1169.18 -0.941978 -1.26351 0
M  V30 10163 C 1170.43 -0.588806 -1.93333 0
M  V30 10164 C 1170.75 0.875067 -1.74263 0
M  V30 10165 O 1170.02 1.62187 -1.09873 0
M  V30 10166 H 1168.6 -0.214774 -0.715459 0
M  V30 10167 H 1171.26 -1.19747 -1.53774 0
M  V30 10168 H 1170.35 -0.807267 -3.01479 0
M  V30 10169 N 1170.66 1.40747 -0.709091 0
M  V30 10170 C 1172.07 1.83955 -0.318968 0
M  V30 10171 C 1172.42 1.59304 1.14527 0
M  V30 10172 O 1171.54 1.07052 1.88066 0
M  V30 10173 C 1172.14 3.33934 -0.572147 0
M  V30 10174 C 1170.7 3.75661 -0.235802 0
M  V30 10175 C 1169.84 2.64024 -0.847743 0
M  V30 10176 H 1172.79 1.30107 -0.908734 0
M  V30 10177 H 1172.82 3.80143 0.164752 0
M  V30 10178 H 1172.33 3.51844 -1.63791 0
M  V30 10179 H 1170.43 3.63348 0.825164 0
M  V30 10180 H 1170.54 4.73955 -0.700263 0
M  V30 10181 H 1168.91 2.53197 -0.276283 0
M  V30 10182 H 1169.69 2.84748 -1.91765 0
M  V30 10183 N 1172.13 0.454803 1.50895 0
M  V30 10184 C 1173.54 -0.00421212 1.867 0
M  V30 10185 C 1173.9 -1.4037 1.3708 0
M  V30 10186 O 1173.02 -2.03755 0.728884 0
M  V30 10187 C 1173.62 -0.0144196 3.38797 0
M  V30 10188 C 1172.17 -0.417905 3.74073 0
M  V30 10189 C 1171.32 0.37801 2.74711 0
M  V30 10190 H 1174.27 0.669849 1.4387 0
M  V30 10191 H 1174.29 -0.820172 3.71555 0
M  V30 10192 H 1173.81 1.00427 3.74881 0
M  V30 10193 H 1171.91 -1.44155 3.43584 0
M  V30 10194 H 1172.02 -0.130568 4.78922 0
M  V30 10195 H 1170.38 -0.166089 2.54158 0
M  V30 10196 H 1171.17 1.3959 3.13639 0
M  V30 10197 N 1173.61 -1.56489 0.186789 0
M  V30 10198 C 1174.86 -1.96952 -0.453261 0
M  V30 10199 C 1175.18 -1.07451 -1.62725 0
M  V30 10200 O 1174.45 -0.144046 -1.9537 0
M  V30 10201 H 1173.03 -0.727295 -0.170445 0
M  V30 10202 H 1175.69 -1.92999 0.271584 0
M  V30 10203 H 1174.79 -3.01594 -0.802951 0
M  V30 10204 N 1175.09 0.086862 -1.5736 0
M  V30 10205 C 1176.5 0.640442 -1.75372 0
M  V30 10206 C 1176.85 1.78693 -0.81014 0
M  V30 10207 O 1175.98 2.16398 0.00940712 0
M  V30 10208 C 1176.57 1.16856 -3.1801 0
M  V30 10209 C 1175.13 1.66813 -3.37417 0
M  V30 10210 C 1174.28 0.58116 -2.71142 0
M  V30 10211 H 1177.23 -0.139249 -1.58088 0
M  V30 10212 H 1177.25 2.03772 -3.21337 0
M  V30 10213 H 1176.76 0.333909 -3.86661 0
M  V30 10214 H 1174.86 2.52652 -2.73858 0
M  V30 10215 H 1174.98 1.75545 -4.45781 0
M  V30 10216 H 1173.34 1.0226 -2.3327 0
M  V30 10217 H 1174.12 -0.243047 -3.42439 0
M  V30 10218 N 1176.57 1.53483 0.357892 0
M  V30 10219 C 1177.53 1.79782 1.42166 0
M  V30 10220 C 1178.53 0.668441 1.46248 0
M  V30 10221 O 1179.72 0.936677 1.46874 0
M  V30 10222 C 1176.85 1.92686 2.8122 0
M  V30 10223 H 1178.05 2.74794 1.20117 0
M  V30 10224 H 1175.6 1.44677 0.591468 0
M  V30 10225 H 1176.33 0.997669 3.08573 0
M  V30 10226 H 1176.12 2.74837 2.79655 0
M  V30 10227 H 1177.61 2.14599 3.58242 0
M  V30 10228 N 1178.05 -0.61812 1.44973 0
M  V30 10229 C 1179.29 -1.37468 1.48145 0
M  V30 10230 C 1179.61 -1.94628 0.120366 0
M  V30 10231 O 1178.88 -1.76548 -0.848982 0
M  V30 10232 H 1177.46 -0.510293 0.545536 0
M  V30 10233 H 1180.13 -0.726598 1.8085 0
M  V30 10234 H 1179.22 -2.19944 2.2143 0
M  V30 10235 N 1179.52 -1.32087 -0.859693 0
M  V30 10236 C 1180.49 -1.20546 -1.94939 0
M  V30 10237 C 1181.49 -0.12982 -1.60275 0
M  V30 10238 O 1182.68 -0.379853 -1.70008 0
M  V30 10239 C 1179.81 -0.852717 -3.30063 0
M  V30 10240 H 1181 -2.17384 -2.06602 0
M  V30 10241 H 1178.55 -1.15846 -1.04926 0
M  V30 10242 H 1179.29 0.114059 -3.24099 0
M  V30 10243 H 1179.07 -1.63035 -3.56598 0
M  V30 10244 H 1180.56 -0.796145 -4.09941 0
M  V30 10245 N 1181 1.07532 -1.15215 0
M  V30 10246 C 1181.95 2.16785 -0.843022 0
M  V30 10247 C 1182.94 1.68411 0.182802 0
M  V30 10248 O 1184.15 1.7996 0.0380164 0
M  V30 10249 H 1180.52 0.707465 -0.254945 0
M  V30 10250 H 1182.5 2.40078 -1.77215 0
M  V30 10251 C 1181.24 3.45967 -0.346699 0
M  V30 10252 H 1180.57 3.83574 -1.12744 0
M  V30 10253 H 1182.01 4.23663 -0.169039 0
M  V30 10254 C 1180.47 3.23768 0.931437 0
M  V30 10255 O 1181 3.48179 2.00336 0
M  V30 10256 N 1179.2 2.77264 0.870217 0
M  V30 10257 H 1178.75 2.576 -0.00226223 0
M  V30 10258 H 1178.71 2.6279 1.72594 0
M  V30 10259 N 1182.48 0.948665 1.2585 0
M  V30 10260 C 1183.73 0.59905 1.93018 0
M  V30 10261 C 1184.05 -0.865813 1.74725 0
M  V30 10262 O 1183.32 -1.61602 1.10732 0
M  V30 10263 H 1181.9 0.218565 0.71431 0
M  V30 10264 H 1184.56 1.20561 1.53137 0
M  V30 10265 H 1183.66 0.823244 3.01047 0
M  V30 10266 N 1183.96 -1.40369 0.716545 0
M  V30 10267 C 1184.87 -2.34508 0.065658 0
M  V30 10268 C 1185.88 -1.57352 -0.742723 0
M  V30 10269 O 1187.06 -1.89735 -0.675456 0
M  V30 10270 C 1184.13 -3.36262 -0.844337 0
M  V30 10271 C 1183.19 -4.29292 -0.0257971 0
M  V30 10272 C 1182.42 -5.26185 -0.892452 0
M  V30 10273 O 1182.64 -5.29071 -2.13166 0
M  V30 10274 O 1181.58 -6.0099 -0.330933 0
M  V30 10275 H 1185.4 -2.91789 0.842184 0
M  V30 10276 H 1182.99 -1.41579 0.477034 0
M  V30 10277 H 1184.87 -3.98661 -1.36555 0
M  V30 10278 H 1183.54 -2.81393 -1.59999 0
M  V30 10279 H 1182.45 -3.70175 0.540512 0
M  V30 10280 H 1183.78 -4.87316 0.69166 0
M  V30 10281 N 1185.44 -0.462799 -1.50652 0
M  V30 10282 C 1186.38 0.335664 -2.28346 0
M  V30 10283 C 1187.35 0.994541 -1.33034 0
M  V30 10284 O 1188.54 1.00857 -1.61964 0
M  V30 10285 C 1185.68 1.41648 -3.1469 0
M  V30 10286 C 1184.79 0.773207 -4.25024 0
M  V30 10287 C 1183.93 1.83121 -4.98638 0
M  V30 10288 C 1182.97 1.16774 -6.00858 0
M  V30 10289 N 1182.1 2.16823 -6.67782 0
M  V30 10290 H 1186.94 -0.333202 -2.96131 0
M  V30 10291 H 1184.48 -0.176166 -1.46041 0
M  V30 10292 H 1186.44 2.05468 -3.63096 0
M  V30 10293 H 1185.07 2.05462 -2.48968 0
M  V30 10294 H 1184.12 0.0226444 -3.80393 0
M  V30 10295 H 1185.43 0.249061 -4.98178 0
M  V30 10296 H 1184.59 2.54543 -5.5072 0
M  V30 10297 H 1183.32 2.38915 -4.25172 0
M  V30 10298 H 1182.33 0.439112 -5.48044 0
M  V30 10299 H 1183.55 0.616809 -6.76293 0
M  V30 10300 H 1181.5 2.71649 -5.97112 0
M  V30 10301 H 1181.42 1.69371 -7.36783 0
M  V30 10302 H 1182.69 2.8765 -7.24484 0
M  V30 10303 N 1186.91 1.56388 -0.195085 0
M  V30 10304 C 1188.16 1.97189 0.44281 0
M  V30 10305 C 1188.48 1.08312 1.62153 0
M  V30 10306 O 1187.75 0.154404 1.95291 0
M  V30 10307 H 1186.33 0.728188 0.166585 0
M  V30 10308 H 1189 1.92852 -0.281815 0
M  V30 10309 H 1188.09 3.02016 0.786945 0
M  V30 10310 N 1188.39 -0.0785156 1.57404 0
M  V30 10311 C 1189.3 -1.11203 2.0657 0
M  V30 10312 C 1190.32 -1.42822 0.993872 0
M  V30 10313 O 1191.49 -1.53133 1.30814 0
M  V30 10314 C 1188.56 -2.40812 2.4942 0
M  V30 10315 C 1187.62 -2.16225 3.70871 0
M  V30 10316 C 1186.85 -3.39654 4.11668 0
M  V30 10317 O 1187.08 -4.48521 3.524 0
M  V30 10318 O 1186.01 -3.28263 5.04507 0
M  V30 10319 H 1189.84 -0.724381 2.94935 0
M  V30 10320 H 1187.42 -0.292184 1.46515 0
M  V30 10321 H 1189.3 -3.17101 2.77534 0
M  V30 10322 H 1187.98 -2.7897 1.64187 0
M  V30 10323 H 1186.89 -1.37663 3.4785 0
M  V30 10324 H 1188.22 -1.82951 4.56935 0
M  V30 10325 N 1189.87 -1.5367 -0.349747 0
M  V30 10326 C 1191.12 -1.7087 -1.0923 0
M  V30 10327 C 1191.45 -0.467299 -1.88494 0
M  V30 10328 O 1190.72 0.535619 -1.8698 0
M  V30 10329 C 1191.01 -2.9684 -2.03858 0
M  V30 10330 C 1190.86 -4.31174 -1.28097 0
M  V30 10331 C 1192.18 -3.18459 -3.03763 0
M  V30 10332 H 1189.3 -0.621757 -0.395711 0
M  V30 10333 H 1191.94 -1.86333 -0.371481 0
M  V30 10334 H 1190.09 -2.83788 -2.65323 0
M  V30 10335 H 1191.76 -4.56066 -0.692933 0
M  V30 10336 H 1190.01 -4.29866 -0.582924 0
M  V30 10337 H 1190.68 -5.15482 -1.9744 0
M  V30 10338 H 1193.15 -3.30801 -2.52409 0
M  V30 10339 H 1192.03 -4.08006 -3.67182 0
M  V30 10340 H 1192.29 -2.34467 -3.74803 0
M  V30 10341 N 1191.35 0.610423 -1.45298 0
M  V30 10342 C 1192.6 1.3668 -1.48872 0
M  V30 10343 C 1192.92 1.94562 -0.130686 0
M  V30 10344 O 1192.19 1.76996 0.839607 0
M  V30 10345 H 1190.77 0.507393 -0.548235 0
M  V30 10346 H 1193.43 0.716997 -1.81232 0
M  V30 10347 H 1192.53 2.18766 -2.22593 0
M  V30 10348 N 1192.83 1.32541 0.852676 0
M  V30 10349 C 1194.24 1.20863 1.42299 0
M  V30 10350 C 1194.59 -0.178051 1.9539 0
M  V30 10351 O 1193.71 -1.07689 1.87702 0
M  V30 10352 C 1194.31 2.18811 2.58664 0
M  V30 10353 C 1192.87 2.11015 3.11689 0
M  V30 10354 C 1192.01 2.07067 1.84441 0
M  V30 10355 H 1194.97 1.44341 0.659657 0
M  V30 10356 H 1194.99 1.78779 3.35884 0
M  V30 10357 H 1194.5 3.19726 2.19993 0
M  V30 10358 H 1192.6 1.13354 3.54939 0
M  V30 10359 H 1192.71 3.00929 3.72799 0
M  V30 10360 H 1191.08 1.52335 2.04123 0
M  V30 10361 H 1191.86 3.09767 1.47984 0
M  V30 10362 N 1194.3 -1.0692 1.15784 0
M  V30 10363 C 1195.72 -1.61069 0.944123 0
M  V30 10364 C 1196.07 -1.8936 -0.513522 0
M  V30 10365 O 1195.19 -1.66232 -1.38549 0
M  V30 10366 C 1195.79 -2.9263 1.70743 0
M  V30 10367 C 1194.35 -3.43505 1.53887 0
M  V30 10368 C 1193.49 -2.17495 1.72021 0
M  V30 10369 H 1196.44 -0.89951 1.30746 0
M  V30 10370 H 1196.46 -3.61757 1.17951 0
M  V30 10371 H 1195.98 -2.72007 2.76828 0
M  V30 10372 H 1194.08 -3.69201 0.502153 0
M  V30 10373 H 1194.19 -4.19254 2.31868 0
M  V30 10374 H 1192.55 -2.27407 1.1471 0
M  V30 10375 H 1193.34 -1.99362 2.79481 0
M  V30 10376 N 1195.78 -0.955326 -1.25345 0
M  V30 10377 C 1197.03 -0.609278 -1.92697 0
M  V30 10378 C 1197.35 0.856535 -1.75181 0
M  V30 10379 O 1196.62 1.61013 -1.11587 0
M  V30 10380 H 1195.2 -0.22235 -0.713141 0
M  V30 10381 H 1197.86 -1.21372 -1.52496 0
M  V30 10382 H 1196.96 -0.839198 -3.00606 0
M  V30 10383 N 1197.26 1.39987 -0.723979 0
M  V30 10384 C 1198.67 1.83606 -0.338461 0
M  V30 10385 C 1199.02 1.6051 1.12831 0
M  V30 10386 O 1198.15 1.09041 1.8692 0
M  V30 10387 C 1198.74 3.33308 -0.607533 0
M  V30 10388 C 1197.3 3.75389 -0.275632 0
M  V30 10389 C 1196.45 2.6311 -0.875699 0
M  V30 10390 H 1199.4 1.29135 -0.922483 0
M  V30 10391 H 1199.42 3.80297 0.124424 0
M  V30 10392 H 1198.93 3.50087 -1.67514 0
M  V30 10393 H 1197.03 3.64203 0.786579 0
M  V30 10394 H 1197.15 4.73185 -0.750492 0
M  V30 10395 H 1195.51 2.5289 -0.303122 0
M  V30 10396 H 1196.29 2.82698 -1.94774 0
M  V30 10397 N 1198.74 0.470782 1.50404 0
M  V30 10398 C 1199.7 -0.312227 2.27063 0
M  V30 10399 C 1200.7 -0.920709 1.31832 0
M  V30 10400 O 1201.89 -0.789937 1.5526 0
M  V30 10401 C 1199.02 -1.44477 3.0877 0
M  V30 10402 H 1200.22 0.36006 2.97731 0
M  V30 10403 H 1197.77 0.224837 1.54674 0
M  V30 10404 H 1198.51 -2.15212 2.42599 0
M  V30 10405 H 1198.29 -1.01426 3.78755 0
M  V30 10406 H 1199.78 -1.99713 3.66749 0
M  V30 10407 N 1200.22 -1.56282 0.203376 0
M  V30 10408 C 1201.47 -1.97421 -0.432346 0
M  V30 10409 C 1201.79 -1.0917 -1.61576 0
M  V30 10410 O 1201.06 -0.164759 -1.95206 0
M  V30 10411 H 1199.64 -0.729062 -0.162721 0
M  V30 10412 H 1202.3 -1.927 0.292039 0
M  V30 10413 H 1201.39 -3.02429 -0.770918 0
M  V30 10414 N 1201.7 0.070167 -1.57444 0
M  V30 10415 C 1202.92 0.785703 -1.91941 0
M  V30 10416 C 1203.35 1.70243 -0.799932 0
M  V30 10417 O 1202.7 1.79608 0.247139 0
M  V30 10418 C 1202.75 1.55398 -3.25398 0
M  V30 10419 O 1201.86 2.66475 -3.14746 0
M  V30 10420 H 1201.2 0.214245 -0.628486 0
M  V30 10421 H 1203.73 0.0379243 -2.04565 0
M  V30 10422 H 1203.74 1.93287 -3.5931 0
M  V30 10423 H 1202.41 0.881366 -4.06454 0
M  V30 10424 H 1200.99 2.3143 -2.92394 0
M  V30 10425 N 1203.17 1.53854 0.341593 0
M  V30 10426 C 1204.14 1.8128 1.40251 0
M  V30 10427 C 1205.14 0.683915 1.45531 0
M  V30 10428 O 1206.33 0.952202 1.45872 0
M  V30 10429 C 1203.46 1.95658 2.79161 0
M  V30 10430 H 1204.65 2.76053 1.17195 0
M  V30 10431 H 1202.2 1.45296 0.57609 0
M  V30 10432 H 1202.94 1.03034 3.07497 0
M  V30 10433 H 1202.72 2.77788 2.76724 0
M  V30 10434 H 1204.21 2.18387 3.55945 0
M  V30 10435 N 1204.65 -0.602709 1.4562 0
M  V30 10436 C 1205.9 -1.35889 1.49595 0
M  V30 10437 C 1206.22 -1.9449 0.141002 0
M  V30 10438 O 1205.49 -1.77438 -0.830209 0
M  V30 10439 H 1204.07 -0.504478 0.550918 0
M  V30 10440 H 1206.73 -0.707376 1.8161 0
M  V30 10441 H 1205.83 -2.17583 2.2375 0
M  V30 10442 N 1206.13 -1.32992 -0.845635 0
M  V30 10443 C 1207.09 -1.22607 -1.9365 0
M  V30 10444 C 1208.09 -0.146812 -1.60128 0
M  V30 10445 O 1209.28 -0.397863 -1.69596 0
M  V30 10446 C 1206.41 -0.887677 -3.2914 0
M  V30 10447 H 1207.61 -2.19563 -2.04285 0
M  V30 10448 H 1205.16 -1.16952 -1.03691 0
M  V30 10449 H 1205.9 0.0796777 -3.24202 0
M  V30 10450 H 1205.68 -1.66808 -3.54849 0
M  V30 10451 H 1207.17 -0.83958 -4.09073 0
M  V30 10452 N 1207.61 1.06304 -1.1635 0
M  V30 10453 C 1209.02 1.31227 -0.90838 0
M  V30 10454 C 1209.22 1.96665 0.438779 0
M  V30 10455 O 1208.28 2.2332 1.17833 0
M  V30 10456 C 1209.59 2.19303 -2.05734 0
M  V30 10457 C 1211.14 2.3272 -2.09309 0
M  V30 10458 C 1211.62 3.24151 -3.23559 0
M  V30 10459 N 1213.11 3.31734 -3.23275 0
M  V30 10460 C 1213.84 4.02572 -4.08318 0
M  V30 10461 N 1213.34 4.75933 -5.03448 0
M  V30 10462 N 1215.13 3.98621 -3.96305 0
M  V30 10463 H 1207.28 0.622228 -2.03081 0
M  V30 10464 H 1209.54 0.336892 -0.886119 0
M  V30 10465 H 1209.25 1.78497 -3.03037 0
M  V30 10466 H 1209.12 3.19888 -1.99879 0
M  V30 10467 H 1211.51 2.72774 -1.12599 0
M  V30 10468 H 1211.59 1.31804 -2.19229 0
M  V30 10469 H 1211.24 2.84813 -4.20528 0
M  V30 10470 H 1211.17 4.25046 -3.10875 0
M  V30 10471 H 1213.66 2.79453 -2.5439 0
M  V30 10472 H 1213.97 5.27512 -5.64758 0
M  V30 10473 H 1212.32 4.74913 -5.07427 0
M  V30 10474 H 1215.51 3.40427 -3.21289 0
M  V30 10475 H 1215.68 4.5356 -4.62804 0
M  V30 10476 N 1209.09 0.96196 1.24836 0
M  V30 10477 C 1210.33 0.619489 1.92371 0
M  V30 10478 C 1210.65 -0.847233 1.75633 0
M  V30 10479 O 1209.92 -1.60419 1.12439 0
M  V30 10480 H 1208.5 0.226129 0.711951 0
M  V30 10481 H 1211.17 1.22179 1.5185 0
M  V30 10482 H 1210.26 0.855128 3.00157 0
M  V30 10483 N 1210.56 -1.39601 0.731392 0
M  V30 10484 C 1211.53 -2.28992 0.0976037 0
M  V30 10485 C 1212.53 -1.46135 -0.670917 0
M  V30 10486 O 1213.72 -1.66856 -0.50047 0
M  V30 10487 C 1210.85 -3.29582 -0.871124 0
M  V30 10488 H 1212.04 -2.86541 0.885112 0
M  V30 10489 H 1209.59 -1.48188 0.497002 0
M  V30 10490 H 1210.33 -2.77082 -1.68512 0
M  V30 10491 H 1210.11 -3.9077 -0.322735 0
M  V30 10492 H 1211.6 -3.96479 -1.31126 0
M  V30 10493 N 1212.04 -0.478751 -1.50152 0
M  V30 10494 C 1213.45 -0.0254907 -1.86683 0
M  V30 10495 C 1213.8 1.38171 -1.39295 0
M  V30 10496 O 1212.93 2.0257 -0.761207 0
M  V30 10497 C 1213.52 -0.0394819 -3.38777 0
M  V30 10498 C 1212.08 0.35834 -3.7469 0
M  V30 10499 C 1211.23 -0.421667 -2.74075 0
M  V30 10500 H 1214.18 -0.692653 -1.42787 0
M  V30 10501 H 1214.2 0.760957 -3.72813 0
M  V30 10502 H 1213.71 -1.06378 -3.73236 0
M  V30 10503 H 1211.82 1.38671 -3.45834 0
M  V30 10504 H 1211.93 0.0543589 -4.79069 0
M  V30 10505 H 1210.29 0.125634 -2.5439 0
M  V30 10506 H 1211.08 -1.44562 -3.11379 0
M  V30 10507 N 1213.52 1.56172 -0.211661 0
M  V30 10508 C 1214.77 1.97648 0.421871 0
M  V30 10509 C 1215.09 1.10026 1.60995 0
M  V30 10510 O 1214.36 0.175109 1.95116 0
M  V30 10511 H 1212.94 0.729914 0.158852 0
M  V30 10512 H 1215.6 1.92542 -0.302254 0
M  V30 10513 H 1214.7 3.02834 0.754868 0
M  V30 10514 N 1215 -0.0618163 1.57479 0
M  V30 10515 C 1215.91 -1.09006 2.07738 0
M  V30 10516 C 1216.92 -1.4176 1.00896 0
M  V30 10517 O 1218.1 -1.51737 1.32431 0
M  V30 10518 C 1215.17 -2.38153 2.5196 0
M  V30 10519 C 1214.23 -2.12279 3.73143 0
M  V30 10520 C 1213.46 -3.35269 4.15248 0
M  V30 10521 O 1213.68 -4.44758 3.57137 0
M  V30 10522 O 1212.62 -3.22894 5.0796 0
M  V30 10523 H 1216.44 -0.693059 2.95686 0
M  V30 10524 H 1214.03 -0.276628 1.46817 0
M  V30 10525 H 1215.91 -3.14139 2.80882 0
M  V30 10526 H 1214.58 -2.77213 1.67137 0
M  V30 10527 H 1213.49 -1.33966 3.49291 0
M  V30 10528 H 1214.82 -1.78094 4.5885 0
M  V30 10529 N 1216.48 -1.54033 -0.333429 0
M  V30 10530 C 1217.89 -1.44522 -0.677166 0
M  V30 10531 C 1218.09 -0.610122 -1.92041 0
M  V30 10532 O 1217.15 -0.105058 -2.52281 0
M  V30 10533 C 1218.46 -2.88129 -0.860369 0
M  V30 10534 C 1220.01 -2.97968 -0.958342 0
M  V30 10535 C 1220.48 -4.42703 -1.17379 0
M  V30 10536 N 1221.98 -4.46273 -1.24075 0
M  V30 10537 C 1222.71 -5.55407 -1.42515 0
M  V30 10538 N 1222.21 -6.74528 -1.58062 0
M  V30 10539 N 1224 -5.43037 -1.45144 0
M  V30 10540 H 1216.15 -2.06815 0.483858 0
M  V30 10541 H 1218.41 -0.935307 0.15461 0
M  V30 10542 H 1218.12 -3.51695 -0.0182085 0
M  V30 10543 H 1217.99 -3.33668 -1.75913 0
M  V30 10544 H 1220.38 -2.34535 -1.79102 0
M  V30 10545 H 1220.46 -2.55774 -0.0362643 0
M  V30 10546 H 1220.11 -5.0672 -0.346004 0
M  V30 10547 H 1220.04 -4.82498 -2.10959 0
M  V30 10548 H 1222.53 -3.60439 -1.13545 0
M  V30 10549 H 1222.84 -7.53462 -1.71797 0
M  V30 10550 H 1221.18 -6.77454 -1.55179 0
M  V30 10551 H 1224.38 -4.4893 -1.32588 0
M  V30 10552 H 1224.55 -6.28146 -1.59173 0
M  V30 10553 N 1217.95 0.594978 -1.45938 0
M  V30 10554 C 1219.2 1.35093 -1.50314 0
M  V30 10555 C 1219.52 1.94412 -0.151315 0
M  V30 10556 O 1218.79 1.77876 0.820787 0
M  V30 10557 H 1217.37 0.501549 -0.553586 0
M  V30 10558 H 1220.04 0.697735 -1.81983 0
M  V30 10559 H 1219.13 2.16393 -2.24901 0
M  V30 10560 N 1219.43 1.33438 0.838571 0
M  V30 10561 C 1220.34 1.25753 1.98049 0
M  V30 10562 C 1221.36 0.168051 1.73187 0
M  V30 10563 O 1222.53 0.391691 1.97554 0
M  V30 10564 C 1219.6 0.997148 3.32051 0
M  V30 10565 C 1218.66 2.17667 3.70027 0
M  V30 10566 C 1217.89 1.92861 4.97635 0
M  V30 10567 O 1218.12 0.879072 5.63585 0
M  V30 10568 O 1217.05 2.79402 5.33121 0
M  V30 10569 H 1220.88 2.21786 2.07472 0
M  V30 10570 H 1218.46 1.13488 0.971645 0
M  V30 10571 H 1220.34 0.869099 4.1234 0
M  V30 10572 H 1219.02 0.0671036 3.2363 0
M  V30 10573 H 1217.93 2.36025 2.90246 0
M  V30 10574 H 1219.26 3.09006 3.83114 0
M  V30 10575 N 1220.91 -1.05686 1.16912 0
M  V30 10576 C 1222.14 -1.82282 0.978811 0
M  V30 10577 C 1222.55 -1.8278 -0.472972 0
M  V30 10578 O 1221.91 -1.25143 -1.32836 0
M  V30 10579 C 1221.96 -3.28623 1.50629 0
M  V30 10580 O 1221.68 -3.28269 2.90122 0
M  V30 10581 C 1223.18 -4.21927 1.35987 0
M  V30 10582 H 1220.4 -0.574558 0.346588 0
M  V30 10583 H 1222.95 -1.33301 1.55084 0
M  V30 10584 H 1221.1 -3.74893 0.976404 0
M  V30 10585 H 1221.52 -4.19824 3.14401 0
M  V30 10586 H 1222.99 -5.2261 1.77716 0
M  V30 10587 H 1223.47 -4.38131 0.30626 0
M  V30 10588 H 1224.07 -3.81508 1.87968 0
M  V30 10589 N 1222.39 -0.968567 -1.24324 0
M  V30 10590 C 1223.64 -0.629682 -1.9204 0
M  V30 10591 C 1223.96 0.837906 -1.7608 0
M  V30 10592 O 1223.23 1.5982 -1.13289 0
M  V30 10593 H 1221.81 -0.229901 -0.710742 0
M  V30 10594 H 1224.47 -1.22982 -1.512 0
M  V30 10595 H 1223.57 -0.871034 -2.99699 0
M  V30 10596 N 1223.87 1.39211 -0.738786 0
M  V30 10597 C 1225.28 1.83237 -0.357916 0
M  V30 10598 C 1225.63 1.61698 1.11123 0
M  V30 10599 O 1224.75 1.11017 1.85753 0
M  V30 10600 C 1225.35 3.32645 -0.64285 0
M  V30 10601 C 1223.91 3.75076 -0.315432 0
M  V30 10602 C 1223.05 2.62166 -0.903556 0
M  V30 10603 H 1226.01 1.2815 -0.936127 0
M  V30 10604 H 1226.03 3.80407 0.0840812 0
M  V30 10605 H 1225.54 3.4829 -1.71218 0
M  V30 10606 H 1223.64 3.65017 0.747907 0
M  V30 10607 H 1223.75 4.72363 -0.800638 0
M  V30 10608 H 1222.12 2.52554 -0.329927 0
M  V30 10609 H 1222.9 2.80616 -1.97761 0
M  V30 10610 N 1225.34 0.486708 1.49896 0
M  V30 10611 C 1226.76 0.0353906 1.86666 0
M  V30 10612 C 1227.11 -1.3743 1.40026 0
M  V30 10613 O 1226.23 -2.02163 0.77194 0
M  V30 10614 C 1226.83 0.0574475 3.38751 0
M  V30 10615 C 1225.39 -0.338464 3.74875 0
M  V30 10616 C 1224.53 0.436196 2.73848 0
M  V30 10617 H 1227.48 0.700215 1.42417 0
M  V30 10618 H 1227.5 -0.741175 3.73212 0
M  V30 10619 H 1227.02 1.08356 3.72667 0
M  V30 10620 H 1225.12 -1.36835 3.46565 0
M  V30 10621 H 1225.23 -0.0289519 4.79091 0
M  V30 10622 H 1223.59 -0.112141 2.54453 0
M  V30 10623 H 1224.38 1.46212 3.10608 0
M  V30 10624 N 1226.82 -1.56058 0.219941 0
M  V30 10625 C 1228.07 -1.97869 -0.411383 0
M  V30 10626 C 1228.39 -1.10878 -1.60409 0
M  V30 10627 O 1227.66 -0.185454 -1.9502 0
M  V30 10628 H 1226.24 -0.730747 -0.154979 0
M  V30 10629 H 1228.9 -1.92379 0.312461 0
M  V30 10630 H 1228 -3.0323 -0.738798 0
M  V30 10631 N 1228.3 0.053464 -1.57509 0
M  V30 10632 C 1229.71 0.603099 -1.76691 0
M  V30 10633 C 1230.06 1.76934 -0.847861 0
M  V30 10634 O 1229.19 2.16369 -0.0364962 0
M  V30 10635 C 1229.78 1.10084 -3.20417 0
M  V30 10636 C 1228.34 1.59618 -3.4088 0
M  V30 10637 C 1227.49 0.523516 -2.72313 0
M  V30 10638 H 1230.44 -0.172751 -1.57757 0
M  V30 10639 H 1230.46 1.9691 -3.25587 0
M  V30 10640 H 1229.97 0.251818 -3.87282 0
M  V30 10641 H 1228.07 2.46786 -2.79155 0
M  V30 10642 H 1228.19 1.6605 -4.49404 0
M  V30 10643 H 1226.55 0.972886 -2.35387 0
M  V30 10644 H 1227.33 -0.315629 -3.41846 0
M  V30 10645 N 1229.78 1.54207 0.325255 0
M  V30 10646 C 1230.74 1.82757 1.38321 0
M  V30 10647 C 1231.74 0.699312 1.44797 0
M  V30 10648 O 1232.93 0.96762 1.44854 0
M  V30 10649 C 1230.06 1.98608 2.7707 0
M  V30 10650 H 1231.26 2.7728 1.14261 0
M  V30 10651 H 1228.81 1.45899 0.560647 0
M  V30 10652 H 1229.55 1.0629 3.06387 0
M  V30 10653 H 1229.33 2.80707 2.73763 0
M  V30 10654 H 1230.82 2.2215 3.53609 0
M  V30 10655 N 1231.26 -0.58723 1.46251 0
M  V30 10656 C 1232.51 -1.34294 1.51028 0
M  V30 10657 C 1232.83 -1.94329 0.161623 0
M  V30 10658 O 1232.1 -1.78309 -0.811342 0
M  V30 10659 H 1230.68 -0.498607 0.556238 0
M  V30 10660 H 1233.34 -0.688074 1.8235 0
M  V30 10661 H 1232.43 -2.15197 2.26045 0
M  V30 10662 N 1232.74 -1.33881 -0.831482 0
M  V30 10663 C 1233.98 -1.25755 -1.58719 0
M  V30 10664 C 1234.31 0.174746 -1.93713 0
M  V30 10665 O 1233.57 1.13384 -1.59507 0
M  V30 10666 C 1233.86 -2.08544 -2.90249 0
M  V30 10667 C 1233.53 -3.57651 -2.74585 0
M  V30 10668 C 1232.19 -3.983 -2.7002 0
M  V30 10669 C 1234.54 -4.52369 -2.58866 0
M  V30 10670 C 1231.87 -5.31872 -2.47647 0
M  V30 10671 C 1234.22 -5.86112 -2.38025 0
M  V30 10672 C 1232.89 -6.25934 -2.31867 0
M  V30 10673 H 1232.16 -0.460171 -0.580796 0
M  V30 10674 H 1234.81 -1.6554 -0.96274 0
M  V30 10675 H 1233.11 -1.6156 -3.56939 0
M  V30 10676 H 1234.81 -1.99609 -3.47789 0
M  V30 10677 H 1231.4 -3.2538 -2.78973 0
M  V30 10678 H 1235.58 -4.21868 -2.61421 0
M  V30 10679 H 1230.84 -5.61756 -2.41331 0
M  V30 10680 H 1235.01 -6.59103 -2.24847 0
M  V30 10681 H 1232.64 -7.29372 -2.14291 0
M  V30 10682 N 1234.21 1.05064 -1.1747 0
M  V30 10683 C 1235.18 2.1101 -0.89485 0
M  V30 10684 C 1236.18 1.60384 0.11553 0
M  V30 10685 O 1237.37 1.73808 -0.116785 0
M  V30 10686 C 1234.5 3.39194 -0.340642 0
M  V30 10687 H 1235.69 2.37269 -1.83421 0
M  V30 10688 H 1233.24 1.21329 -0.985343 0
M  V30 10689 H 1233.98 3.18591 0.605808 0
M  V30 10690 H 1233.76 3.77251 -1.06885 0
M  V30 10691 H 1235.25 4.17281 -0.163204 0
M  V30 10692 N 1235.69 0.975146 1.23809 0
M  V30 10693 C 1236.94 0.639858 1.91704 0
M  V30 10694 C 1237.26 -0.828557 1.76522 0
M  V30 10695 O 1236.53 -1.59217 1.14135 0
M  V30 10696 H 1235.11 0.233667 0.709513 0
M  V30 10697 H 1237.77 1.23782 1.50545 0
M  V30 10698 H 1236.87 0.886915 2.99233 0
M  V30 10699 N 1237.17 -1.38817 0.746158 0
M  V30 10700 C 1238.58 -1.83045 0.367629 0
M  V30 10701 C 1238.93 -1.62285 -1.10263 0
M  V30 10702 O 1238.06 -1.12001 -1.85162 0
M  V30 10703 C 1238.65 -3.323 0.660482 0
M  V30 10704 C 1237.21 -3.74903 0.335318 0
M  V30 10705 C 1236.36 -2.61683 0.917446 0
M  V30 10706 H 1239.31 -1.27651 0.94291 0
M  V30 10707 H 1239.33 -3.80446 -0.0639061 0
M  V30 10708 H 1238.84 -3.47377 1.73062 0
M  V30 10709 H 1236.94 -3.65408 -0.728538 0
M  V30 10710 H 1237.06 -4.71932 0.825677 0
M  V30 10711 H 1235.42 -2.52376 0.343316 0
M  V30 10712 H 1236.2 -2.79563 1.99247 0
M  V30 10713 N 1238.65 -0.49465 -1.49636 0
M  V30 10714 C 1240.06 -0.0452894 -1.86645 0
M  V30 10715 C 1240.41 1.36686 -1.40753 0
M  V30 10716 O 1239.53 2.01751 -0.78265 0
M  V30 10717 C 1240.13 -0.0754115 -3.38716 0
M  V30 10718 C 1238.69 0.318579 -3.75049 0
M  V30 10719 C 1237.84 -0.450712 -2.73613 0
M  V30 10720 H 1240.79 -0.707758 -1.42044 0
M  V30 10721 H 1240.81 0.721372 -3.73599 0
M  V30 10722 H 1240.32 -1.10331 -3.72087 0
M  V30 10723 H 1238.42 1.34995 -3.47285 0
M  V30 10724 H 1238.53 0.00354416 -4.791 0
M  V30 10725 H 1236.9 0.0986455 -2.54509 0
M  V30 10726 H 1237.68 -1.47857 -3.09828 0
M  V30 10727 N 1240.13 1.55939 -0.228214 0
M  V30 10728 C 1241.37 1.98084 0.400884 0
M  V30 10729 C 1241.69 1.11727 1.59819 0
M  V30 10730 O 1240.96 0.195794 1.94919 0
M  V30 10731 H 1239.54 0.731558 0.151102 0
M  V30 10732 H 1242.21 1.92211 -0.322659 0
M  V30 10733 H 1241.3 3.03617 0.722706 0
M  V30 10734 N 1241.6 -0.0451101 1.57535 0
M  V30 10735 C 1242.57 -1.03521 2.0449 0
M  V30 10736 C 1243.57 -1.30009 0.946265 0
M  V30 10737 O 1244.76 -1.25282 1.21038 0
M  V30 10738 C 1241.89 -2.37221 2.44824 0
M  V30 10739 H 1243.08 -0.629943 2.93209 0
M  V30 10740 H 1240.64 -0.291544 1.53557 0
M  V30 10741 H 1241.37 -2.82528 1.59212 0
M  V30 10742 H 1241.16 -2.19329 3.25018 0
M  V30 10743 H 1242.65 -3.08337 2.81635 0
M  V30 10744 N 1243.08 -1.54377 -0.317073 0
M  V30 10745 C 1244.36 -1.63551 -1.07287 0
M  V30 10746 C 1244.74 -0.473499 -2.05721 0
M  V30 10747 O 1244.09 0.531545 -2.22232 0
M  V30 10748 C 1244.3 -3.00842 -1.76904 0
M  V30 10749 C 1245.65 -3.57111 -2.29689 0
M  V30 10750 O 1246.67 -3.0319 -1.86961 0
M  V30 10751 O 1245.53 -4.51486 -3.07932 0
M  V30 10752 H 1242.62 -0.662557 -0.494922 0
M  V30 10753 H 1245.17 -1.66723 -0.316444 0
M  V30 10754 H 1243.94 -3.76854 -1.05341 0
M  V30 10755 H 1243.56 -3.01377 -2.59341 0
M  V30 10756 N 1244.56 0.579466 -1.4656 0
M  V30 10757 C 1245.81 1.33492 -1.51738 0
M  V30 10758 C 1246.13 1.94241 -0.171926 0
M  V30 10759 O 1245.4 1.78737 0.801875 0
M  V30 10760 H 1243.98 0.49565 -0.558874 0
M  V30 10761 H 1246.64 0.678394 -1.82712 0
M  V30 10762 H 1245.74 2.13995 -2.27183 0
M  V30 10763 N 1246.04 1.3432 0.824371 0
M  V30 10764 C 1246.97 1.21619 1.94271 0
M  V30 10765 C 1247.98 0.143628 1.62165 0
M  V30 10766 O 1249.17 0.395353 1.74067 0
M  V30 10767 C 1246.27 0.846128 3.28167 0
M  V30 10768 C 1245.45 2.01337 3.88307 0
M  V30 10769 C 1244.5 1.62194 5.00579 0
M  V30 10770 O 1243.53 2.33831 5.18953 0
M  V30 10771 N 1244.73 0.535262 5.78027 0
M  V30 10772 H 1247.5 2.17963 2.05699 0
M  V30 10773 H 1245.06 1.27256 1.00088 0
M  V30 10774 H 1247.05 0.566086 4.00721 0
M  V30 10775 H 1245.62 -0.0270764 3.12588 0
M  V30 10776 H 1244.84 2.45823 3.08164 0
M  V30 10777 H 1246.13 2.79404 4.25219 0
M  V30 10778 H 1245.53 -0.0603126 5.65668 0
M  V30 10779 H 1244.08 0.314946 6.51039 0
M  V30 10780 N 1247.52 -1.0444 1.18026 0
M  V30 10781 C 1248.93 -1.5903 0.978076 0
M  V30 10782 C 1249.28 -1.90407 -0.473241 0
M  V30 10783 O 1248.4 -1.69133 -1.34992 0
M  V30 10784 C 1249 -2.88942 1.76912 0
M  V30 10785 C 1247.56 -3.40164 1.61139 0
M  V30 10786 C 1246.7 -2.13797 1.76596 0
M  V30 10787 H 1249.66 -0.871574 1.32625 0
M  V30 10788 H 1249.68 -3.59173 1.25598 0
M  V30 10789 H 1249.19 -2.66074 2.82535 0
M  V30 10790 H 1247.29 -3.68053 0.580353 0
M  V30 10791 H 1247.4 -4.14241 2.40709 0
M  V30 10792 H 1245.77 -2.24922 1.19507 0
M  V30 10793 H 1246.55 -1.93389 2.83647 0
M  V30 10794 N 1248.99 -0.981699 -1.2329 0
M  V30 10795 C 1250.24 -0.650015 -1.91361 0
M  V30 10796 C 1250.56 0.819184 -1.76959 0
M  V30 10797 O 1249.83 1.5861 -1.14977 0
M  V30 10798 H 1248.41 -0.237427 -0.708264 0
M  V30 10799 H 1251.08 -1.24579 -1.49887 0
M  V30 10800 H 1250.17 -0.902772 -2.98758 0
M  V30 10801 N 1250.47 1.3842 -0.753509 0
M  V30 10802 C 1251.44 2.28808 -0.134022 0
M  V30 10803 C 1252.44 1.47184 0.647583 0
M  V30 10804 O 1253.63 1.67631 0.473861 0
M  V30 10805 C 1250.76 3.30926 0.81858 0
M  V30 10806 H 1251.95 2.85097 -0.930586 0
M  V30 10807 H 1249.5 1.47378 -0.520514 0
M  V30 10808 H 1250.24 2.79728 1.64082 0
M  V30 10809 H 1250.02 3.91234 0.260526 0
M  V30 10810 H 1251.51 3.98515 1.24802 0
M  V30 10811 N 1251.95 0.502579 1.49372 0
M  V30 10812 C 1252.9 -0.275004 2.29156 0
M  V30 10813 C 1253.87 -0.95892 1.35624 0
M  V30 10814 O 1255.05 -0.965276 1.64581 0
M  V30 10815 C 1252.19 -1.33255 3.18335 0
M  V30 10816 C 1251.31 -0.660248 4.26925 0
M  V30 10817 C 1250.44 -1.69837 5.03318 0
M  V30 10818 C 1249.48 -1.00802 6.03743 0
M  V30 10819 N 1248.62 -1.99042 6.73295 0
M  V30 10820 H 1253.46 0.411599 2.95144 0
M  V30 10821 H 1250.99 0.214824 1.45523 0
M  V30 10822 H 1252.95 -1.95769 3.68416 0
M  V30 10823 H 1251.58 -1.98789 2.54328 0
M  V30 10824 H 1250.63 0.0782181 3.8032 0
M  V30 10825 H 1251.95 -0.11689 4.98663 0
M  V30 10826 H 1251.1 -2.39852 5.57275 0
M  V30 10827 H 1249.84 -2.27558 4.31357 0
M  V30 10828 H 1248.84 -0.293654 5.49015 0
M  V30 10829 H 1250.07 -0.437285 6.77691 0
M  V30 10830 H 1248.01 -2.55722 6.04104 0
M  V30 10831 H 1247.93 -1.49776 7.41015 0
M  V30 10832 H 1249.2 -2.6834 7.31856 0
M  V30 10833 N 1253.43 -1.55816 0.23648 0
M  V30 10834 C 1254.68 -1.98294 -0.390373 0
M  V30 10835 C 1255 -1.12573 -1.59224 0
M  V30 10836 O 1254.27 -0.206128 -1.94813 0
M  V30 10837 H 1252.85 -0.732349 -0.14722 0
M  V30 10838 H 1255.51 -1.92037 0.332848 0
M  V30 10839 H 1254.61 -3.03996 -0.706595 0
M  V30 10840 N 1254.91 0.036755 -1.57557 0
M  V30 10841 C 1255.82 1.05687 -2.09446 0
M  V30 10842 C 1256.83 1.40137 -1.03139 0
M  V30 10843 O 1258.01 1.49611 -1.34828 0
M  V30 10844 C 1255.07 2.34114 -2.55717 0
M  V30 10845 C 1254.13 2.06316 -3.76473 0
M  V30 10846 C 1253.37 3.2862 -4.20529 0
M  V30 10847 O 1253.59 4.3902 -3.64167 0
M  V30 10848 O 1252.52 3.14772 -5.13033 0
M  V30 10849 H 1256.35 0.64593 -2.96751 0
M  V30 10850 H 1253.94 0.253235 -1.47238 0
M  V30 10851 H 1255.82 3.09631 -2.85844 0
M  V30 10852 H 1254.49 2.74519 -1.71526 0
M  V30 10853 H 1253.4 1.28392 -3.51378 0
M  V30 10854 H 1254.73 1.70772 -4.61625 0
M  V30 10855 N 1256.39 1.54543 0.308881 0
M  V30 10856 C 1257.32 1.81309 1.40212 0
M  V30 10857 C 1258.33 0.69568 1.47187 0
M  V30 10858 O 1259.52 0.973034 1.49647 0
M  V30 10859 C 1256.62 1.92901 2.78644 0
M  V30 10860 C 1255.79 3.23222 2.94697 0
M  V30 10861 C 1254.85 3.25329 4.13579 0
M  V30 10862 O 1253.88 3.989 4.06039 0
M  V30 10863 N 1255.08 2.50158 5.23833 0
M  V30 10864 H 1257.84 2.75659 1.1761 0
M  V30 10865 H 1255.41 1.54021 0.498925 0
M  V30 10866 H 1257.4 1.91721 3.56406 0
M  V30 10867 H 1255.97 1.05582 2.9423 0
M  V30 10868 H 1255.19 3.37241 2.04113 0
M  V30 10869 H 1256.48 4.09238 3.02328 0
M  V30 10870 H 1255.87 1.90002 5.32838 0
M  V30 10871 H 1254.43 2.5474 5.99959 0
M  V30 10872 N 1257.86 -0.571685 1.46866 0
M  V30 10873 C 1259.11 -1.32685 1.52444 0
M  V30 10874 C 1259.43 -1.94147 0.182225 0
M  V30 10875 O 1258.7 -1.79159 -0.792385 0
M  V30 10876 H 1257.28 -0.492679 0.561495 0
M  V30 10877 H 1259.94 -0.668694 1.8307 0
M  V30 10878 H 1259.04 -2.12788 2.28315 0
M  V30 10879 N 1259.34 -1.34755 -0.817236 0
M  V30 10880 C 1260.25 -1.28888 -1.96023 0
M  V30 10881 C 1261.27 -0.195582 -1.72897 0
M  V30 10882 O 1262.44 -0.423071 -1.96906 0
M  V30 10883 C 1259.51 -1.04985 -3.30423 0
M  V30 10884 C 1258.57 -2.23526 -3.66517 0
M  V30 10885 C 1257.8 -2.00753 -4.94504 0
M  V30 10886 O 1258.03 -0.968622 -5.62116 0
M  V30 10887 O 1256.96 -2.87848 -5.28608 0
M  V30 10888 H 1260.79 -2.25059 -2.03917 0
M  V30 10889 H 1258.37 -1.15019 -0.953467 0
M  V30 10890 H 1260.25 -0.934589 -4.10906 0
M  V30 10891 H 1258.93 -0.118582 -3.23483 0
M  V30 10892 H 1257.83 -2.40613 -2.86455 0
M  V30 10893 H 1259.17 -3.15062 -3.78149 0
M  V30 10894 N 1260.82 1.03812 -1.18578 0
M  V30 10895 C 1261.78 2.10049 -0.91718 0
M  V30 10896 C 1262.78 1.60498 0.0985122 0
M  V30 10897 O 1263.97 1.73674 -0.135213 0
M  V30 10898 C 1261.1 3.38813 -0.376599 0
M  V30 10899 H 1262.3 2.3531 -1.85927 0
M  V30 10900 H 1259.85 1.20277 -0.998156 0
M  V30 10901 H 1260.59 3.19216 0.571983 0
M  V30 10902 H 1260.37 3.76096 -1.10881 0
M  V30 10903 H 1261.86 4.17084 -0.207453 0
M  V30 10904 N 1262.3 0.988223 1.22768 0
M  V30 10905 C 1263.55 0.660154 1.91014 0
M  V30 10906 C 1263.87 -0.809788 1.77391 0
M  V30 10907 O 1263.14 -1.57998 1.15817 0
M  V30 10908 H 1261.72 0.24118 0.706995 0
M  V30 10909 H 1264.38 1.25372 1.49224 0
M  V30 10910 H 1263.47 0.918603 2.98275 0
M  V30 10911 N 1263.78 -1.38018 0.760839 0
M  V30 10912 C 1264.71 -2.2899 0.0980916 0
M  V30 10913 C 1265.72 -1.48102 -0.675985 0
M  V30 10914 O 1266.91 -1.70883 -0.515878 0
M  V30 10915 C 1264.01 -3.27142 -0.884959 0
M  V30 10916 C 1263.18 -4.37081 -0.167 0
M  V30 10917 C 1262.24 -5.15375 -1.06184 0
M  V30 10918 O 1261.27 -5.6673 -0.529667 0
M  V30 10919 N 1262.47 -5.29052 -2.38924 0
M  V30 10920 H 1265.23 -2.86508 0.879403 0
M  V30 10921 H 1262.8 -1.49877 0.612245 0
M  V30 10922 H 1264.79 -3.764 -1.48678 0
M  V30 10923 H 1263.36 -2.70471 -1.5673 0
M  V30 10924 H 1262.58 -3.89363 0.615617 0
M  V30 10925 H 1263.87 -5.07732 0.329525 0
M  V30 10926 H 1263.26 -4.88892 -2.84607 0
M  V30 10927 H 1261.82 -5.81658 -2.94139 0
M  V30 10928 N 1265.25 -0.510493 -1.49103 0
M  V30 10929 C 1266.2 0.262848 -2.29298 0
M  V30 10930 C 1267.17 0.951714 -1.36131 0
M  V30 10931 O 1268.36 0.956534 -1.65091 0
M  V30 10932 C 1265.5 1.31565 -3.19037 0
M  V30 10933 C 1264.61 0.637598 -4.27269 0
M  V30 10934 C 1263.74 1.67165 -5.04212 0
M  V30 10935 C 1262.78 0.975992 -6.04269 0
M  V30 10936 N 1261.92 1.95468 -6.74342 0
M  V30 10937 H 1266.76 -0.427246 -2.94921 0
M  V30 10938 H 1264.3 -0.222538 -1.45407 0
M  V30 10939 H 1266.25 1.93813 -3.69449 0
M  V30 10940 H 1264.88 1.97438 -2.55379 0
M  V30 10941 H 1263.94 -0.0983863 -3.80273 0
M  V30 10942 H 1265.25 0.0904435 -4.98718 0
M  V30 10943 H 1264.4 2.36893 -5.5854 0
M  V30 10944 H 1263.14 2.25267 -4.32557 0
M  V30 10945 H 1262.15 0.264534 -5.49163 0
M  V30 10946 H 1263.37 0.40134 -6.77913 0
M  V30 10947 H 1261.32 2.52515 -6.05452 0
M  V30 10948 H 1261.23 1.45845 -7.41799 0
M  V30 10949 H 1262.5 2.64455 -7.33269 0
M  V30 10950 N 1266.73 1.55688 -0.24474 0
M  V30 10951 C 1267.98 1.98498 0.379852 0
M  V30 10952 C 1268.3 1.13416 1.58625 0
M  V30 10953 O 1267.57 0.216456 1.947 0
M  V30 10954 H 1266.15 0.73312 0.143334 0
M  V30 10955 H 1268.81 1.91858 -0.343027 0
M  V30 10956 H 1267.91 3.04367 0.690463 0
M  V30 10957 N 1268.21 -0.0283989 1.57574 0
M  V30 10958 C 1269.49 -0.754527 1.80461 0
M  V30 10959 C 1269.87 -1.93539 0.842966 0
M  V30 10960 O 1269.21 -2.28212 -0.114714 0
M  V30 10961 C 1269.42 -1.18694 3.28196 0
M  V30 10962 C 1270.77 -1.60257 3.93196 0
M  V30 10963 O 1271.8 -1.2815 3.32349 0
M  V30 10964 O 1270.66 -2.19853 5.00327 0
M  V30 10965 H 1267.75 -0.364936 0.742126 0
M  V30 10966 H 1270.3 -0.00512589 1.69699 0
M  V30 10967 H 1269.07 -0.34398 3.89785 0
M  V30 10968 H 1268.69 -1.99633 3.43849 0
M  V30 10969 N 1269.69 -1.54705 -0.300681 0
M  V30 10970 C 1270.65 -1.84934 -1.35395 0
M  V30 10971 C 1271.65 -0.72226 -1.43666 0
M  V30 10972 O 1272.84 -0.990543 -1.43296 0
M  V30 10973 C 1269.97 -2.02991 -2.73875 0
M  V30 10974 H 1271.17 -2.79063 -1.09835 0
M  V30 10975 H 1268.72 -1.46772 -0.537365 0
M  V30 10976 H 1269.45 -1.11151 -3.04657 0
M  V30 10977 H 1269.24 -2.85027 -2.69262 0
M  V30 10978 H 1270.73 -2.27747 -3.5003 0
M  V30 10979 N 1271.17 0.563888 -1.47167 0
M  V30 10980 C 1272.41 1.31875 -1.53145 0
M  V30 10981 C 1272.74 1.94047 -0.192518 0
M  V30 10982 O 1272.01 1.79577 0.782872 0
M  V30 10983 H 1270.59 0.489694 -0.5641 0
M  V30 10984 H 1273.25 0.658976 -1.83422 0
M  V30 10985 H 1272.34 2.11574 -2.2944 0
M  V30 10986 N 1272.64 1.35187 0.810078 0
M  V30 10987 C 1273.61 1.27698 1.90331 0
M  V30 10988 C 1274.61 0.189216 1.59683 0
M  V30 10989 O 1275.8 0.442689 1.68481 0
M  V30 10990 C 1272.93 0.974631 3.26671 0
M  V30 10991 H 1274.12 2.24902 1.98392 0
M  V30 10992 H 1271.68 1.1966 1.00554 0
M  V30 10993 H 1272.41 0.0063068 3.24299 0
M  V30 10994 H 1272.2 1.76158 3.50301 0
M  V30 10995 H 1273.69 0.947743 4.06703 0
M  V30 10996 N 1274.12 -1.03182 1.19127 0
M  V30 10997 C 1275.53 -1.57984 0.994888 0
M  V30 10998 C 1275.88 -1.90898 -0.453019 0
M  V30 10999 O 1275.01 -1.70556 -1.33191 0
M  V30 11000 C 1275.6 -2.8705 1.79966 0
M  V30 11001 C 1274.16 -3.38435 1.64737 0
M  V30 11002 C 1273.31 -2.11912 1.78854 0
M  V30 11003 H 1276.26 -0.857458 1.33542 0
M  V30 11004 H 1276.28 -3.57821 1.294 0
M  V30 11005 H 1275.79 -2.63062 2.85341 0
M  V30 11006 H 1273.9 -3.67416 0.619358 0
M  V30 11007 H 1274.01 -4.11665 2.45089 0
M  V30 11008 H 1272.37 -2.23642 1.21886 0
M  V30 11009 H 1273.16 -1.90369 2.85682 0
M  V30 11010 N 1275.6 -0.99472 -1.22242 0
M  V30 11011 C 1276.85 -0.670275 -1.90661 0
M  V30 11012 C 1277.17 0.800369 -1.77818 0
M  V30 11013 O 1276.44 1.57381 -1.16653 0
M  V30 11014 H 1275.02 -0.244925 -0.705706 0
M  V30 11015 H 1277.68 -1.26162 -1.48557 0
M  V30 11016 H 1276.78 -0.934408 -2.97784 0
M  V30 11017 N 1277.08 1.37613 -0.768148 0
M  V30 11018 C 1278.49 1.82437 -0.396703 0
M  V30 11019 C 1278.84 1.64019 1.07668 0
M  V30 11020 O 1277.97 1.14932 1.83356 0
M  V30 11021 C 1278.56 3.31207 -0.713265 0
M  V30 11022 C 1277.12 3.74323 -0.39492 0
M  V30 11023 C 1276.27 2.60191 -0.958962 0
M  V30 11024 H 1279.22 1.26135 -0.963099 0
M  V30 11025 H 1279.24 3.805 0.00337228 0
M  V30 11026 H 1278.75 3.4458 -1.78567 0
M  V30 11027 H 1276.85 3.66521 0.670313 0
M  V30 11028 H 1276.96 4.70558 -0.900653 0
M  V30 11029 H 1275.33 2.51797 -0.383423 0
M  V30 11030 H 1276.11 2.76358 -2.03669 0
M  V30 11031 N 1278.56 0.518393 1.4883 0
M  V30 11032 C 1279.49 -0.287642 2.27388 0
M  V30 11033 C 1280.5 -0.914974 1.34655 0
M  V30 11034 O 1281.69 -0.795373 1.598 0
M  V30 11035 C 1278.79 -1.42149 3.07647 0
M  V30 11036 C 1277.96 -0.898238 4.28078 0
M  V30 11037 C 1277.02 -1.91179 4.90242 0
M  V30 11038 O 1276.05 -1.47337 5.498 0
M  V30 11039 N 1277.25 -3.24331 4.81445 0
M  V30 11040 H 1280.02 0.386047 2.97203 0
M  V30 11041 H 1277.58 0.352002 1.58027 0
M  V30 11042 H 1279.57 -2.09745 3.46106 0
M  V30 11043 H 1278.14 -1.99903 2.40328 0
M  V30 11044 H 1277.36 -0.0466326 3.94172 0
M  V30 11045 H 1278.65 -0.527338 5.0606 0
M  V30 11046 H 1278.04 -3.62627 4.34187 0
M  V30 11047 H 1276.6 -3.87593 5.24037 0
M  V30 11048 N 1280.03 -1.55556 0.252993 0
M  V30 11049 C 1281.28 -1.98697 -0.369319 0
M  V30 11050 C 1281.6 -1.14256 -1.58021 0
M  V30 11051 O 1280.87 -0.226779 -1.94583 0
M  V30 11052 H 1279.45 -0.733869 -0.139444 0
M  V30 11053 H 1282.12 -1.91673 0.353197 0
M  V30 11054 H 1281.21 -3.04728 -0.674312 0
M  V30 11055 N 1281.51 0.0200419 -1.57587 0
M  V30 11056 C 1282.92 0.565484 -1.7793 0
M  V30 11057 C 1283.27 1.75096 -0.885201 0
M  V30 11058 O 1282.4 2.16243 -0.0823831 0
M  V30 11059 C 1282.99 1.03263 -3.2268 0
M  V30 11060 C 1281.55 1.52352 -3.44189 0
M  V30 11061 C 1280.7 0.465637 -2.73363 0
M  V30 11062 H 1283.65 -0.206174 -1.57355 0
M  V30 11063 H 1283.67 1.89959 -3.2969 0
M  V30 11064 H 1283.18 0.169613 -3.87729 0
M  V30 11065 H 1281.29 2.40809 -2.84327 0
M  V30 11066 H 1281.4 1.5648 -4.52825 0
M  V30 11067 H 1279.76 0.922738 -2.37398 0
M  V30 11068 H 1280.55 -0.388068 -3.411 0
M  V30 11069 N 1282.99 1.54862 0.292472 0
M  V30 11070 C 1284.22 1.78877 1.04966 0
M  V30 11071 C 1284.64 0.550724 1.79857 0
M  V30 11072 O 1284 -0.499054 1.74296 0
M  V30 11073 C 1284.05 3.00106 1.99922 0
M  V30 11074 O 1283.15 2.73827 3.0837 0
M  V30 11075 H 1282.49 0.591802 0.301108 0
M  V30 11076 H 1285.02 2.01965 0.3273 0
M  V30 11077 H 1285.03 3.28309 2.42233 0
M  V30 11078 H 1283.71 3.89872 1.44821 0
M  V30 11079 H 1282.28 2.56665 2.70513 0
M  V30 11080 N 1284.47 -0.556076 1.47464 0
M  V30 11081 C 1285.72 -1.31061 1.53842 0
M  V30 11082 C 1286.04 -1.93943 0.202806 0
M  V30 11083 O 1285.31 -1.7999 -0.773338 0
M  V30 11084 H 1283.89 -0.486696 0.566689 0
M  V30 11085 H 1286.55 -0.64924 1.83769 0
M  V30 11086 H 1285.65 -2.10354 2.30559 0
M  V30 11087 N 1285.95 -1.35615 -0.802897 0
M  V30 11088 C 1286.91 -1.28705 -1.89651 0
M  V30 11089 C 1287.91 -0.197681 -1.5958 0
M  V30 11090 O 1289.1 -0.451618 -1.68244 0
M  V30 11091 C 1286.23 -0.991941 -3.26149 0
M  V30 11092 H 1287.43 -2.25951 -1.97196 0
M  V30 11093 H 1284.98 -1.20192 -0.999179 0
M  V30 11094 H 1285.71 -0.0235051 -3.24291 0
M  V30 11095 H 1285.5 -1.78013 -3.49362 0
M  V30 11096 H 1286.99 -0.969298 -4.06195 0
M  V30 11097 N 1287.43 1.02549 -1.19673 0
M  V30 11098 C 1288.84 1.57454 -1.00325 0
M  V30 11099 C 1289.19 1.91136 0.442889 0
M  V30 11100 O 1288.31 1.7126 1.32284 0
M  V30 11101 C 1288.91 2.86091 -1.81486 0
M  V30 11102 C 1287.47 3.37557 -1.6653 0
M  V30 11103 C 1286.61 2.1096 -1.79975 0
M  V30 11104 H 1289.56 0.850364 -1.33994 0
M  V30 11105 H 1289.59 3.5713 -1.31296 0
M  V30 11106 H 1289.1 2.61546 -2.86733 0
M  V30 11107 H 1287.2 3.67083 -0.638834 0
M  V30 11108 H 1287.31 4.1036 -2.47269 0
M  V30 11109 H 1285.68 2.22993 -1.23071 0
M  V30 11110 H 1286.46 1.88852 -2.86688 0
M  V30 11111 N 1288.9 1.00119 1.21713 0
M  V30 11112 C 1290.15 0.680377 1.90303 0
M  V30 11113 C 1290.47 -0.790927 1.7824 0
M  V30 11114 O 1289.74 -1.5676 1.17486 0
M  V30 11115 H 1288.32 0.248665 0.704397 0
M  V30 11116 H 1290.98 1.26948 1.47886 0
M  V30 11117 H 1290.08 0.950188 2.97284 0
M  V30 11118 N 1290.38 -1.37203 0.775435 0
M  V30 11119 C 1291.79 -1.82224 0.406372 0
M  V30 11120 C 1292.14 -1.64587 -1.06796 0
M  V30 11121 O 1291.27 -1.15903 -1.82744 0
M  V30 11122 C 1291.86 -3.30824 0.730819 0
M  V30 11123 C 1290.42 -3.74108 0.414766 0
M  V30 11124 C 1289.57 -2.59679 0.972747 0
M  V30 11125 H 1292.52 -1.25623 0.969775 0
M  V30 11126 H 1292.54 -3.80496 0.0168066 0
M  V30 11127 H 1292.05 -3.43628 1.80392 0
M  V30 11128 H 1290.15 -3.66871 -0.650866 0
M  V30 11129 H 1290.27 -4.70074 0.925595 0
M  V30 11130 H 1288.63 -2.51591 0.396772 0
M  V30 11131 H 1289.41 -2.75274 2.05132 0
M  V30 11132 N 1291.86 -0.526279 -1.48553 0
M  V30 11133 C 1292.79 0.275579 -2.27537 0
M  V30 11134 C 1293.8 0.90782 -1.35139 0
M  V30 11135 O 1294.99 0.786887 -1.6022 0
M  V30 11136 C 1292.09 1.40515 -3.08397 0
M  V30 11137 C 1291.27 0.875523 -4.28548 0
M  V30 11138 C 1290.33 1.88577 -4.91249 0
M  V30 11139 O 1289.35 1.44419 -5.50574 0
M  V30 11140 N 1290.55 3.21774 -4.83158 0
M  V30 11141 H 1293.32 -0.401803 -2.96994 0
M  V30 11142 H 1290.88 -0.360378 -1.57838 0
M  V30 11143 H 1292.87 2.07907 -3.47213 0
M  V30 11144 H 1291.44 1.98626 -2.41384 0
M  V30 11145 H 1290.66 0.025728 -3.94192 0
M  V30 11146 H 1291.95 0.500493 -5.06332 0
M  V30 11147 H 1291.35 3.60319 -4.36104 0
M  V30 11148 H 1289.9 3.84808 -5.26085 0
M  V30 11149 N 1293.34 1.5542 -0.261239 0
M  V30 11150 C 1294.59 1.9889 0.358777 0
M  V30 11151 C 1294.91 1.15092 1.57413 0
M  V30 11152 O 1294.18 0.237095 1.9446 0
M  V30 11153 H 1292.76 0.734599 0.13555 0
M  V30 11154 H 1295.42 1.91483 -0.363357 0
M  V30 11155 H 1294.51 3.05082 0.658142 0
M  V30 11156 N 1294.82 -0.0116844 1.57596 0
M  V30 11157 C 1296.23 -0.55604 1.78228 0
M  V30 11158 C 1296.58 -1.74624 0.894474 0
M  V30 11159 O 1295.7 -2.16196 0.0938498 0
M  V30 11160 C 1296.3 -1.0155 3.23223 0
M  V30 11161 C 1294.86 -1.50525 3.44992 0
M  V30 11162 C 1294 -0.451133 2.73606 0
M  V30 11163 H 1296.95 0.214516 1.57243 0
M  V30 11164 H 1296.98 -1.88208 3.30693 0
M  V30 11165 H 1296.49 -0.149048 3.87814 0
M  V30 11166 H 1294.59 -2.39298 2.856 0
M  V30 11167 H 1294.7 -1.54076 4.53649 0
M  V30 11168 H 1293.07 -0.910135 2.37884 0
M  V30 11169 H 1293.85 0.406152 3.40889 0
M  V30 11170 N 1296.29 -1.55015 -0.284256 0
M  V30 11171 C 1297.52 -1.79102 -1.03586 0
M  V30 11172 C 1297.94 -0.558733 -1.80343 0
M  V30 11173 O 1297.29 0.471925 -1.76293 0
M  V30 11174 C 1297.34 -3.00915 -2.0033 0
M  V30 11175 O 1297.07 -4.19384 -1.26685 0
M  V30 11176 C 1298.57 -3.3752 -2.87394 0
M  V30 11177 H 1295.79 -0.596912 -0.306491 0
M  V30 11178 H 1298.33 -2.02005 -0.31845 0
M  V30 11179 H 1296.49 -2.80171 -2.67549 0
M  V30 11180 H 1296.9 -4.88175 -1.91796 0
M  V30 11181 H 1298.37 -4.25953 -3.51095 0
M  V30 11182 H 1298.85 -2.56418 -3.56576 0
M  V30 11183 H 1299.46 -3.60483 -2.25682 0
M  V30 11184 N 1297.77 0.548248 -1.47757 0
M  V30 11185 C 1299.02 1.30243 -1.54535 0
M  V30 11186 C 1299.34 1.93832 -0.213089 0
M  V30 11187 O 1298.61 1.80397 0.763782 0
M  V30 11188 H 1297.19 0.483684 -0.569262 0
M  V30 11189 H 1299.85 0.639485 -1.8411 0
M  V30 11190 H 1298.95 2.09128 -2.31672 0
M  V30 11191 N 1299.25 1.36039 0.795694 0
M  V30 11192 C 1300.5 1.30112 1.5556 0
M  V30 11193 C 1300.83 -0.121197 1.93821 0
M  V30 11194 O 1300.1 -1.07313 1.62216 0
M  V30 11195 C 1300.39 2.21792 2.8369 0
M  V30 11196 C 1300.24 3.72691 2.51836 0
M  V30 11197 C 1301.56 2.12365 3.85472 0
M  V30 11198 H 1298.68 0.473971 0.564376 0
M  V30 11199 H 1301.32 1.66536 0.91465 0
M  V30 11200 H 1299.47 1.9086 3.38386 0
M  V30 11201 H 1301.14 4.14115 2.0324 0
M  V30 11202 H 1299.38 3.92436 1.84869 0
M  V30 11203 H 1300.06 4.32242 3.43323 0
M  V30 11204 H 1302.53 2.3958 3.40207 0
M  V30 11205 H 1301.41 2.78695 4.72885 0
M  V30 11206 H 1301.67 1.10898 4.27965 0
M  V30 11207 N 1300.73 -1.01913 1.20215 0
M  V30 11208 C 1301.96 -1.79076 1.03631 0
M  V30 11209 C 1302.37 -1.84192 -0.414583 0
M  V30 11210 O 1301.73 -1.29306 -1.28788 0
M  V30 11211 C 1301.78 -3.23665 1.61008 0
M  V30 11212 O 1301.5 -3.18873 3.00419 0
M  V30 11213 C 1303 -4.17387 1.49342 0
M  V30 11214 H 1300.22 -0.563241 0.364692 0
M  V30 11215 H 1302.77 -1.283 1.59246 0
M  V30 11216 H 1300.92 -3.71597 1.09518 0
M  V30 11217 H 1301.33 -4.09609 3.27598 0
M  V30 11218 H 1302.81 -5.16691 1.94253 0
M  V30 11219 H 1303.29 -4.36935 0.445493 0
M  V30 11220 H 1303.89 -3.75335 2.0001 0
M  V30 11221 N 1302.21 -1.00763 -1.2118 0
M  V30 11222 C 1303.45 -0.690459 -1.8994 0
M  V30 11223 C 1303.78 0.781464 -1.78656 0
M  V30 11224 O 1303.05 1.56135 -1.18316 0
M  V30 11225 H 1301.63 -0.252397 -0.703068 0
M  V30 11226 H 1304.29 -1.2773 -1.47211 0
M  V30 11227 H 1303.38 -0.96594 -2.96776 0
M  V30 11228 N 1303.68 1.3679 -0.7827 0
M  V30 11229 C 1305.1 1.82006 -0.41603 0
M  V30 11230 C 1305.45 1.65151 1.05922 0
M  V30 11231 O 1304.57 1.1687 1.82127 0
M  V30 11232 C 1305.17 3.30432 -0.748353 0
M  V30 11233 C 1303.73 3.73883 -0.4346 0
M  V30 11234 C 1302.87 2.59159 -0.986505 0
M  V30 11235 H 1305.82 1.25107 -0.976423 0
M  V30 11236 H 1305.84 3.80482 -0.036985 0
M  V30 11237 H 1305.36 3.42667 -1.82212 0
M  V30 11238 H 1303.46 3.67211 0.631401 0
M  V30 11239 H 1303.57 4.69577 -0.950511 0
M  V30 11240 H 1301.93 2.51377 -0.410108 0
M  V30 11241 H 1302.72 2.74182 -2.06589 0
M  V30 11242 N 1305.16 0.53415 1.48272 0
M  V30 11243 C 1306.11 -0.226335 2.29688 0
M  V30 11244 C 1307.08 -0.929937 1.37628 0
M  V30 11245 O 1308.26 -0.930149 1.66592 0
M  V30 11246 C 1305.4 -1.26472 3.2109 0
M  V30 11247 C 1304.52 -0.569542 4.28229 0
M  V30 11248 C 1303.65 -1.59122 5.06807 0
M  V30 11249 C 1302.69 -0.879734 6.05745 0
M  V30 11250 N 1301.83 -1.84715 6.77366 0
M  V30 11251 H 1306.67 0.474111 2.94204 0
M  V30 11252 H 1304.21 0.245643 1.45034 0
M  V30 11253 H 1306.16 -1.87911 3.72485 0
M  V30 11254 H 1304.79 -1.9335 2.58487 0
M  V30 11255 H 1303.85 0.158872 3.80068 0
M  V30 11256 H 1305.16 -0.0110904 4.98799 0
M  V30 11257 H 1304.31 -2.27977 5.62238 0
M  V30 11258 H 1303.05 -2.18357 4.36086 0
M  V30 11259 H 1302.06 -0.177134 5.49515 0
M  V30 11260 H 1303.28 -0.293439 6.78466 0
M  V30 11261 H 1301.23 -2.42851 6.09393 0
M  V30 11262 H 1301.14 -1.34025 7.44025 0
M  V30 11263 H 1302.41 -2.52756 7.37384 0
M  V30 11264 N 1306.64 -1.55279 0.269478 0
M  V30 11265 C 1307.89 -1.99077 -0.348224 0
M  V30 11266 C 1308.21 -1.15925 -1.568 0
M  V30 11267 O 1307.48 -0.247404 -1.94331 0
M  V30 11268 H 1306.06 -0.735307 -0.131653 0
M  V30 11269 H 1308.72 -1.91288 0.373506 0
M  V30 11270 H 1307.82 -3.05427 -0.641953 0
M  V30 11271 N 1308.12 0.00332656 -1.576 0
M  V30 11272 C 1309.08 0.980628 -2.07163 0
M  V30 11273 C 1310.08 1.27455 -0.980402 0
M  V30 11274 O 1311.27 1.22029 -1.24317 0
M  V30 11275 C 1308.4 2.30647 -2.51028 0
M  V30 11276 H 1309.6 0.551982 -2.94776 0
M  V30 11277 H 1307.15 0.250728 -1.54276 0
M  V30 11278 H 1307.88 2.78207 -1.66647 0
M  V30 11279 H 1307.67 2.10635 -3.30719 0
M  V30 11280 H 1309.16 3.00761 -2.89711 0
M  V30 11281 N 1309.6 1.55164 0.276031 0
M  V30 11282 C 1311.01 1.46936 0.623061 0
M  V30 11283 C 1311.21 0.680977 1.89644 0
M  V30 11284 O 1310.27 0.198618 2.51718 0
M  V30 11285 C 1311.58 2.91123 0.752839 0
M  V30 11286 C 1313.13 3.01319 0.847093 0
M  V30 11287 C 1313.6 4.46755 1.00867 0
M  V30 11288 N 1315.1 4.5057 1.07427 0
M  V30 11289 C 1315.83 5.60314 1.21804 0
M  V30 11290 N 1315.33 6.7993 1.32919 0
M  V30 11291 N 1317.12 5.4805 1.2489 0
M  V30 11292 H 1309.27 2.04877 -0.560282 0
M  V30 11293 H 1311.53 0.928925 -0.189217 0
M  V30 11294 H 1311.24 3.51521 -0.112333 0
M  V30 11295 H 1311.11 3.39967 1.63408 0
M  V30 11296 H 1313.5 2.41021 1.70274 0
M  V30 11297 H 1313.58 2.55733 -0.0586896 0
M  V30 11298 H 1313.23 5.07655 0.1577 0
M  V30 11299 H 1313.16 4.89995 1.92906 0
M  V30 11300 H 1315.65 3.64404 1.00089 0
M  V30 11301 H 1315.96 7.59319 1.43714 0
M  V30 11302 H 1314.3 6.82747 1.29929 0
M  V30 11303 H 1317.5 4.53542 1.15834 0
M  V30 11304 H 1317.67 6.33621 1.3575 0
M  V30 11305 N 1311.07 -0.540404 1.48045 0
M  V30 11306 C 1312.32 -1.29422 1.55224 0
M  V30 11307 C 1312.64 -1.93716 0.223365 0
M  V30 11308 O 1311.91 -1.808 -0.754204 0
M  V30 11309 H 1310.49 -0.480658 0.571819 0
M  V30 11310 H 1313.16 -0.629712 1.84447 0
M  V30 11311 H 1312.25 -2.07897 2.32777 0
M  V30 11312 N 1312.55 -1.36459 -0.788468 0
M  V30 11313 C 1313.52 -1.3071 -1.88275 0
M  V30 11314 C 1314.52 -0.214596 -1.59362 0
M  V30 11315 O 1315.71 -0.469437 -1.67756 0
M  V30 11316 C 1312.84 -1.02648 -3.25079 0
M  V30 11317 H 1314.03 -2.28029 -1.94788 0
M  V30 11318 H 1311.58 -1.21245 -0.986375 0
M  V30 11319 H 1312.32 -0.0578992 -3.24248 0
M  V30 11320 H 1312.1 -1.81708 -3.47454 0
M  V30 11321 H 1313.59 -1.01233 -4.05144 0
M  V30 11322 N 1314.03 1.01274 -1.20754 0
M  V30 11323 C 1314.96 2.10029 -0.917628 0
M  V30 11324 C 1315.98 1.62516 0.0961411 0
M  V30 11325 O 1317.16 1.77986 -0.135371 0
M  V30 11326 C 1314.26 3.37037 -0.354891 0
M  V30 11327 C 1313.44 4.1367 -1.42113 0
M  V30 11328 C 1312.5 5.18974 -0.869023 0
M  V30 11329 O 1311.52 5.47671 -1.55063 0
M  V30 11330 N 1312.72 5.79619 0.319631 0
M  V30 11331 H 1315.49 2.35485 -1.85383 0
M  V30 11332 H 1313.05 1.17695 -1.11173 0
M  V30 11333 H 1315.04 4.0469 0.0286895 0
M  V30 11334 H 1313.61 3.088 0.485956 0
M  V30 11335 H 1312.83 3.40931 -1.97889 0
M  V30 11336 H 1314.12 4.61649 -2.13911 0
M  V30 11337 H 1313.52 5.58646 0.89059 0
M  V30 11338 H 1312.08 6.48603 0.644807 0
M  V30 11339 N 1315.51 1.01404 1.20644 0
M  V30 11340 C 1316.76 0.700523 1.89571 0
M  V30 11341 C 1317.08 -0.771978 1.79068 0
M  V30 11342 O 1316.35 -1.55506 1.19142 0
M  V30 11343 H 1314.93 0.256122 0.70172 0
M  V30 11344 H 1317.59 1.28509 1.46531 0
M  V30 11345 H 1316.69 0.981665 2.9626 0
M  V30 11346 N 1316.99 -1.36373 0.789944 0
M  V30 11347 C 1318.4 -1.81783 0.425677 0
M  V30 11348 C 1318.75 -1.65711 -1.05045 0
M  V30 11349 O 1317.87 -1.17835 -1.81505 0
M  V30 11350 C 1318.47 -3.3003 0.765866 0
M  V30 11351 C 1317.03 -3.73647 0.454421 0
M  V30 11352 C 1316.18 -2.58632 1.00023 0
M  V30 11353 H 1319.13 -1.24587 0.983044 0
M  V30 11354 H 1319.15 -3.80457 0.0571624 0
M  V30 11355 H 1318.66 -3.41696 1.84026 0
M  V30 11356 H 1316.76 -3.67541 -0.611918 0
M  V30 11357 H 1316.87 -4.69066 0.975401 0
M  V30 11358 H 1315.24 -2.51156 0.423434 0
M  V30 11359 H 1316.02 -2.73083 2.0804 0
M  V30 11360 N 1318.47 -0.542005 -1.47987 0
M  V30 11361 C 1319.88 -0.104646 -1.86406 0
M  V30 11362 C 1320.23 1.32139 -1.4503 0
M  V30 11363 O 1319.35 1.99159 -0.846439 0
M  V30 11364 C 1319.95 -0.183133 -3.38305 0
M  V30 11365 C 1318.51 0.199098 -3.75873 0
M  V30 11366 C 1317.65 -0.537532 -2.7204 0
M  V30 11367 H 1320.6 -0.75259 -1.3972 0
M  V30 11368 H 1320.63 0.602149 -3.75705 0
M  V30 11369 H 1320.14 -1.22113 -3.68389 0
M  V30 11370 H 1318.24 1.23878 -3.51404 0
M  V30 11371 H 1318.35 -0.14888 -4.78869 0
M  V30 11372 H 1316.72 0.0176255 -2.54694 0
M  V30 11373 H 1317.5 -1.57639 -3.04967 0
M  V30 11374 N 1319.94 1.55134 -0.277709 0
M  V30 11375 C 1321.19 1.99259 0.337662 0
M  V30 11376 C 1321.51 1.16755 1.56183 0
M  V30 11377 O 1320.78 0.257707 1.94198 0
M  V30 11378 H 1319.36 0.735995 0.127751 0
M  V30 11379 H 1322.02 1.91087 -0.383646 0
M  V30 11380 H 1321.12 3.05763 0.625747 0
M  V30 11381 N 1321.42 0.00503138 1.57599 0
M  V30 11382 C 1322.38 -0.969628 2.0768 0
M  V30 11383 C 1323.38 -1.26933 0.987148 0
M  V30 11384 O 1324.57 -1.21368 1.24962 0
M  V30 11385 C 1321.71 -2.29312 2.52247 0
M  V30 11386 H 1322.9 -0.536342 2.95065 0
M  V30 11387 H 1320.45 -0.242543 1.54407 0
M  V30 11388 H 1321.19 -2.7732 1.6812 0
M  V30 11389 H 1320.97 -2.08878 3.31832 0
M  V30 11390 H 1322.46 -2.99221 2.91302 0
M  V30 11391 N 1322.9 -1.55308 -0.267798 0
M  V30 11392 C 1324.13 -1.80191 -1.01681 0
M  V30 11393 C 1324.54 -0.57783 -1.7974 0
M  V30 11394 O 1323.9 0.4532 -1.76783 0
M  V30 11395 C 1323.95 -3.03023 -1.97127 0
M  V30 11396 O 1323.67 -4.20704 -1.22229 0
M  V30 11397 C 1325.17 -3.40549 -2.83798 0
M  V30 11398 H 1322.39 -0.60013 -0.300142 0
M  V30 11399 H 1324.94 -2.02332 -0.297007 0
M  V30 11400 H 1323.09 -2.82993 -2.64563 0
M  V30 11401 H 1323.51 -4.90181 -1.86608 0
M  V30 11402 H 1324.98 -4.29653 -3.46557 0
M  V30 11403 H 1325.46 -2.60186 -3.53836 0
M  V30 11404 H 1326.06 -3.62856 -2.21846 0
M  V30 11405 N 1324.38 0.532545 -1.4833 0
M  V30 11406 C 1325.63 1.28597 -1.55908 0
M  V30 11407 C 1325.95 1.93595 -0.233635 0
M  V30 11408 O 1325.22 1.81197 0.744605 0
M  V30 11409 H 1323.8 0.477619 -0.57436 0
M  V30 11410 H 1326.46 0.619922 -1.84778 0
M  V30 11411 H 1325.55 2.0666 -2.33877 0
M  V30 11412 N 1325.86 1.36875 0.78122 0
M  V30 11413 C 1327.1 1.31559 1.53943 0
M  V30 11414 C 1327.43 -0.10273 1.94229 0
M  V30 11415 O 1326.69 -1.07386 1.63605 0
M  V30 11416 C 1326.98 2.19173 2.82309 0
M  V30 11417 C 1326.65 3.67595 2.61121 0
M  V30 11418 C 1325.31 4.08047 2.55051 0
M  V30 11419 C 1327.66 4.61665 2.41898 0
M  V30 11420 C 1324.99 5.40697 2.27736 0
M  V30 11421 C 1327.34 5.94542 2.16108 0
M  V30 11422 C 1326.01 6.34109 2.08476 0
M  V30 11423 H 1325.28 0.48141 0.563317 0
M  V30 11424 H 1327.93 1.68999 0.900638 0
M  V30 11425 H 1326.23 1.74696 3.50697 0
M  V30 11426 H 1327.93 2.12379 3.40141 0
M  V30 11427 H 1324.52 3.35509 2.66705 0
M  V30 11428 H 1328.7 4.3128 2.45584 0
M  V30 11429 H 1323.96 5.70325 2.20315 0
M  V30 11430 H 1328.13 6.66994 2.0023 0
M  V30 11431 H 1325.76 7.36823 1.87073 0
M  V30 11432 N 1327.33 -1.00632 1.21289 0
M  V30 11433 C 1328.74 -1.55838 1.02817 0
M  V30 11434 C 1329.1 -1.91816 -0.412425 0
M  V30 11435 O 1328.22 -1.73342 -1.29543 0
M  V30 11436 C 1328.82 -2.83168 1.86014 0
M  V30 11437 C 1327.37 -3.34865 1.71879 0
M  V30 11438 C 1326.52 -2.0807 1.83309 0
M  V30 11439 H 1329.47 -0.828939 1.3533 0
M  V30 11440 H 1329.49 -3.54996 1.36961 0
M  V30 11441 H 1329.01 -2.56951 2.90857 0
M  V30 11442 H 1327.11 -3.6602 0.697153 0
M  V30 11443 H 1327.22 -4.06374 2.53766 0
M  V30 11444 H 1325.58 -2.21006 1.26603 0
M  V30 11445 H 1326.37 -1.84267 2.89656 0
M  V30 11446 N 1328.81 -1.02043 -1.20104 0
M  V30 11447 C 1330.06 -0.710566 -1.89197 0
M  V30 11448 C 1330.38 0.762471 -1.79475 0
M  V30 11449 O 1329.65 1.54871 -1.19965 0
M  V30 11450 H 1328.23 -0.259839 -0.700352 0
M  V30 11451 H 1330.89 -1.29285 -1.45848 0
M  V30 11452 H 1329.99 -0.997363 -2.95735 0
M  V30 11453 N 1330.29 1.35952 -0.797165 0
M  V30 11454 C 1331.25 2.28266 -0.206748 0
M  V30 11455 C 1332.25 1.49169 0.60043 0
M  V30 11456 O 1333.44 1.69054 0.42029 0
M  V30 11457 C 1330.58 3.33363 0.712884 0
M  V30 11458 H 1331.77 2.81992 -1.02082 0
M  V30 11459 H 1329.32 1.45648 -0.567138 0
M  V30 11460 H 1330.06 2.84806 1.551 0
M  V30 11461 H 1329.84 3.91864 0.135926 0
M  V30 11462 H 1331.33 4.02284 1.1206 0
M  V30 11463 N 1331.77 0.549846 1.47697 0
M  V30 11464 C 1332.73 -0.191427 2.28399 0
M  V30 11465 C 1333.73 -0.849533 1.36527 0
M  V30 11466 O 1334.92 -0.706526 1.59229 0
M  V30 11467 C 1332.05 -1.27907 3.15995 0
M  V30 11468 H 1333.25 0.517375 2.95404 0
M  V30 11469 H 1330.8 0.30651 1.53265 0
M  V30 11470 H 1331.53 -2.0205 2.53665 0
M  V30 11471 H 1331.32 -0.812066 3.83599 0
M  V30 11472 H 1332.81 -1.79992 3.76819 0
M  V30 11473 N 1333.25 -1.54984 0.285932 0
M  V30 11474 C 1334.49 -1.99436 -0.32709 0
M  V30 11475 C 1334.82 -1.17582 -1.55562 0
M  V30 11476 O 1334.09 -0.268002 -1.94058 0
M  V30 11477 H 1332.67 -0.736662 -0.123846 0
M  V30 11478 H 1335.33 -1.90881 0.393774 0
M  V30 11479 H 1334.42 -3.0609 -0.609523 0
M  V30 11480 N 1334.72 -0.0133892 -1.57594 0
M  V30 11481 C 1336.14 0.342848 -1.55874 0
M  V30 11482 C 1336.34 1.73928 -1.01742 0
M  V30 11483 O 1335.4 2.43798 -0.657158 0
M  V30 11484 C 1336.71 0.205831 -2.99995 0
M  V30 11485 C 1338.26 0.279774 -3.11747 0
M  V30 11486 C 1338.73 0.171729 -4.57678 0
M  V30 11487 N 1340.22 0.22921 -4.62633 0
M  V30 11488 C 1340.96 0.169153 -5.7315 0
M  V30 11489 N 1340.45 0.0589166 -6.92775 0
M  V30 11490 N 1342.25 0.221995 -5.61661 0
M  V30 11491 H 1334.4 -0.926727 -1.91117 0
M  V30 11492 H 1336.66 -0.356466 -0.878428 0
M  V30 11493 H 1336.37 -0.755482 -3.4349 0
M  V30 11494 H 1336.24 0.982476 -3.6418 0
M  V30 11495 H 1338.63 1.23154 -2.68174 0
M  V30 11496 H 1338.71 -0.526974 -2.50313 0
M  V30 11497 H 1338.35 -0.776547 -5.01928 0
M  V30 11498 H 1338.28 0.997138 -5.17073 0
M  V30 11499 H 1340.77 0.315196 -3.76583 0
M  V30 11500 H 1341.09 0.0193526 -7.72798 0
M  V30 11501 H 1339.43 0.0243543 -6.94996 0
M  V30 11502 H 1342.62 0.306406 -4.67096 0
M  V30 11503 H 1342.8 0.171727 -6.47772 0
M  V30 11504 N 1336.2 1.55448 0.259558 0
M  V30 11505 C 1337.45 1.76948 0.990816 0
M  V30 11506 C 1337.78 0.576401 1.85449 0
M  V30 11507 O 1337.06 -0.425693 1.89784 0
M  V30 11508 C 1337.34 3.08221 1.86204 0
M  V30 11509 C 1337.19 4.37909 1.0274 0
M  V30 11510 C 1338.51 3.35627 2.84679 0
M  V30 11511 H 1335.63 0.64377 0.358788 0
M  V30 11512 H 1338.27 1.88182 0.262211 0
M  V30 11513 H 1336.42 2.98775 2.48326 0
M  V30 11514 H 1338.09 4.5933 0.425855 0
M  V30 11515 H 1336.34 4.32533 0.331308 0
M  V30 11516 H 1337.01 5.26116 1.6705 0
M  V30 11517 H 1339.48 3.44954 2.32693 0
M  V30 11518 H 1338.36 4.28719 3.42769 0
M  V30 11519 H 1338.62 2.55921 3.60496 0
M  V30 11520 N 1337.68 -0.524672 1.4861 0
M  V30 11521 C 1338.93 -1.27768 1.56588 0
M  V30 11522 C 1339.25 -1.93469 0.243899 0
M  V30 11523 O 1338.52 -1.8159 -0.734985 0
M  V30 11524 H 1337.1 -0.474566 0.576885 0
M  V30 11525 H 1339.76 -0.610114 1.85104 0
M  V30 11526 H 1338.86 -2.05416 2.34969 0
M  V30 11527 N 1339.16 -1.37287 -0.77395 0
M  V30 11528 C 1340.57 -1.28954 -1.3501 0
M  V30 11529 C 1340.92 0.0638301 -1.96096 0
M  V30 11530 O 1340.05 0.965624 -1.93661 0
M  V30 11531 C 1340.64 -2.3352 -2.45467 0
M  V30 11532 C 1339.2 -2.28828 -2.98856 0
M  V30 11533 C 1338.35 -2.17468 -1.72055 0
M  V30 11534 H 1341.3 -1.47941 -0.57438 0
M  V30 11535 H 1341.32 -1.98058 -3.24889 0
M  V30 11536 H 1340.83 -3.32009 -2.00977 0
M  V30 11537 H 1338.93 -1.33855 -3.47726 0
M  V30 11538 H 1339.04 -3.22152 -3.54619 0
M  V30 11539 H 1337.41 -1.63977 -1.94894 0
M  V30 11540 H 1338.19 -3.17868 -1.29672 0
M  V30 11541 N 1340.64 0.999871 -1.21821 0
M  V30 11542 C 1342.05 1.5529 -1.03642 0
M  V30 11543 C 1342.4 1.92032 0.402246 0
M  V30 11544 O 1341.52 1.74027 1.28622 0
M  V30 11545 C 1342.12 2.82177 -1.87514 0
M  V30 11546 C 1340.68 3.33949 -1.73653 0
M  V30 11547 C 1339.82 2.07095 -1.84409 0
M  V30 11548 H 1342.78 0.821751 -1.35768 0
M  V30 11549 H 1342.8 3.54264 -1.38842 0
M  V30 11550 H 1342.31 2.55405 -2.92216 0
M  V30 11551 H 1340.41 3.65645 -0.716554 0
M  V30 11552 H 1340.52 4.05022 -2.55918 0
M  V30 11553 H 1338.89 2.20332 -1.27773 0
M  V30 11554 H 1339.67 1.82728 -2.90629 0
M  V30 11555 N 1342.11 1.02678 1.19562 0
M  V30 11556 C 1343.36 0.72059 1.88817 0
M  V30 11557 C 1343.68 -0.752942 1.79877 0
M  V30 11558 O 1342.95 -1.54233 1.20785 0
M  V30 11559 H 1341.53 0.26355 0.698964 0
M  V30 11560 H 1344.2 1.30056 1.4516 0
M  V30 11561 H 1343.29 1.01303 2.95202 0
M  V30 11562 N 1343.59 -1.35528 0.804364 0
M  V30 11563 C 1344.82 -2.03604 0.395013 0
M  V30 11564 C 1345.24 -1.60225 -0.985371 0
M  V30 11565 O 1344.6 -0.777844 -1.63766 0
M  V30 11566 C 1344.65 -3.57337 0.484011 0
M  V30 11567 O 1343.75 -4.09316 -0.503395 0
M  V30 11568 H 1343.09 -0.643089 0.165325 0
M  V30 11569 H 1345.62 -1.73171 1.08963 0
M  V30 11570 H 1345.63 -4.0647 0.353009 0
M  V30 11571 H 1344.31 -3.8826 1.49088 0
M  V30 11572 H 1342.89 -3.71412 -0.332817 0
M  V30 11573 N 1345.07 -0.557671 -1.47404 0
M  V30 11574 C 1346.02 0.202834 -2.31714 0
M  V30 11575 C 1347.01 0.908873 -1.42954 0
M  V30 11576 O 1348.22 0.830106 -1.59716 0
M  V30 11577 H 1344.59 0.0842824 -0.747262 0
M  V30 11578 H 1346.57 -0.527431 -2.93702 0
M  V30 11579 C 1345.31 1.21937 -3.25617 0
M  V30 11580 H 1344.64 0.685506 -3.93879 0
M  V30 11581 H 1346.08 1.72237 -3.87441 0
M  V30 11582 C 1344.54 2.26748 -2.49173 0
M  V30 11583 O 1345.07 3.33681 -2.23651 0
M  V30 11584 N 1343.27 2.00687 -2.10174 0
M  V30 11585 H 1342.82 1.13741 -2.3113 0
M  V30 11586 H 1342.78 2.71031 -1.59342 0
M  V30 11587 N 1346.55 1.54831 -0.294147 0
M  V30 11588 C 1347.8 1.99606 0.316509 0
M  V30 11589 C 1348.12 1.18405 1.54936 0
M  V30 11590 O 1347.39 0.278289 1.93913 0
M  V30 11591 H 1345.97 0.737309 0.119938 0
M  V30 11592 H 1348.63 1.90669 -0.403891 0
M  V30 11593 H 1347.73 3.06409 0.593282 0
M  V30 11594 N 1348.03 0.0217466 1.57585 0
M  V30 11595 C 1348.98 -0.980624 2.10918 0
M  V30 11596 C 1349.97 -1.34178 1.03406 0
M  V30 11597 O 1351.18 -1.32487 1.21849 0
M  V30 11598 H 1347.55 -0.333984 0.673764 0
M  V30 11599 H 1349.52 -0.505431 2.94088 0
M  V30 11600 C 1348.27 -2.25639 2.64542 0
M  V30 11601 H 1347.59 -1.98722 3.46914 0
M  V30 11602 H 1349.03 -2.94003 3.05513 0
M  V30 11603 C 1347.49 -2.98111 1.56945 0
M  V30 11604 O 1348.02 -3.89937 0.964975 0
M  V30 11605 N 1346.23 -2.60316 1.29166 0
M  V30 11606 H 1345.78 -1.85722 1.78508 0
M  V30 11607 H 1345.73 -3.09116 0.573987 0
M  V30 11608 N 1349.51 -1.55583 -0.251311 0
M  V30 11609 C 1350.92 -1.67693 -0.820719 0
M  V30 11610 C 1351.27 -0.618393 -1.862 0
M  V30 11611 O 1350.39 0.236158 -2.15108 0
M  V30 11612 C 1350.99 -3.04011 -1.49542 0
M  V30 11613 C 1349.55 -3.18075 -2.01259 0
M  V30 11614 C 1348.69 -2.63557 -0.862138 0
M  V30 11615 H 1351.64 -1.58677 -0.0272072 0
M  V30 11616 H 1351.67 -2.9821 -2.36328 0
M  V30 11617 H 1351.18 -3.81032 -0.737323 0
M  V30 11618 H 1349.28 -2.45869 -2.79963 0
M  V30 11619 H 1349.39 -4.24927 -2.213 0
M  V30 11620 H 1347.76 -2.21268 -1.26145 0
M  V30 11621 H 1348.54 -3.431 -0.117196 0
M  V30 11622 N 1350.98 0.516783 -1.48886 0
M  V30 11623 C 1352.23 1.26936 -1.57263 0
M  V30 11624 C 1352.55 1.93337 -0.254156 0
M  V30 11625 O 1351.82 1.81977 0.725345 0
M  V30 11626 H 1350.4 0.4715 -0.579393 0
M  V30 11627 H 1353.06 0.600289 -1.85425 0
M  V30 11628 H 1352.16 2.04167 -2.36055 0
M  V30 11629 N 1352.46 1.37696 0.766659 0
M  V30 11630 C 1353.87 1.29668 1.34324 0
M  V30 11631 C 1354.22 -0.0534297 1.96127 0
M  V30 11632 O 1353.35 -0.95534 1.94171 0
M  V30 11633 C 1353.94 2.34818 2.44225 0
M  V30 11634 C 1352.5 2.3041 2.97638 0
M  V30 11635 C 1351.65 2.18378 1.70899 0
M  V30 11636 H 1354.6 1.48244 0.566526 0
M  V30 11637 H 1354.62 1.99778 3.23835 0
M  V30 11638 H 1354.13 3.3307 1.99214 0
M  V30 11639 H 1352.23 1.35698 3.47011 0
M  V30 11640 H 1352.35 3.24028 3.52906 0
M  V30 11641 H 1350.71 1.65008 1.94021 0
M  V30 11642 H 1351.49 3.18551 1.27985 0
M  V30 11643 N 1353.94 -0.993397 1.22349 0
M  V30 11644 C 1355.35 -1.54739 1.04465 0
M  V30 11645 C 1355.7 -1.92243 -0.392057 0
M  V30 11646 O 1354.83 -1.74707 -1.27697 0
M  V30 11647 C 1355.42 -2.81179 1.89007 0
M  V30 11648 C 1353.98 -3.33023 1.75421 0
M  V30 11649 C 1353.13 -2.06114 1.85505 0
M  V30 11650 H 1356.08 -0.814539 1.36202 0
M  V30 11651 H 1356.1 -3.53523 1.40718 0
M  V30 11652 H 1355.61 -2.53851 2.93566 0
M  V30 11653 H 1353.71 -3.6526 0.735935 0
M  V30 11654 H 1353.83 -4.03659 2.58062 0
M  V30 11655 H 1352.19 -2.19651 1.2894 0
M  V30 11656 H 1352.97 -1.81184 2.91594 0
M  V30 11657 N 1355.42 -1.03311 -1.19015 0
M  V30 11658 C 1356.67 -0.730593 -1.88432 0
M  V30 11659 C 1356.99 0.743392 -1.80274 0
M  V30 11660 O 1356.26 1.5359 -1.21601 0
M  V30 11661 H 1354.84 -0.267253 -0.697556 0
M  V30 11662 H 1357.5 -1.30824 -1.44468 0
M  V30 11663 H 1356.59 -1.02867 -2.9466 0
M  V30 11664 N 1356.9 1.35099 -0.81154 0
M  V30 11665 C 1358.31 1.81082 -0.454543 0
M  V30 11666 C 1358.66 1.67361 1.02395 0
M  V30 11667 O 1357.78 1.20707 1.79607 0
M  V30 11668 C 1358.38 3.2877 -0.818274 0
M  V30 11669 C 1356.94 3.72877 -0.513808 0
M  V30 11670 C 1356.08 2.57008 -1.04125 0
M  V30 11671 H 1359.03 1.23007 -1.00274 0
M  V30 11672 H 1359.06 3.80318 -0.117683 0
M  V30 11673 H 1358.57 3.38725 -1.89439 0
M  V30 11674 H 1356.67 3.68468 0.553368 0
M  V30 11675 H 1356.78 4.67455 -1.0499 0
M  V30 11676 H 1355.15 2.5045 -0.463337 0
M  V30 11677 H 1355.93 2.69738 -2.12358 0
M  V30 11678 N 1358.37 0.56548 1.47106 0
M  V30 11679 C 1359.78 0.134289 1.86216 0
M  V30 11680 C 1360.14 -1.29815 1.47114 0
M  V30 11681 O 1359.26 -1.97787 0.878017 0
M  V30 11682 C 1359.86 0.236931 3.37971 0
M  V30 11683 C 1358.41 -0.139275 3.76142 0
M  V30 11684 C 1357.56 0.580743 2.71151 0
M  V30 11685 H 1360.51 0.774723 1.38505 0
M  V30 11686 H 1360.53 -0.542301 3.76616 0
M  V30 11687 H 1360.05 1.27958 3.66399 0
M  V30 11688 H 1358.15 -1.18272 3.53331 0
M  V30 11689 H 1358.26 0.225045 4.78571 0
M  V30 11690 H 1356.62 0.0228963 2.5469 0
M  V30 11691 H 1357.41 1.62471 3.0242 0
M  V30 11692 N 1359.85 -1.54672 0.302354 0
M  V30 11693 C 1361.1 -1.99771 -0.305919 0
M  V30 11694 C 1361.42 -1.19225 -1.54306 0
M  V30 11695 O 1360.69 -0.288569 -1.93763 0
M  V30 11696 H 1359.27 -0.737934 -0.116026 0
M  V30 11697 H 1361.93 -1.90452 0.413997 0
M  V30 11698 H 1361.03 -3.06719 -0.577024 0
M  V30 11699 N 1361.33 -0.0301034 -1.57571 0
M  V30 11700 C 1362.74 0.508591 -1.79639 0
M  V30 11701 C 1363.09 1.72191 -0.940458 0
M  V30 11702 O 1362.22 2.15872 -0.151138 0
M  V30 11703 C 1362.81 0.929446 -3.25802 0
M  V30 11704 C 1361.37 1.41325 -3.48861 0
M  V30 11705 C 1360.52 0.378433 -2.74706 0
M  V30 11706 H 1363.47 -0.256131 -1.56619 0
M  V30 11707 H 1363.49 1.79374 -3.35567 0
M  V30 11708 H 1363 0.0461738 -3.88073 0
M  V30 11709 H 1361.1 2.31641 -2.91844 0
M  V30 11710 H 1361.22 1.41995 -4.57574 0
M  V30 11711 H 1359.58 0.846744 -2.40213 0
M  V30 11712 H 1360.36 -0.49639 -3.39692 0
M  V30 11713 N 1362.81 1.55714 0.243056 0
M  V30 11714 C 1364.03 1.82126 0.992219 0
M  V30 11715 C 1364.46 0.607665 1.78014 0
M  V30 11716 O 1363.82 -0.443351 1.75796 0
M  V30 11717 C 1363.86 3.06314 1.90274 0
M  V30 11718 O 1362.97 2.83499 2.99503 0
M  V30 11719 H 1362.31 0.601082 0.282128 0
M  V30 11720 H 1364.84 2.02904 0.262881 0
M  V30 11721 H 1364.85 3.35849 2.31666 0
M  V30 11722 H 1363.52 3.94282 1.32344 0
M  V30 11723 H 1362.1 2.65141 2.62211 0
M  V30 11724 N 1364.29 -0.50888 1.49158 0
M  V30 11725 C 1365.53 -1.261 1.57934 0
M  V30 11726 C 1365.86 -1.93199 0.264405 0
M  V30 11727 O 1365.13 -1.82359 -0.715684 0
M  V30 11728 H 1363.71 -0.468421 0.581886 0
M  V30 11729 H 1366.37 -0.590447 1.85741 0
M  V30 11730 H 1365.46 -2.02913 2.37135 0
M  V30 11731 N 1365.76 -1.381 -0.759346 0
M  V30 11732 C 1366.71 -1.34866 -1.87296 0
M  V30 11733 C 1367.68 -0.212139 -1.6474 0
M  V30 11734 O 1368.87 -0.403464 -1.86485 0
M  V30 11735 C 1366.01 -1.17383 -3.24523 0
M  V30 11736 C 1365.12 -2.40372 -3.5895 0
M  V30 11737 C 1364.25 -2.15665 -4.8545 0
M  V30 11738 C 1363.29 -3.34455 -5.12646 0
M  V30 11739 N 1362.43 -3.0922 -6.30339 0
M  V30 11740 H 1367.27 -2.30072 -1.89396 0
M  V30 11741 H 1364.81 -1.14314 -0.925788 0
M  V30 11742 H 1366.77 -1.05264 -4.03702 0
M  V30 11743 H 1365.4 -0.258182 -3.21766 0
M  V30 11744 H 1364.45 -2.63185 -2.74659 0
M  V30 11745 H 1365.76 -3.28926 -3.74978 0
M  V30 11746 H 1364.91 -2.00649 -5.7256 0
M  V30 11747 H 1363.65 -1.24467 -4.7155 0
M  V30 11748 H 1362.66 -3.49997 -4.24007 0
M  V30 11749 H 1363.88 -4.26521 -5.28448 0
M  V30 11750 H 1361.83 -2.20664 -6.17773 0
M  V30 11751 H 1361.75 -3.91321 -6.46841 0
M  V30 11752 H 1363.01 -2.97847 -7.20352 0
M  V30 11753 N 1367.24 0.986894 -1.22875 0
M  V30 11754 C 1368.52 1.70121 -0.965311 0
M  V30 11755 C 1368.9 2.04648 0.517924 0
M  V30 11756 O 1368.25 1.73453 1.48749 0
M  V30 11757 C 1368.46 2.94738 -1.86897 0
M  V30 11758 C 1369.81 3.6739 -2.12861 0
M  V30 11759 O 1370.83 3.04758 -1.84394 0
M  V30 11760 O 1369.69 4.8009 -2.61106 0
M  V30 11761 H 1366.78 0.742817 -0.363527 0
M  V30 11762 H 1369.33 1.0427 -1.33887 0
M  V30 11763 H 1368.1 2.65771 -2.87196 0
M  V30 11764 H 1367.72 3.68327 -1.49736 0
M  V30 11765 N 1368.72 1.0394 1.18466 0
M  V30 11766 C 1369.97 0.740576 1.88042 0
M  V30 11767 C 1370.29 -0.733822 1.80666 0
M  V30 11768 O 1369.56 -1.52943 1.22414 0
M  V30 11769 H 1368.14 0.270949 0.696129 0
M  V30 11770 H 1370.8 1.31588 1.43772 0
M  V30 11771 H 1369.9 1.04429 2.94111 0
M  V30 11772 N 1370.2 -1.34667 0.818693 0
M  V30 11773 C 1371.61 -1.80839 0.46414 0
M  V30 11774 C 1371.96 -1.67902 -1.01506 0
M  V30 11775 O 1371.09 -1.21658 -1.78964 0
M  V30 11776 C 1371.68 -3.28331 0.835698 0
M  V30 11777 C 1370.24 -3.72599 0.533575 0
M  V30 11778 C 1369.39 -2.56452 1.05487 0
M  V30 11779 H 1372.34 -1.22474 1.00925 0
M  V30 11780 H 1372.36 -3.8025 0.13785 0
M  V30 11781 H 1371.87 -3.37715 1.91233 0
M  V30 11782 H 1369.97 -3.68756 -0.533819 0
M  V30 11783 H 1370.08 -4.66891 1.07468 0
M  V30 11784 H 1368.45 -2.50201 0.476612 0
M  V30 11785 H 1369.23 -2.68608 2.13786 0
M  V30 11786 N 1371.68 -0.573274 -1.46804 0
M  V30 11787 C 1372.62 0.165358 -2.30207 0
M  V30 11788 C 1373.59 0.89312 -1.40045 0
M  V30 11789 O 1374.78 0.885653 -1.68999 0
M  V30 11790 C 1371.92 1.17915 -3.2433 0
M  V30 11791 C 1371.03 0.455805 -4.29589 0
M  V30 11792 C 1370.17 1.45629 -5.10848 0
M  V30 11793 C 1369.21 0.718822 -6.07865 0
M  V30 11794 N 1368.34 1.66691 -6.82025 0
M  V30 11795 H 1373.18 -0.551947 -2.92844 0
M  V30 11796 H 1370.72 -0.28401 -1.44332 0
M  V30 11797 H 1372.68 1.77969 -3.77337 0
M  V30 11798 H 1371.31 1.86429 -2.63523 0
M  V30 11799 H 1370.36 -0.259584 -3.79513 0
M  V30 11800 H 1371.67 -0.121161 -4.98653 0
M  V30 11801 H 1370.83 2.1299 -5.68084 0
M  V30 11802 H 1369.56 2.06718 -4.41723 0
M  V30 11803 H 1368.57 0.0313773 -5.49791 0
M  V30 11804 H 1369.79 0.113452 -6.79005 0
M  V30 11805 H 1367.74 2.26608 -6.15617 0
M  V30 11806 H 1367.66 1.14251 -7.47317 0
M  V30 11807 H 1368.93 2.33117 -7.43826 0
M  V30 11808 N 1373.15 1.5451 -0.310553 0
M  V30 11809 C 1374.4 1.99931 0.29532 0
M  V30 11810 C 1374.72 1.20042 1.53672 0
M  V30 11811 O 1373.99 0.298841 1.93607 0
M  V30 11812 H 1372.57 0.738539 0.112111 0
M  V30 11813 H 1375.24 1.9023 -0.424092 0
M  V30 11814 H 1374.33 3.07021 0.560749 0
M  V30 11815 N 1374.63 0.0384594 1.57553 0
M  V30 11816 C 1375.6 -0.925358 2.0969 0
M  V30 11817 C 1376.6 -1.24811 1.01385 0
M  V30 11818 O 1377.79 -1.1869 1.27508 0
M  V30 11819 C 1374.92 -2.2391 2.57055 0
M  V30 11820 H 1376.11 -0.473633 2.96136 0
M  V30 11821 H 1373.66 -0.209736 1.54886 0
M  V30 11822 H 1374.4 -2.73691 1.73964 0
M  V30 11823 H 1374.18 -2.01793 3.36188 0
M  V30 11824 H 1375.67 -2.92974 2.97583 0
M  V30 11825 N 1376.11 -1.55841 -0.234795 0
M  V30 11826 C 1377.53 -1.48536 -0.583885 0
M  V30 11827 C 1377.73 -0.731018 -1.87772 0
M  V30 11828 O 1376.78 -0.265287 -2.51103 0
M  V30 11829 C 1378.1 -2.93017 -0.675389 0
M  V30 11830 C 1379.64 -3.03459 -0.766906 0
M  V30 11831 C 1380.12 -4.49272 -0.889868 0
M  V30 11832 N 1381.61 -4.5326 -0.95443 0
M  V30 11833 C 1382.35 -5.63346 -1.06905 0
M  V30 11834 N 1381.84 -6.83215 -1.14845 0
M  V30 11835 N 1383.63 -5.51169 -1.10315 0
M  V30 11836 H 1375.79 -2.0332 0.614405 0
M  V30 11837 H 1378.05 -0.923581 0.213779 0
M  V30 11838 H 1377.75 -3.51099 0.205493 0
M  V30 11839 H 1377.63 -3.4418 -1.54337 0
M  V30 11840 H 1380.02 -2.4545 -1.63823 0
M  V30 11841 H 1380.1 -2.55487 0.126472 0
M  V30 11842 H 1379.74 -5.07895 -0.0230489 0
M  V30 11843 H 1379.67 -4.94937 -1.79847 0
M  V30 11844 H 1382.16 -3.6693 -0.903923 0
M  V30 11845 H 1382.47 -7.62863 -1.23532 0
M  V30 11846 H 1380.82 -6.85952 -1.11781 0
M  V30 11847 H 1384.01 -4.56453 -1.03769 0
M  V30 11848 H 1384.18 -6.36998 -1.18903 0
M  V30 11849 N 1377.59 0.500963 -1.49426 0
M  V30 11850 C 1378.84 1.25261 -1.58601 0
M  V30 11851 C 1379.16 1.93056 -0.274647 0
M  V30 11852 O 1378.43 1.82736 0.706003 0
M  V30 11853 H 1377.01 0.465328 -0.584362 0
M  V30 11854 H 1379.67 0.580588 -1.86052 0
M  V30 11855 H 1378.77 2.01652 -2.38208 0
M  V30 11856 N 1379.07 1.38501 0.752011 0
M  V30 11857 C 1380.34 1.25315 1.50185 0
M  V30 11858 C 1380.72 -0.144762 2.10603 0
M  V30 11859 O 1380.07 -1.15441 1.97194 0
M  V30 11860 C 1380.28 2.36451 2.56694 0
M  V30 11861 C 1381.63 2.74952 3.23553 0
M  V30 11862 O 1382.65 2.35774 2.67 0
M  V30 11863 O 1381.51 3.42517 4.25845 0
M  V30 11864 H 1378.61 0.490139 0.666103 0
M  V30 11865 H 1381.15 1.50333 0.787288 0
M  V30 11866 H 1379.93 3.29978 2.10309 0
M  V30 11867 H 1379.55 2.13006 3.35729 0
M  V30 11868 N 1380.55 -0.980364 1.23396 0
M  V30 11869 C 1381.77 -1.76223 1.09363 0
M  V30 11870 C 1382.2 -1.84801 -0.350759 0
M  V30 11871 O 1381.55 -1.30966 -1.2537 0
M  V30 11872 C 1381.6 -3.16728 1.72383 0
M  V30 11873 O 1380.71 -4.00439 0.986002 0
M  V30 11874 H 1380.05 -0.542174 0.383332 0
M  V30 11875 H 1382.58 -1.23066 1.6345 0
M  V30 11876 H 1382.59 -3.67307 1.77623 0
M  V30 11877 H 1381.26 -3.098 2.77483 0
M  V30 11878 H 1379.84 -3.58946 1.01054 0
M  V30 11879 N 1382.02 -1.04567 -1.17913 0
M  V30 11880 C 1383.27 -0.750538 -1.87647 0
M  V30 11881 C 1383.59 0.72423 -1.81052 0
M  V30 11882 O 1382.86 1.52292 -1.23223 0
M  V30 11883 H 1381.44 -0.274636 -0.694683 0
M  V30 11884 H 1384.1 -1.32349 -1.43072 0
M  V30 11885 H 1383.2 -1.05987 -2.93553 0
M  V30 11886 N 1383.5 1.34231 -0.825823 0
M  V30 11887 C 1384.91 1.8059 -0.473724 0
M  V30 11888 C 1385.26 1.68438 1.00614 0
M  V30 11889 O 1384.39 1.22606 1.78317 0
M  V30 11890 C 1384.98 3.27884 -0.853099 0
M  V30 11891 C 1383.54 3.72311 -0.553327 0
M  V30 11892 C 1382.69 2.55889 -1.06845 0
M  V30 11893 H 1385.64 1.21937 -1.01573 0
M  V30 11894 H 1385.66 3.80172 -0.158014 0
M  V30 11895 H 1385.17 3.36696 -1.93021 0
M  V30 11896 H 1383.27 3.69034 0.514256 0
M  V30 11897 H 1383.39 4.66315 -1.09942 0
M  V30 11898 H 1381.75 2.49945 -0.489874 0
M  V30 11899 H 1382.53 2.67471 -2.15207 0
M  V30 11900 N 1384.98 0.581051 1.46498 0
M  V30 11901 C 1386.39 0.154032 1.86064 0
M  V30 11902 C 1386.74 -1.28247 1.48483 0
M  V30 11903 O 1385.87 -1.96845 0.898945 0
M  V30 11904 C 1386.46 0.272764 3.377 0
M  V30 11905 C 1385.02 -0.0993724 3.76269 0
M  V30 11906 C 1384.17 0.60947 2.70519 0
M  V30 11907 H 1387.12 0.78937 1.37676 0
M  V30 11908 H 1387.14 -0.502326 3.7717 0
M  V30 11909 H 1386.65 1.31837 3.65021 0
M  V30 11910 H 1384.75 -1.14517 3.54565 0
M  V30 11911 H 1384.87 0.275791 4.78306 0
M  V30 11912 H 1383.23 0.0499083 2.54651 0
M  V30 11913 H 1384.01 1.65669 3.0068 0
M  V30 11914 N 1386.46 -1.54343 0.318742 0
M  V30 11915 C 1387.71 -2.00084 -0.284713 0
M  V30 11916 C 1388.03 -1.20855 -1.53033 0
M  V30 11917 O 1387.3 -0.309104 -1.93446 0
M  V30 11918 H 1385.88 -0.739123 -0.108193 0
M  V30 11919 H 1388.54 -1.90002 0.434174 0
M  V30 11920 H 1387.63 -3.07314 -0.544459 0
M  V30 11921 N 1387.94 -0.0468143 -1.5753 0
M  V30 11922 C 1389.35 0.309707 -1.56566 0
M  V30 11923 C 1389.55 1.7173 -1.05408 0
M  V30 11924 O 1388.61 2.4235 -0.708723 0
M  V30 11925 C 1389.92 0.142151 -3.00364 0
M  V30 11926 C 1391.47 0.213585 -3.1227 0
M  V30 11927 C 1391.94 0.0746102 -4.57939 0
M  V30 11928 N 1393.43 0.131027 -4.63015 0
M  V30 11929 C 1394.17 0.0475409 -5.7338 0
M  V30 11930 N 1393.67 -0.0880445 -6.92744 0
M  V30 11931 N 1395.46 0.102809 -5.62006 0
M  V30 11932 H 1387.61 -0.967057 -1.89108 0
M  V30 11933 H 1389.87 -0.375018 -0.870669 0
M  V30 11934 H 1389.58 -0.828171 -3.4181 0
M  V30 11935 H 1389.45 0.905006 -3.66182 0
M  V30 11936 H 1391.84 1.17438 -2.70726 0
M  V30 11937 H 1391.92 -0.57995 -2.49139 0
M  V30 11938 H 1391.56 -0.882839 -5.00168 0
M  V30 11939 H 1391.49 0.887235 -5.19072 0
M  V30 11940 H 1393.99 0.235246 -3.77167 0
M  V30 11941 H 1394.3 -0.144574 -7.72665 0
M  V30 11942 H 1392.64 -0.12307 -6.94891 0
M  V30 11943 H 1395.83 0.207259 -4.67641 0
M  V30 11944 H 1396.01 0.0342865 -6.47991 0
M  V30 11945 N 1389.41 1.55964 0.226527 0
M  V30 11946 C 1390.38 1.91184 1.26418 0
M  V30 11947 C 1391.38 0.789982 1.40057 0
M  V30 11948 O 1392.57 1.05778 1.38407 0
M  V30 11949 C 1389.7 2.15826 2.63878 0
M  V30 11950 H 1390.89 2.83986 0.963956 0
M  V30 11951 H 1388.45 1.49169 0.466726 0
M  V30 11952 H 1389.18 1.2556 2.99007 0
M  V30 11953 H 1388.97 2.97549 2.55356 0
M  V30 11954 H 1390.46 2.44188 3.38765 0
M  V30 11955 N 1390.89 -0.493031 1.4969 0
M  V30 11956 C 1392.14 -1.24418 1.59263 0
M  V30 11957 C 1392.46 -1.92908 0.284882 0
M  V30 11958 O 1391.73 -1.83108 -0.696302 0
M  V30 11959 H 1390.31 -0.462223 0.586821 0
M  V30 11960 H 1392.97 -0.570713 1.86357 0
M  V30 11961 H 1392.07 -2.00386 2.39274 0
M  V30 11962 N 1392.37 -1.38898 -0.744656 0
M  V30 11963 C 1393.28 -1.39098 -1.88915 0
M  V30 11964 C 1394.3 -0.286956 -1.71617 0
M  V30 11965 O 1395.47 -0.526852 -1.94387 0
M  V30 11966 C 1392.54 -1.22352 -3.24393 0
M  V30 11967 C 1391.6 -2.4264 -3.54153 0
M  V30 11968 C 1390.83 -2.26683 -4.83167 0
M  V30 11969 O 1391.05 -1.26523 -5.56191 0
M  V30 11970 O 1389.99 -3.15464 -5.12607 0
M  V30 11971 H 1393.81 -2.35551 -1.91701 0
M  V30 11972 H 1391.4 -1.19911 -0.891158 0
M  V30 11973 H 1393.28 -1.15109 -4.05374 0
M  V30 11974 H 1391.96 -0.289886 -3.22399 0
M  V30 11975 H 1390.86 -2.55459 -2.73298 0
M  V30 11976 H 1392.2 -3.34664 -3.60917 0
M  V30 11977 N 1393.85 0.973806 -1.23914 0
M  V30 11978 C 1395.26 1.53057 -1.06913 0
M  V30 11979 C 1395.61 1.92842 0.361423 0
M  V30 11980 O 1394.74 1.76716 1.24901 0
M  V30 11981 C 1395.33 2.78137 -1.93457 0
M  V30 11982 C 1393.89 3.3019 -1.80697 0
M  V30 11983 C 1393.04 2.03137 -1.88761 0
M  V30 11984 H 1395.99 0.792767 -1.37481 0
M  V30 11985 H 1396.01 3.5124 -1.46325 0
M  V30 11986 H 1395.52 2.49149 -2.97568 0
M  V30 11987 H 1393.62 3.64043 -0.793951 0
M  V30 11988 H 1393.73 3.99503 -2.64451 0
M  V30 11989 H 1392.1 2.17572 -1.32418 0
M  V30 11990 H 1392.88 1.76522 -2.9444 0
M  V30 11991 N 1395.33 1.05191 1.17357 0
M  V30 11992 C 1396.57 0.760479 1.87246 0
M  V30 11993 C 1396.9 -0.714618 1.81434 0
M  V30 11994 O 1396.17 -1.51636 1.24029 0
M  V30 11995 H 1394.75 0.278317 0.693216 0
M  V30 11996 H 1397.41 1.33106 1.42369 0
M  V30 11997 H 1396.5 1.07542 2.92987 0
M  V30 11998 N 1396.8 -1.33791 0.83293 0
M  V30 11999 C 1397.73 -2.31853 0.276846 0
M  V30 12000 C 1398.72 -1.58702 -0.612184 0
M  V30 12001 O 1399.9 -1.86629 -0.536975 0
M  V30 12002 C 1397.03 -3.42855 -0.55385 0
M  V30 12003 C 1395.98 -4.27333 0.238884 0
M  V30 12004 C 1395.31 -5.29895 -0.715187 0
M  V30 12005 C 1396.61 -5.01692 1.45265 0
M  V30 12006 H 1398.3 -2.78611 1.09618 0
M  V30 12007 H 1395.85 -1.33949 0.528562 0
M  V30 12008 H 1397.8 -4.10479 -0.953133 0
M  V30 12009 H 1396.53 -2.94771 -1.40634 0
M  V30 12010 H 1395.19 -3.61325 0.619656 0
M  V30 12011 H 1394.83 -4.7807 -1.56391 0
M  V30 12012 H 1394.53 -5.87296 -0.188921 0
M  V30 12013 H 1396.06 -6.00387 -1.11211 0
M  V30 12014 H 1397.47 -5.62117 1.12685 0
M  V30 12015 H 1395.87 -5.68715 1.91528 0
M  V30 12016 H 1396.94 -4.30809 2.22558 0
M  V30 12017 N 1398.28 -0.588812 -1.46187 0
M  V30 12018 C 1399.21 0.178825 -2.28501 0
M  V30 12019 C 1400.23 0.849686 -1.38867 0
M  V30 12020 O 1401.42 0.718224 -1.63413 0
M  V30 12021 C 1398.52 1.27309 -3.14079 0
M  V30 12022 C 1397.69 0.692974 -4.31876 0
M  V30 12023 C 1396.75 1.67572 -4.98805 0
M  V30 12024 O 1395.77 1.20937 -5.56204 0
M  V30 12025 N 1396.98 3.00992 -4.96371 0
M  V30 12026 H 1399.74 -0.527407 -2.95023 0
M  V30 12027 H 1397.3 -0.426998 -1.56168 0
M  V30 12028 H 1399.29 1.92993 -3.55719 0
M  V30 12029 H 1397.86 1.88209 -2.49592 0
M  V30 12030 H 1397.08 -0.141485 -3.93946 0
M  V30 12031 H 1398.37 0.28529 -5.08 0
M  V30 12032 H 1397.77 3.41498 -4.50994 0
M  V30 12033 H 1396.33 3.62149 -5.41933 0
M  V30 12034 N 1399.76 1.54172 -0.326923 0
M  V30 12035 C 1401.01 2.00233 0.274098 0
M  V30 12036 C 1401.33 1.21665 1.5239 0
M  V30 12037 O 1400.6 0.319359 1.93279 0
M  V30 12038 H 1399.18 0.739687 0.104271 0
M  V30 12039 H 1401.84 1.8977 -0.444244 0
M  V30 12040 H 1400.94 3.07599 0.528154 0
M  V30 12041 N 1401.24 0.0551678 1.57503 0
M  V30 12042 C 1402.65 -0.479948 1.80426 0
M  V30 12043 C 1403 -1.70673 0.967733 0
M  V30 12044 O 1402.13 -2.15604 0.185462 0
M  V30 12045 C 1402.72 -0.877496 3.27239 0
M  V30 12046 C 1401.28 -1.35757 3.51066 0
M  V30 12047 C 1400.43 -0.334681 2.75273 0
M  V30 12048 H 1403.38 0.281016 1.56192 0
M  V30 12049 H 1403.4 -1.74013 3.38378 0
M  V30 12050 H 1402.91 0.015571 3.88097 0
M  V30 12051 H 1401.01 -2.26969 2.95492 0
M  V30 12052 H 1401.12 -1.34697 4.59776 0
M  V30 12053 H 1399.49 -0.808421 2.4153 0
M  V30 12054 H 1400.27 0.550369 3.3886 0
M  V30 12055 N 1402.72 -1.56081 -0.218252 0
M  V30 12056 C 1403.68 -1.91851 -1.25402 0
M  V30 12057 C 1404.68 -0.797399 -1.39636 0
M  V30 12058 O 1405.87 -1.06511 -1.37844 0
M  V30 12059 C 1403 -2.17223 -2.6273 0
M  V30 12060 H 1404.19 -2.84493 -0.948882 0
M  V30 12061 H 1401.75 -1.49414 -0.458809 0
M  V30 12062 H 1402.48 -1.27144 -2.98337 0
M  V30 12063 H 1402.27 -2.98899 -2.53775 0
M  V30 12064 H 1403.76 -2.45981 -3.37466 0
M  V30 12065 N 1404.2 0.485086 -1.49949 0
M  V30 12066 C 1405.44 1.23571 -1.5992 0
M  V30 12067 C 1405.76 1.92754 -0.295108 0
M  V30 12068 O 1405.03 1.83474 0.686582 0
M  V30 12069 H 1403.61 0.459104 -0.589264 0
M  V30 12070 H 1406.28 0.560822 -1.86657 0
M  V30 12071 H 1405.37 1.99114 -2.40333 0
M  V30 12072 N 1405.67 1.39291 0.737279 0
M  V30 12073 C 1407.08 1.32489 1.31543 0
M  V30 12074 C 1407.44 -0.0118162 1.96196 0
M  V30 12075 O 1406.56 -0.913938 1.96153 0
M  V30 12076 C 1407.16 2.39946 2.39189 0
M  V30 12077 C 1405.71 2.36671 2.92684 0
M  V30 12078 C 1404.86 2.21953 1.66229 0
M  V30 12079 H 1407.81 1.49412 0.534954 0
M  V30 12080 H 1407.83 2.06603 3.19524 0
M  V30 12081 H 1407.35 3.3722 1.92104 0
M  V30 12082 H 1405.45 1.43028 3.44055 0
M  V30 12083 H 1405.56 3.31441 3.45953 0
M  V30 12084 H 1403.92 1.69087 1.90478 0
M  V30 12085 H 1404.71 3.21194 1.21199 0
M  V30 12086 N 1407.15 -0.967221 1.24429 0
M  V30 12087 C 1408.56 -1.52488 1.07723 0
M  V30 12088 C 1408.91 -1.93031 -0.351191 0
M  V30 12089 O 1408.04 -1.77376 -1.23963 0
M  V30 12090 C 1408.63 -2.77107 1.94929 0
M  V30 12091 C 1407.19 -3.29227 1.82446 0
M  V30 12092 C 1406.34 -2.02133 1.89835 0
M  V30 12093 H 1409.29 -0.785465 1.37899 0
M  V30 12094 H 1409.31 -3.50459 1.48186 0
M  V30 12095 H 1408.82 -2.47567 2.98885 0
M  V30 12096 H 1406.92 -3.63617 0.813246 0
M  V30 12097 H 1407.04 -3.98095 2.66566 0
M  V30 12098 H 1405.4 -2.16867 1.3357 0
M  V30 12099 H 1406.18 -1.74958 2.95372 0
M  V30 12100 N 1408.63 -1.05812 -1.16797 0
M  V30 12101 C 1409.88 -0.770398 -1.8684 0
M  V30 12102 C 1410.2 0.704986 -1.8181 0
M  V30 12103 O 1409.47 1.50977 -1.24832 0
M  V30 12104 H 1408.05 -0.281989 -0.691731 0
M  V30 12105 H 1410.71 -1.33859 -1.41661 0
M  V30 12106 H 1409.81 -1.09094 -2.92412 0
M  V30 12107 N 1410.11 1.33347 -0.840014 0
M  V30 12108 C 1411.02 2.32965 -0.276527 0
M  V30 12109 C 1412.03 1.634 0.598037 0
M  V30 12110 O 1413.21 1.95046 0.501888 0
M  V30 12111 C 1410.27 3.42498 0.53816 0
M  V30 12112 C 1409.34 4.27781 -0.360814 0
M  V30 12113 C 1408.57 5.32083 0.415085 0
M  V30 12114 O 1408.79 5.46115 1.64666 0
M  V30 12115 O 1407.73 6.01528 -0.211503 0
M  V30 12116 H 1411.55 2.83022 -1.10147 0
M  V30 12117 H 1409.14 1.3671 -0.602566 0
M  V30 12118 H 1411.02 4.09336 1.00108 0
M  V30 12119 H 1409.69 2.94655 1.34015 0
M  V30 12120 H 1408.6 3.63805 -0.871598 0
M  V30 12121 H 1409.93 4.7911 -1.1276 0
M  V30 12122 N 1411.59 0.596556 1.45873 0
M  V30 12123 C 1412.53 -0.128713 2.30441 0
M  V30 12124 C 1413.5 -0.870727 1.41448 0
M  V30 12125 O 1414.69 -0.858654 1.70387 0
M  V30 12126 C 1411.83 -1.1274 3.26165 0
M  V30 12127 C 1410.94 -0.387403 4.30259 0
M  V30 12128 C 1410.08 -1.37484 5.131 0
M  V30 12129 C 1409.11 -0.622025 6.08931 0
M  V30 12130 N 1408.25 -1.5582 6.84591 0
M  V30 12131 H 1413.09 0.598466 2.91929 0
M  V30 12132 H 1410.63 0.306936 1.43862 0
M  V30 12133 H 1412.59 -1.71943 3.8012 0
M  V30 12134 H 1411.22 -1.82213 2.66455 0
M  V30 12135 H 1410.27 0.319929 3.79052 0
M  V30 12136 H 1411.58 0.200477 4.98397 0
M  V30 12137 H 1410.73 -2.03926 5.71401 0
M  V30 12138 H 1409.47 -1.99665 4.44955 0
M  V30 12139 H 1408.48 0.0560936 5.49771 0
M  V30 12140 H 1409.7 -0.00541426 6.791 0
M  V30 12141 H 1407.65 -2.16786 6.19145 0
M  V30 12142 H 1407.57 -1.02347 7.4904 0
M  V30 12143 H 1408.83 -2.21254 7.4744 0
M  V30 12144 N 1413.06 -1.53996 0.335095 0
M  V30 12145 C 1414.31 -2.00375 -0.263475 0
M  V30 12146 C 1414.63 -1.22471 -1.51742 0
M  V30 12147 O 1413.9 -0.329604 -1.93107 0
M  V30 12148 H 1412.48 -0.740229 -0.100347 0
M  V30 12149 H 1415.14 -1.89531 0.454302 0
M  V30 12150 H 1414.24 -3.07874 -0.511834 0
M  V30 12151 N 1414.54 -0.0635198 -1.57472 0
M  V30 12152 C 1415.45 0.921531 -2.15743 0
M  V30 12153 C 1416.47 1.33294 -1.11842 0
M  V30 12154 O 1417.64 1.40733 -1.4407 0
M  V30 12155 C 1414.71 2.17378 -2.70088 0
M  V30 12156 C 1413.77 1.81956 -3.88832 0
M  V30 12157 C 1413 3.01211 -4.40577 0
M  V30 12158 O 1413.23 4.14971 -3.9135 0
M  V30 12159 O 1412.16 2.81507 -5.32012 0
M  V30 12160 H 1415.99 0.455899 -3.00259 0
M  V30 12161 H 1413.57 0.159085 -1.48551 0
M  V30 12162 H 1415.45 2.90826 -3.04956 0
M  V30 12163 H 1414.13 2.63055 -1.88637 0
M  V30 12164 H 1413.03 1.05786 -3.58832 0
M  V30 12165 H 1414.37 1.41069 -4.71551 0
M  V30 12166 N 1416.02 1.56195 0.209972 0
M  V30 12167 C 1417.43 1.69811 0.775969 0
M  V30 12168 C 1417.78 0.667543 1.84495 0
M  V30 12169 O 1416.91 -0.179043 2.15658 0
M  V30 12170 C 1417.5 3.07869 1.41429 0
M  V30 12171 C 1416.06 3.233 1.92755 0
M  V30 12172 C 1415.21 2.6575 0.791958 0
M  V30 12173 H 1418.16 1.58693 -0.0148727 0
M  V30 12174 H 1418.18 3.04371 2.28339 0
M  V30 12175 H 1417.69 3.82853 0.63604 0
M  V30 12176 H 1415.79 2.53206 2.73345 0
M  V30 12177 H 1415.91 4.30645 2.09956 0
M  V30 12178 H 1414.27 2.24535 1.20234 0
M  V30 12179 H 1415.05 3.4329 0.0261877 0
M  V30 12180 N 1417.5 -0.477127 1.50204 0
M  V30 12181 C 1418.75 -1.22722 1.60573 0
M  V30 12182 C 1419.07 -1.92595 0.305326 0
M  V30 12183 O 1418.34 -1.83836 -0.676842 0
M  V30 12184 H 1416.92 -0.455973 0.591691 0
M  V30 12185 H 1419.58 -0.550915 1.86952 0
M  V30 12186 H 1418.67 -1.97837 2.41385 0
M  V30 12187 N 1418.98 -1.3968 -0.729882 0
M  V30 12188 C 1420.25 -1.27689 -1.48172 0
M  V30 12189 C 1420.63 0.111239 -2.10807 0
M  V30 12190 O 1419.98 1.12289 -1.99006 0
M  V30 12191 C 1420.19 -2.40505 -2.529 0
M  V30 12192 C 1421.54 -2.80064 -3.19138 0
M  V30 12193 O 1422.56 -2.39992 -2.63215 0
M  V30 12194 O 1421.42 -3.49248 -4.20342 0
M  V30 12195 H 1418.52 -0.500674 -0.658221 0
M  V30 12196 H 1421.06 -1.51566 -0.763272 0
M  V30 12197 H 1419.83 -3.33282 -2.05033 0
M  V30 12198 H 1419.46 -2.1832 -3.32298 0
M  V30 12199 N 1420.45 0.960609 -1.2494 0
M  V30 12200 C 1421.73 1.68035 -1.00118 0
M  V30 12201 C 1422.11 2.057 0.474399 0
M  V30 12202 O 1421.46 1.76569 1.45036 0
M  V30 12203 C 1421.67 2.90708 -1.93106 0
M  V30 12204 C 1423.02 3.62792 -2.20606 0
M  V30 12205 O 1424.04 3.00778 -1.90816 0
M  V30 12206 O 1422.9 4.74443 -2.71231 0
M  V30 12207 H 1419.99 0.734939 -0.379202 0
M  V30 12208 H 1422.54 1.01407 -1.36069 0
M  V30 12209 H 1421.31 2.59619 -2.92769 0
M  V30 12210 H 1420.94 3.65068 -1.57515 0
M  V30 12211 N 1421.93 1.0643 1.16234 0
M  V30 12212 C 1423.18 0.780296 1.86429 0
M  V30 12213 C 1423.5 -0.695335 1.82181 0
M  V30 12214 O 1422.77 -1.50312 1.2563 0
M  V30 12215 H 1421.35 0.285654 0.690225 0
M  V30 12216 H 1424.01 1.34609 1.40949 0
M  V30 12217 H 1423.11 1.10644 2.91829 0
M  V30 12218 N 1423.41 -1.329 0.847073 0
M  V30 12219 C 1424.82 -1.79813 0.502394 0
M  V30 12220 C 1425.17 -1.70017 -0.979218 0
M  V30 12221 O 1424.3 -1.25427 -1.76344 0
M  V30 12222 C 1424.89 -3.26485 0.905154 0
M  V30 12223 C 1423.45 -3.71383 0.612489 0
M  V30 12224 C 1422.6 -2.54157 1.10903 0
M  V30 12225 H 1425.55 -1.20306 1.035 0
M  V30 12226 H 1425.57 -3.79872 0.218476 0
M  V30 12227 H 1425.08 -3.33583 1.98353 0
M  V30 12228 H 1423.18 -3.69806 -0.45548 0
M  V30 12229 H 1423.3 -4.64507 1.17347 0
M  V30 12230 H 1421.66 -2.49134 0.529576 0
M  V30 12231 H 1422.44 -2.64013 2.19435 0
M  V30 12232 N 1424.89 -0.604284 -1.45555 0
M  V30 12233 C 1426.11 -0.102634 -2.07146 0
M  V30 12234 C 1426.54 1.20239 -1.44652 0
M  V30 12235 O 1425.9 1.73133 -0.538033 0
M  V30 12236 C 1425.94 0.0270231 -3.6059 0
M  V30 12237 O 1425.05 1.0781 -3.98059 0
M  V30 12238 H 1424.39 -0.0725667 -0.660023 0
M  V30 12239 H 1426.92 -0.833355 -1.86859 0
M  V30 12240 H 1426.93 0.226299 -4.07372 0
M  V30 12241 H 1425.6 -0.925896 -4.05463 0
M  V30 12242 H 1424.18 0.855552 -3.62953 0
M  V30 12243 N 1426.37 1.53816 -0.343257 0
M  V30 12244 C 1427.61 2.00512 0.252845 0
M  V30 12245 C 1427.94 1.23274 1.51091 0
M  V30 12246 O 1427.21 0.339841 1.9293 0
M  V30 12247 H 1425.79 0.740751 0.0964202 0
M  V30 12248 H 1428.45 1.89288 -0.464347 0
M  V30 12249 H 1427.54 3.08142 0.495499 0
M  V30 12250 N 1427.84 0.0718701 1.57436 0
M  V30 12251 C 1428.81 -0.880671 2.11605 0
M  V30 12252 C 1429.81 -1.22632 1.0401 0
M  V30 12253 O 1431 -1.15958 1.29997 0
M  V30 12254 C 1428.13 -2.18407 2.61746 0
M  V30 12255 H 1429.32 -0.410712 2.97074 0
M  V30 12256 H 1426.88 -0.176836 1.55296 0
M  V30 12257 H 1427.61 -2.6994 1.79731 0
M  V30 12258 H 1427.4 -1.94616 3.40392 0
M  V30 12259 H 1428.89 -2.86596 3.03731 0
M  V30 12260 N 1429.32 -1.56304 -0.201686 0
M  V30 12261 C 1430.23 -1.97215 -1.27057 0
M  V30 12262 C 1431.25 -0.878834 -1.50175 0
M  V30 12263 O 1432.42 -1.18405 -1.62918 0
M  V30 12264 C 1429.49 -2.29772 -2.59626 0
M  V30 12265 C 1428.55 -3.52776 -2.44637 0
M  V30 12266 C 1427.78 -3.83771 -3.70885 0
M  V30 12267 O 1428.01 -3.16149 -4.7477 0
M  V30 12268 O 1426.94 -4.77216 -3.66808 0
M  V30 12269 H 1430.77 -2.88347 -0.953393 0
M  V30 12270 H 1428.35 -1.43773 -0.406158 0
M  V30 12271 H 1430.23 -2.51817 -3.37885 0
M  V30 12272 H 1428.91 -1.41809 -2.90984 0
M  V30 12273 H 1427.82 -3.35986 -1.64512 0
M  V30 12274 H 1429.15 -4.41184 -2.18214 0
M  V30 12275 N 1430.8 0.469154 -1.50455 0
M  V30 12276 C 1432.05 1.21868 -1.61222 0
M  V30 12277 C 1432.37 1.9243 -0.315535 0
M  V30 12278 O 1431.64 1.84192 0.667083 0
M  V30 12279 H 1430.22 0.452828 -0.594101 0
M  V30 12280 H 1432.88 0.540993 -1.87241 0
M  V30 12281 H 1431.98 1.96554 -2.42431 0
M  V30 12282 N 1432.28 1.40065 0.722464 0
M  V30 12283 C 1433.69 1.33876 1.30131 0
M  V30 12284 C 1434.04 0.00899369 1.96198 0
M  V30 12285 O 1433.17 -0.893082 1.97112 0
M  V30 12286 C 1433.76 2.42469 2.36631 0
M  V30 12287 C 1432.32 2.39762 2.90157 0
M  V30 12288 C 1431.47 2.23704 1.63865 0
M  V30 12289 H 1434.42 1.49971 0.519077 0
M  V30 12290 H 1434.44 2.0998 3.17315 0
M  V30 12291 H 1433.95 3.39239 1.88517 0
M  V30 12292 H 1432.05 1.46669 3.42519 0
M  V30 12293 H 1432.16 3.35092 3.42419 0
M  V30 12294 H 1430.53 1.71098 1.88674 0
M  V30 12295 H 1431.31 3.22462 1.17785 0
M  V30 12296 N 1433.76 -0.95397 1.25448 0
M  V30 12297 C 1435.17 -1.51337 1.09335 0
M  V30 12298 C 1435.52 -1.93393 -0.330698 0
M  V30 12299 O 1434.64 -1.78681 -1.22074 0
M  V30 12300 C 1435.24 -2.75024 1.97857 0
M  V30 12301 C 1433.8 -3.27274 1.85927 0
M  V30 12302 C 1432.95 -2.00108 1.91969 0
M  V30 12303 H 1435.9 -0.770795 1.38724 0
M  V30 12304 H 1435.92 -3.48867 1.51894 0
M  V30 12305 H 1435.43 -2.44383 3.01494 0
M  V30 12306 H 1433.53 -3.62734 0.851767 0
M  V30 12307 H 1433.64 -3.95245 2.70773 0
M  V30 12308 H 1432.01 -2.15438 1.35862 0
M  V30 12309 H 1432.79 -1.71816 2.97211 0
M  V30 12310 N 1435.24 -1.07045 -1.15668 0
M  V30 12311 C 1436.48 -0.790172 -1.86013 0
M  V30 12312 C 1436.8 0.685663 -1.82548 0
M  V30 12313 O 1436.07 1.49644 -1.26426 0
M  V30 12314 H 1434.65 -0.28931 -0.688701 0
M  V30 12315 H 1437.32 -1.35354 -1.40233 0
M  V30 12316 H 1436.41 -1.1219 -2.91239 0
M  V30 12317 N 1436.71 1.32449 -0.85411 0
M  V30 12318 C 1438.12 1.79545 -0.511923 0
M  V30 12319 C 1438.48 1.70534 0.970188 0
M  V30 12320 O 1437.6 1.2636 1.75676 0
M  V30 12321 C 1438.2 3.26 -0.922456 0
M  V30 12322 C 1436.75 3.71053 -0.632176 0
M  V30 12323 C 1435.9 2.53565 -1.12249 0
M  V30 12324 H 1438.85 1.19755 -1.04137 0
M  V30 12325 H 1438.87 3.79751 -0.238618 0
M  V30 12326 H 1438.39 3.32526 -2.00119 0
M  V30 12327 H 1436.49 3.70042 0.435862 0
M  V30 12328 H 1436.6 4.63878 -1.19809 0
M  V30 12329 H 1434.96 2.48849 -0.542781 0
M  V30 12330 H 1435.75 2.62846 -2.20832 0
M  V30 12331 N 1438.19 0.611994 1.45232 0
M  V30 12332 C 1439.12 -0.142449 2.28757 0
M  V30 12333 C 1440.14 -0.827486 1.40202 0
M  V30 12334 O 1441.33 -0.692136 1.64535 0
M  V30 12335 C 1438.43 -1.22296 3.16065 0
M  V30 12336 C 1437.6 -0.624178 4.32924 0
M  V30 12337 C 1436.66 -1.59615 5.01408 0
M  V30 12338 O 1435.68 -1.12073 5.58058 0
M  V30 12339 N 1436.89 -2.93057 5.01097 0
M  V30 12340 H 1439.65 0.574276 2.94147 0
M  V30 12341 H 1437.21 0.451789 1.55469 0
M  V30 12342 H 1439.2 -1.87309 3.58744 0
M  V30 12343 H 1437.77 -1.84215 2.52554 0
M  V30 12344 H 1436.99 0.204141 3.93671 0
M  V30 12345 H 1438.28 -0.204435 5.08389 0
M  V30 12346 H 1437.68 -3.3428 4.5637 0
M  V30 12347 H 1436.24 -3.53481 5.47626 0
M  V30 12348 N 1439.67 -1.53632 0.351409 0
M  V30 12349 C 1440.92 -2.00643 -0.242208 0
M  V30 12350 C 1441.24 -1.24074 -1.50435 0
M  V30 12351 O 1440.51 -0.350067 -1.92747 0
M  V30 12352 H 1439.09 -0.741252 -0.0924904 0
M  V30 12353 H 1441.75 -1.89039 0.474379 0
M  V30 12354 H 1440.85 -3.084 -0.479151 0
M  V30 12355 N 1441.15 -0.0802183 -1.57396 0
M  V30 12356 C 1442.08 0.881426 -2.16225 0
M  V30 12357 C 1443.06 1.30459 -1.09154 0
M  V30 12358 O 1444.24 1.37413 -1.37227 0
M  V30 12359 C 1441.37 2.14599 -2.73065 0
M  V30 12360 C 1440.33 1.86195 -3.85377 0
M  V30 12361 C 1439.65 3.19354 -4.28856 0
M  V30 12362 C 1440.95 1.16059 -5.09242 0
M  V30 12363 H 1442.65 0.391325 -2.96832 0
M  V30 12364 H 1440.19 0.186785 -1.42783 0
M  V30 12365 H 1442.15 2.82297 -3.12868 0
M  V30 12366 H 1440.87 2.65866 -1.89691 0
M  V30 12367 H 1439.53 1.209 -3.46091 0
M  V30 12368 H 1439.18 3.68479 -3.42392 0
M  V30 12369 H 1438.88 3.01137 -5.04569 0
M  V30 12370 H 1440.4 3.88235 -4.71281 0
M  V30 12371 H 1441.82 1.7384 -5.46308 0
M  V30 12372 H 1440.21 1.08072 -5.90288 0
M  V30 12373 H 1441.28 0.14098 -4.84695 0
M  V30 12374 N 1442.63 1.56409 0.193394 0
M  V30 12375 C 1443.59 1.93822 1.22334 0
M  V30 12376 C 1444.59 0.819513 1.3835 0
M  V30 12377 O 1445.78 1.0869 1.36132 0
M  V30 12378 C 1442.91 2.21375 2.59241 0
M  V30 12379 H 1444.1 2.85967 0.903502 0
M  V30 12380 H 1441.66 1.50125 0.43498 0
M  V30 12381 H 1442.39 1.31874 2.96277 0
M  V30 12382 H 1442.18 3.02899 2.48988 0
M  V30 12383 H 1443.67 2.51319 3.33509 0
M  V30 12384 N 1444.1 -0.461169 1.50702 0
M  V30 12385 C 1445.35 -1.21012 1.61866 0
M  V30 12386 C 1445.67 -1.9226 0.325736 0
M  V30 12387 O 1444.94 -1.84543 -0.657306 0
M  V30 12388 H 1443.52 -0.449671 0.596494 0
M  V30 12389 H 1446.18 -0.531056 1.87525 0
M  V30 12390 H 1445.28 -1.95266 2.4347 0
M  V30 12391 N 1445.58 -1.40446 -0.715026 0
M  V30 12392 C 1446.51 -1.36673 -1.83993 0
M  V30 12393 C 1447.53 -0.272038 -1.60511 0
M  V30 12394 O 1448.72 -0.532425 -1.70375 0
M  V30 12395 C 1445.82 -1.10423 -3.20406 0
M  V30 12396 C 1444.99 -2.31557 -3.71079 0
M  V30 12397 C 1444.05 -2.01459 -4.86108 0
M  V30 12398 O 1443.07 -2.7433 -4.9873 0
M  V30 12399 N 1444.28 -0.992899 -5.71946 0
M  V30 12400 H 1447.04 -2.3362 -1.87728 0
M  V30 12401 H 1444.6 -1.34807 -0.896586 0
M  V30 12402 H 1446.59 -0.88273 -3.94956 0
M  V30 12403 H 1445.16 -0.221408 -3.11815 0
M  V30 12404 H 1444.38 -2.69534 -2.87655 0
M  V30 12405 H 1445.67 -3.1231 -4.01671 0
M  V30 12406 H 1445.07 -0.389387 -5.64358 0
M  V30 12407 H 1443.63 -0.831299 -6.46477 0
M  V30 12408 N 1447.06 0.947303 -1.25952 0
M  V30 12409 C 1448.48 1.21972 -1.02932 0
M  V30 12410 C 1448.68 1.99951 0.249333 0
M  V30 12411 O 1447.73 2.33534 0.960108 0
M  V30 12412 C 1449.04 1.98695 -2.257 0
M  V30 12413 C 1450.59 2.11711 -2.30538 0
M  V30 12414 C 1451.07 2.91835 -3.52982 0
M  V30 12415 N 1452.56 2.99411 -3.53422 0
M  V30 12416 C 1453.29 3.6182 -4.4483 0
M  V30 12417 N 1452.79 4.25781 -5.46519 0
M  V30 12418 N 1454.58 3.59033 -4.32495 0
M  V30 12419 H 1446.73 0.42583 -2.08088 0
M  V30 12420 H 1449 0.250899 -0.914196 0
M  V30 12421 H 1448.7 1.48801 -3.18671 0
M  V30 12422 H 1448.58 2.9938 -2.29459 0
M  V30 12423 H 1450.96 2.608 -1.38085 0
M  V30 12424 H 1451.04 1.10308 -2.30794 0
M  V30 12425 H 1450.69 2.43435 -4.4576 0
M  V30 12426 H 1450.62 3.9348 -3.49973 0
M  V30 12427 H 1453.11 2.53934 -2.79868 0
M  V30 12428 H 1453.42 4.71281 -6.12466 0
M  V30 12429 H 1451.77 4.24386 -5.50383 0
M  V30 12430 H 1454.96 3.08254 -3.52274 0
M  V30 12431 H 1455.13 4.07384 -5.03927 0
M  V30 12432 N 1448.54 1.07657 1.15099 0
M  V30 12433 C 1449.79 0.800025 1.85591 0
M  V30 12434 C 1450.11 -0.675973 1.82909 0
M  V30 12435 O 1449.38 -1.48971 1.27218 0
M  V30 12436 H 1447.96 0.292958 0.687157 0
M  V30 12437 H 1450.62 1.36096 1.39513 0
M  V30 12438 H 1449.72 1.13733 2.90639 0
M  V30 12439 N 1450.02 -1.31994 0.861122 0
M  V30 12440 C 1451.27 -1.96294 0.463868 0
M  V30 12441 C 1451.58 -1.68869 -0.98704 0
M  V30 12442 O 1452.78 -2.26959 -1.49003 0
M  V30 12443 C 1451.24 -3.51377 0.77858 0
M  V30 12444 C 1450.85 -3.87653 2.24565 0
M  V30 12445 C 1452.59 -4.22115 0.449365 0
M  V30 12446 C 1450.5 -5.35809 2.50324 0
M  V30 12447 H 1449.43 -0.734647 0.169733 0
M  V30 12448 H 1452.08 -1.50294 1.0528 0
M  V30 12449 H 1450.46 -3.95821 0.119005 0
M  V30 12450 H 1451.64 -3.54197 2.94755 0
M  V30 12451 H 1449.95 -3.29957 2.54003 0
M  V30 12452 H 1452.55 -5.31103 0.61916 0
M  V30 12453 H 1452.89 -4.11814 -0.609528 0
M  V30 12454 H 1453.42 -3.83276 1.06511 0
M  V30 12455 H 1450.16 -5.51138 3.54863 0
M  V30 12456 H 1449.68 -5.70648 1.84719 0
M  V30 12457 H 1451.36 -6.02968 2.34602 0
M  V30 12458 N 1451.49 -0.619688 -1.44906 0
M  V30 12459 C 1452.74 -0.11981 -2.02446 0
M  V30 12460 C 1453.07 1.2509 -1.48546 0
M  V30 12461 O 1452.35 1.82781 -0.664942 0
M  V30 12462 C 1452.63 -0.0940205 -3.59977 0
M  V30 12463 C 1452.48 -1.49626 -4.24184 0
M  V30 12464 C 1453.8 0.58748 -4.36161 0
M  V30 12465 H 1450.92 -0.0450119 -0.735624 0
M  V30 12466 H 1453.56 -0.793975 -1.72615 0
M  V30 12467 H 1451.71 0.480073 -3.85522 0
M  V30 12468 H 1453.39 -2.11836 -4.09784 0
M  V30 12469 H 1451.63 -2.05348 -3.82119 0
M  V30 12470 H 1452.3 -1.43035 -5.33146 0
M  V30 12471 H 1454.78 0.0993863 -4.15981 0
M  V30 12472 H 1453.65 0.574672 -5.45883 0
M  V30 12473 H 1453.91 1.65579 -4.09922 0
M  V30 12474 N 1452.97 1.53444 -0.359552 0
M  V30 12475 C 1454.22 2.00769 0.231564 0
M  V30 12476 C 1454.54 1.2487 1.49775 0
M  V30 12477 O 1453.81 0.360284 1.92558 0
M  V30 12478 H 1452.39 0.741732 0.0885581 0
M  V30 12479 H 1455.05 1.88785 -0.484397 0
M  V30 12480 H 1454.15 3.0865 0.462789 0
M  V30 12481 N 1454.45 0.0885642 1.57351 0
M  V30 12482 C 1455.38 -0.869946 2.16689 0
M  V30 12483 C 1456.36 -1.29878 1.09844 0
M  V30 12484 O 1457.55 -1.36684 1.37954 0
M  V30 12485 C 1454.68 -2.13148 2.74199 0
M  V30 12486 C 1453.63 -1.84149 3.86359 0
M  V30 12487 C 1452.96 -3.17075 4.30543 0
M  V30 12488 C 1454.26 -1.13357 5.09851 0
M  V30 12489 H 1455.95 -0.375578 2.97035 0
M  V30 12490 H 1453.5 -0.17921 1.42881 0
M  V30 12491 H 1455.45 -2.80634 3.14361 0
M  V30 12492 H 1454.17 -2.64856 1.91098 0
M  V30 12493 H 1452.83 -1.19063 3.46727 0
M  V30 12494 H 1452.48 -3.66658 3.44342 0
M  V30 12495 H 1452.18 -2.98457 5.06159 0
M  V30 12496 H 1453.7 -3.85731 4.73333 0
M  V30 12497 H 1455.12 -1.70941 5.47222 0
M  V30 12498 H 1453.52 -1.0494 5.90853 0
M  V30 12499 H 1454.59 -0.115273 4.84763 0
M  V30 12500 N 1455.93 -1.56509 -0.185096 0
M  V30 12501 C 1457.34 -1.71024 -0.748856 0
M  V30 12502 C 1457.69 -0.69681 -1.83409 0
M  V30 12503 O 1456.82 0.144711 -2.15916 0
M  V30 12504 C 1457.41 -3.1008 -1.36513 0
M  V30 12505 C 1455.97 -3.26325 -1.87587 0
M  V30 12506 C 1455.12 -2.66977 -0.749579 0
M  V30 12507 H 1458.07 -1.58649 0.0401175 0
M  V30 12508 H 1458.09 -3.07965 -2.23468 0
M  V30 12509 H 1457.6 -3.83816 -0.575051 0
M  V30 12510 H 1455.7 -2.57522 -2.69283 0
M  V30 12511 H 1455.81 -4.33931 -2.03078 0
M  V30 12512 H 1454.18 -2.26419 -1.16647 0
M  V30 12513 H 1454.96 -3.43288 0.0284301 0
M  V30 12514 N 1457.41 0.45317 -1.50944 0
M  V30 12515 C 1458.65 1.20151 -1.62506 0
M  V30 12516 C 1458.98 1.92085 -0.335927 0
M  V30 12517 O 1458.25 1.84889 0.64751 0
M  V30 12518 H 1456.83 0.446502 -0.59887 0
M  V30 12519 H 1459.49 0.521103 -1.87804 0
M  V30 12520 H 1458.58 1.93972 -2.44502 0
M  V30 12521 N 1458.88 1.40823 0.707568 0
M  V30 12522 C 1459.82 1.37646 1.83265 0
M  V30 12523 C 1460.83 0.280547 1.60365 0
M  V30 12524 O 1462.02 0.541453 1.7009 0
M  V30 12525 C 1459.12 1.12121 3.19816 0
M  V30 12526 C 1458.29 2.33522 3.69846 0
M  V30 12527 C 1457.35 2.04035 4.85032 0
M  V30 12528 O 1456.38 2.76971 4.97268 0
M  V30 12529 N 1457.58 1.02322 5.71411 0
M  V30 12530 H 1460.34 2.34612 1.86486 0
M  V30 12531 H 1457.9 1.35281 0.889424 0
M  V30 12532 H 1459.9 0.903663 3.94482 0
M  V30 12533 H 1458.47 0.237941 3.11693 0
M  V30 12534 H 1457.69 2.71055 2.86221 0
M  V30 12535 H 1458.97 3.14436 4.00009 0
M  V30 12536 H 1458.37 0.419311 5.64144 0
M  V30 12537 H 1456.93 0.865571 6.46027 0
M  V30 12538 N 1460.36 -0.94061 1.26453 0
M  V30 12539 C 1461.78 -1.21424 1.03578 0
M  V30 12540 C 1461.98 -2.00081 -0.238726 0
M  V30 12541 O 1461.03 -2.3404 -0.947709 0
M  V30 12542 C 1462.35 -1.97496 2.26751 0
M  V30 12543 C 1463.9 -2.10485 2.31657 0
M  V30 12544 C 1464.37 -2.89959 3.54525 0
M  V30 12545 N 1465.86 -2.97533 3.55005 0
M  V30 12546 C 1466.6 -3.59456 4.46742 0
M  V30 12547 N 1466.09 -4.22876 5.48769 0
M  V30 12548 N 1467.89 -3.56734 4.34393 0
M  V30 12549 H 1460.04 -0.414788 2.08311 0
M  V30 12550 H 1462.3 -0.246047 0.915513 0
M  V30 12551 H 1462.01 -1.47109 3.19456 0
M  V30 12552 H 1461.88 -2.98159 2.31043 0
M  V30 12553 H 1464.27 -2.60064 1.39466 0
M  V30 12554 H 1464.35 -1.09082 2.31376 0
M  V30 12555 H 1463.99 -2.41067 4.47045 0
M  V30 12556 H 1463.92 -3.91619 3.52054 0
M  V30 12557 H 1466.41 -2.52446 2.81211 0
M  V30 12558 H 1466.73 -4.68026 6.14956 0
M  V30 12559 H 1465.07 -4.21461 5.52626 0
M  V30 12560 H 1468.26 -3.06381 3.53904 0
M  V30 12561 H 1468.43 -4.04706 5.0608 0
M  V30 12562 N 1461.84 -1.08266 -1.14527 0
M  V30 12563 C 1463.09 -0.809856 -1.85164 0
M  V30 12564 C 1463.41 0.666263 -1.83265 0
M  V30 12565 O 1462.68 1.48295 -1.28006 0
M  V30 12566 H 1461.26 -0.296598 -0.685594 0
M  V30 12567 H 1463.92 -1.36834 -1.38789 0
M  V30 12568 H 1463.02 -1.15272 -2.90032 0
M  V30 12569 N 1463.32 1.31536 -0.86811 0
M  V30 12570 C 1464.23 2.32326 -0.32588 0
M  V30 12571 C 1465.25 1.64632 0.563243 0
M  V30 12572 O 1466.42 1.96067 0.460403 0
M  V30 12573 C 1463.49 3.43562 0.46539 0
M  V30 12574 C 1462.55 4.26919 -0.451472 0
M  V30 12575 C 1461.78 5.32844 0.302129 0
M  V30 12576 O 1462 5.49485 1.53045 0
M  V30 12577 O 1460.94 6.00944 -0.339048 0
M  V30 12578 H 1464.76 2.80622 -1.16126 0
M  V30 12579 H 1462.35 1.35401 -0.631428 0
M  V30 12580 H 1464.23 4.11368 0.914028 0
M  V30 12581 H 1462.91 2.97432 1.27734 0
M  V30 12582 H 1461.81 3.61874 -0.948571 0
M  V30 12583 H 1463.15 4.7661 -1.22897 0
M  V30 12584 N 1464.8 0.627364 1.44575 0
M  V30 12585 C 1466.21 0.292662 1.56894 0
M  V30 12586 C 1466.41 -1.20429 1.61552 0
M  V30 12587 O 1465.47 -1.98819 1.55651 0
M  V30 12588 C 1466.78 0.981267 2.84239 0
M  V30 12589 C 1468.33 0.959053 2.97945 0
M  V30 12590 C 1468.81 1.62805 4.28087 0
M  V30 12591 N 1470.3 1.59446 4.34892 0
M  V30 12592 C 1471.03 2.08107 5.34302 0
M  V30 12593 N 1470.53 2.64942 6.40139 0
M  V30 12594 N 1472.32 1.98758 5.25787 0
M  V30 12595 H 1464.47 1.5991 1.39795 0
M  V30 12596 H 1466.73 0.671019 0.669655 0
M  V30 12597 H 1466.44 2.0361 2.86768 0
M  V30 12598 H 1466.31 0.516703 3.73644 0
M  V30 12599 H 1468.7 -0.0872902 2.94971 0
M  V30 12600 H 1468.78 1.46207 2.09898 0
M  V30 12601 H 1468.43 2.67382 4.31821 0
M  V30 12602 H 1468.36 1.09989 5.14985 0
M  V30 12603 H 1470.85 1.17947 3.59022 0
M  V30 12604 H 1471.16 2.99814 7.12272 0
M  V30 12605 H 1469.51 2.68991 6.40835 0
M  V30 12606 H 1472.7 1.54081 4.42014 0
M  V30 12607 H 1472.87 2.36992 6.03107 0
M  V30 12608 N 1466.28 -1.53251 0.367684 0
M  V30 12609 C 1467.52 -2.00889 -0.220914 0
M  V30 12610 C 1467.84 -1.25662 -1.4911 0
M  V30 12611 O 1467.11 -0.370491 -1.92365 0
M  V30 12612 H 1465.69 -0.742191 -0.0846233 0
M  V30 12613 H 1468.36 -1.88525 0.494402 0
M  V30 12614 H 1467.45 -3.08891 -0.446414 0
M  V30 12615 N 1467.75 -0.0969077 -1.57302 0
M  V30 12616 C 1469 0.566373 -1.94418 0
M  V30 12617 C 1469.33 1.68078 -0.978769 0
M  V30 12618 O 1468.58 1.957 0.0013214 0
M  V30 12619 C 1468.88 1.15972 -3.38061 0
M  V30 12620 C 1468.55 0.16892 -4.50583 0
M  V30 12621 C 1467.21 -0.103587 -4.81088 0
M  V30 12622 C 1469.56 -0.507513 -5.18723 0
M  V30 12623 C 1466.89 -1.05919 -5.7706 0
M  V30 12624 C 1469.24 -1.4516 -6.1572 0
M  V30 12625 C 1467.91 -1.73232 -6.44629 0
M  V30 12626 H 1467.18 0.207251 -0.711427 0
M  V30 12627 H 1469.82 -0.173125 -1.90716 0
M  V30 12628 H 1468.13 1.97551 -3.3835 0
M  V30 12629 H 1469.83 1.68066 -3.64081 0
M  V30 12630 H 1466.42 0.391501 -4.26808 0
M  V30 12631 H 1470.6 -0.310127 -4.9533 0
M  V30 12632 H 1465.86 -1.28366 -5.97773 0
M  V30 12633 H 1470.03 -1.98155 -6.67613 0
M  V30 12634 H 1467.66 -2.47436 -7.18804 0
M  V30 12635 N 1469.23 1.56605 0.176793 0
M  V30 12636 C 1470.64 1.71418 0.739775 0
M  V30 12637 C 1470.99 0.706527 1.83037 0
M  V30 12638 O 1470.12 -0.133259 2.15989 0
M  V30 12639 C 1470.71 3.10799 1.34867 0
M  V30 12640 C 1469.27 3.27315 1.85854 0
M  V30 12641 C 1468.42 2.67371 0.73541 0
M  V30 12642 H 1471.37 1.58626 -0.0485305 0
M  V30 12643 H 1471.39 3.09146 2.21831 0
M  V30 12644 H 1470.9 3.84116 0.554688 0
M  V30 12645 H 1469 2.58947 2.67913 0
M  V30 12646 H 1469.12 4.35002 2.00774 0
M  V30 12647 H 1467.48 2.27035 1.15444 0
M  V30 12648 H 1468.26 3.43268 -0.0466351 0
M  V30 12649 N 1470.71 -0.445159 1.51182 0
M  V30 12650 C 1471.96 -1.19288 1.6314 0
M  V30 12651 C 1472.28 -1.91904 0.346109 0
M  V30 12652 O 1471.55 -1.8523 -0.637695 0
M  V30 12653 H 1470.13 -0.443319 0.601229 0
M  V30 12654 H 1472.79 -0.511136 1.88078 0
M  V30 12655 H 1471.89 -1.92672 2.45528 0
M  V30 12656 N 1472.19 -1.41197 -0.700089 0
M  V30 12657 C 1473.12 -1.45456 -1.8266 0
M  V30 12658 C 1474.1 -0.313719 -1.67182 0
M  V30 12659 O 1475.28 -0.524528 -1.86982 0
M  V30 12660 C 1472.41 -1.33161 -3.20758 0
M  V30 12661 C 1471.37 -2.4501 -3.50933 0
M  V30 12662 C 1470.69 -2.17782 -4.88339 0
M  V30 12663 C 1471.99 -3.87352 -3.50365 0
M  V30 12664 H 1473.69 -2.39735 -1.79353 0
M  V30 12665 H 1471.23 -1.1539 -0.861465 0
M  V30 12666 H 1473.19 -1.34754 -3.99274 0
M  V30 12667 H 1471.91 -0.353646 -3.2468 0
M  V30 12668 H 1470.57 -2.42692 -2.74766 0
M  V30 12669 H 1470.22 -1.1834 -4.88881 0
M  V30 12670 H 1469.92 -2.92728 -5.09494 0
M  V30 12671 H 1471.44 -2.21083 -5.6917 0
M  V30 12672 H 1472.86 -3.9141 -4.18893 0
M  V30 12673 H 1471.25 -4.61944 -3.83051 0
M  V30 12674 H 1472.32 -4.15827 -2.4943 0
M  V30 12675 N 1473.67 0.933891 -1.2695 0
M  V30 12676 C 1475.08 1.49578 -1.11728 0
M  V30 12677 C 1475.43 1.93895 0.299889 0
M  V30 12678 O 1474.55 1.806 1.19216 0
M  V30 12679 C 1475.15 2.71841 -2.02208 0
M  V30 12680 C 1473.71 3.24274 -1.9111 0
M  V30 12681 C 1472.85 1.97029 -1.95128 0
M  V30 12682 H 1475.8 0.748628 -1.39933 0
M  V30 12683 H 1475.83 3.46407 -1.57425 0
M  V30 12684 H 1475.34 2.39556 -3.05343 0
M  V30 12685 H 1473.44 3.61333 -0.909367 0
M  V30 12686 H 1473.55 3.90887 -2.77027 0
M  V30 12687 H 1471.92 2.13249 -1.39273 0
M  V30 12688 H 1472.7 1.67066 -2.99907 0
M  V30 12689 N 1475.14 1.08871 1.13951 0
M  V30 12690 C 1476.39 0.819665 1.84732 0
M  V30 12691 C 1476.71 -0.656535 1.83615 0
M  V30 12692 O 1475.98 -1.47614 1.28791 0
M  V30 12693 H 1474.56 0.30023 0.684011 0
M  V30 12694 H 1477.22 1.37568 1.38062 0
M  V30 12695 H 1476.32 1.16809 2.89417 0
M  V30 12696 N 1476.62 -1.31073 0.875073 0
M  V30 12697 C 1478.03 -1.78707 0.540422 0
M  V30 12698 C 1478.38 -1.72056 -0.942935 0
M  V30 12699 O 1477.51 -1.29139 -1.73643 0
M  V30 12700 C 1478.1 -3.24491 0.974203 0
M  V30 12701 C 1476.66 -3.70001 0.691127 0
M  V30 12702 C 1475.81 -2.51748 1.16269 0
M  V30 12703 H 1478.76 -1.18083 1.06029 0
M  V30 12704 H 1478.78 -3.79323 0.299003 0
M  V30 12705 H 1478.29 -3.29301 2.05384 0
M  V30 12706 H 1476.39 -3.70688 -0.376937 0
M  V30 12707 H 1476.51 -4.61913 1.27173 0
M  V30 12708 H 1474.87 -2.47954 0.582302 0
M  V30 12709 H 1475.65 -2.59299 2.24986 0
M  V30 12710 N 1478.1 -0.635022 -1.4424 0
M  V30 12711 C 1479.33 -0.146549 -2.06882 0
M  V30 12712 C 1479.75 1.17143 -1.4717 0
M  V30 12713 O 1479.11 1.71952 -0.574636 0
M  V30 12714 C 1479.16 -0.0494694 -3.60566 0
M  V30 12715 O 1478.26 0.993423 -4.00256 0
M  V30 12716 H 1477.6 -0.0865505 -0.658335 0
M  V30 12717 H 1480.13 -0.872803 -1.85049 0
M  V30 12718 H 1480.14 0.139839 -4.0776 0
M  V30 12719 H 1478.82 -1.01169 -4.03407 0
M  V30 12720 H 1477.39 0.778372 -3.64686 0
M  V30 12721 N 1479.58 1.53054 -0.375806 0
M  V30 12722 C 1480.83 2.01003 0.210257 0
M  V30 12723 C 1481.15 1.26451 1.48442 0
M  V30 12724 O 1480.42 0.380687 1.92166 0
M  V30 12725 H 1479 0.74263 0.0806861 0
M  V30 12726 H 1481.66 1.8826 -0.504393 0
M  V30 12727 H 1480.76 3.09123 0.430027 0
M  V30 12728 N 1481.06 0.105248 1.57248 0
M  V30 12729 C 1481.97 -0.864007 2.1811 0
M  V30 12730 C 1482.98 -1.30282 1.15337 0
M  V30 12731 O 1484.16 -1.36864 1.4775 0
M  V30 12732 C 1481.22 -2.1014 2.75757 0
M  V30 12733 C 1480.28 -1.71583 3.9352 0
M  V30 12734 C 1479.52 -2.89424 4.48408 0
M  V30 12735 O 1479.74 -4.04449 4.02215 0
M  V30 12736 O 1478.67 -2.67303 5.39289 0
M  V30 12737 H 1482.5 -0.376131 3.01362 0
M  V30 12738 H 1480.09 -0.119643 1.4892 0
M  V30 12739 H 1481.97 -2.82638 3.1256 0
M  V30 12740 H 1480.64 -2.57961 1.95545 0
M  V30 12741 H 1479.55 -0.962347 3.6151 0
M  V30 12742 H 1480.88 -1.28517 4.75126 0
M  V30 12743 N 1482.53 -1.56697 -0.168486 0
M  V30 12744 C 1483.95 -1.71808 -0.730674 0
M  V30 12745 C 1484.3 -0.716224 -1.8266 0
M  V30 12746 O 1483.42 0.121803 -2.16057 0
M  V30 12747 C 1484.02 -3.1151 -1.33217 0
M  V30 12748 C 1482.58 -3.28297 -1.84115 0
M  V30 12749 C 1481.72 -2.67757 -0.72122 0
M  V30 12750 H 1484.67 -1.58598 0.0569421 0
M  V30 12751 H 1484.69 -3.10318 -2.20189 0
M  V30 12752 H 1484.21 -3.84404 -0.53431 0
M  V30 12753 H 1482.31 -2.60364 -2.66536 0
M  V30 12754 H 1482.42 -4.3606 -1.98464 0
M  V30 12755 H 1480.78 -2.27644 -1.14239 0
M  V30 12756 H 1481.57 -3.43239 0.0648388 0
M  V30 12757 N 1484.01 0.437135 -1.51416 0
M  V30 12758 C 1485.26 1.18421 -1.63771 0
M  V30 12759 C 1485.58 1.91718 -0.356282 0
M  V30 12760 O 1484.85 1.85566 0.627863 0
M  V30 12761 H 1483.43 0.440125 -0.603572 0
M  V30 12762 H 1486.09 0.501155 -1.88347 0
M  V30 12763 H 1485.19 1.91367 -2.46546 0
M  V30 12764 N 1485.49 1.41566 0.692592 0
M  V30 12765 C 1486.44 1.43648 1.80648 0
M  V30 12766 C 1487.41 0.290497 1.6354 0
M  V30 12767 O 1488.59 0.491979 1.84348 0
M  V30 12768 C 1485.73 1.32733 3.18553 0
M  V30 12769 C 1484.85 2.57224 3.47073 0
M  V30 12770 C 1483.98 2.38581 4.74608 0
M  V30 12771 C 1483.02 3.58534 4.96105 0
M  V30 12772 N 1482.16 3.38942 6.14868 0
M  V30 12773 H 1487 2.38847 1.78203 0
M  V30 12774 H 1484.53 1.186 0.870193 0
M  V30 12775 H 1486.49 1.24405 3.9822 0
M  V30 12776 H 1485.12 0.411407 3.20168 0
M  V30 12777 H 1484.17 2.7599 2.6179 0
M  V30 12778 H 1485.49 3.46443 3.58858 0
M  V30 12779 H 1484.64 2.27738 5.62335 0
M  V30 12780 H 1483.38 1.46824 4.65074 0
M  V30 12781 H 1482.38 3.69828 4.06826 0
M  V30 12782 H 1483.61 4.51248 5.07496 0
M  V30 12783 H 1481.55 2.49887 6.06541 0
M  V30 12784 H 1481.47 4.21737 6.27434 0
M  V30 12785 H 1482.74 3.31877 7.05321 0
M  V30 12786 N 1486.97 -0.927146 1.27443 0
M  V30 12787 C 1487.9 -2.03209 1.06013 0
M  V30 12788 C 1488.91 -1.62792 0.016041 0
M  V30 12789 O 1490.1 -1.76631 0.25766 0
M  V30 12790 C 1487.2 -3.33791 0.586225 0
M  V30 12791 C 1486.38 -4.02897 1.70273 0
M  V30 12792 C 1485.43 -5.11755 1.22447 0
M  V30 12793 O 1484.46 -5.35688 1.92423 0
M  V30 12794 N 1485.66 -5.80444 0.0804162 0
M  V30 12795 H 1488.43 -2.22155 2.01165 0
M  V30 12796 H 1485.99 -1.09757 1.19017 0
M  V30 12797 H 1487.98 -4.03926 0.250161 0
M  V30 12798 H 1486.55 -3.11414 -0.272076 0
M  V30 12799 H 1485.77 -3.26489 2.20905 0
M  V30 12800 H 1487.06 -4.45816 2.45205 0
M  V30 12801 H 1486.46 -5.63454 -0.503635 0
M  V30 12802 H 1485.01 -6.51504 -0.196466 0
M  V30 12803 N 1488.45 -1.09474 -1.13372 0
M  V30 12804 C 1489.69 -0.82945 -1.84295 0
M  V30 12805 C 1490.02 0.646788 -1.83961 0
M  V30 12806 O 1489.29 1.46929 -1.29572 0
M  V30 12807 H 1487.87 -0.303853 -0.682409 0
M  V30 12808 H 1490.53 -1.38298 -1.3733 0
M  V30 12809 H 1489.62 -1.18342 -2.88793 0
M  V30 12810 N 1489.92 1.30607 -0.882012 0
M  V30 12811 C 1490.89 2.26489 -0.351498 0
M  V30 12812 C 1491.89 1.52686 0.504348 0
M  V30 12813 O 1493.08 1.71385 0.311928 0
M  V30 12814 C 1490.21 3.37222 0.499435 0
M  V30 12815 H 1491.4 2.74929 -1.19809 0
M  V30 12816 H 1488.96 1.41746 -0.658616 0
M  V30 12817 H 1489.69 2.94093 1.36673 0
M  V30 12818 H 1489.48 3.91936 -0.11356 0
M  V30 12819 H 1490.97 4.08596 0.862497 0
M  V30 12820 N 1491.4 0.642663 1.43901 0
M  V30 12821 C 1492.81 0.232809 1.85243 0
M  V30 12822 C 1493.16 -1.21834 1.53789 0
M  V30 12823 O 1492.29 -1.92855 0.981625 0
M  V30 12824 C 1492.88 0.415749 3.36239 0
M  V30 12825 C 1491.44 0.0603055 3.76352 0
M  V30 12826 C 1490.59 0.723658 2.67691 0
M  V30 12827 H 1493.54 0.847052 1.34204 0
M  V30 12828 H 1493.56 -0.341903 3.78961 0
M  V30 12829 H 1493.07 1.472 3.59101 0
M  V30 12830 H 1491.18 -0.993761 3.59103 0
M  V30 12831 H 1491.29 0.478408 4.76705 0
M  V30 12832 H 1489.65 0.15787 2.5421 0
M  V30 12833 H 1490.44 1.78273 2.93383 0
M  V30 12834 N 1492.88 -1.52852 0.383918 0
M  V30 12835 C 1494.13 -2.01112 -0.199594 0
M  V30 12836 C 1494.45 -1.27237 -1.47769 0
M  V30 12837 O 1493.72 -0.390873 -1.91961 0
M  V30 12838 H 1492.3 -0.743047 -0.0767466 0
M  V30 12839 H 1494.96 -1.8799 0.51437 0
M  V30 12840 H 1494.06 -3.09347 -0.413627 0
M  V30 12841 N 1494.36 -0.113586 -1.5719 0
M  V30 12842 C 1495.32 0.824258 -2.13866 0
M  V30 12843 C 1496.32 1.19831 -1.07224 0
M  V30 12844 O 1497.51 1.12471 -1.33026 0
M  V30 12845 C 1494.64 2.11391 -2.67445 0
M  V30 12846 H 1495.84 0.331803 -2.98059 0
M  V30 12847 H 1493.39 0.135599 -1.55711 0
M  V30 12848 H 1494.13 2.65079 -1.86824 0
M  V30 12849 H 1493.91 1.85523 -3.45433 0
M  V30 12850 H 1495.4 2.78443 -3.11222 0
M  V30 12851 N 1495.84 1.56784 0.160173 0
M  V30 12852 C 1497.06 1.87129 0.894283 0
M  V30 12853 C 1497.49 0.701172 1.74543 0
M  V30 12854 O 1496.85 -0.349542 1.77899 0
M  V30 12855 C 1496.89 3.15969 1.73769 0
M  V30 12856 O 1496 2.98977 2.84054 0
M  V30 12857 H 1495.34 0.615192 0.249869 0
M  V30 12858 H 1497.87 2.04012 0.154956 0
M  V30 12859 H 1497.88 3.47657 2.13538 0
M  V30 12860 H 1496.55 4.00742 1.11258 0
M  V30 12861 H 1495.13 2.78668 2.47788 0
M  V30 12862 N 1497.32 -0.429099 1.51646 0
M  V30 12863 C 1498.56 -1.17551 1.64396 0
M  V30 12864 C 1498.88 -1.91526 0.366444 0
M  V30 12865 O 1498.15 -1.85896 -0.618013 0
M  V30 12866 H 1496.73 -0.436918 0.605898 0
M  V30 12867 H 1499.4 -0.491159 1.8861 0
M  V30 12868 H 1498.49 -1.90057 2.47557 0
M  V30 12869 N 1498.79 -1.41931 -0.685074 0
M  V30 12870 C 1500.07 -1.32338 -1.44035 0
M  V30 12871 C 1500.45 0.0441161 -2.11054 0
M  V30 12872 O 1499.8 1.05901 -2.02478 0
M  V30 12873 C 1500.01 -2.48429 -2.45121 0
M  V30 12874 C 1501.36 -2.90076 -3.10067 0
M  V30 12875 O 1502.38 -2.48245 -2.55447 0
M  V30 12876 O 1501.24 -3.62445 -4.09019 0
M  V30 12877 H 1498.33 -0.521361 -0.641959 0
M  V30 12878 H 1500.88 -1.53918 -0.714666 0
M  V30 12879 H 1499.65 -3.39637 -1.94326 0
M  V30 12880 H 1499.27 -2.28781 -3.25184 0
M  V30 12881 N 1500.27 0.920374 -1.27933 0
M  V30 12882 C 1501.69 1.19761 -1.05496 0
M  V30 12883 C 1501.89 2.00435 0.206864 0
M  V30 12884 O 1500.94 2.35518 0.910356 0
M  V30 12885 C 1502.26 1.93863 -2.29864 0
M  V30 12886 C 1503.8 2.06773 -2.34976 0
M  V30 12887 C 1504.28 2.84282 -3.59093 0
M  V30 12888 N 1505.77 2.91847 -3.59694 0
M  V30 12889 C 1506.51 3.52303 -4.52404 0
M  V30 12890 N 1506 4.14092 -5.55427 0
M  V30 12891 N 1507.79 3.49778 -4.40013 0
M  V30 12892 H 1499.95 0.381596 -2.08944 0
M  V30 12893 H 1502.21 0.231451 -0.919312 0
M  V30 12894 H 1501.91 1.42008 -3.21756 0
M  V30 12895 H 1501.79 2.94446 -2.35757 0
M  V30 12896 H 1504.18 2.57812 -1.43586 0
M  V30 12897 H 1504.26 1.05388 -2.33082 0
M  V30 12898 H 1503.9 2.33925 -4.50823 0
M  V30 12899 H 1503.83 3.85968 -3.5824 0
M  V30 12900 H 1506.32 2.4794 -2.85191 0
M  V30 12901 H 1506.63 4.58183 -6.22325 0
M  V30 12902 H 1504.98 4.12616 -5.59261 0
M  V30 12903 H 1508.17 3.00712 -3.58733 0
M  V30 12904 H 1508.34 3.96603 -5.12455 0
M  V30 12905 N 1501.75 1.10074 1.1279 0
M  V30 12906 C 1503 0.839212 1.83852 0
M  V30 12907 C 1503.32 -0.637023 1.84301 0
M  V30 12908 O 1502.59 -1.46239 1.30349 0
M  V30 12909 H 1501.17 0.307468 0.680788 0
M  V30 12910 H 1503.83 1.39025 1.36595 0
M  V30 12911 H 1502.93 1.19872 2.88162 0
M  V30 12912 N 1503.23 -1.30138 0.888926 0
M  V30 12913 C 1504.64 -1.78124 0.559346 0
M  V30 12914 C 1504.99 -1.73046 -0.924633 0
M  V30 12915 O 1504.11 -1.30974 -1.72264 0
M  V30 12916 C 1504.71 -3.2344 1.00856 0
M  V30 12917 C 1503.27 -3.69247 0.730332 0
M  V30 12918 C 1502.42 -2.505 1.18933 0
M  V30 12919 H 1505.37 -1.16952 1.07275 0
M  V30 12920 H 1505.39 -3.78985 0.339219 0
M  V30 12921 H 1504.9 -3.27104 2.08865 0
M  V30 12922 H 1503 -3.71067 -0.337599 0
M  V30 12923 H 1503.11 -4.60538 1.32066 0
M  V30 12924 H 1501.48 -2.47323 0.608568 0
M  V30 12925 H 1502.26 -2.56899 2.27724 0
M  V30 12926 N 1504.71 -0.650285 -1.43559 0
M  V30 12927 C 1506.12 -0.24263 -1.85117 0
M  V30 12928 C 1506.47 1.21017 -1.54432 0
M  V30 12929 O 1505.59 1.92332 -0.991839 0
M  V30 12930 C 1506.19 -0.433575 -3.36014 0
M  V30 12931 C 1504.75 -0.0802635 -3.76314 0
M  V30 12932 C 1503.89 -0.737844 -2.67303 0
M  V30 12933 H 1506.84 -0.854158 -1.33753 0
M  V30 12934 H 1506.87 0.321801 -3.79137 0
M  V30 12935 H 1506.38 -1.49102 -3.58316 0
M  V30 12936 H 1504.48 0.974703 -3.59625 0
M  V30 12937 H 1504.59 -0.503683 -4.76445 0
M  V30 12938 H 1502.96 -0.171349 -2.54123 0
M  V30 12939 H 1503.74 -1.79826 -2.92434 0
M  V30 12940 N 1506.18 1.52647 -0.392018 0
M  V30 12941 C 1507.43 2.01215 0.188926 0
M  V30 12942 C 1507.75 1.28019 1.47092 0
M  V30 12943 O 1507.02 0.401048 1.91751 0
M  V30 12944 H 1505.6 0.743444 0.0728049 0
M  V30 12945 H 1508.26 1.87715 -0.524332 0
M  V30 12946 H 1507.36 3.09562 0.397216 0
M  V30 12947 N 1507.66 0.121921 1.57128 0
M  V30 12948 C 1509.07 -0.402991 1.82299 0
M  V30 12949 C 1509.42 -1.66415 1.03925 0
M  V30 12950 O 1508.55 -2.14623 0.27674 0
M  V30 12951 C 1509.14 -0.737913 3.30666 0
M  V30 12952 C 1507.7 -1.20745 3.56508 0
M  V30 12953 C 1506.85 -0.217628 2.76445 0
M  V30 12954 H 1509.8 0.347009 1.5486 0
M  V30 12955 H 1509.82 -1.59505 3.45454 0
M  V30 12956 H 1509.33 0.180162 3.87682 0
M  V30 12957 H 1507.44 -2.14232 3.04853 0
M  V30 12958 H 1507.55 -1.15075 4.65075 0
M  V30 12959 H 1505.91 -0.705253 2.44741 0
M  V30 12960 H 1506.7 0.693596 3.3622 0
M  V30 12961 N 1509.14 -1.56867 -0.151857 0
M  V30 12962 C 1510.39 -1.83353 -0.866566 0
M  V30 12963 C 1510.72 -0.702784 -1.81038 0
M  V30 12964 O 1509.99 0.293944 -1.92266 0
M  V30 12965 C 1510.28 -3.20316 -1.64529 0
M  V30 12966 C 1510.13 -4.43946 -0.723297 0
M  V30 12967 C 1511.45 -3.54441 -2.60882 0
M  V30 12968 H 1508.57 -0.666957 -0.313588 0
M  V30 12969 H 1511.21 -1.89541 -0.131954 0
M  V30 12970 H 1509.36 -3.15172 -2.27154 0
M  V30 12971 H 1511.03 -4.61173 -0.10842 0
M  V30 12972 H 1509.28 -4.33788 -0.0325582 0
M  V30 12973 H 1509.95 -5.36374 -1.3041 0
M  V30 12974 H 1512.42 -3.60164 -2.08377 0
M  V30 12975 H 1511.3 -4.51314 -3.12422 0
M  V30 12976 H 1511.56 -2.80146 -3.42009 0
M  V30 12977 N 1510.62 0.421051 -1.51871 0
M  V30 12978 C 1511.87 1.16677 -1.65018 0
M  V30 12979 C 1512.19 1.91329 -0.376596 0
M  V30 12980 O 1511.46 1.86221 0.608146 0
M  V30 12981 H 1510.04 0.433698 -0.608206 0
M  V30 12982 H 1512.7 0.48115 -1.88868 0
M  V30 12983 H 1511.8 1.88742 -2.48562 0
M  V30 12984 N 1512.1 1.42293 0.677538 0
M  V30 12985 C 1513.51 1.37948 1.25806 0
M  V30 12986 C 1513.86 0.071408 1.9607 0
M  V30 12987 O 1512.98 -0.829921 1.99853 0
M  V30 12988 C 1513.58 2.49875 2.28797 0
M  V30 12989 C 1512.14 2.48872 2.82382 0
M  V30 12990 C 1511.28 2.28804 1.56665 0
M  V30 12991 H 1514.24 1.51546 0.471102 0
M  V30 12992 H 1514.26 2.19969 3.10474 0
M  V30 12993 H 1513.77 3.45065 1.77629 0
M  V30 12994 H 1511.87 1.57492 3.37679 0
M  V30 12995 H 1511.98 3.45816 3.31585 0
M  V30 12996 H 1510.35 1.77014 1.83135 0
M  V30 12997 H 1511.13 3.26046 1.07467 0
M  V30 12998 N 1513.57 -0.913576 1.28419 0
M  V30 12999 C 1514.99 -1.47782 1.14094 0
M  V30 13000 C 1515.34 -1.94347 -0.269004 0
M  V30 13001 O 1514.46 -1.82474 -1.16328 0
M  V30 13002 C 1515.06 -2.6859 2.06507 0
M  V30 13003 C 1513.62 -3.21193 1.96245 0
M  V30 13004 C 1512.76 -1.939 1.98238 0
M  V30 13005 H 1515.71 -0.726271 1.41106 0
M  V30 13006 H 1515.73 -3.43858 1.62916 0
M  V30 13007 H 1515.25 -2.34668 3.09116 0
M  V30 13008 H 1513.35 -3.5984 0.966737 0
M  V30 13009 H 1513.46 -3.8643 2.83211 0
M  V30 13010 H 1511.82 -2.11006 1.42648 0
M  V30 13011 H 1512.61 -1.62273 3.02527 0
M  V30 13012 N 1515.05 -1.1067 -1.12204 0
M  V30 13013 C 1516.3 -0.84895 -1.83405 0
M  V30 13014 C 1516.62 0.62724 -1.84637 0
M  V30 13015 O 1515.89 1.45546 -1.31123 0
M  V30 13016 H 1514.47 -0.311074 -0.679148 0
M  V30 13017 H 1517.13 -1.39747 -1.35856 0
M  V30 13018 H 1516.23 -1.21398 -2.87522 0
M  V30 13019 N 1516.53 1.29665 -0.895815 0
M  V30 13020 C 1517.46 2.30268 -0.387151 0
M  V30 13021 C 1518.44 1.61442 0.535768 0
M  V30 13022 O 1519.63 1.88978 0.447321 0
M  V30 13023 C 1516.76 3.45107 0.389639 0
M  V30 13024 C 1515.71 4.25706 -0.442498 0
M  V30 13025 C 1515.04 5.32704 0.461552 0
M  V30 13026 C 1516.34 4.9419 -1.69036 0
M  V30 13027 H 1518.03 2.73064 -1.22786 0
M  V30 13028 H 1515.58 1.31274 -0.591869 0
M  V30 13029 H 1517.53 4.14559 0.756203 0
M  V30 13030 H 1516.25 3.01145 1.2641 0
M  V30 13031 H 1514.91 3.57957 -0.791343 0
M  V30 13032 H 1514.56 4.84987 1.33403 0
M  V30 13033 H 1514.26 5.87529 -0.0915006 0
M  V30 13034 H 1515.78 6.05009 0.824395 0
M  V30 13035 H 1517.2 5.561 -1.39376 0
M  V30 13036 H 1515.6 5.5893 -2.18444 0
M  V30 13037 H 1516.67 4.19699 -2.42859 0
M  V30 13038 N 1518.01 0.657889 1.43212 0
M  V30 13039 C 1519.24 0.181072 2.06106 0
M  V30 13040 C 1519.65 -1.15513 1.49339 0
M  V30 13041 O 1519.01 -1.71409 0.626517 0
M  V30 13042 C 1519.06 0.0890244 3.6139 0
M  V30 13043 O 1518.78 1.37241 4.16049 0
M  V30 13044 C 1520.28 -0.413313 4.41369 0
M  V30 13045 H 1517.5 0.0920577 0.664655 0
M  V30 13046 H 1520.05 0.899855 1.83638 0
M  V30 13047 H 1518.2 -0.580345 3.83028 0
M  V30 13048 H 1518.61 1.23467 5.09761 0
M  V30 13049 H 1520.09 -0.426663 5.50349 0
M  V30 13050 H 1520.57 -1.44549 4.14731 0
M  V30 13051 H 1521.17 0.223727 4.24711 0
M  V30 13052 N 1519.49 -1.52437 0.400108 0
M  V30 13053 C 1520.73 -2.01312 -0.178252 0
M  V30 13054 C 1521.06 -1.28797 -1.46411 0
M  V30 13055 O 1520.33 -0.411211 -1.91536 0
M  V30 13056 H 1518.91 -0.743819 -0.0688613 0
M  V30 13057 H 1521.57 -1.87434 0.53428 0
M  V30 13058 H 1520.66 -3.09768 -0.380793 0
M  V30 13059 N 1520.96 -0.130252 -1.57061 0
M  V30 13060 C 1522.38 0.393318 -1.8251 0
M  V30 13061 C 1522.73 1.65862 -1.04806 0
M  V30 13062 O 1521.85 2.14473 -0.288118 0
M  V30 13063 C 1522.45 0.720366 -3.31053 0
M  V30 13064 C 1521.01 1.18852 -3.57143 0
M  V30 13065 C 1520.15 0.202964 -2.76556 0
M  V30 13066 H 1523.1 -0.355217 -1.54674 0
M  V30 13067 H 1523.12 1.57671 -3.46295 0
M  V30 13068 H 1522.64 -0.200719 -3.87581 0
M  V30 13069 H 1520.74 2.12612 -3.05985 0
M  V30 13070 H 1520.85 1.12607 -4.65678 0
M  V30 13071 H 1519.21 0.692264 -2.45112 0
M  V30 13072 H 1520 -0.711417 -3.35848 0
M  V30 13073 N 1522.44 1.56945 0.143535 0
M  V30 13074 C 1523.41 1.97616 1.16106 0
M  V30 13075 C 1524.41 0.863113 1.35672 0
M  V30 13076 O 1525.6 1.12966 1.32606 0
M  V30 13077 C 1522.73 2.29511 2.52067 0
M  V30 13078 H 1523.92 2.88696 0.812066 0
M  V30 13079 H 1521.47 1.51433 0.386999 0
M  V30 13080 H 1522.21 1.41233 2.91931 0
M  V30 13081 H 1521.99 3.10667 2.39225 0
M  V30 13082 H 1523.48 2.61802 3.25345 0
M  V30 13083 N 1523.92 -0.412991 1.52093 0
M  V30 13084 C 1525.17 -1.15801 1.65634 0
M  V30 13085 C 1525.49 -1.91127 0.386737 0
M  V30 13086 O 1524.76 -1.86541 -0.598262 0
M  V30 13087 H 1523.34 -0.430467 0.610498 0
M  V30 13088 H 1526 -0.471127 1.8912 0
M  V30 13089 H 1525.1 -1.87421 2.49559 0
M  V30 13090 N 1525.4 -1.4265 -0.669982 0
M  V30 13091 C 1526.31 -1.48916 -1.81276 0
M  V30 13092 C 1527.33 -0.377523 -1.69855 0
M  V30 13093 O 1528.5 -0.629151 -1.91321 0
M  V30 13094 C 1525.57 -1.39376 -3.17451 0
M  V30 13095 C 1524.63 -2.61072 -3.40793 0
M  V30 13096 C 1523.86 -2.51976 -4.70472 0
M  V30 13097 O 1524.08 -1.55827 -5.48702 0
M  V30 13098 O 1523.02 -3.42193 -4.95164 0
M  V30 13099 H 1526.84 -2.45382 -1.78945 0
M  V30 13100 H 1524.43 -1.24467 -0.826342 0
M  V30 13101 H 1526.31 -1.36435 -3.98702 0
M  V30 13102 H 1524.99 -0.460376 -3.20409 0
M  V30 13103 H 1523.89 -2.69587 -2.59372 0
M  V30 13104 H 1525.23 -3.53325 -3.42669 0
M  V30 13105 N 1526.88 0.906753 -1.28902 0
M  V30 13106 C 1528.29 1.47175 -1.14876 0
M  V30 13107 C 1528.64 1.94487 0.258693 0
M  V30 13108 O 1527.76 1.83088 1.15359 0
M  V30 13109 C 1528.36 2.67491 -2.07928 0
M  V30 13110 C 1526.92 3.20148 -1.97946 0
M  V30 13111 C 1526.07 1.92846 -1.99263 0
M  V30 13112 H 1529.02 0.718777 -1.4149 0
M  V30 13113 H 1529.04 3.42989 -1.64738 0
M  V30 13114 H 1528.55 2.33025 -3.10356 0
M  V30 13115 H 1526.65 3.59322 -0.985806 0
M  V30 13116 H 1526.76 3.84923 -2.85256 0
M  V30 13117 H 1525.13 2.10247 -1.43765 0
M  V30 13118 H 1525.91 1.60666 -3.03383 0
M  V30 13119 N 1528.36 1.11264 1.11616 0
M  V30 13120 C 1529.6 0.858664 1.82952 0
M  V30 13121 C 1529.92 -0.617439 1.84967 0
M  V30 13122 O 1529.19 -1.44849 1.31893 0
M  V30 13123 H 1527.77 0.314671 0.677489 0
M  V30 13124 H 1530.44 1.40466 1.35113 0
M  V30 13125 H 1529.53 1.22921 2.86874 0
M  V30 13126 N 1529.83 -1.29188 0.902679 0
M  V30 13127 C 1531.25 -1.47924 0.599209 0
M  V30 13128 C 1531.45 -1.82297 -0.858494 0
M  V30 13129 O 1530.51 -1.92123 -1.63845 0
M  V30 13130 C 1531.82 -2.59008 1.52759 0
M  V30 13131 C 1533.37 -2.72882 1.53312 0
M  V30 13132 C 1533.84 -3.87097 2.44785 0
M  V30 13133 N 1535.33 -3.94435 2.42849 0
M  V30 13134 C 1536.07 -4.82165 3.1033 0
M  V30 13135 N 1535.56 -5.74565 3.87101 0
M  V30 13136 N 1537.36 -4.75681 2.99473 0
M  V30 13137 H 1529.51 -1.05154 1.84544 0
M  V30 13138 H 1531.77 -0.522632 0.790924 0
M  V30 13139 H 1531.48 -2.40483 2.56634 0
M  V30 13140 H 1531.35 -3.55873 1.25036 0
M  V30 13141 H 1533.74 -2.90802 0.501804 0
M  V30 13142 H 1533.82 -1.76582 1.85074 0
M  V30 13143 H 1533.46 -3.69932 3.48012 0
M  V30 13144 H 1533.39 -4.82772 2.10331 0
M  V30 13145 H 1535.88 -3.28347 1.87074 0
M  V30 13146 H 1536.2 -6.3831 4.35638 0
M  V30 13147 H 1534.54 -5.74441 3.91207 0
M  V30 13148 H 1537.73 -4.02483 2.39009 0
M  V30 13149 H 1537.91 -5.4384 3.52337 0
M  V30 13150 N 1531.31 -0.665475 -1.42861 0
M  V30 13151 C 1532.22 0.018927 -2.34592 0
M  V30 13152 C 1533.24 0.798967 -1.54572 0
M  V30 13153 O 1534.41 0.743419 -1.87177 0
M  V30 13154 C 1531.48 0.965013 -3.32999 0
M  V30 13155 C 1530.54 0.180544 -4.2892 0
M  V30 13156 C 1529.77 1.08157 -5.22626 0
M  V30 13157 O 1530 2.32101 -5.21043 0
M  V30 13158 O 1528.93 0.54738 -5.99406 0
M  V30 13159 H 1532.76 -0.736444 -2.94636 0
M  V30 13160 H 1530.34 -0.425684 -1.43207 0
M  V30 13161 H 1532.22 1.50839 -3.93479 0
M  V30 13162 H 1530.9 1.7004 -2.75442 0
M  V30 13163 H 1529.8 -0.40671 -3.71883 0
M  V30 13164 H 1531.14 -0.515529 -4.89493 0
M  V30 13165 N 1532.79 1.52222 -0.408187 0
M  V30 13166 C 1534.04 2.01404 0.167574 0
M  V30 13167 C 1534.36 1.29572 1.45726 0
M  V30 13168 O 1533.63 0.421363 1.91315 0
M  V30 13169 H 1532.21 0.744174 0.0649156 0
M  V30 13170 H 1534.87 1.87148 -0.544212 0
M  V30 13171 H 1533.97 3.09966 0.36436 0
M  V30 13172 N 1534.27 0.138579 1.5699 0
M  V30 13173 C 1535.49 -0.525074 2.00643 0
M  V30 13174 C 1535.92 -1.58174 1.01796 0
M  V30 13175 O 1535.28 -1.81298 -0.00754003 0
M  V30 13176 C 1535.32 -1.11019 3.43085 0
M  V30 13177 O 1534.43 -2.22529 3.4721 0
M  V30 13178 H 1533.77 -0.129283 0.651292 0
M  V30 13179 H 1536.3 0.23283 2.03271 0
M  V30 13180 H 1536.31 -1.44093 3.81708 0
M  V30 13181 H 1534.98 -0.336325 4.14538 0
M  V30 13182 H 1533.56 -1.90747 3.20422 0
M  V30 13183 N 1535.75 -1.57019 -0.13521 0
M  V30 13184 C 1537.16 -1.73319 -0.694067 0
M  V30 13185 C 1537.51 -0.754808 -1.811 0
M  V30 13186 O 1536.63 0.0759463 -2.16267 0
M  V30 13187 C 1537.23 -3.14266 -1.26579 0
M  V30 13188 C 1535.79 -3.32128 -1.7711 0
M  V30 13189 C 1534.93 -2.69226 -0.664263 0
M  V30 13190 H 1537.88 -1.58441 0.0905702 0
M  V30 13191 H 1537.91 -3.14919 -2.13557 0
M  V30 13192 H 1537.42 -3.85451 -0.452652 0
M  V30 13193 H 1535.52 -2.65959 -2.60953 0
M  V30 13194 H 1535.63 -4.40172 -1.8917 0
M  V30 13195 H 1534 -2.30016 -1.09384 0
M  V30 13196 H 1534.78 -3.43024 0.13763 0
M  V30 13197 N 1537.22 0.404919 -1.52309 0
M  V30 13198 C 1538.47 1.14921 -1.66246 0
M  V30 13199 C 1538.79 1.90919 -0.396868 0
M  V30 13200 O 1538.06 1.86856 0.588361 0
M  V30 13201 H 1536.64 0.427223 -0.612772 0
M  V30 13202 H 1539.31 0.461091 -1.89367 0
M  V30 13203 H 1538.4 1.86095 -2.5055 0
M  V30 13204 N 1538.7 1.43003 0.662408 0
M  V30 13205 C 1539.67 1.4713 1.75743 0
M  V30 13206 C 1540.67 0.357203 1.56782 0
M  V30 13207 O 1541.86 0.618566 1.62848 0
M  V30 13208 C 1538.99 1.31499 3.14517 0
M  V30 13209 H 1540.18 2.44641 1.73467 0
M  V30 13210 H 1537.73 1.29633 0.873208 0
M  V30 13211 H 1538.47 0.349596 3.2241 0
M  V30 13212 H 1538.25 2.12253 3.29683 0
M  V30 13213 H 1539.74 1.37298 3.94384 0
M  V30 13214 N 1540.18 -0.899904 1.29381 0
M  V30 13215 C 1541.46 -1.63067 1.08021 0
M  V30 13216 C 1541.84 -2.0773 -0.375716 0
M  V30 13217 O 1541.19 -1.83288 -1.36447 0
M  V30 13218 C 1541.4 -2.81163 2.06757 0
M  V30 13219 C 1542.74 -3.51854 2.37664 0
M  V30 13220 O 1543.77 -2.91332 2.0495 0
M  V30 13221 O 1542.63 -4.60962 2.93558 0
M  V30 13222 H 1539.72 -0.71601 0.413835 0
M  V30 13223 H 1542.27 -0.947991 1.40752 0
M  V30 13224 H 1541.04 -2.45355 3.04822 0
M  V30 13225 H 1540.66 -3.57137 1.74754 0
M  V30 13226 N 1541.66 -1.11854 -1.11024 0
M  V30 13227 C 1542.91 -0.868355 -1.82494 0
M  V30 13228 C 1543.23 0.607622 -1.85292 0
M  V30 13229 O 1542.5 1.44147 -1.32659 0
M  V30 13230 H 1541.08 -0.31826 -0.67581 0
M  V30 13231 H 1543.74 -1.4118 -1.34366 0
M  V30 13232 H 1542.84 -1.24441 -2.86218 0
M  V30 13233 N 1543.14 1.28707 -0.909517 0
M  V30 13234 C 1544.55 1.77212 -0.587613 0
M  V30 13235 C 1544.9 1.74495 0.896986 0
M  V30 13236 O 1544.02 1.33698 1.70158 0
M  V30 13237 C 1544.62 3.21794 -1.05989 0
M  V30 13238 C 1543.18 3.68038 -0.788983 0
M  V30 13239 C 1542.32 2.48576 -1.22903 0
M  V30 13240 H 1545.28 1.1523 -1.09122 0
M  V30 13241 H 1545.3 3.78397 -0.399469 0
M  V30 13242 H 1544.81 3.23739 -2.14043 0
M  V30 13243 H 1542.91 3.71558 0.278523 0
M  V30 13244 H 1543.02 4.58379 -1.39376 0
M  V30 13245 H 1541.39 2.46323 -0.647838 0
M  V30 13246 H 1542.17 2.53243 -2.31782 0
M  V30 13247 N 1544.61 0.673042 1.42506 0
M  V30 13248 C 1546.03 0.272049 1.84707 0
M  V30 13249 C 1546.38 -1.18545 1.56338 0
M  V30 13250 O 1545.5 -1.9073 1.02231 0
M  V30 13251 C 1546.1 0.486977 3.35282 0
M  V30 13252 C 1544.66 0.140122 3.76139 0
M  V30 13253 C 1543.8 0.780276 2.66096 0
M  V30 13254 H 1546.75 0.875329 1.32377 0
M  V30 13255 H 1546.77 -0.261443 3.79601 0
M  V30 13256 H 1546.29 1.54784 3.55898 0
M  V30 13257 H 1544.39 -0.917366 3.6113 0
M  V30 13258 H 1544.5 0.579417 4.75583 0
M  V30 13259 H 1542.86 0.211756 2.53818 0
M  V30 13260 H 1543.65 1.84456 2.89536 0
M  V30 13261 N 1546.09 -1.52004 0.416254 0
M  V30 13262 C 1547.34 -2.0149 -0.15689 0
M  V30 13263 C 1547.66 -1.30343 -1.45037 0
M  V30 13264 O 1546.93 -0.431503 -1.91089 0
M  V30 13265 H 1545.51 -0.744508 -0.0609682 0
M  V30 13266 H 1548.17 -1.86857 0.55413 0
M  V30 13267 H 1547.27 -3.10155 -0.347917 0
M  V30 13268 N 1547.57 -0.146903 -1.56914 0
M  V30 13269 C 1548.99 0.20951 -1.58219 0
M  V30 13270 C 1549.19 1.64679 -1.16116 0
M  V30 13271 O 1548.24 2.37352 -0.861414 0
M  V30 13272 C 1549.56 -0.0491564 -3.0066 0
M  V30 13273 C 1551.1 0.0145605 -3.12997 0
M  V30 13274 C 1551.58 -0.216773 -4.57487 0
M  V30 13275 N 1553.07 -0.163698 -4.62911 0
M  V30 13276 C 1553.8 -0.317204 -5.72522 0
M  V30 13277 N 1553.3 -0.528426 -6.90782 0
M  V30 13278 N 1555.09 -0.254814 -5.61522 0
M  V30 13279 H 1547.24 -1.08536 -1.82575 0
M  V30 13280 H 1549.51 -0.42963 -0.845057 0
M  V30 13281 H 1549.21 -1.04387 -3.35851 0
M  V30 13282 H 1549.09 0.670296 -3.71197 0
M  V30 13283 H 1551.47 0.999829 -2.77646 0
M  V30 13284 H 1551.56 -0.737219 -2.44946 0
M  V30 13285 H 1551.2 -1.19914 -4.93541 0
M  V30 13286 H 1551.13 0.555329 -5.23664 0
M  V30 13287 H 1553.62 -0.00509433 -3.779 0
M  V30 13288 H 1553.93 -0.635667 -7.70181 0
M  V30 13289 H 1552.28 -0.564746 -6.92702 0
M  V30 13290 H 1555.47 -0.0905626 -4.68012 0
M  V30 13291 H 1555.64 -0.377881 -6.46897 0
M  V30 13292 N 1549.05 1.57088 0.126881 0
M  V30 13293 C 1550.33 1.7539 0.8659 0
M  V30 13294 C 1550.71 0.720288 1.98432 0
M  V30 13295 O 1550.05 -0.2572 2.27048 0
M  V30 13296 C 1550.26 3.20131 1.38985 0
M  V30 13297 C 1551.61 3.82404 1.84532 0
M  V30 13298 O 1552.64 3.23685 1.48682 0
M  V30 13299 O 1551.49 4.85599 2.50711 0
M  V30 13300 H 1548.59 0.717853 0.41063 0
M  V30 13301 H 1551.13 1.69335 0.111236 0
M  V30 13302 H 1549.91 3.86871 0.587056 0
M  V30 13303 H 1549.53 3.30692 2.20745 0
M  V30 13304 N 1550.53 -0.396836 1.52522 0
M  V30 13305 C 1551.77 -1.14037 1.66853 0
M  V30 13306 C 1552.1 -1.90706 0.406987 0
M  V30 13307 O 1551.37 -1.87165 -0.578443 0
M  V30 13308 H 1549.95 -0.423967 0.615029 0
M  V30 13309 H 1552.61 -0.451042 1.89609 0
M  V30 13310 H 1551.7 -1.84763 2.51533 0
M  V30 13311 N 1552.01 -1.43353 -0.654814 0
M  V30 13312 C 1552.97 -1.4806 -1.7496 0
M  V30 13313 C 1553.97 -0.365513 -1.56591 0
M  V30 13314 O 1555.16 -0.627194 -1.62517 0
M  V30 13315 C 1552.29 -1.33165 -3.13815 0
M  V30 13316 H 1553.48 -2.45557 -1.72167 0
M  V30 13317 H 1551.04 -1.30094 -0.86632 0
M  V30 13318 H 1551.77 -0.366689 -3.2222 0
M  V30 13319 H 1551.56 -2.13998 -3.28553 0
M  V30 13320 H 1553.05 -1.39388 -3.93651 0
M  V30 13321 N 1553.48 0.89303 -1.29857 0
M  V30 13322 C 1554.45 1.97944 -1.15546 0
M  V30 13323 C 1555.45 1.60554 -0.088989 0
M  V30 13324 O 1556.64 1.7092 -0.336464 0
M  V30 13325 C 1553.77 3.32126 -0.768442 0
M  V30 13326 H 1554.96 2.12067 -2.12055 0
M  V30 13327 H 1552.51 1.0784 -1.13138 0
M  V30 13328 H 1553.25 3.23704 0.196504 0
M  V30 13329 H 1553.03 3.60631 -1.53907 0
M  V30 13330 H 1554.52 4.11834 -0.691559 0
M  V30 13331 N 1554.96 1.12442 1.10429 0
M  V30 13332 C 1556.21 0.878021 1.82031 0
M  V30 13333 C 1556.53 -0.597787 1.85611 0
M  V30 13334 O 1555.8 -1.43442 1.33422 0
M  V30 13335 H 1554.38 0.321839 0.674113 0
M  V30 13336 H 1557.04 1.41891 1.33615 0
M  V30 13337 H 1556.14 1.25957 2.85554 0
M  V30 13338 N 1556.44 -1.28223 0.91633 0
M  V30 13339 C 1557.69 -1.95153 0.551639 0
M  V30 13340 C 1558.02 -1.71938 -0.902829 0
M  V30 13341 O 1557.29 -1.04184 -1.64243 0
M  V30 13342 C 1557.58 -3.49565 0.864647 0
M  V30 13343 C 1557.43 -3.82171 2.37203 0
M  V30 13344 C 1558.75 -4.38604 0.362593 0
M  V30 13345 H 1555.87 -0.708808 0.20189 0
M  V30 13346 H 1558.51 -1.51545 1.14604 0
M  V30 13347 H 1556.66 -3.8684 0.358782 0
M  V30 13348 H 1558.33 -3.54751 2.94872 0
M  V30 13349 H 1556.57 -3.29124 2.82595 0
M  V30 13350 H 1557.25 -4.90007 2.54159 0
M  V30 13351 H 1559.72 -4.08416 0.795983 0
M  V30 13352 H 1558.6 -5.45493 0.61066 0
M  V30 13353 H 1558.86 -4.35911 -0.737137 0
M  V30 13354 N 1557.92 -0.68059 -1.42147 0
M  V30 13355 C 1558.86 -0.00585926 -2.30799 0
M  V30 13356 C 1559.83 0.786778 -1.46284 0
M  V30 13357 O 1561.02 0.757853 -1.75103 0
M  V30 13358 C 1558.16 0.935319 -3.32183 0
M  V30 13359 C 1557.27 0.13589 -4.31786 0
M  V30 13360 C 1556.41 1.07335 -5.20243 0
M  V30 13361 C 1555.45 0.265943 -6.11522 0
M  V30 13362 N 1554.58 1.15641 -6.92511 0
M  V30 13363 H 1559.42 -0.767651 -2.87943 0
M  V30 13364 H 1556.96 -0.39029 -1.41828 0
M  V30 13365 H 1558.92 1.49489 -3.89498 0
M  V30 13366 H 1557.55 1.66368 -2.76626 0
M  V30 13367 H 1556.6 -0.540383 -3.76542 0
M  V30 13368 H 1557.91 -0.490716 -4.9638 0
M  V30 13369 H 1557.07 1.70265 -5.82319 0
M  V30 13370 H 1555.81 1.73383 -4.55839 0
M  V30 13371 H 1554.81 -0.376531 -5.48509 0
M  V30 13372 H 1556.04 -0.39053 -6.77976 0
M  V30 13373 H 1553.98 1.80319 -6.30731 0
M  V30 13374 H 1553.9 0.585022 -7.53733 0
M  V30 13375 H 1555.17 1.773 -7.59069 0
M  V30 13376 N 1559.4 1.51781 -0.424309 0
M  V30 13377 C 1560.64 2.0157 0.146203 0
M  V30 13378 C 1560.96 1.3111 1.44344 0
M  V30 13379 O 1560.23 0.441631 1.90857 0
M  V30 13380 H 1558.81 0.744821 0.057019 0
M  V30 13381 H 1561.48 1.8656 -0.564031 0
M  V30 13382 H 1560.57 3.10335 0.331464 0
M  V30 13383 N 1560.87 0.155222 1.56834 0
M  V30 13384 C 1562.15 -0.539327 1.88018 0
M  V30 13385 C 1562.53 -1.8241 1.06253 0
M  V30 13386 O 1561.88 -2.27996 0.151721 0
M  V30 13387 C 1562.09 -0.796826 3.39782 0
M  V30 13388 C 1563.44 -1.13397 4.09178 0
M  V30 13389 O 1564.46 -0.885907 3.45007 0
M  V30 13390 O 1563.32 -1.60117 5.22518 0
M  V30 13391 H 1560.41 -0.276066 0.779562 0
M  V30 13392 H 1562.96 0.192451 1.68605 0
M  V30 13393 H 1561.73 0.112097 3.91139 0
M  V30 13394 H 1561.35 -1.5825 3.6475 0
M  V30 13395 N 1562.35 -1.57153 -0.118549 0
M  V30 13396 C 1563.77 -1.52458 -0.472096 0
M  V30 13397 C 1563.97 -0.868289 -1.81832 0
M  V30 13398 O 1563.02 -0.450817 -2.48443 0
M  V30 13399 C 1564.34 -2.9722 -0.456175 0
M  V30 13400 C 1565.88 -3.08312 -0.539694 0
M  V30 13401 C 1566.36 -4.54635 -0.554158 0
M  V30 13402 N 1567.85 -4.59091 -0.615584 0
M  V30 13403 C 1568.59 -5.69724 -0.64823 0
M  V30 13404 N 1568.08 -6.89852 -0.638494 0
M  V30 13405 N 1569.87 -5.57833 -0.691272 0
M  V30 13406 H 1562.03 -1.98202 0.76353 0
M  V30 13407 H 1564.29 -0.905179 0.281699 0
M  V30 13408 H 1563.99 -3.48608 0.465364 0
M  V30 13409 H 1563.87 -3.5468 -1.28381 0
M  V30 13410 H 1566.26 -2.56926 -1.45165 0
M  V30 13411 H 1566.34 -2.53845 0.315638 0
M  V30 13412 H 1565.98 -5.06667 0.353759 0
M  V30 13413 H 1565.91 -5.06914 -1.42638 0
M  V30 13414 H 1568.4 -3.72624 -0.629253 0
M  V30 13415 H 1568.71 -7.69925 -0.66604 0
M  V30 13416 H 1567.06 -6.92354 -0.605912 0
M  V30 13417 H 1570.25 -4.62893 -0.696244 0
M  V30 13418 H 1570.42 -6.44063 -0.713246 0
M  V30 13419 N 1563.83 0.388742 -1.5273 0
M  V30 13420 C 1565.08 1.13151 -1.67455 0
M  V30 13421 C 1565.4 1.90487 -0.417095 0
M  V30 13422 O 1564.67 1.87469 0.568509 0
M  V30 13423 H 1563.25 0.4207 -0.617269 0
M  V30 13424 H 1565.91 0.44098 -1.89846 0
M  V30 13425 H 1565.01 1.83427 -2.52509 0
M  V30 13426 N 1565.31 1.43698 0.647203 0
M  V30 13427 C 1566.22 1.51781 1.78884 0
M  V30 13428 C 1567.23 0.404498 1.69233 0
M  V30 13429 O 1568.41 0.659509 1.90296 0
M  V30 13430 C 1565.47 1.44408 3.15194 0
M  V30 13431 C 1564.54 2.6646 3.36597 0
M  V30 13432 C 1563.77 2.59429 4.66403 0
M  V30 13433 O 1563.99 1.64537 5.46154 0
M  V30 13434 O 1562.93 3.50027 4.89658 0
M  V30 13435 H 1566.75 2.48198 1.75019 0
M  V30 13436 H 1564.34 1.25766 0.806436 0
M  V30 13437 H 1566.22 1.42761 3.96481 0
M  V30 13438 H 1564.89 0.511292 3.19637 0
M  V30 13439 H 1563.8 2.73679 2.5505 0
M  V30 13440 H 1565.13 3.58732 3.37005 0
M  V30 13441 N 1566.79 -0.886131 1.30328 0
M  V30 13442 C 1568.01 -1.67099 1.22007 0
M  V30 13443 C 1568.43 -1.87546 -0.217255 0
M  V30 13444 O 1567.79 -1.42213 -1.14375 0
M  V30 13445 C 1567.84 -3.048 1.94368 0
M  V30 13446 O 1567.56 -2.85277 3.32489 0
M  V30 13447 C 1569.06 -3.99231 1.9269 0
M  V30 13448 H 1566.28 -0.521467 0.422271 0
M  V30 13449 H 1568.82 -1.1072 1.71934 0
M  V30 13450 H 1566.98 -3.57915 1.48242 0
M  V30 13451 H 1567.39 -3.72626 3.69121 0
M  V30 13452 H 1568.87 -4.93223 2.47861 0
M  V30 13453 H 1569.34 -4.29763 0.905558 0
M  V30 13454 H 1569.95 -3.52051 2.38621 0
M  V30 13455 N 1568.26 -1.13026 -1.09832 0
M  V30 13456 C 1569.51 -0.887662 -1.81563 0
M  V30 13457 C 1569.83 0.587935 -1.85926 0
M  V30 13458 O 1569.1 1.42732 -1.3418 0
M  V30 13459 H 1567.68 -0.32541 -0.672397 0
M  V30 13460 H 1570.35 -1.42597 -1.32861 0
M  V30 13461 H 1569.44 -1.2747 -2.84882 0
M  V30 13462 N 1569.74 1.27735 -0.923117 0
M  V30 13463 C 1570.71 2.25256 -0.423375 0
M  V30 13464 C 1571.71 1.54213 0.455517 0
M  V30 13465 O 1572.9 1.7229 0.257245 0
M  V30 13466 C 1570.03 3.3864 0.391897 0
M  V30 13467 H 1571.22 2.70978 -1.28495 0
M  V30 13468 H 1568.77 1.39579 -0.703378 0
M  V30 13469 H 1569.51 2.98293 1.27248 0
M  V30 13470 H 1569.29 3.91376 -0.238194 0
M  V30 13471 H 1570.78 4.11133 0.732069 0
M  V30 13472 N 1571.22 0.688118 1.41784 0
M  V30 13473 C 1572.47 0.216263 2.01644 0
M  V30 13474 C 1572.8 -1.17861 1.54345 0
M  V30 13475 O 1572.07 -1.794 0.751392 0
M  V30 13476 C 1572.36 0.265663 3.59119 0
M  V30 13477 C 1572.21 1.69694 4.16562 0
M  V30 13478 C 1573.53 -0.378713 4.38468 0
M  V30 13479 H 1570.65 0.0800582 0.732639 0
M  V30 13480 H 1573.29 0.875428 1.68631 0
M  V30 13481 H 1571.44 -0.295588 3.87374 0
M  V30 13482 H 1573.11 2.31146 3.9921 0
M  V30 13483 H 1571.36 2.23345 3.71886 0
M  V30 13484 H 1572.03 1.68309 5.25715 0
M  V30 13485 H 1574.5 0.0991969 4.15982 0
M  V30 13486 H 1573.38 -0.31357 5.48004 0
M  V30 13487 H 1573.64 -1.45832 4.17355 0
M  V30 13488 N 1572.7 -1.51554 0.432352 0
M  V30 13489 C 1573.95 -2.01645 -0.135511 0
M  V30 13490 C 1574.27 -1.31874 -1.43647 0
M  V30 13491 O 1573.54 -0.451746 -1.9062 0
M  V30 13492 H 1572.12 -0.745113 -0.0530683 0
M  V30 13493 H 1574.78 -1.86258 0.573917 0
M  V30 13494 H 1573.88 -3.10506 -0.315001 0
M  V30 13495 N 1574.18 -0.163538 -1.56749 0
M  V30 13496 C 1575.14 0.755801 -2.1638 0
M  V30 13497 C 1576.14 1.16359 -1.10982 0
M  V30 13498 O 1577.33 1.08182 -1.36537 0
M  V30 13499 C 1574.46 2.02775 -2.74035 0
M  V30 13500 H 1575.65 0.23681 -2.98964 0
M  V30 13501 H 1573.21 0.0859925 -1.56063 0
M  V30 13502 H 1573.94 2.59002 -1.95163 0
M  V30 13503 H 1573.73 1.74439 -3.5116 0
M  V30 13504 H 1575.22 2.684 -3.19923 0
M  V30 13505 N 1575.65 1.57214 0.110213 0
M  V30 13506 C 1577.07 1.74402 0.666405 0
M  V30 13507 C 1577.42 0.783524 1.79876 0
M  V30 13508 O 1576.54 -0.0415306 2.1636 0
M  V30 13509 C 1577.14 3.1624 1.21564 0
M  V30 13510 C 1575.7 3.34904 1.71804 0
M  V30 13511 C 1574.84 2.70249 0.621347 0
M  V30 13512 H 1577.79 1.58277 -0.115765 0
M  V30 13513 H 1577.81 3.18276 2.0852 0
M  V30 13514 H 1577.33 3.86123 0.391273 0
M  V30 13515 H 1575.43 2.70077 2.56689 0
M  V30 13516 H 1575.54 4.43126 1.82143 0
M  V30 13517 H 1573.9 2.31727 1.05711 0
M  V30 13518 H 1574.69 3.42762 -0.192185 0
M  V30 13519 N 1577.13 -0.380637 1.52934 0
M  V30 13520 C 1578.38 -1.12261 1.68053 0
M  V30 13521 C 1578.7 -1.90263 0.427191 0
M  V30 13522 O 1577.97 -1.87768 -0.558559 0
M  V30 13523 H 1576.55 -0.41742 0.619491 0
M  V30 13524 H 1579.21 -0.430906 1.90077 0
M  V30 13525 H 1578.31 -1.82085 2.53479 0
M  V30 13526 N 1578.61 -1.44039 -0.639573 0
M  V30 13527 C 1579.57 -1.49907 -1.7338 0
M  V30 13528 C 1580.57 -0.382101 -1.56194 0
M  V30 13529 O 1581.76 -0.644396 -1.61843 0
M  V30 13530 C 1578.9 -1.36486 -3.12385 0
M  V30 13531 H 1580.09 -2.4737 -1.69553 0
M  V30 13532 H 1577.64 -1.31006 -0.852474 0
M  V30 13533 H 1578.38 -0.400845 -3.21813 0
M  V30 13534 H 1578.16 -2.17471 -3.26265 0
M  V30 13535 H 1579.65 -1.43555 -3.9215 0
M  V30 13536 N 1580.09 0.879207 -1.30796 0
M  V30 13537 C 1581.5 1.44705 -1.17972 0
M  V30 13538 C 1581.85 1.94992 0.217381 0
M  V30 13539 O 1580.98 1.85494 1.11449 0
M  V30 13540 C 1581.57 2.6302 -2.13555 0
M  V30 13541 C 1580.13 3.15877 -2.04692 0
M  V30 13542 C 1579.28 1.88576 -2.03309 0
M  V30 13543 H 1582.23 0.688604 -1.42982 0
M  V30 13544 H 1582.25 3.39418 -1.71976 0
M  V30 13545 H 1581.76 2.2639 -3.15229 0
M  V30 13546 H 1579.86 3.57151 -1.0618 0
M  V30 13547 H 1579.97 3.78786 -2.93357 0
M  V30 13548 H 1578.34 2.0715 -1.48192 0
M  V30 13549 H 1579.12 1.54195 -3.06723 0
M  V30 13550 N 1581.57 1.13606 1.09231 0
M  V30 13551 C 1582.82 0.897278 1.81089 0
M  V30 13552 C 1583.14 -0.578066 1.86235 0
M  V30 13553 O 1582.41 -1.42018 1.34935 0
M  V30 13554 H 1580.99 0.328971 0.670662 0
M  V30 13555 H 1583.65 1.433 1.32103 0
M  V30 13556 H 1582.74 1.28979 2.84202 0
M  V30 13557 N 1583.05 -1.27244 0.929878 0
M  V30 13558 C 1584.46 -1.76254 0.615732 0
M  V30 13559 C 1584.81 -1.759 -0.869111 0
M  V30 13560 O 1583.93 -1.36388 -1.6801 0
M  V30 13561 C 1584.53 -3.20068 1.11095 0
M  V30 13562 C 1583.09 -3.66736 0.847435 0
M  V30 13563 C 1582.23 -2.4659 1.26842 0
M  V30 13564 H 1585.18 -1.1348 1.10942 0
M  V30 13565 H 1585.21 -3.77714 0.459618 0
M  V30 13566 H 1584.72 -3.20293 2.19166 0
M  V30 13567 H 1582.82 -3.71954 -0.219376 0
M  V30 13568 H 1582.93 -4.56104 1.4665 0
M  V30 13569 H 1581.3 -2.45261 0.686944 0
M  V30 13570 H 1582.08 -2.49524 2.35781 0
M  V30 13571 N 1584.52 -0.695628 -1.41417 0
M  V30 13572 C 1585.93 -0.3014 -1.84251 0
M  V30 13573 C 1586.29 1.16042 -1.58204 0
M  V30 13574 O 1585.41 1.89079 -1.05253 0
M  V30 13575 C 1586.01 -0.540256 -3.34465 0
M  V30 13576 C 1584.56 -0.199944 -3.75869 0
M  V30 13577 C 1583.71 -0.822511 -2.64821 0
M  V30 13578 H 1586.66 -0.896278 -1.30968 0
M  V30 13579 H 1586.68 0.201019 -3.79969 0
M  V30 13580 H 1586.2 -1.60427 -3.53391 0
M  V30 13581 H 1584.3 0.859798 -3.62544 0
M  V30 13582 H 1584.41 -0.655005 -4.74601 0
M  V30 13583 H 1582.77 -0.252109 -2.53449 0
M  V30 13584 H 1583.56 -1.89039 -2.86564 0
M  V30 13585 N 1586 1.51322 -0.440383 0
M  V30 13586 C 1587.25 2.01714 0.124815 0
M  V30 13587 C 1587.57 1.32634 1.42945 0
M  V30 13588 O 1586.84 0.461849 1.90378 0
M  V30 13589 H 1585.42 0.745384 0.049116 0
M  V30 13590 H 1588.08 1.85951 -0.583787 0
M  V30 13591 H 1587.18 3.10669 0.29853 0
M  V30 13592 N 1587.48 0.171848 1.5666 0
M  V30 13593 C 1588.7 -0.482396 2.01712 0
M  V30 13594 C 1589.13 -1.5598 1.05128 0
M  V30 13595 O 1588.49 -1.81274 0.0309178 0
M  V30 13596 C 1588.54 -1.03716 3.45363 0
M  V30 13597 O 1587.64 -2.15114 3.51852 0
M  V30 13598 H 1586.98 -0.115439 0.653888 0
M  V30 13599 H 1589.51 0.275895 2.02731 0
M  V30 13600 H 1589.52 -1.35964 3.84679 0
M  V30 13601 H 1588.2 -0.24832 4.15158 0
M  V30 13602 H 1586.77 -1.83907 3.24396 0
M  V30 13603 N 1588.96 -1.5727 -0.101874 0
M  V30 13604 C 1590.37 -1.74753 -0.657147 0
M  V30 13605 C 1590.72 -0.793052 -1.79458 0
M  V30 13606 O 1589.84 0.0300559 -2.16379 0
M  V30 13607 C 1590.44 -3.1688 -1.19885 0
M  V30 13608 C 1589 -3.3581 -1.70025 0
M  V30 13609 C 1588.15 -2.70575 -0.607007 0
M  V30 13610 H 1591.1 -1.58214 0.124158 0
M  V30 13611 H 1591.12 -3.19378 -2.06829 0
M  V30 13612 H 1590.63 -3.86325 -0.37079 0
M  V30 13613 H 1588.73 -2.71434 -2.55253 0
M  V30 13614 H 1588.84 -4.44086 -1.79791 0
M  V30 13615 H 1587.21 -2.32284 -1.04481 0
M  V30 13616 H 1587.99 -3.42655 0.21036 0
M  V30 13617 N 1590.44 0.372521 -1.53134 0
M  V30 13618 C 1591.68 1.11368 -1.68646 0
M  V30 13619 C 1592 1.90034 -0.437275 0
M  V30 13620 O 1591.27 1.88062 0.548593 0
M  V30 13621 H 1589.85 0.414129 -0.621696 0
M  V30 13622 H 1592.52 0.42082 -1.90303 0
M  V30 13623 H 1591.61 1.80738 -2.54441 0
M  V30 13624 N 1591.91 1.44376 0.631925 0
M  V30 13625 C 1593.32 1.41881 1.21353 0
M  V30 13626 C 1593.68 0.13375 1.95744 0
M  V30 13627 O 1592.8 -0.765919 2.02392 0
M  V30 13628 C 1593.4 2.57027 2.20732 0
M  V30 13629 C 1591.95 2.5773 2.74322 0
M  V30 13630 C 1591.1 2.33672 1.49307 0
M  V30 13631 H 1594.05 1.52968 0.42265 0
M  V30 13632 H 1594.07 2.29735 3.03319 0
M  V30 13633 H 1593.59 3.50541 1.66561 0
M  V30 13634 H 1591.69 1.68155 3.32498 0
M  V30 13635 H 1591.8 3.5619 3.20415 0
M  V30 13636 H 1590.16 1.8275 1.7741 0
M  V30 13637 H 1590.95 3.293 0.970395 0
M  V30 13638 N 1593.39 -0.872258 1.31261 0
M  V30 13639 C 1594.35 -1.96081 1.1868 0
M  V30 13640 C 1595.35 -1.60392 0.11452 0
M  V30 13641 O 1596.54 -1.70363 0.363613 0
M  V30 13642 C 1593.68 -3.30862 0.821183 0
M  V30 13643 H 1594.87 -2.08667 2.15402 0
M  V30 13644 H 1592.42 -1.06026 1.14839 0
M  V30 13645 H 1593.16 -3.23976 -0.14498 0
M  V30 13646 H 1592.94 -3.58137 1.59625 0
M  V30 13647 H 1594.43 -4.10682 0.756991 0
M  V30 13648 N 1594.87 -1.14184 -1.08627 0
M  V30 13649 C 1596.12 -0.906869 -1.80611 0
M  V30 13650 C 1596.44 0.568182 -1.86539 0
M  V30 13651 O 1595.71 1.41301 -1.35687 0
M  V30 13652 H 1594.29 -0.332523 -0.668908 0
M  V30 13653 H 1596.95 -1.43998 -1.31341 0
M  V30 13654 H 1596.05 -1.30484 -2.83514 0
M  V30 13655 N 1596.35 1.26749 -0.936613 0
M  V30 13656 C 1597.76 1.75925 -0.62507 0
M  V30 13657 C 1598.11 1.76359 0.859771 0
M  V30 13658 O 1597.24 1.37277 1.67284 0
M  V30 13659 C 1597.83 3.19474 -1.12791 0
M  V30 13660 C 1596.39 3.66282 -0.866872 0
M  V30 13661 C 1595.54 2.45913 -1.28148 0
M  V30 13662 H 1598.49 1.1289 -1.11542 0
M  V30 13663 H 1598.51 3.77465 -0.479643 0
M  V30 13664 H 1598.02 3.19126 -2.20862 0
M  V30 13665 H 1596.12 3.72065 0.199647 0
M  V30 13666 H 1596.23 4.55319 -1.49067 0
M  V30 13667 H 1594.6 2.44894 -0.699941 0
M  V30 13668 H 1595.38 2.4827 -2.37101 0
M  V30 13669 N 1597.83 0.703118 1.41046 0
M  V30 13670 C 1599.05 0.246552 2.05426 0
M  V30 13671 C 1599.47 -1.10704 1.52938 0
M  V30 13672 O 1598.83 -1.69329 0.680733 0
M  V30 13673 C 1598.88 0.203953 3.60924 0
M  V30 13674 O 1598.6 1.50408 4.11472 0
M  V30 13675 C 1600.1 -0.272686 4.42461 0
M  V30 13676 H 1597.32 0.113157 0.66139 0
M  V30 13677 H 1599.86 0.957823 1.80682 0
M  V30 13678 H 1598.02 -0.458194 3.84681 0
M  V30 13679 H 1598.43 1.39622 5.05575 0
M  V30 13680 H 1599.91 -0.251357 5.51427 0
M  V30 13681 H 1600.38 -1.31282 4.1912 0
M  V30 13682 H 1600.99 0.358733 4.23784 0
M  V30 13683 N 1599.3 -1.51086 0.448402 0
M  V30 13684 C 1600.55 -2.01778 -0.114116 0
M  V30 13685 C 1600.87 -1.3339 -1.4224 0
M  V30 13686 O 1600.14 -0.471938 -1.9013 0
M  V30 13687 H 1598.72 -0.745634 -0.0451624 0
M  V30 13688 H 1601.39 -1.85639 0.59364 0
M  V30 13689 H 1600.48 -3.10823 -0.28205 0
M  V30 13690 N 1600.78 -0.180154 -1.56567 0
M  V30 13691 C 1601.73 0.746666 -2.18389 0
M  V30 13692 C 1602.7 1.22058 -1.12655 0
M  V30 13693 O 1603.88 1.28716 -1.40843 0
M  V30 13694 C 1601.02 1.96688 -2.83563 0
M  V30 13695 C 1600.14 1.53572 -4.03782 0
M  V30 13696 C 1599.27 2.71028 -4.56856 0
M  V30 13697 C 1598.31 2.24445 -5.69465 0
M  V30 13698 N 1597.45 3.35026 -6.17011 0
M  V30 13699 H 1602.29 0.212707 -2.9724 0
M  V30 13700 H 1599.83 0.093256 -1.46804 0
M  V30 13701 H 1601.78 2.68269 -3.19511 0
M  V30 13702 H 1600.41 2.4744 -2.073 0
M  V30 13703 H 1599.47 0.716323 -3.73595 0
M  V30 13704 H 1600.78 1.15385 -4.85271 0
M  V30 13705 H 1599.93 3.50753 -4.95032 0
M  V30 13706 H 1598.67 3.1248 -3.74443 0
M  V30 13707 H 1597.68 1.43169 -5.30832 0
M  V30 13708 H 1598.9 1.84041 -6.53686 0
M  V30 13709 H 1596.85 3.76037 -5.37524 0
M  V30 13710 H 1596.76 3.0096 -6.93512 0
M  V30 13711 H 1598.03 4.15009 -6.59839 0
M  V30 13712 N 1602.26 1.57322 0.0935319 0
M  V30 13713 C 1603.19 1.98861 1.13961 0
M  V30 13714 C 1604.21 0.891385 1.36228 0
M  V30 13715 O 1605.39 1.16949 1.34853 0
M  V30 13716 C 1602.49 2.29369 2.49485 0
M  V30 13717 C 1601.67 3.6066 2.47473 0
M  V30 13718 C 1600.73 3.79087 3.64937 0
M  V30 13719 O 1599.75 4.50923 3.47357 0
M  V30 13720 N 1600.95 3.19784 4.84478 0
M  V30 13721 H 1603.72 2.89208 0.786048 0
M  V30 13722 H 1601.28 1.59416 0.282491 0
M  V30 13723 H 1603.27 2.38889 3.26671 0
M  V30 13724 H 1601.84 1.45021 2.76925 0
M  V30 13725 H 1601.06 3.62095 1.55823 0
M  V30 13726 H 1602.35 4.46908 2.43209 0
M  V30 13727 H 1601.75 2.61436 5.01665 0
M  V30 13728 H 1600.31 3.34786 5.59251 0
M  V30 13729 N 1603.74 -0.364395 1.53329 0
M  V30 13730 C 1604.99 -1.10473 1.69234 0
M  V30 13731 C 1605.31 -1.89799 0.447347 0
M  V30 13732 O 1604.58 -1.8835 -0.538612 0
M  V30 13733 H 1603.16 -0.410826 0.623884 0
M  V30 13734 H 1605.82 -0.410721 1.90523 0
M  V30 13735 H 1604.92 -1.79387 2.55396 0
M  V30 13736 N 1605.22 -1.44709 -0.62426 0
M  V30 13737 C 1606.49 -1.38328 -1.38292 0
M  V30 13738 C 1606.87 -0.0454388 -2.11051 0
M  V30 13739 O 1606.22 0.972183 -2.06787 0
M  V30 13740 C 1606.43 -2.58602 -2.34364 0
M  V30 13741 C 1607.78 -3.02966 -2.97484 0
M  V30 13742 O 1608.8 -2.58856 -2.44688 0
M  V30 13743 O 1607.66 -3.79466 -3.93278 0
M  V30 13744 H 1604.76 -0.54812 -0.619269 0
M  V30 13745 H 1607.3 -1.5681 -0.648741 0
M  V30 13746 H 1606.07 -3.47573 -1.79746 0
M  V30 13747 H 1605.7 -2.42368 -3.15188 0
M  V30 13748 N 1606.69 0.865285 -1.31722 0
M  V30 13749 C 1608.11 1.15179 -1.10481 0
M  V30 13750 C 1608.31 2.01132 0.121667 0
M  V30 13751 O 1607.37 2.39167 0.809645 0
M  V30 13752 C 1608.68 1.8394 -2.3788 0
M  V30 13753 C 1610.23 1.96621 -2.43535 0
M  V30 13754 C 1610.7 2.68796 -3.70827 0
M  V30 13755 N 1612.19 2.76329 -3.71748 0
M  V30 13756 C 1612.93 3.32798 -4.6694 0
M  V30 13757 N 1612.42 3.90162 -5.7249 0
M  V30 13758 N 1614.22 3.30801 -4.54453 0
M  V30 13759 H 1606.37 0.292632 -2.10374 0
M  V30 13760 H 1608.63 0.192252 -0.928301 0
M  V30 13761 H 1608.34 1.28233 -3.27489 0
M  V30 13762 H 1608.21 2.84182 -2.48034 0
M  V30 13763 H 1610.6 2.5149 -1.54392 0
M  V30 13764 H 1610.68 0.954071 -2.37342 0
M  V30 13765 H 1610.32 2.14593 -4.60339 0
M  V30 13766 H 1610.25 3.70427 -3.74288 0
M  V30 13767 H 1612.74 2.35621 -2.95451 0
M  V30 13768 H 1613.06 4.31376 -6.41198 0
M  V30 13769 H 1611.4 3.88525 -5.76258 0
M  V30 13770 H 1614.59 2.85227 -3.71165 0
M  V30 13771 H 1614.77 3.74511 -5.28815 0
M  V30 13772 N 1608.17 1.14759 1.0802 0
M  V30 13773 C 1609.42 0.916435 1.80127 0
M  V30 13774 C 1609.74 -0.558281 1.86837 0
M  V30 13775 O 1609.01 -1.40579 1.36434 0
M  V30 13776 H 1607.59 0.336066 0.667135 0
M  V30 13777 H 1610.25 1.44693 1.30576 0
M  V30 13778 H 1609.35 1.31986 2.82818 0
M  V30 13779 N 1609.65 -1.26251 0.943322 0
M  V30 13780 C 1610.56 -2.3003 0.460778 0
M  V30 13781 C 1611.58 -1.67635 -0.4663 0
M  V30 13782 O 1612.75 -1.98418 -0.345307 0
M  V30 13783 C 1609.82 -3.45691 -0.264291 0
M  V30 13784 C 1608.88 -4.23561 0.69961 0
M  V30 13785 C 1608.11 -5.33699 0.00904846 0
M  V30 13786 O 1608.33 -5.57473 -1.20748 0
M  V30 13787 O 1607.27 -5.97945 0.688839 0
M  V30 13788 H 1611.09 -2.73374 1.32289 0
M  V30 13789 H 1608.68 -1.31489 0.709297 0
M  V30 13790 H 1610.56 -4.15997 -0.672634 0
M  V30 13791 H 1609.24 -3.04373 -1.10176 0
M  V30 13792 H 1608.14 -3.55728 1.15794 0
M  V30 13793 H 1609.48 -4.68634 1.50476 0
M  V30 13794 N 1611.13 -0.710588 -1.40671 0
M  V30 13795 C 1612.09 -0.0635988 -2.29112 0
M  V30 13796 C 1613.09 0.692537 -1.45123 0
M  V30 13797 O 1614.28 0.525184 -1.66095 0
M  V30 13798 C 1611.41 0.919955 -3.28252 0
M  V30 13799 H 1612.61 -0.842477 -2.87823 0
M  V30 13800 H 1610.16 -0.474948 -1.48909 0
M  V30 13801 H 1610.9 1.72607 -2.7455 0
M  V30 13802 H 1610.68 0.38071 -3.90247 0
M  V30 13803 H 1612.17 1.36997 -3.94489 0
M  V30 13804 N 1612.61 1.50847 -0.456408 0
M  V30 13805 C 1613.86 2.01835 0.103414 0
M  V30 13806 C 1614.18 1.34142 1.4153 0
M  V30 13807 O 1613.45 0.482015 1.89877 0
M  V30 13808 H 1612.03 0.745863 0.0412074 0
M  V30 13809 H 1614.69 1.85322 -0.603477 0
M  V30 13810 H 1613.78 3.10968 0.265562 0
M  V30 13811 N 1614.09 0.188454 1.56469 0
M  V30 13812 C 1615.05 -0.721282 2.17555 0
M  V30 13813 C 1616.05 -1.14579 1.1282 0
M  V30 13814 O 1617.24 -1.05996 1.38241 0
M  V30 13815 C 1614.37 -1.9839 2.77226 0
M  V30 13816 H 1615.56 -0.189218 2.99302 0
M  V30 13817 H 1613.12 -0.0611533 1.5618 0
M  V30 13818 H 1613.85 -2.55864 1.99259 0
M  V30 13819 H 1613.64 -1.68831 3.53891 0
M  V30 13820 H 1615.13 -2.63277 3.24153 0
M  V30 13821 N 1615.56 -1.5737 -0.0851874 0
M  V30 13822 C 1616.5 -1.99462 -1.12905 0
M  V30 13823 C 1617.51 -0.898597 -1.35754 0
M  V30 13824 O 1618.7 -1.17662 -1.34231 0
M  V30 13825 C 1615.8 -2.30689 -2.48266 0
M  V30 13826 C 1614.97 -3.61967 -2.45557 0
M  V30 13827 C 1614.03 -3.81017 -3.62922 0
M  V30 13828 O 1613.06 -4.52759 -3.44961 0
M  V30 13829 N 1614.26 -3.22348 -4.82775 0
M  V30 13830 H 1617.02 -2.89621 -0.7707 0
M  V30 13831 H 1614.58 -1.59564 -0.274033 0
M  V30 13832 H 1616.58 -2.40618 -3.254 0
M  V30 13833 H 1615.15 -1.46488 -2.76152 0
M  V30 13834 H 1614.37 -3.62916 -1.539 0
M  V30 13835 H 1615.65 -4.48191 -2.40836 0
M  V30 13836 H 1615.05 -2.64093 -5.00271 0
M  V30 13837 H 1613.61 -3.37747 -5.57468 0
M  V30 13838 N 1617.04 0.356258 -1.53521 0
M  V30 13839 C 1618.29 1.09573 -1.69818 0
M  V30 13840 C 1618.61 1.89559 -0.457406 0
M  V30 13841 O 1617.88 1.88633 0.528616 0
M  V30 13842 H 1616.46 0.407512 -0.626054 0
M  V30 13843 H 1619.12 0.400612 -1.90738 0
M  V30 13844 H 1618.22 1.7803 -2.56343 0
M  V30 13845 N 1618.52 1.45038 0.616577 0
M  V30 13846 C 1619.93 1.4316 1.19842 0
M  V30 13847 C 1620.28 0.154504 1.95591 0
M  V30 13848 O 1619.41 -0.744409 2.03193 0
M  V30 13849 C 1620 2.59354 2.17993 0
M  V30 13850 C 1618.56 2.60625 2.71573 0
M  V30 13851 C 1617.71 2.35243 1.4682 0
M  V30 13852 H 1620.66 1.53408 0.406402 0
M  V30 13853 H 1620.68 2.32939 3.00865 0
M  V30 13854 H 1620.19 3.52288 1.62833 0
M  V30 13855 H 1618.29 1.71672 3.30695 0
M  V30 13856 H 1618.41 3.59568 3.16619 0
M  V30 13857 H 1616.77 1.84622 1.75462 0
M  V30 13858 H 1617.55 3.3031 0.935414 0
M  V30 13859 N 1620 -0.858287 1.32179 0
M  V30 13860 C 1620.93 -1.97021 1.15143 0
M  V30 13861 C 1621.91 -1.62517 0.0518379 0
M  V30 13862 O 1623.09 -1.87321 0.210465 0
M  V30 13863 C 1620.22 -3.3002 0.761887 0
M  V30 13864 C 1619.27 -3.83504 1.8662 0
M  V30 13865 S 1620.1 -4.07535 3.47383 0
M  V30 13866 C 1621.25 -5.43514 3.10392 0
M  V30 13867 H 1621.49 -2.11169 2.09272 0
M  V30 13868 H 1619.02 -1.00983 1.16798 0
M  V30 13869 H 1620.98 -4.06881 0.543893 0
M  V30 13870 H 1619.64 -3.1369 -0.160479 0
M  V30 13871 H 1618.83 -4.79685 1.54655 0
M  V30 13872 H 1618.43 -3.13474 2.03986 0
M  V30 13873 H 1620.73 -6.2562 2.60011 0
M  V30 13874 H 1621.67 -5.80439 4.05581 0
M  V30 13875 H 1622.08 -5.07344 2.47511 0
M  V30 13876 N 1621.48 -1.1533 -1.07409 0
M  V30 13877 C 1622.72 -0.925974 -1.79639 0
M  V30 13878 C 1623.04 0.548365 -1.87131 0
M  V30 13879 O 1622.31 1.39854 -1.37178 0
M  V30 13880 H 1620.89 -0.339599 -0.665343 0
M  V30 13881 H 1623.56 -1.45383 -1.29806 0
M  V30 13882 H 1622.65 -1.33484 -2.82114 0
M  V30 13883 N 1622.95 1.25748 -0.950004 0
M  V30 13884 C 1624.36 1.75253 -0.643694 0
M  V30 13885 C 1624.72 1.77261 0.841017 0
M  V30 13886 O 1623.84 1.39043 1.65819 0
M  V30 13887 C 1624.44 3.1826 -1.16173 0
M  V30 13888 C 1622.99 3.65342 -0.905672 0
M  V30 13889 C 1622.14 2.4454 -1.30749 0
M  V30 13890 H 1625.09 1.117 -1.12733 0
M  V30 13891 H 1625.11 3.76935 -0.519651 0
M  V30 13892 H 1624.63 3.16766 -2.24234 0
M  V30 13893 H 1622.73 3.72256 0.160174 0
M  V30 13894 H 1622.84 4.53713 -1.53888 0
M  V30 13895 H 1621.2 2.44138 -0.725876 0
M  V30 13896 H 1621.99 2.45741 -2.39721 0
M  V30 13897 N 1624.43 0.718038 1.40292 0
M  V30 13898 C 1625.66 0.266918 2.05675 0
M  V30 13899 C 1626.08 -1.08364 1.53749 0
M  V30 13900 O 1625.44 -1.6831 0.673912 0
M  V30 13901 C 1625.49 0.259606 3.59664 0
M  V30 13902 O 1624.59 -0.758372 4.05367 0
M  V30 13903 H 1623.93 0.124786 0.652169 0
M  V30 13904 H 1626.46 0.979207 1.79646 0
M  V30 13905 H 1626.47 0.098135 4.07882 0
M  V30 13906 H 1625.15 1.24517 3.96823 0
M  V30 13907 H 1623.72 -0.564425 3.68604 0
M  V30 13908 N 1625.91 -1.50602 0.464402 0
M  V30 13909 C 1627.16 -2.01887 -0.0927084 0
M  V30 13910 C 1627.48 -1.34891 -1.40817 0
M  V30 13911 O 1626.75 -0.492078 -1.89619 0
M  V30 13912 H 1625.33 -0.746071 -0.0372514 0
M  V30 13913 H 1627.99 -1.84999 0.613296 0
M  V30 13914 H 1627.09 -3.11105 -0.249067 0
M  V30 13915 N 1627.39 -0.19675 -1.56367 0
M  V30 13916 C 1628.8 0.315555 -1.84014 0
M  V30 13917 C 1629.15 1.61267 -1.11747 0
M  V30 13918 O 1628.28 2.13058 -0.378824 0
M  V30 13919 C 1628.87 0.579307 -3.33811 0
M  V30 13920 C 1627.43 1.03598 -3.61862 0
M  V30 13921 C 1626.58 0.0854845 -2.77168 0
M  V30 13922 H 1629.53 -0.4205 -1.53028 0
M  V30 13923 H 1629.55 1.42841 -3.52671 0
M  V30 13924 H 1629.06 -0.364925 -3.86381 0
M  V30 13925 H 1627.16 1.99443 -3.14727 0
M  V30 13926 H 1627.27 0.927547 -4.70035 0
M  V30 13927 H 1625.64 0.58768 -2.47827 0
M  V30 13928 H 1626.42 -0.853221 -3.32528 0
M  V30 13929 N 1628.87 1.57413 0.0768405 0
M  V30 13930 C 1629.83 2.02363 1.0762 0
M  V30 13931 C 1630.83 0.919879 1.3189 0
M  V30 13932 O 1632.02 1.18489 1.27695 0
M  V30 13933 C 1629.15 2.39995 2.42106 0
M  V30 13934 H 1630.34 2.91881 0.688889 0
M  V30 13935 H 1627.9 1.52938 0.322422 0
M  V30 13936 H 1628.63 1.53488 2.85678 0
M  V30 13937 H 1628.42 3.20534 2.25833 0
M  V30 13938 H 1629.91 2.75365 3.13948 0
M  V30 13939 N 1630.34 -0.348112 1.53707 0
M  V30 13940 C 1631.59 -1.08671 1.70396 0
M  V30 13941 C 1631.91 -1.89314 0.467453 0
M  V30 13942 O 1631.18 -1.88911 -0.518605 0
M  V30 13943 H 1629.76 -0.404186 0.628206 0
M  V30 13944 H 1632.43 -0.390491 1.90948 0
M  V30 13945 H 1631.52 -1.76668 2.57284 0
M  V30 13946 N 1631.82 -1.45363 -0.608876 0
M  V30 13947 C 1632.79 -1.53551 -1.70161 0
M  V30 13948 C 1633.79 -0.415146 -1.55349 0
M  V30 13949 O 1634.98 -0.67858 -1.6044 0
M  V30 13950 C 1632.11 -1.43081 -3.0942 0
M  V30 13951 H 1633.3 -2.5091 -1.64268 0
M  V30 13952 H 1630.85 -1.32785 -0.824493 0
M  V30 13953 H 1631.59 -0.469016 -3.20891 0
M  V30 13954 H 1631.37 -2.24343 -3.21579 0
M  V30 13955 H 1632.86 -1.51841 -3.89017 0
M  V30 13956 N 1633.3 0.851265 -1.32632 0
M  V30 13957 C 1634.72 1.14 -1.11696 0
M  V30 13958 C 1634.92 2.0125 0.100327 0
M  V30 13959 O 1633.97 2.40013 0.784233 0
M  V30 13960 C 1635.29 1.81406 -2.39817 0
M  V30 13961 C 1636.83 1.94027 -2.45607 0
M  V30 13962 C 1637.31 2.64848 -3.73657 0
M  V30 13963 N 1638.8 2.7237 -3.74658 0
M  V30 13964 C 1639.53 3.27827 -4.70443 0
M  V30 13965 N 1639.03 3.84068 -5.76596 0
M  V30 13966 N 1640.82 3.25962 -4.57936 0
M  V30 13967 H 1632.97 0.270302 -2.10673 0
M  V30 13968 H 1635.24 0.182395 -0.930288 0
M  V30 13969 H 1634.94 1.24753 -3.28831 0
M  V30 13970 H 1634.82 2.81535 -2.51034 0
M  V30 13971 H 1637.2 2.49838 -1.5705 0
M  V30 13972 H 1637.29 0.928844 -2.3834 0
M  V30 13973 H 1636.93 2.09699 -4.62589 0
M  V30 13974 H 1636.86 3.66436 -3.78196 0
M  V30 13975 H 1639.35 2.32474 -2.97933 0
M  V30 13976 H 1639.66 4.24551 -6.45737 0
M  V30 13977 H 1638.01 3.82391 -5.80347 0
M  V30 13978 H 1641.2 2.81274 -3.74169 0
M  V30 13979 H 1641.37 3.68881 -5.32758 0
M  V30 13980 N 1634.78 1.15898 1.06796 0
M  V30 13981 C 1636.03 0.935488 1.79145 0
M  V30 13982 C 1636.35 -0.538433 1.87419 0
M  V30 13983 O 1635.62 -1.39124 1.37917 0
M  V30 13984 H 1634.2 0.343123 0.663533 0
M  V30 13985 H 1636.86 1.4607 1.29034 0
M  V30 13986 H 1635.96 1.34978 2.81402 0
M  V30 13987 N 1636.26 -1.25243 0.956659 0
M  V30 13988 C 1637.51 -1.92312 0.608196 0
M  V30 13989 C 1637.82 -1.75726 -0.859058 0
M  V30 13990 O 1639.02 -2.37386 -1.31757 0
M  V30 13991 C 1637.48 -3.44634 1.03708 0
M  V30 13992 C 1637.09 -3.69927 2.52702 0
M  V30 13993 C 1638.83 -4.17619 0.761242 0
M  V30 13994 C 1636.74 -5.15765 2.8938 0
M  V30 13995 H 1635.67 -0.720033 0.22376 0
M  V30 13996 H 1638.32 -1.42071 1.16138 0
M  V30 13997 H 1636.7 -3.93848 0.412287 0
M  V30 13998 H 1637.88 -3.31357 3.20217 0
M  V30 13999 H 1636.19 -3.10207 2.77778 0
M  V30 14000 H 1638.79 -5.25047 1.01141 0
M  V30 14001 H 1639.13 -4.152 -0.302375 0
M  V30 14002 H 1639.66 -3.74319 1.34648 0
M  V30 14003 H 1636.4 -5.23296 3.94767 0
M  V30 14004 H 1635.92 -5.55374 2.26539 0
M  V30 14005 H 1637.6 -5.83905 2.78683 0
M  V30 14006 N 1637.73 -0.725468 -1.3991 0
M  V30 14007 C 1638.67 -0.0397832 -2.29165 0
M  V30 14008 C 1639.68 0.713458 -1.46334 0
M  V30 14009 O 1640.87 0.559199 -1.69515 0
M  V30 14010 C 1637.97 0.967929 -3.24784 0
M  V30 14011 C 1637.14 0.278181 -4.36515 0
M  V30 14012 C 1636.2 1.19266 -5.12506 0
M  V30 14013 O 1635.23 0.673726 -5.65199 0
M  V30 14014 N 1636.43 2.5231 -5.228 0
M  V30 14015 H 1639.19 -0.806204 -2.88653 0
M  V30 14016 H 1636.75 -0.573904 -1.51387 0
M  V30 14017 H 1638.75 1.58209 -3.72494 0
M  V30 14018 H 1637.32 1.63563 -2.66394 0
M  V30 14019 H 1636.54 -0.516326 -3.90804 0
M  V30 14020 H 1637.82 -0.200203 -5.08406 0
M  V30 14021 H 1637.22 2.96957 -4.8149 0
M  V30 14022 H 1635.78 3.08846 -5.73984 0
M  V30 14023 N 1639.21 1.50354 -0.472382 0
M  V30 14024 C 1640.46 2.01934 0.0820006 0
M  V30 14025 C 1640.78 1.35636 1.401 0
M  V30 14026 O 1640.05 0.502127 1.89355 0
M  V30 14027 H 1638.63 0.746258 0.0332943 0
M  V30 14028 H 1641.29 1.84671 -0.623099 0
M  V30 14029 H 1640.39 3.11232 0.232565 0
M  V30 14030 N 1640.69 0.205039 1.56261 0
M  V30 14031 C 1642.1 -0.305792 1.84179 0
M  V30 14032 C 1642.45 -1.60672 1.126 0
M  V30 14033 O 1641.58 -2.12855 0.390118 0
M  V30 14034 C 1642.17 -0.561596 3.34113 0
M  V30 14035 C 1640.73 -1.01677 3.62407 0
M  V30 14036 C 1639.88 -0.0707844 2.7721 0
M  V30 14037 H 1642.83 0.428609 1.52803 0
M  V30 14038 H 1642.85 -1.40969 3.53423 0
M  V30 14039 H 1642.36 0.38541 3.86182 0
M  V30 14040 H 1640.46 -1.97771 3.1578 0
M  V30 14041 H 1640.58 -0.902607 4.70521 0
M  V30 14042 H 1638.94 -0.574529 2.48136 0
M  V30 14043 H 1639.72 0.870844 3.32071 0
M  V30 14044 N 1642.17 -1.57451 -0.0684915 0
M  V30 14045 C 1643.1 -2.00648 -1.10783 0
M  V30 14046 C 1644.11 -0.912944 -1.34793 0
M  V30 14047 O 1645.3 -1.19079 -1.32975 0
M  V30 14048 C 1642.4 -2.33309 -2.45805 0
M  V30 14049 C 1641.58 -3.64551 -2.41704 0
M  V30 14050 C 1640.64 -3.84845 -3.5886 0
M  V30 14051 O 1639.66 -4.56392 -3.40139 0
M  V30 14052 N 1640.86 -3.27451 -4.79329 0
M  V30 14053 H 1643.63 -2.90422 -0.739938 0
M  V30 14054 H 1641.19 -1.59846 -0.257093 0
M  V30 14055 H 1643.18 -2.44056 -3.22829 0
M  V30 14056 H 1641.75 -1.49408 -2.74583 0
M  V30 14057 H 1640.97 -3.64528 -1.50043 0
M  V30 14058 H 1642.26 -4.50721 -2.36068 0
M  V30 14059 H 1641.66 -2.69384 -4.97442 0
M  V30 14060 H 1640.21 -3.43641 -5.53854 0
M  V30 14061 N 1643.65 0.339955 -1.5389 0
M  V30 14062 C 1644.9 1.07766 -1.7097 0
M  V30 14063 C 1645.22 1.89064 -0.477486 0
M  V30 14064 O 1644.49 1.89183 0.508579 0
M  V30 14065 H 1643.07 0.400849 -0.630341 0
M  V30 14066 H 1645.73 0.380359 -1.91153 0
M  V30 14067 H 1644.82 1.75301 -2.58217 0
M  V30 14068 N 1645.13 1.45684 0.601159 0
M  V30 14069 C 1646.54 1.44423 1.18317 0
M  V30 14070 C 1646.89 0.17524 1.95416 0
M  V30 14071 O 1646.01 -0.722816 2.03971 0
M  V30 14072 C 1646.61 2.61651 2.1523 0
M  V30 14073 C 1645.17 2.6349 2.68793 0
M  V30 14074 C 1644.31 2.36787 1.44317 0
M  V30 14075 H 1647.26 1.53831 0.390108 0
M  V30 14076 H 1647.29 2.36117 2.98377 0
M  V30 14077 H 1646.8 3.53995 1.59088 0
M  V30 14078 H 1644.9 1.7517 3.28856 0
M  V30 14079 H 1645.01 3.62906 3.12787 0
M  V30 14080 H 1643.38 1.86472 1.73494 0
M  V30 14081 H 1644.16 3.31284 0.900327 0
M  V30 14082 N 1646.6 -0.84422 1.33082 0
M  V30 14083 C 1648.02 -1.13406 1.12299 0
M  V30 14084 C 1648.22 -2.013 -0.0896529 0
M  V30 14085 O 1647.28 -2.40425 -0.771493 0
M  V30 14086 C 1648.59 -1.80132 2.40776 0
M  V30 14087 C 1650.14 -1.92721 2.46632 0
M  V30 14088 C 1650.61 -2.62863 3.75056 0
M  V30 14089 N 1652.1 -2.70379 3.76097 0
M  V30 14090 C 1652.84 -3.25328 4.72175 0
M  V30 14091 N 1652.33 -3.81005 5.78625 0
M  V30 14092 N 1654.13 -3.23529 4.59658 0
M  V30 14093 H 1646.28 -0.259126 2.10813 0
M  V30 14094 H 1648.54 -0.177459 0.931242 0
M  V30 14095 H 1648.25 -1.23007 3.29488 0
M  V30 14096 H 1648.12 -2.802 2.52523 0
M  V30 14097 H 1650.51 -2.49002 1.58373 0
M  V30 14098 H 1650.59 -0.916191 2.3883 0
M  V30 14099 H 1650.23 -2.07242 4.63695 0
M  V30 14100 H 1650.16 -3.64425 3.80134 0
M  V30 14101 H 1652.65 -2.30891 2.99162 0
M  V30 14102 H 1652.97 -4.21121 6.47979 0
M  V30 14103 H 1651.31 -3.79308 5.82366 0
M  V30 14104 H 1654.5 -2.79286 3.75656 0
M  V30 14105 H 1654.68 -3.66051 5.34706 0
M  V30 14106 N 1648.08 -1.16463 -1.0618 0
M  V30 14107 C 1649.33 -0.944975 -1.78647 0
M  V30 14108 C 1649.65 0.528486 -1.87702 0
M  V30 14109 O 1648.92 1.38391 -1.38653 0
M  V30 14110 H 1647.5 -0.346637 -0.661704 0
M  V30 14111 H 1650.16 -1.46752 -1.28257 0
M  V30 14112 H 1649.26 -1.36469 -2.80683 0
M  V30 14113 N 1649.56 1.24734 -0.963288 0
M  V30 14114 C 1650.84 1.88004 -0.539809 0
M  V30 14115 C 1651.22 1.86814 0.983035 0
M  V30 14116 O 1650.56 1.33769 1.85251 0
M  V30 14117 C 1650.77 3.30326 -1.1263 0
M  V30 14118 C 1652.12 4.07039 -1.20848 0
M  V30 14119 O 1653.15 3.3948 -1.07849 0
M  V30 14120 O 1652.01 5.27906 -1.41342 0
M  V30 14121 H 1649.1 0.807318 -0.17935 0
M  V30 14122 H 1651.65 1.3274 -1.05727 0
M  V30 14123 H 1650.42 3.25668 -2.16925 0
M  V30 14124 H 1650.04 3.93159 -0.592614 0
M  V30 14125 N 1651.04 0.732878 1.39523 0
M  V30 14126 C 1651.98 0.0915149 2.30618 0
M  V30 14127 C 1652.95 -0.731943 1.49103 0
M  V30 14128 O 1654.14 -0.692343 1.77796 0
M  V30 14129 C 1651.28 -0.811387 3.35426 0
M  V30 14130 C 1650.39 0.0244578 4.31993 0
M  V30 14131 C 1649.53 -0.879521 5.23868 0
M  V30 14132 C 1648.57 -0.0387974 6.12088 0
M  V30 14133 N 1647.7 -0.898593 6.96326 0
M  V30 14134 H 1652.54 0.87399 2.84895 0
M  V30 14135 H 1650.08 0.442659 1.40282 0
M  V30 14136 H 1652.04 -1.3493 3.94778 0
M  V30 14137 H 1650.67 -1.55986 2.8261 0
M  V30 14138 H 1649.72 0.679762 3.74277 0
M  V30 14139 H 1651.03 0.674606 4.94217 0
M  V30 14140 H 1650.19 -1.48535 5.88237 0
M  V30 14141 H 1648.93 -1.56345 4.6196 0
M  V30 14142 H 1647.93 0.579847 5.46734 0
M  V30 14143 H 1649.16 0.641887 6.7606 0
M  V30 14144 H 1647.1 -1.56786 6.36988 0
M  V30 14145 H 1647.02 -0.304876 7.55385 0
M  V30 14146 H 1648.29 -1.49005 7.65126 0
M  V30 14147 N 1652.52 -1.50101 0.480349 0
M  V30 14148 C 1653.76 -2.01974 -0.0712904 0
M  V30 14149 C 1654.08 -1.36377 -1.39378 0
M  V30 14150 O 1653.35 -0.512162 -1.89087 0
M  V30 14151 H 1651.93 -0.746424 -0.0293362 0
M  V30 14152 H 1654.6 -1.84338 0.632883 0
M  V30 14153 H 1653.69 -3.11351 -0.216057 0
M  V30 14154 N 1653.99 -0.213323 -1.5615 0
M  V30 14155 C 1654.9 0.711703 -2.23544 0
M  V30 14156 C 1655.92 1.22027 -1.24038 0
M  V30 14157 O 1657.1 1.26361 -1.56828 0
M  V30 14158 C 1654.16 1.90645 -2.89578 0
M  V30 14159 C 1653.22 1.44066 -4.04405 0
M  V30 14160 C 1652.45 2.57846 -4.6728 0
M  V30 14161 O 1652.68 3.75781 -4.29121 0
M  V30 14162 O 1651.61 2.29518 -5.56422 0
M  V30 14163 H 1655.44 0.167635 -3.03237 0
M  V30 14164 H 1653.02 0.016771 -1.49391 0
M  V30 14165 H 1654.9 2.60435 -3.31288 0
M  V30 14166 H 1653.58 2.43877 -2.12851 0
M  V30 14167 H 1652.49 0.711024 -3.67281 0
M  V30 14168 H 1653.82 0.954809 -4.8285 0
M  V30 14169 N 1655.47 1.57485 0.0601405 0
M  V30 14170 C 1656.44 2.03493 1.05467 0
M  V30 14171 C 1657.44 0.933816 1.30907 0
M  V30 14172 O 1658.63 1.19837 1.26431 0
M  V30 14173 C 1655.76 2.42549 2.39547 0
M  V30 14174 H 1656.95 2.92595 0.657893 0
M  V30 14175 H 1654.5 1.53272 0.306183 0
M  V30 14176 H 1655.24 1.56509 2.84034 0
M  V30 14177 H 1655.02 3.22911 2.22421 0
M  V30 14178 H 1656.51 2.7868 3.1101 0
M  V30 14179 N 1656.95 -0.331789 1.54068 0
M  V30 14180 C 1658.2 -1.06858 1.71539 0
M  V30 14181 C 1658.52 -1.88808 0.487506 0
M  V30 14182 O 1657.79 -1.8945 -0.498539 0
M  V30 14183 H 1656.37 -0.3975 0.632457 0
M  V30 14184 H 1659.03 -0.370216 1.91352 0
M  V30 14185 H 1658.13 -1.73929 2.59143 0
M  V30 14186 N 1658.43 -1.46001 -0.593424 0
M  V30 14187 C 1659.34 -1.58316 -1.73128 0
M  V30 14188 C 1660.35 -0.467029 -1.67615 0
M  V30 14189 O 1661.53 -0.729682 -1.87717 0
M  V30 14190 C 1658.6 -1.56007 -3.09617 0
M  V30 14191 C 1657.66 -2.78769 -3.26475 0
M  V30 14192 C 1656.89 -2.76561 -4.56453 0
M  V30 14193 O 1657.11 -1.84694 -5.39671 0
M  V30 14194 O 1656.05 -3.67959 -4.76329 0
M  V30 14195 H 1659.87 -2.54522 -1.65686 0
M  V30 14196 H 1657.46 -1.28672 -0.759204 0
M  V30 14197 H 1659.34 -1.57377 -3.9091 0
M  V30 14198 H 1658.01 -0.629571 -3.17519 0
M  V30 14199 H 1656.92 -2.82956 -2.44717 0
M  V30 14200 H 1658.25 -3.70992 -3.23459 0
M  V30 14201 N 1659.91 0.83715 -1.33527 0
M  V30 14202 C 1661.32 1.40878 -1.22516 0
M  V30 14203 C 1661.67 1.95585 0.155236 0
M  V30 14204 O 1660.79 1.88946 1.05491 0
M  V30 14205 C 1661.39 2.56093 -2.21815 0
M  V30 14206 C 1659.95 3.09205 -2.14638 0
M  V30 14207 C 1659.09 1.82012 -2.09205 0
M  V30 14208 H 1662.05 0.642766 -1.45101 0
M  V30 14209 H 1662.07 3.33775 -1.82687 0
M  V30 14210 H 1661.58 2.16246 -3.22272 0
M  V30 14211 H 1659.68 3.53592 -1.17489 0
M  V30 14212 H 1659.79 3.69261 -3.05259 0
M  V30 14213 H 1658.16 2.02331 -1.54707 0
M  V30 14214 H 1658.94 1.44359 -3.11473 0
M  V30 14215 N 1661.38 1.17024 1.05561 0
M  V30 14216 C 1662.63 0.954436 1.78143 0
M  V30 14217 C 1662.95 -0.518525 1.8798 0
M  V30 14218 O 1662.22 -1.37654 1.39385 0
M  V30 14219 H 1660.8 0.350141 0.659856 0
M  V30 14220 H 1663.47 1.4743 1.27477 0
M  V30 14221 H 1662.56 1.37955 2.79955 0
M  V30 14222 N 1662.86 -1.24221 0.969889 0
M  V30 14223 C 1663.77 -2.29001 0.509467 0
M  V30 14224 C 1664.79 -1.68587 -0.430637 0
M  V30 14225 O 1665.96 -1.99106 -0.303142 0
M  V30 14226 C 1663.03 -3.46174 -0.190906 0
M  V30 14227 C 1662.09 -4.21982 0.789296 0
M  V30 14228 C 1661.32 -5.3356 0.122252 0
M  V30 14229 O 1661.55 -5.59909 -1.08896 0
M  V30 14230 O 1660.48 -5.9635 0.815517 0
M  V30 14231 H 1664.31 -2.70506 1.38058 0
M  V30 14232 H 1661.89 -1.29955 0.737028 0
M  V30 14233 H 1663.77 -4.1733 -0.584244 0
M  V30 14234 H 1662.45 -3.06642 -1.03695 0
M  V30 14235 H 1661.36 -3.53192 1.23313 0
M  V30 14236 H 1662.69 -4.65337 1.60382 0
M  V30 14237 N 1664.34 -0.740267 -1.39132 0
M  V30 14238 C 1665.76 -0.416412 -1.54072 0
M  V30 14239 C 1665.96 1.07211 -1.70611 0
M  V30 14240 O 1665.01 1.85822 -1.70958 0
M  V30 14241 C 1666.33 -1.20403 -2.75542 0
M  V30 14242 C 1667.87 -1.19278 -2.89382 0
M  V30 14243 C 1668.35 -1.96308 -4.13796 0
M  V30 14244 N 1669.84 -1.93501 -4.20846 0
M  V30 14245 C 1670.57 -2.49907 -5.16075 0
M  V30 14246 N 1670.07 -3.14973 -6.17061 0
M  V30 14247 N 1671.86 -2.39911 -5.0833 0
M  V30 14248 H 1664.01 -1.70513 -1.26645 0
M  V30 14249 H 1666.28 -0.722111 -0.614214 0
M  V30 14250 H 1665.98 -2.25754 -2.69681 0
M  V30 14251 H 1665.86 -0.811986 -3.68357 0
M  V30 14252 H 1668.24 -0.147385 -2.94732 0
M  V30 14253 H 1668.33 -1.62424 -1.97616 0
M  V30 14254 H 1667.97 -3.00851 -4.09208 0
M  V30 14255 H 1667.9 -1.50565 -5.04617 0
M  V30 14256 H 1670.39 -1.46104 -3.48514 0
M  V30 14257 H 1670.7 -3.55467 -6.86195 0
M  V30 14258 H 1669.05 -3.19064 -6.17433 0
M  V30 14259 H 1672.24 -1.88718 -4.28373 0
M  V30 14260 H 1672.41 -2.84169 -5.82368 0
M  V30 14261 N 1665.82 1.49844 -0.488302 0
M  V30 14262 C 1667.07 2.02009 0.0605782 0
M  V30 14263 C 1667.39 1.37114 1.38653 0
M  V30 14264 O 1666.66 0.522182 1.88812 0
M  V30 14265 H 1665.24 0.746569 0.0253773 0
M  V30 14266 H 1667.9 1.84 -0.64265 0
M  V30 14267 H 1667 3.11461 0.199542 0
M  V30 14268 N 1667.3 0.221601 1.56034 0
M  V30 14269 C 1668.23 -0.683171 2.23282 0
M  V30 14270 C 1669.21 -1.20101 1.20456 0
M  V30 14271 O 1670.39 -1.245 1.49041 0
M  V30 14272 C 1667.52 -1.89143 2.91277 0
M  V30 14273 C 1666.48 -1.50742 4.00576 0
M  V30 14274 C 1665.8 -2.79446 4.55867 0
M  V30 14275 C 1667.1 -0.697388 5.17623 0
M  V30 14276 H 1668.8 -0.122488 2.99149 0
M  V30 14277 H 1666.34 -0.0574732 1.43885 0
M  V30 14278 H 1668.3 -2.52982 3.37013 0
M  V30 14279 H 1667.02 -2.47708 2.12858 0
M  V30 14280 H 1665.68 -0.892492 3.5557 0
M  V30 14281 H 1665.33 -3.36155 3.74177 0
M  V30 14282 H 1665.03 -2.54486 5.29633 0
M  V30 14283 H 1666.55 -3.44228 5.04321 0
M  V30 14284 H 1667.96 -1.23948 5.59741 0
M  V30 14285 H 1666.36 -0.544875 5.97621 0
M  V30 14286 H 1667.43 0.295981 4.83996 0
M  V30 14287 N 1668.77 -1.57515 -0.0517878 0
M  V30 14288 C 1669.72 -2.05051 -1.05937 0
M  V30 14289 C 1670.69 -0.935032 -1.37282 0
M  V30 14290 O 1671.88 -1.20408 -1.48009 0
M  V30 14291 C 1669.02 -2.51594 -2.36208 0
M  V30 14292 C 1668.13 -3.76843 -2.11219 0
M  V30 14293 C 1667.26 -4.12088 -3.35197 0
M  V30 14294 C 1666.3 -5.30318 -3.05662 0
M  V30 14295 N 1665.44 -5.61104 -4.22026 0
M  V30 14296 H 1670.28 -2.90891 -0.647027 0
M  V30 14297 H 1667.82 -1.43842 -0.307891 0
M  V30 14298 H 1669.78 -2.76638 -3.12293 0
M  V30 14299 H 1668.41 -1.68704 -2.75207 0
M  V30 14300 H 1667.46 -3.5902 -1.25734 0
M  V30 14301 H 1668.77 -4.63057 -1.85416 0
M  V30 14302 H 1667.92 -4.38139 -4.19666 0
M  V30 14303 H 1666.66 -3.24479 -3.64094 0
M  V30 14304 H 1665.67 -5.04043 -2.19592 0
M  V30 14305 H 1666.89 -6.19561 -2.78067 0
M  V30 14306 H 1664.84 -4.76456 -4.50917 0
M  V30 14307 H 1664.76 -6.4178 -3.99568 0
M  V30 14308 H 1666.02 -5.91719 -5.07434 0
M  V30 14309 N 1670.25 0.323614 -1.54242 0
M  V30 14310 C 1671.5 1.05947 -1.72104 0
M  V30 14311 C 1671.82 1.88547 -0.497512 0
M  V30 14312 O 1671.09 1.89712 0.488485 0
M  V30 14313 H 1669.67 0.394141 -0.634557 0
M  V30 14314 H 1672.33 0.360063 -1.91545 0
M  V30 14315 H 1671.43 1.72552 -2.60062 0
M  V30 14316 N 1671.73 1.46313 0.585673 0
M  V30 14317 C 1672.68 1.5307 1.68978 0
M  V30 14318 C 1673.67 0.391901 1.56054 0
M  V30 14319 O 1674.86 0.64013 1.65019 0
M  V30 14320 C 1671.99 1.52113 3.07761 0
M  V30 14321 C 1671.07 2.71276 3.25991 0
M  V30 14322 N 1671.46 3.9622 3.14393 0
M  V30 14323 C 1669.76 2.67436 3.56923 0
M  V30 14324 C 1670.46 4.7587 3.34549 0
M  V30 14325 N 1669.44 4.07693 3.59565 0
M  V30 14326 H 1673.24 2.47474 1.58537 0
M  V30 14327 H 1670.75 1.41911 0.789614 0
M  V30 14328 H 1672.75 1.5504 3.86999 0
M  V30 14329 H 1671.41 0.587834 3.19335 0
M  V30 14330 H 1672.42 4.27513 2.92323 0
M  V30 14331 H 1669.1 1.83116 3.75199 0
M  V30 14332 H 1670.49 5.84831 3.3079 0
M  V30 14333 N 1673.21 -0.830057 1.33969 0
M  V30 14334 C 1674.63 -1.12209 1.13496 0
M  V30 14335 C 1674.83 -2.01384 -0.0682972 0
M  V30 14336 O 1673.88 -2.4123 -0.745949 0
M  V30 14337 C 1675.19 -1.77568 2.42673 0
M  V30 14338 C 1676.74 -1.90095 2.48662 0
M  V30 14339 C 1677.22 -2.5887 3.77823 0
M  V30 14340 N 1678.71 -2.66375 3.78944 0
M  V30 14341 C 1679.44 -3.20301 4.75599 0
M  V30 14342 N 1678.94 -3.74846 5.82634 0
M  V30 14343 N 1680.73 -3.18636 4.63063 0
M  V30 14344 H 1672.88 -0.236752 2.11076 0
M  V30 14345 H 1675.15 -0.167572 0.933072 0
M  V30 14346 H 1674.85 -1.19505 3.30774 0
M  V30 14347 H 1674.73 -2.77505 2.55481 0
M  V30 14348 H 1677.11 -2.47308 1.61005 0
M  V30 14349 H 1677.19 -0.890808 2.39788 0
M  V30 14350 H 1676.84 -2.02313 4.65867 0
M  V30 14351 H 1676.77 -3.60373 3.83978 0
M  V30 14352 H 1679.26 -2.27705 3.01594 0
M  V30 14353 H 1679.57 -4.14224 6.52409 0
M  V30 14354 H 1677.92 -3.7311 5.86357 0
M  V30 14355 H 1681.11 -2.75286 3.78597 0
M  V30 14356 H 1681.28 -3.60359 5.38559 0
M  V30 14357 N 1674.69 -1.17582 -1.04939 0
M  V30 14358 C 1675.94 -0.96387 -1.77634 0
M  V30 14359 C 1676.26 0.508548 -1.88252 0
M  V30 14360 O 1675.53 1.36913 -1.40113 0
M  V30 14361 H 1674.11 -0.353636 -0.65799 0
M  V30 14362 H 1676.77 -1.48104 -1.26693 0
M  V30 14363 H 1675.86 -1.39438 -2.79219 0
M  V30 14364 N 1676.17 1.23705 -0.976463 0
M  V30 14365 C 1677.41 1.92015 -0.643168 0
M  V30 14366 C 1677.74 1.76239 0.822796 0
M  V30 14367 O 1677 1.11469 1.60851 0
M  V30 14368 C 1677.29 3.43853 -0.974676 0
M  V30 14369 C 1676.96 3.79805 -2.43021 0
M  V30 14370 C 1675.62 3.89329 -2.82801 0
M  V30 14371 C 1677.97 3.97218 -3.37442 0
M  V30 14372 C 1675.3 4.13691 -4.16025 0
M  V30 14373 C 1677.65 4.23079 -4.70305 0
M  V30 14374 C 1676.32 4.30824 -5.0985 0
M  V30 14375 H 1675.59 0.702631 -0.235352 0
M  V30 14376 H 1678.24 1.46811 -1.22959 0
M  V30 14377 H 1676.54 3.90602 -0.306121 0
M  V30 14378 H 1678.24 3.9493 -0.695061 0
M  V30 14379 H 1674.83 3.72963 -2.11179 0
M  V30 14380 H 1679.01 3.89254 -3.07889 0
M  V30 14381 H 1674.27 4.17909 -4.46276 0
M  V30 14382 H 1678.44 4.35496 -5.4343 0
M  V30 14383 H 1676.07 4.49454 -6.13103 0
M  V30 14384 N 1677.64 0.747635 1.38738 0
M  V30 14385 C 1678.87 0.311781 2.04537 0
M  V30 14386 C 1679.29 -1.05782 1.56383 0
M  V30 14387 O 1678.64 -1.67077 0.734259 0
M  V30 14388 C 1678.69 0.318675 3.60093 0
M  V30 14389 O 1678.42 1.63423 4.06478 0
M  V30 14390 C 1679.92 -0.131782 4.43104 0
M  V30 14391 H 1677.14 0.134141 0.657455 0
M  V30 14392 H 1679.68 1.01482 1.77543 0
M  V30 14393 H 1677.84 -0.335578 3.85944 0
M  V30 14394 H 1678.25 1.55636 5.00877 0
M  V30 14395 H 1679.72 -0.0757978 5.51948 0
M  V30 14396 H 1680.2 -1.17881 4.23085 0
M  V30 14397 H 1680.81 0.493375 4.22429 0
M  V30 14398 N 1679.12 -1.49583 0.496242 0
M  V30 14399 C 1680.37 -2.02038 -0.0498643 0
M  V30 14400 C 1680.69 -1.37848 -1.37924 0
M  V30 14401 O 1679.96 -0.532188 -1.88533 0
M  V30 14402 H 1678.54 -0.746693 -0.0214177 0
M  V30 14403 H 1681.2 -1.83657 0.652399 0
M  V30 14404 H 1680.3 -3.11563 -0.183021 0
M  V30 14405 N 1680.6 -0.229873 -1.55915 0
M  V30 14406 C 1681.53 0.671321 -2.23642 0
M  V30 14407 C 1682.51 1.19461 -1.21091 0
M  V30 14408 O 1683.7 1.23708 -1.49699 0
M  V30 14409 C 1680.83 1.87595 -2.92276 0
M  V30 14410 C 1679.78 1.48616 -4.01369 0
M  V30 14411 C 1679.11 2.77024 -4.57342 0
M  V30 14412 C 1680.41 0.669928 -5.17986 0
M  V30 14413 H 1682.1 0.106622 -2.9921 0
M  V30 14414 H 1679.65 0.0498418 -1.43914 0
M  V30 14415 H 1681.6 2.51191 -3.3835 0
M  V30 14416 H 1680.32 2.46576 -2.14168 0
M  V30 14417 H 1678.98 0.873623 -3.56038 0
M  V30 14418 H 1678.63 3.34166 -3.75955 0
M  V30 14419 H 1678.33 2.51674 -5.30975 0
M  V30 14420 H 1679.85 3.41548 -5.0614 0
M  V30 14421 H 1681.27 1.20978 -5.6039 0
M  V30 14422 H 1679.66 0.513174 -5.97902 0
M  V30 14423 H 1680.73 -0.321644 -4.83832 0
M  V30 14424 N 1682.08 1.5754 0.0434337 0
M  V30 14425 C 1683.01 2.02385 1.07577 0
M  V30 14426 C 1684.02 0.934273 1.33324 0
M  V30 14427 O 1685.21 1.2118 1.31064 0
M  V30 14428 C 1682.31 2.3719 2.42062 0
M  V30 14429 C 1681.48 3.68351 2.35874 0
M  V30 14430 C 1680.54 3.90506 3.52692 0
M  V30 14431 O 1679.57 4.61746 3.32836 0
M  V30 14432 N 1680.77 3.35035 4.74059 0
M  V30 14433 H 1683.54 2.91563 0.693641 0
M  V30 14434 H 1681.1 1.60234 0.231631 0
M  V30 14435 H 1683.09 2.49161 3.18906 0
M  V30 14436 H 1681.66 1.53758 2.72171 0
M  V30 14437 H 1680.88 3.66869 1.44224 0
M  V30 14438 H 1682.17 4.54419 2.28868 0
M  V30 14439 H 1681.57 2.77264 4.93094 0
M  V30 14440 H 1680.12 3.52409 5.48317 0
M  V30 14441 N 1683.56 -0.31543 1.54411 0
M  V30 14442 C 1684.8 -1.05033 1.72663 0
M  V30 14443 C 1685.12 -1.8828 0.507504 0
M  V30 14444 O 1684.39 -1.89968 -0.478418 0
M  V30 14445 H 1682.97 -0.39077 0.636638 0
M  V30 14446 H 1685.64 -0.3499 1.91733 0
M  V30 14447 H 1684.73 -1.71171 2.60973 0
M  V30 14448 N 1685.03 -1.46622 -0.577906 0
M  V30 14449 C 1685.96 -1.60413 -1.69676 0
M  V30 14450 C 1686.95 -0.454277 -1.63922 0
M  V30 14451 O 1688.13 -0.68111 -1.81864 0
M  V30 14452 C 1685.26 -1.59866 -3.08318 0
M  V30 14453 C 1684.21 -2.7387 -3.28906 0
M  V30 14454 C 1683.54 -2.58386 -4.68125 0
M  V30 14455 C 1684.84 -4.15652 -3.16276 0
M  V30 14456 H 1686.53 -2.54073 -1.5839 0
M  V30 14457 H 1684.08 -1.22275 -0.760572 0
M  V30 14458 H 1686.03 -1.68108 -3.86417 0
M  V30 14459 H 1684.76 -0.627541 -3.20514 0
M  V30 14460 H 1683.42 -2.65105 -2.53209 0
M  V30 14461 H 1683.06 -1.59347 -4.77093 0
M  V30 14462 H 1682.76 -3.34855 -4.82852 0
M  V30 14463 H 1684.29 -2.68525 -5.48385 0
M  V30 14464 H 1685.7 -4.25503 -3.84214 0
M  V30 14465 H 1684.1 -4.92746 -3.42523 0
M  V30 14466 H 1685.17 -4.35471 -2.13291 0
M  V30 14467 N 1686.51 0.822941 -1.34408 0
M  V30 14468 C 1687.92 1.39571 -1.24003 0
M  V30 14469 C 1688.27 1.95739 0.134483 0
M  V30 14470 O 1687.4 1.90054 1.03481 0
M  V30 14471 C 1687.99 2.53726 -2.24519 0
M  V30 14472 C 1686.55 3.06911 -2.17905 0
M  V30 14473 C 1685.7 1.79783 -2.11124 0
M  V30 14474 H 1688.65 0.62734 -1.45774 0
M  V30 14475 H 1688.67 3.31818 -1.86217 0
M  V30 14476 H 1688.18 2.12816 -3.24547 0
M  V30 14477 H 1686.29 3.52326 -1.21233 0
M  V30 14478 H 1686.4 3.66003 -3.09158 0
M  V30 14479 H 1684.76 2.00679 -1.56845 0
M  V30 14480 H 1685.55 1.41047 -3.12987 0
M  V30 14481 N 1687.99 1.18137 1.04314 0
M  V30 14482 C 1689.24 0.973277 1.77121 0
M  V30 14483 C 1689.56 -0.498558 1.88519 0
M  V30 14484 O 1688.83 -1.36168 1.40837 0
M  V30 14485 H 1687.41 0.35712 0.656105 0
M  V30 14486 H 1690.07 1.48774 1.25906 0
M  V30 14487 H 1689.17 1.40917 2.78476 0
M  V30 14488 N 1689.47 -1.23186 0.98301 0
M  V30 14489 C 1690.88 -1.73484 0.689933 0
M  V30 14490 C 1691.23 -1.79428 -0.793724 0
M  V30 14491 O 1690.36 -1.43391 -1.62074 0
M  V30 14492 C 1690.95 -3.15068 1.24571 0
M  V30 14493 C 1689.51 -3.62812 1.00222 0
M  V30 14494 C 1688.66 -2.40988 1.37186 0
M  V30 14495 H 1691.61 -1.08672 1.15655 0
M  V30 14496 H 1691.63 -3.75425 0.619406 0
M  V30 14497 H 1691.14 -3.10709 2.32554 0
M  V30 14498 H 1689.24 -3.72549 -0.0614202 0
M  V30 14499 H 1689.35 -4.49473 1.65863 0
M  V30 14500 H 1687.72 -2.42127 0.79035 0
M  V30 14501 H 1688.5 -2.39299 2.46152 0
M  V30 14502 N 1690.95 -0.754982 -1.38339 0
M  V30 14503 C 1692.36 -0.379276 -1.82807 0
M  V30 14504 C 1692.71 1.09228 -1.62984 0
M  V30 14505 O 1691.83 1.84445 -1.13177 0
M  V30 14506 C 1692.43 -0.681628 -3.31872 0
M  V30 14507 C 1690.99 -0.359183 -3.74682 0
M  V30 14508 C 1690.13 -0.93409 -2.61094 0
M  V30 14509 H 1693.09 -0.951019 -1.27048 0
M  V30 14510 H 1693.11 0.0396803 -3.80479 0
M  V30 14511 H 1692.62 -1.75271 -3.46268 0
M  V30 14512 H 1690.72 0.705257 -3.65865 0
M  V30 14513 H 1690.83 -0.85571 -4.71396 0
M  V30 14514 H 1689.2 -0.359379 -2.52152 0
M  V30 14515 H 1689.98 -2.01023 -2.78289 0
M  V30 14516 N 1692.42 1.49318 -0.504168 0
M  V30 14517 C 1693.67 2.02062 0.039149 0
M  V30 14518 C 1693.99 1.38577 1.37191 0
M  V30 14519 O 1693.26 0.542179 1.88248 0
M  V30 14520 H 1691.84 0.746796 0.0174575 0
M  V30 14521 H 1694.51 1.83308 -0.66213 0
M  V30 14522 H 1693.6 3.11656 0.166496 0
M  V30 14523 N 1693.9 0.238138 1.5579 0
M  V30 14524 C 1695.31 -0.266656 1.84786 0
M  V30 14525 C 1695.66 -1.58248 1.15983 0
M  V30 14526 O 1694.79 -2.11979 0.43518 0
M  V30 14527 C 1695.38 -0.4906 3.35229 0
M  V30 14528 C 1693.94 -0.939672 3.64482 0
M  V30 14529 C 1693.09 -0.0119682 2.77297 0
M  V30 14530 H 1696.04 0.460924 1.51859 0
M  V30 14531 H 1696.06 -1.3344 3.56334 0
M  V30 14532 H 1695.57 0.467239 3.85277 0
M  V30 14533 H 1693.68 -1.91029 3.19904 0
M  V30 14534 H 1693.79 -0.8026 4.72329 0
M  V30 14535 H 1692.15 -0.521767 2.49298 0
M  V30 14536 H 1692.94 0.941085 3.30149 0
M  V30 14537 N 1695.38 -1.57561 -0.0350783 0
M  V30 14538 C 1696.61 -1.93644 -0.742753 0
M  V30 14539 C 1697.03 -0.837655 -1.68419 0
M  V30 14540 O 1696.39 0.207069 -1.80114 0
M  V30 14541 C 1696.44 -3.28779 -1.48111 0
M  V30 14542 O 1695.54 -3.20604 -2.59398 0
M  V30 14543 H 1694.88 -0.633103 -0.200192 0
M  V30 14544 H 1697.41 -2.04599 0.00765271 0
M  V30 14545 H 1697.42 -3.63527 -1.85236 0
M  V30 14546 H 1696.1 -4.08316 -0.790608 0
M  V30 14547 H 1694.67 -2.97477 -2.2486 0
M  V30 14548 N 1696.86 0.307236 -1.54576 0
M  V30 14549 C 1698.11 1.04115 -1.73218 0
M  V30 14550 C 1698.43 1.88008 -0.517482 0
M  V30 14551 O 1697.7 1.90219 0.468336 0
M  V30 14552 H 1696.28 0.387388 -0.638701 0
M  V30 14553 H 1698.94 0.339727 -1.91916 0
M  V30 14554 H 1698.04 1.69784 -2.61877 0
M  V30 14555 N 1698.34 1.46926 0.570122 0
M  V30 14556 C 1699.61 1.43365 1.33063 0
M  V30 14557 C 1699.99 0.123738 2.10737 0
M  V30 14558 O 1699.34 -0.894766 2.10253 0
M  V30 14559 C 1699.55 2.67122 2.24604 0
M  V30 14560 C 1700.9 3.13798 2.86035 0
M  V30 14561 O 1701.92 2.67759 2.34912 0
M  V30 14562 O 1700.78 3.93801 3.78923 0
M  V30 14563 H 1697.88 0.570726 0.598499 0
M  V30 14564 H 1700.42 1.5911 0.590095 0
M  V30 14565 H 1699.19 3.54005 1.66722 0
M  V30 14566 H 1698.82 2.53899 3.05976 0
M  V30 14567 N 1699.82 -0.815801 1.34842 0
M  V30 14568 C 1700.75 -1.93493 1.22854 0
M  V30 14569 C 1701.76 -1.6207 0.15395 0
M  V30 14570 O 1702.95 -1.73811 0.406428 0
M  V30 14571 C 1700.05 -3.27622 0.867006 0
M  V30 14572 C 1699.22 -3.87017 2.03806 0
M  V30 14573 C 1698.28 -4.99536 1.65378 0
M  V30 14574 O 1697.31 -5.17453 2.37131 0
M  V30 14575 N 1698.51 -5.77674 0.572056 0
M  V30 14576 H 1701.27 -2.04307 2.19269 0
M  V30 14577 H 1698.84 -0.992752 1.27891 0
M  V30 14578 H 1700.83 -4.00353 0.59159 0
M  V30 14579 H 1699.4 -3.12599 -0.00717215 0
M  V30 14580 H 1698.62 -3.06592 2.4778 0
M  V30 14581 H 1699.91 -4.23431 2.82106 0
M  V30 14582 H 1699.3 -5.65695 -0.0242931 0
M  V30 14583 H 1697.86 -6.50825 0.356394 0
M  V30 14584 N 1701.29 -1.18689 -1.03686 0
M  V30 14585 C 1702.54 -0.982656 -1.76602 0
M  V30 14586 C 1702.86 0.488553 -1.88781 0
M  V30 14587 O 1702.13 1.35419 -1.41558 0
M  V30 14588 H 1700.71 -0.360595 -0.654202 0
M  V30 14589 H 1703.37 -1.49439 -1.25115 0
M  V30 14590 H 1702.47 -1.42392 -2.77725 0
M  V30 14591 N 1702.77 1.22662 -0.989529 0
M  V30 14592 C 1703.73 2.22695 -0.542183 0
M  V30 14593 C 1704.73 1.56411 0.373132 0
M  V30 14594 O 1705.92 1.73412 0.165556 0
M  V30 14595 C 1703.06 3.40241 0.211841 0
M  V30 14596 H 1704.25 2.63786 -1.42678 0
M  V30 14597 H 1701.8 1.35654 -0.776377 0
M  V30 14598 H 1702.54 3.04618 1.11257 0
M  V30 14599 H 1702.32 3.89563 -0.445319 0
M  V30 14600 H 1703.81 4.14436 0.513107 0
M  V30 14601 N 1704.25 0.762308 1.37937 0
M  V30 14602 C 1705.47 0.332217 2.04722 0
M  V30 14603 C 1705.9 -1.03417 1.57119 0
M  V30 14604 O 1705.26 -1.6608 0.727117 0
M  V30 14605 C 1705.31 0.373899 3.58656 0
M  V30 14606 O 1704.41 -0.629024 4.07575 0
M  V30 14607 H 1703.75 0.145471 0.647869 0
M  V30 14608 H 1706.28 1.03586 1.7644 0
M  V30 14609 H 1706.29 0.22785 4.07363 0
M  V30 14610 H 1704.97 1.37079 3.92661 0
M  V30 14611 H 1703.54 -0.446871 3.70213 0
M  V30 14612 N 1705.73 -1.49049 0.51208 0
M  V30 14613 C 1706.98 -2.0208 -0.0284326 0
M  V30 14614 C 1707.3 -1.39303 -1.36454 0
M  V30 14615 O 1706.57 -0.552155 -1.87958 0
M  V30 14616 H 1705.15 -0.746878 -0.0134968 0
M  V30 14617 H 1707.81 -1.82954 0.671842 0
M  V30 14618 H 1706.9 -3.11739 -0.149966 0
M  V30 14619 N 1707.21 -0.246397 -1.55662 0
M  V30 14620 C 1708.62 0.256853 -1.84925 0
M  V30 14621 C 1708.97 1.5763 -1.16821 0
M  V30 14622 O 1708.09 2.11745 -0.446415 0
M  V30 14623 C 1708.69 0.472815 -3.35485 0
M  V30 14624 C 1707.25 0.92033 -3.64975 0
M  V30 14625 C 1706.39 -0.00273772 -2.773 0
M  V30 14626 H 1709.34 -0.468971 -1.51612 0
M  V30 14627 H 1709.37 1.31549 -3.57037 0
M  V30 14628 H 1708.88 -0.487664 -3.85024 0
M  V30 14629 H 1706.98 1.89329 -3.20913 0
M  V30 14630 H 1707.09 0.77754 -4.72748 0
M  V30 14631 H 1705.46 0.508539 -2.49572 0
M  V30 14632 H 1706.24 -0.958581 -3.29645 0
M  V30 14633 N 1708.68 1.57577 0.026722 0
M  V30 14634 C 1709.65 2.05684 1.01127 0
M  V30 14635 C 1710.65 0.961373 1.28896 0
M  V30 14636 O 1711.84 1.22491 1.23861 0
M  V30 14637 C 1708.97 2.47576 2.34348 0
M  V30 14638 H 1710.16 2.93925 0.595681 0
M  V30 14639 H 1707.71 1.53887 0.273603 0
M  V30 14640 H 1708.45 1.62498 2.80651 0
M  V30 14641 H 1708.23 3.27556 2.15521 0
M  V30 14642 H 1709.72 2.85214 3.05029 0
M  V30 14643 N 1710.16 -0.299034 1.54737 0
M  V30 14644 C 1711.41 -1.03195 1.73767 0
M  V30 14645 C 1711.73 -1.87731 0.527445 0
M  V30 14646 O 1711 -1.90465 -0.458242 0
M  V30 14647 H 1709.58 -0.383996 0.640747 0
M  V30 14648 H 1712.24 -0.329544 1.92094 0
M  V30 14649 H 1711.34 -1.68393 2.62774 0
M  V30 14650 N 1711.64 -1.47227 -0.562322 0
M  V30 14651 C 1713.05 -1.47509 -1.14446 0
M  V30 14652 C 1713.4 -0.22699 -1.94883 0
M  V30 14653 O 1712.53 0.668483 -2.05816 0
M  V30 14654 C 1713.12 -2.67266 -2.08217 0
M  V30 14655 C 1711.68 -2.70524 -2.61713 0
M  V30 14656 C 1710.83 -2.4053 -1.37988 0
M  V30 14657 H 1713.78 -1.54811 -0.349185 0
M  V30 14658 H 1713.8 -2.43945 -2.92012 0
M  V30 14659 H 1713.31 -3.58089 -1.49646 0
M  V30 14660 H 1711.41 -1.83827 -3.24096 0
M  V30 14661 H 1711.53 -3.71072 -3.03056 0
M  V30 14662 H 1709.89 -1.91007 -1.68489 0
M  V30 14663 H 1710.67 -3.33554 -0.812177 0
M  V30 14664 N 1713.12 0.808639 -1.35273 0
M  V30 14665 C 1714.34 1.60219 -1.31699 0
M  V30 14666 C 1714.77 1.87816 0.103386 0
M  V30 14667 O 1714.13 1.46389 1.06957 0
M  V30 14668 C 1714.17 2.9116 -2.12739 0
M  V30 14669 O 1713.28 3.83891 -1.5067 0
M  V30 14670 H 1712.62 0.486742 -0.45164 0
M  V30 14671 H 1715.15 1.00378 -1.78284 0
M  V30 14672 H 1715.16 3.40602 -2.2462 0
M  V30 14673 H 1713.83 2.70399 -3.16002 0
M  V30 14674 H 1712.41 3.42437 -1.47618 0
M  V30 14675 N 1714.6 1.19237 1.03055 0
M  V30 14676 C 1715.84 0.992008 1.76078 0
M  V30 14677 C 1716.17 -0.478535 1.89037 0
M  V30 14678 O 1715.44 -1.34666 1.42274 0
M  V30 14679 H 1714.02 0.364059 0.652281 0
M  V30 14680 H 1716.68 1.50101 1.24321 0
M  V30 14681 H 1715.77 1.43862 2.76966 0
M  V30 14682 N 1716.07 -1.22136 0.99602 0
M  V30 14683 C 1717.49 -1.72743 0.708295 0
M  V30 14684 C 1717.84 -1.8026 -0.774649 0
M  V30 14685 O 1716.96 -1.45102 -1.60544 0
M  V30 14686 C 1717.56 -3.13729 1.27905 0
M  V30 14687 C 1716.12 -3.61729 1.04064 0
M  V30 14688 C 1715.26 -2.39519 1.39735 0
M  V30 14689 H 1718.21 -1.07439 1.16801 0
M  V30 14690 H 1718.23 -3.74746 0.65919 0
M  V30 14691 H 1717.75 -3.08225 2.35836 0
M  V30 14692 H 1715.85 -3.72594 -0.0219029 0
M  V30 14693 H 1715.96 -4.47689 1.70621 0
M  V30 14694 H 1714.32 -2.41275 0.815986 0
M  V30 14695 H 1715.11 -2.36675 2.48677 0
M  V30 14696 N 1717.55 -0.769612 -1.37531 0
M  V30 14697 C 1718.97 -0.449 -1.53154 0
M  V30 14698 C 1719.17 1.03568 -1.72847 0
M  V30 14699 O 1718.22 1.82154 -1.74861 0
M  V30 14700 C 1719.54 -1.26221 -2.72926 0
M  V30 14701 C 1721.09 -1.2539 -2.86786 0
M  V30 14702 C 1721.56 -2.05041 -4.09539 0
M  V30 14703 N 1723.05 -2.02384 -4.16647 0
M  V30 14704 C 1723.79 -2.60798 -5.10658 0
M  V30 14705 N 1723.28 -3.27991 -6.10241 0
M  V30 14706 N 1725.08 -2.5064 -5.03126 0
M  V30 14707 H 1717.23 -1.73161 -1.23 0
M  V30 14708 H 1719.49 -0.734977 -0.598759 0
M  V30 14709 H 1719.2 -2.31423 -2.64832 0
M  V30 14710 H 1719.07 -0.889937 -3.66551 0
M  V30 14711 H 1721.46 -0.209869 -2.94353 0
M  V30 14712 H 1721.54 -1.6658 -1.94126 0
M  V30 14713 H 1721.18 -3.09464 -4.02734 0
M  V30 14714 H 1721.11 -1.61234 -5.01309 0
M  V30 14715 H 1723.6 -1.53464 -3.45337 0
M  V30 14716 H 1723.92 -3.69942 -6.785 0
M  V30 14717 H 1722.26 -3.32089 -6.10526 0
M  V30 14718 H 1725.45 -1.97762 -4.24273 0
M  V30 14719 H 1725.62 -2.96458 -5.76209 0
M  V30 14720 N 1719.03 1.48775 -0.519977 0
M  V30 14721 C 1720.28 2.02092 0.0177154 0
M  V30 14722 C 1720.6 1.40024 1.35714 0
M  V30 14723 O 1719.87 0.562115 1.87662 0
M  V30 14724 H 1718.45 0.746939 0.00953578 0
M  V30 14725 H 1721.11 1.82595 -0.681535 0
M  V30 14726 H 1720.21 3.11815 0.133431 0
M  V30 14727 N 1720.51 0.254649 1.55529 0
M  V30 14728 C 1721.92 -0.247042 1.85058 0
M  V30 14729 C 1722.27 -1.57009 1.17655 0
M  V30 14730 O 1721.4 -2.11506 0.457638 0
M  V30 14731 C 1721.99 -0.455017 3.35731 0
M  V30 14732 C 1720.55 -0.900961 3.65458 0
M  V30 14733 C 1719.7 0.0174436 2.77295 0
M  V30 14734 H 1722.65 0.477005 1.51362 0
M  V30 14735 H 1722.67 -1.29654 3.57729 0
M  V30 14736 H 1722.18 0.508076 3.8476 0
M  V30 14737 H 1720.28 -1.87625 3.21913 0
M  V30 14738 H 1720.39 -0.752458 4.73154 0
M  V30 14739 H 1718.76 -0.495296 2.49838 0
M  V30 14740 H 1719.54 0.976049 3.29132 0
M  V30 14741 N 1721.99 -1.57589 -0.0183649 0
M  V30 14742 C 1723.4 -1.7799 -0.563591 0
M  V30 14743 C 1723.75 -0.887064 -1.75002 0
M  V30 14744 O 1722.87 -0.0846843 -2.16234 0
M  V30 14745 C 1723.47 -3.2279 -1.02919 0
M  V30 14746 C 1722.03 -3.44351 -1.51986 0
M  V30 14747 C 1721.17 -2.73412 -0.462727 0
M  V30 14748 H 1724.13 -1.57333 0.207849 0
M  V30 14749 H 1724.15 -3.29892 -1.89609 0
M  V30 14750 H 1723.66 -3.87747 -0.165487 0
M  V30 14751 H 1721.76 -2.84583 -2.40506 0
M  V30 14752 H 1721.87 -4.52992 -1.55998 0
M  V30 14753 H 1720.24 -2.37496 -0.920211 0
M  V30 14754 H 1721.02 -3.41058 0.391698 0
M  V30 14755 N 1723.46 0.290824 -1.54893 0
M  V30 14756 C 1724.71 1.02272 -1.74312 0
M  V30 14757 C 1725.03 1.87449 -0.537393 0
M  V30 14758 O 1724.3 1.90705 0.448135 0
M  V30 14759 H 1722.88 0.380592 -0.642774 0
M  V30 14760 H 1725.55 0.319353 -1.92266 0
M  V30 14761 H 1724.64 1.66997 -2.63663 0
M  V30 14762 N 1724.94 1.47523 0.554506 0
M  V30 14763 C 1726.35 1.48114 1.13662 0
M  V30 14764 C 1726.7 0.237321 1.94759 0
M  V30 14765 O 1725.83 -0.657558 2.06168 0
M  V30 14766 C 1726.42 2.68366 2.06797 0
M  V30 14767 C 1724.98 2.71908 2.60274 0
M  V30 14768 C 1724.13 2.41258 1.3671 0
M  V30 14769 H 1727.08 1.54994 0.34097 0
M  V30 14770 H 1727.1 2.4549 2.90714 0
M  V30 14771 H 1726.61 3.58877 1.47745 0
M  V30 14772 H 1724.72 1.85543 3.23117 0
M  V30 14773 H 1724.83 3.72673 3.01084 0
M  V30 14774 H 1723.19 1.91897 1.67474 0
M  V30 14775 H 1723.98 3.3398 0.794476 0
M  V30 14776 N 1726.42 -0.801453 1.357 0
M  V30 14777 C 1727.67 -1.5611 1.29451 0
M  V30 14778 C 1728 -1.93768 -0.129412 0
M  V30 14779 O 1727.27 -1.6176 -1.08 0
M  V30 14780 C 1727.56 -2.84628 2.20588 0
M  V30 14781 C 1727.41 -2.53413 3.71621 0
M  V30 14782 C 1728.73 -3.86369 2.10729 0
M  V30 14783 H 1725.85 -0.56638 0.471575 0
M  V30 14784 H 1728.49 -0.921701 1.66147 0
M  V30 14785 H 1726.64 -3.39192 1.89424 0
M  V30 14786 H 1728.31 -2.04993 4.1325 0
M  V30 14787 H 1726.56 -1.86531 3.91649 0
M  V30 14788 H 1727.23 -3.45152 4.30783 0
M  V30 14789 H 1729.7 -3.41219 2.38136 0
M  V30 14790 H 1728.58 -4.74062 2.76688 0
M  V30 14791 H 1728.84 -4.28431 1.09083 0
M  V30 14792 N 1727.9 -1.19782 -1.02421 0
M  V30 14793 C 1729.15 -1.00133 -1.7555 0
M  V30 14794 C 1729.47 0.468503 -1.89288 0
M  V30 14795 O 1728.74 1.3391 -1.42986 0
M  V30 14796 H 1727.32 -0.367513 -0.650341 0
M  V30 14797 H 1729.98 -1.50758 -1.23523 0
M  V30 14798 H 1729.08 -1.45329 -2.76199 0
M  V30 14799 N 1729.38 1.21606 -1.00248 0
M  V30 14800 C 1730.79 1.72365 -0.717446 0
M  V30 14801 C 1731.14 1.80668 0.765078 0
M  V30 14802 O 1730.26 1.45951 1.59772 0
M  V30 14803 C 1730.86 3.13046 -1.29567 0
M  V30 14804 C 1729.42 3.61172 -1.05981 0
M  V30 14805 C 1728.57 2.38775 -1.41003 0
M  V30 14806 H 1731.52 1.06818 -1.17369 0
M  V30 14807 H 1731.54 3.74392 -0.679054 0
M  V30 14808 H 1731.05 3.0697 -2.37467 0
M  V30 14809 H 1729.15 3.726 0.00214307 0
M  V30 14810 H 1729.26 4.46778 -1.72993 0
M  V30 14811 H 1727.63 2.40839 -0.82877 0
M  V30 14812 H 1728.41 2.35352 -2.49928 0
M  V30 14813 N 1730.86 0.776895 1.37121 0
M  V30 14814 C 1732.08 0.353911 2.04358 0
M  V30 14815 C 1732.51 -1.01745 1.58207 0
M  V30 14816 O 1731.86 -1.653 0.744691 0
M  V30 14817 C 1731.91 0.411918 3.5824 0
M  V30 14818 O 1731.02 -0.58576 4.08219 0
M  V30 14819 H 1730.36 0.152335 0.64629 0
M  V30 14820 H 1732.89 1.05452 1.75331 0
M  V30 14821 H 1732.9 0.271043 4.07099 0
M  V30 14822 H 1731.57 1.41236 3.91185 0
M  V30 14823 H 1730.15 -0.40758 3.70666 0
M  V30 14824 N 1732.33 -1.48497 0.527859 0
M  V30 14825 C 1733.58 -2.02099 -0.00699772 0
M  V30 14826 C 1733.9 -1.40742 -1.34969 0
M  V30 14827 O 1733.17 -0.572059 -1.87361 0
M  V30 14828 H 1731.75 -0.746979 -0.00557445 0
M  V30 14829 H 1734.41 -1.82231 0.691209 0
M  V30 14830 H 1733.51 -3.11881 -0.116893 0
M  V30 14831 N 1733.81 -0.262893 -1.55392 0
M  V30 14832 C 1734.76 0.629853 -2.22039 0
M  V30 14833 C 1735.73 1.15915 -1.18966 0
M  V30 14834 O 1736.91 1.21069 -1.47468 0
M  V30 14835 C 1734.05 1.8138 -2.9359 0
M  V30 14836 C 1733.17 1.31952 -4.11355 0
M  V30 14837 C 1732.3 2.4643 -4.7058 0
M  V30 14838 C 1731.34 1.93944 -5.80562 0
M  V30 14839 N 1730.48 3.01848 -6.33902 0
M  V30 14840 H 1735.32 0.0548473 -2.9795 0
M  V30 14841 H 1732.85 0.0153072 -1.47092 0
M  V30 14842 H 1734.81 2.50955 -3.33283 0
M  V30 14843 H 1733.44 2.36103 -2.20125 0
M  V30 14844 H 1732.49 0.517281 -3.76866 0
M  V30 14845 H 1733.81 0.894993 -4.90705 0
M  V30 14846 H 1732.96 3.2402 -5.12929 0
M  V30 14847 H 1731.7 2.92193 -3.9048 0
M  V30 14848 H 1730.7 1.1483 -5.37675 0
M  V30 14849 H 1731.93 1.49132 -6.62523 0
M  V30 14850 H 1729.88 3.47015 -5.56701 0
M  V30 14851 H 1729.79 2.63775 -7.08491 0
M  V30 14852 H 1731.06 3.79449 -6.8091 0
M  V30 14853 N 1735.29 1.57597 0.0100073 0
M  V30 14854 C 1736.57 1.81329 0.733415 0
M  V30 14855 C 1736.95 0.865495 1.92542 0
M  V30 14856 O 1736.29 -0.088073 2.2833 0
M  V30 14857 C 1736.5 3.29559 1.14856 0
M  V30 14858 C 1737.85 3.95039 1.55658 0
M  V30 14859 O 1738.88 3.33822 1.24262 0
M  V30 14860 O 1737.74 5.02858 2.13999 0
M  V30 14861 H 1734.83 0.746334 0.35625 0
M  V30 14862 H 1737.38 1.69694 -0.0146791 0
M  V30 14863 H 1736.15 3.9016 0.298467 0
M  V30 14864 H 1735.77 3.46156 1.95607 0
M  V30 14865 N 1736.77 -0.282606 1.55045 0
M  V30 14866 C 1738.02 -1.01346 1.74852 0
M  V30 14867 C 1738.34 -1.87161 0.547327 0
M  V30 14868 O 1737.61 -1.9094 -0.438015 0
M  V30 14869 H 1736.19 -0.377178 0.644784 0
M  V30 14870 H 1738.85 -0.309152 1.92432 0
M  V30 14871 H 1737.94 -1.65596 2.64545 0
M  V30 14872 N 1738.25 -1.47815 -0.546675 0
M  V30 14873 C 1739.21 -1.6063 -1.63495 0
M  V30 14874 C 1740.21 -0.480661 -1.53448 0
M  V30 14875 O 1741.4 -0.746017 -1.57417 0
M  V30 14876 C 1738.53 -1.56076 -3.03073 0
M  V30 14877 H 1739.72 -2.57652 -1.53478 0
M  V30 14878 H 1737.28 -1.36162 -0.767433 0
M  V30 14879 H 1738.01 -0.604694 -3.18613 0
M  V30 14880 H 1737.8 -2.3778 -3.11774 0
M  V30 14881 H 1739.29 -1.68204 -3.82227 0
M  V30 14882 N 1739.72 0.794246 -1.36123 0
M  V30 14883 C 1740.67 1.92808 -1.30108 0
M  V30 14884 C 1741.67 1.68289 -0.193734 0
M  V30 14885 O 1742.87 1.76354 -0.360454 0
M  V30 14886 H 1739.25 0.633671 -0.404926 0
M  V30 14887 H 1741.22 1.95 -2.2587 0
M  V30 14888 C 1739.97 3.29762 -1.10238 0
M  V30 14889 H 1739.29 3.49193 -1.9469 0
M  V30 14890 H 1740.73 4.09463 -1.10073 0
M  V30 14891 C 1739.19 3.36345 0.193222 0
M  V30 14892 O 1739.72 3.83832 1.18474 0
M  V30 14893 N 1737.92 2.89638 0.236243 0
M  V30 14894 H 1737.47 2.51186 -0.571245 0
M  V30 14895 H 1737.43 2.94424 1.1028 0
M  V30 14896 N 1741.2 1.20323 1.01785 0
M  V30 14897 C 1742.45 1.01063 1.75016 0
M  V30 14898 C 1742.77 -0.458458 1.89534 0
M  V30 14899 O 1742.04 -1.3315 1.43694 0
M  V30 14900 H 1740.62 0.370957 0.648383 0
M  V30 14901 H 1743.28 1.51411 1.22722 0
M  V30 14902 H 1742.38 1.46792 2.75424 0
M  V30 14903 N 1742.68 -1.21073 1.00892 0
M  V30 14904 C 1743.93 -1.89559 0.689214 0
M  V30 14905 C 1744.24 -1.79211 -0.783753 0
M  V30 14906 O 1745.45 -2.42761 -1.2157 0
M  V30 14907 C 1743.9 -3.39925 1.18232 0
M  V30 14908 C 1743.51 -3.58876 2.68164 0
M  V30 14909 C 1745.26 -4.14014 0.937683 0
M  V30 14910 C 1743.16 -5.03027 3.10995 0
M  V30 14911 H 1742.09 -0.709895 0.254098 0
M  V30 14912 H 1744.74 -1.37017 1.2206 0
M  V30 14913 H 1743.13 -3.91745 0.578961 0
M  V30 14914 H 1744.3 -3.17478 3.33983 0
M  V30 14915 H 1742.61 -2.98146 2.90685 0
M  V30 14916 H 1745.21 -5.20285 1.23319 0
M  V30 14917 H 1745.55 -4.16109 -0.126003 0
M  V30 14918 H 1746.09 -3.68271 1.50403 0
M  V30 14919 H 1742.83 -5.06082 4.16607 0
M  V30 14920 H 1742.35 -5.45266 2.49891 0
M  V30 14921 H 1744.03 -5.7156 3.03197 0
M  V30 14922 N 1744.16 -0.784156 -1.36707 0
M  V30 14923 C 1745.57 -0.417967 -1.81961 0
M  V30 14924 C 1745.92 1.05746 -1.65264 0
M  V30 14925 O 1745.05 1.82003 -1.17064 0
M  V30 14926 C 1745.64 -0.751869 -3.30352 0
M  V30 14927 C 1744.2 -0.438578 -3.73836 0
M  V30 14928 C 1743.35 -0.989262 -2.59054 0
M  V30 14929 H 1746.3 -0.977754 -1.25003 0
M  V30 14930 H 1746.32 -0.041034 -3.80478 0
M  V30 14931 H 1745.83 -1.82576 -3.42473 0
M  V30 14932 H 1743.93 0.627493 -3.67278 0
M  V30 14933 H 1744.04 -0.955508 -4.69475 0
M  V30 14934 H 1742.41 -0.412783 -2.51333 0
M  V30 14935 H 1743.19 -2.06881 -2.73962 0
M  V30 14936 N 1745.64 1.48215 -0.535727 0
M  V30 14937 C 1746.88 2.021 -0.00372016 0
M  V30 14938 C 1747.21 1.41456 1.34221 0
M  V30 14939 O 1746.48 0.581987 1.87055 0
M  V30 14940 H 1745.06 0.746998 0.00161295 0
M  V30 14941 H 1747.72 1.81862 -0.700863 0
M  V30 14942 H 1746.81 3.11939 0.100352 0
M  V30 14943 N 1747.11 0.27113 1.5525 0
M  V30 14944 C 1748.53 -0.2274 1.8531 0
M  V30 14945 C 1748.88 -1.55752 1.19314 0
M  V30 14946 O 1748 -2.11008 0.480046 0
M  V30 14947 C 1748.6 -0.419382 3.36194 0
M  V30 14948 C 1747.16 -0.862149 3.66393 0
M  V30 14949 C 1746.3 0.0468534 2.7726 0
M  V30 14950 H 1749.25 0.493032 1.50847 0
M  V30 14951 H 1749.27 -1.25852 3.59084 0
M  V30 14952 H 1748.79 0.548856 3.84199 0
M  V30 14953 H 1746.89 -1.842 3.23884 0
M  V30 14954 H 1747 -0.702231 4.73926 0
M  V30 14955 H 1745.36 -0.468769 2.50349 0
M  V30 14956 H 1746.15 1.0109 3.28079 0
M  V30 14957 N 1748.59 -1.576 -0.00164943 0
M  V30 14958 C 1749.84 -1.89675 -0.686026 0
M  V30 14959 C 1750.15 -0.873179 -1.75028 0
M  V30 14960 O 1751.36 -1.08409 -2.48917 0
M  V30 14961 C 1749.82 -3.36696 -1.27136 0
M  V30 14962 C 1749.42 -4.47346 -0.242011 0
M  V30 14963 C 1751.17 -3.77883 -1.93402 0
M  V30 14964 C 1749.08 -5.85444 -0.837241 0
M  V30 14965 H 1748.01 -0.707756 -0.259994 0
M  V30 14966 H 1750.66 -1.83406 0.0586245 0
M  V30 14967 H 1749.04 -3.37797 -2.06662 0
M  V30 14968 H 1750.21 -4.57759 0.528539 0
M  V30 14969 H 1748.53 -4.15168 0.320118 0
M  V30 14970 H 1751.12 -4.78394 -2.38838 0
M  V30 14971 H 1751.47 -3.11311 -2.76389 0
M  V30 14972 H 1752 -3.79075 -1.20612 0
M  V30 14973 H 1748.74 -6.55484 -0.04619 0
M  V30 14974 H 1748.26 -5.78698 -1.57699 0
M  V30 14975 H 1749.94 -6.33048 -1.33637 0
M  V30 14976 N 1750.07 0.274379 -1.55193 0
M  V30 14977 C 1751.32 1.00418 -1.75387 0
M  V30 14978 C 1751.64 1.86868 -0.557244 0
M  V30 14979 O 1750.91 1.9117 0.427883 0
M  V30 14980 H 1749.49 0.373753 -0.646775 0
M  V30 14981 H 1752.15 0.298942 -1.92594 0
M  V30 14982 H 1751.25 1.64191 -2.6542 0
M  V30 14983 N 1751.55 1.48103 0.538828 0
M  V30 14984 C 1752.96 1.49312 1.12085 0
M  V30 14985 C 1753.31 0.257965 1.94497 0
M  V30 14986 O 1752.44 -0.635654 2.06854 0
M  V30 14987 C 1753.03 2.70545 2.03939 0
M  V30 14988 C 1751.59 2.74654 2.57376 0
M  V30 14989 C 1750.74 2.42695 1.34144 0
M  V30 14990 H 1753.69 1.55347 0.324512 0
M  V30 14991 H 1753.71 2.4856 2.88094 0
M  V30 14992 H 1753.22 3.60424 1.4393 0
M  V30 14993 H 1751.32 1.8896 3.21131 0
M  V30 14994 H 1751.43 3.75846 2.97114 0
M  V30 14995 H 1749.8 1.93663 1.65429 0
M  V30 14996 H 1750.58 3.34804 0.759009 0
M  V30 14997 N 1753.03 -0.787016 1.36542 0
M  V30 14998 C 1754.44 -1.36234 1.2766 0
M  V30 14999 C 1754.79 -1.96026 -0.0825391 0
M  V30 15000 O 1753.91 -1.92731 -0.984059 0
M  V30 15001 C 1754.51 -2.47684 2.31167 0
M  V30 15002 C 1753.07 -3.01026 2.25966 0
M  V30 15003 C 1752.21 -1.74122 2.15816 0
M  V30 15004 H 1755.17 -0.58847 1.47386 0
M  V30 15005 H 1755.19 -3.26765 1.94949 0
M  V30 15006 H 1754.7 -2.04136 3.30076 0
M  V30 15007 H 1752.8 -3.48988 1.30531 0
M  V30 15008 H 1752.91 -3.57677 3.18754 0
M  V30 15009 H 1751.28 -1.9645 1.6211 0
M  V30 15010 H 1752.06 -1.32699 3.16616 0
M  V30 15011 N 1754.5 -1.20861 -1.01145 0
M  V30 15012 C 1755.75 -1.0199 -1.74478 0
M  V30 15013 C 1756.07 0.4484 -1.89775 0
M  V30 15014 O 1755.34 1.32386 -1.44398 0
M  V30 15015 H 1753.92 -0.37439 -0.646406 0
M  V30 15016 H 1756.59 -1.5206 -1.21917 0
M  V30 15017 H 1755.68 -1.48251 -2.74642 0
M  V30 15018 N 1755.98 1.20536 -1.01532 0
M  V30 15019 C 1757.39 1.71594 -0.735687 0
M  V30 15020 C 1757.74 1.81469 0.745873 0
M  V30 15021 O 1756.87 1.47638 1.58215 0
M  V30 15022 C 1757.46 3.11654 -1.3288 0
M  V30 15023 C 1756.02 3.60027 -1.09806 0
M  V30 15024 C 1755.17 2.37266 -1.43528 0
M  V30 15025 H 1758.12 1.05568 -1.18495 0
M  V30 15026 H 1758.14 3.7365 -0.718725 0
M  V30 15027 H 1757.65 3.04434 -2.4071 0
M  V30 15028 H 1755.76 3.72581 -0.0373763 0
M  V30 15029 H 1755.87 4.44918 -1.77722 0
M  V30 15030 H 1754.23 2.39947 -0.854268 0
M  V30 15031 H 1755.02 2.32688 -2.5241 0
M  V30 15032 N 1757.46 0.791395 1.36289 0
M  V30 15033 C 1758.88 0.473308 1.5242 0
M  V30 15034 C 1759.08 -1.00805 1.74473 0
M  V30 15035 O 1758.13 -1.79349 1.77737 0
M  V30 15036 C 1759.45 1.30547 2.70884 0
M  V30 15037 C 1760.99 1.29936 2.84755 0
M  V30 15038 C 1761.47 2.1153 4.06225 0
M  V30 15039 N 1762.96 2.08987 4.13375 0
M  V30 15040 C 1763.69 2.68889 5.06445 0
M  V30 15041 N 1763.19 3.37657 6.04946 0
M  V30 15042 N 1764.98 2.58612 4.99075 0
M  V30 15043 H 1757.13 1.75096 1.20229 0
M  V30 15044 H 1759.4 0.74441 0.586991 0
M  V30 15045 H 1759.1 2.35607 2.61117 0
M  V30 15046 H 1758.98 0.948139 3.65089 0
M  V30 15047 H 1761.36 0.256671 2.93982 0
M  V30 15048 H 1761.45 1.69647 1.91451 0
M  V30 15049 H 1761.09 3.15832 3.9776 0
M  V30 15050 H 1761.02 1.69189 4.98681 0
M  V30 15051 H 1763.51 1.58938 3.42851 0
M  V30 15052 H 1763.82 3.8069 6.72529 0
M  V30 15053 H 1762.17 3.4176 6.05165 0
M  V30 15054 H 1765.36 2.04487 4.21073 0
M  V30 15055 H 1765.53 3.05587 5.7142 0
M  V30 15056 N 1758.94 -1.47929 0.54358 0
M  V30 15057 C 1760.19 -2.02095 0.0144379 0
M  V30 15058 C 1760.51 -1.42166 -1.33469 0
M  V30 15059 O 1759.78 -0.591899 -1.86744 0
M  V30 15060 H 1758.36 -0.746996 0.00234858 0
M  V30 15061 H 1761.02 -1.81488 0.710498 0
M  V30 15062 H 1760.12 -3.11987 -0.0838074 0
M  V30 15063 N 1760.42 -0.27936 -1.55104 0
M  V30 15064 C 1761.83 0.074665 -1.59425 0
M  V30 15065 C 1762.03 1.54246 -1.29655 0
M  V30 15066 O 1761.09 2.29197 -1.05947 0
M  V30 15067 C 1762.4 -0.30379 -2.99162 0
M  V30 15068 C 1763.95 -0.250758 -3.11994 0
M  V30 15069 C 1764.43 -0.603715 -4.54004 0
M  V30 15070 N 1765.92 -0.555428 -4.59858 0
M  V30 15071 C 1766.65 -0.801278 -5.67774 0
M  V30 15072 N 1766.15 -1.11197 -6.83818 0
M  V30 15073 N 1767.94 -0.72979 -5.57342 0
M  V30 15074 H 1760.09 -1.23619 -1.7272 0
M  V30 15075 H 1762.35 -0.499704 -0.805606 0
M  V30 15076 H 1762.06 -1.32475 -3.25796 0
M  V30 15077 H 1761.93 0.353294 -3.75542 0
M  V30 15078 H 1764.32 0.760925 -2.85121 0
M  V30 15079 H 1764.4 -0.94216 -2.37817 0
M  V30 15080 H 1764.05 -1.6131 -4.81603 0
M  V30 15081 H 1763.98 0.109523 -5.26486 0
M  V30 15082 H 1766.47 -0.325348 -3.76497 0
M  V30 15083 H 1766.78 -1.28611 -7.62023 0
M  V30 15084 H 1765.13 -1.14978 -6.85423 0
M  V30 15085 H 1768.32 -0.48688 -4.65561 0
M  V30 15086 H 1768.49 -0.92477 -6.41367 0
M  V30 15087 N 1761.9 1.57599 -0.0067085 0
M  V30 15088 C 1763.12 1.95545 0.69115 0
M  V30 15089 C 1763.55 0.882014 1.66139 0
M  V30 15090 O 1762.9 -0.159242 1.80599 0
M  V30 15091 C 1762.95 3.3259 1.39342 0
M  V30 15092 O 1762.06 3.27368 2.50806 0
M  V30 15093 H 1761.4 0.638188 0.183336 0
M  V30 15094 H 1763.93 2.04506 -0.0618957 0
M  V30 15095 H 1763.94 3.6831 1.75532 0
M  V30 15096 H 1762.61 4.10269 0.682072 0
M  V30 15097 H 1761.19 3.03334 2.16894 0
M  V30 15098 N 1763.37 -0.266145 1.55336 0
M  V30 15099 C 1764.62 -0.994862 1.75917 0
M  V30 15100 C 1764.94 -1.8657 0.567147 0
M  V30 15101 O 1764.21 -1.91394 -0.417738 0
M  V30 15102 H 1762.79 -0.370318 0.648748 0
M  V30 15103 H 1765.45 -0.288724 1.9275 0
M  V30 15104 H 1764.55 -1.62781 2.66287 0
M  V30 15105 N 1764.85 -1.48386 -0.530967 0
M  V30 15106 C 1765.76 -1.65516 -1.66257 0
M  V30 15107 C 1766.78 -0.5377 -1.65483 0
M  V30 15108 O 1767.95 -0.808642 -1.84453 0
M  V30 15109 C 1765.02 -1.68999 -3.02722 0
M  V30 15110 C 1764.08 -2.92365 -3.14358 0
M  V30 15111 C 1763.31 -2.95672 -4.44313 0
M  V30 15112 O 1763.54 -2.07417 -5.31352 0
M  V30 15113 O 1762.47 -3.87831 -4.60294 0
M  V30 15114 H 1766.3 -2.61321 -1.54742 0
M  V30 15115 H 1763.88 -1.31776 -0.703946 0
M  V30 15116 H 1765.76 -1.73816 -3.83883 0
M  V30 15117 H 1764.44 -0.763675 -3.14563 0
M  V30 15118 H 1763.34 -2.93081 -2.32496 0
M  V30 15119 H 1764.68 -3.84378 -3.07433 0
M  V30 15120 N 1766.33 0.779763 -1.36958 0
M  V30 15121 C 1767.56 1.56875 -1.34899 0
M  V30 15122 C 1767.97 1.88679 0.0675345 0
M  V30 15123 O 1767.33 1.50852 1.02712 0
M  V30 15124 C 1767.38 2.88391 -2.17975 0
M  V30 15125 O 1767.1 2.57954 -3.54107 0
M  V30 15126 C 1768.6 3.82657 -2.23805 0
M  V30 15127 H 1765.82 0.486262 -0.462374 0
M  V30 15128 H 1768.37 0.967072 -1.80189 0
M  V30 15129 H 1766.52 3.45003 -1.76215 0
M  V30 15130 H 1766.94 3.42115 -3.97564 0
M  V30 15131 H 1768.41 4.71967 -2.86272 0
M  V30 15132 H 1768.89 4.21208 -1.24421 0
M  V30 15133 H 1769.49 3.31976 -2.65843 0
M  V30 15134 N 1767.81 1.21396 1.00503 0
M  V30 15135 C 1769.06 1.02913 1.73935 0
M  V30 15136 C 1769.38 -0.438329 1.9001 0
M  V30 15137 O 1768.65 -1.31618 1.45098 0
M  V30 15138 H 1767.23 0.377813 0.644412 0
M  V30 15139 H 1769.89 1.52704 1.21109 0
M  V30 15140 H 1768.98 1.49705 2.73852 0
M  V30 15141 N 1769.29 -1.19996 1.0217 0
M  V30 15142 C 1770.7 -1.71202 0.744777 0
M  V30 15143 C 1771.05 -1.81862 -0.736238 0
M  V30 15144 O 1770.17 -1.48475 -1.5743 0
M  V30 15145 C 1770.77 -3.10945 1.34531 0
M  V30 15146 C 1769.33 -3.5944 1.11714 0
M  V30 15147 C 1768.47 -2.36501 1.44784 0
M  V30 15148 H 1771.42 -1.04938 1.19054 0
M  V30 15149 H 1771.45 -3.73264 0.738531 0
M  V30 15150 H 1770.96 -3.03154 2.42321 0
M  V30 15151 H 1769.06 -3.72556 0.0571346 0
M  V30 15152 H 1769.17 -4.43969 1.80079 0
M  V30 15153 H 1767.54 -2.3949 0.866981 0
M  V30 15154 H 1768.32 -2.31347 2.53641 0
M  V30 15155 N 1770.76 -0.798611 -1.35867 0
M  V30 15156 C 1771.73 -0.209177 -2.28243 0
M  V30 15157 C 1772.73 0.598842 -1.49233 0
M  V30 15158 O 1773.92 0.418491 -1.69098 0
M  V30 15159 C 1771.05 0.709336 -3.33438 0
M  V30 15160 H 1772.24 -1.02382 -2.81883 0
M  V30 15161 H 1769.79 -0.568687 -1.45587 0
M  V30 15162 H 1770.53 1.54797 -2.84971 0
M  V30 15163 H 1770.31 0.131756 -3.91879 0
M  V30 15164 H 1771.8 1.11632 -4.02403 0
M  V30 15165 N 1772.24 1.47639 -0.551417 0
M  V30 15166 C 1773.49 2.02084 -0.0251553 0
M  V30 15167 C 1773.81 1.42872 1.32713 0
M  V30 15168 O 1773.08 0.601794 1.86428 0
M  V30 15169 H 1771.66 0.746973 -0.00631005 0
M  V30 15170 H 1774.32 1.81109 -0.720113 0
M  V30 15171 H 1773.42 3.12028 0.0672608 0
M  V30 15172 N 1773.72 0.287581 1.54954 0
M  V30 15173 C 1775.13 -0.207733 1.85541 0
M  V30 15174 C 1775.48 -1.54478 1.20959 0
M  V30 15175 O 1774.61 -2.10487 0.502399 0
M  V30 15176 C 1775.2 -0.383701 3.3662 0
M  V30 15177 C 1773.76 -0.82324 3.67287 0
M  V30 15178 C 1772.91 0.0762579 2.77195 0
M  V30 15179 H 1775.86 0.509004 1.50316 0
M  V30 15180 H 1775.88 -1.22036 3.60399 0
M  V30 15181 H 1775.39 0.589575 3.83596 0
M  V30 15182 H 1773.49 -1.80754 3.2582 0
M  V30 15183 H 1773.61 -0.651925 4.74644 0
M  V30 15184 H 1771.97 -0.44219 2.50832 0
M  V30 15185 H 1772.75 1.04564 3.26988 0
M  V30 15186 N 1775.2 -1.57593 0.0150662 0
M  V30 15187 C 1776.61 -1.79146 -0.525709 0
M  V30 15188 C 1776.96 -0.923985 -1.73081 0
M  V30 15189 O 1776.09 -0.130532 -2.16006 0
M  V30 15190 C 1776.68 -3.249 -0.960492 0
M  V30 15191 C 1775.24 -3.47497 -1.44647 0
M  V30 15192 C 1774.39 -2.74332 -0.404628 0
M  V30 15193 H 1777.34 -1.56857 0.241175 0
M  V30 15194 H 1777.36 -3.3384 -1.82568 0
M  V30 15195 H 1776.87 -3.88011 -0.0832025 0
M  V30 15196 H 1774.97 -2.8962 -2.34416 0
M  V30 15197 H 1775.08 -4.56199 -1.46354 0
M  V30 15198 H 1773.45 -2.39394 -0.869627 0
M  V30 15199 H 1774.23 -3.40151 0.463953 0
M  V30 15200 N 1776.68 0.257904 -1.55475 0
M  V30 15201 C 1777.92 0.985519 -1.76442 0
M  V30 15202 C 1778.25 1.86267 -0.577033 0
M  V30 15203 O 1777.52 1.91613 0.407582 0
M  V30 15204 H 1776.1 0.366872 -0.650702 0
M  V30 15205 H 1778.76 0.278498 -1.929 0
M  V30 15206 H 1777.85 1.61367 -2.67146 0
M  V30 15207 N 1778.15 1.48666 0.52309 0
M  V30 15208 C 1779.1 1.64155 1.6479 0
M  V30 15209 C 1780.1 0.507838 1.61609 0
M  V30 15210 O 1781.3 0.686784 1.66383 0
M  V30 15211 H 1777.68 0.517234 0.545869 0
M  V30 15212 H 1779.65 2.58611 1.48871 0
M  V30 15213 C 1778.4 1.70488 3.03033 0
M  V30 15214 H 1777.72 2.5709 3.06178 0
M  V30 15215 H 1779.16 1.85367 3.81333 0
M  V30 15216 C 1777.62 0.444984 3.33948 0
M  V30 15217 O 1778.15 -0.439107 3.99293 0
M  V30 15218 N 1776.36 0.314593 2.88892 0
M  V30 15219 H 1775.9 1.03501 2.35893 0
M  V30 15220 H 1775.86 -0.527357 3.09946 0
M  V30 15221 N 1779.63 -0.772489 1.37369 0
M  V30 15222 C 1781.04 -1.34873 1.29098 0
M  V30 15223 C 1781.39 -1.96103 -0.0617433 0
M  V30 15224 O 1780.52 -1.93764 -0.963562 0
M  V30 15225 C 1781.11 -2.45218 2.33781 0
M  V30 15226 C 1779.67 -2.98612 2.29146 0
M  V30 15227 C 1778.82 -1.71823 2.17651 0
M  V30 15228 H 1781.77 -0.572805 1.48002 0
M  V30 15229 H 1781.79 -3.24679 1.98404 0
M  V30 15230 H 1781.3 -2.00624 3.32222 0
M  V30 15231 H 1779.41 -3.47583 1.34225 0
M  V30 15232 H 1779.52 -3.54276 3.22529 0
M  V30 15233 H 1777.88 -1.94719 1.64185 0
M  V30 15234 H 1778.67 -1.29334 3.18006 0
M  V30 15235 N 1781.11 -1.21927 -0.998575 0
M  V30 15236 C 1782.36 -1.03834 -1.73386 0
M  V30 15237 C 1782.68 0.428247 -1.90239 0
M  V30 15238 O 1781.95 1.30847 -1.45794 0
M  V30 15239 H 1780.53 -0.381225 -0.642399 0
M  V30 15240 H 1783.19 -1.53344 -1.20298 0
M  V30 15241 H 1782.29 -1.51155 -2.73054 0
M  V30 15242 N 1782.59 1.19452 -1.02805 0
M  V30 15243 C 1784 1.70804 -0.753845 0
M  V30 15244 C 1784.35 1.8225 0.726584 0
M  V30 15245 O 1783.48 1.49307 1.56641 0
M  V30 15246 C 1784.07 3.10227 -1.36178 0
M  V30 15247 C 1782.63 3.58842 -1.13618 0
M  V30 15248 C 1781.78 2.3573 -1.46036 0
M  V30 15249 H 1784.73 1.04305 -1.19608 0
M  V30 15250 H 1784.75 3.72867 -0.758315 0
M  V30 15251 H 1784.26 3.01864 -2.43925 0
M  V30 15252 H 1782.36 3.72521 -0.0768914 0
M  V30 15253 H 1782.47 4.43008 -1.82431 0
M  V30 15254 H 1780.84 2.39027 -0.879669 0
M  V30 15255 H 1781.62 2.29998 -2.54864 0
M  V30 15256 N 1784.07 0.805805 1.35442 0
M  V30 15257 C 1785.48 0.446863 1.81273 0
M  V30 15258 C 1785.83 -1.03104 1.66925 0
M  V30 15259 O 1784.95 -1.80117 1.19945 0
M  V30 15260 C 1785.55 0.80433 3.29114 0
M  V30 15261 C 1784.11 0.497997 3.73091 0
M  V30 15262 C 1783.25 1.03035 2.57447 0
M  V30 15263 H 1786.21 0.997517 1.23431 0
M  V30 15264 H 1786.23 0.101559 3.80364 0
M  V30 15265 H 1785.74 1.88001 3.39525 0
M  V30 15266 H 1783.84 -0.568982 3.6823 0
M  V30 15267 H 1783.95 1.03008 4.67896 0
M  V30 15268 H 1782.32 0.452716 2.50644 0
M  V30 15269 H 1783.1 2.11213 2.70636 0
M  V30 15270 N 1785.54 -1.47344 0.559239 0
M  V30 15271 C 1786.79 -2.02068 0.035872 0
M  V30 15272 C 1787.11 -1.43573 -1.31953 0
M  V30 15273 O 1786.38 -0.611672 -1.86106 0
M  V30 15274 H 1784.96 -0.746929 0.0102713 0
M  V30 15275 H 1787.63 -1.80724 0.729707 0
M  V30 15276 H 1786.72 -3.12059 -0.0507123 0
M  V30 15277 N 1787.02 -0.295795 -1.54799 0
M  V30 15278 C 1788.43 0.19789 -1.85648 0
M  V30 15279 C 1788.78 1.53834 -1.21776 0
M  V30 15280 O 1787.91 2.10218 -0.513554 0
M  V30 15281 C 1788.5 0.365844 -3.36819 0
M  V30 15282 C 1787.06 0.80375 -3.67718 0
M  V30 15283 C 1786.21 -0.0909572 -2.77151 0
M  V30 15284 H 1789.16 -0.516968 -1.50044 0
M  V30 15285 H 1789.18 1.20123 -3.61041 0
M  V30 15286 H 1788.69 -0.60991 -3.83278 0
M  V30 15287 H 1786.8 1.79024 -3.26774 0
M  V30 15288 H 1786.91 0.626745 -4.74983 0
M  V30 15289 H 1785.27 0.428882 -2.51063 0
M  V30 15290 H 1786.06 -1.06297 -3.26429 0
M  V30 15291 N 1788.5 1.57583 -0.0234236 0
M  V30 15292 C 1789.91 1.79422 0.516201 0
M  V30 15293 C 1790.26 0.933151 1.72588 0
M  V30 15294 O 1789.39 0.141985 2.15934 0
M  V30 15295 C 1789.98 3.25405 0.943248 0
M  V30 15296 C 1788.54 3.48259 1.42802 0
M  V30 15297 C 1787.69 2.74543 0.390074 0
M  V30 15298 H 1790.64 1.56727 -0.24949 0
M  V30 15299 H 1790.66 3.34803 1.80795 0
M  V30 15300 H 1790.17 3.88049 0.0626242 0
M  V30 15301 H 1788.27 2.9086 2.32877 0
M  V30 15302 H 1788.39 4.56968 1.43933 0
M  V30 15303 H 1786.75 2.39852 0.856919 0
M  V30 15304 H 1787.53 3.399 -0.481986 0
M  V30 15305 N 1789.98 -0.249655 1.5561 0
M  V30 15306 C 1791.23 -0.976148 1.76963 0
M  V30 15307 C 1791.55 -1.85958 0.586903 0
M  V30 15308 O 1790.82 -1.91827 -0.397415 0
M  V30 15309 H 1789.4 -0.363416 0.652639 0
M  V30 15310 H 1792.06 -0.268264 1.93045 0
M  V30 15311 H 1791.16 -1.59948 2.67998 0
M  V30 15312 N 1791.46 -1.48941 -0.515198 0
M  V30 15313 C 1792.87 -1.51076 -1.09695 0
M  V30 15314 C 1793.22 -0.288875 -1.94062 0
M  V30 15315 O 1792.34 0.602665 -2.07839 0
M  V30 15316 C 1792.94 -2.73755 -1.99609 0
M  V30 15317 C 1791.5 -2.78714 -2.52974 0
M  V30 15318 C 1790.65 -2.44798 -1.30266 0
M  V30 15319 H 1793.6 -1.55843 -0.299757 0
M  V30 15320 H 1793.62 -2.53112 -2.84103 0
M  V30 15321 H 1793.13 -3.62668 -1.38178 0
M  V30 15322 H 1791.23 -1.94045 -3.18084 0
M  V30 15323 H 1791.34 -3.80525 -2.91097 0
M  V30 15324 H 1789.71 -1.9627 -1.62327 0
M  V30 15325 H 1790.49 -3.35969 -0.705648 0
M  V30 15326 N 1792.94 0.765193 -1.37777 0
M  V30 15327 C 1794.35 1.34186 -1.29811 0
M  V30 15328 C 1794.7 1.96133 0.0513426 0
M  V30 15329 O 1793.82 1.94272 0.953273 0
M  V30 15330 C 1794.42 2.43975 -2.35078 0
M  V30 15331 C 1792.98 2.97393 -2.30726 0
M  V30 15332 C 1792.12 1.70667 -2.18559 0
M  V30 15333 H 1795.07 0.564948 -1.48304 0
M  V30 15334 H 1795.1 3.23622 -2.00123 0
M  V30 15335 H 1794.61 1.98859 -3.33282 0
M  V30 15336 H 1792.71 3.46867 -1.36067 0
M  V30 15337 H 1792.82 3.52561 -3.24403 0
M  V30 15338 H 1791.19 1.93846 -1.65215 0
M  V30 15339 H 1791.97 1.27645 -3.18687 0
M  V30 15340 N 1794.41 1.22455 0.992094 0
M  V30 15341 C 1795.66 1.04752 1.72833 0
M  V30 15342 C 1795.98 -0.418152 1.90464 0
M  V30 15343 O 1795.25 -1.30072 1.46486 0
M  V30 15344 H 1793.83 0.384626 0.640368 0
M  V30 15345 H 1796.49 1.5398 1.19483 0
M  V30 15346 H 1795.59 1.52601 2.72249 0
M  V30 15347 N 1795.89 -1.18905 1.03437 0
M  V30 15348 C 1797.3 -1.70402 0.762893 0
M  V30 15349 C 1797.65 -1.82633 -0.716908 0
M  V30 15350 O 1796.78 -1.50136 -1.55847 0
M  V30 15351 C 1797.37 -3.09501 1.37822 0
M  V30 15352 C 1795.93 -3.58235 1.1552 0
M  V30 15353 C 1795.08 -2.34953 1.47284 0
M  V30 15354 H 1798.03 -1.03669 1.2016 0
M  V30 15355 H 1798.05 -3.7246 0.778079 0
M  V30 15356 H 1797.56 -3.00566 2.45523 0
M  V30 15357 H 1795.66 -3.72475 0.096646 0
M  V30 15358 H 1795.78 -4.42034 1.84778 0
M  V30 15359 H 1794.14 -2.38557 0.892333 0
M  V30 15360 H 1794.92 -2.28643 2.5608 0
M  V30 15361 N 1797.37 -0.812977 -1.35013 0
M  V30 15362 C 1798.62 -0.395562 -1.98191 0
M  V30 15363 C 1798.94 1.04242 -1.64799 0
M  V30 15364 O 1798.21 1.72219 -0.933678 0
M  V30 15365 H 1796.79 -0.143276 -0.733131 0
M  V30 15366 H 1799.45 -1.04023 -1.64819 0
M  V30 15367 H 1798.55 -0.506466 -3.07963 0
M  V30 15368 N 1798.85 1.47045 -0.567045 0
M  V30 15369 C 1800.1 2.01651 -0.044479 0
M  V30 15370 C 1800.41 1.44583 1.31738 0
M  V30 15371 O 1801.62 1.90911 1.93042 0
M  V30 15372 C 1800.07 3.59888 -0.0289854 0
M  V30 15373 C 1799.68 4.25949 -1.38821 0
M  V30 15374 C 1801.42 4.22209 0.440457 0
M  V30 15375 C 1799.33 5.76221 -1.33129 0
M  V30 15376 H 1798.26 0.75389 -0.012858 0
M  V30 15377 H 1800.91 1.68939 -0.716363 0
M  V30 15378 H 1799.29 3.89606 0.708747 0
M  V30 15379 H 1800.47 4.07861 -2.14443 0
M  V30 15380 H 1798.78 3.75658 -1.79639 0
M  V30 15381 H 1801.38 5.32342 0.501592 0
M  V30 15382 H 1801.72 3.9006 1.45461 0
M  V30 15383 H 1802.26 3.97059 -0.242721 0
M  V30 15384 H 1798.99 6.13005 -2.32175 0
M  V30 15385 H 1798.51 5.96618 -0.617023 0
M  V30 15386 H 1800.19 6.38627 -1.03752 0
M  V30 15387 N 1800.33 0.304 1.5464 0
M  V30 15388 C 1801.6 -0.357665 1.92302 0
M  V30 15389 C 1801.98 -1.71453 1.23155 0
M  V30 15390 O 1801.33 -2.25512 0.368342 0
M  V30 15391 C 1801.54 -0.469339 3.4583 0
M  V30 15392 C 1802.89 -0.738803 4.18123 0
M  V30 15393 O 1803.91 -0.553033 3.51881 0
M  V30 15394 O 1802.77 -1.09585 5.354 0
M  V30 15395 H 1799.87 -0.200506 0.802326 0
M  V30 15396 H 1802.41 0.352279 1.66003 0
M  V30 15397 H 1801.18 0.484397 3.8829 0
M  V30 15398 H 1800.81 -1.22763 3.78173 0
M  V30 15399 N 1801.8 -1.57568 0.0317802 0
M  V30 15400 C 1802.74 -2.05894 -0.984021 0
M  V30 15401 C 1803.71 -0.955271 -1.3158 0
M  V30 15402 O 1804.9 -1.22579 -1.43201 0
M  V30 15403 C 1802.03 -2.48323 -2.30334 0
M  V30 15404 C 1801.07 -3.69736 -2.12598 0
M  V30 15405 S 1801.9 -5.16266 -1.42233 0
M  V30 15406 C 1803.06 -5.61992 -2.75528 0
M  V30 15407 H 1803.29 -2.91732 -0.572665 0
M  V30 15408 H 1800.83 -1.53347 -0.179981 0
M  V30 15409 H 1802.78 -2.73433 -3.06178 0
M  V30 15410 H 1801.45 -1.62825 -2.68602 0
M  V30 15411 H 1800.64 -3.97279 -3.10138 0
M  V30 15412 H 1800.24 -3.44792 -1.44896 0
M  V30 15413 H 1802.53 -5.66394 -3.71758 0
M  V30 15414 H 1803.48 -6.61495 -2.52646 0
M  V30 15415 H 1803.88 -4.8965 -2.80897 0
M  V30 15416 N 1803.28 0.241399 -1.5574 0
M  V30 15417 C 1804.51 0.99028 -1.82231 0
M  V30 15418 C 1804.93 1.77949 -0.609559 0
M  V30 15419 O 1804.29 1.75843 0.44148 0
M  V30 15420 C 1804.34 1.89947 -3.06516 0
M  V30 15421 O 1803.44 2.99201 -2.83818 0
M  V30 15422 H 1802.78 0.281488 -0.601382 0
M  V30 15423 H 1805.31 0.260721 -2.02932 0
M  V30 15424 H 1805.32 2.31308 -3.36096 0
M  V30 15425 H 1804 1.31924 -3.94422 0
M  V30 15426 H 1802.58 2.61929 -2.6542 0
M  V30 15427 N 1804.76 1.49212 0.507292 0
M  V30 15428 C 1805.72 1.64908 1.59179 0
M  V30 15429 C 1806.72 0.521176 1.5212 0
M  V30 15430 O 1807.91 0.787492 1.55384 0
M  V30 15431 C 1805.05 1.64057 2.98828 0
M  V30 15432 H 1806.24 2.6163 1.46593 0
M  V30 15433 H 1803.79 1.38149 0.731062 0
M  V30 15434 H 1804.53 0.688956 3.16897 0
M  V30 15435 H 1804.31 2.45963 3.0536 0
M  V30 15436 H 1805.8 1.78279 3.77633 0
M  V30 15437 N 1806.24 -0.757876 1.38181 0
M  V30 15438 C 1807.49 -1.51688 1.34153 0
M  V30 15439 C 1807.81 -1.94375 -0.0697487 0
M  V30 15440 O 1807.07 -1.65404 -1.04594 0
M  V30 15441 C 1807.37 -2.78548 2.23933 0
M  V30 15442 C 1807.03 -2.54845 3.71975 0
M  V30 15443 C 1805.7 -2.48089 4.12317 0
M  V30 15444 C 1808.05 -2.34027 4.65704 0
M  V30 15445 C 1805.38 -2.18526 5.44485 0
M  V30 15446 C 1807.73 -2.05986 5.98124 0
M  V30 15447 C 1806.39 -1.97683 6.37556 0
M  V30 15448 H 1805.66 -0.555064 0.490902 0
M  V30 15449 H 1808.31 -0.871823 1.70504 0
M  V30 15450 H 1806.61 -3.47682 1.80623 0
M  V30 15451 H 1808.31 -3.36487 2.18122 0
M  V30 15452 H 1804.9 -2.60972 3.39988 0
M  V30 15453 H 1809.08 -2.38228 4.35386 0
M  V30 15454 H 1804.34 -2.10603 5.73983 0
M  V30 15455 H 1808.51 -1.8888 6.70296 0
M  V30 15456 H 1806.14 -1.7454 7.39892 0
M  V30 15457 N 1807.72 -1.22979 -0.985586 0
M  V30 15458 C 1808.68 -1.00763 -2.05862 0
M  V30 15459 C 1809.68 0.02864 -1.60774 0
M  V30 15460 O 1810.87 -0.210593 -1.72922 0
M  V30 15461 C 1808 -0.523547 -3.36856 0
M  V30 15462 H 1809.19 -1.95982 -2.27004 0
M  V30 15463 H 1806.75 -1.0495 -1.15824 0
M  V30 15464 H 1807.48 0.432658 -3.21401 0
M  V30 15465 H 1807.27 -1.27127 -3.70919 0
M  V30 15466 H 1808.76 -0.388591 -4.15788 0
M  V30 15467 N 1809.19 1.18355 -1.04066 0
M  V30 15468 C 1810.44 1.87963 -0.742576 0
M  V30 15469 C 1810.76 1.80744 0.731899 0
M  V30 15470 O 1810.03 1.22576 1.52813 0
M  V30 15471 H 1808.61 0.69584 -0.271689 0
M  V30 15472 H 1811.28 1.43632 -1.31741 0
M  V30 15473 H 1810.37 2.93999 -1.04741 0
M  V30 15474 N 1810.67 0.820125 1.3458 0
M  V30 15475 C 1811.6 0.254709 2.32107 0
M  V30 15476 C 1812.58 -0.6273 1.58111 0
M  V30 15477 O 1813.77 -0.554759 1.86108 0
M  V30 15478 C 1810.9 -0.586541 3.42311 0
M  V30 15479 C 1809.85 0.198096 4.27541 0
M  V30 15480 C 1809.18 -0.765718 5.29189 0
M  V30 15481 C 1810.48 1.40472 5.03056 0
M  V30 15482 H 1812.17 1.06955 2.79644 0
M  V30 15483 H 1809.72 0.515756 1.34447 0
M  V30 15484 H 1811.67 -0.992259 4.09551 0
M  V30 15485 H 1810.4 -1.4344 2.93415 0
M  V30 15486 H 1809.05 0.585149 3.619 0
M  V30 15487 H 1808.7 -1.60946 4.76556 0
M  V30 15488 H 1808.4 -0.244954 5.87089 0
M  V30 15489 H 1809.93 -1.16935 5.99298 0
M  V30 15490 H 1811.34 1.07316 5.63166 0
M  V30 15491 H 1809.74 1.86092 5.70517 0
M  V30 15492 H 1810.81 2.18437 4.32913 0
M  V30 15493 N 1812.15 -1.46743 0.574835 0
M  V30 15494 C 1813.4 -2.02019 0.057302 0
M  V30 15495 C 1813.72 -1.44965 -1.30423 0
M  V30 15496 O 1812.99 -0.631377 -1.85447 0
M  V30 15497 H 1811.57 -0.746778 0.018193 0
M  V30 15498 H 1814.23 -1.7994 0.748834 0
M  V30 15499 H 1813.33 -3.12095 -0.0176114 0
M  V30 15500 N 1813.63 -0.312197 -1.54477 0
M  V30 15501 C 1815.04 0.178189 -1.85848 0
M  V30 15502 C 1815.39 1.52534 -1.23401 0
M  V30 15503 O 1814.52 2.09661 -0.535822 0
M  V30 15504 C 1815.11 0.330099 -3.37188 0
M  V30 15505 C 1813.67 0.764703 -3.6855 0
M  V30 15506 C 1812.82 -0.120348 -2.77039 0
M  V30 15507 H 1815.77 -0.532853 -1.49487 0
M  V30 15508 H 1815.79 1.16287 -3.62295 0
M  V30 15509 H 1815.3 -0.650527 -3.82609 0
M  V30 15510 H 1813.4 1.75548 -3.28654 0
M  V30 15511 H 1813.51 0.576331 -4.75621 0
M  V30 15512 H 1811.88 0.402229 -2.51504 0
M  V30 15513 H 1812.66 -1.09753 -3.25283 0
M  V30 15514 N 1815.11 1.57549 -0.040136 0
M  V30 15515 C 1816.52 1.56434 0.316341 0
M  V30 15516 C 1816.72 1.04679 1.72176 0
M  V30 15517 O 1815.78 0.698444 2.42648 0
M  V30 15518 C 1817.09 3.00301 0.154883 0
M  V30 15519 C 1818.64 3.12177 0.226821 0
M  V30 15520 C 1819.11 4.57903 0.0940219 0
M  V30 15521 N 1820.61 4.62955 0.150654 0
M  V30 15522 C 1821.34 5.73355 0.0718466 0
M  V30 15523 N 1820.84 6.92775 -0.0586777 0
M  V30 15524 N 1822.63 5.61957 0.126632 0
M  V30 15525 H 1814.78 1.89516 -0.959032 0
M  V30 15526 H 1817.04 0.872251 -0.371324 0
M  V30 15527 H 1816.75 3.42158 -0.813674 0
M  V30 15528 H 1816.62 3.65795 0.920521 0
M  V30 15529 H 1819.01 2.70225 1.18584 0
M  V30 15530 H 1819.09 2.49383 -0.569384 0
M  V30 15531 H 1818.74 5.00538 -0.861629 0
M  V30 15532 H 1818.67 5.18691 0.909231 0
M  V30 15533 H 1821.16 3.77064 0.251232 0
M  V30 15534 H 1821.47 7.72719 -0.111818 0
M  V30 15535 H 1819.81 6.94937 -0.0936119 0
M  V30 15536 H 1823.01 4.67549 0.227081 0
M  V30 15537 H 1823.18 6.47971 0.0617551 0
M  V30 15538 N 1816.58 -0.233136 1.55866 0
M  V30 15539 C 1817.49 -1.31004 1.94615 0
M  V30 15540 C 1818.51 -1.51915 0.848399 0
M  V30 15541 O 1819.69 -1.6527 1.15098 0
M  V30 15542 C 1816.75 -2.64203 2.24494 0
M  V30 15543 C 1815.81 -2.51695 3.47776 0
M  V30 15544 C 1815.05 -3.78542 3.7622 0
M  V30 15545 O 1815.27 -4.81043 3.06519 0
M  V30 15546 O 1814.2 -3.76348 4.69729 0
M  V30 15547 H 1818.03 -1.01129 2.86368 0
M  V30 15548 H 1815.61 -0.435043 1.42926 0
M  V30 15549 H 1817.5 -3.42889 2.44959 0
M  V30 15550 H 1816.17 -2.93782 1.35918 0
M  V30 15551 H 1815.08 -1.71248 3.32603 0
M  V30 15552 H 1816.41 -2.27058 4.36698 0
M  V30 15553 N 1818.06 -1.49479 -0.499372 0
M  V30 15554 C 1819.01 -1.66268 -1.60073 0
M  V30 15555 C 1819.98 -0.504137 -1.58265 0
M  V30 15556 O 1821.17 -0.731358 -1.76227 0
M  V30 15557 C 1818.31 -1.73678 -2.98211 0
M  V30 15558 C 1817.42 -3.00848 -3.10023 0
M  V30 15559 C 1816.55 -2.99227 -4.38904 0
M  V30 15560 C 1815.59 -4.20969 -4.44355 0
M  V30 15561 N 1814.73 -4.17249 -5.64666 0
M  V30 15562 H 1819.57 -2.60308 -1.45065 0
M  V30 15563 H 1817.11 -1.29063 -0.705774 0
M  V30 15564 H 1819.06 -1.75956 -3.7828 0
M  V30 15565 H 1817.69 -0.831037 -3.11919 0
M  V30 15566 H 1816.75 -3.08175 -2.23008 0
M  V30 15567 H 1818.06 -3.90841 -3.09911 0
M  V30 15568 H 1817.21 -3.00076 -5.27294 0
M  V30 15569 H 1815.95 -2.07015 -4.41584 0
M  V30 15570 H 1814.96 -4.20362 -3.54366 0
M  V30 15571 H 1816.18 -5.14376 -4.4339 0
M  V30 15572 H 1814.13 -3.27875 -5.68185 0
M  V30 15573 H 1814.04 -5.00979 -5.66177 0
M  V30 15574 H 1815.31 -4.22203 -6.55259 0
M  V30 15575 N 1819.54 0.750537 -1.38581 0
M  V30 15576 C 1820.79 1.50676 -1.34689 0
M  V30 15577 C 1821.11 1.94903 0.0615414 0
M  V30 15578 O 1820.38 1.67867 1.00982 0
M  V30 15579 H 1818.96 0.558914 -0.495605 0
M  V30 15580 H 1821.62 0.891979 -1.73291 0
M  V30 15581 H 1820.72 2.39623 -1.99969 0
M  V30 15582 N 1821.02 1.235 0.979051 0
M  V30 15583 C 1822.43 1.06263 1.53509 0
M  V30 15584 C 1822.78 -0.369594 1.92687 0
M  V30 15585 O 1821.91 -1.25649 1.76185 0
M  V30 15586 C 1822.5 1.92276 2.78954 0
M  V30 15587 C 1821.06 1.79296 3.30953 0
M  V30 15588 C 1820.21 1.87898 2.03935 0
M  V30 15589 H 1823.16 1.37143 0.798588 0
M  V30 15590 H 1823.18 1.44835 3.51857 0
M  V30 15591 H 1822.69 2.96509 2.50408 0
M  V30 15592 H 1820.79 0.778512 3.64376 0
M  V30 15593 H 1820.91 2.62755 4.0062 0
M  V30 15594 H 1819.27 1.31494 2.18131 0
M  V30 15595 H 1820.05 2.93689 1.77769 0
M  V30 15596 N 1822.5 -1.17802 1.04693 0
M  V30 15597 C 1823.77 -1.83839 0.668039 0
M  V30 15598 C 1824.15 -1.93143 -0.852008 0
M  V30 15599 O 1823.5 -1.46213 -1.75596 0
M  V30 15600 C 1823.71 -3.21783 1.35118 0
M  V30 15601 C 1825.06 -3.97747 1.48601 0
M  V30 15602 O 1826.08 -3.31244 1.30979 0
M  V30 15603 O 1824.94 -5.16915 1.77373 0
M  V30 15604 H 1822.04 -0.793045 0.234538 0
M  V30 15605 H 1824.58 -1.25141 1.1462 0
M  V30 15606 H 1823.36 -3.0995 2.38844 0
M  V30 15607 H 1822.98 -3.88142 0.862045 0
M  V30 15608 N 1823.98 -0.827251 -1.34143 0
M  V30 15609 C 1825.39 -0.475645 -1.80539 0
M  V30 15610 C 1825.74 1.00435 -1.68545 0
M  V30 15611 O 1824.86 1.78186 -1.22795 0
M  V30 15612 C 1825.46 -0.856588 -3.27793 0
M  V30 15613 C 1824.02 -0.557289 -3.72252 0
M  V30 15614 C 1823.16 -1.07118 -2.55775 0
M  V30 15615 H 1826.11 -1.01703 -1.21829 0
M  V30 15616 H 1826.14 -0.162059 -3.80155 0
M  V30 15617 H 1825.65 -1.93379 -3.36491 0
M  V30 15618 H 1823.75 0.510328 -3.69089 0
M  V30 15619 H 1823.86 -1.10438 -4.66198 0
M  V30 15620 H 1822.23 -0.492534 -2.49892 0
M  V30 15621 H 1823.01 -2.15492 -2.67242 0
M  V30 15622 N 1825.45 1.46436 -0.582609 0
M  V30 15623 C 1826.38 2.33089 0.138477 0
M  V30 15624 C 1827.36 1.45339 0.883777 0
M  V30 15625 O 1828.55 1.74156 0.859257 0
M  V30 15626 C 1825.68 3.27611 1.15276 0
M  V30 15627 C 1824.63 4.24801 0.522308 0
M  V30 15628 C 1823.96 5.0883 1.64306 0
M  V30 15629 C 1825.26 5.19496 -0.540449 0
M  V30 15630 H 1826.95 2.93629 -0.585013 0
M  V30 15631 H 1824.5 1.41196 -0.282781 0
M  V30 15632 H 1826.45 3.87087 1.66558 0
M  V30 15633 H 1825.18 2.65177 1.90653 0
M  V30 15634 H 1823.84 3.66587 0.0305728 0
M  V30 15635 H 1823.48 4.42782 2.38649 0
M  V30 15636 H 1823.18 5.74649 1.22686 0
M  V30 15637 H 1824.71 5.7117 2.15864 0
M  V30 15638 H 1826.12 5.73189 -0.112706 0
M  V30 15639 H 1824.52 5.93658 -0.876957 0
M  V30 15640 H 1825.59 4.63434 -1.42677 0
M  V30 15641 N 1826.93 0.320385 1.54309 0
M  V30 15642 C 1827.86 -0.580992 2.21714 0
M  V30 15643 C 1828.88 -1.08236 1.21609 0
M  V30 15644 O 1830.07 -0.996489 1.48096 0
M  V30 15645 C 1827.17 -1.80961 2.86542 0
M  V30 15646 C 1826.34 -1.44746 4.12756 0
M  V30 15647 C 1825.4 -2.53327 4.61207 0
M  V30 15648 O 1824.42 -2.17605 5.25963 0
M  V30 15649 N 1825.63 -3.84204 4.35164 0
M  V30 15650 H 1828.39 -0.00384608 2.997 0
M  V30 15651 H 1825.95 0.143444 1.61263 0
M  V30 15652 H 1827.94 -2.52985 3.1588 0
M  V30 15653 H 1826.51 -2.29468 2.12281 0
M  V30 15654 H 1825.73 -0.55899 3.90217 0
M  V30 15655 H 1827.02 -1.18116 4.949 0
M  V30 15656 H 1826.42 -4.16026 3.83326 0
M  V30 15657 H 1824.98 -4.52468 4.69165 0
M  V30 15658 N 1828.41 -1.57525 0.0484906 0
M  V30 15659 C 1829.64 -1.96611 -0.634631 0
M  V30 15660 C 1830.05 -0.924571 -1.65071 0
M  V30 15661 O 1829.39 0.0999398 -1.83428 0
M  V30 15662 C 1829.45 -3.31924 -1.38082 0
M  V30 15663 C 1829.12 -4.54022 -0.520883 0
M  V30 15664 C 1830.11 -5.19468 0.21192 0
M  V30 15665 C 1827.8 -5.00257 -0.452595 0
M  V30 15666 C 1829.79 -6.29483 1.00148 0
M  V30 15667 C 1827.48 -6.1015 0.340652 0
M  V30 15668 C 1828.48 -6.74624 1.06638 0
M  V30 15669 O 1828.17 -7.82404 1.84659 0
M  V30 15670 H 1827.9 -0.652007 -0.178503 0
M  V30 15671 H 1830.45 -2.05103 0.110397 0
M  V30 15672 H 1828.68 -3.19979 -2.17142 0
M  V30 15673 H 1830.37 -3.55777 -1.95392 0
M  V30 15674 H 1831.14 -4.84707 0.168615 0
M  V30 15675 H 1827.02 -4.49866 -1.00706 0
M  V30 15676 H 1830.56 -6.79739 1.56844 0
M  V30 15677 H 1826.46 -6.44347 0.385605 0
M  V30 15678 H 1827.22 -7.99168 1.76842 0
M  V30 15679 N 1829.89 0.224867 -1.55988 0
M  V30 15680 C 1830.82 1.30573 -1.87152 0
M  V30 15681 C 1831.8 1.45363 -0.728591 0
M  V30 15682 O 1832.98 1.61228 -0.976615 0
M  V30 15683 C 1830.11 2.67648 -2.07563 0
M  V30 15684 C 1829.16 2.69891 -3.30244 0
M  V30 15685 S 1829.99 2.2429 -4.86265 0
M  V30 15686 C 1831.14 3.63247 -5.09708 0
M  V30 15687 H 1831.38 1.03943 -2.78537 0
M  V30 15688 H 1828.91 0.426946 -1.4838 0
M  V30 15689 H 1830.87 3.46566 -2.20005 0
M  V30 15690 H 1829.53 2.91504 -1.1698 0
M  V30 15691 H 1828.72 3.70612 -3.41559 0
M  V30 15692 H 1828.32 1.99034 -3.16641 0
M  V30 15693 H 1830.62 4.58913 -4.98403 0
M  V30 15694 H 1831.56 3.5685 -6.11608 0
M  V30 15695 H 1831.97 3.56781 -4.37456 0
M  V30 15696 N 1831.37 1.49742 0.491438 0
M  V30 15697 C 1832.78 1.36717 0.823454 0
M  V30 15698 C 1832.98 0.407587 1.97335 0
M  V30 15699 O 1832.04 -0.157251 2.5201 0
M  V30 15700 C 1833.35 2.77647 1.15466 0
M  V30 15701 C 1834.9 2.86417 1.26231 0
M  V30 15702 C 1835.37 4.28136 1.62676 0
M  V30 15703 N 1836.86 4.30992 1.69707 0
M  V30 15704 C 1837.6 5.37624 1.9937 0
M  V30 15705 N 1837.1 6.54489 2.27192 0
M  V30 15706 N 1838.89 5.25048 2.00701 0
M  V30 15707 H 1831.04 2.10719 -0.266676 0
M  V30 15708 H 1833.3 0.946301 -0.0567377 0
M  V30 15709 H 1833.01 3.49608 0.382994 0
M  V30 15710 H 1832.88 3.13617 2.09582 0
M  V30 15711 H 1835.27 2.14687 2.02468 0
M  V30 15712 H 1835.35 2.54018 0.301434 0
M  V30 15713 H 1834.99 5.00396 0.869859 0
M  V30 15714 H 1834.92 4.58007 2.59879 0
M  V30 15715 H 1837.42 3.46713 1.50327 0
M  V30 15716 H 1837.73 7.31572 2.49041 0
M  V30 15717 H 1836.07 6.57699 2.24627 0
M  V30 15718 H 1839.26 4.32751 1.78449 0
M  V30 15719 H 1839.44 6.08242 2.23484 0
M  V30 15720 N 1832.84 -0.743177 1.38977 0
M  V30 15721 C 1833.81 -1.83876 1.36829 0
M  V30 15722 C 1834.81 -1.5857 0.266875 0
M  V30 15723 O 1836 -1.66121 0.524337 0
M  V30 15724 C 1833.13 -3.21528 1.1328 0
M  V30 15725 H 1834.32 -1.87186 2.3431 0
M  V30 15726 H 1831.88 -0.945979 1.24422 0
M  V30 15727 H 1832.61 -3.23883 0.164474 0
M  V30 15728 H 1832.4 -3.41292 1.93034 0
M  V30 15729 H 1833.89 -4.01597 1.14498 0
M  V30 15730 N 1834.32 -1.24018 -0.972487 0
M  V30 15731 C 1835.6 -0.985099 -1.68983 0
M  V30 15732 C 1835.98 0.494006 -2.05238 0
M  V30 15733 O 1835.33 1.46715 -1.75177 0
M  V30 15734 C 1835.54 -1.90324 -2.92537 0
M  V30 15735 C 1836.89 -2.17134 -3.64881 0
M  V30 15736 O 1837.91 -1.87938 -3.02585 0
M  V30 15737 O 1836.77 -2.66691 -4.7701 0
M  V30 15738 H 1833.86 -0.372172 -0.738524 0
M  V30 15739 H 1836.41 -1.35095 -1.027 0
M  V30 15740 H 1835.18 -2.90278 -2.62401 0
M  V30 15741 H 1834.8 -1.54025 -3.66554 0
M  V30 15742 N 1835.8 1.17245 -1.05316 0
M  V30 15743 C 1836.73 2.20844 -0.613228 0
M  V30 15744 C 1837.75 1.5955 0.323671 0
M  V30 15745 O 1838.93 1.78121 0.116209 0
M  V30 15746 C 1836.03 3.38679 0.122482 0
M  V30 15747 C 1835.21 4.29541 -0.825429 0
M  V30 15748 C 1834.27 5.26038 -0.130752 0
M  V30 15749 O 1833.29 5.64032 -0.765248 0
M  V30 15750 N 1834.49 5.69369 1.13136 0
M  V30 15751 H 1837.26 2.5921 -1.50434 0
M  V30 15752 H 1834.82 1.32156 -0.935221 0
M  V30 15753 H 1836.81 4.00267 0.597368 0
M  V30 15754 H 1835.38 2.989 0.915278 0
M  V30 15755 H 1834.6 3.65366 -1.47991 0
M  V30 15756 H 1835.89 4.87138 -1.46882 0
M  V30 15757 H 1835.29 5.40576 1.66716 0
M  V30 15758 H 1833.85 6.33095 1.55029 0
M  V30 15759 N 1837.28 0.834353 1.33702 0
M  V30 15760 C 1838.24 0.269618 2.27609 0
M  V30 15761 C 1839.24 -0.559065 1.50768 0
M  V30 15762 O 1840.43 -0.373511 1.70149 0
M  V30 15763 C 1837.56 -0.620682 3.35202 0
M  V30 15764 H 1838.76 1.09819 2.79069 0
M  V30 15765 H 1836.31 0.607087 1.44028 0
M  V30 15766 H 1837.04 -1.47187 2.88975 0
M  V30 15767 H 1836.83 -0.0278102 3.9209 0
M  V30 15768 H 1838.32 -1.00924 4.05221 0
M  V30 15769 N 1838.76 -1.46125 0.590367 0
M  V30 15770 C 1839.72 -2.2884 -0.128368 0
M  V30 15771 C 1840.72 -1.38818 -0.81156 0
M  V30 15772 O 1841.91 -1.61117 -0.662347 0
M  V30 15773 C 1839.04 -3.19402 -1.19144 0
M  V30 15774 H 1840.23 -2.93864 0.598641 0
M  V30 15775 H 1837.79 -1.52362 0.34866 0
M  V30 15776 H 1838.52 -2.59141 -1.94978 0
M  V30 15777 H 1838.31 -3.85692 -0.705973 0
M  V30 15778 H 1839.8 -3.8164 -1.69532 0
M  V30 15779 N 1840.23 -0.328564 -1.54137 0
M  V30 15780 C 1841.48 0.271967 -2.00262 0
M  V30 15781 C 1841.8 1.5226 -1.21827 0
M  V30 15782 O 1841.07 1.93245 -0.321415 0
M  V30 15783 H 1839.65 0.103484 -0.739797 0
M  V30 15784 H 1842.32 -0.446264 -1.89722 0
M  V30 15785 H 1841.41 0.52488 -3.07655 0
M  V30 15786 N 1841.71 1.57497 -0.0568439 0
M  V30 15787 C 1842.96 1.92533 0.614452 0
M  V30 15788 C 1843.28 0.936373 1.71047 0
M  V30 15789 O 1842.55 -0.0178803 1.95892 0
M  V30 15790 H 1841.13 0.710724 0.229958 0
M  V30 15791 H 1843.79 1.94583 -0.111181 0
M  V30 15792 H 1842.89 2.93928 1.04941 0
M  V30 15793 N 1843.19 -0.216591 1.56105 0
M  V30 15794 C 1844.12 -1.27155 1.95841 0
M  V30 15795 C 1845.1 -1.48626 0.827313 0
M  V30 15796 O 1846.29 -1.60725 1.09 0
M  V30 15797 C 1843.42 -2.62032 2.27939 0
M  V30 15798 C 1842.37 -2.55211 3.43586 0
M  V30 15799 C 1841.7 -3.94163 3.61303 0
M  V30 15800 C 1843 -2.09566 4.78413 0
M  V30 15801 H 1844.69 -0.941435 2.84214 0
M  V30 15802 H 1842.24 -0.451427 1.36741 0
M  V30 15803 H 1844.19 -3.35997 2.5433 0
M  V30 15804 H 1842.91 -2.96742 1.36426 0
M  V30 15805 H 1841.57 -1.83703 3.17252 0
M  V30 15806 H 1841.22 -4.26188 2.67156 0
M  V30 15807 H 1840.92 -3.90479 4.3909 0
M  V30 15808 H 1842.44 -4.69782 3.90047 0
M  V30 15809 H 1843.86 -2.73277 5.03977 0
M  V30 15810 H 1842.26 -2.16931 5.59518 0
M  V30 15811 H 1843.33 -1.0481 4.73437 0
M  V30 15812 N 1844.67 -1.5 -0.48349 0
M  V30 15813 C 1846.08 -1.37151 -0.816192 0
M  V30 15814 C 1846.28 -0.418047 -1.97116 0
M  V30 15815 O 1845.34 0.143884 -2.5209 0
M  V30 15816 C 1846.65 -2.78256 -1.13992 0
M  V30 15817 C 1848.2 -2.87082 -1.2471 0
M  V30 15818 C 1848.68 -4.28993 -1.60403 0
M  V30 15819 N 1850.17 -4.31886 -1.67419 0
M  V30 15820 C 1850.9 -5.38673 -1.96516 0
M  V30 15821 N 1850.4 -6.55685 -2.23718 0
M  V30 15822 N 1852.19 -5.26105 -1.97914 0
M  V30 15823 H 1844.34 -2.10575 0.277847 0
M  V30 15824 H 1846.61 -0.945986 0.0617554 0
M  V30 15825 H 1846.31 -3.49807 -0.364448 0
M  V30 15826 H 1846.19 -3.14724 -2.07916 0
M  V30 15827 H 1848.57 -2.15758 -2.01327 0
M  V30 15828 H 1848.65 -2.54174 -0.287959 0
M  V30 15829 H 1848.3 -5.0085 -0.84331 0
M  V30 15830 H 1848.23 -4.59379 -2.57447 0
M  V30 15831 H 1850.72 -3.47506 -1.48487 0
M  V30 15832 H 1851.03 -7.32883 -2.45158 0
M  V30 15833 H 1849.38 -6.58881 -2.21136 0
M  V30 15834 H 1852.57 -4.33692 -1.76151 0
M  V30 15835 H 1852.74 -6.09419 -2.20256 0
M  V30 15836 N 1846.15 0.735796 -1.39369 0
M  V30 15837 C 1847.08 1.86001 -1.33926 0
M  V30 15838 C 1848.09 1.60897 -0.24818 0
M  V30 15839 O 1849.28 1.71146 -0.507074 0
M  V30 15840 C 1846.38 3.2201 -1.05654 0
M  V30 15841 C 1845.55 3.74476 -2.26023 0
M  V30 15842 C 1844.61 4.89045 -1.94221 0
M  V30 15843 O 1843.64 5.02748 -2.66896 0
M  V30 15844 N 1844.84 5.73357 -0.907884 0
M  V30 15845 H 1847.61 1.91175 -2.30807 0
M  V30 15846 H 1845.17 0.916499 -1.33461 0
M  V30 15847 H 1847.16 3.96223 -0.824001 0
M  V30 15848 H 1845.73 3.12109 -0.175094 0
M  V30 15849 H 1844.95 2.91624 -2.65234 0
M  V30 15850 H 1846.24 4.06263 -3.06313 0
M  V30 15851 H 1845.63 5.64874 -0.305564 0
M  V30 15852 H 1844.19 6.4764 -0.735237 0
M  V30 15853 N 1847.63 1.24532 0.965897 0
M  V30 15854 C 1848.58 1.00627 2.04593 0
M  V30 15855 C 1849.56 -0.0529299 1.60813 0
M  V30 15856 O 1850.75 0.16102 1.76266 0
M  V30 15857 C 1847.88 0.614939 3.37748 0
M  V30 15858 C 1846.97 1.71031 3.88084 0
M  V30 15859 N 1847.36 2.94339 4.11337 0
M  V30 15860 C 1845.66 1.58823 4.16763 0
M  V30 15861 C 1846.36 3.65361 4.52644 0
M  V30 15862 N 1845.33 2.92931 4.57922 0
M  V30 15863 H 1849.13 1.94256 2.20549 0
M  V30 15864 H 1846.65 1.14685 1.14983 0
M  V30 15865 H 1848.65 0.424907 4.14729 0
M  V30 15866 H 1847.31 -0.314149 3.23177 0
M  V30 15867 H 1848.32 3.305 3.98736 0
M  V30 15868 H 1844.99 0.727304 4.11116 0
M  V30 15869 H 1846.38 4.71145 4.79032 0
M  V30 15870 N 1849.1 -1.16685 1.05936 0
M  V30 15871 C 1850.38 -1.8312 0.6875 0
M  V30 15872 C 1850.76 -1.94035 -0.831474 0
M  V30 15873 O 1850.11 -1.48067 -1.74036 0
M  V30 15874 C 1850.32 -3.20331 1.38524 0
M  V30 15875 C 1851.67 -3.96149 1.52811 0
M  V30 15876 O 1852.69 -3.29837 1.34485 0
M  V30 15877 O 1851.55 -5.15005 1.82845 0
M  V30 15878 H 1848.64 -0.790513 0.242937 0
M  V30 15879 H 1851.19 -1.23918 1.15941 0
M  V30 15880 H 1849.96 -3.074 2.42118 0
M  V30 15881 H 1849.58 -3.87206 0.903164 0
M  V30 15882 N 1850.58 -0.841432 -1.33258 0
M  V30 15883 C 1851.54 -0.281685 -2.27462 0
M  V30 15884 C 1852.54 0.551062 -1.51063 0
M  V30 15885 O 1853.73 0.364482 -1.70344 0
M  V30 15886 C 1850.87 0.602896 -3.35526 0
M  V30 15887 H 1852.06 -1.11298 -2.78483 0
M  V30 15888 H 1849.61 -0.614717 -1.43704 0
M  V30 15889 H 1850.35 1.45652 -2.89751 0
M  V30 15890 H 1850.13 0.00701634 -3.92099 0
M  V30 15891 H 1851.62 0.987735 -4.05751 0
M  V30 15892 N 1852.06 1.4581 -0.598108 0
M  V30 15893 C 1852.97 2.34249 0.12834 0
M  V30 15894 C 1853.99 1.50677 0.870202 0
M  V30 15895 O 1855.16 1.83505 0.829924 0
M  V30 15896 C 1852.23 3.28135 1.1193 0
M  V30 15897 C 1851.29 4.27611 0.380432 0
M  V30 15898 C 1850.52 5.17012 1.32419 0
M  V30 15899 O 1850.74 5.09648 2.56154 0
M  V30 15900 O 1849.68 5.962 0.826397 0
M  V30 15901 H 1853.5 2.9775 -0.598199 0
M  V30 15902 H 1851.09 1.45037 -0.358416 0
M  V30 15903 H 1852.97 3.86014 1.6903 0
M  V30 15904 H 1851.65 2.6721 1.82703 0
M  V30 15905 H 1850.55 3.73375 -0.23279 0
M  V30 15906 H 1851.89 4.91365 -0.286627 0
M  V30 15907 N 1853.54 0.336733 1.53961 0
M  V30 15908 C 1854.78 -0.262248 2.01097 0
M  V30 15909 C 1855.12 -1.50745 1.22431 0
M  V30 15910 O 1854.39 -1.92012 0.310103 0
M  V30 15911 C 1854.67 -0.583219 3.55346 0
M  V30 15912 C 1854.53 0.67361 4.44727 0
M  V30 15913 C 1855.85 -1.39558 4.17386 0
M  V30 15914 H 1852.97 -0.0938423 0.731001 0
M  V30 15915 H 1855.61 0.455921 1.84449 0
M  V30 15916 H 1853.76 -1.19505 3.69663 0
M  V30 15917 H 1855.43 1.31168 4.42258 0
M  V30 15918 H 1853.67 1.29987 4.13867 0
M  V30 15919 H 1854.34 0.404382 5.50517 0
M  V30 15920 H 1856.82 -0.878292 4.06725 0
M  V30 15921 H 1855.7 -1.58892 5.25399 0
M  V30 15922 H 1855.96 -2.39567 3.71564 0
M  V30 15923 N 1855.02 -1.57465 0.0651956 0
M  V30 15924 C 1856.29 -1.84622 -0.646065 0
M  V30 15925 C 1856.67 -0.956374 -1.88193 0
M  V30 15926 O 1856.02 -0.0209666 -2.2849 0
M  V30 15927 C 1856.23 -3.34664 -0.990013 0
M  V30 15928 C 1857.58 -4.02016 -1.36632 0
M  V30 15929 O 1858.6 -3.39371 -1.08194 0
M  V30 15930 O 1857.46 -5.12496 -1.89764 0
M  V30 15931 H 1854.56 -0.762482 -0.320236 0
M  V30 15932 H 1857.1 -1.6943 0.0956254 0
M  V30 15933 H 1855.87 -3.9114 -0.111977 0
M  V30 15934 H 1855.5 -3.55094 -1.78869 0
M  V30 15935 N 1856.49 0.20831 -1.56217 0
M  V30 15936 C 1857.46 1.24178 -1.92646 0
M  V30 15937 C 1858.46 1.39125 -0.806274 0
M  V30 15938 O 1859.65 1.37163 -1.07386 0
M  V30 15939 C 1856.78 2.61342 -2.18891 0
M  V30 15940 H 1857.97 0.930748 -2.85091 0
M  V30 15941 H 1855.52 0.449285 -1.49703 0
M  V30 15942 H 1856.26 2.97521 -1.29041 0
M  V30 15943 H 1856.04 2.51866 -3.00509 0
M  V30 15944 H 1857.53 3.35892 -2.48125 0
M  V30 15945 N 1857.97 1.50255 0.475528 0
M  V30 15946 C 1859.2 1.64771 1.25132 0
M  V30 15947 C 1859.61 0.329253 1.85907 0
M  V30 15948 O 1858.97 -0.688289 1.69023 0
M  V30 15949 C 1859.02 2.73556 2.36325 0
M  V30 15950 O 1858.74 4.0029 1.78043 0
M  V30 15951 C 1860.24 2.99006 3.27277 0
M  V30 15952 H 1857.46 0.553987 0.378602 0
M  V30 15953 H 1860.01 1.9645 0.56811 0
M  V30 15954 H 1858.16 2.44584 3.00429 0
M  V30 15955 H 1858.58 4.60416 2.51232 0
M  V30 15956 H 1860.05 3.78797 4.01518 0
M  V30 15957 H 1860.53 2.09904 3.85794 0
M  V30 15958 H 1861.13 3.29493 2.68914 0
M  V30 15959 N 1859.45 -0.728395 1.39758 0
M  V30 15960 C 1860.38 -1.85554 1.41747 0
M  V30 15961 C 1861.36 -1.6778 0.279972 0
M  V30 15962 O 1862.55 -1.88001 0.48675 0
M  V30 15963 C 1859.68 -3.23375 1.26671 0
M  V30 15964 C 1858.63 -3.55799 2.37889 0
M  V30 15965 C 1857.96 -4.92628 2.07899 0
M  V30 15966 C 1859.26 -3.58098 3.80215 0
M  V30 15967 H 1860.95 -1.84146 2.36073 0
M  V30 15968 H 1858.5 -0.884539 1.13631 0
M  V30 15969 H 1860.45 -4.01907 1.26682 0
M  V30 15970 H 1859.17 -3.25326 0.288159 0
M  V30 15971 H 1857.83 -2.796 2.37107 0
M  V30 15972 H 1857.48 -4.91166 1.08466 0
M  V30 15973 H 1857.18 -5.15288 2.82404 0
M  V30 15974 H 1858.7 -5.73509 2.09571 0
M  V30 15975 H 1860.12 -4.26694 3.82891 0
M  V30 15976 H 1858.51 -3.9228 4.54133 0
M  V30 15977 H 1859.58 -2.57758 4.10718 0
M  V30 15978 N 1860.93 -1.25042 -0.959279 0
M  V30 15979 C 1861.87 -1.0502 -2.05522 0
M  V30 15980 C 1862.84 0.039194 -1.66054 0
M  V30 15981 O 1864.03 -0.11708 -1.9044 0
M  V30 15982 C 1861.17 -0.670047 -3.38533 0
M  V30 15983 C 1860.28 -1.83381 -3.91146 0
M  V30 15984 C 1859.42 -1.39844 -5.12462 0
M  V30 15985 C 1858.46 -2.53163 -5.57293 0
M  V30 15986 N 1857.59 -2.10435 -6.69822 0
M  V30 15987 H 1862.43 -1.98816 -2.21982 0
M  V30 15988 H 1859.97 -0.990139 -1.08787 0
M  V30 15989 H 1861.93 -0.430621 -4.14972 0
M  V30 15990 H 1860.56 0.230924 -3.21973 0
M  V30 15991 H 1859.61 -2.18667 -3.1127 0
M  V30 15992 H 1860.92 -2.68497 -4.2037 0
M  V30 15993 H 1860.08 -1.1184 -5.96303 0
M  V30 15994 H 1858.82 -0.51794 -4.84942 0
M  V30 15995 H 1857.82 -2.81918 -4.7202 0
M  V30 15996 H 1859.05 -3.41784 -5.86822 0
M  V30 15997 H 1856.99 -1.24794 -6.44021 0
M  V30 15998 H 1856.91 -2.89101 -6.98539 0
M  V30 15999 H 1858.18 -1.85593 -7.57084 0
M  V30 16000 N 1862.41 1.16121 -1.06553 0
M  V30 16001 C 1863.63 1.91152 -0.804706 0
M  V30 16002 C 1864.06 1.77045 0.635338 0
M  V30 16003 O 1863.41 1.09757 1.44302 0
M  V30 16004 C 1863.46 3.39782 -1.20751 0
M  V30 16005 O 1862.57 4.1093 -0.347889 0
M  V30 16006 H 1861.91 0.595433 -0.293863 0
M  V30 16007 H 1864.44 1.47104 -1.42203 0
M  V30 16008 H 1864.45 3.90558 -1.1802 0
M  V30 16009 H 1863.12 3.49369 -2.25642 0
M  V30 16010 H 1861.7 3.70331 -0.436993 0
M  V30 16011 N 1863.88 0.848487 1.3281 0
M  V30 16012 C 1864.81 0.303885 2.31514 0
M  V30 16013 C 1865.8 -0.593621 1.59406 0
M  V30 16014 O 1866.98 -0.515158 1.87243 0
M  V30 16015 C 1864.11 -0.5138 3.43478 0
M  V30 16016 C 1863.06 0.28874 4.27025 0
M  V30 16017 C 1862.39 -0.653297 5.30694 0
M  V30 16018 C 1863.69 1.51111 4.99963 0
M  V30 16019 H 1865.38 1.12862 2.77313 0
M  V30 16020 H 1862.93 0.544158 1.33323 0
M  V30 16021 H 1864.88 -0.905164 4.11564 0
M  V30 16022 H 1863.61 -1.37184 2.96392 0
M  V30 16023 H 1862.27 0.661782 3.60577 0
M  V30 16024 H 1861.91 -1.50801 4.79863 0
M  V30 16025 H 1861.61 -0.120368 5.87477 0
M  V30 16026 H 1863.14 -1.04197 6.01644 0
M  V30 16027 H 1864.55 1.19237 5.60763 0
M  V30 16028 H 1862.95 1.98152 5.66441 0
M  V30 16029 H 1864.02 2.2757 4.28182 0
M  V30 16030 N 1865.36 -1.4549 0.605832 0
M  V30 16031 C 1866.31 -2.32256 -0.126541 0
M  V30 16032 C 1867.3 -1.45865 -0.861381 0
M  V30 16033 O 1868.51 -1.62359 -0.777146 0
M  V30 16034 H 1864.89 -0.749629 -0.0596684 0
M  V30 16035 H 1866.86 -2.91809 0.623708 0
M  V30 16036 C 1865.61 -3.2945 -1.11165 0
M  V30 16037 H 1864.93 -3.9592 -0.555636 0
M  V30 16038 H 1866.37 -3.92894 -1.59406 0
M  V30 16039 C 1864.83 -2.56493 -2.18433 0
M  V30 16040 O 1865.36 -2.34501 -3.26147 0
M  V30 16041 N 1863.56 -2.16658 -1.93669 0
M  V30 16042 H 1863.11 -2.34744 -1.0608 0
M  V30 16043 H 1863.07 -1.68166 -2.65645 0
M  V30 16044 N 1866.84 -0.344893 -1.5378 0
M  V30 16045 C 1867.79 0.526591 -2.26561 0
M  V30 16046 C 1868.78 1.10083 -1.28756 0
M  V30 16047 O 1869.99 1.04641 -1.46459 0
M  V30 16048 H 1866.36 0.188505 -0.72799 0
M  V30 16049 H 1868.33 -0.109269 -2.982 0
M  V30 16050 C 1867.08 1.66505 -3.0524 0
M  V30 16051 H 1866.41 1.23246 -3.80329 0
M  V30 16052 H 1867.85 2.24998 -3.59377 0
M  V30 16053 C 1866.31 2.59527 -2.14819 0
M  V30 16054 O 1866.84 3.6181 -1.74517 0
M  V30 16055 N 1865.04 2.28243 -1.79871 0
M  V30 16056 H 1864.59 1.45106 -2.12843 0
M  V30 16057 H 1864.55 2.90741 -1.19654 0
M  V30 16058 N 1868.32 1.57428 -0.0735454 0
M  V30 16059 C 1869.25 2.09808 0.922679 0
M  V30 16060 C 1870.26 1.0306 1.26026 0
M  V30 16061 O 1871.45 1.30568 1.21714 0
M  V30 16062 C 1868.55 2.54492 2.23801 0
M  V30 16063 C 1867.73 3.84832 2.07901 0
M  V30 16064 C 1866.78 4.15592 3.22754 0
M  V30 16065 O 1865.81 4.85163 2.97667 0
M  V30 16066 N 1867.01 3.69277 4.47901 0
M  V30 16067 H 1869.78 2.95905 0.475456 0
M  V30 16068 H 1867.34 1.61511 0.112135 0
M  V30 16069 H 1869.33 2.7213 2.99545 0
M  V30 16070 H 1867.9 1.73523 2.60016 0
M  V30 16071 H 1867.12 3.76557 1.16614 0
M  V30 16072 H 1868.41 4.70144 1.9453 0
M  V30 16073 H 1867.81 3.13076 4.71168 0
M  V30 16074 H 1866.36 3.92111 5.20665 0
M  V30 16075 N 1869.8 -0.200022 1.56326 0
M  V30 16076 C 1871.05 -0.919331 1.7953 0
M  V30 16077 C 1871.36 -1.84628 0.645908 0
M  V30 16078 O 1872.56 -2.60584 0.762132 0
M  V30 16079 C 1871.02 -1.68508 3.18014 0
M  V30 16080 C 1870.63 -0.803202 4.40741 0
M  V30 16081 C 1872.37 -2.39432 3.50532 0
M  V30 16082 C 1870.28 -1.56753 5.70248 0
M  V30 16083 H 1869.21 -0.347018 0.669399 0
M  V30 16084 H 1871.86 -0.172713 1.82685 0
M  V30 16085 H 1870.24 -2.4754 3.09095 0
M  V30 16086 H 1871.42 -0.0518889 4.60771 0
M  V30 16087 H 1869.73 -0.205039 4.15895 0
M  V30 16088 H 1872.33 -2.97158 4.44524 0
M  V30 16089 H 1872.67 -3.13378 2.74043 0
M  V30 16090 H 1873.2 -1.6737 3.60877 0
M  V30 16091 H 1869.94 -0.870942 6.49688 0
M  V30 16092 H 1869.46 -2.29291 5.54243 0
M  V30 16093 H 1871.14 -2.12262 6.11191 0
M  V30 16094 N 1871.27 -1.50505 -0.467553 0
M  V30 16095 C 1872.18 -1.72419 -1.59087 0
M  V30 16096 C 1873.2 -0.607403 -1.63054 0
M  V30 16097 O 1874.38 -0.886148 -1.80857 0
M  V30 16098 C 1871.44 -1.81686 -2.95281 0
M  V30 16099 C 1870.5 -3.05435 -3.01675 0
M  V30 16100 C 1869.74 -3.1425 -4.31373 0
M  V30 16101 O 1869.96 -2.29766 -5.22076 0
M  V30 16102 O 1868.89 -4.07005 -4.43431 0
M  V30 16103 H 1872.72 -2.67649 -1.43519 0
M  V30 16104 H 1870.3 -1.34643 -0.647422 0
M  V30 16105 H 1872.19 -1.89941 -3.76165 0
M  V30 16106 H 1870.86 -0.896404 -3.11041 0
M  V30 16107 H 1869.77 -3.02678 -2.19856 0
M  V30 16108 H 1871.1 -3.97071 -2.90853 0
M  V30 16109 N 1872.75 0.720973 -1.40142 0
M  V30 16110 C 1873.98 1.51519 -1.41622 0
M  V30 16111 C 1874.4 1.88093 -0.0162669 0
M  V30 16112 O 1873.76 1.52895 0.974307 0
M  V30 16113 C 1873.81 2.77041 -2.30826 0
M  V30 16114 O 1872.91 3.73532 -1.74779 0
M  V30 16115 H 1872.25 0.457034 -0.481681 0
M  V30 16116 H 1874.78 0.88837 -1.84307 0
M  V30 16117 H 1874.79 3.25628 -2.45826 0
M  V30 16118 H 1873.47 2.49755 -3.32558 0
M  V30 16119 H 1872.05 3.32356 -1.69097 0
M  V30 16120 N 1874.23 1.25549 0.952634 0
M  V30 16121 C 1875.48 1.09811 1.69188 0
M  V30 16122 C 1875.79 -0.360368 1.92252 0
M  V30 16123 O 1877 -0.638228 2.63892 0
M  V30 16124 C 1875.45 1.91693 3.04601 0
M  V30 16125 C 1875.06 3.42045 2.89326 0
M  V30 16126 C 1876.81 1.8453 3.82294 0
M  V30 16127 C 1874.71 4.16216 4.20141 0
M  V30 16128 H 1873.64 0.40733 0.634507 0
M  V30 16129 H 1876.29 1.49762 1.06035 0
M  V30 16130 H 1874.68 1.44566 3.68669 0
M  V30 16131 H 1875.85 3.96859 2.34178 0
M  V30 16132 H 1874.17 3.50322 2.25085 0
M  V30 16133 H 1876.76 2.37237 4.79189 0
M  V30 16134 H 1877.11 0.81361 4.08272 0
M  V30 16135 H 1877.64 2.29418 3.2498 0
M  V30 16136 H 1874.38 5.19806 3.99352 0
M  V30 16137 H 1873.9 3.66184 4.75047 0
M  V30 16138 H 1875.58 4.2404 4.88671 0
M  V30 16139 N 1875.71 -1.15554 1.07168 0
M  V30 16140 C 1877.12 -1.38284 0.796841 0
M  V30 16141 C 1877.32 -1.92366 -0.599782 0
M  V30 16142 O 1876.38 -2.1282 -1.35883 0
M  V30 16143 C 1877.69 -2.35553 1.8691 0
M  V30 16144 C 1879.24 -2.4922 1.89364 0
M  V30 16145 C 1879.72 -3.49778 2.95668 0
M  V30 16146 N 1881.21 -3.57312 2.94759 0
M  V30 16147 C 1881.94 -4.34934 3.73657 0
M  V30 16148 N 1881.44 -5.15905 4.624 0
M  V30 16149 N 1883.23 -4.30004 3.62012 0
M  V30 16150 H 1875.38 -0.787905 1.97246 0
M  V30 16151 H 1877.65 -0.40896 0.855252 0
M  V30 16152 H 1877.35 -2.02927 2.87252 0
M  V30 16153 H 1877.23 -3.3531 1.72763 0
M  V30 16154 H 1879.61 -2.81145 0.896745 0
M  V30 16155 H 1879.69 -1.49468 2.07589 0
M  V30 16156 H 1879.34 -3.18588 3.95556 0
M  V30 16157 H 1879.27 -4.4928 2.74691 0
M  V30 16158 H 1881.76 -2.99518 2.30429 0
M  V30 16159 H 1882.07 -5.72373 5.19238 0
M  V30 16160 H 1880.42 -5.15218 4.6645 0
M  V30 16161 H 1883.61 -3.65811 2.92061 0
M  V30 16162 H 1883.78 -4.90251 4.23743 0
M  V30 16163 N 1877.19 -0.855519 -1.32358 0
M  V30 16164 C 1878.41 -0.472456 -2.01947 0
M  V30 16165 C 1878.84 0.923482 -1.6387 0
M  V30 16166 O 1878.2 1.60677 -0.839799 0
M  V30 16167 C 1878.24 -0.620081 -3.55229 0
M  V30 16168 O 1877.35 0.34676 -4.1094 0
M  V30 16169 H 1876.69 -0.189756 -0.636309 0
M  V30 16170 H 1879.22 -1.15495 -1.68885 0
M  V30 16171 H 1879.23 -0.507933 -4.04826 0
M  V30 16172 H 1877.9 -1.63802 -3.82285 0
M  V30 16173 H 1876.48 0.190778 -3.72412 0
M  V30 16174 N 1878.67 1.45167 -0.61354 0
M  V30 16175 C 1880.08 1.85674 -0.19544 0
M  V30 16176 C 1880.43 1.51303 1.24908 0
M  V30 16177 O 1879.55 0.94257 1.94794 0
M  V30 16178 C 1880.15 3.37009 -0.347921 0
M  V30 16179 C 1878.71 3.76397 0.0155323 0
M  V30 16180 C 1877.85 2.69095 -0.669578 0
M  V30 16181 H 1880.8 1.35883 -0.819842 0
M  V30 16182 H 1880.83 3.78195 0.418185 0
M  V30 16183 H 1880.34 3.61994 -1.39935 0
M  V30 16184 H 1878.44 3.57028 1.06591 0
M  V30 16185 H 1878.55 4.77573 -0.382267 0
M  V30 16186 H 1876.92 2.54477 -0.10662 0
M  V30 16187 H 1877.7 2.96915 -1.72326 0
M  V30 16188 N 1880.14 0.353044 1.53595 0
M  V30 16189 C 1881.05 -0.507548 2.29044 0
M  V30 16190 C 1882.07 -1.10364 1.34521 0
M  V30 16191 O 1883.25 -1.11728 1.67567 0
M  V30 16192 C 1880.31 -1.63799 3.05566 0
M  V30 16193 C 1879.37 -1.07071 4.15733 0
M  V30 16194 C 1878.6 -2.14728 4.88597 0
M  V30 16195 O 1878.83 -3.35619 4.61211 0
M  V30 16196 O 1877.76 -1.78489 5.74826 0
M  V30 16197 H 1881.59 0.10606 3.03515 0
M  V30 16198 H 1879.17 0.117799 1.48935 0
M  V30 16199 H 1881.05 -2.2955 3.5339 0
M  V30 16200 H 1879.73 -2.23723 2.33944 0
M  V30 16201 H 1878.64 -0.37746 3.72191 0
M  V30 16202 H 1879.97 -0.516205 4.89486 0
M  V30 16203 N 1881.62 -1.57387 0.0818932 0
M  V30 16204 C 1882.87 -1.93486 -0.583744 0
M  V30 16205 C 1883.19 -0.963466 -1.69536 0
M  V30 16206 O 1882.46 -0.0132866 -1.95895 0
M  V30 16207 H 1881.04 -0.714292 -0.218622 0
M  V30 16208 H 1883.7 -1.94381 0.142124 0
M  V30 16209 H 1882.8 -2.9556 -1.00252 0
M  V30 16210 N 1883.1 0.191729 -1.56429 0
M  V30 16211 C 1884.32 0.931804 -1.85289 0
M  V30 16212 C 1884.75 1.7592 -0.665864 0
M  V30 16213 O 1884.11 1.77158 0.385313 0
M  V30 16214 C 1884.16 1.801 -3.12404 0
M  V30 16215 O 1883.26 2.9002 -2.93193 0
M  V30 16216 H 1882.6 0.262213 -0.610033 0
M  V30 16217 H 1885.13 0.196028 -2.03659 0
M  V30 16218 H 1885.14 2.20499 -3.43285 0
M  V30 16219 H 1883.82 1.19309 -3.9842 0
M  V30 16220 H 1882.39 2.53352 -2.73619 0
M  V30 16221 N 1884.58 1.50751 0.459565 0
M  V30 16222 C 1885.99 1.38432 0.794269 0
M  V30 16223 C 1886.19 0.449353 1.96426 0
M  V30 16224 O 1885.25 -0.103761 2.52287 0
M  V30 16225 C 1886.56 2.80034 1.09551 0
M  V30 16226 C 1888.11 2.8903 1.20127 0
M  V30 16227 C 1888.59 4.3149 1.53558 0
M  V30 16228 N 1890.08 4.34494 1.60527 0
M  V30 16229 C 1890.81 5.41732 1.87921 0
M  V30 16230 N 1890.31 6.59161 2.13258 0
M  V30 16231 N 1892.1 5.29187 1.89519 0
M  V30 16232 H 1884.25 2.10106 -0.311312 0
M  V30 16233 H 1886.51 0.944884 -0.0767974 0
M  V30 16234 H 1886.22 3.50342 0.308751 0
M  V30 16235 H 1886.09 3.17992 2.02882 0
M  V30 16236 H 1888.48 2.18934 1.97869 0
M  V30 16237 H 1888.56 2.546 0.247486 0
M  V30 16238 H 1888.21 5.02128 0.763522 0
M  V30 16239 H 1888.14 4.63416 2.50106 0
M  V30 16240 H 1890.63 3.49824 1.42939 0
M  V30 16241 H 1890.94 7.3669 2.33468 0
M  V30 16242 H 1889.29 6.62315 2.10626 0
M  V30 16243 H 1892.48 4.36439 1.69229 0
M  V30 16244 H 1892.65 6.12846 2.10532 0
M  V30 16245 N 1886.06 -0.713531 1.40522 0
M  V30 16246 C 1887 -1.82761 1.40951 0
M  V30 16247 C 1887.97 -1.63953 0.266188 0
M  V30 16248 O 1889.16 -1.85058 0.464558 0
M  V30 16249 C 1886.3 -3.20488 1.27989 0
M  V30 16250 C 1885.41 -3.50853 2.52044 0
M  V30 16251 C 1884.55 -4.78097 2.31509 0
M  V30 16252 C 1883.58 -5.01373 3.51129 0
M  V30 16253 N 1882.72 -6.19832 3.29777 0
M  V30 16254 H 1887.56 -1.81729 2.36175 0
M  V30 16255 H 1885.1 -0.887703 1.17296 0
M  V30 16256 H 1887.06 -4.00023 1.1848 0
M  V30 16257 H 1885.69 -3.20743 0.363832 0
M  V30 16258 H 1884.74 -2.65858 2.72073 0
M  V30 16259 H 1886.05 -3.63961 3.41077 0
M  V30 16260 H 1885.2 -5.65654 2.19365 0
M  V30 16261 H 1883.94 -4.67203 1.39903 0
M  V30 16262 H 1882.95 -4.12271 3.63748 0
M  V30 16263 H 1884.17 -5.14139 4.43664 0
M  V30 16264 H 1882.12 -6.10184 2.40855 0
M  V30 16265 H 1882.04 -6.33626 4.12376 0
M  V30 16266 H 1883.3 -7.1017 3.2137 0
M  V30 16267 N 1887.53 -1.26053 -0.945962 0
M  V30 16268 C 1888.48 -1.06999 -2.06529 0
M  V30 16269 C 1889.48 0.00168092 -1.694 0
M  V30 16270 O 1890.68 -0.154623 -1.79335 0
M  V30 16271 H 1887.06 -0.329129 -0.676149 0
M  V30 16272 H 1889.03 -2.01869 -2.19753 0
M  V30 16273 C 1887.78 -0.714636 -3.40277 0
M  V30 16274 H 1887.1 -1.53111 -3.6932 0
M  V30 16275 H 1888.54 -0.62107 -4.19427 0
M  V30 16276 C 1887 0.579908 -3.31871 0
M  V30 16277 O 1887.53 1.61959 -3.67603 0
M  V30 16278 N 1885.73 0.568764 -2.8498 0
M  V30 16279 H 1885.28 -0.277687 -2.56099 0
M  V30 16280 H 1885.24 1.43505 -2.79738 0
M  V30 16281 N 1889.01 1.14984 -1.07779 0
M  V30 16282 C 1890.42 1.67453 -0.825611 0
M  V30 16283 C 1890.77 1.85168 0.648631 0
M  V30 16284 O 1889.9 1.55817 1.50167 0
M  V30 16285 C 1890.49 3.04172 -1.49214 0
M  V30 16286 C 1889.05 3.53701 -1.28736 0
M  V30 16287 C 1888.2 2.29324 -1.55903 0
M  V30 16288 H 1891.15 0.99138 -1.23925 0
M  V30 16289 H 1891.17 3.69315 -0.915779 0
M  V30 16290 H 1890.68 2.91247 -2.56509 0
M  V30 16291 H 1888.78 3.71859 -0.234821 0
M  V30 16292 H 1888.9 4.34871 -2.01056 0
M  V30 16293 H 1887.26 2.35081 -0.980257 0
M  V30 16294 H 1888.04 2.18982 -2.6439 0
M  V30 16295 N 1890.49 0.862526 1.31902 0
M  V30 16296 C 1891.45 0.317836 2.26986 0
M  V30 16297 C 1892.45 -0.526959 1.5192 0
M  V30 16298 O 1893.64 -0.337336 1.70903 0
M  V30 16299 C 1890.77 -0.549441 3.36443 0
M  V30 16300 H 1891.97 1.15714 2.76677 0
M  V30 16301 H 1889.52 0.637501 1.42708 0
M  V30 16302 H 1890.26 -1.41024 2.92032 0
M  V30 16303 H 1890.04 0.0553642 3.92061 0
M  V30 16304 H 1891.53 -0.923059 4.07271 0
M  V30 16305 N 1891.97 -1.4484 0.62123 0
M  V30 16306 C 1893.38 -1.57016 0.286009 0
M  V30 16307 C 1893.58 -1.6104 -1.21113 0
M  V30 16308 O 1892.64 -1.54807 -1.99477 0
M  V30 16309 C 1893.95 -2.84652 0.969209 0
M  V30 16310 C 1895.5 -2.98349 0.946414 0
M  V30 16311 C 1895.98 -4.28773 1.60989 0
M  V30 16312 N 1897.47 -4.35564 1.57601 0
M  V30 16313 C 1898.2 -5.3518 2.0584 0
M  V30 16314 N 1897.7 -6.41256 2.62226 0
M  V30 16315 N 1899.49 -5.26625 1.96527 0
M  V30 16316 H 1891.64 -1.40471 1.59316 0
M  V30 16317 H 1893.91 -0.672493 0.668174 0
M  V30 16318 H 1893.61 -2.87629 2.02392 0
M  V30 16319 H 1893.49 -3.7386 0.500859 0
M  V30 16320 H 1895.87 -2.94931 -0.0997935 0
M  V30 16321 H 1895.95 -2.10516 1.45316 0
M  V30 16322 H 1895.6 -4.3295 2.65549 0
M  V30 16323 H 1895.53 -5.15447 1.07805 0
M  V30 16324 H 1898.02 -3.59519 1.16424 0
M  V30 16325 H 1898.33 -7.13536 2.96792 0
M  V30 16326 H 1896.68 -6.41969 2.66272 0
M  V30 16327 H 1899.87 -4.42664 1.52206 0
M  V30 16328 H 1900.04 -6.04107 2.34434 0
M  V30 16329 N 1893.45 -0.361184 -1.53405 0
M  V30 16330 C 1894.67 0.230765 -2.05609 0
M  V30 16331 C 1895.09 1.42805 -1.23499 0
M  V30 16332 O 1894.45 1.80423 -0.274582 0
M  V30 16333 C 1894.5 0.628571 -3.55993 0
M  V30 16334 O 1894.22 -0.521123 -4.3499 0
M  V30 16335 C 1895.72 1.27938 -4.24437 0
M  V30 16336 H 1892.94 0.0414193 -0.66972 0
M  V30 16337 H 1895.48 -0.518281 -1.97823 0
M  V30 16338 H 1893.64 1.32754 -3.63944 0
M  V30 16339 H 1894.05 -0.200483 -5.24117 0
M  V30 16340 H 1895.53 1.50832 -5.30993 0
M  V30 16341 H 1896 2.23834 -3.77882 0
M  V30 16342 H 1896.61 0.621961 -4.20728 0
M  V30 16343 N 1894.92 1.57341 -0.0902386 0
M  V30 16344 C 1896.16 1.96056 0.57804 0
M  V30 16345 C 1896.53 0.970766 1.65651 0
M  V30 16346 O 1897.73 1.24623 2.38165 0
M  V30 16347 C 1896 3.39289 1.12328 0
M  V30 16348 S 1897.56 3.99997 1.80411 0
M  V30 16349 H 1894.38 0.685485 0.188762 0
M  V30 16350 H 1896.98 1.94773 -0.168486 0
M  V30 16351 H 1895.68 4.09097 0.326786 0
M  V30 16352 H 1895.21 3.44158 1.90574 0
M  V30 16353 H 1897.23 3.88405 3.08798 0
M  V30 16354 N 1896.4 -0.183431 1.56529 0
M  V30 16355 C 1897.82 -0.534734 1.50375 0
M  V30 16356 C 1898.02 -1.85267 0.792359 0
M  V30 16357 O 1897.07 -2.50095 0.3477 0
M  V30 16358 C 1898.39 -0.578686 2.95079 0
M  V30 16359 C 1899.94 -0.66672 3.05817 0
M  V30 16360 C 1900.41 -0.741676 4.51955 0
M  V30 16361 N 1901.9 -0.804892 4.56153 0
M  V30 16362 C 1902.64 -0.883257 5.66556 0
M  V30 16363 N 1902.13 -0.923203 6.86621 0
M  V30 16364 N 1903.93 -0.921346 5.54498 0
M  V30 16365 H 1896.08 0.68092 2.0119 0
M  V30 16366 H 1898.34 0.244029 0.916053 0
M  V30 16367 H 1898.05 0.320816 3.50234 0
M  V30 16368 H 1897.92 -1.42937 3.49068 0
M  V30 16369 H 1900.31 -1.55665 2.50704 0
M  V30 16370 H 1900.39 0.210402 2.54933 0
M  V30 16371 H 1900.03 0.143948 5.07696 0
M  V30 16372 H 1899.96 -1.63477 5.00583 0
M  V30 16373 H 1902.45 -0.782796 3.69704 0
M  V30 16374 H 1902.77 -0.983835 7.66512 0
M  V30 16375 H 1901.11 -0.891683 6.89256 0
M  V30 16376 H 1904.3 -0.887056 4.59618 0
M  V30 16377 H 1904.47 -0.978957 6.40563 0
M  V30 16378 N 1897.88 -1.50992 -0.451564 0
M  V30 16379 C 1899.16 -1.53486 -1.2125 0
M  V30 16380 C 1899.54 -0.290809 -2.09087 0
M  V30 16381 O 1898.89 0.724859 -2.16698 0
M  V30 16382 C 1899.1 -2.84125 -2.02667 0
M  V30 16383 C 1900.44 -3.35535 -2.60195 0
M  V30 16384 O 1901.47 -2.85579 -2.12892 0
M  V30 16385 O 1900.33 -4.22667 -3.46432 0
M  V30 16386 H 1897.42 -0.616481 -0.551253 0
M  V30 16387 H 1899.97 -1.63296 -0.461792 0
M  V30 16388 H 1898.74 -3.66134 -1.38064 0
M  V30 16389 H 1898.36 -2.7741 -2.84832 0
M  V30 16390 N 1899.36 0.706069 -1.40899 0
M  V30 16391 C 1900.29 1.83275 -1.44681 0
M  V30 16392 C 1901.27 1.67313 -0.306629 0
M  V30 16393 O 1902.45 1.87203 -0.516597 0
M  V30 16394 C 1899.58 3.21319 -1.318 0
M  V30 16395 C 1898.54 3.51969 -2.4352 0
M  V30 16396 C 1897.86 4.89258 -2.1571 0
M  V30 16397 C 1899.16 3.52004 -3.85864 0
M  V30 16398 H 1900.86 1.80367 -2.38973 0
M  V30 16399 H 1898.4 0.866349 -1.15023 0
M  V30 16400 H 1900.36 3.99841 -1.3306 0
M  V30 16401 H 1899.08 3.24827 -0.339879 0
M  V30 16402 H 1897.74 2.75792 -2.41525 0
M  V30 16403 H 1897.39 4.89378 -1.16266 0
M  V30 16404 H 1897.09 5.1073 -2.90566 0
M  V30 16405 H 1898.61 5.70102 -2.18669 0
M  V30 16406 H 1900.03 4.20548 -3.8963 0
M  V30 16407 H 1898.42 3.85005 -4.60316 0
M  V30 16408 H 1899.49 2.51191 -4.14766 0
M  V30 16409 N 1900.84 1.26553 0.939264 0
M  V30 16410 C 1901.78 1.08276 2.03826 0
M  V30 16411 C 1902.75 -0.0127713 1.66095 0
M  V30 16412 O 1903.94 0.147362 1.9023 0
M  V30 16413 C 1901.08 0.723819 3.37424 0
M  V30 16414 C 1900.19 1.8958 3.88179 0
M  V30 16415 C 1899.33 1.4798 5.10172 0
M  V30 16416 C 1898.37 2.61997 5.53194 0
M  V30 16417 N 1897.5 2.21064 6.66389 0
M  V30 16418 H 1902.34 2.02323 2.18791 0
M  V30 16419 H 1899.88 1.00732 1.07198 0
M  V30 16420 H 1901.84 0.496585 4.14234 0
M  V30 16421 H 1900.47 -0.179671 3.223 0
M  V30 16422 H 1899.52 2.23591 3.07752 0
M  V30 16423 H 1900.83 2.7515 4.16045 0
M  V30 16424 H 1899.99 1.21312 5.94448 0
M  V30 16425 H 1898.72 0.595025 4.84057 0
M  V30 16426 H 1897.73 2.89391 4.67475 0
M  V30 16427 H 1898.95 3.51076 5.81311 0
M  V30 16428 H 1896.9 1.35024 6.41954 0
M  V30 16429 H 1896.82 3.00177 6.93851 0
M  V30 16430 H 1898.09 1.97614 7.54035 0
M  V30 16431 N 1902.31 -1.14411 1.08387 0
M  V30 16432 C 1903.24 -2.21619 0.735327 0
M  V30 16433 C 1904.23 -1.67744 -0.282132 0
M  V30 16434 O 1905.41 -1.936 -0.152547 0
M  V30 16435 C 1902.54 -3.47003 0.143628 0
M  V30 16436 C 1901.49 -4.13903 1.08941 0
M  V30 16437 C 1900.82 -5.33487 0.359941 0
M  V30 16438 C 1902.12 -4.62463 2.42746 0
M  V30 16439 H 1903.81 -2.51031 1.63168 0
M  V30 16440 H 1901.36 -1.20658 0.785981 0
M  V30 16441 H 1903.31 -4.21251 -0.112217 0
M  V30 16442 H 1902.04 -3.16955 -0.787856 0
M  V30 16443 H 1900.7 -3.4161 1.33035 0
M  V30 16444 H 1900.34 -4.99699 -0.57534 0
M  V30 16445 H 1900.04 -5.79192 0.990451 0
M  V30 16446 H 1901.57 -6.10497 0.112145 0
M  V30 16447 H 1902.98 -5.28185 2.22919 0
M  V30 16448 H 1901.38 -5.18869 3.01488 0
M  V30 16449 H 1902.45 -3.77542 3.04286 0
M  V30 16450 N 1903.79 -0.869509 -1.31443 0
M  V30 16451 C 1905.03 -0.486705 -1.98521 0
M  V30 16452 C 1905.4 0.943287 -1.67231 0
M  V30 16453 O 1906.6 1.43142 -2.27517 0
M  V30 16454 C 1904.87 -0.736028 -3.49739 0
M  V30 16455 S 1906.43 -0.453014 -4.36455 0
M  V30 16456 H 1903.25 -0.181701 -0.687391 0
M  V30 16457 H 1905.85 -1.12544 -1.59857 0
M  V30 16458 H 1904.55 -1.77557 -3.70002 0
M  V30 16459 H 1904.08 -0.0842742 -3.9331 0
M  V30 16460 H 1906.1 0.714891 -4.91023 0
M  V30 16461 N 1905.27 1.44508 -0.628902 0
M  V30 16462 C 1906.22 2.27784 0.0991943 0
M  V30 16463 C 1907.2 1.38538 0.818285 0
M  V30 16464 O 1908.4 1.62364 0.704759 0
M  V30 16465 C 1905.53 3.25816 1.0816 0
M  V30 16466 C 1904.61 4.2255 0.362249 0
M  V30 16467 N 1905 5.02133 -0.607915 0
M  V30 16468 C 1903.3 4.4185 0.60699 0
M  V30 16469 C 1904 5.7246 -1.03271 0
M  V30 16470 N 1902.98 5.42326 -0.371966 0
M  V30 16471 H 1906.78 2.86721 -0.645621 0
M  V30 16472 H 1904.29 1.55918 -0.45423 0
M  V30 16473 H 1906.29 3.8423 1.6178 0
M  V30 16474 H 1904.95 2.6844 1.82674 0
M  V30 16475 H 1905.96 5.08435 -0.985626 0
M  V30 16476 H 1902.64 3.95575 1.33517 0
M  V30 16477 H 1904.03 6.46383 -1.83409 0
M  V30 16478 N 1906.75 0.369315 1.53212 0
M  V30 16479 C 1908.16 -0.10909 1.86381 0
M  V30 16480 C 1908.51 -1.47849 1.28977 0
M  V30 16481 O 1907.64 -2.07528 0.613267 0
M  V30 16482 C 1908.23 -0.204726 3.38181 0
M  V30 16483 C 1906.79 -0.627391 3.71134 0
M  V30 16484 C 1905.94 0.223086 2.76401 0
M  V30 16485 H 1908.89 0.587967 1.47406 0
M  V30 16486 H 1908.91 -1.02761 3.66361 0
M  V30 16487 H 1908.42 0.792082 3.79931 0
M  V30 16488 H 1906.52 -1.63229 3.34943 0
M  V30 16489 H 1906.64 -0.39941 4.77432 0
M  V30 16490 H 1905 -0.308608 2.52823 0
M  V30 16491 H 1905.78 1.2175 3.20986 0
M  V30 16492 N 1908.23 -1.57291 0.0985816 0
M  V30 16493 C 1909.14 -2.17742 -0.873245 0
M  V30 16494 C 1910.15 -1.14784 -1.3077 0
M  V30 16495 O 1911.33 -1.47169 -1.37489 0
M  V30 16496 C 1908.39 -2.74864 -2.11308 0
M  V30 16497 C 1907.46 -3.92789 -1.73249 0
M  V30 16498 C 1906.69 -4.47177 -2.91322 0
M  V30 16499 O 1906.91 -4.00497 -4.06151 0
M  V30 16500 O 1905.85 -5.38151 -2.69587 0
M  V30 16501 H 1909.67 -3.012 -0.388902 0
M  V30 16502 H 1907.26 -1.48868 -0.125955 0
M  V30 16503 H 1909.14 -3.11359 -2.8396 0
M  V30 16504 H 1907.81 -1.9445 -2.58787 0
M  V30 16505 H 1906.72 -3.61099 -0.977663 0
M  V30 16506 H 1908.05 -4.74577 -1.3053 0
M  V30 16507 N 1909.71 0.175127 -1.56624 0
M  V30 16508 C 1910.95 0.889023 -1.82942 0
M  V30 16509 C 1911.31 1.80036 -0.678577 0
M  V30 16510 O 1910.6 1.8882 0.325201 0
M  V30 16511 C 1910.79 1.72397 -3.13072 0
M  V30 16512 C 1910.62 0.894963 -4.40705 0
M  V30 16513 C 1909.39 0.571537 -5.02057 0
M  V30 16514 C 1911.59 0.238298 -5.13748 0
M  V30 16515 N 1909.57 -0.274009 -6.13288 0
M  V30 16516 C 1910.94 -0.468576 -6.18227 0
M  V30 16517 C 1913 0.156071 -4.97655 0
M  V30 16518 C 1911.7 -1.24987 -7.08358 0
M  V30 16519 C 1913.73 -0.611883 -5.88226 0
M  V30 16520 C 1913.09 -1.30713 -6.92166 0
M  V30 16521 H 1909.19 0.304058 -0.720467 0
M  V30 16522 H 1911.77 0.156275 -1.94072 0
M  V30 16523 H 1909.94 2.42817 -3.03141 0
M  V30 16524 H 1911.68 2.37887 -3.27401 0
M  V30 16525 H 1908.43 0.900718 -4.64956 0
M  V30 16526 H 1908.85 -0.686979 -6.73505 0
M  V30 16527 H 1913.5 0.679236 -4.17308 0
M  V30 16528 H 1911.21 -1.7844 -7.88153 0
M  V30 16529 H 1914.8 -0.677126 -5.77846 0
M  V30 16530 H 1913.68 -1.89185 -7.61038 0
M  V30 16531 N 1911.18 1.5123 0.44355 0
M  V30 16532 C 1912.13 1.72095 1.53792 0
M  V30 16533 C 1913.1 0.562529 1.56284 0
M  V30 16534 O 1914.29 0.796259 1.73391 0
M  V30 16535 C 1911.43 1.84627 2.9156 0
M  V30 16536 C 1910.54 3.12147 2.98644 0
M  V30 16537 C 1909.67 3.1531 4.27496 0
M  V30 16538 C 1908.71 4.37171 4.28425 0
M  V30 16539 N 1907.85 4.37919 5.48791 0
M  V30 16540 H 1912.69 2.65512 1.35304 0
M  V30 16541 H 1910.23 1.31593 0.657387 0
M  V30 16542 H 1912.18 1.89874 3.71488 0
M  V30 16543 H 1910.81 0.946232 3.0862 0
M  V30 16544 H 1909.87 3.16239 2.11417 0
M  V30 16545 H 1911.18 4.02074 2.95192 0
M  V30 16546 H 1910.33 3.19439 5.15794 0
M  V30 16547 H 1909.07 2.23261 4.33596 0
M  V30 16548 H 1908.08 4.33225 3.38521 0
M  V30 16549 H 1909.3 5.30477 4.23994 0
M  V30 16550 H 1907.25 3.48737 5.55624 0
M  V30 16551 H 1907.16 5.21647 5.47193 0
M  V30 16552 H 1908.43 4.46232 6.39138 0
M  V30 16553 N 1912.66 -0.698586 1.41271 0
M  V30 16554 C 1913.89 -1.49247 1.44014 0
M  V30 16555 C 1914.31 -1.88043 0.0461888 0
M  V30 16556 O 1913.67 -1.54426 -0.94986 0
M  V30 16557 C 1913.72 -2.73334 2.35204 0
M  V30 16558 O 1912.82 -3.70704 1.807 0
M  V30 16559 H 1912.16 -0.449313 0.488891 0
M  V30 16560 H 1914.69 -0.858936 1.85697 0
M  V30 16561 H 1914.7 -3.21676 2.50975 0
M  V30 16562 H 1913.38 -2.44433 3.3649 0
M  V30 16563 H 1911.95 -3.29624 1.74363 0
M  V30 16564 N 1914.14 -1.27049 -0.93254 0
M  V30 16565 C 1915.39 -1.12879 -1.67639 0
M  V30 16566 C 1915.71 0.326803 -1.92242 0
M  V30 16567 O 1914.98 1.22934 -1.52525 0
M  V30 16568 H 1913.56 -0.414741 -0.621288 0
M  V30 16569 H 1916.22 -1.59505 -1.12 0
M  V30 16570 H 1915.32 -1.65417 -2.64658 0
M  V30 16571 N 1915.62 1.13835 -1.08993 0
M  V30 16572 C 1916.89 1.81232 -0.735809 0
M  V30 16573 C 1917.27 1.96172 0.779737 0
M  V30 16574 O 1916.62 1.52629 1.70049 0
M  V30 16575 C 1916.83 3.16546 -1.46968 0
M  V30 16576 C 1918.18 3.91958 -1.6326 0
M  V30 16577 O 1919.2 3.26155 -1.43183 0
M  V30 16578 O 1918.06 5.09976 -1.96435 0
M  V30 16579 H 1915.16 0.783794 -0.26381 0
M  V30 16580 H 1917.7 1.20801 -1.19186 0
M  V30 16581 H 1916.48 3.00872 -2.50183 0
M  V30 16582 H 1916.1 3.84676 -1.00551 0
M  V30 16583 N 1917.1 0.876467 1.3098 0
M  V30 16584 C 1918.33 0.504582 2.00344 0
M  V30 16585 C 1918.73 -0.909186 1.65923 0
M  V30 16586 O 1918.08 -1.60812 0.887988 0
M  V30 16587 C 1918.14 0.589519 3.54634 0
M  V30 16588 C 1917.8 1.96607 4.12547 0
M  V30 16589 C 1918.8 2.9344 4.29172 0
M  V30 16590 C 1916.48 2.26914 4.48124 0
M  V30 16591 C 1918.48 4.18721 4.80574 0
M  V30 16592 C 1916.17 3.52443 4.99227 0
M  V30 16593 C 1917.16 4.48161 5.15403 0
M  V30 16594 O 1916.85 5.71464 5.65406 0
M  V30 16595 H 1916.58 0.194422 0.647438 0
M  V30 16596 H 1919.14 1.18126 1.68034 0
M  V30 16597 H 1917.37 -0.144102 3.86431 0
M  V30 16598 H 1919.06 0.230131 4.05247 0
M  V30 16599 H 1919.82 2.71335 4.01998 0
M  V30 16600 H 1915.7 1.53184 4.34805 0
M  V30 16601 H 1919.25 4.9344 4.93115 0
M  V30 16602 H 1915.14 3.74389 5.25836 0
M  V30 16603 H 1915.91 5.73727 5.83764 0
M  V30 16604 N 1918.57 -1.44173 0.636557 0
M  V30 16605 C 1919.82 -2.02832 0.151967 0
M  V30 16606 C 1920.17 -1.49215 -1.2146 0
M  V30 16607 O 1919.47 -0.66882 -1.79548 0
M  V30 16608 C 1919.66 -3.57299 0.0849933 0
M  V30 16609 C 1919.49 -4.25902 1.44353 0
M  V30 16610 C 1918.26 -4.62656 2.03169 0
M  V30 16611 C 1920.46 -4.55995 2.3785 0
M  V30 16612 N 1918.44 -5.16251 3.32201 0
M  V30 16613 C 1919.81 -5.10732 3.51501 0
M  V30 16614 C 1921.87 -4.37951 2.36861 0
M  V30 16615 C 1920.57 -5.49324 4.64366 0
M  V30 16616 C 1922.6 -4.77594 3.48794 0
M  V30 16617 C 1921.96 -5.32449 4.61169 0
M  V30 16618 H 1918.06 -0.775624 0.0996548 0
M  V30 16619 H 1920.64 -1.75589 0.841234 0
M  V30 16620 H 1918.81 -3.84142 -0.573568 0
M  V30 16621 H 1920.54 -4.02629 -0.408925 0
M  V30 16622 H 1917.3 -4.47151 1.56055 0
M  V30 16623 H 1917.72 -5.4752 3.98185 0
M  V30 16624 H 1922.36 -3.94829 1.51227 0
M  V30 16625 H 1920.08 -5.91397 5.50704 0
M  V30 16626 H 1923.67 -4.65341 3.49211 0
M  V30 16627 H 1922.55 -5.62558 5.4635 0
M  V30 16628 N 1920.05 -0.377435 -1.53014 0
M  V30 16629 C 1921.3 0.209712 -2.00607 0
M  V30 16630 C 1921.61 1.48891 -1.2685 0
M  V30 16631 O 1922.82 2.15538 -1.65093 0
M  V30 16632 C 1921.28 0.424271 -3.5739 0
M  V30 16633 C 1920.88 -0.840982 -4.40036 0
M  V30 16634 C 1922.63 0.968428 -4.13306 0
M  V30 16635 C 1920.53 -0.595355 -5.88396 0
M  V30 16636 H 1919.46 0.0821436 -0.749512 0
M  V30 16637 H 1922.12 -0.498005 -1.76613 0
M  V30 16638 H 1920.5 1.19354 -3.77585 0
M  V30 16639 H 1921.67 -1.61396 -4.31611 0
M  V30 16640 H 1919.99 -1.30922 -3.95283 0
M  V30 16641 H 1922.58 1.16771 -5.21794 0
M  V30 16642 H 1922.93 1.93405 -3.68647 0
M  V30 16643 H 1923.46 0.259025 -3.96956 0
M  V30 16644 H 1920.2 -1.53164 -6.37355 0
M  V30 16645 H 1919.72 0.138904 -5.99639 0
M  V30 16646 H 1921.4 -0.225366 -6.46607 0
M  V30 16647 N 1921.53 1.57237 -0.106922 0
M  V30 16648 C 1922.81 1.8627 0.596889 0
M  V30 16649 C 1923.19 1.00593 1.85591 0
M  V30 16650 O 1922.54 0.0815394 2.28354 0
M  V30 16651 C 1922.75 3.37171 0.900934 0
M  V30 16652 C 1924.09 4.05497 1.25926 0
M  V30 16653 O 1925.12 3.4212 0.99158 0
M  V30 16654 O 1923.98 5.17347 1.76109 0
M  V30 16655 H 1921.07 0.770704 0.299907 0
M  V30 16656 H 1923.62 1.69117 -0.140513 0
M  V30 16657 H 1922.39 3.91299 0.00823337 0
M  V30 16658 H 1922.01 3.59712 1.69391 0
M  V30 16659 N 1923.01 -0.166818 1.56715 0
M  V30 16660 C 1924.42 -0.728845 1.71886 0
M  V30 16661 C 1924.77 -1.82584 0.718168 0
M  V30 16662 O 1923.9 -2.1607 -0.119503 0
M  V30 16663 C 1924.49 -1.32885 3.11652 0
M  V30 16664 C 1923.05 -1.83766 3.28492 0
M  V30 16665 C 1922.2 -0.718371 2.67833 0
M  V30 16666 H 1925.15 0.0586298 1.58592 0
M  V30 16667 H 1925.17 -2.19858 3.10552 0
M  V30 16668 H 1924.68 -0.530219 3.84461 0
M  V30 16669 H 1922.78 -2.66259 2.60647 0
M  V30 16670 H 1922.89 -1.98 4.36271 0
M  V30 16671 H 1921.26 -1.13996 2.27765 0
M  V30 16672 H 1922.04 0.0684914 3.43232 0
M  V30 16673 N 1924.49 -1.51463 -0.435524 0
M  V30 16674 C 1925.43 -1.73484 -1.54939 0
M  V30 16675 C 1926.43 -0.601197 -1.58373 0
M  V30 16676 O 1927.63 -0.782622 -1.62096 0
M  V30 16677 H 1924.01 -0.54818 -0.514784 0
M  V30 16678 H 1925.98 -2.66851 -1.3354 0
M  V30 16679 C 1924.73 -1.87866 -2.92578 0
M  V30 16680 H 1924.05 -2.74503 -2.90668 0
M  V30 16681 H 1925.49 -2.07285 -3.69877 0
M  V30 16682 C 1923.95 -0.638928 -3.30786 0
M  V30 16683 O 1924.48 0.205561 -4.01174 0
M  V30 16684 N 1922.69 -0.48249 -2.86567 0
M  V30 16685 H 1922.23 -1.17078 -2.29457 0
M  V30 16686 H 1922.19 0.345753 -3.12493 0
M  V30 16687 N 1925.96 0.691085 -1.4164 0
M  V30 16688 C 1926.9 1.81646 -1.39776 0
M  V30 16689 C 1927.91 1.60026 -0.299243 0
M  V30 16690 O 1929.1 1.69446 -0.561266 0
M  V30 16691 C 1926.2 3.18486 -1.15845 0
M  V30 16692 C 1925.37 3.67096 -2.37822 0
M  V30 16693 C 1924.43 4.82618 -2.09681 0
M  V30 16694 O 1923.46 4.94002 -2.82756 0
M  V30 16695 N 1924.66 5.70178 -1.08983 0
M  V30 16696 H 1927.42 1.83736 -2.36773 0
M  V30 16697 H 1924.98 0.873576 -1.36309 0
M  V30 16698 H 1926.98 3.934 -0.949639 0
M  V30 16699 H 1925.55 3.11394 -0.274301 0
M  V30 16700 H 1924.77 2.83038 -2.74377 0
M  V30 16701 H 1926.05 3.96312 -3.19083 0
M  V30 16702 H 1925.45 5.63616 -0.48512 0
M  V30 16703 H 1924.01 6.44973 -0.940906 0
M  V30 16704 N 1927.44 1.27542 0.925789 0
M  V30 16705 C 1928.69 1.13767 1.67038 0
M  V30 16706 C 1929.01 -0.316603 1.92413 0
M  V30 16707 O 1928.28 -1.22124 1.53175 0
M  V30 16708 H 1926.86 0.41803 0.61908 0
M  V30 16709 H 1929.52 1.60097 1.11153 0
M  V30 16710 H 1928.62 1.66818 2.63777 0
M  V30 16711 N 1928.92 -1.13255 1.09595 0
M  V30 16712 C 1930.16 -1.86219 0.842735 0
M  V30 16713 C 1930.52 -1.81701 -0.620393 0
M  V30 16714 O 1931.73 -2.4992 -0.989606 0
M  V30 16715 C 1930 -3.30294 1.36532 0
M  V30 16716 S 1931.56 -4.20731 1.24624 0
M  V30 16717 H 1928.37 -0.642375 0.304755 0
M  V30 16718 H 1930.98 -1.3649 1.39967 0
M  V30 16719 H 1929.68 -3.31137 2.42439 0
M  V30 16720 H 1929.21 -3.85084 0.804584 0
M  V30 16721 H 1931.23 -4.95804 0.198297 0
M  V30 16722 N 1930.4 -0.883401 -1.30514 0
M  V30 16723 C 1931.63 -0.515948 -2.00364 0
M  V30 16724 C 1932.04 0.895148 -1.6623 0
M  V30 16725 O 1931.4 1.58844 -0.898601 0
M  V30 16726 C 1931.45 -0.679282 -3.55061 0
M  V30 16727 O 1931.17 -2.03482 -3.87978 0
M  V30 16728 C 1932.67 -0.314612 -4.42182 0
M  V30 16729 H 1929.89 -0.199595 -0.640627 0
M  V30 16730 H 1932.44 -1.18827 -1.66435 0
M  V30 16731 H 1930.59 -0.0543511 -3.87362 0
M  V30 16732 H 1931 -2.0523 -4.82681 0
M  V30 16733 H 1932.48 -0.4798 -5.49911 0
M  V30 16734 H 1932.96 0.747247 -4.32797 0
M  V30 16735 H 1933.56 -0.9158 -4.15323 0
M  V30 16736 N 1931.88 1.43833 -0.644194 0
M  V30 16737 C 1932.81 2.33467 0.0394911 0
M  V30 16738 C 1933.79 1.48957 0.821339 0
M  V30 16739 O 1934.97 1.77644 0.784618 0
M  V30 16740 C 1932.1 3.32205 1.01277 0
M  V30 16741 C 1931.06 4.26634 0.341666 0
M  V30 16742 C 1930.38 5.15341 1.42577 0
M  V30 16743 C 1931.68 5.16737 -0.760299 0
M  V30 16744 H 1933.38 2.90883 -0.709025 0
M  V30 16745 H 1930.92 1.3987 -0.342413 0
M  V30 16746 H 1932.88 3.93803 1.49991 0
M  V30 16747 H 1931.6 2.73025 1.79234 0
M  V30 16748 H 1930.26 3.66387 -0.124937 0
M  V30 16749 H 1929.91 4.52505 2.19654 0
M  V30 16750 H 1929.61 5.79336 0.98203 0
M  V30 16751 H 1931.13 5.79811 1.91444 0
M  V30 16752 H 1932.54 5.72195 -0.355713 0
M  V30 16753 H 1930.94 5.89404 -1.12796 0
M  V30 16754 H 1932.01 4.56966 -1.62204 0
M  V30 16755 N 1933.35 0.385544 1.52811 0
M  V30 16756 C 1934.63 -0.255227 1.93928 0
M  V30 16757 C 1935.01 -1.64683 1.32071 0
M  V30 16758 O 1934.36 -2.23242 0.487363 0
M  V30 16759 C 1934.57 -0.285363 3.47831 0
M  V30 16760 C 1935.92 -0.516126 4.21451 0
M  V30 16761 O 1936.94 -0.365732 3.54317 0
M  V30 16762 O 1935.8 -0.810503 5.40456 0
M  V30 16763 H 1932.89 -0.157694 0.811826 0
M  V30 16764 H 1935.44 0.439779 1.63903 0
M  V30 16765 H 1934.21 0.68954 3.85177 0
M  V30 16766 H 1933.84 -1.02545 3.84149 0
M  V30 16767 N 1934.83 -1.57178 0.115259 0
M  V30 16768 C 1935.8 -2.13953 -0.821982 0
M  V30 16769 C 1936.8 -1.07352 -1.19717 0
M  V30 16770 O 1937.99 -1.33146 -1.12329 0
M  V30 16771 C 1935.12 -2.6767 -2.11106 0
M  V30 16772 H 1936.31 -2.98094 -0.328631 0
M  V30 16773 H 1933.86 -1.55725 -0.133942 0
M  V30 16774 H 1934.6 -1.87106 -2.6488 0
M  V30 16775 H 1934.38 -3.4563 -1.85155 0
M  V30 16776 H 1935.87 -3.11519 -2.78111 0
M  V30 16777 N 1936.31 0.158505 -1.56801 0
M  V30 16778 C 1937.24 1.22518 -1.92522 0
M  V30 16779 C 1938.22 1.42142 -0.789589 0
M  V30 16780 O 1939.41 1.56941 -1.04412 0
M  V30 16781 C 1936.53 2.58604 -2.18728 0
M  V30 16782 C 1935.58 2.55642 -3.41394 0
M  V30 16783 S 1936.41 2.03464 -4.95341 0
M  V30 16784 C 1937.57 3.41302 -5.24656 0
M  V30 16785 H 1937.8 0.920362 -2.82695 0
M  V30 16786 H 1935.33 0.363629 -1.50057 0
M  V30 16787 H 1937.29 3.36923 -2.34506 0
M  V30 16788 H 1935.95 2.8628 -1.29239 0
M  V30 16789 H 1935.15 3.55792 -3.56971 0
M  V30 16790 H 1934.75 1.85426 -3.24797 0
M  V30 16791 H 1937.04 4.37361 -5.17418 0
M  V30 16792 H 1937.98 3.30588 -6.26192 0
M  V30 16793 H 1938.39 3.37906 -4.52194 0
M  V30 16794 N 1937.79 1.51692 0.427485 0
M  V30 16795 C 1938.74 1.73716 1.51958 0
M  V30 16796 C 1939.71 0.579073 1.55679 0
M  V30 16797 O 1940.89 0.814605 1.72536 0
M  V30 16798 C 1938.03 1.87709 2.89585 0
M  V30 16799 C 1937.14 3.15297 2.95317 0
M  V30 16800 C 1936.28 3.19827 4.24128 0
M  V30 16801 C 1935.32 4.4169 4.23764 0
M  V30 16802 N 1934.46 4.43715 5.44116 0
M  V30 16803 H 1939.3 2.66933 1.3248 0
M  V30 16804 H 1936.83 1.32283 0.643393 0
M  V30 16805 H 1938.79 1.93804 3.69454 0
M  V30 16806 H 1937.42 0.978912 3.07599 0
M  V30 16807 H 1936.47 3.18464 2.08051 0
M  V30 16808 H 1937.78 4.05182 2.90911 0
M  V30 16809 H 1936.94 3.24892 5.12377 0
M  V30 16810 H 1935.68 2.27848 4.31204 0
M  V30 16811 H 1934.68 4.36791 3.33907 0
M  V30 16812 H 1935.91 5.34944 4.18343 0
M  V30 16813 H 1933.85 3.5461 5.51894 0
M  V30 16814 H 1933.77 5.27421 5.4163 0
M  V30 16815 H 1935.04 4.52986 6.34369 0
M  V30 16816 N 1939.27 -0.683564 1.42004 0
M  V30 16817 C 1940.51 -1.44577 1.42216 0
M  V30 16818 C 1940.85 -1.94168 0.0352735 0
M  V30 16819 O 1940.12 -1.70331 -0.939023 0
M  V30 16820 C 1940.4 -2.64909 2.43916 0
M  V30 16821 C 1940.26 -2.21006 3.9176 0
M  V30 16822 C 1941.58 -3.6712 2.42716 0
M  V30 16823 H 1938.7 -0.524376 0.517879 0
M  V30 16824 H 1941.34 -0.777575 1.7336 0
M  V30 16825 H 1939.49 -3.21918 2.17489 0
M  V30 16826 H 1941.16 -1.69233 4.29136 0
M  V30 16827 H 1939.4 -1.52667 4.06048 0
M  V30 16828 H 1940.07 -3.07401 4.58485 0
M  V30 16829 H 1942.55 -3.1981 2.66197 0
M  V30 16830 H 1941.43 -4.48907 3.15869 0
M  V30 16831 H 1941.69 -4.17645 1.45 0
M  V30 16832 N 1940.75 -1.28031 -0.919012 0
M  V30 16833 C 1941.99 -1.14878 -1.66761 0
M  V30 16834 C 1942.32 0.303688 -1.92115 0
M  V30 16835 O 1941.58 1.23781 -1.51581 0
M  V30 16836 C 1941.87 -1.887 -3.03524 0
M  V30 16837 C 1941.54 -3.3852 -2.9785 0
M  V30 16838 C 1940.2 -3.79383 -2.9601 0
M  V30 16839 C 1942.55 -4.34077 -2.88491 0
M  V30 16840 C 1939.88 -5.14152 -2.82604 0
M  V30 16841 C 1942.23 -5.68912 -2.76625 0
M  V30 16842 C 1940.9 -6.09057 -2.7314 0
M  V30 16843 H 1940.17 -0.420368 -0.610223 0
M  V30 16844 H 1942.82 -1.58743 -1.07111 0
M  V30 16845 H 1941.12 -1.37368 -3.66929 0
M  V30 16846 H 1942.82 -1.75944 -3.6034 0
M  V30 16847 H 1939.41 -3.06028 -3.00074 0
M  V30 16848 H 1943.59 -4.03473 -2.89004 0
M  V30 16849 H 1938.85 -5.4439 -2.78298 0
M  V30 16850 H 1943.02 -6.4262 -2.6835 0
M  V30 16851 H 1940.65 -7.13437 -2.62509 0
M  V30 16852 N 1942.22 1.12672 -1.10194 0
M  V30 16853 C 1943.46 1.85769 -0.852599 0
M  V30 16854 C 1943.83 1.82027 0.610749 0
M  V30 16855 O 1945.03 2.50442 0.976339 0
M  V30 16856 C 1943.3 3.29565 -1.38281 0
M  V30 16857 S 1944.86 4.20064 -1.26853 0
M  V30 16858 H 1941.68 0.64075 -0.308157 0
M  V30 16859 H 1944.28 1.35746 -1.40689 0
M  V30 16860 H 1942.98 3.29846 -2.44192 0
M  V30 16861 H 1942.51 3.84652 -0.824994 0
M  V30 16862 H 1944.53 4.95691 -0.224588 0
M  V30 16863 N 1943.7 0.89031 1.30043 0
M  V30 16864 C 1944.65 0.35066 2.29942 0
M  V30 16865 C 1945.64 -0.545188 1.60387 0
M  V30 16866 O 1946.85 -0.42903 1.74812 0
M  V30 16867 H 1943.22 0.0947502 0.746007 0
M  V30 16868 H 1945.2 1.20676 2.7291 0
M  V30 16869 C 1943.94 -0.415088 3.45213 0
M  V30 16870 H 1943.27 0.265007 3.98921 0
M  V30 16871 H 1944.71 -0.757694 4.17175 0
M  V30 16872 C 1943.17 -1.6142 2.95711 0
M  V30 16873 O 1943.7 -2.71355 2.96191 0
M  V30 16874 N 1941.9 -1.45317 2.51657 0
M  V30 16875 H 1941.45 -0.558807 2.51466 0
M  V30 16876 H 1941.41 -2.25683 2.18894 0
M  V30 16877 N 1945.18 -1.43489 0.651812 0
M  V30 16878 C 1946.11 -2.28021 -0.0903669 0
M  V30 16879 C 1947.09 -1.39746 -0.831253 0
M  V30 16880 O 1948.27 -1.69189 -0.831112 0
M  V30 16881 C 1945.4 -3.19129 -1.13466 0
M  V30 16882 C 1944.45 -4.23653 -0.49198 0
M  V30 16883 S 1945.28 -5.30454 0.73341 0
M  V30 16884 C 1946.44 -6.2513 -0.310383 0
M  V30 16885 H 1946.67 -2.9062 0.626698 0
M  V30 16886 H 1944.2 -1.4798 0.440607 0
M  V30 16887 H 1946.16 -3.72165 -1.73216 0
M  V30 16888 H 1944.82 -2.5571 -1.82403 0
M  V30 16889 H 1944.01 -4.87497 -1.27917 0
M  V30 16890 H 1943.62 -3.73987 0.0313774 0
M  V30 16891 H 1945.91 -6.67198 -1.17698 0
M  V30 16892 H 1946.85 -7.07494 0.292997 0
M  V30 16893 H 1947.26 -5.60797 -0.645559 0
M  V30 16894 N 1946.66 -0.393643 -1.52605 0
M  V30 16895 C 1947.57 0.446642 -2.30309 0
M  V30 16896 C 1948.58 1.06758 -1.374 0
M  V30 16897 O 1949.76 1.07246 -1.70471 0
M  V30 16898 C 1946.82 1.5564 -3.09802 0
M  V30 16899 C 1945.89 0.960113 -4.18426 0
M  V30 16900 C 1945.12 2.01698 -4.94119 0
M  V30 16901 O 1945.34 3.23273 -4.69947 0
M  V30 16902 O 1944.28 1.63186 -5.79357 0
M  V30 16903 H 1948.1 -0.186494 -3.03127 0
M  V30 16904 H 1945.69 -0.157245 -1.4857 0
M  V30 16905 H 1947.57 2.201 -3.59352 0
M  V30 16906 H 1946.24 2.17442 -2.39793 0
M  V30 16907 H 1945.15 0.278648 -3.73061 0
M  V30 16908 H 1946.48 0.386245 -4.90682 0
M  V30 16909 N 1948.14 1.57115 -0.123593 0
M  V30 16910 C 1949.36 1.99705 0.540887 0
M  V30 16911 C 1949.78 1.00336 1.59932 0
M  V30 16912 O 1949.14 -0.00310477 1.825 0
M  V30 16913 C 1949.19 3.42286 1.16285 0
M  V30 16914 O 1948.91 4.37854 0.146725 0
M  V30 16915 C 1950.41 4.00032 1.91021 0
M  V30 16916 H 1947.63 0.655623 0.142827 0
M  V30 16917 H 1950.17 2.03406 -0.211285 0
M  V30 16918 H 1948.33 3.39511 1.86578 0
M  V30 16919 H 1948.74 5.21066 0.599228 0
M  V30 16920 H 1950.22 5.01865 2.29861 0
M  V30 16921 H 1950.69 3.3943 2.78719 0
M  V30 16922 H 1951.3 4.06368 1.25481 0
M  V30 16923 N 1949.61 -0.150187 1.56883 0
M  V30 16924 C 1950.86 -0.86163 1.82812 0
M  V30 16925 C 1951.18 -1.81849 0.703977 0
M  V30 16926 O 1950.45 -1.93966 -0.274616 0
M  V30 16927 H 1949.03 -0.321175 0.67443 0
M  V30 16928 H 1951.69 -0.144952 1.9436 0
M  V30 16929 H 1950.79 -1.4258 2.77628 0
M  V30 16930 N 1951.09 -1.51916 -0.419434 0
M  V30 16931 C 1952 -1.77393 -1.53522 0
M  V30 16932 C 1953.02 -0.65897 -1.61039 0
M  V30 16933 O 1954.19 -0.943237 -1.77947 0
M  V30 16934 C 1951.26 -1.90988 -2.89352 0
M  V30 16935 C 1950.32 -3.14878 -2.91805 0
M  V30 16936 C 1949.55 -3.27815 -4.21157 0
M  V30 16937 O 1949.78 -2.4626 -5.14502 0
M  V30 16938 O 1948.71 -4.20906 -4.30258 0
M  V30 16939 H 1952.54 -2.72079 -1.34932 0
M  V30 16940 H 1950.12 -1.36635 -0.604259 0
M  V30 16941 H 1952 -2.01812 -3.69932 0
M  V30 16942 H 1950.68 -0.994906 -3.08031 0
M  V30 16943 H 1949.59 -3.0952 -2.10115 0
M  V30 16944 H 1950.92 -4.06123 -2.78073 0
M  V30 16945 N 1952.57 0.676023 -1.42365 0
M  V30 16946 C 1953.8 1.46436 -1.46164 0
M  V30 16947 C 1954.21 1.8866 -0.0726092 0
M  V30 16948 O 1953.57 1.58056 0.912395 0
M  V30 16949 C 1953.62 2.71428 -2.38766 0
M  V30 16950 O 1953.34 2.30976 -3.72266 0
M  V30 16951 C 1954.84 3.65001 -2.51573 0
M  V30 16952 H 1952.06 0.450625 -0.49717 0
M  V30 16953 H 1954.61 0.830748 -1.86866 0
M  V30 16954 H 1952.76 3.30981 -2.01321 0
M  V30 16955 H 1953.18 3.11682 -4.21846 0
M  V30 16956 H 1954.65 4.49432 -3.20492 0
M  V30 16957 H 1955.13 4.10818 -1.55322 0
M  V30 16958 H 1955.73 3.11342 -2.89735 0
M  V30 16959 N 1954.05 1.28517 0.912209 0
M  V30 16960 C 1955.29 1.17014 1.67592 0
M  V30 16961 C 1955.65 -0.27643 1.9 0
M  V30 16962 O 1956.85 -0.514187 2.63836 0
M  V30 16963 C 1955.12 1.94823 2.99631 0
M  V30 16964 S 1956.68 1.99713 3.90717 0
M  V30 16965 H 1953.5 0.417458 0.575543 0
M  V30 16966 H 1956.1 1.62637 1.08488 0
M  V30 16967 H 1954.81 2.99087 2.81025 0
M  V30 16968 H 1954.34 1.49757 3.63781 0
M  V30 16969 H 1956.35 1.10475 4.83745 0
M  V30 16970 N 1955.53 -1.12086 1.1079 0
M  V30 16971 C 1956.77 -1.83949 0.853848 0
M  V30 16972 C 1957.11 -1.8407 -0.619029 0
M  V30 16973 O 1956.38 -1.28889 -1.45664 0
M  V30 16974 C 1956.66 -3.31452 1.40754 0
M  V30 16975 C 1956.52 -3.39765 2.94754 0
M  V30 16976 C 1957.84 -4.2732 1.05288 0
M  V30 16977 H 1954.95 -0.667872 0.311635 0
M  V30 16978 H 1957.6 -1.31475 1.37166 0
M  V30 16979 H 1955.75 -3.7627 0.967112 0
M  V30 16980 H 1957.42 -3.03555 3.4735 0
M  V30 16981 H 1955.66 -2.80196 3.31168 0
M  V30 16982 H 1956.33 -4.43553 3.2858 0
M  V30 16983 H 1958.81 -3.90647 1.43297 0
M  V30 16984 H 1957.68 -5.28929 1.46716 0
M  V30 16985 H 1957.95 -4.42084 -0.0372227 0
M  V30 16986 N 1957 -0.897194 -1.29569 0
M  V30 16987 C 1958.23 -0.536391 -1.99515 0
M  V30 16988 C 1958.64 0.882674 -1.67348 0
M  V30 16989 O 1957.99 1.59379 -0.913459 0
M  V30 16990 C 1958.05 -0.645863 -3.53651 0
M  V30 16991 C 1957.71 -2.03145 -4.09367 0
M  V30 16992 C 1958.71 -3.00231 -4.24449 0
M  V30 16993 C 1956.39 -2.34015 -4.44457 0
M  V30 16994 C 1958.39 -4.26314 -4.73852 0
M  V30 16995 C 1956.07 -3.60341 -4.93556 0
M  V30 16996 C 1957.07 -4.56304 -5.08208 0
M  V30 16997 O 1956.76 -5.80387 -5.56243 0
M  V30 16998 H 1956.49 -0.204698 -0.644263 0
M  V30 16999 H 1959.05 -1.20784 -1.66134 0
M  V30 17000 H 1957.28 0.0826055 -3.86612 0
M  V30 17001 H 1958.97 -0.294573 -4.0483 0
M  V30 17002 H 1959.73 -2.77696 -3.9763 0
M  V30 17003 H 1955.61 -1.60082 -4.32313 0
M  V30 17004 H 1959.15 -5.01222 -4.85203 0
M  V30 17005 H 1955.05 -3.82707 -5.19813 0
M  V30 17006 H 1955.82 -5.82941 -5.74562 0
M  V30 17007 N 1958.48 1.43142 -0.659413 0
M  V30 17008 C 1959.89 1.84958 -0.254412 0
M  V30 17009 C 1960.24 1.552 1.20031 0
M  V30 17010 O 1959.37 1.00407 1.91696 0
M  V30 17011 C 1959.96 3.35731 -0.454961 0
M  V30 17012 C 1958.52 3.76256 -0.104223 0
M  V30 17013 C 1957.67 2.66828 -0.754849 0
M  V30 17014 H 1960.62 1.33206 -0.862657 0
M  V30 17015 H 1960.64 3.79334 0.297654 0
M  V30 17016 H 1960.15 3.57359 -1.51381 0
M  V30 17017 H 1958.26 3.60239 0.951785 0
M  V30 17018 H 1958.37 4.76115 -0.534009 0
M  V30 17019 H 1956.73 2.54009 -0.187526 0
M  V30 17020 H 1957.52 2.91283 -1.81685 0
M  V30 17021 N 1959.96 0.40173 1.52394 0
M  V30 17022 C 1960.91 -0.442142 2.28359 0
M  V30 17023 C 1961.9 -1.05228 1.32753 0
M  V30 17024 O 1963.11 -0.991332 1.50242 0
M  V30 17025 H 1959.48 -0.161356 0.734485 0
M  V30 17026 H 1961.45 0.219869 2.97589 0
M  V30 17027 C 1960.2 -1.55062 3.11209 0
M  V30 17028 H 1959.53 -1.09046 3.84642 0
M  V30 17029 H 1960.97 -2.11505 3.6748 0
M  V30 17030 C 1959.43 -2.51376 2.24303 0
M  V30 17031 O 1959.96 -3.55084 1.87825 0
M  V30 17032 N 1958.16 -2.2141 1.88218 0
M  V30 17033 H 1957.71 -1.37106 2.18082 0
M  V30 17034 H 1957.67 -2.861 1.30362 0
M  V30 17035 N 1961.44 -1.57047 0.131923 0
M  V30 17036 C 1962.85 -1.82552 -0.391375 0
M  V30 17037 C 1963.2 -1.04983 -1.6575 0
M  V30 17038 O 1962.33 -0.2904 -2.14443 0
M  V30 17039 C 1962.92 -3.3113 -0.716843 0
M  V30 17040 C 1961.48 -3.57269 -1.18472 0
M  V30 17041 C 1960.63 -2.76578 -0.200021 0
M  V30 17042 H 1963.58 -1.54636 0.356863 0
M  V30 17043 H 1963.6 -3.46463 -1.57302 0
M  V30 17044 H 1963.11 -3.87559 0.204844 0
M  V30 17045 H 1961.21 -3.06211 -2.12287 0
M  V30 17046 H 1961.32 -4.65798 -1.12111 0
M  V30 17047 H 1959.69 -2.45185 -0.689655 0
M  V30 17048 H 1960.47 -3.35772 0.71499 0
M  V30 17049 N 1962.92 0.141865 -1.5696 0
M  V30 17050 C 1963.88 1.15896 -1.97739 0
M  V30 17051 C 1964.88 1.3558 -0.864556 0
M  V30 17052 O 1966.07 1.32485 -1.13107 0
M  V30 17053 C 1963.2 2.51822 -2.29779 0
M  V30 17054 H 1964.39 0.808993 -2.88782 0
M  V30 17055 H 1961.95 0.385387 -1.51474 0
M  V30 17056 H 1962.68 2.91781 -1.41543 0
M  V30 17057 H 1962.47 2.38894 -3.10921 0
M  V30 17058 H 1963.96 3.25066 -2.62148 0
M  V30 17059 N 1964.39 1.52136 0.411372 0
M  V30 17060 C 1965.34 1.75927 1.52159 0
M  V30 17061 C 1966.34 0.626317 1.57396 0
M  V30 17062 O 1967.54 0.808311 1.6083 0
M  V30 17063 H 1963.92 0.5563 0.505998 0
M  V30 17064 H 1965.89 2.68942 1.29278 0
M  V30 17065 C 1964.64 1.92496 2.89552 0
M  V30 17066 H 1963.96 2.79093 2.86264 0
M  V30 17067 H 1965.4 2.13143 3.66532 0
M  V30 17068 C 1963.86 0.691473 3.29728 0
M  V30 17069 O 1964.39 -0.141712 4.0145 0
M  V30 17070 N 1962.6 0.528019 2.85763 0
M  V30 17071 H 1962.14 1.20713 2.27565 0
M  V30 17072 H 1962.1 -0.295994 3.13004 0
M  V30 17073 N 1965.87 -0.668464 1.42721 0
M  V30 17074 C 1967.12 -1.43061 1.43741 0
M  V30 17075 C 1967.45 -1.9412 0.0558656 0
M  V30 17076 O 1966.73 -1.71317 -0.920904 0
M  V30 17077 C 1967.01 -2.62307 2.46712 0
M  V30 17078 C 1966.86 -2.16839 3.94082 0
M  V30 17079 C 1968.18 -3.64525 2.46596 0
M  V30 17080 H 1965.3 -0.518854 0.523412 0
M  V30 17081 H 1967.94 -0.759144 1.74175 0
M  V30 17082 H 1966.09 -3.19593 2.20891 0
M  V30 17083 H 1967.77 -1.64672 4.30907 0
M  V30 17084 H 1966.01 -1.48352 4.07645 0
M  V30 17085 H 1966.68 -3.02521 4.6172 0
M  V30 17086 H 1969.16 -3.16968 2.69574 0
M  V30 17087 H 1968.03 -4.45532 3.20613 0
M  V30 17088 H 1968.29 -4.16084 1.49421 0
M  V30 17089 N 1967.35 -1.28999 -0.905381 0
M  V30 17090 C 1968.76 -1.15033 -1.47052 0
M  V30 17091 C 1969.11 0.256623 -1.94514 0
M  V30 17092 O 1968.24 1.15164 -1.83211 0
M  V30 17093 C 1968.83 -2.08213 -2.67269 0
M  V30 17094 C 1967.39 -1.98286 -3.19937 0
M  V30 17095 C 1966.54 -1.99468 -1.92634 0
M  V30 17096 H 1969.49 -1.41566 -0.717271 0
M  V30 17097 H 1969.51 -1.65102 -3.42814 0
M  V30 17098 H 1969.02 -3.10604 -2.32695 0
M  V30 17099 H 1967.12 -0.98963 -3.59217 0
M  V30 17100 H 1967.24 -2.85666 -3.84619 0
M  V30 17101 H 1965.6 -1.43988 -2.10094 0
M  V30 17102 H 1966.38 -3.03554 -1.60344 0
M  V30 17103 N 1968.83 1.11497 -1.11383 0
M  V30 17104 C 1969.78 2.1752 -0.771611 0
M  V30 17105 C 1970.75 1.64106 0.256616 0
M  V30 17106 O 1971.93 1.90331 0.133672 0
M  V30 17107 C 1969.07 3.44396 -0.220313 0
M  V30 17108 C 1968.18 4.11817 -1.30503 0
M  V30 17109 C 1967.32 5.26375 -0.714331 0
M  V30 17110 C 1966.36 5.85679 -1.77894 0
M  V30 17111 N 1965.5 6.91634 -1.20778 0
M  V30 17112 H 1970.34 2.46138 -1.67989 0
M  V30 17113 H 1967.87 1.20832 -0.838927 0
M  V30 17114 H 1969.83 4.17035 0.117286 0
M  V30 17115 H 1968.46 3.16164 0.651161 0
M  V30 17116 H 1967.51 3.37258 -1.75959 0
M  V30 17117 H 1968.82 4.5195 -2.11051 0
M  V30 17118 H 1967.98 6.05819 -0.326754 0
M  V30 17119 H 1966.72 4.87546 0.12248 0
M  V30 17120 H 1965.72 5.04914 -2.17583 0
M  V30 17121 H 1966.95 6.26576 -2.61877 0
M  V30 17122 H 1964.89 6.54824 -0.392602 0
M  V30 17123 H 1964.81 7.30419 -1.94998 0
M  V30 17124 H 1966.08 7.74884 -0.847072 0
M  V30 17125 N 1970.31 0.904053 1.29092 0
M  V30 17126 C 1971.25 0.38351 2.27591 0
M  V30 17127 C 1972.22 -0.536758 1.57188 0
M  V30 17128 O 1973.41 -0.461057 1.85146 0
M  V30 17129 C 1970.55 -0.379051 3.43012 0
M  V30 17130 C 1969.66 0.572611 4.28188 0
M  V30 17131 C 1968.8 -0.207434 5.30795 0
M  V30 17132 C 1967.84 0.73847 6.07629 0
M  V30 17133 N 1966.97 -0.00744238 7.021 0
M  V30 17134 H 1971.81 1.22855 2.71497 0
M  V30 17135 H 1969.35 0.617145 1.33528 0
M  V30 17136 H 1971.31 -0.83727 4.08712 0
M  V30 17137 H 1969.94 -1.18851 3.00124 0
M  V30 17138 H 1968.99 1.14935 3.62621 0
M  V30 17139 H 1970.3 1.29648 4.81656 0
M  V30 17140 H 1969.46 -0.726655 6.02333 0
M  V30 17141 H 1968.2 -0.964417 4.78069 0
M  V30 17142 H 1967.2 1.26915 5.34951 0
M  V30 17143 H 1968.43 1.49485 6.62443 0
M  V30 17144 H 1966.37 -0.746612 6.51737 0
M  V30 17145 H 1966.29 0.656439 7.53145 0
M  V30 17146 H 1967.56 -0.506785 7.77851 0
M  V30 17147 N 1971.79 -1.4279 0.666995 0
M  V30 17148 C 1972.73 -2.32583 -0.0279199 0
M  V30 17149 C 1973.73 -1.49387 -0.79874 0
M  V30 17150 O 1974.93 -1.65509 -0.707585 0
M  V30 17151 H 1971.31 -0.751485 -0.0278204 0
M  V30 17152 H 1973.28 -2.88901 0.746913 0
M  V30 17153 C 1972.03 -3.33869 -0.970921 0
M  V30 17154 H 1971.35 -3.9792 -0.387213 0
M  V30 17155 H 1972.79 -3.99301 -1.42599 0
M  V30 17156 C 1971.25 -2.65527 -2.07358 0
M  V30 17157 O 1971.78 -2.48123 -3.15908 0
M  V30 17158 N 1969.99 -2.24677 -1.84305 0
M  V30 17159 H 1969.53 -2.39032 -0.960283 0
M  V30 17160 H 1969.49 -1.79282 -2.58274 0
M  V30 17161 N 1973.26 -0.409806 -1.52179 0
M  V30 17162 C 1974.51 0.158384 -2.02782 0
M  V30 17163 C 1974.86 1.42748 -1.28999 0
M  V30 17164 O 1974.16 1.87633 -0.387875 0
M  V30 17165 C 1974.35 0.459582 -3.54433 0
M  V30 17166 C 1974.18 -0.778769 -4.42906 0
M  V30 17167 C 1972.95 -1.30417 -4.8818 0
M  V30 17168 C 1975.15 -1.65708 -4.86873 0
M  V30 17169 N 1973.13 -2.49793 -5.60782 0
M  V30 17170 C 1974.5 -2.69708 -5.58263 0
M  V30 17171 C 1976.56 -1.67475 -4.68888 0
M  V30 17172 C 1975.26 -3.75388 -6.13577 0
M  V30 17173 C 1977.29 -2.72074 -5.251 0
M  V30 17174 C 1976.65 -3.74796 -5.96412 0
M  V30 17175 H 1972.75 0.0195068 -0.781757 0
M  V30 17176 H 1975.33 -0.564305 -1.86343 0
M  V30 17177 H 1973.5 1.15132 -3.70944 0
M  V30 17178 H 1975.23 1.01671 -3.91721 0
M  V30 17179 H 1971.99 -0.862104 -4.65687 0
M  V30 17180 H 1972.41 -3.10252 -6.01725 0
M  V30 17181 H 1977.05 -0.893987 -4.1324 0
M  V30 17182 H 1974.77 -4.5432 -6.68296 0
M  V30 17183 H 1978.36 -2.7435 -5.13053 0
M  V30 17184 H 1977.24 -4.54404 -6.3913 0
M  V30 17185 N 1974.74 1.56975 -0.14025 0
M  V30 17186 C 1975.99 1.96981 0.506946 0
M  V30 17187 C 1976.34 1.02348 1.62919 0
M  V30 17188 O 1975.64 0.05729 1.91514 0
M  V30 17189 C 1975.83 3.4113 1.06606 0
M  V30 17190 C 1975.66 4.497 -0.000490009 0
M  V30 17191 C 1974.43 5.03384 -0.439605 0
M  V30 17192 C 1976.63 5.08205 -0.789449 0
M  V30 17193 N 1974.61 5.95551 -1.4897 0
M  V30 17194 C 1975.98 5.96517 -1.69021 0
M  V30 17195 C 1978.03 4.90798 -0.837986 0
M  V30 17196 C 1976.74 6.69285 -2.63533 0
M  V30 17197 C 1978.76 5.64263 -1.77091 0
M  V30 17198 C 1978.13 6.52277 -2.6592 0
M  V30 17199 H 1974.22 0.766584 0.154509 0
M  V30 17200 H 1976.81 1.93297 -0.23329 0
M  V30 17201 H 1974.98 3.45421 1.77593 0
M  V30 17202 H 1976.71 3.68213 1.67931 0
M  V30 17203 H 1973.47 4.7358 -0.0431395 0
M  V30 17204 H 1973.89 6.46339 -2.01431 0
M  V30 17205 H 1978.53 4.22477 -0.165311 0
M  V30 17206 H 1976.25 7.36839 -3.31804 0
M  V30 17207 H 1979.84 5.52792 -1.81417 0
M  V30 17208 H 1978.72 7.08128 -3.36934 0
M  V30 17209 N 1976.22 -0.133539 1.57033 0
M  V30 17210 C 1977.44 -0.862393 1.8862 0
M  V30 17211 C 1977.87 -1.73328 0.730696 0
M  V30 17212 O 1977.23 -1.78466 -0.319297 0
M  V30 17213 C 1977.28 -1.68381 3.18873 0
M  V30 17214 O 1976.38 -2.78939 3.03755 0
M  V30 17215 H 1975.72 -0.239391 0.619345 0
M  V30 17216 H 1978.25 -0.120306 2.04246 0
M  V30 17217 H 1978.26 -2.07606 3.51232 0
M  V30 17218 H 1976.94 -1.0444 4.02573 0
M  V30 17219 H 1975.51 -2.43022 2.82833 0
M  V30 17220 N 1977.7 -1.52352 -0.403298 0
M  V30 17221 C 1978.92 -1.70849 -1.17582 0
M  V30 17222 C 1979.35 -0.419696 -1.83358 0
M  V30 17223 O 1978.71 0.623346 -1.70247 0
M  V30 17224 C 1978.75 -2.8492 -2.21027 0
M  V30 17225 O 1977.86 -2.50896 -3.273 0
M  V30 17226 H 1977.2 -0.568568 -0.342967 0
M  V30 17227 H 1979.73 -1.99082 -0.471975 0
M  V30 17228 H 1979.74 -3.10002 -2.6526 0
M  V30 17229 H 1978.41 -3.78423 -1.72536 0
M  V30 17230 H 1976.99 -2.36506 -2.88304 0
M  V30 17231 N 1979.18 0.660885 -1.43074 0
M  V30 17232 C 1980.12 1.77404 -1.47637 0
M  V30 17233 C 1981.09 1.62852 -0.326854 0
M  V30 17234 O 1982.28 1.83206 -0.532921 0
M  V30 17235 C 1979.42 3.15517 -1.39796 0
M  V30 17236 C 1978.53 3.41257 -2.64892 0
M  V30 17237 C 1977.67 4.69176 -2.49093 0
M  V30 17238 C 1976.7 4.87995 -3.69496 0
M  V30 17239 N 1975.84 6.07166 -3.52554 0
M  V30 17240 H 1980.68 1.72838 -2.42757 0
M  V30 17241 H 1978.22 0.843558 -1.20509 0
M  V30 17242 H 1980.18 3.9535 -1.33245 0
M  V30 17243 H 1978.81 3.19172 -0.482623 0
M  V30 17244 H 1977.86 2.55577 -2.81753 0
M  V30 17245 H 1979.17 3.51052 -3.5435 0
M  V30 17246 H 1978.32 5.57122 -2.40207 0
M  V30 17247 H 1977.06 4.61688 -1.57147 0
M  V30 17248 H 1976.07 3.98487 -3.78799 0
M  V30 17249 H 1977.29 4.97318 -4.62441 0
M  V30 17250 H 1975.24 6.00825 -2.63336 0
M  V30 17251 H 1975.16 6.17884 -4.35609 0
M  V30 17252 H 1976.42 6.97754 -3.47506 0
M  V30 17253 N 1980.65 1.29477 0.898527 0
M  V30 17254 C 1981.88 1.20529 1.68783 0
M  V30 17255 C 1982.3 -0.230536 1.86682 0
M  V30 17256 O 1981.66 -1.1664 1.38798 0
M  V30 17257 C 1981.71 1.92501 3.04919 0
M  V30 17258 O 1980.81 1.24286 3.93226 0
M  V30 17259 H 1980.16 0.417586 0.516254 0
M  V30 17260 H 1982.69 1.71066 1.1224 0
M  V30 17261 H 1982.7 2.01001 3.55053 0
M  V30 17262 H 1981.37 2.96934 2.9121 0
M  V30 17263 H 1979.95 1.24052 3.51661 0
M  V30 17264 N 1982.13 -1.10905 1.11972 0
M  V30 17265 C 1983.08 -2.17107 0.783135 0
M  V30 17266 C 1984.05 -1.6424 -0.24791 0
M  V30 17267 O 1985.23 -1.90399 -0.123577 0
M  V30 17268 C 1982.37 -3.44274 0.238574 0
M  V30 17269 C 1981.49 -4.11119 1.32685 0
M  V30 17270 C 1980.62 -5.25989 0.742236 0
M  V30 17271 C 1979.66 -5.84728 1.80997 0
M  V30 17272 N 1978.8 -6.90983 1.24444 0
M  V30 17273 H 1983.64 -2.45243 1.69292 0
M  V30 17274 H 1981.18 -1.20386 0.845323 0
M  V30 17275 H 1983.13 -4.17091 -0.0951679 0
M  V30 17276 H 1981.76 -3.16505 -0.634384 0
M  V30 17277 H 1980.82 -3.3632 1.77745 0
M  V30 17278 H 1982.13 -4.50824 2.13445 0
M  V30 17279 H 1981.28 -6.05638 0.358877 0
M  V30 17280 H 1980.02 -4.87604 -0.096622 0
M  V30 17281 H 1979.03 -5.03753 2.20258 0
M  V30 17282 H 1980.25 -6.25178 2.65196 0
M  V30 17283 H 1978.2 -6.54607 0.427323 0
M  V30 17284 H 1978.11 -7.29374 1.98869 0
M  V30 17285 H 1979.38 -7.74424 0.888154 0
M  V30 17286 N 1983.61 -0.910886 -1.2861 0
M  V30 17287 C 1984.52 -0.402088 -2.31129 0
M  V30 17288 C 1985.54 0.508811 -1.66394 0
M  V30 17289 O 1986.71 0.395691 -1.97475 0
M  V30 17290 C 1983.78 0.352182 -3.44907 0
M  V30 17291 C 1982.84 -0.59159 -4.25204 0
M  V30 17292 C 1982.07 0.126778 -5.33549 0
M  V30 17293 O 1982.29 1.34897 -5.54219 0
M  V30 17294 O 1981.23 -0.536442 -5.99505 0
M  V30 17295 H 1985.05 -1.25289 -2.76652 0
M  V30 17296 H 1982.64 -0.675604 -1.33251 0
M  V30 17297 H 1984.52 0.778285 -4.14151 0
M  V30 17298 H 1983.2 1.17886 -3.01471 0
M  V30 17299 H 1982.1 -1.06703 -3.5856 0
M  V30 17300 H 1983.44 -1.38501 -4.72312 0
M  V30 17301 N 1985.09 1.42434 -0.674558 0
M  V30 17302 C 1986.04 2.308 0.00392457 0
M  V30 17303 C 1987.01 1.45949 0.792972 0
M  V30 17304 O 1988.19 1.74781 0.765269 0
M  V30 17305 C 1985.33 3.31784 0.949392 0
M  V30 17306 C 1984.44 4.31725 0.154193 0
M  V30 17307 C 1983.58 5.19783 1.09539 0
M  V30 17308 C 1982.62 6.11404 0.291864 0
M  V30 17309 N 1981.75 6.92015 1.18576 0
M  V30 17310 H 1986.59 2.88266 -0.755438 0
M  V30 17311 H 1984.13 1.41992 -0.384274 0
M  V30 17312 H 1986.09 3.88861 1.51138 0
M  V30 17313 H 1984.72 2.75918 1.67539 0
M  V30 17314 H 1983.77 3.76768 -0.524416 0
M  V30 17315 H 1985.08 4.96584 -0.469669 0
M  V30 17316 H 1984.24 5.81592 1.72732 0
M  V30 17317 H 1982.98 4.551 1.75314 0
M  V30 17318 H 1981.98 5.48664 -0.353276 0
M  V30 17319 H 1983.21 6.78136 -0.361786 0
M  V30 17320 H 1981.15 6.29961 1.82991 0
M  V30 17321 H 1981.07 7.53478 0.616968 0
M  V30 17322 H 1982.34 7.5831 1.80516 0
M  V30 17323 N 1986.57 0.417871 1.51959 0
M  V30 17324 C 1987.51 -0.403305 2.27249 0
M  V30 17325 C 1988.48 -1.0336 1.30023 0
M  V30 17326 O 1989.67 -1.05621 1.58899 0
M  V30 17327 C 1986.81 -1.50928 3.10346 0
M  V30 17328 C 1985.92 -0.899043 4.22541 0
M  V30 17329 C 1985.06 -1.97844 4.92982 0
M  V30 17330 C 1984.1 -1.3456 5.97126 0
M  V30 17331 N 1983.23 -2.36552 6.6105 0
M  V30 17332 H 1988.07 0.245143 2.9699 0
M  V30 17333 H 1985.61 0.132733 1.465 0
M  V30 17334 H 1987.57 -2.16157 3.56836 0
M  V30 17335 H 1986.2 -2.12763 2.42759 0
M  V30 17336 H 1985.25 -0.135561 3.80158 0
M  V30 17337 H 1986.56 -0.396845 4.97219 0
M  V30 17338 H 1985.72 -2.7078 5.42921 0
M  V30 17339 H 1984.45 -2.51432 4.17892 0
M  V30 17340 H 1983.46 -0.601616 5.46499 0
M  V30 17341 H 1984.68 -0.817308 6.74164 0
M  V30 17342 H 1982.63 -2.89256 5.88784 0
M  V30 17343 H 1982.55 -1.91169 7.3143 0
M  V30 17344 H 1983.82 -3.09031 7.15626 0
M  V30 17345 N 1988.04 -1.56898 0.148573 0
M  V30 17346 C 1988.99 -2.13418 -0.802306 0
M  V30 17347 C 1989.98 -1.06241 -1.20837 0
M  V30 17348 O 1991.17 -1.32415 -1.17453 0
M  V30 17349 C 1988.3 -2.76057 -2.04076 0
M  V30 17350 C 1987.39 -3.90359 -1.65772 0
M  V30 17351 N 1987.78 -4.96156 -0.982988 0
M  V30 17352 C 1986.07 -4.01096 -1.95033 0
M  V30 17353 C 1986.78 -5.76203 -0.797825 0
M  V30 17354 N 1985.75 -5.27024 -1.33218 0
M  V30 17355 H 1989.55 -2.92586 -0.277579 0
M  V30 17356 H 1987.07 -1.62314 -0.0529132 0
M  V30 17357 H 1989.06 -3.14911 -2.73197 0
M  V30 17358 H 1987.72 -1.98362 -2.57065 0
M  V30 17359 H 1988.74 -5.13886 -0.643572 0
M  V30 17360 H 1985.41 -3.34479 -2.4986 0
M  V30 17361 H 1986.8 -6.71374 -0.265921 0
M  V30 17362 N 1989.52 0.125209 -1.57102 0
M  V30 17363 C 1990.77 0.832627 -1.83712 0
M  V30 17364 C 1991.08 1.81336 -0.733261 0
M  V30 17365 O 1992.29 2.56651 -0.885592 0
M  V30 17366 C 1990.75 1.53143 -3.25692 0
M  V30 17367 C 1990.35 0.592004 -4.44071 0
M  V30 17368 C 1992.1 2.22435 -3.61556 0
M  V30 17369 C 1990.01 1.29368 -5.77077 0
M  V30 17370 H 1988.94 0.314685 -0.685193 0
M  V30 17371 H 1991.59 0.0853544 -1.83301 0
M  V30 17372 H 1989.97 2.32511 -3.20554 0
M  V30 17373 H 1991.14 -0.16801 -4.60494 0
M  V30 17374 H 1989.46 0.00637692 -4.164 0
M  V30 17375 H 1992.05 2.75611 -4.58195 0
M  V30 17376 H 1992.4 2.99947 -2.88683 0
M  V30 17377 H 1992.93 1.49962 -3.68451 0
M  V30 17378 H 1989.67 0.559975 -6.53104 0
M  V30 17379 H 1989.19 2.02586 -5.64552 0
M  V30 17380 H 1990.87 1.8286 -6.20622 0
M  V30 17381 N 1991 1.52564 0.395213 0
M  V30 17382 C 1992.25 1.68505 1.13919 0
M  V30 17383 C 1992.6 0.416721 1.87833 0
M  V30 17384 O 1991.89 -0.589378 1.8231 0
M  V30 17385 C 1992.09 2.85496 2.15004 0
M  V30 17386 C 1991.92 4.23584 1.51018 0
M  V30 17387 C 1990.69 4.889 1.27692 0
M  V30 17388 C 1992.89 5.05192 0.963599 0
M  V30 17389 N 1990.87 6.10986 0.597453 0
M  V30 17390 C 1992.24 6.18631 0.411842 0
M  V30 17391 C 1994.29 4.90427 0.859407 0
M  V30 17392 C 1993 7.1892 -0.23391 0
M  V30 17393 C 1995.02 5.90962 0.227486 0
M  V30 17394 C 1994.38 7.03702 -0.31353 0
M  V30 17395 H 1990.48 0.670134 0.403043 0
M  V30 17396 H 1993.07 1.89901 0.429595 0
M  V30 17397 H 1991.24 2.65691 2.83307 0
M  V30 17398 H 1992.97 2.90405 2.81864 0
M  V30 17399 H 1989.73 4.4751 1.55023 0
M  V30 17400 H 1990.15 6.76446 0.273942 0
M  V30 17401 H 1994.79 4.0348 1.26349 0
M  V30 17402 H 1992.51 8.05481 -0.650019 0
M  V30 17403 H 1996.1 5.81611 0.148198 0
M  V30 17404 H 1994.98 7.80162 -0.794791 0
M  V30 17405 N 1992.48 -0.653289 1.43422 0
M  V30 17406 C 1993.73 -1.41319 1.45036 0
M  V30 17407 C 1994.05 -1.94357 0.074626 0
M  V30 17408 O 1993.31 -1.72707 -0.920363 0
M  V30 17409 C 1993.61 -2.6117 2.43978 0
M  V30 17410 C 1993.27 -2.2655 3.89854 0
M  V30 17411 C 1991.94 -2.16821 4.29584 0
M  V30 17412 C 1994.29 -1.98838 4.81781 0
M  V30 17413 C 1991.62 -1.77535 5.59194 0
M  V30 17414 C 1993.97 -1.61051 6.11756 0
M  V30 17415 C 1992.63 -1.49847 6.50463 0
M  V30 17416 H 1991.9 -0.517121 0.530723 0
M  V30 17417 H 1994.55 -0.742946 1.76501 0
M  V30 17418 H 1992.85 -3.33326 2.05916 0
M  V30 17419 H 1994.55 -3.19381 2.42481 0
M  V30 17420 H 1991.14 -2.35033 3.58409 0
M  V30 17421 H 1995.32 -2.05276 4.51858 0
M  V30 17422 H 1990.58 -1.67447 5.88023 0
M  V30 17423 H 1994.75 -1.38639 6.8246 0
M  V30 17424 H 1992.38 -1.19176 7.508 0
M  V30 17425 N 1993.96 -1.29952 -0.891648 0
M  V30 17426 C 1995.2 -1.18155 -1.63963 0
M  V30 17427 C 1995.53 0.265477 -1.93184 0
M  V30 17428 O 1994.8 1.1802 -1.56359 0
M  V30 17429 H 1993.38 -0.434297 -0.607779 0
M  V30 17430 H 1996.04 -1.62988 -1.06869 0
M  V30 17431 H 1995.13 -1.73753 -2.59261 0
M  V30 17432 N 1995.44 1.1031 -1.12559 0
M  V30 17433 C 1996.35 2.20257 -0.807721 0
M  V30 17434 C 1997.36 1.728 0.203997 0
M  V30 17435 O 1998.54 2.01365 0.0372766 0
M  V30 17436 C 1995.6 3.4566 -0.26839 0
M  V30 17437 C 1994.66 4.07844 -1.3402 0
M  V30 17438 C 1993.9 5.27261 -0.826511 0
M  V30 17439 O 1994.12 5.6939 0.339244 0
M  V30 17440 O 1993.05 5.80335 -1.5967 0
M  V30 17441 H 1996.88 2.49882 -1.72606 0
M  V30 17442 H 1994.46 1.19071 -0.902352 0
M  V30 17443 H 1996.35 4.21391 0.0274321 0
M  V30 17444 H 1995.02 3.17658 0.622489 0
M  V30 17445 H 1993.93 3.33791 -1.68921 0
M  V30 17446 H 1995.26 4.40051 -2.20489 0
M  V30 17447 N 1996.91 0.917694 1.28125 0
M  V30 17448 C 1998.14 0.568889 1.98925 0
M  V30 17449 C 1998.56 -0.85076 1.68545 0
M  V30 17450 O 1997.91 -1.56406 0.940399 0
M  V30 17451 C 1997.96 0.773181 3.53135 0
M  V30 17452 O 1997.69 2.13697 3.82446 0
M  V30 17453 C 1999.19 0.431738 4.41193 0
M  V30 17454 H 1996.41 0.21651 0.63511 0
M  V30 17455 H 1998.95 1.23198 1.63226 0
M  V30 17456 H 1997.11 0.157034 3.87082 0
M  V30 17457 H 1997.52 2.17956 4.7707 0
M  V30 17458 H 1998.99 0.625431 5.48445 0
M  V30 17459 H 1999.47 -0.632236 4.34626 0
M  V30 17460 H 2000.08 1.02559 4.12749 0
M  V30 17461 N 1998.39 -1.42074 0.682102 0
M  V30 17462 C 1999.64 -2.0066 0.204581 0
M  V30 17463 C 1999.95 -1.54595 -1.19832 0
M  V30 17464 O 2001.16 -2.05648 -1.7726 0
M  V30 17465 C 1999.62 -3.5852 0.31488 0
M  V30 17466 C 1999.22 -4.13571 1.7223 0
M  V30 17467 C 2000.97 -4.24374 -0.103556 0
M  V30 17468 C 1998.87 -5.6382 1.78497 0
M  V30 17469 H 1997.8 -0.750485 0.0727253 0
M  V30 17470 H 2000.46 -1.62712 0.848346 0
M  V30 17471 H 1998.84 -3.94006 -0.396905 0
M  V30 17472 H 2000.01 -3.89531 2.46176 0
M  V30 17473 H 1998.33 -3.60195 2.08922 0
M  V30 17474 H 2000.92 -5.34645 -0.0769789 0
M  V30 17475 H 2001.27 -4.00385 -1.14005 0
M  V30 17476 H 2001.8 -3.93874 0.557477 0
M  V30 17477 H 1998.54 -5.92616 2.80154 0
M  V30 17478 H 1998.06 -5.89828 1.08918 0
M  V30 17479 H 1999.74 -6.28363 1.54172 0
M  V30 17480 N 1999.87 -0.425924 -1.51735 0
M  V30 17481 C 2000.82 0.405756 -2.29034 0
M  V30 17482 C 2001.81 1.03103 -1.3441 0
M  V30 17483 O 2003.02 0.967304 -1.518 0
M  V30 17484 H 1999.39 0.149651 -0.736959 0
M  V30 17485 H 2001.36 -0.267185 -2.97201 0
M  V30 17486 C 2000.11 1.50091 -3.13637 0
M  V30 17487 H 1999.44 1.02912 -3.86328 0
M  V30 17488 H 2000.88 2.05632 -3.70799 0
M  V30 17489 C 1999.33 2.47775 -2.28274 0
M  V30 17490 O 1999.86 3.52051 -1.9345 0
M  V30 17491 N 1998.07 2.18387 -1.91717 0
M  V30 17492 H 1997.62 1.3362 -2.20235 0
M  V30 17493 H 1997.58 2.83989 -1.34897 0
M  V30 17494 N 2001.35 1.56817 -0.156891 0
M  V30 17495 C 2002.6 1.96051 0.490764 0
M  V30 17496 C 2002.92 1.04326 1.64746 0
M  V30 17497 O 2002.19 0.106736 1.95609 0
M  V30 17498 H 2000.77 0.72391 0.184293 0
M  V30 17499 H 2003.43 1.93482 -0.234704 0
M  V30 17500 H 2002.52 3.00007 0.86036 0
M  V30 17501 N 2002.83 -0.116876 1.57166 0
M  V30 17502 C 2004.07 -0.822659 1.84599 0
M  V30 17503 C 2004.39 -1.80315 0.742392 0
M  V30 17504 O 2003.66 -1.94505 -0.233411 0
M  V30 17505 H 2002.24 -0.306797 0.681091 0
M  V30 17506 H 2004.91 -0.103693 1.94624 0
M  V30 17507 H 2004 -1.36659 2.8059 0
M  V30 17508 N 2004.3 -1.52772 -0.387116 0
M  V30 17509 C 2005.55 -1.67907 -1.13196 0
M  V30 17510 C 2005.88 -0.419946 -1.89912 0
M  V30 17511 O 2005.13 0.5977 -1.86349 0
M  V30 17512 C 2005.43 -2.86632 -2.13487 0
M  V30 17513 C 2005.1 -4.23999 -1.53414 0
M  V30 17514 C 2003.76 -4.61358 -1.36757 0
M  V30 17515 C 2006.11 -5.09513 -1.09756 0
M  V30 17516 C 2003.44 -5.81887 -0.749927 0
M  V30 17517 C 2005.79 -6.30668 -0.494012 0
M  V30 17518 C 2004.46 -6.66757 -0.314755 0
M  V30 17519 H 2003.73 -0.614416 -0.414214 0
M  V30 17520 H 2006.37 -1.86919 -0.416362 0
M  V30 17521 H 2004.68 -2.62045 -2.91273 0
M  V30 17522 H 2006.38 -2.95538 -2.71032 0
M  V30 17523 H 2002.97 -3.94571 -1.67367 0
M  V30 17524 H 2007.15 -4.81217 -1.21426 0
M  V30 17525 H 2002.41 -6.08456 -0.599259 0
M  V30 17526 H 2006.58 -6.96244 -0.14743 0
M  V30 17527 H 2004.21 -7.60019 0.165924 0
M  V30 17528 N 2005.78 0.645673 -1.43767 0
M  V30 17529 C 2006.73 1.75163 -1.45952 0
M  V30 17530 C 2007.72 1.57541 -0.327037 0
M  V30 17531 O 2008.91 1.67525 -0.571347 0
M  V30 17532 C 2006.04 3.13787 -1.39257 0
M  V30 17533 C 2005.12 3.3693 -2.57564 0
M  V30 17534 N 2005.51 3.30508 -3.82881 0
M  V30 17535 C 2003.81 3.67676 -2.52449 0
M  V30 17536 C 2004.51 3.5394 -4.61629 0
M  V30 17537 N 2003.49 3.76116 -3.92476 0
M  V30 17538 H 2007.29 1.68634 -2.40707 0
M  V30 17539 H 2004.8 0.847619 -1.38525 0
M  V30 17540 H 2006.8 3.93079 -1.38905 0
M  V30 17541 H 2005.46 3.21492 -0.455285 0
M  V30 17542 H 2006.47 3.09751 -4.1506 0
M  V30 17543 H 2003.15 3.8245 -1.67445 0
M  V30 17544 H 2004.54 3.5469 -5.70653 0
M  V30 17545 N 2007.26 1.30423 0.884744 0
M  V30 17546 C 2008.51 1.19259 1.63657 0
M  V30 17547 C 2008.83 -0.252645 1.92852 0
M  V30 17548 O 2008.09 -1.19718 1.5481 0
M  V30 17549 C 2008.39 1.96681 2.98415 0
M  V30 17550 C 2008.05 3.46298 2.8877 0
M  V30 17551 C 2006.72 3.87098 2.85847 0
M  V30 17552 C 2009.07 4.41573 2.7688 0
M  V30 17553 C 2006.4 5.21464 2.68873 0
M  V30 17554 C 2008.75 5.76047 2.61444 0
M  V30 17555 C 2007.41 6.16085 2.56896 0
M  V30 17556 H 2006.68 0.436399 0.598863 0
M  V30 17557 H 2009.33 1.61527 1.02865 0
M  V30 17558 H 2007.63 1.47049 3.63158 0
M  V30 17559 H 2009.33 1.85436 3.55548 0
M  V30 17560 H 2005.92 3.13877 2.91855 0
M  V30 17561 H 2010.11 4.10994 2.78205 0
M  V30 17562 H 2005.36 5.51577 2.63766 0
M  V30 17563 H 2009.54 6.49509 2.51218 0
M  V30 17564 H 2007.16 7.20147 2.43501 0
M  V30 17565 N 2008.74 -1.09711 1.13142 0
M  V30 17566 C 2009.96 -1.86136 0.914785 0
M  V30 17567 C 2010.39 -1.80448 -0.531035 0
M  V30 17568 O 2009.75 -1.17983 -1.37658 0
M  V30 17569 C 2009.79 -3.32164 1.40356 0
M  V30 17570 O 2008.9 -4.08203 0.586881 0
M  V30 17571 H 2008.24 -0.577287 0.328079 0
M  V30 17572 H 2010.77 -1.38563 1.50537 0
M  V30 17573 H 2010.78 -3.83013 1.40589 0
M  V30 17574 H 2009.45 -3.35619 2.45628 0
M  V30 17575 H 2008.03 -3.67153 0.652163 0
M  V30 17576 N 2010.22 -0.924476 -1.27637 0
M  V30 17577 C 2011.45 -0.57859 -1.98333 0
M  V30 17578 C 2011.85 0.846979 -1.69183 0
M  V30 17579 O 2011.2 1.57405 -0.94706 0
M  V30 17580 C 2011.26 -0.720732 -3.52201 0
M  V30 17581 C 2010.92 -2.11783 -4.04966 0
M  V30 17582 C 2011.92 -3.09167 -4.17986 0
M  V30 17583 C 2009.61 -2.4339 -4.39393 0
M  V30 17584 C 2011.6 -4.36269 -4.64702 0
M  V30 17585 C 2009.29 -3.70729 -4.85802 0
M  V30 17586 C 2010.28 -4.66982 -4.98415 0
M  V30 17587 O 2009.97 -5.92055 -5.43807 0
M  V30 17588 H 2009.7 -0.218317 -0.639776 0
M  V30 17589 H 2012.26 -1.24281 -1.63534 0
M  V30 17590 H 2010.49 0.000580874 -3.867 0
M  V30 17591 H 2012.18 -0.380377 -4.04114 0
M  V30 17592 H 2012.94 -2.86068 -3.9165 0
M  V30 17593 H 2008.82 -1.69216 -4.2882 0
M  V30 17594 H 2012.37 -5.11402 -4.74462 0
M  V30 17595 H 2008.26 -3.93647 -5.11578 0
M  V30 17596 H 2009.03 -5.94997 -5.62068 0
M  V30 17597 N 2011.69 1.41711 -0.689627 0
M  V30 17598 C 2012.94 2.00925 -0.217655 0
M  V30 17599 C 2013.26 1.5487 1.18491 0
M  V30 17600 O 2012.53 0.776746 1.79843 0
M  V30 17601 H 2011.11 0.742971 -0.0774783 0
M  V30 17602 H 2013.78 1.73421 -0.889456 0
M  V30 17603 H 2012.87 3.11248 -0.230451 0
M  V30 17604 N 2013.17 0.433965 1.51507 0
M  V30 17605 C 2014.45 -0.193401 1.94642 0
M  V30 17606 C 2014.83 -1.60398 1.37243 0
M  V30 17607 O 2014.18 -2.21579 0.558139 0
M  V30 17608 C 2014.39 -0.174558 3.48563 0
M  V30 17609 C 2015.74 -0.381783 4.2288 0
M  V30 17610 O 2016.76 -0.252823 3.55302 0
M  V30 17611 O 2015.62 -0.638151 5.42761 0
M  V30 17612 H 2012.71 -0.131787 0.816432 0
M  V30 17613 H 2015.26 0.491701 1.6242 0
M  V30 17614 H 2014.03 0.811732 3.82788 0
M  V30 17615 H 2013.65 -0.902712 3.87217 0
M  V30 17616 N 2014.65 -1.56732 0.165206 0
M  V30 17617 C 2015.93 -1.88357 -0.527344 0
M  V30 17618 C 2016.31 -1.07412 -1.8173 0
M  V30 17619 O 2015.66 -0.166236 -2.27895 0
M  V30 17620 C 2015.87 -3.40282 -0.775175 0
M  V30 17621 C 2017.21 -4.09891 -1.10789 0
M  V30 17622 O 2018.24 -3.45565 -0.863921 0
M  V30 17623 O 2017.1 -5.23527 -1.56787 0
M  V30 17624 H 2014.19 -0.781304 -0.271096 0
M  V30 17625 H 2016.74 -1.68479 0.203183 0
M  V30 17626 H 2015.51 -3.9106 0.137 0
M  V30 17627 H 2015.13 -3.65751 -1.55924 0
M  V30 17628 N 2016.13 0.10854 -1.57226 0
M  V30 17629 C 2017.08 1.15155 -2.02094 0
M  V30 17630 C 2018.07 1.42263 -0.919651 0
M  V30 17631 O 2019.28 1.42102 -1.10485 0
M  V30 17632 H 2015.65 0.388515 -0.643863 0
M  V30 17633 H 2017.62 0.746707 -2.88906 0
M  V30 17634 C 2016.37 2.46727 -2.44992 0
M  V30 17635 H 2015.69 2.26708 -3.29307 0
M  V30 17636 H 2017.13 3.18242 -2.80175 0
M  V30 17637 C 2015.59 3.10059 -1.31776 0
M  V30 17638 O 2016.12 3.96577 -0.639471 0
M  V30 17639 N 2014.33 2.70099 -1.07215 0
M  V30 17640 H 2013.88 1.99837 -1.62552 0
M  V30 17641 H 2013.83 3.12802 -0.316602 0
M  V30 17642 N 2017.61 1.52975 0.379009 0
M  V30 17643 C 2018.54 1.81436 1.46981 0
M  V30 17644 C 2019.52 0.666985 1.56478 0
M  V30 17645 O 2020.7 0.915545 1.71264 0
M  V30 17646 C 2017.83 1.99221 2.84479 0
M  V30 17647 C 2016.79 3.14946 2.89816 0
M  V30 17648 C 2016.11 3.18001 4.2986 0
M  V30 17649 C 2017.41 4.53814 2.58554 0
M  V30 17650 H 2019.11 2.72781 1.23413 0
M  V30 17651 H 2016.65 1.31257 0.592257 0
M  V30 17652 H 2018.61 2.17714 3.60803 0
M  V30 17653 H 2017.33 1.04573 3.09406 0
M  V30 17654 H 2015.99 2.96251 2.15942 0
M  V30 17655 H 2015.64 2.21017 4.51841 0
M  V30 17656 H 2015.34 3.95746 4.34349 0
M  V30 17657 H 2016.86 3.38662 5.08075 0
M  V30 17658 H 2018.27 4.72559 3.24593 0
M  V30 17659 H 2016.67 5.33701 2.74379 0
M  V30 17660 H 2017.74 4.59845 1.53853 0
M  V30 17661 N 2019.08 -0.63804 1.44107 0
M  V30 17662 C 2020.05 -1.7322 1.50092 0
M  V30 17663 C 2021.05 -1.56153 0.383763 0
M  V30 17664 O 2022.24 -1.61774 0.646118 0
M  V30 17665 C 2019.37 -3.1224 1.36818 0
M  V30 17666 H 2020.56 -1.6929 2.4755 0
M  V30 17667 H 2018.12 -0.851079 1.31097 0
M  V30 17668 H 2018.85 -3.2177 0.404269 0
M  V30 17669 H 2018.64 -3.26033 2.17818 0
M  V30 17670 H 2020.13 -3.91997 1.43972 0
M  V30 17671 N 2020.56 -1.3089 -0.877815 0
M  V30 17672 C 2021.97 -1.18126 -1.44579 0
M  V30 17673 C 2022.32 0.215306 -1.95015 0
M  V30 17674 O 2021.45 1.11252 -1.85613 0
M  V30 17675 C 2022.04 -2.13835 -2.62793 0
M  V30 17676 C 2020.6 -2.05028 -3.15659 0
M  V30 17677 C 2019.75 -2.03509 -1.88359 0
M  V30 17678 H 2022.7 -1.43056 -0.687082 0
M  V30 17679 H 2022.72 -1.72337 -3.39235 0
M  V30 17680 H 2022.23 -3.1547 -2.26054 0
M  V30 17681 H 2020.34 -1.0656 -3.57037 0
M  V30 17682 H 2020.45 -2.9376 -3.78473 0
M  V30 17683 H 2018.81 -1.48412 -2.06992 0
M  V30 17684 H 2019.6 -3.06887 -1.53869 0
M  V30 17685 N 2022.04 1.0911 -1.13723 0
M  V30 17686 C 2022.99 2.17927 -0.813066 0
M  V30 17687 C 2023.98 1.68143 0.205993 0
M  V30 17688 O 2025.19 1.7989 0.0628131 0
M  V30 17689 H 2021.56 0.710911 -0.245171 0
M  V30 17690 H 2023.53 2.42497 -1.7389 0
M  V30 17691 C 2022.28 3.46412 -0.298989 0
M  V30 17692 H 2021.61 3.85091 -1.07447 0
M  V30 17693 H 2023.05 4.23856 -0.110638 0
M  V30 17694 C 2021.51 3.22454 0.975967 0
M  V30 17695 O 2022.04 3.45385 2.05115 0
M  V30 17696 N 2020.24 2.76039 0.908345 0
M  V30 17697 H 2019.79 2.57579 0.0332379 0
M  V30 17698 H 2019.75 2.60387 1.76199 0
M  V30 17699 N 2023.52 0.931232 1.27145 0
M  V30 17700 C 2024.75 0.589956 1.98311 0
M  V30 17701 C 2025.16 -0.832836 1.69438 0
M  V30 17702 O 2024.52 -1.55399 0.956935 0
M  V30 17703 C 2024.57 0.810592 3.52295 0
M  V30 17704 O 2024.29 2.17741 3.80158 0
M  V30 17705 C 2025.79 0.478508 4.4071 0
M  V30 17706 H 2023.01 0.223234 0.632778 0
M  V30 17707 H 2025.56 1.24922 1.6191 0
M  V30 17708 H 2023.71 0.198081 3.86893 0
M  V30 17709 H 2024.12 2.23003 4.74731 0
M  V30 17710 H 2025.6 0.683566 5.47751 0
M  V30 17711 H 2026.08 -0.586102 4.35272 0
M  V30 17712 H 2026.68 1.06931 4.11638 0
M  V30 17713 N 2025 -1.41343 0.697132 0
M  V30 17714 C 2025.96 -2.29162 0.0417336 0
M  V30 17715 C 2026.96 -1.44455 -0.706353 0
M  V30 17716 O 2028.15 -1.65586 -0.54101 0
M  V30 17717 C 2025.28 -3.2736 -0.951235 0
M  V30 17718 H 2026.48 -2.88614 0.814974 0
M  V30 17719 H 2024.03 -1.49356 0.460717 0
M  V30 17720 H 2024.76 -2.7289 -1.75218 0
M  V30 17721 H 2024.55 -3.89866 -0.417931 0
M  V30 17722 H 2026.04 -3.93164 -1.40756 0
M  V30 17723 N 2026.48 -0.441993 -1.51275 0
M  V30 17724 C 2027.42 0.381441 -2.29451 0
M  V30 17725 C 2028.42 1.01672 -1.35496 0
M  V30 17726 O 2029.62 0.95115 -1.52817 0
M  V30 17727 H 2026 0.141826 -0.738505 0
M  V30 17728 H 2027.97 -0.298692 -2.96901 0
M  V30 17729 C 2026.72 1.46756 -3.15211 0
M  V30 17730 H 2026.04 0.988092 -3.87397 0
M  V30 17731 H 2027.48 2.01687 -3.72959 0
M  V30 17732 C 2025.94 2.4534 -2.30889 0
M  V30 17733 O 2026.47 3.49979 -1.97173 0
M  V30 17734 N 2024.68 2.16342 -1.94022 0
M  V30 17735 H 2024.22 1.31276 -2.2164 0
M  V30 17736 H 2024.18 2.82543 -1.37902 0
M  V30 17737 N 2027.95 1.56642 -0.173515 0
M  V30 17738 C 2029.2 1.97241 0.47157 0
M  V30 17739 C 2029.53 1.05958 1.62747 0
M  V30 17740 O 2028.81 0.107151 1.94205 0
M  V30 17741 C 2029.09 3.47276 0.952439 0
M  V30 17742 C 2028.94 4.49338 -0.203789 0
M  V30 17743 C 2030.26 4.00461 1.82535 0
M  V30 17744 H 2027.38 0.71714 0.169941 0
M  V30 17745 H 2030.02 1.88211 -0.260093 0
M  V30 17746 H 2028.17 3.55102 1.57591 0
M  V30 17747 H 2029.85 4.5357 -0.840936 0
M  V30 17748 H 2028.09 4.25211 -0.858945 0
M  V30 17749 H 2028.76 5.51723 0.174833 0
M  V30 17750 H 2031.24 3.9528 1.29974 0
M  V30 17751 H 2030.11 5.05853 2.13083 0
M  V30 17752 H 2030.37 3.44409 2.7719 0
M  V30 17753 N 2029.43 -0.1002 1.57281 0
M  V30 17754 C 2030.36 -1.14803 1.98376 0
M  V30 17755 C 2031.38 -1.36605 0.885602 0
M  V30 17756 O 2032.57 -1.35347 1.16376 0
M  V30 17757 C 2029.67 -2.50456 2.2831 0
M  V30 17758 C 2028.84 -2.49 3.59608 0
M  V30 17759 C 2027.9 -3.66541 3.77537 0
M  V30 17760 O 2026.92 -3.49266 4.49447 0
M  V30 17761 N 2028.13 -4.85829 3.17727 0
M  V30 17762 H 2030.89 -0.798301 2.88872 0
M  V30 17763 H 2028.45 -0.289246 1.59295 0
M  V30 17764 H 2030.44 -3.27681 2.37502 0
M  V30 17765 H 2029.01 -2.77538 1.43846 0
M  V30 17766 H 2028.23 -1.57357 3.61431 0
M  V30 17767 H 2029.52 -2.45101 4.45873 0
M  V30 17768 H 2028.92 -5.02769 2.59307 0
M  V30 17769 H 2027.48 -5.60665 3.32412 0
M  V30 17770 N 2030.91 -1.53174 -0.370891 0
M  V30 17771 C 2031.84 -1.74012 -1.47632 0
M  V30 17772 C 2032.82 -0.588337 -1.51583 0
M  V30 17773 O 2034 -0.820302 -1.69715 0
M  V30 17774 C 2031.13 -1.81411 -2.8602 0
M  V30 17775 C 2030.18 -3.03335 -2.99817 0
M  V30 17776 S 2031.01 -4.6296 -2.69125 0
M  V30 17777 C 2032.17 -4.73201 -4.09672 0
M  V30 17778 H 2032.4 -2.675 -1.29734 0
M  V30 17779 H 2029.93 -1.43695 -0.5649 0
M  V30 17780 H 2031.89 -1.8636 -3.6576 0
M  V30 17781 H 2030.55 -0.889838 -3.01232 0
M  V30 17782 H 2029.74 -3.05107 -4.01156 0
M  V30 17783 H 2029.35 -2.96471 -2.27993 0
M  V30 17784 H 2031.64 -4.52929 -5.03846 0
M  V30 17785 H 2032.58 -5.7525 -4.12908 0
M  V30 17786 H 2032.99 -4.0188 -3.96425 0
M  V30 17787 N 2032.39 0.630389 -1.44443 0
M  V30 17788 C 2033.62 1.41712 -1.50749 0
M  V30 17789 C 2034.03 1.88334 -0.132593 0
M  V30 17790 O 2033.39 1.60878 0.861649 0
M  V30 17791 C 2033.44 2.63694 -2.47281 0
M  V30 17792 O 2033.16 2.19016 -3.79425 0
M  V30 17793 C 2034.66 3.56813 -2.63058 0
M  V30 17794 H 2031.88 0.43458 -0.511255 0
M  V30 17795 H 2034.42 0.770878 -1.89414 0
M  V30 17796 H 2032.58 3.24409 -2.11749 0
M  V30 17797 H 2032.99 2.98104 -4.31549 0
M  V30 17798 H 2034.47 4.39008 -3.34628 0
M  V30 17799 H 2034.94 4.05669 -1.68313 0
M  V30 17800 H 2035.55 3.01966 -2.99494 0
M  V30 17801 N 2033.87 1.31354 0.870861 0
M  V30 17802 C 2035.11 1.20988 1.62383 0
M  V30 17803 C 2035.44 -0.232177 1.93109 0
M  V30 17804 O 2034.7 -1.1807 1.56071 0
M  V30 17805 C 2034.99 1.99835 2.96312 0
M  V30 17806 C 2034.66 3.49342 2.85081 0
M  V30 17807 C 2033.32 3.90108 2.81725 0
M  V30 17808 C 2035.67 4.44485 2.72181 0
M  V30 17809 C 2033 5.24286 2.63327 0
M  V30 17810 C 2035.35 5.78787 2.5532 0
M  V30 17811 C 2034.02 6.18775 2.50347 0
M  V30 17812 H 2033.29 0.442726 0.594201 0
M  V30 17813 H 2035.94 1.62609 1.01146 0
M  V30 17814 H 2034.24 1.50892 3.61578 0
M  V30 17815 H 2035.94 1.89196 3.53562 0
M  V30 17816 H 2032.53 3.16954 2.8851 0
M  V30 17817 H 2036.71 4.13921 2.7383 0
M  V30 17818 H 2031.97 5.54344 2.57901 0
M  V30 17819 H 2036.14 6.52137 2.44315 0
M  V30 17820 H 2033.77 7.22689 2.3585 0
M  V30 17821 N 2035.34 -1.08505 1.143 0
M  V30 17822 C 2036.27 -2.1741 0.851769 0
M  V30 17823 C 2037.25 -1.69004 -0.192818 0
M  V30 17824 O 2038.44 -1.94136 -0.0497098 0
M  V30 17825 C 2035.57 -3.45754 0.327364 0
M  V30 17826 C 2034.52 -4.07547 1.30728 0
M  V30 17827 C 2033.85 -5.30829 0.642225 0
M  V30 17828 C 2035.15 -4.48945 2.66919 0
M  V30 17829 H 2036.84 -2.42029 1.76245 0
M  V30 17830 H 2034.39 -1.16322 0.848834 0
M  V30 17831 H 2036.34 -4.21253 0.111237 0
M  V30 17832 H 2035.07 -3.20686 -0.618737 0
M  V30 17833 H 2033.73 -3.34077 1.50956 0
M  V30 17834 H 2033.37 -5.02046 -0.309652 0
M  V30 17835 H 2033.07 -5.73128 1.29608 0
M  V30 17836 H 2034.6 -6.09044 0.435598 0
M  V30 17837 H 2036.01 -5.15626 2.50604 0
M  V30 17838 H 2034.41 -5.02158 3.28568 0
M  V30 17839 H 2035.48 -3.60882 3.23871 0
M  V30 17840 N 2036.82 -0.937962 -1.26649 0
M  V30 17841 C 2038.24 -0.639774 -1.46216 0
M  V30 17842 C 2038.44 0.807896 -1.84595 0
M  V30 17843 O 2037.49 1.58484 -1.96568 0
M  V30 17844 C 2038.81 -1.59844 -2.54697 0
M  V30 17845 C 2040.35 -1.60779 -2.6855 0
M  V30 17846 C 2040.83 -2.55367 -3.80199 0
M  V30 17847 N 2042.32 -2.53634 -3.87587 0
M  V30 17848 C 2043.06 -3.23509 -4.73423 0
M  V30 17849 N 2042.55 -4.02798 -5.63671 0
M  V30 17850 N 2044.34 -3.12477 -4.67242 0
M  V30 17851 H 2036.5 -1.87374 -1.00025 0
M  V30 17852 H 2038.76 -0.805036 -0.500621 0
M  V30 17853 H 2038.46 -2.63168 -2.33314 0
M  V30 17854 H 2038.34 -1.34802 -3.5229 0
M  V30 17855 H 2040.73 -0.581808 -2.89308 0
M  V30 17856 H 2040.81 -1.89873 -1.71411 0
M  V30 17857 H 2040.45 -3.58081 -3.60195 0
M  V30 17858 H 2040.38 -2.23564 -4.76788 0
M  V30 17859 H 2042.87 -1.96058 -3.23063 0
M  V30 17860 H 2043.18 -4.53075 -6.26053 0
M  V30 17861 H 2041.53 -4.069 -5.63434 0
M  V30 17862 H 2044.72 -2.50018 -3.95738 0
M  V30 17863 H 2044.89 -3.67201 -5.33917 0
M  V30 17864 N 2038.3 1.40971 -0.704618 0
M  V30 17865 C 2039.23 2.33424 -0.0595656 0
M  V30 17866 C 2040.21 1.52306 0.757422 0
M  V30 17867 O 2041.4 1.80812 0.708567 0
M  V30 17868 C 2038.53 3.36202 0.870964 0
M  V30 17869 C 2037.48 4.27699 0.160408 0
M  V30 17870 C 2036.81 5.20924 1.20591 0
M  V30 17871 C 2038.11 5.13047 -0.97878 0
M  V30 17872 H 2039.8 2.87615 -0.83176 0
M  V30 17873 H 2037.35 1.38292 -0.401428 0
M  V30 17874 H 2039.3 3.9981 1.33153 0
M  V30 17875 H 2038.02 2.80381 1.67493 0
M  V30 17876 H 2036.68 3.65527 -0.280222 0
M  V30 17877 H 2036.33 4.61414 2.00264 0
M  V30 17878 H 2036.03 5.8298 0.73543 0
M  V30 17879 H 2037.55 5.8741 1.6668 0
M  V30 17880 H 2038.97 5.70172 -0.598081 0
M  V30 17881 H 2037.36 5.8409 -1.37693 0
M  V30 17882 H 2038.43 4.49675 -1.8144 0
M  V30 17883 N 2039.78 0.45001 1.51039 0
M  V30 17884 C 2040.71 -0.345315 2.30933 0
M  V30 17885 C 2041.69 -1.00959 1.36899 0
M  V30 17886 O 2042.87 -1.0108 1.6582 0
M  V30 17887 C 2040 -1.43968 3.16055 0
M  V30 17888 C 2038.96 -0.898198 4.18469 0
M  V30 17889 C 2038.28 -2.08927 4.92193 0
M  V30 17890 C 2039.58 0.0760911 5.22245 0
M  V30 17891 H 2041.28 0.321441 2.97669 0
M  V30 17892 H 2038.82 0.156032 1.43152 0
M  V30 17893 H 2040.78 -2.00338 3.70732 0
M  V30 17894 H 2039.5 -2.1349 2.47163 0
M  V30 17895 H 2038.16 -0.356617 3.64861 0
M  V30 17896 H 2037.81 -2.77098 4.19792 0
M  V30 17897 H 2037.51 -1.73328 5.61454 0
M  V30 17898 H 2039.03 -2.65827 5.49698 0
M  V30 17899 H 2040.45 -0.397728 5.71919 0
M  V30 17900 H 2038.84 0.345281 5.99106 0
M  V30 17901 H 2039.91 1.00878 4.74291 0
M  V30 17902 N 2041.26 -1.56548 0.18182 0
M  V30 17903 C 2042.48 -2.02015 -0.469543 0
M  V30 17904 C 2042.91 -1.06119 -1.55307 0
M  V30 17905 O 2042.26 -0.0424595 -1.8125 0
M  V30 17906 C 2042.31 -3.46016 -1.01515 0
M  V30 17907 O 2041.42 -3.53215 -2.12869 0
M  V30 17908 H 2040.76 -0.65461 -0.111273 0
M  V30 17909 H 2043.29 -2.02552 0.288798 0
M  V30 17910 H 2043.3 -3.85537 -1.33511 0
M  V30 17911 H 2041.97 -4.15308 -0.22188 0
M  V30 17912 H 2040.55 -3.2556 -1.81838 0
M  V30 17913 N 2042.73 0.0918577 -1.57332 0
M  V30 17914 C 2043.96 0.808218 -1.90461 0
M  V30 17915 C 2044.38 1.72122 -0.775843 0
M  V30 17916 O 2043.73 1.80752 0.251995 0
M  V30 17917 C 2043.79 1.61885 -3.23227 0
M  V30 17918 O 2043.51 0.742563 -4.31761 0
M  V30 17919 C 2045.01 2.43798 -3.7024 0
M  V30 17920 H 2042.23 0.230915 -0.630015 0
M  V30 17921 H 2044.77 0.0681235 -2.04387 0
M  V30 17922 H 2042.93 2.31142 -3.1089 0
M  V30 17923 H 2043.34 1.30433 -5.08023 0
M  V30 17924 H 2044.81 2.96164 -4.65823 0
M  V30 17925 H 2045.29 3.2241 -2.98242 0
M  V30 17926 H 2045.9 1.79734 -3.85455 0
M  V30 17927 N 2044.21 1.53368 0.362763 0
M  V30 17928 C 2045.12 1.82969 1.46832 0
M  V30 17929 C 2046.14 0.718285 1.58482 0
M  V30 17930 O 2047.31 1.00863 1.74323 0
M  V30 17931 C 2044.38 2.01596 2.82064 0
M  V30 17932 C 2043.44 3.25491 2.79918 0
M  V30 17933 C 2042.67 3.4322 4.087 0
M  V30 17934 O 2042.9 2.65185 5.05008 0
M  V30 17935 O 2041.83 4.36585 4.1434 0
M  V30 17936 H 2045.66 2.769 1.24741 0
M  V30 17937 H 2043.24 1.38783 0.553131 0
M  V30 17938 H 2045.12 2.15403 3.62187 0
M  V30 17939 H 2043.8 1.10854 3.04127 0
M  V30 17940 H 2042.71 3.17105 1.98483 0
M  V30 17941 H 2044.04 4.16164 2.62809 0
M  V30 17942 N 2045.69 -0.62272 1.44776 0
M  V30 17943 C 2046.94 -1.37937 1.47708 0
M  V30 17944 C 2047.26 -1.94665 0.114186 0
M  V30 17945 O 2046.53 -1.76277 -0.854583 0
M  V30 17946 H 2045.11 -0.512023 0.543914 0
M  V30 17947 H 2047.77 -0.732336 1.80618 0
M  V30 17948 H 2046.87 -2.20646 2.2073 0
M  V30 17949 N 2047.17 -1.31814 -0.863883 0
M  V30 17950 C 2048.39 -1.24961 -1.65528 0
M  V30 17951 C 2048.82 0.18096 -1.87228 0
M  V30 17952 O 2048.18 1.12919 -1.41842 0
M  V30 17953 C 2048.22 -2.00518 -2.99708 0
M  V30 17954 O 2047.33 -1.34668 -3.89793 0
M  V30 17955 H 2046.67 -0.431127 -0.505001 0
M  V30 17956 H 2049.2 -1.73981 -1.07665 0
M  V30 17957 H 2049.21 -2.10344 -3.49599 0
M  V30 17958 H 2047.88 -3.0455 -2.83235 0
M  V30 17959 H 2046.46 -1.33332 -3.48249 0
M  V30 17960 N 2048.65 1.07897 -1.14873 0
M  V30 17961 C 2049.58 2.14852 -0.798188 0
M  V30 17962 C 2050.59 1.61719 0.187287 0
M  V30 17963 O 2051.78 1.78465 -0.0351681 0
M  V30 17964 C 2048.88 3.38498 -0.16499 0
M  V30 17965 C 2048.05 4.21 -1.1865 0
M  V30 17966 C 2047.11 5.23037 -0.576101 0
M  V30 17967 O 2046.14 5.55518 -1.24051 0
M  V30 17968 N 2047.34 5.76908 0.644745 0
M  V30 17969 H 2050.11 2.45528 -1.71861 0
M  V30 17970 H 2047.67 1.23755 -1.04386 0
M  V30 17971 H 2049.66 4.0389 0.255991 0
M  V30 17972 H 2048.23 3.05582 0.658666 0
M  V30 17973 H 2047.45 3.51509 -1.78423 0
M  V30 17974 H 2048.74 4.72937 -1.87639 0
M  V30 17975 H 2048.13 5.5276 1.20302 0
M  V30 17976 H 2046.69 6.43956 1.00816 0
M  V30 17977 N 2050.12 0.944665 1.2615 0
M  V30 17978 C 2051.07 0.44787 2.28247 0
M  V30 17979 C 2052.07 -0.476672 1.62555 0
M  V30 17980 O 2053.27 -0.3545 1.76475 0
M  V30 17981 H 2049.65 0.126306 0.741317 0
M  V30 17982 H 2051.62 1.32142 2.67546 0
M  V30 17983 C 2050.37 -0.268298 3.46663 0
M  V30 17984 H 2049.69 0.433964 3.97438 0
M  V30 17985 H 2051.13 -0.580074 4.20013 0
M  V30 17986 C 2049.59 -1.48732 3.02292 0
M  V30 17987 O 2050.12 -2.58549 3.07434 0
M  V30 17988 N 2048.33 -1.34513 2.57594 0
M  V30 17989 H 2047.87 -0.451649 2.5361 0
M  V30 17990 H 2047.83 -2.16196 2.28269 0
M  V30 17991 N 2051.6 -1.40596 0.712085 0
M  V30 17992 C 2052.85 -2.00181 0.247097 0
M  V30 17993 C 2053.16 -1.57102 -1.16526 0
M  V30 17994 O 2054.37 -2.09361 -1.72858 0
M  V30 17995 C 2052.83 -3.57771 0.390856 0
M  V30 17996 C 2052.43 -4.09825 1.80964 0
M  V30 17997 C 2054.18 -4.24498 -0.0135164 0
M  V30 17998 C 2052.09 -5.59907 1.90417 0
M  V30 17999 H 2051.02 -0.748773 0.0886278 0
M  V30 18000 H 2053.67 -1.60876 0.882669 0
M  V30 18001 H 2052.05 -3.94759 -0.313241 0
M  V30 18002 H 2053.22 -3.84221 2.54383 0
M  V30 18003 H 2051.54 -3.55682 2.16516 0
M  V30 18004 H 2054.13 -5.34688 0.0364444 0
M  V30 18005 H 2054.48 -4.02714 -1.05487 0
M  V30 18006 H 2055.01 -3.92603 0.640898 0
M  V30 18007 H 2051.75 -5.86541 2.92661 0
M  V30 18008 H 2051.27 -5.87385 1.21404 0
M  V30 18009 H 2052.95 -6.24951 1.67466 0
M  V30 18010 N 2053.08 -0.458013 -1.50798 0
M  V30 18011 C 2054.31 0.0995379 -2.0666 0
M  V30 18012 C 2054.72 1.34662 -1.32331 0
M  V30 18013 O 2054.08 1.78311 -0.388768 0
M  V30 18014 C 2054.13 0.400901 -3.5927 0
M  V30 18015 O 2053.85 -0.796705 -4.30795 0
M  V30 18016 C 2055.35 1.00686 -4.31714 0
M  V30 18017 H 2052.57 -0.00125628 -0.670999 0
M  V30 18018 H 2055.12 -0.643041 -1.94127 0
M  V30 18019 H 2053.27 1.0934 -3.7165 0
M  V30 18020 H 2053.69 -0.533396 -5.21781 0
M  V30 18021 H 2055.16 1.16758 -5.39511 0
M  V30 18022 H 2055.64 1.99349 -3.91352 0
M  V30 18023 H 2056.24 0.353135 -4.23831 0
M  V30 18024 N 2054.56 1.56449 -0.190119 0
M  V30 18025 C 2055.79 2.01527 0.455038 0
M  V30 18026 C 2056.2 1.06944 1.56076 0
M  V30 18027 O 2055.54 0.0656127 1.83583 0
M  V30 18028 C 2055.6 3.43008 1.07637 0
M  V30 18029 C 2055.27 4.56868 0.109996 0
M  V30 18030 C 2056.26 5.1545 -0.678755 0
M  V30 18031 C 2053.95 5.023 0.000358787 0
M  V30 18032 C 2055.94 6.1791 -1.56416 0
M  V30 18033 C 2053.63 6.04605 -0.888608 0
M  V30 18034 C 2054.63 6.62283 -1.66944 0
M  V30 18035 O 2054.32 7.62601 -2.54351 0
M  V30 18036 H 2054.05 0.66543 0.119076 0
M  V30 18037 H 2056.6 2.03276 -0.29461 0
M  V30 18038 H 2054.83 3.38229 1.87451 0
M  V30 18039 H 2056.52 3.71923 1.62566 0
M  V30 18040 H 2057.29 4.8122 -0.604329 0
M  V30 18041 H 2053.17 4.57106 0.59794 0
M  V30 18042 H 2056.71 6.62858 -2.17407 0
M  V30 18043 H 2052.61 6.38259 -0.964167 0
M  V30 18044 H 2053.37 7.80001 -2.48075 0
M  V30 18045 N 2056.04 -0.0835127 1.57379 0
M  V30 18046 C 2056.99 -1.1071 1.99317 0
M  V30 18047 C 2057.97 -1.35133 0.873384 0
M  V30 18048 O 2059.16 -1.3563 1.13726 0
M  V30 18049 C 2056.29 -2.42414 2.43085 0
M  V30 18050 C 2055.38 -2.21315 3.61774 0
M  V30 18051 N 2055.77 -1.70115 4.76335 0
M  V30 18052 C 2054.07 -2.51836 3.68096 0
M  V30 18053 C 2054.77 -1.63558 5.58233 0
M  V30 18054 N 2053.74 -2.09189 5.01738 0
M  V30 18055 H 2057.55 -0.704359 2.85335 0
M  V30 18056 H 2055.06 -0.290768 1.59776 0
M  V30 18057 H 2057.06 -3.16492 2.71364 0
M  V30 18058 H 2055.72 -2.83415 1.58449 0
M  V30 18059 H 2056.73 -1.39146 4.98858 0
M  V30 18060 H 2053.41 -2.96283 2.94147 0
M  V30 18061 H 2054.8 -1.24924 6.60184 0
M  V30 18062 N 2057.52 -1.53558 -0.354624 0
M  V30 18063 C 2058.76 -1.71979 -1.10466 0
M  V30 18064 C 2059.12 -0.467268 -1.86227 0
M  V30 18065 O 2060.32 -0.528325 -2.63557 0
M  V30 18066 C 2058.59 -2.94174 -2.02969 0
M  V30 18067 S 2060.15 -3.33352 -2.85345 0
M  V30 18068 H 2056.97 -0.605043 -0.373422 0
M  V30 18069 H 2059.57 -1.91682 -0.384487 0
M  V30 18070 H 2058.27 -3.83517 -1.46093 0
M  V30 18071 H 2057.81 -2.76904 -2.79442 0
M  V30 18072 H 2059.82 -2.86221 -4.05329 0
M  V30 18073 N 2058.99 0.615033 -1.45104 0
M  V30 18074 C 2059.94 1.72617 -1.53206 0
M  V30 18075 C 2060.91 1.6173 -0.378499 0
M  V30 18076 O 2062.1 1.81418 -0.590937 0
M  V30 18077 C 2059.24 3.1091 -1.49763 0
M  V30 18078 C 2058.35 3.32657 -2.75615 0
M  V30 18079 C 2057.48 4.61014 -2.63894 0
M  V30 18080 C 2056.52 4.75993 -3.84834 0
M  V30 18081 N 2055.66 5.95642 -3.71692 0
M  V30 18082 H 2060.5 1.65028 -2.48133 0
M  V30 18083 H 2058.04 0.804792 -1.23132 0
M  V30 18084 H 2059.99 3.90911 -1.45755 0
M  V30 18085 H 2058.62 3.17475 -0.583921 0
M  V30 18086 H 2057.68 2.46484 -2.89741 0
M  V30 18087 H 2058.99 3.39601 -3.65339 0
M  V30 18088 H 2058.14 5.49198 -2.5781 0
M  V30 18089 H 2056.88 4.56455 -1.71756 0
M  V30 18090 H 2055.89 3.86234 -3.91284 0
M  V30 18091 H 2057.11 4.82354 -4.78028 0
M  V30 18092 H 2055.06 5.92143 -2.82318 0
M  V30 18093 H 2054.97 6.03713 -4.55046 0
M  V30 18094 H 2056.24 6.86345 -3.69528 0
M  V30 18095 N 2060.47 1.3227 0.85688 0
M  V30 18096 C 2061.42 1.20972 1.98667 0
M  V30 18097 C 2062.41 0.115019 1.69009 0
M  V30 18098 O 2063.62 0.277796 1.77843 0
M  V30 18099 H 2059.99 0.374926 0.65187 0
M  V30 18100 H 2061.97 2.16528 2.05324 0
M  V30 18101 C 2060.71 0.947348 3.34545 0
M  V30 18102 H 2060.04 1.78189 3.57895 0
M  V30 18103 H 2061.48 0.908529 4.14152 0
M  V30 18104 C 2059.94 -0.349912 3.35078 0
M  V30 18105 O 2060.47 -1.3625 3.77887 0
M  V30 18106 N 2058.67 -0.371097 2.88221 0
M  V30 18107 H 2058.22 0.453449 2.53578 0
M  V30 18108 H 2058.18 -1.23894 2.8896 0
M  V30 18109 N 2061.95 -1.07287 1.15444 0
M  V30 18110 C 2063.17 -1.84153 0.954061 0
M  V30 18111 C 2063.6 -1.81534 -0.492639 0
M  V30 18112 O 2062.96 -1.20877 -1.35124 0
M  V30 18113 C 2063.01 -3.29112 1.4737 0
M  V30 18114 O 2062.11 -4.06866 0.673335 0
M  V30 18115 H 2061.45 -0.570198 0.34025 0
M  V30 18116 H 2063.98 -1.35339 1.53442 0
M  V30 18117 H 2063.99 -3.79944 1.48682 0
M  V30 18118 H 2062.67 -3.30333 2.52691 0
M  V30 18119 H 2061.24 -3.65687 0.729894 0
M  V30 18120 N 2063.43 -0.951342 -1.25647 0
M  V30 18121 C 2064.68 -0.600038 -1.92568 0
M  V30 18122 C 2064.99 0.866499 -1.7536 0
M  V30 18123 O 2066.2 1.32762 -2.36826 0
M  V30 18124 C 2064.65 -1.02246 -3.45071 0
M  V30 18125 C 2064.26 -2.51131 -3.70995 0
M  V30 18126 C 2066 -0.743532 -4.17938 0
M  V30 18127 C 2063.91 -2.87191 -5.16987 0
M  V30 18128 H 2062.84 -0.220706 -0.720975 0
M  V30 18129 H 2065.49 -1.15535 -1.42562 0
M  V30 18130 H 2063.87 -0.395588 -3.94019 0
M  V30 18131 H 2065.05 -3.18809 -3.32712 0
M  V30 18132 H 2063.36 -2.76461 -3.11381 0
M  V30 18133 H 2065.96 -0.989148 -5.25471 0
M  V30 18134 H 2066.3 0.319973 -4.15069 0
M  V30 18135 H 2066.84 -1.3306 -3.74887 0
M  V30 18136 H 2063.57 -3.92545 -5.24965 0
M  V30 18137 H 2063.09 -2.24183 -5.56329 0
M  V30 18138 H 2064.77 -2.76205 -5.85081 0
M  V30 18139 N 2064.91 1.40216 -0.719531 0
M  V30 18140 C 2065.87 2.29067 -0.078186 0
M  V30 18141 C 2066.87 1.45561 0.683282 0
M  V30 18142 O 2068.06 1.66426 0.514598 0
M  V30 18143 C 2065.19 3.28832 0.899035 0
M  V30 18144 H 2066.38 2.87281 -0.860786 0
M  V30 18145 H 2063.94 1.48604 -0.48442 0
M  V30 18146 H 2064.67 2.75643 1.70855 0
M  V30 18147 H 2064.46 3.90482 0.355853 0
M  V30 18148 H 2065.95 3.95353 1.34483 0
M  V30 18149 N 2066.38 0.466004 1.50553 0
M  V30 18150 C 2067.61 -0.0884484 2.06411 0
M  V30 18151 C 2068.02 -1.34509 1.33057 0
M  V30 18152 O 2067.36 -1.79472 0.391869 0
M  V30 18153 C 2067.43 -0.44758 3.56703 0
M  V30 18154 C 2067.09 0.70631 4.51509 0
M  V30 18155 C 2068.09 1.58687 4.9509 0
M  V30 18156 C 2065.77 0.895191 4.94259 0
M  V30 18157 C 2067.77 2.64076 5.80123 0
M  V30 18158 C 2065.45 1.95231 5.79075 0
M  V30 18159 C 2066.45 2.82346 6.21908 0
M  V30 18160 O 2066.14 3.86239 7.05035 0
M  V30 18161 H 2065.87 0.00147065 0.675998 0
M  V30 18162 H 2068.43 0.652308 1.94767 0
M  V30 18163 H 2066.66 -1.24145 3.66231 0
M  V30 18164 H 2068.34 -0.93652 3.94948 0
M  V30 18165 H 2069.11 1.45261 4.62736 0
M  V30 18166 H 2064.99 0.226608 4.60443 0
M  V30 18167 H 2068.53 3.32103 6.13476 0
M  V30 18168 H 2064.43 2.08666 6.10843 0
M  V30 18169 H 2065.2 3.83166 7.23275 0
M  V30 18170 N 2067.86 -1.56346 0.198413 0
M  V30 18171 C 2068.79 -2.22244 -0.716243 0
M  V30 18172 C 2069.77 -1.1866 -1.21876 0
M  V30 18173 O 2070.96 -1.47177 -1.26699 0
M  V30 18174 C 2068.09 -2.88437 -1.93446 0
M  V30 18175 C 2067.04 -3.98294 -1.56672 0
M  V30 18176 C 2066.37 -4.51668 -2.86182 0
M  V30 18177 C 2067.67 -5.16531 -0.774153 0
M  V30 18178 H 2069.36 -2.98935 -0.166883 0
M  V30 18179 H 2066.91 -1.43784 -0.0788267 0
M  V30 18180 H 2068.86 -3.33221 -2.57957 0
M  V30 18181 H 2067.58 -2.09157 -2.5084 0
M  V30 18182 H 2066.24 -3.54206 -0.945178 0
M  V30 18183 H 2065.89 -3.69146 -3.41673 0
M  V30 18184 H 2065.59 -5.25796 -2.6232 0
M  V30 18185 H 2067.12 -4.99155 -3.51676 0
M  V30 18186 H 2068.53 -5.57839 -1.32244 0
M  V30 18187 H 2066.93 -5.96746 -0.633532 0
M  V30 18188 H 2068 -4.84382 0.224098 0
M  V30 18189 N 2069.34 0.0751653 -1.57421 0
M  V30 18190 C 2070.62 0.807768 -1.78142 0
M  V30 18191 C 2071 1.95956 -0.785139 0
M  V30 18192 O 2070.35 2.27771 0.182413 0
M  V30 18193 C 2070.56 1.28385 -3.24528 0
M  V30 18194 C 2071.9 1.71859 -3.88265 0
M  V30 18195 O 2072.93 1.3796 -3.28398 0
M  V30 18196 O 2071.79 2.3461 -4.93579 0
M  V30 18197 H 2068.88 0.386806 -0.730965 0
M  V30 18198 H 2071.43 0.0555021 -1.69609 0
M  V30 18199 H 2070.2 0.459543 -3.88592 0
M  V30 18200 H 2069.82 2.09753 -3.37771 0
M  V30 18201 N 2070.82 1.53744 0.346476 0
M  V30 18202 C 2071.73 1.84516 1.44883 0
M  V30 18203 C 2072.74 0.735054 1.57712 0
M  V30 18204 O 2073.92 1.02706 1.73244 0
M  V30 18205 C 2070.99 2.04576 2.7991 0
M  V30 18206 C 2070.05 3.28442 2.7645 0
M  V30 18207 C 2069.28 3.47536 4.05036 0
M  V30 18208 O 2069.5 2.70527 5.02167 0
M  V30 18209 O 2068.44 4.40955 4.09686 0
M  V30 18210 H 2072.26 2.78207 1.21797 0
M  V30 18211 H 2069.85 1.39362 0.53838 0
M  V30 18212 H 2071.73 2.19232 3.59882 0
M  V30 18213 H 2070.4 1.14074 3.02934 0
M  V30 18214 H 2069.31 3.19192 1.95108 0
M  V30 18215 H 2070.64 4.18928 2.5838 0
M  V30 18216 N 2072.3 -0.607329 1.45428 0
M  V30 18217 C 2073.26 -1.69997 1.53732 0
M  V30 18218 C 2074.26 -1.55304 0.416799 0
M  V30 18219 O 2075.45 -1.60367 0.680287 0
M  V30 18220 C 2072.58 -3.09267 1.43411 0
M  V30 18221 H 2073.77 -1.64001 2.51085 0
M  V30 18222 H 2071.33 -0.82308 1.32872 0
M  V30 18223 H 2072.06 -3.2084 0.47243 0
M  V30 18224 H 2071.85 -3.2134 2.24685 0
M  V30 18225 H 2073.34 -3.88855 1.52255 0
M  V30 18226 N 2073.77 -1.32722 -0.849853 0
M  V30 18227 C 2074.74 -1.21991 -1.94038 0
M  V30 18228 C 2075.74 -0.141727 -1.60174 0
M  V30 18229 O 2076.93 -0.392477 -1.69721 0
M  V30 18230 C 2074.06 -0.877223 -3.2942 0
M  V30 18231 H 2075.25 -2.18913 -2.04981 0
M  V30 18232 H 2072.81 -1.16623 -1.04062 0
M  V30 18233 H 2073.54 0.0899704 -3.24175 0
M  V30 18234 H 2073.33 -1.65681 -3.55376 0
M  V30 18235 H 2074.82 -0.826588 -4.09338 0
M  V30 18236 N 2075.25 1.06673 -1.16011 0
M  V30 18237 C 2076.5 1.79046 -0.937394 0
M  V30 18238 C 2076.82 1.87476 0.536438 0
M  V30 18239 O 2076.09 1.38065 1.38977 0
M  V30 18240 H 2074.67 0.663167 -0.343829 0
M  V30 18241 H 2077.33 1.28878 -1.46207 0
M  V30 18242 H 2076.43 2.81259 -1.35278 0
M  V30 18243 N 2076.73 0.957992 1.25141 0
M  V30 18244 C 2077.68 0.472054 2.2776 0
M  V30 18245 C 2078.67 -0.459404 1.63052 0
M  V30 18246 O 2079.88 -0.335763 1.76841 0
M  V30 18247 H 2076.25 0.134161 0.739936 0
M  V30 18248 H 2078.22 1.34973 2.6613 0
M  V30 18249 C 2076.97 -0.231515 3.46928 0
M  V30 18250 H 2076.3 0.476093 3.96955 0
M  V30 18251 H 2077.74 -0.535494 4.20605 0
M  V30 18252 C 2076.2 -1.45518 3.03852 0
M  V30 18253 O 2076.73 -2.55274 3.10159 0
M  V30 18254 N 2074.93 -1.31773 2.59006 0
M  V30 18255 H 2074.48 -0.424725 2.54074 0
M  V30 18256 H 2074.44 -2.13762 2.30549 0
M  V30 18257 N 2078.21 -1.39832 0.726957 0
M  V30 18258 C 2079.14 -2.333 0.0966938 0
M  V30 18259 C 2080.12 -1.53492 -0.733095 0
M  V30 18260 O 2081.3 -1.81916 -0.679712 0
M  V30 18261 C 2078.43 -3.37545 -0.817367 0
M  V30 18262 C 2077.39 -4.279 -0.0923447 0
M  V30 18263 C 2076.71 -5.22777 -1.12288 0
M  V30 18264 C 2078.01 -5.11425 1.06028 0
M  V30 18265 H 2079.71 -2.86255 0.877412 0
M  V30 18266 H 2077.25 -1.37635 0.423378 0
M  V30 18267 H 2079.21 -4.01878 -1.26776 0
M  V30 18268 H 2077.93 -2.83011 -1.63011 0
M  V30 18269 H 2076.59 -3.65035 0.338339 0
M  V30 18270 H 2076.24 -4.64542 -1.92898 0
M  V30 18271 H 2075.94 -5.84076 -0.64259 0
M  V30 18272 H 2077.46 -5.89987 -1.57314 0
M  V30 18273 H 2078.88 -5.69148 0.688715 0
M  V30 18274 H 2077.27 -5.81825 1.46968 0
M  V30 18275 H 2078.34 -4.46731 1.88571 0
M  V30 18276 N 2079.69 -0.473982 -1.50304 0
M  V30 18277 C 2080.63 0.318686 -2.28589 0
M  V30 18278 C 2081.6 0.984628 -1.3377 0
M  V30 18279 O 2082.79 0.996508 -1.62709 0
M  V30 18280 C 2079.93 1.39305 -3.15734 0
M  V30 18281 C 2079.04 0.7416 -4.25587 0
M  V30 18282 C 2078.18 1.79411 -4.99985 0
M  V30 18283 C 2077.22 1.12306 -6.01709 0
M  V30 18284 N 2076.35 2.11854 -6.69374 0
M  V30 18285 H 2081.19 -0.3552 -2.95876 0
M  V30 18286 H 2078.73 -0.187014 -1.45906 0
M  V30 18287 H 2080.69 2.02764 -3.64613 0
M  V30 18288 H 2079.32 2.03607 -2.50488 0
M  V30 18289 H 2078.37 -0.00562528 -3.804 0
M  V30 18290 H 2079.68 0.212032 -4.98349 0
M  V30 18291 H 2078.84 2.50443 -5.52597 0
M  V30 18292 H 2077.57 2.35749 -4.26936 0
M  V30 18293 H 2076.58 0.398372 -5.48355 0
M  V30 18294 H 2077.8 0.566533 -6.76733 0
M  V30 18295 H 2075.75 2.67204 -5.99114 0
M  V30 18296 H 2075.67 1.6389 -7.38022 0
M  V30 18297 H 2076.94 2.82258 -7.26602 0
M  V30 18298 N 2081.16 1.56239 -0.206702 0
M  V30 18299 C 2082.11 2.19624 0.709491 0
M  V30 18300 C 2083.08 1.1471 1.20128 0
M  V30 18301 O 2084.27 1.43008 1.26307 0
M  V30 18302 C 2081.41 2.8686 1.91847 0
M  V30 18303 C 2080.52 4.0633 1.46696 0
M  V30 18304 C 2079.65 4.6139 2.63235 0
M  V30 18305 C 2078.69 5.73193 2.14747 0
M  V30 18306 N 2077.83 6.22608 3.24505 0
M  V30 18307 H 2082.67 2.97558 0.162225 0
M  V30 18308 H 2080.21 1.46941 0.0683253 0
M  V30 18309 H 2082.17 3.24019 2.62807 0
M  V30 18310 H 2080.8 2.1147 2.43886 0
M  V30 18311 H 2079.85 3.74757 0.652809 0
M  V30 18312 H 2081.16 4.87159 1.07131 0
M  V30 18313 H 2080.31 5.00914 3.42301 0
M  V30 18314 H 2079.05 3.79693 3.0608 0
M  V30 18315 H 2078.06 5.33186 1.34139 0
M  V30 18316 H 2079.28 6.56716 1.72919 0
M  V30 18317 H 2077.23 5.43829 3.66859 0
M  V30 18318 H 2077.15 6.98521 2.89145 0
M  V30 18319 H 2078.41 6.66788 4.0375 0
M  V30 18320 N 2082.64 -0.0668159 1.57458 0
M  V30 18321 C 2083.61 -1.06329 2.03044 0
M  V30 18322 C 2084.61 -1.31301 0.928259 0
M  V30 18323 O 2085.8 -1.26938 1.193 0
M  V30 18324 C 2082.93 -2.40573 2.41532 0
M  V30 18325 H 2084.12 -0.67029 2.92313 0
M  V30 18326 H 2081.67 -0.312678 1.53141 0
M  V30 18327 H 2082.41 -2.84695 1.55303 0
M  V30 18328 H 2082.19 -2.23788 3.21965 0
M  V30 18329 H 2083.68 -3.12189 2.77359 0
M  V30 18330 N 2084.12 -1.53926 -0.338317 0
M  V30 18331 C 2085.05 -1.85269 -1.42119 0
M  V30 18332 C 2086.03 -0.708238 -1.54654 0
M  V30 18333 O 2087.22 -0.960631 -1.68777 0
M  V30 18334 C 2084.35 -2.06693 -2.79097 0
M  V30 18335 C 2083.3 -3.22519 -2.81364 0
M  V30 18336 C 2082.63 -3.29286 -4.21277 0
M  V30 18337 C 2083.93 -4.6051 -2.46431 0
M  V30 18338 H 2085.62 -2.75957 -1.16137 0
M  V30 18339 H 2083.17 -1.32781 -0.557249 0
M  V30 18340 H 2085.12 -2.27204 -3.54903 0
M  V30 18341 H 2083.84 -1.1274 -3.06524 0
M  V30 18342 H 2082.5 -3.01872 -2.08011 0
M  V30 18343 H 2082.15 -2.32919 -4.45823 0
M  V30 18344 H 2081.85 -4.07123 -4.23704 0
M  V30 18345 H 2083.38 -3.52014 -4.98918 0
M  V30 18346 H 2084.79 -4.80999 -3.1195 0
M  V30 18347 H 2083.19 -5.40788 -2.60132 0
M  V30 18348 H 2084.26 -4.63762 -1.41607 0
M  V30 18349 N 2085.6 0.599608 -1.45748 0
M  V30 18350 C 2086.53 1.72038 -1.57877 0
M  V30 18351 C 2087.51 1.64578 -0.429893 0
M  V30 18352 O 2088.7 1.82855 -0.654037 0
M  V30 18353 C 2085.83 3.10657 -1.55272 0
M  V30 18354 C 2084.78 3.32936 -2.68957 0
M  V30 18355 C 2084.11 4.71909 -2.51408 0
M  V30 18356 C 2085.41 3.22412 -4.10911 0
M  V30 18357 H 2087.1 1.62144 -2.51694 0
M  V30 18358 H 2084.65 0.778641 -1.21133 0
M  V30 18359 H 2086.6 3.8887 -1.62353 0
M  V30 18360 H 2085.32 3.21411 -0.579891 0
M  V30 18361 H 2083.98 2.57117 -2.61317 0
M  V30 18362 H 2083.63 4.79406 -1.52247 0
M  V30 18363 H 2083.33 4.8777 -3.2765 0
M  V30 18364 H 2084.85 5.52311 -2.60355 0
M  V30 18365 H 2086.27 3.90488 -4.19752 0
M  V30 18366 H 2084.66 3.498 -4.87607 0
M  V30 18367 H 2085.73 2.19732 -4.32256 0
M  V30 18368 N 2087.08 1.33171 0.842803 0
M  V30 18369 C 2088.33 1.23754 1.59273 0
M  V30 18370 C 2088.64 -0.196137 1.94614 0
M  V30 18371 O 2089.85 -0.412282 2.68351 0
M  V30 18372 C 2088.3 2.16819 2.87259 0
M  V30 18373 C 2087.91 3.65335 2.59296 0
M  V30 18374 C 2089.65 2.16266 3.6528 0
M  V30 18375 C 2087.56 4.50325 3.83355 0
M  V30 18376 H 2086.49 0.459639 0.597702 0
M  V30 18377 H 2089.14 1.5821 0.929616 0
M  V30 18378 H 2087.52 1.75291 3.5509 0
M  V30 18379 H 2088.7 4.15278 1.99701 0
M  V30 18380 H 2087.01 3.68138 1.94586 0
M  V30 18381 H 2089.61 2.76995 4.57359 0
M  V30 18382 H 2089.95 1.1567 3.99908 0
M  V30 18383 H 2090.49 2.56135 3.04368 0
M  V30 18384 H 2087.22 5.51781 3.53861 0
M  V30 18385 H 2086.74 4.05127 4.42303 0
M  V30 18386 H 2088.42 4.6393 4.50975 0
M  V30 18387 N 2088.56 -1.06056 1.16576 0
M  V30 18388 C 2089.49 -2.13555 0.832268 0
M  V30 18389 C 2090.5 -1.61997 -0.161536 0
M  V30 18390 O 2091.69 -1.78387 0.0635559 0
M  V30 18391 C 2088.79 -3.38193 0.218821 0
M  V30 18392 C 2087.96 -4.19059 1.25332 0
M  V30 18393 C 2087.02 -5.22054 0.659239 0
M  V30 18394 O 2086.05 -5.53474 1.32874 0
M  V30 18395 N 2087.25 -5.77861 -0.552882 0
M  V30 18396 H 2090.01 -2.42762 1.75745 0
M  V30 18397 H 2087.58 -1.22078 1.06342 0
M  V30 18398 H 2089.57 -4.04246 -0.191703 0
M  V30 18399 H 2088.14 -3.06591 -0.609967 0
M  V30 18400 H 2087.36 -3.48626 1.83993 0
M  V30 18401 H 2088.65 -4.69892 1.95139 0
M  V30 18402 H 2088.04 -5.54604 -1.11493 0
M  V30 18403 H 2086.6 -6.45478 -0.905585 0
M  V30 18404 N 2090.03 -0.964615 -1.24631 0
M  V30 18405 C 2091.28 -0.623582 -1.92239 0
M  V30 18406 C 2091.6 0.843493 -1.75813 0
M  V30 18407 O 2090.87 1.60179 -1.12781 0
M  V30 18408 H 2089.45 -0.227644 -0.711468 0
M  V30 18409 H 2092.11 -1.22502 -1.51589 0
M  V30 18410 H 2091.21 -0.861514 -2.99974 0
M  V30 18411 N 2091.51 1.39445 -0.734362 0
M  V30 18412 C 2092.74 2.0535 -0.290903 0
M  V30 18413 C 2093.16 1.55004 1.06562 0
M  V30 18414 O 2092.52 0.693509 1.67512 0
M  V30 18415 C 2092.57 3.59337 -0.301562 0
M  V30 18416 O 2091.67 4.06225 0.711013 0
M  V30 18417 H 2091.01 0.650668 -0.132389 0
M  V30 18418 H 2093.54 1.78491 -1.00011 0
M  V30 18419 H 2093.55 4.0774 -0.14573 0
M  V30 18420 H 2092.23 3.95343 -1.2914 0
M  V30 18421 H 2090.8 3.69237 0.521369 0
M  V30 18422 N 2092.99 0.481946 1.5005 0
M  V30 18423 C 2093.94 -0.320472 2.30382 0
M  V30 18424 C 2094.93 -0.980434 1.38144 0
M  V30 18425 O 2096.14 -0.910298 1.55285 0
M  V30 18426 H 2092.51 -0.122196 0.742006 0
M  V30 18427 H 2094.48 0.377305 2.96005 0
M  V30 18428 C 2093.23 -1.38347 3.18991 0
M  V30 18429 H 2092.56 -0.885033 3.89881 0
M  V30 18430 H 2094 -1.91728 3.78175 0
M  V30 18431 C 2092.45 -2.39133 2.37313 0
M  V30 18432 O 2092.98 -3.44629 2.06383 0
M  V30 18433 N 2091.19 -2.11122 1.9969 0
M  V30 18434 H 2090.74 -1.25354 2.25043 0
M  V30 18435 H 2090.7 -2.78787 1.45345 0
M  V30 18436 N 2094.47 -1.56127 0.214985 0
M  V30 18437 C 2095.74 -1.8994 -0.467153 0
M  V30 18438 C 2096.12 -1.13139 -1.78221 0
M  V30 18439 O 2095.47 -0.238654 -2.2725 0
M  V30 18440 C 2095.68 -3.42576 -0.666524 0
M  V30 18441 C 2097.03 -4.13209 -0.976927 0
M  V30 18442 O 2098.05 -3.48138 -0.753545 0
M  V30 18443 O 2096.91 -5.2825 -1.40052 0
M  V30 18444 H 2094.01 -0.789533 -0.246102 0
M  V30 18445 H 2096.55 -1.67748 0.256681 0
M  V30 18446 H 2095.33 -3.90426 0.261344 0
M  V30 18447 H 2094.95 -3.70526 -1.44209 0
M  V30 18448 N 2095.95 0.0584645 -1.57492 0
M  V30 18449 C 2097.19 0.75619 -1.88174 0
M  V30 18450 C 2097.52 1.76546 -0.809018 0
M  V30 18451 O 2096.8 1.93672 0.179286 0
M  V30 18452 C 2097.08 1.45223 -3.29518 0
M  V30 18453 C 2096.94 0.458472 -4.47457 0
M  V30 18454 C 2098.25 2.39381 -3.69303 0
M  V30 18455 H 2095.37 0.27344 -0.684397 0
M  V30 18456 H 2098.02 0.0191997 -1.8999 0
M  V30 18457 H 2096.17 2.08044 -3.28101 0
M  V30 18458 H 2097.84 -0.165547 -4.61003 0
M  V30 18459 H 2096.08 -0.225018 -4.33216 0
M  V30 18460 H 2096.75 0.983384 -5.4317 0
M  V30 18461 H 2099.23 1.86628 -3.719 0
M  V30 18462 H 2098.1 2.85078 -4.69065 0
M  V30 18463 H 2098.36 3.24775 -2.99956 0
M  V30 18464 N 2097.42 1.54103 0.330149 0
M  V30 18465 C 2098.33 1.86042 1.42918 0
M  V30 18466 C 2099.35 0.75174 1.56923 0
M  V30 18467 O 2100.53 1.04538 1.72145 0
M  V30 18468 C 2097.59 2.07533 2.77724 0
M  V30 18469 C 2096.65 3.31356 2.7295 0
M  V30 18470 C 2095.88 3.51812 4.01328 0
M  V30 18471 O 2096.11 2.75838 4.99269 0
M  V30 18472 O 2095.04 4.45275 4.04986 0
M  V30 18473 H 2098.87 2.79483 1.18839 0
M  V30 18474 H 2096.45 1.39925 0.523569 0
M  V30 18475 H 2098.33 2.23037 3.57537 0
M  V30 18476 H 2097.01 1.1728 3.01707 0
M  V30 18477 H 2095.92 3.21243 1.91712 0
M  V30 18478 H 2097.25 4.21645 2.53922 0
M  V30 18479 N 2098.9 -0.59187 1.46064 0
M  V30 18480 C 2100.15 -1.34657 1.50168 0
M  V30 18481 C 2100.46 -1.94993 0.153981 0
M  V30 18482 O 2101.67 -2.71402 0.0727633 0
M  V30 18483 C 2100.13 -2.44 2.6456 0
M  V30 18484 C 2099.73 -1.90007 4.05711 0
M  V30 18485 C 2101.48 -3.2087 2.77926 0
M  V30 18486 C 2099.39 -2.96925 5.11458 0
M  V30 18487 H 2098.32 -0.506178 0.558838 0
M  V30 18488 H 2100.97 -0.632651 1.72249 0
M  V30 18489 H 2099.35 -3.18149 2.35791 0
M  V30 18490 H 2100.52 -1.22462 4.44229 0
M  V30 18491 H 2098.84 -1.25833 3.96932 0
M  V30 18492 H 2101.43 -4.00647 3.54099 0
M  V30 18493 H 2101.78 -3.72878 1.85115 0
M  V30 18494 H 2102.31 -2.53825 3.06296 0
M  V30 18495 H 2099.05 -2.49815 6.0603 0
M  V30 18496 H 2098.57 -3.62987 4.77494 0
M  V30 18497 H 2100.25 -3.61036 5.369 0
M  V30 18498 N 2100.38 -1.33616 -0.835729 0
M  V30 18499 C 2101.8 -1.13019 -1.12689 0
M  V30 18500 C 2102 0.0768335 -2.01353 0
M  V30 18501 O 2101.05 0.756169 -2.40911 0
M  V30 18502 C 2102.37 -2.41918 -1.78595 0
M  V30 18503 C 2103.91 -2.47854 -1.91147 0
M  V30 18504 C 2104.39 -3.76723 -2.60469 0
M  V30 18505 N 2105.88 -3.77811 -2.67979 0
M  V30 18506 C 2106.61 -4.74237 -3.22315 0
M  V30 18507 N 2106.11 -5.81039 -3.77313 0
M  V30 18508 N 2107.9 -4.61709 -3.20596 0
M  V30 18509 H 2100.05 -2.10974 -0.245697 0
M  V30 18510 H 2102.32 -0.932353 -0.171526 0
M  V30 18511 H 2102.02 -3.30264 -1.20906 0
M  V30 18512 H 2101.9 -2.54302 -2.78586 0
M  V30 18513 H 2104.28 -1.59955 -2.47989 0
M  V30 18514 H 2104.37 -2.39408 -0.900965 0
M  V30 18515 H 2104.01 -4.65005 -2.04286 0
M  V30 18516 H 2103.94 -3.82447 -3.61998 0
M  V30 18517 H 2106.43 -3.00626 -2.28982 0
M  V30 18518 H 2106.74 -6.50648 -4.16986 0
M  V30 18519 H 2105.09 -5.8477 -3.75592 0
M  V30 18520 H 2108.28 -3.77426 -2.76888 0
M  V30 18521 H 2108.45 -5.37026 -3.62639 0
M  V30 18522 N 2101.86 1.05436 -1.17136 0
M  V30 18523 C 2102.82 2.11293 -0.888146 0
M  V30 18524 C 2103.82 1.60347 0.120621 0
M  V30 18525 O 2105.01 1.73844 -0.111266 0
M  V30 18526 C 2102.14 3.393 -0.329871 0
M  V30 18527 H 2103.34 2.3785 -1.82667 0
M  V30 18528 H 2100.89 1.21641 -0.981486 0
M  V30 18529 H 2101.62 3.18397 0.61592 0
M  V30 18530 H 2101.41 3.77588 -1.05687 0
M  V30 18531 H 2102.9 4.17331 -0.149954 0
M  V30 18532 N 2103.34 0.971211 1.24118 0
M  V30 18533 C 2104.25 0.511904 2.28947 0
M  V30 18534 C 2105.26 -0.428843 1.68633 0
M  V30 18535 O 2106.44 -0.301023 1.99138 0
M  V30 18536 C 2103.5 -0.187222 3.46194 0
M  V30 18537 C 2102.56 0.793786 4.21898 0
M  V30 18538 C 2101.8 0.12793 5.33547 0
M  V30 18539 O 2102.02 -1.08301 5.60024 0
M  V30 18540 O 2100.95 0.821863 5.96263 0
M  V30 18541 H 2104.78 1.38346 2.70359 0
M  V30 18542 H 2102.37 0.738411 1.29876 0
M  V30 18543 H 2104.25 -0.579802 4.17392 0
M  V30 18544 H 2102.92 -1.03369 3.06752 0
M  V30 18545 H 2101.83 1.23689 3.53061 0
M  V30 18546 H 2103.16 1.60877 4.65166 0
M  V30 18547 N 2104.81 -1.39054 0.741747 0
M  V30 18548 C 2106.06 -1.99978 0.292077 0
M  V30 18549 C 2106.38 -1.59162 -1.12662 0
M  V30 18550 O 2105.65 -0.842958 -1.76836 0
M  V30 18551 H 2104.23 -0.739584 0.105 0
M  V30 18552 H 2106.9 -1.7 0.953207 0
M  V30 18553 H 2105.99 -3.10178 0.34581 0
M  V30 18554 N 2106.29 -0.489897 -1.49792 0
M  V30 18555 C 2107.24 0.30825 -2.30548 0
M  V30 18556 C 2108.23 0.973094 -1.38662 0
M  V30 18557 O 2109.44 0.902051 -1.55766 0
M  V30 18558 H 2105.82 0.118259 -0.742643 0
M  V30 18559 H 2107.79 -0.392998 -2.95801 0
M  V30 18560 C 2106.54 1.36653 -3.1972 0
M  V30 18561 H 2105.86 0.864344 -3.90345 0
M  V30 18562 H 2107.3 1.8972 -3.79186 0
M  V30 18563 C 2105.76 2.37871 -2.38577 0
M  V30 18564 O 2106.29 3.43529 -2.08208 0
M  V30 18565 N 2104.49 2.1006 -2.00807 0
M  V30 18566 H 2104.04 1.24158 -2.25704 0
M  V30 18567 H 2104 2.78012 -1.46821 0
M  V30 18568 N 2107.77 1.56011 -0.223262 0
M  V30 18569 C 2109 2.03189 0.415817 0
M  V30 18570 C 2109.42 1.102 1.52439 0
M  V30 18571 O 2108.78 0.0904999 1.81074 0
M  V30 18572 C 2108.83 3.48586 0.923053 0
M  V30 18573 O 2107.93 3.58734 2.03429 0
M  V30 18574 H 2107.27 0.65733 0.0938783 0
M  V30 18575 H 2109.8 2.01715 -0.342399 0
M  V30 18576 H 2109.81 3.88941 1.23243 0
M  V30 18577 H 2108.49 4.1575 0.11169 0
M  V30 18578 H 2107.06 3.30267 1.73142 0
M  V30 18579 N 2109.25 -0.0501116 1.5752 0
M  V30 18580 C 2110.66 -0.405366 1.54366 0
M  V30 18581 C 2110.86 -1.77885 0.946523 0
M  V30 18582 O 2109.92 -2.46248 0.558406 0
M  V30 18583 C 2111.23 -0.326523 2.98922 0
M  V30 18584 C 2112.78 -0.40514 3.10367 0
M  V30 18585 C 2113.26 -0.355974 4.56615 0
M  V30 18586 N 2114.75 -0.415404 4.61334 0
M  V30 18587 C 2115.48 -0.39992 5.72004 0
M  V30 18588 N 2114.98 -0.337966 6.91975 0
M  V30 18589 N 2116.77 -0.448091 5.60311 0
M  V30 18590 H 2108.92 0.848979 1.94695 0
M  V30 18591 H 2111.19 0.320787 0.892076 0
M  V30 18592 H 2110.89 0.616487 3.46255 0
M  V30 18593 H 2110.77 -1.12839 3.59927 0
M  V30 18594 H 2113.15 -1.33858 2.62995 0
M  V30 18595 H 2113.23 0.425702 2.52233 0
M  V30 18596 H 2112.88 0.573705 5.04649 0
M  V30 18597 H 2112.81 -1.20464 5.12636 0
M  V30 18598 H 2115.3 -0.466654 3.75008 0
M  V30 18599 H 2115.61 -0.330673 7.72092 0
M  V30 18600 H 2113.96 -0.304327 6.94333 0
M  V30 18601 H 2117.15 -0.494336 4.65482 0
M  V30 18602 H 2117.32 -0.432555 6.46555 0
M  V30 18603 N 2110.73 -1.54276 -0.321972 0
M  V30 18604 C 2111.97 -1.72557 -1.05973 0
M  V30 18605 C 2112.3 -0.500117 -1.8796 0
M  V30 18606 O 2111.56 0.518125 -1.88717 0
M  V30 18607 C 2111.86 -2.95429 -2.01138 0
M  V30 18608 C 2111.52 -4.30124 -1.35293 0
M  V30 18609 C 2110.18 -4.66743 -1.17066 0
M  V30 18610 C 2112.54 -5.13709 -0.880472 0
M  V30 18611 C 2109.86 -5.84545 -0.502454 0
M  V30 18612 C 2112.22 -6.32196 -0.226079 0
M  V30 18613 C 2110.88 -6.67492 -0.0316775 0
M  V30 18614 H 2110.15 -0.631432 -0.387782 0
M  V30 18615 H 2112.8 -1.88517 -0.336709 0
M  V30 18616 H 2111.1 -2.74163 -2.79896 0
M  V30 18617 H 2112.8 -3.06767 -2.58253 0
M  V30 18618 H 2109.39 -4.01314 -1.50481 0
M  V30 18619 H 2113.57 -4.85934 -1.00907 0
M  V30 18620 H 2108.83 -6.1045 -0.340653 0
M  V30 18621 H 2113 -6.96243 0.148004 0
M  V30 18622 H 2110.63 -7.58631 0.488125 0
M  V30 18623 N 2112.2 0.584116 -1.46376 0
M  V30 18624 C 2113.43 1.36845 -1.55181 0
M  V30 18625 C 2113.85 1.87817 -0.192443 0
M  V30 18626 O 2113.2 1.63538 0.81003 0
M  V30 18627 C 2113.26 2.55694 -2.55545 0
M  V30 18628 O 2112.98 2.06834 -3.86201 0
M  V30 18629 C 2114.48 3.48263 -2.74277 0
M  V30 18630 H 2111.7 0.418095 -0.524822 0
M  V30 18631 H 2114.24 0.710227 -1.91771 0
M  V30 18632 H 2112.4 3.17508 -2.21963 0
M  V30 18633 H 2112.81 2.84224 -4.40814 0
M  V30 18634 H 2114.28 4.2814 -3.48426 0
M  V30 18635 H 2114.76 4.00109 -1.81134 0
M  V30 18636 H 2115.37 2.92285 -3.08949 0
M  V30 18637 N 2113.68 1.34058 0.828631 0
M  V30 18638 C 2114.91 1.28969 1.61402 0
M  V30 18639 C 2115.32 -0.139572 1.88684 0
M  V30 18640 O 2114.66 -1.09533 1.47473 0
M  V30 18641 C 2114.73 2.00658 2.9829 0
M  V30 18642 C 2114.39 3.49935 2.93929 0
M  V30 18643 C 2115.39 4.44949 2.68918 0
M  V30 18644 C 2113.07 3.92264 3.13742 0
M  V30 18645 C 2115.07 5.80266 2.63761 0
M  V30 18646 C 2112.75 5.27683 3.0821 0
M  V30 18647 C 2113.75 6.21496 2.83253 0
M  V30 18648 O 2113.44 7.54433 2.77643 0
M  V30 18649 H 2113.17 0.445319 0.508593 0
M  V30 18650 H 2115.73 1.77155 1.03949 0
M  V30 18651 H 2113.96 1.47077 3.57638 0
M  V30 18652 H 2115.64 1.88933 3.59248 0
M  V30 18653 H 2116.41 4.13567 2.53352 0
M  V30 18654 H 2112.29 3.19646 3.32186 0
M  V30 18655 H 2115.83 6.53461 2.442 0
M  V30 18656 H 2111.73 5.58685 3.23328 0
M  V30 18657 H 2112.5 7.64102 2.93411 0
M  V30 18658 N 2115.16 -1.04814 1.17694 0
M  V30 18659 C 2116.39 -1.8155 0.99233 0
M  V30 18660 C 2116.8 -1.83126 -0.459376 0
M  V30 18661 O 2116.16 -1.26127 -1.31903 0
M  V30 18662 C 2116.21 -3.27495 1.53067 0
M  V30 18663 O 2115.93 -3.26104 2.92554 0
M  V30 18664 C 2117.43 -4.20905 1.39119 0
M  V30 18665 H 2114.65 -0.571967 0.350849 0
M  V30 18666 H 2117.2 -1.32145 1.5607 0
M  V30 18667 H 2115.35 -3.74157 1.00424 0
M  V30 18668 H 2115.77 -4.17476 3.17512 0
M  V30 18669 H 2117.24 -5.21275 1.81595 0
M  V30 18670 H 2117.72 -4.37891 0.338812 0
M  V30 18671 H 2118.32 -3.801 1.90798 0
M  V30 18672 N 2116.64 -0.977779 -1.23601 0
M  V30 18673 C 2117.6 -0.520908 -2.23202 0
M  V30 18674 C 2118.6 0.38804 -1.56048 0
M  V30 18675 O 2119.79 0.182096 -1.73246 0
M  V30 18676 C 2116.92 0.244298 -3.40024 0
M  V30 18677 H 2118.12 -1.40154 -2.65135 0
M  V30 18678 H 2115.67 -0.763397 -1.36389 0
M  V30 18679 H 2116.41 1.14159 -3.03543 0
M  V30 18680 H 2116.19 -0.408125 -3.8997 0
M  V30 18681 H 2117.68 0.55263 -4.13927 0
M  V30 18682 N 2118.12 1.38658 -0.749111 0
M  V30 18683 C 2119.05 2.33116 -0.133797 0
M  V30 18684 C 2120.03 1.54639 0.708583 0
M  V30 18685 O 2121.21 1.82975 0.650684 0
M  V30 18686 C 2118.34 3.38802 0.763563 0
M  V30 18687 C 2117.3 4.27993 0.0242578 0
M  V30 18688 C 2116.62 5.24497 1.03957 0
M  V30 18689 C 2117.92 5.09673 -1.14151 0
M  V30 18690 H 2119.62 2.84823 -0.922842 0
M  V30 18691 H 2117.16 1.36944 -0.445221 0
M  V30 18692 H 2119.12 4.03844 1.20366 0
M  V30 18693 H 2117.84 2.85568 1.58488 0
M  V30 18694 H 2116.5 3.64451 -0.39637 0
M  V30 18695 H 2116.15 4.67552 1.85483 0
M  V30 18696 H 2115.85 5.85024 0.549587 0
M  V30 18697 H 2117.37 5.92415 1.47908 0
M  V30 18698 H 2118.79 5.6798 -0.779174 0
M  V30 18699 H 2117.18 5.79413 -1.56206 0
M  V30 18700 H 2118.25 4.43675 -1.95654 0
M  V30 18701 N 2119.6 0.497834 1.49531 0
M  V30 18702 C 2120.54 -0.282279 2.29067 0
M  V30 18703 C 2121.51 -0.963221 1.35319 0
M  V30 18704 O 2122.7 -0.970497 1.64274 0
M  V30 18705 C 2119.84 -1.34265 3.1791 0
M  V30 18706 C 2118.95 -0.673799 4.26713 0
M  V30 18707 C 2118.09 -1.71434 5.02776 0
M  V30 18708 C 2117.12 -1.02719 6.0342 0
M  V30 18709 N 2116.26 -2.01178 6.7266 0
M  V30 18710 H 2121.1 0.402227 2.95273 0
M  V30 18711 H 2118.64 0.210203 1.4559 0
M  V30 18712 H 2120.6 -1.96938 3.67792 0
M  V30 18713 H 2119.23 -1.99596 2.53695 0
M  V30 18714 H 2118.28 0.0661428 3.80342 0
M  V30 18715 H 2119.59 -0.132722 4.98623 0
M  V30 18716 H 2118.74 -2.4162 5.56511 0
M  V30 18717 H 2117.48 -2.28926 4.30632 0
M  V30 18718 H 2116.49 -0.311083 5.48919 0
M  V30 18719 H 2117.71 -0.458799 6.77548 0
M  V30 18720 H 2115.66 -2.57639 6.0329 0
M  V30 18721 H 2115.58 -1.52128 7.40536 0
M  V30 18722 H 2116.84 -2.70663 7.31001 0
M  V30 18723 N 2121.07 -1.5589 0.231532 0
M  V30 18724 C 2122.35 -1.90424 -0.446981 0
M  V30 18725 C 2122.73 -1.15023 -1.77011 0
M  V30 18726 O 2122.08 -0.262744 -2.26984 0
M  V30 18727 C 2122.29 -3.43264 -0.630152 0
M  V30 18728 C 2123.64 -4.14221 -0.933046 0
M  V30 18729 O 2124.66 -3.48918 -0.716578 0
M  V30 18730 O 2123.52 -5.29705 -1.34441 0
M  V30 18731 H 2120.61 -0.792099 -0.237715 0
M  V30 18732 H 2123.16 -1.67466 0.274458 0
M  V30 18733 H 2121.93 -3.90127 0.302739 0
M  V30 18734 H 2121.55 -3.72035 -1.40271 0
M  V30 18735 N 2122.55 0.0417572 -1.57545 0
M  V30 18736 C 2123.8 0.733648 -1.88314 0
M  V30 18737 C 2124.12 1.76568 -0.827577 0
M  V30 18738 O 2123.39 1.95397 0.140345 0
M  V30 18739 H 2121.97 0.273952 -0.694953 0
M  V30 18740 H 2124.63 0.010717 -1.94897 0
M  V30 18741 H 2123.73 1.23116 -2.8679 0
M  V30 18742 N 2124.03 1.54445 0.313786 0
M  V30 18743 C 2125.27 1.74847 1.05867 0
M  V30 18744 C 2125.63 0.516479 1.84923 0
M  V30 18745 O 2126.83 0.598017 2.62063 0
M  V30 18746 C 2125.11 2.99452 1.95099 0
M  V30 18747 S 2126.66 3.40801 2.76406 0
M  V30 18748 H 2123.48 0.614731 0.35725 0
M  V30 18749 H 2126.08 1.92634 0.33353 0
M  V30 18750 H 2124.79 3.87255 1.35873 0
M  V30 18751 H 2124.32 2.84216 2.72002 0
M  V30 18752 H 2126.33 2.96867 3.97598 0
M  V30 18753 N 2125.51 -0.576345 1.46683 0
M  V30 18754 C 2126.74 -1.3602 1.55905 0
M  V30 18755 C 2127.15 -1.87712 0.202401 0
M  V30 18756 O 2126.51 -1.63966 -0.801346 0
M  V30 18757 C 2126.56 -2.54335 2.56897 0
M  V30 18758 O 2126.28 -2.04783 3.87293 0
M  V30 18759 C 2127.78 -3.46804 2.7612 0
M  V30 18760 H 2125 -0.415305 0.527032 0
M  V30 18761 H 2127.54 -0.700047 1.92145 0
M  V30 18762 H 2125.7 -3.16326 2.23644 0
M  V30 18763 H 2126.11 -2.81882 4.42315 0
M  V30 18764 H 2127.59 -4.26286 3.50691 0
M  V30 18765 H 2128.06 -3.99143 1.83253 0
M  V30 18766 H 2128.67 -2.90643 3.10495 0
M  V30 18767 N 2126.99 -1.34495 -0.82151 0
M  V30 18768 C 2127.93 -1.26188 -1.93249 0
M  V30 18769 C 2128.9 -0.136822 -1.65536 0
M  V30 18770 O 2130.09 -0.318035 -1.88131 0
M  V30 18771 C 2127.23 -1.02467 -3.29537 0
M  V30 18772 C 2126.34 -2.2376 -3.69534 0
M  V30 18773 C 2125.48 -1.93311 -4.94777 0
M  V30 18774 C 2124.51 -3.10739 -5.27359 0
M  V30 18775 N 2123.65 -2.80164 -6.4378 0
M  V30 18776 H 2128.49 -2.21199 -1.99687 0
M  V30 18777 H 2126.03 -1.09974 -0.976936 0
M  V30 18778 H 2127.99 -0.867518 -4.08081 0
M  V30 18779 H 2126.62 -0.111236 -3.22608 0
M  V30 18780 H 2125.67 -2.50391 -2.86371 0
M  V30 18781 H 2126.98 -3.11491 -3.89583 0
M  V30 18782 H 2126.13 -1.7434 -5.81112 0
M  V30 18783 H 2124.87 -1.02842 -4.76733 0
M  V30 18784 H 2123.88 -3.30304 -4.39521 0
M  V30 18785 H 2125.1 -4.01988 -5.47341 0
M  V30 18786 H 2123.05 -1.92273 -6.2719 0
M  V30 18787 H 2122.97 -3.61428 -6.64007 0
M  V30 18788 H 2124.23 -2.647 -7.33181 0
M  V30 18789 N 2128.46 1.04188 -1.18248 0
M  V30 18790 C 2129.41 2.10485 -0.876358 0
M  V30 18791 C 2130.4 1.60167 0.153389 0
M  V30 18792 O 2131.59 1.76928 -0.0504786 0
M  V30 18793 C 2128.72 3.40932 -0.402528 0
M  V30 18794 C 2127.81 3.9802 -1.46428 0
M  V30 18795 N 2128.2 4.28938 -2.68041 0
M  V30 18796 C 2126.49 4.25879 -1.32451 0
M  V30 18797 C 2127.2 4.74605 -3.3634 0
M  V30 18798 N 2126.17 4.75344 -2.63722 0
M  V30 18799 H 2129.97 2.32265 -1.80084 0
M  V30 18800 H 2127.49 1.2193 -1.0727 0
M  V30 18801 H 2129.48 4.16574 -0.164728 0
M  V30 18802 H 2128.14 3.2058 0.51563 0
M  V30 18803 H 2129.16 4.18623 -3.04918 0
M  V30 18804 H 2125.83 4.1486 -0.468792 0
M  V30 18805 H 2127.22 5.07557 -4.40267 0
M  V30 18806 N 2129.94 0.98432 1.23081 0
M  V30 18807 C 2131.17 0.673535 1.9563 0
M  V30 18808 C 2131.59 -0.760222 1.72818 0
M  V30 18809 O 2130.94 -1.51201 1.02198 0
M  V30 18810 C 2130.99 0.959283 3.4854 0
M  V30 18811 O 2130.71 2.33669 3.70581 0
M  V30 18812 C 2132.22 0.664998 4.38284 0
M  V30 18813 H 2129.44 0.249871 0.62274 0
M  V30 18814 H 2131.98 1.31677 1.56466 0
M  V30 18815 H 2130.13 0.361997 3.85705 0
M  V30 18816 H 2130.55 2.42938 4.64846 0
M  V30 18817 H 2132.02 0.915271 5.44359 0
M  V30 18818 H 2132.5 -0.400961 4.37366 0
M  V30 18819 H 2133.11 1.24294 4.06732 0
M  V30 18820 N 2131.42 -1.38259 0.756453 0
M  V30 18821 C 2132.67 -1.99657 0.313271 0
M  V30 18822 C 2132.99 -1.60347 -1.10967 0
M  V30 18823 O 2132.26 -0.861667 -1.75932 0
M  V30 18824 H 2130.84 -0.738428 0.112838 0
M  V30 18825 H 2133.5 -1.68979 0.971184 0
M  V30 18826 H 2132.6 -3.09794 0.378689 0
M  V30 18827 N 2132.9 -0.505757 -1.49264 0
M  V30 18828 C 2133.85 0.270127 -2.29214 0
M  V30 18829 C 2134.82 0.956031 -1.35828 0
M  V30 18830 O 2136 0.961771 -1.64787 0
M  V30 18831 C 2133.14 1.32577 -3.18618 0
M  V30 18832 C 2132.25 0.65116 -4.27064 0
M  V30 18833 C 2131.39 1.68765 -5.03678 0
M  V30 18834 C 2130.43 0.995172 -6.03956 0
M  V30 18835 N 2129.56 1.97608 -6.73718 0
M  V30 18836 H 2134.4 -0.41788 -2.95056 0
M  V30 18837 H 2131.94 -0.217921 -1.45477 0
M  V30 18838 H 2133.9 1.94985 -3.68832 0
M  V30 18839 H 2132.53 1.98248 -2.5475 0
M  V30 18840 H 2131.58 -0.0863124 -3.80302 0
M  V30 18841 H 2132.89 0.106277 -4.98687 0
M  V30 18842 H 2132.05 2.38665 -5.57785 0
M  V30 18843 H 2130.79 2.2664 -4.3184 0
M  V30 18844 H 2129.79 0.281968 -5.49076 0
M  V30 18845 H 2131.02 0.422861 -6.77782 0
M  V30 18846 H 2128.96 2.54436 -6.04647 0
M  V30 18847 H 2128.88 1.48199 -7.41332 0
M  V30 18848 H 2130.15 2.66782 -7.32426 0
M  V30 18849 N 2134.38 1.55765 -0.239796 0
M  V30 18850 C 2135.62 1.99807 0.380647 0
M  V30 18851 C 2135.98 1.12502 1.56081 0
M  V30 18852 O 2135.27 0.17897 1.90762 0
M  V30 18853 C 2135.46 3.4722 0.846952 0
M  V30 18854 C 2135.29 4.48787 -0.286481 0
M  V30 18855 C 2134.06 4.99569 -0.758849 0
M  V30 18856 C 2136.26 5.02156 -1.11105 0
M  V30 18857 N 2134.24 5.84872 -1.86543 0
M  V30 18858 C 2135.61 5.8456 -2.06615 0
M  V30 18859 C 2137.67 4.84475 -1.14842 0
M  V30 18860 C 2136.37 6.51171 -3.05563 0
M  V30 18861 C 2138.4 5.51859 -2.12617 0
M  V30 18862 C 2137.76 6.34046 -3.06864 0
M  V30 18863 H 2133.86 0.774858 0.105445 0
M  V30 18864 H 2136.44 1.91422 -0.355748 0
M  V30 18865 H 2134.61 3.56016 1.55266 0
M  V30 18866 H 2136.35 3.78148 1.44174 0
M  V30 18867 H 2133.1 4.72347 -0.344232 0
M  V30 18868 H 2133.53 6.32221 -2.42128 0
M  V30 18869 H 2138.17 4.2057 -0.433655 0
M  V30 18870 H 2135.89 7.14246 -3.77992 0
M  V30 18871 H 2139.47 5.40135 -2.16206 0
M  V30 18872 H 2138.35 6.85267 -3.81286 0
M  V30 18873 N 2135.85 -0.0334016 1.57565 0
M  V30 18874 C 2137.1 -0.723651 1.887 0
M  V30 18875 C 2137.42 -1.76126 0.836929 0
M  V30 18876 O 2136.69 -1.95468 -0.12998 0
M  V30 18877 H 2135.27 -0.270263 0.696396 0
M  V30 18878 H 2137.94 -0.000381018 1.949 0
M  V30 18879 H 2137.03 -1.21594 2.87439 0
M  V30 18880 N 2137.33 -1.54609 -0.305591 0
M  V30 18881 C 2138.28 -1.85242 -1.37673 0
M  V30 18882 C 2139.25 -0.700952 -1.50585 0
M  V30 18883 O 2140.43 -0.949135 -1.65518 0
M  V30 18884 C 2137.57 -2.10127 -2.73753 0
M  V30 18885 C 2136.69 -3.37767 -2.69328 0
M  V30 18886 C 2135.82 -3.52519 -3.97371 0
M  V30 18887 C 2134.86 -4.73968 -3.87325 0
M  V30 18888 N 2134 -4.8555 -5.07135 0
M  V30 18889 H 2138.84 -2.76616 -1.10849 0
M  V30 18890 H 2136.38 -1.36978 -0.536239 0
M  V30 18891 H 2138.33 -2.22549 -3.52885 0
M  V30 18892 H 2136.96 -1.22025 -2.98847 0
M  V30 18893 H 2136.02 -3.33989 -1.82086 0
M  V30 18894 H 2137.33 -4.27018 -2.57793 0
M  V30 18895 H 2136.48 -3.64581 -4.84939 0
M  V30 18896 H 2135.22 -2.61393 -4.11734 0
M  V30 18897 H 2134.23 -4.61944 -2.98141 0
M  V30 18898 H 2135.45 -5.66496 -3.74511 0
M  V30 18899 H 2133.4 -3.97345 -5.2197 0
M  V30 18900 H 2133.31 -5.68794 -4.98005 0
M  V30 18901 H 2134.58 -5.01963 -5.96367 0
M  V30 18902 N 2138.81 0.568558 -1.46987 0
M  V30 18903 C 2140.04 1.35191 -1.56624 0
M  V30 18904 C 2140.45 1.87602 -0.212353 0
M  V30 18905 O 2139.81 1.64388 0.792639 0
M  V30 18906 C 2139.86 2.52969 -2.58242 0
M  V30 18907 O 2139.58 2.02726 -3.88373 0
M  V30 18908 C 2141.08 3.45334 -2.77955 0
M  V30 18909 H 2138.3 0.412505 -0.529227 0
M  V30 18910 H 2140.85 0.689847 -1.92513 0
M  V30 18911 H 2139 3.15136 -2.25318 0
M  V30 18912 H 2139.42 2.79532 -4.43804 0
M  V30 18913 H 2140.89 4.2442 -3.52947 0
M  V30 18914 H 2141.37 3.98165 -1.85368 0
M  V30 18915 H 2141.97 2.88992 -3.12032 0
M  V30 18916 N 2140.29 1.34929 0.814366 0
M  V30 18917 C 2141.53 1.27956 1.57338 0
M  V30 18918 C 2141.87 -0.147896 1.93636 0
M  V30 18919 O 2141.14 -1.09539 1.60722 0
M  V30 18920 C 2141.43 2.17862 2.8672 0
M  V30 18921 C 2141.28 3.69185 2.56948 0
M  V30 18922 C 2142.6 2.07033 3.88362 0
M  V30 18923 H 2139.72 0.466149 0.570854 0
M  V30 18924 H 2142.36 1.65259 0.937513 0
M  V30 18925 H 2140.51 1.86178 3.40984 0
M  V30 18926 H 2142.18 4.11275 2.08927 0
M  V30 18927 H 2140.42 3.89851 1.90259 0
M  V30 18928 H 2141.09 4.2747 3.49247 0
M  V30 18929 H 2143.57 2.34869 3.43476 0
M  V30 18930 H 2142.45 2.72151 4.76681 0
M  V30 18931 H 2142.71 1.04989 4.29453 0
M  V30 18932 N 2141.77 -1.0356 1.18799 0
M  V30 18933 C 2143.02 -1.76246 0.980824 0
M  V30 18934 C 2143.33 -1.89365 -0.489935 0
M  V30 18935 O 2144.53 -2.58955 -0.815746 0
M  V30 18936 C 2142.99 -3.16901 1.70592 0
M  V30 18937 C 2142.6 -3.11859 3.21633 0
M  V30 18938 C 2144.34 -3.9393 1.58175 0
M  V30 18939 C 2142.25 -4.47404 3.8676 0
M  V30 18940 H 2141.18 -0.660673 0.363355 0
M  V30 18941 H 2143.83 -1.15949 1.42225 0
M  V30 18942 H 2142.21 -3.77625 1.19228 0
M  V30 18943 H 2143.39 -2.60556 3.80062 0
M  V30 18944 H 2141.7 -2.48328 3.34249 0
M  V30 18945 H 2144.3 -4.94177 2.0419 0
M  V30 18946 H 2144.64 -4.1285 0.534821 0
M  V30 18947 H 2145.17 -3.39792 2.06848 0
M  V30 18948 H 2141.91 -4.33688 4.91523 0
M  V30 18949 H 2141.43 -4.9879 3.3312 0
M  V30 18950 H 2143.11 -5.16306 3.89919 0
M  V30 18951 N 2143.25 -0.990834 -1.22557 0
M  V30 18952 C 2144.16 -0.548263 -2.28104 0
M  V30 18953 C 2145.17 0.401961 -1.69293 0
M  V30 18954 O 2146.35 0.269304 -1.99591 0
M  V30 18955 C 2143.41 0.132121 -3.46448 0
M  V30 18956 C 2142.47 -0.860806 -4.20581 0
M  V30 18957 C 2141.71 -0.212796 -5.33276 0
M  V30 18958 O 2141.93 0.993773 -5.61676 0
M  V30 18959 O 2140.86 -0.916619 -5.9488 0
M  V30 18960 H 2144.69 -1.4263 -2.68124 0
M  V30 18961 H 2142.27 -0.758979 -1.28685 0
M  V30 18962 H 2144.16 0.513325 -4.18262 0
M  V30 18963 H 2142.83 0.984754 -3.08357 0
M  V30 18964 H 2141.74 -1.2929 -3.51048 0
M  V30 18965 H 2143.07 -1.68257 -4.62548 0
M  V30 18966 N 2144.72 1.37856 -0.763775 0
M  V30 18967 C 2145.95 2.03864 -0.335144 0
M  V30 18968 C 2146.36 1.57732 1.04486 0
M  V30 18969 O 2145.7 0.750289 1.67679 0
M  V30 18970 C 2145.77 3.58323 -0.290657 0
M  V30 18971 C 2145.43 4.27554 -1.61391 0
M  V30 18972 C 2146.43 4.52225 -2.56494 0
M  V30 18973 C 2144.11 4.65542 -1.88615 0
M  V30 18974 C 2146.11 5.13931 -3.77033 0
M  V30 18975 C 2143.79 5.26971 -3.09426 0
M  V30 18976 C 2144.79 5.51102 -4.03455 0
M  V30 18977 O 2144.48 6.11248 -5.2214 0
M  V30 18978 H 2144.21 0.661438 -0.139556 0
M  V30 18979 H 2146.77 1.77331 -1.03648 0
M  V30 18980 H 2145 3.8387 0.467001 0
M  V30 18981 H 2146.68 4.05751 0.109828 0
M  V30 18982 H 2147.45 4.23296 -2.3674 0
M  V30 18983 H 2143.33 4.461 -1.16258 0
M  V30 18984 H 2146.87 5.32682 -4.5044 0
M  V30 18985 H 2142.77 5.55324 -3.29068 0
M  V30 18986 H 2143.54 6.29731 -5.22859 0
M  V30 18987 N 2146.2 0.513665 1.48994 0
M  V30 18988 C 2147.62 0.170439 1.58687 0
M  V30 18989 C 2147.82 -1.32564 1.51754 0
M  V30 18990 O 2146.87 -2.10262 1.39807 0
M  V30 18991 C 2148.19 0.758488 2.90977 0
M  V30 18992 C 2149.73 0.725739 3.0447 0
M  V30 18993 C 2150.21 1.29207 4.39397 0
M  V30 18994 N 2151.7 1.25333 4.45922 0
M  V30 18995 C 2152.44 1.66159 5.48798 0
M  V30 18996 N 2151.93 2.14638 6.58713 0
M  V30 18997 N 2153.72 1.57496 5.39584 0
M  V30 18998 H 2145.88 1.48619 1.51744 0
M  V30 18999 H 2148.14 0.617216 0.719548 0
M  V30 19000 H 2147.84 1.8082 3.01657 0
M  V30 19001 H 2147.72 0.226166 3.76521 0
M  V30 19002 H 2150.11 -0.315169 2.93412 0
M  V30 19003 H 2150.19 1.29535 2.20577 0
M  V30 19004 H 2149.83 2.33183 4.51207 0
M  V30 19005 H 2149.76 0.69829 5.2195 0
M  V30 19006 H 2152.25 0.89826 3.67069 0
M  V30 19007 H 2152.56 2.43827 7.33327 0
M  V30 19008 H 2150.91 2.18621 6.5972 0
M  V30 19009 H 2154.1 1.19432 4.52608 0
M  V30 19010 H 2154.27 1.89636 6.19631 0
M  V30 19011 N 2147.68 -1.55636 0.248053 0
M  V30 19012 C 2148.9 -2.03825 -0.383439 0
M  V30 19013 C 2149.33 -1.12611 -1.50666 0
M  V30 19014 O 2148.69 -0.119296 -1.80907 0
M  V30 19015 C 2148.74 -3.5001 -0.86748 0
M  V30 19016 O 2147.84 -3.61925 -1.97696 0
M  V30 19017 H 2147.18 -0.65874 -0.0834089 0
M  V30 19018 H 2149.71 -2.01144 0.374447 0
M  V30 19019 H 2149.72 -3.90853 -1.17039 0
M  V30 19020 H 2148.4 -4.15875 -0.0455341 0
M  V30 19021 H 2146.97 -3.3298 -1.67866 0
M  V30 19022 N 2149.16 0.0250451 -1.5758 0
M  V30 19023 C 2150.09 1.05207 -2.03627 0
M  V30 19024 C 2151.1 1.32224 -0.949769 0
M  V30 19025 O 2152.29 1.29641 -1.22701 0
M  V30 19026 C 2149.39 2.39277 -2.39999 0
M  V30 19027 C 2148.56 2.31559 -3.71078 0
M  V30 19028 C 2147.62 3.48111 -3.94595 0
M  V30 19029 O 2146.65 3.27424 -4.65599 0
M  V30 19030 N 2147.85 4.70117 -3.40545 0
M  V30 19031 H 2150.62 0.659567 -2.92352 0
M  V30 19032 H 2148.18 0.212915 -1.60494 0
M  V30 19033 H 2150.17 3.15976 -2.52866 0
M  V30 19034 H 2148.74 2.70358 -1.56924 0
M  V30 19035 H 2147.96 1.39933 -3.68527 0
M  V30 19036 H 2149.25 2.23549 -4.57059 0
M  V30 19037 H 2148.65 4.89824 -2.83 0
M  V30 19038 H 2147.2 5.44167 -3.58784 0
M  V30 19039 N 2150.64 1.54769 0.297388 0
M  V30 19040 C 2151.58 1.8597 1.36689 0
M  V30 19041 C 2152.55 0.708928 1.50211 0
M  V30 19042 O 2153.74 0.9579 1.65012 0
M  V30 19043 C 2150.88 2.11576 2.72635 0
M  V30 19044 C 2149.99 3.39191 2.67533 0
M  V30 19045 C 2149.13 3.54621 3.95496 0
M  V30 19046 C 2148.16 4.76015 3.84806 0
M  V30 19047 N 2147.3 4.88232 5.04553 0
M  V30 19048 H 2152.14 2.772 1.09381 0
M  V30 19049 H 2149.68 1.3726 0.528967 0
M  V30 19050 H 2151.64 2.24418 3.517 0
M  V30 19051 H 2150.27 1.23608 2.98196 0
M  V30 19052 H 2149.32 3.3495 1.80312 0
M  V30 19053 H 2150.63 4.28379 2.55525 0
M  V30 19054 H 2149.78 3.67147 4.82999 0
M  V30 19055 H 2148.52 2.63573 4.10342 0
M  V30 19056 H 2147.53 4.63518 2.95687 0
M  V30 19057 H 2148.75 5.68475 3.71502 0
M  V30 19058 H 2146.7 4.00108 5.19855 0
M  V30 19059 H 2146.62 5.71427 4.94982 0
M  V30 19060 H 2147.88 5.05119 5.93696 0
M  V30 19061 N 2152.11 -0.560755 1.47286 0
M  V30 19062 C 2153.34 -1.34358 1.57339 0
M  V30 19063 C 2153.76 -1.87487 0.222299 0
M  V30 19064 O 2153.11 -1.64806 -0.78391 0
M  V30 19065 C 2153.16 -2.51596 2.5958 0
M  V30 19066 O 2152.89 -2.00664 3.89443 0
M  V30 19067 C 2154.39 -3.43856 2.79783 0
M  V30 19068 H 2151.61 -0.409692 0.531407 0
M  V30 19069 H 2154.15 -0.679628 1.92876 0
M  V30 19070 H 2152.31 -3.13936 2.26986 0
M  V30 19071 H 2152.72 -2.77175 4.4528 0
M  V30 19072 H 2154.19 -4.22542 3.55193 0
M  V30 19073 H 2154.67 -3.97177 1.87477 0
M  V30 19074 H 2155.28 -2.87333 3.1356 0
M  V30 19075 N 2153.59 -1.35359 -0.807199 0
M  V30 19076 C 2154.82 -1.31869 -1.60079 0
M  V30 19077 C 2155.24 0.101387 -1.87827 0
M  V30 19078 O 2154.6 1.06801 -1.46503 0
M  V30 19079 C 2154.65 -2.13049 -2.90934 0
M  V30 19080 O 2153.75 -1.51079 -3.8373 0
M  V30 19081 H 2153.09 -0.452158 -0.486261 0
M  V30 19082 H 2155.62 -1.78391 -1.00189 0
M  V30 19083 H 2155.63 -2.24982 -3.40363 0
M  V30 19084 H 2154.31 -3.16289 -2.70063 0
M  V30 19085 H 2152.88 -1.47982 -3.4228 0
M  V30 19086 N 2155.07 1.02928 -1.19346 0
M  V30 19087 C 2156.49 1.28572 -0.945592 0
M  V30 19088 C 2156.69 1.97841 0.382273 0
M  V30 19089 O 2155.74 2.26603 1.11388 0
M  V30 19090 C 2157.05 2.13321 -2.11931 0
M  V30 19091 C 2158.6 2.2663 -2.15889 0
M  V30 19092 C 2159.08 3.14751 -3.3271 0
M  V30 19093 N 2160.57 3.22339 -3.32644 0
M  V30 19094 C 2161.3 3.90712 -4.19681 0
M  V30 19095 N 2160.8 4.61319 -5.16872 0
M  V30 19096 N 2162.59 3.87107 -4.07559 0
M  V30 19097 H 2154.74 0.563808 -2.0478 0
M  V30 19098 H 2157.01 0.311375 -0.895405 0
M  V30 19099 H 2156.71 1.69745 -3.08025 0
M  V30 19100 H 2156.59 3.14032 -2.08959 0
M  V30 19101 H 2158.97 2.69437 -1.20365 0
M  V30 19102 H 2159.05 1.25471 -2.22914 0
M  V30 19103 H 2158.7 2.72652 -4.28513 0
M  V30 19104 H 2158.63 4.15968 -3.22921 0
M  V30 19105 H 2161.12 2.72052 -2.6229 0
M  V30 19106 H 2161.43 5.1112 -5.79634 0
M  V30 19107 H 2159.78 4.60185 -5.20821 0
M  V30 19108 H 2162.97 3.31086 -3.30908 0
M  V30 19109 H 2163.14 4.40119 -4.75604 0
M  V30 19110 N 2156.55 0.997319 1.2203 0
M  V30 19111 C 2157.48 0.571319 2.26403 0
M  V30 19112 C 2158.46 -0.404025 1.65232 0
M  V30 19113 O 2159.64 -0.293692 1.91966 0
M  V30 19114 C 2156.77 -0.110472 3.47124 0
M  V30 19115 C 2155.73 0.783865 4.20761 0
M  V30 19116 C 2155.05 -0.0310887 5.34691 0
M  V30 19117 C 2156.35 2.08283 4.78974 0
M  V30 19118 H 2158.05 1.44376 2.6229 0
M  V30 19119 H 2155.59 0.695656 1.26082 0
M  V30 19120 H 2157.55 -0.419919 4.19303 0
M  V30 19121 H 2156.27 -1.01749 3.10346 0
M  V30 19122 H 2154.93 1.07702 3.50422 0
M  V30 19123 H 2154.58 -0.939162 4.94155 0
M  V30 19124 H 2154.28 0.564316 5.84884 0
M  V30 19125 H 2155.8 -0.334528 6.09683 0
M  V30 19126 H 2157.22 1.83704 5.43071 0
M  V30 19127 H 2155.61 2.62743 5.39524 0
M  V30 19128 H 2156.68 2.75867 3.9878 0
M  V30 19129 N 2158.03 -1.37449 0.771075 0
M  V30 19130 C 2159.44 -1.82352 0.400585 0
M  V30 19131 C 2159.79 -1.64247 -1.07318 0
M  V30 19132 O 2158.91 -1.15322 -1.83111 0
M  V30 19133 C 2159.51 -3.31054 0.720312 0
M  V30 19134 C 2158.07 -3.74238 0.402886 0
M  V30 19135 C 2157.21 -2.59986 0.964497 0
M  V30 19136 H 2160.17 -1.2593 0.965782 0
M  V30 19137 H 2160.19 -3.805 0.00472604 0
M  V30 19138 H 2159.7 -3.44199 1.793 0
M  V30 19139 H 2157.8 -3.66663 -0.662511 0
M  V30 19140 H 2157.91 -4.70365 0.910666 0
M  V30 19141 H 2156.28 -2.51715 0.388782 0
M  V30 19142 H 2157.06 -2.75924 2.04257 0
M  V30 19143 N 2159.5 -0.52156 -1.4872 0
M  V30 19144 C 2160.75 0.0175509 -2.01692 0
M  V30 19145 C 2161.07 1.36122 -1.40464 0
M  V30 19146 O 2162.27 1.98821 -1.84885 0
M  V30 19147 C 2160.73 0.0816961 -3.59807 0
M  V30 19148 C 2160.34 -1.25657 -4.30017 0
M  V30 19149 C 2162.08 0.570081 -4.20655 0
M  V30 19150 C 2159.99 -1.15347 -5.80042 0
M  V30 19151 H 2158.92 0.0103307 -0.753929 0
M  V30 19152 H 2161.57 -0.664075 -1.71062 0
M  V30 19153 H 2159.95 0.828218 -3.87242 0
M  V30 19154 H 2161.12 -2.018 -4.14263 0
M  V30 19155 H 2159.44 -1.68002 -3.81004 0
M  V30 19156 H 2162.04 0.665053 -5.30548 0
M  V30 19157 H 2162.38 1.57387 -3.85402 0
M  V30 19158 H 2162.91 -0.120509 -3.97617 0
M  V30 19159 H 2159.65 -2.13215 -6.19854 0
M  V30 19160 H 2159.17 -0.433268 -5.98233 0
M  V30 19161 H 2160.85 -0.840647 -6.41515 0
M  V30 19162 N 2160.98 1.55502 -0.256304 0
M  V30 19163 C 2162.23 1.98345 0.366351 0
M  V30 19164 C 2162.54 1.14786 1.58378 0
M  V30 19165 O 2163.75 1.47686 2.27818 0
M  V30 19166 C 2162.21 3.52964 0.703174 0
M  V30 19167 C 2161.81 4.45275 -0.493386 0
M  V30 19168 C 2163.56 4.04441 1.2895 0
M  V30 19169 C 2161.47 5.91252 -0.132195 0
M  V30 19170 H 2160.4 0.740764 0.140656 0
M  V30 19171 H 2163.05 1.79974 -0.358 0
M  V30 19172 H 2161.43 3.67065 1.48591 0
M  V30 19173 H 2162.6 4.42936 -1.27059 0
M  V30 19174 H 2160.92 4.04331 -0.995272 0
M  V30 19175 H 2163.51 5.11032 1.57322 0
M  V30 19176 H 2163.86 3.52348 2.21713 0
M  V30 19177 H 2164.39 3.93703 0.569458 0
M  V30 19178 H 2161.13 6.47401 -1.02721 0
M  V30 19179 H 2160.65 5.96704 0.608619 0
M  V30 19180 H 2162.33 6.46384 0.282295 0
M  V30 19181 N 2162.46 -0.0166879 1.57591 0
M  V30 19182 C 2163.74 -0.741095 1.81017 0
M  V30 19183 C 2164.12 -1.92907 0.857326 0
M  V30 19184 O 2163.47 -2.28291 -0.0977513 0
M  V30 19185 C 2163.68 -1.16252 3.29069 0
M  V30 19186 C 2165.02 -1.57331 3.94376 0
M  V30 19187 O 2166.05 -1.25676 3.33292 0
M  V30 19188 O 2164.91 -2.16129 5.01947 0
M  V30 19189 H 2162 -0.35941 0.744818 0
M  V30 19190 H 2164.55 0.00748551 1.69698 0
M  V30 19191 H 2163.32 -0.315003 3.9003 0
M  V30 19192 H 2162.94 -1.97072 3.45323 0
M  V30 19193 N 2163.94 -1.54924 -0.289176 0
M  V30 19194 C 2165.19 -1.73974 -1.02059 0
M  V30 19195 C 2165.5 -0.539167 -1.88022 0
M  V30 19196 O 2166.71 -0.611723 -2.64519 0
M  V30 19197 C 2165.16 -3.07847 -1.86435 0
M  V30 19198 C 2164.77 -4.35421 -1.05417 0
M  V30 19199 C 2166.51 -3.36252 -2.59104 0
M  V30 19200 C 2164.42 -5.6034 -1.89138 0
M  V30 19201 H 2163.35 -0.648438 -0.384766 0
M  V30 19202 H 2166 -1.81397 -0.276999 0
M  V30 19203 H 2164.38 -2.94419 -2.64827 0
M  V30 19204 H 2165.56 -4.59718 -0.315551 0
M  V30 19205 H 2163.87 -4.14039 -0.442763 0
M  V30 19206 H 2166.47 -4.26785 -3.22115 0
M  V30 19207 H 2166.81 -2.55656 -3.28551 0
M  V30 19208 H 2167.35 -3.50705 -1.87753 0
M  V30 19209 H 2164.09 -6.43638 -1.2414 0
M  V30 19210 H 2163.61 -5.4021 -2.6064 0
M  V30 19211 H 2165.28 -5.98038 -2.46899 0
M  V30 19212 N 2165.42 0.552936 -1.47582 0
M  V30 19213 C 2166.38 1.64175 -1.59936 0
M  V30 19214 C 2167.38 1.5365 -0.474152 0
M  V30 19215 O 2168.57 1.57732 -0.739338 0
M  V30 19216 C 2165.7 3.03732 -1.5479 0
M  V30 19217 H 2166.89 1.54569 -2.56999 0
M  V30 19218 H 2164.45 0.773198 -1.35836 0
M  V30 19219 H 2165.18 3.18866 -0.591183 0
M  V30 19220 H 2164.97 3.12779 -2.36456 0
M  V30 19221 H 2166.46 3.82936 -1.66582 0
M  V30 19222 N 2166.89 1.35785 0.800009 0
M  V30 19223 C 2168.31 1.26354 1.37446 0
M  V30 19224 C 2168.66 -0.101241 1.95939 0
M  V30 19225 O 2167.78 -1.00241 1.91783 0
M  V30 19226 C 2168.38 2.28793 2.49878 0
M  V30 19227 C 2166.94 2.23083 3.03168 0
M  V30 19228 C 2166.08 2.14145 1.76174 0
M  V30 19229 H 2169.03 1.46818 0.602508 0
M  V30 19230 H 2169.05 1.91822 3.2861 0
M  V30 19231 H 2168.57 3.28113 2.07277 0
M  V30 19232 H 2166.67 1.27195 3.50217 0
M  V30 19233 H 2166.78 3.15326 3.60703 0
M  V30 19234 H 2165.14 1.60228 1.97987 0
M  V30 19235 H 2165.93 3.15335 1.35715 0
M  V30 19236 N 2168.37 -1.02294 1.19891 0
M  V30 19237 C 2169.31 -2.10325 0.885357 0
M  V30 19238 C 2170.28 -1.61811 -0.160011 0
M  V30 19239 O 2171.47 -1.88468 -0.0349974 0
M  V30 19240 C 2168.59 -3.37126 0.326111 0
M  V30 19241 C 2167.64 -4.04521 1.35147 0
M  V30 19242 S 2168.47 -4.49261 2.91418 0
M  V30 19243 C 2169.63 -5.79273 2.37052 0
M  V30 19244 H 2169.86 -2.36598 1.80024 0
M  V30 19245 H 2167.4 -1.15319 1.02669 0
M  V30 19246 H 2169.35 -4.10499 0.00998612 0
M  V30 19247 H 2168.01 -3.08937 -0.567175 0
M  V30 19248 H 2167.21 -4.95727 0.909412 0
M  V30 19249 H 2166.81 -3.37345 1.61475 0
M  V30 19250 H 2169.1 -6.54127 1.76419 0
M  V30 19251 H 2170.04 -6.28267 3.26629 0
M  V30 19252 H 2170.45 -5.35231 1.79411 0
M  V30 19253 N 2169.85 -1.00378 -1.21499 0
M  V30 19254 C 2171.13 -0.601329 -1.86127 0
M  V30 19255 C 2171.51 0.921083 -1.89945 0
M  V30 19256 O 2170.86 1.80753 -1.39787 0
M  V30 19257 C 2171.07 -1.2343 -3.26445 0
M  V30 19258 C 2172.41 -1.34165 -4.02846 0
M  V30 19259 O 2173.44 -1.18952 -3.35751 0
M  V30 19260 O 2172.3 -1.58622 -5.22973 0
M  V30 19261 H 2169.39 -0.205796 -0.800985 0
M  V30 19262 H 2171.94 -1.10035 -1.29192 0
M  V30 19263 H 2170.71 -2.27515 -3.18359 0
M  V30 19264 H 2170.33 -0.721556 -3.90998 0
M  V30 19265 N 2171.33 1.37038 -0.778354 0
M  V30 19266 C 2172.58 1.98774 -0.342325 0
M  V30 19267 C 2172.89 1.62483 1.08898 0
M  V30 19268 O 2174.1 2.1737 1.62673 0
M  V30 19269 C 2172.55 3.55499 -0.561108 0
M  V30 19270 C 2172.16 4.00724 -2.00311 0
M  V30 19271 C 2173.9 4.24079 -0.189032 0
M  V30 19272 C 2171.81 5.50184 -2.16914 0
M  V30 19273 H 2170.74 0.743692 -0.124252 0
M  V30 19274 H 2173.39 1.56482 -0.95842 0
M  V30 19275 H 2171.77 3.95804 0.12454 0
M  V30 19276 H 2172.95 3.71647 -2.72425 0
M  V30 19277 H 2171.26 3.44947 -2.33239 0
M  V30 19278 H 2173.86 5.33905 -0.291509 0
M  V30 19279 H 2174.2 4.07288 0.861526 0
M  V30 19280 H 2174.74 3.89098 -0.827484 0
M  V30 19281 H 2171.48 5.71909 -3.20312 0
M  V30 19282 H 2171 5.80924 -1.49291 0
M  V30 19283 H 2172.67 6.16249 -1.97093 0
M  V30 19284 N 2172.81 0.529439 1.48441 0
M  V30 19285 C 2174.06 -0.00484705 2.02099 0
M  V30 19286 C 2174.38 -1.34819 1.40886 0
M  V30 19287 O 2173.65 -1.873 0.574052 0
M  V30 19288 H 2172.23 -0.00477953 0.746985 0
M  V30 19289 H 2174.89 0.693148 1.82158 0
M  V30 19290 H 2173.98 -0.113574 3.11893 0
M  V30 19291 N 2174.29 -1.55364 0.264547 0
M  V30 19292 C 2175.53 -1.98966 -0.354543 0
M  V30 19293 C 2175.85 -1.15427 -1.57168 0
M  V30 19294 O 2175.12 -0.241233 -1.94409 0
M  V30 19295 H 2173.7 -0.734885 -0.133986 0
M  V30 19296 H 2176.37 -1.91405 0.367431 0
M  V30 19297 H 2175.46 -3.05221 -0.651647 0
M  V30 19298 N 2175.76 0.00833021 -1.57598 0
M  V30 19299 C 2177.17 0.552246 -1.78346 0
M  V30 19300 C 2177.53 1.74433 -0.898189 0
M  V30 19301 O 2176.65 2.16176 -0.098451 0
M  V30 19302 C 2177.25 1.00862 -3.23438 0
M  V30 19303 C 2175.8 1.4979 -3.45311 0
M  V30 19304 C 2174.95 0.445309 -2.73701 0
M  V30 19305 H 2177.9 -0.217862 -1.57197 0
M  V30 19306 H 2177.92 1.87504 -3.31093 0
M  V30 19307 H 2177.44 0.140794 -3.87845 0
M  V30 19308 H 2175.54 2.38689 -2.86109 0
M  V30 19309 H 2175.65 1.53111 -4.53976 0
M  V30 19310 H 2174.01 0.90507 -2.38077 0
M  V30 19311 H 2174.8 -0.413406 -3.40802 0
M  V30 19312 N 2177.24 1.55075 0.280956 0
M  V30 19313 C 2178.15 1.90495 1.36927 0
M  V30 19314 C 2179.17 0.801283 1.54452 0
M  V30 19315 O 2180.34 1.09962 1.68732 0
M  V30 19316 C 2177.41 2.16264 2.70981 0
M  V30 19317 C 2176.47 3.39872 2.6227 0
M  V30 19318 C 2175.7 3.64402 3.89932 0
M  V30 19319 O 2175.93 2.91582 4.90241 0
M  V30 19320 O 2174.86 4.57934 3.90615 0
M  V30 19321 H 2178.69 2.83123 1.09888 0
M  V30 19322 H 2176.27 1.4152 0.478787 0
M  V30 19323 H 2178.15 2.34299 3.5026 0
M  V30 19324 H 2176.83 1.2682 2.97823 0
M  V30 19325 H 2175.73 3.2718 1.81395 0
M  V30 19326 H 2177.07 4.2951 2.40379 0
M  V30 19327 N 2178.72 -0.545102 1.47873 0
M  V30 19328 C 2179.65 -1.66665 1.57339 0
M  V30 19329 C 2180.66 -1.56204 0.458698 0
M  V30 19330 O 2181.85 -1.62941 0.728868 0
M  V30 19331 C 2178.95 -3.05217 1.47295 0
M  V30 19332 C 2178.13 -3.41311 2.73543 0
M  V30 19333 C 2177.19 -4.59078 2.57165 0
M  V30 19334 O 2176.21 -4.63053 3.31014 0
M  V30 19335 N 2177.41 -5.56323 1.65786 0
M  V30 19336 H 2180.18 -1.58986 2.54054 0
M  V30 19337 H 2177.74 -0.732029 1.44405 0
M  V30 19338 H 2179.73 -3.81853 1.34055 0
M  V30 19339 H 2178.3 -3.07056 0.586146 0
M  V30 19340 H 2177.52 -2.54003 3.01457 0
M  V30 19341 H 2178.81 -3.62205 3.5733 0
M  V30 19342 H 2178.21 -5.55877 1.04961 0
M  V30 19343 H 2176.76 -6.32237 1.58492 0
M  V30 19344 N 2180.2 -1.36208 -0.792797 0
M  V30 19345 C 2181.11 -1.32403 -1.93666 0
M  V30 19346 C 2182.12 -0.226736 -1.72516 0
M  V30 19347 O 2183.3 -0.458518 -1.96111 0
M  V30 19348 C 2180.36 -1.10928 -3.28475 0
M  V30 19349 C 2179.43 -2.301 -3.62426 0
M  V30 19350 C 2178.66 -2.0964 -4.90802 0
M  V30 19351 O 2178.88 -1.06985 -5.60277 0
M  V30 19352 O 2177.82 -2.97336 -5.23331 0
M  V30 19353 H 2181.64 -2.287 -1.99825 0
M  V30 19354 H 2179.23 -1.1672 -0.932566 0
M  V30 19355 H 2181.11 -1.00855 -4.09153 0
M  V30 19356 H 2179.78 -0.17691 -3.23216 0
M  V30 19357 H 2178.69 -2.45741 -2.82068 0
M  V30 19358 H 2180.02 -3.21832 -3.72405 0
M  V30 19359 N 2181.68 1.01656 -1.20431 0
M  V30 19360 C 2182.92 1.75255 -1.01449 0
M  V30 19361 C 2183.25 1.89142 0.453379 0
M  V30 19362 O 2182.51 1.4141 1.35284 0
M  V30 19363 C 2182.8 3.17385 -1.64322 0
M  V30 19364 C 2182.47 3.23475 -3.14126 0
M  V30 19365 C 2181.13 3.24844 -3.55007 0
M  V30 19366 C 2183.48 3.21636 -4.10122 0
M  V30 19367 C 2180.81 3.22046 -4.90411 0
M  V30 19368 C 2183.16 3.20379 -5.45472 0
M  V30 19369 C 2181.83 3.20052 -5.85767 0
M  V30 19370 H 2181.1 0.641303 -0.37123 0
M  V30 19371 H 2183.75 1.19228 -1.49857 0
M  V30 19372 H 2182.05 3.7657 -1.08177 0
M  V30 19373 H 2183.75 3.73025 -1.4715 0
M  V30 19374 H 2180.34 3.23145 -2.81559 0
M  V30 19375 H 2184.52 3.19748 -3.79572 0
M  V30 19376 H 2179.78 3.20123 -5.20894 0
M  V30 19377 H 2183.95 3.17908 -6.19602 0
M  V30 19378 H 2181.58 3.17638 -6.90659 0
M  V30 19379 N 2183.15 1.01021 1.20965 0
M  V30 19380 C 2184.4 0.6945 1.89792 0
M  V30 19381 C 2184.72 -0.77766 1.78822 0
M  V30 19382 O 2183.99 -1.55883 1.18648 0
M  V30 19383 H 2182.57 0.253892 0.702529 0
M  V30 19384 H 2185.23 1.28043 1.46938 0
M  V30 19385 H 2184.33 0.972254 2.9657 0
M  V30 19386 N 2184.63 -1.36623 0.78561 0
M  V30 19387 C 2185.88 -1.99637 0.356782 0
M  V30 19388 C 2186.21 -1.62212 -1.06775 0
M  V30 19389 O 2185.49 -0.875041 -1.73705 0
M  V30 19390 C 2185.77 -3.56381 0.516214 0
M  V30 19391 C 2185.62 -4.03672 1.98417 0
M  V30 19392 C 2186.94 -4.40043 -0.0710792 0
M  V30 19393 H 2184.06 -0.725244 0.13111 0
M  V30 19394 H 2186.7 -1.62094 0.99124 0
M  V30 19395 H 2184.85 -3.88493 -0.023898 0
M  V30 19396 H 2186.52 -3.82064 2.58505 0
M  V30 19397 H 2184.77 -3.55352 2.48812 0
M  V30 19398 H 2185.44 -5.12654 2.0467 0
M  V30 19399 H 2187.91 -4.14269 0.389931 0
M  V30 19400 H 2186.79 -5.48855 0.070524 0
M  V30 19401 H 2187.05 -4.26534 -1.16281 0
M  V30 19402 N 2186.11 -0.537304 -1.48158 0
M  V30 19403 C 2187.39 0.0588571 -1.95511 0
M  V30 19404 C 2187.77 1.50563 -1.47966 0
M  V30 19405 O 2187.11 2.17207 -0.709454 0
M  V30 19406 C 2187.32 -0.0659743 -3.48938 0
M  V30 19407 C 2188.67 0.089563 -4.24506 0
M  V30 19408 O 2189.7 0.00746266 -3.56199 0
M  V30 19409 O 2188.56 0.262738 -5.45868 0
M  V30 19410 H 2185.65 0.0752315 -0.823571 0
M  V30 19411 H 2188.2 -0.60242 -1.58647 0
M  V30 19412 H 2186.97 -1.0735 -3.76287 0
M  V30 19413 H 2186.59 0.633822 -3.92516 0
M  V30 19414 N 2187.59 1.55221 -0.272782 0
M  V30 19415 C 2188.84 1.98722 0.345293 0
M  V30 19416 C 2189.15 1.16459 1.57151 0
M  V30 19417 O 2190.36 1.50094 2.26239 0
M  V30 19418 C 2188.81 3.5369 0.665698 0
M  V30 19419 C 2188.42 4.44727 -0.540586 0
M  V30 19420 C 2190.16 4.05786 1.24653 0
M  V30 19421 C 2188.07 5.91079 -0.194898 0
M  V30 19422 H 2187 0.742215 0.132791 0
M  V30 19423 H 2189.65 1.79584 -0.377069 0
M  V30 19424 H 2188.03 3.6862 1.4469 0
M  V30 19425 H 2189.21 4.41564 -1.3175 0
M  V30 19426 H 2187.52 4.03252 -1.0381 0
M  V30 19427 H 2190.12 5.12672 1.51893 0
M  V30 19428 H 2190.46 3.5468 2.17963 0
M  V30 19429 H 2191 3.94285 0.527668 0
M  V30 19430 H 2187.74 6.46276 -1.09582 0
M  V30 19431 H 2187.26 5.97316 0.545296 0
M  V30 19432 H 2188.93 6.46647 0.213722 0
M  V30 19433 N 2189.07 2.77022e-05 1.576 0
M  V30 19434 C 2190.31 -0.683462 1.90193 0
M  V30 19435 C 2190.64 -1.74311 0.8741 0
M  V30 19436 O 2189.91 -1.957 -0.0884894 0
M  V30 19437 H 2188.49 -0.25543 0.701972 0
M  V30 19438 H 2191.15 0.0409602 1.94857 0
M  V30 19439 H 2190.24 -1.15469 2.89954 0
M  V30 19440 N 2190.54 -1.55222 -0.272728 0
M  V30 19441 C 2191.96 -1.66547 -0.843751 0
M  V30 19442 C 2192.31 -0.592674 -1.87034 0
M  V30 19443 O 2191.43 0.26578 -2.14762 0
M  V30 19444 C 2192.03 -3.01921 -1.53718 0
M  V30 19445 C 2190.59 -3.15272 -2.05623 0
M  V30 19446 C 2189.73 -2.62344 -0.898377 0
M  V30 19447 H 2192.68 -1.58624 -0.0490719 0
M  V30 19448 H 2192.7 -2.94925 -2.40415 0
M  V30 19449 H 2192.22 -3.79979 -0.789763 0
M  V30 19450 H 2190.32 -2.41988 -2.83324 0
M  V30 19451 H 2190.43 -4.21837 -2.27135 0
M  V30 19452 H 2188.79 -2.19509 -1.29182 0
M  V30 19453 H 2189.58 -3.42906 -0.164467 0
M  V30 19454 N 2192.02 0.537252 -1.4816 0
M  V30 19455 C 2193.27 1.29538 -1.56038 0
M  V30 19456 C 2193.6 1.92828 -0.230411 0
M  V30 19457 O 2192.88 1.78913 0.762921 0
M  V30 19458 C 2193.16 2.39029 -2.69327 0
M  V30 19459 C 2193.01 1.80478 -4.12005 0
M  V30 19460 C 2194.33 3.40842 -2.78414 0
M  V30 19461 H 2191.45 0.469622 -0.568 0
M  V30 19462 H 2194.09 0.599245 -1.80303 0
M  V30 19463 H 2192.24 2.98407 -2.48768 0
M  V30 19464 H 2193.91 1.25207 -4.43983 0
M  V30 19465 H 2192.16 1.11048 -4.19346 0
M  V30 19466 H 2192.83 2.59722 -4.87082 0
M  V30 19467 H 2195.3 2.9141 -2.97017 0
M  V30 19468 H 2194.18 4.14857 -3.59423 0
M  V30 19469 H 2194.44 4.00941 -1.86276 0
M  V30 19470 N 2193.5 1.36626 0.785562 0
M  V30 19471 C 2194.74 1.32455 1.55676 0
M  V30 19472 C 2195.1 -0.0940752 1.91769 0
M  V30 19473 O 2196.31 -0.260373 2.67536 0
M  V30 19474 C 2194.58 2.22495 2.79697 0
M  V30 19475 S 2196.14 2.36045 3.69903 0
M  V30 19476 H 2192.95 0.470415 0.533133 0
M  V30 19477 H 2195.56 1.72237 0.924923 0
M  V30 19478 H 2194.26 3.24511 2.51238 0
M  V30 19479 H 2193.79 1.83748 3.47851 0
M  V30 19480 H 2195.81 1.5608 4.71013 0
M  V30 19481 N 2194.98 -1.01016 1.20969 0
M  V30 19482 C 2196.23 -1.74714 1.02377 0
M  V30 19483 C 2196.55 -1.8938 -0.443342 0
M  V30 19484 O 2195.81 -1.42125 -1.34532 0
M  V30 19485 C 2196.11 -3.16509 1.66003 0
M  V30 19486 C 2195.77 -3.21804 3.15837 0
M  V30 19487 C 2194.44 -3.22957 3.56725 0
M  V30 19488 C 2196.79 -3.19456 4.11822 0
M  V30 19489 C 2194.12 -3.19441 4.92112 0
M  V30 19490 C 2196.47 -3.17482 5.47164 0
M  V30 19491 C 2195.13 -3.16941 5.87456 0
M  V30 19492 H 2194.4 -0.639325 0.374625 0
M  V30 19493 H 2197.05 -1.18431 1.50487 0
M  V30 19494 H 2195.35 -3.75991 1.10172 0
M  V30 19495 H 2197.05 -3.7224 1.49126 0
M  V30 19496 H 2193.64 -3.21647 2.83269 0
M  V30 19497 H 2197.82 -3.17731 3.81262 0
M  V30 19498 H 2193.08 -3.17357 5.22585 0
M  V30 19499 H 2197.25 -3.14618 6.2128 0
M  V30 19500 H 2194.88 -3.13971 6.92334 0
M  V30 19501 N 2196.46 -1.01661 -1.20428 0
M  V30 19502 C 2197.39 -0.607265 -2.25465 0
M  V30 19503 C 2198.37 0.377687 -1.65854 0
M  V30 19504 O 2199.55 0.263115 -1.92409 0
M  V30 19505 C 2196.68 0.0552339 -3.47256 0
M  V30 19506 C 2195.64 -0.850705 -4.1946 0
M  V30 19507 C 2194.96 -0.0539799 -5.34673 0
M  V30 19508 C 2196.26 -2.15876 -4.75599 0
M  V30 19509 H 2197.96 -1.48531 -2.5996 0
M  V30 19510 H 2195.5 -0.715627 -1.24959 0
M  V30 19511 H 2197.46 0.353159 -4.19918 0
M  V30 19512 H 2196.18 0.967991 -3.11925 0
M  V30 19513 H 2194.84 -1.13263 -3.48665 0
M  V30 19514 H 2194.49 0.860427 -4.95586 0
M  V30 19515 H 2194.19 -0.657295 -5.83912 0
M  V30 19516 H 2195.71 0.237491 -6.10138 0
M  V30 19517 H 2197.12 -1.9232 -5.40079 0
M  V30 19518 H 2195.52 -2.71293 -5.35276 0
M  V30 19519 H 2196.59 -2.82176 -3.94341 0
M  V30 19520 O 2197.97 1.32105 -0.929005 0
M  V30 19521 H 2198.66 1.85673 -0.551832 0
M  V30 END ATOM
M  V30 BEGIN BOND
M  V30 END BOND
M  V30 END CTAB
M  END
$$$$
