drugbank_target|Q8P8J2 N-acetylornithine carbamoyltransferase (DB02368; DB08554)
 OpenBabel12092119553D

  0  0  0     0  0            999 V3000
M  V30 BEGIN CTAB
M  V30 COUNTS 5301 5367 0 0 0
M  V30 BEGIN ATOM
M  V30 1 H -0.908 1.98254 -0.117106 0
M  V30 2 N 0 1.576 0 0
M  V30 3 C 0.933 2.03868 1.02534 0
M  V30 4 C 1.911 0.928543 1.3348 0
M  V30 5 O 3.095 1.19667 1.45644 0
M  V30 6 C 0.222 2.43627 2.35294 0
M  V30 7 C -0.732 3.65373 2.2001 0
M  V30 8 S 0.101 5.13292 1.52614 0
M  V30 9 C 1.257 5.56322 2.86805 0
M  V30 10 H 1.49 2.90518 0.631377 0
M  V30 11 H -0.977 1.52953 0.210867 0
M  V30 12 H 0.981 2.67203 3.11629 0
M  V30 13 H -0.358 1.57376 2.7183 0
M  V30 14 H -1.165 3.90944 3.18086 0
M  V30 15 H -1.563 3.418 1.51819 0
M  V30 16 H 0.729 5.58782 3.83104 0
M  V30 17 H 1.672 6.56266 2.65933 0
M  V30 18 H 2.08 4.83886 2.90714 0
M  V30 19 N 1.4781 -0.272755 1.55222 0
M  V30 20 C 2.7031 -1.02683 1.80197 0
M  V30 21 C 3.1281 -1.79142 0.573551 0
M  V30 22 O 2.4861 -1.74917 -0.476849 0
M  V30 23 C 2.5341 -1.9609 3.02624 0
M  V30 24 O 1.6381 -3.04863 2.77727 0
M  V30 25 H 0.9791 -0.293557 0.595584 0
M  V30 26 H 3.5091 -0.30159 2.02365 0
M  V30 27 H 3.5191 -2.38039 3.31363 0
M  V30 28 H 2.1941 -1.39851 3.91682 0
M  V30 29 H 0.7711 -2.67228 2.60084 0
M  V30 30 N 2.9562 -1.48159 -0.537278 0
M  V30 31 C 3.8862 -1.65029 -1.6519 0
M  V30 32 C 4.8672 -0.499281 -1.62607 0
M  V30 33 O 6.0522 -0.730972 -1.79918 0
M  V30 34 C 3.1822 -1.68303 -3.03795 0
M  V30 35 C 2.1362 -2.8283 -3.21234 0
M  V30 36 C 1.4622 -2.71189 -4.60826 0
M  V30 37 C 2.7622 -4.24211 -3.04701 0
M  V30 38 H 4.4562 -2.58341 -1.51328 0
M  V30 39 H 2.0022 -1.24325 -0.726585 0
M  V30 40 H 3.9552 -1.78693 -3.81637 0
M  V30 41 H 2.6792 -0.715635 -3.18663 0
M  V30 42 H 1.3382 -2.71983 -2.45807 0
M  V30 43 H 0.9862 -1.72435 -4.7252 0
M  V30 44 H 0.6862 -3.48035 -4.7344 0
M  V30 45 H 2.2102 -2.83537 -5.40777 0
M  V30 46 H 3.6242 -4.3593 -3.72341 0
M  V30 47 H 2.0212 -5.01998 -3.28813 0
M  V30 48 H 3.0912 -4.41184 -2.01209 0
M  V30 49 N 4.4343 0.785586 -1.36625 0
M  V30 50 C 5.3813 1.89838 -1.31264 0
M  V30 51 C 6.3513 1.65115 -0.180633 0
M  V30 52 O 7.5363 1.87222 -0.36777 0
M  V30 53 C 4.6763 3.26706 -1.11163 0
M  V30 54 C 3.7893 3.63476 -2.33472 0
M  V30 55 C 2.9243 4.89481 -2.06353 0
M  V30 56 C 1.9633 5.18941 -3.24602 0
M  V30 57 N 1.1003 6.36131 -2.97123 0
M  V30 58 H 5.9403 1.93756 -2.26413 0
M  V30 59 H 3.4773 0.947454 -1.12524 0
M  V30 60 H 5.4353 4.05639 -0.975337 0
M  V30 61 H 4.0653 3.222 -0.196674 0
M  V30 62 H 3.1173 2.79636 -2.57891 0
M  V30 63 H 4.4293 3.81193 -3.21704 0
M  V30 64 H 3.5833 5.76288 -1.89675 0
M  V30 65 H 2.3223 4.73841 -1.15437 0
M  V30 66 H 1.3273 4.30615 -3.41834 0
M  V30 67 H 2.5523 5.36498 -4.16349 0
M  V30 68 H 0.4983 6.21875 -2.08823 0
M  V30 69 H 0.4153 6.54198 -3.78894 0
M  V30 70 H 1.6833 7.2591 -2.84033 0
M  V30 71 N 5.9124 1.20967 1.01018 0
M  V30 72 C 6.8624 0.93182 2.08089 0
M  V30 73 C 7.8464 -0.110898 1.60517 0
M  V30 74 O 9.0384 0.0973392 1.76732 0
M  V30 75 C 6.1674 0.492719 3.39746 0
M  V30 76 C 5.2534 1.56922 3.94 0
M  V30 77 N 5.6444 2.79312 4.21686 0
M  V30 78 C 3.9424 1.43688 4.2222 0
M  V30 79 C 4.6434 3.48797 4.65527 0
M  V30 80 N 3.6194 2.76224 4.68189 0
M  V30 81 H 7.4214 1.86175 2.27412 0
M  V30 82 H 4.9354 1.10463 1.19045 0
M  V30 83 H 6.9324 0.275044 4.15992 0
M  V30 84 H 5.5924 -0.430509 3.21833 0
M  V30 85 H 6.6034 3.15903 4.10397 0
M  V30 86 H 3.2804 0.578548 4.13472 0
M  V30 87 H 4.6704 4.53561 4.95714 0
M  V30 88 N 7.3905 -1.2043 1.01659 0
M  V30 89 C 8.6375 -1.89797 0.705917 0
M  V30 90 C 8.9655 -1.78848 -0.764439 0
M  V30 91 O 8.2205 -1.16694 -1.57102 0
M  V30 92 C 8.5195 -3.40464 1.08714 0
M  V30 93 C 8.1855 -3.71614 2.5537 0
M  V30 94 C 6.8475 -3.79826 2.95441 0
M  V30 95 C 9.1995 -3.85915 3.50313 0
M  V30 96 C 6.5275 -3.99797 4.29394 0
M  V30 97 C 8.8795 -4.07396 4.83954 0
M  V30 98 C 7.5435 -4.13837 5.23732 0
M  V30 99 H 6.8135 -0.694518 0.258313 0
M  V30 100 H 9.4605 -1.42691 1.27717 0
M  V30 101 H 7.7655 -3.89385 0.434309 0
M  V30 102 H 9.4625 -3.92433 0.824461 0
M  V30 103 H 6.0525 -3.65822 2.23321 0
M  V30 104 H 10.2365 -3.78926 3.20513 0
M  V30 105 H 5.4925 -4.03018 4.59768 0
M  V30 106 H 9.6665 -4.17404 5.57447 0
M  V30 107 H 7.2935 -4.29064 6.27541 0
M  V30 108 N 8.8686 -0.792821 -1.36206 0
M  V30 109 C 9.7986 -0.207853 -2.32573 0
M  V30 110 C 10.7796 0.659055 -1.56813 0
M  V30 111 O 11.9646 0.592176 -1.84951 0
M  V30 112 C 9.0946 0.655449 -3.41059 0
M  V30 113 C 8.0486 -0.111842 -4.27854 0
M  V30 114 C 7.3746 0.872274 -5.27537 0
M  V30 115 C 8.6746 -1.30299 -5.05786 0
M  V30 116 H 10.3686 -1.01294 -2.81744 0
M  V30 117 H 7.9146 -0.48854 -1.3546 0
M  V30 118 H 9.8676 1.07464 -4.07467 0
M  V30 119 H 8.5916 1.49328 -2.90463 0
M  V30 120 H 7.2506 -0.512053 -3.63006 0
M  V30 121 H 6.8986 1.70523 -4.73214 0
M  V30 122 H 6.5986 0.363291 -5.86476 0
M  V30 123 H 8.1226 1.28996 -5.96818 0
M  V30 124 H 9.5366 -0.959379 -5.65216 0
M  V30 125 H 7.9336 -1.7455 -5.74154 0
M  V30 126 H 9.0036 -2.09663 -4.37229 0
M  V30 127 N 10.3467 1.47872 -0.545128 0
M  V30 128 C 11.2947 2.31533 0.222512 0
M  V30 129 C 12.2887 1.42177 0.920985 0
M  V30 130 O 13.4947 1.59005 0.843645 0
M  V30 131 H 9.8697 0.746519 0.0906278 0
M  V30 132 H 11.8407 2.94139 -0.50246 0
M  V30 133 C 10.5897 3.2457 1.24699 0
M  V30 134 H 9.9127 3.93283 0.718944 0
M  V30 135 H 11.3527 3.85963 1.75523 0
M  V30 136 C 9.8117 2.47237 2.28856 0
M  V30 137 O 10.3417 2.20808 3.35569 0
M  V30 138 N 8.5477 2.08461 2.02466 0
M  V30 139 H 8.0947 2.30155 1.157 0
M  V30 140 H 8.0527 1.57033 2.72375 0
M  V30 141 N 11.8248 0.280983 1.55075 0
M  V30 142 C 13.0528 -0.337293 2.04132 0
M  V30 143 C 13.4678 -1.4903 1.15912 0
M  V30 144 O 12.8248 -1.81606 0.180459 0
M  V30 145 C 12.8758 -0.812706 3.52246 0
M  V30 146 O 12.5968 0.294387 4.3711 0
M  V30 147 C 14.0978 -1.4982 4.17216 0
M  V30 148 H 11.3178 -0.0761638 0.666663 0
M  V30 149 H 13.8618 0.414787 2.00249 0
M  V30 150 H 12.0168 -1.51486 3.56554 0
M  V30 151 H 12.4308 -0.0721325 5.2445 0
M  V30 152 H 13.9048 -1.7822 5.22438 0
M  V30 153 H 14.3818 -2.43168 3.65741 0
M  V30 154 H 14.9878 -0.839742 4.16927 0
M  V30 155 N 13.3029 -1.57598 0.00835791 0
M  V30 156 C 14.2349 -2.05811 -1.00868 0
M  V30 157 C 15.2479 -0.977579 -1.30182 0
M  V30 158 O 16.4369 -1.25421 -1.27011 0
M  V30 159 C 13.5369 -2.45016 -2.34137 0
M  V30 160 C 12.7099 -3.75903 -2.23643 0
M  V30 161 C 11.7689 -4.01884 -3.3967 0
M  V30 162 O 10.7949 -4.72433 -3.17483 0
M  V30 163 N 11.9969 -3.50432 -4.62793 0
M  V30 164 H 14.7619 -2.93684 -0.597458 0
M  V30 165 H 12.3229 -1.60909 -0.178852 0
M  V30 166 H 14.3149 -2.59506 -3.10546 0
M  V30 167 H 12.8849 -1.62618 -2.66972 0
M  V30 168 H 12.1049 -3.7141 -1.32091 0
M  V30 169 H 13.3929 -4.61695 -2.13812 0
M  V30 170 H 12.7909 -2.93317 -4.83716 0
M  V30 171 H 11.3479 -3.70236 -5.3644 0
M  V30 172 N 14.781 0.264519 -1.55364 0
M  V30 173 C 16.058 1.01677 -1.67096 0
M  V30 174 C 16.438 2.03996 -0.543015 0
M  V30 175 O 15.786 2.23907 0.45585 0
M  V30 176 C 15.996 1.66596 -3.0667 0
M  V30 177 C 17.344 2.17442 -3.64697 0
M  V30 178 O 18.368 1.76568 -3.09358 0
M  V30 179 O 17.227 2.92439 -4.61673 0
M  V30 180 H 14.321 0.472161 -0.678965 0
M  V30 181 H 16.867 0.259703 -1.67701 0
M  V30 182 H 15.639 0.924962 -3.80211 0
M  V30 183 H 15.262 2.48968 -3.10001 0
M  V30 184 N 16.2591 1.48442 0.529413 0
M  V30 185 C 17.5051 1.57699 1.28463 0
M  V30 186 C 17.8601 0.247913 1.90796 0
M  V30 187 O 17.1531 -0.749279 1.76342 0
M  V30 188 C 17.3471 2.6523 2.39558 0
M  V30 189 C 17.1761 4.08464 1.88114 0
M  V30 190 C 15.9461 4.75596 1.70693 0
M  V30 191 C 18.1441 4.94613 1.40935 0
M  V30 192 N 16.1261 6.03245 1.13881 0
M  V30 193 C 17.4971 6.12511 0.960734 0
M  V30 194 C 19.5521 4.80833 1.29243 0
M  V30 195 C 18.2551 7.18149 0.406792 0
M  V30 196 C 20.2811 5.86593 0.752487 0
M  V30 197 C 19.6431 7.037 0.313946 0
M  V30 198 H 15.7421 0.631608 0.46108 0
M  V30 199 H 18.3261 1.85325 0.596886 0
M  V30 200 H 16.4971 2.39425 3.05827 0
M  V30 201 H 18.2291 2.64169 3.06589 0
M  V30 202 H 14.9841 4.31938 1.94232 0
M  V30 203 H 15.4081 6.71324 0.874831 0
M  V30 204 H 20.0501 3.90635 1.61754 0
M  V30 205 H 17.7681 8.0807 0.0693671 0
M  V30 206 H 21.3541 5.77985 0.665192 0
M  V30 207 H 20.2341 7.8414 -0.0973632 0
M  V30 208 N 17.7372 -0.778329 1.37039 0
M  V30 209 C 18.9622 -1.57248 1.35233 0
M  V30 210 C 19.3872 -1.87999 -0.0615568 0
M  V30 211 O 18.7452 -1.48734 -1.03672 0
M  V30 212 C 18.7932 -2.86353 2.19167 0
M  V30 213 O 17.8972 -3.80442 1.59178 0
M  V30 214 H 17.2382 -0.476569 0.462362 0
M  V30 215 H 19.7682 -0.963853 1.80474 0
M  V30 216 H 19.7782 -3.35519 2.32145 0
M  V30 217 H 18.4532 -2.63299 3.21942 0
M  V30 218 H 17.0302 -3.39067 1.55203 0
M  V30 219 N 19.2153 -1.21501 -1.00376 0
M  V30 220 C 20.6313 -0.972629 -1.26539 0
M  V30 221 C 20.8313 0.340257 -1.98606 0
M  V30 222 O 19.8873 1.06561 -2.28913 0
M  V30 223 C 21.2003 -2.16404 -2.08781 0
M  V30 224 C 22.7483 -2.20643 -2.22004 0
M  V30 225 C 23.2233 -3.39306 -3.07629 0
M  V30 226 N 24.7143 -3.39401 -3.15217 0
M  V30 227 C 25.4493 -4.27867 -3.81729 0
M  V30 228 N 24.9453 -5.26533 -4.5026 0
M  V30 229 N 26.7383 -4.15672 -3.78382 0
M  V30 230 H 18.8893 -2.05929 -0.520281 0
M  V30 231 H 21.1523 -0.901803 -0.292328 0
M  V30 232 H 20.8583 -3.11554 -1.63178 0
M  V30 233 H 20.7323 -2.15567 -3.09533 0
M  V30 234 H 23.1193 -1.26048 -2.66825 0
M  V30 235 H 23.2003 -2.25523 -1.20718 0
M  V30 236 H 22.8443 -4.34195 -2.63509 0
M  V30 237 H 22.7743 -3.31665 -4.09031 0
M  V30 238 H 25.2653 -2.67997 -2.66432 0
M  V30 239 H 25.5783 -5.90337 -4.98721 0
M  V30 240 H 23.9233 -5.30457 -4.49044 0
M  V30 241 H 27.1143 -3.3785 -3.23998 0
M  V30 242 H 27.2873 -4.84825 -4.2994 0
M  V30 243 N 20.6934 1.19889 -1.02296 0
M  V30 244 C 21.6564 2.21116 -0.603351 0
M  V30 245 C 22.6564 1.5738 0.329884 0
M  V30 246 O 23.8464 1.73802 0.117702 0
M  V30 247 C 20.9784 3.40696 0.117992 0
M  V30 248 H 22.1714 2.59754 -1.49893 0
M  V30 249 H 19.7244 1.33463 -0.813468 0
M  V30 250 H 20.4594 3.07569 1.0282 0
M  V30 251 H 20.2444 3.88188 -0.552511 0
M  V30 252 H 21.7344 4.15692 0.398696 0
M  V30 253 N 22.1715 0.800033 1.35784 0
M  V30 254 C 23.0815 0.207204 2.33683 0
M  V30 255 C 24.0975 -0.64631 1.61551 0
M  V30 256 O 25.2735 -0.559604 1.93469 0
M  V30 257 C 22.3385 -0.639659 3.40748 0
M  V30 258 C 21.3995 0.233585 4.28664 0
M  V30 259 C 20.6325 -0.572954 5.30616 0
M  V30 260 O 20.8555 -1.80816 5.40982 0
M  V30 261 O 19.7895 0.0327285 6.01891 0
M  V30 262 H 23.6155 1.01692 2.86169 0
M  V30 263 H 21.2005 0.561691 1.38439 0
M  V30 264 H 23.0825 -1.12223 4.06182 0
M  V30 265 H 21.7575 -1.42708 2.90544 0
M  V30 266 H 20.6645 0.763147 3.66233 0
M  V30 267 H 21.9975 0.984784 4.82248 0
M  V30 268 N 23.6496 -1.47581 0.552962 0
M  V30 269 C 24.5796 -2.32762 -0.185451 0
M  V30 270 C 25.5606 -1.43527 -0.912905 0
M  V30 271 O 26.7456 -1.72388 -0.894201 0
M  V30 272 C 23.8756 -3.25219 -1.21859 0
M  V30 273 C 22.8296 -4.23661 -0.607864 0
M  V30 274 C 22.1556 -5.05413 -1.74533 0
M  V30 275 C 23.4556 -5.20481 0.435582 0
M  V30 276 H 25.1496 -2.94749 0.525684 0
M  V30 277 H 22.6956 -1.41738 0.254251 0
M  V30 278 H 24.6486 -3.8365 -1.7433 0
M  V30 279 H 23.3726 -2.61279 -1.95961 0
M  V30 280 H 22.0316 -3.66451 -0.104489 0
M  V30 281 H 21.6796 -4.3788 -2.47529 0
M  V30 282 H 21.3796 -5.72059 -1.34249 0
M  V30 283 H 22.9036 -5.66701 -2.27338 0
M  V30 284 H 24.3176 -5.733 -0.00290157 0
M  V30 285 H 22.7146 -5.95305 0.757067 0
M  V30 286 H 23.7846 -4.66217 1.33303 0
M  V30 287 N 25.1277 -0.289203 -1.54924 0
M  V30 288 C 26.4047 0.376032 -1.91951 0
M  V30 289 C 26.7847 1.72622 -1.21511 0
M  V30 290 O 26.1327 2.25853 -0.346767 0
M  V30 291 C 26.3427 0.502378 -3.45365 0
M  V30 292 C 27.6907 0.778741 -4.17398 0
M  V30 293 O 28.7147 0.586647 -3.51336 0
M  V30 294 O 27.5737 1.14698 -5.34328 0
M  V30 295 H 24.6677 0.208167 -0.800372 0
M  V30 296 H 27.2137 -0.336394 -1.66332 0
M  V30 297 H 25.9857 -0.447255 -3.88736 0
M  V30 298 H 25.6087 1.26373 -3.76982 0
M  V30 299 N 26.6058 1.57591 -0.0167156 0
M  V30 300 C 27.5688 2.08393 0.954204 0
M  V30 301 C 28.5688 0.996531 1.26198 0
M  V30 302 O 29.7588 1.25858 1.20438 0
M  V30 303 C 26.8908 2.5394 2.27436 0
M  V30 304 H 28.0838 2.95455 0.514451 0
M  V30 305 H 25.6368 1.54582 0.231089 0
M  V30 306 H 26.3718 1.70171 2.76066 0
M  V30 307 H 26.1568 3.33371 2.06412 0
M  V30 308 H 27.6468 2.93512 2.97053 0
M  V30 309 N 28.0839 -0.256276 1.55502 0
M  V30 310 C 29.0139 -1.32102 1.92539 0
M  V30 311 C 29.9949 -1.50684 0.789194 0
M  V30 312 O 31.1799 -1.63449 1.04872 0
M  V30 313 C 28.3099 -2.67752 2.21192 0
M  V30 314 C 27.2639 -2.63878 3.36975 0
M  V30 315 C 26.5899 -4.03236 3.51147 0
M  V30 316 C 27.8899 -2.21682 4.72921 0
M  V30 317 H 29.5839 -1.01351 2.81724 0
M  V30 318 H 27.1299 -0.486105 1.35547 0
M  V30 319 H 29.0829 -3.42365 2.45691 0
M  V30 320 H 27.8069 -3.0012 1.28824 0
M  V30 321 H 26.4659 -1.91722 3.12471 0
M  V30 322 H 26.1139 -4.32854 2.56216 0
M  V30 323 H 25.8139 -4.01535 4.29003 0
M  V30 324 H 27.3379 -4.79563 3.77957 0
M  V30 325 H 28.7519 -2.86023 4.96854 0
M  V30 326 H 27.1489 -2.3111 5.53812 0
M  V30 327 H 28.2189 -1.16833 4.70615 0
M  V30 328 N 29.562 -1.4872 -0.521534 0
M  V30 329 C 30.492 -1.66771 -1.63431 0
M  V30 330 C 31.473 -0.516499 -1.62069 0
M  V30 331 O 32.658 -0.750013 -1.79132 0
M  V30 332 C 29.788 -1.71515 -3.01993 0
M  V30 333 C 28.742 -2.86222 -3.18216 0
M  V30 334 C 28.068 -2.76061 -4.57924 0
M  V30 335 C 29.368 -4.27419 -3.00184 0
M  V30 336 H 31.062 -2.59932 -1.48579 0
M  V30 337 H 28.608 -1.25089 -0.713358 0
M  V30 338 H 30.561 -1.82731 -3.7972 0
M  V30 339 H 29.285 -0.749393 -3.17886 0
M  V30 340 H 27.944 -2.74575 -2.42908 0
M  V30 341 H 27.592 -1.77437 -4.70665 0
M  V30 342 H 27.292 -3.53037 -4.69722 0
M  V30 343 H 28.816 -2.89256 -5.37739 0
M  V30 344 H 30.23 -4.39855 -3.67697 0
M  V30 345 H 28.627 -5.05458 -3.2347 0
M  V30 346 H 29.697 -4.43293 -1.96518 0
M  V30 347 N 31.0401 0.771051 -1.3745 0
M  V30 348 C 32.2681 1.56015 -1.35893 0
M  V30 349 C 32.6831 1.88718 0.0555523 0
M  V30 350 O 32.0401 1.51502 1.01752 0
M  V30 351 C 32.0911 2.87001 -2.19801 0
M  V30 352 O 31.8121 2.557 -3.55738 0
M  V30 353 C 33.3131 3.81228 -2.26231 0
M  V30 354 H 30.5331 0.483317 -0.465453 0
M  V30 355 H 33.0771 0.955611 -1.80799 0
M  V30 356 H 31.2321 3.43877 -1.78402 0
M  V30 357 H 31.6461 3.39584 -3.99729 0
M  V30 358 H 33.1201 4.70139 -2.89263 0
M  V30 359 H 33.5971 4.20409 -1.27093 0
M  V30 360 H 34.2031 3.30281 -2.67945 0
M  V30 361 N 32.5182 1.22032 0.997298 0
M  V30 362 C 33.4502 0.944263 2.08845 0
M  V30 363 C 34.4632 -0.0754663 1.62625 0
M  V30 364 O 35.6522 0.157994 1.77799 0
M  V30 365 C 32.7522 0.397723 3.36558 0
M  V30 366 C 31.9252 1.47362 4.11829 0
M  V30 367 C 30.9842 0.934951 5.17827 0
M  V30 368 O 30.0102 1.62016 5.45655 0
M  V30 369 N 31.2122 -0.245895 5.79979 0
M  V30 370 H 33.9772 1.88363 2.33109 0
M  V30 371 H 31.5382 1.12661 1.16272 0
M  V30 372 H 33.5302 0.0227771 4.04694 0
M  V30 373 H 32.1002 -0.446646 3.09393 0
M  V30 374 H 31.3202 2.02208 3.38386 0
M  V30 375 H 32.6082 2.19764 4.58891 0
M  V30 376 H 32.0062 -0.819475 5.59733 0
M  V30 377 H 30.5632 -0.562272 6.4937 0
M  V30 378 N 33.9963 -1.19345 1.0293 0
M  V30 379 C 34.9593 -2.20793 0.615069 0
M  V30 380 C 35.9593 -1.57553 -0.321533 0
M  V30 381 O 37.1493 -1.73862 -0.108483 0
M  V30 382 C 34.2813 -3.40754 -0.0999222 0
M  V30 383 H 35.4743 -2.58955 1.51269 0
M  V30 384 H 33.0273 -1.3303 0.820534 0
M  V30 385 H 33.7623 -3.0811 -1.01187 0
M  V30 386 H 33.5473 -3.87889 0.57309 0
M  V30 387 H 35.0373 -4.15898 -0.376645 0
M  V30 388 N 35.4744 -0.807222 -1.35358 0
M  V30 389 C 36.4374 -0.223665 -2.28106 0
M  V30 390 C 37.4374 0.589354 -1.4961 0
M  V30 391 O 38.6274 0.407745 -1.69361 0
M  V30 392 C 35.7594 0.688149 -3.33882 0
M  V30 393 H 36.9524 -1.04169 -2.81227 0
M  V30 394 H 34.5054 -0.577921 -1.45223 0
M  V30 395 H 35.2404 1.52984 -2.85948 0
M  V30 396 H 35.0254 0.10687 -3.91954 0
M  V30 397 H 36.5154 1.09075 -4.03104 0
M  V30 398 N 36.9525 1.47285 -0.560781 0
M  V30 399 C 37.8825 2.32857 0.173105 0
M  V30 400 C 38.8635 1.44009 0.905281 0
M  V30 401 O 40.0485 1.7286 0.885046 0
M  V30 402 C 37.1785 3.25861 1.20133 0
M  V30 403 C 36.1325 4.23978 0.585388 0
M  V30 404 C 35.4585 5.06332 1.7185 0
M  V30 405 C 36.7585 5.20242 -0.463178 0
M  V30 406 H 38.4525 2.94466 -0.541307 0
M  V30 407 H 35.9985 1.41601 -0.261764 0
M  V30 408 H 37.9515 3.84569 1.72293 0
M  V30 409 H 36.6755 2.62315 1.94573 0
M  V30 410 H 35.3345 3.66501 0.085054 0
M  V30 411 H 34.9825 4.39186 2.45203 0
M  V30 412 H 34.6825 5.72762 1.31213 0
M  V30 413 H 36.2065 5.67899 2.24329 0
M  V30 414 H 37.6205 5.73293 -0.027502 0
M  V30 415 H 36.0175 5.94896 -0.788627 0
M  V30 416 H 37.0875 4.65504 -1.35773 0
M  V30 417 N 38.4306 0.297415 1.54768 0
M  V30 418 C 39.6776 -0.312913 2.00068 0
M  V30 419 C 40.0056 -1.54171 1.18582 0
M  V30 420 O 39.2606 -1.94108 0.249133 0
M  V30 421 C 39.5596 -0.717561 3.50123 0
M  V30 422 C 39.2256 0.409095 4.4904 0
M  V30 423 C 37.8876 0.718399 4.75807 0
M  V30 424 C 40.2396 1.16717 5.07963 0
M  V30 425 C 37.5676 1.78896 5.5876 0
M  V30 426 C 39.9196 2.22762 5.92081 0
M  V30 427 C 38.5836 2.54303 6.1716 0
M  V30 428 H 37.8536 -0.114503 0.7321 0
M  V30 429 H 40.5006 0.415767 1.86932 0
M  V30 430 H 38.8056 -1.52627 3.60849 0
M  V30 431 H 40.5026 -1.20091 3.82595 0
M  V30 432 H 37.0926 0.157918 4.28309 0
M  V30 433 H 41.2766 0.941466 4.87289 0
M  V30 434 H 36.5326 2.0381 5.7643 0
M  V30 435 H 40.7066 2.81962 6.36765 0
M  V30 436 H 38.3336 3.3739 6.81229 0
M  V30 437 N 39.9087 -1.5758 0.0250728 0
M  V30 438 C 40.8557 -2.09973 -0.958129 0
M  V30 439 C 41.8257 -1.00085 -1.3256 0
M  V30 440 O 43.0107 -1.27481 -1.41962 0
M  V30 441 C 40.1507 -2.62812 -2.2366 0
M  V30 442 C 39.2637 -3.86693 -1.92594 0
M  V30 443 C 38.3987 -4.27941 -3.14707 0
M  V30 444 C 37.4377 -5.44591 -2.79442 0
M  V30 445 N 36.5747 -5.81014 -3.94167 0
M  V30 446 H 41.4147 -2.937 -0.504428 0
M  V30 447 H 38.9517 -1.45172 -0.237392 0
M  V30 448 H 40.9097 -2.91536 -2.98434 0
M  V30 449 H 39.5397 -1.81922 -2.66654 0
M  V30 450 H 38.5917 -3.64723 -1.0808 0
M  V30 451 H 39.9037 -4.71547 -1.62619 0
M  V30 452 H 39.0577 -4.58079 -3.97804 0
M  V30 453 H 37.7967 -3.41845 -3.4784 0
M  V30 454 H 36.8017 -5.1415 -1.94755 0
M  V30 455 H 38.0267 -6.32382 -2.47528 0
M  V30 456 H 35.9727 -4.97874 -4.2715 0
M  V30 457 H 35.8897 -6.60498 -3.67801 0
M  V30 458 H 37.1577 -6.15756 -4.7798 0
M  V30 459 N 41.3868 0.248026 -1.55636 0
M  V30 460 C 42.8028 0.596483 -1.48035 0
M  V30 461 C 43.0028 1.88386 -0.715039 0
M  V30 462 O 42.0588 2.51319 -0.243944 0
M  V30 463 C 43.3718 0.700258 -2.92433 0
M  V30 464 C 44.9198 0.792659 -3.02797 0
M  V30 465 C 45.3948 0.928005 -4.485 0
M  V30 466 N 46.8858 0.992903 -4.52433 0
M  V30 467 C 47.6208 1.11687 -5.62418 0
M  V30 468 N 47.1168 1.20645 -6.82214 0
M  V30 469 N 48.9098 1.14994 -5.50212 0
M  V30 470 H 41.0608 -0.597109 -2.03834 0
M  V30 471 H 43.3238 -0.205925 -0.925364 0
M  V30 472 H 43.0298 -0.175658 -3.51261 0
M  V30 473 H 42.9038 1.57255 -3.42857 0
M  V30 474 H 45.2908 1.65903 -2.4405 0
M  V30 475 H 45.3718 -0.104762 -2.55585 0
M  V30 476 H 45.0158 0.0661971 -5.07857 0
M  V30 477 H 44.9458 1.84045 -4.93391 0
M  V30 478 H 47.4368 0.935064 -3.66149 0
M  V30 479 H 47.7498 1.30008 -7.61786 0
M  V30 480 H 46.0948 1.17605 -6.84977 0
M  V30 481 H 49.2858 1.07643 -4.55555 0
M  V30 482 H 49.4588 1.24311 -6.35965 0
M  V30 483 N 42.8649 1.48995 0.513639 0
M  V30 484 C 43.8129 1.65199 1.63744 0
M  V30 485 C 44.8069 0.51809 1.61283 0
M  V30 486 O 46.0129 0.697335 1.65943 0
M  V30 487 H 42.3879 0.52069 0.542574 0
M  V30 488 H 44.3589 2.59552 1.47226 0
M  V30 489 C 43.1079 1.72409 3.01945 0
M  V30 490 H 42.4309 2.59029 3.04539 0
M  V30 491 H 43.8709 1.87785 3.80148 0
M  V30 492 C 42.3299 0.46618 3.33659 0
M  V30 493 O 42.8599 -0.413744 3.99564 0
M  V30 494 N 41.0659 0.332931 2.88687 0
M  V30 495 H 40.6129 1.04996 2.35231 0
M  V30 496 H 40.5709 -0.507665 3.10274 0
M  V30 497 N 44.343 -0.763751 1.37857 0
M  V30 498 C 45.29 -1.87726 1.34267 0
M  V30 499 C 46.26 -1.64807 0.206879 0
M  V30 500 O 47.445 -1.86613 0.397508 0
M  V30 501 C 44.585 -3.24896 1.16346 0
M  V30 502 C 43.698 -3.59716 2.39225 0
M  V30 503 C 42.833 -4.86137 2.14114 0
M  V30 504 C 41.872 -5.13711 3.32817 0
M  V30 505 N 41.009 -6.31323 3.07206 0
M  V30 506 H 45.849 -1.90129 2.29466 0
M  V30 507 H 43.386 -0.929433 1.14017 0
M  V30 508 H 45.344 -4.04036 1.03975 0
M  V30 509 H 43.974 -3.21847 0.247909 0
M  V30 510 H 43.026 -2.75498 2.62307 0
M  V30 511 H 44.338 -3.76027 3.27728 0
M  V30 512 H 43.492 -5.73198 1.9882 0
M  V30 513 H 42.231 -4.71945 1.22961 0
M  V30 514 H 41.236 -4.25123 3.48641 0
M  V30 515 H 42.461 -5.29807 4.24832 0
M  V30 516 H 40.407 -6.18474 2.1869 0
M  V30 517 H 40.324 -6.48087 3.89254 0
M  V30 518 H 41.592 -7.213 2.95546 0
M  V30 519 N 45.8211 -1.22559 -0.990812 0
M  V30 520 C 46.7511 -1.0218 -2.09956 0
M  V30 521 C 47.7321 0.0579394 -1.70001 0
M  V30 522 O 48.9171 -0.104684 -1.93918 0
M  V30 523 C 46.0471 -0.601023 -3.4206 0
M  V30 524 C 45.0011 -1.62694 -3.95872 0
M  V30 525 C 44.3271 -1.06193 -5.24049 0
M  V30 526 C 45.6271 -3.01743 -4.2632 0
M  V30 527 H 47.3211 -1.94916 -2.27262 0
M  V30 528 H 44.8671 -0.938566 -1.09211 0
M  V30 529 H 46.8201 -0.445561 -4.19038 0
M  V30 530 H 45.5441 0.362005 -3.24588 0
M  V30 531 H 44.2031 -1.77021 -3.21028 0
M  V30 532 H 43.8511 -0.0901903 -5.02919 0
M  V30 533 H 43.5511 -1.74732 -5.61019 0
M  V30 534 H 45.0751 -0.918092 -6.03658 0
M  V30 535 H 46.4891 -2.90777 -4.94087 0
M  V30 536 H 44.8861 -3.67425 -4.74467 0
M  V30 537 H 45.9561 -3.51518 -3.34011 0
M  V30 538 N 47.2992 1.18797 -1.03562 0
M  V30 539 C 48.5472 1.88278 -0.734569 0
M  V30 540 C 48.8682 1.8043 0.739586 0
M  V30 541 O 48.1382 1.21925 1.53333 0
M  V30 542 H 46.7182 0.696991 -0.268725 0
M  V30 543 H 49.3802 1.44192 -1.31129 0
M  V30 544 H 48.4762 2.94443 -1.03489 0
M  V30 545 N 48.7773 0.814389 1.34928 0
M  V30 546 C 50.0023 0.410097 2.03305 0
M  V30 547 C 50.4273 -0.973464 1.60951 0
M  V30 548 O 49.7853 -1.63185 0.789964 0
M  V30 549 C 49.8333 0.51049 3.56968 0
M  V30 550 O 48.9373 -0.473035 4.09678 0
M  V30 551 H 48.2783 0.170088 0.641846 0
M  V30 552 H 50.8083 1.10244 1.72358 0
M  V30 553 H 50.8183 0.383135 4.06197 0
M  V30 554 H 49.4933 1.51963 3.87144 0
M  V30 555 H 48.0703 -0.305272 3.71648 0
M  V30 556 N 50.2554 -1.46986 0.568584 0
M  V30 557 C 51.1654 -2.33942 -0.17555 0
M  V30 558 C 52.1814 -1.48891 -0.90041 0
M  V30 559 O 53.3574 -1.81794 -0.86676 0
M  V30 560 C 50.4224 -3.25811 -1.18524 0
M  V30 561 C 49.4834 -4.26757 -0.466582 0
M  V30 562 C 48.7164 -5.14236 -1.42817 0
M  V30 563 O 48.9394 -5.04379 -2.66379 0
M  V30 564 O 47.8734 -5.94412 -0.946453 0
M  V30 565 H 51.6994 -2.98896 0.538036 0
M  V30 566 H 49.2844 -1.4573 0.329097 0
M  V30 567 H 51.1664 -3.82527 -1.76779 0
M  V30 568 H 49.8414 -2.63471 -1.88055 0
M  V30 569 H 48.7484 -3.73769 0.157451 0
M  V30 570 H 50.0814 -4.91843 0.187485 0
M  V30 571 N 51.7335 -0.305618 -1.54608 0
M  V30 572 C 52.6635 0.561482 -2.26649 0
M  V30 573 C 53.6445 1.13415 -1.26772 0
M  V30 574 O 54.8295 1.16262 -1.55553 0
M  V30 575 C 51.9595 1.73122 -3.01075 0
M  V30 576 C 50.9135 1.2887 -4.08138 0
M  V30 577 C 50.2395 2.54396 -4.70305 0
M  V30 578 C 51.5395 0.416578 -5.20636 0
M  V30 579 H 53.2335 -0.0393902 -2.99374 0
M  V30 580 H 50.7795 -0.020385 -1.43986 0
M  V30 581 H 52.7325 2.34396 -3.50195 0
M  V30 582 H 51.4565 2.3584 -2.25936 0
M  V30 583 H 50.1155 0.698991 -3.59875 0
M  V30 584 H 49.7635 3.15439 -3.918 0
M  V30 585 H 49.4635 2.25486 -5.42614 0
M  V30 586 H 50.9875 3.16464 -5.2219 0
M  V30 587 H 52.4015 0.935116 -5.65622 0
M  V30 588 H 50.7985 0.221046 -5.99693 0
M  V30 589 H 51.8685 -0.557162 -4.81688 0
M  V30 590 N 53.2116 1.57565 -0.0334293 0
M  V30 591 C 54.1586 2.10478 0.946981 0
M  V30 592 C 55.1286 1.00787 1.32027 0
M  V30 593 O 56.3136 1.28232 1.41284 0
M  V30 594 C 53.4536 2.63994 2.22263 0
M  V30 595 C 52.5666 3.87709 1.90541 0
M  V30 596 C 51.7016 4.29604 3.12433 0
M  V30 597 C 50.7406 5.46065 2.76549 0
M  V30 598 N 49.8776 5.83096 3.9108 0
M  V30 599 H 54.7176 2.93963 0.488846 0
M  V30 600 H 52.2546 1.45296 0.22969 0
M  V30 601 H 54.2126 2.93114 2.96884 0
M  V30 602 H 52.8426 1.83333 2.65685 0
M  V30 603 H 51.8946 3.65291 1.06144 0
M  V30 604 H 53.2066 4.72403 1.60116 0
M  V30 605 H 52.3606 4.60182 3.9537 0
M  V30 606 H 51.0996 3.43685 3.46023 0
M  V30 607 H 50.1046 5.15176 1.92026 0
M  V30 608 H 51.3296 6.33685 2.44171 0
M  V30 609 H 49.2756 5.00132 4.24504 0
M  V30 610 H 49.1926 6.6244 3.64293 0
M  V30 611 H 50.4606 6.18282 4.74708 0
M  V30 612 N 54.6897 -0.239769 1.55765 0
M  V30 613 C 55.9377 -0.964892 1.77579 0
M  V30 614 C 56.2587 -1.85582 0.598699 0
M  V30 615 O 55.5287 -1.92075 -0.385226 0
M  V30 616 H 54.1087 -0.359265 0.654933 0
M  V30 617 H 56.7707 -0.256001 1.93211 0
M  V30 618 H 55.8667 -1.58243 2.69009 0
M  V30 619 N 56.1678 -1.49265 -0.50573 0
M  V30 620 C 57.1148 -1.65585 -1.6078 0
M  V30 621 C 58.0848 -0.497396 -1.58478 0
M  V30 622 O 59.2698 -0.72385 -1.76536 0
M  V30 623 C 56.4098 -1.72408 -2.98948 0
M  V30 624 C 55.5228 -2.99525 -3.11301 0
M  V30 625 C 54.6578 -2.97356 -4.40174 0
M  V30 626 C 53.6968 -4.19074 -4.46143 0
M  V30 627 N 52.8338 -4.14841 -5.66437 0
M  V30 628 H 57.6738 -2.59688 -1.46172 0
M  V30 629 H 55.2108 -1.28761 -0.711261 0
M  V30 630 H 57.1688 -1.74344 -3.79025 0
M  V30 631 H 55.7988 -0.817753 -3.1227 0
M  V30 632 H 54.8508 -3.07222 -2.24318 0
M  V30 633 H 56.1628 -3.89518 -3.11572 0
M  V30 634 H 55.3168 -2.97829 -5.28567 0
M  V30 635 H 54.0558 -2.05133 -4.42461 0
M  V30 636 H 53.0608 -4.1885 -3.56153 0
M  V30 637 H 54.2858 -5.12483 -4.45575 0
M  V30 638 H 52.2318 -3.25453 -5.69575 0
M  V30 639 H 52.1488 -4.98564 -5.68304 0
M  V30 640 H 53.4168 -4.1941 -6.57051 0
M  V30 641 N 57.6459 0.756429 -1.3826 0
M  V30 642 C 58.8709 1.55077 -1.37717 0
M  V30 643 C 59.2959 1.88073 0.03164 0
M  V30 644 O 58.6539 1.50364 1.01293 0
M  V30 645 C 58.7019 2.8283 -2.23695 0
M  V30 646 O 57.8059 3.77862 -1.6521 0
M  V30 647 H 57.1469 0.469152 -0.469885 0
M  V30 648 H 59.6769 0.935019 -1.81985 0
M  V30 649 H 59.6869 3.31783 -2.37453 0
M  V30 650 H 58.3619 2.58144 -3.2609 0
M  V30 651 H 56.9389 3.36555 -1.60578 0
M  V30 652 N 59.124 1.23083 0.984299 0
M  V30 653 C 60.373 1.05466 1.71929 0
M  V30 654 C 60.686 -0.409211 1.91272 0
M  V30 655 O 61.892 -0.705226 2.62181 0
M  V30 656 C 60.348 1.83874 3.09384 0
M  V30 657 C 59.956 3.34566 2.97943 0
M  V30 658 C 61.7 1.74734 3.8687 0
M  V30 659 C 59.607 4.05381 4.30605 0
M  V30 660 H 58.537 0.391039 0.644674 0
M  V30 661 H 61.188 1.47013 1.09815 0
M  V30 662 H 59.57 1.35131 3.72231 0
M  V30 663 H 60.744 3.90767 2.44209 0
M  V30 664 H 59.059 3.44476 2.33934 0
M  V30 665 H 61.656 2.24957 4.85076 0
M  V30 666 H 61.999 0.709372 4.10212 0
M  V30 667 H 62.532 2.21067 3.30717 0
M  V30 668 H 59.271 5.09467 4.1246 0
M  V30 669 H 58.791 3.53967 4.84218 0
M  V30 670 H 60.47 4.11458 4.99311 0
M  V30 671 N 60.6021 -1.18246 1.0419 0
M  V30 672 C 61.5651 -2.20128 0.638452 0
M  V30 673 C 62.5651 -1.57885 -0.304805 0
M  V30 674 O 63.7551 -1.73967 -0.0900369 0
M  V30 675 C 60.8871 -3.4084 -0.0637751 0
M  V30 676 H 62.0801 -2.57336 1.54007 0
M  V30 677 H 59.6331 -1.32152 0.834598 0
M  V30 678 H 60.3681 -3.09166 -0.979136 0
M  V30 679 H 60.1531 -3.8726 0.614198 0
M  V30 680 H 61.6431 -4.16274 -0.332512 0
M  V30 681 N 62.0802 -0.821533 -1.34494 0
M  V30 682 C 63.0102 -0.257138 -2.3208 0
M  V30 683 C 63.9912 0.625645 -1.58176 0
M  V30 684 O 65.1762 0.552811 -1.86166 0
M  V30 685 C 62.3062 0.582958 -3.42372 0
M  V30 686 C 61.2602 -0.202571 -4.2752 0
M  V30 687 C 60.5862 0.760179 -5.29269 0
M  V30 688 C 61.8862 -1.40998 -5.02908 0
M  V30 689 H 63.5802 -1.07247 -2.79532 0
M  V30 690 H 61.1262 -0.517163 -1.34393 0
M  V30 691 H 63.0792 0.987972 -4.09655 0
M  V30 692 H 61.8032 1.43133 -2.93565 0
M  V30 693 H 60.4622 -0.588936 -3.61838 0
M  V30 694 H 60.1102 1.60447 -4.76724 0
M  V30 695 H 59.8102 0.238809 -5.87115 0
M  V30 696 H 61.3342 1.16308 -5.9942 0
M  V30 697 H 62.7482 -1.07905 -5.63054 0
M  V30 698 H 61.1452 -1.86689 -5.70322 0
M  V30 699 H 62.2152 -2.1889 -4.32684 0
M  V30 700 N 63.5583 1.46682 -0.576371 0
M  V30 701 C 64.8043 2.02712 -0.0596221 0
M  V30 702 C 65.1373 1.44765 1.29448 0
M  V30 703 O 64.4123 0.610355 1.84675 0
M  V30 704 C 64.6953 3.60098 0.0129503 0
M  V30 705 C 64.5483 4.28441 -1.3696 0
M  V30 706 C 65.8673 4.34224 0.71678 0
M  V30 707 H 62.9863 0.736637 -0.0231407 0
M  V30 708 H 65.6283 1.74898 -0.742351 0
M  V30 709 H 63.7783 3.83926 0.594378 0
M  V30 710 H 65.4503 4.15896 -1.9957 0
M  V30 711 H 63.6933 3.8805 -1.93907 0
M  V30 712 H 64.3643 5.3716 -1.27135 0
M  V30 713 H 66.8403 4.15503 0.222908 0
M  V30 714 H 65.7163 5.43936 0.73657 0
M  V30 715 H 65.9773 4.04823 1.77682 0
M  V30 716 N 65.0364 0.313813 1.54444 0
M  V30 717 C 66.2834 -0.291675 2.00388 0
M  V30 718 C 66.6114 -1.52904 1.2021 0
M  V30 719 O 65.8664 -1.93833 0.269707 0
M  V30 720 C 66.1654 -0.680386 3.50864 0
M  V30 721 C 65.8314 0.456699 4.48581 0
M  V30 722 C 64.4934 0.768824 4.75018 0
M  V30 723 C 66.8454 1.22098 5.06697 0
M  V30 724 C 64.1734 1.84812 5.56831 0
M  V30 725 C 66.5254 2.29029 5.89685 0
M  V30 726 C 65.1894 2.60834 6.14428 0
M  V30 727 H 64.4594 -0.106732 0.733273 0
M  V30 728 H 67.1064 0.43557 1.86481 0
M  V30 729 H 65.4114 -1.48791 3.62448 0
M  V30 730 H 67.1084 -1.16026 3.83847 0
M  V30 731 H 63.6984 0.203337 4.28117 0
M  V30 732 H 67.8824 0.993096 4.86263 0
M  V30 733 H 63.1384 2.09912 5.74236 0
M  V30 734 H 67.3124 2.887 6.33739 0
M  V30 735 H 64.9394 3.44596 6.77612 0
M  V30 736 N 66.5145 -1.57545 0.0417849 0
M  V30 737 C 67.7615 -1.92317 -0.634082 0
M  V30 738 C 68.0895 -0.919334 -1.71402 0
M  V30 739 O 67.3445 0.0698253 -1.95575 0
M  V30 740 C 67.6435 -3.33794 -1.27735 0
M  V30 741 C 67.3095 -4.49716 -0.326543 0
M  V30 742 C 65.9715 -4.81156 -0.0648814 0
M  V30 743 C 68.3235 -5.20182 0.325623 0
M  V30 744 C 65.6515 -5.80414 0.856539 0
M  V30 745 C 68.0035 -6.20424 1.23518 0
M  V30 746 C 66.6675 -6.50298 1.5056 0
M  V30 747 H 65.9375 -0.703736 -0.232027 0
M  V30 748 H 68.5845 -1.91205 0.106259 0
M  V30 749 H 66.8895 -3.31228 -2.09274 0
M  V30 750 H 68.5865 -3.57975 -1.80707 0
M  V30 751 H 65.1765 -4.25176 -0.540665 0
M  V30 752 H 69.3605 -4.96112 0.136546 0
M  V30 753 H 64.6165 -6.019 1.07363 0
M  V30 754 H 68.7905 -6.74141 1.74664 0
M  V30 755 H 66.4175 -7.27025 2.22123 0
M  V30 756 N 67.9926 0.231505 -1.5589 0
M  V30 757 C 68.9406 1.30649 -1.92441 0
M  V30 758 C 69.9346 1.49037 -0.805254 0
M  V30 759 O 71.1406 1.50329 -0.990007 0
M  V30 760 H 67.5156 0.437812 -0.611412 0
M  V30 761 H 69.4866 0.970973 -2.82161 0
M  V30 762 C 68.2356 2.65179 -2.24889 0
M  V30 763 H 67.5586 2.51835 -3.10514 0
M  V30 764 H 68.9986 3.39234 -2.54355 0
M  V30 765 C 67.4576 3.19439 -1.07054 0
M  V30 766 O 67.9876 4.00371 -0.326499 0
M  V30 767 N 66.1936 2.77675 -0.85703 0
M  V30 768 H 65.7406 2.11969 -1.46379 0
M  V30 769 H 65.6986 3.14321 -0.0703223 0
M  V30 770 N 69.4707 1.49531 0.497807 0
M  V30 771 C 70.8817 1.52344 1.07927 0
M  V30 772 C 71.2327 0.311469 1.93712 0
M  V30 773 O 70.3577 -0.578405 2.08527 0
M  V30 774 C 70.9527 2.76062 1.96405 0
M  V30 775 C 69.5117 2.81643 2.49709 0
M  V30 776 C 68.6587 2.46299 1.27404 0
M  V30 777 H 71.6097 1.56182 0.281576 0
M  V30 778 H 71.6307 2.56405 2.81135 0
M  V30 779 H 71.1427 3.64254 1.33943 0
M  V30 780 H 69.2437 1.97739 3.15801 0
M  V30 781 H 69.3567 3.83891 2.86643 0
M  V30 782 H 67.7207 1.98148 1.60029 0
M  V30 783 H 68.5037 3.36769 0.66645 0
M  V30 784 N 70.9488 -0.749086 1.3866 0
M  V30 785 C 72.1738 -1.54344 1.38538 0
M  V30 786 C 72.5988 -1.88088 -0.0216655 0
M  V30 787 O 71.9568 -1.50899 -1.00494 0
M  V30 788 C 72.0048 -2.8164 2.25192 0
M  V30 789 O 71.1088 -3.7698 1.67212 0
M  V30 790 H 70.4498 -0.466654 0.472367 0
M  V30 791 H 72.9798 -0.925355 1.82478 0
M  V30 792 H 72.9898 -3.30519 2.3921 0
M  V30 793 H 71.6648 -2.56411 3.27454 0
M  V30 794 H 70.2418 -3.35699 1.6236 0
M  V30 795 N 72.4269 -1.23603 -0.977757 0
M  V30 796 C 73.3599 -0.962772 -2.06896 0
M  V30 797 C 74.3379 0.0998743 -1.62293 0
M  V30 798 O 75.5219 -0.0349421 -1.88468 0
M  V30 799 C 72.6489 -0.45095 -3.35685 0
M  V30 800 C 71.6949 -1.50061 -3.99229 0
M  V30 801 S 72.5279 -3.07884 -4.38142 0
M  V30 802 C 73.6839 -2.58378 -5.7008 0
M  V30 803 H 73.9169 -1.88677 -2.29757 0
M  V30 804 H 71.4499 -1.06876 -1.11431 0
M  V30 805 H 73.4079 -0.162261 -4.10179 0
M  V30 806 H 72.0689 0.452179 -3.10828 0
M  V30 807 H 71.2619 -1.09269 -4.92013 0
M  V30 808 H 70.8639 -1.73878 -3.31123 0
M  V30 809 H 73.1559 -2.00563 -6.47133 0
M  V30 810 H 74.0989 -3.49711 -6.15717 0
M  V30 811 H 74.5069 -1.99143 -5.28207 0
M  V30 812 N 73.905 1.17692 -1.04816 0
M  V30 813 C 75.321 1.39863 -0.768794 0
M  V30 814 C 75.521 1.91118 0.638451 0
M  V30 815 O 74.577 2.10036 1.40146 0
M  V30 816 C 75.89 2.39274 -1.82122 0
M  V30 817 C 77.438 2.52987 -1.843 0
M  V30 818 C 77.913 3.55669 -2.88555 0
M  V30 819 N 79.404 3.63183 -2.87493 0
M  V30 820 C 80.139 4.42381 -3.64811 0
M  V30 821 N 79.635 5.25125 -4.51903 0
M  V30 822 N 81.428 4.37217 -3.53267 0
M  V30 823 H 73.579 0.82752 -1.95617 0
M  V30 824 H 75.842 0.426123 -0.846831 0
M  V30 825 H 75.548 2.08678 -2.83102 0
M  V30 826 H 75.422 3.38725 -1.65967 0
M  V30 827 H 77.809 2.82896 -0.839869 0
M  V30 828 H 77.89 1.53623 -2.04532 0
M  V30 829 H 77.534 3.26499 -3.89051 0
M  V30 830 H 77.464 4.54728 -2.65575 0
M  V30 831 H 79.955 3.04103 -2.24343 0
M  V30 832 H 80.268 5.82728 -5.07591 0
M  V30 833 H 78.613 5.24519 -4.55966 0
M  V30 834 H 81.804 3.71626 -2.84625 0
M  V30 835 H 81.977 4.98696 -4.13771 0
M  V30 836 N 75.3831 0.828654 1.34056 0
M  V30 837 C 76.6111 0.43262 2.02326 0
M  V30 838 C 77.0261 -0.963147 1.62385 0
M  V30 839 O 76.3831 -1.62425 0.832121 0
M  V30 840 C 76.4341 0.53182 3.57567 0
M  V30 841 O 76.1551 1.87258 3.96063 0
M  V30 842 C 77.6561 0.131422 4.43105 0
M  V30 843 H 74.8761 0.172923 0.648335 0
M  V30 844 H 77.4201 1.1184 1.71208 0
M  V30 845 H 75.5751 -0.105938 3.87255 0
M  V30 846 H 75.9891 1.85087 4.90758 0
M  V30 847 H 77.4631 0.251904 5.51425 0
M  V30 848 H 77.9401 -0.925645 4.29335 0
M  V30 849 H 78.5461 0.743207 4.18756 0
M  V30 850 N 76.8612 -1.46375 0.584142 0
M  V30 851 C 78.2772 -1.57694 0.245929 0
M  V30 852 C 78.4772 -1.57903 -1.25175 0
M  V30 853 O 77.5332 -1.49676 -2.03355 0
M  V30 854 C 78.8462 -2.87028 0.896402 0
M  V30 855 C 80.3942 -3.00662 0.870127 0
M  V30 856 C 80.8692 -4.32734 1.50017 0
M  V30 857 N 82.3602 -4.39436 1.46458 0
M  V30 858 C 83.0952 -5.40248 1.92144 0
M  V30 859 N 82.5912 -6.47726 2.4581 0
M  V30 860 N 84.3842 -5.31459 1.83052 0
M  V30 861 H 76.5352 -1.44483 1.55687 0
M  V30 862 H 78.7982 -0.689291 0.650831 0
M  V30 863 H 78.5042 -2.9269 1.95002 0
M  V30 864 H 78.3782 -3.75014 0.405486 0
M  V30 865 H 80.7652 -2.94581 -0.174871 0
M  V30 866 H 80.8462 -2.14148 1.39908 0
M  V30 867 H 80.4902 -4.39573 2.54437 0
M  V30 868 H 80.4202 -5.18025 0.946432 0
M  V30 869 H 82.9112 -3.62367 1.07231 0
M  V30 870 H 83.2242 -7.20863 2.78525 0
M  V30 871 H 81.5692 -6.48542 2.49836 0
M  V30 872 H 84.7602 -4.46396 1.40883 0
M  V30 873 H 84.9332 -6.09881 2.18973 0
M  V30 874 N 78.3393 -0.321999 -1.54275 0
M  V30 875 C 79.5673 0.283052 -2.04955 0
M  V30 876 C 79.9823 1.45904 -1.19823 0
M  V30 877 O 79.3393 1.81063 -0.228545 0
M  V30 878 C 79.3903 0.719028 -3.54277 0
M  V30 879 O 79.1113 -0.410175 -4.36176 0
M  V30 880 C 80.6123 1.38705 -4.21041 0
M  V30 881 H 77.8323 0.0584616 -0.668448 0
M  V30 882 H 80.3763 -0.467734 -1.99079 0
M  V30 883 H 78.5313 1.41979 -3.60445 0
M  V30 884 H 78.9453 -0.0669416 -5.24457 0
M  V30 885 H 80.4193 1.64306 -5.2698 0
M  V30 886 H 80.8963 2.33385 -3.72059 0
M  V30 887 H 81.5023 0.728906 -4.19007 0
M  V30 888 N 79.8174 1.5752 -0.0501392 0
M  V30 889 C 81.0424 1.97376 0.636997 0
M  V30 890 C 81.4674 0.927466 1.63645 0
M  V30 891 O 80.8254 -0.10941 1.8097 0
M  V30 892 C 80.8734 3.36304 1.30123 0
M  V30 893 O 79.9774 3.34156 2.41689 0
M  V30 894 H 79.3184 0.642998 0.165679 0
M  V30 895 H 81.8484 2.04258 -0.118233 0
M  V30 896 H 81.8584 3.73008 1.65315 0
M  V30 897 H 80.5334 4.11993 0.568746 0
M  V30 898 H 79.1104 3.09196 2.08451 0
M  V30 899 N 81.2955 -0.223234 1.56011 0
M  V30 900 C 82.5425 -0.947875 1.78946 0
M  V30 901 C 82.8705 -1.844 0.618608 0
M  V30 902 O 82.1255 -1.91629 -0.397093 0
M  V30 903 C 82.4245 -1.81948 3.0762 0
M  V30 904 C 82.0905 -1.07672 4.37856 0
M  V30 905 C 80.7525 -0.871544 4.73242 0
M  V30 906 C 83.1045 -0.552081 5.18268 0
M  V30 907 C 80.4325 -0.129791 5.86556 0
M  V30 908 C 82.7845 0.17632 6.32354 0
M  V30 909 C 81.4485 0.39277 6.66343 0
M  V30 910 H 80.7185 -0.346852 0.654809 0
M  V30 911 H 83.3655 -0.216171 1.90276 0
M  V30 912 H 81.6705 -2.61899 2.91404 0
M  V30 913 H 83.3675 -2.38227 3.22566 0
M  V30 914 H 79.9575 -1.24662 4.1007 0
M  V30 915 H 84.1415 -0.698076 4.91366 0
M  V30 916 H 79.3975 0.048153 6.11381 0
M  V30 917 H 83.5715 0.590367 6.93893 0
M  V30 918 H 81.1985 0.969466 7.53993 0
M  V30 919 N 82.7736 -1.49793 -0.48987 0
M  V30 920 C 83.6836 -1.70036 -1.61632 0
M  V30 921 C 84.6996 -0.583102 -1.63939 0
M  V30 922 O 85.8756 -0.859169 -1.82154 0
M  V30 923 C 82.9406 -1.77277 -2.97949 0
M  V30 924 C 82.0016 -3.00918 -3.06181 0
M  V30 925 C 81.2346 -3.07804 -4.35996 0
M  V30 926 O 81.4576 -2.21982 -5.25433 0
M  V30 927 O 80.3916 -4.00369 -4.49431 0
M  V30 928 H 84.2176 -2.65486 -1.47482 0
M  V30 929 H 81.8026 -1.33666 -0.667362 0
M  V30 930 H 83.6846 -1.84329 -3.78947 0
M  V30 931 H 82.3596 -0.850076 -3.12339 0
M  V30 932 H 81.2666 -2.99377 -2.2433 0
M  V30 933 H 82.5996 -3.92704 -2.96723 0
M  V30 934 N 84.2517 0.741722 -1.39055 0
M  V30 935 C 85.1817 1.869 -1.39966 0
M  V30 936 C 86.1627 1.6804 -0.26392 0
M  V30 937 O 87.3477 1.88458 -0.468755 0
M  V30 938 C 84.4777 3.24572 -1.23574 0
M  V30 939 C 83.4317 3.58056 -2.34477 0
M  V30 940 C 82.7577 4.94593 -2.0318 0
M  V30 941 C 84.0577 3.61716 -3.76774 0
M  V30 942 H 85.7517 1.86395 -2.34302 0
M  V30 943 H 83.2977 0.895361 -1.1278 0
M  V30 944 H 85.2507 4.031 -1.22834 0
M  V30 945 H 83.9747 3.25587 -0.257045 0
M  V30 946 H 82.6337 2.81854 -2.34423 0
M  V30 947 H 82.2817 4.92181 -1.03765 0
M  V30 948 H 81.9817 5.17964 -2.77465 0
M  V30 949 H 83.5057 5.75486 -2.04079 0
M  V30 950 H 84.9197 4.30335 -3.78794 0
M  V30 951 H 83.3167 3.96603 -4.50362 0
M  V30 952 H 84.3867 2.61672 -4.08235 0
M  V30 953 N 85.7298 1.2412 0.971189 0
M  V30 954 C 86.9778 1.07668 1.71032 0
M  V30 955 C 87.2988 -0.385797 1.91146 0
M  V30 956 O 86.5688 -1.27569 1.4867 0
M  V30 957 H 85.1488 0.395429 0.633755 0
M  V30 958 H 87.8108 1.55984 1.16855 0
M  V30 959 H 86.9068 1.57195 2.69622 0
M  V30 960 N 87.2079 -1.17134 1.05439 0
M  V30 961 C 88.1709 -2.19439 0.661764 0
M  V30 962 C 89.1709 -1.58199 -0.288042 0
M  V30 963 O 90.3609 -1.74053 -0.0715803 0
M  V30 964 C 87.4929 -3.40889 -0.0276209 0
M  V30 965 H 88.6859 -2.55688 1.56728 0
M  V30 966 H 86.2389 -1.31259 0.848567 0
M  V30 967 H 86.9739 -3.10187 -0.94629 0
M  V30 968 H 86.7589 -3.86586 0.655238 0
M  V30 969 H 88.2489 -4.16603 -0.288342 0
M  V30 970 N 88.686 -0.835752 -1.33615 0
M  V30 971 C 89.933 -0.429959 -1.97883 0
M  V30 972 C 90.261 1.01006 -1.66217 0
M  V30 973 O 89.516 1.72047 -0.93265 0
M  V30 974 C 89.815 -0.593925 -3.52431 0
M  V30 975 C 89.481 -2.00158 -4.04039 0
M  V30 976 C 88.143 -2.38662 -4.17844 0
M  V30 977 C 90.495 -2.92117 -4.31644 0
M  V30 978 C 87.823 -3.68435 -4.56588 0
M  V30 979 C 90.175 -4.21368 -4.71838 0
M  V30 980 C 88.839 -4.59833 -4.83849 0
M  V30 981 H 88.109 -0.157333 -0.724104 0
M  V30 982 H 90.756 -1.06217 -1.59343 0
M  V30 983 H 89.061 0.121619 -3.91611 0
M  V30 984 H 90.758 -0.260282 -4.00154 0
M  V30 985 H 87.348 -1.69252 -3.93766 0
M  V30 986 H 91.532 -2.63608 -4.20505 0
M  V30 987 H 86.788 -3.98046 -4.64079 0
M  V30 988 H 90.962 -4.92703 -4.92155 0
M  V30 989 H 88.589 -5.60438 -5.13627 0
M  V30 990 N 90.1641 1.46063 -0.591896 0
M  V30 991 C 91.0961 2.28539 0.174001 0
M  V30 992 C 92.1091 1.39047 0.846753 0
M  V30 993 O 93.2981 1.63564 0.714774 0
M  V30 994 C 90.3981 3.14347 1.26645 0
M  V30 995 C 89.5711 4.32021 0.683856 0
M  V30 996 C 88.6301 4.99157 1.66518 0
M  V30 997 O 87.6561 5.56458 1.19763 0
M  V30 998 N 88.8581 4.97005 2.99943 0
M  V30 999 H 91.6231 2.94911 -0.533633 0
M  V30 1000 H 89.1841 1.56077 -0.430294 0
M  V30 1001 H 91.1761 3.56125 1.92242 0
M  V30 1002 H 89.7461 2.49988 1.87682 0
M  V30 1003 H 88.9661 3.93915 -0.1498 0
M  V30 1004 H 90.2541 5.08059 0.274567 0
M  V30 1005 H 89.6521 4.51714 3.40545 0
M  V30 1006 H 88.2091 5.42696 3.61004 0
M  V30 1007 N 91.6422 0.330177 1.54103 0
M  V30 1008 C 92.5722 -0.525353 2.27513 0
M  V30 1009 C 93.5532 -1.11383 1.2856 0
M  V30 1010 O 94.7382 -1.13773 1.57383 0
M  V30 1011 C 91.8682 -1.6831 3.03791 0
M  V30 1012 C 90.8222 -1.2236 4.10137 0
M  V30 1013 C 90.1482 -2.46882 4.74293 0
M  V30 1014 C 91.4482 -0.333697 5.21233 0
M  V30 1015 H 93.1422 0.087013 2.99274 0
M  V30 1016 H 90.6882 0.0432893 1.43935 0
M  V30 1017 H 92.6412 -2.28795 3.5388 0
M  V30 1018 H 91.3652 -2.32216 2.29659 0
M  V30 1019 H 90.0242 -0.64165 3.60941 0
M  V30 1020 H 89.6722 -3.09165 3.96769 0
M  V30 1021 H 89.3722 -2.16825 5.46133 0
M  V30 1022 H 90.8962 -3.08117 5.27159 0
M  V30 1023 H 92.3102 -0.845013 5.67038 0
M  V30 1024 H 90.7072 -0.125612 5.99969 0
M  V30 1025 H 91.7772 0.633724 4.80741 0
M  V30 1026 N 93.1203 -1.57491 0.0584922 0
M  V30 1027 C 94.3683 -1.92597 -0.612436 0
M  V30 1028 C 94.6893 -0.938162 -1.70949 0
M  V30 1029 O 93.9593 0.0158301 -1.95894 0
M  V30 1030 H 92.5393 -0.710964 -0.229214 0
M  V30 1031 H 95.2013 -1.94571 0.113218 0
M  V30 1032 H 94.2973 -2.94038 -1.04633 0
M  V30 1033 N 94.5984 0.214957 -1.56127 0
M  V30 1034 C 95.8464 0.936518 -1.79091 0
M  V30 1035 C 96.1674 1.84606 -0.628148 0
M  V30 1036 O 95.4374 1.92664 0.35462 0
M  V30 1037 H 94.0174 0.3488 -0.660566 0
M  V30 1038 H 96.6794 0.22523 -1.93594 0
M  V30 1039 H 95.7754 1.53943 -2.71492 0
M  V30 1040 N 96.0765 1.50051 0.48192 0
M  V30 1041 C 97.0265 1.64512 1.5786 0
M  V30 1042 C 98.0105 0.500073 1.52932 0
M  V30 1043 O 99.2025 0.753964 1.60139 0
M  V30 1044 C 96.3315 1.73263 2.9637 0
M  V30 1045 C 95.4175 2.93409 3.06222 0
M  V30 1046 N 95.8085 4.17236 2.85915 0
M  V30 1047 C 94.1065 2.91742 3.37346 0
M  V30 1048 C 94.8075 4.981 3.00451 0
M  V30 1049 N 93.7835 4.3184 3.30174 0
M  V30 1050 H 97.5855 2.57955 1.40842 0
M  V30 1051 H 95.0995 1.47086 0.688439 0
M  V30 1052 H 97.0965 1.81724 3.75209 0
M  V30 1053 H 95.7565 0.809711 3.14442 0
M  V30 1054 H 96.7675 4.46909 2.6171 0
M  V30 1055 H 93.4445 2.08907 3.61475 0
M  V30 1056 H 94.8345 6.06532 2.89082 0
M  V30 1057 N 97.5546 -0.734337 1.39446 0
M  V30 1058 C 98.5176 -1.83004 1.37994 0
M  V30 1059 C 99.5176 -1.58397 0.276938 0
M  V30 1060 O 100.708 -1.65785 0.534875 0
M  V30 1061 C 97.8396 -3.20802 1.1532 0
M  V30 1062 H 99.0326 -1.85694 2.35494 0
M  V30 1063 H 96.5856 -0.938059 1.25021 0
M  V30 1064 H 97.3206 -3.23772 0.185036 0
M  V30 1065 H 97.1056 -3.4006 1.95197 0
M  V30 1066 H 98.5956 -4.00862 1.17046 0
M  V30 1067 N 99.0327 -1.24633 -0.964593 0
M  V30 1068 C 100.279 -1.08949 -1.71049 0
M  V30 1069 C 100.612 0.370302 -1.90637 0
M  V30 1070 O 99.8867 1.27349 -1.47011 0
M  V30 1071 C 100.17 -1.83329 -3.0994 0
M  V30 1072 C 100.023 -3.37077 -2.97824 0
M  V30 1073 C 101.342 -1.60846 -4.09654 0
M  V30 1074 H 98.4607 -0.397178 -0.620821 0
M  V30 1075 H 101.103 -1.5334 -1.12191 0
M  V30 1076 H 99.2527 -1.45597 -3.60186 0
M  V30 1077 H 100.925 -3.84425 -2.5498 0
M  V30 1078 H 99.1677 -3.65298 -2.33965 0
M  V30 1079 H 99.8387 -3.84324 -3.96231 0
M  V30 1080 H 102.315 -1.93674 -3.68279 0
M  V30 1081 H 101.191 -2.1534 -5.04896 0
M  V30 1082 H 101.452 -0.547434 -4.38698 0
M  V30 1083 N 100.511 1.16574 -1.06058 0
M  V30 1084 C 101.757 1.87324 -0.777022 0
M  V30 1085 C 102.09 1.81351 0.694645 0
M  V30 1086 O 101.365 1.22753 1.50871 0
M  V30 1087 C 101.648 3.36991 -1.26922 0
M  V30 1088 C 101.501 3.51667 -2.80447 0
M  V30 1089 C 102.82 4.3131 -0.87521 0
M  V30 1090 H 99.9388 0.680191 -0.28374 0
M  V30 1091 H 102.581 1.37036 -1.3161 0
M  V30 1092 H 100.731 3.79949 -0.81063 0
M  V30 1093 H 102.403 3.17664 -3.34495 0
M  V30 1094 H 100.646 2.93656 -3.19294 0
M  V30 1095 H 101.317 4.56766 -3.0995 0
M  V30 1096 H 103.793 3.9624 -1.27014 0
M  V30 1097 H 102.669 5.34545 -1.2471 0
M  V30 1098 H 102.93 4.41552 0.220071 0
M  V30 1099 N 101.989 0.842826 1.3317 0
M  V30 1100 C 102.919 0.294028 2.31641 0
M  V30 1101 C 103.9 -0.600401 1.59151 0
M  V30 1102 O 105.085 -0.523124 1.87022 0
M  V30 1103 C 102.215 -0.528416 3.43257 0
M  V30 1104 C 101.169 0.27056 4.27144 0
M  V30 1105 C 100.495 -0.675881 5.30411 0
M  V30 1106 C 101.795 1.48981 5.00602 0
M  V30 1107 H 103.489 1.11681 2.77791 0
M  V30 1108 H 101.035 0.538478 1.33553 0
M  V30 1109 H 102.988 -0.922674 4.11175 0
M  V30 1110 H 101.712 -1.38445 2.95805 0
M  V30 1111 H 100.371 0.646427 3.60856 0
M  V30 1112 H 100.019 -1.52842 4.79216 0
M  V30 1113 H 99.7189 -0.145374 5.8742 0
M  V30 1114 H 101.243 -1.06757 6.01195 0
M  V30 1115 H 102.657 1.16849 5.61266 0
M  V30 1116 H 101.054 1.95739 5.6728 0
M  V30 1117 H 102.124 2.25746 4.29147 0
M  V30 1118 N 103.467 -1.45747 0.599634 0
M  V30 1119 C 104.399 -2.28628 -0.161879 0
M  V30 1120 C 105.412 -1.39494 -0.839367 0
M  V30 1121 O 106.601 -1.63941 -0.706089 0
M  V30 1122 C 103.701 -3.15014 -1.24976 0
M  V30 1123 C 102.874 -4.32378 -0.660935 0
M  V30 1124 C 101.933 -5.00033 -1.63869 0
M  V30 1125 O 100.959 -5.57085 -1.1681 0
M  V30 1126 N 102.161 -4.98589 -2.97303 0
M  V30 1127 H 104.926 -2.94624 0.549265 0
M  V30 1128 H 102.487 -1.55847 0.438565 0
M  V30 1129 H 104.479 -3.5714 -1.9035 0
M  V30 1130 H 103.049 -2.5098 -1.86354 0
M  V30 1131 H 102.269 -3.9383 0.170688 0
M  V30 1132 H 103.557 -5.08197 -0.247619 0
M  V30 1133 H 102.955 -4.53514 -3.38145 0
M  V30 1134 H 101.512 -5.44603 -3.58121 0
M  V30 1135 N 104.945 -0.338344 -1.53925 0
M  V30 1136 C 106.356 0.146651 -1.86123 0
M  V30 1137 C 106.707 1.5042 -1.2597 0
M  V30 1138 O 105.832 2.08723 -0.571294 0
M  V30 1139 C 106.427 0.272879 -3.37699 0
M  V30 1140 C 104.986 0.702103 -3.69794 0
M  V30 1141 C 104.133 -0.167304 -2.76795 0
M  V30 1142 H 107.084 -0.558123 -1.48562 0
M  V30 1143 H 107.105 1.10128 -3.64214 0
M  V30 1144 H 106.617 -0.715307 -3.81451 0
M  V30 1145 H 104.718 1.6995 -3.31584 0
M  V30 1146 H 104.831 0.495604 -4.7653 0
M  V30 1147 H 103.195 0.359527 -2.5215 0
M  V30 1148 H 103.978 -1.15253 -3.23375 0
M  V30 1149 N 106.423 1.57458 -0.0668435 0
M  V30 1150 C 107.671 1.92919 0.602214 0
M  V30 1151 C 107.992 0.947215 1.70449 0
M  V30 1152 O 107.262 -0.00544117 1.95899 0
M  V30 1153 H 105.842 0.71217 0.22544 0
M  V30 1154 H 108.504 1.94508 -0.123535 0
M  V30 1155 H 107.6 2.94589 1.03073 0
M  V30 1156 N 107.901 -0.206675 1.56239 0
M  V30 1157 C 108.848 -1.25617 1.93621 0
M  V30 1158 C 109.818 -1.45824 0.795274 0
M  V30 1159 O 111.003 -1.59148 1.05245 0
M  V30 1160 C 108.143 -2.59839 2.27107 0
M  V30 1161 C 107.256 -2.47308 3.54207 0
M  V30 1162 C 106.391 -3.74155 3.7707 0
M  V30 1163 C 105.43 -3.56407 4.97635 0
M  V30 1164 N 104.567 -4.75238 5.1681 0
M  V30 1165 H 109.407 -0.930383 2.83104 0
M  V30 1166 H 106.944 -0.448065 1.4011 0
M  V30 1167 H 108.902 -3.38021 2.44535 0
M  V30 1168 H 107.532 -2.90485 1.40778 0
M  V30 1169 H 106.584 -1.60483 3.4489 0
M  V30 1170 H 107.896 -2.30122 4.42544 0
M  V30 1171 H 107.05 -4.60778 3.94675 0
M  V30 1172 H 105.789 -3.94282 2.87042 0
M  V30 1173 H 104.794 -2.68168 4.79964 0
M  V30 1174 H 106.019 -3.37736 5.89161 0
M  V30 1175 H 103.965 -4.95651 4.29728 0
M  V30 1176 H 103.882 -4.60835 5.99306 0
M  V30 1177 H 105.15 -5.63246 5.38864 0
M  V30 1178 N 109.379 -1.50304 -0.473955 0
M  V30 1179 C 110.656 -1.51667 -1.23518 0
M  V30 1180 C 111.036 -0.259701 -2.09496 0
M  V30 1181 O 110.384 0.756986 -2.15597 0
M  V30 1182 C 110.594 -2.81082 -2.06868 0
M  V30 1183 C 111.942 -3.31631 -2.65153 0
M  V30 1184 O 112.966 -2.82384 -2.17113 0
M  V30 1185 O 111.825 -4.17471 -3.52675 0
M  V30 1186 H 108.919 -0.60822 -0.560355 0
M  V30 1187 H 111.465 -1.62592 -0.486011 0
M  V30 1188 H 110.237 -3.64041 -1.4349 0
M  V30 1189 H 109.86 -2.73146 -2.88924 0
M  V30 1190 N 110.857 0.726932 -1.39834 0
M  V30 1191 C 111.82 1.82269 -1.38962 0
M  V30 1192 C 112.82 1.58248 -0.285334 0
M  V30 1193 O 114.01 1.65499 -0.54366 0
M  V30 1194 C 111.142 3.20186 -1.17019 0
M  V30 1195 H 112.335 1.84443 -2.36476 0
M  V30 1196 H 109.888 0.931416 -1.25516 0
M  V30 1197 H 110.623 3.23669 -0.202204 0
M  V30 1198 H 110.408 3.3902 -1.96998 0
M  V30 1199 H 111.898 4.00235 -1.1917 0
M  V30 1200 N 112.336 1.25143 0.95797 0
M  V30 1201 C 113.582 1.10863 1.70531 0
M  V30 1202 C 113.937 -0.347391 1.89238 0
M  V30 1203 O 113.23 -1.25262 1.44983 0
M  V30 1204 C 113.424 1.79272 3.09187 0
M  V30 1205 C 113.253 3.31376 3.04006 0
M  V30 1206 C 112.023 4.0062 3.07948 0
M  V30 1207 C 114.221 4.27825 2.8543 0
M  V30 1208 N 112.203 5.39526 2.9289 0
M  V30 1209 C 113.574 5.53794 2.78769 0
M  V30 1210 C 115.629 4.1828 2.70085 0
M  V30 1211 C 114.332 6.7131 2.58331 0
M  V30 1212 C 116.358 5.35485 2.51017 0
M  V30 1213 C 115.72 6.60393 2.45073 0
M  V30 1214 H 111.819 0.460362 0.632132 0
M  V30 1215 H 114.403 1.58196 1.13499 0
M  V30 1216 H 112.574 1.34439 3.64391 0
M  V30 1217 H 114.306 1.57764 3.72683 0
M  V30 1218 H 111.061 3.51855 3.17009 0
M  V30 1219 H 111.485 6.12416 2.88574 0
M  V30 1220 H 116.127 3.22461 2.73457 0
M  V30 1221 H 113.845 7.67243 2.53701 0
M  V30 1222 H 117.431 5.29959 2.40073 0
M  V30 1223 H 116.311 7.49557 2.30509 0
M  V30 1224 N 113.814 -1.1601 1.06675 0
M  V30 1225 C 115.225 -1.68235 0.809565 0
M  V30 1226 C 115.576 -1.8454 -0.666303 0
M  V30 1227 O 114.701 -1.54374 -1.5165 0
M  V30 1228 C 115.296 -3.05585 1.46299 0
M  V30 1229 C 113.855 -3.54915 1.25349 0
M  V30 1230 C 113.002 -2.30804 1.53703 0
M  V30 1231 H 115.953 -1.00318 1.22971 0
M  V30 1232 H 115.974 -3.70174 0.880431 0
M  V30 1233 H 115.486 -2.93686 2.53713 0
M  V30 1234 H 113.587 -3.72067 0.199261 0
M  V30 1235 H 113.7 -4.36774 1.9689 0
M  V30 1236 H 112.064 -2.36007 0.957739 0
M  V30 1237 H 112.847 -2.21499 2.62284 0
M  V30 1238 N 115.292 -0.849877 -1.32721 0
M  V30 1239 C 116.541 -0.447175 -1.96681 0
M  V30 1240 C 116.854 1.00135 -1.68025 0
M  V30 1241 O 118.06 1.50926 -2.25685 0
M  V30 1242 C 116.516 -0.7487 -3.52026 0
M  V30 1243 C 116.124 -2.21264 -3.89546 0
M  V30 1244 C 117.868 -0.413487 -4.22481 0
M  V30 1245 C 115.775 -2.45763 -5.37917 0
M  V30 1246 H 114.705 -0.163486 -0.736063 0
M  V30 1247 H 117.356 -1.03999 -1.51183 0
M  V30 1248 H 115.738 -0.0853727 -3.95908 0
M  V30 1249 H 116.912 -2.91736 -3.56689 0
M  V30 1250 H 115.227 -2.5119 -3.32103 0
M  V30 1251 H 117.824 -0.574017 -5.3161 0
M  V30 1252 H 118.167 0.644492 -4.11281 0
M  V30 1253 H 118.7 -1.03251 -3.84167 0
M  V30 1254 H 115.439 -3.50168 -5.54132 0
M  V30 1255 H 114.959 -1.79864 -5.72197 0
M  V30 1256 H 116.638 -2.29471 -6.0494 0
M  V30 1257 N 116.77 1.45427 -0.607355 0
M  V30 1258 C 117.68 2.34325 0.113463 0
M  V30 1259 C 118.696 1.51226 0.860617 0
M  V30 1260 O 119.872 1.84029 0.818255 0
M  V30 1261 C 116.937 3.28839 1.09844 0
M  V30 1262 C 115.998 4.27844 0.353271 0
M  V30 1263 C 115.231 5.17842 1.29133 0
M  V30 1264 O 115.454 5.11264 2.52913 0
M  V30 1265 O 114.388 5.96713 0.788523 0
M  V30 1266 H 118.214 2.97364 -0.617094 0
M  V30 1267 H 115.799 1.44807 -0.367619 0
M  V30 1268 H 117.681 3.8708 1.66575 0
M  V30 1269 H 116.356 2.68365 1.81003 0
M  V30 1270 H 115.263 3.7322 -0.256494 0
M  V30 1271 H 116.596 4.91173 -0.317822 0
M  V30 1272 N 118.248 0.346503 1.53744 0
M  V30 1273 C 119.495 -0.249104 2.00962 0
M  V30 1274 C 119.823 -1.5032 1.23426 0
M  V30 1275 O 119.078 -1.93217 0.310761 0
M  V30 1276 C 119.377 -0.605809 3.52228 0
M  V30 1277 C 119.043 0.551747 4.47512 0
M  V30 1278 C 117.705 0.86941 4.73281 0
M  V30 1279 C 120.057 1.32818 5.03993 0
M  V30 1280 C 117.385 1.96582 5.52786 0
M  V30 1281 C 119.737 2.41486 5.84694 0
M  V30 1282 C 118.401 2.73808 6.08757 0
M  V30 1283 H 117.671 -0.0911538 0.735372 0
M  V30 1284 H 120.318 0.475027 1.85515 0
M  V30 1285 H 118.623 -1.4107 3.65522 0
M  V30 1286 H 120.32 -1.07858 3.86222 0
M  V30 1287 H 116.91 0.294102 4.2759 0
M  V30 1288 H 121.094 1.09602 4.84047 0
M  V30 1289 H 116.35 2.22045 5.69654 0
M  V30 1290 H 120.524 3.02078 6.27473 0
M  V30 1291 H 118.151 3.58892 6.7015 0
M  V30 1292 N 119.726 -1.57421 0.075193 0
M  V30 1293 C 120.674 -2.14124 -0.908508 0
M  V30 1294 C 121.668 -1.07898 -1.30592 0
M  V30 1295 O 122.874 -1.26273 -1.28277 0
M  V30 1296 H 119.249 -0.684707 -0.310935 0
M  V30 1297 H 121.22 -2.95634 -0.405374 0
M  V30 1298 C 119.969 -2.72044 -2.16535 0
M  V30 1299 H 119.292 -3.53456 -1.86839 0
M  V30 1300 H 120.732 -3.15311 -2.83469 0
M  V30 1301 C 119.191 -1.66968 -2.92615 0
M  V30 1302 O 119.721 -1.0967 -3.86439 0
M  V30 1303 N 117.927 -1.37923 -2.55784 0
M  V30 1304 H 117.474 -1.84706 -1.79559 0
M  V30 1305 H 117.432 -0.67852 -3.06991 0
M  V30 1306 N 121.204 0.198386 -1.56346 0
M  V30 1307 C 122.134 1.24865 -1.9731 0
M  V30 1308 C 123.115 1.47651 -0.844576 0
M  V30 1309 O 124.3 1.59444 -1.10866 0
M  V30 1310 C 121.43 2.59358 -2.30977 0
M  V30 1311 C 120.384 2.5119 -3.46537 0
M  V30 1312 C 119.71 3.89926 -3.65871 0
M  V30 1313 C 121.01 2.03977 -4.80823 0
M  V30 1314 H 122.704 0.908252 -2.85291 0
M  V30 1315 H 120.25 0.435462 -1.37258 0
M  V30 1316 H 122.203 3.33011 -2.58228 0
M  V30 1317 H 120.927 2.95132 -1.39874 0
M  V30 1318 H 119.586 1.79993 -3.19371 0
M  V30 1319 H 119.234 4.23046 -2.72105 0
M  V30 1320 H 118.934 3.85336 -4.4361 0
M  V30 1321 H 120.458 4.65205 -3.95495 0
M  V30 1322 H 121.872 2.67386 -5.07127 0
M  V30 1323 H 120.269 2.10397 -5.62008 0
M  V30 1324 H 121.339 0.992861 -4.74626 0
M  V30 1325 N 122.682 1.50554 0.465978 0
M  V30 1326 C 123.93 1.61479 1.21528 0
M  V30 1327 C 124.251 0.319596 1.92363 0
M  V30 1328 O 123.521 -0.663194 1.84333 0
M  V30 1329 H 122.101 0.595055 0.451573 0
M  V30 1330 H 124.763 1.87355 0.53704 0
M  V30 1331 H 123.859 2.42846 1.96042 0
M  V30 1332 N 124.16 -0.719506 1.40217 0
M  V30 1333 C 125.388 -1.50864 1.41589 0
M  V30 1334 C 125.803 -1.88794 0.0145275 0
M  V30 1335 O 125.16 -1.55174 -0.960594 0
M  V30 1336 C 125.211 -2.78646 2.30302 0
M  V30 1337 O 124.932 -2.42321 3.64983 0
M  V30 1338 C 126.433 -3.72569 2.40224 0
M  V30 1339 H 123.653 -0.465709 0.48307 0
M  V30 1340 H 126.197 -0.88785 1.84221 0
M  V30 1341 H 124.352 -3.37019 1.91042 0
M  V30 1342 H 124.766 -3.24514 4.12057 0
M  V30 1343 H 126.24 -4.5908 3.06512 0
M  V30 1344 H 126.717 -4.15403 1.42608 0
M  V30 1345 H 127.323 -3.20109 2.80019 0
M  V30 1346 N 125.638 -1.25649 -0.95132 0
M  V30 1347 C 126.884 -1.10757 -1.69884 0
M  V30 1348 C 127.217 0.350061 -1.91019 0
M  V30 1349 O 126.492 1.25783 -1.48354 0
M  V30 1350 C 126.775 -1.86606 -3.07978 0
M  V30 1351 C 126.628 -3.40217 -2.94232 0
M  V30 1352 C 127.947 -1.65182 -4.07925 0
M  V30 1353 H 125.066 -0.40374 -0.616574 0
M  V30 1354 H 127.708 -1.54521 -1.10558 0
M  V30 1355 H 125.858 -1.49409 -3.58621 0
M  V30 1356 H 127.53 -3.87108 -2.50889 0
M  V30 1357 H 125.773 -3.67759 -2.30078 0
M  V30 1358 H 126.444 -3.88505 -3.92133 0
M  V30 1359 H 128.92 -1.9757 -3.66204 0
M  V30 1360 H 127.796 -2.20683 -5.02583 0
M  V30 1361 H 128.057 -0.593933 -4.38092 0
M  V30 1362 N 127.117 1.15442 -1.07289 0
M  V30 1363 C 128.05 2.19135 -0.636798 0
M  V30 1364 C 129.028 1.58884 0.34562 0
M  V30 1365 O 130.212 1.86805 0.252195 0
M  V30 1366 C 127.339 3.38638 0.0650014 0
M  V30 1367 C 126.385 4.17412 -0.87576 0
M  V30 1368 S 127.218 4.79882 -2.37642 0
M  V30 1369 C 128.374 6.02753 -1.6864 0
M  V30 1370 H 128.607 2.55787 -1.51526 0
M  V30 1371 H 126.14 1.26394 -0.886793 0
M  V30 1372 H 128.098 4.07873 0.463664 0
M  V30 1373 H 126.759 3.00331 0.919801 0
M  V30 1374 H 125.952 5.02909 -0.33143 0
M  V30 1375 H 125.554 3.53722 -1.21478 0
M  V30 1376 H 127.846 6.70113 -0.997753 0
M  V30 1377 H 128.789 6.61754 -2.51967 0
M  V30 1378 H 129.197 5.52355 -1.16465 0
M  V30 1379 N 128.595 0.856903 1.32268 0
M  V30 1380 C 129.872 0.382583 1.91822 0
M  V30 1381 C 130.252 -1.13407 1.78051 0
M  V30 1382 O 129.6 -1.95673 1.18001 0
M  V30 1383 C 129.81 0.849446 3.38505 0
M  V30 1384 C 131.158 0.867936 4.15634 0
M  V30 1385 O 132.182 0.794232 3.47232 0
M  V30 1386 O 131.041 0.972286 5.37781 0
M  V30 1387 H 128.135 0.112014 0.819379 0
M  V30 1388 H 130.681 0.943952 1.41024 0
M  V30 1389 H 129.453 1.89267 3.42482 0
M  V30 1390 H 129.076 0.265652 3.96712 0
M  V30 1391 N 130.073 -1.45103 0.615059 0
M  V30 1392 C 131.321 -2.01784 0.112955 0
M  V30 1393 C 131.642 -1.48504 -1.26378 0
M  V30 1394 O 130.912 -0.682245 -1.83636 0
M  V30 1395 H 129.492 -0.745993 0.0387668 0
M  V30 1396 H 132.154 -1.77808 0.798141 0
M  V30 1397 H 131.25 -3.12025 0.0684069 0
M  V30 1398 N 131.551 -0.354651 -1.53558 0
M  V30 1399 C 132.828 0.294281 -1.93374 0
M  V30 1400 C 133.208 1.67313 -1.28723 0
M  V30 1401 O 132.556 2.24179 -0.442247 0
M  V30 1402 C 132.766 0.355445 -3.47185 0
M  V30 1403 C 134.114 0.601007 -4.20325 0
M  V30 1404 O 135.138 0.437106 -3.53508 0
M  V30 1405 O 133.997 0.919322 -5.38712 0
M  V30 1406 H 131.091 0.174033 -0.808481 0
M  V30 1407 H 133.637 -0.406638 -1.64756 0
M  V30 1408 H 132.409 -0.611729 -3.86489 0
M  V30 1409 H 132.032 1.1027 -3.82003 0
M  V30 1410 N 133.029 1.57378 -0.0835403 0
M  V30 1411 C 134.257 1.98263 0.59157 0
M  V30 1412 C 134.672 0.962302 1.62435 0
M  V30 1413 O 134.029 -0.049581 1.82433 0
M  V30 1414 C 134.08 3.39214 1.24965 0
M  V30 1415 O 133.801 4.37339 0.258186 0
M  V30 1416 C 135.302 3.95038 2.01147 0
M  V30 1417 H 132.522 0.651773 0.159477 0
M  V30 1418 H 135.066 2.03878 -0.159415 0
M  V30 1419 H 133.221 3.34649 1.95164 0
M  V30 1420 H 133.635 5.19371 0.731734 0
M  V30 1421 H 135.109 4.95848 2.42567 0
M  V30 1422 H 135.586 3.32222 2.87272 0
M  V30 1423 H 136.192 4.0304 1.35789 0
M  V30 1424 N 134.507 -0.190092 1.56449 0
M  V30 1425 C 135.417 -1.25591 1.98152 0
M  V30 1426 C 136.433 -1.49519 0.889944 0
M  V30 1427 O 137.609 -1.62036 1.19609 0
M  V30 1428 C 134.674 -2.57916 2.3169 0
M  V30 1429 C 133.735 -2.42015 3.5458 0
M  V30 1430 C 132.968 -3.6803 3.8651 0
M  V30 1431 O 133.191 -4.72413 3.1966 0
M  V30 1432 O 132.125 -3.6326 4.79923 0
M  V30 1433 H 135.951 -0.931988 2.89046 0
M  V30 1434 H 133.536 -0.395488 1.4407 0
M  V30 1435 H 135.418 -3.36008 2.54316 0
M  V30 1436 H 134.093 -2.89925 1.43963 0
M  V30 1437 H 133 -1.62017 3.37196 0
M  V30 1438 H 134.333 -2.14937 4.4279 0
M  V30 1439 N 135.985 -1.50799 -0.457987 0
M  V30 1440 C 136.895 -1.73426 -1.57989 0
M  V30 1441 C 137.911 -0.617745 -1.62665 0
M  V30 1442 O 139.087 -0.897614 -1.80291 0
M  V30 1443 C 136.152 -1.83557 -2.94122 0
M  V30 1444 C 135.213 -3.07345 -2.99729 0
M  V30 1445 C 134.446 -3.16983 -4.29368 0
M  V30 1446 O 134.669 -2.33077 -5.20607 0
M  V30 1447 O 133.603 -4.09812 -4.40837 0
M  V30 1448 H 137.429 -2.68555 -1.41817 0
M  V30 1449 H 135.014 -1.35052 -0.638859 0
M  V30 1450 H 136.896 -1.92326 -3.74952 0
M  V30 1451 H 135.571 -0.916137 -3.10465 0
M  V30 1452 H 134.478 -3.04068 -2.1793 0
M  V30 1453 H 135.811 -3.9891 -2.88326 0
M  V30 1454 N 137.463 0.71206 -1.40597 0
M  V30 1455 C 138.413 1.81783 -1.37619 0
M  V30 1456 C 139.397 1.58896 -0.253162 0
M  V30 1457 O 140.589 1.70009 -0.492547 0
M  V30 1458 C 137.718 3.19944 -1.24462 0
M  V30 1459 C 136.804 3.48582 -2.4156 0
M  V30 1460 N 137.195 3.48016 -3.67041 0
M  V30 1461 C 135.493 3.79056 -2.35016 0
M  V30 1462 C 136.194 3.75096 -4.44609 0
M  V30 1463 N 135.17 3.94022 -3.74497 0
M  V30 1464 H 138.972 1.79683 -2.32575 0
M  V30 1465 H 136.486 0.91134 -1.34419 0
M  V30 1466 H 138.483 3.99133 -1.20411 0
M  V30 1467 H 137.143 3.23267 -0.304762 0
M  V30 1468 H 138.154 3.28782 -4.00153 0
M  V30 1469 H 134.831 3.89848 -1.49415 0
M  V30 1470 H 136.221 3.80934 -5.53479 0
M  V30 1471 N 138.941 1.26152 0.944643 0
M  V30 1472 C 140.19 1.10883 1.68487 0
M  V30 1473 C 140.503 -0.348153 1.92477 0
M  V30 1474 O 141.709 -0.621459 2.64292 0
M  V30 1475 C 140.165 1.93624 3.03377 0
M  V30 1476 C 139.773 3.43875 2.87148 0
M  V30 1477 C 141.517 1.86954 3.81115 0
M  V30 1478 C 139.424 4.18875 4.1749 0
M  V30 1479 H 138.354 0.41135 0.631907 0
M  V30 1480 H 141.005 1.50433 1.05082 0
M  V30 1481 H 139.387 1.46904 3.67743 0
M  V30 1482 H 140.561 3.98338 2.31653 0
M  V30 1483 H 138.876 3.51744 2.22856 0
M  V30 1484 H 141.473 2.40275 4.77673 0
M  V30 1485 H 141.816 0.839518 4.07747 0
M  V30 1486 H 142.349 2.31477 3.23517 0
M  V30 1487 H 139.088 5.22332 3.96043 0
M  V30 1488 H 138.608 3.69193 4.72712 0
M  V30 1489 H 140.287 4.27134 4.85968 0
M  V30 1490 N 140.419 -1.14872 1.07899 0
M  V30 1491 C 141.382 -2.17986 0.708161 0
M  V30 1492 C 142.382 -1.58775 -0.25442 0
M  V30 1493 O 143.572 -1.74166 -0.034645 0
M  V30 1494 C 140.704 -3.40871 0.0446929 0
M  V30 1495 H 141.897 -2.52306 1.62116 0
M  V30 1496 H 139.45 -1.2943 0.876218 0
M  V30 1497 H 140.185 -3.12124 -0.880281 0
M  V30 1498 H 139.97 -3.8511 0.737091 0
M  V30 1499 H 141.46 -4.17121 -0.19991 0
M  V30 1500 N 141.898 -0.863906 -1.31812 0
M  V30 1501 C 142.808 -0.318461 -2.32428 0
M  V30 1502 C 143.824 0.568496 -1.64451 0
M  V30 1503 O 145 0.46666 -1.95919 0
M  V30 1504 C 142.065 0.476355 -3.43412 0
M  V30 1505 C 141.126 -0.43784 -4.27061 0
M  V30 1506 C 140.359 0.319138 -5.32745 0
M  V30 1507 O 140.582 1.54799 -5.48993 0
M  V30 1508 O 139.516 -0.319861 -6.01049 0
M  V30 1509 H 143.342 -1.15229 -2.80991 0
M  V30 1510 H 140.927 -0.627103 -1.35602 0
M  V30 1511 H 142.809 0.927156 -4.11074 0
M  V30 1512 H 141.484 1.28683 -2.97022 0
M  V30 1513 H 140.391 -0.937013 -3.62175 0
M  V30 1514 H 141.724 -1.21375 -4.77 0
M  V30 1515 N 143.376 1.44774 -0.622745 0
M  V30 1516 C 144.622 2.0242 -0.124083 0
M  V30 1517 C 144.955 1.4881 1.24777 0
M  V30 1518 O 144.23 0.668799 1.8264 0
M  V30 1519 C 144.513 3.59957 -0.101619 0
M  V30 1520 C 144.366 4.23867 -1.50521 0
M  V30 1521 C 145.685 4.36284 0.578272 0
M  V30 1522 H 142.804 0.735528 -0.0465645 0
M  V30 1523 H 145.446 1.72447 -0.797617 0
M  V30 1524 H 143.596 3.85623 0.471934 0
M  V30 1525 H 145.268 4.09336 -2.12701 0
M  V30 1526 H 143.511 3.81684 -2.06154 0
M  V30 1527 H 144.182 5.32843 -1.4416 0
M  V30 1528 H 146.658 4.16001 0.0906057 0
M  V30 1529 H 145.534 5.46004 0.563149 0
M  V30 1530 H 145.795 4.10271 1.64713 0
M  V30 1531 N 144.854 0.36279 1.53368 0
M  V30 1532 C 145.817 -0.472679 2.24273 0
M  V30 1533 C 146.817 -1.012 1.24961 0
M  V30 1534 O 148.007 -0.898194 1.49259 0
M  V30 1535 C 145.139 -1.66039 2.97731 0
M  V30 1536 H 146.332 0.14773 2.99536 0
M  V30 1537 H 143.885 0.114434 1.55881 0
M  V30 1538 H 144.62 -2.31896 2.26704 0
M  V30 1539 H 144.405 -1.28066 3.70596 0
M  V30 1540 H 145.895 -2.25252 3.51641 0
M  V30 1541 N 146.332 -1.57332 0.0918853 0
M  V30 1542 C 147.748 -1.57389 -0.264766 0
M  V30 1543 C 147.948 -1.10281 -1.68643 0
M  V30 1544 O 147.004 -0.777801 -2.40222 0
M  V30 1545 C 148.317 -3.00648 -0.0561195 0
M  V30 1546 C 149.865 -3.12754 -0.124116 0
M  V30 1547 C 150.34 -4.57965 0.0564972 0
M  V30 1548 N 151.831 -4.632 0.00155611 0
M  V30 1549 C 152.566 -5.73281 0.116598 0
M  V30 1550 N 152.062 -6.92208 0.286294 0
M  V30 1551 N 153.855 -5.6207 0.0580973 0
M  V30 1552 H 146.006 -1.86262 1.02079 0
M  V30 1553 H 148.269 -0.859579 0.399786 0
M  V30 1554 H 147.975 -3.393 0.925669 0
M  V30 1555 H 147.849 -3.68623 -0.799823 0
M  V30 1556 H 150.236 -2.73976 -1.09641 0
M  V30 1557 H 150.317 -2.47377 0.651024 0
M  V30 1558 H 149.961 -4.97436 1.02564 0
M  V30 1559 H 149.891 -5.21399 -0.738297 0
M  V30 1560 H 152.382 -3.77686 -0.127192 0
M  V30 1561 H 152.695 -7.71934 0.365676 0
M  V30 1562 H 151.04 -6.94254 0.32192 0
M  V30 1563 H 154.231 -4.68043 -0.0733204 0
M  V30 1564 H 154.404 -6.47824 0.151203 0
M  V30 1565 N 147.81 0.181792 -1.56548 0
M  V30 1566 C 149.056 0.901431 -1.81665 0
M  V30 1567 C 149.389 1.82347 -0.668075 0
M  V30 1568 O 148.664 1.91669 0.330615 0
M  V30 1569 C 148.947 1.70618 -3.17115 0
M  V30 1570 C 148.8 0.807964 -4.42484 0
M  V30 1571 C 150.119 2.67605 -3.49393 0
M  V30 1572 H 147.238 0.32627 -0.660846 0
M  V30 1573 H 149.88 0.168134 -1.89255 0
M  V30 1574 H 148.03 2.33133 -3.10775 0
M  V30 1575 H 149.702 0.19649 -4.60881 0
M  V30 1576 H 147.945 0.115411 -4.33646 0
M  V30 1577 H 148.616 1.40632 -5.33785 0
M  V30 1578 H 151.092 2.15218 -3.56118 0
M  V30 1579 H 149.968 3.20985 -4.45264 0
M  V30 1580 H 150.229 3.47298 -2.73563 0
M  V30 1581 N 149.288 1.51039 0.449983 0
M  V30 1582 C 150.218 1.74379 1.55288 0
M  V30 1583 C 151.199 0.593236 1.5942 0
M  V30 1584 O 152.384 0.834625 1.7535 0
M  V30 1585 C 149.514 1.85728 2.93466 0
M  V30 1586 C 148.468 3.01078 3.04197 0
M  V30 1587 C 147.794 2.97595 4.44231 0
M  V30 1588 C 149.094 4.41254 2.7945 0
M  V30 1589 H 150.788 2.66725 1.36008 0
M  V30 1590 H 148.334 1.2835 0.652864 0
M  V30 1591 H 150.287 2.0064 3.70569 0
M  V30 1592 H 149.011 0.900207 3.13949 0
M  V30 1593 H 147.67 2.85851 2.29531 0
M  V30 1594 H 147.318 1.99691 4.61663 0
M  V30 1595 H 147.018 3.75046 4.52343 0
M  V30 1596 H 148.542 3.14583 5.23326 0
M  V30 1597 H 149.956 4.56897 3.46292 0
M  V30 1598 H 148.353 5.20315 2.98985 0
M  V30 1599 H 149.423 4.52164 1.75144 0
M  V30 1600 N 150.766 -0.704594 1.40972 0
M  V30 1601 C 152.014 -1.46169 1.39568 0
M  V30 1602 C 152.335 -1.95 0.00253745 0
M  V30 1603 O 151.605 -1.71095 -0.954114 0
M  V30 1604 H 150.185 -0.542326 0.513704 0
M  V30 1605 H 152.847 -0.834553 1.76128 0
M  V30 1606 H 151.943 -2.32922 2.07735 0
M  V30 1607 N 152.244 -1.26651 -0.937939 0
M  V30 1608 C 153.66 -1.03834 -1.21205 0
M  V30 1609 C 153.86 0.234502 -2.00131 0
M  V30 1610 O 152.916 0.942767 -2.3424 0
M  V30 1611 C 154.229 -2.27167 -1.97017 0
M  V30 1612 C 155.777 -2.32101 -2.09996 0
M  V30 1613 C 156.252 -3.55136 -2.8921 0
M  V30 1614 N 157.743 -3.55632 -2.96783 0
M  V30 1615 C 158.478 -4.475 -3.58512 0
M  V30 1616 N 157.974 -5.4966 -4.21717 0
M  V30 1617 N 159.767 -4.35145 -3.55816 0
M  V30 1618 H 151.918 -2.08398 -0.410391 0
M  V30 1619 H 154.181 -0.916031 -0.244114 0
M  V30 1620 H 153.887 -3.19765 -1.46434 0
M  V30 1621 H 153.761 -2.31672 -2.97671 0
M  V30 1622 H 156.148 -1.40015 -2.59769 0
M  V30 1623 H 156.229 -2.31605 -1.08594 0
M  V30 1624 H 155.873 -4.47553 -2.40123 0
M  V30 1625 H 155.803 -3.5288 -3.90875 0
M  V30 1626 H 158.294 -2.81743 -2.51852 0
M  V30 1627 H 158.607 -6.15943 -4.66727 0
M  V30 1628 H 156.952 -5.53514 -4.20294 0
M  V30 1629 H 160.143 -3.5455 -3.05634 0
M  V30 1630 H 160.316 -5.06934 -4.03636 0
M  V30 1631 N 153.722 1.14298 -1.08507 0
M  V30 1632 C 154.952 1.88945 -0.835663 0
M  V30 1633 C 155.36 1.78894 0.615928 0
M  V30 1634 O 154.703 1.1468 1.43506 0
M  V30 1635 C 154.765 3.39585 -1.17994 0
M  V30 1636 C 154.429 3.7342 -2.63451 0
M  V30 1637 C 155.426 3.73454 -3.61702 0
M  V30 1638 C 153.111 4.03368 -2.99332 0
M  V30 1639 C 155.105 4.02961 -4.93864 0
M  V30 1640 C 152.792 4.32538 -4.31687 0
M  V30 1641 C 153.79 4.32318 -5.28763 0
M  V30 1642 O 153.478 4.6078 -6.58739 0
M  V30 1643 H 153.21 0.605307 -0.300965 0
M  V30 1644 H 155.764 1.45673 -1.44806 0
M  V30 1645 H 153.994 3.83315 -0.51055 0
M  V30 1646 H 155.683 3.9554 -0.911182 0
M  V30 1647 H 156.449 3.50403 -3.35325 0
M  V30 1648 H 152.328 4.02692 -2.24411 0
M  V30 1649 H 155.872 4.02704 -5.69627 0
M  V30 1650 H 151.769 4.55059 -4.57812 0
M  V30 1651 H 152.537 4.78492 -6.64069 0
M  V30 1652 N 155.201 0.870884 1.31352 0
M  V30 1653 C 156.447 0.482987 1.96965 0
M  V30 1654 C 156.78 -0.962462 1.68672 0
M  V30 1655 O 156.055 -1.6779 0.98371 0
M  V30 1656 C 156.338 0.741752 3.52378 0
M  V30 1657 C 156.191 2.2368 3.9024 0
M  V30 1658 C 157.51 0.208838 4.39604 0
M  V30 1659 H 154.629 0.176955 0.715441 0
M  V30 1660 H 157.271 1.09229 1.55464 0
M  V30 1661 H 155.421 0.223149 3.87859 0
M  V30 1662 H 157.093 2.82273 3.64856 0
M  V30 1663 H 155.336 2.70901 3.38814 0
M  V30 1664 H 156.007 2.3685 4.98604 0
M  V30 1665 H 158.483 0.652529 4.10952 0
M  V30 1666 H 157.359 0.419336 5.47296 0
M  V30 1667 H 157.62 -0.889275 4.33064 0
M  V30 1668 N 156.679 -1.44442 0.630414 0
M  V30 1669 C 157.956 -1.9549 0.0655657 0
M  V30 1670 C 158.336 -1.5724 -1.40851 0
M  V30 1671 O 157.684 -0.846116 -2.12257 0
M  V30 1672 C 157.894 -3.47812 0.287691 0
M  V30 1673 C 159.242 -4.24216 0.180513 0
M  V30 1674 O 160.266 -3.55526 0.219019 0
M  V30 1675 O 159.125 -5.46434 0.0848493 0
M  V30 1676 H 156.219 -0.826688 -0.0227177 0
M  V30 1677 H 158.765 -1.54496 0.702068 0
M  V30 1678 H 157.537 -3.687 1.31056 0
M  V30 1679 H 157.16 -3.95751 -0.382984 0
M  V30 1680 N 158.157 -0.370918 -1.53173 0
M  V30 1681 C 159.087 0.464847 -2.28826 0
M  V30 1682 C 160.068 1.07936 -1.31468 0
M  V30 1683 O 161.253 1.0956 -1.60344 0
M  V30 1684 C 158.383 1.60196 -3.08147 0
M  V30 1685 C 157.337 1.11443 -4.13237 0
M  V30 1686 C 156.663 2.3422 -4.80672 0
M  V30 1687 C 157.963 0.195384 -5.21934 0
M  V30 1688 H 159.657 -0.166329 -2.98938 0
M  V30 1689 H 157.203 -0.0814359 -1.4377 0
M  V30 1690 H 159.156 2.19332 -3.59822 0
M  V30 1691 H 157.88 2.26045 -2.35735 0
M  V30 1692 H 156.539 0.545727 -3.62515 0
M  V30 1693 H 156.187 2.98537 -4.04827 0
M  V30 1694 H 155.887 2.02269 -5.51689 0
M  V30 1695 H 157.411 2.94032 -5.35143 0
M  V30 1696 H 158.825 0.694375 -5.69079 0
M  V30 1697 H 157.222 -0.0335027 -6.00091 0
M  V30 1698 H 158.292 -0.760961 -4.78892 0
M  V30 1699 N 159.635 1.57281 -0.100228 0
M  V30 1700 C 160.884 1.93713 0.561984 0
M  V30 1701 C 161.197 0.984492 1.69018 0
M  V30 1702 O 162.403 1.24273 2.41389 0
M  V30 1703 C 160.859 3.4421 1.05106 0
M  V30 1704 C 160.467 4.47975 -0.0476628 0
M  V30 1705 C 162.211 3.89595 1.68571 0
M  V30 1706 C 160.118 5.89631 0.457055 0
M  V30 1707 H 159.048 0.723082 0.2137 0
M  V30 1708 H 161.699 1.82644 -0.177057 0
M  V30 1709 H 160.081 3.50449 1.84395 0
M  V30 1710 H 161.255 4.53385 -0.823333 0
M  V30 1711 H 159.57 4.1223 -0.587816 0
M  V30 1712 H 162.167 4.92832 2.07414 0
M  V30 1713 H 162.51 3.28526 2.55688 0
M  V30 1714 H 163.043 3.86078 0.958562 0
M  V30 1715 H 159.782 6.54411 -0.377616 0
M  V30 1716 H 159.302 5.87681 1.19962 0
M  V30 1717 H 160.981 6.40363 0.92437 0
M  V30 1718 N 161.113 -0.173488 1.56642 0
M  V30 1719 C 162.361 -0.888706 1.81512 0
M  V30 1720 C 162.682 -1.82875 0.676872 0
M  V30 1721 O 161.952 -1.93536 -0.303414 0
M  V30 1722 H 160.532 -0.331164 0.669582 0
M  V30 1723 H 163.194 -0.173823 1.94123 0
M  V30 1724 H 162.29 -1.46691 2.75478 0
M  V30 1725 N 162.591 -1.51276 -0.441967 0
M  V30 1726 C 163.837 -1.63958 -1.19355 0
M  V30 1727 C 164.17 -0.352543 -1.90973 0
M  V30 1728 O 163.445 0.647627 -1.83401 0
M  V30 1729 C 163.728 -2.83979 -2.21422 0
M  V30 1730 C 163.581 -4.22646 -1.53918 0
M  V30 1731 C 164.9 -2.99521 -3.22451 0
M  V30 1732 H 162.019 -0.596709 -0.432559 0
M  V30 1733 H 164.661 -1.83748 -0.483398 0
M  V30 1734 H 162.811 -2.67237 -2.81987 0
M  V30 1735 H 164.483 -4.51045 -0.967256 0
M  V30 1736 H 162.726 -4.25558 -0.841615 0
M  V30 1737 H 163.397 -5.02609 -2.28229 0
M  V30 1738 H 165.873 -3.14944 -2.71937 0
M  V30 1739 H 164.749 -3.85072 -3.91166 0
M  V30 1740 H 165.01 -2.11391 -3.88287 0
M  V30 1741 N 164.069 0.697108 -1.41344 0
M  V30 1742 C 165.485 1.00751 -1.2378 0
M  V30 1743 C 165.685 2.01105 -0.126066 0
M  V30 1744 O 164.741 2.47295 0.51004 0
M  V30 1745 C 166.054 1.53359 -2.58653 0
M  V30 1746 C 167.602 1.6525 -2.65822 0
M  V30 1747 C 168.077 2.2126 -4.01009 0
M  V30 1748 N 169.568 2.28622 -4.02847 0
M  V30 1749 C 170.303 2.72984 -5.04249 0
M  V30 1750 N 169.799 3.16962 -6.16041 0
M  V30 1751 N 171.592 2.72534 -4.91611 0
M  V30 1752 H 163.743 0.0322662 -2.12375 0
M  V30 1753 H 166.006 0.0768853 -0.944877 0
M  V30 1754 H 165.712 0.870773 -3.4075 0
M  V30 1755 H 165.586 2.51597 -2.81032 0
M  V30 1756 H 167.973 2.30644 -1.84086 0
M  V30 1757 H 168.054 0.655614 -2.47256 0
M  V30 1758 H 167.698 1.56482 -4.83193 0
M  V30 1759 H 167.628 3.21698 -4.16915 0
M  V30 1760 H 170.119 1.97585 -3.22131 0
M  V30 1761 H 170.432 3.49434 -6.89287 0
M  V30 1762 H 168.777 3.14875 -6.1958 0
M  V30 1763 H 171.968 2.37525 -4.0336 0
M  V30 1764 H 172.141 3.06789 -5.70775 0
M  V30 1765 N 165.547 1.27147 0.931209 0
M  V30 1766 C 166.51 1.09615 2.01289 0
M  V30 1767 C 167.51 0.0412581 1.60747 0
M  V30 1768 O 168.7 0.285545 1.71844 0
M  V30 1769 C 165.832 0.669447 3.34262 0
M  V30 1770 H 167.025 2.05662 2.18273 0
M  V30 1771 H 164.578 1.09885 1.11153 0
M  V30 1772 H 165.313 -0.292572 3.22978 0
M  V30 1773 H 165.098 1.43127 3.65044 0
M  V30 1774 H 166.588 0.568921 4.13706 0
M  V30 1775 N 167.025 -1.13721 1.09112 0
M  V30 1776 C 168.272 -1.84924 0.825192 0
M  V30 1777 C 168.6 -1.83347 -0.649151 0
M  V30 1778 O 167.855 -1.26449 -1.49362 0
M  V30 1779 C 168.154 -3.32861 1.30146 0
M  V30 1780 C 167.82 -3.54621 2.78486 0
M  V30 1781 C 166.482 -3.60268 3.18999 0
M  V30 1782 C 168.834 -3.62855 3.74146 0
M  V30 1783 C 166.162 -3.71679 4.53951 0
M  V30 1784 C 168.514 -3.75793 5.08883 0
M  V30 1785 C 167.178 -3.79692 5.4899 0
M  V30 1786 H 166.448 -0.676684 0.301959 0
M  V30 1787 H 169.095 -1.3428 1.36533 0
M  V30 1788 H 167.4 -3.85835 0.681064 0
M  V30 1789 H 169.097 -3.86395 1.07236 0
M  V30 1790 H 165.687 -3.50879 2.46134 0
M  V30 1791 H 169.871 -3.57775 3.43963 0
M  V30 1792 H 165.127 -3.72963 4.84467 0
M  V30 1793 H 169.301 -3.81107 5.82864 0
M  V30 1794 H 166.928 -3.88287 6.53558 0
M  V30 1795 N 168.503 -0.877838 -1.30888 0
M  V30 1796 C 169.914 -0.544193 -1.78593 0
M  V30 1797 C 170.265 0.939301 -1.72254 0
M  V30 1798 O 169.39 1.7337 -1.29505 0
M  V30 1799 C 169.985 -0.98105 -3.24285 0
M  V30 1800 C 168.544 -0.698935 -3.69854 0
M  V30 1801 C 167.691 -1.168 -2.51502 0
M  V30 1802 H 170.642 -1.06278 -1.17859 0
M  V30 1803 H 170.663 -0.307009 -3.79259 0
M  V30 1804 H 170.175 -2.06079 -3.28866 0
M  V30 1805 H 168.276 0.369112 -3.70767 0
M  V30 1806 H 168.389 -1.28148 -4.61644 0
M  V30 1807 H 166.753 -0.587535 -2.47831 0
M  V30 1808 H 167.536 -2.25533 -2.58824 0
M  V30 1809 N 169.982 1.44106 -0.638065 0
M  V30 1810 C 170.929 2.30715 0.062701 0
M  V30 1811 C 171.899 1.43882 0.829883 0
M  V30 1812 O 173.084 1.72775 0.809532 0
M  V30 1813 C 170.224 3.29258 1.03358 0
M  V30 1814 C 169.337 4.31192 0.26409 0
M  V30 1815 C 168.472 5.16825 1.22741 0
M  V30 1816 C 167.511 6.10462 0.447475 0
M  V30 1817 N 166.648 6.8877 1.36161 0
M  V30 1818 H 171.488 2.90096 -0.681781 0
M  V30 1819 H 169.025 1.42925 -0.347988 0
M  V30 1820 H 170.983 3.84886 1.60992 0
M  V30 1821 H 169.613 2.71562 1.74511 0
M  V30 1822 H 168.665 3.77981 -0.428295 0
M  V30 1823 H 169.977 4.97619 -0.343052 0
M  V30 1824 H 169.131 5.77004 1.87487 0
M  V30 1825 H 167.87 4.50488 1.86847 0
M  V30 1826 H 166.875 5.49386 -0.213433 0
M  V30 1827 H 168.1 6.78837 -0.188968 0
M  V30 1828 H 166.046 6.25096 1.98975 0
M  V30 1829 H 165.963 7.51663 0.808656 0
M  V30 1830 H 167.231 7.53467 1.99769 0
M  V30 1831 N 171.46 0.379036 1.52974 0
M  V30 1832 C 172.707 -0.206421 2.01445 0
M  V30 1833 C 173.035 -1.47668 1.26587 0
M  V30 1834 O 172.29 -1.92514 0.351675 0
M  V30 1835 C 172.589 -0.53096 3.53434 0
M  V30 1836 C 172.255 0.646546 4.46241 0
M  V30 1837 C 170.917 0.969604 4.7133 0
M  V30 1838 C 173.269 1.43479 5.01062 0
M  V30 1839 C 170.597 2.08263 5.48492 0
M  V30 1840 C 172.949 2.53834 5.7944 0
M  V30 1841 C 171.613 2.86659 6.02812 0
M  V30 1842 H 170.883 -0.0755349 0.73714 0
M  V30 1843 H 173.53 0.514271 1.84465 0
M  V30 1844 H 171.835 -1.33285 3.68432 0
M  V30 1845 H 173.532 -0.996417 3.88423 0
M  V30 1846 H 170.122 0.384734 4.2687 0
M  V30 1847 H 174.306 1.19844 4.81613 0
M  V30 1848 H 169.562 2.34078 5.64816 0
M  V30 1849 H 173.736 3.15319 6.20924 0
M  V30 1850 H 171.363 3.73026 6.62387 0
M  V30 1851 N 172.938 -1.57226 0.108567 0
M  V30 1852 C 174.184 -1.95121 -0.552761 0
M  V30 1853 C 174.517 -0.991345 -1.66991 0
M  V30 1854 O 173.792 -0.0267211 -1.94482 0
M  V30 1855 C 174.075 -3.43039 -1.09528 0
M  V30 1856 C 173.928 -4.49797 0.0177332 0
M  V30 1857 C 175.247 -3.92567 -1.98945 0
M  V30 1858 H 172.366 -0.709496 -0.199461 0
M  V30 1859 H 175.008 -1.89126 0.182011 0
M  V30 1860 H 173.158 -3.48279 -1.72146 0
M  V30 1861 H 174.83 -4.56661 0.652584 0
M  V30 1862 H 173.073 -4.284 0.682309 0
M  V30 1863 H 173.744 -5.50528 -0.402919 0
M  V30 1864 H 176.22 -3.89565 -1.46214 0
M  V30 1865 H 175.096 -4.96605 -2.33827 0
M  V30 1866 H 175.357 -3.32648 -2.91201 0
M  V30 1867 N 174.416 0.165178 -1.56732 0
M  V30 1868 C 175.693 0.908443 -1.73224 0
M  V30 1869 C 176.073 2.0013 -0.67165 0
M  V30 1870 O 175.421 2.26353 0.31253 0
M  V30 1871 C 175.631 1.46756 -3.16644 0
M  V30 1872 C 176.979 1.93809 -3.77787 0
M  V30 1873 O 178.003 1.56537 -3.1996 0
M  V30 1874 O 176.862 2.62486 -4.79336 0
M  V30 1875 H 173.956 0.428025 -0.707618 0
M  V30 1876 H 176.502 0.152526 -1.69013 0
M  V30 1877 H 175.274 0.68129 -3.85323 0
M  V30 1878 H 174.897 2.28749 -3.25207 0
M  V30 1879 N 175.894 1.51508 0.433938 0
M  V30 1880 C 177.14 1.65549 1.18173 0
M  V30 1881 C 177.495 0.368751 1.88833 0
M  V30 1882 O 176.788 -0.635616 1.8075 0
M  V30 1883 C 176.982 2.79928 2.22205 0
M  V30 1884 C 176.811 4.19601 1.61756 0
M  V30 1885 C 175.581 4.85489 1.40101 0
M  V30 1886 C 177.779 5.02574 1.09194 0
M  V30 1887 N 175.761 6.09266 0.752859 0
M  V30 1888 C 177.132 6.17381 0.569255 0
M  V30 1889 C 179.187 4.88079 0.984025 0
M  V30 1890 C 177.89 7.19282 -0.0507472 0
M  V30 1891 C 179.916 5.90191 0.377912 0
M  V30 1892 C 179.278 7.04272 -0.134216 0
M  V30 1893 H 175.377 0.659653 0.419979 0
M  V30 1894 H 177.961 1.88746 0.477818 0
M  V30 1895 H 176.132 2.5839 2.89982 0
M  V30 1896 H 177.864 2.83132 2.89168 0
M  V30 1897 H 174.619 4.43417 1.66369 0
M  V30 1898 H 175.043 6.75528 0.446123 0
M  V30 1899 H 179.685 4.00131 1.36583 0
M  V30 1900 H 177.403 8.06876 -0.444676 0
M  V30 1901 H 180.989 5.81045 0.296269 0
M  V30 1902 H 179.869 7.81933 -0.59585 0
M  V30 1903 N 177.372 -0.689602 1.41712 0
M  V30 1904 C 178.597 -1.48329 1.44959 0
M  V30 1905 C 179.022 -1.8801 0.0581283 0
M  V30 1906 O 178.38 -1.55026 -0.940035 0
M  V30 1907 C 178.428 -2.71835 2.36935 0
M  V30 1908 O 177.532 -3.69549 1.8305 0
M  V30 1909 H 176.873 -0.446199 0.491734 0
M  V30 1910 H 179.403 -0.847127 1.86239 0
M  V30 1911 H 179.413 -3.20076 2.53013 0
M  V30 1912 H 178.088 -2.42291 3.38035 0
M  V30 1913 H 176.665 -3.2851 1.76452 0
M  V30 1914 N 178.85 -1.27639 -0.924453 0
M  V30 1915 C 179.797 -1.10644 -2.0255 0
M  V30 1916 C 180.767 -0.00658438 -1.66099 0
M  V30 1917 O 181.952 -0.16952 -1.90045 0
M  V30 1918 C 179.092 -0.76309 -3.36557 0
M  V30 1919 C 178.205 -1.94091 -3.85944 0
M  V30 1920 C 177.34 -1.53914 -5.08413 0
M  V30 1921 C 176.379 -2.68425 -5.50104 0
M  V30 1922 N 175.516 -2.28815 -6.63768 0
M  V30 1923 H 180.356 -2.04858 -2.16419 0
M  V30 1924 H 177.893 -1.01974 -1.06017 0
M  V30 1925 H 179.851 -0.544822 -4.13627 0
M  V30 1926 H 178.481 0.142102 -3.22487 0
M  V30 1927 H 177.533 -2.27162 -3.05125 0
M  V30 1928 H 178.845 -2.7998 -4.12811 0
M  V30 1929 H 177.999 -1.28231 -5.92994 0
M  V30 1930 H 176.738 -0.651391 -4.8333 0
M  V30 1931 H 175.743 -2.94819 -4.64071 0
M  V30 1932 H 176.968 -3.57826 -5.7718 0
M  V30 1933 H 174.914 -1.42495 -6.40337 0
M  V30 1934 H 174.831 -3.08242 -6.90306 0
M  V30 1935 H 176.099 -2.06387 -7.51681 0
M  V30 1936 N 180.328 1.1314 -1.09713 0
M  V30 1937 C 181.605 1.80762 -0.747302 0
M  V30 1938 C 181.985 1.96663 0.767265 0
M  V30 1939 O 181.333 1.53706 1.69076 0
M  V30 1940 C 181.543 3.15606 -1.48975 0
M  V30 1941 C 182.891 3.90914 -1.65746 0
M  V30 1942 O 183.915 3.25239 -1.45251 0
M  V30 1943 O 182.774 5.08718 -1.9967 0
M  V30 1944 H 179.868 0.782103 -0.268782 0
M  V30 1945 H 182.414 1.20041 -1.19951 0
M  V30 1946 H 181.186 2.99278 -2.52088 0
M  V30 1947 H 180.809 3.84029 -1.02991 0
M  V30 1948 N 181.806 0.884767 1.30421 0
M  V30 1949 C 183.222 0.57874 1.48737 0
M  V30 1950 C 183.422 -0.883567 1.81095 0
M  V30 1951 O 182.478 -1.6648 1.89844 0
M  V30 1952 C 183.791 1.49171 2.61091 0
M  V30 1953 C 185.339 1.49532 2.74971 0
M  V30 1954 C 185.814 2.39421 3.90438 0
M  V30 1955 N 187.305 2.37383 3.97748 0
M  V30 1956 C 188.04 3.03647 4.86401 0
M  V30 1957 N 187.536 3.79136 5.79852 0
M  V30 1958 N 189.329 2.9288 4.79768 0
M  V30 1959 H 181.48 1.83075 1.0769 0
M  V30 1960 H 183.743 0.783637 0.533495 0
M  V30 1961 H 183.449 2.53291 2.44001 0
M  V30 1962 H 183.323 1.20113 3.57565 0
M  V30 1963 H 185.71 0.46163 2.91467 0
M  V30 1964 H 185.791 1.8262 1.79119 0
M  V30 1965 H 185.435 3.42874 3.74699 0
M  V30 1966 H 185.365 2.03649 4.85628 0
M  V30 1967 H 187.856 1.82525 3.30897 0
M  V30 1968 H 188.169 4.26789 6.4426 0
M  V30 1969 H 186.514 3.83243 5.79784 0
M  V30 1970 H 189.705 2.33433 4.05742 0
M  V30 1971 H 189.878 3.448 5.4865 0
M  V30 1972 N 183.284 -1.43765 0.645699 0
M  V30 1973 C 184.194 -2.34544 -0.0512957 0
M  V30 1974 C 185.21 -1.53455 -0.82022 0
M  V30 1975 O 186.386 -1.86133 -0.769176 0
M  V30 1976 C 183.451 -3.31636 -1.01087 0
M  V30 1977 C 182.512 -4.2863 -0.239712 0
M  V30 1978 C 181.745 -5.21084 -1.15358 0
M  V30 1979 O 181.968 -5.1779 -2.39269 0
M  V30 1980 O 180.902 -5.98593 -0.630038 0
M  V30 1981 H 184.728 -2.95624 0.695718 0
M  V30 1982 H 182.313 -1.43781 0.405882 0
M  V30 1983 H 184.195 -3.9136 -1.56254 0
M  V30 1984 H 182.87 -2.73069 -1.73824 0
M  V30 1985 H 181.777 -3.72408 0.355356 0
M  V30 1986 H 183.11 -4.90157 0.447936 0
M  V30 1987 N 184.763 -0.387143 -1.52771 0
M  V30 1988 C 186.04 0.253197 -1.93954 0
M  V30 1989 C 186.42 1.64545 -1.32243 0
M  V30 1990 O 185.768 2.23191 -0.489699 0
M  V30 1991 C 185.978 0.281722 -3.47861 0
M  V30 1992 C 187.326 0.511715 -4.21505 0
M  V30 1993 O 188.35 0.362023 -3.54356 0
M  V30 1994 O 187.209 0.804847 -5.40541 0
M  V30 1995 H 184.303 0.156845 -0.811991 0
M  V30 1996 H 186.849 -0.441494 -1.63856 0
M  V30 1997 H 185.621 -0.693571 -3.85104 0
M  V30 1998 H 185.244 1.02142 -3.84256 0
M  V30 1999 N 186.241 1.57166 -0.116904 0
M  V30 2000 C 187.173 2.12271 0.864507 0
M  V30 2001 C 188.186 1.06494 1.23138 0
M  V30 2002 O 189.375 1.33873 1.18069 0
M  V30 2003 C 186.475 2.60564 2.16702 0
M  V30 2004 C 185.648 3.90416 1.97216 0
M  V30 2005 C 184.707 4.24329 3.11178 0
M  V30 2006 O 183.733 4.93182 2.84184 0
M  V30 2007 N 184.935 3.8148 4.37554 0
M  V30 2008 H 187.7 2.97102 0.393726 0
M  V30 2009 H 185.261 1.61759 0.0675805 0
M  V30 2010 H 187.253 2.80282 2.91932 0
M  V30 2011 H 185.823 1.80623 2.55135 0
M  V30 2012 H 185.043 3.79627 1.06192 0
M  V30 2013 H 186.331 4.75327 1.81499 0
M  V30 2014 H 185.729 3.25943 4.62361 0
M  V30 2015 H 184.286 4.06311 5.09661 0
M  V30 2016 N 187.719 -0.156864 1.56817 0
M  V30 2017 C 188.965 -0.872416 1.83076 0
M  V30 2018 C 189.298 -1.81261 0.697001 0
M  V30 2019 O 188.573 -1.92171 -0.30008 0
M  V30 2020 C 188.856 -1.65551 3.19789 0
M  V30 2021 C 188.709 -0.737467 4.43713 0
M  V30 2022 C 190.028 -2.62012 3.53606 0
M  V30 2023 H 187.147 -0.315715 0.665953 0
M  V30 2024 H 189.789 -0.138004 1.89498 0
M  V30 2025 H 187.939 -2.28159 3.14445 0
M  V30 2026 H 189.611 -0.123143 4.61136 0
M  V30 2027 H 187.854 -0.0464067 4.33775 0
M  V30 2028 H 188.525 -1.32122 5.35955 0
M  V30 2029 H 191.001 -2.09525 3.59497 0
M  V30 2030 H 189.877 -3.13861 4.50314 0
M  V30 2031 H 190.138 -3.42902 2.79053 0
M  V30 2032 N 189.197 -1.51736 -0.425897 0
M  V30 2033 C 190.127 -1.76827 -1.52494 0
M  V30 2034 C 191.108 -0.618524 -1.58456 0
M  V30 2035 O 192.293 -0.862416 -1.74 0
M  V30 2036 C 189.423 -1.90374 -2.90474 0
M  V30 2037 C 188.377 -3.0588 -2.99369 0
M  V30 2038 C 187.703 -3.04625 -4.3944 0
M  V30 2039 C 189.003 -4.45644 -2.72394 0
M  V30 2040 H 190.697 -2.68855 -1.31748 0
M  V30 2041 H 188.243 -1.29372 -0.632362 0
M  V30 2042 H 190.196 -2.0651 -3.6733 0
M  V30 2043 H 188.92 -0.95004 -3.12477 0
M  V30 2044 H 187.579 -2.89467 -2.24954 0
M  V30 2045 H 187.227 -2.0701 -4.58428 0
M  V30 2046 H 186.927 -3.82195 -4.46319 0
M  V30 2047 H 188.451 -3.22869 -5.18255 0
M  V30 2048 H 189.865 -4.62348 -3.38979 0
M  V30 2049 H 188.262 -5.25006 -2.9067 0
M  V30 2050 H 189.332 -4.54893 -1.67929 0
M  V30 2051 N 190.675 0.682077 -1.42076 0
M  V30 2052 C 191.622 1.79578 -1.44984 0
M  V30 2053 C 192.592 1.6332 -0.302614 0
M  V30 2054 O 193.777 1.83978 -0.505633 0
M  V30 2055 C 190.917 3.1756 -1.35091 0
M  V30 2056 C 190.03 3.45156 -2.59791 0
M  V30 2057 C 189.165 4.72826 -2.42093 0
M  V30 2058 C 188.204 4.93433 -3.62202 0
M  V30 2059 N 187.341 6.12338 -3.43491 0
M  V30 2060 H 192.181 1.76427 -2.40161 0
M  V30 2061 H 189.718 0.861376 -1.19242 0
M  V30 2062 H 191.676 3.97287 -1.27354 0
M  V30 2063 H 190.306 3.19854 -0.435133 0
M  V30 2064 H 189.358 2.59736 -2.77923 0
M  V30 2065 H 190.67 3.5628 -3.49094 0
M  V30 2066 H 189.824 5.60631 -2.319 0
M  V30 2067 H 188.563 4.63973 -1.50268 0
M  V30 2068 H 187.568 4.04073 -3.72834 0
M  V30 2069 H 188.793 5.04136 -4.54998 0
M  V30 2070 H 186.739 6.04672 -2.54377 0
M  V30 2071 H 186.656 6.2429 -4.26377 0
M  V30 2072 H 187.924 7.02841 -3.37097 0
M  V30 2073 N 192.153 1.28127 0.917671 0
M  V30 2074 C 193.378 1.18007 1.70555 0
M  V30 2075 C 193.803 -0.258257 1.86319 0
M  V30 2076 O 193.161 -1.1869 1.37049 0
M  V30 2077 C 193.209 1.87948 3.07746 0
M  V30 2078 O 192.313 1.18427 3.9503 0
M  V30 2079 H 191.654 0.409867 0.522403 0
M  V30 2080 H 194.184 1.69379 1.1477 0
M  V30 2081 H 194.194 1.95701 3.58001 0
M  V30 2082 H 192.869 2.92573 2.95591 0
M  V30 2083 H 191.446 1.18811 3.53466 0
M  V30 2084 N 193.631 -1.12557 1.10312 0
M  V30 2085 C 194.878 -1.84038 0.844759 0
M  V30 2086 C 195.206 -1.84026 -0.629668 0
M  V30 2087 O 194.461 -1.28026 -1.48013 0
M  V30 2088 C 194.76 -3.31462 1.33669 0
M  V30 2089 C 194.426 -3.51647 2.82232 0
M  V30 2090 C 193.088 -3.56864 3.22802 0
M  V30 2091 C 195.44 -3.58867 3.77974 0
M  V30 2092 C 192.768 -3.66844 4.57867 0
M  V30 2093 C 195.12 -3.70375 5.1284 0
M  V30 2094 C 193.784 -3.73848 5.52986 0
M  V30 2095 H 193.054 -0.673444 0.309119 0
M  V30 2096 H 195.701 -1.32824 1.37949 0
M  V30 2097 H 194.006 -3.85091 0.721949 0
M  V30 2098 H 195.703 -3.85236 1.11329 0
M  V30 2099 H 192.293 -3.48249 2.49842 0
M  V30 2100 H 196.477 -3.54107 3.47738 0
M  V30 2101 H 191.733 -3.67804 4.88396 0
M  V30 2102 H 195.907 -3.74904 5.86873 0
M  V30 2103 H 193.534 -3.81333 6.57639 0
M  V30 2104 N 195.109 -0.891671 -1.2995 0
M  V30 2105 C 196.072 -0.36828 -2.26222 0
M  V30 2106 C 197.072 0.493014 -1.53056 0
M  V30 2107 O 198.262 0.299213 -1.71611 0
M  V30 2108 C 195.394 0.47442 -3.37583 0
M  V30 2109 H 196.587 -1.21844 -2.74033 0
M  V30 2110 H 194.14 -0.669107 -1.41254 0
M  V30 2111 H 194.875 1.34489 -2.95099 0
M  V30 2112 H 194.66 -0.142615 -3.91841 0
M  V30 2113 H 196.15 0.83218 -4.09224 0
M  V30 2114 N 196.587 1.43421 -0.653314 0
M  V30 2115 C 197.534 2.30768 0.0382271 0
M  V30 2116 C 198.504 1.44755 0.814576 0
M  V30 2117 O 199.689 1.73624 0.791162 0
M  V30 2118 C 196.829 3.30336 0.998599 0
M  V30 2119 C 195.942 4.31448 0.218342 0
M  V30 2120 C 195.077 5.18098 1.17252 0
M  V30 2121 C 194.116 6.10902 0.382702 0
M  V30 2122 N 193.253 6.90176 1.28848 0
M  V30 2123 H 198.093 2.89357 -0.712511 0
M  V30 2124 H 195.63 1.42548 -0.363128 0
M  V30 2125 H 197.588 3.86572 1.56901 0
M  V30 2126 H 196.218 2.73397 1.71621 0
M  V30 2127 H 195.27 3.77506 -0.46836 0
M  V30 2128 H 196.582 4.97227 -0.395812 0
M  V30 2129 H 195.736 5.7896 1.81356 0
M  V30 2130 H 194.475 4.52444 1.82058 0
M  V30 2131 H 193.48 5.49128 -0.27169 0
M  V30 2132 H 194.705 6.78598 -0.260957 0
M  V30 2133 H 192.651 6.27171 1.92334 0
M  V30 2134 H 192.568 7.52478 0.728887 0
M  V30 2135 H 193.836 7.55543 1.91766 0
M  V30 2136 N 198.065 0.39524 1.52563 0
M  V30 2137 C 199.295 -0.184675 2.05773 0
M  V30 2138 C 199.703 -1.40571 1.26635 0
M  V30 2139 O 199.046 -1.81105 0.30769 0
M  V30 2140 C 199.108 -0.613551 3.54226 0
M  V30 2141 C 198.772 0.49484 4.54313 0
M  V30 2142 C 199.769 1.3541 5.01956 0
M  V30 2143 C 197.454 0.663565 4.97898 0
M  V30 2144 C 199.448 2.36716 5.91814 0
M  V30 2145 C 197.135 1.67996 5.87555 0
M  V30 2146 C 198.133 2.53017 6.34406 0
M  V30 2147 O 197.821 3.52917 7.22291 0
M  V30 2148 H 197.553 -0.030077 0.675331 0
M  V30 2149 H 200.107 0.560708 1.97599 0
M  V30 2150 H 198.337 -1.411 3.60038 0
M  V30 2151 H 200.026 -1.11981 3.90148 0
M  V30 2152 H 200.792 1.23509 4.6901 0
M  V30 2153 H 196.671 0.0114913 4.60999 0
M  V30 2154 H 200.215 3.03113 6.28306 0
M  V30 2155 H 196.112 1.79933 6.19915 0
M  V30 2156 H 196.88 3.48996 7.40367 0
M  V30 2157 N 199.544 -1.57102 0.125237 0
M  V30 2158 C 200.769 -2.0019 -0.542101 0
M  V30 2159 C 201.194 -1.00449 -1.59034 0
M  V30 2160 O 200.552 0.0229423 -1.81285 0
M  V30 2161 C 200.6 -3.42129 -1.13929 0
M  V30 2162 O 199.704 -3.45307 -2.2547 0
M  V30 2163 H 199.045 -0.650171 -0.134812 0
M  V30 2164 H 201.575 -2.03461 0.215553 0
M  V30 2165 H 201.585 -3.80471 -1.4733 0
M  V30 2166 H 200.26 -4.14237 -0.371531 0
M  V30 2167 H 198.837 -3.1879 -1.93462 0
M  V30 2168 N 201.022 0.148545 -1.56898 0
M  V30 2169 C 202.433 0.708766 -1.72723 0
M  V30 2170 C 202.784 1.81734 -0.739395 0
M  V30 2171 O 201.909 2.16194 0.0943169 0
M  V30 2172 C 202.504 1.29245 -3.13179 0
M  V30 2173 C 201.063 1.79925 -3.30611 0
M  V30 2174 C 200.21 0.687111 -2.68652 0
M  V30 2175 H 203.161 -0.0771063 -1.58513 0
M  V30 2176 H 203.182 2.16224 -3.13093 0
M  V30 2177 H 202.694 0.485382 -3.85053 0
M  V30 2178 H 200.795 2.63203 -2.63732 0
M  V30 2179 H 200.908 1.92903 -4.38549 0
M  V30 2180 H 199.272 1.11335 -2.29078 0
M  V30 2181 H 200.055 -0.108483 -3.43129 0
M  V30 2182 N 202.5 1.5196 0.417844 0
M  V30 2183 C 203.746 1.65836 1.16732 0
M  V30 2184 C 204.079 0.382881 1.90388 0
M  V30 2185 O 203.354 -0.618368 1.84408 0
M  V30 2186 C 203.637 2.87466 2.16876 0
M  V30 2187 C 203.49 4.25041 1.47174 0
M  V30 2188 C 204.809 3.04613 3.17646 0
M  V30 2189 H 201.928 0.603515 0.423011 0
M  V30 2190 H 204.57 1.84494 0.454105 0
M  V30 2191 H 202.72 2.71689 2.777 0
M  V30 2192 H 204.392 4.52527 0.895376 0
M  V30 2193 H 202.635 4.26843 0.773806 0
M  V30 2194 H 203.306 5.06176 2.20204 0
M  V30 2195 H 205.782 3.1923 2.66892 0
M  V30 2196 H 204.658 3.91247 3.8499 0
M  V30 2197 H 204.919 2.17541 3.84874 0
M  V30 2198 N 203.978 -0.674533 1.42435 0
M  V30 2199 C 205.389 -1.25514 1.38214 0
M  V30 2200 C 205.74 -1.96055 0.0755464 0
M  V30 2201 O 204.865 -2.00028 -0.8257 0
M  V30 2202 C 205.46 -2.28269 2.50357 0
M  V30 2203 C 204.019 -2.81856 2.49467 0
M  V30 2204 C 203.166 -1.56182 2.29134 0
M  V30 2205 H 206.117 -0.467902 1.51646 0
M  V30 2206 H 206.138 -3.10009 2.20624 0
M  V30 2207 H 205.65 -1.769 3.45439 0
M  V30 2208 H 203.751 -3.37346 1.58204 0
M  V30 2209 H 203.864 -3.30854 3.46515 0
M  V30 2210 H 202.228 -1.82761 1.774 0
M  V30 2211 H 203.011 -1.06778 3.26272 0
M  V30 2212 N 205.456 -1.28612 -0.910864 0
M  V30 2213 C 206.702 -1.16106 -1.66274 0
M  V30 2214 C 207.035 0.289113 -1.92036 0
M  V30 2215 O 206.31 1.21 -1.52281 0
M  V30 2216 C 206.593 -1.96309 -3.01885 0
M  V30 2217 C 206.446 -3.49405 -2.8326 0
M  V30 2218 C 207.765 -1.78076 -4.02463 0
M  V30 2219 H 204.884 -0.423152 -0.603417 0
M  V30 2220 H 207.526 -1.57961 -1.05586 0
M  V30 2221 H 205.676 -1.60742 -3.53687 0
M  V30 2222 H 207.348 -3.94894 -2.38446 0
M  V30 2223 H 205.591 -3.74893 -2.18261 0
M  V30 2224 H 206.262 -4.00784 -3.79574 0
M  V30 2225 H 208.738 -2.0912 -3.59733 0
M  V30 2226 H 207.614 -2.36561 -4.95308 0
M  V30 2227 H 207.875 -0.733008 -4.35981 0
M  V30 2228 N 206.934 1.1197 -1.10907 0
M  V30 2229 C 208.183 1.82947 -0.849302 0
M  V30 2230 C 208.496 1.85275 0.627112 0
M  V30 2231 O 209.702 2.52296 1.00295 0
M  V30 2232 C 208.158 3.28529 -1.46959 0
M  V30 2233 C 207.766 3.34546 -2.97965 0
M  V30 2234 C 209.51 4.04443 -1.28942 0
M  V30 2235 C 207.417 4.74491 -3.53004 0
M  V30 2236 H 206.347 0.685477 -0.314065 0
M  V30 2237 H 208.998 1.2604 -1.33365 0
M  V30 2238 H 207.38 3.85333 -0.912917 0
M  V30 2239 H 208.554 2.87654 -3.59989 0
M  V30 2240 H 206.869 2.72108 -3.15192 0
M  V30 2241 H 209.466 5.07787 -1.67502 0
M  V30 2242 H 209.809 4.15656 -0.231456 0
M  V30 2243 H 210.342 3.5401 -1.81443 0
M  V30 2244 H 207.081 4.68474 -4.58489 0
M  V30 2245 H 206.601 5.21816 -2.9575 0
M  V30 2246 H 208.28 5.4344 -3.51115 0
M  V30 2247 N 208.412 0.89855 1.29475 0
M  V30 2248 C 209.36 0.365253 2.29714 0
M  V30 2249 C 210.354 -0.534993 1.6073 0
M  V30 2250 O 211.56 -0.417921 1.75081 0
M  V30 2251 H 207.935 0.0994853 0.74539 0
M  V30 2252 H 209.906 1.22406 2.72138 0
M  V30 2253 C 208.655 -0.393159 3.4547 0
M  V30 2254 H 207.978 0.290332 3.98744 0
M  V30 2255 H 209.418 -0.731189 4.17648 0
M  V30 2256 C 207.877 -1.59539 2.9673 0
M  V30 2257 O 208.407 -2.69469 2.97908 0
M  V30 2258 N 206.613 -1.43716 2.52575 0
M  V30 2259 H 206.16 -0.542828 2.51816 0
M  V30 2260 H 206.118 -2.24288 2.20323 0
M  V30 2261 N 209.89 -1.43072 0.660911 0
M  V30 2262 C 210.823 -2.28074 -0.0758862 0
M  V30 2263 C 211.801 -1.40271 -0.822362 0
M  V30 2264 O 212.985 -1.69713 -0.820352 0
M  V30 2265 C 210.112 -3.19843 -1.11437 0
M  V30 2266 C 209.158 -4.23957 -0.465069 0
M  V30 2267 S 209.991 -5.29978 0.767078 0
M  V30 2268 C 211.147 -6.25314 -0.270682 0
M  V30 2269 H 211.38 -2.90216 0.645139 0
M  V30 2270 H 208.913 -1.47697 0.449995 0
M  V30 2271 H 210.871 -3.73257 -1.70849 0
M  V30 2272 H 209.532 -2.56863 -1.80776 0
M  V30 2273 H 208.725 -4.88299 -1.24819 0
M  V30 2274 H 208.327 -3.73959 0.0551242 0
M  V30 2275 H 210.619 -6.67932 -1.13459 0
M  V30 2276 H 211.562 -7.07293 0.337916 0
M  V30 2277 H 211.97 -5.61195 -0.609937 0
M  V30 2278 N 211.368 -0.403325 -1.52352 0
M  V30 2279 C 212.278 0.432009 -2.30588 0
M  V30 2280 C 213.294 1.05884 -1.38075 0
M  V30 2281 O 214.47 1.06161 -1.71148 0
M  V30 2282 C 211.535 1.53669 -3.10784 0
M  V30 2283 C 210.596 0.933525 -4.19027 0
M  V30 2284 C 209.829 1.98557 -4.9539 0
M  V30 2285 O 210.052 3.20283 -4.71991 0
M  V30 2286 O 208.986 1.59504 -5.80381 0
M  V30 2287 H 212.812 -0.205739 -3.03002 0
M  V30 2288 H 210.397 -0.166675 -1.48467 0
M  V30 2289 H 212.279 2.17814 -3.60742 0
M  V30 2290 H 210.954 2.15915 -2.41169 0
M  V30 2291 H 209.861 0.254954 -3.7323 0
M  V30 2292 H 211.194 0.35508 -4.90918 0
M  V30 2293 N 212.846 1.57033 -0.133567 0
M  V30 2294 C 214.074 2.00044 0.528195 0
M  V30 2295 C 214.489 1.01349 1.59291 0
M  V30 2296 O 213.846 0.00848369 1.82498 0
M  V30 2297 C 213.897 3.43018 1.1411 0
M  V30 2298 O 213.618 4.37939 0.11892 0
M  V30 2299 C 215.119 4.01237 1.88477 0
M  V30 2300 H 212.339 0.656517 0.138661 0
M  V30 2301 H 214.883 2.03267 -0.224196 0
M  V30 2302 H 213.038 3.40688 1.84418 0
M  V30 2303 H 213.452 5.21436 0.56613 0
M  V30 2304 H 214.926 5.03314 2.26669 0
M  V30 2305 H 215.403 3.41193 2.76558 0
M  V30 2306 H 216.009 4.07156 1.22898 0
M  V30 2307 N 214.325 -0.140222 1.56975 0
M  V30 2308 C 215.574 -0.850152 1.82908 0
M  V30 2309 C 215.887 -1.82028 0.715892 0
M  V30 2310 O 217.093 -2.57485 0.861016 0
M  V30 2311 C 215.549 -1.5625 3.24213 0
M  V30 2312 C 215.157 -0.63443 4.43485 0
M  V30 2313 C 216.901 -2.25881 3.59413 0
M  V30 2314 C 214.808 -1.34879 5.75814 0
M  V30 2315 H 213.738 -0.321221 0.682153 0
M  V30 2316 H 216.389 -0.102874 1.83211 0
M  V30 2317 H 214.771 -2.35565 3.18316 0
M  V30 2318 H 215.945 0.12398 4.60633 0
M  V30 2319 H 214.26 -0.0461836 4.16374 0
M  V30 2320 H 216.857 -2.79978 4.5554 0
M  V30 2321 H 217.2 -3.02693 2.85802 0
M  V30 2322 H 217.733 -1.53477 3.67001 0
M  V30 2323 H 214.472 -0.622385 6.52539 0
M  V30 2324 H 213.992 -2.07974 5.6259 0
M  V30 2325 H 215.671 -1.88784 6.18845 0
M  V30 2326 N 215.803 -1.52179 -0.40978 0
M  V30 2327 C 217.031 -1.70054 -1.17853 0
M  V30 2328 C 217.446 -0.409735 -1.843 0
M  V30 2329 O 216.803 0.614183 -1.71855 0
M  V30 2330 C 216.854 -2.83568 -2.24213 0
M  V30 2331 O 216.575 -4.0765 -1.60478 0
M  V30 2332 C 218.076 -3.12947 -3.13973 0
M  V30 2333 H 215.296 -0.569917 -0.354169 0
M  V30 2334 H 217.84 -1.98734 -0.482198 0
M  V30 2335 H 215.995 -2.57409 -2.89516 0
M  V30 2336 H 216.409 -4.70899 -2.30986 0
M  V30 2337 H 217.883 -3.95889 -3.84677 0
M  V30 2338 H 218.36 -2.26472 -3.76307 0
M  V30 2339 H 218.966 -3.40868 -2.5434 0
M  V30 2340 N 217.281 0.66697 -1.42791 0
M  V30 2341 C 218.231 1.77313 -1.43332 0
M  V30 2342 C 219.215 1.5801 -0.303586 0
M  V30 2343 O 220.407 1.68356 -0.546385 0
M  V30 2344 C 217.536 3.15822 -1.34578 0
M  V30 2345 C 216.622 3.40721 -2.52528 0
M  V30 2346 N 217.013 3.36162 -3.77927 0
M  V30 2347 C 215.311 3.71387 -2.46956 0
M  V30 2348 C 216.012 3.60762 -4.56318 0
M  V30 2349 N 214.988 3.81908 -3.86843 0
M  V30 2350 H 218.79 1.72193 -2.38174 0
M  V30 2351 H 216.304 0.868114 -1.3725 0
M  V30 2352 H 218.301 3.951 -1.33048 0
M  V30 2353 H 216.961 3.22133 -0.407453 0
M  V30 2354 H 217.972 3.15885 -4.10411 0
M  V30 2355 H 214.649 3.84897 -1.61743 0
M  V30 2356 H 216.039 3.63132 -5.65318 0
M  V30 2357 N 218.759 1.29093 0.90403 0
M  V30 2358 C 220.17 1.15186 1.46932 0
M  V30 2359 C 220.521 -0.254587 1.94541 0
M  V30 2360 O 219.646 -1.14972 1.83332 0
M  V30 2361 C 220.241 2.08492 2.67051 0
M  V30 2362 C 218.8 1.98621 3.19729 0
M  V30 2363 C 217.947 1.9967 1.92425 0
M  V30 2364 H 220.898 1.41641 0.715789 0
M  V30 2365 H 220.919 1.65461 3.42641 0
M  V30 2366 H 220.431 3.10847 2.3237 0
M  V30 2367 H 218.532 0.993389 3.59114 0
M  V30 2368 H 218.645 2.86068 3.8432 0
M  V30 2369 H 217.009 1.44208 2.09943 0
M  V30 2370 H 217.792 3.03721 1.60026 0
M  V30 2371 N 220.237 -1.11381 1.11499 0
M  V30 2372 C 221.477 -1.84763 0.874188 0
M  V30 2373 C 221.841 -1.82726 -0.589496 0
M  V30 2374 O 223.042 -2.51562 -0.947089 0
M  V30 2375 C 221.313 -3.27931 1.42112 0
M  V30 2376 S 222.872 -4.18557 1.31739 0
M  V30 2377 H 219.69 -0.637115 0.315603 0
M  V30 2378 H 222.292 -1.34097 1.42261 0
M  V30 2379 H 220.996 -3.26978 2.48019 0
M  V30 2380 H 220.527 -3.83665 0.869761 0
M  V30 2381 H 222.542 -4.95396 0.282335 0
M  V30 2382 N 221.715 -0.905404 -1.28997 0
M  V30 2383 C 222.647 -0.344748 -2.26592 0
M  V30 2384 C 223.66 0.512135 -1.54535 0
M  V30 2385 O 224.849 0.328368 -1.75454 0
M  V30 2386 C 221.949 0.526587 -3.34784 0
M  V30 2387 C 221.122 -0.305871 -4.36329 0
M  V30 2388 C 220.181 0.499209 -5.23827 0
M  V30 2389 O 219.207 -0.0853004 -5.69136 0
M  V30 2390 N 220.409 1.80408 -5.51755 0
M  V30 2391 H 223.174 -1.18359 -2.75338 0
M  V30 2392 H 220.735 -0.770481 -1.42391 0
M  V30 2393 H 222.727 1.07171 -3.90252 0
M  V30 2394 H 221.297 1.26613 -2.85811 0
M  V30 2395 H 220.517 -1.0324 -3.80441 0
M  V30 2396 H 221.805 -0.875773 -5.01206 0
M  V30 2397 H 221.203 2.3016 -5.16762 0
M  V30 2398 H 219.76 2.29621 -6.10014 0
M  V30 2399 N 223.193 1.4272 -0.668489 0
M  V30 2400 C 224.103 2.34596 0.0139753 0
M  V30 2401 C 225.119 1.5474 0.795703 0
M  V30 2402 O 226.295 1.87334 0.739466 0
M  V30 2403 C 223.36 3.33202 0.957982 0
M  V30 2404 C 222.421 4.28957 0.17149 0
M  V30 2405 C 221.654 5.22853 1.07053 0
M  V30 2406 O 221.877 5.21531 2.31001 0
M  V30 2407 O 220.811 5.9952 0.534727 0
M  V30 2408 H 224.637 2.9448 -0.742661 0
M  V30 2409 H 222.222 1.43117 -0.428705 0
M  V30 2410 H 224.104 3.93796 1.50008 0
M  V30 2411 H 222.779 2.758 1.69458 0
M  V30 2412 H 221.686 3.71796 -0.414558 0
M  V30 2413 H 223.019 4.89383 -0.52586 0
M  V30 2414 N 224.671 0.411399 1.52136 0
M  V30 2415 C 225.601 -0.404015 2.29978 0
M  V30 2416 C 226.582 -1.04412 1.34284 0
M  V30 2417 O 227.767 -1.0527 1.63192 0
M  V30 2418 C 224.897 -1.5197 3.12286 0
M  V30 2419 C 223.851 -1.00448 4.16046 0
M  V30 2420 C 223.177 -2.21393 4.86712 0
M  V30 2421 C 224.477 -0.0569336 5.22269 0
M  V30 2422 H 226.171 0.245529 2.98392 0
M  V30 2423 H 223.717 0.119525 1.43503 0
M  V30 2424 H 225.67 -2.09715 3.6551 0
M  V30 2425 H 224.394 -2.19716 2.41646 0
M  V30 2426 H 223.053 -0.449421 3.63835 0
M  V30 2427 H 222.701 -2.87699 4.12599 0
M  V30 2428 H 222.401 -1.87571 5.56858 0
M  V30 2429 H 223.925 -2.7974 5.4275 0
M  V30 2430 H 225.339 -0.54325 5.7072 0
M  V30 2431 H 223.736 0.192594 5.99791 0
M  V30 2432 H 224.806 0.887663 4.76706 0
M  V30 2433 N 226.149 -1.5696 0.141893 0
M  V30 2434 C 227.112 -2.15316 -0.785587 0
M  V30 2435 C 228.112 -1.09366 -1.1788 0
M  V30 2436 O 229.302 -1.35031 -1.10056 0
M  V30 2437 C 226.434 -2.71211 -2.06537 0
M  V30 2438 H 227.627 -2.98608 -0.278041 0
M  V30 2439 H 225.18 -1.5593 -0.107519 0
M  V30 2440 H 225.915 -1.91571 -2.6167 0
M  V30 2441 H 225.7 -3.4872 -1.79268 0
M  V30 2442 H 227.19 -3.16189 -2.72789 0
M  V30 2443 N 227.627 0.131896 -1.57047 0
M  V30 2444 C 228.577 1.1679 -1.95816 0
M  V30 2445 C 229.561 1.37756 -0.831393 0
M  V30 2446 O 230.753 1.39065 -1.09499 0
M  V30 2447 C 227.882 2.49778 -2.35512 0
M  V30 2448 C 226.968 2.32342 -3.54793 0
M  V30 2449 N 227.359 1.8469 -4.70875 0
M  V30 2450 C 225.657 2.63043 -3.60173 0
M  V30 2451 C 226.358 1.80656 -5.52936 0
M  V30 2452 N 225.334 2.24528 -4.95064 0
M  V30 2453 H 229.136 0.791818 -2.83033 0
M  V30 2454 H 226.65 0.339791 -1.58805 0
M  V30 2455 H 228.647 3.24692 -2.61498 0
M  V30 2456 H 227.307 2.88156 -1.49654 0
M  V30 2457 H 228.318 1.54429 -4.9434 0
M  V30 2458 H 224.995 3.05193 -2.84892 0
M  V30 2459 H 226.385 1.45178 -6.56028 0
M  V30 2460 N 229.106 1.52395 0.401703 0
M  V30 2461 C 230.069 1.75636 1.47257 0
M  V30 2462 C 231.069 0.62628 1.48103 0
M  V30 2463 O 232.259 0.894227 1.49497 0
M  V30 2464 C 229.391 1.84553 2.86624 0
M  V30 2465 H 230.584 2.71241 1.27938 0
M  V30 2466 H 228.137 1.42923 0.632662 0
M  V30 2467 H 228.872 0.908882 3.11303 0
M  V30 2468 H 228.657 2.66715 2.87412 0
M  V30 2469 H 230.147 2.04251 3.64241 0
M  V30 2470 N 230.584 -0.659388 1.43143 0
M  V30 2471 C 231.514 -1.78422 1.50625 0
M  V30 2472 C 232.495 -1.66216 0.361443 0
M  V30 2473 O 233.68 -1.85404 0.577834 0
M  V30 2474 C 230.81 -3.16815 1.42287 0
M  V30 2475 C 229.764 -3.43777 2.54954 0
M  V30 2476 C 229.09 -4.81905 2.31671 0
M  V30 2477 C 230.39 -3.39134 3.97222 0
M  V30 2478 H 232.084 -1.72417 2.44771 0
M  V30 2479 H 229.63 -0.828084 1.17808 0
M  V30 2480 H 231.583 -3.95253 1.46127 0
M  V30 2481 H 230.307 -3.23534 0.446435 0
M  V30 2482 H 228.966 -2.67707 2.50457 0
M  V30 2483 H 228.614 -4.85294 1.32284 0
M  V30 2484 H 228.314 -5.00906 3.07192 0
M  V30 2485 H 229.838 -5.62609 2.37284 0
M  V30 2486 H 231.252 -4.07518 4.03239 0
M  V30 2487 H 229.649 -3.69671 4.72719 0
M  V30 2488 H 230.719 -2.37426 4.22797 0
M  V30 2489 N 232.062 -1.29571 -0.897171 0
M  V30 2490 C 233.025 -1.14913 -1.98312 0
M  V30 2491 C 234.025 -0.0838629 -1.60581 0
M  V30 2492 O 235.215 -0.331006 -1.71026 0
M  V30 2493 C 232.347 -0.757835 -3.3237 0
M  V30 2494 H 233.54 -2.11377 -2.12743 0
M  V30 2495 H 231.093 -1.12793 -1.08201 0
M  V30 2496 H 231.828 0.206837 -3.2364 0
M  V30 2497 H 231.613 -1.52755 -3.61121 0
M  V30 2498 H 233.103 -0.678408 -4.12053 0
M  V30 2499 N 233.54 1.10788 -1.12088 0
M  V30 2500 C 234.47 2.19083 -0.807755 0
M  V30 2501 C 235.451 1.6858 0.226859 0
M  V30 2502 O 236.636 1.93997 0.0888475 0
M  V30 2503 C 233.766 3.46344 -0.257576 0
M  V30 2504 C 232.72 4.101 -1.22483 0
M  V30 2505 C 232.046 5.32016 -0.535052 0
M  V30 2506 C 233.346 4.54236 -2.57811 0
M  V30 2507 H 235.04 2.45534 -1.71328 0
M  V30 2508 H 232.586 1.1801 -0.825205 0
M  V30 2509 H 234.539 4.21392 -0.0262679 0
M  V30 2510 H 233.263 3.19373 0.683278 0
M  V30 2511 H 231.922 3.37054 -1.44189 0
M  V30 2512 H 231.57 5.01319 0.410827 0
M  V30 2513 H 231.27 5.75625 -1.18024 0
M  V30 2514 H 232.794 6.09799 -0.312695 0
M  V30 2515 H 234.208 5.20575 -2.40155 0
M  V30 2516 H 232.605 5.08682 -3.18375 0
M  V30 2517 H 233.675 3.6734 -3.16528 0
M  V30 2518 N 235.018 0.912232 1.28515 0
M  V30 2519 C 235.95 0.35676 2.26406 0
M  V30 2520 C 236.963 -0.503933 1.54804 0
M  V30 2521 O 238.152 -0.319059 1.75625 0
M  V30 2522 C 235.252 -0.508825 3.35058 0
M  V30 2523 C 234.425 0.329007 4.36161 0
M  V30 2524 C 233.484 -0.471422 5.24084 0
M  V30 2525 O 232.51 0.115482 5.69083 0
M  V30 2526 N 233.712 -1.77479 5.52704 0
M  V30 2527 H 236.477 1.19818 2.74707 0
M  V30 2528 H 234.038 0.778022 1.4198 0
M  V30 2529 H 236.03 -1.051 3.90815 0
M  V30 2530 H 234.6 -1.25095 2.86478 0
M  V30 2531 H 233.82 1.05256 3.79888 0
M  V30 2532 H 235.108 0.90234 5.00735 0
M  V30 2533 H 234.506 -2.27417 5.17975 0
M  V30 2534 H 233.063 -2.26382 6.11224 0
M  V30 2535 N 236.496 -1.42363 0.676048 0
M  V30 2536 C 237.406 -2.346 -0.00153389 0
M  V30 2537 C 238.422 -1.5516 -0.787485 0
M  V30 2538 O 239.598 -1.87723 -0.729521 0
M  V30 2539 C 236.663 -3.33705 -0.940298 0
M  V30 2540 C 235.724 -4.29042 -0.148739 0
M  V30 2541 C 234.957 -5.23413 -1.04279 0
M  V30 2542 O 235.18 -5.22749 -2.28232 0
M  V30 2543 O 234.114 -5.99795 -0.502925 0
M  V30 2544 H 237.94 -2.94082 0.758268 0
M  V30 2545 H 235.525 -1.42888 0.436289 0
M  V30 2546 H 237.407 -3.94586 -1.47917 0
M  V30 2547 H 236.082 -2.76695 -1.67993 0
M  V30 2548 H 234.989 -3.71571 0.43427 0
M  V30 2549 H 236.322 -4.89097 0.551805 0
M  V30 2550 N 237.974 -0.419461 -1.51915 0
M  V30 2551 C 238.924 0.418496 -2.24126 0
M  V30 2552 C 239.908 1.00495 -1.25656 0
M  V30 2553 O 241.1 0.926058 -1.50842 0
M  V30 2554 C 238.229 1.52899 -3.07371 0
M  V30 2555 C 237.315 0.952797 -4.13258 0
M  V30 2556 N 237.706 0.104175 -5.05693 0
M  V30 2557 C 236.004 1.22224 -4.28926 0
M  V30 2558 C 236.705 -0.21752 -5.81293 0
M  V30 2559 N 235.681 0.394293 -5.42168 0
M  V30 2560 H 239.483 -0.236048 -2.92951 0
M  V30 2561 H 236.997 -0.230481 -1.60756 0
M  V30 2562 H 238.994 2.14199 -3.57665 0
M  V30 2563 H 237.654 2.18605 -2.40088 0
M  V30 2564 H 238.665 -0.260924 -5.17242 0
M  V30 2565 H 235.342 1.87812 -3.72871 0
M  V30 2566 H 236.732 -0.906992 -6.6575 0
M  V30 2567 N 239.452 1.56882 -0.150215 0
M  V30 2568 C 240.699 1.96228 0.500093 0
M  V30 2569 C 241.027 1.03522 1.64661 0
M  V30 2570 O 240.282 0.0650683 1.95592 0
M  V30 2571 C 240.581 3.41801 1.04437 0
M  V30 2572 C 240.247 4.50897 0.0159671 0
M  V30 2573 C 238.909 4.8046 -0.266731 0
M  V30 2574 C 241.261 5.16703 -0.683192 0
M  V30 2575 C 238.589 5.73135 -1.25434 0
M  V30 2576 C 240.941 6.10441 -1.65964 0
M  V30 2577 C 239.605 6.38382 -1.95 0
M  V30 2578 H 238.875 0.718048 0.182997 0
M  V30 2579 H 241.522 1.90019 -0.237724 0
M  V30 2580 H 239.827 3.44857 1.85959 0
M  V30 2581 H 241.524 3.69573 1.55618 0
M  V30 2582 H 238.114 4.27891 0.246485 0
M  V30 2583 H 242.298 4.93993 -0.477983 0
M  V30 2584 H 237.554 5.93074 -1.48571 0
M  V30 2585 H 241.728 6.60507 -2.20689 0
M  V30 2586 H 239.355 7.09996 -2.71679 0
M  V30 2587 N 240.93 -0.123565 1.57115 0
M  V30 2588 C 242.178 -0.83051 1.84247 0
M  V30 2589 C 242.499 -1.80629 0.73471 0
M  V30 2590 O 241.769 -1.94403 -0.241688 0
M  V30 2591 H 240.349 -0.309694 0.679778 0
M  V30 2592 H 243.011 -0.111976 1.94578 0
M  V30 2593 H 242.107 -1.37852 2.80006 0
M  V30 2594 N 242.408 -1.52605 -0.393616 0
M  V30 2595 C 243.636 -1.71294 -1.16043 0
M  V30 2596 C 244.051 -0.429259 -1.83855 0
M  V30 2597 O 243.408 0.595921 -1.72496 0
M  V30 2598 C 243.459 -2.8593 -2.21193 0
M  V30 2599 O 243.18 -4.09329 -1.56146 0
M  V30 2600 C 244.681 -3.16259 -3.10636 0
M  V30 2601 H 241.901 -0.573641 -0.348104 0
M  V30 2602 H 244.445 -1.99234 -0.461092 0
M  V30 2603 H 242.6 -2.60465 -2.86769 0
M  V30 2604 H 243.014 -4.73323 -2.25978 0
M  V30 2605 H 244.488 -3.99946 -3.80456 0
M  V30 2606 H 244.965 -2.3045 -3.73884 0
M  V30 2607 H 245.571 -3.43547 -2.50711 0
M  V30 2608 N 243.887 0.651787 -1.4349 0
M  V30 2609 C 245.298 1.233 -1.40193 0
M  V30 2610 C 245.649 1.9591 -0.106727 0
M  V30 2611 O 244.774 2.01316 0.793773 0
M  V30 2612 C 245.369 2.24257 -2.53957 0
M  V30 2613 C 243.928 2.77852 -2.5392 0
M  V30 2614 C 243.075 1.52517 -2.3159 0
M  V30 2615 H 246.026 0.443717 -1.52371 0
M  V30 2616 H 246.047 3.0646 -2.25528 0
M  V30 2617 H 245.559 1.71382 -3.4821 0
M  V30 2618 H 243.66 3.34786 -1.63551 0
M  V30 2619 H 243.773 3.25299 -3.51735 0
M  V30 2620 H 242.137 1.79915 -1.80285 0
M  V30 2621 H 242.92 1.01574 -3.27929 0
M  V30 2622 N 245.365 1.30045 0.890287 0
M  V30 2623 C 246.642 1.09227 1.62262 0
M  V30 2624 C 247.022 -0.360305 2.08002 0
M  V30 2625 O 246.37 -1.35084 1.84295 0
M  V30 2626 C 246.58 2.08835 2.79623 0
M  V30 2627 C 247.928 2.40266 3.50082 0
M  V30 2628 O 248.952 2.07104 2.89804 0
M  V30 2629 O 247.811 2.96967 4.58773 0
M  V30 2630 H 244.905 0.419132 0.712922 0
M  V30 2631 H 247.451 1.41451 0.937529 0
M  V30 2632 H 246.223 3.06633 2.43089 0
M  V30 2633 H 245.846 1.77397 3.55832 0
M  V30 2634 N 246.843 -1.10192 1.12674 0
M  V30 2635 C 247.773 -2.18652 0.819362 0
M  V30 2636 C 248.754 -1.68698 -0.217915 0
M  V30 2637 O 249.939 -1.94041 -0.0785581 0
M  V30 2638 C 247.069 -3.46202 0.27594 0
M  V30 2639 C 246.023 -4.09444 1.24656 0
M  V30 2640 C 245.349 -5.31725 0.563258 0
M  V30 2641 C 246.649 -4.52863 2.60217 0
M  V30 2642 H 248.343 -2.44622 1.72628 0
M  V30 2643 H 245.889 -1.17571 0.831451 0
M  V30 2644 H 247.842 -4.21372 0.0486149 0
M  V30 2645 H 246.566 -3.1973 -0.666331 0
M  V30 2646 H 245.225 -3.36284 1.45974 0
M  V30 2647 H 244.873 -5.0153 -0.384235 0
M  V30 2648 H 244.573 -5.74991 1.21075 0
M  V30 2649 H 246.097 -6.09624 0.34503 0
M  V30 2650 H 247.511 -5.19294 2.42913 0
M  V30 2651 H 245.908 -5.06986 3.21068 0
M  V30 2652 H 246.978 -3.65656 3.18471 0
M  V30 2653 N 248.321 -0.919034 -1.28029 0
M  V30 2654 C 249.737 -0.617972 -1.4715 0
M  V30 2655 C 249.937 0.835242 -1.83374 0
M  V30 2656 O 248.993 1.61388 -1.94191 0
M  V30 2657 C 250.306 -1.56041 -2.57044 0
M  V30 2658 C 251.854 -1.56769 -2.7091 0
M  V30 2659 C 252.329 -2.49688 -3.83953 0
M  V30 2660 N 253.82 -2.47845 -3.91314 0
M  V30 2661 C 254.555 -3.16437 -4.78179 0
M  V30 2662 N 254.051 -3.94376 -5.69596 0
M  V30 2663 N 255.844 -3.05498 -4.71834 0
M  V30 2664 H 247.995 -1.85866 -1.02798 0
M  V30 2665 H 250.258 -0.797506 -0.512531 0
M  V30 2666 H 249.964 -2.59671 -2.372 0
M  V30 2667 H 249.838 -1.29551 -3.54255 0
M  V30 2668 H 252.225 -0.538745 -2.90141 0
M  V30 2669 H 252.306 -1.87305 -1.74214 0
M  V30 2670 H 251.95 -3.52688 -3.65477 0
M  V30 2671 H 251.88 -2.16453 -4.80058 0
M  V30 2672 H 254.371 -1.91234 -3.25941 0
M  V30 2673 H 254.684 -4.43721 -6.32718 0
M  V30 2674 H 253.029 -3.98481 -5.69419 0
M  V30 2675 H 256.22 -2.44108 -3.99411 0
M  V30 2676 H 256.393 -3.59225 -5.39316 0
M  V30 2677 N 249.799 1.42003 -0.683588 0
M  V30 2678 C 251.047 2.01015 -0.209101 0
M  V30 2679 C 251.368 1.54365 1.19149 0
M  V30 2680 O 250.638 0.769083 1.80172 0
M  V30 2681 H 249.218 0.743294 -0.074315 0
M  V30 2682 H 251.88 1.73798 -0.882066 0
M  V30 2683 H 250.976 3.11343 -0.2172 0
M  V30 2684 N 251.277 0.427512 1.51691 0
M  V30 2685 C 252.224 -0.388867 2.275 0
M  V30 2686 C 253.194 -1.02532 1.30677 0
M  V30 2687 O 254.379 -1.0461 1.59566 0
M  V30 2688 C 251.519 -1.48954 3.11298 0
M  V30 2689 C 250.632 -0.872194 4.23104 0
M  V30 2690 C 249.767 -1.94709 4.94228 0
M  V30 2691 C 248.806 -1.30766 5.97969 0
M  V30 2692 N 247.943 -2.32349 6.62539 0
M  V30 2693 H 252.783 0.263997 2.96828 0
M  V30 2694 H 250.32 0.142033 1.46413 0
M  V30 2695 H 252.278 -2.13887 3.58201 0
M  V30 2696 H 250.908 -2.11217 2.44105 0
M  V30 2697 H 249.96 -0.111419 3.80237 0
M  V30 2698 H 251.272 -0.365264 4.97461 0
M  V30 2699 H 250.426 -2.67327 5.44629 0
M  V30 2700 H 249.165 -2.48773 4.1948 0
M  V30 2701 H 248.17 -0.566902 5.4687 0
M  V30 2702 H 249.395 -0.774483 6.74669 0
M  V30 2703 H 247.341 -2.85511 5.90609 0
M  V30 2704 H 247.258 -1.8652 7.3263 0
M  V30 2705 H 248.526 -3.04481 7.17574 0
M  V30 2706 N 252.755 -1.56801 0.158532 0
M  V30 2707 C 253.702 -2.17337 -0.776729 0
M  V30 2708 C 254.672 -1.1096 -1.23601 0
M  V30 2709 O 255.857 -1.39054 -1.30647 0
M  V30 2710 C 252.997 -2.80822 -2.00582 0
M  V30 2711 C 252.11 -4.01624 -1.59129 0
M  V30 2712 C 251.245 -4.53072 -2.77306 0
M  V30 2713 C 250.284 -5.66314 -2.32282 0
M  V30 2714 N 249.421 -6.12329 -3.43508 0
M  V30 2715 H 254.261 -2.96918 -0.253701 0
M  V30 2716 H 251.798 -1.46661 -0.113504 0
M  V30 2717 H 253.756 -3.15779 -2.72652 0
M  V30 2718 H 252.386 -2.03866 -2.50277 0
M  V30 2719 H 251.438 -3.72571 -0.767806 0
M  V30 2720 H 252.75 -4.83633 -1.2207 0
M  V30 2721 H 251.904 -4.90145 -3.57551 0
M  V30 2722 H 250.643 -3.70095 -3.17617 0
M  V30 2723 H 249.648 -5.28806 -1.5048 0
M  V30 2724 H 250.873 -6.51085 -1.93043 0
M  V30 2725 H 248.819 -5.32284 -3.83418 0
M  V30 2726 H 248.736 -6.89293 -3.105 0
M  V30 2727 H 250.004 -6.5405 -4.24075 0
M  V30 2728 N 254.233 0.115231 -1.57178 0
M  V30 2729 C 255.463 0.835224 -1.88964 0
M  V30 2730 C 255.871 1.73774 -0.74829 0
M  V30 2731 O 255.214 1.81401 0.289739 0
M  V30 2732 C 255.276 1.7178 -3.15804 0
M  V30 2733 C 254.94 0.989198 -4.46166 0
M  V30 2734 C 255.937 0.328263 -5.18863 0
M  V30 2735 C 253.622 0.969256 -4.9286 0
M  V30 2736 C 255.616 -0.342873 -6.36477 0
M  V30 2737 C 253.303 0.294324 -6.10391 0
M  V30 2738 C 254.301 -0.360582 -6.82048 0
M  V30 2739 O 253.989 -1.02474 -7.97342 0
M  V30 2740 H 253.721 0.245197 -0.629964 0
M  V30 2741 H 256.275 0.10303 -2.05141 0
M  V30 2742 H 254.505 2.49173 -2.95719 0
M  V30 2743 H 256.194 2.31255 -3.33581 0
M  V30 2744 H 256.96 0.335263 -4.8384 0
M  V30 2745 H 252.839 1.46844 -4.36987 0
M  V30 2746 H 256.383 -0.854629 -6.92345 0
M  V30 2747 H 252.28 0.285099 -6.4487 0
M  V30 2748 H 253.048 -0.929594 -8.13204 0
M  V30 2749 N 255.711 1.52812 0.385517 0
M  V30 2750 C 256.957 1.68275 1.13188 0
M  V30 2751 C 257.29 0.423179 1.89533 0
M  V30 2752 O 256.565 -0.579113 1.85679 0
M  V30 2753 C 256.848 2.92001 2.1073 0
M  V30 2754 C 256.701 4.28067 1.38125 0
M  V30 2755 C 258.02 3.11283 3.11113 0
M  V30 2756 H 255.139 0.612352 0.410115 0
M  V30 2757 H 257.781 1.85415 0.414869 0
M  V30 2758 H 255.931 2.77519 2.71874 0
M  V30 2759 H 257.603 4.54324 0.799187 0
M  V30 2760 H 255.846 4.28388 0.683092 0
M  V30 2761 H 256.517 5.10733 2.09417 0
M  V30 2762 H 258.993 3.2482 2.6006 0
M  V30 2763 H 257.869 3.99325 3.76605 0
M  V30 2764 H 258.13 2.25656 3.80173 0
M  V30 2765 N 257.189 -0.644168 1.43834 0
M  V30 2766 C 258.119 -1.76814 1.52509 0
M  V30 2767 C 259.1 -1.65823 0.379052 0
M  V30 2768 O 260.285 -1.84781 0.597466 0
M  V30 2769 C 257.415 -3.15288 1.4564 0
M  V30 2770 C 256.369 -3.41053 2.58586 0
M  V30 2771 C 255.695 -4.79421 2.36769 0
M  V30 2772 C 256.995 -3.34902 4.00797 0
M  V30 2773 H 258.689 -1.69812 2.46586 0
M  V30 2774 H 256.235 -0.815542 1.1868 0
M  V30 2775 H 258.188 -3.93681 1.50311 0
M  V30 2776 H 256.912 -3.23043 0.480725 0
M  V30 2777 H 255.571 -2.65035 2.53282 0
M  V30 2778 H 255.219 -4.83863 1.37424 0
M  V30 2779 H 254.919 -4.9762 3.12487 0
M  V30 2780 H 256.443 -5.6006 2.43238 0
M  V30 2781 H 257.857 -4.03218 4.07539 0
M  V30 2782 H 256.254 -3.64637 4.76613 0
M  V30 2783 H 257.324 -2.32928 4.25291 0
M  V30 2784 N 258.668 -1.30515 -0.883378 0
M  V30 2785 C 259.896 -1.22359 -1.66841 0
M  V30 2786 C 260.311 0.213296 -1.87591 0
M  V30 2787 O 259.668 1.14075 -1.42454 0
M  V30 2788 C 259.719 -1.95011 -3.04389 0
M  V30 2789 O 259.44 -3.3309 -2.84575 0
M  V30 2790 C 260.941 -1.93532 -3.98824 0
M  V30 2791 H 258.161 -0.423371 -0.520575 0
M  V30 2792 H 260.705 -1.72167 -1.10357 0
M  V30 2793 H 258.86 -1.48997 -3.57601 0
M  V30 2794 H 259.274 -3.69907 -3.71846 0
M  V30 2795 H 260.748 -2.48902 -4.92699 0
M  V30 2796 H 261.225 -0.914627 -4.29571 0
M  V30 2797 H 261.831 -2.39364 -3.51547 0
M  V30 2798 N 260.146 1.09593 -1.13257 0
M  V30 2799 C 261.392 1.82181 -0.904521 0
M  V30 2800 C 261.747 1.83967 0.563358 0
M  V30 2801 O 261.04 1.29566 1.41149 0
M  V30 2802 C 261.234 3.27802 -1.42411 0
M  V30 2803 C 261.063 3.40201 -2.94097 0
M  V30 2804 C 259.833 3.52104 -3.62424 0
M  V30 2805 C 262.031 3.32875 -3.92044 0
M  V30 2806 N 260.013 3.53169 -5.0214 0
M  V30 2807 C 261.384 3.40789 -5.17941 0
M  V30 2808 C 263.439 3.16531 -3.84334 0
M  V30 2809 C 262.142 3.34042 -6.37031 0
M  V30 2810 C 264.168 3.11109 -5.02956 0
M  V30 2811 C 263.53 3.19614 -6.27715 0
M  V30 2812 H 259.629 0.681015 -0.384373 0
M  V30 2813 H 262.213 1.3099 -1.44048 0
M  V30 2814 H 260.384 3.77466 -0.915086 0
M  V30 2815 H 262.116 3.88393 -1.13722 0
M  V30 2816 H 258.871 3.5548 -3.12939 0
M  V30 2817 H 259.295 3.57291 -5.75041 0
M  V30 2818 H 263.937 3.08827 -2.88766 0
M  V30 2819 H 261.655 3.4051 -7.32857 0
M  V30 2820 H 265.241 2.99601 -4.98729 0
M  V30 2821 H 264.121 3.15432 -7.17964 0
M  V30 2822 N 261.624 0.925811 1.2754 0
M  V30 2823 C 262.852 0.581509 1.9856 0
M  V30 2824 C 263.267 -0.840041 1.69082 0
M  V30 2825 O 262.624 -1.55805 0.950312 0
M  V30 2826 C 262.675 0.795589 3.52637 0
M  V30 2827 O 262.396 2.16121 3.81082 0
M  V30 2828 C 263.897 0.459744 4.4091 0
M  V30 2829 H 261.117 0.220538 0.633722 0
M  V30 2830 H 263.661 1.24232 1.6244 0
M  V30 2831 H 261.816 0.18161 3.86974 0
M  V30 2832 H 262.23 2.2098 4.75676 0
M  V30 2833 H 263.704 0.660244 5.48037 0
M  V30 2834 H 264.181 -0.604625 4.35018 0
M  V30 2835 H 264.787 1.05178 4.12089 0
M  V30 2836 N 263.102 -1.41638 0.69111 0
M  V30 2837 C 264.332 -2.0533 0.228758 0
M  V30 2838 C 264.74 -1.52089 -1.12541 0
M  V30 2839 O 264.083 -0.662145 -1.71351 0
M  V30 2840 C 264.145 -3.59349 0.10407 0
M  V30 2841 C 263.809 -4.35362 1.38956 0
M  V30 2842 C 264.806 -4.64942 2.32648 0
M  V30 2843 C 262.491 -4.74714 1.64169 0
M  V30 2844 C 264.485 -5.32828 3.49818 0
M  V30 2845 C 262.172 -5.42338 2.81625 0
M  V30 2846 C 263.17 -5.71322 3.74273 0
M  V30 2847 O 262.858 -6.37554 4.89673 0
M  V30 2848 H 262.59 -0.667796 0.104997 0
M  V30 2849 H 265.144 -1.82477 0.942938 0
M  V30 2850 H 263.374 -3.80924 -0.665839 0
M  V30 2851 H 265.063 -4.04633 -0.320519 0
M  V30 2852 H 265.829 -4.35025 2.14425 0
M  V30 2853 H 261.708 -4.51538 0.929202 0
M  V30 2854 H 265.252 -5.55368 4.22152 0
M  V30 2855 H 261.149 -5.71673 2.99768 0
M  V30 2856 H 261.917 -6.56049 4.8943 0
M  V30 2857 N 264.58 -0.43555 -1.51462 0
M  V30 2858 C 265.53 0.394701 -2.24558 0
M  V30 2859 C 266.514 0.99157 -1.26715 0
M  V30 2860 O 267.706 0.910007 -1.51815 0
M  V30 2861 C 264.835 1.4963 -3.08975 0
M  V30 2862 C 263.921 0.908912 -4.14246 0
M  V30 2863 N 264.312 0.0505335 -5.05775 0
M  V30 2864 C 262.61 1.17668 -4.30198 0
M  V30 2865 C 263.311 -0.279161 -5.8103 0
M  V30 2866 N 262.287 0.336767 -5.42556 0
M  V30 2867 H 266.089 -0.267106 -2.92684 0
M  V30 2868 H 263.603 -0.247518 -1.60503 0
M  V30 2869 H 265.6 2.10394 -3.59917 0
M  V30 2870 H 264.26 2.16046 -2.42393 0
M  V30 2871 H 265.271 -0.31577 -5.16936 0
M  V30 2872 H 261.948 1.83847 -3.74842 0
M  V30 2873 H 263.338 -0.977553 -6.64751 0
M  V30 2874 N 266.058 1.56714 -0.166846 0
M  V30 2875 C 267.469 1.83378 0.350646 0
M  V30 2876 C 267.82 1.08646 1.63372 0
M  V30 2877 O 266.945 0.338058 2.13743 0
M  V30 2878 C 267.54 3.32643 0.642963 0
M  V30 2879 C 266.099 3.59818 1.10491 0
M  V30 2880 C 265.246 2.76954 0.138411 0
M  V30 2881 H 268.197 1.53803 -0.391193 0
M  V30 2882 H 268.218 3.49878 1.49551 0
M  V30 2883 H 267.73 3.87007 -0.291055 0
M  V30 2884 H 265.831 3.1086 2.05418 0
M  V30 2885 H 265.944 4.68178 1.01716 0
M  V30 2886 H 264.308 2.4666 0.634911 0
M  V30 2887 H 265.091 3.34097 -0.789549 0
M  V30 2888 N 267.536 -0.106894 1.57237 0
M  V30 2889 C 268.483 -1.13049 2.01217 0
M  V30 2890 C 269.453 -1.40471 0.886403 0
M  V30 2891 O 270.638 -1.52133 1.15153 0
M  V30 2892 C 267.778 -2.4487 2.43172 0
M  V30 2893 C 266.891 -2.24281 3.69218 0
M  V30 2894 C 266.026 -3.49417 4.00101 0
M  V30 2895 C 265.065 -3.24038 5.19294 0
M  V30 2896 N 264.202 -4.41409 5.45988 0
M  V30 2897 H 269.042 -0.748456 2.88448 0
M  V30 2898 H 266.579 -0.358054 1.42676 0
M  V30 2899 H 268.537 -3.21786 2.65537 0
M  V30 2900 H 267.167 -2.80944 1.58967 0
M  V30 2901 H 266.219 -1.38224 3.54398 0
M  V30 2902 H 267.531 -2.01512 4.56283 0
M  V30 2903 H 266.685 -4.34746 4.2318 0
M  V30 2904 H 265.424 -3.75229 3.11535 0
M  V30 2905 H 264.429 -2.37102 4.96047 0
M  V30 2906 H 265.654 -2.99584 6.09447 0
M  V30 2907 H 263.6 -4.67319 4.60379 0
M  V30 2908 H 263.517 -4.21788 6.274 0
M  V30 2909 H 264.785 -5.27836 5.73593 0
M  V30 2910 N 269.014 -1.53014 -0.377408 0
M  V30 2911 C 270.425 -1.60438 -0.954798 0
M  V30 2912 C 270.776 -0.464418 -1.90624 0
M  V30 2913 O 269.901 0.41087 -2.12464 0
M  V30 2914 C 270.496 -2.90797 -1.73847 0
M  V30 2915 C 269.055 -3.00595 -2.26538 0
M  V30 2916 C 268.202 -2.55645 -1.07429 0
M  V30 2917 H 271.153 -1.57926 -0.156575 0
M  V30 2918 H 271.174 -2.77935 -2.5987 0
M  V30 2919 H 270.686 -3.73746 -1.04574 0
M  V30 2920 H 268.787 -2.22208 -2.99089 0
M  V30 2921 H 268.9 -4.05456 -2.5523 0
M  V30 2922 H 267.264 -2.10239 -1.43777 0
M  V30 2923 H 268.047 -3.41 -0.396728 0
M  V30 2924 N 270.492 0.636531 -1.44174 0
M  V30 2925 C 271.422 1.76003 -1.53444 0
M  V30 2926 C 272.403 1.65619 -0.387841 0
M  V30 2927 O 273.588 1.84461 -0.607257 0
M  V30 2928 C 270.718 3.14511 -1.4731 0
M  V30 2929 C 269.672 3.39677 -2.60391 0
M  V30 2930 C 268.998 4.78159 -2.39308 0
M  V30 2931 C 270.298 3.32772 -4.02567 0
M  V30 2932 H 271.992 1.68501 -2.47483 0
M  V30 2933 H 269.538 0.809237 -1.19111 0
M  V30 2934 H 271.491 3.92878 -1.52397 0
M  V30 2935 H 270.215 3.22783 -0.49785 0
M  V30 2936 H 268.874 2.63688 -2.54684 0
M  V30 2937 H 268.522 4.83128 -1.39988 0
M  V30 2938 H 268.222 4.95956 -3.15122 0
M  V30 2939 H 269.746 5.58762 -2.46205 0
M  V30 2940 H 271.16 4.01051 -4.09672 0
M  V30 2941 H 269.557 3.62104 -4.7854 0
M  V30 2942 H 270.627 2.30669 -4.2652 0
M  V30 2943 N 271.97 1.30982 0.876444 0
M  V30 2944 C 272.918 1.18006 2.00443 0
M  V30 2945 C 273.912 0.0898871 1.69161 0
M  V30 2946 O 275.118 0.251333 1.78237 0
M  V30 2947 H 271.493 0.365196 0.65737 0
M  V30 2948 H 273.464 2.13453 2.0852 0
M  V30 2949 C 272.213 0.897521 3.35916 0
M  V30 2950 H 271.536 1.7285 3.60504 0
M  V30 2951 H 272.976 0.846874 4.15456 0
M  V30 2952 C 271.435 -0.399674 3.34521 0
M  V30 2953 O 271.965 -1.41852 3.7582 0
M  V30 2954 N 270.171 -0.413893 2.87637 0
M  V30 2955 H 269.718 0.41571 2.54224 0
M  V30 2956 H 269.676 -1.28175 2.87086 0
M  V30 2957 N 273.449 -1.08991 1.13837 0
M  V30 2958 C 274.677 -1.85011 0.926202 0
M  V30 2959 C 275.092 -1.8135 -0.525127 0
M  V30 2960 O 274.449 -1.21287 -1.36366 0
M  V30 2961 C 274.5 -3.32802 1.41155 0
M  V30 2962 O 274.221 -3.36444 2.80601 0
M  V30 2963 C 275.722 -4.25649 1.23847 0
M  V30 2964 H 272.942 -0.584249 0.32999 0
M  V30 2965 H 275.486 -1.37688 1.51202 0
M  V30 2966 H 273.641 -3.77536 0.868631 0
M  V30 2967 H 274.055 -4.28657 3.02248 0
M  V30 2968 H 275.529 -5.27485 1.62675 0
M  V30 2969 H 276.006 -4.38828 0.18065 0
M  V30 2970 H 276.612 -3.86735 1.76964 0
M  V30 2971 N 274.927 -0.932562 -1.27047 0
M  V30 2972 C 275.89 -0.440064 -2.24936 0
M  V30 2973 C 276.89 0.444071 -1.54547 0
M  V30 2974 O 278.08 0.244465 -1.72476 0
M  V30 2975 C 275.212 0.36678 -3.38921 0
M  V30 2976 H 276.405 -1.305 -2.70018 0
M  V30 2977 H 273.958 -0.713707 -1.39054 0
M  V30 2978 H 274.693 1.25033 -2.99228 0
M  V30 2979 H 274.478 -0.267204 -3.91188 0
M  V30 2980 H 275.968 0.701567 -4.11665 0
M  V30 2981 N 276.405 1.4127 -0.698611 0
M  V30 2982 C 277.651 2.01478 -0.231207 0
M  V30 2983 C 277.984 1.55215 1.16713 0
M  V30 2984 O 277.259 0.764672 1.78838 0
M  V30 2985 C 277.542 3.58912 -0.292281 0
M  V30 2986 C 277.395 4.15293 -1.72778 0
M  V30 2987 C 278.714 4.38736 0.346194 0
M  V30 2988 H 275.833 0.732025 -0.0854878 0
M  V30 2989 H 278.475 1.67977 -0.887906 0
M  V30 2990 H 276.625 3.87582 0.26686 0
M  V30 2991 H 278.297 3.97486 -2.341 0
M  V30 2992 H 276.54 3.7022 -2.26096 0
M  V30 2993 H 277.211 5.24452 -1.72202 0
M  V30 2994 H 279.687 4.15897 -0.130035 0
M  V30 2995 H 278.563 5.48221 0.272932 0
M  V30 2996 H 278.824 4.18425 1.42734 0
M  V30 2997 N 277.883 0.443576 1.51229 0
M  V30 2998 C 278.846 -0.353132 2.26463 0
M  V30 2999 C 279.846 -0.944338 1.3015 0
M  V30 3000 O 281.036 -0.817813 1.5381 0
M  V30 3001 C 278.168 -1.50023 3.06114 0
M  V30 3002 H 279.361 0.3063 2.98332 0
M  V30 3003 H 276.914 0.196902 1.55055 0
M  V30 3004 H 277.649 -2.19553 2.38677 0
M  V30 3005 H 277.434 -1.08241 3.76864 0
M  V30 3006 H 278.924 -2.06296 3.63087 0
M  V30 3007 N 279.361 -1.56624 0.175154 0
M  V30 3008 C 280.309 -2.19468 -0.770495 0
M  V30 3009 C 281.303 -1.15985 -1.23466 0
M  V30 3010 O 282.509 -1.34176 -1.19987 0
M  V30 3011 H 278.884 -0.703095 -0.266761 0
M  V30 3012 H 280.855 -2.97613 -0.216542 0
M  V30 3013 C 279.604 -2.85264 -1.98796 0
M  V30 3014 H 278.927 -3.64623 -1.63983 0
M  V30 3015 H 280.367 -3.327 -2.62843 0
M  V30 3016 C 278.826 -1.85239 -2.81404 0
M  V30 3017 O 279.356 -1.34024 -3.78682 0
M  V30 3018 N 277.562 -1.53911 -2.46495 0
M  V30 3019 H 277.109 -1.95751 -1.67449 0
M  V30 3020 H 277.067 -0.872382 -3.02054 0
M  V30 3021 N 280.839 0.0985539 -1.57292 0
M  V30 3022 C 282.064 0.820196 -1.90493 0
M  V30 3023 C 282.489 1.71658 -0.769094 0
M  V30 3024 O 281.847 1.79133 0.279495 0
M  V30 3025 C 281.895 1.61242 -3.22542 0
M  V30 3026 O 280.999 2.72108 -3.09888 0
M  V30 3027 H 280.34 0.225547 -0.62452 0
M  V30 3028 H 282.87 0.0748159 -2.04463 0
M  V30 3029 H 282.88 1.99737 -3.55766 0
M  V30 3030 H 281.555 0.954535 -4.04798 0
M  V30 3031 H 280.132 2.36667 -2.88172 0
M  V30 3032 N 282.317 1.53212 0.369288 0
M  V30 3033 C 283.28 1.7872 1.43498 0
M  V30 3034 C 284.28 0.657554 1.46741 0
M  V30 3035 O 285.47 0.925736 1.47566 0
M  V30 3036 C 282.602 1.90591 2.82645 0
M  V30 3037 H 283.795 2.73894 1.22156 0
M  V30 3038 H 281.348 1.44233 0.602203 0
M  V30 3039 H 282.083 0.974709 3.09306 0
M  V30 3040 H 281.868 2.72751 2.8169 0
M  V30 3041 H 283.358 2.11931 3.59826 0
M  V30 3042 N 283.795 -0.628877 1.44509 0
M  V30 3043 C 284.725 -1.75187 1.54376 0
M  V30 3044 C 285.706 -1.65411 0.396618 0
M  V30 3045 O 286.891 -1.84137 0.617031 0
M  V30 3046 C 284.021 -3.13725 1.48976 0
M  V30 3047 C 282.975 -3.38291 2.62189 0
M  V30 3048 C 282.301 -4.76883 2.41841 0
M  V30 3049 C 283.601 -3.30632 4.04326 0
M  V30 3050 H 285.295 -1.67187 2.48373 0
M  V30 3051 H 282.841 -0.802909 1.19538 0
M  V30 3052 H 284.794 -3.92064 1.54478 0
M  V30 3053 H 283.518 -3.22515 0.514961 0
M  V30 3054 H 282.177 -2.62334 2.56079 0
M  V30 3055 H 281.825 -4.82378 1.42548 0
M  V30 3056 H 281.525 -4.94278 3.17747 0
M  V30 3057 H 283.049 -5.57449 2.49165 0
M  V30 3058 H 284.463 -3.98873 4.11793 0
M  V30 3059 H 282.86 -3.59561 4.80454 0
M  V30 3060 H 283.93 -2.28404 4.27738 0
M  V30 3061 N 285.273 -1.31445 -0.869486 0
M  V30 3062 C 286.501 -1.24122 -1.65534 0
M  V30 3063 C 286.916 0.193387 -1.87807 0
M  V30 3064 O 286.273 1.12557 -1.43656 0
M  V30 3065 C 286.324 -1.98229 -3.02304 0
M  V30 3066 O 286.045 -3.3609 -2.81026 0
M  V30 3067 C 287.546 -1.97751 -3.96749 0
M  V30 3068 H 284.766 -0.428868 -0.516055 0
M  V30 3069 H 287.31 -1.73328 -1.08525 0
M  V30 3070 H 285.465 -1.52782 -3.56001 0
M  V30 3071 H 285.879 -3.7383 -3.67902 0
M  V30 3072 H 287.353 -2.54114 -4.90031 0
M  V30 3073 H 287.83 -0.960137 -4.28577 0
M  V30 3074 H 288.436 -2.43079 -3.48988 0
M  V30 3075 N 286.751 1.08385 -1.14413 0
M  V30 3076 C 288 1.80153 -0.907076 0
M  V30 3077 C 288.313 1.87176 0.567851 0
M  V30 3078 O 289.519 2.55359 0.922172 0
M  V30 3079 C 287.975 3.23687 -1.57336 0
M  V30 3080 C 287.583 3.24897 -3.08457 0
M  V30 3081 C 289.327 4.00136 -1.41744 0
M  V30 3082 C 287.234 4.6302 -3.67921 0
M  V30 3083 H 286.164 0.675139 -0.335714 0
M  V30 3084 H 288.815 1.21733 -1.37307 0
M  V30 3085 H 287.197 3.82234 -1.03505 0
M  V30 3086 H 288.371 2.76055 -3.68958 0
M  V30 3087 H 286.686 2.61943 -3.2369 0
M  V30 3088 H 289.283 5.02201 -1.83572 0
M  V30 3089 H 289.626 4.14709 -0.363576 0
M  V30 3090 H 290.159 3.48058 -1.92614 0
M  V30 3091 H 286.898 4.5365 -4.73161 0
M  V30 3092 H 286.418 5.12143 -3.12201 0
M  V30 3093 H 288.097 5.31994 -3.68227 0
M  V30 3094 N 288.23 0.939286 1.26551 0
M  V30 3095 C 289.193 0.451987 2.24699 0
M  V30 3096 C 290.193 -0.435869 1.5478 0
M  V30 3097 O 291.383 -0.235314 1.72603 0
M  V30 3098 C 288.515 -0.348801 3.39111 0
M  V30 3099 H 289.708 1.3193 2.69322 0
M  V30 3100 H 287.261 0.721072 1.38673 0
M  V30 3101 H 287.996 -1.23444 2.99887 0
M  V30 3102 H 287.781 0.287945 3.91041 0
M  V30 3103 H 289.271 -0.679726 4.12031 0
M  V30 3104 N 289.708 -1.40897 0.706093 0
M  V30 3105 C 290.936 -2.05373 0.250887 0
M  V30 3106 C 291.351 -1.53172 -1.10381 0
M  V30 3107 O 290.708 -0.684305 -1.69185 0
M  V30 3108 C 290.759 -3.6088 0.211571 0
M  V30 3109 O 290.48 -4.11153 1.51276 0
M  V30 3110 C 291.981 -4.42517 -0.263346 0
M  V30 3111 H 289.201 -0.66115 0.114552 0
M  V30 3112 H 291.745 -1.80479 0.961635 0
M  V30 3113 H 289.9 -3.84777 -0.450073 0
M  V30 3114 H 290.314 -5.05279 1.40689 0
M  V30 3115 H 291.788 -5.51479 -0.239718 0
M  V30 3116 H 292.265 -4.19396 -1.30397 0
M  V30 3117 H 292.871 -4.23708 0.367677 0
M  V30 3118 N 291.186 -0.45159 -1.50991 0
M  V30 3119 C 292.602 -0.104647 -1.59257 0
M  V30 3120 C 292.802 1.38728 -1.4614 0
M  V30 3121 O 291.858 2.15866 -1.30989 0
M  V30 3122 C 293.171 -0.637468 -2.93865 0
M  V30 3123 C 294.719 -0.599166 -3.07212 0
M  V30 3124 C 295.194 -1.1092 -4.44366 0
M  V30 3125 N 296.685 -1.06778 -4.50725 0
M  V30 3126 C 297.42 -1.43314 -5.55201 0
M  V30 3127 N 296.916 -1.87204 -6.67028 0
M  V30 3128 N 298.709 -1.3504 -5.45638 0
M  V30 3129 H 290.86 -1.42214 -1.57762 0
M  V30 3130 H 293.123 -0.586921 -0.744465 0
M  V30 3131 H 292.829 -1.68187 -3.08879 0
M  V30 3132 H 292.703 -0.0702139 -3.77135 0
M  V30 3133 H 295.09 0.436277 -2.91857 0
M  V30 3134 H 295.171 -1.20299 -2.25747 0
M  V30 3135 H 294.815 -2.14318 -4.60467 0
M  V30 3136 H 294.745 -0.481773 -5.24392 0
M  V30 3137 H 297.236 -0.745643 -3.70471 0
M  V30 3138 H 297.549 -2.13282 -7.42786 0
M  V30 3139 H 295.894 -1.91142 -6.68199 0
M  V30 3140 H 299.085 -1.00607 -4.57161 0
M  V30 3141 H 299.258 -1.63841 -6.26945 0
M  V30 3142 N 292.664 1.56529 -0.183458 0
M  V30 3143 C 293.597 2.14417 0.781052 0
M  V30 3144 C 294.575 1.07761 1.21763 0
M  V30 3145 O 295.759 1.35807 1.30724 0
M  V30 3146 C 292.886 2.69361 2.05335 0
M  V30 3147 C 291.932 3.885 1.75982 0
M  V30 3148 S 292.765 5.27568 0.918256 0
M  V30 3149 C 293.921 5.85926 2.20095 0
M  V30 3150 H 294.154 2.95893 0.2889 0
M  V30 3151 H 291.687 1.54368 0.0313844 0
M  V30 3152 H 293.645 3.01662 2.78406 0
M  V30 3153 H 292.306 1.87949 2.51663 0
M  V30 3154 H 291.499 4.25314 2.70415 0
M  V30 3155 H 291.101 3.57149 1.10999 0
M  V30 3156 H 293.393 5.99579 3.15453 0
M  V30 3157 H 294.336 6.82761 1.87731 0
M  V30 3158 H 294.744 5.14438 2.32409 0
M  V30 3159 N 294.142 -0.090211 1.57342 0
M  V30 3160 C 295.39 -0.791241 1.85967 0
M  V30 3161 C 295.711 -1.7903 0.772859 0
M  V30 3162 O 294.981 -1.94872 -0.200398 0
M  V30 3163 H 293.561 -0.295205 0.686195 0
M  V30 3164 H 296.223 -0.0706782 1.94772 0
M  V30 3165 H 295.319 -1.31882 2.82867 0
M  V30 3166 N 295.62 -1.53406 -0.361157 0
M  V30 3167 C 296.553 -1.74946 -1.46524 0
M  V30 3168 C 297.531 -0.59795 -1.51206 0
M  V30 3169 O 298.715 -0.831062 -1.69191 0
M  V30 3170 C 295.842 -1.83224 -2.84863 0
M  V30 3171 C 294.888 -3.05233 -2.97885 0
M  V30 3172 S 295.721 -4.6466 -2.66179 0
M  V30 3173 C 296.877 -4.75793 -4.06659 0
M  V30 3174 H 297.11 -2.68319 -1.28033 0
M  V30 3175 H 294.643 -1.44051 -0.555764 0
M  V30 3176 H 296.601 -1.88679 -3.64569 0
M  V30 3177 H 295.262 -0.908948 -3.00661 0
M  V30 3178 H 294.455 -3.07648 -3.9921 0
M  V30 3179 H 294.057 -2.97913 -2.26106 0
M  V30 3180 H 296.349 -4.5612 -5.0096 0
M  V30 3181 H 297.292 -5.7786 -4.09247 0
M  V30 3182 H 297.7 -4.04389 -3.93865 0
M  V30 3183 N 297.098 0.621204 -1.44841 0
M  V30 3184 C 298.375 1.38 -1.38619 0
M  V30 3185 C 298.755 2.11041 -0.0498935 0
M  V30 3186 O 298.103 2.06992 0.967816 0
M  V30 3187 C 298.313 2.33817 -2.59096 0
M  V30 3188 C 299.661 2.96844 -3.03593 0
M  V30 3189 O 300.685 2.44141 -2.59371 0
M  V30 3190 O 299.544 3.92476 -3.80296 0
M  V30 3191 H 296.638 0.61811 -0.549426 0
M  V30 3192 H 299.184 0.645429 -1.56947 0
M  V30 3193 H 297.956 1.79012 -3.47952 0
M  V30 3194 H 297.579 3.14676 -2.43032 0
M  V30 3195 N 298.576 1.31904 0.862503 0
M  V30 3196 C 299.822 1.22197 1.61851 0
M  V30 3197 C 300.155 -0.217641 1.92977 0
M  V30 3198 O 299.43 -1.15264 1.56666 0
M  V30 3199 C 299.713 2.07378 2.94391 0
M  V30 3200 C 299.566 3.59678 2.70096 0
M  V30 3201 C 300.885 1.92891 3.95577 0
M  V30 3202 H 298.004 0.445255 0.587296 0
M  V30 3203 H 300.646 1.6177 0.99651 0
M  V30 3204 H 298.796 1.73758 3.47477 0
M  V30 3205 H 300.468 4.03472 2.23625 0
M  V30 3206 H 298.711 3.82735 2.04197 0
M  V30 3207 H 299.382 4.14595 3.64438 0
M  V30 3208 H 301.858 2.22327 3.51724 0
M  V30 3209 H 300.734 2.54781 4.86187 0
M  V30 3210 H 300.995 0.894315 4.3296 0
M  V30 3211 N 300.054 -1.07777 1.14986 0
M  V30 3212 C 301.282 -1.84018 0.945773 0
M  V30 3213 C 301.697 -1.81897 -0.505863 0
M  V30 3214 O 301.054 -1.22726 -1.35072 0
M  V30 3215 C 301.105 -3.31287 1.44677 0
M  V30 3216 O 300.826 -3.33449 2.84154 0
M  V30 3217 C 302.327 -4.24311 1.28355 0
M  V30 3218 H 299.547 -0.580716 0.336169 0
M  V30 3219 H 302.091 -1.36077 1.52654 0
M  V30 3220 H 300.246 -3.76594 0.908625 0
M  V30 3221 H 300.66 -4.25427 3.06777 0
M  V30 3222 H 302.134 -5.2573 1.68261 0
M  V30 3223 H 302.611 -4.38612 0.227184 0
M  V30 3224 H 303.217 -3.84836 1.81056 0
M  V30 3225 N 301.532 -0.945985 -1.26051 0
M  V30 3226 C 302.462 -0.477172 -2.28572 0
M  V30 3227 C 303.443 0.472032 -1.63419 0
M  V30 3228 O 304.628 0.372853 -1.90587 0
M  V30 3229 C 301.758 0.253975 -3.4637 0
M  V30 3230 C 300.712 -0.609135 -4.23643 0
M  V30 3231 C 300.038 0.252252 -5.34105 0
M  V30 3232 C 301.338 -1.8829 -4.8718 0
M  V30 3233 H 303.032 -1.33402 -2.68038 0
M  V30 3234 H 300.578 -0.642904 -1.28852 0
M  V30 3235 H 302.531 0.593016 -4.17207 0
M  V30 3236 H 301.255 1.145 -3.05871 0
M  V30 3237 H 299.914 -0.931138 -3.54578 0
M  V30 3238 H 299.562 1.14278 -4.89846 0
M  V30 3239 H 299.262 -0.32188 -5.86718 0
M  V30 3240 H 300.786 0.586454 -6.07777 0
M  V30 3241 H 302.2 -1.61081 -5.50205 0
M  V30 3242 H 300.597 -2.40199 -5.49931 0
M  V30 3243 H 301.667 -2.59134 -4.09851 0
M  V30 3244 N 303.011 1.40521 -0.713556 0
M  V30 3245 C 303.941 2.33381 -0.0743864 0
M  V30 3246 C 304.922 1.52784 0.747735 0
M  V30 3247 O 306.107 1.81258 0.697071 0
M  V30 3248 C 303.237 3.36748 0.849598 0
M  V30 3249 C 302.191 4.27793 0.133247 0
M  V30 3250 C 301.517 5.21679 1.17281 0
M  V30 3251 C 302.817 5.12415 -1.01134 0
M  V30 3252 H 304.511 2.87081 -0.850007 0
M  V30 3253 H 302.057 1.38034 -0.410201 0
M  V30 3254 H 304.01 4.00648 1.30612 0
M  V30 3255 H 302.734 2.81439 1.65709 0
M  V30 3256 H 301.393 3.65342 -0.303426 0
M  V30 3257 H 301.041 4.62677 1.9733 0
M  V30 3258 H 300.741 5.83435 0.698397 0
M  V30 3259 H 302.265 5.88456 1.62947 0
M  V30 3260 H 303.679 5.69781 -0.634274 0
M  V30 3261 H 302.076 5.83203 -1.41399 0
M  V30 3262 H 303.146 4.48514 -1.84292 0
M  V30 3263 N 304.489 0.459591 1.5075 0
M  V30 3264 C 305.729 -0.09824 2.04164 0
M  V30 3265 C 306.093 -1.3801 1.33481 0
M  V30 3266 O 307.294 -2.01959 1.77387 0
M  V30 3267 C 305.565 -0.289467 3.56226 0
M  V30 3268 S 307.124 -0.807507 4.31306 0
M  V30 3269 H 303.942 -0.0213845 0.710678 0
M  V30 3270 H 306.544 0.624098 1.85271 0
M  V30 3271 H 305.248 0.649461 4.05229 0
M  V30 3272 H 304.779 -1.03825 3.79452 0
M  V30 3273 H 306.794 -2.0824 4.50389 0
M  V30 3274 N 305.967 -1.56429 0.191757 0
M  V30 3275 C 307.378 -1.83912 -0.321428 0
M  V30 3276 C 307.729 -1.11231 -1.61623 0
M  V30 3277 O 306.854 -0.37202 -2.13178 0
M  V30 3278 C 307.449 -3.33624 -0.589961 0
M  V30 3279 C 306.008 -3.6153 -1.04753 0
M  V30 3280 C 305.155 -2.7714 -0.0943327 0
M  V30 3281 H 308.106 -1.53161 0.415612 0
M  V30 3282 H 308.127 -3.52213 -1.43966 0
M  V30 3283 H 307.639 -3.86495 0.352588 0
M  V30 3284 H 305.74 -3.14089 -2.00447 0
M  V30 3285 H 305.853 -4.69737 -0.942549 0
M  V30 3286 H 304.217 -2.47638 -0.595589 0
M  V30 3287 H 305 -3.32799 0.842601 0
M  V30 3288 N 307.445 0.0818655 -1.57387 0
M  V30 3289 C 308.673 0.796108 -1.9097 0
M  V30 3290 C 309.088 1.71626 -0.786757 0
M  V30 3291 O 308.445 1.80908 0.240513 0
M  V30 3292 C 308.496 1.59829 -3.24248 0
M  V30 3293 O 308.217 0.715131 -4.32224 0
M  V30 3294 C 309.718 2.41442 -3.7178 0
M  V30 3295 H 306.938 0.22691 -0.631469 0
M  V30 3296 H 309.482 0.0551439 -2.04426 0
M  V30 3297 H 307.637 2.29163 -3.12351 0
M  V30 3298 H 308.051 1.27205 -5.08841 0
M  V30 3299 H 309.525 2.932 -4.67694 0
M  V30 3300 H 310.002 3.2051 -3.00283 0
M  V30 3301 H 310.608 1.77283 -3.86589 0
M  V30 3302 N 308.923 1.53595 0.353017 0
M  V30 3303 C 310.334 1.61937 0.929153 0
M  V30 3304 C 310.685 0.494686 1.89861 0
M  V30 3305 O 309.81 -0.377017 2.1309 0
M  V30 3306 C 310.405 2.93526 1.69199 0
M  V30 3307 C 308.964 3.04161 2.21727 0
M  V30 3308 C 308.111 2.57322 1.03348 0
M  V30 3309 H 311.062 1.58155 0.131431 0
M  V30 3310 H 311.083 2.82034 2.55416 0
M  V30 3311 H 310.595 3.75362 0.986144 0
M  V30 3312 H 308.696 2.26938 2.95516 0
M  V30 3313 H 308.809 4.09465 2.48748 0
M  V30 3314 H 307.173 2.12499 1.40414 0
M  V30 3315 H 307.956 3.41588 0.342428 0
M  V30 3316 N 310.401 -0.613514 1.45168 0
M  V30 3317 C 311.678 -1.37263 1.39349 0
M  V30 3318 C 312.058 -2.11012 0.0610848 0
M  V30 3319 O 311.406 -2.07502 -0.956825 0
M  V30 3320 C 311.616 -2.3244 2.60332 0
M  V30 3321 C 312.964 -2.9523 3.05163 0
M  V30 3322 O 313.988 -2.42762 2.60663 0
M  V30 3323 O 312.847 -3.90454 3.82372 0
M  V30 3324 H 309.941 -0.615188 0.552696 0
M  V30 3325 H 312.487 -0.637097 1.57287 0
M  V30 3326 H 311.259 -1.77164 3.48896 0
M  V30 3327 H 310.882 -3.13383 2.44698 0
M  V30 3328 N 311.879 -1.3236 -0.855495 0
M  V30 3329 C 313.109 -1.25688 -1.6397 0
M  V30 3330 C 313.517 0.177592 -1.88365 0
M  V30 3331 O 312.86 1.12485 -1.45234 0
M  V30 3332 C 312.922 -1.94602 -3.02275 0
M  V30 3333 C 312.586 -3.43937 -3.00926 0
M  V30 3334 C 313.583 -4.39435 -2.77835 0
M  V30 3335 C 311.268 -3.85858 -3.21588 0
M  V30 3336 C 313.262 -5.74829 -2.75409 0
M  V30 3337 C 310.949 -5.21361 -3.18789 0
M  V30 3338 C 311.947 -6.15658 -2.95727 0
M  V30 3339 O 311.635 -7.48681 -2.928 0
M  V30 3340 H 311.367 -0.434972 -0.51747 0
M  V30 3341 H 313.921 -1.75023 -1.075 0
M  V30 3342 H 312.151 -1.39836 -3.60531 0
M  V30 3343 H 313.84 -1.81651 -3.62985 0
M  V30 3344 H 314.606 -4.08374 -2.6164 0
M  V30 3345 H 310.485 -3.12883 -3.38564 0
M  V30 3346 H 314.029 -6.48404 -2.57328 0
M  V30 3347 H 309.926 -5.52052 -3.34528 0
M  V30 3348 H 310.694 -7.5803 -3.0876 0
M  V30 3349 N 313.357 1.07166 -1.15556 0
M  V30 3350 C 314.606 1.79181 -0.926132 0
M  V30 3351 C 314.919 1.87768 0.547967 0
M  V30 3352 O 316.125 2.56323 0.895036 0
M  V30 3353 C 314.581 3.22 -1.60761 0
M  V30 3354 C 314.189 3.21607 -3.11886 0
M  V30 3355 C 315.933 3.9861 -1.4598 0
M  V30 3356 C 313.84 4.59092 -3.72812 0
M  V30 3357 H 312.77 0.67154 -0.342856 0
M  V30 3358 H 315.421 1.2027 -1.3859 0
M  V30 3359 H 313.803 3.81115 -1.07553 0
M  V30 3360 H 314.977 2.72127 -3.71865 0
M  V30 3361 H 313.292 2.58495 -3.2645 0
M  V30 3362 H 315.889 5.00225 -1.88888 0
M  V30 3363 H 316.232 4.143 -0.407541 0
M  V30 3364 H 316.765 3.45996 -1.96295 0
M  V30 3365 H 313.504 4.48606 -4.77946 0
M  V30 3366 H 313.024 5.08803 -3.17616 0
M  V30 3367 H 314.703 5.28059 -3.73848 0
M  V30 3368 N 314.835 0.952656 1.25548 0
M  V30 3369 C 315.765 0.489287 2.28316 0
M  V30 3370 C 316.746 -0.463359 1.63667 0
M  V30 3371 O 317.931 -0.36274 1.90782 0
M  V30 3372 C 315.061 -0.235603 3.465 0
M  V30 3373 C 314.015 0.631593 4.23314 0
M  V30 3374 C 313.341 -0.223923 5.34231 0
M  V30 3375 C 314.641 1.90871 4.86174 0
M  V30 3376 H 316.335 1.34822 2.67326 0
M  V30 3377 H 313.881 0.649728 1.28509 0
M  V30 3378 H 315.834 -0.570882 4.17515 0
M  V30 3379 H 314.558 -1.12877 3.06474 0
M  V30 3380 H 313.217 0.949929 3.54079 0
M  V30 3381 H 312.865 -1.11678 4.90446 0
M  V30 3382 H 312.565 0.35299 5.86539 0
M  V30 3383 H 314.089 -0.554214 6.0808 0
M  V30 3384 H 315.503 1.63997 5.49343 0
M  V30 3385 H 313.9 2.43112 5.4865 0
M  V30 3386 H 314.97 2.61304 4.08471 0
M  V30 3387 N 316.313 -1.40141 0.720998 0
M  V30 3388 C 317.59 -1.94677 0.189757 0
M  V30 3389 C 317.97 -1.65879 -1.30566 0
M  V30 3390 O 317.318 -0.979391 -2.06447 0
M  V30 3391 C 317.528 -3.45279 0.508304 0
M  V30 3392 C 318.876 -4.22209 0.449934 0
M  V30 3393 O 319.9 -3.53413 0.444677 0
M  V30 3394 O 318.759 -5.44788 0.432189 0
M  V30 3395 H 315.853 -0.826459 0.0299026 0
M  V30 3396 H 318.399 -1.49719 0.7989 0
M  V30 3397 H 317.171 -3.59619 1.54239 0
M  V30 3398 H 316.794 -3.97386 -0.130525 0
M  V30 3399 N 317.792 -0.46758 -1.50504 0
M  V30 3400 C 318.702 0.33382 -2.32213 0
M  V30 3401 C 319.718 0.999323 -1.42441 0
M  V30 3402 O 320.894 0.988068 -1.75497 0
M  V30 3403 C 317.959 1.4035 -3.17022 0
M  V30 3404 C 317.02 0.754961 -4.2261 0
M  V30 3405 C 316.253 1.77367 -5.03365 0
M  V30 3406 O 316.476 2.99976 -4.8515 0
M  V30 3407 O 315.41 1.34744 -5.86624 0
M  V30 3408 H 319.236 -0.334067 -3.01857 0
M  V30 3409 H 316.821 -0.229496 -1.47627 0
M  V30 3410 H 318.703 2.02318 -3.69656 0
M  V30 3411 H 317.378 2.05492 -2.5011 0
M  V30 3412 H 316.285 0.0964244 -3.73976 0
M  V30 3413 H 317.618 0.146545 -4.91982 0
M  V30 3414 N 319.27 1.56325 -0.20005 0
M  V30 3415 C 320.686 1.58839 0.155716 0
M  V30 3416 C 320.886 1.21636 1.60645 0
M  V30 3417 O 319.942 0.941437 2.34293 0
M  V30 3418 C 321.255 3.0032 -0.151124 0
M  V30 3419 C 322.803 3.12866 -0.0916284 0
M  V30 3420 C 323.278 4.56488 -0.371845 0
M  V30 3421 N 324.769 4.62089 -0.320641 0
M  V30 3422 C 325.504 5.71116 -0.511243 0
M  V30 3423 N 325 6.88592 -0.762461 0
M  V30 3424 N 326.793 5.60335 -0.445157 0
M  V30 3425 H 318.944 1.78788 -1.14668 0
M  V30 3426 H 321.207 0.829996 -0.458051 0
M  V30 3427 H 320.913 3.32117 -1.15721 0
M  V30 3428 H 320.787 3.73257 0.543986 0
M  V30 3429 H 323.174 2.80878 0.905065 0
M  V30 3430 H 323.255 2.42304 -0.81989 0
M  V30 3431 H 322.899 4.89189 -1.36588 0
M  V30 3432 H 322.829 5.25246 0.377362 0
M  V30 3433 H 325.32 3.77665 -0.13329 0
M  V30 3434 H 325.633 7.67581 -0.896576 0
M  V30 3435 H 323.978 6.90387 -0.799412 0
M  V30 3436 H 327.169 4.67436 -0.249278 0
M  V30 3437 H 327.342 6.45243 -0.597116 0
M  V30 3438 N 320.748 -0.0735177 1.57428 0
M  V30 3439 C 321.978 -0.78483 1.91112 0
M  V30 3440 C 322.386 -1.71729 0.7941 0
M  V30 3441 O 321.729 -1.82105 -0.241542 0
M  V30 3442 C 321.791 -1.63346 3.20247 0
M  V30 3443 C 321.455 -0.870557 4.48632 0
M  V30 3444 C 322.452 -0.19058 5.19551 0
M  V30 3445 C 320.137 -0.838242 4.95256 0
M  V30 3446 C 322.131 0.511503 6.35344 0
M  V30 3447 C 319.818 -0.132386 6.10957 0
M  V30 3448 C 320.816 0.541288 6.80852 0
M  V30 3449 O 320.504 1.23578 7.94345 0
M  V30 3450 H 320.236 -0.228408 0.636244 0
M  V30 3451 H 322.79 -0.0486039 2.05342 0
M  V30 3452 H 321.02 -2.41245 3.02222 0
M  V30 3453 H 322.709 -2.22329 3.39595 0
M  V30 3454 H 323.475 -0.206864 4.84559 0
M  V30 3455 H 319.354 -1.35206 4.40727 0
M  V30 3456 H 322.898 1.03789 6.89836 0
M  V30 3457 H 318.795 -0.114023 6.45399 0
M  V30 3458 H 319.563 1.14487 8.10454 0
M  V30 3459 N 322.226 -1.5378 -0.344866 0
M  V30 3460 C 323.159 -1.7649 -1.4466 0
M  V30 3461 C 324.137 -0.613954 -1.50563 0
M  V30 3462 O 325.321 -0.84896 -1.683 0
M  V30 3463 C 322.448 -1.86235 -2.82903 0
M  V30 3464 C 321.494 -3.08375 -2.94631 0
M  V30 3465 S 322.327 -4.67457 -2.61236 0
M  V30 3466 C 323.483 -4.80079 -4.0159 0
M  V30 3467 H 323.716 -2.69661 -1.2518 0
M  V30 3468 H 321.249 -1.44632 -0.540455 0
M  V30 3469 H 323.207 -1.92535 -3.62547 0
M  V30 3470 H 321.868 -0.940786 -2.9968 0
M  V30 3471 H 321.061 -3.11865 -3.95925 0
M  V30 3472 H 320.663 -3.00294 -2.22934 0
M  V30 3473 H 322.955 -4.61407 -4.96094 0
M  V30 3474 H 323.898 -5.82168 -4.03095 0
M  V30 3475 H 324.306 -4.08544 -3.89554 0
M  V30 3476 N 323.704 0.605807 -1.45491 0
M  V30 3477 C 324.981 1.36522 -1.40075 0
M  V30 3478 C 325.361 2.10976 -0.0722744 0
M  V30 3479 O 324.709 2.08007 0.945808 0
M  V30 3480 C 324.919 2.31056 -2.61561 0
M  V30 3481 C 326.267 2.93608 -3.06724 0
M  V30 3482 O 327.291 2.41376 -2.61946 0
M  V30 3483 O 326.15 3.88421 -3.84437 0
M  V30 3484 H 323.244 0.612248 -0.555951 0
M  V30 3485 H 325.79 0.628747 -1.57623 0
M  V30 3486 H 324.562 1.75311 -3.49831 0
M  V30 3487 H 324.185 3.12081 -2.46356 0
M  V30 3488 N 325.182 1.32811 0.848464 0
M  V30 3489 C 326.428 1.24917 1.60522 0
M  V30 3490 C 326.783 -0.185761 1.91501 0
M  V30 3491 O 326.076 -1.12524 1.55077 0
M  V30 3492 C 326.27 2.04831 2.92881 0
M  V30 3493 C 326.099 3.55949 2.74828 0
M  V30 3494 C 324.869 4.25277 2.72887 0
M  V30 3495 C 327.067 4.50476 2.48145 0
M  V30 3496 N 325.049 5.62408 2.46111 0
M  V30 3497 C 326.42 5.75427 2.30832 0
M  V30 3498 C 328.475 4.39665 2.33664 0
M  V30 3499 C 327.178 6.90789 2.00508 0
M  V30 3500 C 329.204 5.54833 2.04731 0
M  V30 3501 C 328.566 6.78787 1.88223 0
M  V30 3502 H 324.665 0.512279 0.590842 0
M  V30 3503 H 327.249 1.67246 0.996839 0
M  V30 3504 H 325.42 1.64837 3.51686 0
M  V30 3505 H 327.152 1.88782 3.57971 0
M  V30 3506 H 323.907 3.77456 2.86049 0
M  V30 3507 H 324.331 6.3467 2.35634 0
M  V30 3508 H 328.973 3.44477 2.45144 0
M  V30 3509 H 326.691 7.85984 1.87765 0
M  V30 3510 H 330.277 5.48398 1.94295 0
M  V30 3511 H 329.157 7.66396 1.66155 0
M  V30 3512 N 326.66 -1.06551 1.16123 0
M  V30 3513 C 327.623 -2.12132 0.867906 0
M  V30 3514 C 328.623 -1.60224 -0.135944 0
M  V30 3515 O 329.813 -1.73943 0.0946422 0
M  V30 3516 C 326.945 -3.396 0.297419 0
M  V30 3517 H 328.138 -2.39586 1.80385 0
M  V30 3518 H 325.691 -1.22574 0.969812 0
M  V30 3519 H 326.426 -3.17794 -0.64633 0
M  V30 3520 H 326.211 -3.78581 1.02073 0
M  V30 3521 H 327.701 -4.17455 0.110052 0
M  V30 3522 N 328.138 -0.959301 -1.25041 0
M  V30 3523 C 329.101 -0.487677 -2.23952 0
M  V30 3524 C 330.101 0.41119 -1.55454 0
M  V30 3525 O 331.291 0.207825 -1.72956 0
M  V30 3526 C 328.423 0.294807 -3.39623 0
M  V30 3527 H 329.616 -1.36198 -2.67189 0
M  V30 3528 H 327.169 -0.743042 -1.37508 0
M  V30 3529 H 327.904 1.18658 -3.01813 0
M  V30 3530 H 327.689 -0.35012 -3.90534 0
M  V30 3531 H 329.179 0.614089 -4.1306 0
M  V30 3532 N 329.616 1.39756 -0.72842 0
M  V30 3533 C 330.548 2.29157 -0.0446202 0
M  V30 3534 C 331.561 1.46484 0.710367 0
M  V30 3535 O 332.75 1.69632 0.55562 0
M  V30 3536 C 329.85 3.24987 0.961071 0
M  V30 3537 C 329.023 4.36572 0.268967 0
M  V30 3538 C 328.082 5.12756 1.18184 0
M  V30 3539 O 327.108 5.6534 0.661794 0
M  V30 3540 N 328.31 5.23331 2.51206 0
M  V30 3541 H 331.075 2.88482 -0.812295 0
M  V30 3542 H 328.636 1.51265 -0.577098 0
M  V30 3543 H 330.628 3.72827 1.57423 0
M  V30 3544 H 329.198 2.66739 1.63 0
M  V30 3545 H 328.418 3.90694 -0.524574 0
M  V30 3546 H 329.706 5.08363 -0.210934 0
M  V30 3547 H 329.104 4.82116 2.9594 0
M  V30 3548 H 327.661 5.74634 3.07634 0
M  V30 3549 N 331.094 0.475555 1.50254 0
M  V30 3550 C 332.042 -0.330276 2.30243 0
M  V30 3551 C 333.036 -0.986306 1.37726 0
M  V30 3552 O 334.242 -0.9169 1.54897 0
M  V30 3553 H 330.617 -0.125353 0.741479 0
M  V30 3554 H 332.588 0.364702 2.96163 0
M  V30 3555 C 331.337 -1.39704 3.18399 0
M  V30 3556 H 330.66 -0.901621 3.89501 0
M  V30 3557 H 332.1 -1.93336 3.77355 0
M  V30 3558 C 330.559 -2.4014 2.36293 0
M  V30 3559 O 331.089 -3.45504 2.04914 0
M  V30 3560 N 329.295 -2.1197 1.98789 0
M  V30 3561 H 328.842 -1.2631 2.24507 0
M  V30 3562 H 328.8 -2.79403 1.44157 0
M  V30 3563 N 332.573 -1.56217 0.208337 0
M  V30 3564 C 333.819 -1.98242 -0.427552 0
M  V30 3565 C 334.152 -1.09554 -1.60348 0
M  V30 3566 O 333.427 -0.15035 -1.93918 0
M  V30 3567 C 333.71 -3.4931 -0.874907 0
M  V30 3568 C 333.563 -4.48773 0.303751 0
M  V30 3569 C 334.882 -4.04424 -1.73577 0
M  V30 3570 H 332.001 -0.720744 -0.153936 0
M  V30 3571 H 334.643 -1.87586 0.30192 0
M  V30 3572 H 332.793 -3.58522 -1.49648 0
M  V30 3573 H 334.465 -4.51586 0.941682 0
M  V30 3574 H 332.708 -4.23194 0.953375 0
M  V30 3575 H 333.379 -5.51976 -0.0519883 0
M  V30 3576 H 335.855 -3.98075 -1.21143 0
M  V30 3577 H 334.731 -5.1047 -2.01771 0
M  V30 3578 H 334.992 -3.50494 -2.69456 0
M  V30 3579 N 334.051 0.0651679 -1.57465 0
M  V30 3580 C 335.014 1.06117 -2.03155 0
M  V30 3581 C 336.014 1.31204 -0.929632 0
M  V30 3582 O 337.204 1.26813 -1.19432 0
M  V30 3583 C 334.336 2.4032 -2.41783 0
M  V30 3584 H 335.529 0.667231 -2.92383 0
M  V30 3585 H 333.082 0.311075 -1.53173 0
M  V30 3586 H 333.817 2.84532 -1.55601 0
M  V30 3587 H 333.602 2.23451 -3.22199 0
M  V30 3588 H 335.092 3.11898 -2.77685 0
M  V30 3589 N 335.529 1.53961 0.336706 0
M  V30 3590 C 336.439 1.85432 1.43708 0
M  V30 3591 C 337.455 0.745053 1.57242 0
M  V30 3592 O 338.631 1.03804 1.72588 0
M  V30 3593 C 335.696 2.06349 2.78605 0
M  V30 3594 C 334.757 3.30191 2.74358 0
M  V30 3595 C 333.99 3.50101 4.02822 0
M  V30 3596 O 334.213 2.7371 5.00439 0
M  V30 3597 O 333.147 4.43547 4.06878 0
M  V30 3598 H 336.973 2.78975 1.20028 0
M  V30 3599 H 334.558 1.39701 0.52952 0
M  V30 3600 H 336.44 2.21513 3.58483 0
M  V30 3601 H 335.115 1.15995 3.02203 0
M  V30 3602 H 334.022 3.20425 1.93078 0
M  V30 3603 H 335.355 4.2056 2.55715 0
M  V30 3604 N 337.007 -0.598083 1.45811 0
M  V30 3605 C 338.232 -1.3881 1.54099 0
M  V30 3606 C 338.657 -1.8726 0.177578 0
M  V30 3607 O 338.015 -1.6069 -0.839541 0
M  V30 3608 C 338.063 -2.56217 2.53743 0
M  V30 3609 O 337.167 -3.5716 2.06182 0
M  V30 3610 H 336.508 -0.414024 0.519115 0
M  V30 3611 H 339.038 -0.726971 1.91249 0
M  V30 3612 H 339.048 -3.03337 2.72856 0
M  V30 3613 H 337.723 -2.20303 3.5276 0
M  V30 3614 H 336.3 -3.16624 1.96987 0
M  V30 3615 N 338.485 -1.33259 -0.841409 0
M  V30 3616 C 339.733 -1.24326 -1.59334 0
M  V30 3617 C 340.054 0.191564 -1.94057 0
M  V30 3618 O 339.324 1.11967 -1.60749 0
M  V30 3619 H 337.904 -0.457174 -0.590763 0
M  V30 3620 H 340.566 -1.66947 -1.00571 0
M  V30 3621 H 339.662 -1.8352 -2.52442 0
M  V30 3622 N 339.963 1.05934 -1.16686 0
M  V30 3623 C 341.211 1.78447 -0.948744 0
M  V30 3624 C 341.532 1.87813 0.524523 0
M  V30 3625 O 340.802 1.38945 1.38098 0
M  V30 3626 H 339.382 0.660971 -0.348033 0
M  V30 3627 H 342.044 1.27947 -1.47022 0
M  V30 3628 H 341.14 2.80394 -1.37061 0
M  V30 3629 N 341.441 0.965919 1.2453 0
M  V30 3630 C 342.666 0.643971 1.97149 0
M  V30 3631 C 343.091 -0.779487 1.71189 0
M  V30 3632 O 342.449 -1.5288 0.974553 0
M  V30 3633 C 342.497 0.922557 3.48599 0
M  V30 3634 O 341.601 0.00707672 4.12399 0
M  V30 3635 H 340.942 0.243647 0.617683 0
M  V30 3636 H 343.472 1.29558 1.58353 0
M  V30 3637 H 343.482 0.853373 3.98976 0
M  V30 3638 H 342.157 1.95996 3.66822 0
M  V30 3639 H 340.734 0.12943 3.72675 0
M  V30 3640 N 342.919 -1.39368 0.735821 0
M  V30 3641 C 343.849 -2.33234 0.111506 0
M  V30 3642 C 344.83 -1.53954 -0.723334 0
M  V30 3643 O 346.015 -1.82344 -0.668147 0
M  V30 3644 C 343.145 -3.38057 -0.795917 0
M  V30 3645 C 342.099 -4.2795 -0.065172 0
M  V30 3646 C 341.425 -5.23479 -1.08967 0
M  V30 3647 C 342.725 -5.10741 1.09273 0
M  V30 3648 H 344.419 -2.85692 0.895571 0
M  V30 3649 H 341.965 -1.37364 0.432109 0
M  V30 3650 H 343.918 -4.02675 -1.24221 0
M  V30 3651 H 342.642 -2.8404 -1.61211 0
M  V30 3652 H 341.301 -3.64813 0.361511 0
M  V30 3653 H 340.949 -4.65758 -1.89944 0
M  V30 3654 H 340.649 -5.84472 -0.605489 0
M  V30 3655 H 342.173 -5.90974 -1.53565 0
M  V30 3656 H 343.587 -5.68699 0.724841 0
M  V30 3657 H 341.984 -5.8088 1.50659 0
M  V30 3658 H 343.054 -4.45525 1.91404 0
M  V30 3659 N 344.397 -0.483516 -1.5 0
M  V30 3660 C 345.329 0.340634 -2.26655 0
M  V30 3661 C 346.342 0.946152 -1.32483 0
M  V30 3662 O 347.531 0.832453 -1.579 0
M  V30 3663 C 344.631 1.4929 -3.04246 0
M  V30 3664 C 343.804 0.997903 -4.25865 0
M  V30 3665 C 342.863 2.02569 -4.85646 0
M  V30 3666 O 341.889 1.60128 -5.46212 0
M  V30 3667 N 343.091 3.3548 -4.73744 0
M  V30 3668 H 345.856 -0.316577 -2.98023 0
M  V30 3669 H 343.417 -0.315024 -1.58806 0
M  V30 3670 H 345.409 2.17766 -3.41116 0
M  V30 3671 H 343.979 2.05458 -2.35597 0
M  V30 3672 H 343.199 0.138617 -3.93956 0
M  V30 3673 H 344.487 0.645305 -5.04691 0
M  V30 3674 H 343.885 3.72661 -4.25605 0
M  V30 3675 H 342.442 3.99718 -5.14848 0
M  V30 3676 N 345.875 1.56104 -0.216619 0
M  V30 3677 C 347.121 1.98466 0.417033 0
M  V30 3678 C 347.454 1.10403 1.59765 0
M  V30 3679 O 346.729 0.160632 1.93836 0
M  V30 3680 C 347.012 3.49769 0.85637 0
M  V30 3681 C 346.865 4.48606 -0.327546 0
M  V30 3682 C 348.184 4.05339 1.7143 0
M  V30 3683 H 345.303 0.721551 0.150112 0
M  V30 3684 H 347.945 1.87423 -0.311864 0
M  V30 3685 H 346.095 3.5931 1.47745 0
M  V30 3686 H 347.767 4.5108 -0.965618 0
M  V30 3687 H 346.01 4.22682 -0.975805 0
M  V30 3688 H 346.681 5.51995 0.0227149 0
M  V30 3689 H 349.157 3.98712 1.19031 0
M  V30 3690 H 348.033 5.11533 1.99061 0
M  V30 3691 H 348.294 3.51918 2.67593 0
M  V30 3692 N 347.353 -0.0568162 1.57498 0
M  V30 3693 C 348.578 -0.769402 1.92601 0
M  V30 3694 C 349.003 -1.69559 0.814336 0
M  V30 3695 O 348.361 -1.79811 -0.231903 0
M  V30 3696 C 348.409 -1.52634 3.26704 0
M  V30 3697 O 347.513 -2.63797 3.16994 0
M  V30 3698 H 346.854 -0.208909 0.63028 0
M  V30 3699 H 349.384 -0.0205798 2.0459 0
M  V30 3700 H 349.394 -1.90234 3.60936 0
M  V30 3701 H 348.069 -0.846875 4.07186 0
M  V30 3702 H 346.646 -2.28943 2.94346 0
M  V30 3703 N 348.832 -1.54138 -0.328536 0
M  V30 3704 C 349.782 -1.79557 -1.4051 0
M  V30 3705 C 350.766 -0.651373 -1.47126 0
M  V30 3706 O 351.958 -0.911226 -1.51742 0
M  V30 3707 C 349.087 -2.02196 -2.77438 0
M  V30 3708 C 348.173 -3.22724 -2.75155 0
M  V30 3709 N 348.564 -4.43881 -2.42494 0
M  V30 3710 C 346.862 -3.24196 -3.06289 0
M  V30 3711 C 347.563 -5.25797 -2.48822 0
M  V30 3712 N 346.539 -4.62862 -2.8506 0
M  V30 3713 H 350.341 -2.70814 -1.1418 0
M  V30 3714 H 347.855 -1.53265 -0.536991 0
M  V30 3715 H 349.852 -2.18546 -3.55026 0
M  V30 3716 H 348.512 -1.12191 -3.04702 0
M  V30 3717 H 349.523 -4.70969 -2.15428 0
M  V30 3718 H 346.2 -2.44208 -3.38627 0
M  V30 3719 H 347.59 -6.32535 -2.26603 0
M  V30 3720 N 350.31 0.590341 -1.46126 0
M  V30 3721 C 351.587 1.35029 -1.41515 0
M  V30 3722 C 351.967 2.10888 -0.0946472 0
M  V30 3723 O 351.315 2.08998 0.923693 0
M  V30 3724 C 351.525 2.28269 -2.63997 0
M  V30 3725 C 352.873 2.90338 -3.09821 0
M  V30 3726 O 353.897 2.38585 -2.64492 0
M  V30 3727 O 352.756 3.84321 -3.88535 0
M  V30 3728 H 349.85 0.606317 -0.562413 0
M  V30 3729 H 352.396 0.611994 -1.58281 0
M  V30 3730 H 351.168 1.71591 -3.51671 0
M  V30 3731 H 350.791 3.0945 -2.49652 0
M  V30 3732 N 351.788 1.33704 0.83433 0
M  V30 3733 C 353.037 1.24763 1.58484 0
M  V30 3734 C 353.35 -0.183775 1.94735 0
M  V30 3735 O 354.556 -0.395234 2.68608 0
M  V30 3736 C 353.012 2.18638 2.85876 0
M  V30 3737 C 352.62 3.66974 2.56971 0
M  V30 3738 C 354.364 2.18581 3.63899 0
M  V30 3739 C 352.271 4.5275 3.80488 0
M  V30 3740 H 351.201 0.463425 0.594772 0
M  V30 3741 H 353.852 1.58797 0.919551 0
M  V30 3742 H 352.234 1.77542 3.5397 0
M  V30 3743 H 353.408 4.16538 1.9706 0
M  V30 3744 H 351.723 3.69366 1.92244 0
M  V30 3745 H 354.32 2.79894 4.55591 0
M  V30 3746 H 354.663 1.18207 3.99165 0
M  V30 3747 H 355.196 2.58062 3.02735 0
M  V30 3748 H 351.935 5.54017 3.5035 0
M  V30 3749 H 351.455 4.07927 4.39722 0
M  V30 3750 H 353.134 4.66784 4.4802 0
M  V30 3751 N 353.266 -1.05314 1.17247 0
M  V30 3752 C 354.543 -1.75184 0.87005 0
M  V30 3753 C 354.923 -2.01481 -0.629965 0
M  V30 3754 O 354.271 -1.64988 -1.58086 0
M  V30 3755 C 354.481 -3.04594 1.70363 0
M  V30 3756 C 355.829 -3.78567 1.92281 0
M  V30 3757 O 356.853 -3.14461 1.67311 0
M  V30 3758 O 355.712 -4.93755 2.3424 0
M  V30 3759 H 352.806 -0.761729 0.322021 0
M  V30 3760 H 355.352 -1.11493 1.27935 0
M  V30 3761 H 354.124 -2.81201 2.72106 0
M  V30 3762 H 353.747 -3.76022 1.29202 0
M  V30 3763 N 354.744 -0.972509 -1.24016 0
M  V30 3764 C 355.969 -0.654417 -1.96805 0
M  V30 3765 C 356.394 0.770398 -1.716 0
M  V30 3766 O 355.752 1.52361 -0.982647 0
M  V30 3767 C 355.8 -0.941031 -3.48105 0
M  V30 3768 O 354.904 -0.0289472 -4.1239 0
M  V30 3769 H 354.245 -0.24692 -0.616382 0
M  V30 3770 H 356.775 -1.30396 -1.57664 0
M  V30 3771 H 356.785 -0.87452 -3.98517 0
M  V30 3772 H 355.46 -1.97939 -3.65777 0
M  V30 3773 H 354.037 -0.149192 -3.72601 0
M  V30 3774 N 356.222 1.38976 -0.743202 0
M  V30 3775 C 357.185 2.28901 -0.117014 0
M  V30 3776 C 358.185 1.46698 0.658503 0
M  V30 3777 O 359.375 1.67274 0.486305 0
M  V30 3778 C 356.507 3.30309 0.84315 0
M  V30 3779 H 357.7 2.8578 -0.909373 0
M  V30 3780 H 355.253 1.47761 -0.509547 0
M  V30 3781 H 355.988 2.785 1.66157 0
M  V30 3782 H 355.773 3.91029 0.289594 0
M  V30 3783 H 357.263 3.97577 1.2776 0
M  V30 3784 N 357.7 0.491464 1.49741 0
M  V30 3785 C 358.93 -0.0534375 2.06531 0
M  V30 3786 C 359.338 -1.32233 1.35318 0
M  V30 3787 O 358.681 -1.78781 0.422243 0
M  V30 3788 C 358.743 -0.387034 3.57411 0
M  V30 3789 C 358.407 0.782764 4.50246 0
M  V30 3790 C 359.404 1.67059 4.92329 0
M  V30 3791 C 357.089 0.978866 4.9267 0
M  V30 3792 C 359.083 2.73874 5.75562 0
M  V30 3793 C 356.77 2.05022 5.75682 0
M  V30 3794 C 357.768 2.92851 6.17031 0
M  V30 3795 O 357.456 3.98138 6.98385 0
M  V30 3796 H 357.188 0.0129324 0.675876 0
M  V30 3797 H 359.742 0.685238 1.93633 0
M  V30 3798 H 357.972 -1.17918 3.68283 0
M  V30 3799 H 359.661 -0.869419 3.96479 0
M  V30 3800 H 360.427 1.53086 4.60206 0
M  V30 3801 H 356.306 0.304646 4.59992 0
M  V30 3802 H 359.85 3.42458 6.07757 0
M  V30 3803 H 355.747 2.18993 6.07217 0
M  V30 3804 H 356.515 3.95374 7.16674 0
M  V30 3805 N 359.178 -1.55987 0.224894 0
M  V30 3806 C 360.141 -2.19178 -0.670348 0
M  V30 3807 C 361.141 -1.15461 -1.11917 0
M  V30 3808 O 362.331 -1.40675 -1.02743 0
M  V30 3809 C 359.463 -2.81777 -1.9187 0
M  V30 3810 H 360.656 -2.99662 -0.119364 0
M  V30 3811 H 358.209 -1.5628 -0.0247128 0
M  V30 3812 H 358.944 -2.05172 -2.51147 0
M  V30 3813 H 358.729 -3.57732 -1.60531 0
M  V30 3814 H 360.219 -3.30205 -2.55645 0
M  V30 3815 N 360.656 0.0484629 -1.57525 0
M  V30 3816 C 361.904 0.741657 -1.88 0
M  V30 3817 C 362.225 1.76918 -0.820054 0
M  V30 3818 O 361.495 1.95335 0.148661 0
M  V30 3819 H 360.075 0.276908 -0.69378 0
M  V30 3820 H 362.737 0.019013 -1.94891 0
M  V30 3821 H 361.833 1.24336 -2.86264 0
M  V30 3822 N 362.134 1.5431 0.320358 0
M  V30 3823 C 363.097 1.83195 1.3774 0
M  V30 3824 C 364.097 0.703906 1.44575 0
M  V30 3825 O 365.287 0.972214 1.44546 0
M  V30 3826 C 362.419 1.99487 2.76438 0
M  V30 3827 H 363.612 2.77642 1.1338 0
M  V30 3828 H 361.165 1.46076 0.556012 0
M  V30 3829 H 361.9 1.07262 3.06048 0
M  V30 3830 H 361.685 2.81575 2.7287 0
M  V30 3831 H 363.175 2.23271 3.52902 0
M  V30 3832 N 363.613 -0.582584 1.46437 0
M  V30 3833 C 364.89 -1.34276 1.4223 0
M  V30 3834 C 365.27 -2.10835 0.10583 0
M  V30 3835 O 364.618 -2.09485 -0.912596 0
M  V30 3836 C 364.828 -2.26865 2.65204 0
M  V30 3837 C 366.176 -2.88691 3.11356 0
M  V30 3838 O 367.2 -2.37178 2.65753 0
M  V30 3839 O 366.059 -3.82255 3.90568 0
M  V30 3840 H 363.153 -0.603326 0.565621 0
M  V30 3841 H 365.699 -0.603591 1.58603 0
M  V30 3842 H 364.471 -1.69724 3.52576 0
M  V30 3843 H 364.094 -3.08122 2.5129 0
M  V30 3844 N 365.091 -1.34144 -0.827227 0
M  V30 3845 C 366.337 -1.26446 -1.58554 0
M  V30 3846 C 366.67 0.1664 -1.93486 0
M  V30 3847 O 365.945 1.1107 -1.59667 0
M  V30 3848 C 366.228 -2.15111 -2.8879 0
M  V30 3849 C 366.081 -3.66712 -2.60465 0
M  V30 3850 C 367.4 -2.03311 -3.90324 0
M  V30 3851 H 364.519 -0.46067 -0.575284 0
M  V30 3852 H 367.161 -1.64356 -0.953269 0
M  V30 3853 H 365.311 -1.8291 -3.42748 0
M  V30 3854 H 366.983 -4.09259 -2.1285 0
M  V30 3855 H 365.226 -3.88014 -1.93978 0
M  V30 3856 H 365.897 -4.24112 -3.53317 0
M  V30 3857 H 368.373 -2.31574 -3.45706 0
M  V30 3858 H 367.249 -2.67582 -4.79261 0
M  V30 3859 H 367.51 -1.00879 -4.30437 0
M  V30 3860 N 366.569 1.04691 -1.17803 0
M  V30 3861 C 367.815 1.78045 -0.970969 0
M  V30 3862 C 368.148 1.87686 0.498751 0
M  V30 3863 O 367.423 1.38035 1.37027 0
M  V30 3864 C 367.706 3.2166 -1.61884 0
M  V30 3865 C 367.559 3.20001 -3.161 0
M  V30 3866 C 368.878 4.1962 -1.3269 0
M  V30 3867 H 365.997 0.64633 -0.354155 0
M  V30 3868 H 368.639 1.22333 -1.45378 0
M  V30 3869 H 366.789 3.69232 -1.20831 0
M  V30 3870 H 368.461 2.80467 -3.66246 0
M  V30 3871 H 366.704 2.58203 -3.48588 0
M  V30 3872 H 367.375 4.21386 -3.56564 0
M  V30 3873 H 369.851 3.80567 -1.68249 0
M  V30 3874 H 368.727 5.18339 -1.80599 0
M  V30 3875 H 368.988 4.414 -0.248622 0
M  V30 3876 N 368.047 0.979072 1.23499 0
M  V30 3877 C 369.277 0.664237 1.95631 0
M  V30 3878 C 369.685 -0.772653 1.72704 0
M  V30 3879 O 369.028 -1.53141 1.01457 0
M  V30 3880 C 369.09 0.873115 3.48736 0
M  V30 3881 C 368.754 2.29182 3.95379 0
M  V30 3882 C 369.751 3.2704 4.04155 0
M  V30 3883 C 367.436 2.62256 4.28401 0
M  V30 3884 C 369.43 4.56052 4.45304 0
M  V30 3885 C 367.117 3.91491 4.69231 0
M  V30 3886 C 368.115 4.88201 4.77649 0
M  V30 3887 O 367.803 6.15129 5.17563 0
M  V30 3888 H 367.535 0.245915 0.629684 0
M  V30 3889 H 370.089 1.3127 1.57979 0
M  V30 3890 H 368.319 0.167476 3.86337 0
M  V30 3891 H 370.008 0.555642 4.02079 0
M  V30 3892 H 370.774 3.02819 3.78848 0
M  V30 3893 H 366.653 1.87692 4.21061 0
M  V30 3894 H 370.197 5.31538 4.51789 0
M  V30 3895 H 366.094 4.15508 4.93987 0
M  V30 3896 H 366.862 6.18862 5.35679 0
M  V30 3897 N 369.525 -1.3858 0.750561 0
M  V30 3898 C 370.488 -2.28836 0.129152 0
M  V30 3899 C 371.488 -1.47045 -0.650714 0
M  V30 3900 O 372.678 -1.6753 -0.477428 0
M  V30 3901 C 369.81 -3.30751 -0.825622 0
M  V30 3902 H 371.003 -2.85294 0.924516 0
M  V30 3903 H 368.556 -1.47489 0.517376 0
M  V30 3904 H 369.291 -2.79378 -1.64677 0
M  V30 3905 H 369.076 -3.91177 -0.268852 0
M  V30 3906 H 370.566 -3.98249 -1.2565 0
M  V30 3907 N 371.003 -0.499398 -1.49478 0
M  V30 3908 C 371.95 0.279881 -2.29097 0
M  V30 3909 C 372.92 0.961805 -1.3542 0
M  V30 3910 O 374.105 0.968777 -1.64376 0
M  V30 3911 C 371.245 1.33932 -3.18051 0
M  V30 3912 C 370.358 0.669333 -4.26783 0
M  V30 3913 C 369.493 1.70907 -5.02955 0
M  V30 3914 C 368.532 1.02087 -6.03527 0
M  V30 3915 N 367.669 2.00474 -6.7287 0
M  V30 3916 H 372.509 -0.405317 -2.95231 0
M  V30 3917 H 370.046 -0.211726 -1.45568 0
M  V30 3918 H 372.004 1.96553 -3.67998 0
M  V30 3919 H 370.634 1.9933 -2.53904 0
M  V30 3920 H 369.686 -0.0701234 -3.80335 0
M  V30 3921 H 370.998 0.127503 -4.98637 0
M  V30 3922 H 370.152 2.41037 -5.56764 0
M  V30 3923 H 368.891 2.28476 -4.30871 0
M  V30 3924 H 367.896 0.305338 -5.48951 0
M  V30 3925 H 369.121 0.451708 -6.77596 0
M  V30 3926 H 367.067 2.57007 -6.03559 0
M  V30 3927 H 366.984 1.51353 -7.40694 0
M  V30 3928 H 368.252 2.69897 -7.31284 0
M  V30 3929 N 372.481 1.55866 -0.233164 0
M  V30 3930 C 373.706 2.03449 0.402906 0
M  V30 3931 C 374.131 1.11166 1.51736 0
M  V30 3932 O 373.489 0.101996 1.81013 0
M  V30 3933 C 373.537 3.49165 0.9009 0
M  V30 3934 O 372.641 3.60019 2.01147 0
M  V30 3935 H 371.982 0.657913 0.0897025 0
M  V30 3936 H 374.512 2.01493 -0.355201 0
M  V30 3937 H 374.522 3.89716 1.2077 0
M  V30 3938 H 373.197 4.15813 0.0852889 0
M  V30 3939 H 371.774 3.3136 1.71042 0
M  V30 3940 N 373.959 -0.0401083 1.57549 0
M  V30 3941 C 375.205 -0.728793 1.89895 0
M  V30 3942 C 375.56 -1.73551 0.830535 0
M  V30 3943 O 374.853 -1.90914 -0.162007 0
M  V30 3944 C 375.047 -1.44902 3.26708 0
M  V30 3945 C 374.876 -0.513568 4.46758 0
M  V30 3946 C 373.646 -0.138698 5.0511 0
M  V30 3947 C 375.844 0.203341 5.13898 0
M  V30 3948 N 373.826 0.799159 6.08676 0
M  V30 3949 C 375.197 0.997246 6.11927 0
M  V30 3950 C 377.252 0.271459 4.97159 0
M  V30 3951 C 375.955 1.85299 6.95023 0
M  V30 3952 C 377.981 1.11429 5.80808 0
M  V30 3953 C 377.343 1.89615 6.78399 0
M  V30 3954 H 373.442 -0.241125 0.743897 0
M  V30 3955 H 376.026 0.0108016 1.94697 0
M  V30 3956 H 374.197 -2.15914 3.22856 0
M  V30 3957 H 375.929 -2.08921 3.46603 0
M  V30 3958 H 372.684 -0.498496 4.70969 0
M  V30 3959 H 373.108 1.26227 6.65128 0
M  V30 3960 H 377.75 -0.318709 4.21597 0
M  V30 3961 H 375.468 2.454 7.69938 0
M  V30 3962 H 379.054 1.17038 5.69906 0
M  V30 3963 H 377.934 2.53779 7.42001 0
M  V30 3964 N 375.437 -1.54477 -0.31217 0
M  V30 3965 C 376.685 -1.72884 -1.04668 0
M  V30 3966 C 377.006 -0.511477 -1.88173 0
M  V30 3967 O 376.276 0.474407 -1.90069 0
M  V30 3968 H 374.856 -0.637461 -0.389425 0
M  V30 3969 H 377.518 -1.91807 -0.345852 0
M  V30 3970 H 376.614 -2.61334 -1.70619 0
M  V30 3971 N 376.915 0.57481 -1.46744 0
M  V30 3972 C 377.878 1.66533 -1.57478 0
M  V30 3973 C 378.878 1.54338 -0.451263 0
M  V30 3974 O 380.068 1.58814 -0.715813 0
M  V30 3975 C 377.2 3.05999 -1.50259 0
M  V30 3976 H 378.393 1.58372 -2.54673 0
M  V30 3977 H 375.946 0.793301 -1.34672 0
M  V30 3978 H 376.681 3.19709 -0.543725 0
M  V30 3979 H 376.466 3.16259 -2.31781 0
M  V30 3980 H 377.956 3.8537 -1.60872 0
M  V30 3981 N 378.394 1.34581 0.820102 0
M  V30 3982 C 379.324 1.29038 1.94606 0
M  V30 3983 C 380.305 0.1673 1.69275 0
M  V30 3984 O 381.49 0.360112 1.90832 0
M  V30 3985 C 378.62 1.04793 3.31113 0
M  V30 3986 C 377.574 2.13597 3.70891 0
M  V30 3987 C 376.9 1.74537 5.05412 0
M  V30 3988 C 378.2 3.55451 3.8269 0
M  V30 3989 H 379.894 2.23248 1.99501 0
M  V30 3990 H 377.44 1.0747 0.958449 0
M  V30 3991 H 379.393 0.995592 4.0947 0
M  V30 3992 H 378.117 0.0702565 3.26524 0
M  V30 3993 H 376.776 2.17905 2.9481 0
M  V30 3994 H 376.424 0.754226 4.97313 0
M  V30 3995 H 376.124 2.47361 5.32997 0
M  V30 3996 H 377.648 1.70803 5.86224 0
M  V30 3997 H 379.062 3.5354 4.51312 0
M  V30 3998 H 377.459 4.26922 4.21732 0
M  V30 3999 H 378.529 3.92587 2.84611 0
M  V30 4000 N 379.872 -1.04064 1.18357 0
M  V30 4001 C 381.283 -1.58719 0.98312 0
M  V30 4002 C 381.634 -1.90556 -0.467193 0
M  V30 4003 O 380.759 -1.69561 -1.34454 0
M  V30 4004 C 381.354 -2.88379 1.77828 0
M  V30 4005 C 379.913 -3.3965 1.62218 0
M  V30 4006 C 379.06 -2.13235 1.77274 0
M  V30 4007 H 382.011 -0.867359 1.32901 0
M  V30 4008 H 382.032 -3.58773 1.26737 0
M  V30 4009 H 381.544 -2.65176 2.83379 0
M  V30 4010 H 379.645 -3.67866 0.592036 0
M  V30 4011 H 379.758 -4.13475 2.42023 0
M  V30 4012 H 378.122 -2.24542 1.20221 0
M  V30 4013 H 378.905 -1.92487 2.8426 0
M  V30 4014 N 381.35 -0.985608 -1.22978 0
M  V30 4015 C 382.597 -0.657386 -1.91532 0
M  V30 4016 C 382.925 0.809707 -1.76845 0
M  V30 4017 O 382.18 1.60021 -1.12658 0
M  V30 4018 C 382.479 -1.00014 -3.43121 0
M  V30 4019 C 382.145 -2.4583 -3.77993 0
M  V30 4020 C 380.807 -2.85679 -3.87222 0
M  V30 4021 C 383.159 -3.40378 -3.94705 0
M  V30 4022 C 380.487 -4.19081 -4.10595 0
M  V30 4023 C 382.839 -4.73429 -4.1958 0
M  V30 4024 C 381.503 -5.1303 -4.27032 0
M  V30 4025 H 380.773 -0.240555 -0.700867 0
M  V30 4026 H 383.42 -1.24044 -1.45895 0
M  V30 4027 H 381.725 -0.335072 -3.90365 0
M  V30 4028 H 383.422 -0.724322 -3.94404 0
M  V30 4029 H 380.012 -2.13939 -3.71387 0
M  V30 4030 H 384.196 -3.10766 -3.8696 0
M  V30 4031 H 379.452 -4.49362 -4.14589 0
M  V30 4032 H 383.626 -5.46644 -4.31455 0
M  V30 4033 H 381.253 -6.16418 -4.44896 0
M  V30 4034 N 382.828 1.3818 -0.7579 0
M  V30 4035 C 384.075 2.00019 -0.315985 0
M  V30 4036 C 384.403 1.60163 1.10355 0
M  V30 4037 O 383.658 0.83264 1.77103 0
M  V30 4038 C 383.957 3.55252 -0.391218 0
M  V30 4039 C 383.623 4.14834 -1.76702 0
M  V30 4040 C 382.285 4.30821 -2.14353 0
M  V30 4041 C 384.637 4.47658 -2.66931 0
M  V30 4042 C 381.965 4.76928 -3.41696 0
M  V30 4043 C 384.317 4.95184 -3.93669 0
M  V30 4044 C 382.981 5.09377 -4.31383 0
M  V30 4045 H 382.251 0.731923 -0.115627 0
M  V30 4046 H 384.898 1.65161 -0.969223 0
M  V30 4047 H 383.203 3.90273 0.34558 0
M  V30 4048 H 384.9 4.00988 -0.030805 0
M  V30 4049 H 381.49 4.02808 -1.46435 0
M  V30 4050 H 385.674 4.34904 -2.39106 0
M  V30 4051 H 380.93 4.86103 -3.70829 0
M  V30 4052 H 385.104 5.19551 -4.63724 0
M  V30 4053 H 382.731 5.44865 -5.30119 0
M  V30 4054 N 384.306 0.507319 1.49211 0
M  V30 4055 C 385.554 -0.0348839 2.0207 0
M  V30 4056 C 385.875 -1.36898 1.38866 0
M  V30 4057 O 385.145 -1.88133 0.546151 0
M  V30 4058 H 383.725 -0.0158812 0.746831 0
M  V30 4059 H 386.387 0.665998 1.83168 0
M  V30 4060 H 385.483 -0.159917 3.1169 0
M  V30 4061 N 385.784 -1.5574 0.241426 0
M  V30 4062 C 386.732 -2.22538 -0.676718 0
M  V30 4063 C 387.726 -1.21117 -1.18436 0
M  V30 4064 O 388.932 -1.39144 -1.14188 0
M  V30 4065 H 385.307 -0.713776 -0.236701 0
M  V30 4066 H 387.278 -2.98264 -0.0901187 0
M  V30 4067 C 386.027 -2.93439 -1.86518 0
M  V30 4068 H 385.35 -3.7125 -1.4837 0
M  V30 4069 H 386.79 -3.43549 -2.48495 0
M  V30 4070 C 385.249 -1.97008 -2.73294 0
M  V30 4071 O 385.779 -1.49965 -3.72657 0
M  V30 4072 N 383.985 -1.64227 -2.39745 0
M  V30 4073 H 383.532 -2.02677 -1.58996 0
M  V30 4074 H 383.49 -0.999708 -2.98083 0
M  V30 4075 N 387.262 0.0317525 -1.57568 0
M  V30 4076 C 388.508 0.718712 -1.90279 0
M  V30 4077 C 388.863 1.73108 -0.839727 0
M  V30 4078 O 388.156 1.90997 0.15188 0
M  V30 4079 C 388.35 1.43167 -3.27472 0
M  V30 4080 C 388.179 0.489869 -4.47024 0
M  V30 4081 C 386.949 0.111909 -5.05176 0
M  V30 4082 C 389.147 -0.230592 -5.13783 0
M  V30 4083 N 387.129 -0.831427 -6.08244 0
M  V30 4084 C 388.5 -1.02968 -6.1139 0
M  V30 4085 C 390.555 -0.297821 -4.97008 0
M  V30 4086 C 389.258 -1.88982 -6.9403 0
M  V30 4087 C 391.284 -1.14507 -5.80209 0
M  V30 4088 C 390.646 -1.9321 -6.77384 0
M  V30 4089 H 386.745 0.237177 -0.745165 0
M  V30 4090 H 389.329 -0.0211267 -1.94689 0
M  V30 4091 H 387.5 2.14199 -3.23996 0
M  V30 4092 H 389.232 2.0708 -3.47707 0
M  V30 4093 H 385.987 0.473513 -4.71227 0
M  V30 4094 H 386.411 -1.29752 -6.6445 0
M  V30 4095 H 391.053 0.296346 -4.2176 0
M  V30 4096 H 388.771 -2.4948 -7.68626 0
M  V30 4097 H 392.357 -1.20059 -5.69278 0
M  V30 4098 H 391.237 -2.57711 -7.40645 0
M  V30 4099 N 388.74 1.54641 0.303973 0
M  V30 4100 C 389.65 1.88439 1.39743 0
M  V30 4101 C 390.666 0.778239 1.55626 0
M  V30 4102 O 391.842 1.07442 1.70347 0
M  V30 4103 C 388.907 2.12212 2.74166 0
M  V30 4104 C 387.968 3.35936 2.67293 0
M  V30 4105 C 387.201 3.58566 3.95305 0
M  V30 4106 O 387.424 2.84263 4.9452 0
M  V30 4107 O 386.358 4.52078 3.97378 0
M  V30 4108 H 390.184 2.81458 1.14083 0
M  V30 4109 H 387.769 1.40793 0.499768 0
M  V30 4110 H 389.651 2.29067 3.53704 0
M  V30 4111 H 388.326 1.22379 2.99675 0
M  V30 4112 H 387.233 3.24448 1.86237 0
M  V30 4113 H 388.566 4.2589 2.46736 0
M  V30 4114 N 390.218 -0.567019 1.47046 0
M  V30 4115 C 391.629 -1.14916 1.47143 0
M  V30 4116 C 391.98 -1.94954 0.220767 0
M  V30 4117 O 391.105 -2.05602 -0.67505 0
M  V30 4118 C 391.7 -2.09069 2.666 0
M  V30 4119 C 390.259 -2.62575 2.69687 0
M  V30 4120 C 389.406 -1.38755 2.40088 0
M  V30 4121 H 392.357 -0.354126 1.54699 0
M  V30 4122 H 392.378 -2.92789 2.43011 0
M  V30 4123 H 391.89 -1.50789 3.57609 0
M  V30 4124 H 389.991 -3.24681 1.82792 0
M  V30 4125 H 390.104 -3.04239 3.70102 0
M  V30 4126 H 388.468 -1.69098 1.90468 0
M  V30 4127 H 389.251 -0.822822 3.33293 0
M  V30 4128 N 391.696 -1.35014 -0.812953 0
M  V30 4129 C 392.606 -1.2951 -1.95613 0
M  V30 4130 C 393.622 -0.20107 -1.72834 0
M  V30 4131 O 394.798 -0.42932 -1.96771 0
M  V30 4132 C 391.863 -1.06033 -3.30088 0
M  V30 4133 C 390.924 -2.24688 -3.65805 0
M  V30 4134 C 390.157 -2.02322 -4.93864 0
M  V30 4135 O 390.38 -0.986464 -5.61805 0
M  V30 4136 O 389.314 -2.89525 -5.27692 0
M  V30 4137 H 393.14 -2.25705 -2.03202 0
M  V30 4138 H 390.725 -1.15321 -0.949811 0
M  V30 4139 H 392.607 -0.94763 -4.10607 0
M  V30 4140 H 391.282 -0.128852 -3.23443 0
M  V30 4141 H 390.189 -2.41521 -2.85689 0
M  V30 4142 H 391.522 -3.16261 -3.77147 0
M  V30 4143 N 393.175 1.03435 -1.18907 0
M  V30 4144 C 394.122 2.11591 -0.921837 0
M  V30 4145 C 395.092 1.65499 0.141226 0
M  V30 4146 O 396.277 1.908 0.000242829 0
M  V30 4147 C 393.417 3.42012 -0.460616 0
M  V30 4148 C 392.53 4.01682 -1.58982 0
M  V30 4149 C 391.665 5.20091 -1.08069 0
M  V30 4150 C 390.704 5.71805 -2.18416 0
M  V30 4151 N 389.841 6.81494 -1.68849 0
M  V30 4152 H 394.681 2.33787 -1.8479 0
M  V30 4153 H 392.218 1.1467 -0.921373 0
M  V30 4154 H 394.176 4.16834 -0.174642 0
M  V30 4155 H 392.806 3.19944 0.428467 0
M  V30 4156 H 391.858 3.24127 -1.99113 0
M  V30 4157 H 393.17 4.36084 -2.4214 0
M  V30 4158 H 392.324 6.02051 -0.749615 0
M  V30 4159 H 391.063 4.87209 -0.218771 0
M  V30 4160 H 390.068 4.88461 -2.5236 0
M  V30 4161 H 391.293 6.06728 -3.05054 0
M  V30 4162 H 389.239 6.50475 -0.849572 0
M  V30 4163 H 389.156 7.14994 -2.45601 0
M  V30 4164 H 390.424 7.67063 -1.38689 0
M  V30 4165 N 394.653 0.992116 1.22453 0
M  V30 4166 C 396.064 0.702776 1.72968 0
M  V30 4167 C 396.415 -0.780399 1.80012 0
M  V30 4168 O 395.54 -1.61007 1.44589 0
M  V30 4169 C 396.135 1.26903 3.14135 0
M  V30 4170 C 394.694 1.02909 3.62059 0
M  V30 4171 C 393.841 1.38969 2.39964 0
M  V30 4172 H 396.792 1.16457 1.07812 0
M  V30 4173 H 396.813 0.647223 3.74955 0
M  V30 4174 H 396.325 2.34851 3.08977 0
M  V30 4175 H 394.426 -0.0337979 3.72585 0
M  V30 4176 H 394.539 1.69191 4.48231 0
M  V30 4177 H 392.903 0.808279 2.41535 0
M  V30 4178 H 393.686 2.4792 2.37467 0
M  V30 4179 N 396.131 -1.37776 0.765217 0
M  V30 4180 C 397.38 -1.99092 0.323307 0
M  V30 4181 C 397.693 -1.61434 -1.10446 0
M  V30 4182 O 398.899 -2.15805 -1.64743 0
M  V30 4183 C 397.355 -3.56019 0.527098 0
M  V30 4184 C 396.963 -4.0262 1.96471 0
M  V30 4185 C 398.707 -4.2424 0.148483 0
M  V30 4186 C 396.614 -5.52233 2.11644 0
M  V30 4187 H 395.544 -0.744846 0.117137 0
M  V30 4188 H 398.195 -1.57391 0.943417 0
M  V30 4189 H 396.577 -3.95667 -0.162372 0
M  V30 4190 H 397.751 -3.74234 2.68859 0
M  V30 4191 H 396.066 -3.47161 2.29931 0
M  V30 4192 H 398.663 -5.34159 0.240456 0
M  V30 4193 H 399.006 -4.06446 -0.900422 0
M  V30 4194 H 399.539 -3.89872 0.79025 0
M  V30 4195 H 396.278 -5.74945 3.1483 0
M  V30 4196 H 395.798 -5.82324 1.4373 0
M  V30 4197 H 397.477 -6.18106 1.91193 0
M  V30 4198 N 397.609 -0.515225 -1.4894 0
M  V30 4199 C 399.025 -0.172099 -1.58669 0
M  V30 4200 C 399.225 1.32405 -1.51892 0
M  V30 4201 O 398.281 2.10116 -1.40027 0
M  V30 4202 C 399.594 -0.761533 -2.90897 0
M  V30 4203 C 401.142 -0.728926 -3.04394 0
M  V30 4204 C 401.617 -1.29667 -4.39261 0
M  V30 4205 N 403.108 -1.25799 -4.4579 0
M  V30 4206 C 403.843 -1.66733 -5.48623 0
M  V30 4207 N 403.339 -2.15327 -6.58488 0
M  V30 4208 N 405.132 -1.58061 -5.39419 0
M  V30 4209 H 397.283 -1.48778 -1.51588 0
M  V30 4210 H 399.546 -0.617968 -0.718901 0
M  V30 4211 H 399.252 -1.81136 -3.01468 0
M  V30 4212 H 399.126 -0.230106 -3.76497 0
M  V30 4213 H 401.513 0.312098 -2.93445 0
M  V30 4214 H 401.594 -1.29766 -2.20442 0
M  V30 4215 H 401.238 -2.33655 -4.50963 0
M  V30 4216 H 401.168 -0.703752 -5.21876 0
M  V30 4217 H 403.659 -0.902102 -3.66975 0
M  V30 4218 H 403.972 -2.44594 -7.33071 0
M  V30 4219 H 402.317 -2.19311 -6.59491 0
M  V30 4220 H 405.508 -1.19906 -4.52482 0
M  V30 4221 H 405.681 -1.90284 -6.19432 0
M  V30 4222 N 399.087 1.5561 -0.249682 0
M  V30 4223 C 400.364 1.90932 0.424761 0
M  V30 4224 C 400.744 1.17078 1.75658 0
M  V30 4225 O 400.092 0.289176 2.26663 0
M  V30 4226 C 400.302 3.43975 0.590109 0
M  V30 4227 C 401.65 4.15281 0.884714 0
M  V30 4228 O 402.674 3.49729 0.67587 0
M  V30 4229 O 401.533 5.31236 1.28259 0
M  V30 4230 H 398.627 0.794815 0.228468 0
M  V30 4231 H 401.173 1.67135 -0.293954 0
M  V30 4232 H 399.945 3.89748 -0.34818 0
M  V30 4233 H 399.568 3.73644 1.35926 0
M  V30 4234 N 400.565 -0.0233959 1.57583 0
M  V30 4235 C 401.497 -1.04994 2.03737 0
M  V30 4236 C 402.51 -1.32125 0.951152 0
M  V30 4237 O 403.699 -1.29512 1.22837 0
M  V30 4238 C 400.799 -2.39026 2.40249 0
M  V30 4239 C 399.972 -2.31171 3.7132 0
M  V30 4240 C 399.031 -3.47698 3.94959 0
M  V30 4241 O 398.057 -3.26937 4.65941 0
M  V30 4242 N 399.259 -4.6976 3.41037 0
M  V30 4243 H 402.024 -0.656507 2.92421 0
M  V30 4244 H 399.585 -0.211235 1.60516 0
M  V30 4245 H 401.577 -3.15712 2.53196 0
M  V30 4246 H 400.147 -2.70194 1.57207 0
M  V30 4247 H 399.367 -1.39547 3.68674 0
M  V30 4248 H 400.655 -2.23071 4.57293 0
M  V30 4249 H 400.053 -4.89528 2.83512 0
M  V30 4250 H 398.61 -5.43791 3.59353 0
M  V30 4251 N 402.043 -1.548 -0.295768 0
M  V30 4252 C 403.273 -1.78069 -1.04762 0
M  V30 4253 C 403.681 -0.542847 -1.81245 0
M  V30 4254 O 403.024 0.497051 -1.76848 0
M  V30 4255 C 403.086 -2.93881 -2.07061 0
M  V30 4256 C 402.75 -4.31777 -1.49725 0
M  V30 4257 C 403.747 -5.11613 -0.924581 0
M  V30 4258 C 401.432 -4.78389 -1.5313 0
M  V30 4259 C 403.426 -6.36184 -0.393594 0
M  V30 4260 C 401.113 -6.02921 -0.996447 0
M  V30 4261 C 402.111 -6.81654 -0.428569 0
M  V30 4262 O 401.799 -8.0384 0.0981593 0
M  V30 4263 H 401.531 -0.597475 -0.316226 0
M  V30 4264 H 404.085 -2.02584 -0.338973 0
M  V30 4265 H 402.315 -2.65003 -2.81621 0
M  V30 4266 H 404.004 -3.04679 -2.6819 0
M  V30 4267 H 404.77 -4.76743 -0.891136 0
M  V30 4268 H 400.649 -4.17132 -1.9627 0
M  V30 4269 H 404.193 -6.97582 0.0503014 0
M  V30 4270 H 400.09 -6.37277 -1.02706 0
M  V30 4271 H 400.858 -8.18499 -0.0146455 0
M  V30 4272 N 403.521 0.559213 -1.47345 0
M  V30 4273 C 404.453 1.68161 -1.55738 0
M  V30 4274 C 405.466 1.56636 -0.443744 0
M  V30 4275 O 406.655 1.6363 -0.713258 0
M  V30 4276 C 403.755 3.06611 -1.4437 0
M  V30 4277 C 402.928 3.4391 -2.70268 0
M  V30 4278 C 401.987 4.61515 -2.52765 0
M  V30 4279 O 401.013 4.66197 -3.26572 0
M  V30 4280 N 402.215 5.57883 -1.6046 0
M  V30 4281 H 404.98 1.61408 -2.52522 0
M  V30 4282 H 402.541 0.7458 -1.43699 0
M  V30 4283 H 404.533 3.83117 -1.30398 0
M  V30 4284 H 403.103 3.07602 -0.556766 0
M  V30 4285 H 402.323 2.56873 -2.99015 0
M  V30 4286 H 403.611 3.65605 -3.53851 0
M  V30 4287 H 403.009 5.56855 -0.996422 0
M  V30 4288 H 401.566 6.33723 -1.52441 0
M  V30 4289 N 404.999 1.35443 0.805782 0
M  V30 4290 C 405.949 1.24972 1.90699 0
M  V30 4291 C 406.933 0.144806 1.60247 0
M  V30 4292 O 408.125 0.376102 1.72958 0
M  V30 4293 C 405.254 1.02475 3.27649 0
M  V30 4294 C 404.34 2.17361 3.64164 0
M  V30 4295 N 404.731 3.42591 3.72109 0
M  V30 4296 C 403.029 2.08765 3.94123 0
M  V30 4297 C 403.73 4.18144 4.04389 0
M  V30 4298 N 402.706 3.4691 4.18515 0
M  V30 4299 H 406.508 2.19852 1.95044 0
M  V30 4300 H 404.022 1.27928 1.00041 0
M  V30 4301 H 406.019 0.930617 4.06381 0
M  V30 4302 H 404.679 0.0848009 3.24589 0
M  V30 4303 H 405.69 3.76932 3.55166 0
M  V30 4304 H 402.367 1.22629 3.99084 0
M  V30 4305 H 403.757 5.26367 4.17597 0
M  V30 4306 N 406.477 -1.02803 1.19454 0
M  V30 4307 C 407.724 -1.76217 0.997693 0
M  V30 4308 C 408.052 -1.887 -0.47144 0
M  V30 4309 O 407.307 -1.4011 -1.3663 0
M  V30 4310 C 407.606 -3.18941 1.6128 0
M  V30 4311 C 407.272 -3.26463 3.11019 0
M  V30 4312 C 405.934 -3.28223 3.51885 0
M  V30 4313 C 408.286 -3.25542 4.07028 0
M  V30 4314 C 405.614 -3.26719 4.8731 0
M  V30 4315 C 407.966 -3.25579 5.42385 0
M  V30 4316 C 406.63 -3.25637 5.82681 0
M  V30 4317 H 405.9 -0.644823 0.365082 0
M  V30 4318 H 408.547 -1.20655 1.4871 0
M  V30 4319 H 406.852 -3.77587 1.04572 0
M  V30 4320 H 408.549 -3.74415 1.43577 0
M  V30 4321 H 405.139 -3.25822 2.78457 0
M  V30 4322 H 409.323 -3.23362 3.76498 0
M  V30 4323 H 404.579 -3.25089 5.1781 0
M  V30 4324 H 408.753 -3.23817 6.16535 0
M  V30 4325 H 406.38 -3.24226 6.87591 0
M  V30 4326 N 407.956 -0.998596 -1.21925 0
M  V30 4327 C 409.205 -0.673085 -1.90138 0
M  V30 4328 C 409.518 0.79895 -1.78539 0
M  V30 4329 O 410.724 1.23628 -2.4172 0
M  V30 4330 C 409.18 -1.15339 -3.40918 0
M  V30 4331 C 408.788 -2.65106 -3.61141 0
M  V30 4332 C 410.532 -0.902476 -4.14796 0
M  V30 4333 C 408.439 -3.0671 -5.05651 0
M  V30 4334 H 407.369 -0.248057 -0.712028 0
M  V30 4335 H 410.02 -1.20891 -1.38049 0
M  V30 4336 H 408.402 -0.545658 -3.92223 0
M  V30 4337 H 409.576 -3.31274 -3.20304 0
M  V30 4338 H 407.891 -2.88142 -3.00605 0
M  V30 4339 H 410.488 -1.18895 -5.21314 0
M  V30 4340 H 410.831 0.161349 -4.15987 0
M  V30 4341 H 411.364 -1.47269 -3.69536 0
M  V30 4342 H 408.103 -4.12292 -5.09603 0
M  V30 4343 H 407.623 -2.45249 -5.47369 0
M  V30 4344 H 409.302 -2.9833 -5.74115 0
M  V30 4345 N 409.434 1.37368 -0.772513 0
M  V30 4346 C 410.68 1.99969 -0.337681 0
M  V30 4347 C 411.013 1.61184 1.08321 0
M  V30 4348 O 410.288 0.858395 1.74533 0
M  V30 4349 C 410.571 3.56858 -0.482121 0
M  V30 4350 C 410.424 4.0555 -1.94549 0
M  V30 4351 C 411.743 4.39955 0.113143 0
M  V30 4352 H 408.862 0.726464 -0.124171 0
M  V30 4353 H 411.504 1.63034 -0.975699 0
M  V30 4354 H 409.654 3.88452 0.0610361 0
M  V30 4355 H 411.326 3.84518 -2.54841 0
M  V30 4356 H 409.569 3.57715 -2.45403 0
M  V30 4357 H 410.24 5.14587 -1.9976 0
M  V30 4358 H 412.716 4.14623 -0.35031 0
M  V30 4359 H 411.592 5.48897 -0.0180514 0
M  V30 4360 H 411.853 4.25403 1.20354 0
M  V30 4361 N 410.912 0.523116 1.48665 0
M  V30 4362 C 412.189 -0.0775449 1.95446 0
M  V30 4363 C 412.569 -1.5197 1.4652 0
M  V30 4364 O 411.917 -2.17876 0.688657 0
M  V30 4365 C 412.127 0.0326135 3.48985 0
M  V30 4366 C 413.475 -0.130141 4.24401 0
M  V30 4367 O 414.499 -0.0415142 3.56176 0
M  V30 4368 O 413.358 -0.31491 5.45592 0
M  V30 4369 H 410.452 -0.0831012 0.822814 0
M  V30 4370 H 412.998 0.587227 1.59216 0
M  V30 4371 H 411.77 1.03748 3.77296 0
M  V30 4372 H 411.393 -0.671317 3.91892 0
M  V30 4373 N 412.39 -1.55475 0.257931 0
M  V30 4374 C 413.3 -2.2549 -0.647425 0
M  V30 4375 C 414.316 -1.2748 -1.18427 0
M  V30 4376 O 415.492 -1.6038 -1.2182 0
M  V30 4377 C 412.557 -2.94916 -1.82278 0
M  V30 4378 C 411.618 -4.08363 -1.32432 0
M  V30 4379 C 410.851 -4.74469 -2.44366 0
M  V30 4380 O 411.074 -4.39701 -3.63344 0
M  V30 4381 O 410.008 -5.62763 -2.13497 0
M  V30 4382 H 413.834 -3.03593 -0.0807707 0
M  V30 4383 H 411.419 -1.49377 0.0259962 0
M  V30 4384 H 413.301 -3.38606 -2.50846 0
M  V30 4385 H 411.976 -2.19744 -2.37685 0
M  V30 4386 H 410.883 -3.69166 -0.605605 0
M  V30 4387 H 412.216 -4.85385 -0.816211 0
M  V30 4388 N 413.868 0.0150385 -1.57593 0
M  V30 4389 C 415.284 0.370907 -1.5523 0
M  V30 4390 C 415.484 1.75735 -0.985882 0
M  V30 4391 O 414.54 2.44944 -0.613077 0
M  V30 4392 C 415.853 0.259908 -2.99575 0
M  V30 4393 C 417.401 0.335959 -3.11192 0
M  V30 4394 C 417.876 0.254253 -4.57294 0
M  V30 4395 N 419.367 0.312618 -4.62144 0
M  V30 4396 C 420.102 0.272505 -5.72752 0
M  V30 4397 N 419.598 0.183864 -6.92556 0
M  V30 4398 N 421.391 0.323267 -5.6117 0
M  V30 4399 H 413.542 -0.892104 -1.92757 0
M  V30 4400 H 415.805 -0.340563 -0.884715 0
M  V30 4401 H 415.511 -0.693403 -3.44797 0
M  V30 4402 H 415.385 1.048 -3.62349 0
M  V30 4403 H 417.772 1.27971 -2.65909 0
M  V30 4404 H 417.853 -0.481739 -2.51223 0
M  V30 4405 H 417.497 -0.685887 -5.03247 0
M  V30 4406 H 417.427 1.09024 -5.15191 0
M  V30 4407 H 419.918 0.38307 -3.75953 0
M  V30 4408 H 420.231 0.15874 -7.72637 0
M  V30 4409 H 418.576 0.149708 -6.94839 0
M  V30 4410 H 421.767 0.390607 -4.66467 0
M  V30 4411 H 421.94 0.288539 -6.47357 0
M  V30 4412 N 415.346 1.54954 0.287554 0
M  V30 4413 C 416.293 1.86834 1.35505 0
M  V30 4414 C 417.263 0.718452 1.49758 0
M  V30 4415 O 418.448 0.968358 1.644 0
M  V30 4416 C 415.588 2.13303 2.71286 0
M  V30 4417 C 414.701 3.40883 2.65373 0
M  V30 4418 C 413.836 3.57125 3.93236 0
M  V30 4419 C 412.875 4.78449 3.81776 0
M  V30 4420 N 412.012 4.91426 5.01443 0
M  V30 4421 H 416.852 2.77889 1.07619 0
M  V30 4422 H 414.389 1.37593 0.520241 0
M  V30 4423 H 416.347 2.26646 3.50267 0
M  V30 4424 H 414.977 1.25499 2.97405 0
M  V30 4425 H 414.029 3.36088 1.78182 0
M  V30 4426 H 415.341 4.29993 2.52799 0
M  V30 4427 H 414.495 3.70207 4.80658 0
M  V30 4428 H 413.234 2.66173 4.0866 0
M  V30 4429 H 412.239 4.65386 2.92738 0
M  V30 4430 H 413.464 5.70822 3.67884 0
M  V30 4431 H 411.41 4.03401 5.17304 0
M  V30 4432 H 411.327 5.74559 4.91343 0
M  V30 4433 H 412.595 5.08879 5.90477 0
M  V30 4434 N 416.824 -0.551391 1.4764 0
M  V30 4435 C 417.757 -1.6738 1.5511 0
M  V30 4436 C 418.735 -1.5753 0.402856 0
M  V30 4437 O 419.919 -1.78307 0.611475 0
M  V30 4438 C 417.046 -3.05661 1.45908 0
M  V30 4439 C 416.092 -3.33938 2.65307 0
M  V30 4440 S 416.925 -3.22553 4.27457 0
M  V30 4441 C 418.081 -4.63317 4.20818 0
M  V30 4442 H 418.314 -1.6079 2.50068 0
M  V30 4443 H 415.847 -0.732674 1.35909 0
M  V30 4444 H 417.805 -3.8542 1.41286 0
M  V30 4445 H 416.466 -3.09711 0.523248 0
M  V30 4446 H 415.659 -4.34761 2.54948 0
M  V30 4447 H 415.261 -2.61809 2.67081 0
M  V30 4448 H 417.553 -5.54391 3.89431 0
M  V30 4449 H 418.496 -4.78732 5.21748 0
M  V30 4450 H 418.904 -4.41636 3.51593 0
M  V30 4451 N 418.302 -1.35869 -0.798587 0
M  V30 4452 C 419.265 -1.29307 -1.89242 0
M  V30 4453 C 420.265 -0.202747 -1.59517 0
M  V30 4454 O 421.455 -0.456957 -1.681 0
M  V30 4455 C 418.587 -1.00229 -3.25833 0
M  V30 4456 H 419.78 -2.26576 -1.96478 0
M  V30 4457 H 417.333 -1.20509 -0.995358 0
M  V30 4458 H 418.068 -0.033801 -3.24282 0
M  V30 4459 H 417.853 -1.79121 -3.48795 0
M  V30 4460 H 419.343 -0.98219 -4.05885 0
M  V30 4461 N 419.78 1.02168 -1.19998 0
M  V30 4462 C 420.71 2.12488 -0.96804 0
M  V30 4463 C 421.691 1.69799 0.101185 0
M  V30 4464 O 422.876 1.94121 -0.0552993 0
M  V30 4465 C 420.006 3.43479 -0.513776 0
M  V30 4466 C 418.96 3.99884 -1.52566 0
M  V30 4467 C 418.286 5.26582 -0.928214 0
M  V30 4468 C 419.586 4.33861 -2.90795 0
M  V30 4469 H 421.28 2.32149 -1.89069 0
M  V30 4470 H 418.826 1.11564 -0.910468 0
M  V30 4471 H 420.779 4.20036 -0.338774 0
M  V30 4472 H 419.503 3.23561 0.444493 0
M  V30 4473 H 418.162 3.25429 -1.68794 0
M  V30 4474 H 417.81 5.02986 0.0378289 0
M  V30 4475 H 417.51 5.65284 -1.60397 0
M  V30 4476 H 419.034 6.05799 -0.764167 0
M  V30 4477 H 420.448 5.01327 -2.78109 0
M  V30 4478 H 418.845 4.83664 -3.55231 0
M  V30 4479 H 419.915 3.42848 -3.42904 0
M  V30 4480 N 421.258 1.00505 1.21394 0
M  V30 4481 C 422.486 0.706609 1.9446 0
M  V30 4482 C 422.901 -0.73081 1.74082 0
M  V30 4483 O 422.258 -1.49446 1.04747 0
M  V30 4484 C 422.309 1.01824 3.46863 0
M  V30 4485 O 422.03 2.39919 3.66566 0
M  V30 4486 C 423.531 0.739216 4.37093 0
M  V30 4487 H 420.751 0.260394 0.618414 0
M  V30 4488 H 423.295 1.34311 1.54211 0
M  V30 4489 H 421.45 0.427343 3.85036 0
M  V30 4490 H 421.864 2.50784 4.6066 0
M  V30 4491 H 423.338 1.00744 5.42729 0
M  V30 4492 H 423.815 -0.326746 4.37983 0
M  V30 4493 H 424.421 1.31173 4.04566 0
M  V30 4494 N 422.737 -1.36956 0.779787 0
M  V30 4495 C 423.685 -2.32053 0.15942 0
M  V30 4496 C 424.679 -1.55333 -0.675878 0
M  V30 4497 O 425.885 -1.70668 -0.57204 0
M  V30 4498 H 422.26 -0.751286 0.0327707 0
M  V30 4499 H 424.231 -2.8195 0.977078 0
M  V30 4500 C 422.98 -3.40602 -0.698977 0
M  V30 4501 H 422.303 -3.99746 -0.0655966 0
M  V30 4502 H 423.743 -4.09486 -1.09989 0
M  V30 4503 C 422.202 -2.81359 -1.85307 0
M  V30 4504 O 422.732 -2.72751 -2.94906 0
M  V30 4505 N 420.938 -2.38786 -1.65619 0
M  V30 4506 H 420.485 -2.45987 -0.764725 0
M  V30 4507 H 420.443 -1.99493 -2.43002 0
M  V30 4508 N 424.215 -0.530993 -1.48385 0
M  V30 4509 C 425.163 0.244595 -2.3131 0
M  V30 4510 C 426.157 0.93451 -1.41291 0
M  V30 4511 O 427.363 0.85878 -1.58193 0
M  V30 4512 H 423.738 0.0977472 -0.74562 0
M  V30 4513 H 425.709 -0.474369 -2.94605 0
M  V30 4514 C 424.458 1.2779 -3.23365 0
M  V30 4515 H 423.781 0.756439 -3.92579 0
M  V30 4516 H 425.221 1.79198 -3.84271 0
M  V30 4517 C 423.68 2.31205 -2.45042 0
M  V30 4518 O 424.21 3.37661 -2.17596 0
M  V30 4519 N 422.416 2.04446 -2.0652 0
M  V30 4520 H 421.963 1.17891 -2.2904 0
M  V30 4521 H 421.921 2.73861 -1.54427 0
M  V30 4522 N 425.693 1.55336 -0.266172 0
M  V30 4523 C 426.941 1.99003 0.35246 0
M  V30 4524 C 427.262 1.15591 1.57047 0
M  V30 4525 O 426.532 0.243268 1.94384 0
M  V30 4526 H 425.112 0.735025 0.133217 0
M  V30 4527 H 427.774 1.91367 -0.369434 0
M  V30 4528 H 426.87 3.05289 0.648453 0
M  V30 4529 N 427.171 -0.0066808 1.57599 0
M  V30 4530 C 428.417 -0.693947 1.90558 0
M  V30 4531 C 428.75 -1.73792 0.866594 0
M  V30 4532 O 428.025 -1.94156 -0.115548 0
M  V30 4533 C 428.308 -1.34317 3.34112 0
M  V30 4534 C 428.161 -0.311189 4.48722 0
M  V30 4535 C 429.48 -2.27116 3.7697 0
M  V30 4536 H 426.599 -0.250803 0.693013 0
M  V30 4537 H 429.241 0.043242 1.89951 0
M  V30 4538 H 427.391 -1.9715 3.3476 0
M  V30 4539 H 429.063 0.316944 4.6021 0
M  V30 4540 H 427.306 0.367253 4.32243 0
M  V30 4541 H 427.977 -0.804366 5.46108 0
M  V30 4542 H 430.453 -1.74306 3.77831 0
M  V30 4543 H 429.329 -2.69511 4.78179 0
M  V30 4544 H 429.59 -3.14743 3.10466 0
M  V30 4545 N 428.649 -1.55105 -0.279332 0
M  V30 4546 C 429.896 -1.75412 -1.01177 0
M  V30 4547 C 430.224 -0.551728 -1.86511 0
M  V30 4548 O 429.479 0.465919 -1.90073 0
M  V30 4549 C 429.778 -3.0086 -1.92919 0
M  V30 4550 C 429.444 -4.33689 -1.23387 0
M  V30 4551 C 428.106 -4.69792 -1.04159 0
M  V30 4552 C 430.458 -5.15941 -0.738562 0
M  V30 4553 C 427.786 -5.85707 -0.341166 0
M  V30 4554 C 430.138 -6.32579 -0.0517636 0
M  V30 4555 C 428.802 -6.67326 0.152292 0
M  V30 4556 H 428.072 -0.641879 -0.370233 0
M  V30 4557 H 430.719 -1.89373 -0.284627 0
M  V30 4558 H 429.024 -2.81773 -2.72234 0
M  V30 4559 H 430.721 -3.13768 -2.49701 0
M  V30 4560 H 427.311 -4.05309 -1.39364 0
M  V30 4561 H 431.495 -4.8853 -0.874764 0
M  V30 4562 H 426.751 -6.11157 -0.172287 0
M  V30 4563 H 430.925 -6.9557 0.339828 0
M  V30 4564 H 428.552 -7.56998 0.697014 0
M  V30 4565 N 430.127 0.543554 -1.4793 0
M  V30 4566 C 431.352 1.32995 -1.59145 0
M  V30 4567 C 431.777 1.86472 -0.246956 0
M  V30 4568 O 431.135 1.63696 0.779324 0
M  V30 4569 C 431.183 2.46623 -2.63077 0
M  V30 4570 O 430.287 3.49261 -2.19295 0
M  V30 4571 H 429.628 0.394472 -0.534124 0
M  V30 4572 H 432.158 0.655489 -1.93816 0
M  V30 4573 H 432.168 2.93001 -2.83926 0
M  V30 4574 H 430.843 2.07059 -3.60693 0
M  V30 4575 H 429.42 3.09094 -2.08603 0
M  V30 4576 N 431.605 1.3629 0.791371 0
M  V30 4577 C 432.555 1.26988 1.89362 0
M  V30 4578 C 433.539 0.161795 1.60084 0
M  V30 4579 O 434.731 0.394426 1.72549 0
M  V30 4580 C 431.86 1.05944 3.26544 0
M  V30 4581 C 430.946 2.21211 3.61838 0
M  V30 4582 N 431.337 3.46518 3.68455 0
M  V30 4583 C 429.635 2.12933 3.91887 0
M  V30 4584 C 430.336 4.2241 3.99931 0
M  V30 4585 N 429.312 3.51329 4.14812 0
M  V30 4586 H 433.114 2.21908 1.92702 0
M  V30 4587 H 430.628 1.28982 0.986787 0
M  V30 4588 H 432.625 0.973666 4.05371 0
M  V30 4589 H 431.285 0.119223 3.24481 0
M  V30 4590 H 432.296 3.80677 3.51148 0
M  V30 4591 H 428.973 1.26855 3.97761 0
M  V30 4592 H 430.363 5.30767 4.1199 0
M  V30 4593 N 433.083 -1.0153 1.20538 0
M  V30 4594 C 434.323 -1.76689 1.02763 0
M  V30 4595 C 434.687 -1.87065 -0.432513 0
M  V30 4596 O 435.888 -2.58684 -0.730481 0
M  V30 4597 C 434.159 -3.14707 1.69393 0
M  V30 4598 S 435.718 -4.05886 1.66738 0
M  V30 4599 H 432.536 -0.608076 0.368463 0
M  V30 4600 H 435.138 -1.21558 1.53114 0
M  V30 4601 H 433.842 -3.04782 2.74838 0
M  V30 4602 H 433.373 -3.74913 1.19179 0
M  V30 4603 H 435.388 -4.91221 0.70117 0
M  V30 4604 N 434.561 -1.01147 -1.20859 0
M  V30 4605 C 435.491 -0.597663 -2.25722 0
M  V30 4606 C 436.472 0.384744 -1.65692 0
M  V30 4607 O 437.657 0.271303 -1.92296 0
M  V30 4608 C 434.787 0.0700149 -3.47229 0
M  V30 4609 C 433.741 -0.832843 -4.19819 0
M  V30 4610 C 433.067 -0.0312202 -5.34691 0
M  V30 4611 C 434.367 -2.1385 -4.76514 0
M  V30 4612 H 436.061 -1.47423 -2.60589 0
M  V30 4613 H 433.607 -0.710301 -1.25263 0
M  V30 4614 H 435.56 0.37103 -4.19763 0
M  V30 4615 H 434.284 0.981259 -3.11511 0
M  V30 4616 H 432.943 -1.11778 -3.49144 0
M  V30 4617 H 432.591 0.881515 -4.95215 0
M  V30 4618 H 432.291 -0.632434 -5.84187 0
M  V30 4619 H 433.815 0.26346 -6.10031 0
M  V30 4620 H 435.229 -1.9002 -5.40893 0
M  V30 4621 H 433.626 -2.69012 -5.36426 0
M  V30 4622 H 434.696 -2.80495 -3.95538 0
M  V30 4623 N 436.039 1.36541 -0.78704 0
M  V30 4624 C 437.45 1.81873 -0.421807 0
M  V30 4625 C 437.801 1.65487 1.05397 0
M  V30 4626 O 436.926 1.17448 1.81755 0
M  V30 4627 C 437.521 3.30192 -0.758841 0
M  V30 4628 C 436.08 3.73743 -0.446468 0
M  V30 4629 C 435.227 2.58844 -0.994728 0
M  V30 4630 H 438.178 1.24796 -0.98039 0
M  V30 4631 H 438.199 3.80468 -0.0490648 0
M  V30 4632 H 437.711 3.42087 -1.83299 0
M  V30 4633 H 435.812 3.6741 0.619739 0
M  V30 4634 H 435.925 4.69272 -0.965415 0
M  V30 4635 H 434.289 2.51245 -0.418087 0
M  V30 4636 H 435.072 2.73525 -2.07458 0
M  V30 4637 N 437.518 0.538854 1.48102 0
M  V30 4638 C 438.448 -0.207654 2.32575 0
M  V30 4639 C 439.429 -0.926559 1.4265 0
M  V30 4640 O 440.614 -0.91061 1.71527 0
M  V30 4641 C 437.744 -1.24957 3.24042 0
M  V30 4642 C 436.698 -0.648263 4.23062 0
M  V30 4643 C 436.024 -1.79348 5.03725 0
M  V30 4644 C 437.324 0.385897 5.20872 0
M  V30 4645 H 439.018 0.497534 2.95237 0
M  V30 4646 H 436.564 0.240715 1.41974 0
M  V30 4647 H 438.517 -1.77983 3.81969 0
M  V30 4648 H 437.241 -1.98446 2.59397 0
M  V30 4649 H 435.9 -0.139452 3.66335 0
M  V30 4650 H 435.548 -2.51696 4.35498 0
M  V30 4651 H 435.248 -1.39702 5.70751 0
M  V30 4652 H 436.772 -2.32735 5.64506 0
M  V30 4653 H 438.186 -0.057607 5.73271 0
M  V30 4654 H 436.583 0.700227 5.96001 0
M  V30 4655 H 437.653 1.28848 4.67468 0
M  V30 4656 N 438.996 -1.55193 0.274407 0
M  V30 4657 C 440.412 -1.59401 -0.0797543 0
M  V30 4658 C 440.612 -1.29162 -1.54659 0
M  V30 4659 O 439.668 -1.05215 -2.29534 0
M  V30 4660 C 440.981 -2.99257 0.294238 0
M  V30 4661 C 442.529 -3.12072 0.240796 0
M  V30 4662 C 443.004 -4.54194 0.589218 0
M  V30 4663 N 444.495 -4.60033 0.540744 0
M  V30 4664 C 445.23 -5.68027 0.783147 0
M  V30 4665 N 444.726 -6.8417 1.09013 0
M  V30 4666 N 446.519 -5.57572 0.711993 0
M  V30 4667 H 438.67 -1.73113 1.23067 0
M  V30 4668 H 440.933 -0.807197 0.497129 0
M  V30 4669 H 440.639 -3.26217 1.31435 0
M  V30 4670 H 440.513 -3.75427 -0.365281 0
M  V30 4671 H 442.9 -2.84877 -0.770024 0
M  V30 4672 H 442.981 -2.38117 0.934563 0
M  V30 4673 H 442.625 -4.82115 1.59772 0
M  V30 4674 H 442.555 -5.26448 -0.126331 0
M  V30 4675 H 445.046 -3.76599 0.313327 0
M  V30 4676 H 445.359 -7.6243 1.26178 0
M  V30 4677 H 443.704 -6.85787 1.12789 0
M  V30 4678 H 446.895 -4.65714 0.472014 0
M  V30 4679 H 447.068 -6.41659 0.90429 0
M  V30 4680 N 440.474 -0.00167713 -1.576 0
M  V30 4681 C 441.89 0.354422 -1.55615 0
M  V30 4682 C 442.09 1.74679 -1.00447 0
M  V30 4683 O 441.146 2.4428 -0.639022 0
M  V30 4684 C 442.459 0.22812 -2.99833 0
M  V30 4685 C 444.007 0.302934 -3.11531 0
M  V30 4686 C 444.482 0.205737 -4.57538 0
M  V30 4687 N 445.973 0.263584 -4.62449 0
M  V30 4688 C 446.708 0.211742 -5.73009 0
M  V30 4689 N 446.204 0.110399 -6.92712 0
M  V30 4690 N 447.997 0.263729 -5.61481 0
M  V30 4691 H 440.148 -0.912498 -1.918 0
M  V30 4692 H 442.411 -0.349928 -0.881053 0
M  V30 4693 H 442.117 -0.729934 -3.44042 0
M  V30 4694 H 441.991 1.00951 -3.6344 0
M  V30 4695 H 444.378 1.25143 -2.67251 0
M  V30 4696 H 444.459 -0.508357 -2.50698 0
M  V30 4697 H 444.103 -0.739225 -5.02492 0
M  V30 4698 H 444.033 1.03554 -5.16318 0
M  V30 4699 H 446.524 0.343173 -3.76339 0
M  V30 4700 H 446.837 0.0767828 -7.72762 0
M  V30 4701 H 445.182 0.0760025 -6.94958 0
M  V30 4702 H 448.373 0.34111 -4.66855 0
M  V30 4703 H 448.546 0.219862 -6.47627 0
M  V30 4704 N 441.952 1.55251 0.271103 0
M  V30 4705 C 442.9 1.89054 1.35504 0
M  V30 4706 C 443.894 0.767064 1.51038 0
M  V30 4707 O 445.1 0.951429 1.528 0
M  V30 4708 H 441.475 0.600072 0.45323 0
M  V30 4709 H 443.446 2.79598 1.04247 0
M  V30 4710 C 442.195 2.18068 2.70817 0
M  V30 4711 H 441.518 3.04005 2.59656 0
M  V30 4712 H 442.958 2.4564 3.45597 0
M  V30 4713 C 441.417 0.988901 3.2206 0
M  V30 4714 O 441.947 0.224501 4.01072 0
M  V30 4715 N 440.153 0.786085 2.79766 0
M  V30 4716 H 439.7 1.40937 2.15626 0
M  V30 4717 H 439.658 -0.00969349 3.14399 0
M  V30 4718 N 443.43 -0.535701 1.48216 0
M  V30 4719 C 444.676 -1.29375 1.56173 0
M  V30 4720 C 445.009 -1.92804 0.232429 0
M  V30 4721 O 444.284 -1.78992 -0.761048 0
M  V30 4722 C 444.567 -2.38747 2.69577 0
M  V30 4723 C 444.42 -1.80046 4.12193 0
M  V30 4724 C 445.739 -3.40551 2.78771 0
M  V30 4725 H 442.858 -0.469027 0.568491 0
M  V30 4726 H 445.5 -0.597358 1.80365 0
M  V30 4727 H 443.65 -2.98147 2.4908 0
M  V30 4728 H 445.322 -1.24742 4.44114 0
M  V30 4729 H 443.565 -1.10609 4.19462 0
M  V30 4730 H 444.236 -2.59212 4.87353 0
M  V30 4731 H 446.712 -2.91099 2.97322 0
M  V30 4732 H 445.588 -4.1448 3.59857 0
M  V30 4733 H 445.849 -4.00746 1.86696 0
M  V30 4734 N 444.908 -1.36708 -0.784132 0
M  V30 4735 C 445.855 -1.31466 -1.89698 0
M  V30 4736 C 446.825 -0.18239 -1.65096 0
M  V30 4737 O 448.01 -0.369762 -1.87183 0
M  V30 4738 C 445.15 -1.1151 -3.26588 0
M  V30 4739 C 444.263 -2.33859 -3.63227 0
M  V30 4740 C 443.398 -2.06873 -4.89262 0
M  V30 4741 C 442.437 -3.25154 -5.18595 0
M  V30 4742 N 441.574 -2.978 -6.35814 0
M  V30 4743 H 446.414 -2.26619 -1.93515 0
M  V30 4744 H 443.951 -1.12625 -0.946256 0
M  V30 4745 H 445.909 -0.979653 -4.05535 0
M  V30 4746 H 444.539 -0.200103 -3.22179 0
M  V30 4747 H 443.591 -2.58188 -2.79362 0
M  V30 4748 H 444.903 -3.22109 -3.8085 0
M  V30 4749 H 444.057 -1.90289 -5.76086 0
M  V30 4750 H 442.796 -1.15942 -4.73718 0
M  V30 4751 H 441.801 -3.42292 -4.30251 0
M  V30 4752 H 443.026 -4.1692 -5.36055 0
M  V30 4753 H 440.972 -2.09485 -6.21653 0
M  V30 4754 H 440.889 -3.7959 -6.53794 0
M  V30 4755 H 442.157 -2.84805 -7.25607 0
M  V30 4756 N 446.386 1.0089 -1.21074 0
M  V30 4757 C 447.349 2.0775 -0.968129 0
M  V30 4758 C 448.349 1.6069 0.0593445 0
M  V30 4759 O 449.539 1.73293 -0.177525 0
M  V30 4760 C 446.671 3.37794 -0.459108 0
M  V30 4761 H 447.864 2.30707 -1.9161 0
M  V30 4762 H 445.417 1.17807 -1.02719 0
M  V30 4763 H 446.152 3.20516 0.49397 0
M  V30 4764 H 445.937 3.7328 -1.20019 0
M  V30 4765 H 447.427 4.16454 -0.309099 0
M  V30 4766 N 447.864 1.01787 1.20321 0
M  V30 4767 C 449.092 0.727194 1.937 0
M  V30 4768 C 449.507 -0.712305 1.74848 0
M  V30 4769 O 448.864 -1.48327 1.06327 0
M  V30 4770 C 448.915 1.05497 3.45764 0
M  V30 4771 O 448.636 2.43794 3.64 0
M  V30 4772 C 450.137 0.785534 4.36285 0
M  V30 4773 H 447.357 0.266939 0.615617 0
M  V30 4774 H 449.901 1.35939 1.52777 0
M  V30 4775 H 448.056 0.468158 3.84561 0
M  V30 4776 H 448.47 2.55656 4.57974 0
M  V30 4777 H 449.944 1.06495 5.4163 0
M  V30 4778 H 450.421 -0.280273 4.38305 0
M  V30 4779 H 451.027 1.35456 4.03152 0
M  V30 4780 N 449.342 -1.36122 0.79427 0
M  V30 4781 C 450.619 -1.93398 0.292685 0
M  V30 4782 C 450.999 -1.72567 -1.21589 0
M  V30 4783 O 450.347 -1.08745 -2.00965 0
M  V30 4784 C 450.557 -3.42099 0.690614 0
M  V30 4785 C 451.905 -4.19231 0.673105 0
M  V30 4786 O 452.929 -3.50559 0.631389 0
M  V30 4787 O 451.788 -5.41732 0.720362 0
M  V30 4788 H 448.882 -0.823712 0.0736693 0
M  V30 4789 H 451.428 -1.45273 0.87714 0
M  V30 4790 H 450.2 -3.50938 1.73085 0
M  V30 4791 H 449.823 -3.97519 0.0803036 0
M  V30 4792 N 450.82 -0.546701 -1.47814 0
M  V30 4793 C 451.783 0.196287 -2.28358 0
M  V30 4794 C 452.783 0.852437 -1.36346 0
M  V30 4795 O 453.973 0.709913 -1.59078 0
M  V30 4796 C 451.105 1.28579 -3.15722 0
M  V30 4797 H 452.298 -0.511086 -2.95513 0
M  V30 4798 H 449.851 -0.303248 -1.5333 0
M  V30 4799 H 450.586 2.0259 -2.53235 0
M  V30 4800 H 450.371 0.820229 -3.83425 0
M  V30 4801 H 451.861 1.80793 -3.76435 0
M  V30 4802 N 452.299 1.55045 -0.282633 0
M  V30 4803 C 453.545 2.00056 0.332481 0
M  V30 4804 C 453.878 1.1708 1.54939 0
M  V30 4805 O 453.153 0.2427 1.9298 0
M  V30 4806 C 453.436 3.53086 0.70725 0
M  V30 4807 C 453.289 4.46813 -0.517521 0
M  V30 4808 C 454.608 4.12245 1.54084 0
M  V30 4809 H 451.727 0.727268 0.119373 0
M  V30 4810 H 454.369 1.85932 -0.391076 0
M  V30 4811 H 452.519 3.65253 1.32372 0
M  V30 4812 H 454.191 4.46579 -1.15607 0
M  V30 4813 H 452.434 4.18163 -1.1542 0
M  V30 4814 H 453.105 5.51595 -0.211426 0
M  V30 4815 H 455.581 4.03401 1.02013 0
M  V30 4816 H 454.457 5.19515 1.77186 0
M  V30 4817 H 454.718 3.62951 2.52427 0
M  V30 4818 N 453.777 0.010035 1.57597 0
M  V30 4819 C 454.71 -1.01234 2.04516 0
M  V30 4820 C 455.688 -1.32886 0.937024 0
M  V30 4821 O 456.872 -1.44879 1.20592 0
M  V30 4822 C 453.999 -2.33738 2.45121 0
M  V30 4823 C 453.045 -2.17679 3.66767 0
M  V30 4824 S 453.878 -1.49343 5.14254 0
M  V30 4825 C 455.034 -2.83256 5.58137 0
M  V30 4826 H 455.267 -0.612866 2.90914 0
M  V30 4827 H 452.8 -0.201124 1.53084 0
M  V30 4828 H 454.758 -3.09922 2.69182 0
M  V30 4829 H 453.419 -2.70823 1.59103 0
M  V30 4830 H 452.612 -3.1559 3.92962 0
M  V30 4831 H 452.214 -1.4964 3.42759 0
M  V30 4832 H 454.506 -3.79538 5.6121 0
M  V30 4833 H 455.449 -2.61749 6.57946 0
M  V30 4834 H 455.857 -2.87627 4.85727 0
M  V30 4835 N 455.255 -1.55392 -0.262866 0
M  V30 4836 C 456.532 -1.67204 -1.01499 0
M  V30 4837 C 456.912 -0.545186 -2.03939 0
M  V30 4838 O 456.26 0.453467 -2.23955 0
M  V30 4839 C 456.47 -3.06847 -1.6627 0
M  V30 4840 C 457.818 -3.64928 -2.17054 0
M  V30 4841 O 458.842 -3.09545 -1.76239 0
M  V30 4842 O 457.701 -4.61984 -2.91947 0
M  V30 4843 H 454.795 -0.679467 -0.471438 0
M  V30 4844 H 457.341 -1.67729 -0.257918 0
M  V30 4845 H 456.113 -3.80309 -0.920915 0
M  V30 4846 H 455.736 -3.10266 -2.48638 0
M  V30 4847 N 456.733 0.527833 -1.48498 0
M  V30 4848 C 457.958 1.313 -1.60546 0
M  V30 4849 C 458.383 1.86199 -0.26672 0
M  V30 4850 O 457.741 1.64513 0.761918 0
M  V30 4851 C 457.789 2.43818 -2.65678 0
M  V30 4852 O 456.893 3.46916 -2.22987 0
M  V30 4853 H 456.234 0.388784 -0.538277 0
M  V30 4854 H 458.764 0.634896 -1.945 0
M  V30 4855 H 458.774 2.89973 -2.87018 0
M  V30 4856 H 457.449 2.03222 -3.62869 0
M  V30 4857 H 456.026 3.06864 -2.11869 0
M  V30 4858 N 458.211 1.37122 0.776871 0
M  V30 4859 C 459.622 1.28667 1.35284 0
M  V30 4860 C 459.973 -0.0680035 1.96082 0
M  V30 4861 O 459.098 -0.969743 1.93455 0
M  V30 4862 C 459.693 2.32997 2.45963 0
M  V30 4863 C 458.252 2.28191 2.99342 0
M  V30 4864 C 457.399 2.17101 1.72517 0
M  V30 4865 H 460.35 1.47819 0.577527 0
M  V30 4866 H 460.371 1.97366 3.2531 0
M  V30 4867 H 459.883 3.3158 2.01684 0
M  V30 4868 H 457.984 1.33115 3.4801 0
M  V30 4869 H 458.097 3.21397 3.55304 0
M  V30 4870 H 456.461 1.63562 1.95242 0
M  V30 4871 H 457.244 3.17591 1.30348 0
M  V30 4872 N 459.689 -1.00246 1.21608 0
M  V30 4873 C 460.637 -2.11193 0.97469 0
M  V30 4874 C 461.631 -1.69216 -0.0789303 0
M  V30 4875 O 462.837 -1.79853 0.0726806 0
M  V30 4876 H 459.212 -0.690455 0.297953 0
M  V30 4877 H 461.183 -2.2873 1.91638 0
M  V30 4878 C 459.932 -3.43182 0.558717 0
M  V30 4879 H 459.255 -3.75918 1.3611 0
M  V30 4880 H 460.695 -4.21823 0.429154 0
M  V30 4881 C 459.154 -3.28882 -0.730648 0
M  V30 4882 O 459.684 -3.59835 -1.78554 0
M  V30 4883 N 457.89 -2.8209 -0.698131 0
M  V30 4884 H 457.437 -2.57099 0.16061 0
M  V30 4885 H 457.395 -2.72903 -1.56113 0
M  V30 4886 N 461.167 -1.02423 -1.1978 0
M  V30 4887 C 462.407 -0.726635 -1.91048 0
M  V30 4888 C 462.771 0.730947 -1.77542 0
M  V30 4889 O 463.972 1.14141 -2.43362 0
M  V30 4890 C 462.243 -1.15964 -3.38064 0
M  V30 4891 S 463.802 -0.985172 -4.27598 0
M  V30 4892 H 460.62 -0.264679 -0.659899 0
M  V30 4893 H 463.222 -1.31309 -1.44838 0
M  V30 4894 H 461.926 -2.21619 -3.45417 0
M  V30 4895 H 461.457 -0.566274 -3.89303 0
M  V30 4896 H 463.472 0.106946 -4.96085 0
M  V30 4897 N 462.645 1.35699 -0.801477 0
M  V30 4898 C 463.894 1.98165 -0.375979 0
M  V30 4899 C 464.207 1.64306 1.06127 0
M  V30 4900 O 465.413 2.20097 1.58964 0
M  V30 4901 C 463.869 3.54497 -0.621305 0
M  V30 4902 C 463.477 3.9727 -2.07076 0
M  V30 4903 C 465.221 4.23697 -0.26091 0
M  V30 4904 C 463.128 5.46427 -2.26211 0
M  V30 4905 H 462.058 0.741478 -0.136844 0
M  V30 4906 H 464.709 1.54834 -0.984814 0
M  V30 4907 H 463.091 3.95958 0.0574112 0
M  V30 4908 H 464.265 3.66974 -2.78687 0
M  V30 4909 H 462.58 3.40943 -2.39054 0
M  V30 4910 H 465.177 5.33334 -0.381994 0
M  V30 4911 H 465.52 4.0869 0.792344 0
M  V30 4912 H 466.053 3.87639 -0.893339 0
M  V30 4913 H 462.792 5.66396 -3.29963 0
M  V30 4914 H 462.312 5.78309 -1.59119 0
M  V30 4915 H 463.991 6.12819 -2.07513 0
M  V30 4916 N 464.123 0.554532 1.47522 0
M  V30 4917 C 465.086 -0.184174 2.28459 0
M  V30 4918 C 466.086 -0.845195 1.36796 0
M  V30 4919 O 467.276 -0.701467 1.59452 0
M  V30 4920 C 464.408 -1.26903 3.16399 0
M  V30 4921 H 465.601 0.526751 2.95238 0
M  V30 4922 H 463.154 0.311375 1.53167 0
M  V30 4923 H 463.889 -2.01244 2.54306 0
M  V30 4924 H 463.674 -0.799883 3.83854 0
M  V30 4925 H 465.164 -1.78794 3.77389 0
M  V30 4926 N 465.601 -1.54893 0.290851 0
M  V30 4927 C 466.85 -1.99111 -0.322113 0
M  V30 4928 C 467.163 -1.18283 -1.55784 0
M  V30 4929 O 468.369 -1.5272 -2.24475 0
M  V30 4930 C 466.825 -3.54442 -0.624438 0
M  V30 4931 C 466.433 -4.44066 0.592373 0
M  V30 4932 C 468.177 -4.07211 -1.19916 0
M  V30 4933 C 466.084 -5.90812 0.263762 0
M  V30 4934 H 465.014 -0.743712 -0.124133 0
M  V30 4935 H 467.665 -1.79132 0.39797 0
M  V30 4936 H 466.047 -3.70281 -1.40384 0
M  V30 4937 H 467.221 -4.39999 1.36886 0
M  V30 4938 H 465.536 -4.02015 1.08502 0
M  V30 4939 H 468.133 -5.14407 -1.45909 0
M  V30 4940 H 468.476 -3.57196 -2.13815 0
M  V30 4941 H 469.009 -3.94873 -0.481687 0
M  V30 4942 H 465.748 -6.44955 1.17105 0
M  V30 4943 H 465.268 -5.97911 -0.475655 0
M  V30 4944 H 466.947 -6.46852 -0.138354 0
M  V30 4945 N 467.08 -0.0183926 -1.57589 0
M  V30 4946 C 468.357 0.700621 -1.82622 0
M  V30 4947 C 468.737 1.90951 -0.90005 0
M  V30 4948 O 468.085 2.28452 0.0469145 0
M  V30 4949 C 468.295 1.08899 -3.31575 0
M  V30 4950 C 469.643 1.48514 -3.9778 0
M  V30 4951 O 470.667 1.18227 -3.36007 0
M  V30 4952 O 469.526 2.04903 -5.06633 0
M  V30 4953 H 466.62 0.342743 -0.752633 0
M  V30 4954 H 469.166 -0.0452548 -1.6964 0
M  V30 4955 H 467.938 0.228113 -3.90635 0
M  V30 4956 H 467.561 1.89338 -3.49624 0
M  V30 4957 N 468.558 1.5553 0.254621 0
M  V30 4958 C 469.468 1.92789 1.33677 0
M  V30 4959 C 470.484 0.827356 1.53071 0
M  V30 4960 O 471.66 1.12807 1.66843 0
M  V30 4961 C 468.725 2.20827 2.67275 0
M  V30 4962 C 467.786 3.4427 2.5647 0
M  V30 4963 C 467.019 3.70961 3.83697 0
M  V30 4964 O 467.242 2.99852 4.85227 0
M  V30 4965 O 466.176 4.64491 3.82794 0
M  V30 4966 H 470.002 2.84945 1.05071 0
M  V30 4967 H 467.587 1.42312 0.454723 0
M  V30 4968 H 469.469 2.40204 3.46237 0
M  V30 4969 H 468.144 1.31851 2.9563 0
M  V30 4970 H 467.051 3.30209 1.75821 0
M  V30 4971 H 468.384 4.33524 2.33062 0
M  V30 4972 N 470.036 -0.519951 1.48776 0
M  V30 4973 C 470.999 -1.60574 1.6355 0
M  V30 4974 C 471.999 -1.52557 0.508234 0
M  V30 4975 O 473.189 -1.56047 0.774262 0
M  V30 4976 C 470.321 -3.00211 1.61512 0
M  V30 4977 H 471.514 -1.4881 2.60376 0
M  V30 4978 H 469.067 -0.742772 1.37523 0
M  V30 4979 H 469.802 -3.17471 0.662009 0
M  V30 4980 H 469.587 -3.07439 2.43359 0
M  V30 4981 H 471.077 -3.79134 1.75064 0
M  V30 4982 N 471.514 -1.37532 -0.769588 0
M  V30 4983 C 472.424 -1.35668 -1.91393 0
M  V30 4984 C 473.44 -0.255954 -1.72107 0
M  V30 4985 O 474.616 -0.491704 -1.95305 0
M  V30 4986 C 471.681 -1.16481 -3.26547 0
M  V30 4987 C 470.742 -2.36212 -3.58472 0
M  V30 4988 C 469.975 -2.17932 -4.87177 0
M  V30 4989 O 470.198 -1.1647 -5.58382 0
M  V30 4990 O 469.132 -3.06167 -5.18214 0
M  V30 4991 H 472.958 -2.32055 -1.95918 0
M  V30 4992 H 470.543 -1.18284 -0.912641 0
M  V30 4993 H 472.425 -1.07778 -4.07384 0
M  V30 4994 H 471.1 -0.231687 -3.2287 0
M  V30 4995 H 470.007 -2.50488 -2.77861 0
M  V30 4996 H 471.34 -3.281 -3.66894 0
M  V30 4997 N 472.992 0.995999 -1.22138 0
M  V30 4998 C 473.94 2.10673 -0.985876 0
M  V30 4999 C 474.934 1.69255 0.0699553 0
M  V30 5000 O 476.14 1.79812 -0.0822176 0
M  V30 5001 H 472.515 0.688865 -0.30161 0
M  V30 5002 H 474.486 2.27711 -1.92848 0
M  V30 5003 C 473.235 3.42881 -0.576909 0
M  V30 5004 H 472.558 3.75191 -1.38101 0
M  V30 5005 H 473.998 4.21589 -0.451518 0
M  V30 5006 C 472.457 3.29265 0.713196 0
M  V30 5007 O 472.987 3.60777 1.76643 0
M  V30 5008 N 471.193 2.82456 0.683162 0
M  V30 5009 H 470.74 2.5701 -0.174242 0
M  V30 5010 H 470.698 2.73727 1.54663 0
M  V30 5011 N 474.47 1.03057 1.19235 0
M  V30 5012 C 475.886 0.747947 1.40989 0
M  V30 5013 C 476.086 -0.666752 1.90149 0
M  V30 5014 O 475.142 -1.43249 2.07933 0
M  V30 5015 C 476.455 1.7855 2.41951 0
M  V30 5016 C 478.003 1.80524 2.55695 0
M  V30 5017 C 478.478 2.83243 3.59913 0
M  V30 5018 N 479.969 2.8207 3.67411 0
M  V30 5019 C 480.704 3.58204 4.47747 0
M  V30 5020 N 480.2 4.44057 5.31775 0
M  V30 5021 N 481.993 3.46738 4.42413 0
M  V30 5022 H 474.144 1.94367 0.856468 0
M  V30 5023 H 476.407 0.840412 0.438647 0
M  V30 5024 H 476.113 2.79973 2.12857 0
M  V30 5025 H 475.987 1.6092 3.41152 0
M  V30 5026 H 478.374 0.79778 2.84112 0
M  V30 5027 H 478.455 2.02229 1.56643 0
M  V30 5028 H 478.099 3.84161 3.32239 0
M  V30 5029 H 478.029 2.58795 4.5862 0
M  V30 5030 H 480.52 2.19803 3.074 0
M  V30 5031 H 480.833 4.98884 5.90199 0
M  V30 5032 H 479.178 4.48129 5.3123 0
M  V30 5033 H 482.369 2.79077 3.75811 0
M  V30 5034 H 482.542 4.06322 5.04783 0
M  V30 5035 N 475.948 -1.35272 0.808662 0
M  V30 5036 C 476.878 -2.32315 0.234981 0
M  V30 5037 C 477.859 -1.57572 -0.64071 0
M  V30 5038 O 479.044 -1.8563 -0.570551 0
M  V30 5039 C 476.174 -3.41801 -0.615601 0
M  V30 5040 C 475.128 -4.27694 0.161767 0
M  V30 5041 C 474.454 -5.28519 -0.810649 0
M  V30 5042 C 475.754 -5.04231 1.36193 0
M  V30 5043 H 477.448 -2.80543 1.04575 0
M  V30 5044 H 474.994 -1.3488 0.504315 0
M  V30 5045 H 476.947 -4.08693 -1.02702 0
M  V30 5046 H 475.671 -2.92186 -1.45928 0
M  V30 5047 H 474.33 -3.62384 0.554382 0
M  V30 5048 H 473.978 -4.75171 -1.64988 0
M  V30 5049 H 473.678 -5.8686 -0.294822 0
M  V30 5050 H 475.202 -5.98283 -1.22023 0
M  V30 5051 H 476.616 -5.64058 1.02528 0
M  V30 5052 H 475.013 -5.72077 1.81239 0
M  V30 5053 H 476.083 -4.34753 2.14751 0
M  V30 5054 N 477.426 -0.562348 -1.47226 0
M  V30 5055 C 478.376 0.202967 -2.27095 0
M  V30 5056 C 479.36 0.880611 -1.34663 0
M  V30 5057 O 480.552 0.778069 -1.58981 0
M  V30 5058 C 477.681 1.22906 -3.20545 0
M  V30 5059 C 476.767 0.554566 -4.20459 0
M  V30 5060 N 477.158 -0.378295 -5.04383 0
M  V30 5061 C 475.456 0.807854 -4.38623 0
M  V30 5062 C 476.157 -0.770583 -5.76573 0
M  V30 5063 N 475.133 -0.124263 -5.43458 0
M  V30 5064 H 478.935 -0.514196 -2.89367 0
M  V30 5065 H 476.449 -0.382655 -1.57827 0
M  V30 5066 H 478.446 1.79134 -3.76453 0
M  V30 5067 H 477.106 1.94726 -2.59831 0
M  V30 5068 H 478.117 -0.75274 -5.124 0
M  V30 5069 H 474.794 1.51418 -3.89075 0
M  V30 5070 H 476.184 -1.53742 -6.54074 0
M  V30 5071 N 478.904 1.54736 -0.299062 0
M  V30 5072 C 480.15 2.00397 0.311244 0
M  V30 5073 C 480.483 1.18716 1.53688 0
M  V30 5074 O 479.758 0.263154 1.92712 0
M  V30 5075 C 480.041 3.53817 0.669761 0
M  V30 5076 C 479.894 4.46239 -0.564882 0
M  V30 5077 C 481.213 4.13856 1.49702 0
M  V30 5078 H 478.332 0.728493 0.111653 0
M  V30 5079 H 480.974 1.85506 -0.410774 0
M  V30 5080 H 479.124 3.66637 1.28491 0
M  V30 5081 H 480.796 4.45328 -1.20337 0
M  V30 5082 H 479.039 4.16916 -1.19849 0
M  V30 5083 H 479.71 5.5134 -0.269918 0
M  V30 5084 H 482.186 4.04461 0.977284 0
M  V30 5085 H 481.062 5.21365 1.71666 0
M  V30 5086 H 481.323 3.65608 2.48563 0
M  V30 5087 N 480.382 0.0267497 1.57577 0
M  V30 5088 C 481.314 -0.984594 2.06974 0
M  V30 5089 C 482.327 -1.29032 0.992705 0
M  V30 5090 O 483.516 -1.25539 1.26895 0
M  V30 5091 C 480.616 -2.31262 2.47732 0
M  V30 5092 C 479.789 -2.1924 3.78487 0
M  V30 5093 C 478.848 -3.34956 4.05821 0
M  V30 5094 O 477.874 -3.11948 4.76106 0
M  V30 5095 N 479.076 -4.58672 3.55809 0
M  V30 5096 H 481.841 -0.563143 2.94362 0
M  V30 5097 H 479.402 -0.160061 1.61107 0
M  V30 5098 H 481.394 -3.07496 2.63112 0
M  V30 5099 H 479.964 -2.65056 1.65723 0
M  V30 5100 H 479.184 -1.27747 3.72927 0
M  V30 5101 H 480.472 -2.08409 4.64158 0
M  V30 5102 H 479.87 -4.8026 2.98942 0
M  V30 5103 H 478.427 -5.32083 3.76472 0
M  V30 5104 N 481.861 -1.55662 -0.24637 0
M  V30 5105 C 482.808 -1.90361 -1.30504 0
M  V30 5106 C 483.778 -0.757905 -1.47801 0
M  V30 5107 O 484.963 -1.01161 -1.61775 0
M  V30 5108 C 482.103 -2.2042 -2.65535 0
M  V30 5109 C 481.216 -3.47799 -2.56242 0
M  V30 5110 C 480.351 -3.67426 -3.8363 0
M  V30 5111 C 479.39 -4.88403 -3.68956 0
M  V30 5112 N 478.527 -5.04548 -4.88237 0
M  V30 5113 H 483.367 -2.80645 -1.00213 0
M  V30 5114 H 480.904 -1.38924 -0.483577 0
M  V30 5115 H 482.862 -2.35853 -3.44135 0
M  V30 5116 H 481.492 -1.3334 -2.93973 0
M  V30 5117 H 480.544 -3.40694 -1.69208 0
M  V30 5118 H 481.856 -4.36544 -2.4131 0
M  V30 5119 H 481.01 -3.82821 -4.70673 0
M  V30 5120 H 479.749 -2.76914 -4.01459 0
M  V30 5121 H 478.754 -4.72984 -2.80296 0
M  V30 5122 H 479.979 -5.80375 -3.52621 0
M  V30 5123 H 477.925 -4.16974 -5.06427 0
M  V30 5124 H 477.842 -5.87384 -4.75937 0
M  V30 5125 H 479.11 -5.24355 -5.76777 0
M  V30 5126 N 483.339 0.512053 -1.4905 0
M  V30 5127 C 484.302 1.59704 -1.64399 0
M  V30 5128 C 485.302 1.52285 -0.516317 0
M  V30 5129 O 486.492 1.55635 -0.782527 0
M  V30 5130 C 483.624 2.9935 -1.63102 0
M  V30 5131 H 484.817 1.47428 -2.61161 0
M  V30 5132 H 482.37 0.735469 -1.37915 0
M  V30 5133 H 483.105 3.17116 -0.678836 0
M  V30 5134 H 482.89 3.06144 -2.44986 0
M  V30 5135 H 484.38 3.782 -1.77072 0
M  V30 5136 N 484.817 1.37938 0.762283 0
M  V30 5137 C 486.066 1.32989 1.51647 0
M  V30 5138 C 486.379 -0.0802922 1.95435 0
M  V30 5139 O 487.585 -0.252295 2.70325 0
M  V30 5140 C 486.041 2.33485 2.73885 0
M  V30 5141 C 485.649 3.80079 2.37157 0
M  V30 5142 C 487.393 2.37563 3.51801 0
M  V30 5143 C 485.3 4.72283 3.55954 0
M  V30 5144 H 484.23 0.494301 0.56937 0
M  V30 5145 H 486.881 1.63448 0.834083 0
M  V30 5146 H 485.263 1.96056 3.44061 0
M  V30 5147 H 486.437 4.26398 1.74704 0
M  V30 5148 H 484.752 3.79037 1.72395 0
M  V30 5149 H 487.349 3.0365 4.40114 0
M  V30 5150 H 487.692 1.39199 3.92338 0
M  V30 5151 H 488.225 2.73747 2.8863 0
M  V30 5152 H 484.964 5.7181 3.2049 0
M  V30 5153 H 484.484 4.30663 4.1748 0
M  V30 5154 H 486.163 4.89876 4.22647 0
M  V30 5155 N 486.295 -0.989507 1.22664 0
M  V30 5156 C 487.228 -2.07805 0.942985 0
M  V30 5157 C 488.206 -1.6219 -0.115356 0
M  V30 5158 O 489.39 -1.88492 0.0169565 0
M  V30 5159 C 486.517 -3.361 0.418898 0
M  V30 5160 C 485.563 -4.00643 1.46244 0
M  V30 5161 S 486.396 -4.41059 3.03689 0
M  V30 5162 C 487.552 -5.7252 2.52927 0
M  V30 5163 H 487.785 -2.31547 1.86476 0
M  V30 5164 H 485.318 -1.12446 1.05808 0
M  V30 5165 H 487.276 -4.10315 0.123114 0
M  V30 5166 H 485.937 -3.10383 -0.481818 0
M  V30 5167 H 485.13 -4.93033 1.04569 0
M  V30 5168 H 484.732 -3.32767 1.7071 0
M  V30 5169 H 487.024 -6.49017 1.94379 0
M  V30 5170 H 487.967 -6.19026 3.4382 0
M  V30 5171 H 488.375 -5.30083 1.94094 0
M  V30 5172 N 487.773 -1.03688 -1.18687 0
M  V30 5173 C 488.736 -0.629115 -2.20397 0
M  V30 5174 C 489.736 0.311495 -1.57754 0
M  V30 5175 O 490.926 0.0974107 -1.73927 0
M  V30 5176 C 488.058 0.0782231 -3.4081 0
M  V30 5177 H 489.251 -1.52915 -2.57987 0
M  V30 5178 H 486.804 -0.828988 -1.32505 0
M  V30 5179 H 487.539 0.992233 -3.08748 0
M  V30 5180 H 487.324 -0.597776 -3.87517 0
M  V30 5181 H 488.814 0.350156 -4.16129 0
M  V30 5182 N 489.251 1.34841 -0.815825 0
M  V30 5183 C 490.214 2.27959 -0.238185 0
M  V30 5184 C 491.214 1.49983 0.579816 0
M  V30 5185 O 492.404 1.69617 0.396953 0
M  V30 5186 C 489.536 3.34314 0.666876 0
M  V30 5187 H 490.729 2.80558 -1.05958 0
M  V30 5188 H 488.282 1.44852 -0.587156 0
M  V30 5189 H 489.017 2.86916 1.5116 0
M  V30 5190 H 488.802 3.92014 0.0819106 0
M  V30 5191 H 490.292 4.0379 1.06506 0
M  V30 5192 N 490.729 0.570148 1.46925 0
M  V30 5193 C 491.659 -0.158274 2.32963 0
M  V30 5194 C 492.64 -0.896093 1.44583 0
M  V30 5195 O 493.825 -0.874022 1.7342 0
M  V30 5196 C 490.955 -1.18055 3.26619 0
M  V30 5197 C 489.909 -0.558379 4.24342 0
M  V30 5198 C 489.235 -1.68623 5.07415 0
M  V30 5199 C 490.535 0.496295 5.19937 0
M  V30 5200 H 492.229 0.560046 2.94115 0
M  V30 5201 H 489.775 0.270775 1.41431 0
M  V30 5202 H 491.728 -1.69841 3.85658 0
M  V30 5203 H 490.452 -1.92899 2.63548 0
M  V30 5204 H 489.111 -0.0617157 3.66548 0
M  V30 5205 H 488.759 -2.42402 4.40738 0
M  V30 5206 H 488.459 -1.27564 5.73586 0
M  V30 5207 H 489.983 -2.20709 5.69315 0
M  V30 5208 H 491.397 0.0640052 5.73264 0
M  V30 5209 H 489.794 0.82649 5.94381 0
M  V30 5210 H 490.864 1.38735 4.6463 0
M  V30 5211 N 492.207 -1.54576 0.307264 0
M  V30 5212 C 493.453 -2.0056 -0.300612 0
M  V30 5213 C 493.786 -1.1953 -1.53057 0
M  V30 5214 O 493.061 -0.27337 -1.92569 0
M  V30 5215 C 493.344 -3.54167 -0.650987 0
M  V30 5216 C 493.197 -4.45933 0.588539 0
M  V30 5217 C 494.516 -4.14645 -1.47506 0
M  V30 5218 H 491.635 -0.729075 -0.107788 0
M  V30 5219 H 494.277 -1.85286 0.420606 0
M  V30 5220 H 492.427 -3.67313 -1.26544 0
M  V30 5221 H 494.099 -4.44683 1.22697 0
M  V30 5222 H 492.342 -4.16274 1.22058 0
M  V30 5223 H 493.013 -5.51189 0.299153 0
M  V30 5224 H 495.489 -4.04973 -0.955821 0
M  V30 5225 H 494.365 -5.22269 -1.68899 0
M  V30 5226 H 494.626 -3.66921 -2.4662 0
M  V30 5227 N 493.685 -0.035106 -1.57561 0
M  V30 5228 C 494.933 0.64096 -1.91667 0
M  V30 5229 C 495.254 1.72323 -0.912681 0
M  V30 5230 O 494.524 1.95849 0.0449089 0
M  V30 5231 H 493.104 0.239743 -0.707483 0
M  V30 5232 H 495.766 -0.084321 -1.94718 0
M  V30 5233 H 494.862 1.08987 -2.92452 0
M  V30 5234 N 495.163 1.55791 0.238111 0
M  V30 5235 C 496.095 1.87513 1.31802 0
M  V30 5236 C 497.108 0.762053 1.43863 0
M  V30 5237 O 498.297 1.04024 1.45056 0
M  V30 5238 C 495.397 2.05402 2.69561 0
M  V30 5239 C 494.57 3.3632 2.79656 0
M  V30 5240 C 493.629 3.43844 3.98319 0
M  V30 5241 O 492.655 4.16994 3.87433 0
M  V30 5242 N 493.857 2.73777 5.11885 0
M  V30 5243 H 496.622 2.80734 1.04922 0
M  V30 5244 H 494.183 1.56135 0.428196 0
M  V30 5245 H 496.175 2.07769 3.47296 0
M  V30 5246 H 494.745 1.18884 2.89111 0
M  V30 5247 H 493.965 3.46195 1.88528 0
M  V30 5248 H 495.253 4.22594 2.83358 0
M  V30 5249 H 494.651 2.14094 5.23622 0
M  V30 5250 H 493.208 2.81825 5.87723 0
M  V30 5251 N 496.642 -0.504142 1.49319 0
M  V30 5252 C 497.867 -1.28729 1.62615 0
M  V30 5253 C 498.292 -1.85752 0.296309 0
M  V30 5254 O 497.65 -1.65704 -0.735649 0
M  V30 5255 C 497.698 -2.39561 2.69524 0
M  V30 5256 O 496.802 -3.43324 2.28478 0
M  V30 5257 H 496.143 -0.380172 0.544395 0
M  V30 5258 H 498.673 -0.603872 1.95485 0
M  V30 5259 H 498.683 -2.8537 2.91595 0
M  V30 5260 H 497.358 -1.97423 3.66056 0
M  V30 5261 H 495.935 -3.03455 2.16725 0
M  V30 5262 N 498.12 -1.38341 -0.754957 0
M  V30 5263 C 499.536 -1.19508 -1.05783 0
M  V30 5264 C 499.736 -0.0428005 -2.01455 0
M  V30 5265 O 498.792 0.611861 -2.44975 0
M  V30 5266 C 500.105 -2.52091 -1.63923 0
M  V30 5267 C 501.653 -2.58762 -1.76101 0
M  V30 5268 C 502.128 -3.91517 -2.37652 0
M  V30 5269 N 503.619 -3.93049 -2.45085 0
M  V30 5270 C 504.354 -4.9253 -2.93602 0
M  V30 5271 N 503.85 -6.02408 -3.42165 0
M  V30 5272 N 505.643 -4.79921 -2.92629 0
M  V30 5273 H 497.794 -2.1206 -0.120056 0
M  V30 5274 H 500.057 -0.94089 -0.11589 0
M  V30 5275 H 499.763 -3.36858 -1.01093 0
M  V30 5276 H 499.637 -2.70388 -2.63003 0
M  V30 5277 H 502.024 -1.74391 -2.38058 0
M  V30 5278 H 502.105 -2.44333 -0.757294 0
M  V30 5279 H 501.749 -4.76309 -1.76329 0
M  V30 5280 H 501.679 -4.03256 -3.38662 0
M  V30 5281 H 504.17 -3.13685 -2.10736 0
M  V30 5282 H 504.483 -6.74248 -3.77637 0
M  V30 5283 H 502.828 -6.0603 -3.40225 0
M  V30 5284 H 506.019 -3.93194 -2.54001 0
M  V30 5285 H 506.192 -5.57601 -3.30128 0
M  V30 5286 N 499.598 0.982988 -1.23187 0
M  V30 5287 C 501.009 1.53847 -1.05773 0
M  V30 5288 C 501.36 1.92568 0.375744 0
M  V30 5289 O 500.485 1.75783 1.26211 0
M  V30 5290 C 501.08 2.79567 -1.91384 0
M  V30 5291 C 499.639 3.31524 -1.78238 0
M  V30 5292 C 498.786 2.04534 -1.87246 0
M  V30 5293 H 501.737 0.802962 -1.36888 0
M  V30 5294 H 501.758 3.52317 -1.43711 0
M  V30 5295 H 501.27 2.51353 -2.95708 0
M  V30 5296 H 499.371 3.64623 -0.766875 0
M  V30 5297 H 499.484 4.01457 -2.61475 0
M  V30 5298 H 497.848 2.1855 -1.30797 0
M  V30 5299 H 498.631 1.78706 -2.9312 0
M  V30 5300 O 501.115 1.16872 1.1146 0
M  V30 5301 H 501.806 0.903209 1.71353 0
M  V30 END ATOM
M  V30 BEGIN BOND
M  V30 END BOND
M  V30 END CTAB
M  END
$$$$
