drugbank_target|Q9NSA2 Potassium voltage-gated channel subfamily D member 1 (DB00228; DB01069; DB01110)
 OpenBabel12092120583D

  0  0  0     0  0            999 V3000
M  V30 BEGIN CTAB
M  V30 COUNTS 9999 10113 0 0 0
M  V30 BEGIN ATOM
M  V30 1 H -0.908 1.98254 -0.117106 0
M  V30 2 N 0 1.576 0 0
M  V30 3 C 0.933 2.03868 1.02534 0
M  V30 4 C 1.911 0.928543 1.3348 0
M  V30 5 O 3.095 1.19667 1.45644 0
M  V30 6 C 0.222 2.43627 2.35294 0
M  V30 7 C -0.732 3.65373 2.2001 0
M  V30 8 S 0.101 5.13292 1.52614 0
M  V30 9 C 1.257 5.56322 2.86805 0
M  V30 10 H 1.49 2.90518 0.631377 0
M  V30 11 H -0.977 1.52953 0.210867 0
M  V30 12 H 0.981 2.67203 3.11629 0
M  V30 13 H -0.358 1.57376 2.7183 0
M  V30 14 H -1.165 3.90944 3.18086 0
M  V30 15 H -1.563 3.418 1.51819 0
M  V30 16 H 0.729 5.58782 3.83104 0
M  V30 17 H 1.672 6.56266 2.65933 0
M  V30 18 H 2.08 4.83886 2.90714 0
M  V30 19 N 1.4781 -0.272755 1.55222 0
M  V30 20 C 2.4411 -1.32041 1.87344 0
M  V30 21 C 3.4411 -1.42342 0.74803 0
M  V30 22 O 4.6311 -1.41488 1.0162 0
M  V30 23 C 1.7631 -2.70173 2.07893 0
M  V30 24 H 2.9561 -1.04789 2.80997 0
M  V30 25 H 0.5091 -0.51083 1.47717 0
M  V30 26 H 1.2441 -3.02605 1.16622 0
M  V30 27 H 1.0291 -2.64082 2.89833 0
M  V30 28 H 2.5191 -3.45869 2.34017 0
M  V30 29 N 2.9562 -1.48159 -0.537278 0
M  V30 30 C 3.9192 -1.61665 -1.62472 0
M  V30 31 C 4.9192 -0.490395 -1.5314 0
M  V30 32 O 6.1092 -0.755998 -1.5694 0
M  V30 33 C 3.2412 -1.57997 -3.02076 0
M  V30 34 H 4.4342 -2.58621 -1.51839 0
M  V30 35 H 1.9872 -1.36647 -0.758771 0
M  V30 36 H 2.7222 -0.624913 -3.18222 0
M  V30 37 H 2.5072 -2.39755 -3.10258 0
M  V30 38 H 3.9972 -1.70627 -3.81151 0
M  V30 39 N 4.4343 0.785586 -1.36625 0
M  V30 40 C 5.6823 1.54057 -1.30808 0
M  V30 41 C 6.0033 1.94683 0.111157 0
M  V30 42 O 5.2733 1.65241 1.05224 0
M  V30 43 H 3.8533 0.571354 -0.481211 0
M  V30 44 H 6.5153 0.935821 -1.70963 0
M  V30 45 H 5.6113 2.44637 -1.93801 0
M  V30 46 N 5.9124 1.20967 1.01018 0
M  V30 47 C 6.8424 0.988272 2.11555 0
M  V30 48 C 7.8234 -0.0849778 1.69888 0
M  V30 49 O 9.0084 0.0738202 1.9406 0
M  V30 50 C 6.1384 0.546528 3.42973 0
M  V30 51 C 5.0924 1.56375 3.9841 0
M  V30 52 C 4.4184 0.97842 5.25672 0
M  V30 53 C 5.7184 2.94922 4.31066 0
M  V30 54 H 7.4124 1.91276 2.30334 0
M  V30 55 H 4.9584 0.921073 1.1069 0
M  V30 56 H 6.9114 0.378839 4.19694 0
M  V30 57 H 5.6354 -0.413598 3.23971 0
M  V30 58 H 4.2944 1.71891 3.23804 0
M  V30 59 H 3.9424 0.0101688 5.02999 0
M  V30 60 H 3.6424 1.65784 5.63728 0
M  V30 61 H 5.1664 0.821939 6.05043 0
M  V30 62 H 6.5804 2.8288 4.9865 0
M  V30 63 H 4.9774 3.5983 4.80253 0
M  V30 64 H 6.0474 3.4616 3.39561 0
M  V30 65 N 7.3905 -1.2043 1.01659 0
M  V30 66 C 8.3535 -2.21433 0.591616 0
M  V30 67 C 9.3535 -1.57203 -0.338226 0
M  V30 68 O 10.5435 -1.73737 -0.126918 0
M  V30 69 C 7.6755 -3.40628 -0.136058 0
M  V30 70 H 8.8685 -2.60545 1.48514 0
M  V30 71 H 6.4215 -1.33893 0.806379 0
M  V30 72 H 7.1565 -3.07019 -1.04449 0
M  V30 73 H 6.9415 -3.88475 0.531917 0
M  V30 74 H 8.4315 -4.15475 -0.420735 0
M  V30 75 N 8.8686 -0.792821 -1.36206 0
M  V30 76 C 10.0966 -0.378825 -2.03402 0
M  V30 77 C 10.5116 1.00586 -1.59774 0
M  V30 78 O 9.8686 1.64574 -0.788764 0
M  V30 79 C 9.9196 -0.43683 -3.58851 0
M  V30 80 O 9.6406 -1.76691 -4.00889 0
M  V30 81 C 11.1416 -0.0138943 -4.43298 0
M  V30 82 H 8.3616 -0.155673 -0.652692 0
M  V30 83 H 10.9056 -1.07261 -1.74113 0
M  V30 84 H 9.0606 0.208575 -3.86838 0
M  V30 85 H 9.4746 -1.72011 -4.95492 0
M  V30 86 H 10.9486 -0.105615 -5.51899 0
M  V30 87 H 11.4256 1.03915 -4.2673 0
M  V30 88 H 12.0316 -0.63192 -4.20579 0
M  V30 89 N 10.3467 1.47872 -0.545128 0
M  V30 90 C 11.5927 2.03385 -0.0247951 0
M  V30 91 C 11.9477 1.41325 1.30556 0
M  V30 92 O 11.2407 0.5552 1.8338 0
M  V30 93 C 11.4347 3.57131 0.13867 0
M  V30 94 C 11.2637 4.34097 -1.17429 0
M  V30 95 C 10.0337 4.74458 -1.73831 0
M  V30 96 C 12.2317 4.6998 -2.08861 0
M  V30 97 N 10.2137 5.3602 -2.99258 0
M  V30 98 C 11.5847 5.31719 -3.18866 0
M  V30 99 C 13.6397 4.5191 -2.09003 0
M  V30 100 C 12.3427 5.77295 -4.29096 0
M  V30 101 C 14.3687 4.98477 -3.18237 0
M  V30 102 C 13.7307 5.60253 -4.26961 0
M  V30 103 H 9.8297 0.780339 -0.050943 0
M  V30 104 H 12.4137 1.80507 -0.729753 0
M  V30 105 H 10.5847 3.79802 0.812733 0
M  V30 106 H 12.3167 3.99282 0.659976 0
M  V30 107 H 9.0717 4.56037 -1.2778 0
M  V30 108 H 9.4957 5.71355 -3.63157 0
M  V30 109 H 14.1377 4.03516 -1.26234 0
M  V30 110 H 11.8557 6.24687 -5.12633 0
M  V30 111 H 15.4417 4.86274 -3.1942 0
M  V30 112 H 14.3217 5.95631 -5.10091 0
M  V30 113 N 11.8248 0.280983 1.55075 0
M  V30 114 C 12.7548 -0.597469 2.25727 0
M  V30 115 C 13.7358 -1.15417 1.24952 0
M  V30 116 O 14.9208 -1.18722 1.53684 0
M  V30 117 C 12.0508 -1.7789 2.98283 0
M  V30 118 C 11.0048 -1.35347 4.06036 0
M  V30 119 C 10.3308 -2.61846 4.66198 0
M  V30 120 C 11.6308 -0.499354 5.19907 0
M  V30 121 H 13.3248 -0.00824265 2.99399 0
M  V30 122 H 10.8708 -0.0025244 1.44 0
M  V30 123 H 12.8238 -2.39937 3.46422 0
M  V30 124 H 11.5478 -2.39405 2.22155 0
M  V30 125 H 10.2068 -0.756156 3.58717 0
M  V30 126 H 9.8548 -3.21632 3.86732 0
M  V30 127 H 9.5548 -2.3409 5.38958 0
M  V30 128 H 11.0788 -3.24732 5.1709 0
M  V30 129 H 12.4928 -1.02498 5.64063 0
M  V30 130 H 10.8898 -0.316424 5.99265 0
M  V30 131 H 11.9598 0.480459 4.82514 0
M  V30 132 N 13.3029 -1.57598 0.00835791 0
M  V30 133 C 14.7139 -1.7892 -0.53333 0
M  V30 134 C 15.0649 -0.916609 -1.73473 0
M  V30 135 O 14.1899 -0.121336 -2.1606 0
M  V30 136 C 14.7849 -3.24488 -0.974313 0
M  V30 137 C 13.3439 -3.46878 -1.46125 0
M  V30 138 C 12.4909 -2.74157 -0.416302 0
M  V30 139 H 15.4419 -1.56958 0.234495 0
M  V30 140 H 15.4629 -3.3306 -1.83988 0
M  V30 141 H 14.9749 -3.87972 -0.099718 0
M  V30 142 H 13.0759 -2.8862 -2.35646 0
M  V30 143 H 13.1889 -4.55572 -1.48295 0
M  V30 144 H 11.5529 -2.39022 -0.87981 0
M  V30 145 H 12.3359 -3.40345 0.44947 0
M  V30 146 N 14.781 0.264519 -1.55364 0
M  V30 147 C 16.028 0.994986 -1.7637 0
M  V30 148 C 16.356 1.85976 -0.5695 0
M  V30 149 O 15.611 1.90509 0.44776 0
M  V30 150 C 15.91 1.9004 -3.02687 0
M  V30 151 C 15.576 1.19243 -4.34847 0
M  V30 152 C 14.238 0.996709 -4.70764 0
M  V30 153 C 16.59 0.689296 -5.16622 0
M  V30 154 C 13.918 0.285261 -5.86006 0
M  V30 155 C 16.27 -0.00860079 -6.32599 0
M  V30 156 C 14.934 -0.215963 -6.67151 0
M  V30 157 H 14.204 0.364091 -0.645383 0
M  V30 158 H 16.851 0.266543 -1.89636 0
M  V30 159 H 15.156 2.69533 -2.84357 0
M  V30 160 H 16.853 2.46695 -3.16137 0
M  V30 161 H 13.443 1.3549 -4.06621 0
M  V30 162 H 17.627 0.828108 -4.89342 0
M  V30 163 H 12.883 0.113961 -6.11294 0
M  V30 164 H 17.057 -0.406186 -6.95214 0
M  V30 165 H 14.684 -0.769217 -7.56298 0
M  V30 166 N 16.2591 1.48442 0.529413 0
M  V30 167 C 17.2221 1.62524 1.61612 0
M  V30 168 C 18.2221 0.498509 1.52877 0
M  V30 169 O 19.4121 0.76431 1.56537 0
M  V30 170 C 16.5441 1.59597 3.01233 0
M  V30 171 H 17.7371 2.59423 1.50465 0
M  V30 172 H 15.2901 1.37047 0.751514 0
M  V30 173 H 16.0251 0.641781 3.17886 0
M  V30 174 H 15.8101 2.41397 3.08982 0
M  V30 175 H 17.3001 1.72646 3.80241 0
M  V30 176 N 17.7372 -0.778329 1.37039 0
M  V30 177 C 19.1532 -1.07796 1.17695 0
M  V30 178 C 19.3532 -2.01498 0.00860115 0
M  V30 179 O 18.4092 -2.43901 -0.653352 0
M  V30 180 C 19.7222 -1.68178 2.49272 0
M  V30 181 C 21.2702 -1.80467 2.55735 0
M  V30 182 C 21.7452 -2.44263 3.87427 0
M  V30 183 N 23.2362 -2.51721 3.88833 0
M  V30 184 C 23.9712 -3.01919 4.87476 0
M  V30 185 N 23.4672 -3.5234 5.96513 0
M  V30 186 N 25.2602 -3.00733 4.74885 0
M  V30 187 H 17.4112 -0.156032 2.11826 0
M  V30 188 H 19.6742 -0.131844 0.938787 0
M  V30 189 H 19.3802 -1.06796 3.35093 0
M  V30 190 H 19.2542 -2.67554 2.65885 0
M  V30 191 H 21.6412 -2.40984 1.70325 0
M  V30 192 H 21.7222 -0.798656 2.43013 0
M  V30 193 H 21.3662 -1.84388 4.73248 0
M  V30 194 H 21.2962 -3.45458 3.9745 0
M  V30 195 H 23.7872 -2.1603 3.10063 0
M  V30 196 H 24.1002 -3.89027 6.67741 0
M  V30 197 H 22.4452 -3.50462 6.00168 0
M  V30 198 H 25.6362 -2.60638 3.88826 0
M  V30 199 H 25.8092 -3.39545 5.51918 0
M  V30 200 N 19.2153 -1.21501 -1.00376 0
M  V30 201 C 20.1783 -0.976927 -2.07337 0
M  V30 202 C 21.1783 0.0525322 -1.60714 0
M  V30 203 O 22.3683 -0.184869 -1.73216 0
M  V30 204 C 19.5003 -0.473423 -3.37597 0
M  V30 205 H 20.6933 -1.92587 -2.29892 0
M  V30 206 H 18.2463 -1.03217 -1.17371 0
M  V30 207 H 18.9813 0.480379 -3.20722 0
M  V30 208 H 18.7663 -1.216 -3.72768 0
M  V30 209 H 20.2563 -0.32675 -4.1632 0
M  V30 210 N 20.6934 1.19889 -1.02296 0
M  V30 211 C 21.6564 2.21116 -0.603351 0
M  V30 212 C 22.6564 1.5738 0.329884 0
M  V30 213 O 23.8464 1.73802 0.117702 0
M  V30 214 C 20.9784 3.40696 0.117992 0
M  V30 215 H 22.1714 2.59754 -1.49893 0
M  V30 216 H 19.7244 1.33463 -0.813468 0
M  V30 217 H 20.4594 3.07569 1.0282 0
M  V30 218 H 20.2444 3.88188 -0.552511 0
M  V30 219 H 21.7344 4.15692 0.398696 0
M  V30 220 N 22.1715 0.800033 1.35784 0
M  V30 221 C 23.1345 0.211565 2.28221 0
M  V30 222 C 24.1345 -0.59728 1.49296 0
M  V30 223 O 25.3245 -0.416721 1.69142 0
M  V30 224 C 22.4565 -0.705846 3.33513 0
M  V30 225 H 23.6495 1.02677 2.81776 0
M  V30 226 H 21.2025 0.570211 1.45528 0
M  V30 227 H 21.9375 -1.54498 2.85133 0
M  V30 228 H 21.7225 -0.127655 3.91892 0
M  V30 229 H 23.2125 -1.11211 4.02519 0
M  V30 230 N 23.6496 -1.47581 0.552962 0
M  V30 231 C 24.8956 -2.02782 0.0273648 0
M  V30 232 C 25.2286 -1.42687 -1.31734 0
M  V30 233 O 24.5036 -0.580897 -1.85623 0
M  V30 234 C 24.7866 -3.60031 -0.0702371 0
M  V30 235 C 24.6396 -4.30566 1.30126 0
M  V30 236 C 25.9586 -4.33028 -0.785771 0
M  V30 237 H 23.0776 -0.736912 0.0114185 0
M  V30 238 H 25.7196 -1.76056 0.714432 0
M  V30 239 H 23.8696 -3.82932 -0.655382 0
M  V30 240 H 25.5416 -4.19018 1.92929 0
M  V30 241 H 23.7846 -3.91086 1.87709 0
M  V30 242 H 24.4556 -5.39114 1.18573 0
M  V30 243 H 26.9316 -4.15095 -0.288982 0
M  V30 244 H 25.8076 -5.42695 -0.823013 0
M  V30 245 H 26.0686 -4.01945 -1.841 0
M  V30 246 N 25.1277 -0.289203 -1.54924 0
M  V30 247 C 26.3757 0.322879 -1.99504 0
M  V30 248 C 26.6967 1.55313 -1.1791 0
M  V30 249 O 25.9667 1.94001 -0.272097 0
M  V30 250 H 24.5467 0.122291 -0.736922 0
M  V30 251 H 27.2087 -0.397802 -1.90797 0
M  V30 252 H 26.3047 0.603061 -3.06218 0
M  V30 253 N 26.6058 1.57591 -0.0167156 0
M  V30 254 C 27.8518 1.92399 0.659861 0
M  V30 255 C 28.2068 0.892561 1.70444 0
M  V30 256 O 27.4998 -0.0930755 1.91374 0
M  V30 257 C 27.6938 3.3172 1.33029 0
M  V30 258 C 27.5228 4.48319 0.352174 0
M  V30 259 C 26.2928 5.05281 -0.0434883 0
M  V30 260 C 28.4908 5.12831 -0.388474 0
M  V30 261 N 26.4728 6.05399 -1.01807 0
M  V30 262 C 27.8438 6.07934 -1.2172 0
M  V30 263 C 29.8988 4.95858 -0.450513 0
M  V30 264 C 28.6018 6.87891 -2.10235 0
M  V30 265 C 30.6278 5.76413 -1.32295 0
M  V30 266 C 29.9898 6.71123 -2.13948 0
M  V30 267 H 26.0888 0.752106 0.21415 0
M  V30 268 H 28.6728 1.94532 -0.0809846 0
M  V30 269 H 26.8438 3.3043 2.04134 0
M  V30 270 H 28.5758 3.5391 1.9629 0
M  V30 271 H 25.3308 4.7246 0.328384 0
M  V30 272 H 25.7548 6.60145 -1.50123 0
M  V30 273 H 30.3968 4.22472 0.166512 0
M  V30 274 H 28.1148 7.60591 -2.72997 0
M  V30 275 H 31.7008 5.65317 -1.37508 0
M  V30 276 H 30.5808 7.3237 -2.80364 0
M  V30 277 N 28.0839 -0.256276 1.55502 0
M  V30 278 C 29.0139 -1.32102 1.92539 0
M  V30 279 C 29.9949 -1.50684 0.789194 0
M  V30 280 O 31.1799 -1.63449 1.04872 0
M  V30 281 C 28.3099 -2.67752 2.21192 0
M  V30 282 C 27.2639 -2.63878 3.36975 0
M  V30 283 C 26.5899 -4.03236 3.51147 0
M  V30 284 C 27.8899 -2.21682 4.72921 0
M  V30 285 H 29.5839 -1.01351 2.81724 0
M  V30 286 H 27.1299 -0.486105 1.35547 0
M  V30 287 H 29.0829 -3.42365 2.45691 0
M  V30 288 H 27.8069 -3.0012 1.28824 0
M  V30 289 H 26.4659 -1.91722 3.12471 0
M  V30 290 H 26.1139 -4.32854 2.56216 0
M  V30 291 H 25.8139 -4.01535 4.29003 0
M  V30 292 H 27.3379 -4.79563 3.77957 0
M  V30 293 H 28.7519 -2.86023 4.96854 0
M  V30 294 H 27.1489 -2.3111 5.53812 0
M  V30 295 H 28.2189 -1.16833 4.70615 0
M  V30 296 N 29.562 -1.4872 -0.521534 0
M  V30 297 C 30.973 -1.50607 -1.10337 0
M  V30 298 C 31.324 -0.280612 -1.94183 0
M  V30 299 O 30.449 0.611507 -2.0758 0
M  V30 300 C 31.044 -2.72903 -2.00772 0
M  V30 301 C 29.603 -2.77634 -2.54158 0
M  V30 302 C 28.75 -2.44241 -1.31307 0
M  V30 303 H 31.701 -1.55714 -0.306388 0
M  V30 304 H 31.722 -2.519 -2.85178 0
M  V30 305 H 31.234 -3.62077 -1.39721 0
M  V30 306 H 29.335 -1.92689 -3.18907 0
M  V30 307 H 29.448 -3.79283 -2.92714 0
M  V30 308 H 27.812 -1.95577 -1.63161 0
M  V30 309 H 28.595 -3.35666 -0.719943 0
M  V30 310 N 31.0401 0.771051 -1.3745 0
M  V30 311 C 31.9701 1.89827 -1.3597 0
M  V30 312 C 32.9511 1.68562 -0.228216 0
M  V30 313 O 34.1361 1.8941 -0.428675 0
M  V30 314 C 31.2661 3.2712 -1.16662 0
M  V30 315 C 30.2201 3.6295 -2.2683 0
M  V30 316 C 29.5461 4.98791 -1.92644 0
M  V30 317 C 30.8461 3.69627 -3.69017 0
M  V30 318 H 32.5401 1.91323 -2.30295 0
M  V30 319 H 30.0861 0.919082 -1.10855 0
M  V30 320 H 32.0391 4.05615 -1.14256 0
M  V30 321 H 30.7631 3.26059 -0.187926 0
M  V30 322 H 29.4221 2.86763 -2.28392 0
M  V30 323 H 29.0701 4.94271 -0.933021 0
M  V30 324 H 28.7701 5.23733 -2.66416 0
M  V30 325 H 30.2941 5.79685 -1.91826 0
M  V30 326 H 31.7081 4.38273 -3.69581 0
M  V30 327 H 30.1051 4.06067 -4.41848 0
M  V30 328 H 31.1751 2.70273 -4.02592 0
M  V30 329 N 32.5182 1.22032 0.997298 0
M  V30 330 C 33.4812 0.987909 2.06816 0
M  V30 331 C 34.4812 -0.0440084 1.6074 0
M  V30 332 O 35.6712 0.194053 1.73116 0
M  V30 333 C 32.8032 0.49132 3.37341 0
M  V30 334 H 33.9962 1.93803 2.28868 0
M  V30 335 H 31.5492 1.03838 1.16822 0
M  V30 336 H 32.2842 -0.463364 3.20973 0
M  V30 337 H 32.0692 1.23575 3.72118 0
M  V30 338 H 33.5592 0.348824 4.16141 0
M  V30 339 N 33.9963 -1.19345 1.0293 0
M  V30 340 C 34.9283 -2.22036 0.56857 0
M  V30 341 C 35.9413 -1.58865 -0.355779 0
M  V30 342 O 37.1303 -1.77851 -0.152103 0
M  V30 343 C 34.2303 -3.38363 -0.190752 0
M  V30 344 C 33.4033 -4.31118 0.738643 0
M  V30 345 C 32.4623 -5.26194 0.0246497 0
M  V30 346 O 31.4883 -5.65461 0.651354 0
M  V30 347 N 32.6903 -5.66971 -1.24594 0
M  V30 348 H 35.4553 -2.6219 1.45177 0
M  V30 349 H 33.0163 -1.34015 0.908381 0
M  V30 350 H 35.0083 -3.98981 -0.677961 0
M  V30 351 H 33.5783 -2.96994 -0.975366 0
M  V30 352 H 32.7983 -3.68276 1.40593 0
M  V30 353 H 34.0863 -4.90001 1.37029 0
M  V30 354 H 33.4843 -5.37104 -1.77583 0
M  V30 355 H 32.0413 -6.2984 -1.67764 0
M  V30 356 N 35.4744 -0.807222 -1.35358 0
M  V30 357 C 36.4064 -0.175717 -2.28525 0
M  V30 358 C 37.4194 0.625354 -1.5031 0
M  V30 359 O 38.6084 0.457611 -1.72535 0
M  V30 360 C 35.7084 0.773471 -3.29956 0
M  V30 361 C 34.8814 0.0186296 -4.37396 0
M  V30 362 C 33.9404 0.886395 -5.18681 0
M  V30 363 O 32.9664 0.337106 -5.68201 0
M  V30 364 N 34.1684 2.20839 -5.36852 0
M  V30 365 H 36.9334 -0.976091 -2.83359 0
M  V30 366 H 34.4944 -0.662737 -1.47714 0
M  V30 367 H 36.4864 1.35824 -3.81227 0
M  V30 368 H 35.0564 1.47465 -2.75632 0
M  V30 369 H 34.2764 -0.747349 -3.87051 0
M  V30 370 H 35.5644 -0.501577 -5.06322 0
M  V30 371 H 34.9624 2.67858 -4.98265 0
M  V30 372 H 33.5194 2.74237 -5.91301 0
M  V30 373 N 36.9525 1.47285 -0.560781 0
M  V30 374 C 38.3635 1.86258 -0.128343 0
M  V30 375 C 38.7145 1.46699 1.30284 0
M  V30 376 O 37.8395 0.871698 1.98067 0
M  V30 377 C 38.4345 3.38044 -0.22614 0
M  V30 378 C 36.9935 3.76096 0.151283 0
M  V30 379 C 36.1405 2.71335 -0.572084 0
M  V30 380 H 39.0915 1.38752 -0.770297 0
M  V30 381 H 39.1125 3.76441 0.554322 0
M  V30 382 H 38.6245 3.66806 -1.26788 0
M  V30 383 H 36.7255 3.52951 1.19399 0
M  V30 384 H 36.8385 4.78641 -0.209765 0
M  V30 385 H 35.2025 2.54696 -0.0147653 0
M  V30 386 H 35.9855 3.02938 -1.61504 0
M  V30 387 N 38.4306 0.297415 1.54768 0
M  V30 388 C 39.3606 -0.573494 2.26348 0
M  V30 389 C 40.3416 -1.14085 1.26169 0
M  V30 390 O 41.5266 -1.17086 1.54934 0
M  V30 391 C 38.6566 -1.74716 3.00153 0
M  V30 392 C 37.6106 -1.31032 4.07449 0
M  V30 393 C 36.9366 -2.56887 4.68949 0
M  V30 394 C 38.2366 -0.444183 5.20408 0
M  V30 395 H 39.9306 0.0235131 2.99391 0
M  V30 396 H 37.4766 0.0127488 1.43994 0
M  V30 397 H 39.4296 -2.3625 3.48947 0
M  V30 398 H 38.1536 -2.37035 2.24682 0
M  V30 399 H 36.8126 -0.718066 3.59499 0
M  V30 400 H 36.4606 -3.17512 3.90122 0
M  V30 401 H 36.1606 -2.2836 5.41411 0
M  V30 402 H 37.6846 -3.19229 5.20505 0
M  V30 403 H 39.0986 -0.9651 5.65118 0
M  V30 404 H 37.4956 -0.252846 5.99567 0
M  V30 405 H 38.5656 0.531609 4.81977 0
M  V30 406 N 39.9087 -1.5758 0.0250728 0
M  V30 407 C 41.3197 -1.79476 -0.514323 0
M  V30 408 C 41.6707 -0.934956 -1.72491 0
M  V30 409 O 40.7957 -0.144245 -2.15919 0
M  V30 410 C 41.3907 -3.25503 -0.939842 0
M  V30 411 C 39.9497 -3.48408 -1.42438 0
M  V30 412 C 39.0967 -2.74583 -0.387201 0
M  V30 413 H 42.0477 -1.567 0.25113 0
M  V30 414 H 42.0687 -3.34992 -1.80445 0
M  V30 415 H 41.5807 -3.88056 -0.0585628 0
M  V30 416 H 39.6817 -2.91103 -2.32572 0
M  V30 417 H 39.7947 -4.57119 -1.43455 0
M  V30 418 H 38.1587 -2.39942 -0.854409 0
M  V30 419 H 38.9417 -3.39849 0.485543 0
M  V30 420 N 41.3868 0.248026 -1.55636 0
M  V30 421 C 42.7978 0.817177 -1.67866 0
M  V30 422 C 43.1488 1.86069 -0.622322 0
M  V30 423 O 42.2738 2.15157 0.231618 0
M  V30 424 C 42.8688 1.489 -3.04326 0
M  V30 425 C 41.4278 2.00587 -3.185 0
M  V30 426 C 40.5748 0.856573 -2.63739 0
M  V30 427 H 43.5258 0.0238579 -1.58682 0
M  V30 428 H 43.5468 2.35698 -2.98708 0
M  V30 429 H 43.0588 0.729279 -3.81186 0
M  V30 430 H 41.1598 2.79443 -2.4646 0
M  V30 431 H 41.2728 2.20402 -4.25393 0
M  V30 432 H 39.6368 1.25678 -2.21534 0
M  V30 433 H 40.4198 0.109953 -3.43124 0
M  V30 434 N 42.8649 1.48995 0.513639 0
M  V30 435 C 43.8279 1.64229 1.59879 0
M  V30 436 C 44.8279 0.514696 1.5234 0
M  V30 437 O 46.0179 0.78087 1.55718 0
M  V30 438 C 43.1499 1.62783 2.99524 0
M  V30 439 H 44.3429 2.61004 1.47705 0
M  V30 440 H 41.8959 1.37837 0.736936 0
M  V30 441 H 42.6309 0.675461 3.17188 0
M  V30 442 H 42.4159 2.4466 3.06404 0
M  V30 443 H 43.9059 1.76669 3.78388 0
M  V30 444 N 44.343 -0.763751 1.37857 0
M  V30 445 C 45.754 -1.3405 1.29952 0
M  V30 446 C 46.105 -1.96138 -0.0492898 0
M  V30 447 O 45.23 -1.94372 -0.951239 0
M  V30 448 C 45.825 -2.43729 2.35333 0
M  V30 449 C 44.384 -2.97151 2.31037 0
M  V30 450 C 43.531 -1.70438 2.18738 0
M  V30 451 H 46.482 -0.563396 1.48363 0
M  V30 452 H 46.503 -3.23412 2.00462 0
M  V30 453 H 46.015 -1.9851 3.33489 0
M  V30 454 H 44.116 -3.46724 1.3643 0
M  V30 455 H 44.229 -3.52221 3.24772 0
M  V30 456 H 42.593 -1.93673 1.65418 0
M  V30 457 H 43.376 -1.27312 3.18821 0
M  V30 458 N 45.8211 -1.22559 -0.990812 0
M  V30 459 C 47.0691 -1.04933 -1.72724 0
M  V30 460 C 47.3901 0.416158 -1.90508 0
M  V30 461 O 46.6601 1.29918 -1.46622 0
M  V30 462 H 45.2401 -0.385296 -0.639965 0
M  V30 463 H 47.9021 -1.54105 -1.19322 0
M  V30 464 H 46.9981 -1.52886 -2.72089 0
M  V30 465 N 47.2992 1.18797 -1.03562 0
M  V30 466 C 48.5452 1.8893 -0.737113 0
M  V30 467 C 48.8782 1.79837 0.732956 0
M  V30 468 O 48.1532 1.19525 1.5344 0
M  V30 469 C 48.4362 3.39607 -1.19745 0
M  V30 470 C 48.2892 3.57537 -2.72924 0
M  V30 471 C 49.6082 4.33069 -0.783526 0
M  V30 472 H 46.7272 0.686057 -0.269249 0
M  V30 473 H 49.3692 1.39797 -1.28673 0
M  V30 474 H 47.5192 3.81583 -0.729855 0
M  V30 475 H 49.1912 3.24688 -3.27682 0
M  V30 476 H 47.4342 3.00363 -3.12993 0
M  V30 477 H 48.1052 4.63238 -3.00191 0
M  V30 478 H 50.5812 3.98846 -1.18581 0
M  V30 479 H 49.4572 5.3707 -1.13343 0
M  V30 480 H 49.7182 4.40986 0.313681 0
M  V30 481 N 48.7773 0.814389 1.34928 0
M  V30 482 C 49.7243 0.22822 2.29669 0
M  V30 483 C 50.6943 -0.642164 1.53184 0
M  V30 484 O 51.8793 -0.585605 1.81591 0
M  V30 485 C 49.0193 -0.61089 3.3965 0
M  V30 486 C 48.1323 0.280792 4.31086 0
M  V30 487 C 47.2673 -0.567067 5.28165 0
M  V30 488 C 46.3063 0.324531 6.11239 0
M  V30 489 N 45.4433 -0.483756 7.00431 0
M  V30 490 H 50.2833 1.04153 2.79206 0
M  V30 491 H 47.8203 0.525133 1.37407 0
M  V30 492 H 49.7783 -1.11263 4.0209 0
M  V30 493 H 48.4083 -1.38939 2.91369 0
M  V30 494 H 47.4603 0.900688 3.69583 0
M  V30 495 H 48.7723 0.966723 4.89342 0
M  V30 496 H 47.9263 -1.13363 5.96015 0
M  V30 497 H 46.6653 -1.28654 4.70425 0
M  V30 498 H 45.6703 0.903298 5.42329 0
M  V30 499 H 46.8953 1.04198 6.71059 0
M  V30 500 H 44.8413 -1.18706 6.45171 0
M  V30 501 H 44.7583 0.143965 7.55863 0
M  V30 502 H 46.0263 -1.03334 7.7262 0
M  V30 503 N 50.2554 -1.46986 0.568584 0
M  V30 504 C 51.2184 -2.28624 -0.162366 0
M  V30 505 C 52.2184 -1.37596 -0.832103 0
M  V30 506 O 53.4084 -1.60115 -0.68622 0
M  V30 507 C 50.5404 -3.17596 -1.23878 0
M  V30 508 H 51.7334 -2.94722 0.554899 0
M  V30 509 H 49.2864 -1.52863 0.325976 0
M  V30 510 H 50.0214 -2.56214 -1.98808 0
M  V30 511 H 49.8064 -3.846 -0.763219 0
M  V30 512 H 51.2964 -3.79078 -1.75185 0
M  V30 513 N 51.7335 -0.305618 -1.54608 0
M  V30 514 C 52.9585 0.307562 -2.05107 0
M  V30 515 C 53.3835 1.46385 -1.18123 0
M  V30 516 O 52.7415 1.8034 -0.186324 0
M  V30 517 C 52.7895 0.73704 -3.52987 0
M  V30 518 O 51.8935 1.84134 -3.6901 0
M  V30 519 H 51.2345 0.0589143 -0.661381 0
M  V30 520 H 53.7645 -0.448807 -1.99617 0
M  V30 521 H 53.7745 1.02459 -3.94925 0
M  V30 522 H 52.4495 -0.108773 -4.15758 0
M  V30 523 H 51.0265 1.55398 -3.38978 0
M  V30 524 N 53.2116 1.57565 -0.0334293 0
M  V30 525 C 54.6276 1.56297 0.322997 0
M  V30 526 C 54.8276 1.03945 1.7262 0
M  V30 527 O 53.8836 0.688109 2.42943 0
M  V30 528 C 55.1966 3.00232 0.167664 0
M  V30 529 C 56.7446 3.12078 0.240107 0
M  V30 530 C 57.2196 4.57859 0.113513 0
M  V30 531 N 58.7106 4.62887 0.170359 0
M  V30 532 C 59.4456 5.73319 0.0962517 0
M  V30 533 N 58.9416 6.92794 -0.0291881 0
M  V30 534 N 60.7346 5.61898 0.150551 0
M  V30 535 H 52.8856 1.89923 -0.950956 0
M  V30 536 H 55.1486 0.873824 -0.367608 0
M  V30 537 H 54.8546 3.42501 -0.799102 0
M  V30 538 H 54.7286 3.654 0.936083 0
M  V30 539 H 57.1156 2.69718 1.19733 0
M  V30 540 H 57.1966 2.49623 -0.558763 0
M  V30 541 H 56.8406 5.009 -0.840314 0
M  V30 542 H 56.7706 5.18299 0.931302 0
M  V30 543 H 59.2616 3.76954 0.26728 0
M  V30 544 H 59.5746 7.7276 -0.0789252 0
M  V30 545 H 57.9196 6.94971 -0.0640299 0
M  V30 546 H 61.1106 4.67448 0.246981 0
M  V30 547 H 61.2836 6.47938 0.0893365 0
M  V30 548 N 54.6897 -0.239769 1.55765 0
M  V30 549 C 55.9377 -0.964892 1.77579 0
M  V30 550 C 56.2587 -1.85582 0.598699 0
M  V30 551 O 55.5287 -1.92075 -0.385226 0
M  V30 552 H 54.1087 -0.359265 0.654933 0
M  V30 553 H 56.7707 -0.256001 1.93211 0
M  V30 554 H 55.8667 -1.58243 2.69009 0
M  V30 555 N 56.1678 -1.49265 -0.50573 0
M  V30 556 C 57.4448 -1.49012 -1.26707 0
M  V30 557 C 57.8248 -0.215205 -2.1 0
M  V30 558 O 57.1728 0.802547 -2.13943 0
M  V30 559 C 57.3828 -2.7663 -2.12783 0
M  V30 560 C 58.7308 -3.25932 -2.72127 0
M  V30 561 O 59.7548 -2.77715 -2.23054 0
M  V30 562 O 58.6138 -4.09897 -3.61451 0
M  V30 563 H 55.7078 -0.596197 -0.57313 0
M  V30 564 H 58.2538 -1.61524 -0.52039 0
M  V30 565 H 57.0258 -3.60916 -1.5118 0
M  V30 566 H 56.6488 -2.66956 -2.94653 0
M  V30 567 N 57.6459 0.756429 -1.3826 0
M  V30 568 C 58.5559 1.9009 -1.37488 0
M  V30 569 C 59.5719 1.71855 -0.272366 0
M  V30 570 O 60.7479 1.94827 -0.510318 0
M  V30 571 C 57.8129 3.25421 -1.19592 0
M  V30 572 C 56.8739 3.56202 -2.39622 0
M  V30 573 C 56.1069 4.85075 -2.2257 0
M  V30 574 O 56.3299 5.57246 -1.21793 0
M  V30 575 O 55.2639 5.15269 -3.11098 0
M  V30 576 H 59.0899 1.93695 -2.33914 0
M  V30 577 H 56.6749 0.901313 -1.1915 0
M  V30 578 H 58.5569 4.06337 -1.11661 0
M  V30 579 H 57.2319 3.22634 -0.262486 0
M  V30 580 H 56.1389 2.75458 -2.53128 0
M  V30 581 H 57.4719 3.63747 -3.31586 0
M  V30 582 N 59.124 1.23083 0.984299 0
M  V30 583 C 60.37 1.06214 1.72761 0
M  V30 584 C 60.703 -0.400584 1.90024 0
M  V30 585 O 59.978 -1.29672 1.44967 0
M  V30 586 C 60.261 1.78375 3.12817 0
M  V30 587 C 60.114 3.32296 3.03149 0
M  V30 588 C 61.433 1.54309 4.12161 0
M  V30 589 H 58.552 0.387251 0.627061 0
M  V30 590 H 61.194 1.51536 1.14616 0
M  V30 591 H 59.344 1.39848 3.62457 0
M  V30 592 H 61.016 3.8032 2.61064 0
M  V30 593 H 59.259 3.6153 2.39747 0
M  V30 594 H 59.93 3.77972 4.02295 0
M  V30 595 H 62.406 1.87791 3.71314 0
M  V30 596 H 61.282 2.07281 5.08258 0
M  V30 597 H 61.543 0.477572 4.39513 0
M  V30 598 N 60.6021 -1.18246 1.0419 0
M  V30 599 C 61.5321 -2.24127 0.654914 0
M  V30 600 C 62.5131 -1.66617 -0.342451 0
M  V30 601 O 63.6981 -1.92924 -0.222277 0
M  V30 602 C 60.8281 -3.47295 0.0183757 0
M  V30 603 C 59.7821 -4.17563 0.939414 0
M  V30 604 C 59.1081 -5.34438 0.167286 0
M  V30 605 C 60.4081 -4.70917 2.25908 0
M  V30 606 H 62.1021 -2.56753 1.54007 0
M  V30 607 H 59.6481 -1.23414 0.74195 0
M  V30 608 H 61.6011 -4.20572 -0.264082 0
M  V30 609 H 60.3251 -3.13907 -0.901664 0
M  V30 610 H 58.9841 -3.46186 1.20628 0
M  V30 611 H 58.6321 -4.97298 -0.7552 0
M  V30 612 H 58.3321 -5.82388 0.780901 0
M  V30 613 H 59.8561 -6.10504 -0.108125 0
M  V30 614 H 61.2701 -5.35882 2.03724 0
M  V30 615 H 59.6671 -5.29406 2.82577 0
M  V30 616 H 60.7371 -3.88272 2.9047 0
M  V30 617 N 62.0802 -0.821533 -1.34494 0
M  V30 618 C 63.3262 -0.409552 -1.98622 0
M  V30 619 C 63.6592 1.0244 -1.64984 0
M  V30 620 O 62.9342 1.71325 -0.920758 0
M  V30 621 C 63.2172 -0.610458 -3.54888 0
M  V30 622 C 63.0702 -2.09043 -3.98273 0
M  V30 623 C 64.3892 -0.0455379 -4.40076 0
M  V30 624 H 61.5082 -0.15028 -0.721516 0
M  V30 625 H 64.1502 -1.03384 -1.59411 0
M  V30 626 H 62.3002 -0.079044 -3.8842 0
M  V30 627 H 63.9722 -2.68537 -3.75081 0
M  V30 628 H 62.2152 -2.58139 -3.48635 0
M  V30 629 H 62.8862 -2.18182 -5.07051 0
M  V30 630 H 65.3622 -0.499557 -4.1309 0
M  V30 631 H 64.2382 -0.215922 -5.48475 0
M  V30 632 H 64.4992 1.04939 -4.29465 0
M  V30 633 N 63.5583 1.46682 -0.576371 0
M  V30 634 C 64.8043 2.02712 -0.0596221 0
M  V30 635 C 65.1373 1.44765 1.29448 0
M  V30 636 O 64.4123 0.610355 1.84675 0
M  V30 637 C 64.6953 3.60098 0.0129503 0
M  V30 638 C 64.5483 4.28441 -1.3696 0
M  V30 639 C 65.8673 4.34224 0.71678 0
M  V30 640 H 62.9863 0.736637 -0.0231407 0
M  V30 641 H 65.6283 1.74898 -0.742351 0
M  V30 642 H 63.7783 3.83926 0.594378 0
M  V30 643 H 65.4503 4.15896 -1.9957 0
M  V30 644 H 63.6933 3.8805 -1.93907 0
M  V30 645 H 64.3643 5.3716 -1.27135 0
M  V30 646 H 66.8403 4.15503 0.222908 0
M  V30 647 H 65.7163 5.43936 0.73657 0
M  V30 648 H 65.9773 4.04823 1.77682 0
M  V30 649 N 65.0364 0.313813 1.54444 0
M  V30 650 C 65.9844 -0.572171 2.25453 0
M  V30 651 C 66.9784 -1.12657 1.2651 0
M  V30 652 O 68.1844 -1.07573 1.44319 0
M  V30 653 H 64.5594 -0.203146 0.724041 0
M  V30 654 H 66.5304 0.0491145 2.9836 0
M  V30 655 C 65.2794 -1.72626 3.0182 0
M  V30 656 H 64.6024 -1.30891 3.77767 0
M  V30 657 H 66.0424 -2.32199 3.54767 0
M  V30 658 C 64.5014 -2.63806 2.09542 0
M  V30 659 O 65.0314 -3.65256 1.67185 0
M  V30 660 N 63.2374 -2.31824 1.75232 0
M  V30 661 H 62.7844 -1.49368 2.09873 0
M  V30 662 H 62.7424 -2.93095 1.13767 0
M  V30 663 N 66.5145 -1.57545 0.0417849 0
M  V30 664 C 67.7605 -1.92601 -0.635021 0
M  V30 665 C 68.0935 -0.919627 -1.71045 0
M  V30 666 O 67.3685 0.0557892 -1.9442 0
M  V30 667 C 67.6515 -3.38085 -1.23979 0
M  V30 668 C 67.5045 -4.49467 -0.173057 0
M  V30 669 C 68.8235 -3.83776 -2.15416 0
M  V30 670 H 65.9425 -0.700397 -0.229374 0
M  V30 671 H 68.5845 -1.89728 0.101633 0
M  V30 672 H 66.7345 -3.40664 -1.86762 0
M  V30 673 H 68.4065 -4.59018 0.458312 0
M  V30 674 H 66.6495 -4.30909 0.499996 0
M  V30 675 H 67.3205 -5.48323 -0.636054 0
M  V30 676 H 69.7965 -3.83013 -1.62605 0
M  V30 677 H 68.6725 -4.8624 -2.54679 0
M  V30 678 H 68.9335 -3.19998 -3.05047 0
M  V30 679 N 67.9926 0.231505 -1.5589 0
M  V30 680 C 69.2176 0.978689 -1.82856 0
M  V30 681 C 69.6426 1.77559 -0.620846 0
M  V30 682 O 69.0006 1.76119 0.430305 0
M  V30 683 C 69.0486 1.87997 -3.07716 0
M  V30 684 O 68.1526 2.97393 -2.85712 0
M  V30 685 H 67.4936 0.277663 -0.603158 0
M  V30 686 H 70.0236 0.24783 -2.03093 0
M  V30 687 H 70.0336 2.2917 -3.37558 0
M  V30 688 H 68.7086 1.29417 -3.95252 0
M  V30 689 H 67.2856 2.60238 -2.67078 0
M  V30 690 N 69.4707 1.49531 0.497807 0
M  V30 691 C 70.7187 1.58865 1.24926 0
M  V30 692 C 71.0397 0.278721 1.92998 0
M  V30 693 O 70.3097 -0.702144 1.82885 0
M  V30 694 H 68.8897 0.585343 0.464094 0
M  V30 695 H 71.5517 1.86174 0.57666 0
M  V30 696 H 70.6477 2.38633 2.01149 0
M  V30 697 N 70.9488 -0.749086 1.3866 0
M  V30 698 C 72.3648 -1.05276 1.19955 0
M  V30 699 C 72.5648 -2.01435 0.05134 0
M  V30 700 O 71.6208 -2.45232 -0.60147 0
M  V30 701 C 72.9338 -1.62853 2.52783 0
M  V30 702 C 74.4818 -1.75002 2.59506 0
M  V30 703 C 74.9568 -2.35991 3.92521 0
M  V30 704 N 76.4478 -2.43416 3.94085 0
M  V30 705 C 77.1828 -2.91511 4.9377 0
M  V30 706 N 76.6788 -3.39608 6.03853 0
M  V30 707 N 78.4718 -2.90592 4.81157 0
M  V30 708 H 70.6228 -0.111066 2.12109 0
M  V30 709 H 72.8858 -0.111901 0.941373 0
M  V30 710 H 72.5918 -0.99664 3.37283 0
M  V30 711 H 72.4658 -2.61854 2.715 0
M  V30 712 H 74.8528 -2.37317 1.75398 0
M  V30 713 H 74.9338 -0.74693 2.44652 0
M  V30 714 H 74.5778 -1.74308 4.77053 0
M  V30 715 H 74.5078 -3.3695 4.04688 0
M  V30 716 H 76.9988 -2.09405 3.14576 0
M  V30 717 H 77.3118 -3.74775 6.75843 0
M  V30 718 H 75.6568 -3.37653 6.07466 0
M  V30 719 H 78.8478 -2.52332 3.94267 0
M  V30 720 H 79.0208 -3.27762 5.58996 0
M  V30 721 N 72.4269 -1.23603 -0.977757 0
M  V30 722 C 73.8429 -0.999251 -1.24447 0
M  V30 723 C 74.0429 0.298053 -1.99283 0
M  V30 724 O 73.0989 1.01681 -2.31122 0
M  V30 725 C 74.4119 -2.20784 -2.04144 0
M  V30 726 C 75.9599 -2.25303 -2.17273 0
M  V30 727 C 76.4349 -3.45755 -3.00362 0
M  V30 728 N 77.9259 -3.4601 -3.07947 0
M  V30 729 C 78.6609 -4.35868 -3.72568 0
M  V30 730 N 78.1569 -5.35966 -4.38991 0
M  V30 731 N 79.9499 -4.23605 -3.6948 0
M  V30 732 H 72.1009 -2.06986 -0.476483 0
M  V30 733 H 74.3639 -0.907801 -0.273134 0
M  V30 734 H 74.0699 -3.14945 -1.56533 0
M  V30 735 H 73.9439 -2.22085 -3.04891 0
M  V30 736 H 76.3309 -1.3168 -2.64092 0
M  V30 737 H 76.4119 -2.28033 -1.15907 0
M  V30 738 H 76.0559 -4.39687 -2.5424 0
M  V30 739 H 75.9859 -3.40266 -4.01904 0
M  V30 740 H 78.4769 -2.73588 -2.60688 0
M  V30 741 H 78.7899 -6.00783 -4.86086 0
M  V30 742 H 77.1349 -5.39863 -4.37691 0
M  V30 743 H 80.3259 -3.44647 -3.16759 0
M  V30 744 H 80.4989 -4.93836 -4.1956 0
M  V30 745 N 73.905 1.17692 -1.04816 0
M  V30 746 C 75.152 1.87859 -0.75599 0
M  V30 747 C 75.48 1.80812 0.716752 0
M  V30 748 O 74.735 1.20819 1.53952 0
M  V30 749 C 75.034 3.37462 -1.17703 0
M  V30 750 C 74.7 3.64713 -2.65133 0
M  V30 751 C 73.362 3.71859 -3.05408 0
M  V30 752 C 75.714 3.76492 -3.60421 0
M  V30 753 C 73.042 3.88271 -4.39843 0
M  V30 754 C 75.394 3.94421 -4.94585 0
M  V30 755 C 74.058 3.99806 -5.3452 0
M  V30 756 H 73.328 0.687425 -0.276636 0
M  V30 757 H 75.975 1.39255 -1.31455 0
M  V30 758 H 74.28 3.88097 -0.537395 0
M  V30 759 H 75.977 3.90109 -0.928218 0
M  V30 760 H 72.567 3.59772 -2.32942 0
M  V30 761 H 76.751 3.70295 -3.30447 0
M  V30 762 H 72.007 3.90687 -4.70291 0
M  V30 763 H 76.181 4.02477 -5.68318 0
M  V30 764 H 73.808 4.12276 -6.38696 0
M  V30 765 N 75.3831 0.828654 1.34056 0
M  V30 766 C 76.2931 0.256725 2.33191 0
M  V30 767 C 77.3091 -0.611898 1.62886 0
M  V30 768 O 78.4851 -0.51844 1.94613 0
M  V30 769 C 75.5501 -0.567238 3.42028 0
M  V30 770 C 74.6111 0.324458 4.28072 0
M  V30 771 C 73.8441 -0.460274 5.31712 0
M  V30 772 O 74.0671 -1.693 5.44696 0
M  V30 773 O 73.0011 0.160391 6.01686 0
M  V30 774 H 76.8271 1.07739 2.83947 0
M  V30 775 H 74.4121 0.59093 1.37217 0
M  V30 776 H 76.2941 -1.03582 4.08471 0
M  V30 777 H 74.9691 -1.36513 2.93506 0
M  V30 778 H 73.8761 0.840659 3.64532 0
M  V30 779 H 75.2091 1.08685 4.8005 0
M  V30 780 N 76.8612 -1.46375 0.584142 0
M  V30 781 C 78.0892 -2.06761 0.0759296 0
M  V30 782 C 78.5042 -1.43266 -1.22965 0
M  V30 783 O 77.8612 -0.538458 -1.74376 0
M  V30 784 C 77.9122 -3.61375 -0.0950384 0
M  V30 785 O 77.6332 -4.22495 1.15887 0
M  V30 786 C 79.1342 -4.38693 -0.637434 0
M  V30 787 H 76.3542 -0.668479 0.0581075 0
M  V30 788 H 78.8982 -1.8798 0.805218 0
M  V30 789 H 77.0532 -3.79578 -0.774554 0
M  V30 790 H 77.4672 -5.15385 0.973598 0
M  V30 791 H 78.9412 -5.47464 -0.706237 0
M  V30 792 H 79.4182 -4.06836 -1.65472 0
M  V30 793 H 80.0242 -4.25299 0.00725967 0
M  V30 794 N 78.3393 -0.321999 -1.54275 0
M  V30 795 C 79.5853 0.274234 -2.01543 0
M  V30 796 C 79.9403 1.499 -1.20614 0
M  V30 797 O 79.2333 1.89546 -0.279804 0
M  V30 798 C 79.4273 0.661769 -3.5122 0
M  V30 799 C 79.2563 -0.523892 -4.46638 0
M  V30 800 C 78.0263 -1.02251 -4.94846 0
M  V30 801 C 80.2243 -1.37558 -4.95563 0
M  V30 802 N 78.2063 -2.17274 -5.74165 0
M  V30 803 C 79.5773 -2.37301 -5.7279 0
M  V30 804 C 81.6323 -1.40353 -4.77709 0
M  V30 805 C 80.3353 -3.3964 -6.34064 0
M  V30 806 C 82.3613 -2.41562 -5.39817 0
M  V30 807 C 81.7233 -3.40031 -6.16894 0
M  V30 808 H 77.8223 0.0642367 -0.779357 0
M  V30 809 H 80.4063 -0.456683 -1.89268 0
M  V30 810 H 78.5773 1.36182 -3.63743 0
M  V30 811 H 80.3093 1.23934 -3.85256 0
M  V30 812 H 77.0643 -0.594046 -4.6986 0
M  V30 813 H 77.4883 -2.75289 -6.18502 0
M  V30 814 H 82.1303 -0.655907 -4.17681 0
M  V30 815 H 79.8483 -4.15309 -6.93213 0
M  V30 816 H 83.4343 -2.44524 -5.2792 0
M  V30 817 H 82.3143 -4.17063 -6.64099 0
M  V30 818 N 79.8174 1.5752 -0.0501392 0
M  V30 819 C 80.7644 2.1147 0.924603 0
M  V30 820 C 81.7344 1.02182 1.30951 0
M  V30 821 O 82.9194 1.29723 1.39916 0
M  V30 822 C 80.0594 2.66337 2.19451 0
M  V30 823 C 79.1724 3.89708 1.86418 0
M  V30 824 C 78.3074 4.32893 3.07859 0
M  V30 825 C 77.3464 5.48967 2.70742 0
M  V30 826 N 76.4834 5.87211 3.84874 0
M  V30 827 H 81.3234 2.94465 0.457639 0
M  V30 828 H 78.8604 1.45531 0.214266 0
M  V30 829 H 80.8184 2.96247 2.93758 0
M  V30 830 H 79.4484 1.86141 2.63726 0
M  V30 831 H 78.5004 3.66396 1.02264 0
M  V30 832 H 79.8124 4.74074 1.55096 0
M  V30 833 H 78.9664 4.6435 3.90466 0
M  V30 834 H 77.7054 3.47336 3.42358 0
M  V30 835 H 76.7104 5.17183 1.86551 0
M  V30 836 H 77.9354 6.3624 2.37436 0
M  V30 837 H 75.8814 5.04607 4.19175 0
M  V30 838 H 75.7984 6.66266 3.57247 0
M  V30 839 H 77.0664 6.23282 4.68123 0
M  V30 840 N 81.2955 -0.223234 1.56011 0
M  V30 841 C 82.2435 -1.29627 1.93131 0
M  V30 842 C 83.2375 -1.48608 0.813146 0
M  V30 843 O 84.4435 -1.49802 0.997966 0
M  V30 844 H 80.8185 -0.434563 0.613726 0
M  V30 845 H 82.7895 -0.955995 2.82672 0
M  V30 846 C 81.5385 -2.63983 2.26292 0
M  V30 847 H 80.8615 -2.50185 3.11846 0
M  V30 848 H 82.3015 -3.3788 2.56151 0
M  V30 849 C 80.7605 -3.18866 1.08747 0
M  V30 850 O 81.2905 -4.00192 0.347727 0
M  V30 851 N 79.4965 -2.77217 0.871743 0
M  V30 852 H 79.0435 -2.1119 1.47501 0
M  V30 853 H 79.0015 -3.1428 0.0869905 0
M  V30 854 N 82.7736 -1.49793 -0.48987 0
M  V30 855 C 84.0016 -1.63568 -1.26701 0
M  V30 856 C 84.4166 -0.311465 -1.86213 0
M  V30 857 O 83.7736 0.704416 -1.68357 0
M  V30 858 C 83.8246 -2.71284 -2.38929 0
M  V30 859 O 83.5456 -3.9857 -1.81861 0
M  V30 860 C 85.0466 -2.95864 -3.3012 0
M  V30 861 H 82.2666 -0.550342 -0.383881 0
M  V30 862 H 84.8106 -1.95898 -0.586864 0
M  V30 863 H 82.9656 -2.417 -3.02753 0
M  V30 864 H 83.3796 -4.57993 -2.55622 0
M  V30 865 H 84.8536 -3.74941 -4.05121 0
M  V30 866 H 85.3306 -2.06206 -3.87783 0
M  V30 867 H 85.9366 -3.26907 -2.72051 0
M  V30 868 N 84.2517 0.741722 -1.39055 0
M  V30 869 C 85.1817 1.869 -1.39966 0
M  V30 870 C 86.1627 1.6804 -0.26392 0
M  V30 871 O 87.3477 1.88458 -0.468755 0
M  V30 872 C 84.4777 3.24572 -1.23574 0
M  V30 873 C 83.4317 3.58056 -2.34477 0
M  V30 874 C 82.7577 4.94593 -2.0318 0
M  V30 875 C 84.0577 3.61716 -3.76774 0
M  V30 876 H 85.7517 1.86395 -2.34302 0
M  V30 877 H 83.2977 0.895361 -1.1278 0
M  V30 878 H 85.2507 4.031 -1.22834 0
M  V30 879 H 83.9747 3.25587 -0.257045 0
M  V30 880 H 82.6337 2.81854 -2.34423 0
M  V30 881 H 82.2817 4.92181 -1.03765 0
M  V30 882 H 81.9817 5.17964 -2.77465 0
M  V30 883 H 83.5057 5.75486 -2.04079 0
M  V30 884 H 84.9197 4.30335 -3.78794 0
M  V30 885 H 83.3167 3.96603 -4.50362 0
M  V30 886 H 84.3867 2.61672 -4.08235 0
M  V30 887 N 85.7298 1.2412 0.971189 0
M  V30 888 C 87.0068 0.986867 1.6888 0
M  V30 889 C 87.3868 -0.491857 2.0529 0
M  V30 890 O 86.7348 -1.46531 1.75331 0
M  V30 891 C 86.9448 1.9063 2.92338 0
M  V30 892 C 88.2928 2.17515 3.64654 0
M  V30 893 O 89.3168 1.88254 3.02388 0
M  V30 894 O 88.1758 2.6719 4.7673 0
M  V30 895 H 85.2698 0.372944 0.738134 0
M  V30 896 H 87.8158 1.35203 1.02559 0
M  V30 897 H 86.5878 2.90552 2.62097 0
M  V30 898 H 86.2108 1.54408 3.66393 0
M  V30 899 N 87.2079 -1.17134 1.05439 0
M  V30 900 C 88.6239 -1.39454 0.776201 0
M  V30 901 C 88.8239 -1.91454 -0.628307 0
M  V30 902 O 87.8799 -2.10777 -1.39031 0
M  V30 903 C 89.1929 -2.38305 1.83388 0
M  V30 904 C 90.7409 -2.52006 1.85639 0
M  V30 905 C 91.2159 -3.54133 2.90437 0
M  V30 906 N 92.7069 -3.61653 2.89415 0
M  V30 907 C 93.4419 -4.4044 3.67152 0
M  V30 908 N 92.9379 -5.22721 4.54681 0
M  V30 909 N 94.7309 -4.35337 3.55581 0
M  V30 910 H 86.8819 -0.817134 1.96053 0
M  V30 911 H 89.1449 -0.421626 0.849079 0
M  V30 912 H 88.8509 -2.07173 2.84204 0
M  V30 913 H 88.7249 -3.37841 1.67761 0
M  V30 914 H 91.1119 -2.82447 0.85486 0
M  V30 915 H 91.1929 -1.52537 2.05344 0
M  V30 916 H 90.8369 -3.24431 3.90777 0
M  V30 917 H 90.7669 -4.53313 2.67983 0
M  V30 918 H 93.2579 -3.02909 2.25952 0
M  V30 919 H 93.5709 -5.80027 5.10674 0
M  V30 920 H 91.9159 -5.22093 4.58741 0
M  V30 921 H 95.1069 -3.70112 2.86592 0
M  V30 922 H 95.2799 -4.96494 4.1641 0
M  V30 923 N 88.686 -0.835752 -1.33615 0
M  V30 924 C 89.916 -0.442701 -2.01801 0
M  V30 925 C 90.324 0.959807 -1.63047 0
M  V30 926 O 89.667 1.63468 -0.838088 0
M  V30 927 C 89.729 -0.480125 -3.56279 0
M  V30 928 C 89.393 -1.8382 -4.18401 0
M  V30 929 C 90.39 -2.80097 -4.37998 0
M  V30 930 C 88.075 -2.13019 -4.54894 0
M  V30 931 C 90.069 -4.03736 -4.9323 0
M  V30 932 C 87.756 -3.36916 -5.09834 0
M  V30 933 C 88.754 -4.32091 -5.28948 0
M  V30 934 O 88.442 -5.53797 -5.82721 0
M  V30 935 H 88.174 -0.17441 -0.653114 0
M  V30 936 H 90.728 -1.129 -1.71589 0
M  V30 937 H 88.958 0.262931 -3.85805 0
M  V30 938 H 90.647 -0.105335 -4.05763 0
M  V30 939 H 91.413 -2.58838 -4.10156 0
M  V30 940 H 87.292 -1.39733 -4.39313 0
M  V30 941 H 90.836 -4.78034 -5.08064 0
M  V30 942 H 86.733 -3.58033 -5.37106 0
M  V30 943 H 87.501 -5.55494 -6.0114 0
M  V30 944 N 90.1641 1.46063 -0.591896 0
M  V30 945 C 91.5751 1.85944 -0.167822 0
M  V30 946 C 91.9261 1.49429 1.27143 0
M  V30 947 O 91.0511 0.913515 1.96173 0
M  V30 948 C 91.6461 3.37489 -0.297794 0
M  V30 949 C 90.2051 3.76332 0.0714732 0
M  V30 950 C 89.3521 2.7006 -0.629509 0
M  V30 951 H 92.3031 1.37087 -0.799555 0
M  V30 952 H 92.3241 3.77532 0.474349 0
M  V30 953 H 91.8361 3.64034 -1.3454 0
M  V30 954 H 89.9371 3.55405 1.11886 0
M  V30 955 H 90.0501 4.78088 -0.311245 0
M  V30 956 H 88.4141 2.54607 -0.0687867 0
M  V30 957 H 89.1971 2.99444 -1.67894 0
M  V30 958 N 91.6422 0.330177 1.54103 0
M  V30 959 C 92.9192 -0.325007 1.92881 0
M  V30 960 C 93.2992 -1.6934 1.26045 0
M  V30 961 O 92.6472 -2.24855 0.406526 0
M  V30 962 C 92.8572 -0.410634 3.46576 0
M  V30 963 C 94.2052 -0.667801 4.19316 0
M  V30 964 O 95.2292 -0.49329 3.52768 0
M  V30 965 O 94.0882 -1.00491 5.37181 0
M  V30 966 H 91.1822 -0.186873 0.80561 0
M  V30 967 H 93.7282 0.380376 1.65382 0
M  V30 968 H 92.5002 0.550164 3.87413 0
M  V30 969 H 92.1232 -1.16333 3.802 0
M  V30 970 N 93.1203 -1.57491 0.0584922 0
M  V30 971 C 94.3483 -1.97296 -0.623037 0
M  V30 972 C 94.7633 -0.936338 -1.63946 0
M  V30 973 O 94.1203 0.0785981 -1.82331 0
M  V30 974 C 94.1713 -3.37183 -1.30345 0
M  V30 975 O 93.8923 -4.36872 -0.32773 0
M  V30 976 C 95.3933 -3.91788 -2.07406 0
M  V30 977 H 92.6133 -0.649153 -0.169826 0
M  V30 978 H 95.1573 -2.04106 0.12696 0
M  V30 979 H 93.3123 -3.31502 -2.00463 0
M  V30 980 H 93.7263 -5.18141 -0.814269 0
M  V30 981 H 95.2003 -4.91926 -2.50425 0
M  V30 982 H 95.6773 -3.27609 -2.92521 0
M  V30 983 H 96.2833 -4.00829 -1.42184 0
M  V30 984 N 94.5984 0.214957 -1.56127 0
M  V30 985 C 95.5284 1.2695 -1.95974 0
M  V30 986 C 96.5094 1.48539 -0.828868 0
M  V30 987 O 97.6944 1.60611 -1.09168 0
M  V30 988 C 94.8244 2.61794 -2.28214 0
M  V30 989 C 93.7784 2.54851 -3.43853 0
M  V30 990 C 93.1044 3.93785 -3.61715 0
M  V30 991 C 94.4044 2.09065 -4.78632 0
M  V30 992 H 96.0984 0.93846 -2.84312 0
M  V30 993 H 93.6444 0.449996 -1.36788 0
M  V30 994 H 95.5974 3.35731 -2.54682 0
M  V30 995 H 94.3214 2.96599 -1.36736 0
M  V30 996 H 92.9804 1.8337 -3.17444 0
M  V30 997 H 92.6284 4.25908 -2.67602 0
M  V30 998 H 92.3284 3.90019 -4.39498 0
M  V30 999 H 93.8524 4.69374 -3.90539 0
M  V30 1000 H 95.2664 2.7275 -5.04262 0
M  V30 1001 H 93.6634 2.16346 -5.59745 0
M  V30 1002 H 94.7334 1.04315 -4.73547 0
M  V30 1003 N 96.0765 1.50051 0.48192 0
M  V30 1004 C 97.0065 1.71046 1.58951 0
M  V30 1005 C 97.9875 0.559288 1.60642 0
M  V30 1006 O 99.1725 0.797243 1.77081 0
M  V30 1007 C 96.3025 1.79462 2.97339 0
M  V30 1008 C 95.2565 2.94558 3.10515 0
M  V30 1009 C 94.5825 2.88105 4.50444 0
M  V30 1010 C 95.8825 4.35227 2.88747 0
M  V30 1011 H 97.5765 2.6378 1.41635 0
M  V30 1012 H 95.1225 1.26936 0.679942 0
M  V30 1013 H 97.0755 1.92734 3.74742 0
M  V30 1014 H 95.7995 0.833412 3.15788 0
M  V30 1015 H 94.4585 2.80918 2.35543 0
M  V30 1016 H 94.1065 1.89853 4.65795 0
M  V30 1017 H 93.8065 3.65366 4.60197 0
M  V30 1018 H 95.3305 3.03412 5.29881 0
M  V30 1019 H 96.7445 4.49449 3.55905 0
M  V30 1020 H 95.1415 5.13856 3.09955 0
M  V30 1021 H 96.2115 4.48347 1.84696 0
M  V30 1022 N 97.5546 -0.734337 1.39446 0
M  V30 1023 C 98.8026 -1.49096 1.36436 0
M  V30 1024 C 99.1236 -1.94961 -0.0388255 0
M  V30 1025 O 98.3936 -1.69033 -0.990191 0
M  V30 1026 H 96.9736 -0.5531 0.502085 0
M  V30 1027 H 99.6356 -0.871725 1.74319 0
M  V30 1028 H 98.7316 -2.37276 2.02747 0
M  V30 1029 N 99.0327 -1.24633 -0.964593 0
M  V30 1030 C 100.258 -1.11596 -1.74818 0
M  V30 1031 C 100.683 0.32723 -1.85232 0
M  V30 1032 O 100.041 1.23695 -1.32549 0
M  V30 1033 C 100.089 -1.76397 -3.1451 0
M  V30 1034 O 99.1927 -1.03685 -3.99153 0
M  V30 1035 H 98.5337 -0.390196 -0.537255 0
M  V30 1036 H 101.064 -1.65002 -1.20977 0
M  V30 1037 H 101.074 -1.8228 -3.65018 0
M  V30 1038 H 99.7487 -2.81401 -3.06246 0
M  V30 1039 H 98.3257 -1.05611 -3.57632 0
M  V30 1040 N 100.511 1.16574 -1.06058 0
M  V30 1041 C 101.736 1.91493 -0.796562 0
M  V30 1042 C 102.161 1.76773 0.642868 0
M  V30 1043 O 101.519 1.09142 1.44768 0
M  V30 1044 C 101.567 3.40293 -1.19303 0
M  V30 1045 O 100.671 4.11074 -0.330394 0
M  V30 1046 H 100.012 0.596678 -0.291326 0
M  V30 1047 H 102.542 1.47708 -1.41575 0
M  V30 1048 H 102.552 3.91057 -1.16356 0
M  V30 1049 H 101.227 3.50326 -2.24153 0
M  V30 1050 H 99.8038 3.70513 -0.421225 0
M  V30 1051 N 101.989 0.842826 1.3317 0
M  V30 1052 C 102.899 0.281444 2.32906 0
M  V30 1053 C 103.915 -0.594587 1.63526 0
M  V30 1054 O 105.091 -0.49777 1.95152 0
M  V30 1055 C 102.156 -0.530929 3.42611 0
M  V30 1056 C 101.217 0.369843 4.27704 0
M  V30 1057 C 100.45 -0.403853 5.3217 0
M  V30 1058 O 100.673 -1.63513 5.46461 0
M  V30 1059 O 99.6069 0.224199 6.01482 0
M  V30 1060 H 103.433 1.10744 2.82789 0
M  V30 1061 H 101.018 0.60545 1.36582 0
M  V30 1062 H 102.9 -0.992437 4.09547 0
M  V30 1063 H 101.575 -1.33392 2.94938 0
M  V30 1064 H 100.482 0.879275 3.6362 0
M  V30 1065 H 101.815 1.13771 4.78871 0
M  V30 1066 N 103.467 -1.45747 0.599634 0
M  V30 1067 C 104.414 -2.30467 -0.123849 0
M  V30 1068 C 105.384 -1.41632 -0.86774 0
M  V30 1069 O 106.569 -1.70568 -0.855056 0
M  V30 1070 C 103.709 -3.26402 -1.12051 0
M  V30 1071 C 102.822 -4.3034 -0.37832 0
M  V30 1072 C 101.957 -5.13389 -1.364 0
M  V30 1073 C 100.996 -6.09061 -0.609171 0
M  V30 1074 N 100.133 -6.84918 -1.54374 0
M  V30 1075 H 104.973 -2.91802 0.604627 0
M  V30 1076 H 102.51 -1.43797 0.309972 0
M  V30 1077 H 104.468 -3.80482 -1.7114 0
M  V30 1078 H 103.098 -2.66839 -1.8165 0
M  V30 1079 H 102.15 -3.78984 0.327929 0
M  V30 1080 H 103.462 -4.98354 0.210997 0
M  V30 1081 H 102.616 -5.7183 -2.02719 0
M  V30 1082 H 101.355 -4.45376 -1.98725 0
M  V30 1083 H 100.36 -5.49758 0.0676979 0
M  V30 1084 H 101.585 -6.79099 0.00891991 0
M  V30 1085 H 99.531 -6.19601 -2.15478 0
M  V30 1086 H 99.448 -7.49254 -1.00766 0
M  V30 1087 H 100.716 -7.47906 -2.19676 0
M  V30 1088 N 104.945 -0.338344 -1.53925 0
M  V30 1089 C 105.855 0.529421 -2.28548 0
M  V30 1090 C 106.871 1.11645 -1.3346 0
M  V30 1091 O 108.047 1.13325 -1.66492 0
M  V30 1092 C 105.112 1.66713 -3.03987 0
M  V30 1093 C 104.173 1.11041 -4.14691 0
M  V30 1094 C 103.406 2.19389 -4.86522 0
M  V30 1095 O 103.629 3.40013 -4.57982 0
M  V30 1096 O 102.563 1.83976 -5.73094 0
M  V30 1097 H 106.389 -0.0770399 -3.03602 0
M  V30 1098 H 103.974 -0.103555 -1.49041 0
M  V30 1099 H 105.856 2.32918 -3.5118 0
M  V30 1100 H 104.531 2.25949 -2.31794 0
M  V30 1101 H 103.438 0.413024 -3.71813 0
M  V30 1102 H 104.771 0.562975 -4.8897 0
M  V30 1103 N 106.423 1.57458 -0.0668435 0
M  V30 1104 C 107.67 1.93301 0.603406 0
M  V30 1105 C 107.998 0.946486 1.69917 0
M  V30 1106 O 107.253 -0.0387021 1.95662 0
M  V30 1107 C 107.552 3.35784 1.22409 0
M  V30 1108 C 107.218 4.50179 0.254955 0
M  V30 1109 C 105.88 4.81199 -0.0116746 0
M  V30 1110 C 108.232 5.19598 -0.408338 0
M  V30 1111 C 105.56 5.78978 -0.94877 0
M  V30 1112 C 107.912 6.18381 -1.33372 0
M  V30 1113 C 106.576 6.47821 -1.60887 0
M  V30 1114 H 105.846 0.707338 0.220802 0
M  V30 1115 H 108.493 1.91012 -0.136665 0
M  V30 1116 H 106.798 3.34515 2.03978 0
M  V30 1117 H 108.495 3.60804 1.74989 0
M  V30 1118 H 105.085 4.25983 0.472954 0
M  V30 1119 H 109.269 4.95832 -0.215456 0
M  V30 1120 H 104.525 6.00115 -1.16925 0
M  V30 1121 H 108.699 6.71277 -1.85367 0
M  V30 1122 H 106.326 7.23399 -2.33661 0
M  V30 1123 N 107.901 -0.206675 1.56239 0
M  V30 1124 C 109.148 -0.928842 1.79941 0
M  V30 1125 C 109.476 -1.83734 0.638131 0
M  V30 1126 O 108.731 -1.92039 -0.376746 0
M  V30 1127 C 109.03 -1.78675 3.09532 0
M  V30 1128 C 108.696 -1.03022 4.38973 0
M  V30 1129 C 107.358 -0.821302 4.74139 0
M  V30 1130 C 109.71 -0.497081 5.18824 0
M  V30 1131 C 107.038 -0.0675719 5.86661 0
M  V30 1132 C 109.39 0.24338 6.32132 0
M  V30 1133 C 108.054 0.463422 6.65889 0
M  V30 1134 H 107.324 -0.339887 0.658451 0
M  V30 1135 H 109.971 -0.195977 1.90495 0
M  V30 1136 H 108.276 -2.58794 2.94165 0
M  V30 1137 H 109.973 -2.34792 3.25075 0
M  V30 1138 H 106.563 -1.20306 4.11369 0
M  V30 1139 H 110.747 -0.645921 4.92079 0
M  V30 1140 H 106.003 0.112995 6.11296 0
M  V30 1141 H 110.177 0.66393 6.93228 0
M  V30 1142 H 107.804 1.04938 7.52922 0
M  V30 1143 N 109.379 -1.50304 -0.473955 0
M  V30 1144 C 110.609 -1.64663 -1.24778 0
M  V30 1145 C 111.017 -0.328174 -1.86332 0
M  V30 1146 O 110.36 0.699536 -1.69859 0
M  V30 1147 C 110.422 -2.6778 -2.39863 0
M  V30 1148 C 110.086 -4.11413 -1.98969 0
M  V30 1149 C 111.083 -4.97372 -1.51385 0
M  V30 1150 C 108.768 -4.57312 -2.07777 0
M  V30 1151 C 110.762 -6.27277 -1.13148 0
M  V30 1152 C 108.449 -5.87223 -1.69152 0
M  V30 1153 C 109.447 -6.72031 -1.21915 0
M  V30 1154 O 109.135 -7.99518 -0.838237 0
M  V30 1155 H 108.867 -0.556602 -0.383627 0
M  V30 1156 H 111.421 -1.9726 -0.572491 0
M  V30 1157 H 109.651 -2.30419 -3.10554 0
M  V30 1158 H 111.34 -2.71388 -3.01833 0
M  V30 1159 H 112.106 -4.63128 -1.44004 0
M  V30 1160 H 107.985 -3.91449 -2.43493 0
M  V30 1161 H 111.529 -6.93425 -0.762077 0
M  V30 1162 H 107.426 -6.20989 -1.76191 0
M  V30 1163 H 108.194 -8.12764 -0.967339 0
M  V30 1164 N 110.857 0.726932 -1.39834 0
M  V30 1165 C 112.134 1.47902 -1.28001 0
M  V30 1166 C 112.514 2.1083 0.106789 0
M  V30 1167 O 111.862 1.99242 1.11869 0
M  V30 1168 C 112.072 2.52392 -2.41038 0
M  V30 1169 C 113.42 3.18546 -2.80737 0
M  V30 1170 O 114.444 2.62708 -2.40547 0
M  V30 1171 O 113.303 4.19604 -3.50135 0
M  V30 1172 H 110.397 0.657163 -0.502062 0
M  V30 1173 H 112.943 0.760071 -1.51727 0
M  V30 1174 H 111.715 2.04329 -3.33715 0
M  V30 1175 H 111.338 3.31837 -2.19021 0
M  V30 1176 N 112.336 1.25143 0.95797 0
M  V30 1177 C 113.299 1.05321 2.03569 0
M  V30 1178 C 114.299 0.007152 1.60798 0
M  V30 1179 O 115.489 0.24903 1.72411 0
M  V30 1180 C 112.621 0.598394 3.35607 0
M  V30 1181 H 113.814 2.00986 2.22586 0
M  V30 1182 H 111.367 1.07502 1.13459 0
M  V30 1183 H 112.102 -0.361014 3.22284 0
M  V30 1184 H 111.887 1.35351 3.67998 0
M  V30 1185 H 113.377 0.48104 4.1482 0
M  V30 1186 N 113.814 -1.1601 1.06675 0
M  V30 1187 C 115.091 -1.82679 0.699114 0
M  V30 1188 C 115.471 -1.94559 -0.819137 0
M  V30 1189 O 114.819 -1.49169 -1.73092 0
M  V30 1190 C 115.029 -3.19445 1.40555 0
M  V30 1191 C 116.377 -3.95171 1.55323 0
M  V30 1192 O 117.401 -3.28976 1.36577 0
M  V30 1193 O 116.26 -5.13833 1.86112 0
M  V30 1194 H 113.354 -0.788954 0.247951 0
M  V30 1195 H 115.9 -1.23179 1.16726 0
M  V30 1196 H 114.672 -3.05856 2.44065 0
M  V30 1197 H 114.295 -3.86625 0.927733 0
M  V30 1198 N 115.292 -0.849877 -1.32721 0
M  V30 1199 C 116.517 -0.463856 -2.02146 0
M  V30 1200 C 116.942 0.930449 -1.63476 0
M  V30 1201 O 116.3 1.61033 -0.832952 0
M  V30 1202 C 116.348 -0.604955 -3.55489 0
M  V30 1203 O 115.452 0.36425 -4.10788 0
M  V30 1204 H 114.793 -0.187046 -0.637111 0
M  V30 1205 H 117.323 -1.14775 -1.69375 0
M  V30 1206 H 117.333 -0.490696 -4.05038 0
M  V30 1207 H 116.008 -1.62174 -3.82978 0
M  V30 1208 H 114.585 0.206628 -3.72327 0
M  V30 1209 N 116.77 1.45427 -0.607355 0
M  V30 1210 C 118.018 2.01841 -0.102253 0
M  V30 1211 C 118.339 1.47832 1.27164 0
M  V30 1212 O 117.609 0.672497 1.83995 0
M  V30 1213 H 116.189 0.746188 -0.0348101 0
M  V30 1214 H 118.851 1.78229 -0.7887 0
M  V30 1215 H 117.947 3.12057 -0.0518585 0
M  V30 1216 N 118.248 0.346503 1.53744 0
M  V30 1217 C 119.158 -0.517293 2.28826 0
M  V30 1218 C 120.174 -1.10935 1.3405 0
M  V30 1219 O 121.35 -1.1244 1.6709 0
M  V30 1220 C 118.415 -1.65098 3.04866 0
M  V30 1221 C 117.476 -1.0884 4.15274 0
M  V30 1222 C 116.709 -2.16806 4.87679 0
M  V30 1223 O 116.932 -3.3758 4.59778 0
M  V30 1224 O 115.866 -1.80934 5.74061 0
M  V30 1225 H 119.692 0.0931396 3.03557 0
M  V30 1226 H 117.277 0.111458 1.48984 0
M  V30 1227 H 119.159 -2.31053 3.5241 0
M  V30 1228 H 117.834 -2.24717 2.32989 0
M  V30 1229 H 116.741 -0.3933 3.72027 0
M  V30 1230 H 118.074 -0.537036 4.89261 0
M  V30 1231 N 119.726 -1.57421 0.075193 0
M  V30 1232 C 120.956 -1.97659 -0.601203 0
M  V30 1233 C 121.364 -0.952427 -1.63479 0
M  V30 1234 O 120.707 0.0688241 -1.83571 0
M  V30 1235 C 120.769 -3.34218 -1.32434 0
M  V30 1236 C 120.433 -4.5484 -0.443826 0
M  V30 1237 C 121.43 -5.19034 0.299969 0
M  V30 1238 C 119.115 -5.00952 -0.367709 0
M  V30 1239 C 121.109 -6.27695 1.10807 0
M  V30 1240 C 118.796 -6.09484 0.444058 0
M  V30 1241 C 119.794 -6.72719 1.18061 0
M  V30 1242 O 119.482 -7.79161 1.97898 0
M  V30 1243 H 119.214 -0.65494 -0.167422 0
M  V30 1244 H 121.768 -2.04886 0.145157 0
M  V30 1245 H 119.998 -3.23615 -2.11685 0
M  V30 1246 H 121.687 -3.59038 -1.89331 0
M  V30 1247 H 122.453 -4.84351 0.250776 0
M  V30 1248 H 118.332 -4.51509 -0.930638 0
M  V30 1249 H 121.876 -6.76982 1.68347 0
M  V30 1250 H 117.773 -6.43601 0.494803 0
M  V30 1251 H 118.541 -7.96055 1.90367 0
M  V30 1252 N 121.204 0.198386 -1.56346 0
M  V30 1253 C 122.451 0.919286 -1.80431 0
M  V30 1254 C 122.779 1.83393 -0.647866 0
M  V30 1255 O 122.034 1.92236 0.366556 0
M  V30 1256 C 122.333 1.77031 -3.10475 0
M  V30 1257 C 121.999 1.00693 -4.39513 0
M  V30 1258 C 120.661 0.796145 -4.74568 0
M  V30 1259 C 123.013 0.469559 -5.19081 0
M  V30 1260 C 120.341 0.0364588 -5.86689 0
M  V30 1261 C 122.693 -0.2769 -6.31994 0
M  V30 1262 C 121.357 -0.49873 -6.65634 0
M  V30 1263 H 120.627 0.336391 -0.660244 0
M  V30 1264 H 123.274 0.185872 -1.90596 0
M  V30 1265 H 121.579 2.5723 -2.95533 0
M  V30 1266 H 123.276 2.33065 -3.26315 0
M  V30 1267 H 119.866 1.18122 -4.12001 0
M  V30 1268 H 124.05 0.619816 -4.92414 0
M  V30 1269 H 119.306 -0.145412 -6.11227 0
M  V30 1270 H 123.48 -0.700684 -6.92866 0
M  V30 1271 H 121.107 -1.0893 -7.52355 0
M  V30 1272 N 122.682 1.50554 0.465978 0
M  V30 1273 C 123.929 1.61798 1.21768 0
M  V30 1274 C 124.257 0.320696 1.91838 0
M  V30 1275 O 123.512 -0.693724 1.82992 0
M  V30 1276 C 123.811 2.75152 2.28093 0
M  V30 1277 C 123.477 4.15454 1.75239 0
M  V30 1278 C 122.139 4.53628 1.60546 0
M  V30 1279 C 124.491 5.03121 1.36083 0
M  V30 1280 C 121.819 5.77204 1.05128 0
M  V30 1281 C 124.171 6.27249 0.821056 0
M  V30 1282 C 122.835 6.64221 0.660795 0
M  V30 1283 H 122.105 0.592063 0.445582 0
M  V30 1284 H 124.752 1.84503 0.512927 0
M  V30 1285 H 123.057 2.46556 3.04496 0
M  V30 1286 H 124.754 2.81055 2.86023 0
M  V30 1287 H 121.344 3.85341 1.87644 0
M  V30 1288 H 125.528 4.74257 1.46267 0
M  V30 1289 H 120.784 6.0452 0.91462 0
M  V30 1290 H 124.958 6.94537 0.509018 0
M  V30 1291 H 122.585 7.59854 0.229226 0
M  V30 1292 N 124.16 -0.719506 1.40217 0
M  V30 1293 C 125.437 -1.47221 1.28784 0
M  V30 1294 C 125.817 -2.10883 -0.0956067 0
M  V30 1295 O 125.165 -1.99833 -1.10811 0
M  V30 1296 C 125.375 -2.5111 2.42373 0
M  V30 1297 C 126.723 -3.17053 2.82423 0
M  V30 1298 O 127.747 -2.61429 2.41937 0
M  V30 1299 O 126.606 -4.17742 3.52355 0
M  V30 1300 H 123.7 -0.654491 0.50554 0
M  V30 1301 H 126.246 -0.752014 1.52128 0
M  V30 1302 H 125.018 -2.02556 3.34793 0
M  V30 1303 H 124.641 -3.3067 2.20778 0
M  V30 1304 N 125.638 -1.25649 -0.95132 0
M  V30 1305 C 127.054 -1.02542 -1.223 0
M  V30 1306 C 127.254 0.255715 -1.99871 0
M  V30 1307 O 126.31 0.967558 -2.33226 0
M  V30 1308 C 127.623 -2.25065 -1.99415 0
M  V30 1309 C 129.171 -2.29861 -2.12446 0
M  V30 1310 C 129.646 -3.52048 -2.92961 0
M  V30 1311 N 131.137 -3.52465 -3.00538 0
M  V30 1312 C 131.872 -4.43672 -3.63239 0
M  V30 1313 N 131.368 -5.45157 -4.27523 0
M  V30 1314 N 133.161 -4.31346 -3.60412 0
M  V30 1315 H 125.312 -2.07951 -0.432471 0
M  V30 1316 H 127.575 -0.91339 -0.253816 0
M  V30 1317 H 127.281 -3.18194 -1.49817 0
M  V30 1318 H 127.155 -2.28502 -3.00111 0
M  V30 1319 H 129.542 -1.37252 -2.61239 0
M  V30 1320 H 129.623 -2.3044 -1.11044 0
M  V30 1321 H 129.267 -4.44981 -2.44856 0
M  V30 1322 H 129.197 -3.48715 -3.94596 0
M  V30 1323 H 131.688 -2.79056 -2.54826 0
M  V30 1324 H 132.001 -6.10958 -4.73234 0
M  V30 1325 H 130.346 -5.49025 -4.26141 0
M  V30 1326 H 133.537 -3.51288 -3.09377 0
M  V30 1327 H 133.71 -5.02624 -4.0899 0
M  V30 1328 N 127.117 1.15442 -1.07289 0
M  V30 1329 C 128.394 1.82306 -0.708792 0
M  V30 1330 C 128.774 1.94991 0.808807 0
M  V30 1331 O 128.122 1.50085 1.72298 0
M  V30 1332 C 128.332 3.18695 -1.42247 0
M  V30 1333 C 129.68 3.94341 -1.57417 0
M  V30 1334 O 130.704 3.28247 -1.38319 0
M  V30 1335 O 129.563 5.12839 -1.88834 0
M  V30 1336 H 126.657 0.787628 -0.252132 0
M  V30 1337 H 129.203 1.22559 -1.17377 0
M  V30 1338 H 127.975 3.04557 -2.45684 0
M  V30 1339 H 127.598 3.86128 -0.948223 0
M  V30 1340 N 128.595 0.856903 1.32268 0
M  V30 1341 C 130.006 0.515711 1.79436 0
M  V30 1342 C 130.357 -0.966586 1.70738 0
M  V30 1343 O 129.482 -1.75409 1.26731 0
M  V30 1344 C 130.077 0.929335 3.25805 0
M  V30 1345 C 128.636 0.640006 3.70919 0
M  V30 1346 C 127.783 1.12784 2.53328 0
M  V30 1347 H 130.734 1.04389 1.19535 0
M  V30 1348 H 130.755 0.246633 3.797 0
M  V30 1349 H 130.267 2.00821 3.32103 0
M  V30 1350 H 128.368 -0.428051 3.70133 0
M  V30 1351 H 128.481 1.20788 4.63624 0
M  V30 1352 H 126.845 0.548033 2.48734 0
M  V30 1353 H 127.628 2.21387 2.62379 0
M  V30 1354 N 130.073 -1.45103 0.615059 0
M  V30 1355 C 131.35 -1.95549 0.0448276 0
M  V30 1356 C 131.73 -1.55737 -1.4251 0
M  V30 1357 O 131.078 -0.823556 -2.13143 0
M  V30 1358 C 131.288 -3.48098 0.250785 0
M  V30 1359 C 132.636 -4.24384 0.135509 0
M  V30 1360 O 133.66 -3.55738 0.181299 0
M  V30 1361 O 132.519 -5.46493 0.0268878 0
M  V30 1362 H 129.613 -0.8264 -0.0314845 0
M  V30 1363 H 132.159 -1.55232 0.685642 0
M  V30 1364 H 130.931 -3.7007 1.27139 0
M  V30 1365 H 130.554 -3.95323 -0.424937 0
M  V30 1366 N 131.551 -0.354651 -1.53558 0
M  V30 1367 C 132.484 0.540273 -2.21712 0
M  V30 1368 C 133.462 1.09161 -1.2051 0
M  V30 1369 O 134.646 1.14979 -1.49372 0
M  V30 1370 C 131.773 1.74435 -2.90328 0
M  V30 1371 C 130.819 1.32146 -4.05512 0
M  V30 1372 S 131.652 0.331924 -5.3447 0
M  V30 1373 C 132.808 1.54258 -6.06593 0
M  V30 1374 H 133.041 -0.0385776 -2.97275 0
M  V30 1375 H 130.574 -0.138736 -1.53775 0
M  V30 1376 H 132.532 2.43507 -3.30476 0
M  V30 1377 H 131.193 2.29444 -2.1451 0
M  V30 1378 H 130.386 2.21952 -4.52497 0
M  V30 1379 H 129.988 0.710091 -3.67197 0
M  V30 1380 H 132.28 2.47534 -6.30661 0
M  V30 1381 H 133.223 1.11431 -6.99277 0
M  V30 1382 H 133.631 1.74367 -5.36895 0
M  V30 1383 N 133.029 1.57378 -0.0835403 0
M  V30 1384 C 134.276 1.9393 0.58287 0
M  V30 1385 C 134.604 0.964455 1.68904 0
M  V30 1386 O 133.859 -0.0179474 1.95692 0
M  V30 1387 C 134.158 3.37063 1.1884 0
M  V30 1388 C 133.824 4.50424 0.207194 0
M  V30 1389 C 132.486 4.81159 -0.0627115 0
M  V30 1390 C 134.838 5.19136 -0.463426 0
M  V30 1391 C 132.166 5.77939 -1.01012 0
M  V30 1392 C 134.518 6.16931 -1.39924 0
M  V30 1393 C 133.182 6.46078 -1.67749 0
M  V30 1394 H 132.452 0.70964 0.213287 0
M  V30 1395 H 135.099 1.90856 -0.156916 0
M  V30 1396 H 133.404 3.3666 2.00418 0
M  V30 1397 H 135.101 3.6264 1.71153 0
M  V30 1398 H 131.691 4.2646 0.427747 0
M  V30 1399 H 135.875 4.95576 -0.268034 0
M  V30 1400 H 131.131 5.98842 -1.23283 0
M  V30 1401 H 135.305 6.69273 -1.92476 0
M  V30 1402 H 132.932 7.2088 -2.41321 0
M  V30 1403 N 134.507 -0.190092 1.56449 0
M  V30 1404 C 135.923 -0.54113 1.50146 0
M  V30 1405 C 136.123 -1.85603 0.784465 0
M  V30 1406 O 135.179 -2.5024 0.337051 0
M  V30 1407 C 136.492 -0.591241 2.9483 0
M  V30 1408 C 138.04 -0.679732 3.0553 0
M  V30 1409 C 138.515 -0.760908 4.51635 0
M  V30 1410 N 140.006 -0.824302 4.55806 0
M  V30 1411 C 140.741 -0.907365 5.66175 0
M  V30 1412 N 140.237 -0.952422 6.86222 0
M  V30 1413 N 142.03 -0.94494 5.541 0
M  V30 1414 H 134.181 0.67235 2.01478 0
M  V30 1415 H 136.444 0.240127 0.917084 0
M  V30 1416 H 136.15 0.305905 3.50367 0
M  V30 1417 H 136.024 -1.44422 3.48457 0
M  V30 1418 H 138.411 -1.56731 2.50039 0
M  V30 1419 H 138.492 0.199549 2.5502 0
M  V30 1420 H 138.136 0.122336 5.07753 0
M  V30 1421 H 138.066 -1.65606 4.99882 0
M  V30 1422 H 140.557 -0.798526 3.69367 0
M  V30 1423 H 140.87 -1.01645 7.66086 0
M  V30 1424 H 139.215 -0.921014 6.8887 0
M  V30 1425 H 142.406 -0.906612 4.59236 0
M  V30 1426 H 142.579 -1.00622 6.4014 0
M  V30 1427 N 135.985 -1.50799 -0.457987 0
M  V30 1428 C 136.935 -1.67003 -1.55222 0
M  V30 1429 C 137.919 -0.52434 -1.52117 0
M  V30 1430 O 139.111 -0.779345 -1.58919 0
M  V30 1431 C 136.24 -1.77956 -2.93576 0
M  V30 1432 C 135.326 -2.98243 -3.01516 0
M  V30 1433 N 135.717 -4.21732 -2.79241 0
M  V30 1434 C 134.015 -2.97072 -3.32662 0
M  V30 1435 C 134.716 -5.02817 -2.92489 0
M  V30 1436 N 133.692 -4.37038 -3.23262 0
M  V30 1437 H 137.494 -2.60163 -1.36721 0
M  V30 1438 H 135.008 -1.48163 -0.664952 0
M  V30 1439 H 137.005 -1.87671 -3.72271 0
M  V30 1440 H 135.665 -0.859634 -3.13114 0
M  V30 1441 H 136.676 -4.51016 -2.54567 0
M  V30 1442 H 133.353 -2.14631 -3.58106 0
M  V30 1443 H 134.743 -6.11054 -2.79396 0
M  V30 1444 N 137.463 0.71206 -1.40597 0
M  V30 1445 C 138.709 1.47416 -1.39271 0
M  V30 1446 C 139.042 1.942 0.00388791 0
M  V30 1447 O 138.317 1.68403 0.973179 0
M  V30 1448 C 138.6 2.69774 -2.38525 0
M  V30 1449 C 138.453 2.28861 -3.87224 0
M  V30 1450 C 139.772 3.71939 -2.35264 0
M  V30 1451 H 136.891 0.534713 -0.5072 0
M  V30 1452 H 139.533 0.812375 -1.71757 0
M  V30 1453 H 137.683 3.26238 -2.10953 0
M  V30 1454 H 139.355 1.77852 -4.25636 0
M  V30 1455 H 137.598 1.60824 -4.02887 0
M  V30 1456 H 138.269 3.16584 -4.52193 0
M  V30 1457 H 140.745 3.25113 -2.59694 0
M  V30 1458 H 139.621 4.55186 -3.06753 0
M  V30 1459 H 139.882 4.20484 -1.36549 0
M  V30 1460 N 138.941 1.26152 0.944643 0
M  V30 1461 C 139.871 1.09902 2.06019 0
M  V30 1462 C 140.852 0.00519538 1.70099 0
M  V30 1463 O 142.037 0.176583 1.93396 0
M  V30 1464 C 139.167 0.727562 3.39594 0
M  V30 1465 C 138.121 1.77274 3.89561 0
M  V30 1466 C 137.447 1.25569 5.19747 0
M  V30 1467 C 138.747 3.17357 4.14827 0
M  V30 1468 H 140.441 2.03217 2.19871 0
M  V30 1469 H 137.987 0.978452 1.05652 0
M  V30 1470 H 139.94 0.600777 4.17095 0
M  V30 1471 H 138.664 -0.241287 3.25707 0
M  V30 1472 H 137.323 1.88814 3.14237 0
M  V30 1473 H 136.971 0.276783 5.02238 0
M  V30 1474 H 136.671 1.95433 5.54148 0
M  V30 1475 H 138.195 1.1415 5.99835 0
M  V30 1476 H 139.609 3.08914 4.82954 0
M  V30 1477 H 138.006 3.84781 4.60504 0
M  V30 1478 H 139.076 3.63673 3.20734 0
M  V30 1479 N 140.419 -1.14872 1.07899 0
M  V30 1480 C 141.367 -2.21857 0.698727 0
M  V30 1481 C 142.361 -1.66845 -0.293086 0
M  V30 1482 O 143.567 -1.79321 -0.156204 0
M  V30 1483 H 139.942 -0.722691 0.207899 0
M  V30 1484 H 141.913 -2.51205 1.61054 0
M  V30 1485 C 140.662 -3.47498 0.11858 0
M  V30 1486 H 139.985 -3.90154 0.872914 0
M  V30 1487 H 141.425 -4.23858 -0.109759 0
M  V30 1488 C 139.884 -3.16947 -1.1422 0
M  V30 1489 O 140.414 -3.3426 -2.22785 0
M  V30 1490 N 138.62 -2.70946 -1.05055 0
M  V30 1491 H 138.167 -2.57058 -0.167038 0
M  V30 1492 H 138.125 -2.50879 -1.89491 0
M  V30 1493 N 141.898 -0.863906 -1.31812 0
M  V30 1494 C 143.145 -0.471836 -1.96926 0
M  V30 1495 C 143.473 0.974578 -1.68322 0
M  V30 1496 O 142.728 1.7003 -0.968933 0
M  V30 1497 C 143.027 -0.668547 -3.51091 0
M  V30 1498 C 142.693 -2.08683 -3.99703 0
M  V30 1499 C 141.355 -2.47471 -4.12688 0
M  V30 1500 C 143.707 -3.01207 -4.25351 0
M  V30 1501 C 141.035 -3.78037 -4.4867 0
M  V30 1502 C 143.387 -4.31282 -4.62794 0
M  V30 1503 C 142.051 -4.69992 -4.73987 0
M  V30 1504 H 141.321 -0.172657 -0.720604 0
M  V30 1505 H 143.968 -1.09573 -1.57054 0
M  V30 1506 H 142.273 0.0385252 -3.91781 0
M  V30 1507 H 143.97 -0.345102 -3.99512 0
M  V30 1508 H 140.56 -1.77566 -3.90087 0
M  V30 1509 H 144.744 -2.72469 -4.14819 0
M  V30 1510 H 140 -4.078 -4.55532 0
M  V30 1511 H 144.174 -5.03031 -4.81594 0
M  V30 1512 H 141.801 -5.71207 -5.01624 0
M  V30 1513 N 143.376 1.44774 -0.622745 0
M  V30 1514 C 144.606 2.06187 -0.130532 0
M  V30 1515 C 145.014 1.46547 1.19669 0
M  V30 1516 O 144.357 0.579636 1.74316 0
M  V30 1517 C 144.419 3.59437 0.0674983 0
M  V30 1518 C 144.083 4.41496 -1.18026 0
M  V30 1519 C 145.08 4.75512 -2.102 0
M  V30 1520 C 142.765 4.82007 -1.41333 0
M  V30 1521 C 144.759 5.48912 -3.23998 0
M  V30 1522 C 142.446 5.55157 -2.55429 0
M  V30 1523 C 143.444 5.88528 -3.46589 0
M  V30 1524 O 143.132 6.60191 -4.58697 0
M  V30 1525 H 142.864 0.672045 -0.0730162 0
M  V30 1526 H 145.418 1.86768 -0.854802 0
M  V30 1527 H 143.648 3.77314 0.846825 0
M  V30 1528 H 145.337 4.02642 0.513209 0
M  V30 1529 H 146.103 4.4476 -1.93425 0
M  V30 1530 H 141.982 4.55457 -0.712709 0
M  V30 1531 H 145.526 5.74877 -3.95174 0
M  V30 1532 H 141.423 5.85324 -2.72151 0
M  V30 1533 H 142.191 6.78654 -4.57571 0
M  V30 1534 N 144.854 0.36279 1.53368 0
M  V30 1535 C 146.27 0.0116182 1.59596 0
M  V30 1536 C 146.47 -1.47012 1.37803 0
M  V30 1537 O 145.526 -2.23136 1.18181 0
M  V30 1538 C 146.839 0.465052 2.97082 0
M  V30 1539 C 148.387 0.419033 3.10182 0
M  V30 1540 C 148.862 0.848235 4.50077 0
M  V30 1541 N 150.353 0.803183 4.56183 0
M  V30 1542 C 151.088 1.107 5.62613 0
M  V30 1543 N 150.584 1.47996 6.76808 0
M  V30 1544 N 152.377 1.02998 5.52583 0
M  V30 1545 H 144.528 1.32775 1.65785 0
M  V30 1546 H 146.791 0.542518 0.777417 0
M  V30 1547 H 146.497 1.49892 3.18159 0
M  V30 1548 H 146.371 -0.149786 3.76902 0
M  V30 1549 H 148.758 -0.605696 2.88817 0
M  V30 1550 H 148.839 1.06933 2.32377 0
M  V30 1551 H 148.483 1.87107 4.7218 0
M  V30 1552 H 148.413 0.175218 5.26308 0
M  V30 1553 H 150.904 0.52838 3.74188 0
M  V30 1554 H 151.217 1.69613 7.53957 0
M  V30 1555 H 149.562 1.51859 6.78206 0
M  V30 1556 H 152.753 0.737817 4.62249 0
M  V30 1557 H 152.926 1.2701 6.35431 0
M  V30 1558 N 146.332 -1.57332 0.0918853 0
M  V30 1559 C 147.56 -1.98574 -0.581048 0
M  V30 1560 C 147.975 -0.970903 -1.61923 0
M  V30 1561 O 147.332 0.0399054 -1.82456 0
M  V30 1562 C 147.383 -3.39872 -1.23164 0
M  V30 1563 O 147.104 -4.37469 -0.234989 0
M  V30 1564 C 148.605 -3.96099 -1.99049 0
M  V30 1565 H 145.825 -0.65261 -0.156018 0
M  V30 1566 H 148.369 -2.0379 0.170225 0
M  V30 1567 H 146.524 -3.35679 -1.93386 0
M  V30 1568 H 146.938 -5.19751 -0.70418 0
M  V30 1569 H 148.412 -4.97127 -2.39934 0
M  V30 1570 H 148.889 -3.3374 -2.85507 0
M  V30 1571 H 149.495 -4.03755 -1.3365 0
M  V30 1572 N 147.81 0.181792 -1.56548 0
M  V30 1573 C 149.058 0.89832 -1.81038 0
M  V30 1574 C 149.379 1.83232 -0.667164 0
M  V30 1575 O 148.649 1.93372 0.313673 0
M  V30 1576 H 147.229 0.33471 -0.667816 0
M  V30 1577 H 149.891 0.184116 -1.94028 0
M  V30 1578 H 148.987 1.4815 -2.74696 0
M  V30 1579 N 149.288 1.51039 0.449983 0
M  V30 1580 C 150.704 1.38934 0.785462 0
M  V30 1581 C 150.904 0.461817 1.96136 0
M  V30 1582 O 149.96 -0.0877389 2.52348 0
M  V30 1583 C 151.273 2.80724 1.0777 0
M  V30 1584 C 152.821 2.89787 1.1829 0
M  V30 1585 C 153.296 4.32457 1.50815 0
M  V30 1586 N 154.787 4.35505 1.57764 0
M  V30 1587 C 155.522 5.42914 1.84477 0
M  V30 1588 N 155.018 6.60502 2.09068 0
M  V30 1589 N 156.811 5.3038 1.86155 0
M  V30 1590 H 148.962 2.09904 -0.324647 0
M  V30 1591 H 151.225 0.944378 -0.0827957 0
M  V30 1592 H 150.931 3.50531 0.286498 0
M  V30 1593 H 150.805 3.19273 2.00859 0
M  V30 1594 H 153.192 2.20186 1.96474 0
M  V30 1595 H 153.273 2.54752 0.231314 0
M  V30 1596 H 152.917 5.02603 0.731622 0
M  V30 1597 H 152.847 4.64995 2.47158 0
M  V30 1598 H 155.338 3.50724 1.40715 0
M  V30 1599 H 155.651 7.38158 2.28785 0
M  V30 1600 H 153.996 6.63639 2.06416 0
M  V30 1601 H 157.187 4.37505 1.66454 0
M  V30 1602 H 157.36 6.1417 2.06637 0
M  V30 1603 N 150.766 -0.704594 1.40972 0
M  V30 1604 C 151.696 -1.83124 1.44872 0
M  V30 1605 C 152.677 -1.67281 0.30838 0
M  V30 1606 O 153.862 -1.87149 0.518556 0
M  V30 1607 C 150.992 -3.21181 1.32136 0
M  V30 1608 C 149.946 -3.51714 2.43888 0
M  V30 1609 C 149.272 -4.89032 2.16222 0
M  V30 1610 C 150.572 -3.516 3.86232 0
M  V30 1611 H 152.266 -1.80117 2.39161 0
M  V30 1612 H 149.812 -0.865145 1.15114 0
M  V30 1613 H 151.765 -3.99702 1.33479 0
M  V30 1614 H 150.489 -3.24791 0.343279 0
M  V30 1615 H 149.148 -2.75539 2.41813 0
M  V30 1616 H 148.796 -4.89256 1.16778 0
M  V30 1617 H 148.496 -5.10426 2.911 0
M  V30 1618 H 150.02 -5.69873 2.19265 0
M  V30 1619 H 151.434 -4.2014 3.9007 0
M  V30 1620 H 149.831 -3.84523 4.60719 0
M  V30 1621 H 150.901 -2.50757 4.15029 0
M  V30 1622 N 152.244 -1.26651 -0.937939 0
M  V30 1623 C 153.194 -1.05156 -2.02302 0
M  V30 1624 C 154.178 0.0171233 -1.60891 0
M  V30 1625 O 155.37 -0.200213 -1.75864 0
M  V30 1626 C 152.499 -0.689962 -3.36295 0
M  V30 1627 C 151.585 -1.79626 -3.84181 0
M  V30 1628 N 151.976 -3.03422 -4.04684 0
M  V30 1629 C 150.274 -1.6806 -4.13124 0
M  V30 1630 C 150.975 -3.75345 -4.444 0
M  V30 1631 N 149.951 -3.03051 -4.51288 0
M  V30 1632 H 153.753 -1.99117 -2.1617 0
M  V30 1633 H 151.267 -1.17216 -1.12402 0
M  V30 1634 H 153.264 -0.517112 -4.13681 0
M  V30 1635 H 151.924 0.242139 -3.23796 0
M  V30 1636 H 152.935 -3.39293 -3.91281 0
M  V30 1637 H 149.612 -0.818629 -4.09396 0
M  V30 1638 H 151.002 -4.81691 -4.68427 0
M  V30 1639 N 153.722 1.14298 -1.08507 0
M  V30 1640 C 154.962 1.87016 -0.824894 0
M  V30 1641 C 155.326 1.81099 0.637735 0
M  V30 1642 O 156.527 2.48963 1.01345 0
M  V30 1643 C 154.798 3.31584 -1.33368 0
M  V30 1644 S 156.357 4.21903 -1.20596 0
M  V30 1645 H 153.175 0.645259 -0.2986 0
M  V30 1646 H 155.777 1.37822 -1.38656 0
M  V30 1647 H 154.481 3.33439 -2.39262 0
M  V30 1648 H 154.012 3.85836 -0.767734 0
M  V30 1649 H 156.027 4.95971 -0.150891 0
M  V30 1650 N 155.201 0.870884 1.31352 0
M  V30 1651 C 156.612 0.534714 1.78879 0
M  V30 1652 C 156.963 -0.948423 1.71754 0
M  V30 1653 O 156.088 -1.74055 1.28584 0
M  V30 1654 C 156.683 0.963839 3.24801 0
M  V30 1655 C 155.242 0.679311 3.70219 0
M  V30 1656 C 154.389 1.15465 2.52117 0
M  V30 1657 H 157.34 1.05651 1.18421 0
M  V30 1658 H 157.361 0.286892 3.79417 0
M  V30 1659 H 156.873 2.04332 3.29955 0
M  V30 1660 H 154.974 -0.388769 3.70566 0
M  V30 1661 H 155.087 1.25698 4.62317 0
M  V30 1662 H 153.451 0.574383 2.48139 0
M  V30 1663 H 154.234 2.24157 2.60016 0
M  V30 1664 N 156.679 -1.44442 0.630414 0
M  V30 1665 C 158.095 -1.56832 0.295973 0
M  V30 1666 C 158.295 -1.61806 -1.20088 0
M  V30 1667 O 157.351 -1.5607 -1.9849 0
M  V30 1668 C 158.664 -2.84031 0.987264 0
M  V30 1669 C 160.212 -2.97742 0.96534 0
M  V30 1670 C 160.687 -4.27743 1.63708 0
M  V30 1671 N 162.178 -4.34555 1.60364 0
M  V30 1672 C 162.913 -5.33862 2.09234 0
M  V30 1673 N 162.409 -6.39578 2.66292 0
M  V30 1674 N 164.202 -5.25366 1.99867 0
M  V30 1675 H 156.353 -1.39457 1.60205 0
M  V30 1676 H 158.616 -0.668237 0.672431 0
M  V30 1677 H 158.322 -2.86338 2.04215 0
M  V30 1678 H 158.196 -3.73534 0.524588 0
M  V30 1679 H 160.583 -2.94989 -0.0810639 0
M  V30 1680 H 160.664 -2.09589 1.4665 0
M  V30 1681 H 160.308 -4.31255 2.68293 0
M  V30 1682 H 160.238 -5.14752 1.11076 0
M  V30 1683 H 162.729 -3.58772 1.18705 0
M  V30 1684 H 163.042 -7.11637 3.01317 0
M  V30 1685 H 161.387 -6.40265 2.70343 0
M  V30 1686 H 164.578 -4.41688 1.55013 0
M  V30 1687 H 164.751 -6.02606 2.38265 0
M  V30 1688 N 158.157 -0.370918 -1.53173 0
M  V30 1689 C 159.089 0.507823 -2.23503 0
M  V30 1690 C 160.102 1.04182 -1.251 0
M  V30 1691 O 161.291 0.947286 -1.5129 0
M  V30 1692 C 158.391 1.71447 -2.92334 0
M  V30 1693 C 157.564 1.31105 -4.17289 0
M  V30 1694 C 156.623 2.38035 -4.69282 0
M  V30 1695 O 155.649 2.00204 -5.32829 0
M  V30 1696 N 156.851 3.69697 -4.47554 0
M  V30 1697 H 159.616 -0.0946382 -2.99551 0
M  V30 1698 H 157.177 -0.196358 -1.60705 0
M  V30 1699 H 159.169 2.42469 -3.24023 0
M  V30 1700 H 157.739 2.22368 -2.19707 0
M  V30 1701 H 156.959 0.430462 -3.91843 0
M  V30 1702 H 158.247 1.0179 -4.98514 0
M  V30 1703 H 157.645 4.03205 -3.9679 0
M  V30 1704 H 156.202 4.36807 -4.8378 0
M  V30 1705 N 159.635 1.57281 -0.100228 0
M  V30 1706 C 160.545 2.17833 0.870965 0
M  V30 1707 C 161.561 1.14921 1.30649 0
M  V30 1708 O 162.737 1.47313 1.37335 0
M  V30 1709 C 159.802 2.75085 2.1102 0
M  V30 1710 C 158.863 3.9297 1.72838 0
M  V30 1711 C 158.096 4.47482 2.90854 0
M  V30 1712 O 158.319 4.00922 4.05731 0
M  V30 1713 O 157.253 5.38433 2.69023 0
M  V30 1714 H 161.079 3.0124 0.38575 0
M  V30 1715 H 158.664 1.48881 0.124397 0
M  V30 1716 H 160.546 3.11656 2.83634 0
M  V30 1717 H 159.221 1.94721 2.58584 0
M  V30 1718 H 158.128 3.61201 0.973883 0
M  V30 1719 H 159.461 4.74713 1.30033 0
M  V30 1720 N 161.113 -0.173488 1.56642 0
M  V30 1721 C 162.353 -0.896984 1.83667 0
M  V30 1722 C 162.717 -1.79523 0.680842 0
M  V30 1723 O 163.918 -2.55616 0.831488 0
M  V30 1724 C 162.189 -1.67351 3.15798 0
M  V30 1725 S 163.748 -2.44607 3.64298 0
M  V30 1726 H 160.566 -0.300464 0.644393 0
M  V30 1727 H 163.168 -0.158775 1.94854 0
M  V30 1728 H 161.872 -1.00462 3.97914 0
M  V30 1729 H 161.403 -2.45313 3.07546 0
M  V30 1730 H 163.418 -3.69261 3.31452 0
M  V30 1731 N 162.591 -1.51276 -0.441967 0
M  V30 1732 C 163.84 -1.6295 -1.18871 0
M  V30 1733 C 164.153 -0.349312 -1.92456 0
M  V30 1734 O 165.359 -0.345355 -2.69295 0
M  V30 1735 C 163.815 -2.87759 -2.16155 0
M  V30 1736 C 163.423 -4.22764 -1.48239 0
M  V30 1737 C 165.167 -3.08788 -2.91291 0
M  V30 1738 C 163.074 -5.38728 -2.4398 0
M  V30 1739 H 162.004 -0.606913 -0.447406 0
M  V30 1740 H 164.655 -1.77739 -0.456205 0
M  V30 1741 H 163.037 -2.66593 -2.92821 0
M  V30 1742 H 164.211 -4.54293 -0.771635 0
M  V30 1743 H 162.526 -4.07575 -0.852741 0
M  V30 1744 H 165.123 -3.92599 -3.63002 0
M  V30 1745 H 165.466 -2.21679 -3.5237 0
M  V30 1746 H 165.999 -3.30272 -2.21733 0
M  V30 1747 H 162.738 -6.28082 -1.87598 0
M  V30 1748 H 162.258 -5.1158 -3.13123 0
M  V30 1749 H 163.937 -5.70489 -3.05207 0
M  V30 1750 N 164.069 0.697108 -1.41344 0
M  V30 1751 C 165.001 1.8224 -1.39001 0
M  V30 1752 C 166.014 1.60152 -0.292428 0
M  V30 1753 O 167.203 1.69684 -0.554048 0
M  V30 1754 C 164.303 3.18976 -1.14489 0
M  V30 1755 C 163.476 3.68105 -2.36258 0
M  V30 1756 C 162.535 4.83506 -2.07625 0
M  V30 1757 O 161.561 4.95201 -2.8065 0
M  V30 1758 N 162.763 5.70637 -1.06555 0
M  V30 1759 H 165.528 1.84742 -2.35988 0
M  V30 1760 H 163.089 0.87937 -1.35936 0
M  V30 1761 H 165.081 3.93801 -0.932885 0
M  V30 1762 H 163.651 3.11508 -0.261043 0
M  V30 1763 H 162.871 2.84204 -2.7317 0
M  V30 1764 H 164.159 3.97667 -3.17393 0
M  V30 1765 H 163.557 5.63817 -0.461125 0
M  V30 1766 H 162.114 6.45368 -0.913444 0
M  V30 1767 N 165.547 1.27147 0.931209 0
M  V30 1768 C 166.51 1.09615 2.01289 0
M  V30 1769 C 167.51 0.0412581 1.60747 0
M  V30 1770 O 168.7 0.285545 1.71844 0
M  V30 1771 C 165.832 0.669447 3.34262 0
M  V30 1772 H 167.025 2.05662 2.18273 0
M  V30 1773 H 164.578 1.09885 1.11153 0
M  V30 1774 H 165.313 -0.292572 3.22978 0
M  V30 1775 H 165.098 1.43127 3.65044 0
M  V30 1776 H 166.588 0.568921 4.13706 0
M  V30 1777 N 167.025 -1.13721 1.09112 0
M  V30 1778 C 168.272 -1.84924 0.825192 0
M  V30 1779 C 168.6 -1.83347 -0.649151 0
M  V30 1780 O 167.855 -1.26449 -1.49362 0
M  V30 1781 C 168.154 -3.32861 1.30146 0
M  V30 1782 C 167.82 -3.54621 2.78486 0
M  V30 1783 C 166.482 -3.60268 3.18999 0
M  V30 1784 C 168.834 -3.62855 3.74146 0
M  V30 1785 C 166.162 -3.71679 4.53951 0
M  V30 1786 C 168.514 -3.75793 5.08883 0
M  V30 1787 C 167.178 -3.79692 5.4899 0
M  V30 1788 H 166.448 -0.676684 0.301959 0
M  V30 1789 H 169.095 -1.3428 1.36533 0
M  V30 1790 H 167.4 -3.85835 0.681064 0
M  V30 1791 H 169.097 -3.86395 1.07236 0
M  V30 1792 H 165.687 -3.50879 2.46134 0
M  V30 1793 H 169.871 -3.57775 3.43963 0
M  V30 1794 H 165.127 -3.72963 4.84467 0
M  V30 1795 H 169.301 -3.81107 5.82864 0
M  V30 1796 H 166.928 -3.88287 6.53558 0
M  V30 1797 N 168.503 -0.877838 -1.30888 0
M  V30 1798 C 169.78 -0.413052 -1.91189 0
M  V30 1799 C 170.16 1.1056 -1.79832 0
M  V30 1800 O 169.508 1.93771 -1.21099 0
M  V30 1801 C 169.718 -0.903191 -3.3711 0
M  V30 1802 C 171.066 -0.93395 -4.14201 0
M  V30 1803 O 172.09 -0.849373 -3.45925 0
M  V30 1804 O 170.949 -1.05772 -5.36167 0
M  V30 1805 H 168.043 -0.125035 -0.817493 0
M  V30 1806 H 170.589 -0.966269 -1.39504 0
M  V30 1807 H 169.361 -1.94692 -3.39427 0
M  V30 1808 H 168.984 -0.328732 -3.96239 0
M  V30 1809 N 169.982 1.44106 -0.638065 0
M  V30 1810 C 170.892 2.34513 0.0637334 0
M  V30 1811 C 171.908 1.53018 0.828346 0
M  V30 1812 O 173.084 1.85723 0.779036 0
M  V30 1813 C 170.149 3.31095 1.02844 0
M  V30 1814 C 169.21 4.28497 0.26244 0
M  V30 1815 C 168.443 5.20465 1.1812 0
M  V30 1816 O 168.666 5.16514 2.42011 0
M  V30 1817 O 167.6 5.98251 0.661774 0
M  V30 1818 H 171.426 2.95989 -0.68003 0
M  V30 1819 H 169.011 1.43994 -0.398252 0
M  V30 1820 H 170.893 3.90526 1.58327 0
M  V30 1821 H 169.568 2.72144 1.7527 0
M  V30 1822 H 168.475 3.72592 -0.335602 0
M  V30 1823 H 169.808 4.90388 -0.421936 0
M  V30 1824 N 171.46 0.379036 1.52974 0
M  V30 1825 C 172.37 -0.468639 2.29872 0
M  V30 1826 C 173.386 -1.08067 1.36373 0
M  V30 1827 O 174.562 -1.08871 1.69438 0
M  V30 1828 C 171.627 -1.58594 3.083 0
M  V30 1829 C 170.688 -1.00007 4.17489 0
M  V30 1830 C 169.921 -2.06413 4.92168 0
M  V30 1831 O 170.144 -3.27751 4.66835 0
M  V30 1832 O 169.078 -1.68717 5.7777 0
M  V30 1833 H 172.904 0.157508 3.03291 0
M  V30 1834 H 170.489 0.143035 1.48714 0
M  V30 1835 H 172.371 -2.23525 3.57232 0
M  V30 1836 H 171.046 -2.19724 2.37703 0
M  V30 1837 H 169.953 -0.314299 3.72777 0
M  V30 1838 H 171.286 -0.433135 4.90291 0
M  V30 1839 N 172.938 -1.57226 0.108567 0
M  V30 1840 C 173.868 -2.17778 -0.84232 0
M  V30 1841 C 174.849 -1.11487 -1.2847 0
M  V30 1842 O 176.034 -1.39681 -1.34918 0
M  V30 1843 C 173.164 -2.76888 -2.09644 0
M  V30 1844 C 172.118 -3.88669 -1.79221 0
M  V30 1845 C 171.444 -4.34541 -3.11574 0
M  V30 1846 C 172.744 -5.11251 -1.06864 0
M  V30 1847 H 174.438 -2.97489 -0.337774 0
M  V30 1848 H 171.984 -1.43097 -0.161025 0
M  V30 1849 H 173.937 -3.17904 -2.76614 0
M  V30 1850 H 172.661 -1.94451 -2.62405 0
M  V30 1851 H 171.32 -3.48213 -1.14644 0
M  V30 1852 H 170.968 -3.48977 -3.62249 0
M  V30 1853 H 170.668 -5.09914 -2.91996 0
M  V30 1854 H 172.192 -4.782 -3.7968 0
M  V30 1855 H 173.606 -5.49352 -1.63968 0
M  V30 1856 H 172.003 -5.9214 -0.974178 0
M  V30 1857 H 173.073 -4.8487 -0.0536168 0
M  V30 1858 N 174.416 0.165178 -1.56732 0
M  V30 1859 C 175.379 1.18822 -1.95995 0
M  V30 1860 C 176.379 1.3685 -0.84431 0
M  V30 1861 O 177.569 1.34152 -1.11126 0
M  V30 1862 C 174.701 2.5521 -2.26011 0
M  V30 1863 H 175.894 0.851825 -2.87548 0
M  V30 1864 H 173.447 0.407857 -1.50885 0
M  V30 1865 H 174.182 2.93852 -1.37191 0
M  V30 1866 H 173.967 2.43489 -3.07336 0
M  V30 1867 H 175.457 3.28927 -2.57288 0
M  V30 1868 N 175.894 1.51508 0.433938 0
M  V30 1869 C 177.141 1.64345 1.18309 0
M  V30 1870 C 177.469 0.361315 1.91115 0
M  V30 1871 O 176.724 -0.654753 1.84422 0
M  V30 1872 C 177.023 2.79928 2.22205 0
M  V30 1873 C 176.689 4.19078 1.66387 0
M  V30 1874 C 175.351 4.56932 1.50887 0
M  V30 1875 C 177.703 5.05894 1.25381 0
M  V30 1876 C 175.031 5.79305 0.928608 0
M  V30 1877 C 177.383 6.2885 0.687823 0
M  V30 1878 C 176.047 6.65473 0.519755 0
M  V30 1879 H 175.317 0.601381 0.432923 0
M  V30 1880 H 177.964 1.85549 0.473676 0
M  V30 1881 H 176.269 2.52959 2.99197 0
M  V30 1882 H 177.966 2.87059 2.79997 0
M  V30 1883 H 174.556 3.89234 1.79428 0
M  V30 1884 H 178.74 4.77253 1.36175 0
M  V30 1885 H 173.996 6.06324 0.786186 0
M  V30 1886 H 178.17 6.95461 0.361581 0
M  V30 1887 H 175.797 7.6017 0.0679979 0
M  V30 1888 N 177.372 -0.689602 1.41712 0
M  V30 1889 C 178.602 -1.47613 1.44548 0
M  V30 1890 C 179.01 -1.89132 0.0509034 0
M  V30 1891 O 178.353 -1.57741 -0.94146 0
M  V30 1892 C 178.415 -2.76596 2.2964 0
M  V30 1893 C 178.079 -2.57245 3.77722 0
M  V30 1894 C 179.076 -2.22804 4.69739 0
M  V30 1895 C 176.761 -2.727 4.2183 0
M  V30 1896 C 178.755 -2.04064 6.03851 0
M  V30 1897 C 176.442 -2.53576 5.56006 0
M  V30 1898 C 177.44 -2.1931 6.46832 0
M  V30 1899 O 177.128 -2.00359 7.78532 0
M  V30 1900 H 176.86 -0.461227 0.494212 0
M  V30 1901 H 179.414 -0.856045 1.86711 0
M  V30 1902 H 177.644 -3.41033 1.82301 0
M  V30 1903 H 179.333 -3.38424 2.24107 0
M  V30 1904 H 180.099 -2.10473 4.36951 0
M  V30 1905 H 175.978 -2.98353 3.51435 0
M  V30 1906 H 179.522 -1.77241 6.74708 0
M  V30 1907 H 175.419 -2.65499 5.88371 0
M  V30 1908 H 176.187 -2.15075 7.89737 0
M  V30 1909 N 178.85 -1.27639 -0.924453 0
M  V30 1910 C 180.098 -1.13941 -1.66918 0
M  V30 1911 C 180.419 0.314589 -1.92446 0
M  V30 1912 O 179.689 1.21964 -1.53303 0
M  V30 1913 H 178.269 -0.418678 -0.618642 0
M  V30 1914 H 180.931 -1.60213 -1.10985 0
M  V30 1915 H 180.027 -1.67094 -2.63602 0
M  V30 1916 N 180.328 1.1314 -1.09713 0
M  V30 1917 C 181.258 2.20748 -0.761102 0
M  V30 1918 C 182.239 1.68061 0.262566 0
M  V30 1919 O 183.424 1.93765 0.129977 0
M  V30 1920 C 180.554 3.46812 -0.184054 0
M  V30 1921 C 179.508 4.12606 -1.13757 0
M  V30 1922 C 178.834 5.33031 -0.422083 0
M  V30 1923 C 180.134 4.59603 -2.48118 0
M  V30 1924 H 181.828 2.49113 -1.66082 0
M  V30 1925 H 179.374 1.19734 -0.799987 0
M  V30 1926 H 181.327 4.21353 0.0631215 0
M  V30 1927 H 180.051 3.17851 0.750868 0
M  V30 1928 H 178.71 3.40036 -1.37007 0
M  V30 1929 H 178.358 5.00335 0.517072 0
M  V30 1930 H 178.058 5.77999 -1.05788 0
M  V30 1931 H 179.582 6.10325 -0.183277 0
M  V30 1932 H 180.996 5.25552 -2.29059 0
M  V30 1933 H 179.393 5.15321 -3.07514 0
M  V30 1934 H 180.463 3.73971 -3.08665 0
M  V30 1935 N 181.806 0.884767 1.30421 0
M  V30 1936 C 183.052 0.503851 1.96441 0
M  V30 1937 C 183.385 -0.944518 1.69684 0
M  V30 1938 O 182.66 -1.66737 1.00145 0
M  V30 1939 C 182.943 0.779085 3.51571 0
M  V30 1940 C 182.796 2.27807 3.87846 0
M  V30 1941 C 184.115 0.255452 4.39358 0
M  V30 1942 H 181.234 0.184533 0.713524 0
M  V30 1943 H 183.876 1.10872 1.54297 0
M  V30 1944 H 182.026 0.264274 3.876 0
M  V30 1945 H 183.698 2.86127 3.61841 0
M  V30 1946 H 181.941 2.74479 3.35922 0
M  V30 1947 H 182.612 2.42125 4.96064 0
M  V30 1948 H 185.088 0.696079 4.10236 0
M  V30 1949 H 183.964 0.477361 5.4682 0
M  V30 1950 H 184.225 -0.843293 4.33983 0
M  V30 1951 N 183.284 -1.43765 0.645699 0
M  V30 1952 C 184.695 -1.85193 0.236719 0
M  V30 1953 C 185.046 -1.54045 -1.21509 0
M  V30 1954 O 184.171 -0.985694 -1.92647 0
M  V30 1955 C 184.766 -3.36151 0.422845 0
M  V30 1956 C 183.325 -3.76338 0.0682492 0
M  V30 1957 C 182.472 -2.67538 0.729306 0
M  V30 1958 H 185.423 -1.34025 0.849883 0
M  V30 1959 H 185.444 -3.79032 -0.333904 0
M  V30 1960 H 184.956 -3.5879 1.47958 0
M  V30 1961 H 183.057 -3.59312 -0.986179 0
M  V30 1962 H 183.17 -4.76603 0.488469 0
M  V30 1963 H 181.534 -2.54176 0.163235 0
M  V30 1964 H 182.317 -2.93006 1.78892 0
M  V30 1965 N 184.763 -0.387143 -1.52771 0
M  V30 1966 C 185.673 0.456442 -2.30117 0
M  V30 1967 C 186.689 1.07342 -1.36944 0
M  V30 1968 O 187.865 1.07971 -1.70013 0
M  V30 1969 C 184.93 1.56957 -3.09136 0
M  V30 1970 C 183.991 0.977916 -4.18014 0
M  V30 1971 C 183.224 2.038 -4.93256 0
M  V30 1972 O 183.447 3.25271 -4.68567 0
M  V30 1973 O 182.381 1.6565 -5.78657 0
M  V30 1974 H 186.207 -0.17359 -3.03203 0
M  V30 1975 H 183.792 -0.150919 -1.48636 0
M  V30 1976 H 185.674 2.21628 -3.58412 0
M  V30 1977 H 184.349 2.18461 -2.38865 0
M  V30 1978 H 183.256 0.294525 -3.72939 0
M  V30 1979 H 184.589 0.407128 -4.90513 0
M  V30 1980 N 186.241 1.57166 -0.116904 0
M  V30 1981 C 187.171 2.18222 0.830759 0
M  V30 1982 C 188.152 1.12167 1.27877 0
M  V30 1983 O 189.337 1.40394 1.34176 0
M  V30 1984 C 186.467 2.77996 2.08172 0
M  V30 1985 C 185.421 3.89614 1.77157 0
M  V30 1986 C 184.747 4.36187 3.09265 0
M  V30 1987 C 186.047 5.1181 1.04151 0
M  V30 1988 H 187.741 2.97664 0.321992 0
M  V30 1989 H 185.287 1.4318 0.153434 0
M  V30 1990 H 187.24 3.19366 2.74924 0
M  V30 1991 H 185.964 1.9584 2.6137 0
M  V30 1992 H 184.623 3.48816 1.12796 0
M  V30 1993 H 184.271 3.50893 3.60393 0
M  V30 1994 H 183.971 5.11455 2.89288 0
M  V30 1995 H 185.495 4.80207 3.77139 0
M  V30 1996 H 186.909 5.50214 1.61052 0
M  V30 1997 H 185.306 5.92648 0.942762 0
M  V30 1998 H 186.376 4.84892 0.0279022 0
M  V30 1999 N 187.719 -0.156864 1.56817 0
M  V30 2000 C 188.965 -0.872416 1.83076 0
M  V30 2001 C 189.298 -1.81261 0.697001 0
M  V30 2002 O 188.573 -1.92171 -0.30008 0
M  V30 2003 C 188.856 -1.65551 3.19789 0
M  V30 2004 C 188.709 -0.737467 4.43713 0
M  V30 2005 C 190.028 -2.62012 3.53606 0
M  V30 2006 H 187.147 -0.315715 0.665953 0
M  V30 2007 H 189.789 -0.138004 1.89498 0
M  V30 2008 H 187.939 -2.28159 3.14445 0
M  V30 2009 H 189.611 -0.123143 4.61136 0
M  V30 2010 H 187.854 -0.0464067 4.33775 0
M  V30 2011 H 188.525 -1.32122 5.35955 0
M  V30 2012 H 191.001 -2.09525 3.59497 0
M  V30 2013 H 189.877 -3.13861 4.50314 0
M  V30 2014 H 190.138 -3.42902 2.79053 0
M  V30 2015 N 189.197 -1.51736 -0.425897 0
M  V30 2016 C 190.445 -1.64644 -1.17204 0
M  V30 2017 C 190.766 -0.370486 -1.91448 0
M  V30 2018 O 190.036 0.614088 -1.86026 0
M  V30 2019 H 188.616 -0.606819 -0.435638 0
M  V30 2020 H 191.278 -1.88713 -0.487177 0
M  V30 2021 H 190.374 -2.47958 -1.89534 0
M  V30 2022 N 190.675 0.682077 -1.42076 0
M  V30 2023 C 191.952 1.43755 -1.32642 0
M  V30 2024 C 192.332 2.11063 0.0396611 0
M  V30 2025 O 191.68 2.02701 1.05474 0
M  V30 2026 C 191.89 2.44596 -2.48946 0
M  V30 2027 C 193.238 3.09454 -2.9073 0
M  V30 2028 O 194.262 2.54922 -2.48783 0
M  V30 2029 O 193.121 4.08253 -3.63307 0
M  V30 2030 H 190.215 0.640857 -0.522715 0
M  V30 2031 H 192.761 0.711415 -1.54068 0
M  V30 2032 H 191.533 1.93609 -3.40046 0
M  V30 2033 H 191.156 3.24701 -2.29467 0
M  V30 2034 N 192.153 1.28127 0.917671 0
M  V30 2035 C 193.393 1.163 1.68088 0
M  V30 2036 C 193.757 -0.284515 1.8988 0
M  V30 2037 O 194.958 -0.525413 2.63615 0
M  V30 2038 C 193.229 1.93546 3.00457 0
M  V30 2039 S 194.788 1.98048 3.91564 0
M  V30 2040 H 191.606 0.415005 0.577315 0
M  V30 2041 H 194.208 1.62173 1.09179 0
M  V30 2042 H 192.912 2.97888 2.82295 0
M  V30 2043 H 192.443 1.48207 3.64415 0
M  V30 2044 H 194.458 1.08415 4.84211 0
M  V30 2045 N 193.631 -1.12557 1.10312 0
M  V30 2046 C 194.871 -1.8568 0.854543 0
M  V30 2047 C 195.235 -1.82091 -0.608843 0
M  V30 2048 O 196.436 -2.50544 -0.973717 0
M  V30 2049 C 194.707 -3.2942 1.38626 0
M  V30 2050 S 196.266 -4.19931 1.27293 0
M  V30 2051 H 193.084 -0.640427 0.308827 0
M  V30 2052 H 195.686 -1.35599 1.40831 0
M  V30 2053 H 194.39 -3.2959 2.44537 0
M  V30 2054 H 193.921 -3.84566 0.82902 0
M  V30 2055 H 195.936 -4.95668 0.229776 0
M  V30 2056 N 195.109 -0.891671 -1.2995 0
M  V30 2057 C 196.039 -0.379797 -2.30391 0
M  V30 2058 C 197.02 0.540919 -1.6127 0
M  V30 2059 O 198.205 0.453352 -1.88834 0
M  V30 2060 C 195.335 0.400654 -3.44981 0
M  V30 2061 C 194.289 -0.428905 -4.25846 0
M  V30 2062 C 193.615 0.478557 -5.32554 0
M  V30 2063 C 194.915 -1.67458 -4.94727 0
M  V30 2064 H 196.609 -1.21914 -2.73454 0
M  V30 2065 H 194.155 -0.587675 -1.31462 0
M  V30 2066 H 196.108 0.769434 -4.14316 0
M  V30 2067 H 194.832 1.27371 -3.0074 0
M  V30 2068 H 193.491 -0.779911 -3.58208 0
M  V30 2069 H 193.139 1.34951 -4.84559 0
M  V30 2070 H 192.839 -0.0727433 -5.87555 0
M  V30 2071 H 194.363 0.843705 -6.04743 0
M  V30 2072 H 195.777 -1.376 -5.56542 0
M  V30 2073 H 194.174 -2.16659 -5.59624 0
M  V30 2074 H 195.244 -2.41518 -4.20473 0
M  V30 2075 N 196.587 1.43421 -0.653314 0
M  V30 2076 C 197.497 2.34568 0.0388565 0
M  V30 2077 C 198.513 1.53888 0.81207 0
M  V30 2078 O 199.689 1.86539 0.759294 0
M  V30 2079 C 196.754 3.32167 0.993269 0
M  V30 2080 C 195.815 4.28751 0.216977 0
M  V30 2081 C 195.048 5.21688 1.12593 0
M  V30 2082 O 195.271 5.19052 2.36519 0
M  V30 2083 O 194.205 5.98919 0.598284 0
M  V30 2084 H 198.031 2.95251 -0.711386 0
M  V30 2085 H 195.616 1.43564 -0.413502 0
M  V30 2086 H 197.498 3.92183 1.54176 0
M  V30 2087 H 196.173 2.73987 1.72374 0
M  V30 2088 H 195.08 3.72215 -0.375101 0
M  V30 2089 H 196.413 4.89913 -0.473924 0
M  V30 2090 N 198.065 0.39524 1.52563 0
M  V30 2091 C 198.975 -0.444232 2.30356 0
M  V30 2092 C 199.991 -1.06615 1.37511 0
M  V30 2093 O 201.167 -1.07067 1.70583 0
M  V30 2094 C 198.232 -1.55315 3.09964 0
M  V30 2095 C 197.293 -0.955734 4.18526 0
M  V30 2096 C 196.526 -2.01181 4.9433 0
M  V30 2097 O 196.749 -3.22781 4.70285 0
M  V30 2098 O 195.683 -1.62579 5.79527 0
M  V30 2099 H 199.509 0.189667 3.03107 0
M  V30 2100 H 197.094 0.1588 1.48554 0
M  V30 2101 H 198.976 -2.19724 3.59582 0
M  V30 2102 H 197.651 -2.17191 2.4002 0
M  V30 2103 H 196.558 -0.274743 3.7309 0
M  V30 2104 H 197.891 -0.381109 4.90722 0
M  V30 2105 N 199.544 -1.57102 0.125237 0
M  V30 2106 C 200.774 -1.99472 -0.538015 0
M  V30 2107 C 201.182 -1.00395 -1.60366 0
M  V30 2108 O 200.525 0.0103875 -1.83697 0
M  V30 2109 C 200.587 -3.38262 -1.21734 0
M  V30 2110 C 200.251 -4.56021 -0.298897 0
M  V30 2111 C 201.248 -5.17817 0.464943 0
M  V30 2112 C 198.933 -5.01869 -0.208149 0
M  V30 2113 C 200.927 -6.23852 1.3072 0
M  V30 2114 C 198.614 -6.07763 0.637736 0
M  V30 2115 C 199.612 -6.68622 1.39403 0
M  V30 2116 O 199.3 -7.7247 2.22586 0
M  V30 2117 H 199.032 -0.659934 -0.146501 0
M  V30 2118 H 201.586 -2.04321 0.210267 0
M  V30 2119 H 199.816 -3.30185 -2.01282 0
M  V30 2120 H 201.505 -3.6488 -1.77813 0
M  V30 2121 H 202.271 -4.83308 0.404741 0
M  V30 2122 H 198.15 -4.54241 -0.786522 0
M  V30 2123 H 201.694 -6.71284 1.898 0
M  V30 2124 H 197.591 -6.41701 0.699309 0
M  V30 2125 H 198.359 -7.89595 2.15596 0
M  V30 2126 N 201.022 0.148545 -1.56898 0
M  V30 2127 C 202.438 0.501131 -1.51528 0
M  V30 2128 C 202.638 1.83458 -0.833399 0
M  V30 2129 O 201.694 2.49259 -0.40328 0
M  V30 2130 C 203.007 0.512864 -2.96294 0
M  V30 2131 C 204.555 0.598487 -3.07225 0
M  V30 2132 C 205.03 0.640897 -4.53494 0
M  V30 2133 N 206.521 0.703163 -4.57832 0
M  V30 2134 C 207.256 0.756935 -5.68382 0
M  V30 2135 N 206.752 0.770147 -6.88506 0
M  V30 2136 N 208.545 0.797698 -5.56411 0
M  V30 2137 H 200.696 -0.725532 -1.99624 0
M  V30 2138 H 202.959 -0.264358 -0.910395 0
M  V30 2139 H 202.665 -0.398691 -3.49433 0
M  V30 2140 H 202.539 1.35133 -3.52163 0
M  V30 2141 H 204.926 1.50046 -2.54106 0
M  V30 2142 H 205.007 -0.267093 -2.54402 0
M  V30 2143 H 204.651 -0.256915 -5.0725 0
M  V30 2144 H 204.581 1.52295 -5.04097 0
M  V30 2145 H 207.072 0.700314 -3.71354 0
M  V30 2146 H 207.385 0.812983 -7.68512 0
M  V30 2147 H 205.73 0.738049 -6.9107 0
M  V30 2148 H 208.921 0.784535 -4.61479 0
M  V30 2149 H 209.094 0.83614 -6.42583 0
M  V30 2150 N 202.5 1.5196 0.417844 0
M  V30 2151 C 203.777 1.56146 1.17803 0
M  V30 2152 C 204.157 0.337275 2.08388 0
M  V30 2153 O 203.505 -0.676447 2.18258 0
M  V30 2154 C 203.715 2.88566 1.96293 0
M  V30 2155 C 205.063 3.41244 2.52662 0
M  V30 2156 O 206.087 2.90247 2.06483 0
M  V30 2157 O 204.946 4.30273 3.36938 0
M  V30 2158 H 202.04 0.628598 0.537395 0
M  V30 2159 H 204.586 1.64283 0.425331 0
M  V30 2160 H 203.358 3.69116 1.2988 0
M  V30 2161 H 202.981 2.83681 2.78587 0
M  V30 2162 N 203.978 -0.674533 1.42435 0
M  V30 2163 C 205.394 -0.98769 1.25367 0
M  V30 2164 C 205.594 -2.00879 0.158044 0
M  V30 2165 O 204.65 -2.48075 -0.470633 0
M  V30 2166 C 205.963 -1.49224 2.6106 0
M  V30 2167 C 207.511 -1.61 2.68417 0
M  V30 2168 C 207.986 -2.14852 4.04478 0
M  V30 2169 N 209.477 -2.22185 4.06434 0
M  V30 2170 C 210.212 -2.64928 5.08528 0
M  V30 2171 N 209.708 -3.07121 6.21006 0
M  V30 2172 N 211.501 -2.64679 4.95885 0
M  V30 2173 H 203.652 0.00152503 2.124 0
M  V30 2174 H 205.915 -0.0618434 0.945981 0
M  V30 2175 H 205.621 -0.816453 3.42092 0
M  V30 2176 H 205.495 -2.47094 2.84999 0
M  V30 2177 H 207.882 -2.27686 1.87732 0
M  V30 2178 H 207.963 -0.616195 2.48267 0
M  V30 2179 H 207.607 -1.48775 4.85622 0
M  V30 2180 H 207.537 -3.15024 4.2198 0
M  V30 2181 H 210.028 -1.92435 3.25234 0
M  V30 2182 H 210.341 -3.38423 6.94759 0
M  V30 2183 H 208.686 -3.04978 6.24511 0
M  V30 2184 H 211.877 -2.31078 4.07088 0
M  V30 2185 H 212.05 -2.9767 5.75584 0
M  V30 2186 N 205.456 -1.28612 -0.910864 0
M  V30 2187 C 206.403 -1.12786 -2.01365 0
M  V30 2188 C 207.373 -0.024201 -1.66082 0
M  V30 2189 O 208.558 -0.189667 -1.89855 0
M  V30 2190 C 205.698 -0.798743 -3.35729 0
M  V30 2191 C 204.811 -1.98173 -3.83864 0
M  V30 2192 C 203.946 -1.59298 -5.06752 0
M  V30 2193 C 202.985 -2.74245 -5.47226 0
M  V30 2194 N 202.122 -2.35842 -6.61304 0
M  V30 2195 H 206.962 -2.07142 -2.14234 0
M  V30 2196 H 204.499 -1.03093 -1.0493 0
M  V30 2197 H 206.457 -0.588662 -4.13026 0
M  V30 2198 H 205.087 0.10789 -3.2262 0
M  V30 2199 H 204.139 -2.30386 -3.02699 0
M  V30 2200 H 205.451 -2.84343 -4.09818 0
M  V30 2201 H 204.605 -1.34513 -5.916 0
M  V30 2202 H 203.344 -0.702618 -4.82612 0
M  V30 2203 H 202.349 -2.99725 -4.60918 0
M  V30 2204 H 203.574 -3.63928 -5.73353 0
M  V30 2205 H 201.52 -1.49279 -6.38789 0
M  V30 2206 H 201.437 -3.15546 -6.86998 0
M  V30 2207 H 202.705 -2.14348 -7.4945 0
M  V30 2208 N 206.934 1.1197 -1.10907 0
M  V30 2209 C 207.881 2.17846 -0.762345 0
M  V30 2210 C 208.851 1.63995 0.263599 0
M  V30 2211 O 210.036 1.90273 0.141773 0
M  V30 2212 C 207.176 3.44487 -0.205651 0
M  V30 2213 C 206.289 4.12369 -1.28748 0
M  V30 2214 C 205.424 5.26674 -0.691919 0
M  V30 2215 C 204.463 5.86431 -1.75399 0
M  V30 2216 N 203.6 6.92142 -1.17833 0
M  V30 2217 H 208.44 2.46851 -1.6694 0
M  V30 2218 H 205.977 1.21188 -0.833776 0
M  V30 2219 H 207.935 4.16981 0.135037 0
M  V30 2220 H 206.565 3.15884 0.664613 0
M  V30 2221 H 205.617 3.38003 -1.74522 0
M  V30 2222 H 206.929 4.52844 -2.09125 0
M  V30 2223 H 206.083 6.05953 -0.300963 0
M  V30 2224 H 204.822 4.8749 0.143232 0
M  V30 2225 H 203.827 5.05835 -2.15432 0
M  V30 2226 H 205.052 6.27685 -2.59208 0
M  V30 2227 H 202.998 6.54985 -0.364725 0
M  V30 2228 H 202.915 7.31242 -1.91887 0
M  V30 2229 H 204.183 7.75237 -0.81408 0
M  V30 2230 N 208.412 0.89855 1.29475 0
M  V30 2231 C 209.322 0.379974 2.31502 0
M  V30 2232 C 210.338 -0.524695 1.659 0
M  V30 2233 O 211.514 -0.414551 1.97087 0
M  V30 2234 C 208.579 -0.385138 3.44554 0
M  V30 2235 C 207.64 0.550914 4.2575 0
M  V30 2236 C 206.873 -0.177778 5.33404 0
M  V30 2237 O 207.096 -1.40189 5.52904 0
M  V30 2238 O 206.03 0.479106 5.9999 0
M  V30 2239 H 209.856 1.22639 2.77837 0
M  V30 2240 H 207.441 0.662834 1.33891 0
M  V30 2241 H 209.323 -0.817841 4.13388 0
M  V30 2242 H 207.998 -1.20763 3.0033 0
M  V30 2243 H 206.905 1.03271 3.59564 0
M  V30 2244 H 208.238 1.33979 4.73614 0
M  V30 2245 N 209.89 -1.43072 0.660911 0
M  V30 2246 C 210.838 -2.32569 -0.0378199 0
M  V30 2247 C 211.832 -1.49046 -0.805092 0
M  V30 2248 O 213.038 -1.65206 -0.714624 0
M  V30 2249 H 209.413 -0.75136 -0.031019 0
M  V30 2250 H 211.384 -2.89216 0.734609 0
M  V30 2251 C 210.133 -3.33453 -0.985124 0
M  V30 2252 H 209.456 -3.97752 -0.404147 0
M  V30 2253 H 210.896 -3.98691 -1.44297 0
M  V30 2254 C 209.355 -2.64642 -2.08486 0
M  V30 2255 O 209.885 -2.46776 -3.16961 0
M  V30 2256 N 208.091 -2.23891 -1.8526 0
M  V30 2257 H 207.638 -2.38621 -0.970449 0
M  V30 2258 H 207.596 -1.78181 -2.59034 0
M  V30 2259 N 211.368 -0.403325 -1.52352 0
M  V30 2260 C 212.331 0.413051 -2.25447 0
M  V30 2261 C 213.331 0.978513 -1.276 0
M  V30 2262 O 214.521 0.858305 -1.51587 0
M  V30 2263 C 211.653 1.58087 -3.02029 0
M  V30 2264 H 212.846 -0.227094 -2.99039 0
M  V30 2265 H 210.399 -0.155722 -1.55522 0
M  V30 2266 H 211.134 2.25804 -2.32772 0
M  V30 2267 H 210.919 1.18195 -3.73861 0
M  V30 2268 H 212.409 2.1585 -3.57489 0
M  V30 2269 N 212.846 1.57033 -0.133567 0
M  V30 2270 C 213.756 2.19632 0.824564 0
M  V30 2271 C 214.772 1.17666 1.28182 0
M  V30 2272 O 215.948 1.50193 1.3418 0
M  V30 2273 C 213.013 2.79499 2.05137 0
M  V30 2274 C 212.074 3.96548 1.64464 0
M  V30 2275 C 211.307 4.5355 2.81297 0
M  V30 2276 O 211.53 4.09438 3.97136 0
M  V30 2277 O 210.464 5.44018 2.57542 0
M  V30 2278 H 214.29 3.01991 0.321766 0
M  V30 2279 H 211.875 1.49112 0.0927889 0
M  V30 2280 H 213.757 3.17602 2.7696 0
M  V30 2281 H 212.432 2.00162 2.54395 0
M  V30 2282 H 211.339 3.63186 0.897048 0
M  V30 2283 H 212.672 4.77364 1.19934 0
M  V30 2284 N 214.325 -0.140222 1.56975 0
M  V30 2285 C 215.741 -0.493088 1.51792 0
M  V30 2286 C 215.941 -1.83013 0.843116 0
M  V30 2287 O 214.997 -2.49041 0.416493 0
M  V30 2288 C 216.31 -0.497144 2.96562 0
M  V30 2289 C 217.858 -0.582186 3.07538 0
M  V30 2290 C 218.333 -0.616838 4.53827 0
M  V30 2291 N 219.824 -0.678873 4.58198 0
M  V30 2292 C 220.559 -0.726782 5.68775 0
M  V30 2293 N 220.055 -0.733623 6.88905 0
M  V30 2294 N 221.848 -0.768179 5.56826 0
M  V30 2295 H 213.999 0.736108 1.99237 0
M  V30 2296 H 216.262 0.269182 0.90898 0
M  V30 2297 H 215.968 0.417217 3.49217 0
M  V30 2298 H 215.842 -1.33263 3.52875 0
M  V30 2299 H 218.229 -1.48697 2.54899 0
M  V30 2300 H 218.31 0.280581 2.54257 0
M  V30 2301 H 217.954 0.283812 5.07106 0
M  V30 2302 H 217.884 -1.49619 5.04898 0
M  V30 2303 H 220.375 -0.68061 3.7172 0
M  V30 2304 H 220.688 -0.772215 7.68932 0
M  V30 2305 H 219.033 -0.701389 6.91452 0
M  V30 2306 H 222.224 -0.760051 4.61888 0
M  V30 2307 H 222.397 -0.80205 6.43017 0
M  V30 2308 N 215.803 -1.52179 -0.40978 0
M  V30 2309 C 216.733 -1.78435 -1.5061 0
M  V30 2310 C 217.714 -0.635295 -1.57791 0
M  V30 2311 O 218.899 -0.880823 -1.73076 0
M  V30 2312 C 216.029 -1.93444 -2.88439 0
M  V30 2313 C 214.983 -3.09038 -2.96108 0
M  V30 2314 C 214.309 -3.09268 -4.36185 0
M  V30 2315 C 215.609 -4.48508 -2.67652 0
M  V30 2316 H 217.303 -2.70237 -1.28889 0
M  V30 2317 H 214.849 -1.30036 -0.618605 0
M  V30 2318 H 216.802 -2.10394 -3.65119 0
M  V30 2319 H 215.526 -0.983129 -3.11452 0
M  V30 2320 H 214.185 -2.91837 -2.21872 0
M  V30 2321 H 213.833 -2.11861 -4.56206 0
M  V30 2322 H 213.533 -3.86907 -4.42241 0
M  V30 2323 H 215.057 -3.28348 -5.14801 0
M  V30 2324 H 216.471 -4.65918 -3.34056 0
M  V30 2325 H 214.868 -5.28059 -2.85085 0
M  V30 2326 H 215.938 -4.56649 -1.63095 0
M  V30 2327 N 217.281 0.66697 -1.42791 0
M  V30 2328 C 218.244 1.76211 -1.46568 0
M  V30 2329 C 219.244 1.56896 -0.352196 0
M  V30 2330 O 220.434 1.63044 -0.613364 0
M  V30 2331 C 217.566 3.14935 -1.30494 0
M  V30 2332 H 218.759 1.74247 -2.44086 0
M  V30 2333 H 216.312 0.877342 -1.29354 0
M  V30 2334 H 217.047 3.2252 -0.339301 0
M  V30 2335 H 216.832 3.30359 -2.11199 0
M  V30 2336 H 218.322 3.94821 -1.36038 0
M  V30 2337 N 218.759 1.29093 0.90403 0
M  V30 2338 C 219.669 1.15727 2.0407 0
M  V30 2339 C 220.685 0.0815308 1.73809 0
M  V30 2340 O 221.861 0.292749 1.99261 0
M  V30 2341 C 218.926 0.830424 3.36608 0
M  V30 2342 C 217.987 1.98955 3.80415 0
M  V30 2343 C 217.22 1.6782 5.06628 0
M  V30 2344 O 217.443 0.597105 5.67266 0
M  V30 2345 O 216.377 2.52486 5.46383 0
M  V30 2346 H 220.203 2.11171 2.18267 0
M  V30 2347 H 217.788 1.08504 1.027 0
M  V30 2348 H 219.67 0.662521 4.16159 0
M  V30 2349 H 218.345 -0.0942678 3.23563 0
M  V30 2350 H 217.252 2.21267 3.01648 0
M  V30 2351 H 218.585 2.89529 3.98037 0
M  V30 2352 N 220.237 -1.11381 1.11499 0
M  V30 2353 C 221.514 -1.7955 0.775965 0
M  V30 2354 C 221.894 -1.97859 -0.73588 0
M  V30 2355 O 221.242 -1.56376 -1.66609 0
M  V30 2356 C 221.452 -3.13196 1.53977 0
M  V30 2357 C 222.8 -3.88227 1.71944 0
M  V30 2358 O 223.824 -3.22887 1.50407 0
M  V30 2359 O 222.683 -5.05477 2.07738 0
M  V30 2360 H 219.777 -0.777728 0.28119 0
M  V30 2361 H 222.323 -1.18118 1.21845 0
M  V30 2362 H 221.095 -2.95229 2.56818 0
M  V30 2363 H 220.718 -3.82342 1.09088 0
M  V30 2364 N 221.715 -0.905404 -1.28997 0
M  V30 2365 C 222.625 -0.392246 -2.31298 0
M  V30 2366 C 223.641 0.515889 -1.66176 0
M  V30 2367 O 224.817 0.404093 -1.97304 0
M  V30 2368 C 221.882 0.36686 -3.44754 0
M  V30 2369 C 220.943 -0.573485 -4.25452 0
M  V30 2370 C 220.176 0.149488 -5.33491 0
M  V30 2371 O 220.399 1.37255 -5.5364 0
M  V30 2372 O 219.333 -0.510919 -5.99728 0
M  V30 2373 H 223.159 -1.2411 -2.77183 0
M  V30 2374 H 220.744 -0.669926 -1.33538 0
M  V30 2375 H 222.626 0.795907 -4.13816 0
M  V30 2376 H 221.301 1.19169 -3.00966 0
M  V30 2377 H 220.208 -1.05176 -3.59011 0
M  V30 2378 H 221.541 -1.36489 -4.72897 0
M  V30 2379 N 223.193 1.4272 -0.668489 0
M  V30 2380 C 224.103 2.34596 0.0139753 0
M  V30 2381 C 225.119 1.5474 0.795703 0
M  V30 2382 O 226.295 1.87334 0.739466 0
M  V30 2383 C 223.36 3.33202 0.957982 0
M  V30 2384 C 222.421 4.28957 0.17149 0
M  V30 2385 C 221.654 5.22853 1.07053 0
M  V30 2386 O 221.877 5.21531 2.31001 0
M  V30 2387 O 220.811 5.9952 0.534727 0
M  V30 2388 H 224.637 2.9448 -0.742661 0
M  V30 2389 H 222.222 1.43117 -0.428705 0
M  V30 2390 H 224.104 3.93796 1.50008 0
M  V30 2391 H 222.779 2.758 1.69458 0
M  V30 2392 H 221.686 3.71796 -0.414558 0
M  V30 2393 H 223.019 4.89383 -0.52586 0
M  V30 2394 N 224.671 0.411399 1.52136 0
M  V30 2395 C 225.634 -0.401089 2.25663 0
M  V30 2396 C 226.634 -0.971732 1.28117 0
M  V30 2397 O 227.824 -0.850254 1.52041 0
M  V30 2398 C 224.956 -1.56483 3.02863 0
M  V30 2399 H 226.149 0.24295 2.98914 0
M  V30 2400 H 223.702 0.163968 1.55438 0
M  V30 2401 H 224.437 -2.24567 2.33967 0
M  V30 2402 H 224.222 -1.16211 3.74483 0
M  V30 2403 H 225.712 -2.13951 3.58629 0
M  V30 2404 N 226.149 -1.5696 0.141893 0
M  V30 2405 C 227.059 -2.20066 -0.812905 0
M  V30 2406 C 228.075 -1.18344 -1.27557 0
M  V30 2407 O 229.251 -1.50902 -1.33381 0
M  V30 2408 C 226.316 -2.80583 -2.03652 0
M  V30 2409 C 225.377 -3.97414 -1.62359 0
M  V30 2410 C 224.61 -4.55036 -2.78887 0
M  V30 2411 O 224.833 -4.11538 -3.94959 0
M  V30 2412 O 223.767 -5.45376 -2.54653 0
M  V30 2413 H 227.593 -3.02157 -0.305746 0
M  V30 2414 H 225.178 -1.49159 -0.0848799 0
M  V30 2415 H 227.06 -3.19067 -2.75272 0
M  V30 2416 H 225.735 -2.01508 -2.5333 0
M  V30 2417 H 224.642 -3.63656 -0.877775 0
M  V30 2418 H 225.975 -4.77994 -1.17401 0
M  V30 2419 N 227.627 0.131896 -1.57047 0
M  V30 2420 C 228.559 1.1878 -1.9602 0
M  V30 2421 C 229.572 1.38363 -0.857875 0
M  V30 2422 O 230.761 1.37666 -1.13623 0
M  V30 2423 C 227.861 2.55008 -2.23213 0
M  V30 2424 C 227.034 2.56201 -3.54513 0
M  V30 2425 C 226.093 3.7408 -3.70069 0
M  V30 2426 O 225.119 3.58258 -4.42312 0
M  V30 2427 N 226.321 4.92137 -3.07866 0
M  V30 2428 H 229.086 0.85639 -2.87204 0
M  V30 2429 H 226.647 0.321309 -1.5868 0
M  V30 2430 H 228.639 3.32404 -2.30846 0
M  V30 2431 H 227.209 2.80382 -1.3822 0
M  V30 2432 H 226.429 1.64613 -3.58185 0
M  V30 2433 H 227.717 2.54043 -4.4084 0
M  V30 2434 H 227.115 5.07895 -2.49116 0
M  V30 2435 H 225.672 5.67254 -3.21039 0
M  V30 2436 N 229.106 1.52395 0.401703 0
M  V30 2437 C 230.069 1.75636 1.47257 0
M  V30 2438 C 231.069 0.62628 1.48103 0
M  V30 2439 O 232.259 0.894227 1.49497 0
M  V30 2440 C 229.391 1.84553 2.86624 0
M  V30 2441 H 230.584 2.71241 1.27938 0
M  V30 2442 H 228.137 1.42923 0.632662 0
M  V30 2443 H 228.872 0.908882 3.11303 0
M  V30 2444 H 228.657 2.66715 2.87412 0
M  V30 2445 H 230.147 2.04251 3.64241 0
M  V30 2446 N 230.584 -0.659388 1.43143 0
M  V30 2447 C 231.832 -1.41654 1.44147 0
M  V30 2448 C 232.153 -1.94893 0.0645739 0
M  V30 2449 O 231.423 -1.74044 -0.899198 0
M  V30 2450 H 230.003 -0.525708 0.530697 0
M  V30 2451 H 232.665 -0.778097 1.78694 0
M  V30 2452 H 231.761 -2.26195 2.1504 0
M  V30 2453 N 232.062 -1.29571 -0.897171 0
M  V30 2454 C 233.339 -1.08365 -1.62839 0
M  V30 2455 C 233.719 0.371331 -2.07808 0
M  V30 2456 O 233.067 1.3606 -1.83576 0
M  V30 2457 C 233.277 -2.0735 -2.80726 0
M  V30 2458 C 234.625 -2.38406 -3.51351 0
M  V30 2459 O 235.649 -2.05564 -2.90898 0
M  V30 2460 O 234.508 -2.9453 -4.60341 0
M  V30 2461 H 231.602 -0.415345 -0.715134 0
M  V30 2462 H 234.148 -1.40952 -0.945018 0
M  V30 2463 H 232.92 -3.05339 -2.44711 0
M  V30 2464 H 232.543 -1.75507 -3.56767 0
M  V30 2465 N 233.54 1.10788 -1.12088 0
M  V30 2466 C 234.788 1.8231 -0.872205 0
M  V30 2467 C 235.109 1.85419 0.603709 0
M  V30 2468 O 234.379 1.32963 1.43867 0
M  V30 2469 H 232.959 0.675137 -0.319686 0
M  V30 2470 H 235.621 1.34068 -1.41463 0
M  V30 2471 H 234.717 2.85955 -1.25045 0
M  V30 2472 N 235.018 0.912232 1.28515 0
M  V30 2473 C 236.429 0.591352 1.77087 0
M  V30 2474 C 236.78 -0.8933 1.74684 0
M  V30 2475 O 235.905 -1.69876 1.34056 0
M  V30 2476 C 236.5 1.06668 3.2157 0
M  V30 2477 C 235.059 0.79675 3.67871 0
M  V30 2478 C 234.206 1.23427 2.48316 0
M  V30 2479 H 237.157 1.09365 1.15 0
M  V30 2480 H 237.178 0.407455 3.78312 0
M  V30 2481 H 236.69 2.14726 3.23287 0
M  V30 2482 H 234.791 -0.270679 3.71616 0
M  V30 2483 H 234.904 1.40343 4.58084 0
M  V30 2484 H 233.268 0.653036 2.46186 0
M  V30 2485 H 234.051 2.32316 2.52753 0
M  V30 2486 N 236.496 -1.42363 0.676048 0
M  V30 2487 C 237.459 -2.29199 0.00766941 0
M  V30 2488 C 238.459 -1.43389 -0.727745 0
M  V30 2489 O 239.649 -1.64764 -0.56556 0
M  V30 2490 C 236.781 -3.2591 -0.999785 0
M  V30 2491 H 237.974 -2.89794 0.771988 0
M  V30 2492 H 235.527 -1.50024 0.438468 0
M  V30 2493 H 236.262 -2.70256 -1.79255 0
M  V30 2494 H 236.047 -3.89202 -0.475829 0
M  V30 2495 H 237.537 -3.91028 -1.46583 0
M  V30 2496 N 237.974 -0.419461 -1.51915 0
M  V30 2497 C 238.904 0.391813 -2.30189 0
M  V30 2498 C 239.885 1.03699 -1.34836 0
M  V30 2499 O 241.07 1.04403 -1.63748 0
M  V30 2500 C 238.2 1.50312 -3.13087 0
M  V30 2501 C 237.154 0.9824 -4.16573 0
M  V30 2502 C 236.48 2.18809 -4.8788 0
M  V30 2503 C 237.78 0.0292356 -5.22292 0
M  V30 2504 H 239.474 -0.26135 -2.98257 0
M  V30 2505 H 237.02 -0.127134 -1.43438 0
M  V30 2506 H 238.973 2.07773 -3.66617 0
M  V30 2507 H 237.697 2.18431 -2.42807 0
M  V30 2508 H 236.356 0.430119 -3.64068 0
M  V30 2509 H 236.004 2.85507 -4.14119 0
M  V30 2510 H 235.704 1.84615 -5.57845 0
M  V30 2511 H 237.228 2.76858 -5.44226 0
M  V30 2512 H 238.642 0.512976 -5.71 0
M  V30 2513 H 237.039 -0.2244 -5.9968 0
M  V30 2514 H 238.109 -0.912931 -4.76228 0
M  V30 2515 N 239.452 1.56882 -0.150215 0
M  V30 2516 C 240.863 1.82995 0.370076 0
M  V30 2517 C 241.214 1.06907 1.64515 0
M  V30 2518 O 240.339 0.315369 2.1409 0
M  V30 2519 C 240.934 3.31942 0.678208 0
M  V30 2520 C 239.493 3.58625 1.14301 0
M  V30 2521 C 238.64 2.76792 0.167778 0
M  V30 2522 H 241.591 1.54209 -0.374858 0
M  V30 2523 H 241.612 3.48272 1.53254 0
M  V30 2524 H 241.124 3.87294 -0.249991 0
M  V30 2525 H 239.225 3.08664 2.08704 0
M  V30 2526 H 239.338 4.67073 1.06676 0
M  V30 2527 H 237.702 2.45972 0.661037 0
M  V30 2528 H 238.485 3.34916 -0.754069 0
M  V30 2529 N 240.93 -0.123565 1.57115 0
M  V30 2530 C 241.893 -1.13583 1.99076 0
M  V30 2531 C 242.893 -1.34564 0.880296 0
M  V30 2532 O 244.083 -1.31158 1.14644 0
M  V30 2533 C 241.215 -2.49128 2.32698 0
M  V30 2534 H 242.408 -0.775287 2.89706 0
M  V30 2535 H 239.961 -0.36771 1.51913 0
M  V30 2536 H 240.696 -2.90111 1.44934 0
M  V30 2537 H 240.481 -2.35255 3.13684 0
M  V30 2538 H 241.971 -3.2199 2.65918 0
M  V30 2539 N 242.408 -1.52605 -0.393616 0
M  V30 2540 C 243.656 -1.67093 -1.13685 0
M  V30 2541 C 243.977 -0.411011 -1.90619 0
M  V30 2542 O 243.247 0.574491 -1.87287 0
M  V30 2543 H 241.827 -0.615923 -0.422668 0
M  V30 2544 H 244.489 -1.89704 -0.447039 0
M  V30 2545 H 243.585 -2.51922 -1.84232 0
M  V30 2546 N 243.887 0.651787 -1.4349 0
M  V30 2547 C 245.112 1.44434 -1.48841 0
M  V30 2548 C 245.537 1.8779 -0.107955 0
M  V30 2549 O 244.895 1.57464 0.898602 0
M  V30 2550 C 244.943 2.65458 -2.44059 0
M  V30 2551 O 244.047 3.64566 -1.92784 0
M  V30 2552 H 243.388 0.433005 -0.503391 0
M  V30 2553 H 245.918 0.797451 -1.88419 0
M  V30 2554 H 245.928 3.13255 -2.6141 0
M  V30 2555 H 244.603 2.33244 -3.4434 0
M  V30 2556 H 243.18 3.23716 -1.851 0
M  V30 2557 N 245.365 1.30045 0.890287 0
M  V30 2558 C 246.59 1.21598 1.68014 0
M  V30 2559 C 247.015 -0.218678 1.86825 0
M  V30 2560 O 246.373 -1.15756 1.39536 0
M  V30 2561 C 246.421 1.94434 3.03691 0
M  V30 2562 O 245.525 1.2678 3.92429 0
M  V30 2563 H 244.866 0.420856 0.513592 0
M  V30 2564 H 247.396 1.71775 1.11151 0
M  V30 2565 H 247.406 2.03251 3.5377 0
M  V30 2566 H 246.081 2.98777 2.89318 0
M  V30 2567 H 244.658 1.26282 3.50866 0
M  V30 2568 N 246.843 -1.10192 1.12674 0
M  V30 2569 C 247.773 -2.18652 0.819362 0
M  V30 2570 C 248.754 -1.68698 -0.217915 0
M  V30 2571 O 249.939 -1.94041 -0.0785581 0
M  V30 2572 C 247.069 -3.46202 0.27594 0
M  V30 2573 C 246.023 -4.09444 1.24656 0
M  V30 2574 C 245.349 -5.31725 0.563258 0
M  V30 2575 C 246.649 -4.52863 2.60217 0
M  V30 2576 H 248.343 -2.44622 1.72628 0
M  V30 2577 H 245.889 -1.17571 0.831451 0
M  V30 2578 H 247.842 -4.21372 0.0486149 0
M  V30 2579 H 246.566 -3.1973 -0.666331 0
M  V30 2580 H 245.225 -3.36284 1.45974 0
M  V30 2581 H 244.873 -5.0153 -0.384235 0
M  V30 2582 H 244.573 -5.74991 1.21075 0
M  V30 2583 H 246.097 -6.09624 0.34503 0
M  V30 2584 H 247.511 -5.19294 2.42913 0
M  V30 2585 H 245.908 -5.06986 3.21068 0
M  V30 2586 H 246.978 -3.65656 3.18471 0
M  V30 2587 N 248.321 -0.919034 -1.28029 0
M  V30 2588 C 249.737 -0.617972 -1.4715 0
M  V30 2589 C 249.937 0.835242 -1.83374 0
M  V30 2590 O 248.993 1.61388 -1.94191 0
M  V30 2591 C 250.306 -1.56041 -2.57044 0
M  V30 2592 C 251.854 -1.56769 -2.7091 0
M  V30 2593 C 252.329 -2.49688 -3.83953 0
M  V30 2594 N 253.82 -2.47845 -3.91314 0
M  V30 2595 C 254.555 -3.16437 -4.78179 0
M  V30 2596 N 254.051 -3.94376 -5.69596 0
M  V30 2597 N 255.844 -3.05498 -4.71834 0
M  V30 2598 H 247.995 -1.85866 -1.02798 0
M  V30 2599 H 250.258 -0.797506 -0.512531 0
M  V30 2600 H 249.964 -2.59671 -2.372 0
M  V30 2601 H 249.838 -1.29551 -3.54255 0
M  V30 2602 H 252.225 -0.538745 -2.90141 0
M  V30 2603 H 252.306 -1.87305 -1.74214 0
M  V30 2604 H 251.95 -3.52688 -3.65477 0
M  V30 2605 H 251.88 -2.16453 -4.80058 0
M  V30 2606 H 254.371 -1.91234 -3.25941 0
M  V30 2607 H 254.684 -4.43721 -6.32718 0
M  V30 2608 H 253.029 -3.98481 -5.69419 0
M  V30 2609 H 256.22 -2.44108 -3.99411 0
M  V30 2610 H 256.393 -3.59225 -5.39316 0
M  V30 2611 N 249.799 1.42003 -0.683588 0
M  V30 2612 C 250.731 2.29183 0.0283068 0
M  V30 2613 C 251.744 1.4415 0.756611 0
M  V30 2614 O 252.933 1.67779 0.609306 0
M  V30 2615 C 250.033 3.21765 1.06398 0
M  V30 2616 C 249.206 4.35496 0.407723 0
M  V30 2617 C 248.265 5.08737 1.34437 0
M  V30 2618 O 247.291 5.62948 0.841318 0
M  V30 2619 N 248.493 5.15075 2.67728 0
M  V30 2620 H 251.258 2.9092 -0.720105 0
M  V30 2621 H 248.819 1.53025 -0.528682 0
M  V30 2622 H 250.811 3.6763 1.69204 0
M  V30 2623 H 249.381 2.61418 1.71404 0
M  V30 2624 H 248.601 3.92165 -0.400012 0
M  V30 2625 H 249.889 5.08776 -0.0490956 0
M  V30 2626 H 249.287 4.72457 3.11129 0
M  V30 2627 H 247.844 5.64556 3.2576 0
M  V30 2628 N 251.277 0.427512 1.51691 0
M  V30 2629 C 252.693 0.0792977 1.59403 0
M  V30 2630 C 252.893 -1.41035 1.43914 0
M  V30 2631 O 251.949 -2.17922 1.27539 0
M  V30 2632 C 253.262 0.590636 2.94842 0
M  V30 2633 C 254.81 0.550215 3.08126 0
M  V30 2634 C 255.285 1.03836 4.46074 0
M  V30 2635 N 256.776 0.995943 4.52366 0
M  V30 2636 C 257.511 1.34463 5.57411 0
M  V30 2637 N 257.007 1.76569 6.69922 0
M  V30 2638 N 258.8 1.26343 5.47717 0
M  V30 2639 H 250.951 1.39687 1.60004 0
M  V30 2640 H 253.214 0.575003 0.753708 0
M  V30 2641 H 252.92 1.63251 3.11516 0
M  V30 2642 H 252.794 0.0102061 3.77199 0
M  V30 2643 H 255.181 -0.482654 2.91126 0
M  V30 2644 H 255.262 1.16693 2.27632 0
M  V30 2645 H 254.906 2.06965 4.63819 0
M  V30 2646 H 254.836 0.398286 5.25092 0
M  V30 2647 H 257.327 0.68661 3.7161 0
M  V30 2648 H 257.64 2.01438 7.46085 0
M  V30 2649 H 255.985 1.80488 6.71155 0
M  V30 2650 H 259.176 0.933209 4.58703 0
M  V30 2651 H 259.349 1.53846 6.29472 0
M  V30 2652 N 252.755 -1.56801 0.158532 0
M  V30 2653 C 253.685 -2.20347 -0.772609 0
M  V30 2654 C 254.666 -1.15518 -1.24859 0
M  V30 2655 O 255.851 -1.43902 -1.30406 0
M  V30 2656 C 252.981 -2.83417 -2.00729 0
M  V30 2657 C 251.935 -3.94174 -1.66765 0
M  V30 2658 C 251.261 -4.44233 -2.97592 0
M  V30 2659 C 252.561 -5.14392 -0.905447 0
M  V30 2660 H 254.255 -2.98413 -0.242959 0
M  V30 2661 H 251.801 -1.43537 -0.115419 0
M  V30 2662 H 253.754 -3.26543 -2.6636 0
M  V30 2663 H 252.478 -2.02701 -2.56086 0
M  V30 2664 H 251.137 -3.51684 -1.03508 0
M  V30 2665 H 250.785 -3.60325 -3.50963 0
M  V30 2666 H 250.485 -5.18945 -2.75626 0
M  V30 2667 H 252.009 -4.90037 -3.64274 0
M  V30 2668 H 253.423 -5.5429 -1.46408 0
M  V30 2669 H 251.82 -5.9494 -0.7853 0
M  V30 2670 H 252.89 -4.84795 0.100668 0
M  V30 2671 N 254.233 0.115231 -1.57178 0
M  V30 2672 C 255.479 0.818565 -1.86202 0
M  V30 2673 C 255.834 1.77316 -0.746785 0
M  V30 2674 O 255.127 1.89923 0.25291 0
M  V30 2675 C 255.321 1.60324 -3.19423 0
M  V30 2676 C 255.15 0.726138 -4.43799 0
M  V30 2677 C 253.92 0.379535 -5.03873 0
M  V30 2678 C 256.118 0.0420774 -5.14283 0
M  V30 2679 N 254.1 -0.507841 -6.11796 0
M  V30 2680 C 255.471 -0.704152 -6.15988 0
M  V30 2681 C 257.526 -0.0339486 -4.97888 0
M  V30 2682 C 256.229 -1.51927 -7.03072 0
M  V30 2683 C 258.255 -0.835906 -5.85463 0
M  V30 2684 C 257.617 -1.57031 -6.86673 0
M  V30 2685 H 253.716 0.276343 -0.731545 0
M  V30 2686 H 256.3 0.0821032 -1.94527 0
M  V30 2687 H 254.471 2.31072 -3.12186 0
M  V30 2688 H 256.203 2.2522 -3.36241 0
M  V30 2689 H 252.958 0.722634 -4.68054 0
M  V30 2690 H 253.382 -0.94349 -6.70393 0
M  V30 2691 H 258.024 0.519496 -4.19596 0
M  V30 2692 H 255.742 -2.08386 -7.80769 0
M  V30 2693 H 259.328 -0.89714 -5.74841 0
M  V30 2694 H 258.208 -2.18088 -7.53264 0
M  V30 2695 N 255.711 1.52812 0.385517 0
M  V30 2696 C 257.127 1.4214 0.725829 0
M  V30 2697 C 257.327 0.544589 1.94001 0
M  V30 2698 O 256.383 0.0193693 2.52493 0
M  V30 2699 C 257.696 2.85042 0.957668 0
M  V30 2700 C 259.244 2.94543 1.05892 0
M  V30 2701 C 259.719 4.38464 1.32337 0
M  V30 2702 N 261.21 4.41804 1.39151 0
M  V30 2703 C 261.945 5.5025 1.61285 0
M  V30 2704 N 261.441 6.68775 1.80866 0
M  V30 2705 N 263.234 5.37798 1.63492 0
M  V30 2706 H 255.385 2.08338 -0.413383 0
M  V30 2707 H 257.648 0.940016 -0.122775 0
M  V30 2708 H 257.354 3.51431 0.137568 0
M  V30 2709 H 257.228 3.27505 1.87137 0
M  V30 2710 H 259.615 2.28321 1.86959 0
M  V30 2711 H 259.696 2.55504 0.123057 0
M  V30 2712 H 259.34 5.05254 0.517793 0
M  V30 2713 H 259.27 4.75059 2.27214 0
M  V30 2714 H 261.761 3.56377 1.25713 0
M  V30 2715 H 262.074 7.47197 1.97271 0
M  V30 2716 H 260.419 6.71797 1.78083 0
M  V30 2717 H 263.61 4.44171 1.47749 0
M  V30 2718 H 263.783 6.22382 1.80402 0
M  V30 2719 N 257.189 -0.644168 1.43834 0
M  V30 2720 C 258.152 -1.73857 1.49353 0
M  V30 2721 C 259.152 -1.56315 0.377112 0
M  V30 2722 O 260.342 -1.62048 0.639226 0
M  V30 2723 C 257.474 -3.12819 1.35488 0
M  V30 2724 H 258.667 -1.70342 2.46827 0
M  V30 2725 H 256.22 -0.856652 1.30733 0
M  V30 2726 H 256.955 -3.2194 0.390569 0
M  V30 2727 H 256.74 -3.26958 2.16428 0
M  V30 2728 H 258.23 -3.92606 1.42302 0
M  V30 2729 N 258.668 -1.30515 -0.883378 0
M  V30 2730 C 259.915 -1.1943 -1.63532 0
M  V30 2731 C 260.243 0.250627 -1.92878 0
M  V30 2732 O 259.498 1.19556 -1.54935 0
M  V30 2733 C 259.797 -1.96994 -2.98209 0
M  V30 2734 C 259.463 -3.466 -2.88408 0
M  V30 2735 C 258.125 -3.87397 -2.85442 0
M  V30 2736 C 260.477 -4.41863 -2.76418 0
M  V30 2737 C 257.805 -5.21745 -2.68327 0
M  V30 2738 C 260.157 -5.7632 -2.60841 0
M  V30 2739 C 258.821 -6.16354 -2.56251 0
M  V30 2740 H 258.091 -0.437025 -0.598406 0
M  V30 2741 H 260.738 -1.61635 -1.02696 0
M  V30 2742 H 259.043 -1.47429 -3.63004 0
M  V30 2743 H 260.74 -1.85808 -3.55354 0
M  V30 2744 H 257.33 -3.14182 -2.91527 0
M  V30 2745 H 261.514 -4.11285 -2.77775 0
M  V30 2746 H 256.77 -5.51853 -2.63189 0
M  V30 2747 H 260.944 -6.49772 -2.50538 0
M  V30 2748 H 258.571 -7.20401 -2.42748 0
M  V30 2749 N 260.146 1.09593 -1.13257 0
M  V30 2750 C 261.056 2.19739 -0.821691 0
M  V30 2751 C 262.072 1.72926 0.19302 0
M  V30 2752 O 263.248 2.01385 0.0244895 0
M  V30 2753 C 260.313 3.45482 -0.290333 0
M  V30 2754 C 259.374 4.06985 -1.36607 0
M  V30 2755 C 258.607 5.26726 -0.859975 0
M  V30 2756 O 258.83 5.69594 0.303082 0
M  V30 2757 O 257.764 5.7931 -1.63351 0
M  V30 2758 H 261.59 2.48781 -1.74189 0
M  V30 2759 H 259.175 1.18496 -0.909894 0
M  V30 2760 H 261.057 4.214 0.000674022 0
M  V30 2761 H 259.732 3.18047 0.602306 0
M  V30 2762 H 258.639 3.32712 -1.71037 0
M  V30 2763 H 259.972 4.38643 -2.23279 0
M  V30 2764 N 261.624 0.925811 1.2754 0
M  V30 2765 C 262.572 0.413897 2.28888 0
M  V30 2766 C 263.566 -0.500779 1.61829 0
M  V30 2767 O 264.772 -0.38069 1.75928 0
M  V30 2768 H 261.147 0.115274 0.743112 0
M  V30 2769 H 263.118 1.28151 2.69481 0
M  V30 2770 C 261.867 -0.319792 3.46226 0
M  V30 2771 H 261.19 0.374846 3.98039 0
M  V30 2772 H 262.63 -0.642435 4.19105 0
M  V30 2773 C 261.089 -1.53209 3.00048 0
M  V30 2774 O 261.619 -2.6309 3.03557 0
M  V30 2775 N 259.825 -1.38326 2.55566 0
M  V30 2776 H 259.372 -0.489292 2.5291 0
M  V30 2777 H 259.33 -2.19564 2.25031 0
M  V30 2778 N 263.102 -1.41638 0.69111 0
M  V30 2779 C 264.513 -1.84346 0.295517 0
M  V30 2780 C 264.864 -1.57833 -1.16547 0
M  V30 2781 O 263.989 -1.04648 -1.89414 0
M  V30 2782 C 264.584 -3.34636 0.529575 0
M  V30 2783 C 263.143 -3.7593 0.187944 0
M  V30 2784 C 262.29 -2.65082 0.814052 0
M  V30 2785 H 265.241 -1.31253 0.892092 0
M  V30 2786 H 265.262 -3.79903 -0.213148 0
M  V30 2787 H 264.774 -3.53901 1.59297 0
M  V30 2788 H 262.875 -3.62268 -0.871367 0
M  V30 2789 H 262.988 -4.74808 0.63985 0
M  V30 2790 H 261.352 -2.53528 0.244017 0
M  V30 2791 H 262.135 -2.87167 1.88123 0
M  V30 2792 N 264.58 -0.43555 -1.51462 0
M  V30 2793 C 265.53 0.394701 -2.24558 0
M  V30 2794 C 266.514 0.99157 -1.26715 0
M  V30 2795 O 267.706 0.910007 -1.51815 0
M  V30 2796 C 264.835 1.4963 -3.08975 0
M  V30 2797 C 263.921 0.908912 -4.14246 0
M  V30 2798 N 264.312 0.0505335 -5.05775 0
M  V30 2799 C 262.61 1.17668 -4.30198 0
M  V30 2800 C 263.311 -0.279161 -5.8103 0
M  V30 2801 N 262.287 0.336767 -5.42556 0
M  V30 2802 H 266.089 -0.267106 -2.92684 0
M  V30 2803 H 263.603 -0.247518 -1.60503 0
M  V30 2804 H 265.6 2.10394 -3.59917 0
M  V30 2805 H 264.26 2.16046 -2.42393 0
M  V30 2806 H 265.271 -0.31577 -5.16936 0
M  V30 2807 H 261.948 1.83847 -3.74842 0
M  V30 2808 H 263.338 -0.977553 -6.64751 0
M  V30 2809 N 266.058 1.56714 -0.166846 0
M  V30 2810 C 267.286 2.0112 0.485644 0
M  V30 2811 C 267.701 1.04705 1.57106 0
M  V30 2812 O 267.058 0.0471923 1.82439 0
M  V30 2813 C 267.109 3.45361 1.06808 0
M  V30 2814 O 266.83 4.38092 0.0259995 0
M  V30 2815 C 268.331 4.05145 1.79924 0
M  V30 2816 H 265.551 0.65931 0.124704 0
M  V30 2817 H 268.095 2.02746 -0.267262 0
M  V30 2818 H 266.25 3.44524 1.7715 0
M  V30 2819 H 266.664 5.22519 0.455398 0
M  V30 2820 H 268.138 5.08009 2.15942 0
M  V30 2821 H 268.615 3.46982 2.69258 0
M  V30 2822 H 269.221 4.09672 1.14234 0
M  V30 2823 N 267.536 -0.106894 1.57237 0
M  V30 2824 C 268.761 -0.830287 1.90055 0
M  V30 2825 C 269.186 -1.72064 0.75998 0
M  V30 2826 O 268.544 -1.78982 -0.288991 0
M  V30 2827 C 268.592 -1.6295 3.21683 0
M  V30 2828 O 267.696 -2.73748 3.08441 0
M  V30 2829 H 267.037 -0.228855 0.623315 0
M  V30 2830 H 269.567 -0.085658 2.04421 0
M  V30 2831 H 269.577 -2.01621 3.54701 0
M  V30 2832 H 268.252 -0.975989 4.04286 0
M  V30 2833 H 266.829 -2.38192 2.86913 0
M  V30 2834 N 269.014 -1.53014 -0.377408 0
M  V30 2835 C 270.242 -1.72515 -1.14219 0
M  V30 2836 C 270.657 -0.448735 -1.8339 0
M  V30 2837 O 270.014 0.577592 -1.73119 0
M  V30 2838 C 270.065 -2.8826 -2.18148 0
M  V30 2839 O 269.786 -4.10962 -1.51795 0
M  V30 2840 C 271.287 -3.19536 -3.07264 0
M  V30 2841 H 268.507 -0.577301 -0.342001 0
M  V30 2842 H 271.051 -1.99712 -0.439935 0
M  V30 2843 H 269.206 -2.63492 -2.83991 0
M  V30 2844 H 269.62 -4.75693 -2.20945 0
M  V30 2845 H 271.094 -4.03959 -3.76193 0
M  V30 2846 H 271.571 -2.34403 -3.71419 0
M  V30 2847 H 272.177 -3.46186 -2.47053 0
M  V30 2848 N 270.492 0.636531 -1.44174 0
M  V30 2849 C 271.455 1.73063 -1.50273 0
M  V30 2850 C 272.455 1.56113 -0.385397 0
M  V30 2851 O 273.645 1.61707 -0.64781 0
M  V30 2852 C 270.777 3.12096 -1.37145 0
M  V30 2853 H 271.97 1.69031 -2.47727 0
M  V30 2854 H 269.523 0.849706 -1.31186 0
M  V30 2855 H 270.258 3.21728 -0.407636 0
M  V30 2856 H 270.043 3.25805 -2.18159 0
M  V30 2857 H 271.533 3.91846 -1.44382 0
M  V30 2858 N 271.97 1.30982 0.876444 0
M  V30 2859 C 272.933 1.18054 1.96459 0
M  V30 2860 C 273.933 0.109399 1.60427 0
M  V30 2861 O 275.123 0.358173 1.70478 0
M  V30 2862 C 272.255 0.810616 3.31122 0
M  V30 2863 H 273.448 2.14735 2.09354 0
M  V30 2864 H 271.001 1.145 1.06392 0
M  V30 2865 H 271.736 -0.155322 3.23928 0
M  V30 2866 H 271.521 1.58481 3.58645 0
M  V30 2867 H 273.011 0.743876 4.10921 0
M  V30 2868 N 273.449 -1.08991 1.13837 0
M  V30 2869 C 274.379 -2.17771 0.842507 0
M  V30 2870 C 275.36 -1.6892 -0.20001 0
M  V30 2871 O 276.545 -1.94113 -0.0579731 0
M  V30 2872 C 273.675 -3.4589 0.312644 0
M  V30 2873 C 272.629 -4.08099 1.28992 0
M  V30 2874 C 271.955 -5.31098 0.619623 0
M  V30 2875 C 273.255 -4.50077 2.65005 0
M  V30 2876 H 274.949 -2.42777 1.75213 0
M  V30 2877 H 272.495 -1.16682 0.843875 0
M  V30 2878 H 274.448 -4.21297 0.0933043 0
M  V30 2879 H 273.172 -3.20419 -0.632382 0
M  V30 2880 H 271.831 -3.34717 1.49533 0
M  V30 2881 H 271.479 -5.0191 -0.33102 0
M  V30 2882 H 271.179 -5.73674 1.27167 0
M  V30 2883 H 272.703 -6.09224 0.409669 0
M  V30 2884 H 274.117 -5.16688 2.48407 0
M  V30 2885 H 272.514 -5.03553 3.26427 0
M  V30 2886 H 273.584 -3.62257 3.22332 0
M  V30 2887 N 274.927 -0.932562 -1.27047 0
M  V30 2888 C 276.173 -0.576412 -1.94436 0
M  V30 2889 C 276.506 0.880891 -1.73072 0
M  V30 2890 O 275.781 1.62905 -1.06264 0
M  V30 2891 C 276.064 -0.909031 -3.48437 0
M  V30 2892 C 275.917 -2.42044 -3.79123 0
M  V30 2893 C 277.236 -0.418341 -4.38107 0
M  V30 2894 H 274.355 -0.210888 -0.706184 0
M  V30 2895 H 276.997 -1.16522 -1.50075 0
M  V30 2896 H 275.147 -0.407947 -3.86352 0
M  V30 2897 H 276.819 -2.99359 -3.50973 0
M  V30 2898 H 275.062 -2.86758 -3.25503 0
M  V30 2899 H 275.733 -2.6037 -4.86736 0
M  V30 2900 H 278.209 -0.847856 -4.0737 0
M  V30 2901 H 277.085 -0.679981 -5.44672 0
M  V30 2902 H 277.346 0.681642 -4.36814 0
M  V30 2903 N 276.405 1.4127 -0.698611 0
M  V30 2904 C 277.652 2.0118 -0.230865 0
M  V30 2905 C 277.98 1.55338 1.17049 0
M  V30 2906 O 277.235 0.756775 1.80475 0
M  V30 2907 C 277.534 3.56592 -0.240192 0
M  V30 2908 C 277.2 4.21955 -1.58948 0
M  V30 2909 C 275.862 4.39524 -1.95887 0
M  V30 2910 C 278.214 4.58576 -2.47704 0
M  V30 2911 C 275.542 4.90992 -3.2116 0
M  V30 2912 C 277.894 5.11435 -3.72313 0
M  V30 2913 C 276.558 5.27215 -4.0939 0
M  V30 2914 H 275.828 0.736169 -0.0844796 0
M  V30 2915 H 278.475 1.69124 -0.8983 0
M  V30 2916 H 276.78 3.88456 0.510797 0
M  V30 2917 H 278.477 4.00758 0.139296 0
M  V30 2918 H 275.067 4.08657 -1.29219 0
M  V30 2919 H 279.251 4.44654 -2.20445 0
M  V30 2920 H 274.507 5.01393 -3.49878 0
M  V30 2921 H 278.681 5.38752 -4.4127 0
M  V30 2922 H 276.308 5.66859 -5.06533 0
M  V30 2923 N 277.883 0.443576 1.51229 0
M  V30 2924 C 279.113 -0.119117 2.06256 0
M  V30 2925 C 279.521 -1.36471 1.31043 0
M  V30 2926 O 278.864 -1.80034 0.365151 0
M  V30 2927 C 278.926 -0.500546 3.55998 0
M  V30 2928 C 278.59 0.639125 4.52509 0
M  V30 2929 C 279.587 1.51311 4.97394 0
M  V30 2930 C 277.272 0.821632 4.95535 0
M  V30 2931 C 279.266 2.55425 5.83984 0
M  V30 2932 C 276.953 1.86603 5.81913 0
M  V30 2933 C 277.951 2.73072 6.26036 0
M  V30 2934 O 277.639 3.75718 7.10698 0
M  V30 2935 H 277.371 -0.00857665 0.675946 0
M  V30 2936 H 279.925 0.623288 1.95715 0
M  V30 2937 H 278.155 -1.29575 3.64345 0
M  V30 2938 H 279.844 -0.995116 3.93513 0
M  V30 2939 H 280.61 1.38367 4.64844 0
M  V30 2940 H 276.489 0.158149 4.60729 0
M  V30 2941 H 280.033 3.22949 6.18344 0
M  V30 2942 H 275.93 1.99564 6.13876 0
M  V30 2943 H 276.698 3.72374 7.2889 0
M  V30 2944 N 279.361 -1.56624 0.175154 0
M  V30 2945 C 280.591 -2.01082 -0.474283 0
M  V30 2946 C 280.999 -1.05447 -1.57091 0
M  V30 2947 O 280.342 -0.0480595 -1.83637 0
M  V30 2948 C 280.404 -3.41963 -1.10911 0
M  V30 2949 C 280.068 -4.56742 -0.153666 0
M  V30 2950 C 281.065 -5.16076 0.629448 0
M  V30 2951 C 278.75 -5.02277 -0.0483776 0
M  V30 2952 C 280.744 -6.19377 1.50501 0
M  V30 2953 C 278.431 -6.05427 0.830768 0
M  V30 2954 C 279.429 -6.63849 1.60605 0
M  V30 2955 O 279.117 -7.64998 2.47049 0
M  V30 2956 H 278.849 -0.664261 -0.125432 0
M  V30 2957 H 281.403 -2.03549 0.275163 0
M  V30 2958 H 279.633 -3.36422 -1.90676 0
M  V30 2959 H 281.322 -3.70352 -1.66114 0
M  V30 2960 H 282.088 -4.81776 0.558297 0
M  V30 2961 H 277.967 -4.56513 -0.641611 0
M  V30 2962 H 281.511 -6.64906 2.1106 0
M  V30 2963 H 277.408 -6.39151 0.903107 0
M  V30 2964 H 278.176 -7.82336 2.40607 0
M  V30 2965 N 280.839 0.0985539 -1.57292 0
M  V30 2966 C 282.085 0.803867 -1.86188 0
M  V30 2967 C 282.418 1.78549 -0.763794 0
M  V30 2968 O 281.693 1.93153 0.22855 0
M  V30 2969 C 281.976 1.53568 -3.25713 0
M  V30 2970 C 281.829 0.572277 -4.46145 0
M  V30 2971 C 283.148 2.48708 -3.63087 0
M  V30 2972 H 280.267 0.290781 -0.677211 0
M  V30 2973 H 282.909 0.0675783 -1.8988 0
M  V30 2974 H 281.059 2.16332 -3.22696 0
M  V30 2975 H 282.731 -0.0480894 -4.61275 0
M  V30 2976 H 280.974 -0.114618 -4.33649 0
M  V30 2977 H 281.645 1.12139 -5.40489 0
M  V30 2978 H 284.121 1.96039 -3.67026 0
M  V30 2979 H 282.997 2.96932 -4.61652 0
M  V30 2980 H 283.258 3.32309 -2.91588 0
M  V30 2981 N 282.317 1.53212 0.369288 0
M  V30 2982 C 283.545 1.73119 1.13303 0
M  V30 2983 C 283.96 0.458455 1.83149 0
M  V30 2984 O 283.317 -0.568403 1.73423 0
M  V30 2985 C 283.368 2.89413 2.16616 0
M  V30 2986 O 283.089 4.11761 1.49614 0
M  V30 2987 C 284.59 3.21161 3.05566 0
M  V30 2988 H 281.81 0.579107 0.338934 0
M  V30 2989 H 284.354 1.99942 0.429338 0
M  V30 2990 H 282.509 2.64994 2.82589 0
M  V30 2991 H 282.923 4.76858 2.18419 0
M  V30 2992 H 284.397 4.05949 3.74045 0
M  V30 2993 H 284.874 2.36369 3.70171 0
M  V30 2994 H 285.48 3.47492 2.45213 0
M  V30 2995 N 283.795 -0.628877 1.44509 0
M  V30 2996 C 285.043 -1.38565 1.4712 0
M  V30 2997 C 285.364 -1.94712 0.105899 0
M  V30 2998 O 284.634 -1.75912 -0.862079 0
M  V30 2999 H 283.214 -0.514333 0.541729 0
M  V30 3000 H 285.876 -0.740018 1.80305 0
M  V30 3001 H 284.972 -2.21583 2.19789 0
M  V30 3002 N 285.273 -1.31445 -0.869486 0
M  V30 3003 C 286.52 -1.21158 -1.62256 0
M  V30 3004 C 286.848 0.230155 -1.93133 0
M  V30 3005 O 286.103 1.17906 -1.56194 0
M  V30 3006 C 286.402 -2.00145 -2.96102 0
M  V30 3007 C 286.068 -3.4964 -2.84715 0
M  V30 3008 C 284.73 -3.90403 -2.81317 0
M  V30 3009 C 287.082 -4.44769 -2.71716 0
M  V30 3010 C 284.41 -5.24561 -2.62778 0
M  V30 3011 C 286.762 -5.79054 -2.54714 0
M  V30 3012 C 285.426 -6.19037 -2.49699 0
M  V30 3013 H 284.696 -0.443348 -0.593737 0
M  V30 3014 H 287.343 -1.62715 -1.00976 0
M  V30 3015 H 285.648 -1.5127 -3.6142 0
M  V30 3016 H 287.345 -1.89566 -3.53363 0
M  V30 3017 H 283.935 -3.17256 -2.88178 0
M  V30 3018 H 288.119 -4.14208 -2.73397 0
M  V30 3019 H 283.375 -5.54613 -2.57321 0
M  V30 3020 H 287.549 -6.52393 -2.43632 0
M  V30 3021 H 285.176 -7.22935 -2.35093 0
M  V30 3022 N 286.751 1.08385 -1.14413 0
M  V30 3023 C 287.998 1.80776 -0.912482 0
M  V30 3024 C 288.326 1.86236 0.560934 0
M  V30 3025 O 287.581 1.33431 1.43159 0
M  V30 3026 C 287.88 3.26273 -1.45879 0
M  V30 3027 C 287.546 3.4093 -2.95089 0
M  V30 3028 C 286.208 3.44638 -3.35824 0
M  V30 3029 C 288.56 3.44591 -3.91033 0
M  V30 3030 C 285.888 3.49597 -4.71167 0
M  V30 3031 C 288.24 3.51086 -5.26233 0
M  V30 3032 C 286.904 3.53067 -5.6648 0
M  V30 3033 H 286.174 0.661507 -0.333901 0
M  V30 3034 H 288.821 1.27613 -1.42784 0
M  V30 3035 H 287.126 3.82146 -0.864376 0
M  V30 3036 H 288.823 3.80839 -1.2555 0
M  V30 3037 H 285.413 3.38736 -2.62594 0
M  V30 3038 H 289.597 3.40957 -3.60641 0
M  V30 3039 H 284.853 3.49424 -5.0171 0
M  V30 3040 H 289.027 3.52864 -6.00383 0
M  V30 3041 H 286.654 3.56662 -6.71339 0
M  V30 3042 N 288.23 0.939286 1.26551 0
M  V30 3043 C 289.479 0.581601 1.93133 0
M  V30 3044 C 289.792 -0.883224 1.74524 0
M  V30 3045 O 290.998 -1.3502 2.35546 0
M  V30 3046 C 289.454 0.989425 3.46032 0
M  V30 3047 C 289.062 2.47573 3.73379 0
M  V30 3048 C 290.806 0.703544 4.18629 0
M  V30 3049 C 288.713 2.82235 5.19709 0
M  V30 3050 H 287.643 0.213803 0.723052 0
M  V30 3051 H 290.294 1.14167 1.4366 0
M  V30 3052 H 288.676 0.357902 3.94379 0
M  V30 3053 H 289.85 3.15614 3.35744 0
M  V30 3054 H 288.165 2.73471 3.1401 0
M  V30 3055 H 290.762 0.938869 5.26393 0
M  V30 3056 H 291.105 -0.359639 4.14744 0
M  V30 3057 H 291.638 1.2947 3.76141 0
M  V30 3058 H 288.377 3.87509 5.28694 0
M  V30 3059 H 287.897 2.18854 5.58447 0
M  V30 3060 H 289.576 2.70599 5.87695 0
M  V30 3061 N 289.708 -1.40897 0.706093 0
M  V30 3062 C 290.671 -2.29131 0.0562841 0
M  V30 3063 C 291.671 -1.44901 -0.697166 0
M  V30 3064 O 292.861 -1.65926 -0.530484 0
M  V30 3065 C 289.993 -3.27957 -0.93043 0
M  V30 3066 H 291.186 -2.88091 0.833284 0
M  V30 3067 H 288.739 -1.4906 0.470192 0
M  V30 3068 H 289.474 -2.73997 -1.73482 0
M  V30 3069 H 289.259 -3.90124 -0.393166 0
M  V30 3070 H 290.749 -3.94049 -1.38256 0
M  V30 3071 N 291.186 -0.45159 -1.50991 0
M  V30 3072 C 292.432 0.110237 -2.025 0
M  V30 3073 C 292.765 1.41109 -1.33424 0
M  V30 3074 O 292.04 1.89135 -0.453659 0
M  V30 3075 C 292.323 0.314271 -3.58726 0
M  V30 3076 C 292.176 -1.00623 -4.38401 0
M  V30 3077 C 293.495 1.07767 -4.26702 0
M  V30 3078 H 290.614 0.0385897 -0.735989 0
M  V30 3079 H 293.256 -0.593374 -1.80497 0
M  V30 3080 H 291.406 0.913601 -3.77605 0
M  V30 3081 H 293.078 -1.64064 -4.31139 0
M  V30 3082 H 291.321 -1.6075 -4.02917 0
M  V30 3083 H 291.992 -0.817341 -5.45915 0
M  V30 3084 H 294.468 0.56986 -4.12179 0
M  V30 3085 H 293.344 1.18921 -5.35863 0
M  V30 3086 H 293.605 2.10939 -3.88532 0
M  V30 3087 N 292.664 1.56529 -0.183458 0
M  V30 3088 C 293.889 2.02064 0.467428 0
M  V30 3089 C 294.314 1.06282 1.55196 0
M  V30 3090 O 293.672 0.0443565 1.81246 0
M  V30 3091 C 293.72 3.46122 1.01153 0
M  V30 3092 O 292.824 3.53437 2.12499 0
M  V30 3093 H 292.165 0.654726 0.110588 0
M  V30 3094 H 294.695 2.02521 -0.290917 0
M  V30 3095 H 294.705 3.85676 1.33108 0
M  V30 3096 H 293.38 4.15331 0.217533 0
M  V30 3097 H 291.957 3.2575 1.81497 0
M  V30 3098 N 294.142 -0.090211 1.57342 0
M  V30 3099 C 295.388 -0.793982 1.86611 0
M  V30 3100 C 295.721 -1.78142 0.773252 0
M  V30 3101 O 294.996 -1.93271 -0.218304 0
M  V30 3102 C 295.279 -1.51839 3.26523 0
M  V30 3103 C 295.132 -0.548609 4.46442 0
M  V30 3104 C 296.451 -2.46779 3.64401 0
M  V30 3105 H 293.57 -0.287186 0.678744 0
M  V30 3106 H 296.212 -0.0575076 1.89913 0
M  V30 3107 H 294.362 -2.14617 3.23839 0
M  V30 3108 H 296.034 0.0725513 4.61243 0
M  V30 3109 H 294.277 0.137614 4.33582 0
M  V30 3110 H 294.948 -1.09271 5.41076 0
M  V30 3111 H 297.424 -1.94089 3.68061 0
M  V30 3112 H 296.3 -2.94479 4.63221 0
M  V30 3113 H 296.561 -3.30758 2.93346 0
M  V30 3114 N 295.62 -1.53406 -0.361157 0
M  V30 3115 C 296.869 -1.69022 -1.10066 0
M  V30 3116 C 297.182 -0.450838 -1.90333 0
M  V30 3117 O 298.388 -0.487617 -2.67085 0
M  V30 3118 C 296.844 -2.98812 -2.00598 0
M  V30 3119 C 296.452 -4.30027 -1.25621 0
M  V30 3120 C 298.196 -3.23795 -2.74513 0
M  V30 3121 C 296.103 -5.50903 -2.1508 0
M  V30 3122 H 295.033 -0.629776 -0.414606 0
M  V30 3123 H 297.684 -1.79907 -0.361348 0
M  V30 3124 H 296.066 -2.8174 -2.78278 0
M  V30 3125 H 297.24 -4.57745 -0.529739 0
M  V30 3126 H 295.555 -4.11522 -0.635496 0
M  V30 3127 H 298.152 -4.11289 -3.41681 0
M  V30 3128 H 298.495 -2.40045 -3.40123 0
M  V30 3129 H 299.028 -3.41561 -2.03914 0
M  V30 3130 H 295.767 -6.37143 -1.54041 0
M  V30 3131 H 295.287 -5.27459 -2.85565 0
M  V30 3132 H 296.966 -5.85865 -2.74538 0
M  V30 3133 N 297.098 0.621204 -1.44841 0
M  V30 3134 C 298.061 1.71459 -1.521 0
M  V30 3135 C 299.061 1.55696 -0.401933 0
M  V30 3136 O 300.251 1.61011 -0.664925 0
M  V30 3137 C 297.383 3.10624 -1.40447 0
M  V30 3138 H 298.576 1.66394 -2.49506 0
M  V30 3139 H 296.129 0.835745 -1.3208 0
M  V30 3140 H 296.864 3.21277 -0.441737 0
M  V30 3141 H 296.649 3.23473 -2.21602 0
M  V30 3142 H 298.139 3.90293 -1.4853 0
M  V30 3143 N 298.576 1.31904 0.862503 0
M  V30 3144 C 299.524 1.20125 1.9918 0
M  V30 3145 C 300.518 0.107824 1.69056 0
M  V30 3146 O 301.724 0.270223 1.7796 0
M  V30 3147 H 298.099 0.372148 0.65346 0
M  V30 3148 H 300.07 2.15652 2.06244 0
M  V30 3149 C 298.819 0.933099 3.34946 0
M  V30 3150 H 298.142 1.76664 3.5865 0
M  V30 3151 H 299.582 0.890892 4.14535 0
M  V30 3152 C 298.041 -0.364172 3.34926 0
M  V30 3153 O 298.571 -1.37858 3.77304 0
M  V30 3154 N 296.777 -0.383362 2.8806 0
M  V30 3155 H 296.324 0.442651 2.53768 0
M  V30 3156 H 296.282 -1.25123 2.8843 0
M  V30 3157 N 300.054 -1.07777 1.14986 0
M  V30 3158 C 301.3 -1.80557 0.923422 0
M  V30 3159 C 301.633 -1.86298 -0.548337 0
M  V30 3160 O 300.908 -1.34354 -1.40639 0
M  V30 3161 C 301.191 -3.25839 1.53299 0
M  V30 3162 C 301.044 -3.28269 3.07505 0
M  V30 3163 C 302.363 -4.22991 1.21518 0
M  V30 3164 H 299.482 -0.655493 0.336894 0
M  V30 3165 H 302.124 -1.26144 1.42083 0
M  V30 3166 H 300.274 -3.72306 1.10999 0
M  V30 3167 H 301.946 -2.90079 3.58681 0
M  V30 3168 H 300.189 -2.67355 3.4162 0
M  V30 3169 H 300.86 -4.30691 3.45266 0
M  V30 3170 H 303.336 -3.84894 1.581 0
M  V30 3171 H 302.212 -5.22945 1.66793 0
M  V30 3172 H 302.473 -4.41904 0.131505 0
M  V30 3173 N 301.532 -0.945985 -1.26051 0
M  V30 3174 C 302.778 -0.597002 -1.93814 0
M  V30 3175 C 303.111 0.862484 -1.73997 0
M  V30 3176 O 302.386 1.61769 -1.07986 0
M  V30 3177 C 302.669 -0.945937 -3.47454 0
M  V30 3178 C 302.522 -2.46052 -3.76535 0
M  V30 3179 C 303.841 -0.464785 -4.37639 0
M  V30 3180 H 300.96 -0.218366 -0.703907 0
M  V30 3181 H 303.602 -1.18107 -1.48831 0
M  V30 3182 H 301.752 -0.448902 -3.85898 0
M  V30 3183 H 303.424 -3.03065 -3.47778 0
M  V30 3184 H 301.667 -2.90194 -3.22444 0
M  V30 3185 H 302.338 -2.65517 -4.83947 0
M  V30 3186 H 304.814 -0.891016 -4.06448 0
M  V30 3187 H 303.69 -0.737712 -5.4392 0
M  V30 3188 H 303.951 0.635274 -4.37512 0
M  V30 3189 N 303.011 1.40521 -0.713556 0
M  V30 3190 C 303.921 2.34522 -0.0606667 0
M  V30 3191 C 304.937 1.57193 0.74607 0
M  V30 3192 O 306.113 1.89591 0.679493 0
M  V30 3193 C 303.178 3.36081 0.851491 0
M  V30 3194 C 302.239 4.29286 0.0349339 0
M  V30 3195 C 301.472 5.25994 0.903649 0
M  V30 3196 O 301.695 5.28616 2.14292 0
M  V30 3197 O 300.629 6.00918 0.343723 0
M  V30 3198 H 304.455 2.91968 -0.835972 0
M  V30 3199 H 302.04 1.41681 -0.47402 0
M  V30 3200 H 303.922 3.98369 1.37404 0
M  V30 3201 H 302.597 2.81052 1.60598 0
M  V30 3202 H 301.504 3.70289 -0.532633 0
M  V30 3203 H 302.837 4.87462 -0.681287 0
M  V30 3204 N 304.489 0.459591 1.5075 0
M  V30 3205 C 305.717 -0.0973749 2.06671 0
M  V30 3206 C 306.132 -1.34524 1.32472 0
M  V30 3207 O 305.489 -1.7827 0.390634 0
M  V30 3208 C 305.54 -0.39714 3.59312 0
M  V30 3209 O 305.261 0.801214 4.30711 0
M  V30 3210 C 306.762 -1.00234 4.31819 0
M  V30 3211 H 303.982 0.00195854 0.670997 0
M  V30 3212 H 306.526 0.645072 1.94059 0
M  V30 3213 H 304.681 -1.08951 3.71764 0
M  V30 3214 H 305.095 0.538857 5.21725 0
M  V30 3215 H 306.569 -1.16193 5.39632 0
M  V30 3216 H 307.046 -1.98939 3.91561 0
M  V30 3217 H 307.652 -0.348699 4.23868 0
M  V30 3218 N 305.967 -1.56429 0.191757 0
M  V30 3219 C 307.216 -1.9666 -0.448088 0
M  V30 3220 C 307.529 -1.08136 -1.62991 0
M  V30 3221 O 308.735 -1.38135 -2.33733 0
M  V30 3222 C 307.191 -3.49753 -0.848585 0
M  V30 3223 C 306.799 -4.46935 0.308764 0
M  V30 3224 C 308.543 -3.9876 -1.4557 0
M  V30 3225 C 306.45 -5.91293 -0.112506 0
M  V30 3226 H 305.38 -0.734312 -0.171179 0
M  V30 3227 H 308.031 -1.81301 0.283242 0
M  V30 3228 H 306.413 -3.60604 -1.63649 0
M  V30 3229 H 307.587 -4.47813 1.08627 0
M  V30 3230 H 305.902 -4.08102 0.827158 0
M  V30 3231 H 308.499 -5.04086 -1.78328 0
M  V30 3232 H 308.842 -3.42875 -2.36099 0
M  V30 3233 H 309.375 -3.9101 -0.731836 0
M  V30 3234 H 306.114 -6.51097 0.758514 0
M  V30 3235 H 305.634 -5.93676 -0.854941 0
M  V30 3236 H 307.313 -6.44663 -0.549448 0
M  V30 3237 N 307.445 0.0818655 -1.57387 0
M  V30 3238 C 308.856 0.634871 -1.75574 0
M  V30 3239 C 309.207 1.78435 -0.815809 0
M  V30 3240 O 308.332 2.164 0.0025366 0
M  V30 3241 C 308.927 1.15845 -3.18379 0
M  V30 3242 C 307.486 1.65741 -3.37945 0
M  V30 3243 C 306.633 0.572549 -2.71325 0
M  V30 3244 H 309.584 -0.144268 -1.58043 0
M  V30 3245 H 309.605 2.02751 -3.21982 0
M  V30 3246 H 309.117 0.321631 -3.86765 0
M  V30 3247 H 307.218 2.51781 -2.74658 0
M  V30 3248 H 307.331 1.74129 -4.46336 0
M  V30 3249 H 305.695 1.01518 -2.33594 0
M  V30 3250 H 306.478 -0.253918 -3.4236 0
M  V30 3251 N 308.923 1.53595 0.353017 0
M  V30 3252 C 310.163 1.72094 1.10286 0
M  V30 3253 C 310.527 0.469217 1.86178 0
M  V30 3254 O 311.728 0.531083 2.63501 0
M  V30 3255 C 309.999 2.94386 2.02661 0
M  V30 3256 S 311.558 3.33651 2.84996 0
M  V30 3257 H 308.376 0.605433 0.372789 0
M  V30 3258 H 310.978 1.91722 0.38248 0
M  V30 3259 H 309.682 3.83669 1.45691 0
M  V30 3260 H 309.213 2.77197 2.79152 0
M  V30 3261 H 311.228 2.86645 4.0503 0
M  V30 3262 N 310.401 -0.613514 1.45168 0
M  V30 3263 C 311.817 -0.933629 1.29443 0
M  V30 3264 C 312.017 -2.00028 0.243101 0
M  V30 3265 O 311.073 -2.49848 -0.364992 0
M  V30 3266 C 312.386 -1.38018 2.67155 0
M  V30 3267 C 313.934 -1.49471 2.75004 0
M  V30 3268 C 314.409 -1.97503 4.13227 0
M  V30 3269 N 315.9 -2.04746 4.15491 0
M  V30 3270 C 316.635 -2.43121 5.19307 0
M  V30 3271 N 316.131 -2.80506 6.33473 0
M  V30 3272 N 317.924 -2.43408 5.06664 0
M  V30 3273 H 310.075 0.0916097 2.12202 0
M  V30 3274 H 312.338 -0.0216655 0.947752 0
M  V30 3275 H 312.044 -0.670625 3.45247 0
M  V30 3276 H 311.918 -2.34784 2.95222 0
M  V30 3277 H 314.305 -2.19519 1.9722 0
M  V30 3278 H 314.386 -0.510342 2.50657 0
M  V30 3279 H 314.03 -1.28045 4.91495 0
M  V30 3280 H 313.96 -2.96843 4.34962 0
M  V30 3281 H 316.451 -1.78468 3.33103 0
M  V30 3282 H 316.764 -3.08652 7.08487 0
M  V30 3283 H 315.109 -2.78216 6.36884 0
M  V30 3284 H 318.3 -2.13604 4.16523 0
M  V30 3285 H 318.473 -2.72989 5.87691 0
M  V30 3286 N 311.879 -1.3236 -0.855495 0
M  V30 3287 C 313.127 -1.22629 -1.60644 0
M  V30 3288 C 313.448 0.212136 -1.93843 0
M  V30 3289 O 312.718 1.13666 -1.59552 0
M  V30 3290 H 311.298 -0.450882 -0.595579 0
M  V30 3291 H 313.96 -1.65871 -1.02337 0
M  V30 3292 H 313.056 -1.80832 -2.54374 0
M  V30 3293 N 313.357 1.07166 -1.15556 0
M  V30 3294 C 314.582 1.84053 -0.955988 0
M  V30 3295 C 315.007 1.81586 0.490739 0
M  V30 3296 O 314.365 1.21018 1.34997 0
M  V30 3297 C 314.413 3.28957 -1.47714 0
M  V30 3298 O 313.517 4.06795 -0.677593 0
M  V30 3299 H 312.858 0.569842 -0.340847 0
M  V30 3300 H 315.388 1.35178 -1.53584 0
M  V30 3301 H 315.398 3.79788 -1.4908 0
M  V30 3302 H 314.073 3.30068 -2.53037 0
M  V30 3303 H 312.65 3.6561 -0.733721 0
M  V30 3304 N 314.835 0.952656 1.25548 0
M  V30 3305 C 315.798 0.475794 2.24207 0
M  V30 3306 C 316.798 -0.419428 1.55234 0
M  V30 3307 O 317.988 -0.216994 1.72843 0
M  V30 3308 C 315.12 -0.312814 3.39462 0
M  V30 3309 H 316.313 1.34779 2.67908 0
M  V30 3310 H 313.866 0.735739 1.37901 0
M  V30 3311 H 314.601 -1.20257 3.01179 0
M  V30 3312 H 314.386 0.329404 3.90714 0
M  V30 3313 H 315.876 -0.635986 4.12729 0
M  V30 3314 N 316.313 -1.40141 0.720998 0
M  V30 3315 C 317.729 -1.54632 0.395113 0
M  V30 3316 C 317.929 -1.69115 -1.09555 0
M  V30 3317 O 316.985 -1.68377 -1.88163 0
M  V30 3318 C 318.298 -2.77177 1.1659 0
M  V30 3319 C 319.846 -2.91 1.15274 0
M  V30 3320 C 320.321 -4.16465 1.90579 0
M  V30 3321 N 321.812 -4.23476 1.87675 0
M  V30 3322 C 322.547 -5.19475 2.42762 0
M  V30 3323 N 322.043 -6.21348 3.06428 0
M  V30 3324 N 323.836 -5.11592 2.32874 0
M  V30 3325 H 315.987 -1.28986 1.68749 0
M  V30 3326 H 318.25 -0.62412 0.713567 0
M  V30 3327 H 317.956 -2.72771 2.22011 0
M  V30 3328 H 317.83 -3.69442 0.76108 0
M  V30 3329 H 320.217 -2.94907 0.106702 0
M  V30 3330 H 320.298 -1.99838 1.59682 0
M  V30 3331 H 319.942 -4.1332 2.95176 0
M  V30 3332 H 319.872 -5.06646 1.43587 0
M  V30 3333 H 322.363 -3.50497 1.41281 0
M  V30 3334 H 322.676 -6.91034 3.45965 0
M  V30 3335 H 321.021 -6.21777 3.10514 0
M  V30 3336 H 324.212 -4.30936 1.82789 0
M  V30 3337 H 324.385 -5.86233 2.76106 0
M  V30 3338 N 317.792 -0.46758 -1.50504 0
M  V30 3339 C 319.208 -0.121533 -1.59137 0
M  V30 3340 C 319.408 1.3717 -1.47603 0
M  V30 3341 O 318.464 2.14464 -1.33272 0
M  V30 3342 C 319.777 -0.6686 -2.93173 0
M  V30 3343 C 321.325 -0.631716 -3.06559 0
M  V30 3344 C 321.8 -1.15627 -4.43164 0
M  V30 3345 N 323.291 -1.11553 -4.49567 0
M  V30 3346 C 324.026 -1.49195 -5.5365 0
M  V30 3347 N 323.522 -1.94269 -6.65005 0
M  V30 3348 N 325.315 -1.4082 -5.44175 0
M  V30 3349 H 317.466 -1.4388 -1.56245 0
M  V30 3350 H 319.729 -0.594784 -0.738198 0
M  V30 3351 H 319.435 -1.71453 -3.07078 0
M  V30 3352 H 319.309 -0.11021 -3.77039 0
M  V30 3353 H 321.696 0.405297 -2.92304 0
M  V30 3354 H 321.777 -1.22687 -2.24458 0
M  V30 3355 H 321.421 -2.1919 -4.58168 0
M  V30 3356 H 321.351 -0.537365 -5.23851 0
M  V30 3357 H 323.842 -0.784895 -3.69659 0
M  V30 3358 H 324.155 -2.21148 -7.40482 0
M  V30 3359 H 322.5 -1.98219 -6.66134 0
M  V30 3360 H 325.691 -1.0545 -4.56068 0
M  V30 3361 H 325.864 -1.70481 -6.25172 0
M  V30 3362 N 319.27 1.56325 -0.20005 0
M  V30 3363 C 320.495 2.02548 0.44597 0
M  V30 3364 C 320.92 1.07922 1.5406 0
M  V30 3365 O 320.278 0.0635775 1.81188 0
M  V30 3366 C 320.326 3.47175 0.974761 0
M  V30 3367 O 319.43 3.55671 2.08739 0
M  V30 3368 H 318.771 0.655862 0.103638 0
M  V30 3369 H 321.301 2.02201 -0.312381 0
M  V30 3370 H 321.311 3.87067 1.2901 0
M  V30 3371 H 319.986 4.15538 0.17347 0
M  V30 3372 H 318.563 3.27657 1.78032 0
M  V30 3373 N 320.748 -0.0735177 1.57428 0
M  V30 3374 C 321.973 -0.789787 1.91774 0
M  V30 3375 C 322.398 -1.70413 0.796306 0
M  V30 3376 O 321.756 -1.79555 -0.250961 0
M  V30 3377 C 321.804 -1.5609 3.25067 0
M  V30 3378 O 320.908 -2.67144 3.14178 0
M  V30 3379 H 320.249 -0.215582 0.628029 0
M  V30 3380 H 322.779 -0.0422781 2.04556 0
M  V30 3381 H 322.789 -1.94052 3.58898 0
M  V30 3382 H 321.464 -0.890015 4.06265 0
M  V30 3383 H 320.041 -2.32052 2.91901 0
M  V30 3384 N 322.226 -1.5378 -0.344866 0
M  V30 3385 C 323.642 -1.44015 -0.687888 0
M  V30 3386 C 323.842 -0.595834 -1.92489 0
M  V30 3387 O 322.898 -0.0863064 -2.52352 0
M  V30 3388 C 324.211 -2.87481 -0.881758 0
M  V30 3389 C 325.759 -2.97247 -0.980459 0
M  V30 3390 C 326.234 -4.41819 -1.20665 0
M  V30 3391 N 327.725 -4.45339 -1.27389 0
M  V30 3392 C 328.46 -5.54333 -1.46639 0
M  V30 3393 N 327.956 -6.73335 -1.63071 0
M  V30 3394 N 329.749 -5.41944 -1.49176 0
M  V30 3395 H 321.9 -2.07169 0.468475 0
M  V30 3396 H 324.163 -0.93643 0.147655 0
M  V30 3397 H 323.869 -3.51672 -0.0443444 0
M  V30 3398 H 323.743 -3.32352 -1.78388 0
M  V30 3399 H 326.13 -2.33197 -1.8084 0
M  V30 3400 H 326.211 -2.5574 -0.0552713 0
M  V30 3401 H 325.855 -5.06449 -0.383652 0
M  V30 3402 H 325.785 -4.80917 -2.14539 0
M  V30 3403 H 328.276 -3.59585 -1.1622 0
M  V30 3404 H 328.589 -7.52165 -1.77391 0
M  V30 3405 H 326.934 -6.76282 -1.60209 0
M  V30 3406 H 330.125 -4.47932 -1.3592 0
M  V30 3407 H 330.298 -6.26946 -1.63837 0
M  V30 3408 N 323.704 0.605807 -1.45491 0
M  V30 3409 C 324.614 1.74466 -1.56839 0
M  V30 3410 C 325.63 1.68006 -0.452772 0
M  V30 3411 O 326.806 1.8833 -0.713708 0
M  V30 3412 C 323.871 3.10931 -1.53371 0
M  V30 3413 C 322.932 3.28832 -2.75986 0
M  V30 3414 C 322.165 4.58787 -2.72673 0
M  V30 3415 O 322.388 5.4122 -1.80102 0
M  V30 3416 O 321.322 4.79438 -3.63899 0
M  V30 3417 H 325.148 1.67843 -2.53106 0
M  V30 3418 H 322.733 0.770108 -1.28022 0
M  V30 3419 H 324.615 3.92233 -1.54051 0
M  V30 3420 H 323.29 3.18042 -0.602572 0
M  V30 3421 H 322.197 2.47112 -2.80867 0
M  V30 3422 H 323.53 3.26599 -3.68231 0
M  V30 3423 N 325.182 1.32811 0.848464 0
M  V30 3424 C 326.114 1.18095 1.96433 0
M  V30 3425 C 327.127 0.114354 1.62398 0
M  V30 3426 O 328.316 0.363892 1.74751 0
M  V30 3427 C 325.416 0.786798 3.2964 0
M  V30 3428 C 324.589 1.943 3.91875 0
M  V30 3429 C 323.648 1.53138 5.03423 0
M  V30 3430 O 322.674 2.24432 5.23086 0
M  V30 3431 N 323.876 0.430915 5.78898 0
M  V30 3432 H 326.641 2.14218 2.09597 0
M  V30 3433 H 324.202 1.2543 1.02367 0
M  V30 3434 H 326.194 0.493715 4.01677 0
M  V30 3435 H 324.764 -0.0834541 3.12489 0
M  V30 3436 H 323.984 2.40224 3.12547 0
M  V30 3437 H 325.272 2.71689 4.30189 0
M  V30 3438 H 324.67 -0.162333 5.65467 0
M  V30 3439 H 323.227 0.197466 6.51501 0
M  V30 3440 N 326.66 -1.06551 1.16123 0
M  V30 3441 C 328.071 -1.60768 0.949232 0
M  V30 3442 C 328.422 -1.89523 -0.507508 0
M  V30 3443 O 327.547 -1.66671 -1.38021 0
M  V30 3444 C 328.142 -2.92086 1.71671 0
M  V30 3445 C 326.701 -3.43015 1.54977 0
M  V30 3446 C 325.848 -2.16947 1.72711 0
M  V30 3447 H 328.799 -0.895354 1.31031 0
M  V30 3448 H 328.82 -3.6138 1.19099 0
M  V30 3449 H 328.332 -2.71127 2.7769 0
M  V30 3450 H 326.433 -3.69039 0.513873 0
M  V30 3451 H 326.546 -4.18516 2.33198 0
M  V30 3452 H 324.91 -2.27041 1.15431 0
M  V30 3453 H 325.693 -1.98473 2.80113 0
M  V30 3454 N 328.138 -0.959301 -1.25041 0
M  V30 3455 C 329.378 -0.624343 -1.94631 0
M  V30 3456 C 329.742 0.82403 -1.73418 0
M  V30 3457 O 330.943 1.26881 -2.3697 0
M  V30 3458 C 329.214 -0.978805 -3.43736 0
M  V30 3459 S 330.773 -0.757127 -4.32219 0
M  V30 3460 H 327.591 -0.229327 -0.673001 0
M  V30 3461 H 330.193 -1.23447 -1.51595 0
M  V30 3462 H 328.897 -2.02997 -3.56679 0
M  V30 3463 H 328.428 -0.359117 -3.91757 0
M  V30 3464 H 330.443 0.369759 -4.9482 0
M  V30 3465 N 329.616 1.39756 -0.72842 0
M  V30 3466 C 330.864 2.00248 -0.272946 0
M  V30 3467 C 331.185 1.58077 1.14178 0
M  V30 3468 O 330.455 0.826014 1.77634 0
M  V30 3469 H 329.035 0.740554 -0.0979247 0
M  V30 3470 H 331.697 1.70903 -0.936912 0
M  V30 3471 H 330.793 3.10495 -0.316142 0
M  V30 3472 N 331.094 0.475555 1.50254 0
M  V30 3473 C 332.004 -0.321501 2.32387 0
M  V30 3474 C 333.02 -0.991755 1.42969 0
M  V30 3475 O 334.196 -0.978747 1.76018 0
M  V30 3476 C 331.261 -1.38667 3.17762 0
M  V30 3477 C 330.322 -0.732538 4.23004 0
M  V30 3478 C 329.555 -1.74695 5.04299 0
M  V30 3479 O 329.778 -2.97399 4.86734 0
M  V30 3480 O 328.712 -1.31631 5.8733 0
M  V30 3481 H 332.538 0.350071 3.01676 0
M  V30 3482 H 330.123 0.237321 1.47503 0
M  V30 3483 H 332.005 -2.00354 3.70724 0
M  V30 3484 H 330.68 -2.04163 2.51196 0
M  V30 3485 H 329.587 -0.0765902 3.74022 0
M  V30 3486 H 330.92 -0.120452 4.92053 0
M  V30 3487 N 332.573 -1.56217 0.208337 0
M  V30 3488 C 333.989 -1.58919 -0.14729 0
M  V30 3489 C 334.189 -1.22486 -1.59998 0
M  V30 3490 O 333.245 -0.953849 -2.3379 0
M  V30 3491 C 334.558 -3.00236 0.167048 0
M  V30 3492 C 336.106 -3.12813 0.108219 0
M  V30 3493 C 336.581 -4.56284 0.396049 0
M  V30 3494 N 338.072 -4.61912 0.345142 0
M  V30 3495 C 338.807 -5.70837 0.541523 0
M  V30 3496 N 338.303 -6.88178 0.798968 0
M  V30 3497 N 340.096 -5.60091 0.474867 0
M  V30 3498 H 332.247 -1.78177 1.15614 0
M  V30 3499 H 334.51 -0.827555 0.462446 0
M  V30 3500 H 334.216 -3.31499 1.1748 0
M  V30 3501 H 334.09 -3.7354 -0.524184 0
M  V30 3502 H 336.477 -2.81354 -0.890157 0
M  V30 3503 H 336.558 -2.41866 0.832729 0
M  V30 3504 H 336.202 -4.88458 1.3918 0
M  V30 3505 H 336.132 -5.25439 -0.349502 0
M  V30 3506 H 338.623 -3.77589 0.153316 0
M  V30 3507 H 338.936 -7.67095 0.93727 0
M  V30 3508 H 337.281 -6.89953 0.836013 0
M  V30 3509 H 340.472 -4.67297 0.274064 0
M  V30 3510 H 340.645 -6.44917 0.631326 0
M  V30 3511 N 334.051 0.0651679 -1.57465 0
M  V30 3512 C 335.298 0.763063 -1.87573 0
M  V30 3513 C 335.626 1.77242 -0.800961 0
M  V30 3514 O 334.881 1.94651 0.202316 0
M  V30 3515 C 335.18 1.50081 -3.24362 0
M  V30 3516 C 334.846 0.630816 -4.46466 0
M  V30 3517 C 333.508 0.391082 -4.79608 0
M  V30 3518 C 335.86 0.0279465 -5.21193 0
M  V30 3519 C 333.188 -0.460894 -5.84887 0
M  V30 3520 C 335.54 -0.811522 -6.27373 0
M  V30 3521 C 334.204 -1.06106 -6.59013 0
M  V30 3522 H 333.474 0.279224 -0.686378 0
M  V30 3523 H 336.121 0.0236726 -1.91485 0
M  V30 3524 H 334.426 2.31258 -3.16271 0
M  V30 3525 H 336.123 2.04571 -3.44894 0
M  V30 3526 H 332.713 0.8278 -4.2053 0
M  V30 3527 H 336.897 0.200262 -4.95896 0
M  V30 3528 H 332.153 -0.662907 -6.07796 0
M  V30 3529 H 336.327 -1.28537 -6.84435 0
M  V30 3530 H 333.954 -1.723 -7.40417 0
M  V30 3531 N 335.529 1.53961 0.336706 0
M  V30 3532 C 336.94 1.62914 0.911925 0
M  V30 3533 C 337.291 0.514795 1.89326 0
M  V30 3534 O 336.416 -0.354395 2.13478 0
M  V30 3535 C 337.011 2.95304 1.66076 0
M  V30 3536 C 335.57 3.06496 2.18489 0
M  V30 3537 C 334.717 2.58403 1.00613 0
M  V30 3538 H 337.668 1.58285 0.114649 0
M  V30 3539 H 337.689 2.84727 2.5241 0
M  V30 3540 H 337.201 3.76387 0.946276 0
M  V30 3541 H 335.302 2.3006 2.93092 0
M  V30 3542 H 335.415 4.1208 2.44391 0
M  V30 3543 H 333.779 2.13977 1.38152 0
M  V30 3544 H 334.562 3.41932 0.306179 0
M  V30 3545 N 337.007 -0.598083 1.45811 0
M  V30 3546 C 337.939 -1.72231 1.51225 0
M  V30 3547 C 338.952 -1.57757 0.402059 0
M  V30 3548 O 340.141 -1.65464 0.669624 0
M  V30 3549 C 337.241 -3.10331 1.3619 0
M  V30 3550 C 336.414 -3.50955 2.61054 0
M  V30 3551 C 335.473 -4.68055 2.40439 0
M  V30 3552 O 334.499 -4.74691 3.14097 0
M  V30 3553 N 335.701 -5.61941 1.45612 0
M  V30 3554 H 338.466 -1.68046 2.48154 0
M  V30 3555 H 336.027 -0.783637 1.41671 0
M  V30 3556 H 338.019 -3.86439 1.20195 0
M  V30 3557 H 336.589 -3.0897 0.475015 0
M  V30 3558 H 335.809 -2.64711 2.92099 0
M  V30 3559 H 337.097 -3.74858 3.44034 0
M  V30 3560 H 336.495 -5.59301 0.848431 0
M  V30 3561 H 335.052 -6.37542 1.35585 0
M  V30 3562 N 338.485 -1.33259 -0.841409 0
M  V30 3563 C 339.448 -1.23221 -1.9326 0
M  V30 3564 C 340.448 -0.151895 -1.60081 0
M  V30 3565 O 341.638 -0.403246 -1.69468 0
M  V30 3566 C 338.77 -0.898123 -3.28856 0
M  V30 3567 H 339.963 -2.2021 -2.03587 0
M  V30 3568 H 337.516 -1.17281 -1.03319 0
M  V30 3569 H 338.251 0.0693841 -3.24226 0
M  V30 3570 H 338.036 -1.67934 -3.54317 0
M  V30 3571 H 339.526 -0.852563 -4.08805 0
M  V30 3572 N 339.963 1.05934 -1.16686 0
M  V30 3573 C 341.21 1.788 -0.950622 0
M  V30 3574 C 341.538 1.87384 0.521305 0
M  V30 3575 O 340.793 1.36438 1.40297 0
M  V30 3576 C 341.092 3.23105 -1.52767 0
M  V30 3577 C 340.758 3.34594 -3.02254 0
M  V30 3578 C 339.42 3.37437 -3.43059 0
M  V30 3579 C 341.772 3.36219 -3.98254 0
M  V30 3580 C 339.1 3.39525 -4.78477 0
M  V30 3581 C 341.452 3.39845 -5.33562 0
M  V30 3582 C 340.116 3.40971 -5.73842 0
M  V30 3583 H 339.386 0.654275 -0.347857 0
M  V30 3584 H 342.033 1.24555 -1.45459 0
M  V30 3585 H 340.338 3.80227 -0.94524 0
M  V30 3586 H 342.035 3.7809 -1.336 0
M  V30 3587 H 338.625 3.3309 -2.6972 0
M  V30 3588 H 342.809 3.33231 -3.67792 0
M  V30 3589 H 338.065 3.38703 -5.09009 0
M  V30 3590 H 342.239 3.4005 -6.07733 0
M  V30 3591 H 339.866 3.42342 -6.78753 0
M  V30 3592 N 341.441 0.965919 1.2453 0
M  V30 3593 C 342.688 0.626831 1.92554 0
M  V30 3594 C 343.016 -0.837739 1.75534 0
M  V30 3595 O 342.271 -1.61793 1.10098 0
M  V30 3596 C 342.57 0.945428 3.44669 0
M  V30 3597 C 342.236 2.39785 3.81856 0
M  V30 3598 C 340.898 2.79483 3.91718 0
M  V30 3599 C 343.25 3.34055 4.00071 0
M  V30 3600 C 340.578 4.12496 4.1721 0
M  V30 3601 C 342.93 4.66694 4.27059 0
M  V30 3602 C 341.594 5.06172 4.3514 0
M  V30 3603 H 340.864 0.229374 0.704605 0
M  V30 3604 H 343.511 1.21707 1.4785 0
M  V30 3605 H 341.816 0.272926 3.90848 0
M  V30 3606 H 343.513 0.661484 3.95507 0
M  V30 3607 H 340.103 2.08003 3.74743 0
M  V30 3608 H 344.287 3.04571 3.91855 0
M  V30 3609 H 339.543 4.42709 4.21685 0
M  V30 3610 H 343.717 5.3971 4.40097 0
M  V30 3611 H 341.344 6.09262 4.54646 0
M  V30 3612 N 342.919 -1.39368 0.735821 0
M  V30 3613 C 344.159 -2.02349 0.288813 0
M  V30 3614 C 344.523 -1.57127 -1.10341 0
M  V30 3615 O 345.724 -2.12312 -1.64854 0
M  V30 3616 C 343.995 -3.55288 0.387986 0
M  V30 3617 S 345.554 -4.38795 0.0209408 0
M  V30 3618 H 342.372 -0.701944 0.113115 0
M  V30 3619 H 344.974 -1.70164 0.962518 0
M  V30 3620 H 343.678 -3.85691 1.40252 0
M  V30 3621 H 343.209 -3.92227 -0.303512 0
M  V30 3622 H 345.224 -4.81595 -1.19503 0
M  V30 3623 N 344.397 -0.483516 -1.5 0
M  V30 3624 C 345.33 0.350427 -2.25493 0
M  V30 3625 C 346.308 0.985549 -1.29328 0
M  V30 3626 O 347.492 1.01906 -1.58579 0
M  V30 3627 C 344.619 1.49202 -3.04066 0
M  V30 3628 C 343.665 0.973036 -4.15252 0
M  V30 3629 S 344.498 -0.122237 -5.3536 0
M  V30 3630 C 345.654 1.02294 -6.17484 0
M  V30 3631 H 345.887 -0.290381 -2.95878 0
M  V30 3632 H 343.42 -0.268562 -1.52046 0
M  V30 3633 H 345.378 2.14623 -3.49925 0
M  V30 3634 H 344.039 2.10438 -2.33183 0
M  V30 3635 H 343.232 1.82804 -4.69679 0
M  V30 3636 H 342.834 0.396335 -3.71894 0
M  V30 3637 H 345.126 1.93195 -6.49371 0
M  V30 3638 H 346.069 0.517664 -7.06205 0
M  V30 3639 H 346.477 1.28238 -5.49741 0
M  V30 3640 N 345.875 1.56104 -0.216619 0
M  V30 3641 C 347.152 1.89988 0.465165 0
M  V30 3642 C 347.532 1.13326 1.78102 0
M  V30 3643 O 346.88 0.241033 2.27225 0
M  V30 3644 C 347.09 3.42646 0.662939 0
M  V30 3645 C 348.438 4.13311 0.972602 0
M  V30 3646 O 349.462 3.48217 0.749901 0
M  V30 3647 O 348.321 5.28396 1.39499 0
M  V30 3648 H 345.415 0.78979 0.245276 0
M  V30 3649 H 347.961 1.67721 -0.258436 0
M  V30 3650 H 346.733 3.90399 -0.26543 0
M  V30 3651 H 346.356 3.70677 1.43821 0
M  V30 3652 N 347.353 -0.0568162 1.57498 0
M  V30 3653 C 348.581 -0.765626 1.92213 0
M  V30 3654 C 348.996 -1.70353 0.813961 0
M  V30 3655 O 348.353 -1.81268 -0.211701 0
M  V30 3656 C 348.404 -1.5465 3.2675 0
M  V30 3657 O 348.125 -0.646278 4.33307 0
M  V30 3658 C 349.626 -2.35497 3.75574 0
M  V30 3659 H 346.846 -0.216835 0.634999 0
M  V30 3660 H 349.39 -0.0226146 2.04487 0
M  V30 3661 H 347.545 -2.24165 3.15957 0
M  V30 3662 H 347.959 -1.19093 5.108 0
M  V30 3663 H 349.433 -2.85722 4.72299 0
M  V30 3664 H 349.91 -3.15692 3.05344 0
M  V30 3665 H 350.516 -1.7111 3.8936 0
M  V30 3666 N 348.832 -1.54138 -0.328536 0
M  V30 3667 C 349.795 -1.82462 -1.38709 0
M  V30 3668 C 350.795 -0.696229 -1.44946 0
M  V30 3669 O 351.985 -0.964535 -1.4506 0
M  V30 3670 C 349.117 -1.98018 -2.77492 0
M  V30 3671 H 350.31 -2.77037 -1.14851 0
M  V30 3672 H 347.863 -1.45779 -0.563751 0
M  V30 3673 H 348.598 -1.05637 -3.06613 0
M  V30 3674 H 348.383 -2.80124 -2.74359 0
M  V30 3675 H 349.873 -2.21396 -3.54081 0
M  V30 3676 N 350.31 0.590341 -1.46126 0
M  V30 3677 C 351.55 1.35995 -1.52593 0
M  V30 3678 C 351.914 1.91243 -0.170368 0
M  V30 3679 O 353.115 2.68576 -0.109775 0
M  V30 3680 C 351.386 2.46465 -2.58823 0
M  V30 3681 S 352.945 3.33953 -2.84641 0
M  V30 3682 H 349.763 0.463425 -0.53922 0
M  V30 3683 H 352.365 0.67944 -1.83314 0
M  V30 3684 H 351.069 2.04256 -3.5596 0
M  V30 3685 H 350.6 3.19297 -2.2981 0
M  V30 3686 H 352.615 4.45094 -2.19331 0
M  V30 3687 N 351.788 1.33704 0.83433 0
M  V30 3688 C 353.034 1.25603 1.59222 0
M  V30 3689 C 353.367 -0.176659 1.93395 0
M  V30 3690 O 352.642 -1.11915 1.59076 0
M  V30 3691 C 352.925 2.13576 2.89926 0
M  V30 3692 C 352.778 3.65326 2.62406 0
M  V30 3693 C 354.097 2.01238 3.91397 0
M  V30 3694 H 351.216 0.457613 0.577719 0
M  V30 3695 H 353.858 1.63848 0.961972 0
M  V30 3696 H 352.008 1.8109 3.43713 0
M  V30 3697 H 353.68 4.08124 2.15017 0
M  V30 3698 H 351.923 3.8698 1.96033 0
M  V30 3699 H 352.594 4.22232 3.55562 0
M  V30 3700 H 355.07 2.29738 3.46929 0
M  V30 3701 H 353.946 2.65036 4.80673 0
M  V30 3702 H 354.207 0.985951 4.30966 0
M  V30 3703 N 353.266 -1.05314 1.17247 0
M  V30 3704 C 354.196 -2.1498 0.911362 0
M  V30 3705 C 355.177 -1.69471 -0.146169 0
M  V30 3706 O 356.362 -1.942 0.003812 0
M  V30 3707 C 353.492 -3.4472 0.422528 0
M  V30 3708 C 352.446 -4.03789 1.4191 0
M  V30 3709 C 351.772 -5.28858 0.788274 0
M  V30 3710 C 353.072 -4.41418 2.7919 0
M  V30 3711 H 354.766 -2.3708 1.82848 0
M  V30 3712 H 352.312 -1.13938 0.880569 0
M  V30 3713 H 354.265 -4.20787 0.227289 0
M  V30 3714 H 352.989 -3.22269 -0.530123 0
M  V30 3715 H 351.648 -3.2979 1.60106 0
M  V30 3716 H 351.296 -5.02709 -0.171173 0
M  V30 3717 H 350.996 -5.69338 1.45353 0
M  V30 3718 H 352.52 -6.07612 0.603282 0
M  V30 3719 H 353.934 -5.08524 2.64719 0
M  V30 3720 H 352.331 -4.92913 3.42282 0
M  V30 3721 H 353.401 -3.51819 3.33693 0
M  V30 3722 N 354.744 -0.972509 -1.24016 0
M  V30 3723 C 355.993 -0.632603 -1.91523 0
M  V30 3724 C 356.306 0.836641 -1.76804 0
M  V30 3725 O 357.512 1.28728 -2.39043 0
M  V30 3726 C 355.968 -1.08082 -3.43287 0
M  V30 3727 C 355.576 -2.57386 -3.66683 0
M  V30 3728 C 357.32 -0.814288 -4.16617 0
M  V30 3729 C 355.227 -2.95915 -5.12043 0
M  V30 3730 H 354.157 -0.232898 -0.717129 0
M  V30 3731 H 356.808 -1.17936 -1.40582 0
M  V30 3732 H 355.19 -0.462339 -3.93292 0
M  V30 3733 H 356.364 -3.24405 -3.27258 0
M  V30 3734 H 354.679 -2.81701 -3.06649 0
M  V30 3735 H 357.276 -1.0781 -5.23718 0
M  V30 3736 H 357.619 0.24955 -4.15551 0
M  V30 3737 H 358.152 -1.39397 -3.72577 0
M  V30 3738 H 354.891 -4.0139 -5.18234 0
M  V30 3739 H 354.411 -2.33584 -5.52448 0
M  V30 3740 H 356.09 -2.86086 -5.80314 0
M  V30 3741 N 356.222 1.38976 -0.743202 0
M  V30 3742 C 357.469 2.00343 -0.294752 0
M  V30 3743 C 357.797 1.58983 1.12047 0
M  V30 3744 O 357.052 0.813809 1.77977 0
M  V30 3745 C 357.351 3.55647 -0.353517 0
M  V30 3746 C 357.017 4.16685 -1.72292 0
M  V30 3747 C 355.679 4.3307 -2.09771 0
M  V30 3748 C 358.031 4.50464 -2.62168 0
M  V30 3749 C 355.359 4.80526 -3.36618 0
M  V30 3750 C 357.711 4.99332 -3.88395 0
M  V30 3751 C 356.375 5.13924 -4.25956 0
M  V30 3752 H 355.645 0.733108 -0.107857 0
M  V30 3753 H 358.292 1.6618 -0.951651 0
M  V30 3754 H 356.597 3.89884 0.386954 0
M  V30 3755 H 358.294 4.00998 0.0117269 0
M  V30 3756 H 354.884 4.04339 -1.42155 0
M  V30 3757 H 359.068 4.37416 -2.3448 0
M  V30 3758 H 354.324 4.90008 -3.65653 0
M  V30 3759 H 358.498 5.2444 -4.58187 0
M  V30 3760 H 356.125 5.50457 -5.2431 0
M  V30 3761 N 357.7 0.491464 1.49741 0
M  V30 3762 C 358.928 -0.0535151 2.06831 0
M  V30 3763 C 359.343 -1.31683 1.35296 0
M  V30 3764 O 358.7 -1.77402 0.42836 0
M  V30 3765 C 358.751 -0.320835 3.60073 0
M  V30 3766 O 358.472 0.892394 4.28915 0
M  V30 3767 C 359.973 -0.910519 4.33848 0
M  V30 3768 H 357.193 0.0161909 0.670805 0
M  V30 3769 H 359.737 0.68609 1.92647 0
M  V30 3770 H 357.892 -1.0104 3.73991 0
M  V30 3771 H 358.306 0.649401 5.20464 0
M  V30 3772 H 359.78 -1.04721 5.41976 0
M  V30 3773 H 360.257 -1.90589 3.95692 0
M  V30 3774 H 360.863 -0.258712 4.24512 0
M  V30 3775 N 359.178 -1.55987 0.224894 0
M  V30 3776 C 360.426 -1.97998 -0.405099 0
M  V30 3777 C 360.747 -1.11387 -1.60056 0
M  V30 3778 O 360.017 -0.191645 -1.9496 0
M  V30 3779 H 358.597 -0.731235 -0.152658 0
M  V30 3780 H 361.259 -1.92279 0.318567 0
M  V30 3781 H 360.355 -3.03463 -0.729167 0
M  V30 3782 N 360.656 0.0484629 -1.57525 0
M  V30 3783 C 361.566 1.07241 -2.08654 0
M  V30 3784 C 362.582 1.409 -1.02095 0
M  V30 3785 O 363.758 1.50609 -1.33712 0
M  V30 3786 C 360.823 2.36008 -2.5397 0
M  V30 3787 C 359.884 2.09108 -3.7493 0
M  V30 3788 C 359.117 3.31736 -4.18075 0
M  V30 3789 O 359.34 4.41714 -3.60895 0
M  V30 3790 O 358.274 3.18576 -5.10679 0
M  V30 3791 H 362.1 0.667965 -2.96263 0
M  V30 3792 H 359.685 0.26417 -1.47046 0
M  V30 3793 H 361.567 3.11747 -2.83535 0
M  V30 3794 H 360.242 2.75786 -1.69481 0
M  V30 3795 H 359.149 1.31 -3.50414 0
M  V30 3796 H 360.482 1.74198 -4.60343 0
M  V30 3797 N 362.134 1.5431 0.320358 0
M  V30 3798 C 363.364 1.7638 1.07582 0
M  V30 3799 C 363.772 0.513944 1.82086 0
M  V30 3800 O 363.115 -0.525123 1.76035 0
M  V30 3801 C 363.177 2.9055 2.1171 0
M  V30 3802 C 362.841 4.2934 1.56575 0
M  V30 3803 C 363.838 5.10077 1.00586 0
M  V30 3804 C 361.523 4.75893 1.60722 0
M  V30 3805 C 363.517 6.35477 0.494756 0
M  V30 3806 C 361.204 6.0126 1.09224 0
M  V30 3807 C 362.202 6.80886 0.53696 0
M  V30 3808 O 361.89 8.03894 0.0297371 0
M  V30 3809 H 361.622 0.592369 0.325692 0
M  V30 3810 H 364.176 2.02019 0.37116 0
M  V30 3811 H 362.406 2.60489 2.85801 0
M  V30 3812 H 364.095 3.00373 2.73003 0
M  V30 3813 H 364.861 4.75265 0.966869 0
M  V30 3814 H 360.74 4.13957 2.02882 0
M  V30 3815 H 364.284 6.97574 0.0606842 0
M  V30 3816 H 360.181 6.35562 1.12831 0
M  V30 3817 H 360.949 8.18372 0.14486 0
M  V30 3818 N 363.613 -0.582584 1.46437 0
M  V30 3819 C 364.543 -1.70187 1.59871 0
M  V30 3820 C 365.524 -1.64066 0.449042 0
M  V30 3821 O 366.709 -1.82081 0.6753 0
M  V30 3822 C 363.839 -3.08827 1.58881 0
M  V30 3823 C 362.793 -3.29779 2.72819 0
M  V30 3824 C 362.119 -4.68947 2.5689 0
M  V30 3825 C 363.419 -3.17601 4.1464 0
M  V30 3826 H 365.113 -1.592 2.53566 0
M  V30 3827 H 362.659 -0.764472 1.22032 0
M  V30 3828 H 364.612 -3.86951 1.66873 0
M  V30 3829 H 363.336 -3.20713 0.617306 0
M  V30 3830 H 361.995 -2.54054 2.64296 0
M  V30 3831 H 361.643 -4.77599 1.57823 0
M  V30 3832 H 361.343 -4.83919 3.33312 0
M  V30 3833 H 362.867 -5.4924 2.66773 0
M  V30 3834 H 364.281 -3.8557 4.24274 0
M  V30 3835 H 362.678 -3.44094 4.9165 0
M  V30 3836 H 363.748 -2.14681 4.34788 0
M  V30 3837 N 365.091 -1.34144 -0.827227 0
M  V30 3838 C 366.021 -1.28005 -1.95287 0
M  V30 3839 C 367.002 -0.158321 -1.69362 0
M  V30 3840 O 368.187 -0.349987 -1.9102 0
M  V30 3841 C 365.317 -1.03036 -3.31664 0
M  V30 3842 C 364.271 -2.11628 -3.72019 0
M  V30 3843 C 363.597 -1.71854 -5.0633 0
M  V30 3844 C 364.897 -3.53417 -3.8457 0
M  V30 3845 H 366.591 -2.22187 -2.00682 0
M  V30 3846 H 364.137 -1.0696 -0.964135 0
M  V30 3847 H 366.09 -0.973863 -4.09993 0
M  V30 3848 H 364.814 -0.0529391 -3.26557 0
M  V30 3849 H 363.473 -2.16339 -2.95961 0
M  V30 3850 H 363.121 -0.727841 -4.97706 0
M  V30 3851 H 362.821 -2.44531 -5.34302 0
M  V30 3852 H 364.345 -1.67692 -5.87122 0
M  V30 3853 H 365.759 -3.51142 -4.5318 0
M  V30 3854 H 364.156 -4.24679 -4.2399 0
M  V30 3855 H 365.226 -3.91072 -2.86689 0
M  V30 3856 N 366.569 1.04691 -1.17803 0
M  V30 3857 C 367.985 1.29963 -0.926379 0
M  V30 3858 C 368.185 1.97251 0.411635 0
M  V30 3859 O 367.241 2.24922 1.14744 0
M  V30 3860 C 368.554 2.16447 -2.08737 0
M  V30 3861 C 370.102 2.29814 -2.12496 0
M  V30 3862 C 370.577 3.19661 -3.27995 0
M  V30 3863 N 372.068 3.27247 -3.27816 0
M  V30 3864 C 372.803 3.96906 -4.13827 0
M  V30 3865 N 372.299 4.6895 -5.09959 0
M  V30 3866 N 374.092 3.93122 -4.01761 0
M  V30 3867 H 366.243 0.594182 -2.0392 0
M  V30 3868 H 368.506 0.324649 -0.890678 0
M  V30 3869 H 368.212 1.74304 -3.05469 0
M  V30 3870 H 368.086 3.17103 -2.04268 0
M  V30 3871 H 370.473 2.71196 -1.16347 0
M  V30 3872 H 370.554 1.2877 -2.21025 0
M  V30 3873 H 370.198 2.78991 -4.24413 0
M  V30 3874 H 370.128 4.20722 -3.16703 0
M  V30 3875 H 372.619 2.75921 -2.58217 0
M  V30 3876 H 372.932 5.19679 -5.71974 0
M  V30 3877 H 371.277 4.67875 -5.13924 0
M  V30 3878 H 374.468 3.35967 -3.2595 0
M  V30 3879 H 374.641 4.47139 -4.6901 0
M  V30 3880 N 368.047 0.979072 1.23499 0
M  V30 3881 C 368.977 0.537606 2.27227 0
M  V30 3882 C 369.958 -0.428539 1.64613 0
M  V30 3883 O 371.143 -0.322191 1.91509 0
M  V30 3884 C 368.273 -0.162052 3.46922 0
M  V30 3885 C 367.227 0.721242 4.21879 0
M  V30 3886 C 366.553 -0.110555 5.34586 0
M  V30 3887 C 367.853 2.01141 4.82016 0
M  V30 3888 H 369.547 1.40462 2.64406 0
M  V30 3889 H 367.093 0.67684 1.27102 0
M  V30 3890 H 369.046 -0.482192 4.18632 0
M  V30 3891 H 367.77 -1.06351 3.08799 0
M  V30 3892 H 366.429 1.02482 3.51984 0
M  V30 3893 H 366.077 -1.0125 4.92704 0
M  V30 3894 H 365.777 0.477325 5.85658 0
M  V30 3895 H 367.301 -0.425107 6.09118 0
M  V30 3896 H 368.715 1.75612 5.45741 0
M  V30 3897 H 367.112 2.54695 5.43369 0
M  V30 3898 H 368.182 2.69909 4.02836 0
M  V30 3899 N 369.525 -1.3858 0.750561 0
M  V30 3900 C 370.772 -2.00184 0.305373 0
M  V30 3901 C 371.1 -1.59575 -1.11203 0
M  V30 3902 O 370.355 -0.823236 -1.77542 0
M  V30 3903 C 370.654 -3.55455 0.372373 0
M  V30 3904 C 370.32 -4.15765 1.745 0
M  V30 3905 C 368.982 -4.31951 2.12065 0
M  V30 3906 C 371.334 -4.49067 2.64553 0
M  V30 3907 C 368.662 -4.78734 3.39162 0
M  V30 3908 C 371.014 -4.97265 3.91038 0
M  V30 3909 C 369.678 -5.11658 4.28676 0
M  V30 3910 H 368.948 -0.732526 0.111744 0
M  V30 3911 H 371.595 -1.65673 0.960451 0
M  V30 3912 H 369.9 -3.90084 -0.366272 0
M  V30 3913 H 371.597 -4.00999 0.00953918 0
M  V30 3914 H 368.187 -4.03579 1.44297 0
M  V30 3915 H 372.371 -4.36166 2.36796 0
M  V30 3916 H 367.627 -4.88062 3.68246 0
M  V30 3917 H 371.801 -5.22003 4.60962 0
M  V30 3918 H 369.428 -5.47668 5.27222 0
M  V30 3919 N 371.003 -0.499398 -1.49478 0
M  V30 3920 C 371.966 0.268838 -2.27618 0
M  V30 3921 C 372.966 0.895383 -1.33565 0
M  V30 3922 O 374.156 0.760164 -1.56739 0
M  V30 3923 C 371.288 1.38559 -3.11471 0
M  V30 3924 H 372.481 -0.416812 -2.96989 0
M  V30 3925 H 370.034 -0.254313 -1.54217 0
M  V30 3926 H 370.769 2.10544 -2.46661 0
M  V30 3927 H 370.554 0.941797 -3.80621 0
M  V30 3928 H 372.044 1.92678 -3.70493 0
M  V30 3929 N 372.481 1.55866 -0.233164 0
M  V30 3930 C 373.444 2.1953 0.658715 0
M  V30 3931 C 374.444 1.16053 1.11303 0
M  V30 3932 O 375.634 1.41218 1.01996 0
M  V30 3933 C 372.766 2.82791 1.90373 0
M  V30 3934 H 373.959 2.99721 0.10347 0
M  V30 3935 H 371.512 1.56291 0.0164245 0
M  V30 3936 H 372.247 2.06501 2.50056 0
M  V30 3937 H 372.032 3.58578 1.58632 0
M  V30 3938 H 373.522 3.31556 2.53891 0
M  V30 3939 N 373.959 -0.0401083 1.57549 0
M  V30 3940 C 375.37 -0.588097 1.77196 0
M  V30 3941 C 375.721 -1.76209 0.862832 0
M  V30 3942 O 374.846 -2.16331 0.0548389 0
M  V30 3943 C 375.441 -1.07363 3.21339 0
M  V30 3944 C 374 -1.56723 3.42221 0
M  V30 3945 C 373.147 -0.50041 2.72747 0
M  V30 3946 H 376.098 0.186119 1.57605 0
M  V30 3947 H 376.119 -1.94143 3.27244 0
M  V30 3948 H 375.631 -0.218975 3.87482 0
M  V30 3949 H 373.732 -2.4441 2.81237 0
M  V30 3950 H 373.845 -1.62234 4.50796 0
M  V30 3951 H 372.209 -0.952894 2.36203 0
M  V30 3952 H 372.992 0.344599 3.41566 0
M  V30 3953 N 375.437 -1.54477 -0.31217 0
M  V30 3954 C 376.662 -1.77526 -1.07235 0
M  V30 3955 C 377.087 -0.527775 -1.80544 0
M  V30 3956 O 376.445 0.52121 -1.73646 0
M  V30 3957 C 376.493 -2.97535 -2.03728 0
M  V30 3958 O 375.597 -2.69878 -3.11833 0
M  V30 3959 H 374.938 -0.58792 -0.30862 0
M  V30 3960 H 377.468 -2.01532 -0.352993 0
M  V30 3961 H 377.478 -3.25198 -2.46395 0
M  V30 3962 H 376.153 -3.87996 -1.49774 0
M  V30 3963 H 374.73 -2.53199 -2.7376 0
M  V30 3964 N 376.915 0.57481 -1.46744 0
M  V30 3965 C 378.331 0.898981 -1.31873 0
M  V30 3966 C 378.531 1.99313 -0.29605 0
M  V30 3967 O 377.587 2.50728 0.298621 0
M  V30 3968 C 378.9 1.30886 -2.7072 0
M  V30 3969 C 380.448 1.42127 -2.78871 0
M  V30 3970 C 380.923 1.86478 -4.18318 0
M  V30 3971 N 382.414 1.93658 -4.20774 0
M  V30 3972 C 383.149 2.29267 -5.2557 0
M  V30 3973 N 382.645 2.63612 -6.40688 0
M  V30 3974 N 384.438 2.29889 -5.1294 0
M  V30 3975 H 376.589 -0.147839 -2.11885 0
M  V30 3976 H 378.852 -0.00347013 -0.947994 0
M  V30 3977 H 378.558 0.578853 -3.46904 0
M  V30 3978 H 378.432 2.26874 -3.01343 0
M  V30 3979 H 380.819 2.14213 -2.0297 0
M  V30 3980 H 380.9 0.443705 -2.51922 0
M  V30 3981 H 380.544 1.14968 -4.94717 0
M  V30 3982 H 380.474 2.85207 -4.42679 0
M  V30 3983 H 382.965 1.69574 -3.37718 0
M  V30 3984 H 383.278 2.89759 -7.16421 0
M  V30 3985 H 381.623 2.61232 -6.44036 0
M  V30 3986 H 384.814 2.02485 -4.22039 0
M  V30 3987 H 384.987 2.57312 -5.94722 0
M  V30 3988 N 378.394 1.34581 0.820102 0
M  V30 3989 C 379.634 1.28448 1.58998 0
M  V30 3990 C 379.998 -0.142883 1.91468 0
M  V30 3991 O 381.199 -0.328422 2.66786 0
M  V30 3992 C 379.47 2.153 2.85273 0
M  V30 3993 S 381.029 2.26548 3.75794 0
M  V30 3994 H 377.847 0.456685 0.54494 0
M  V30 3995 H 380.449 1.69825 0.968487 0
M  V30 3996 H 379.153 3.18008 2.59421 0
M  V30 3997 H 378.684 1.7483 3.52417 0
M  V30 3998 H 380.699 1.44034 4.74835 0
M  V30 3999 N 379.872 -1.04064 1.18357 0
M  V30 4000 C 381.288 -1.2947 0.933258 0
M  V30 4001 C 381.488 -1.97466 -0.401169 0
M  V30 4002 O 380.544 -2.25528 -1.13549 0
M  V30 4003 C 381.857 -2.15337 2.09882 0
M  V30 4004 C 383.405 -2.28683 2.13712 0
M  V30 4005 C 383.88 -3.17917 3.29686 0
M  V30 4006 N 385.371 -3.25504 3.29547 0
M  V30 4007 C 386.106 -3.94706 4.15926 0
M  V30 4008 N 385.602 -4.66239 5.12439 0
M  V30 4009 N 387.395 -3.90986 4.0384 0
M  V30 4010 H 379.546 -0.583359 2.04232 0
M  V30 4011 H 381.809 -0.319921 0.892387 0
M  V30 4012 H 381.515 -1.72682 3.06389 0
M  V30 4013 H 381.389 -3.16015 2.05947 0
M  V30 4014 H 383.776 -2.70575 1.17784 0
M  V30 4015 H 383.857 -1.27596 2.21705 0
M  V30 4016 H 383.501 -2.76736 4.25887 0
M  V30 4017 H 383.431 -4.19036 3.1893 0
M  V30 4018 H 385.922 -2.74547 2.59677 0
M  V30 4019 H 386.235 -5.16638 5.74722 0
M  V30 4020 H 384.58 -4.65143 5.16398 0
M  V30 4021 H 387.771 -3.34234 3.27727 0
M  V30 4022 H 387.944 -4.44646 4.71375 0
M  V30 4023 N 381.35 -0.985608 -1.22978 0
M  V30 4024 C 382.597 -0.657386 -1.91532 0
M  V30 4025 C 382.925 0.809707 -1.76845 0
M  V30 4026 O 382.18 1.60021 -1.12658 0
M  V30 4027 C 382.479 -1.00014 -3.43121 0
M  V30 4028 C 382.145 -2.4583 -3.77993 0
M  V30 4029 C 380.807 -2.85679 -3.87222 0
M  V30 4030 C 383.159 -3.40378 -3.94705 0
M  V30 4031 C 380.487 -4.19081 -4.10595 0
M  V30 4032 C 382.839 -4.73429 -4.1958 0
M  V30 4033 C 381.503 -5.1303 -4.27032 0
M  V30 4034 H 380.773 -0.240555 -0.700867 0
M  V30 4035 H 383.42 -1.24044 -1.45895 0
M  V30 4036 H 381.725 -0.335072 -3.90365 0
M  V30 4037 H 383.422 -0.724322 -3.94404 0
M  V30 4038 H 380.012 -2.13939 -3.71387 0
M  V30 4039 H 384.196 -3.10766 -3.8696 0
M  V30 4040 H 379.452 -4.49362 -4.14589 0
M  V30 4041 H 383.626 -5.46644 -4.31455 0
M  V30 4042 H 381.253 -6.16418 -4.44896 0
M  V30 4043 N 382.828 1.3818 -0.7579 0
M  V30 4044 C 383.758 2.33027 -0.148597 0
M  V30 4045 C 384.739 1.55085 0.69875 0
M  V30 4046 O 385.924 1.83384 0.639053 0
M  V30 4047 C 383.054 3.3928 0.742034 0
M  V30 4048 C 382.008 4.28 -0.00291946 0
M  V30 4049 C 381.334 5.25146 1.00625 0
M  V30 4050 C 382.634 5.08938 -1.17385 0
M  V30 4051 H 384.328 2.84231 -0.940909 0
M  V30 4052 H 381.874 1.36659 -0.453908 0
M  V30 4053 H 383.827 4.046 1.17799 0
M  V30 4054 H 382.551 2.86569 1.56671 0
M  V30 4055 H 381.21 3.64192 -0.419504 0
M  V30 4056 H 380.858 4.68721 1.8251 0
M  V30 4057 H 380.558 5.85361 0.512428 0
M  V30 4058 H 382.082 5.93342 1.44143 0
M  V30 4059 H 383.496 5.67474 -0.815224 0
M  V30 4060 H 381.893 5.7841 -1.59882 0
M  V30 4061 H 382.963 4.42424 -1.98468 0
M  V30 4062 N 384.306 0.507319 1.49211 0
M  V30 4063 C 385.722 0.163682 1.58758 0
M  V30 4064 C 385.922 -1.33208 1.51188 0
M  V30 4065 O 384.978 -2.10855 1.38911 0
M  V30 4066 C 386.291 0.746095 2.91297 0
M  V30 4067 C 387.839 0.712773 3.04776 0
M  V30 4068 C 388.314 1.27336 4.39943 0
M  V30 4069 N 389.805 1.23433 4.46451 0
M  V30 4070 C 390.54 1.63821 5.495 0
M  V30 4071 N 390.036 2.11832 6.5962 0
M  V30 4072 N 391.829 1.55198 5.4025 0
M  V30 4073 H 383.98 1.47972 1.52375 0
M  V30 4074 H 386.243 0.614147 0.722168 0
M  V30 4075 H 385.949 1.79534 3.02424 0
M  V30 4076 H 385.823 0.210137 3.76614 0
M  V30 4077 H 388.21 -0.327656 2.93275 0
M  V30 4078 H 388.291 1.28595 2.21127 0
M  V30 4079 H 387.935 2.3126 4.52196 0
M  V30 4080 H 387.865 0.676066 5.22242 0
M  V30 4081 H 390.356 0.882627 3.67448 0
M  V30 4082 H 390.669 2.40703 7.34358 0
M  V30 4083 H 389.014 2.1581 6.60644 0
M  V30 4084 H 392.205 1.17505 4.53112 0
M  V30 4085 H 392.378 1.86997 6.20432 0
M  V30 4086 N 385.784 -1.5574 0.241426 0
M  V30 4087 C 387.009 -2.0366 -0.392111 0
M  V30 4088 C 387.434 -1.11969 -1.51144 0
M  V30 4089 O 386.792 -0.111594 -1.80956 0
M  V30 4090 C 386.84 -3.49638 -0.882371 0
M  V30 4091 O 385.944 -3.6108 -1.99235 0
M  V30 4092 H 385.285 -0.658379 -0.0862122 0
M  V30 4093 H 387.815 -2.01302 0.365881 0
M  V30 4094 H 387.825 -3.90351 -1.18702 0
M  V30 4095 H 386.5 -4.15852 -0.0632361 0
M  V30 4096 H 385.077 -3.32262 -1.69282 0
M  V30 4097 N 387.262 0.0317525 -1.57568 0
M  V30 4098 C 388.508 0.724175 -1.8943 0
M  V30 4099 C 388.841 1.75149 -0.838836 0
M  V30 4100 O 388.116 1.93948 0.146422 0
M  V30 4101 C 388.399 1.39615 -3.31933 0
M  V30 4102 C 388.252 0.382537 -4.4817 0
M  V30 4103 C 389.571 2.33084 -3.73309 0
M  V30 4104 H 386.69 0.261797 -0.688935 0
M  V30 4105 H 389.332 -0.013017 -1.89996 0
M  V30 4106 H 387.482 2.02451 -3.31581 0
M  V30 4107 H 389.154 -0.243689 -4.60656 0
M  V30 4108 H 387.397 -0.29844 -4.32772 0
M  V30 4109 H 388.068 0.891145 -5.44759 0
M  V30 4110 H 390.544 1.80295 -3.7501 0
M  V30 4111 H 389.42 2.77084 -4.73831 0
M  V30 4112 H 389.681 3.19643 -3.05419 0
M  V30 4113 N 388.74 1.54641 0.303973 0
M  V30 4114 C 389.673 1.80263 1.3993 0
M  V30 4115 C 390.651 0.653657 1.48883 0
M  V30 4116 O 391.835 0.893284 1.6599 0
M  V30 4117 C 388.962 1.9367 2.77866 0
M  V30 4118 C 388.008 3.16078 2.86351 0
M  V30 4119 S 388.841 4.74219 2.4875 0
M  V30 4120 C 389.997 4.90558 3.88721 0
M  V30 4121 H 390.23 2.72886 1.17986 0
M  V30 4122 H 387.763 1.46014 0.501918 0
M  V30 4123 H 389.721 2.0208 3.57315 0
M  V30 4124 H 388.382 1.01991 2.9708 0
M  V30 4125 H 387.575 3.22252 3.87517 0
M  V30 4126 H 387.177 3.06099 2.14893 0
M  V30 4127 H 389.469 4.74398 4.83687 0
M  V30 4128 H 390.412 5.92651 3.87518 0
M  V30 4129 H 390.82 4.18728 3.78585 0
M  V30 4130 N 390.218 -0.567019 1.47046 0
M  V30 4131 C 391.443 -1.3551 1.57009 0
M  V30 4132 C 391.868 -1.86841 0.217259 0
M  V30 4133 O 391.226 -1.62435 -0.805268 0
M  V30 4134 C 391.274 -2.50777 2.5912 0
M  V30 4135 O 390.378 -3.52706 2.13711 0
M  V30 4136 H 389.719 -0.402919 0.52778 0
M  V30 4137 H 392.249 -0.686241 1.92748 0
M  V30 4138 H 392.259 -2.97481 2.79229 0
M  V30 4139 H 390.934 -2.12771 3.57353 0
M  V30 4140 H 389.511 -3.12374 2.03659 0
M  V30 4141 N 391.696 -1.35014 -0.812953 0
M  V30 4142 C 392.626 -1.30069 -1.93919 0
M  V30 4143 C 393.607 -0.176275 -1.69184 0
M  V30 4144 O 394.792 -0.370227 -1.90638 0
M  V30 4145 C 391.922 -1.06547 -3.30552 0
M  V30 4146 C 390.876 -2.15561 -3.69753 0
M  V30 4147 C 390.202 -1.77214 -5.04479 0
M  V30 4148 C 391.502 -3.57476 -3.808 0
M  V30 4149 H 393.196 -2.24303 -1.98314 0
M  V30 4150 H 390.742 -1.07977 -0.952736 0
M  V30 4151 H 392.695 -1.01729 -4.08937 0
M  V30 4152 H 391.419 -0.0875719 -3.26483 0
M  V30 4153 H 390.078 -2.19466 -2.9365 0
M  V30 4154 H 389.726 -0.780589 -4.96906 0
M  V30 4155 H 389.426 -2.50184 -5.31678 0
M  V30 4156 H 390.95 -1.7391 -5.8531 0
M  V30 4157 H 392.364 -3.55929 -4.4943 0
M  V30 4158 H 390.761 -4.29152 -4.19462 0
M  V30 4159 H 391.831 -3.94091 -2.82525 0
M  V30 4160 N 393.175 1.03435 -1.18907 0
M  V30 4161 C 394.424 1.76143 -0.982669 0
M  V30 4162 C 394.737 1.89416 0.487953 0
M  V30 4163 O 395.943 2.59041 0.813036 0
M  V30 4164 C 394.399 3.16722 -1.70924 0
M  V30 4165 C 394.007 3.11522 -3.21959 0
M  V30 4166 C 395.751 3.93764 -1.58588 0
M  V30 4167 C 393.658 4.46999 -3.87228 0
M  V30 4168 H 392.588 0.660292 -0.364047 0
M  V30 4169 H 395.239 1.158 -1.42347 0
M  V30 4170 H 393.621 3.775 -1.19623 0
M  V30 4171 H 394.795 2.60158 -3.80335 0
M  V30 4172 H 393.11 2.47978 -3.34508 0
M  V30 4173 H 395.707 4.93963 -2.04707 0
M  V30 4174 H 396.05 4.12794 -0.539142 0
M  V30 4175 H 396.583 3.39576 -2.07203 0
M  V30 4176 H 393.322 4.33174 -4.91976 0
M  V30 4177 H 392.842 4.98441 -3.33642 0
M  V30 4178 H 394.521 5.15898 -3.90459 0
M  V30 4179 N 394.653 0.992116 1.22453 0
M  V30 4180 C 395.93 0.583508 1.86694 0
M  V30 4181 C 396.31 -0.9392 1.89056 0
M  V30 4182 O 395.658 -1.82081 1.38053 0
M  V30 4183 C 395.868 1.20304 3.2761 0
M  V30 4184 C 397.216 1.30308 4.0411 0
M  V30 4185 O 398.24 1.15737 3.36873 0
M  V30 4186 O 397.099 1.53615 5.24466 0
M  V30 4187 H 394.193 0.198129 0.802916 0
M  V30 4188 H 396.739 1.08794 1.30238 0
M  V30 4189 H 395.511 2.24461 3.2052 0
M  V30 4190 H 395.134 0.684144 3.9167 0
M  V30 4191 N 396.131 -1.37776 0.765217 0
M  V30 4192 C 397.377 -2.00145 0.327072 0
M  V30 4193 C 397.71 -1.60607 -1.09175 0
M  V30 4194 O 396.985 -0.849127 -1.74986 0
M  V30 4195 C 397.268 -3.57109 0.46319 0
M  V30 4196 C 397.121 -4.06576 1.92395 0
M  V30 4197 C 398.44 -4.39888 -0.136473 0
M  V30 4198 H 395.559 -0.727113 0.120316 0
M  V30 4199 H 398.201 -1.63549 0.967039 0
M  V30 4200 H 396.351 -3.88414 -0.0816358 0
M  V30 4201 H 398.023 -3.85864 2.52798 0
M  V30 4202 H 396.266 -3.59011 2.43503 0
M  V30 4203 H 396.937 -5.15639 1.97028 0
M  V30 4204 H 399.413 -4.14803 0.328317 0
M  V30 4205 H 398.289 -5.48899 -0.0110582 0
M  V30 4206 H 398.55 -4.24758 -1.22608 0
M  V30 4207 N 397.609 -0.515225 -1.4894 0
M  V30 4208 C 398.855 0.0242508 -2.02785 0
M  V30 4209 C 399.188 1.35323 -1.39289 0
M  V30 4210 O 398.463 1.87041 -0.533469 0
M  V30 4211 C 398.746 0.16184 -3.59736 0
M  V30 4212 C 398.599 -1.19127 -4.33738 0
M  V30 4213 C 399.918 0.895719 -4.30888 0
M  V30 4214 H 397.037 0.00733914 -0.736963 0
M  V30 4215 H 399.679 -0.669395 -1.77818 0
M  V30 4216 H 397.829 0.752624 -3.8114 0
M  V30 4217 H 399.501 -1.82202 -4.23792 0
M  V30 4218 H 397.744 -1.77695 -3.95736 0
M  V30 4219 H 398.415 -1.04815 -5.41957 0
M  V30 4220 H 400.891 0.394528 -4.14225 0
M  V30 4221 H 399.767 0.960859 -5.40425 0
M  V30 4222 H 400.028 1.9427 -3.97129 0
M  V30 4223 N 399.087 1.5561 -0.249682 0
M  V30 4224 C 400.05 2.20217 0.635394 0
M  V30 4225 C 401.05 1.17227 1.10066 0
M  V30 4226 O 402.24 1.42292 1.00492 0
M  V30 4227 C 399.372 2.84794 1.87363 0
M  V30 4228 H 400.565 2.99814 0.0716752 0
M  V30 4229 H 398.118 1.563 -0.000153234 0
M  V30 4230 H 398.853 2.09142 2.47851 0
M  V30 4231 H 398.638 3.60241 1.5482 0
M  V30 4232 H 400.128 3.3423 2.5036 0
M  V30 4233 N 400.565 -0.0233959 1.57583 0
M  V30 4234 C 401.814 -0.712133 1.8871 0
M  V30 4235 C 402.127 -1.76217 0.848944 0
M  V30 4236 O 403.333 -2.50389 1.04964 0
M  V30 4237 C 401.789 -1.3177 3.3491 0
M  V30 4238 C 401.397 -0.303715 4.46969 0
M  V30 4239 C 403.141 -1.98598 3.75179 0
M  V30 4240 C 401.048 -0.917945 5.84233 0
M  V30 4241 H 399.978 -0.269735 0.704101 0
M  V30 4242 H 402.629 0.0333114 1.8347 0
M  V30 4243 H 401.011 -2.11304 3.34913 0
M  V30 4244 H 402.185 0.465325 4.58445 0
M  V30 4245 H 400.5 0.2628 4.1557 0
M  V30 4246 H 403.097 -2.45416 4.75053 0
M  V30 4247 H 403.44 -2.80659 3.07468 0
M  V30 4248 H 403.973 -1.25831 3.77374 0
M  V30 4249 H 400.712 -0.136633 6.55358 0
M  V30 4250 H 400.232 -1.65669 5.76467 0
M  V30 4251 H 401.911 -1.4236 6.31144 0
M  V30 4252 N 402.043 -1.548 -0.295768 0
M  V30 4253 C 402.973 -1.89115 -1.36959 0
M  V30 4254 C 403.954 -0.75059 -1.52644 0
M  V30 4255 O 405.139 -1.00678 -1.66065 0
M  V30 4256 C 402.269 -2.14307 -2.73295 0
M  V30 4257 C 401.223 -3.30151 -2.72368 0
M  V30 4258 C 400.549 -3.40772 -4.12042 0
M  V30 4259 C 401.849 -4.67126 -2.33646 0
M  V30 4260 H 403.543 -2.79053 -1.08488 0
M  V30 4261 H 401.089 -1.34266 -0.520443 0
M  V30 4262 H 403.042 -2.36898 -3.48507 0
M  V30 4263 H 401.766 -1.21145 -3.03301 0
M  V30 4264 H 400.425 -3.0749 -1.99613 0
M  V30 4265 H 400.073 -2.45117 -4.39234 0
M  V30 4266 H 399.773 -4.18645 -4.12322 0
M  V30 4267 H 401.297 -3.6563 -4.89027 0
M  V30 4268 H 402.711 -4.89414 -2.98575 0
M  V30 4269 H 401.108 -5.47751 -2.45129 0
M  V30 4270 H 402.178 -4.67489 -1.28772 0
M  V30 4271 N 403.521 0.559213 -1.47345 0
M  V30 4272 C 404.932 1.14134 -1.47751 0
M  V30 4273 C 405.283 1.94834 -0.231103 0
M  V30 4274 O 404.408 2.05957 0.664137 0
M  V30 4275 C 405.003 2.07653 -2.67705 0
M  V30 4276 C 403.562 2.61141 -2.71076 0
M  V30 4277 C 402.709 1.3748 -2.40821 0
M  V30 4278 H 405.66 0.345917 -1.54884 0
M  V30 4279 H 405.681 2.91497 -2.44561 0
M  V30 4280 H 405.193 1.4889 -3.58404 0
M  V30 4281 H 403.294 3.23707 -1.84511 0
M  V30 4282 H 403.407 3.02272 -3.7171 0
M  V30 4283 H 401.771 1.68086 -1.91362 0
M  V30 4284 H 402.554 0.805135 -3.33725 0
M  V30 4285 N 404.999 1.35443 0.805782 0
M  V30 4286 C 406.229 1.31687 1.59192 0
M  V30 4287 C 406.637 -0.10756 1.88894 0
M  V30 4288 O 405.98 -1.07017 1.49309 0
M  V30 4289 C 406.042 2.05686 2.94845 0
M  V30 4290 C 405.706 3.54868 2.87954 0
M  V30 4291 C 406.703 4.49444 2.61335 0
M  V30 4292 C 404.388 3.97528 3.07046 0
M  V30 4293 C 406.382 5.84655 2.53885 0
M  V30 4294 C 404.069 5.32833 2.99219 0
M  V30 4295 C 405.067 6.26209 2.72674 0
M  V30 4296 O 404.755 7.59032 2.64811 0
M  V30 4297 H 404.487 0.453878 0.50097 0
M  V30 4298 H 407.041 1.78892 1.0093 0
M  V30 4299 H 405.271 1.5312 3.55093 0
M  V30 4300 H 406.96 1.94998 3.55993 0
M  V30 4301 H 407.726 4.17804 2.46303 0
M  V30 4302 H 403.605 3.25233 3.26718 0
M  V30 4303 H 407.149 6.57508 2.33086 0
M  V30 4304 H 403.046 5.64087 3.13809 0
M  V30 4305 H 403.814 7.68967 2.80413 0
M  V30 4306 N 406.477 -1.02803 1.19454 0
M  V30 4307 C 407.707 -1.79581 1.02149 0
M  V30 4308 C 408.115 -1.84182 -0.432851 0
M  V30 4309 O 407.458 -1.28534 -1.31243 0
M  V30 4310 C 407.52 -3.25993 1.51554 0
M  V30 4311 C 407.184 -3.45025 2.99678 0
M  V30 4312 C 408.181 -3.35175 3.97434 0
M  V30 4313 C 405.866 -3.71212 3.38389 0
M  V30 4314 C 407.86 -3.51238 5.31893 0
M  V30 4315 C 405.547 -3.8692 4.73008 0
M  V30 4316 C 406.545 -3.76936 5.69569 0
M  V30 4317 O 406.233 -3.92179 7.01748 0
M  V30 4318 H 405.965 -0.571962 0.360327 0
M  V30 4319 H 408.519 -1.30367 1.58725 0
M  V30 4320 H 406.749 -3.76235 0.893543 0
M  V30 4321 H 408.438 -3.84368 1.30444 0
M  V30 4322 H 409.204 -3.14895 3.68872 0
M  V30 4323 H 405.083 -3.78075 2.6378 0
M  V30 4324 H 408.627 -3.43362 6.07247 0
M  V30 4325 H 404.524 -4.06699 5.01265 0
M  V30 4326 H 405.292 -4.09265 7.08833 0
M  V30 4327 N 407.956 -0.998596 -1.21925 0
M  V30 4328 C 409.205 -0.673085 -1.90138 0
M  V30 4329 C 409.518 0.79895 -1.78539 0
M  V30 4330 O 410.724 1.23628 -2.4172 0
M  V30 4331 C 409.18 -1.15339 -3.40918 0
M  V30 4332 C 408.788 -2.65106 -3.61141 0
M  V30 4333 C 410.532 -0.902476 -4.14796 0
M  V30 4334 C 408.439 -3.0671 -5.05651 0
M  V30 4335 H 407.369 -0.248057 -0.712028 0
M  V30 4336 H 410.02 -1.20891 -1.38049 0
M  V30 4337 H 408.402 -0.545658 -3.92223 0
M  V30 4338 H 409.576 -3.31274 -3.20304 0
M  V30 4339 H 407.891 -2.88142 -3.00605 0
M  V30 4340 H 410.488 -1.18895 -5.21314 0
M  V30 4341 H 410.831 0.161349 -4.15987 0
M  V30 4342 H 411.364 -1.47269 -3.69536 0
M  V30 4343 H 408.103 -4.12292 -5.09603 0
M  V30 4344 H 407.623 -2.45249 -5.47369 0
M  V30 4345 H 409.302 -2.9833 -5.74115 0
M  V30 4346 N 409.434 1.37368 -0.772513 0
M  V30 4347 C 410.682 1.99279 -0.336516 0
M  V30 4348 C 411.003 1.6163 1.09091 0
M  V30 4349 O 410.273 0.882109 1.74916 0
M  V30 4350 H 408.853 0.737063 -0.121435 0
M  V30 4351 H 411.515 1.67836 -0.990809 0
M  V30 4352 H 410.611 3.09332 -0.414763 0
M  V30 4353 N 410.912 0.523116 1.48665 0
M  V30 4354 C 411.842 -0.23231 2.32342 0
M  V30 4355 C 412.823 -0.941637 1.41659 0
M  V30 4356 O 414.008 -0.928751 1.70552 0
M  V30 4357 C 411.138 -1.28387 3.22698 0
M  V30 4358 C 410.092 -0.693098 4.22351 0
M  V30 4359 C 409.418 -1.8468 5.01794 0
M  V30 4360 C 410.718 0.33063 5.21252 0
M  V30 4361 H 412.412 0.466192 2.95748 0
M  V30 4362 H 409.958 0.225643 1.42221 0
M  V30 4363 H 411.911 -1.82024 3.80059 0
M  V30 4364 H 410.635 -2.01186 2.57278 0
M  V30 4365 H 409.294 -0.178299 3.66166 0
M  V30 4366 H 408.942 -2.56301 4.32804 0
M  V30 4367 H 408.642 -1.45747 5.69238 0
M  V30 4368 H 410.166 -2.38709 5.62006 0
M  V30 4369 H 411.58 -0.118407 5.73178 0
M  V30 4370 H 409.977 0.636974 5.9671 0
M  V30 4371 H 411.047 1.23883 4.68808 0
M  V30 4372 N 412.39 -1.55475 0.257931 0
M  V30 4373 C 413.32 -2.24815 -0.630912 0
M  V30 4374 C 414.301 -1.23224 -1.17259 0
M  V30 4375 O 415.486 -1.51904 -1.20991 0
M  V30 4376 C 412.616 -2.95609 -1.82298 0
M  V30 4377 C 411.57 -4.03982 -1.41359 0
M  V30 4378 C 410.896 -4.6226 -2.68738 0
M  V30 4379 C 412.196 -5.19109 -0.57648 0
M  V30 4380 H 413.89 -2.99354 -0.0526878 0
M  V30 4381 H 411.436 -1.4398 -0.023901 0
M  V30 4382 H 413.389 -3.42822 -2.45054 0
M  V30 4383 H 412.113 -2.18577 -2.42676 0
M  V30 4384 H 410.772 -3.57555 -0.809324 0
M  V30 4385 H 410.42 -3.81915 -3.27338 0
M  V30 4386 H 410.12 -5.35424 -2.42065 0
M  V30 4387 H 411.644 -5.12212 -3.32372 0
M  V30 4388 H 413.058 -5.62479 -1.10861 0
M  V30 4389 H 411.455 -5.98729 -0.405351 0
M  V30 4390 H 412.525 -4.83174 0.408776 0
M  V30 4391 N 413.868 0.0150385 -1.57593 0
M  V30 4392 C 415.114 0.704043 -1.90187 0
M  V30 4393 C 415.447 1.74249 -0.857366 0
M  V30 4394 O 414.722 1.94092 0.125843 0
M  V30 4395 C 415.005 1.36087 -3.33395 0
M  V30 4396 C 414.858 0.334981 -4.48551 0
M  V30 4397 C 416.177 2.29112 -3.7576 0
M  V30 4398 H 413.296 0.254475 -0.691673 0
M  V30 4399 H 415.938 -0.0331678 -1.89971 0
M  V30 4400 H 414.088 1.98922 -3.3371 0
M  V30 4401 H 415.76 -0.292534 -4.60372 0
M  V30 4402 H 414.003 -0.344325 -4.32431 0
M  V30 4403 H 414.674 0.833316 -5.45674 0
M  V30 4404 H 417.15 1.76308 -3.76902 0
M  V30 4405 H 416.026 2.72043 -4.76743 0
M  V30 4406 H 416.287 3.16385 -3.08793 0
M  V30 4407 N 415.346 1.54954 0.287554 0
M  V30 4408 C 416.757 1.65732 0.859634 0
M  V30 4409 C 417.108 0.574767 1.87592 0
M  V30 4410 O 416.233 -0.286299 2.14498 0
M  V30 4411 C 416.828 3.00438 1.56597 0
M  V30 4412 C 415.387 3.13292 2.08627 0
M  V30 4413 C 414.534 2.61473 0.923416 0
M  V30 4414 H 417.485 1.5857 0.0642338 0
M  V30 4415 H 417.506 2.92613 2.43224 0
M  V30 4416 H 417.018 3.79207 0.826053 0
M  V30 4417 H 415.119 2.39268 2.85625 0
M  V30 4418 H 415.232 4.19647 2.31157 0
M  V30 4419 H 413.596 2.18264 1.31275 0
M  V30 4420 H 414.379 3.42733 0.197241 0
M  V30 4421 N 416.824 -0.551391 1.4764 0
M  V30 4422 C 417.771 -1.65796 1.60563 0
M  V30 4423 C 418.741 -1.59932 0.448428 0
M  V30 4424 O 419.926 -1.78679 0.669222 0
M  V30 4425 C 417.066 -3.04108 1.63133 0
M  V30 4426 C 416.179 -3.20365 2.89811 0
M  V30 4427 C 415.314 -4.49109 2.8368 0
M  V30 4428 C 414.353 -4.58819 4.05156 0
M  V30 4429 N 413.49 -5.78926 3.97227 0
M  V30 4430 H 418.33 -1.54088 2.5507 0
M  V30 4431 H 415.867 -0.75052 1.26513 0
M  V30 4432 H 417.825 -3.84207 1.62606 0
M  V30 4433 H 416.455 -3.14637 0.721341 0
M  V30 4434 H 415.507 -2.33659 3.00179 0
M  V30 4435 H 416.819 -3.23402 3.79753 0
M  V30 4436 H 415.973 -5.37475 2.81434 0
M  V30 4437 H 414.712 -4.4856 1.91431 0
M  V30 4438 H 413.717 -3.68864 4.077 0
M  V30 4439 H 414.942 -4.61124 4.98539 0
M  V30 4440 H 412.888 -5.79314 3.07785 0
M  V30 4441 H 412.805 -5.83367 4.80853 0
M  V30 4442 H 414.073 -6.69637 3.99007 0
M  V30 4443 N 418.302 -1.35869 -0.798587 0
M  V30 4444 C 419.25 -1.29491 -1.93222 0
M  V30 4445 C 420.244 -0.18836 -1.6835 0
M  V30 4446 O 421.45 -0.354822 -1.76468 0
M  V30 4447 H 417.825 -0.402901 -0.63496 0
M  V30 4448 H 419.796 -2.25247 -1.9572 0
M  V30 4449 C 418.545 -1.09184 -3.30112 0
M  V30 4450 H 417.868 -1.93574 -3.49813 0
M  V30 4451 H 419.308 -1.08766 -4.09812 0
M  V30 4452 C 417.767 0.203959 -3.36282 0
M  V30 4453 O 418.297 1.19699 -3.83451 0
M  V30 4454 N 416.503 0.245488 -2.89561 0
M  V30 4455 H 416.05 -0.563223 -2.51367 0
M  V30 4456 H 416.008 1.11219 -2.94071 0
M  V30 4457 N 419.78 1.02168 -1.19998 0
M  V30 4458 C 421.057 1.72816 -0.916191 0
M  V30 4459 C 421.437 2.03081 0.576325 0
M  V30 4460 O 420.785 1.69122 1.53656 0
M  V30 4461 C 420.995 2.9997 -1.78378 0
M  V30 4462 C 422.343 3.73336 -2.02251 0
M  V30 4463 O 423.367 3.09914 -1.75589 0
M  V30 4464 O 422.226 4.87371 -2.47249 0
M  V30 4465 H 419.32 0.752924 -0.342103 0
M  V30 4466 H 421.866 1.08062 -1.30846 0
M  V30 4467 H 420.638 2.73888 -2.79466 0
M  V30 4468 H 420.261 3.72464 -1.39126 0
M  V30 4469 N 421.258 1.00505 1.21394 0
M  V30 4470 C 422.535 0.603277 1.86064 0
M  V30 4471 C 422.915 -0.919095 1.90042 0
M  V30 4472 O 422.263 -1.80607 1.39977 0
M  V30 4473 C 422.473 1.23772 3.26315 0
M  V30 4474 C 423.821 1.34586 4.02705 0
M  V30 4475 O 424.845 1.19304 3.35626 0
M  V30 4476 O 423.704 1.59169 5.22807 0
M  V30 4477 H 420.798 0.206634 0.800769 0
M  V30 4478 H 423.344 1.1017 1.29076 0
M  V30 4479 H 422.116 2.27848 3.18121 0
M  V30 4480 H 421.739 0.725648 3.90922 0
M  V30 4481 N 422.737 -1.36956 0.779787 0
M  V30 4482 C 423.983 -1.99787 0.348281 0
M  V30 4483 C 424.316 -1.61756 -1.07465 0
M  V30 4484 O 423.591 -0.867639 -1.74075 0
M  V30 4485 C 423.874 -3.56597 0.50104 0
M  V30 4486 C 423.727 -4.04513 1.96697 0
M  V30 4487 C 425.046 -4.40008 -0.0898097 0
M  V30 4488 H 422.165 -0.725796 0.128022 0
M  V30 4489 H 424.807 -1.62514 0.984331 0
M  V30 4490 H 422.957 -3.88479 -0.0404347 0
M  V30 4491 H 424.629 -3.83161 2.56876 0
M  V30 4492 H 422.872 -3.56408 2.47297 0
M  V30 4493 H 423.543 -5.1352 2.02486 0
M  V30 4494 H 426.019 -4.14431 0.372293 0
M  V30 4495 H 424.895 -5.4888 0.0471605 0
M  V30 4496 H 425.156 -4.26035 -1.18096 0
M  V30 4497 N 424.215 -0.530993 -1.48385 0
M  V30 4498 C 425.44 0.000729535 -2.074 0
M  V30 4499 C 425.865 1.27298 -1.3848 0
M  V30 4500 O 425.223 1.75599 -0.451081 0
M  V30 4501 C 425.271 0.206697 -3.60007 0
M  V30 4502 O 424.375 1.27514 -3.92191 0
M  V30 4503 H 423.716 -0.039583 -0.662819 0
M  V30 4504 H 426.246 -0.739194 -1.9078 0
M  V30 4505 H 426.256 0.42904 -4.05738 0
M  V30 4506 H 424.931 -0.722675 -4.09573 0
M  V30 4507 H 423.508 1.03537 -3.58238 0
M  V30 4508 N 425.693 1.55336 -0.266172 0
M  V30 4509 C 426.941 1.99003 0.35246 0
M  V30 4510 C 427.262 1.15591 1.57047 0
M  V30 4511 O 426.532 0.243268 1.94384 0
M  V30 4512 H 425.112 0.735025 0.133217 0
M  V30 4513 H 427.774 1.91367 -0.369434 0
M  V30 4514 H 426.87 3.05289 0.648453 0
M  V30 4515 N 427.171 -0.0066808 1.57599 0
M  V30 4516 C 428.134 -0.985035 2.06953 0
M  V30 4517 C 429.134 -1.27663 0.977687 0
M  V30 4518 O 430.324 -1.22293 1.24057 0
M  V30 4519 C 427.456 -2.3118 2.50536 0
M  V30 4520 H 428.649 -0.558255 2.94658 0
M  V30 4521 H 426.202 -0.254011 1.54222 0
M  V30 4522 H 426.937 -2.78561 1.66054 0
M  V30 4523 H 426.722 -2.11338 3.3027 0
M  V30 4524 H 428.212 -3.01377 2.8907 0
M  V30 4525 N 428.649 -1.55105 -0.279332 0
M  V30 4526 C 429.896 -1.75412 -1.01177 0
M  V30 4527 C 430.224 -0.551728 -1.86511 0
M  V30 4528 O 429.479 0.465919 -1.90073 0
M  V30 4529 C 429.778 -3.0086 -1.92919 0
M  V30 4530 C 429.444 -4.33689 -1.23387 0
M  V30 4531 C 428.106 -4.69792 -1.04159 0
M  V30 4532 C 430.458 -5.15941 -0.738562 0
M  V30 4533 C 427.786 -5.85707 -0.341166 0
M  V30 4534 C 430.138 -6.32579 -0.0517636 0
M  V30 4535 C 428.802 -6.67326 0.152292 0
M  V30 4536 H 428.072 -0.641879 -0.370233 0
M  V30 4537 H 430.719 -1.89373 -0.284627 0
M  V30 4538 H 429.024 -2.81773 -2.72234 0
M  V30 4539 H 430.721 -3.13768 -2.49701 0
M  V30 4540 H 427.311 -4.05309 -1.39364 0
M  V30 4541 H 431.495 -4.8853 -0.874764 0
M  V30 4542 H 426.751 -6.11157 -0.172287 0
M  V30 4543 H 430.925 -6.9557 0.339828 0
M  V30 4544 H 428.552 -7.56998 0.697014 0
M  V30 4545 N 430.127 0.543554 -1.4793 0
M  V30 4546 C 431.373 1.30201 -1.55485 0
M  V30 4547 C 431.706 1.92925 -0.222201 0
M  V30 4548 O 430.981 1.78586 0.77053 0
M  V30 4549 C 431.264 2.40174 -2.68307 0
M  V30 4550 C 431.117 1.8223 -4.11233 0
M  V30 4551 C 432.436 3.42024 -2.76961 0
M  V30 4552 H 429.555 0.472036 -0.565996 0
M  V30 4553 H 432.197 0.606914 -1.80046 0
M  V30 4554 H 430.347 2.99463 -2.47495 0
M  V30 4555 H 432.019 1.27096 -4.43446 0
M  V30 4556 H 430.262 1.12832 -4.18869 0
M  V30 4557 H 430.933 2.61793 -4.85972 0
M  V30 4558 H 433.409 2.92672 -2.95774 0
M  V30 4559 H 432.285 4.16383 -3.57654 0
M  V30 4560 H 432.546 4.0173 -1.84568 0
M  V30 4561 N 431.605 1.3629 0.791371 0
M  V30 4562 C 432.833 1.33562 1.58016 0
M  V30 4563 C 433.248 -0.0835616 1.88615 0
M  V30 4564 O 432.605 -1.0399 1.49974 0
M  V30 4565 C 432.656 2.15517 2.90232 0
M  V30 4566 O 432.377 3.51902 2.60953 0
M  V30 4567 C 433.878 2.20546 3.84544 0
M  V30 4568 H 431.098 0.458226 0.490173 0
M  V30 4569 H 433.642 1.79361 0.982345 0
M  V30 4570 H 431.797 1.73278 3.46487 0
M  V30 4571 H 432.211 3.94644 3.4548 0
M  V30 4572 H 433.685 2.82252 4.74382 0
M  V30 4573 H 434.162 1.20838 4.2225 0
M  V30 4574 H 434.768 2.63013 3.34222 0
M  V30 4575 N 433.083 -1.0153 1.20538 0
M  V30 4576 C 434.013 -2.11972 0.979295 0
M  V30 4577 C 434.994 -1.6985 -0.0921787 0
M  V30 4578 O 436.179 -1.94089 0.0655932 0
M  V30 4579 C 433.309 -3.43201 0.531984 0
M  V30 4580 C 432.263 -3.9907 1.54685 0
M  V30 4581 C 431.589 -5.26082 0.956127 0
M  V30 4582 C 432.889 -4.32313 2.93092 0
M  V30 4583 H 434.583 -2.31143 1.90298 0
M  V30 4584 H 432.129 -1.11079 0.916372 0
M  V30 4585 H 434.082 -4.1985 0.361044 0
M  V30 4586 H 432.806 -3.23792 -0.427327 0
M  V30 4587 H 431.465 -3.2453 1.70517 0
M  V30 4588 H 431.113 -5.02999 -0.0111538 0
M  V30 4589 H 430.813 -5.64426 1.63393 0
M  V30 4590 H 432.337 -6.05386 0.796284 0
M  V30 4591 H 433.751 -4.99845 2.80763 0
M  V30 4592 H 432.148 -4.81774 3.57791 0
M  V30 4593 H 433.218 -3.41025 3.44717 0
M  V30 4594 N 434.561 -1.01147 -1.20859 0
M  V30 4595 C 435.977 -0.725422 -1.42161 0
M  V30 4596 C 436.177 0.696919 -1.89064 0
M  V30 4597 O 435.233 1.46539 -2.05627 0
M  V30 4598 C 436.546 -1.74678 -2.44761 0
M  V30 4599 C 438.094 -1.76433 -2.58535 0
M  V30 4600 C 438.569 -2.77481 -3.64374 0
M  V30 4601 N 440.06 -2.76189 -3.71852 0
M  V30 4602 C 440.795 -3.51035 -4.53389 0
M  V30 4603 N 440.291 -4.35541 -5.38773 0
M  V30 4604 N 442.084 -3.39655 -4.47873 0
M  V30 4605 H 434.235 -1.92979 -0.887282 0
M  V30 4606 H 436.498 -0.833327 -0.451962 0
M  V30 4607 H 436.204 -2.76551 -2.17285 0
M  V30 4608 H 436.078 -1.55472 -3.43669 0
M  V30 4609 H 438.465 -0.75248 -2.85345 0
M  V30 4610 H 438.546 -1.99712 -1.5984 0
M  V30 4611 H 438.19 -3.78827 -3.38308 0
M  V30 4612 H 438.12 -2.51466 -4.6268 0
M  V30 4613 H 440.611 -2.14885 -3.10858 0
M  V30 4614 H 440.924 -4.89432 -5.98061 0
M  V30 4615 H 439.269 -4.39621 -5.38292 0
M  V30 4616 H 442.46 -2.73063 -3.80203 0
M  V30 4617 H 442.633 -3.9824 -5.11184 0
M  V30 4618 N 436.039 1.36541 -0.78704 0
M  V30 4619 C 437.285 1.99599 -0.358872 0
M  V30 4620 C 437.618 1.62323 1.06606 0
M  V30 4621 O 436.893 0.876858 1.73613 0
M  V30 4622 C 437.176 3.56327 -0.519944 0
M  V30 4623 C 437.029 4.03464 -1.98839 0
M  V30 4624 C 438.348 4.4005 0.0664737 0
M  V30 4625 H 435.467 0.725107 -0.131869 0
M  V30 4626 H 438.109 1.6199 -0.992936 0
M  V30 4627 H 436.259 3.88495 0.0198321 0
M  V30 4628 H 437.931 3.81793 -2.58905 0
M  V30 4629 H 436.174 3.55092 -2.49183 0
M  V30 4630 H 436.845 5.12439 -2.05207 0
M  V30 4631 H 439.321 4.14228 -0.394267 0
M  V30 4632 H 438.197 5.48847 -0.0762682 0
M  V30 4633 H 438.458 4.26655 1.15835 0
M  V30 4634 N 437.518 0.538854 1.48102 0
M  V30 4635 C 438.765 0.0080018 2.02498 0
M  V30 4636 C 439.093 -1.33437 1.41509 0
M  V30 4637 O 438.348 -1.87709 0.553507 0
M  V30 4638 C 438.647 -0.153808 3.57069 0
M  V30 4639 C 438.313 1.11533 4.36888 0
M  V30 4640 C 436.975 1.46314 4.58417 0
M  V30 4641 C 439.327 1.95718 4.83057 0
M  V30 4642 C 436.655 2.6516 5.23361 0
M  V30 4643 C 439.007 3.13751 5.49312 0
M  V30 4644 C 437.671 3.48866 5.69077 0
M  V30 4645 H 436.941 0.00292807 0.740994 0
M  V30 4646 H 439.588 0.706668 1.77984 0
M  V30 4647 H 437.893 -0.935309 3.80472 0
M  V30 4648 H 439.59 -0.579607 3.96789 0
M  V30 4649 H 436.18 0.834484 4.20398 0
M  V30 4650 H 440.364 1.70158 4.66219 0
M  V30 4651 H 435.62 2.92558 5.36861 0
M  V30 4652 H 439.794 3.79282 5.84053 0
M  V30 4653 H 437.421 4.41054 6.19173 0
M  V30 4654 N 438.996 -1.55193 0.274407 0
M  V30 4655 C 440.412 -1.59401 -0.0797543 0
M  V30 4656 C 440.612 -1.29162 -1.54659 0
M  V30 4657 O 439.668 -1.05215 -2.29534 0
M  V30 4658 C 440.981 -2.99257 0.294238 0
M  V30 4659 C 442.529 -3.12072 0.240796 0
M  V30 4660 C 443.004 -4.54194 0.589218 0
M  V30 4661 N 444.495 -4.60033 0.540744 0
M  V30 4662 C 445.23 -5.68027 0.783147 0
M  V30 4663 N 444.726 -6.8417 1.09013 0
M  V30 4664 N 446.519 -5.57572 0.711993 0
M  V30 4665 H 438.67 -1.73113 1.23067 0
M  V30 4666 H 440.933 -0.807197 0.497129 0
M  V30 4667 H 440.639 -3.26217 1.31435 0
M  V30 4668 H 440.513 -3.75427 -0.365281 0
M  V30 4669 H 442.9 -2.84877 -0.770024 0
M  V30 4670 H 442.981 -2.38117 0.934563 0
M  V30 4671 H 442.625 -4.82115 1.59772 0
M  V30 4672 H 442.555 -5.26448 -0.126331 0
M  V30 4673 H 445.046 -3.76599 0.313327 0
M  V30 4674 H 445.359 -7.6243 1.26178 0
M  V30 4675 H 443.704 -6.85787 1.12789 0
M  V30 4676 H 446.895 -4.65714 0.472014 0
M  V30 4677 H 447.068 -6.41659 0.90429 0
M  V30 4678 N 440.474 -0.00167713 -1.576 0
M  V30 4679 C 441.72 0.683832 -1.90923 0
M  V30 4680 C 442.053 1.7333 -0.875799 0
M  V30 4681 O 441.328 1.94215 0.10525 0
M  V30 4682 C 441.611 1.32543 -3.3482 0
M  V30 4683 C 441.464 0.287387 -4.48881 0
M  V30 4684 C 442.783 2.25114 -3.78169 0
M  V30 4685 H 439.902 0.247125 -0.694333 0
M  V30 4686 H 442.544 -0.0533149 -1.89925 0
M  V30 4687 H 440.694 1.95372 -3.35801 0
M  V30 4688 H 442.366 -0.341346 -4.60035 0
M  V30 4689 H 440.609 -0.39017 -4.32042 0
M  V30 4690 H 441.28 0.775393 -5.46527 0
M  V30 4691 H 443.756 1.723 -3.7875 0
M  V30 4692 H 442.632 2.66971 -4.79602 0
M  V30 4693 H 442.893 3.13092 -3.12131 0
M  V30 4694 N 441.952 1.55251 0.271103 0
M  V30 4695 C 443.199 1.75946 1.00245 0
M  V30 4696 C 443.527 0.561611 1.86215 0
M  V30 4697 O 442.782 -0.455832 1.90317 0
M  V30 4698 C 443.081 3.01879 1.91321 0
M  V30 4699 C 442.747 4.34337 1.21086 0
M  V30 4700 C 441.409 4.70338 1.01666 0
M  V30 4701 C 443.761 5.16325 0.71119 0
M  V30 4702 C 441.089 5.8588 0.310099 0
M  V30 4703 C 443.441 6.32597 0.0182157 0
M  V30 4704 C 442.105 6.67236 -0.18768 0
M  V30 4705 H 441.375 0.643833 0.366824 0
M  V30 4706 H 444.022 1.89521 0.27458 0
M  V30 4707 H 442.327 2.83212 2.70736 0
M  V30 4708 H 444.024 3.15088 2.48033 0
M  V30 4709 H 440.614 4.06043 1.37213 0
M  V30 4710 H 444.798 4.88987 0.848844 0
M  V30 4711 H 440.054 6.1124 0.139873 0
M  V30 4712 H 444.228 6.9538 -0.376711 0
M  V30 4713 H 441.855 7.56618 -0.73715 0
M  V30 4714 N 443.43 -0.535701 1.48216 0
M  V30 4715 C 444.846 -0.863701 1.3421 0
M  V30 4716 C 445.046 -1.98458 0.34879 0
M  V30 4717 O 444.102 -2.51432 -0.23204 0
M  V30 4718 C 445.415 -1.23662 2.74095 0
M  V30 4719 C 446.963 -1.34683 2.82541 0
M  V30 4720 C 447.438 -1.75322 4.23115 0
M  V30 4721 N 448.929 -1.82434 4.2576 0
M  V30 4722 C 449.664 -2.15252 5.31464 0
M  V30 4723 N 449.16 -2.46533 6.47452 0
M  V30 4724 N 450.953 -2.16209 5.18855 0
M  V30 4725 H 443.104 0.203965 2.11418 0
M  V30 4726 H 445.367 0.0286033 0.947568 0
M  V30 4727 H 445.073 -0.486674 3.48316 0
M  V30 4728 H 444.947 -2.18805 3.07253 0
M  V30 4729 H 447.334 -2.08756 2.08579 0
M  V30 4730 H 447.415 -0.376756 2.5301 0
M  V30 4731 H 447.059 -1.01812 4.97591 0
M  V30 4732 H 446.989 -2.7337 4.50085 0
M  V30 4733 H 449.48 -1.6056 3.42095 0
M  V30 4734 H 449.793 -2.70662 7.23852 0
M  V30 4735 H 448.138 -2.44065 6.50736 0
M  V30 4736 H 451.329 -1.91224 4.2726 0
M  V30 4737 H 451.502 -2.41453 6.01335 0
M  V30 4738 N 444.908 -1.36708 -0.784132 0
M  V30 4739 C 446.157 -1.30559 -1.53744 0
M  V30 4740 C 446.47 0.111374 -1.95283 0
M  V30 4741 O 447.676 0.29527 -2.6989 0
M  V30 4742 C 446.132 -2.29098 -2.77565 0
M  V30 4743 C 445.74 -3.76258 -2.43174 0
M  V30 4744 C 447.484 -2.31936 -3.55536 0
M  V30 4745 C 445.391 -4.6656 -3.63422 0
M  V30 4746 H 444.321 -0.48518 -0.577162 0
M  V30 4747 H 446.972 -1.62101 -0.859981 0
M  V30 4748 H 445.354 -1.90557 -3.47137 0
M  V30 4749 H 446.528 -4.23565 -1.81465 0
M  V30 4750 H 444.843 -3.76246 -1.78403 0
M  V30 4751 H 447.44 -2.9661 -4.44889 0
M  V30 4752 H 447.783 -1.3294 -3.94503 0
M  V30 4753 H 448.316 -2.6912 -2.92949 0
M  V30 4754 H 445.055 -5.66638 -3.29547 0
M  V30 4755 H 444.575 -4.23966 -4.24279 0
M  V30 4756 H 446.254 -4.8309 -4.30387 0
M  V30 4757 N 446.386 1.0089 -1.21074 0
M  V30 4758 C 447.633 1.74607 -1.0256 0
M  V30 4759 C 447.961 1.89426 0.44136 0
M  V30 4760 O 447.216 1.42266 1.34384 0
M  V30 4761 C 447.515 3.16335 -1.66334 0
M  V30 4762 C 447.181 3.21474 -3.16173 0
M  V30 4763 C 445.843 3.22583 -3.57062 0
M  V30 4764 C 448.195 3.19025 -4.12156 0
M  V30 4765 C 445.523 3.18925 -4.92446 0
M  V30 4766 C 447.875 3.16909 -5.47496 0
M  V30 4767 C 446.539 3.16326 -5.87787 0
M  V30 4768 H 445.809 0.638933 -0.375294 0
M  V30 4769 H 448.456 1.18274 -1.50611 0
M  V30 4770 H 446.761 3.75876 -1.10566 0
M  V30 4771 H 448.458 3.72083 -1.49516 0
M  V30 4772 H 445.048 3.2135 -2.83605 0
M  V30 4773 H 449.232 3.17332 -3.81595 0
M  V30 4774 H 444.488 3.16809 -5.22917 0
M  V30 4775 H 448.662 3.13968 -6.21609 0
M  V30 4776 H 446.289 3.13246 -6.92662 0
M  V30 4777 N 447.864 1.01787 1.20321 0
M  V30 4778 C 448.811 0.589197 2.23153 0
M  V30 4779 C 449.781 -0.391367 1.61423 0
M  V30 4780 O 450.966 -0.290518 1.88575 0
M  V30 4781 C 448.106 -0.0650747 3.45039 0
M  V30 4782 C 447.219 0.960207 4.21194 0
M  V30 4783 C 446.354 0.276854 5.30478 0
M  V30 4784 C 445.393 1.2888 5.98378 0
M  V30 4785 N 444.53 0.632031 6.99249 0
M  V30 4786 H 449.37 1.47071 2.59179 0
M  V30 4787 H 446.907 0.736192 1.27352 0
M  V30 4788 H 448.865 -0.461552 4.14639 0
M  V30 4789 H 447.495 -0.910233 3.09701 0
M  V30 4790 H 446.547 1.47484 3.50646 0
M  V30 4791 H 447.859 1.72977 4.67847 0
M  V30 4792 H 447.013 -0.175056 6.06447 0
M  V30 4793 H 445.752 -0.525004 4.84866 0
M  V30 4794 H 444.757 1.75109 5.21169 0
M  V30 4795 H 445.982 2.09196 6.46076 0
M  V30 4796 H 443.928 -0.149935 6.55829 0
M  V30 4797 H 443.845 1.33964 7.44036 0
M  V30 4798 H 445.113 0.203755 7.79234 0
M  V30 4799 N 449.342 -1.36122 0.79427 0
M  V30 4800 C 450.589 -1.99111 0.368905 0
M  V30 4801 C 450.917 -1.63032 -1.0607 0
M  V30 4802 O 450.172 -0.879303 -1.74833 0
M  V30 4803 C 450.471 -3.5409 0.48527 0
M  V30 4804 C 450.137 -4.10003 1.87638 0
M  V30 4805 C 448.799 -4.24986 2.257 0
M  V30 4806 C 451.151 -4.40423 2.78706 0
M  V30 4807 C 448.479 -4.67701 3.54221 0
M  V30 4808 C 450.831 -4.84573 4.0666 0
M  V30 4809 C 449.495 -4.97761 4.44737 0
M  V30 4810 H 448.765 -0.7286 0.134992 0
M  V30 4811 H 451.412 -1.62534 1.01267 0
M  V30 4812 H 449.717 -3.91052 -0.241984 0
M  V30 4813 H 451.414 -4.00766 0.137109 0
M  V30 4814 H 448.004 -3.98784 1.57064 0
M  V30 4815 H 452.188 -4.28412 2.50553 0
M  V30 4816 H 447.444 -4.761 3.83587 0
M  V30 4817 H 451.618 -5.07074 4.77336 0
M  V30 4818 H 449.245 -5.30618 5.44379 0
M  V30 4819 N 450.82 -0.546701 -1.47814 0
M  V30 4820 C 452.045 -0.021268 -2.07389 0
M  V30 4821 C 452.47 1.25822 -1.39822 0
M  V30 4822 O 451.828 1.75111 -0.46968 0
M  V30 4823 C 451.876 0.168502 -3.60206 0
M  V30 4824 O 450.98 1.23347 -3.93522 0
M  V30 4825 H 450.321 -0.0466108 -0.662362 0
M  V30 4826 H 452.851 -0.759387 -1.89985 0
M  V30 4827 H 452.861 0.385982 -4.0617 0
M  V30 4828 H 451.536 -0.766075 -4.08784 0
M  V30 4829 H 450.113 0.997319 -3.59316 0
M  V30 4830 N 452.299 1.55045 -0.282633 0
M  V30 4831 C 453.715 1.59441 0.0712997 0
M  V30 4832 C 453.915 1.2998 1.53972 0
M  V30 4833 O 452.971 1.06431 2.28973 0
M  V30 4834 C 454.284 2.99097 -0.310104 0
M  V30 4835 C 455.832 3.1194 -0.257343 0
M  V30 4836 C 456.307 4.53875 -0.613297 0
M  V30 4837 N 457.798 4.5974 -0.565134 0
M  V30 4838 C 458.533 5.67603 -0.81326 0
M  V30 4839 N 458.029 6.83582 -1.1264 0
M  V30 4840 N 459.822 5.57187 -0.741553 0
M  V30 4841 H 451.973 1.72458 -1.23984 0
M  V30 4842 H 454.236 0.804549 -0.501403 0
M  V30 4843 H 453.942 3.25516 -1.33163 0
M  V30 4844 H 453.816 3.75616 0.345366 0
M  V30 4845 H 456.203 2.85281 0.754905 0
M  V30 4846 H 456.284 2.37618 -0.947178 0
M  V30 4847 H 455.928 4.81261 -1.62327 0
M  V30 4848 H 455.858 5.26508 0.09841 0
M  V30 4849 H 458.349 3.76427 -0.333294 0
M  V30 4850 H 458.662 7.6175 -1.30219 0
M  V30 4851 H 457.007 6.85179 -1.16425 0
M  V30 4852 H 460.198 4.65457 -0.496705 0
M  V30 4853 H 460.371 6.41171 -0.938306 0
M  V30 4854 N 453.777 0.010035 1.57597 0
M  V30 4855 C 454.727 -0.986858 2.05536 0
M  V30 4856 C 455.711 -1.29711 0.952042 0
M  V30 4857 O 456.903 -1.28641 1.21575 0
M  V30 4858 C 454.032 -2.2756 2.57043 0
M  V30 4859 C 453.118 -1.99455 3.74271 0
M  V30 4860 N 453.509 -1.41546 4.85591 0
M  V30 4861 C 451.807 -2.29547 3.82393 0
M  V30 4862 C 452.508 -1.3014 5.66956 0
M  V30 4863 N 451.484 -1.79044 5.13268 0
M  V30 4864 H 455.286 -0.533778 2.89012 0
M  V30 4865 H 452.8 -0.195432 1.6122 0
M  V30 4866 H 454.797 -2.99829 2.89669 0
M  V30 4867 H 453.457 -2.73512 1.7499 0
M  V30 4868 H 454.468 -1.09294 5.06236 0
M  V30 4869 H 451.145 -2.78304 3.11213 0
M  V30 4870 H 452.535 -0.855237 6.66435 0
M  V30 4871 N 455.255 -1.55392 -0.262866 0
M  V30 4872 C 456.48 -1.80847 -1.01533 0
M  V30 4873 C 456.905 -0.584946 -1.78774 0
M  V30 4874 O 456.263 0.465701 -1.75217 0
M  V30 4875 C 456.311 -3.03866 -1.94159 0
M  V30 4876 O 455.415 -2.79662 -3.03089 0
M  V30 4877 H 454.756 -0.597441 -0.289759 0
M  V30 4878 H 457.286 -2.02553 -0.288698 0
M  V30 4879 H 457.296 -3.32872 -2.35924 0
M  V30 4880 H 455.971 -3.92564 -1.37354 0
M  V30 4881 H 454.548 -2.61781 -2.65566 0
M  V30 4882 N 456.733 0.527833 -1.48498 0
M  V30 4883 C 457.665 1.6482 -1.5927 0
M  V30 4884 C 458.678 1.55659 -0.476869 0
M  V30 4885 O 459.867 1.62081 -0.747806 0
M  V30 4886 C 456.967 3.0348 -1.50842 0
M  V30 4887 C 456.14 3.381 -2.77502 0
M  V30 4888 C 455.199 4.5605 -2.62497 0
M  V30 4889 O 454.225 4.59165 -3.36387 0
M  V30 4890 N 455.427 5.54353 -1.72257 0
M  V30 4891 H 458.192 1.56015 -2.55889 0
M  V30 4892 H 455.753 0.715152 -1.45249 0
M  V30 4893 H 457.745 3.80264 -1.38496 0
M  V30 4894 H 456.315 3.06352 -0.621887 0
M  V30 4895 H 455.535 2.50473 -3.04396 0
M  V30 4896 H 456.823 3.58017 -3.61527 0
M  V30 4897 H 456.221 5.54617 -1.11431 0
M  V30 4898 H 454.778 6.30347 -1.65849 0
M  V30 4899 N 458.211 1.37122 0.776871 0
M  V30 4900 C 459.459 1.31787 1.53221 0
M  V30 4901 C 459.78 -0.0987589 1.9475 0
M  V30 4902 O 459.05 -1.0417 1.65908 0
M  V30 4903 H 457.63 0.484839 0.568278 0
M  V30 4904 H 460.292 1.71556 0.924917 0
M  V30 4905 H 459.388 1.95355 2.43398 0
M  V30 4906 N 459.689 -1.00246 1.21608 0
M  V30 4907 C 460.619 -2.10921 1.00172 0
M  V30 4908 C 461.6 -1.69938 -0.0741587 0
M  V30 4909 O 462.785 -1.94009 0.0861753 0
M  V30 4910 C 459.915 -3.42618 0.568355 0
M  V30 4911 C 458.869 -3.97407 1.58909 0
M  V30 4912 C 458.195 -5.25038 1.01187 0
M  V30 4913 C 459.495 -4.2918 2.97661 0
M  V30 4914 H 461.189 -2.29112 1.92739 0
M  V30 4915 H 458.735 -1.10101 0.928102 0
M  V30 4916 H 460.688 -4.19444 0.405555 0
M  V30 4917 H 459.412 -3.24227 -0.392961 0
M  V30 4918 H 458.071 -3.22703 1.73949 0
M  V30 4919 H 457.719 -5.02982 0.0421965 0
M  V30 4920 H 457.419 -5.62661 1.6937 0
M  V30 4921 H 458.943 -6.04507 0.860448 0
M  V30 4922 H 460.357 -4.96839 2.86049 0
M  V30 4923 H 458.754 -4.77952 3.6288 0
M  V30 4924 H 459.824 -3.3735 3.48315 0
M  V30 4925 N 461.167 -1.02423 -1.1978 0
M  V30 4926 C 462.583 -0.740459 -1.41384 0
M  V30 4927 C 462.783 0.676827 -1.89793 0
M  V30 4928 O 461.839 1.4435 -2.0717 0
M  V30 4929 C 463.152 -1.77264 -2.42895 0
M  V30 4930 C 464.7 -1.79165 -2.56649 0
M  V30 4931 C 465.175 -2.8133 -3.6141 0
M  V30 4932 N 466.666 -2.80118 -3.68901 0
M  V30 4933 C 467.401 -3.55824 -4.49641 0
M  V30 4934 N 466.897 -4.41231 -5.34123 0
M  V30 4935 N 468.69 -3.44387 -4.44246 0
M  V30 4936 H 460.841 -1.9391 -0.866764 0
M  V30 4937 H 463.104 -0.838074 -0.443098 0
M  V30 4938 H 462.81 -2.7884 -2.14339 0
M  V30 4939 H 462.684 -1.59108 -3.42001 0
M  V30 4940 H 465.071 -0.782702 -2.84531 0
M  V30 4941 H 465.152 -2.01396 -1.57713 0
M  V30 4942 H 464.796 -3.82394 -3.34271 0
M  V30 4943 H 464.726 -2.56359 -4.59986 0
M  V30 4944 H 467.217 -2.1817 -3.08562 0
M  V30 4945 H 467.53 -4.95747 -5.92836 0
M  V30 4946 H 465.875 -4.45306 -5.33599 0
M  V30 4947 H 469.066 -2.7708 -3.77285 0
M  V30 4948 H 469.239 -4.0364 -5.06931 0
M  V30 4949 N 462.645 1.35699 -0.801477 0
M  V30 4950 C 463.894 1.98165 -0.375979 0
M  V30 4951 C 464.207 1.64306 1.06127 0
M  V30 4952 O 465.413 2.20097 1.58964 0
M  V30 4953 C 463.869 3.54497 -0.621305 0
M  V30 4954 C 463.477 3.9727 -2.07076 0
M  V30 4955 C 465.221 4.23697 -0.26091 0
M  V30 4956 C 463.128 5.46427 -2.26211 0
M  V30 4957 H 462.058 0.741478 -0.136844 0
M  V30 4958 H 464.709 1.54834 -0.984814 0
M  V30 4959 H 463.091 3.95958 0.0574112 0
M  V30 4960 H 464.265 3.66974 -2.78687 0
M  V30 4961 H 462.58 3.40943 -2.39054 0
M  V30 4962 H 465.177 5.33334 -0.381994 0
M  V30 4963 H 465.52 4.0869 0.792344 0
M  V30 4964 H 466.053 3.87639 -0.893339 0
M  V30 4965 H 462.792 5.66396 -3.29963 0
M  V30 4966 H 462.312 5.78309 -1.59119 0
M  V30 4967 H 463.991 6.12819 -2.07513 0
M  V30 4968 N 464.123 0.554532 1.47522 0
M  V30 4969 C 465.053 -0.182974 2.32782 0
M  V30 4970 C 466.034 -0.911377 1.43624 0
M  V30 4971 O 467.219 -0.892366 1.72483 0
M  V30 4972 C 464.349 -1.21513 3.25349 0
M  V30 4973 C 463.303 -0.603355 4.23726 0
M  V30 4974 C 462.629 -1.73995 5.05598 0
M  V30 4975 C 463.929 0.441121 5.20434 0
M  V30 4976 H 465.623 0.52882 2.94693 0
M  V30 4977 H 463.169 0.255759 1.41711 0
M  V30 4978 H 465.122 -1.73922 3.83835 0
M  V30 4979 H 463.846 -1.95683 2.61487 0
M  V30 4980 H 462.505 -0.10059 3.66462 0
M  V30 4981 H 462.153 -2.47063 4.38143 0
M  V30 4982 H 461.853 -1.3364 5.72201 0
M  V30 4983 H 463.377 -2.26735 5.66942 0
M  V30 4984 H 464.791 0.00319931 5.733 0
M  V30 4985 H 463.188 0.763402 5.95224 0
M  V30 4986 H 464.258 1.33799 4.66075 0
M  V30 4987 N 465.601 -1.54893 0.290851 0
M  V30 4988 C 466.849 -1.99538 -0.320756 0
M  V30 4989 C 467.17 -1.18075 -1.55188 0
M  V30 4990 O 466.44 -0.274162 -1.93972 0
M  V30 4991 H 465.02 -0.737052 -0.121507 0
M  V30 4992 H 467.682 -1.90755 0.399832 0
M  V30 4993 H 466.778 -3.06282 -0.599802 0
M  V30 4994 N 467.08 -0.0183926 -1.57589 0
M  V30 4995 C 468.31 0.67207 -1.95363 0
M  V30 4996 C 468.718 1.66807 -0.892872 0
M  V30 4997 O 468.061 1.83204 0.134958 0
M  V30 4998 C 468.123 1.44397 -3.29226 0
M  V30 4999 C 467.787 0.607511 -4.52944 0
M  V30 5000 C 468.784 -0.112657 -5.19778 0
M  V30 5001 C 466.469 0.548068 -4.99301 0
M  V30 5002 C 468.463 -0.881057 -6.31281 0
M  V30 5003 C 466.15 -0.224044 -6.10689 0
M  V30 5004 C 467.148 -0.937323 -6.76538 0
M  V30 5005 O 466.836 -1.6968 -7.85789 0
M  V30 5006 H 466.568 0.190925 -0.648478 0
M  V30 5007 H 469.122 -0.0711994 -2.05277 0
M  V30 5008 H 467.352 2.23214 -3.15773 0
M  V30 5009 H 469.041 2.02152 -3.51979 0
M  V30 5010 H 469.807 -0.0759998 -4.8494 0
M  V30 5011 H 465.686 1.09281 -4.4786 0
M  V30 5012 H 469.23 -1.43832 -6.82611 0
M  V30 5013 H 465.127 -0.262457 -6.44966 0
M  V30 5014 H 465.895 -1.61544 -8.024 0
M  V30 5015 N 468.558 1.5553 0.254621 0
M  V30 5016 C 469.786 1.81046 1.00149 0
M  V30 5017 C 470.201 0.593047 1.79244 0
M  V30 5018 O 469.558 -0.438196 1.77161 0
M  V30 5019 C 469.609 3.04684 1.94551 0
M  V30 5020 O 469.33 4.21725 1.18658 0
M  V30 5021 C 470.831 3.42943 2.80901 0
M  V30 5022 H 468.051 0.602653 0.295044 0
M  V30 5023 H 470.595 2.02576 0.279842 0
M  V30 5024 H 468.75 2.85226 2.62154 0
M  V30 5025 H 469.164 4.91746 1.82445 0
M  V30 5026 H 470.638 4.32576 3.42902 0
M  V30 5027 H 471.115 2.63176 3.51617 0
M  V30 5028 H 471.721 3.64724 2.18762 0
M  V30 5029 N 470.036 -0.519951 1.48776 0
M  V30 5030 C 470.966 -1.63253 1.66945 0
M  V30 5031 C 471.947 -1.62014 0.518224 0
M  V30 5032 O 473.132 -1.79053 0.751919 0
M  V30 5033 C 470.262 -3.0181 1.71836 0
M  V30 5034 C 469.216 -3.17911 2.8656 0
M  V30 5035 C 468.542 -4.5763 2.76548 0
M  V30 5036 C 469.842 -2.99729 4.27738 0
M  V30 5037 H 471.536 -1.48302 2.6009 0
M  V30 5038 H 469.082 -0.712026 1.25165 0
M  V30 5039 H 471.035 -3.79525 1.83135 0
M  V30 5040 H 469.759 -3.17806 0.752775 0
M  V30 5041 H 468.418 -2.42616 2.74833 0
M  V30 5042 H 468.066 -4.70476 1.77937 0
M  V30 5043 H 467.766 -4.69346 3.53536 0
M  V30 5044 H 469.29 -5.37431 2.89828 0
M  V30 5045 H 470.704 -3.67228 4.40246 0
M  V30 5046 H 469.101 -3.22932 5.05801 0
M  V30 5047 H 470.171 -1.96047 4.43502 0
M  V30 5048 N 471.514 -1.37532 -0.769588 0
M  V30 5049 C 472.461 -1.3347 -1.88293 0
M  V30 5050 C 473.431 -0.199891 -1.64893 0
M  V30 5051 O 474.616 -0.389594 -1.8678 0
M  V30 5052 C 471.756 -1.14968 -3.25387 0
M  V30 5053 C 470.869 -2.37698 -3.60727 0
M  V30 5054 C 470.004 -2.12051 -4.8704 0
M  V30 5055 C 469.043 -3.30636 -5.15117 0
M  V30 5056 N 468.18 -3.04527 -6.3262 0
M  V30 5057 H 473.02 -2.28658 -1.911 0
M  V30 5058 H 470.557 -1.13622 -0.934257 0
M  V30 5059 H 472.515 -1.02261 -4.04473 0
M  V30 5060 H 471.145 -0.234263 -3.21949 0
M  V30 5061 H 470.197 -2.61137 -2.76608 0
M  V30 5062 H 471.509 -3.26131 -3.77413 0
M  V30 5063 H 470.663 -1.96388 -5.74035 0
M  V30 5064 H 469.402 -1.20959 -4.72462 0
M  V30 5065 H 468.407 -3.46836 -4.26597 0
M  V30 5066 H 469.632 -4.22582 -5.31603 0
M  V30 5067 H 467.578 -2.16067 -6.19396 0
M  V30 5068 H 467.495 -3.86503 -6.49732 0
M  V30 5069 H 468.763 -2.92485 -7.22546 0
M  V30 5070 N 472.992 0.995999 -1.22138 0
M  V30 5071 C 474.217 1.77601 -1.0711 0
M  V30 5072 C 474.642 1.84339 0.374264 0
M  V30 5073 O 474 1.29359 1.27028 0
M  V30 5074 C 474.048 3.18897 -1.68336 0
M  V30 5075 O 473.152 4.01663 -0.934928 0
M  V30 5076 H 472.493 0.547011 -0.376397 0
M  V30 5077 H 475.023 1.25137 -1.6187 0
M  V30 5078 H 475.033 3.69539 -1.72931 0
M  V30 5079 H 473.708 3.13308 -2.73516 0
M  V30 5080 H 472.285 3.60204 -0.964751 0
M  V30 5081 N 474.47 1.03057 1.19235 0
M  V30 5082 C 475.71 0.736757 1.9066 0
M  V30 5083 C 476.074 -0.721521 1.77927 0
M  V30 5084 O 477.275 -1.12849 2.43964 0
M  V30 5085 C 475.546 1.17755 3.37444 0
M  V30 5086 S 477.105 1.00783 4.27069 0
M  V30 5087 H 473.923 0.268174 0.658486 0
M  V30 5088 H 476.525 1.32076 1.4414 0
M  V30 5089 H 475.229 2.23448 3.44237 0
M  V30 5090 H 474.76 0.586912 3.88997 0
M  V30 5091 H 476.775 -0.0806356 4.96134 0
M  V30 5092 N 475.948 -1.35272 0.808662 0
M  V30 5093 C 476.911 -2.28082 0.226093 0
M  V30 5094 C 477.911 -1.49673 -0.587762 0
M  V30 5095 O 479.101 -1.69404 -0.405943 0
M  V30 5096 C 476.233 -3.33955 -0.684596 0
M  V30 5097 H 477.426 -2.81116 1.04469 0
M  V30 5098 H 474.979 -1.45162 0.579466 0
M  V30 5099 H 475.714 -2.86111 -1.5268 0
M  V30 5100 H 475.499 -3.91965 -0.102699 0
M  V30 5101 H 476.989 -4.03219 -1.08646 0
M  V30 5102 N 477.426 -0.562348 -1.47226 0
M  V30 5103 C 478.651 -0.0432632 -2.07355 0
M  V30 5104 C 479.076 1.24332 -1.41149 0
M  V30 5105 O 478.434 1.74603 -0.488226 0
M  V30 5106 C 478.482 0.130288 -3.60365 0
M  V30 5107 O 477.586 1.19166 -3.94808 0
M  V30 5108 H 476.927 -0.0536334 -0.66183 0
M  V30 5109 H 479.457 -0.779495 -1.89169 0
M  V30 5110 H 479.467 0.342881 -4.06557 0
M  V30 5111 H 478.142 -0.809389 -4.07948 0
M  V30 5112 H 476.719 0.959153 -3.60354 0
M  V30 5113 N 478.904 1.54736 -0.299062 0
M  V30 5114 C 479.814 2.27127 0.587413 0
M  V30 5115 C 480.83 1.30575 1.15005 0
M  V30 5116 O 482.006 1.63554 1.17525 0
M  V30 5117 C 479.071 2.99645 1.74395 0
M  V30 5118 C 478.132 4.11731 1.21559 0
M  V30 5119 C 477.365 4.80781 2.317 0
M  V30 5120 O 477.588 4.4918 3.51558 0
M  V30 5121 O 476.522 5.68226 1.98501 0
M  V30 5122 H 480.348 3.037 0.000250109 0
M  V30 5123 H 477.933 1.49256 -0.0655919 0
M  V30 5124 H 479.815 3.45138 2.4178 0
M  V30 5125 H 478.49 2.25969 2.31775 0
M  V30 5126 H 477.397 3.70641 0.507514 0
M  V30 5127 H 478.73 4.87379 0.687233 0
M  V30 5128 N 480.382 0.0267497 1.57577 0
M  V30 5129 C 481.312 -0.954308 2.13108 0
M  V30 5130 C 482.293 -1.34088 1.04663 0
M  V30 5131 O 483.478 -1.41992 1.32484 0
M  V30 5132 C 480.608 -2.23744 2.65624 0
M  V30 5133 C 479.562 -1.99168 3.78835 0
M  V30 5134 C 478.888 -3.33726 4.17769 0
M  V30 5135 C 480.188 -1.33277 5.0501 0
M  V30 5136 H 481.882 -0.491848 2.95332 0
M  V30 5137 H 479.428 -0.23514 1.42067 0
M  V30 5138 H 481.381 -2.92754 3.03106 0
M  V30 5139 H 480.105 -2.72151 1.80558 0
M  V30 5140 H 478.764 -1.32577 3.41788 0
M  V30 5141 H 478.412 -3.79888 3.29688 0
M  V30 5142 H 478.112 -3.18089 4.94058 0
M  V30 5143 H 479.636 -4.04008 4.57832 0
M  V30 5144 H 481.05 -1.92283 5.40093 0
M  V30 5145 H 479.447 -1.28045 5.8628 0
M  V30 5146 H 480.517 -0.305411 4.83937 0
M  V30 5147 N 481.861 -1.55662 -0.24637 0
M  V30 5148 C 483.109 -1.77168 -0.972411 0
M  V30 5149 C 483.43 -0.590827 -1.85834 0
M  V30 5150 O 482.7 0.393365 -1.9191 0
M  V30 5151 H 481.28 -0.653405 -0.362038 0
M  V30 5152 H 483.942 -1.93101 -0.264189 0
M  V30 5153 H 483.038 -2.68335 -1.59382 0
M  V30 5154 N 483.339 0.512053 -1.4905 0
M  V30 5155 C 484.586 1.26686 -1.57978 0
M  V30 5156 C 484.914 1.92733 -0.261553 0
M  V30 5157 O 484.169 1.80772 0.749667 0
M  V30 5158 C 484.468 2.36446 -2.68008 0
M  V30 5159 C 484.134 1.87932 -4.09869 0
M  V30 5160 C 482.796 1.74419 -4.48477 0
M  V30 5161 C 485.148 1.5149 -4.98698 0
M  V30 5162 C 482.476 1.22827 -5.73699 0
M  V30 5163 C 484.828 1.01355 -6.24428 0
M  V30 5164 C 483.492 0.864735 -6.61875 0
M  V30 5165 H 482.762 0.463577 -0.578081 0
M  V30 5166 H 485.409 0.569421 -1.82838 0
M  V30 5167 H 483.714 3.11933 -2.37076 0
M  V30 5168 H 485.411 2.9453 -2.72127 0
M  V30 5169 H 482.001 1.99405 -3.79389 0
M  V30 5170 H 486.185 1.60782 -4.69535 0
M  V30 5171 H 481.441 1.10008 -6.01422 0
M  V30 5172 H 485.615 0.722351 -6.92644 0
M  V30 5173 H 483.242 0.462777 -7.5879 0
M  V30 5174 N 484.817 1.37938 0.762283 0
M  V30 5175 C 485.747 1.37176 1.88958 0
M  V30 5176 C 486.728 0.238945 1.68413 0
M  V30 5177 O 487.913 0.440726 1.89133 0
M  V30 5178 C 485.043 1.18742 3.2637 0
M  V30 5179 C 483.997 2.29136 3.61498 0
M  V30 5180 C 483.323 1.95816 4.97554 0
M  V30 5181 C 484.623 3.71363 3.6727 0
M  V30 5182 H 486.317 2.31509 1.89853 0
M  V30 5183 H 483.863 1.11438 0.912005 0
M  V30 5184 H 485.816 1.16837 4.04879 0
M  V30 5185 H 484.54 0.208683 3.25933 0
M  V30 5186 H 483.199 2.30213 2.85303 0
M  V30 5187 H 482.847 0.964475 4.93667 0
M  V30 5188 H 482.547 2.69745 5.22026 0
M  V30 5189 H 484.071 1.95513 5.78452 0
M  V30 5190 H 485.485 3.72364 4.35911 0
M  V30 5191 H 483.882 4.44425 4.03245 0
M  V30 5192 H 484.952 4.04305 2.67704 0
M  V30 5193 N 486.295 -0.989507 1.22664 0
M  V30 5194 C 487.225 -2.09847 1.02404 0
M  V30 5195 C 488.206 -1.70007 -0.0561303 0
M  V30 5196 O 489.391 -1.93906 0.106748 0
M  V30 5197 C 486.521 -3.41996 0.604663 0
M  V30 5198 C 485.475 -3.95699 1.63115 0
M  V30 5199 C 484.801 -5.23936 1.0675 0
M  V30 5200 C 486.101 -4.25999 3.02196 0
M  V30 5201 H 487.795 -2.27054 1.95158 0
M  V30 5202 H 485.341 -1.09111 0.939727 0
M  V30 5203 H 487.294 -4.1899 0.45002 0
M  V30 5204 H 486.018 -3.24626 -0.35855 0
M  V30 5205 H 484.677 -3.2084 1.77362 0
M  V30 5206 H 484.325 -5.02909 0.0955422 0
M  V30 5207 H 484.025 -5.60833 1.75328 0
M  V30 5208 H 485.549 -6.0356 0.924516 0
M  V30 5209 H 486.963 -4.93777 2.91303 0
M  V30 5210 H 485.36 -4.74076 3.67929 0
M  V30 5211 H 486.43 -3.33636 3.51873 0
M  V30 5212 N 487.773 -1.03688 -1.18687 0
M  V30 5213 C 489.02 -0.73803 -1.88572 0
M  V30 5214 C 489.348 0.733973 -1.8012 0
M  V30 5215 O 488.603 1.55098 -1.19344 0
M  V30 5216 C 488.902 -1.14477 -3.3857 0
M  V30 5217 C 488.568 -2.61641 -3.67226 0
M  V30 5218 C 487.23 -3.01846 -3.74757 0
M  V30 5219 C 489.582 -3.56812 -3.79914 0
M  V30 5220 C 486.91 -4.36118 -3.92451 0
M  V30 5221 C 489.262 -4.90799 -3.99123 0
M  V30 5222 C 487.926 -5.3068 -4.04888 0
M  V30 5223 H 487.196 -0.270064 -0.690034 0
M  V30 5224 H 489.843 -1.3012 -1.40503 0
M  V30 5225 H 488.148 -0.500337 -3.88592 0
M  V30 5226 H 489.845 -0.89095 -3.90977 0
M  V30 5227 H 486.435 -2.29498 -3.61979 0
M  V30 5228 H 490.619 -3.26899 -3.73431 0
M  V30 5229 H 485.875 -4.66542 -3.95157 0
M  V30 5230 H 490.049 -5.64451 -4.07882 0
M  V30 5231 H 487.676 -6.34733 -4.18351 0
M  V30 5232 N 489.251 1.34841 -0.815825 0
M  V30 5233 C 490.476 2.03261 -0.41226 0
M  V30 5234 C 490.901 1.61055 0.971751 0
M  V30 5235 O 490.259 0.7917 1.63101 0
M  V30 5236 C 490.307 3.56914 -0.514289 0
M  V30 5237 O 489.411 4.09728 0.468675 0
M  V30 5238 H 488.752 0.641664 -0.170771 0
M  V30 5239 H 491.282 1.72241 -1.10427 0
M  V30 5240 H 491.292 4.06156 -0.387457 0
M  V30 5241 H 489.967 3.86982 -1.52375 0
M  V30 5242 H 488.544 3.71681 0.301316 0
M  V30 5243 N 490.729 0.570148 1.46925 0
M  V30 5244 C 491.659 -0.158274 2.32963 0
M  V30 5245 C 492.64 -0.896093 1.44583 0
M  V30 5246 O 493.825 -0.874022 1.7342 0
M  V30 5247 C 490.955 -1.18055 3.26619 0
M  V30 5248 C 489.909 -0.558379 4.24342 0
M  V30 5249 C 489.235 -1.68623 5.07415 0
M  V30 5250 C 490.535 0.496295 5.19937 0
M  V30 5251 H 492.229 0.560046 2.94115 0
M  V30 5252 H 489.775 0.270775 1.41431 0
M  V30 5253 H 491.728 -1.69841 3.85658 0
M  V30 5254 H 490.452 -1.92899 2.63548 0
M  V30 5255 H 489.111 -0.0617157 3.66548 0
M  V30 5256 H 488.759 -2.42402 4.40738 0
M  V30 5257 H 488.459 -1.27564 5.73586 0
M  V30 5258 H 489.983 -2.20709 5.69315 0
M  V30 5259 H 491.397 0.0640052 5.73264 0
M  V30 5260 H 489.794 0.82649 5.94381 0
M  V30 5261 H 490.864 1.38735 4.6463 0
M  V30 5262 N 492.207 -1.54576 0.307264 0
M  V30 5263 C 493.435 -2.04675 -0.302597 0
M  V30 5264 C 493.85 -1.18425 -1.47041 0
M  V30 5265 O 493.207 -0.211257 -1.81273 0
M  V30 5266 C 493.258 -3.53575 -0.752801 0
M  V30 5267 O 492.979 -4.36547 0.368536 0
M  V30 5268 C 494.48 -4.19699 -1.42717 0
M  V30 5269 H 491.7 -0.66786 -0.0648374 0
M  V30 5270 H 494.244 -1.99516 0.448716 0
M  V30 5271 H 492.399 -3.59074 -1.45412 0
M  V30 5272 H 492.813 -5.24497 0.0168937 0
M  V30 5273 H 494.287 -5.25388 -1.69327 0
M  V30 5274 H 494.764 -3.69815 -2.36925 0
M  V30 5275 H 495.37 -4.18293 -0.768856 0
M  V30 5276 N 493.685 -0.035106 -1.57561 0
M  V30 5277 C 494.618 0.979673 -2.06101 0
M  V30 5278 C 495.596 1.31378 -0.958046 0
M  V30 5279 O 496.78 1.42942 -1.22881 0
M  V30 5280 C 493.907 2.29809 -2.48808 0
M  V30 5281 C 492.953 2.11817 -3.70184 0
M  V30 5282 S 493.786 1.41143 -5.16565 0
M  V30 5283 C 494.942 2.74341 -5.62572 0
M  V30 5284 H 495.175 0.566506 -2.91853 0
M  V30 5285 H 492.708 0.176744 -1.53385 0
M  V30 5286 H 494.666 3.056 -2.74078 0
M  V30 5287 H 493.327 2.68257 -1.63392 0
M  V30 5288 H 492.52 3.09299 -3.97933 0
M  V30 5289 H 492.122 1.44168 -3.45097 0
M  V30 5290 H 494.414 3.70562 -5.67177 0
M  V30 5291 H 495.357 2.51249 -6.62027 0
M  V30 5292 H 495.765 2.79863 -4.90242 0
M  V30 5293 N 495.163 1.55791 0.238111 0
M  V30 5294 C 496.126 1.90239 1.27835 0
M  V30 5295 C 497.126 0.779552 1.4064 0
M  V30 5296 O 498.316 1.04747 1.3919 0
M  V30 5297 C 495.448 2.13859 2.65475 0
M  V30 5298 H 496.641 2.83262 0.985034 0
M  V30 5299 H 494.194 1.48818 0.477799 0
M  V30 5300 H 494.929 1.23334 2.99932 0
M  V30 5301 H 494.714 2.95643 2.57561 0
M  V30 5302 H 496.204 2.41664 3.40571 0
M  V30 5303 N 496.642 -0.504142 1.49319 0
M  V30 5304 C 497.891 -1.25507 1.57895 0
M  V30 5305 C 498.204 -1.93735 0.269433 0
M  V30 5306 O 499.41 -2.70492 0.233706 0
M  V30 5307 C 497.866 -2.27869 2.78574 0
M  V30 5308 C 497.474 -1.65594 4.16272 0
M  V30 5309 C 499.218 -3.0381 2.96479 0
M  V30 5310 C 497.125 -2.66048 5.28178 0
M  V30 5311 H 496.055 -0.47212 0.587894 0
M  V30 5312 H 498.706 -0.52931 1.757 0
M  V30 5313 H 497.088 -3.03594 2.54257 0
M  V30 5314 H 498.262 -0.958826 4.50714 0
M  V30 5315 H 496.577 -1.02055 4.037 0
M  V30 5316 H 499.174 -3.78925 3.77253 0
M  V30 5317 H 499.517 -3.61235 2.06918 0
M  V30 5318 H 500.05 -2.352 3.20821 0
M  V30 5319 H 496.789 -2.13408 6.19788 0
M  V30 5320 H 496.309 -3.34009 4.98195 0
M  V30 5321 H 497.988 -3.28536 5.57381 0
M  V30 5322 N 498.12 -1.38341 -0.754957 0
M  V30 5323 C 499.369 -1.33791 -1.5094 0
M  V30 5324 C 499.682 0.0699267 -1.95475 0
M  V30 5325 O 500.888 0.237956 -2.70455 0
M  V30 5326 C 499.344 -2.34934 -2.72643 0
M  V30 5327 C 498.952 -3.81332 -2.35138 0
M  V30 5328 C 500.696 -2.39425 -3.50536 0
M  V30 5329 C 498.603 -4.74164 -3.53444 0
M  V30 5330 H 497.533 -0.497314 -0.566741 0
M  V30 5331 H 500.184 -1.63888 -0.825403 0
M  V30 5332 H 498.566 -1.97878 -3.43017 0
M  V30 5333 H 499.74 -4.27319 -1.7244 0
M  V30 5334 H 498.055 -3.79946 -1.70382 0
M  V30 5335 H 500.652 -3.0598 -4.38498 0
M  V30 5336 H 500.995 -1.41278 -3.91594 0
M  V30 5337 H 501.528 -2.75274 -2.87174 0
M  V30 5338 H 498.267 -5.73501 -3.17453 0
M  V30 5339 H 497.787 -4.3287 -4.15191 0
M  V30 5340 H 499.466 -4.92111 -4.20043 0
M  V30 5341 N 499.598 0.982988 -1.23187 0
M  V30 5342 C 500.847 1.71817 -1.05649 0
M  V30 5343 C 501.16 1.91315 0.407176 0
M  V30 5344 O 502.366 2.62256 0.702436 0
M  V30 5345 C 500.822 3.09188 -1.84203 0
M  V30 5346 C 500.43 2.97586 -3.34882 0
M  V30 5347 C 502.174 3.86684 -1.75146 0
M  V30 5348 C 500.081 4.30173 -4.05839 0
M  V30 5349 H 499.011 0.644258 -0.391724 0
M  V30 5350 H 501.662 1.09659 -1.4713 0
M  V30 5351 H 500.044 3.72087 -1.35527 0
M  V30 5352 H 501.218 2.43793 -3.91026 0
M  V30 5353 H 499.533 2.33567 -3.44725 0
M  V30 5354 H 502.13 4.84836 -2.25473 0
M  V30 5355 H 502.473 4.10136 -0.713737 0
M  V30 5356 H 503.006 3.30482 -2.21419 0
M  V30 5357 H 499.745 4.11918 -5.09906 0
M  V30 5358 H 499.265 4.83841 -3.54482 0
M  V30 5359 H 500.944 4.98873 -4.11989 0
M  V30 5360 N 501.076 1.04316 1.18135 0
M  V30 5361 C 502.323 0.74802 1.88178 0
M  V30 5362 C 502.651 -0.72441 1.80506 0
M  V30 5363 O 501.906 -1.54463 1.20165 0
M  V30 5364 C 502.205 1.16271 3.37958 0
M  V30 5365 C 501.871 2.63585 3.65833 0
M  V30 5366 C 500.533 3.03829 3.73151 0
M  V30 5367 C 502.885 3.58822 3.78016 0
M  V30 5368 C 500.213 4.38194 3.90132 0
M  V30 5369 C 502.565 4.92909 3.96514 0
M  V30 5370 C 501.229 5.3282 4.02068 0
M  V30 5371 H 500.499 0.27372 0.688592 0
M  V30 5372 H 503.146 1.30863 1.39811 0
M  V30 5373 H 501.451 0.520938 3.88321 0
M  V30 5374 H 503.148 0.911672 3.90499 0
M  V30 5375 H 499.738 2.31414 3.60757 0
M  V30 5376 H 503.922 3.28875 3.71692 0
M  V30 5377 H 499.178 4.68631 3.92677 0
M  V30 5378 H 503.352 5.66606 4.04883 0
M  V30 5379 H 500.979 6.36943 4.14979 0
M  V30 5380 N 502.554 -1.34406 0.822964 0
M  V30 5381 C 503.517 -2.2783 0.250271 0
M  V30 5382 C 504.517 -1.50288 -0.571854 0
M  V30 5383 O 505.707 -1.69825 -0.387952 0
M  V30 5384 C 502.839 -3.34663 -0.649137 0
M  V30 5385 H 504.032 -2.79992 1.07444 0
M  V30 5386 H 501.585 -1.44539 0.594829 0
M  V30 5387 H 502.32 -2.87714 -1.49637 0
M  V30 5388 H 502.105 -3.92052 -0.0611199 0
M  V30 5389 H 503.595 -4.04349 -1.04363 0
M  V30 5390 N 504.032 -0.577932 -1.46621 0
M  V30 5391 C 505.26 -0.0671642 -2.06791 0
M  V30 5392 C 505.675 1.23571 -1.42743 0
M  V30 5393 O 505.032 1.74602 -0.531062 0
M  V30 5394 C 505.083 0.110357 -3.61332 0
M  V30 5395 O 504.804 -1.14095 -4.22982 0
M  V30 5396 C 506.305 0.656025 -4.38419 0
M  V30 5397 H 503.525 -0.0552732 -0.66872 0
M  V30 5398 H 506.069 -0.797242 -1.8832 0
M  V30 5399 H 504.224 0.790637 -3.79246 0
M  V30 5400 H 504.638 -0.951742 -5.15793 0
M  V30 5401 H 506.112 0.729438 -5.47159 0
M  V30 5402 H 506.589 1.67195 -4.06131 0
M  V30 5403 H 507.195 0.0107692 -4.25299 0
M  V30 5404 N 505.51 1.54411 -0.315457 0
M  V30 5405 C 506.756 2.00716 0.289972 0
M  V30 5406 C 507.089 1.2034 1.5242 0
M  V30 5407 O 506.364 0.283579 1.92422 0
M  V30 5408 C 506.647 3.54507 0.632196 0
M  V30 5409 C 506.5 4.45615 -0.61218 0
M  V30 5410 C 507.819 4.15421 1.45305 0
M  V30 5411 H 504.938 0.729637 0.10392 0
M  V30 5412 H 507.58 1.8506 -0.430427 0
M  V30 5413 H 505.73 3.67979 1.24595 0
M  V30 5414 H 507.402 4.44026 -1.25053 0
M  V30 5415 H 505.645 4.15621 -1.24264 0
M  V30 5416 H 506.316 5.51022 -0.328379 0
M  V30 5417 H 508.792 4.05474 0.934331 0
M  V30 5418 H 507.668 5.23157 1.66127 0
M  V30 5419 H 507.929 3.68223 2.44671 0
M  V30 5420 N 506.988 0.0434614 1.5754 0
M  V30 5421 C 507.921 -0.968729 2.06618 0
M  V30 5422 C 508.899 -1.30868 0.965 0
M  V30 5423 O 510.083 -1.42288 1.23638 0
M  V30 5424 C 507.21 -2.28486 2.50023 0
M  V30 5425 C 506.256 -2.09851 3.71302 0
M  V30 5426 S 507.089 -1.38401 5.17306 0
M  V30 5427 C 508.245 -2.71354 5.64019 0
M  V30 5428 H 508.478 -0.551021 2.92149 0
M  V30 5429 H 506.011 -0.168607 1.53477 0
M  V30 5430 H 507.969 -3.04142 2.75695 0
M  V30 5431 H 506.63 -2.67387 1.64812 0
M  V30 5432 H 505.823 -3.07184 3.99567 0
M  V30 5433 H 505.425 -1.42336 3.45856 0
M  V30 5434 H 507.717 -3.67549 5.69134 0
M  V30 5435 H 508.66 -2.47734 6.6335 0
M  V30 5436 H 509.068 -2.77259 4.91719 0
M  V30 5437 N 508.466 -1.55915 -0.229846 0
M  V30 5438 C 509.713 -1.78542 -0.955452 0
M  V30 5439 C 510.041 -0.610785 -1.84661 0
M  V30 5440 O 509.296 0.405213 -1.91459 0
M  V30 5441 C 509.595 -3.06845 -1.8325 0
M  V30 5442 C 509.261 -4.37395 -1.09528 0
M  V30 5443 C 507.923 -4.72868 -0.891598 0
M  V30 5444 C 510.275 -5.18029 -0.574046 0
M  V30 5445 C 507.603 -5.86496 -0.154655 0
M  V30 5446 C 509.955 -6.32423 0.149513 0
M  V30 5447 C 508.619 -6.66504 0.364519 0
M  V30 5448 H 507.889 -0.653333 -0.349625 0
M  V30 5449 H 510.536 -1.90183 -0.224235 0
M  V30 5450 H 508.841 -2.90291 -2.63132 0
M  V30 5451 H 510.538 -3.21553 -2.39592 0
M  V30 5452 H 507.128 -4.09538 -1.26399 0
M  V30 5453 H 511.312 -4.91066 -0.718899 0
M  V30 5454 H 506.568 -6.11396 0.0222356 0
M  V30 5455 H 510.742 -6.94137 0.560947 0
M  V30 5456 H 508.369 -7.54397 0.937495 0
M  V30 5457 N 509.944 0.496216 -1.49584 0
M  V30 5458 C 511.174 1.27209 -1.62793 0
M  V30 5459 C 511.582 1.86799 -0.300476 0
M  V30 5460 O 510.925 1.68802 0.724674 0
M  V30 5461 C 510.987 2.43812 -2.64189 0
M  V30 5462 C 510.651 2.05055 -4.08414 0
M  V30 5463 C 511.648 1.58752 -4.9507 0
M  V30 5464 C 509.333 2.14543 -4.54177 0
M  V30 5465 C 511.327 1.22448 -6.25528 0
M  V30 5466 C 509.014 1.77851 -5.84647 0
M  V30 5467 C 510.012 1.31878 -6.70147 0
M  V30 5468 O 509.7 0.956834 -7.98185 0
M  V30 5469 H 509.432 0.391848 -0.550846 0
M  V30 5470 H 511.986 0.601712 -1.96389 0
M  V30 5471 H 510.216 3.13941 -2.25783 0
M  V30 5472 H 511.905 3.05829 -2.66877 0
M  V30 5473 H 512.671 1.50863 -4.60939 0
M  V30 5474 H 508.55 2.49277 -3.87791 0
M  V30 5475 H 512.094 0.864933 -6.92217 0
M  V30 5476 H 507.991 1.8539 -6.18305 0
M  V30 5477 H 508.759 1.08789 -8.11238 0
M  V30 5478 N 511.423 1.38739 0.74761 0
M  V30 5479 C 512.386 1.36241 1.84312 0
M  V30 5480 C 513.386 0.261811 1.58654 0
M  V30 5481 O 514.576 0.519031 1.66288 0
M  V30 5482 C 511.708 1.12253 3.21888 0
M  V30 5483 H 512.901 2.33712 1.87933 0
M  V30 5484 H 510.454 1.2412 0.949946 0
M  V30 5485 H 511.189 0.154133 3.23934 0
M  V30 5486 H 510.974 1.91943 3.41907 0
M  V30 5487 H 512.464 1.13215 4.0196 0
M  V30 5488 N 512.901 -0.976442 1.23707 0
M  V30 5489 C 513.811 -2.10359 1.03856 0
M  V30 5490 C 514.827 -1.73991 -0.0180919 0
M  V30 5491 O 516.003 -2.0061 0.178211 0
M  V30 5492 C 513.068 -3.40809 0.636387 0
M  V30 5493 C 512.129 -3.91179 1.76854 0
M  V30 5494 C 511.362 -5.15404 1.38546 0
M  V30 5495 O 511.585 -5.69754 0.27142 0
M  V30 5496 O 510.519 -5.5994 2.20797 0
M  V30 5497 H 514.345 -2.29997 1.98331 0
M  V30 5498 H 511.93 -1.08742 1.02448 0
M  V30 5499 H 513.812 -4.19269 0.423223 0
M  V30 5500 H 512.487 -3.22493 -0.279322 0
M  V30 5501 H 511.394 -3.13819 2.03638 0
M  V30 5502 H 512.727 -4.13958 2.6627 0
M  V30 5503 N 514.379 -1.04941 -1.1758 0
M  V30 5504 C 515.326 -0.648155 -2.21512 0
M  V30 5505 C 516.296 0.348431 -1.62404 0
M  V30 5506 O 517.481 0.240419 -1.89279 0
M  V30 5507 C 514.621 -0.0264291 -3.4509 0
M  V30 5508 C 513.734 -1.07154 -4.185 0
M  V30 5509 C 512.869 -0.417403 -5.29558 0
M  V30 5510 C 511.908 -1.447 -5.94751 0
M  V30 5511 N 511.045 -0.817203 -6.97328 0
M  V30 5512 H 515.885 -1.53891 -2.55189 0
M  V30 5513 H 513.422 -0.769699 -1.25356 0
M  V30 5514 H 515.38 0.351456 -4.15717 0
M  V30 5515 H 514.01 0.827802 -3.12005 0
M  V30 5516 H 513.062 -1.56728 -3.46613 0
M  V30 5517 H 514.374 -1.8532 -4.63096 0
M  V30 5518 H 513.528 0.0142061 -6.06698 0
M  V30 5519 H 512.267 0.396265 -4.86087 0
M  V30 5520 H 511.272 -1.88865 -5.16343 0
M  V30 5521 H 512.497 -2.26252 -6.40302 0
M  V30 5522 H 510.443 -0.0239995 -6.55996 0
M  V30 5523 H 510.36 -1.53644 -7.40223 0
M  V30 5524 H 511.628 -0.410283 -7.7842 0
M  V30 5525 N 515.857 1.33968 -0.830081 0
M  V30 5526 C 517.105 1.97672 -0.420734 0
M  V30 5527 C 517.426 1.66111 1.02138 0
M  V30 5528 O 516.696 0.955503 1.71017 0
M  V30 5529 H 515.276 0.73125 -0.152587 0
M  V30 5530 H 517.938 1.63483 -1.0611 0
M  V30 5531 H 517.034 3.07294 -0.545588 0
M  V30 5532 N 517.335 0.585699 1.46312 0
M  V30 5533 C 518.563 0.0781299 2.06752 0
M  V30 5534 C 518.978 -1.22812 1.43396 0
M  V30 5535 O 518.335 -1.74318 0.540314 0
M  V30 5536 C 518.386 -0.0911927 3.61385 0
M  V30 5537 O 518.107 1.16336 4.22371 0
M  V30 5538 C 519.608 -0.632765 4.38761 0
M  V30 5539 H 516.828 0.0588188 0.668417 0
M  V30 5540 H 519.372 0.807218 1.87894 0
M  V30 5541 H 517.527 -0.770514 3.7966 0
M  V30 5542 H 517.941 0.979082 5.15281 0
M  V30 5543 H 519.415 -0.70041 5.47538 0
M  V30 5544 H 519.892 -1.65039 4.07012 0
M  V30 5545 H 520.498 0.0117856 4.25298 0
M  V30 5546 N 518.813 -1.54241 0.323641 0
M  V30 5547 C 519.761 -2.25813 -0.557804 0
M  V30 5548 C 520.755 -1.27225 -1.11849 0
M  V30 5549 O 521.961 -1.45001 -1.06652 0
M  V30 5550 H 518.336 -0.72532 -0.198532 0
M  V30 5551 H 520.307 -2.98322 0.0681112 0
M  V30 5552 C 519.056 -3.02913 -1.70701 0
M  V30 5553 H 518.379 -3.78593 -1.28482 0
M  V30 5554 H 519.819 -3.56238 -2.29935 0
M  V30 5555 C 518.278 -2.11217 -2.62467 0
M  V30 5556 O 518.808 -1.69508 -3.64184 0
M  V30 5557 N 517.014 -1.76704 -2.30703 0
M  V30 5558 H 516.561 -2.1082 -1.48029 0
M  V30 5559 H 516.519 -1.15631 -2.92364 0
M  V30 5560 N 520.291 -0.0518155 -1.57515 0
M  V30 5561 C 521.238 0.922352 -2.11569 0
M  V30 5562 C 522.208 1.30842 -1.02321 0
M  V30 5563 O 523.393 1.39778 -1.29872 0
M  V30 5564 C 520.533 2.19167 -2.6657 0
M  V30 5565 C 519.646 1.86003 -3.89906 0
M  V30 5566 C 518.781 3.07398 -4.33221 0
M  V30 5567 C 517.82 2.70158 -5.49255 0
M  V30 5568 N 516.957 3.84248 -5.8762 0
M  V30 5569 H 521.797 0.454506 -2.94514 0
M  V30 5570 H 519.334 0.212718 -1.45554 0
M  V30 5571 H 521.292 2.93443 -2.96559 0
M  V30 5572 H 519.922 2.63528 -1.86421 0
M  V30 5573 H 518.974 1.01874 -3.66505 0
M  V30 5574 H 520.286 1.54592 -4.74239 0
M  V30 5575 H 519.44 3.89972 -4.64765 0
M  V30 5576 H 518.179 3.41988 -3.477 0
M  V30 5577 H 517.184 1.86001 -5.17382 0
M  V30 5578 H 518.409 2.36759 -6.36492 0
M  V30 5579 H 516.355 4.18638 -5.05053 0
M  V30 5580 H 516.272 3.56538 -6.66646 0
M  V30 5581 H 517.54 4.6746 -6.2378 0
M  V30 5582 N 521.769 1.56035 0.221574 0
M  V30 5583 C 522.997 1.8313 0.962864 0
M  V30 5584 C 523.412 0.630934 1.77946 0
M  V30 5585 O 522.769 -0.400519 1.78051 0
M  V30 5586 C 522.82 3.08742 1.88045 0
M  V30 5587 O 522.541 4.24147 1.09686 0
M  V30 5588 C 524.042 3.48824 2.73563 0
M  V30 5589 H 521.262 0.608775 0.282194 0
M  V30 5590 H 523.806 2.03124 0.23681 0
M  V30 5591 H 521.961 2.90723 2.56045 0
M  V30 5592 H 522.375 4.95505 1.71974 0
M  V30 5593 H 523.849 4.39752 3.3365 0
M  V30 5594 H 524.326 2.70575 3.45956 0
M  V30 5595 H 524.932 3.69282 2.10976 0
M  V30 5596 N 523.247 -0.488276 1.49845 0
M  V30 5597 C 524.195 -1.60917 1.67954 0
M  V30 5598 C 525.189 -1.6038 0.54539 0
M  V30 5599 O 526.395 -1.64736 0.7254 0
M  V30 5600 H 522.77 -0.533658 0.529824 0
M  V30 5601 H 524.741 -1.428 2.62013 0
M  V30 5602 C 523.49 -2.98975 1.77509 0
M  V30 5603 H 522.813 -3.00099 2.6416 0
M  V30 5604 H 524.253 -3.76906 1.9421 0
M  V30 5605 C 522.712 -3.3282 0.522745 0
M  V30 5606 O 523.242 -4.00208 -0.345866 0
M  V30 5607 N 521.448 -2.8808 0.381882 0
M  V30 5608 H 520.995 -2.33415 1.08974 0
M  V30 5609 H 520.953 -3.11091 -0.454929 0
M  V30 5610 N 524.725 -1.39134 -0.740242 0
M  V30 5611 C 525.972 -1.36071 -1.49969 0
M  V30 5612 C 526.3 0.0450245 -1.94448 0
M  V30 5613 O 525.555 1.02482 -1.66721 0
M  V30 5614 C 525.854 -2.27457 -2.75678 0
M  V30 5615 C 525.52 -3.75185 -2.50094 0
M  V30 5616 C 524.182 -4.15439 -2.42825 0
M  V30 5617 C 526.534 -4.68643 -2.28086 0
M  V30 5618 C 523.862 -5.4722 -2.11584 0
M  V30 5619 C 526.214 -6.00695 -1.98363 0
M  V30 5620 C 524.878 -6.40018 -1.8956 0
M  V30 5621 H 524.148 -0.497921 -0.548777 0
M  V30 5622 H 526.795 -1.71599 -0.85007 0
M  V30 5623 H 525.1 -1.8503 -3.45356 0
M  V30 5624 H 526.797 -2.22384 -3.33686 0
M  V30 5625 H 523.387 -3.43279 -2.56627 0
M  V30 5626 H 527.571 -4.3838 -2.32672 0
M  V30 5627 H 522.827 -5.76615 -2.03287 0
M  V30 5628 H 527.001 -6.72644 -1.80341 0
M  V30 5629 H 524.628 -7.42051 -1.65117 0
M  V30 5630 N 526.204 0.969867 -1.24223 0
M  V30 5631 C 527.432 1.74756 -1.10761 0
M  V30 5632 C 527.847 1.85713 0.340041 0
M  V30 5633 O 527.204 1.34389 1.23474 0
M  V30 5634 C 527.255 3.16915 -1.73917 0
M  V30 5635 O 526.976 3.06511 -3.13021 0
M  V30 5636 C 528.477 4.11032 -1.66036 0
M  V30 5637 H 525.697 0.548092 -0.387087 0
M  V30 5638 H 528.241 1.2178 -1.64286 0
M  V30 5639 H 526.396 3.66884 -1.244 0
M  V30 5640 H 526.81 3.96079 -3.43834 0
M  V30 5641 H 528.284 5.08446 -2.14911 0
M  V30 5642 H 528.761 4.34785 -0.621159 0
M  V30 5643 H 529.367 3.66972 -2.14969 0
M  V30 5644 N 527.682 1.05563 1.17022 0
M  V30 5645 C 528.907 0.788437 1.91829 0
M  V30 5646 C 529.332 -0.650356 1.76499 0
M  V30 5647 O 528.69 -1.45229 1.08527 0
M  V30 5648 C 528.738 1.1786 3.40795 0
M  V30 5649 O 527.842 0.312965 4.11211 0
M  V30 5650 H 527.183 0.288794 0.597908 0
M  V30 5651 H 529.713 1.40948 1.48307 0
M  V30 5652 H 529.723 1.14697 3.91546 0
M  V30 5653 H 528.398 2.22666 3.51273 0
M  V30 5654 H 526.975 0.405515 3.70689 0
M  V30 5655 N 529.16 -1.33526 0.837174 0
M  V30 5656 C 530.409 -1.97098 0.428387 0
M  V30 5657 C 530.722 -1.67062 -1.01734 0
M  V30 5658 O 531.928 -2.24235 -1.53072 0
M  V30 5659 C 530.384 -3.52725 0.715075 0
M  V30 5660 C 529.992 -3.9164 2.17537 0
M  V30 5661 C 531.736 -4.22857 0.373154 0
M  V30 5662 C 529.643 -5.40237 2.40619 0
M  V30 5663 H 528.573 -0.737589 0.156455 0
M  V30 5664 H 531.224 -1.52169 1.02552 0
M  V30 5665 H 529.606 -3.95971 0.0475904 0
M  V30 5666 H 530.78 -3.59456 2.88319 0
M  V30 5667 H 529.095 -3.34485 2.4801 0
M  V30 5668 H 531.692 -5.32133 0.523264 0
M  V30 5669 H 532.035 -4.10647 -0.683708 0
M  V30 5670 H 532.568 -3.85135 0.995801 0
M  V30 5671 H 529.307 -5.57449 3.44864 0
M  V30 5672 H 528.827 -5.73887 1.74396 0
M  V30 5673 H 530.506 -6.07102 2.23688 0
M  V30 5674 N 530.638 -0.59345 -1.46 0
M  V30 5675 C 532.049 -0.169801 -1.85926 0
M  V30 5676 C 532.4 1.26984 -1.49565 0
M  V30 5677 O 531.525 1.96076 -0.915602 0
M  V30 5678 C 532.12 -0.301385 -3.37457 0
M  V30 5679 C 530.679 0.0674684 -3.7634 0
M  V30 5680 C 529.826 -0.632383 -2.69993 0
M  V30 5681 H 532.777 -0.801014 -1.37002 0
M  V30 5682 H 532.798 0.470331 -3.77582 0
M  V30 5683 H 532.31 -1.34927 -3.63891 0
M  V30 5684 H 530.411 1.11507 -3.55523 0
M  V30 5685 H 530.524 -0.316332 -4.78055 0
M  V30 5686 H 528.888 -0.0714961 -2.546 0
M  V30 5687 H 529.671 -1.68212 -2.99265 0
M  V30 5688 N 532.116 1.54067 -0.331816 0
M  V30 5689 C 533.079 2.23275 0.517768 0
M  V30 5690 C 534.079 1.22897 1.03697 0
M  V30 5691 O 535.269 1.47419 0.928084 0
M  V30 5692 C 532.401 2.94326 1.72004 0
M  V30 5693 H 533.594 2.99773 -0.0873507 0
M  V30 5694 H 531.147 1.56079 -0.0830042 0
M  V30 5695 H 531.882 2.21986 2.36417 0
M  V30 5696 H 531.667 3.67941 1.35507 0
M  V30 5697 H 533.157 3.47031 2.32291 0
M  V30 5698 N 533.594 0.0601682 1.57485 0
M  V30 5699 C 534.557 -0.896373 2.10945 0
M  V30 5700 C 535.557 -1.23402 1.03095 0
M  V30 5701 O 536.747 -1.16921 1.29132 0
M  V30 5702 C 533.879 -2.20346 2.60116 0
M  V30 5703 H 535.072 -0.432778 2.96761 0
M  V30 5704 H 532.625 -0.188372 1.55161 0
M  V30 5705 H 533.36 -2.71268 1.7772 0
M  V30 5706 H 533.145 -1.9714 3.38937 0
M  V30 5707 H 534.635 -2.88846 3.01592 0
M  V30 5708 N 535.072 -1.5615 -0.213296 0
M  V30 5709 C 536.319 -1.79546 -0.936462 0
M  V30 5710 C 536.647 -0.630337 -1.84003 0
M  V30 5711 O 535.902 0.384883 -1.91878 0
M  V30 5712 C 536.201 -3.08772 -1.79985 0
M  V30 5713 C 535.867 -4.38532 -1.04882 0
M  V30 5714 C 534.529 -4.73787 -0.841393 0
M  V30 5715 C 536.881 -5.18609 -0.51907 0
M  V30 5716 C 534.209 -5.86627 -0.0924403 0
M  V30 5717 C 536.561 -6.32229 0.216581 0
M  V30 5718 C 535.225 -6.6608 0.435191 0
M  V30 5719 H 534.495 -0.657004 -0.342676 0
M  V30 5720 H 537.142 -1.9041 -0.204051 0
M  V30 5721 H 535.447 -2.93065 -2.60038 0
M  V30 5722 H 537.144 -3.24077 -2.36168 0
M  V30 5723 H 533.734 -4.10855 -1.22048 0
M  V30 5724 H 537.918 -4.91801 -0.666775 0
M  V30 5725 H 533.174 -6.11338 0.087081 0
M  V30 5726 H 537.348 -6.93503 0.634538 0
M  V30 5727 H 534.975 -7.5336 1.01746 0
M  V30 5728 N 536.55 0.480323 -1.50102 0
M  V30 5729 C 537.796 1.23208 -1.61837 0
M  V30 5730 C 538.151 1.89878 -0.310509 0
M  V30 5731 O 537.444 1.7871 0.690897 0
M  V30 5732 C 537.638 2.30708 -2.72963 0
M  V30 5733 C 537.467 1.74583 -4.14428 0
M  V30 5734 C 536.237 1.54964 -4.80951 0
M  V30 5735 C 538.435 1.24597 -4.98979 0
M  V30 5736 N 536.417 0.939855 -6.06663 0
M  V30 5737 C 537.788 0.758834 -6.15339 0
M  V30 5738 C 539.843 1.13365 -4.84822 0
M  V30 5739 C 538.546 0.17046 -7.19098 0
M  V30 5740 C 540.572 0.559221 -5.8875 0
M  V30 5741 C 539.934 0.082415 -7.04352 0
M  V30 5742 H 536.033 0.440065 -0.646426 0
M  V30 5743 H 538.617 0.535632 -1.87187 0
M  V30 5744 H 536.788 2.9779 -2.4935 0
M  V30 5745 H 538.52 2.97738 -2.74106 0
M  V30 5746 H 535.275 1.79926 -4.38091 0
M  V30 5747 H 535.699 0.653641 -6.73837 0
M  V30 5748 H 540.341 1.48823 -3.95742 0
M  V30 5749 H 538.059 -0.196347 -8.07861 0
M  V30 5750 H 541.645 0.474804 -5.79859 0
M  V30 5751 H 540.525 -0.355119 -7.83396 0
M  V30 5752 N 538.028 1.39524 0.732853 0
M  V30 5753 C 539.258 1.3994 1.51988 0
M  V30 5754 C 539.666 -0.00727973 1.89199 0
M  V30 5755 O 539.009 -0.989521 1.54771 0
M  V30 5756 C 539.071 2.21026 2.83527 0
M  V30 5757 C 538.735 3.69633 2.68738 0
M  V30 5758 C 539.732 4.62665 2.37143 0
M  V30 5759 C 537.417 4.13244 2.85542 0
M  V30 5760 C 539.411 5.97291 2.22536 0
M  V30 5761 C 537.098 5.47945 2.70554 0
M  V30 5762 C 538.096 6.39783 2.39097 0
M  V30 5763 O 537.784 7.72002 2.24204 0
M  V30 5764 H 537.516 0.479795 0.476206 0
M  V30 5765 H 540.07 1.8399 0.913054 0
M  V30 5766 H 538.3 1.71728 3.46477 0
M  V30 5767 H 539.989 2.13594 3.45156 0
M  V30 5768 H 540.755 4.30272 2.2381 0
M  V30 5769 H 536.634 3.42094 3.09019 0
M  V30 5770 H 540.178 6.68939 1.97905 0
M  V30 5771 H 536.075 5.79928 2.83466 0
M  V30 5772 H 536.843 7.8275 2.39258 0
M  V30 5773 N 539.506 -0.963266 1.24736 0
M  V30 5774 C 540.734 -1.74166 1.11686 0
M  V30 5775 C 541.149 -1.8589 -0.330187 0
M  V30 5776 O 540.506 -1.35042 -1.2276 0
M  V30 5777 C 540.557 -3.15989 1.75595 0
M  V30 5778 O 540.278 -3.04847 3.14642 0
M  V30 5779 C 541.779 -4.10145 1.68213 0
M  V30 5780 H 538.999 -0.546031 0.389989 0
M  V30 5781 H 541.543 -1.20907 1.64929 0
M  V30 5782 H 539.698 -3.66219 1.26343 0
M  V30 5783 H 540.112 -3.9425 3.4593 0
M  V30 5784 H 541.586 -5.07299 2.17604 0
M  V30 5785 H 542.063 -4.3445 0.644208 0
M  V30 5786 H 542.669 -3.65827 2.16912 0
M  V30 5787 N 540.985 -1.06182 -1.16461 0
M  V30 5788 C 542.234 -0.772927 -1.86303 0
M  V30 5789 C 542.547 0.703187 -1.82523 0
M  V30 5790 O 543.753 1.10641 -2.47933 0
M  V30 5791 C 542.209 -1.33249 -3.34324 0
M  V30 5792 C 541.817 -2.83876 -3.46581 0
M  V30 5793 C 543.561 -1.12108 -4.09429 0
M  V30 5794 C 541.468 -3.33082 -4.88682 0
M  V30 5795 H 540.398 -0.285452 -0.697878 0
M  V30 5796 H 543.049 -1.28039 -1.31447 0
M  V30 5797 H 541.431 -0.7528 -3.88779 0
M  V30 5798 H 542.605 -3.47786 -3.02293 0
M  V30 5799 H 540.92 -3.03671 -2.84909 0
M  V30 5800 H 543.517 -1.46361 -5.14279 0
M  V30 5801 H 543.86 -0.0593832 -4.16258 0
M  V30 5802 H 544.393 -1.6665 -3.6121 0
M  V30 5803 H 541.132 -4.38726 -4.87032 0
M  V30 5804 H 540.652 -2.73919 -5.33599 0
M  V30 5805 H 542.331 -3.28344 -5.57494 0
M  V30 5806 N 542.463 1.3308 -0.844243 0
M  V30 5807 C 543.709 1.97898 -0.443206 0
M  V30 5808 C 544.042 1.66699 0.99625 0
M  V30 5809 O 543.317 0.949704 1.69738 0
M  V30 5810 C 543.6 3.53801 -0.670606 0
M  V30 5811 C 543.453 3.94667 -2.15772 0
M  V30 5812 C 544.772 4.39936 -0.120226 0
M  V30 5813 H 541.891 0.718861 -0.162504 0
M  V30 5814 H 544.533 1.57633 -1.06075 0
M  V30 5815 H 542.683 3.88229 -0.14496 0
M  V30 5816 H 544.355 3.70469 -2.74865 0
M  V30 5817 H 542.598 3.44203 -2.6402 0
M  V30 5818 H 543.269 5.03275 -2.26757 0
M  V30 5819 H 545.745 4.12183 -0.5696 0
M  V30 5820 H 544.621 5.4803 -0.308984 0
M  V30 5821 H 544.882 4.31184 0.976347 0
M  V30 5822 N 543.941 0.601185 1.45683 0
M  V30 5823 C 545.169 0.100054 2.06658 0
M  V30 5824 C 545.584 -1.21285 1.44691 0
M  V30 5825 O 544.941 -1.73735 0.558772 0
M  V30 5826 C 544.992 -0.0528579 3.61461 0
M  V30 5827 O 544.713 1.20809 4.21114 0
M  V30 5828 C 546.214 -0.586193 4.39407 0
M  V30 5829 H 543.434 0.065905 0.667756 0
M  V30 5830 H 545.978 0.827101 1.87028 0
M  V30 5831 H 544.133 -0.730203 3.80456 0
M  V30 5832 H 544.547 1.03368 5.14213 0
M  V30 5833 H 546.021 -0.642297 5.4825 0
M  V30 5834 H 546.498 -1.60713 4.0874 0
M  V30 5835 H 547.104 0.0568935 4.25262 0
M  V30 5836 N 545.419 -1.53889 0.339982 0
M  V30 5837 C 546.352 -2.21187 -0.561405 0
M  V30 5838 C 547.33 -1.19463 -1.10306 0
M  V30 5839 O 548.514 -1.48268 -1.164 0
M  V30 5840 C 545.641 -2.8865 -1.77198 0
M  V30 5841 C 544.687 -4.04232 -1.3601 0
M  V30 5842 S 545.52 -5.34129 -0.382909 0
M  V30 5843 C 546.676 -6.05094 -1.60039 0
M  V30 5844 H 546.909 -2.97298 0.0102092 0
M  V30 5845 H 544.442 -1.53901 0.124056 0
M  V30 5846 H 546.4 -3.28138 -2.4665 0
M  V30 5847 H 545.061 -2.12311 -2.3148 0
M  V30 5848 H 544.254 -4.50358 -2.2626 0
M  V30 5849 H 543.856 -3.66503 -0.745098 0
M  V30 5850 H 546.148 -6.2827 -2.53541 0
M  V30 5851 H 547.091 -6.98182 -1.18099 0
M  V30 5852 H 547.499 -5.35207 -1.79483 0
M  V30 5853 N 546.897 -0.0685191 -1.57451 0
M  V30 5854 C 548.125 0.610462 -1.97689 0
M  V30 5855 C 548.54 1.63346 -0.946758 0
M  V30 5856 O 547.897 1.82377 0.0669868 0
M  V30 5857 C 547.948 1.28196 -3.38006 0
M  V30 5858 O 547.669 0.299906 -4.37072 0
M  V30 5859 C 549.17 2.04907 -3.931 0
M  V30 5860 H 546.39 0.165689 -0.650222 0
M  V30 5861 H 548.934 -0.139953 -2.04021 0
M  V30 5862 H 547.089 1.98348 -3.32771 0
M  V30 5863 H 547.503 0.78126 -5.18649 0
M  V30 5864 H 548.977 2.47287 -4.93511 0
M  V30 5865 H 549.454 2.9043 -3.29465 0
M  V30 5866 H 550.06 1.39629 -4.01726 0
M  V30 5867 N 548.375 1.56261 0.205012 0
M  V30 5868 C 549.603 1.84141 0.943386 0
M  V30 5869 C 550.018 0.649772 1.77266 0
M  V30 5870 O 549.375 -0.381612 1.78466 0
M  V30 5871 C 549.426 3.10719 1.84759 0
M  V30 5872 O 549.147 4.25286 1.05181 0
M  V30 5873 C 550.648 3.51706 2.69848 0
M  V30 5874 H 547.868 0.611734 0.275721 0
M  V30 5875 H 550.412 2.03364 0.215253 0
M  V30 5876 H 548.567 2.93422 2.52947 0
M  V30 5877 H 548.981 4.97301 1.66709 0
M  V30 5878 H 550.455 4.43266 3.28967 0
M  V30 5879 H 550.932 2.7423 3.43067 0
M  V30 5880 H 551.538 3.71499 2.07047 0
M  V30 5881 N 549.853 -0.472356 1.50355 0
M  V30 5882 C 550.783 -1.57859 1.72055 0
M  V30 5883 C 551.764 -1.60283 0.569505 0
M  V30 5884 O 552.949 -1.7657 0.808503 0
M  V30 5885 C 550.079 -2.96191 1.81351 0
M  V30 5886 C 549.033 -3.08633 2.96529 0
M  V30 5887 C 548.359 -4.486 2.90968 0
M  V30 5888 C 549.659 -2.85969 4.37057 0
M  V30 5889 H 551.353 -1.39953 2.64676 0
M  V30 5890 H 548.899 -0.671846 1.27367 0
M  V30 5891 H 550.852 -3.73507 1.95117 0
M  V30 5892 H 549.576 -3.15251 0.853502 0
M  V30 5893 H 548.235 -2.33749 2.82413 0
M  V30 5894 H 547.883 -4.64577 1.92815 0
M  V30 5895 H 547.583 -4.57861 3.68289 0
M  V30 5896 H 549.107 -5.27938 3.0678 0
M  V30 5897 H 550.521 -3.53036 4.51706 0
M  V30 5898 H 548.918 -3.06677 5.15819 0
M  V30 5899 H 549.988 -1.81838 4.49514 0
M  V30 5900 N 551.331 -1.39911 -0.725443 0
M  V30 5901 C 552.579 -1.37382 -1.48224 0
M  V30 5902 C 552.9 0.0264107 -1.94982 0
M  V30 5903 O 552.17 0.979408 -1.6966 0
M  V30 5904 H 550.75 -0.505596 -0.549892 0
M  V30 5905 H 553.412 -1.7487 -0.860608 0
M  V30 5906 H 552.508 -2.04254 -2.3598 0
M  V30 5907 N 552.809 0.956637 -1.25245 0
M  V30 5908 C 554.039 1.7332 -1.12445 0
M  V30 5909 C 554.447 1.86392 0.324732 0
M  V30 5910 O 553.79 1.35967 1.23526 0
M  V30 5911 C 553.852 3.16603 -1.70303 0
M  V30 5912 C 553.516 3.26966 -3.19284 0
M  V30 5913 C 554.513 3.11434 -4.16299 0
M  V30 5914 C 552.198 3.50851 -3.59456 0
M  V30 5915 C 554.192 3.1963 -5.51467 0
M  V30 5916 C 551.879 3.58684 -4.94761 0
M  V30 5917 C 552.877 3.43087 -5.90576 0
M  V30 5918 O 552.565 3.50598 -7.2342 0
M  V30 5919 H 552.297 0.549981 -0.393061 0
M  V30 5920 H 554.851 1.20892 -1.66055 0
M  V30 5921 H 553.081 3.70385 -1.11138 0
M  V30 5922 H 554.77 3.76109 -1.52632 0
M  V30 5923 H 555.536 2.92853 -3.86604 0
M  V30 5924 H 551.415 3.62053 -2.85375 0
M  V30 5925 H 554.959 3.07373 -6.26233 0
M  V30 5926 H 550.856 3.76782 -5.24124 0
M  V30 5927 H 551.624 3.67242 -7.31489 0
M  V30 5928 N 554.287 1.06798 1.15896 0
M  V30 5929 C 555.535 0.786211 1.8618 0
M  V30 5930 C 555.856 -0.689547 1.82401 0
M  V30 5931 O 555.126 -1.49913 1.26107 0
M  V30 5932 H 553.706 0.287843 0.689315 0
M  V30 5933 H 556.368 1.35055 1.40521 0
M  V30 5934 H 555.464 1.1157 2.91477 0
M  V30 5935 N 555.766 -1.3263 0.851289 0
M  V30 5936 C 557.043 -1.91982 0.374448 0
M  V30 5937 C 557.423 -1.77568 -1.14161 0
M  V30 5938 O 556.771 -1.1717 -1.96172 0
M  V30 5939 C 556.981 -3.38862 0.835088 0
M  V30 5940 C 558.329 -4.15999 0.850309 0
M  V30 5941 O 559.353 -3.47566 0.779505 0
M  V30 5942 O 558.212 -5.38189 0.949481 0
M  V30 5943 H 555.306 -0.819846 0.10854 0
M  V30 5944 H 557.852 -1.41422 0.937966 0
M  V30 5945 H 556.624 -3.43281 1.87814 0
M  V30 5946 H 556.247 -3.96821 0.248833 0
M  V30 5947 N 557.244 -0.608902 -1.45362 0
M  V30 5948 C 558.177 0.158059 -2.27652 0
M  V30 5949 C 559.155 0.872397 -1.37215 0
M  V30 5950 O 560.339 0.881002 -1.66645 0
M  V30 5951 C 557.466 1.22896 -3.15617 0
M  V30 5952 C 556.512 0.617607 -4.22005 0
M  V30 5953 S 557.345 -0.575518 -5.32398 0
M  V30 5954 C 558.501 0.495938 -6.23932 0
M  V30 5955 H 558.734 -0.540095 -2.92353 0
M  V30 5956 H 556.267 -0.396456 -1.49223 0
M  V30 5957 H 558.225 1.84195 -3.66855 0
M  V30 5958 H 556.886 1.89919 -2.50179 0
M  V30 5959 H 556.079 1.42341 -4.83482 0
M  V30 5960 H 555.681 0.0797273 -3.73915 0
M  V30 5961 H 557.973 1.37465 -6.63408 0
M  V30 5962 H 558.916 -0.0827108 -7.08052 0
M  V30 5963 H 559.324 0.811856 -5.58631 0
M  V30 5964 N 558.722 1.53707 -0.348139 0
M  V30 5965 C 559.968 2.01286 0.247332 0
M  V30 5966 C 560.301 1.23546 1.49834 0
M  V30 5967 O 559.576 0.324331 1.91777 0
M  V30 5968 C 559.859 3.55768 0.556858 0
M  V30 5969 C 559.712 4.44216 -0.706564 0
M  V30 5970 C 561.031 4.1841 1.3646 0
M  V30 5971 H 558.15 0.731677 0.0884201 0
M  V30 5972 H 560.792 1.84106 -0.469584 0
M  V30 5973 H 558.942 3.70539 1.16761 0
M  V30 5974 H 560.614 4.41274 -1.34444 0
M  V30 5975 H 558.857 4.12892 -1.33052 0
M  V30 5976 H 559.528 5.50202 -0.445186 0
M  V30 5977 H 562.004 4.07365 0.848113 0
M  V30 5978 H 560.88 5.26563 1.54992 0
M  V30 5979 H 561.141 3.7333 2.36805 0
M  V30 5980 N 560.2 0.0768682 1.57412 0
M  V30 5981 C 561.611 -0.455037 1.8107 0
M  V30 5982 C 561.962 -1.69323 0.991162 0
M  V30 5983 O 561.087 -2.15328 0.215156 0
M  V30 5984 C 561.682 -0.832316 3.28417 0
M  V30 5985 C 560.241 -1.30906 3.52903 0
M  V30 5986 C 559.388 -0.296714 2.75708 0
M  V30 5987 H 562.339 0.302514 1.5579 0
M  V30 5988 H 562.36 -1.69333 3.40744 0
M  V30 5989 H 561.872 0.0690532 3.88039 0
M  V30 5990 H 559.973 -2.22875 2.98592 0
M  V30 5991 H 560.086 -1.28348 4.61588 0
M  V30 5992 H 558.45 -0.775059 2.42621 0
M  V30 5993 H 559.233 0.597015 3.38069 0
M  V30 5994 N 561.678 -1.56367 -0.196722 0
M  V30 5995 C 562.903 -1.84991 -0.937714 0
M  V30 5996 C 563.328 -0.660244 -1.76132 0
M  V30 5997 O 562.686 0.390967 -1.77034 0
M  V30 5998 C 562.734 -3.11828 -1.81096 0
M  V30 5999 O 561.838 -2.92266 -2.90955 0
M  V30 6000 H 561.179 -0.609193 -0.264159 0
M  V30 6001 H 563.709 -2.03595 -0.202529 0
M  V30 6002 H 563.719 -3.42579 -2.21594 0
M  V30 6003 H 562.394 -3.98037 -1.2058 0
M  V30 6004 H 560.971 -2.72809 -2.54224 0
M  V30 6005 N 563.156 0.464375 -1.50603 0
M  V30 6006 C 564.384 1.23907 -1.65695 0
M  V30 6007 C 564.799 1.85658 -0.343027 0
M  V30 6008 O 564.156 1.69529 0.675739 0
M  V30 6009 C 564.207 2.3429 -2.75301 0
M  V30 6010 O 563.928 1.7507 -4.01599 0
M  V30 6011 C 565.429 3.25051 -3.01424 0
M  V30 6012 H 562.649 0.374485 -0.556778 0
M  V30 6013 H 565.193 0.55353 -1.96866 0
M  V30 6014 H 563.348 2.98607 -2.46804 0
M  V30 6015 H 563.762 2.47812 -4.62266 0
M  V30 6016 H 565.236 3.98699 -3.81763 0
M  V30 6017 H 565.713 3.84227 -2.12758 0
M  V30 6018 H 566.319 2.66463 -3.31477 0
M  V30 6019 N 564.634 1.40294 0.718013 0
M  V30 6020 C 565.883 1.37746 1.4734 0
M  V30 6021 C 566.196 -0.0180754 1.95592 0
M  V30 6022 O 567.402 -0.166166 2.70991 0
M  V30 6023 C 565.858 2.4208 2.66318 0
M  V30 6024 C 565.466 3.87432 2.24945 0
M  V30 6025 C 567.21 2.48635 3.44065 0
M  V30 6026 C 565.117 4.83368 3.40748 0
M  V30 6027 H 564.047 0.512165 0.553356 0
M  V30 6028 H 566.698 1.66019 0.781661 0
M  V30 6029 H 565.08 2.06903 3.3765 0
M  V30 6030 H 566.254 4.3174 1.6105 0
M  V30 6031 H 564.569 3.8433 1.60249 0
M  V30 6032 H 567.166 3.17499 4.30231 0
M  V30 6033 H 567.509 1.51611 3.87711 0
M  V30 6034 H 568.042 2.82791 2.79775 0
M  V30 6035 H 564.781 5.81716 3.02136 0
M  V30 6036 H 564.301 4.43726 4.03568 0
M  V30 6037 H 565.98 5.03074 4.06848 0
M  V30 6038 N 566.112 -0.949982 1.2575 0
M  V30 6039 C 567.075 -2.02894 1.06615 0
M  V30 6040 C 568.075 -1.60791 0.0173905 0
M  V30 6041 O 569.265 -1.72249 0.260003 0
M  V30 6042 C 566.397 -3.35219 0.619751 0
M  V30 6043 H 567.59 -2.21302 2.02399 0
M  V30 6044 H 565.143 -1.12772 1.08223 0
M  V30 6045 H 565.878 -3.22508 -0.340486 0
M  V30 6046 H 565.663 -3.67129 1.37692 0
M  V30 6047 H 567.153 -4.14505 0.507443 0
M  V30 6048 N 567.59 -1.07411 -1.15328 0
M  V30 6049 C 568.838 -0.796073 -1.85761 0
M  V30 6050 C 569.159 0.679864 -1.82764 0
M  V30 6051 O 568.429 1.49242 -1.269 0
M  V30 6052 H 567.009 -0.291495 -0.687779 0
M  V30 6053 H 569.671 -1.35799 -1.39802 0
M  V30 6054 H 568.767 -1.13114 -2.90881 0
M  V30 6055 N 569.068 1.32177 -0.85831 0
M  V30 6056 C 570.015 2.28794 -0.303607 0
M  V30 6057 C 570.985 1.55213 0.591453 0
M  V30 6058 O 572.17 1.83418 0.525585 0
M  V30 6059 C 569.31 3.41475 0.49889 0
M  V30 6060 C 568.423 4.2993 -0.422373 0
M  V30 6061 C 567.558 5.29743 0.393111 0
M  V30 6062 C 566.597 6.09842 -0.525317 0
M  V30 6063 N 565.734 7.01643 0.253208 0
M  V30 6064 H 570.574 2.75631 -1.13276 0
M  V30 6065 H 568.111 1.35606 -0.570026 0
M  V30 6066 H 570.069 4.05531 0.979826 0
M  V30 6067 H 568.699 2.95779 1.29284 0
M  V30 6068 H 567.751 3.66422 -1.02171 0
M  V30 6069 H 569.063 4.85899 -1.12709 0
M  V30 6070 H 568.217 5.9942 0.937056 0
M  V30 6071 H 566.956 4.744 1.13117 0
M  V30 6072 H 565.961 5.39066 -1.08112 0
M  V30 6073 H 567.186 6.6727 -1.26205 0
M  V30 6074 H 565.132 6.48725 0.974295 0
M  V30 6075 H 565.049 7.54981 -0.392398 0
M  V30 6076 H 566.317 7.756 0.778761 0
M  V30 6077 N 570.547 0.616602 1.45037 0
M  V30 6078 C 571.796 0.112861 2.01384 0
M  V30 6079 C 572.109 -1.26758 1.48969 0
M  V30 6080 O 573.315 -1.86454 1.9735 0
M  V30 6081 C 571.771 0.151057 3.59583 0
M  V30 6082 C 571.379 1.53191 4.20995 0
M  V30 6083 C 573.123 -0.296974 4.2346 0
M  V30 6084 C 571.03 1.526 5.71373 0
M  V30 6085 H 569.96 0.0384254 0.75302 0
M  V30 6086 H 572.611 0.773262 1.66412 0
M  V30 6087 H 570.993 -0.57617 3.91786 0
M  V30 6088 H 572.167 2.28156 4.00352 0
M  V30 6089 H 570.482 1.92279 3.69348 0
M  V30 6090 H 573.079 -0.320712 5.33737 0
M  V30 6091 H 573.422 -1.32145 3.9477 0
M  V30 6092 H 573.955 0.377279 3.96007 0
M  V30 6093 H 570.694 2.52837 6.04776 0
M  V30 6094 H 570.214 0.819064 5.94181 0
M  V30 6095 H 571.893 1.25357 6.3474 0
M  V30 6096 N 572.025 -1.5352 0.356285 0
M  V30 6097 C 573.272 -2.01117 -0.236303 0
M  V30 6098 C 573.6 -1.24381 -1.49531 0
M  V30 6099 O 572.855 -0.323057 -1.93015 0
M  V30 6100 C 573.154 -3.52607 -0.583369 0
M  V30 6101 C 572.82 -4.47151 0.58023 0
M  V30 6102 C 571.482 -4.72718 0.899528 0
M  V30 6103 C 573.834 -5.03137 1.36024 0
M  V30 6104 C 571.162 -5.51523 2.00098 0
M  V30 6105 C 573.514 -5.83145 2.45204 0
M  V30 6106 C 572.178 -6.07001 2.77679 0
M  V30 6107 H 571.448 -0.735938 -0.0864695 0
M  V30 6108 H 574.095 -1.85209 0.48683 0
M  V30 6109 H 572.4 -3.66413 -1.38739 0
M  V30 6110 H 574.097 -3.86901 -1.05397 0
M  V30 6111 H 570.687 -4.27394 0.321322 0
M  V30 6112 H 574.871 -4.83339 1.12682 0
M  V30 6113 H 570.127 -5.68229 2.25668 0
M  V30 6114 H 574.301 -6.25537 3.06067 0
M  V30 6115 H 571.928 -6.67851 3.63151 0
M  V30 6116 N 573.503 -0.0852151 -1.57369 0
M  V30 6117 C 574.751 0.579658 -1.93609 0
M  V30 6118 C 575.072 1.69332 -0.967043 0
M  V30 6119 O 574.342 1.95892 -0.0174215 0
M  V30 6120 H 572.922 0.217113 -0.714752 0
M  V30 6121 H 575.584 -0.146226 -1.94351 0
M  V30 6122 H 574.68 0.996276 -2.95771 0
M  V30 6123 N 574.981 1.5647 0.188427 0
M  V30 6124 C 576.206 1.85486 0.927891 0
M  V30 6125 C 576.631 0.669575 1.75779 0
M  V30 6126 O 575.989 -0.381573 1.77239 0
M  V30 6127 C 576.037 3.12784 1.7944 0
M  V30 6128 O 575.141 2.93805 2.894 0
M  V30 6129 H 574.482 0.610585 0.260925 0
M  V30 6130 H 577.012 2.037 0.191729 0
M  V30 6131 H 577.022 3.43749 2.19774 0
M  V30 6132 H 575.697 3.98671 1.18468 0
M  V30 6133 H 574.274 2.74153 2.52774 0
M  V30 6134 N 576.459 -0.456382 1.50847 0
M  V30 6135 C 577.708 -1.2042 1.61808 0
M  V30 6136 C 578.021 -1.9278 0.330932 0
M  V30 6137 O 579.227 -2.69612 0.319643 0
M  V30 6138 C 577.683 -2.18891 2.85683 0
M  V30 6139 C 577.291 -1.52267 4.2133 0
M  V30 6140 C 579.035 -2.94224 3.05994 0
M  V30 6141 C 576.942 -2.4911 5.36375 0
M  V30 6142 H 575.872 -0.453177 0.602616 0
M  V30 6143 H 578.523 -0.473144 1.77295 0
M  V30 6144 H 576.905 -2.95351 2.63787 0
M  V30 6145 H 578.079 -0.814949 4.53536 0
M  V30 6146 H 576.394 -0.891594 4.06743 0
M  V30 6147 H 578.991 -3.66732 3.89117 0
M  V30 6148 H 579.334 -3.54469 2.18306 0
M  V30 6149 H 579.867 -2.24874 3.28141 0
M  V30 6150 H 576.606 -1.93582 6.26264 0
M  V30 6151 H 576.126 -3.17991 5.08569 0
M  V30 6152 H 577.805 -3.10637 5.67551 0
M  V30 6153 N 577.937 -1.40673 -0.710563 0
M  V30 6154 C 579.177 -1.40677 -1.48288 0
M  V30 6155 C 579.541 -0.0097193 -1.91998 0
M  V30 6156 O 580.742 0.115381 -2.68552 0
M  V30 6157 C 579.013 -2.37289 -2.67262 0
M  V30 6158 S 580.572 -2.55694 -3.56603 0
M  V30 6159 H 577.39 -0.498545 -0.506926 0
M  V30 6160 H 579.992 -1.76984 -0.830472 0
M  V30 6161 H 578.696 -3.37617 -2.3333 0
M  V30 6162 H 578.227 -2.02282 -3.3741 0
M  V30 6163 H 580.242 -1.81311 -4.61888 0
M  V30 6164 N 579.415 0.9433 -1.26252 0
M  V30 6165 C 580.64 1.72898 -1.14547 0
M  V30 6166 C 581.065 1.85761 0.295743 0
M  V30 6167 O 580.423 1.3463 1.21427 0
M  V30 6168 C 580.471 3.11471 -1.8171 0
M  V30 6169 O 579.575 3.97336 -1.10445 0
M  V30 6170 H 578.916 0.530555 -0.399259 0
M  V30 6171 H 581.446 1.18159 -1.67032 0
M  V30 6172 H 581.456 3.61872 -1.88449 0
M  V30 6173 H 580.131 3.01425 -2.86558 0
M  V30 6174 H 578.708 3.55788 -1.11666 0
M  V30 6175 N 580.893 1.08022 1.14757 0
M  V30 6176 C 581.823 0.728248 2.21853 0
M  V30 6177 C 582.804 -0.287486 1.67653 0
M  V30 6178 O 583.989 -0.158727 1.9355 0
M  V30 6179 C 581.119 0.132549 3.47047 0
M  V30 6180 C 580.073 1.07619 4.14249 0
M  V30 6181 C 579.399 0.342907 5.33599 0
M  V30 6182 C 580.699 2.41268 4.63235 0
M  V30 6183 H 582.393 1.62365 2.51551 0
M  V30 6184 H 579.939 0.782125 1.20908 0
M  V30 6185 H 581.892 -0.125665 4.21213 0
M  V30 6186 H 580.616 -0.797971 3.16702 0
M  V30 6187 H 579.275 1.31944 3.42033 0
M  V30 6188 H 578.923 -0.59129 4.99513 0
M  V30 6189 H 578.623 0.971955 5.79506 0
M  V30 6190 H 580.147 0.0926538 6.1053 0
M  V30 6191 H 581.561 2.21232 5.28894 0
M  V30 6192 H 579.958 2.9983 5.19829 0
M  V30 6193 H 581.028 3.03079 3.78512 0
M  V30 6194 N 582.371 -1.3172 0.865308 0
M  V30 6195 C 583.596 -2.01591 0.487415 0
M  V30 6196 C 584.021 -1.6455 -0.911307 0
M  V30 6197 O 583.379 -0.851689 -1.6005 0
M  V30 6198 C 583.427 -3.54759 0.646401 0
M  V30 6199 O 582.531 -4.11185 -0.316284 0
M  V30 6200 H 581.872 -0.634884 0.194468 0
M  V30 6201 H 584.402 -1.68024 1.16744 0
M  V30 6202 H 584.412 -4.04438 0.537932 0
M  V30 6203 H 583.087 -3.8106 1.66632 0
M  V30 6204 H 581.664 -3.72543 -0.163162 0
M  V30 6205 N 583.85 -0.624285 -1.44708 0
M  V30 6206 C 585.098 -0.125802 -2.01708 0
M  V30 6207 C 585.418 1.2543 -1.49306 0
M  V30 6208 O 584.689 1.83198 -0.693924 0
M  V30 6209 H 583.269 -0.0435161 -0.745731 0
M  V30 6210 H 585.931 -0.809446 -1.77296 0
M  V30 6211 H 585.027 -0.0882734 -3.11975 0
M  V30 6212 N 585.328 1.53329 -0.364422 0
M  V30 6213 C 586.574 2.01537 0.225969 0
M  V30 6214 C 586.907 1.25128 1.48515 0
M  V30 6215 O 586.182 0.344653 1.91422 0
M  V30 6216 C 586.465 3.56339 0.519092 0
M  V30 6217 C 586.318 4.43441 -0.753639 0
M  V30 6218 C 587.637 4.19833 1.32015 0
M  V30 6219 H 584.756 0.732573 0.0806548 0
M  V30 6220 H 587.398 1.83597 -0.489084 0
M  V30 6221 H 585.548 3.71756 1.12825 0
M  V30 6222 H 587.22 4.39823 -1.39116 0
M  V30 6223 H 585.463 4.11457 -1.37424 0
M  V30 6224 H 586.134 5.49699 -0.503517 0
M  V30 6225 H 588.61 4.08242 0.804859 0
M  V30 6226 H 587.486 5.28177 1.49399 0
M  V30 6227 H 587.747 3.75821 2.32832 0
M  V30 6228 N 586.806 0.0935595 1.57322 0
M  V30 6229 C 587.736 -0.863062 2.16964 0
M  V30 6230 C 588.717 -1.29528 1.10256 0
M  V30 6231 O 589.902 -1.36245 1.38387 0
M  V30 6232 C 587.032 -2.12276 2.74875 0
M  V30 6233 C 585.986 -1.82921 3.86942 0
M  V30 6234 C 585.312 -3.15707 4.31548 0
M  V30 6235 C 586.612 -1.11737 5.10208 0
M  V30 6236 H 588.306 -0.366145 2.97153 0
M  V30 6237 H 585.852 -0.174673 1.42937 0
M  V30 6238 H 587.805 -2.79634 3.1525 0
M  V30 6239 H 586.529 -2.64248 1.91938 0
M  V30 6240 H 585.188 -1.17961 3.47103 0
M  V30 6241 H 584.836 -3.65563 3.45504 0
M  V30 6242 H 584.536 -2.96849 5.07104 0
M  V30 6243 H 586.06 -3.84226 4.74555 0
M  V30 6244 H 587.474 -1.69203 5.47762 0
M  V30 6245 H 585.871 -1.03064 5.91183 0
M  V30 6246 H 586.941 -0.0998818 4.84797 0
M  V30 6247 N 588.284 -1.56567 -0.180126 0
M  V30 6248 C 589.53 -1.81761 -0.899497 0
M  V30 6249 C 589.863 -0.670015 -1.82276 0
M  V30 6250 O 589.138 0.328575 -1.91705 0
M  V30 6251 C 589.421 -3.17296 -1.7028 0
M  V30 6252 C 589.274 -4.4257 -0.803255 0
M  V30 6253 C 590.593 -3.49678 -2.67233 0
M  V30 6254 H 587.712 -0.661192 -0.325567 0
M  V30 6255 H 590.354 -1.89272 -0.16612 0
M  V30 6256 H 588.504 -3.11023 -2.32802 0
M  V30 6257 H 590.176 -4.60902 -0.191585 0
M  V30 6258 H 588.419 -4.33658 -0.110796 0
M  V30 6259 H 589.09 -5.33935 -1.40064 0
M  V30 6260 H 591.566 -3.56347 -2.14839 0
M  V30 6261 H 590.442 -4.45605 -3.20511 0
M  V30 6262 H 590.703 -2.73932 -3.47007 0
M  V30 6263 N 589.762 0.448376 -1.51087 0
M  V30 6264 C 591.011 1.19561 -1.62444 0
M  V30 6265 C 591.324 1.92602 -0.341151 0
M  V30 6266 O 592.53 2.69439 -0.333936 0
M  V30 6267 C 590.986 2.17373 -2.8684 0
M  V30 6268 C 590.594 1.5003 -4.22131 0
M  V30 6269 C 592.338 2.92597 -3.0755 0
M  V30 6270 C 590.245 2.46262 -5.37689 0
M  V30 6271 H 589.175 0.449975 -0.605011 0
M  V30 6272 H 591.826 0.463735 -1.77544 0
M  V30 6273 H 590.208 2.93948 -2.65349 0
M  V30 6274 H 591.382 0.790886 -4.53962 0
M  V30 6275 H 589.697 0.870011 -4.0721 0
M  V30 6276 H 592.294 3.64663 -3.91056 0
M  V30 6277 H 592.637 3.53306 -2.20183 0
M  V30 6278 H 593.17 2.23131 -3.29329 0
M  V30 6279 H 589.909 1.90258 -6.27281 0
M  V30 6280 H 589.429 3.15289 -5.10248 0
M  V30 6281 H 591.108 3.07623 -5.6919 0
M  V30 6282 N 591.24 1.41047 0.703093 0
M  V30 6283 C 592.203 1.42036 1.79884 0
M  V30 6284 C 593.203 0.312153 1.57741 0
M  V30 6285 O 594.393 0.571672 1.64553 0
M  V30 6286 C 591.525 1.22437 3.18154 0
M  V30 6287 H 592.718 2.39572 1.80403 0
M  V30 6288 H 590.271 1.27079 0.909977 0
M  V30 6289 H 591.006 0.257112 3.23279 0
M  V30 6290 H 590.791 2.02723 3.35627 0
M  V30 6291 H 592.281 1.25946 3.98155 0
M  V30 6292 N 592.718 -0.936591 1.26751 0
M  V30 6293 C 593.648 -2.05315 1.11212 0
M  V30 6294 C 594.629 -1.70092 0.0160262 0
M  V30 6295 O 595.814 -1.93279 0.188894 0
M  V30 6296 C 592.944 -3.39123 0.749171 0
M  V30 6297 C 591.898 -3.88425 1.79751 0
M  V30 6298 C 591.224 -5.18936 1.28876 0
M  V30 6299 C 592.524 -4.12798 3.19992 0
M  V30 6300 H 594.218 -2.18573 2.04613 0
M  V30 6301 H 591.764 -1.05027 0.985159 0
M  V30 6302 H 593.717 -4.16704 0.627323 0
M  V30 6303 H 592.441 -3.25855 -0.220543 0
M  V30 6304 H 591.1 -3.13028 1.90811 0
M  V30 6305 H 590.748 -5.02051 0.308757 0
M  V30 6306 H 590.448 -5.52892 1.98958 0
M  V30 6307 H 591.972 -5.99096 1.17967 0
M  V30 6308 H 593.386 -4.80977 3.11983 0
M  V30 6309 H 591.783 -4.58044 3.87705 0
M  V30 6310 H 592.853 -3.18412 3.65707 0
M  V30 6311 N 594.196 -1.08629 -1.14182 0
M  V30 6312 C 595.607 -0.838003 -1.66836 0
M  V30 6313 C 595.958 0.634885 -1.85644 0
M  V30 6314 O 595.083 1.49008 -1.56926 0
M  V30 6315 C 595.678 -1.51465 -3.03058 0
M  V30 6316 C 594.237 -1.31355 -3.52736 0
M  V30 6317 C 593.384 -1.57599 -2.28162 0
M  V30 6318 H 596.335 -1.24656 -0.982165 0
M  V30 6319 H 596.356 -0.943134 -3.68626 0
M  V30 6320 H 595.868 -2.58661 -2.89337 0
M  V30 6321 H 593.969 -0.262384 -3.71675 0
M  V30 6322 H 594.082 -2.04275 -4.33369 0
M  V30 6323 H 592.446 -0.997659 -2.34348 0
M  V30 6324 H 593.229 -2.66006 -2.17015 0
M  V30 6325 N 595.674 1.31259 -0.872281 0
M  V30 6326 C 596.92 1.96913 -0.485083 0
M  V30 6327 C 597.253 1.68774 0.960667 0
M  V30 6328 O 596.528 0.985495 1.67685 0
M  V30 6329 C 596.811 3.52299 -0.745502 0
M  V30 6330 C 596.664 3.90002 -2.24095 0
M  V30 6331 C 597.983 4.39582 -0.213516 0
M  V30 6332 H 595.102 0.715252 -0.177716 0
M  V30 6333 H 597.744 1.55347 -1.09395 0
M  V30 6334 H 595.894 3.87835 -0.227276 0
M  V30 6335 H 597.566 3.64555 -2.82661 0
M  V30 6336 H 595.809 3.38526 -2.71261 0
M  V30 6337 H 596.48 4.98352 -2.37381 0
M  V30 6338 H 598.956 4.10882 -0.656902 0
M  V30 6339 H 597.832 5.47251 -0.42516 0
M  V30 6340 H 598.093 4.33158 0.884666 0
M  V30 6341 N 597.152 0.631951 1.44375 0
M  V30 6342 C 598.563 0.219036 1.85411 0
M  V30 6343 C 598.914 -1.22974 1.52879 0
M  V30 6344 O 598.039 -1.93579 0.967266 0
M  V30 6345 C 598.634 0.39075 3.36539 0
M  V30 6346 C 597.193 0.0323351 3.76386 0
M  V30 6347 C 596.34 0.703744 2.68221 0
M  V30 6348 H 599.291 0.837056 1.3483 0
M  V30 6349 H 599.312 -0.370056 3.78696 0
M  V30 6350 H 598.824 1.44527 3.60185 0
M  V30 6351 H 596.925 -1.02042 3.58355 0
M  V30 6352 H 597.038 0.442969 4.77048 0
M  V30 6353 H 595.402 0.138974 2.54321 0
M  V30 6354 H 596.185 1.76088 2.947 0
M  V30 6355 N 598.631 -1.53133 0.372548 0
M  V30 6356 C 599.877 -2.01654 -0.215277 0
M  V30 6357 C 600.21 -1.25914 -1.47849 0
M  V30 6358 O 599.485 -0.3548 -1.91237 0
M  V30 6359 C 599.768 -3.56609 -0.500187 0
M  V30 6360 C 599.621 -4.43036 0.777145 0
M  V30 6361 C 600.94 -4.20528 -1.29786 0
M  V30 6362 H 598.059 -0.732991 -0.0767686 0
M  V30 6363 H 600.701 -1.83335 0.498814 0
M  V30 6364 H 598.851 -3.7235 -1.10852 0
M  V30 6365 H 600.523 -4.39079 1.41447 0
M  V30 6366 H 598.766 -4.10723 1.39604 0
M  V30 6367 H 599.437 -5.49424 0.532662 0
M  V30 6368 H 601.913 -4.08663 -0.783198 0
M  V30 6369 H 600.789 -5.28962 -1.46596 0
M  V30 6370 H 601.05 -3.77051 -2.30836 0
M  V30 6371 N 600.109 -0.101901 -1.5727 0
M  V30 6372 C 601.358 0.559922 -1.93772 0
M  V30 6373 C 601.671 1.68913 -0.98629 0
M  V30 6374 O 602.877 2.41256 -1.24529 0
M  V30 6375 C 601.333 1.04739 -3.44322 0
M  V30 6376 C 600.941 -0.05243 -4.47969 0
M  V30 6377 C 602.685 1.68157 -3.89774 0
M  V30 6378 C 600.592 0.450781 -5.8968 0
M  V30 6379 H 599.522 0.212931 -0.723309 0
M  V30 6380 H 602.173 -0.179001 -1.82625 0
M  V30 6381 H 600.555 1.84021 -3.50645 0
M  V30 6382 H 601.729 -0.828157 -4.53297 0
M  V30 6383 H 600.044 -0.592202 -4.12167 0
M  V30 6384 H 602.641 2.0689 -4.93052 0
M  V30 6385 H 602.984 2.55338 -3.28798 0
M  V30 6386 H 603.517 0.954453 -3.8618 0
M  V30 6387 H 600.256 -0.38458 -6.54371 0
M  V30 6388 H 599.776 1.19336 -5.87809 0
M  V30 6389 H 601.455 0.917555 -6.40461 0
M  V30 6390 N 601.587 1.56661 0.17182 0
M  V30 6391 C 602.833 1.82235 0.889845 0
M  V30 6392 C 603.166 0.679673 1.81918 0
M  V30 6393 O 602.441 -0.318404 1.91876 0
M  V30 6394 C 602.724 3.18195 1.68595 0
M  V30 6395 C 602.577 4.42989 0.779773 0
M  V30 6396 C 603.896 3.5109 2.65375 0
M  V30 6397 H 601.015 0.66291 0.322056 0
M  V30 6398 H 603.657 1.89358 0.15608 0
M  V30 6399 H 601.807 3.12253 2.3115 0
M  V30 6400 H 603.479 4.60997 0.16714 0
M  V30 6401 H 601.722 4.33711 0.0877964 0
M  V30 6402 H 602.393 5.3467 1.3723 0
M  V30 6403 H 604.869 3.57482 2.12946 0
M  V30 6404 H 603.745 4.47298 3.18144 0
M  V30 6405 H 604.006 2.75768 3.45549 0
M  V30 6406 N 603.065 -0.440357 1.51323 0
M  V30 6407 C 604.29 -1.21716 1.67928 0
M  V30 6408 C 604.715 -1.84328 0.374826 0
M  V30 6409 O 604.073 -1.68675 -0.664706 0
M  V30 6410 C 604.121 -2.27914 2.79442 0
M  V30 6411 O 603.225 -3.33325 2.42834 0
M  V30 6412 H 602.566 -0.35674 0.560029 0
M  V30 6413 H 605.096 -0.520417 1.97871 0
M  V30 6414 H 605.106 -2.72746 3.03436 0
M  V30 6415 H 603.781 -1.8172 3.741 0
M  V30 6416 H 602.358 -2.9399 2.294 0
M  V30 6417 N 604.543 -1.41418 -0.695603 0
M  V30 6418 C 605.491 -1.43467 -1.83084 0
M  V30 6419 C 606.485 -0.312719 -1.66489 0
M  V30 6420 O 607.691 -0.484744 -1.7335 0
M  V30 6421 H 604.066 -0.448891 -0.603325 0
M  V30 6422 H 606.037 -2.39144 -1.78473 0
M  V30 6423 C 604.786 -1.3337 -3.21104 0
M  V30 6424 H 604.109 -2.18989 -3.3449 0
M  V30 6425 H 605.549 -1.38865 -4.00615 0
M  V30 6426 C 604.008 -0.0460484 -3.36869 0
M  V30 6427 O 604.538 0.909258 -3.91274 0
M  V30 6428 N 602.744 0.0300222 -2.90584 0
M  V30 6429 H 602.291 -0.748129 -2.46497 0
M  V30 6430 H 602.249 0.890991 -3.01511 0
M  V30 6431 N 606.021 0.929856 -1.27246 0
M  V30 6432 C 607.268 1.67731 -1.13457 0
M  V30 6433 C 607.596 1.9185 0.319998 0
M  V30 6434 O 606.851 1.50524 1.25064 0
M  V30 6435 C 607.15 3.05116 -1.86115 0
M  V30 6436 C 606.816 3.00715 -3.35978 0
M  V30 6437 C 605.478 2.99222 -3.76855 0
M  V30 6438 C 607.83 2.92168 -4.3161 0
M  V30 6439 C 605.158 2.86962 -5.11732 0
M  V30 6440 C 607.51 2.81449 -5.66542 0
M  V30 6441 C 606.174 2.78305 -6.06715 0
M  V30 6442 H 605.444 0.613772 -0.415168 0
M  V30 6443 H 608.091 1.08456 -1.57827 0
M  V30 6444 H 606.396 3.68083 -1.34246 0
M  V30 6445 H 608.093 3.61822 -1.72876 0
M  V30 6446 H 604.683 3.02664 -3.03468 0
M  V30 6447 H 608.867 2.92421 -4.01003 0
M  V30 6448 H 604.123 2.82913 -5.42006 0
M  V30 6449 H 608.297 2.738 -6.40317 0
M  V30 6450 H 605.924 2.68561 -7.11181 0
M  V30 6451 N 607.499 1.09233 1.13605 0
M  V30 6452 C 608.724 0.849067 1.89224 0
M  V30 6453 C 609.149 -0.593875 1.78479 0
M  V30 6454 O 608.507 -1.41703 1.13092 0
M  V30 6455 C 608.555 1.28642 3.36873 0
M  V30 6456 O 607.659 0.44363 4.10007 0
M  V30 6457 H 607 0.30767 0.588417 0
M  V30 6458 H 609.53 1.45595 1.43748 0
M  V30 6459 H 609.54 1.27096 3.87699 0
M  V30 6460 H 608.215 2.33729 3.44011 0
M  V30 6461 H 606.792 0.523241 3.69211 0
M  V30 6462 N 608.977 -1.30795 0.87923 0
M  V30 6463 C 610.393 -1.48981 0.57243 0
M  V30 6464 C 610.593 -1.80719 -0.891236 0
M  V30 6465 O 609.649 -1.89136 -1.67283 0
M  V30 6466 C 610.962 -2.61721 1.48063 0
M  V30 6467 C 612.51 -2.75603 1.48365 0
M  V30 6468 C 612.985 -3.91449 2.37763 0
M  V30 6469 N 614.476 -3.98751 2.35695 0
M  V30 6470 C 615.211 -4.87684 3.01583 0
M  V30 6471 N 614.707 -5.81454 3.76674 0
M  V30 6472 N 616.5 -4.81005 2.90844 0
M  V30 6473 H 608.651 -1.08465 1.82617 0
M  V30 6474 H 610.914 -0.536813 0.781368 0
M  V30 6475 H 610.62 -2.45073 2.52254 0
M  V30 6476 H 610.494 -3.58071 1.18596 0
M  V30 6477 H 612.881 -2.9166 0.44927 0
M  V30 6478 H 612.962 -1.79891 1.81859 0
M  V30 6479 H 612.606 -3.76149 3.41283 0
M  V30 6480 H 612.536 -4.86487 2.01589 0
M  V30 6481 H 615.027 -3.31668 1.81121 0
M  V30 6482 H 615.34 -6.46063 4.24054 0
M  V30 6483 H 613.685 -5.81403 3.80782 0
M  V30 6484 H 616.876 -4.06728 2.31711 0
M  V30 6485 H 617.049 -5.50107 3.42471 0
M  V30 6486 N 610.455 -0.639598 -1.44038 0
M  V30 6487 C 611.704 -0.144885 -2.01179 0
M  V30 6488 C 612.017 1.24372 -1.50967 0
M  V30 6489 O 613.223 1.83291 -2.00292 0
M  V30 6490 C 611.679 -0.208244 -3.59297 0
M  V30 6491 C 611.287 -1.59869 -4.18504 0
M  V30 6492 C 613.031 0.229568 -4.23879 0
M  V30 6493 C 610.938 -1.61671 -5.68873 0
M  V30 6494 H 609.868 -0.0504005 -0.752314 0
M  V30 6495 H 612.519 -0.799639 -1.65161 0
M  V30 6496 H 610.901 0.513767 -3.92653 0
M  V30 6497 H 612.075 -2.34496 -3.96671 0
M  V30 6498 H 610.39 -1.98131 -3.66242 0
M  V30 6499 H 612.987 0.235758 -5.3418 0
M  V30 6500 H 613.33 1.25848 -3.96822 0
M  V30 6501 H 613.863 -0.440233 -3.95357 0
M  V30 6502 H 610.602 -2.62427 -6.00677 0
M  V30 6503 H 610.122 -0.913489 -5.92803 0
M  V30 6504 H 611.801 -1.35439 -6.32665 0
M  V30 6505 N 611.933 1.52934 -0.380664 0
M  V30 6506 C 613.163 2.05587 0.204302 0
M  V30 6507 C 613.571 1.25288 1.41773 0
M  V30 6508 O 612.914 0.290394 1.8139 0
M  V30 6509 C 612.976 3.53624 0.647324 0
M  V30 6510 C 612.64 4.54765 -0.451465 0
M  V30 6511 C 613.637 5.03226 -1.30614 0
M  V30 6512 C 611.322 4.98508 -0.616025 0
M  V30 6513 C 613.316 5.94046 -2.31058 0
M  V30 6514 C 611.003 5.89131 -1.62381 0
M  V30 6515 C 612.001 6.36792 -2.46952 0
M  V30 6516 O 611.689 7.25626 -3.46009 0
M  V30 6517 H 611.421 0.675013 0.0365198 0
M  V30 6518 H 613.975 1.98125 -0.541827 0
M  V30 6519 H 612.205 3.58676 1.44529 0
M  V30 6520 H 613.894 3.89061 1.15698 0
M  V30 6521 H 614.66 4.70167 -1.19027 0
M  V30 6522 H 610.539 4.60989 0.0324987 0
M  V30 6523 H 614.083 6.3117 -2.97104 0
M  V30 6524 H 609.98 6.21603 -1.7401 0
M  V30 6525 H 610.748 7.43664 -3.41916 0
M  V30 6526 N 613.412 0.11024 1.57214 0
M  V30 6527 C 614.362 -0.854147 2.11396 0
M  V30 6528 C 615.346 -1.23394 1.03261 0
M  V30 6529 O 616.538 -1.20649 1.2951 0
M  V30 6530 C 613.667 -2.10752 2.70995 0
M  V30 6531 C 612.753 -1.75249 3.86198 0
M  V30 6532 N 613.144 -1.10377 4.9361 0
M  V30 6533 C 611.442 -2.04763 3.96217 0
M  V30 6534 C 612.143 -0.938199 5.74084 0
M  V30 6535 N 611.119 -1.46039 5.23616 0
M  V30 6536 H 614.921 -0.348897 2.91822 0
M  V30 6537 H 612.435 -0.0925071 1.62136 0
M  V30 6538 H 614.432 -2.80801 3.0815 0
M  V30 6539 H 613.092 -2.61829 1.9203 0
M  V30 6540 H 614.103 -0.768785 5.12162 0
M  V30 6541 H 610.78 -2.57948 3.28282 0
M  V30 6542 H 612.17 -0.429678 6.70525 0
M  V30 6543 N 614.89 -1.56749 -0.16351 0
M  V30 6544 C 615.822 -1.93587 -1.22705 0
M  V30 6545 C 616.835 -0.829824 -1.40063 0
M  V30 6546 O 618.024 -1.10826 -1.39928 0
M  V30 6547 C 615.124 -2.1803 -2.59454 0
M  V30 6548 C 614.297 -3.4928 -2.63292 0
M  V30 6549 C 613.356 -3.62457 -3.8146 0
M  V30 6550 O 612.382 -4.35004 -3.67096 0
M  V30 6551 N 613.584 -2.97888 -4.9824 0
M  V30 6552 H 616.349 -2.8542 -0.914081 0
M  V30 6553 H 613.91 -1.58 -0.353214 0
M  V30 6554 H 615.902 -2.24102 -3.36987 0
M  V30 6555 H 614.472 -1.32543 -2.8311 0
M  V30 6556 H 613.692 -3.54795 -1.71796 0
M  V30 6557 H 614.98 -4.35632 -2.62873 0
M  V30 6558 H 614.378 -2.38833 -5.12811 0
M  V30 6559 H 612.935 -3.09545 -5.73607 0
M  V30 6560 N 616.368 0.432326 -1.51554 0
M  V30 6561 C 617.316 1.54572 -1.73811 0
M  V30 6562 C 618.31 1.58246 -0.604539 0
M  V30 6563 O 619.516 1.6193 -0.786041 0
M  V30 6564 H 615.891 0.513626 -0.549265 0
M  V30 6565 H 617.862 1.32977 -2.67132 0
M  V30 6566 C 616.611 2.92181 -1.88483 0
M  V30 6567 H 615.934 2.90088 -2.75116 0
M  V30 6568 H 617.374 3.69439 -2.08065 0
M  V30 6569 C 615.833 3.3065 -0.645909 0
M  V30 6570 O 616.363 4.01216 0.197093 0
M  V30 6571 N 614.569 2.86464 -0.488538 0
M  V30 6572 H 614.116 2.29209 -1.17562 0
M  V30 6573 H 614.074 3.12565 0.339156 0
M  V30 6574 N 617.846 1.41785 0.688094 0
M  V30 6575 C 618.778 1.40159 1.81351 0
M  V30 6576 C 619.791 0.30262 1.59963 0
M  V30 6577 O 620.98 0.564841 1.69327 0
M  V30 6578 C 618.08 1.16517 3.1824 0
M  V30 6579 C 617.253 2.38597 3.66593 0
M  V30 6580 C 616.312 2.10699 4.82174 0
M  V30 6581 O 615.338 2.83798 4.93404 0
M  V30 6582 N 616.54 1.10187 5.69947 0
M  V30 6583 H 619.305 2.3716 1.83236 0
M  V30 6584 H 616.866 1.36494 0.870697 0
M  V30 6585 H 618.858 0.957941 3.93199 0
M  V30 6586 H 617.428 0.280873 3.11336 0
M  V30 6587 H 616.648 2.74974 2.82459 0
M  V30 6588 H 617.936 3.19919 3.95638 0
M  V30 6589 H 617.334 0.497016 5.63512 0
M  V30 6590 H 615.891 0.954518 6.44773 0
M  V30 6591 N 619.324 -0.923095 1.27737 0
M  V30 6592 C 620.74 -1.19985 1.05241 0
M  V30 6593 C 620.94 -2.00391 -0.21113 0
M  V30 6594 O 619.996 -2.35324 -0.915366 0
M  V30 6595 C 621.309 -1.94352 2.29451 0
M  V30 6596 C 622.857 -2.07273 2.34536 0
M  V30 6597 C 623.332 -2.85046 3.58487 0
M  V30 6598 N 624.823 -2.92612 3.59072 0
M  V30 6599 C 625.558 -3.53266 4.51654 0
M  V30 6600 N 625.054 -4.15274 5.54545 0
M  V30 6601 N 626.847 -3.50714 4.39268 0
M  V30 6602 H 618.998 -0.386042 2.08862 0
M  V30 6603 H 621.261 -0.233407 0.918817 0
M  V30 6604 H 620.967 -1.42692 3.21453 0
M  V30 6605 H 620.841 -2.94947 2.3513 0
M  V30 6606 H 623.228 -2.58117 1.43037 0
M  V30 6607 H 623.309 -1.05884 2.32857 0
M  V30 6608 H 622.953 -2.34884 4.50324 0
M  V30 6609 H 622.883 -3.8673 3.57418 0
M  V30 6610 H 625.374 -2.48547 2.84663 0
M  V30 6611 H 625.687 -4.59507 6.21348 0
M  V30 6612 H 624.032 -4.13806 5.58382 0
M  V30 6613 H 627.223 -3.01475 3.58093 0
M  V30 6614 H 627.396 -3.97693 5.1161 0
M  V30 6615 N 620.802 -1.09834 -1.13024 0
M  V30 6616 C 621.765 -0.745058 -2.16752 0
M  V30 6617 C 622.765 0.227435 -1.59183 0
M  V30 6618 O 623.955 0.0050786 -1.74199 0
M  V30 6619 C 621.087 -0.102543 -3.40746 0
M  V30 6620 H 622.28 -1.66375 -2.49518 0
M  V30 6621 H 619.833 -0.898061 -1.27924 0
M  V30 6622 H 620.568 0.827177 -3.13573 0
M  V30 6623 H 620.353 -0.80235 -3.83803 0
M  V30 6624 H 621.843 0.129082 -4.174 0
M  V30 6625 N 622.28 1.30327 -0.886154 0
M  V30 6626 C 623.557 1.90922 -0.425217 0
M  V30 6627 C 623.937 1.80533 1.09413 0
M  V30 6628 O 623.285 1.2233 1.92996 0
M  V30 6629 C 623.495 3.36529 -0.924638 0
M  V30 6630 C 624.843 4.13598 -0.960305 0
M  V30 6631 O 625.867 3.45377 -0.871382 0
M  V30 6632 O 624.726 5.35482 -1.09184 0
M  V30 6633 H 621.82 0.81668 -0.130238 0
M  V30 6634 H 624.366 1.38886 -0.975132 0
M  V30 6635 H 623.138 3.38181 -1.96849 0
M  V30 6636 H 622.761 3.96021 -0.353955 0
M  V30 6637 N 623.758 0.647228 1.43697 0
M  V30 6638 C 624.705 -0.0480092 2.3075 0
M  V30 6639 C 625.675 -0.820705 1.44408 0
M  V30 6640 O 626.86 -0.798515 1.73287 0
M  V30 6641 C 624 -1.01259 3.2991 0
M  V30 6642 C 623.113 -0.236629 4.31351 0
M  V30 6643 C 622.248 -1.19447 5.17596 0
M  V30 6644 C 621.287 -0.408595 6.10735 0
M  V30 6645 N 620.424 -1.31772 6.89623 0
M  V30 6646 H 625.264 0.700238 2.89656 0
M  V30 6647 H 622.801 0.357082 1.427 0
M  V30 6648 H 624.759 -1.58538 3.85903 0
M  V30 6649 H 623.389 -1.72778 2.72667 0
M  V30 6650 H 622.441 0.452353 3.77701 0
M  V30 6651 H 623.753 0.374731 4.9739 0
M  V30 6652 H 622.907 -1.83809 5.78186 0
M  V30 6653 H 621.646 -1.83975 4.51669 0
M  V30 6654 H 620.651 0.24841 5.49239 0
M  V30 6655 H 621.876 0.232188 6.78703 0
M  V30 6656 H 619.822 -1.94991 6.2635 0
M  V30 6657 H 619.739 -0.760779 7.52162 0
M  V30 6658 H 621.007 -1.94967 7.54724 0
M  V30 6659 N 625.236 -1.5273 0.388769 0
M  V30 6660 C 626.652 -1.59553 0.0387049 0
M  V30 6661 C 626.852 -1.40278 -1.44652 0
M  V30 6662 O 625.908 -1.21951 -2.21098 0
M  V30 6663 C 627.221 -2.9625 0.515409 0
M  V30 6664 C 628.769 -3.09426 0.471621 0
M  V30 6665 C 629.244 -4.48572 0.924505 0
M  V30 6666 N 630.735 -4.54754 0.880496 0
M  V30 6667 C 631.47 -5.60653 1.20234 0
M  V30 6668 N 630.966 -6.74198 1.59463 0
M  V30 6669 N 632.759 -5.50755 1.12363 0
M  V30 6670 H 624.91 -1.63508 1.35569 0
M  V30 6671 H 627.173 -0.768097 0.555636 0
M  V30 6672 H 626.879 -3.15569 1.5527 0
M  V30 6673 H 626.753 -3.77102 -0.085792 0
M  V30 6674 H 629.14 -2.89804 -0.556588 0
M  V30 6675 H 629.221 -2.30528 1.10862 0
M  V30 6676 H 628.865 -4.68936 1.95094 0
M  V30 6677 H 628.795 -5.25935 0.264524 0
M  V30 6678 H 631.286 -3.73237 0.591815 0
M  V30 6679 H 631.599 -7.5097 1.82385 0
M  V30 6680 H 629.944 -6.75531 1.63349 0
M  V30 6681 H 633.135 -4.6093 0.816169 0
M  V30 6682 H 633.308 -6.33184 1.37777 0
M  V30 6683 N 626.714 -0.118576 -1.57153 0
M  V30 6684 C 628.13 0.238014 -1.57815 0
M  V30 6685 C 628.33 1.66747 -1.13127 0
M  V30 6686 O 627.386 2.38867 -0.818462 0
M  V30 6687 C 628.699 0.00508207 -3.007 0
M  V30 6688 C 630.247 0.0710139 -3.12919 0
M  V30 6689 C 630.722 -0.13422 -4.57803 0
M  V30 6690 N 632.213 -0.0801755 -4.63131 0
M  V30 6691 C 632.948 -0.213885 -5.73001 0
M  V30 6692 N 632.444 -0.403742 -6.91623 0
M  V30 6693 N 634.237 -0.15349 -5.6189 0
M  V30 6694 H 626.388 -1.05226 -1.84503 0
M  V30 6695 H 628.651 -0.414318 -0.852669 0
M  V30 6696 H 628.357 -0.983125 -3.3768 0
M  V30 6697 H 628.231 0.73714 -3.69927 0
M  V30 6698 H 630.618 1.04975 -2.75798 0
M  V30 6699 H 630.699 -0.692918 -2.46236 0
M  V30 6700 H 630.343 -1.10992 -4.95624 0
M  V30 6701 H 630.273 0.649692 -5.22577 0
M  V30 6702 H 632.764 0.0630689 -3.77847 0
M  V30 6703 H 633.077 -0.496645 -7.71202 0
M  V30 6704 H 631.422 -0.43971 -6.93608 0
M  V30 6705 H 634.613 -0.00613174 -4.681 0
M  V30 6706 H 634.786 -0.261138 -6.47474 0
M  V30 6707 N 628.193 1.56834 0.155195 0
M  V30 6708 C 629.156 1.96748 1.17571 0
M  V30 6709 C 630.156 0.853006 1.3631 0
M  V30 6710 O 631.346 1.11978 1.33441 0
M  V30 6711 C 628.478 2.27631 2.53765 0
M  V30 6712 H 629.671 2.88085 0.833498 0
M  V30 6713 H 627.224 1.51141 0.398242 0
M  V30 6714 H 627.959 1.39059 2.92973 0
M  V30 6715 H 627.744 3.0888 2.41527 0
M  V30 6716 H 629.234 2.59377 3.27282 0
M  V30 6717 N 629.671 -0.424282 1.51781 0
M  V30 6718 C 630.603 -1.53457 1.70246 0
M  V30 6719 C 631.616 -1.52004 0.582967 0
M  V30 6720 O 632.805 -1.56544 0.857683 0
M  V30 6721 C 629.905 -2.92368 1.71389 0
M  V30 6722 C 629.078 -3.1818 3.00133 0
M  V30 6723 C 628.137 -4.36884 2.9329 0
M  V30 6724 O 627.163 -4.34901 3.67219 0
M  V30 6725 N 628.365 -5.4117 2.10036 0
M  V30 6726 H 631.13 -1.38017 2.66029 0
M  V30 6727 H 628.691 -0.613394 1.4983 0
M  V30 6728 H 630.683 -3.6982 1.64362 0
M  V30 6729 H 629.253 -3.0134 0.831449 0
M  V30 6730 H 628.473 -2.28908 3.20928 0
M  V30 6731 H 629.761 -3.32261 3.85331 0
M  V30 6732 H 629.159 -5.45623 1.49373 0
M  V30 6733 H 627.716 -6.17425 2.08878 0
M  V30 6734 N 631.149 -1.42148 -0.680565 0
M  V30 6735 C 632.081 -1.41119 -1.80605 0
M  V30 6736 C 633.094 -0.311099 -1.598 0
M  V30 6737 O 634.283 -0.573813 -1.69026 0
M  V30 6738 C 631.383 -1.18204 -3.17618 0
M  V30 6739 C 630.556 -2.40537 -3.65322 0
M  V30 6740 C 629.615 -2.13254 -4.8105 0
M  V30 6741 O 628.641 -2.8641 -4.91892 0
M  V30 6742 N 629.843 -1.13208 -5.69354 0
M  V30 6743 H 632.608 -2.38128 -1.81975 0
M  V30 6744 H 630.169 -1.36953 -0.863446 0
M  V30 6745 H 632.161 -0.97878 -3.92686 0
M  V30 6746 H 630.731 -0.29738 -3.11182 0
M  V30 6747 H 629.951 -2.76468 -2.80996 0
M  V30 6748 H 631.239 -3.22012 -3.93936 0
M  V30 6749 H 630.637 -0.526893 -5.63241 0
M  V30 6750 H 629.194 -0.988699 -6.44258 0
M  V30 6751 N 632.627 0.916307 -1.28225 0
M  V30 6752 C 633.574 2.01841 -1.11932 0
M  V30 6753 C 634.544 1.66091 -0.0171604 0
M  V30 6754 O 635.729 1.89934 -0.181617 0
M  V30 6755 C 632.869 3.36065 -0.784504 0
M  V30 6756 C 631.982 3.847 -1.96544 0
M  V30 6757 C 631.117 5.07423 -1.57149 0
M  V30 6758 C 630.156 5.48384 -2.71922 0
M  V30 6759 N 629.293 6.62298 -2.33037 0
M  V30 6760 H 634.133 2.1511 -2.06232 0
M  V30 6761 H 631.67 1.05366 -1.02647 0
M  V30 6762 H 633.628 4.13272 -0.571148 0
M  V30 6763 H 632.258 3.22571 0.121565 0
M  V30 6764 H 631.31 3.03673 -2.291 0
M  V30 6765 H 632.622 4.1102 -2.82603 0
M  V30 6766 H 631.776 5.92165 -1.32004 0
M  V30 6767 H 630.515 4.82906 -0.682153 0
M  V30 6768 H 629.52 4.62184 -2.97768 0
M  V30 6769 H 630.745 5.7489 -3.61494 0
M  V30 6770 H 628.691 6.39416 -1.4657 0
M  V30 6771 H 628.608 6.8833 -3.12631 0
M  V30 6772 H 629.876 7.50352 -2.11169 0
M  V30 6773 N 634.105 1.10431 1.1244 0
M  V30 6774 C 635.351 0.847972 1.84221 0
M  V30 6775 C 635.684 -0.624903 1.83871 0
M  V30 6776 O 634.959 -1.46074 1.28423 0
M  V30 6777 C 635.242 1.39695 3.319 0
M  V30 6778 C 635.095 2.93668 3.40704 0
M  V30 6779 C 636.414 1.03924 4.27654 0
M  V30 6780 H 633.533 0.309502 0.668863 0
M  V30 6781 H 636.175 1.36745 1.31912 0
M  V30 6782 H 634.325 0.955095 3.76577 0
M  V30 6783 H 635.997 3.46379 3.04662 0
M  V30 6784 H 634.24 3.30272 2.81252 0
M  V30 6785 H 634.911 3.27162 4.446 0
M  V30 6786 H 637.387 1.42049 3.91102 0
M  V30 6787 H 636.263 1.45027 5.29394 0
M  V30 6788 H 636.524 -0.051336 4.4207 0
M  V30 6789 N 635.583 -1.29855 0.893053 0
M  V30 6790 C 636.999 -1.48366 0.588199 0
M  V30 6791 C 637.199 -1.81654 -0.872018 0
M  V30 6792 O 636.255 -1.909 -1.65268 0
M  V30 6793 C 637.568 -2.60136 1.5083 0
M  V30 6794 C 639.116 -2.74014 1.51279 0
M  V30 6795 C 639.591 -3.88905 2.41902 0
M  V30 6796 N 641.082 -3.96228 2.39911 0
M  V30 6797 C 641.817 -4.84458 3.06738 0
M  V30 6798 N 641.313 -5.77426 3.8282 0
M  V30 6799 N 643.106 -4.77894 2.95929 0
M  V30 6800 H 635.257 -1.06522 1.83757 0
M  V30 6801 H 637.52 -0.528495 0.787018 0
M  V30 6802 H 637.226 -2.42383 2.54839 0
M  V30 6803 H 637.1 -3.56793 1.22388 0
M  V30 6804 H 639.487 -2.91167 0.480179 0
M  V30 6805 H 639.568 -1.77952 1.83757 0
M  V30 6806 H 639.212 -3.72508 3.45253 0
M  V30 6807 H 639.142 -4.84322 2.06737 0
M  V30 6808 H 641.633 -3.29728 1.84629 0
M  V30 6809 H 641.946 -6.41529 4.30883 0
M  V30 6810 H 640.291 -5.77332 3.86927 0
M  V30 6811 H 643.482 -4.04248 2.36012 0
M  V30 6812 H 643.655 -5.46444 3.48286 0
M  V30 6813 N 637.061 -0.65484 -1.43351 0
M  V30 6814 C 637.991 0.0221809 -2.33489 0
M  V30 6815 C 638.972 0.810272 -1.49561 0
M  V30 6816 O 640.157 0.771426 -1.78221 0
M  V30 6817 C 637.287 0.988117 -3.32947 0
M  V30 6818 C 636.241 0.310026 -4.26876 0
M  V30 6819 C 635.567 1.38752 -5.16384 0
M  V30 6820 C 636.867 -0.798589 -5.16159 0
M  V30 6821 H 638.561 -0.730571 -2.9035 0
M  V30 6822 H 636.107 -0.352773 -1.39612 0
M  V30 6823 H 638.06 1.47067 -3.94904 0
M  V30 6824 H 636.784 1.77205 -2.74346 0
M  V30 6825 H 635.443 -0.152097 -3.66284 0
M  V30 6826 H 635.091 2.16293 -4.54121 0
M  V30 6827 H 634.791 0.939051 -5.80048 0
M  V30 6828 H 636.315 1.87141 -5.81215 0
M  V30 6829 H 637.729 -0.398126 -5.71916 0
M  V30 6830 H 636.126 -1.17163 -5.88552 0
M  V30 6831 H 637.196 -1.65588 -4.55751 0
M  V30 6832 N 638.539 1.52521 -0.396863 0
M  V30 6833 C 639.502 2.2527 0.422604 0
M  V30 6834 C 640.502 1.27184 0.983913 0
M  V30 6835 O 641.692 1.51222 0.864723 0
M  V30 6836 C 638.824 3.01356 1.59365 0
M  V30 6837 H 640.017 2.99133 -0.214416 0
M  V30 6838 H 637.57 1.55587 -0.149128 0
M  V30 6839 H 638.305 2.31813 2.26789 0
M  V30 6840 H 638.09 3.73357 1.19779 0
M  V30 6841 H 639.58 3.56571 2.17363 0
M  V30 6842 N 640.017 0.126909 1.57088 0
M  V30 6843 C 641.433 -0.229641 1.57939 0
M  V30 6844 C 641.633 -1.66145 1.1401 0
M  V30 6845 O 640.689 -2.3843 0.831119 0
M  V30 6846 C 642.002 0.0108648 3.00698 0
M  V30 6847 C 643.55 -0.054418 3.12953 0
M  V30 6848 C 644.025 0.158497 4.57726 0
M  V30 6849 N 645.516 0.104735 4.63082 0
M  V30 6850 C 646.251 0.24427 5.72879 0
M  V30 6851 N 645.747 0.440415 6.91399 0
M  V30 6852 N 647.54 0.183286 5.61801 0
M  V30 6853 H 639.691 1.06203 1.83942 0
M  V30 6854 H 641.954 0.418834 0.85046 0
M  V30 6855 H 641.66 1.00102 3.37154 0
M  V30 6856 H 641.534 -0.717512 3.70313 0
M  V30 6857 H 643.921 -1.0351 2.7635 0
M  V30 6858 H 644.002 0.705967 2.45865 0
M  V30 6859 H 643.646 1.13619 4.95028 0
M  V30 6860 H 643.576 -0.62197 5.22914 0
M  V30 6861 H 646.067 -0.0430298 3.77876 0
M  V30 6862 H 646.38 0.537536 7.70928 0
M  V30 6863 H 644.725 0.476488 6.93365 0
M  V30 6864 H 647.916 0.0309561 4.6809 0
M  V30 6865 H 648.089 0.295471 6.47326 0
M  V30 6866 N 641.495 -1.56914 -0.146875 0
M  V30 6867 C 642.744 -1.82546 -0.857898 0
M  V30 6868 C 643.057 -0.708169 -1.8233 0
M  V30 6869 O 644.263 -0.850093 -2.57848 0
M  V30 6870 C 642.719 -3.23548 -1.57623 0
M  V30 6871 C 642.327 -4.43212 -0.653224 0
M  V30 6872 C 644.071 -3.58453 -2.27402 0
M  V30 6873 C 641.978 -5.75237 -1.37318 0
M  V30 6874 H 640.908 -0.680786 -0.32411 0
M  V30 6875 H 643.559 -1.83166 -0.110639 0
M  V30 6876 H 641.941 -3.17315 -2.36912 0
M  V30 6877 H 643.115 -4.60682 0.104452 0
M  V30 6878 H 641.43 -4.16351 -0.0638336 0
M  V30 6879 H 644.027 -4.54349 -2.81907 0
M  V30 6880 H 644.37 -2.84516 -3.03901 0
M  V30 6881 H 644.903 -3.66347 -1.55032 0
M  V30 6882 H 641.642 -6.52269 -0.650041 0
M  V30 6883 H 641.162 -5.61703 -2.10357 0
M  V30 6884 H 642.841 -6.18039 -1.91406 0
M  V30 6885 N 642.974 0.416227 -1.52004 0
M  V30 6886 C 644.39 0.754319 -1.40649 0
M  V30 6887 C 644.59 1.95059 -0.505392 0
M  V30 6888 O 643.646 2.5248 0.0315057 0
M  V30 6889 C 644.959 1.0149 -2.83055 0
M  V30 6890 C 646.507 1.11805 -2.9235 0
M  V30 6891 C 646.982 1.41144 -4.35709 0
M  V30 6892 N 648.473 1.48024 -4.38911 0
M  V30 6893 C 649.208 1.72338 -5.46889 0
M  V30 6894 N 648.704 1.94303 -6.64995 0
M  V30 6895 N 650.497 1.74294 -5.34395 0
M  V30 6896 H 642.648 -0.371324 -2.09129 0
M  V30 6897 H 644.911 -0.103811 -0.942299 0
M  V30 6898 H 644.617 0.208345 -3.51082 0
M  V30 6899 H 644.491 1.93697 -3.23668 0
M  V30 6900 H 646.878 1.91521 -2.24508 0
M  V30 6901 H 646.959 0.17451 -2.55204 0
M  V30 6902 H 646.603 0.619484 -5.04108 0
M  V30 6903 H 646.533 2.36739 -4.70385 0
M  V30 6904 H 649.024 1.32868 -3.53772 0
M  V30 6905 H 649.337 2.12286 -7.43071 0
M  V30 6906 H 647.682 1.91582 -6.68073 0
M  V30 6907 H 650.873 1.56667 -4.41104 0
M  V30 6908 H 651.046 1.92904 -6.18621 0
M  V30 6909 N 644.452 1.42507 0.673017 0
M  V30 6910 C 645.382 1.48916 1.79851 0
M  V30 6911 C 646.363 0.345566 1.66553 0
M  V30 6912 O 647.548 0.560116 1.85947 0
M  V30 6913 C 644.678 1.39258 3.18158 0
M  V30 6914 C 643.632 2.51662 3.46194 0
M  V30 6915 C 642.958 2.27062 4.84094 0
M  V30 6916 C 644.258 3.93968 3.42909 0
M  V30 6917 H 645.952 2.43114 1.74745 0
M  V30 6918 H 643.498 1.17013 0.839288 0
M  V30 6919 H 645.451 1.42349 3.96629 0
M  V30 6920 H 644.175 0.415542 3.23946 0
M  V30 6921 H 642.834 2.47891 2.70084 0
M  V30 6922 H 642.482 1.27648 4.86534 0
M  V30 6923 H 642.182 3.02398 5.03815 0
M  V30 6924 H 643.706 2.31905 5.64847 0
M  V30 6925 H 645.12 3.99332 4.11347 0
M  V30 6926 H 643.517 4.6917 3.74165 0
M  V30 6927 H 644.587 4.20512 2.41449 0
M  V30 6928 N 645.93 -0.909495 1.28709 0
M  V30 6929 C 646.893 -1.99399 1.13016 0
M  V30 6930 C 647.893 -1.60654 0.068536 0
M  V30 6931 O 649.083 -1.71334 0.314671 0
M  V30 6932 C 646.215 -3.33078 0.726085 0
M  V30 6933 H 647.408 -2.14751 2.09338 0
M  V30 6934 H 644.961 -1.09272 1.11756 0
M  V30 6935 H 645.696 -3.23428 -0.23771 0
M  V30 6936 H 645.481 -3.62562 1.49302 0
M  V30 6937 H 646.971 -4.12681 0.639058 0
M  V30 6938 N 647.408 -1.11026 -1.11852 0
M  V30 6939 C 648.355 -0.764662 -2.17765 0
M  V30 6940 C 649.325 0.261854 -1.64023 0
M  V30 6941 O 650.51 0.139748 -1.90288 0
M  V30 6942 C 647.65 -0.209317 -3.44465 0
M  V30 6943 C 646.763 -1.29187 -4.12231 0
M  V30 6944 C 645.898 -0.697523 -5.266 0
M  V30 6945 C 644.937 -1.76023 -5.86244 0
M  V30 6946 N 644.074 -1.18569 -6.92016 0
M  V30 6947 H 648.914 -1.67202 -2.46673 0
M  V30 6948 H 646.451 -0.835065 -1.21099 0
M  V30 6949 H 648.409 0.130599 -4.16996 0
M  V30 6950 H 647.039 0.661251 -3.15955 0
M  V30 6951 H 646.091 -1.74881 -3.37818 0
M  V30 6952 H 647.403 -2.09607 -4.52622 0
M  V30 6953 H 646.557 -0.307412 -6.05921 0
M  V30 6954 H 645.296 0.138044 -4.87505 0
M  V30 6955 H 644.301 -2.1597 -5.05606 0
M  V30 6956 H 645.526 -2.59875 -6.27409 0
M  V30 6957 H 643.472 -0.371695 -6.54946 0
M  V30 6958 H 643.389 -1.92666 -7.31038 0
M  V30 6959 H 644.657 -0.82233 -7.7515 0
M  V30 6960 N 648.886 1.2938 -0.899927 0
M  V30 6961 C 650.111 2.00228 -0.540692 0
M  V30 6962 C 650.536 1.66909 0.867359 0
M  V30 6963 O 649.894 0.893824 1.57735 0
M  V30 6964 C 649.942 3.52921 -0.740232 0
M  V30 6965 O 649.046 4.11879 0.207154 0
M  V30 6966 H 648.387 0.629505 -0.211233 0
M  V30 6967 H 650.917 1.6487 -1.21158 0
M  V30 6968 H 650.927 4.0287 -0.644973 0
M  V30 6969 H 649.602 3.76508 -1.76677 0
M  V30 6970 H 648.179 3.72845 0.0643315 0
M  V30 6971 N 650.364 0.662433 1.43002 0
M  V30 6972 C 651.612 0.179237 2.01304 0
M  V30 6973 C 651.933 -1.21428 1.52579 0
M  V30 6974 O 651.203 -1.81294 0.742252 0
M  V30 6975 H 649.783 0.0632725 0.744316 0
M  V30 6976 H 652.445 0.856169 1.75088 0
M  V30 6977 H 651.541 0.170957 3.11631 0
M  V30 6978 N 651.842 -1.52309 0.404946 0
M  V30 6979 C 653.07 -2.06185 -0.171818 0
M  V30 6980 C 653.485 -1.27536 -1.39212 0
M  V30 6981 O 652.842 -0.326112 -1.79563 0
M  V30 6982 C 652.893 -3.57647 -0.526417 0
M  V30 6983 O 652.614 -4.3332 0.645417 0
M  V30 6984 C 654.115 -4.27925 -1.15736 0
M  V30 6985 H 651.335 -0.670632 -0.0222328 0
M  V30 6986 H 653.879 -1.96259 0.574692 0
M  V30 6987 H 652.034 -3.67595 -1.22282 0
M  V30 6988 H 652.448 -5.23328 0.35042 0
M  V30 6989 H 653.922 -5.35093 -1.35572 0
M  V30 6990 H 654.399 -3.84134 -2.12926 0
M  V30 6991 H 655.005 -4.22335 -0.501281 0
M  V30 6992 N 653.32 -0.135238 -1.57019 0
M  V30 6993 C 654.548 0.526066 -2.001 0
M  V30 6994 C 654.963 1.59184 -1.01519 0
M  V30 6995 O 654.32 1.82497 -0.0104258 0
M  V30 6996 C 654.371 1.13744 -3.43139 0
M  V30 6997 O 654.092 0.114259 -4.37951 0
M  V30 6998 C 655.593 1.8805 -4.01438 0
M  V30 6999 H 652.813 0.137962 -0.656664 0
M  V30 7000 H 655.357 -0.226359 -2.03243 0
M  V30 7001 H 653.512 1.84056 -3.40885 0
M  V30 7002 H 653.926 0.56058 -5.21496 0
M  V30 7003 H 655.4 2.26133 -5.03555 0
M  V30 7004 H 655.877 2.76194 -3.41487 0
M  V30 7005 H 656.483 1.22464 -4.07287 0
M  V30 7006 N 654.798 1.5699 0.138552 0
M  V30 7007 C 655.746 1.99858 1.18994 0
M  V30 7008 C 656.74 0.89231 1.43994 0
M  V30 7009 O 657.946 1.0775 1.44187 0
M  V30 7010 H 654.321 0.636325 0.400743 0
M  V30 7011 H 656.292 2.87427 0.801755 0
M  V30 7012 C 655.041 2.40235 2.51361 0
M  V30 7013 H 654.364 3.24917 2.32957 0
M  V30 7014 H 655.804 2.74045 3.23535 0
M  V30 7015 C 654.263 1.25829 3.1252 0
M  V30 7016 O 654.793 0.563604 3.97727 0
M  V30 7017 N 652.999 1.02036 2.72097 0
M  V30 7018 H 652.546 1.58705 2.02905 0
M  V30 7019 H 652.504 0.256796 3.1335 0
M  V30 7020 N 656.276 -0.40816 1.52223 0
M  V30 7021 C 657.239 -1.48 1.7501 0
M  V30 7022 C 658.239 -1.48367 0.619996 0
M  V30 7023 O 659.429 -1.49874 0.887881 0
M  V30 7024 C 656.561 -2.87403 1.83336 0
M  V30 7025 H 657.754 -1.29086 2.70697 0
M  V30 7026 H 655.307 -0.638715 1.42654 0
M  V30 7027 H 656.042 -3.11686 0.895677 0
M  V30 7028 H 655.827 -2.8854 2.65494 0
M  V30 7029 H 657.317 -3.65103 2.02705 0
M  V30 7030 N 657.755 -1.42862 -0.66545 0
M  V30 7031 C 659.002 -1.4383 -1.42546 0
M  V30 7032 C 659.33 -0.0581114 -1.94413 0
M  V30 7033 O 658.585 0.935002 -1.71919 0
M  V30 7034 C 658.884 -2.4175 -2.63233 0
M  V30 7035 C 658.55 -3.87915 -2.29854 0
M  V30 7036 C 657.212 -4.27726 -2.20463 0
M  V30 7037 C 659.564 -4.80074 -2.02924 0
M  V30 7038 C 656.892 -5.57666 -1.82279 0
M  V30 7039 C 659.244 -6.10366 -1.66242 0
M  V30 7040 C 657.908 -6.49167 -1.55367 0
M  V30 7041 H 657.178 -0.52631 -0.521612 0
M  V30 7042 H 659.825 -1.75863 -0.757914 0
M  V30 7043 H 658.13 -2.03077 -3.35063 0
M  V30 7044 H 659.827 -2.39759 -3.21429 0
M  V30 7045 H 656.417 -3.564 -2.3807 0
M  V30 7046 H 660.601 -4.50097 -2.09108 0
M  V30 7047 H 655.857 -5.8658 -1.72436 0
M  V30 7048 H 660.031 -6.81258 -1.44432 0
M  V30 7049 H 657.658 -7.49761 -1.2555 0
M  V30 7050 N 659.233 0.902656 -1.29189 0
M  V30 7051 C 660.163 2.02294 -1.16616 0
M  V30 7052 C 661.144 1.6999 -0.0611175 0
M  V30 7053 O 662.329 1.9271 -0.240072 0
M  V30 7054 C 659.459 3.37018 -0.83882 0
M  V30 7055 C 658.413 3.83522 -1.89986 0
M  V30 7056 C 657.739 5.15337 -1.42589 0
M  V30 7057 C 659.039 4.04169 -3.30824 0
M  V30 7058 H 660.733 2.13071 -2.10336 0
M  V30 7059 H 658.279 1.02378 -1.01266 0
M  V30 7060 H 660.232 4.14895 -0.737584 0
M  V30 7061 H 658.956 3.26325 0.134071 0
M  V30 7062 H 657.615 3.07859 -1.99043 0
M  V30 7063 H 657.263 5.01056 -0.441759 0
M  V30 7064 H 656.963 5.47423 -2.13547 0
M  V30 7065 H 658.487 5.95758 -1.3381 0
M  V30 7066 H 659.901 4.72537 -3.24626 0
M  V30 7067 H 658.298 4.47604 -3.99713 0
M  V30 7068 H 659.368 3.08604 -3.74021 0
M  V30 7069 N 660.711 1.11618 1.11262 0
M  V30 7070 C 661.643 0.734015 2.17129 0
M  V30 7071 C 662.656 -0.235243 1.61091 0
M  V30 7072 O 663.845 -0.0178597 1.78491 0
M  V30 7073 C 660.945 0.0643682 3.38839 0
M  V30 7074 C 660.118 1.06092 4.24339 0
M  V30 7075 C 659.177 0.420482 5.24517 0
M  V30 7076 O 658.203 1.07495 5.58957 0
M  V30 7077 N 659.405 -0.815828 5.74739 0
M  V30 7078 H 662.17 1.64492 2.50524 0
M  V30 7079 H 659.731 1.00664 1.26801 0
M  V30 7080 H 661.723 -0.375851 4.02951 0
M  V30 7081 H 660.293 -0.749147 3.03491 0
M  V30 7082 H 659.513 1.67903 3.56654 0
M  V30 7083 H 660.801 1.73507 4.78302 0
M  V30 7084 H 660.199 -1.36668 5.48943 0
M  V30 7085 H 658.756 -1.199 6.40677 0
M  V30 7086 N 662.189 -1.289 0.906776 0
M  V30 7087 C 663.419 -1.99112 0.551168 0
M  V30 7088 C 663.827 -1.67998 -0.870243 0
M  V30 7089 O 663.17 -0.92525 -1.58697 0
M  V30 7090 C 663.232 -3.53162 0.672065 0
M  V30 7091 C 662.896 -4.07849 2.06174 0
M  V30 7092 C 663.893 -4.22212 3.0337 0
M  V30 7093 C 661.578 -4.4271 2.37304 0
M  V30 7094 C 663.572 -4.70678 4.29815 0
M  V30 7095 C 661.259 -4.90871 3.6399 0
M  V30 7096 C 662.257 -5.04811 4.6006 0
M  V30 7097 O 661.945 -5.51925 5.84495 0
M  V30 7098 H 661.677 -0.642728 0.209469 0
M  V30 7099 H 664.231 -1.65234 1.22012 0
M  V30 7100 H 662.461 -3.86662 -0.05394 0
M  V30 7101 H 664.15 -4.046 0.324579 0
M  V30 7102 H 664.916 -3.9556 2.80637 0
M  V30 7103 H 660.795 -4.31114 1.63283 0
M  V30 7104 H 664.339 -4.81474 5.04806 0
M  V30 7105 H 660.236 -5.16961 3.86551 0
M  V30 7106 H 661.004 -5.70225 5.87185 0
M  V30 7107 N 663.667 -0.670007 -1.42649 0
M  V30 7108 C 664.614 0.0112928 -2.30797 0
M  V30 7109 C 665.584 0.797627 -1.45695 0
M  V30 7110 O 666.769 0.770845 -1.74535 0
M  V30 7111 C 663.909 0.95998 -3.31479 0
M  V30 7112 C 663.022 0.167975 -4.31673 0
M  V30 7113 C 662.157 1.11198 -5.19431 0
M  V30 7114 C 661.196 0.311381 -6.11307 0
M  V30 7115 N 660.333 1.20784 -6.91633 0
M  V30 7116 H 665.173 -0.746231 -2.88505 0
M  V30 7117 H 662.71 -0.379739 -1.42114 0
M  V30 7118 H 664.668 1.52379 -3.88377 0
M  V30 7119 H 663.298 1.68419 -2.75382 0
M  V30 7120 H 662.35 -0.512385 -3.76933 0
M  V30 7121 H 663.662 -0.453814 -4.96731 0
M  V30 7122 H 662.816 1.74587 -5.81037 0
M  V30 7123 H 661.555 1.76766 -4.54538 0
M  V30 7124 H 660.56 -0.335758 -5.48774 0
M  V30 7125 H 661.785 -0.340135 -6.78248 0
M  V30 7126 H 659.731 1.85001 -6.29373 0
M  V30 7127 H 659.648 0.64102 -7.53277 0
M  V30 7128 H 660.916 1.82936 -7.5773 0
M  V30 7129 N 665.145 1.52092 -0.413018 0
M  V30 7130 C 666.077 2.24819 0.445994 0
M  V30 7131 C 667.09 1.27925 1.00692 0
M  V30 7132 O 668.279 1.53845 0.905204 0
M  V30 7133 C 665.379 2.96951 1.6332 0
M  V30 7134 C 664.552 4.20746 1.19548 0
M  V30 7135 C 663.611 4.75668 2.25003 0
M  V30 7136 O 662.637 5.38148 1.85434 0
M  V30 7137 N 663.839 4.57579 3.57214 0
M  V30 7138 H 666.604 2.99176 -0.177209 0
M  V30 7139 H 664.165 1.60102 -0.240601 0
M  V30 7140 H 666.157 3.30586 2.33441 0
M  V30 7141 H 664.727 2.25756 2.16225 0
M  V30 7142 H 663.947 3.92881 0.32224 0
M  V30 7143 H 665.235 5.01132 0.880033 0
M  V30 7144 H 664.633 4.07758 3.92109 0
M  V30 7145 H 663.19 4.95642 4.23299 0
M  V30 7146 N 666.623 0.143563 1.56945 0
M  V30 7147 C 667.571 -0.814556 2.17871 0
M  V30 7148 C 668.565 -1.25778 1.13474 0
M  V30 7149 O 669.771 -1.22666 1.31731 0
M  V30 7150 H 666.146 -0.280873 0.697578 0
M  V30 7151 H 668.117 -0.276459 2.97117 0
M  V30 7152 C 666.866 -2.04503 2.81201 0
M  V30 7153 H 666.189 -1.71296 3.61245 0
M  V30 7154 H 667.629 -2.69493 3.27337 0
M  V30 7155 C 666.088 -2.85079 1.79532 0
M  V30 7156 O 666.618 -3.81306 1.26368 0
M  V30 7157 N 664.824 -2.49546 1.48913 0
M  V30 7158 H 664.371 -1.71359 1.92338 0
M  V30 7159 H 664.329 -3.03751 0.811348 0
M  V30 7160 N 668.101 -1.57061 -0.130224 0
M  V30 7161 C 669.349 -1.83893 -0.838313 0
M  V30 7162 C 669.67 -0.727046 -1.80939 0
M  V30 7163 O 668.94 0.249927 -1.94299 0
M  V30 7164 H 667.52 -0.67846 -0.312573 0
M  V30 7165 H 670.182 -1.94529 -0.120224 0
M  V30 7166 H 669.278 -2.79419 -1.39038 0
M  V30 7167 N 669.579 0.400081 -1.52437 0
M  V30 7168 C 670.827 1.14392 -1.6661 0
M  V30 7169 C 671.148 1.90792 -0.402927 0
M  V30 7170 O 670.418 1.87042 0.582425 0
M  V30 7171 H 668.998 0.425275 -0.614125 0
M  V30 7172 H 671.66 0.455076 -1.89513 0
M  V30 7173 H 670.756 1.85298 -2.51139 0
M  V30 7174 N 671.057 1.43213 0.657864 0
M  V30 7175 C 671.987 1.50815 1.78262 0
M  V30 7176 C 672.968 0.363211 1.66177 0
M  V30 7177 O 674.153 0.579806 1.85343 0
M  V30 7178 C 671.283 1.42625 3.16663 0
M  V30 7179 C 670.237 2.5532 3.43505 0
M  V30 7180 C 669.563 2.32184 4.81658 0
M  V30 7181 C 670.863 3.97583 3.38711 0
M  V30 7182 H 672.557 2.44954 1.72157 0
M  V30 7183 H 670.103 1.17896 0.82683 0
M  V30 7184 H 672.056 1.46548 3.95097 0
M  V30 7185 H 670.78 0.449877 3.23487 0
M  V30 7186 H 669.439 2.50742 2.6744 0
M  V30 7187 H 669.087 1.32801 4.85153 0
M  V30 7188 H 668.787 3.07724 5.00579 0
M  V30 7189 H 670.311 2.37883 5.62356 0
M  V30 7190 H 671.725 4.03673 4.07089 0
M  V30 7191 H 670.122 4.73112 3.69168 0
M  V30 7192 H 671.192 4.23049 2.36976 0
M  V30 7193 N 672.536 -0.895792 1.29666 0
M  V30 7194 C 673.446 -2.03329 1.17024 0
M  V30 7195 C 674.462 -1.73753 0.0925962 0
M  V30 7196 O 675.638 -1.99071 0.305431 0
M  V30 7197 C 672.703 -3.36072 0.851841 0
M  V30 7198 C 671.764 -3.7914 2.01373 0
M  V30 7199 C 670.997 -5.05549 1.71043 0
M  V30 7200 O 671.22 -5.66874 0.633213 0
M  V30 7201 O 670.154 -5.44764 2.5596 0
M  V30 7202 H 673.98 -2.16918 2.12556 0
M  V30 7203 H 671.565 -1.02007 1.09156 0
M  V30 7204 H 673.447 -4.15729 0.689006 0
M  V30 7205 H 672.122 -3.23616 -0.0736634 0
M  V30 7206 H 671.029 -3.00233 2.23183 0
M  V30 7207 H 672.362 -3.96186 2.92058 0
M  V30 7208 N 674.014 -1.12206 -1.10668 0
M  V30 7209 C 675.291 -0.787382 -1.79052 0
M  V30 7210 C 675.671 0.723267 -1.98323 0
M  V30 7211 O 675.019 1.6561 -1.57434 0
M  V30 7212 C 675.229 -1.55968 -3.1221 0
M  V30 7213 C 676.577 -1.74413 -3.87125 0
M  V30 7214 O 677.601 -1.5246 -3.21923 0
M  V30 7215 O 676.46 -2.10952 -5.04144 0
M  V30 7216 H 673.554 -0.286137 -0.775922 0
M  V30 7217 H 676.1 -1.22595 -1.1734 0
M  V30 7218 H 674.872 -2.58692 -2.93588 0
M  V30 7219 H 674.495 -1.1152 -3.8164 0
M  V30 7220 N 675.492 1.28418 -0.913599 0
M  V30 7221 C 676.717 1.99643 -0.561899 0
M  V30 7222 C 677.142 1.67819 0.849608 0
M  V30 7223 O 676.5 0.910503 1.56779 0
M  V30 7224 C 676.548 3.52116 -0.777622 0
M  V30 7225 O 675.652 4.12076 0.163457 0
M  V30 7226 H 674.993 0.627229 -0.217898 0
M  V30 7227 H 677.523 1.63575 -1.229 0
M  V30 7228 H 677.533 4.02163 -0.687666 0
M  V30 7229 H 676.208 3.74613 -1.8066 0
M  V30 7230 H 674.785 3.72892 0.0247827 0
M  V30 7231 N 676.97 0.677563 1.42291 0
M  V30 7232 C 678.218 0.200578 2.01102 0
M  V30 7233 C 678.539 -1.19803 1.53858 0
M  V30 7234 O 677.809 -1.80496 0.761439 0
M  V30 7235 H 676.389 0.0711634 0.743603 0
M  V30 7236 H 679.051 0.874691 1.7417 0
M  V30 7237 H 678.147 0.204 3.11433 0
M  V30 7238 N 678.448 -1.51871 0.421078 0
M  V30 7239 C 679.673 -2.0684 -0.152371 0
M  V30 7240 C 680.098 -1.28802 -1.37083 0
M  V30 7241 O 679.456 -0.321482 -1.78427 0
M  V30 7242 C 679.504 -3.57532 -0.469368 0
M  V30 7243 O 678.608 -3.81818 -1.55848 0
M  V30 7244 H 677.949 -0.663939 -0.00898586 0
M  V30 7245 H 680.479 -1.95674 0.597724 0
M  V30 7246 H 680.489 -4.01515 -0.724553 0
M  V30 7247 H 679.164 -4.13761 0.421276 0
M  V30 7248 H 677.741 -3.49709 -1.29453 0
M  V30 7249 N 679.926 -0.151884 -1.56866 0
M  V30 7250 C 681.174 0.497021 -1.95893 0
M  V30 7251 C 681.495 1.65078 -1.03799 0
M  V30 7252 O 680.765 1.95642 -0.10049 0
M  V30 7253 H 679.345 0.186603 -0.723318 0
M  V30 7254 H 682.007 -0.228525 -1.93556 0
M  V30 7255 H 681.103 0.869933 -2.99731 0
M  V30 7256 N 681.404 1.57128 0.121893 0
M  V30 7257 C 682.314 2.03425 1.16857 0
M  V30 7258 C 683.33 0.954108 1.45509 0
M  V30 7259 O 684.506 1.26541 1.56682 0
M  V30 7260 C 681.571 2.42685 2.47599 0
M  V30 7261 C 680.632 3.64767 2.2637 0
M  V30 7262 C 679.865 4.02145 3.50878 0
M  V30 7263 O 680.088 3.39897 4.58068 0
M  V30 7264 O 679.022 4.95262 3.42051 0
M  V30 7265 H 682.848 2.92825 0.80544 0
M  V30 7266 H 680.433 1.45654 0.332477 0
M  V30 7267 H 682.315 2.68684 3.24634 0
M  V30 7268 H 680.99 1.56432 2.83392 0
M  V30 7269 H 679.897 3.43922 1.47203 0
M  V30 7270 H 681.23 4.51716 1.95482 0
M  V30 7271 N 682.882 -0.391992 1.52647 0
M  V30 7272 C 683.792 -1.503 1.80131 0
M  V30 7273 C 684.808 -1.59825 0.687882 0
M  V30 7274 O 685.984 -1.76218 0.975149 0
M  V30 7275 C 683.049 -2.85863 1.96171 0
M  V30 7276 C 682.11 -2.86084 3.20085 0
M  V30 7277 C 681.343 -4.15181 3.35351 0
M  V30 7278 O 681.566 -5.09981 2.55491 0
M  V30 7279 O 680.5 -4.22603 4.28591 0
M  V30 7280 H 684.326 -1.30007 2.74466 0
M  V30 7281 H 681.911 -0.579539 1.37701 0
M  V30 7282 H 683.793 -3.66236 2.08445 0
M  V30 7283 H 682.468 -3.06189 1.05025 0
M  V30 7284 H 681.375 -2.04504 3.13256 0
M  V30 7285 H 682.708 -2.7071 4.11068 0
M  V30 7286 N 684.36 -1.4356 -0.65026 0
M  V30 7287 C 685.292 -1.44918 -1.77571 0
M  V30 7288 C 686.305 -0.344925 -1.59104 0
M  V30 7289 O 687.494 -0.609537 -1.6777 0
M  V30 7290 C 684.594 -1.24914 -3.15039 0
M  V30 7291 C 683.767 -2.48232 -3.60138 0
M  V30 7292 C 682.826 -2.23409 -4.76419 0
M  V30 7293 O 681.852 -2.9678 -4.85706 0
M  V30 7294 N 683.054 -1.25259 -5.66825 0
M  V30 7295 H 685.819 -2.41935 -1.76883 0
M  V30 7296 H 683.38 -1.38754 -0.834202 0
M  V30 7297 H 685.372 -1.06185 -3.90521 0
M  V30 7298 H 683.942 -0.363319 -3.10481 0
M  V30 7299 H 683.162 -2.82366 -2.75069 0
M  V30 7300 H 684.45 -3.30296 -3.87017 0
M  V30 7301 H 683.848 -0.646246 -5.61997 0
M  V30 7302 H 682.405 -1.12513 -6.42016 0
M  V30 7303 N 685.838 0.888903 -1.30139 0
M  V30 7304 C 686.801 1.97576 -1.16174 0
M  V30 7305 C 687.801 1.60525 -0.094086 0
M  V30 7306 O 688.991 1.70812 -0.341889 0
M  V30 7307 C 686.123 3.3188 -0.778983 0
M  V30 7308 H 687.316 2.11393 -2.12728 0
M  V30 7309 H 684.869 1.0748 -1.1348 0
M  V30 7310 H 685.604 3.23765 0.186225 0
M  V30 7311 H 685.389 3.60141 -1.55051 0
M  V30 7312 H 686.879 4.11612 -0.704631 0
M  V30 7313 N 687.317 1.12792 1.10072 0
M  V30 7314 C 688.247 0.821688 2.18565 0
M  V30 7315 C 689.228 -0.21612 1.68721 0
M  V30 7316 O 690.413 -0.0764932 1.94049 0
M  V30 7317 C 687.543 0.279624 3.46172 0
M  V30 7318 C 686.497 1.25092 4.09312 0
M  V30 7319 C 685.823 0.568916 5.31665 0
M  V30 7320 C 687.123 2.60699 4.52585 0
M  V30 7321 H 688.817 1.72888 2.44438 0
M  V30 7322 H 686.363 0.832702 1.17482 0
M  V30 7323 H 688.316 0.053099 4.21367 0
M  V30 7324 H 687.04 -0.662929 3.19801 0
M  V30 7325 H 685.699 1.46332 3.36129 0
M  V30 7326 H 685.347 -0.378898 5.01571 0
M  V30 7327 H 685.047 1.21687 5.74862 0
M  V30 7328 H 686.571 0.351517 6.09587 0
M  V30 7329 H 687.985 2.43465 5.19035 0
M  V30 7330 H 686.382 3.21608 5.06644 0
M  V30 7331 H 687.452 3.1886 3.65317 0
M  V30 7332 N 688.795 -1.27931 0.920396 0
M  V30 7333 C 690.035 -1.96459 0.564198 0
M  V30 7334 C 690.399 -1.70802 -0.876967 0
M  V30 7335 O 691.6 -2.32956 -1.34107 0
M  V30 7336 C 689.871 -3.46583 0.872641 0
M  V30 7337 S 691.43 -4.34343 0.623859 0
M  V30 7338 H 688.248 -0.679735 0.208523 0
M  V30 7339 H 690.85 -1.55319 1.18727 0
M  V30 7340 H 689.554 -3.62753 1.91933 0
M  V30 7341 H 689.085 -3.92677 0.238479 0
M  V30 7342 H 691.1 -4.93449 -0.521744 0
M  V30 7343 N 690.273 -0.685099 -1.4193 0
M  V30 7344 C 691.519 -0.211971 -2.01689 0
M  V30 7345 C 691.852 1.18189 -1.54094 0
M  V30 7346 O 691.127 1.79559 -0.747572 0
M  V30 7347 C 691.41 -0.258019 -3.59174 0
M  V30 7348 C 691.263 -1.68807 -4.16922 0
M  V30 7349 C 692.582 0.388044 -4.38386 0
M  V30 7350 H 689.701 -0.0784987 -0.732808 0
M  V30 7351 H 692.343 -0.871837 -1.68816 0
M  V30 7352 H 690.493 0.303832 -3.8731 0
M  V30 7353 H 692.165 -2.30296 -3.99702 0
M  V30 7354 H 690.408 -2.22553 -3.72361 0
M  V30 7355 H 691.079 -1.6719 -5.26072 0
M  V30 7356 H 693.555 -0.0903432 -4.16002 0
M  V30 7357 H 692.431 0.325232 -5.47936 0
M  V30 7358 H 692.692 1.4672 -4.17044 0
M  V30 7359 N 691.751 1.51645 -0.429126 0
M  V30 7360 C 693.167 1.59394 -0.080994 0
M  V30 7361 C 693.367 1.44064 1.40882 0
M  V30 7362 O 692.423 1.27771 2.17786 0
M  V30 7363 C 693.736 2.94779 -0.593773 0
M  V30 7364 C 695.284 3.08067 -0.553494 0
M  V30 7365 C 695.759 4.45963 -1.04311 0
M  V30 7366 N 697.25 4.5226 -1.00076 0
M  V30 7367 C 697.985 5.57268 -1.35056 0
M  V30 7368 N 697.481 6.69734 -1.77282 0
M  V30 7369 N 699.274 5.47582 -1.26925 0
M  V30 7370 H 691.425 1.59856 -1.39857 0
M  V30 7371 H 693.688 0.753095 -0.575805 0
M  V30 7372 H 693.394 3.11342 -1.63583 0
M  V30 7373 H 693.268 3.77197 -0.0142202 0
M  V30 7374 H 695.655 2.91177 0.479556 0
M  V30 7375 H 695.736 2.27508 -1.16935 0
M  V30 7376 H 695.38 4.63598 -2.07459 0
M  V30 7377 H 695.31 5.25049 -0.403873 0
M  V30 7378 H 697.801 3.71537 -0.690564 0
M  V30 7379 H 698.114 7.4587 -2.02232 0
M  V30 7380 H 696.459 6.70963 -1.81202 0
M  V30 7381 H 699.65 4.58604 -0.93809 0
M  V30 7382 H 699.823 6.29308 -1.54516 0
M  V30 7383 N 693.229 0.160201 1.56784 0
M  V30 7384 C 694.177 -0.791402 2.18723 0
M  V30 7385 C 695.171 -1.24567 1.14801 0
M  V30 7386 O 696.377 -1.21262 1.33025 0
M  V30 7387 H 692.752 -0.273458 0.700517 0
M  V30 7388 H 694.723 -0.244931 2.97393 0
M  V30 7389 C 693.472 -2.01509 2.83354 0
M  V30 7390 H 692.795 -1.67454 3.63041 0
M  V30 7391 H 694.235 -2.66006 3.30177 0
M  V30 7392 C 692.694 -2.83159 1.82545 0
M  V30 7393 O 693.224 -3.79944 1.30405 0
M  V30 7394 N 691.43 -2.47953 1.51552 0
M  V30 7395 H 690.977 -1.69309 1.94144 0
M  V30 7396 H 690.935 -3.02873 0.843519 0
M  V30 7397 N 694.707 -1.5719 -0.113559 0
M  V30 7398 C 696.123 -1.52607 -0.467253 0
M  V30 7399 C 696.323 -0.874058 -1.81556 0
M  V30 7400 O 695.379 -0.458703 -2.48299 0
M  V30 7401 C 696.692 -2.97363 -0.446736 0
M  V30 7402 C 698.24 -3.08482 -0.529903 0
M  V30 7403 C 698.715 -4.54809 -0.539721 0
M  V30 7404 N 700.206 -4.59284 -0.601005 0
M  V30 7405 C 700.941 -5.69927 -0.630138 0
M  V30 7406 N 700.437 -6.90051 -0.616589 0
M  V30 7407 N 702.23 -5.5805 -0.673558 0
M  V30 7408 H 694.381 -1.97958 0.769819 0
M  V30 7409 H 696.644 -0.90428 0.284572 0
M  V30 7410 H 696.35 -3.48458 0.47643 0
M  V30 7411 H 696.224 -3.55086 -1.27254 0
M  V30 7412 H 698.611 -2.57386 -1.44349 0
M  V30 7413 H 698.692 -2.53744 0.323695 0
M  V30 7414 H 698.336 -5.06552 0.369843 0
M  V30 7415 H 698.266 -5.07364 -1.41028 0
M  V30 7416 H 700.757 -3.72822 -0.617419 0
M  V30 7417 H 701.07 -7.70132 -0.641592 0
M  V30 7418 H 699.415 -6.92543 -0.583927 0
M  V30 7419 H 702.606 -4.63112 -0.681544 0
M  V30 7420 H 702.779 -6.44286 -0.692794 0
M  V30 7421 N 696.185 0.383891 -1.52853 0
M  V30 7422 C 697.41 1.154 -1.7233 0
M  V30 7423 C 697.835 1.82809 -0.44298 0
M  V30 7424 O 697.193 1.71026 0.601645 0
M  V30 7425 C 697.241 2.17386 -2.87708 0
M  V30 7426 O 696.345 3.24082 -2.55038 0
M  V30 7427 H 695.686 0.335709 -0.572883 0
M  V30 7428 H 698.216 0.44662 -1.99666 0
M  V30 7429 H 698.226 2.61296 -3.1335 0
M  V30 7430 H 696.901 1.6771 -3.80587 0
M  V30 7431 H 695.478 2.85273 -2.40153 0
M  V30 7432 N 697.663 1.43903 0.642637 0
M  V30 7433 C 698.626 1.49538 1.73698 0
M  V30 7434 C 699.626 0.378776 1.56275 0
M  V30 7435 O 700.816 0.64095 1.6198 0
M  V30 7436 C 697.948 1.35821 3.12675 0
M  V30 7437 H 699.141 2.47008 1.70079 0
M  V30 7438 H 696.694 1.30824 0.85526 0
M  V30 7439 H 697.429 0.393994 3.21898 0
M  V30 7440 H 697.214 2.16776 3.26727 0
M  V30 7441 H 698.704 1.4272 3.92455 0
M  V30 7442 N 699.141 -0.881989 1.30609 0
M  V30 7443 C 700.388 -1.63405 1.19604 0
M  V30 7444 C 700.716 -1.92905 -0.248574 0
M  V30 7445 O 699.971 -1.55062 -1.19391 0
M  V30 7446 C 700.27 -2.97999 1.97311 0
M  V30 7447 C 699.936 -2.88039 3.46907 0
M  V30 7448 C 698.598 -2.85029 3.877 0
M  V30 7449 C 700.95 -2.75948 4.42156 0
M  V30 7450 C 698.278 -2.67772 5.2203 0
M  V30 7451 C 700.63 -2.60228 5.76597 0
M  V30 7452 C 699.294 -2.55595 6.16626 0
M  V30 7453 H 698.564 -0.597941 0.437662 0
M  V30 7454 H 701.211 -1.02524 1.61744 0
M  V30 7455 H 699.516 -3.62847 1.47815 0
M  V30 7456 H 701.213 -3.55156 1.86186 0
M  V30 7457 H 697.803 -2.91192 3.14492 0
M  V30 7458 H 701.987 -2.77337 4.1158 0
M  V30 7459 H 697.243 -2.62601 5.52133 0
M  V30 7460 H 701.417 -2.49847 6.50038 0
M  V30 7461 H 699.044 -2.41981 7.20659 0
M  V30 7462 N 700.619 -1.13374 -1.09472 0
M  V30 7463 C 701.529 -0.824029 -2.19652 0
M  V30 7464 C 702.545 0.19118 -1.72947 0
M  V30 7465 O 703.721 0.0223464 -2.01388 0
M  V30 7466 C 700.786 -0.294009 -3.45451 0
M  V30 7467 C 699.847 -1.3704 -4.0684 0
M  V30 7468 C 699.08 -0.86558 -5.26634 0
M  V30 7469 O 699.303 0.29702 -5.69626 0
M  V30 7470 O 698.237 -1.63968 -5.79136 0
M  V30 7471 H 702.063 -1.74454 -2.48595 0
M  V30 7472 H 699.648 -0.911155 -1.18399 0
M  V30 7473 H 701.53 -0.00381039 -4.214 0
M  V30 7474 H 700.205 0.598921 -3.18111 0
M  V30 7475 H 699.112 -1.71391 -3.3253 0
M  V30 7476 H 700.445 -2.23746 -4.38405 0
M  V30 7477 N 702.098 1.27442 -0.927168 0
M  V30 7478 C 703.03 2.25975 -0.383158 0
M  V30 7479 C 704.043 1.55382 0.485832 0
M  V30 7480 O 705.232 1.75986 0.298541 0
M  V30 7481 C 702.332 3.35629 0.469688 0
M  V30 7482 C 701.505 4.35747 -0.379886 0
M  V30 7483 C 700.564 5.24598 0.410227 0
M  V30 7484 O 699.59 5.68909 -0.181888 0
M  V30 7485 N 700.792 5.54737 1.71017 0
M  V30 7486 H 703.557 2.7329 -1.23015 0
M  V30 7487 H 701.118 1.41063 -0.794539 0
M  V30 7488 H 703.11 3.92015 1.00532 0
M  V30 7489 H 701.68 2.87919 1.21744 0
M  V30 7490 H 700.9 3.78634 -1.09682 0
M  V30 7491 H 702.188 4.99648 -0.960717 0
M  V30 7492 H 701.586 5.20594 2.21356 0
M  V30 7493 H 700.143 6.13824 2.19234 0
M  V30 7494 N 703.576 0.692616 1.41565 0
M  V30 7495 C 704.508 -0.0137132 2.29196 0
M  V30 7496 C 705.521 -0.747417 1.44629 0
M  V30 7497 O 706.71 -0.598611 1.68163 0
M  V30 7498 C 703.81 -1.04347 3.22436 0
M  V30 7499 C 702.983 -0.379985 4.35746 0
M  V30 7500 C 702.042 -1.31195 5.09583 0
M  V30 7501 O 701.068 -0.805455 5.63472 0
M  V30 7502 N 702.27 -2.64443 5.16769 0
M  V30 7503 H 705.035 0.738614 2.90456 0
M  V30 7504 H 702.596 0.538415 1.52685 0
M  V30 7505 H 704.588 -1.6686 3.687 0
M  V30 7506 H 703.158 -1.69736 2.62504 0
M  V30 7507 H 702.378 0.424975 3.91903 0
M  V30 7508 H 703.666 0.0814904 5.08735 0
M  V30 7509 H 703.064 -3.08114 4.74428 0
M  V30 7510 H 701.621 -3.22159 5.66619 0
M  V30 7511 N 705.054 -1.51416 0.437162 0
M  V30 7512 C 706.004 -2.24599 -0.392311 0
M  V30 7513 C 706.988 -1.2682 -0.990221 0
M  V30 7514 O 708.18 -1.51912 -0.908391 0
M  V30 7515 C 705.309 -3.09134 -1.49301 0
M  V30 7516 C 704.395 -4.14342 -0.904503 0
M  V30 7517 N 704.786 -5.0578 -0.0451511 0
M  V30 7518 C 703.084 -4.30323 -1.1721 0
M  V30 7519 C 703.785 -5.81 0.285344 0
M  V30 7520 N 702.761 -5.42591 -0.330993 0
M  V30 7521 H 706.563 -2.92655 0.270221 0
M  V30 7522 H 704.077 -1.60476 0.249226 0
M  V30 7523 H 706.074 -3.6014 -2.10011 0
M  V30 7524 H 704.734 -2.42622 -2.15788 0
M  V30 7525 H 705.745 -5.16903 0.321271 0
M  V30 7526 H 702.422 -3.75037 -1.83448 0
M  V30 7527 H 703.812 -6.64646 0.984626 0
M  V30 7528 N 706.532 -0.168513 -1.56696 0
M  V30 7529 C 707.482 0.7751 -2.14421 0
M  V30 7530 C 708.466 1.19476 -1.07769 0
M  V30 7531 O 709.658 1.15759 -1.33898 0
M  V30 7532 C 706.787 2.00549 -2.7863 0
M  V30 7533 C 705.873 1.60795 -3.92436 0
M  V30 7534 N 706.264 0.919812 -4.97366 0
M  V30 7535 C 704.562 1.89917 -4.03544 0
M  V30 7536 C 705.263 0.724485 -5.77171 0
M  V30 7537 N 704.239 1.26505 -5.28675 0
M  V30 7538 H 708.041 0.240349 -2.92916 0
M  V30 7539 H 705.555 0.0322675 -1.62368 0
M  V30 7540 H 707.552 2.6917 -3.1836 0
M  V30 7541 H 706.212 2.54522 -2.01615 0
M  V30 7542 H 707.223 0.578169 -5.14663 0
M  V30 7543 H 703.9 2.45587 -3.37629 0
M  V30 7544 H 705.29 0.180521 -6.71657 0
M  V30 7545 N 708.01 1.57248 0.105221 0
M  V30 7546 C 708.96 1.9777 1.1345 0
M  V30 7547 C 709.944 0.854654 1.36325 0
M  V30 7548 O 711.136 1.11844 1.37186 0
M  V30 7549 C 708.265 2.39717 2.45745 0
M  V30 7550 C 707.351 3.58686 2.26286 0
M  V30 7551 N 707.742 4.73942 1.76671 0
M  V30 7552 C 706.04 3.64586 2.56891 0
M  V30 7553 C 706.741 5.55923 1.71245 0
M  V30 7554 N 705.717 4.98803 2.16093 0
M  V30 7555 H 709.519 2.84336 0.743664 0
M  V30 7556 H 707.033 1.59359 0.312787 0
M  V30 7557 H 709.03 2.66971 3.20206 0
M  V30 7558 H 707.69 1.54523 2.85574 0
M  V30 7559 H 708.701 4.9689 1.46016 0
M  V30 7560 H 705.378 2.90031 3.00314 0
M  V30 7561 H 706.768 6.58398 1.34022 0
M  V30 7562 N 709.488 -0.375779 1.53054 0
M  V30 7563 C 710.418 -1.46598 1.81745 0
M  V30 7564 C 711.399 -1.56337 0.670286 0
M  V30 7565 O 712.584 -1.71071 0.919158 0
M  V30 7566 C 709.714 -2.84058 1.99821 0
M  V30 7567 C 708.668 -2.8915 3.15557 0
M  V30 7568 C 707.994 -4.29187 3.18908 0
M  V30 7569 C 709.294 -2.57595 4.54359 0
M  V30 7570 H 710.988 -1.22837 2.73041 0
M  V30 7571 H 708.534 -0.589485 1.31381 0
M  V30 7572 H 710.487 -3.60342 2.18475 0
M  V30 7573 H 709.211 -3.09184 1.05226 0
M  V30 7574 H 707.87 -2.15316 2.96706 0
M  V30 7575 H 707.518 -4.51374 2.2197 0
M  V30 7576 H 707.218 -4.33512 3.96662 0
M  V30 7577 H 708.742 -5.07359 3.39734 0
M  V30 7578 H 710.156 -3.23595 4.73243 0
M  V30 7579 H 708.553 -2.73252 5.34279 0
M  V30 7580 H 709.623 -1.52882 4.60169 0
M  V30 7581 N 710.966 -1.44241 -0.634997 0
M  V30 7582 C 711.896 -1.53632 -1.7584 0
M  V30 7583 C 712.877 -0.389603 -1.65578 0
M  V30 7584 O 714.062 -0.609219 -1.84397 0
M  V30 7585 C 711.192 -1.47644 -3.14354 0
M  V30 7586 C 710.146 -2.60752 -3.394 0
M  V30 7587 C 709.472 -2.39817 -4.77904 0
M  V30 7588 C 710.772 -4.02921 -3.32343 0
M  V30 7589 H 712.466 -2.47662 -1.68238 0
M  V30 7590 H 710.012 -1.19197 -0.807969 0
M  V30 7591 H 711.965 -1.52815 -3.92716 0
M  V30 7592 H 710.689 -0.501284 -3.2273 0
M  V30 7593 H 709.348 -2.54965 -2.63417 0
M  V30 7594 H 708.996 -1.40502 -4.82978 0
M  V30 7595 H 708.696 -3.15649 -4.9562 0
M  V30 7596 H 710.22 -2.46799 -5.585 0
M  V30 7597 H 711.634 -4.10098 -4.00615 0
M  V30 7598 H 710.031 -4.78925 -3.61595 0
M  V30 7599 H 711.101 -4.26766 -2.30215 0
M  V30 7600 N 712.444 0.87505 -1.31075 0
M  V30 7601 C 713.394 1.96933 -1.14898 0
M  V30 7602 C 714.378 1.60783 -0.0613703 0
M  V30 7603 O 715.57 1.74678 -0.285751 0
M  V30 7604 C 712.699 3.3253 -0.853166 0
M  V30 7605 C 711.785 3.74963 -1.98151 0
M  V30 7606 N 712.176 3.89403 -3.22799 0
M  V30 7607 C 710.474 4.04436 -1.8801 0
M  V30 7608 C 711.175 4.25563 -3.96574 0
M  V30 7609 N 710.151 4.3597 -3.24701 0
M  V30 7610 H 713.953 2.06201 -2.09424 0
M  V30 7611 H 711.467 1.06551 -1.22558 0
M  V30 7612 H 713.464 4.10666 -0.718266 0
M  V30 7613 H 712.124 3.24592 0.0839218 0
M  V30 7614 H 713.135 3.74266 -3.57974 0
M  V30 7615 H 709.812 4.04915 -1.01733 0
M  V30 7616 H 711.202 4.44375 -5.03965 0
M  V30 7617 N 713.922 1.13953 1.08869 0
M  V30 7618 C 715.162 0.915128 1.8277 0
M  V30 7619 C 715.526 -0.548647 1.83994 0
M  V30 7620 O 716.727 -0.890817 2.5361 0
M  V30 7621 C 714.998 1.49382 3.24684 0
M  V30 7622 S 716.557 1.4103 4.15519 0
M  V30 7623 H 713.375 0.329716 0.629927 0
M  V30 7624 H 715.977 1.45213 1.30895 0
M  V30 7625 H 714.681 2.55241 3.21372 0
M  V30 7626 H 714.212 0.955008 3.81632 0
M  V30 7627 H 716.227 0.392617 4.94644 0
M  V30 7628 N 715.4 -1.26948 0.933913 0
M  V30 7629 C 716.33 -2.29017 0.45534 0
M  V30 7630 C 717.311 -1.62961 -0.487605 0
M  V30 7631 O 718.496 -1.90223 -0.391022 0
M  V30 7632 C 715.626 -3.46112 -0.287015 0
M  V30 7633 C 714.58 -4.24205 0.568682 0
M  V30 7634 C 713.906 -5.3384 -0.303206 0
M  V30 7635 C 715.206 -4.88954 1.83633 0
M  V30 7636 H 716.9 -2.69298 1.30839 0
M  V30 7637 H 714.446 -1.29459 0.630579 0
M  V30 7638 H 716.399 -4.16622 -0.6328 0
M  V30 7639 H 715.123 -3.04765 -1.17414 0
M  V30 7640 H 713.782 -3.5545 0.897261 0
M  V30 7641 H 713.43 -4.88734 -1.18947 0
M  V30 7642 H 713.13 -5.86998 0.265879 0
M  V30 7643 H 714.654 -6.0719 -0.644423 0
M  V30 7644 H 716.068 -5.51717 1.55823 0
M  V30 7645 H 714.465 -5.52198 2.34941 0
M  V30 7646 H 715.535 -4.12305 2.55211 0
M  V30 7647 N 716.879 -0.700114 -1.41195 0
M  V30 7648 C 717.789 -0.0382854 -2.34569 0
M  V30 7649 C 718.805 0.761036 -1.56474 0
M  V30 7650 O 719.981 0.697553 -1.88934 0
M  V30 7651 C 717.046 0.883522 -3.35253 0
M  V30 7652 C 716.107 0.0758957 -4.29233 0
M  V30 7653 C 715.34 0.9538 -5.25108 0
M  V30 7654 O 715.563 2.19326 -5.26547 0
M  V30 7655 O 714.497 0.401049 -6.00562 0
M  V30 7656 H 718.323 -0.808073 -2.92752 0
M  V30 7657 H 715.908 -0.460479 -1.42127 0
M  V30 7658 H 717.79 1.41199 -3.9704 0
M  V30 7659 H 716.465 1.63272 -2.79506 0
M  V30 7660 H 715.372 -0.497274 -3.7078 0
M  V30 7661 H 716.705 -0.634741 -4.8809 0
M  V30 7662 N 718.357 1.51182 -0.445186 0
M  V30 7663 C 719.304 2.27939 0.362291 0
M  V30 7664 C 720.274 1.31864 1.01 0
M  V30 7665 O 721.459 1.60776 1.02741 0
M  V30 7666 C 718.599 3.13016 1.45311 0
M  V30 7667 C 717.712 4.24093 0.822757 0
M  V30 7668 C 716.847 4.96467 1.88928 0
M  V30 7669 C 715.886 5.99454 1.23778 0
M  V30 7670 N 715.023 6.65206 2.24602 0
M  V30 7671 H 719.863 2.965 -0.29862 0
M  V30 7672 H 717.4 1.46237 -0.15911 0
M  V30 7673 H 719.358 3.60673 2.09692 0
M  V30 7674 H 717.988 2.46553 2.08354 0
M  V30 7675 H 717.04 3.80341 0.0670364 0
M  V30 7676 H 718.352 4.97853 0.307184 0
M  V30 7677 H 717.506 5.47712 2.60953 0
M  V30 7678 H 716.245 4.22355 2.4386 0
M  V30 7679 H 715.25 5.47494 0.503042 0
M  V30 7680 H 716.475 6.75527 0.695694 0
M  V30 7681 H 714.421 5.93901 2.78599 0
M  V30 7682 H 714.338 7.34756 1.77958 0
M  V30 7683 H 715.606 7.21078 2.96085 0
M  V30 7684 N 719.835 0.176821 1.56605 0
M  V30 7685 C 721.063 -0.472828 2.01425 0
M  V30 7686 C 721.478 -1.56436 1.05703 0
M  V30 7687 O 720.835 -1.82405 0.058808 0
M  V30 7688 C 720.886 -1.04607 3.46034 0
M  V30 7689 O 720.607 0.00189608 4.381 0
M  V30 7690 C 722.108 -1.7734 4.06282 0
M  V30 7691 H 719.328 -0.120503 0.660091 0
M  V30 7692 H 721.872 0.280166 2.02572 0
M  V30 7693 H 720.027 -1.74953 3.45645 0
M  V30 7694 H 720.441 -0.422118 5.22799 0
M  V30 7695 H 721.915 -2.12703 5.09374 0
M  V30 7696 H 722.392 -2.67043 3.4869 0
M  V30 7697 H 722.998 -1.11623 4.10391 0
M  V30 7698 N 721.313 -1.57302 -0.09688 0
M  V30 7699 C 722.541 -1.90202 -0.814295 0
M  V30 7700 C 722.956 -0.770344 -1.72369 0
M  V30 7701 O 722.313 0.257764 -1.8067 0
M  V30 7702 C 722.364 -3.22708 -1.62916 0
M  V30 7703 O 722.085 -4.31522 -0.756343 0
M  V30 7704 C 723.586 -3.69459 -2.44979 0
M  V30 7705 H 720.806 -0.629275 -0.232925 0
M  V30 7706 H 723.35 -2.04364 -0.0746482 0
M  V30 7707 H 721.505 -3.1015 -2.32133 0
M  V30 7708 H 721.919 -5.07604 -1.32054 0
M  V30 7709 H 723.393 -4.64875 -2.9765 0
M  V30 7710 H 723.87 -2.97211 -3.23361 0
M  V30 7711 H 724.476 -3.84879 -1.80964 0
M  V30 7712 N 722.791 0.367657 -1.53252 0
M  V30 7713 C 724.031 1.11923 -1.71034 0
M  V30 7714 C 724.395 1.86618 -0.45143 0
M  V30 7715 O 725.596 2.63996 -0.505915 0
M  V30 7716 C 723.867 2.05461 -2.92439 0
M  V30 7717 S 725.426 2.88167 -3.30916 0
M  V30 7718 H 722.244 0.378549 -0.601848 0
M  V30 7719 H 724.846 0.400757 -1.91348 0
M  V30 7720 H 723.55 1.49346 -3.82262 0
M  V30 7721 H 723.081 2.81784 -2.7452 0
M  V30 7722 H 725.096 4.07746 -2.82767 0
M  V30 7723 N 724.269 1.44576 0.627338 0
M  V30 7724 C 725.219 1.48168 1.73293 0
M  V30 7725 C 726.203 0.347045 1.57113 0
M  V30 7726 O 727.395 0.592605 1.66785 0
M  V30 7727 C 724.524 1.43236 3.11991 0
M  V30 7728 C 723.61 2.61828 3.33627 0
M  V30 7729 N 724.001 3.87053 3.25612 0
M  V30 7730 C 722.299 2.57104 3.64436 0
M  V30 7731 C 723 4.66093 3.48041 0
M  V30 7732 N 721.976 3.97228 3.71095 0
M  V30 7733 H 725.778 2.42832 1.6556 0
M  V30 7734 H 723.292 1.39592 0.829934 0
M  V30 7735 H 725.289 1.43893 3.91281 0
M  V30 7736 H 723.949 0.496133 3.20887 0
M  V30 7737 H 724.96 4.18966 3.04447 0
M  V30 7738 H 721.637 1.72295 3.8029 0
M  V30 7739 H 723.027 5.75117 3.47404 0
M  V30 7740 N 725.747 -0.868086 1.31537 0
M  V30 7741 C 726.657 -2.00801 1.21311 0
M  V30 7742 C 727.673 -1.73518 0.129431 0
M  V30 7743 O 728.849 -1.98378 0.347588 0
M  V30 7744 C 725.914 -3.3419 0.922935 0
M  V30 7745 C 724.975 -3.74783 2.0937 0
M  V30 7746 C 724.208 -5.01807 1.81728 0
M  V30 7747 O 724.431 -5.65404 0.753313 0
M  V30 7748 O 723.365 -5.39213 2.67457 0
M  V30 7749 H 727.191 -2.12361 2.17109 0
M  V30 7750 H 724.776 -0.996684 1.11295 0
M  V30 7751 H 726.658 -4.14174 0.777033 0
M  V30 7752 H 725.333 -3.237 -0.00500301 0
M  V30 7753 H 724.24 -2.95432 2.29501 0
M  V30 7754 H 725.573 -3.89902 3.00396 0
M  V30 7755 N 727.225 -1.14528 -1.08264 0
M  V30 7756 C 728.472 -0.914405 -1.80679 0
M  V30 7757 C 728.8 0.558952 -1.86295 0
M  V30 7758 O 728.055 1.43017 -1.33584 0
M  V30 7759 C 728.354 -1.46226 -3.26117 0
M  V30 7760 C 728.02 -2.95451 -3.40616 0
M  V30 7761 C 726.682 -3.36191 -3.4428 0
M  V30 7762 C 729.034 -3.91399 -3.44175 0
M  V30 7763 C 726.362 -4.71539 -3.49096 0
M  V30 7764 C 728.714 -5.26606 -3.50526 0
M  V30 7765 C 727.378 -5.66856 -3.52464 0
M  V30 7766 H 726.648 -0.334604 -0.661151 0
M  V30 7767 H 729.295 -1.4292 -1.27461 0
M  V30 7768 H 727.6 -0.868442 -3.82054 0
M  V30 7769 H 729.297 -1.25955 -3.80705 0
M  V30 7770 H 725.887 -2.62955 -3.38456 0
M  V30 7771 H 730.071 -3.61004 -3.40573 0
M  V30 7772 H 725.327 -5.02082 -3.4889 0
M  V30 7773 H 729.501 -6.00758 -3.52225 0
M  V30 7774 H 727.128 -6.71718 -3.55948 0
M  V30 7775 N 728.703 1.26451 -0.940633 0
M  V30 7776 C 729.931 1.97868 -0.604642 0
M  V30 7777 C 730.346 1.70051 0.820251 0
M  V30 7778 O 729.703 0.96843 1.54686 0
M  V30 7779 C 729.754 3.51684 -0.836689 0
M  V30 7780 O 729.475 3.78533 -2.20554 0
M  V30 7781 C 730.976 4.40343 -0.511169 0
M  V30 7782 H 728.196 0.631105 -0.227919 0
M  V30 7783 H 730.74 1.60979 -1.26119 0
M  V30 7784 H 728.895 3.86736 -0.226759 0
M  V30 7785 H 729.309 4.73065 -2.26517 0
M  V30 7786 H 730.783 5.47229 -0.724157 0
M  V30 7787 H 731.26 4.35694 0.553815 0
M  V30 7788 H 731.866 4.10834 -1.0998 0
M  V30 7789 N 730.181 0.707592 1.40822 0
M  V30 7790 C 731.458 0.171172 1.9485 0
M  V30 7791 C 731.838 -1.32143 1.64625 0
M  V30 7792 O 731.186 -2.07372 0.959647 0
M  V30 7793 C 731.396 0.475334 3.45748 0
M  V30 7794 C 732.744 0.409625 4.22619 0
M  V30 7795 O 733.768 0.410934 3.53822 0
M  V30 7796 O 732.627 0.380185 5.45176 0
M  V30 7797 H 729.721 0.022015 0.826707 0
M  V30 7798 H 732.267 0.784577 1.50474 0
M  V30 7799 H 731.039 1.50801 3.61075 0
M  V30 7800 H 730.662 -0.168439 3.97243 0
M  V30 7801 N 731.66 -1.50943 0.453197 0
M  V30 7802 C 732.57 -2.31884 -0.355963 0
M  V30 7803 C 733.586 -1.41481 -1.01287 0
M  V30 7804 O 734.762 -1.74546 -1.00477 0
M  V30 7805 C 731.827 -3.15668 -1.43369 0
M  V30 7806 C 730.888 -4.2187 -0.795253 0
M  V30 7807 C 730.121 -5.0165 -1.82162 0
M  V30 7808 O 730.344 -4.82266 -3.04592 0
M  V30 7809 O 729.278 -5.85311 -1.40336 0
M  V30 7810 H 733.104 -3.02162 0.305248 0
M  V30 7811 H 730.689 -1.47839 0.215398 0
M  V30 7812 H 732.571 -3.67709 -2.05836 0
M  V30 7813 H 731.246 -2.48137 -2.07869 0
M  V30 7814 H 730.153 -3.73867 -0.132106 0
M  V30 7815 H 731.486 -4.9182 -0.193484 0
M  V30 7816 N 733.138 -0.185124 -1.56509 0
M  V30 7817 C 734.068 0.735098 -2.21627 0
M  V30 7818 C 735.049 1.2288 -1.1762 0
M  V30 7819 O 736.234 1.27945 -1.46095 0
M  V30 7820 C 733.364 1.95889 -2.86783 0
M  V30 7821 C 732.318 1.6005 -3.96948 0
M  V30 7822 C 731.644 2.90009 -4.4922 0
M  V30 7823 C 732.944 0.818008 -5.15855 0
M  V30 7824 H 734.638 0.192274 -2.98782 0
M  V30 7825 H 732.184 0.0910393 -1.43712 0
M  V30 7826 H 734.137 2.60779 -3.31017 0
M  V30 7827 H 732.861 2.52608 -2.07018 0
M  V30 7828 H 731.52 0.975237 -3.5339 0
M  V30 7829 H 731.168 3.44797 -3.6623 0
M  V30 7830 H 730.868 2.66778 -5.23549 0
M  V30 7831 H 732.392 3.55904 -4.9615 0
M  V30 7832 H 733.806 1.36979 -5.56695 0
M  V30 7833 H 732.203 0.684207 -5.96187 0
M  V30 7834 H 733.273 -0.182939 -4.84555 0
M  V30 7835 N 734.616 1.57351 0.0885366 0
M  V30 7836 C 735.844 1.90631 0.804196 0
M  V30 7837 C 736.259 0.779474 1.71958 0
M  V30 7838 O 735.616 -0.248179 1.80805 0
M  V30 7839 C 735.667 3.23568 1.61202 0
M  V30 7840 O 735.388 4.31917 0.733447 0
M  V30 7841 C 736.889 3.70753 2.43016 0
M  V30 7842 H 734.109 0.630501 0.229585 0
M  V30 7843 H 736.653 2.044 0.0638092 0
M  V30 7844 H 734.808 3.11377 2.30485 0
M  V30 7845 H 735.222 5.08297 1.29361 0
M  V30 7846 H 736.696 4.66447 2.9518 0
M  V30 7847 H 737.173 2.98922 3.2178 0
M  V30 7848 H 737.779 3.85834 1.7892 0
M  V30 7849 N 736.094 -0.359525 1.53444 0
M  V30 7850 C 737.341 -1.10152 1.6992 0
M  V30 7851 C 737.669 -1.89125 0.4541 0
M  V30 7852 O 736.924 -1.87396 -0.564023 0
M  V30 7853 C 737.223 -2.08287 2.90433 0
M  V30 7854 C 736.889 -1.45749 4.26694 0
M  V30 7855 C 735.551 -1.28421 4.63747 0
M  V30 7856 C 737.903 -1.00557 5.11408 0
M  V30 7857 C 735.231 -0.644951 5.83144 0
M  V30 7858 C 737.583 -0.380288 6.31456 0
M  V30 7859 C 736.247 -0.194557 6.67216 0
M  V30 7860 H 735.517 -0.403076 0.621781 0
M  V30 7861 H 738.164 -0.382612 1.87639 0
M  V30 7862 H 736.469 -2.86503 2.67251 0
M  V30 7863 H 738.166 -2.65662 3.00374 0
M  V30 7864 H 734.756 -1.6023 3.97523 0
M  V30 7865 H 738.94 -1.12735 4.83326 0
M  V30 7866 H 734.196 -0.48952 6.09437 0
M  V30 7867 H 738.37 -0.0219455 6.96397 0
M  V30 7868 H 735.997 0.30285 7.59597 0
M  V30 7869 N 737.572 -1.44907 -0.619662 0
M  V30 7870 C 738.797 -1.52021 -1.41083 0
M  V30 7871 C 739.222 -0.14976 -1.87503 0
M  V30 7872 O 738.58 0.863303 -1.59426 0
M  V30 7873 C 738.628 -2.49911 -2.59955 0
M  V30 7874 O 737.732 -2.00857 -3.60181 0
M  V30 7875 H 737.073 -0.512912 -0.421684 0
M  V30 7876 H 739.603 -1.90149 -0.755282 0
M  V30 7877 H 739.613 -2.68323 -3.07354 0
M  V30 7878 H 738.288 -3.4945 -2.25516 0
M  V30 7879 H 736.865 -1.92265 -3.19513 0
M  V30 7880 N 739.05 0.861098 -1.31996 0
M  V30 7881 C 739.96 2.00154 -1.22374 0
M  V30 7882 C 740.976 1.73447 -0.138631 0
M  V30 7883 O 742.152 1.98191 -0.358104 0
M  V30 7884 C 739.217 3.33696 -0.940645 0
M  V30 7885 C 738.278 3.73668 -2.11355 0
M  V30 7886 C 737.511 5.00837 -1.84386 0
M  V30 7887 O 737.734 5.64996 -0.783287 0
M  V30 7888 O 736.668 5.37787 -2.70313 0
M  V30 7889 H 740.494 2.11207 -2.18233 0
M  V30 7890 H 738.079 0.990768 -1.11822 0
M  V30 7891 H 739.961 4.13756 -0.798987 0
M  V30 7892 H 738.636 3.23698 -0.0121636 0
M  V30 7893 H 737.543 2.94211 -2.31065 0
M  V30 7894 H 738.876 3.88303 -3.02459 0
M  V30 7895 N 740.528 1.15101 1.07655 0
M  V30 7896 C 741.491 0.847625 2.12951 0
M  V30 7897 C 742.491 -0.151227 1.60087 0
M  V30 7898 O 743.681 0.0780399 1.74025 0
M  V30 7899 C 740.813 0.265 3.39868 0
M  V30 7900 H 742.006 1.7809 2.41296 0
M  V30 7901 H 739.559 0.958072 1.23494 0
M  V30 7902 H 740.294 -0.676625 3.17163 0
M  V30 7903 H 740.079 0.984554 3.79538 0
M  V30 7904 H 741.569 0.0702121 4.17541 0
M  V30 7905 N 742.006 -1.2595 0.947325 0
M  V30 7906 C 742.936 -2.28521 0.479604 0
M  V30 7907 C 743.917 -1.63469 -0.470293 0
M  V30 7908 O 745.102 -1.90627 -0.370824 0
M  V30 7909 C 742.232 -3.46397 -0.250289 0
M  V30 7910 C 741.186 -4.23578 0.613643 0
M  V30 7911 C 740.512 -5.34131 -0.246568 0
M  V30 7912 C 741.812 -4.86979 1.88809 0
M  V30 7913 H 743.506 -2.67895 1.33688 0
M  V30 7914 H 741.052 -1.28783 0.644274 0
M  V30 7915 H 743.005 -4.17269 -0.588576 0
M  V30 7916 H 741.729 -3.05993 -1.14175 0
M  V30 7917 H 740.388 -3.54478 0.93491 0
M  V30 7918 H 740.036 -4.89968 -1.13756 0
M  V30 7919 H 739.736 -5.86683 0.328123 0
M  V30 7920 H 741.26 -6.07839 -0.579986 0
M  V30 7921 H 742.674 -5.50034 1.61666 0
M  V30 7922 H 741.071 -5.49675 2.40784 0
M  V30 7923 H 742.141 -4.09575 2.5957 0
M  V30 7924 N 743.484 -0.715051 -1.40445 0
M  V30 7925 C 744.732 -0.253826 -2.005 0
M  V30 7926 C 745.053 1.15681 -1.5698 0
M  V30 7927 O 744.323 1.78414 -0.809027 0
M  V30 7928 H 742.903 -0.0908537 -0.741454 0
M  V30 7929 H 745.565 -0.920561 -1.7179 0
M  V30 7930 H 744.661 -0.286499 -3.10782 0
M  V30 7931 N 744.962 1.50701 -0.461195 0
M  V30 7932 C 745.925 2.2686 0.326679 0
M  V30 7933 C 746.925 1.31243 0.929085 0
M  V30 7934 O 748.115 1.54754 0.799807 0
M  V30 7935 C 745.247 3.07844 1.46441 0
M  V30 7936 H 746.44 2.97954 -0.341095 0
M  V30 7937 H 743.993 1.54814 -0.214984 0
M  V30 7938 H 744.728 2.41223 2.16753 0
M  V30 7939 H 744.513 3.78101 1.03836 0
M  V30 7940 H 746.003 3.65469 2.02044 0
M  V30 7941 N 746.441 0.193421 1.56409 0
M  V30 7942 C 747.687 -0.446449 1.97825 0
M  V30 7943 C 748.02 -1.61386 1.08019 0
M  V30 7944 O 747.295 -1.94053 0.131839 0
M  V30 7945 C 747.578 -0.908199 3.48459 0
M  V30 7946 C 747.431 0.260914 4.49043 0
M  V30 7947 C 748.75 -1.77428 4.0275 0
M  V30 7948 H 745.869 -0.160807 0.719243 0
M  V30 7949 H 748.511 0.284006 1.87865 0
M  V30 7950 H 746.661 -1.53062 3.57077 0
M  V30 7951 H 748.333 0.898548 4.52464 0
M  V30 7952 H 746.576 0.912949 4.24085 0
M  V30 7953 H 747.247 -0.104657 5.51901 0
M  V30 7954 H 749.723 -1.24936 3.96901 0
M  V30 7955 H 748.599 -2.06633 5.08521 0
M  V30 7956 H 748.86 -2.72788 3.47907 0
M  V30 7957 N 747.919 -1.57396 -0.0801906 0
M  V30 7958 C 749.144 -1.91437 -0.797909 0
M  V30 7959 C 749.569 -0.789075 -1.70749 0
M  V30 7960 O 748.927 0.25857 -1.79447 0
M  V30 7961 C 748.975 -3.24402 -1.57467 0
M  V30 7962 O 748.079 -3.13043 -2.68473 0
M  V30 7963 H 747.42 -0.627109 -0.218243 0
M  V30 7964 H 749.95 -2.04537 -0.050949 0
M  V30 7965 H 749.96 -3.58072 -1.95571 0
M  V30 7966 H 748.635 -4.05884 -0.907229 0
M  V30 7967 H 747.212 -2.90915 -2.33287 0
M  V30 7968 N 749.397 0.351382 -1.53633 0
M  V30 7969 C 750.808 0.927429 -1.62036 0
M  V30 7970 C 751.159 1.89809 -0.496706 0
M  V30 7971 O 750.284 2.1313 0.374749 0
M  V30 7972 C 750.879 1.68886 -2.93706 0
M  V30 7973 C 749.438 2.21404 -3.04397 0
M  V30 7974 C 748.585 1.03075 -2.57431 0
M  V30 7975 H 751.536 0.129748 -1.58169 0
M  V30 7976 H 751.557 2.55116 -2.82305 0
M  V30 7977 H 751.069 0.982149 -3.75467 0
M  V30 7978 H 749.17 2.95274 -2.27253 0
M  V30 7979 H 749.283 2.48312 -4.09729 0
M  V30 7980 H 747.647 1.40188 -2.12649 0
M  V30 7981 H 748.43 0.338793 -3.41624 0
M  V30 7982 N 750.875 1.45233 0.611969 0
M  V30 7983 C 752.123 1.48727 1.36838 0
M  V30 7984 C 752.444 0.128616 1.94575 0
M  V30 7985 O 751.714 -0.84149 1.76906 0
M  V30 7986 H 750.294 0.547695 0.507976 0
M  V30 7987 H 752.956 1.81156 0.718925 0
M  V30 7988 H 752.052 2.2236 2.19003 0
M  V30 7989 N 752.353 -0.854086 1.3245 0
M  V30 7990 C 753.601 -1.60513 1.228 0
M  V30 7991 C 753.922 -1.93865 -0.210073 0
M  V30 7992 O 753.192 -1.59673 -1.13496 0
M  V30 7993 H 751.772 -0.595099 0.451516 0
M  V30 7994 H 754.434 -1.0216 1.6598 0
M  V30 7995 H 753.53 -2.54182 1.81102 0
M  V30 7996 N 753.831 -1.1567 -1.07043 0
M  V30 7997 C 755.247 -0.900006 -1.31803 0
M  V30 7998 C 755.447 0.451293 -1.96381 0
M  V30 7999 O 754.503 1.19252 -2.22565 0
M  V30 8000 C 755.816 -2.04334 -2.20609 0
M  V30 8001 C 757.364 -2.07823 -2.34048 0
M  V30 8002 C 757.839 -3.21488 -3.26204 0
M  V30 8003 N 759.33 -3.21156 -3.33786 0
M  V30 8004 C 760.065 -4.05746 -4.05163 0
M  V30 8005 N 759.561 -5.00407 -4.79129 0
M  V30 8006 N 761.354 -3.93759 -4.01136 0
M  V30 8007 H 753.505 -2.02681 -0.635146 0
M  V30 8008 H 755.768 -0.883956 -0.342528 0
M  V30 8009 H 755.474 -3.01895 -1.80423 0
M  V30 8010 H 755.348 -1.97838 -3.21154 0
M  V30 8011 H 757.735 -1.1086 -2.73485 0
M  V30 8012 H 757.816 -2.18386 -1.33197 0
M  V30 8013 H 757.46 -4.18706 -2.87485 0
M  V30 8014 H 757.39 -3.08162 -4.27017 0
M  V30 8015 H 759.881 -2.52606 -2.81067 0
M  V30 8016 H 760.194 -5.61387 -5.31097 0
M  V30 8017 H 758.539 -5.04393 -4.78135 0
M  V30 8018 H 761.73 -3.19115 -3.42466 0
M  V30 8019 H 761.903 -4.59906 -4.56498 0
M  V30 8020 N 755.309 1.25446 -0.953992 0
M  V30 8021 C 756.537 1.97215 -0.625595 0
M  V30 8022 C 756.952 1.70911 0.802168 0
M  V30 8023 O 756.309 0.984782 1.5365 0
M  V30 8024 C 756.36 3.50777 -0.873943 0
M  V30 8025 O 756.081 3.76173 -2.24556 0
M  V30 8026 C 757.582 4.39776 -0.557845 0
M  V30 8027 H 754.802 0.628652 -0.2346 0
M  V30 8028 H 757.346 1.59632 -1.27819 0
M  V30 8029 H 755.501 3.86474 -0.267765 0
M  V30 8030 H 755.915 4.70636 -2.31522 0
M  V30 8031 H 757.389 5.46431 -0.782157 0
M  V30 8032 H 757.866 4.36257 0.507573 0
M  V30 8033 H 758.472 4.09644 -1.14332 0
M  V30 8034 N 756.787 0.722489 1.40064 0
M  V30 8035 C 758.012 0.273446 2.05589 0
M  V30 8036 C 758.437 -1.07875 1.54093 0
M  V30 8037 O 757.795 -1.68095 0.679252 0
M  V30 8038 C 757.843 0.271023 3.5958 0
M  V30 8039 O 756.947 -0.745499 4.05606 0
M  V30 8040 H 756.288 0.126856 0.65177 0
M  V30 8041 H 758.818 0.984906 1.79334 0
M  V30 8042 H 758.828 0.111084 4.07849 0
M  V30 8043 H 757.503 1.25776 3.96425 0
M  V30 8044 H 756.08 -0.552719 3.68781 0
M  V30 8045 N 758.265 -1.50454 0.469181 0
M  V30 8046 C 759.681 -1.59124 0.123226 0
M  V30 8047 C 759.881 -1.47749 -1.37013 0
M  V30 8048 O 758.937 -1.335 -2.14322 0
M  V30 8049 C 760.25 -2.93101 0.67172 0
M  V30 8050 C 761.798 -3.06491 0.634978 0
M  V30 8051 C 762.273 -4.43041 1.16098 0
M  V30 8052 N 763.764 -4.49448 1.12031 0
M  V30 8053 C 764.499 -5.53491 1.49784 0
M  V30 8054 N 763.995 -6.64798 1.94976 0
M  V30 8055 N 765.788 -5.44025 1.41399 0
M  V30 8056 H 757.939 -1.56091 1.44046 0
M  V30 8057 H 760.202 -0.737564 0.59557 0
M  V30 8058 H 759.908 -3.06895 1.7178 0
M  V30 8059 H 759.782 -3.77027 0.114222 0
M  V30 8060 H 762.169 -2.92346 -0.402187 0
M  V30 8061 H 762.25 -2.24328 1.22926 0
M  V30 8062 H 761.894 -4.57935 2.19677 0
M  V30 8063 H 761.824 -5.23794 0.542939 0
M  V30 8064 H 764.315 -3.69575 0.788828 0
M  V30 8065 H 764.628 -7.40246 2.21936 0
M  V30 8066 H 762.973 -6.65923 1.98927 0
M  V30 8067 H 766.164 -4.55955 1.05935 0
M  V30 8068 H 766.337 -6.2499 1.71147 0
M  V30 8069 N 759.743 -0.201713 -1.56304 0
M  V30 8070 C 760.968 0.443815 -2.02596 0
M  V30 8071 C 761.393 1.53945 -1.08086 0
M  V30 8072 O 760.751 1.81182 -0.0655056 0
M  V30 8073 C 760.799 0.971066 -3.47279 0
M  V30 8074 O 759.903 2.0836 -3.55893 0
M  V30 8075 H 759.244 0.10294 -0.655972 0
M  V30 8076 H 761.774 -0.314533 -2.02168 0
M  V30 8077 H 761.784 1.28598 -3.87204 0
M  V30 8078 H 760.459 0.169048 -4.15556 0
M  V30 8079 H 759.036 1.77683 -3.27846 0
M  V30 8080 N 761.222 1.57436 0.0718424 0
M  V30 8081 C 762.45 1.91474 0.783932 0
M  V30 8082 C 762.865 0.797669 1.71122 0
M  V30 8083 O 762.222 -0.228989 1.81058 0
M  V30 8084 C 762.273 3.25259 1.57761 0
M  V30 8085 O 761.994 4.3267 0.687596 0
M  V30 8086 C 763.495 3.7331 2.3907 0
M  V30 8087 H 760.715 0.632901 0.222885 0
M  V30 8088 H 763.259 2.04457 0.0421262 0
M  V30 8089 H 761.414 3.13804 2.27169 0
M  V30 8090 H 761.828 5.09641 1.23962 0
M  V30 8091 H 763.302 4.69551 2.90216 0
M  V30 8092 H 763.779 3.02318 3.18591 0
M  V30 8093 H 764.385 3.8771 1.74818 0
M  V30 8094 N 762.7 -0.34323 1.53817 0
M  V30 8095 C 763.925 -1.1079 1.75329 0
M  V30 8096 C 764.35 -1.81571 0.491293 0
M  V30 8097 O 763.708 -1.72561 -0.556089 0
M  V30 8098 C 763.756 -2.09681 2.9337 0
M  V30 8099 O 762.86 -3.17207 2.63541 0
M  V30 8100 H 762.201 -0.320402 0.581583 0
M  V30 8101 H 764.731 -0.393525 2.0078 0
M  V30 8102 H 764.741 -2.52897 3.20168 0
M  V30 8103 H 763.416 -1.5756 3.84899 0
M  V30 8104 H 761.993 -2.78806 2.47632 0
M  V30 8105 N 764.178 -1.45556 -0.604258 0
M  V30 8106 C 765.424 -1.49968 -1.36519 0
M  V30 8107 C 765.757 -0.142236 -1.93678 0
M  V30 8108 O 765.032 0.843717 -1.75247 0
M  V30 8109 C 765.315 -2.58146 -2.51063 0
M  V30 8110 C 765.168 -4.03346 -1.99078 0
M  V30 8111 C 766.487 -2.62581 -3.53184 0
M  V30 8112 H 763.606 -0.545993 -0.495036 0
M  V30 8113 H 766.248 -1.77382 -0.680845 0
M  V30 8114 H 764.398 -2.34901 -3.09441 0
M  V30 8115 H 766.07 -4.37811 -1.45323 0
M  V30 8116 H 764.313 -4.13845 -1.30055 0
M  V30 8117 H 764.984 -4.74731 -2.81664 0
M  V30 8118 H 767.46 -2.83419 -3.04652 0
M  V30 8119 H 766.336 -3.40131 -4.30816 0
M  V30 8120 H 766.597 -1.67798 -4.09019 0
M  V30 8121 N 765.656 0.84705 -1.32902 0
M  V30 8122 C 766.881 1.63925 -1.27056 0
M  V30 8123 C 767.306 1.87443 0.157136 0
M  V30 8124 O 766.664 1.43266 1.11106 0
M  V30 8125 C 766.712 2.97134 -2.04313 0
M  V30 8126 O 765.816 3.88049 -1.39614 0
M  V30 8127 H 765.157 0.499477 -0.437514 0
M  V30 8128 H 767.687 1.05443 -1.75336 0
M  V30 8129 H 767.697 3.46896 -2.14772 0
M  V30 8130 H 766.372 2.79339 -3.08128 0
M  V30 8131 H 764.949 3.46525 -1.3775 0
M  V30 8132 N 767.134 1.16236 1.06428 0
M  V30 8133 C 768.359 0.967688 1.83441 0
M  V30 8134 C 768.784 -0.479167 1.81894 0
M  V30 8135 O 768.142 -1.34224 1.21875 0
M  V30 8136 C 768.19 1.49806 3.2801 0
M  V30 8137 O 767.294 0.703481 4.06356 0
M  V30 8138 H 766.635 0.344468 0.56766 0
M  V30 8139 H 769.165 1.54442 1.34197 0
M  V30 8140 H 769.175 1.51495 3.78831 0
M  V30 8141 H 767.85 2.55133 3.2845 0
M  V30 8142 H 766.427 0.756986 3.65136 0
M  V30 8143 N 768.612 -1.24939 0.960631 0
M  V30 8144 C 769.544 -2.24879 0.442937 0
M  V30 8145 C 770.557 -1.56615 -0.444464 0
M  V30 8146 O 771.746 -1.76715 -0.251776 0
M  V30 8147 C 768.846 -3.36757 -0.380537 0
M  V30 8148 C 768.019 -4.34587 0.495283 0
M  V30 8149 C 767.078 -5.25502 -0.270995 0
M  V30 8150 O 766.104 -5.68227 0.332661 0
M  V30 8151 N 767.306 -5.59077 -1.56249 0
M  V30 8152 H 770.071 -2.69932 1.30218 0
M  V30 8153 H 767.632 -1.38907 0.83166 0
M  V30 8154 H 769.624 -3.94542 -0.90103 0
M  V30 8155 H 768.194 -2.91045 -1.14067 0
M  V30 8156 H 767.414 -3.75593 1.19682 0
M  V30 8157 H 768.702 -4.96925 1.09285 0
M  V30 8158 H 768.1 -5.2628 -2.07476 0
M  V30 8159 H 766.657 -6.19421 -2.02882 0
M  V30 8160 N 770.09 -0.729906 -1.39679 0
M  V30 8161 C 771.501 -0.346241 -1.83461 0
M  V30 8162 C 771.852 1.1215 -1.60987 0
M  V30 8163 O 770.977 1.86456 -1.09832 0
M  V30 8164 C 771.572 -0.621656 -3.33048 0
M  V30 8165 C 770.131 -0.291543 -3.75269 0
M  V30 8166 C 769.278 -0.886844 -2.62736 0
M  V30 8167 H 772.229 -0.927949 -1.28743 0
M  V30 8168 H 772.25 0.108301 -3.80346 0
M  V30 8169 H 771.762 -1.68996 -3.49373 0
M  V30 8170 H 769.863 0.771133 -3.64533 0
M  V30 8171 H 769.976 -0.770544 -4.72863 0
M  V30 8172 H 768.34 -0.313839 -2.52759 0
M  V30 8173 H 769.123 -1.95971 -2.81869 0
M  V30 8174 N 771.568 1.50203 -0.477153 0
M  V30 8175 C 772.814 2.02658 0.0758507 0
M  V30 8176 C 773.147 1.358 1.38824 0
M  V30 8177 O 772.422 0.485696 1.88338 0
M  V30 8178 C 772.705 3.59208 0.253339 0
M  V30 8179 C 772.558 4.36629 -1.0805 0
M  V30 8180 C 773.877 4.28469 1.00509 0
M  V30 8181 H 770.996 0.736538 0.0260921 0
M  V30 8182 H 773.638 1.79464 -0.623925 0
M  V30 8183 H 771.788 3.79101 0.849378 0
M  V30 8184 H 773.46 4.28292 -1.71358 0
M  V30 8185 H 771.703 4.0013 -1.67566 0
M  V30 8186 H 772.374 5.44449 -0.909883 0
M  V30 8187 H 774.85 4.13087 0.499818 0
M  V30 8188 H 773.726 5.37804 1.09808 0
M  V30 8189 H 773.987 3.92057 2.04314 0
M  V30 8190 N 773.046 0.209999 1.56195 0
M  V30 8191 C 774.294 -0.423974 1.97603 0
M  V30 8192 C 774.615 -1.61112 1.09854 0
M  V30 8193 O 773.885 -1.95134 0.173032 0
M  V30 8194 H 772.465 -0.159629 0.729745 0
M  V30 8195 H 775.127 0.300205 1.92574 0
M  V30 8196 H 774.223 -0.75809 3.02753 0
M  V30 8197 N 774.524 -1.57472 -0.0634922 0
M  V30 8198 C 775.935 -1.76303 -0.614337 0
M  V30 8199 C 776.286 -0.836578 -1.77471 0
M  V30 8200 O 775.411 -0.0227184 -2.16388 0
M  V30 8201 C 776.006 -3.19709 -1.12122 0
M  V30 8202 C 774.565 -3.39856 -1.61786 0
M  V30 8203 C 773.712 -2.71975 -0.540845 0
M  V30 8204 H 776.663 -1.57864 0.162702 0
M  V30 8205 H 776.684 -3.24326 -1.98979 0
M  V30 8206 H 776.196 -3.87114 -0.276472 0
M  V30 8207 H 774.297 -2.77578 -2.48558 0
M  V30 8208 H 774.41 -4.48338 -1.68908 0
M  V30 8209 H 772.774 -2.34763 -0.987854 0
M  V30 8210 H 773.557 -3.4204 0.293856 0
M  V30 8211 N 776.003 0.335068 -1.53997 0
M  V30 8212 C 777.251 1.07223 -1.71312 0
M  V30 8213 C 777.572 1.88911 -0.483486 0
M  V30 8214 O 776.842 1.89344 0.50257 0
M  V30 8215 H 775.422 0.398846 -0.63161 0
M  V30 8216 H 778.084 0.374288 -1.91272 0
M  V30 8217 H 777.18 1.7448 -2.58772 0
M  V30 8218 N 777.481 1.45874 0.596531 0
M  V30 8219 C 778.706 1.54247 1.38646 0
M  V30 8220 C 779.131 0.179571 1.87241 0
M  V30 8221 O 778.489 -0.837831 1.6078 0
M  V30 8222 C 778.537 2.54015 2.55946 0
M  V30 8223 O 777.641 2.06561 3.5694 0
M  V30 8224 H 776.982 0.519555 0.413471 0
M  V30 8225 H 779.512 1.91327 0.724936 0
M  V30 8226 H 779.522 2.73179 3.03047 0
M  V30 8227 H 778.197 3.52994 2.19928 0
M  V30 8228 H 776.774 1.97324 3.16414 0
M  V30 8229 N 778.959 -0.83999 1.33349 0
M  V30 8230 C 779.889 -1.965 1.26135 0
M  V30 8231 C 780.87 -1.69505 0.142152 0
M  V30 8232 O 782.055 -1.91346 0.331743 0
M  V30 8233 C 779.185 -3.32632 0.99866 0
M  V30 8234 C 778.139 -3.74021 2.08068 0
M  V30 8235 C 777.465 -5.07947 1.67014 0
M  V30 8236 C 778.765 -3.87925 3.49731 0
M  V30 8237 H 780.459 -2.02793 2.20262 0
M  V30 8238 H 778.005 -0.974297 1.06035 0
M  V30 8239 H 779.958 -4.10903 0.934696 0
M  V30 8240 H 778.682 -3.26593 0.0217759 0
M  V30 8241 H 777.341 -2.98012 2.13505 0
M  V30 8242 H 776.989 -4.98378 0.680316 0
M  V30 8243 H 776.689 -5.36611 2.39422 0
M  V30 8244 H 778.213 -5.88695 1.62082 0
M  V30 8245 H 779.627 -4.5651 3.46802 0
M  V30 8246 H 778.024 -4.28023 4.20614 0
M  V30 8247 H 779.094 -2.90407 3.88319 0
M  V30 8248 N 780.437 -1.16799 -1.0581 0
M  V30 8249 C 781.367 -0.902241 -2.15364 0
M  V30 8250 C 782.348 0.153351 -1.69407 0
M  V30 8251 O 783.533 0.00442032 -1.94199 0
M  V30 8252 C 780.663 -0.407911 -3.44896 0
M  V30 8253 C 779.617 -1.40197 -4.04387 0
M  V30 8254 C 778.943 -0.765848 -5.29187 0
M  V30 8255 C 780.243 -2.77316 -4.42598 0
M  V30 8256 H 781.937 -1.81841 -2.37853 0
M  V30 8257 H 779.483 -0.875731 -1.14311 0
M  V30 8258 H 781.436 -0.20945 -4.20879 0
M  V30 8259 H 780.16 0.54378 -3.22041 0
M  V30 8260 H 778.819 -1.58707 -3.30466 0
M  V30 8261 H 778.467 0.192482 -5.02632 0
M  V30 8262 H 778.167 -1.42939 -5.69949 0
M  V30 8263 H 779.691 -0.577519 -6.07863 0
M  V30 8264 H 781.105 -2.62561 -5.09642 0
M  V30 8265 H 779.502 -3.4019 -4.94359 0
M  V30 8266 H 780.572 -3.32199 -3.53231 0
M  V30 8267 N 781.915 1.24427 -0.967243 0
M  V30 8268 C 783.14 1.9708 -0.646069 0
M  V30 8269 C 783.565 1.71272 0.777665 0
M  V30 8270 O 782.923 0.976179 1.52776 0
M  V30 8271 C 782.971 3.48501 -0.926266 0
M  V30 8272 O 782.075 4.12398 -0.0114653 0
M  V30 8273 H 781.416 0.617423 -0.244304 0
M  V30 8274 H 783.946 1.58215 -1.29727 0
M  V30 8275 H 783.956 3.98885 -0.857619 0
M  V30 8276 H 782.631 3.66613 -1.96386 0
M  V30 8277 H 781.208 3.72661 -0.133396 0
M  V30 8278 N 783.393 0.737304 1.3929 0
M  V30 8279 C 784.618 0.295237 2.05288 0
M  V30 8280 C 785.043 -1.06235 1.55228 0
M  V30 8281 O 784.401 -1.67365 0.697043 0
M  V30 8282 C 784.449 0.309146 3.59272 0
M  V30 8283 O 783.553 -0.702437 4.06374 0
M  V30 8284 H 782.894 0.133762 0.650387 0
M  V30 8285 H 785.424 1.00387 1.78279 0
M  V30 8286 H 785.434 0.154336 4.07708 0
M  V30 8287 H 784.109 1.29974 3.95069 0
M  V30 8288 H 782.686 -0.513574 3.69346 0
M  V30 8289 N 784.871 -1.49948 0.485112 0
M  V30 8290 C 786.111 -2.04301 -0.0635728 0
M  V30 8291 C 786.475 -1.35804 -1.35725 0
M  V30 8292 O 787.676 -1.80789 -1.98919 0
M  V30 8293 C 785.947 -3.56666 -0.228962 0
M  V30 8294 S 787.506 -4.32614 -0.734185 0
M  V30 8295 H 784.324 -0.710939 -0.00931895 0
M  V30 8296 H 786.926 -1.84185 0.655455 0
M  V30 8297 H 785.63 -4.04068 0.718148 0
M  V30 8298 H 785.161 -3.8116 -0.973696 0
M  V30 8299 H 787.176 -4.53859 -2.00565 0
M  V30 8300 N 786.349 -0.21828 -1.56081 0
M  V30 8301 C 787.589 0.416193 -2.00118 0
M  V30 8302 C 787.953 1.5718 -1.10265 0
M  V30 8303 O 789.154 2.27206 -1.43635 0
M  V30 8304 C 787.425 0.842781 -3.47321 0
M  V30 8305 S 788.984 1.47182 -4.1338 0
M  V30 8306 H 785.802 0.132219 -0.698598 0
M  V30 8307 H 788.404 -0.326799 -1.92749 0
M  V30 8308 H 787.108 -0.00799925 -4.10399 0
M  V30 8309 H 786.639 1.61867 -3.58556 0
M  V30 8310 H 788.654 2.76087 -4.12299 0
M  V30 8311 N 787.827 1.57504 0.0551401 0
M  V30 8312 C 789.238 1.76626 0.604979 0
M  V30 8313 C 789.589 0.845978 1.77024 0
M  V30 8314 O 788.714 0.0341936 2.16373 0
M  V30 8315 C 789.309 3.203 1.10425 0
M  V30 8316 C 787.868 3.4071 1.59981 0
M  V30 8317 C 787.015 2.72258 0.526414 0
M  V30 8318 H 789.966 1.57775 -0.171072 0
M  V30 8319 H 789.987 3.25377 1.97256 0
M  V30 8320 H 789.499 3.87255 0.255939 0
M  V30 8321 H 787.6 2.78892 2.47083 0
M  V30 8322 H 787.713 4.49227 1.66528 0
M  V30 8323 H 786.077 2.35283 0.97539 0
M  V30 8324 H 786.86 3.41879 -0.311991 0
M  V30 8325 N 789.305 -0.326896 1.54172 0
M  V30 8326 C 790.721 -0.671034 1.44808 0
M  V30 8327 C 790.921 -1.91781 0.618258 0
M  V30 8328 O 789.977 -2.52235 0.115751 0
M  V30 8329 C 791.29 -0.848147 2.88491 0
M  V30 8330 C 792.838 -0.945702 2.98371 0
M  V30 8331 C 793.313 -1.15501 4.43197 0
M  V30 8332 N 794.804 -1.22183 4.46795 0
M  V30 8333 C 795.539 -1.4016 5.56006 0
M  V30 8334 N 795.035 -1.55202 6.75192 0
M  V30 8335 N 796.828 -1.42841 5.43648 0
M  V30 8336 H 788.979 0.49262 2.06608 0
M  V30 8337 H 791.242 0.158574 0.934643 0
M  V30 8338 H 790.948 -0.00329969 3.517 0
M  V30 8339 H 790.822 -1.74497 3.34411 0
M  V30 8340 H 793.209 -1.78106 2.35292 0
M  V30 8341 H 793.29 -0.0254215 2.55787 0
M  V30 8342 H 792.934 -0.324521 5.06862 0
M  V30 8343 H 792.864 -2.08911 4.83388 0
M  V30 8344 H 795.355 -1.12016 3.60917 0
M  V30 8345 H 795.668 -1.68601 7.54184 0
M  V30 8346 H 794.013 -1.52306 6.78106 0
M  V30 8347 H 797.204 -1.30683 4.49488 0
M  V30 8348 H 797.377 -1.56509 6.28816 0
M  V30 8349 N 790.784 -1.46188 -0.588786 0
M  V30 8350 C 792.2 -1.31009 -0.911524 0
M  V30 8351 C 792.4 -0.277017 -1.99587 0
M  V30 8352 O 791.456 0.322532 -2.50432 0
M  V30 8353 C 792.769 -2.69459 -1.33463 0
M  V30 8354 C 794.317 -2.77502 -1.44782 0
M  V30 8355 C 794.792 -4.1652 -1.90461 0
M  V30 8356 N 796.283 -4.18907 -1.97665 0
M  V30 8357 C 797.018 -5.23359 -2.34271 0
M  V30 8358 N 796.514 -6.38143 -2.69714 0
M  V30 8359 N 798.307 -5.10723 -2.34774 0
M  V30 8360 H 790.458 -2.12016 0.127614 0
M  V30 8361 H 792.721 -0.947984 -0.00557599 0
M  V30 8362 H 792.427 -3.46336 -0.611929 0
M  V30 8363 H 792.301 -2.99165 -2.2974 0
M  V30 8364 H 794.688 -2.00917 -2.1614 0
M  V30 8365 H 794.769 -2.51488 -0.467724 0
M  V30 8366 H 794.413 -4.93597 -1.19684 0
M  V30 8367 H 794.343 -4.39937 -2.89418 0
M  V30 8368 H 796.834 -3.36084 -1.72789 0
M  V30 8369 H 797.147 -7.13624 -2.96582 0
M  V30 8370 H 795.492 -6.41514 -2.67366 0
M  V30 8371 H 798.683 -4.20088 -2.06503 0
M  V30 8372 H 798.856 -5.9224 -2.62975 0
M  V30 8373 N 792.262 0.832906 -1.33792 0
M  V30 8374 C 793.225 1.92471 -1.24449 0
M  V30 8375 C 794.225 1.59981 -0.162085 0
M  V30 8376 O 795.415 1.69208 -0.414029 0
M  V30 8377 C 792.547 3.28278 -0.919044 0
M  V30 8378 H 793.74 2.0218 -2.21502 0
M  V30 8379 H 791.293 1.0257 -1.17936 0
M  V30 8380 H 792.028 3.24263 0.048738 0
M  V30 8381 H 791.813 3.53241 -1.70187 0
M  V30 8382 H 793.303 4.08253 -0.878576 0
M  V30 8383 N 793.74 1.17359 1.05189 0
M  V30 8384 C 794.687 0.890325 2.12936 0
M  V30 8385 C 795.657 -0.165779 1.65271 0
M  V30 8386 O 796.842 -0.0285672 1.90779 0
M  V30 8387 C 793.982 0.409793 3.42658 0
M  V30 8388 C 793.095 1.53002 4.03998 0
M  V30 8389 C 792.23 1.00336 5.21638 0
M  V30 8390 C 791.269 2.09903 5.74984 0
M  V30 8391 N 790.406 1.58714 6.83926 0
M  V30 8392 H 795.246 1.81299 2.36505 0
M  V30 8393 H 792.783 0.904249 1.16025 0
M  V30 8394 H 794.741 0.112743 4.17048 0
M  V30 8395 H 793.371 -0.475915 3.19272 0
M  V30 8396 H 792.423 1.9428 3.27047 0
M  V30 8397 H 793.735 2.3564 4.39631 0
M  V30 8398 H 792.889 0.660158 6.03098 0
M  V30 8399 H 791.628 0.14642 4.8748 0
M  V30 8400 H 790.633 2.45081 4.92154 0
M  V30 8401 H 791.858 2.96013 6.1119 0
M  V30 8402 H 789.804 0.752915 6.51665 0
M  V30 8403 H 789.721 2.34959 7.18561 0
M  V30 8404 H 790.989 1.27287 7.69037 0
M  V30 8405 N 795.218 -1.23913 0.973828 0
M  V30 8406 C 796.634 -1.44325 0.681363 0
M  V30 8407 C 796.834 -1.86832 -0.754728 0
M  V30 8408 O 795.89 -2.01024 -1.52793 0
M  V30 8409 C 797.203 -2.50017 1.67069 0
M  V30 8410 C 798.751 -2.63838 1.68399 0
M  V30 8411 C 799.226 -3.72734 2.66145 0
M  V30 8412 N 800.717 -3.80169 2.64624 0
M  V30 8413 C 801.452 -4.6397 3.36927 0
M  V30 8414 N 800.948 -5.51911 4.18767 0
M  V30 8415 N 802.741 -4.58106 3.25722 0
M  V30 8416 H 794.892 -0.946204 1.9016 0
M  V30 8417 H 797.155 -0.477374 0.819035 0
M  V30 8418 H 796.861 -2.25686 2.69738 0
M  V30 8419 H 796.735 -3.48287 1.4483 0
M  V30 8420 H 799.122 -2.87524 0.664379 0
M  V30 8421 H 799.203 -1.65906 1.94702 0
M  V30 8422 H 798.847 -3.49797 3.68245 0
M  V30 8423 H 798.777 -4.70193 2.3712 0
M  V30 8424 H 801.268 -3.17319 2.05224 0
M  V30 8425 H 801.581 -6.12828 4.70809 0
M  V30 8426 H 799.926 -5.51556 4.2286 0
M  V30 8427 H 803.117 -3.8842 2.61242 0
M  V30 8428 H 803.29 -5.23188 3.82333 0
M  V30 8429 N 796.696 -0.74468 -1.38897 0
M  V30 8430 C 798.112 -0.421302 -1.53939 0
M  V30 8431 C 798.312 1.06668 -1.70951 0
M  V30 8432 O 797.368 1.85278 -1.71547 0
M  V30 8433 C 798.681 -1.21278 -2.75159 0
M  V30 8434 C 800.229 -1.20196 -2.89001 0
M  V30 8435 C 800.704 -1.97621 -4.13171 0
M  V30 8436 N 802.195 -1.94836 -4.2023 0
M  V30 8437 C 802.93 -2.51545 -5.15279 0
M  V30 8438 N 802.426 -3.1693 -6.16058 0
M  V30 8439 N 804.219 -2.41524 -5.07565 0
M  V30 8440 H 796.37 -1.70914 -1.26103 0
M  V30 8441 H 798.633 -0.724058 -0.611919 0
M  V30 8442 H 798.339 -2.26609 -2.68963 0
M  V30 8443 H 798.213 -0.823677 -3.68097 0
M  V30 8444 H 800.6 -0.156742 -2.94683 0
M  V30 8445 H 800.681 -1.63051 -1.97099 0
M  V30 8446 H 800.325 -3.02149 -4.0825 0
M  V30 8447 H 800.255 -1.52166 -5.04136 0
M  V30 8448 H 802.746 -1.4721 -3.48048 0
M  V30 8449 H 803.059 -3.57644 -6.85062 0
M  V30 8450 H 801.404 -3.21023 -6.16417 0
M  V30 8451 H 804.595 -1.90077 -4.27771 0
M  V30 8452 H 804.768 -2.86016 -5.81462 0
M  V30 8453 N 798.174 1.49689 -0.493057 0
M  V30 8454 C 799.137 2.27502 0.278485 0
M  V30 8455 C 800.137 1.33184 0.901037 0
M  V30 8456 O 801.327 1.56415 0.766801 0
M  V30 8457 C 798.459 3.10881 1.39878 0
M  V30 8458 H 799.652 2.97163 -0.404219 0
M  V30 8459 H 797.205 1.54324 -0.247774 0
M  V30 8460 H 797.94 2.45767 2.11587 0
M  V30 8461 H 797.725 3.80219 0.957924 0
M  V30 8462 H 799.215 3.69673 1.94247 0
M  V30 8463 N 799.652 0.226554 1.55963 0
M  V30 8464 C 800.901 -0.40417 1.97609 0
M  V30 8465 C 801.214 -1.60541 1.1174 0
M  V30 8466 O 802.42 -2.30598 1.43307 0
M  V30 8467 C 800.876 -0.770466 3.51556 0
M  V30 8468 C 800.484 0.408244 4.46136 0
M  V30 8469 C 802.228 -1.36651 4.01904 0
M  V30 8470 C 800.135 0.0192347 5.91397 0
M  V30 8471 H 799.065 -0.15478 0.737943 0
M  V30 8472 H 801.716 0.323558 1.80625 0
M  V30 8473 H 800.098 -1.55575 3.6416 0
M  V30 8474 H 801.272 1.18575 4.45283 0
M  V30 8475 H 799.587 0.917859 4.06158 0
M  V30 8476 H 802.184 -1.67055 5.07934 0
M  V30 8477 H 802.527 -2.28403 3.48049 0
M  V30 8478 H 803.06 -0.644556 3.92543 0
M  V30 8479 H 799.799 0.90336 6.49245 0
M  V30 8480 H 799.319 -0.722485 5.95433 0
M  V30 8481 H 800.998 -0.405711 6.45727 0
M  V30 8482 N 801.13 -1.57531 -0.0467866 0
M  V30 8483 C 802.546 -1.54451 -0.402107 0
M  V30 8484 C 802.746 -0.950275 -1.77685 0
M  V30 8485 O 801.802 -0.563602 -2.4613 0
M  V30 8486 C 803.115 -2.9899 -0.320212 0
M  V30 8487 C 804.663 -3.10452 -0.398588 0
M  V30 8488 C 805.138 -4.56689 -0.346335 0
M  V30 8489 N 806.629 -4.6142 -0.405666 0
M  V30 8490 C 807.364 -5.72087 -0.387845 0
M  V30 8491 N 806.86 -6.92045 -0.32336 0
M  V30 8492 N 808.653 -5.60404 -0.436263 0
M  V30 8493 H 800.804 -1.94515 0.853087 0
M  V30 8494 H 803.067 -0.891397 0.322669 0
M  V30 8495 H 802.773 -3.46124 0.623794 0
M  V30 8496 H 802.647 -3.60164 -1.1208 0
M  V30 8497 H 805.034 -2.63276 -1.33302 0
M  V30 8498 H 805.115 -2.52142 0.431026 0
M  V30 8499 H 804.759 -5.04527 0.584356 0
M  V30 8500 H 804.689 -5.12889 -1.19382 0
M  V30 8501 H 807.18 -3.75105 -0.458737 0
M  V30 8502 H 807.493 -7.7216 -0.314375 0
M  V30 8503 H 805.838 -6.94396 -0.28967 0
M  V30 8504 H 809.029 -4.65586 -0.48451 0
M  V30 8505 H 809.202 -6.46645 -0.418907 0
M  V30 8506 N 802.608 0.318715 -1.54344 0
M  V30 8507 C 803.538 1.39751 -1.87061 0
M  V30 8508 C 804.519 1.53741 -0.727848 0
M  V30 8509 O 805.704 1.67541 -0.982016 0
M  V30 8510 C 802.834 2.76446 -2.10226 0
M  V30 8511 C 801.788 2.77239 -3.26071 0
M  V30 8512 C 801.114 4.17056 -3.34617 0
M  V30 8513 C 802.414 2.40555 -4.63606 0
M  V30 8514 H 804.108 1.12619 -2.77412 0
M  V30 8515 H 801.654 0.540318 -1.33479 0
M  V30 8516 H 803.607 3.51985 -2.31699 0
M  V30 8517 H 802.331 3.05066 -1.16629 0
M  V30 8518 H 800.99 2.04155 -3.04493 0
M  V30 8519 H 800.638 4.42824 -2.3857 0
M  V30 8520 H 800.338 4.18492 -4.12478 0
M  V30 8521 H 801.862 4.94401 -3.5833 0
M  V30 8522 H 803.276 3.05808 -4.84927 0
M  V30 8523 H 801.673 2.53234 -5.44052 0
M  V30 8524 H 802.743 1.35698 -4.65526 0
M  V30 8525 N 804.086 1.46499 0.581025 0
M  V30 8526 C 805.049 1.5677 1.672 0
M  V30 8527 C 806.049 0.444716 1.54528 0
M  V30 8528 O 807.239 0.709074 1.59116 0
M  V30 8529 C 804.371 1.4896 3.06633 0
M  V30 8530 H 805.564 2.54 1.5945 0
M  V30 8531 H 803.117 1.34334 0.799003 0
M  V30 8532 H 803.852 0.530168 3.19937 0
M  V30 8533 H 803.637 2.30439 3.17239 0
M  V30 8534 H 805.127 1.59237 3.86048 0
M  V30 8535 N 805.565 -0.825799 1.34232 0
M  V30 8536 C 806.513 -1.95792 1.25572 0
M  V30 8537 C 807.507 -1.68695 0.154404 0
M  V30 8538 O 808.713 -1.77147 0.319196 0
M  V30 8539 H 805.088 -0.642949 0.390027 0
M  V30 8540 H 807.059 -2.00219 2.21258 0
M  V30 8541 C 805.808 -3.32245 1.02511 0
M  V30 8542 H 805.131 -3.53642 1.86487 0
M  V30 8543 H 806.571 -4.1192 1.00487 0
M  V30 8544 C 805.03 -3.35803 -0.27167 0
M  V30 8545 O 805.56 -3.80962 -1.274 0
M  V30 8546 N 803.766 -2.89008 -0.303778 0
M  V30 8547 H 803.313 -2.52451 0.512464 0
M  V30 8548 H 803.271 -2.9177 -1.17121 0
M  V30 8549 N 807.043 -1.17915 -1.04565 0
M  V30 8550 C 808.268 -0.996749 -1.81878 0
M  V30 8551 C 808.693 0.450169 -1.82634 0
M  V30 8552 O 808.051 1.32268 -1.23995 0
M  V30 8553 C 808.099 -1.55005 -3.25585 0
M  V30 8554 O 807.203 -0.76804 -4.05185 0
M  V30 8555 H 806.544 -0.353456 -0.562108 0
M  V30 8556 H 809.074 -1.56557 -1.31723 0
M  V30 8557 H 809.084 -1.57503 -3.76373 0
M  V30 8558 H 807.759 -2.60327 -3.2435 0
M  V30 8559 H 806.336 -0.81498 -3.63885 0
M  V30 8560 N 808.521 1.23394 -0.980386 0
M  V30 8561 C 809.749 1.95844 -0.667286 0
M  V30 8562 C 810.164 1.72574 0.765735 0
M  V30 8563 O 809.521 1.01715 1.51526 0
M  V30 8564 C 809.572 3.48844 -0.948151 0
M  V30 8565 O 809.293 3.71325 -2.32485 0
M  V30 8566 C 810.794 4.38494 -0.651002 0
M  V30 8567 H 808.014 0.623535 -0.247882 0
M  V30 8568 H 810.558 1.56885 -1.31176 0
M  V30 8569 H 808.713 3.85819 -0.349681 0
M  V30 8570 H 809.127 4.65619 -2.41452 0
M  V30 8571 H 810.601 5.44648 -0.897887 0
M  V30 8572 H 811.078 4.37236 0.414922 0
M  V30 8573 H 811.684 4.07127 -1.22995 0
M  V30 8574 N 809.999 0.752036 1.385 0
M  V30 8575 C 810.962 0.131587 2.28822 0
M  V30 8576 C 811.962 -0.649149 1.47115 0
M  V30 8577 O 813.152 -0.475645 1.67581 0
M  V30 8578 C 810.284 -0.822101 3.30839 0
M  V30 8579 H 811.477 0.927551 2.85196 0
M  V30 8580 H 809.03 0.518945 1.47434 0
M  V30 8581 H 809.765 -1.6438 2.79553 0
M  V30 8582 H 809.55 -0.264689 3.91206 0
M  V30 8583 H 811.04 -1.25226 3.98382 0
M  V30 8584 N 811.477 -1.49425 0.500989 0
M  V30 8585 C 812.702 -2.07356 -0.0425154 0
M  V30 8586 C 813.127 -1.35887 -1.30063 0
M  V30 8587 O 812.485 -0.41561 -1.76472 0
M  V30 8588 C 812.533 -3.59518 -0.279188 0
M  V30 8589 O 811.637 -3.89542 -1.3539 0
M  V30 8590 H 810.978 -0.663482 0.0262207 0
M  V30 8591 H 813.508 -1.92231 0.700607 0
M  V30 8592 H 813.518 -4.04791 -0.5107 0
M  V30 8593 H 812.193 -4.10946 0.640009 0
M  V30 8594 H 810.77 -3.56079 -1.10734 0
M  V30 8595 N 812.955 -0.234822 -1.55841 0
M  V30 8596 C 814.201 0.393843 -1.98939 0
M  V30 8597 C 814.534 1.58466 -1.1226 0
M  V30 8598 O 813.809 1.93635 -0.183242 0
M  V30 8599 C 814.092 0.815492 -3.50745 0
M  V30 8600 C 813.945 -0.379878 -4.48193 0
M  V30 8601 C 815.264 1.66687 -4.07312 0
M  V30 8602 H 812.383 0.141681 -0.723253 0
M  V30 8603 H 815.025 -0.333716 -1.87046 0
M  V30 8604 H 813.175 1.43541 -3.6101 0
M  V30 8605 H 814.847 -1.0182 -4.49923 0
M  V30 8606 H 813.09 -1.02507 -4.21515 0
M  V30 8607 H 813.761 -0.0417069 -5.51984 0
M  V30 8608 H 816.237 1.14369 -4.00074 0
M  V30 8609 H 815.113 1.93078 -5.13821 0
M  V30 8610 H 815.374 2.63468 -3.55017 0
M  V30 8611 N 814.433 1.57553 0.0384317 0
M  V30 8612 C 815.658 1.93485 0.746872 0
M  V30 8613 C 816.083 0.834069 1.68597 0
M  V30 8614 O 815.441 -0.210902 1.80069 0
M  V30 8615 C 815.489 3.28463 1.4881 0
M  V30 8616 O 814.593 3.20051 2.60079 0
M  V30 8617 H 813.934 0.632675 0.201539 0
M  V30 8618 H 816.464 2.046 -0.00329815 0
M  V30 8619 H 816.474 3.63132 1.86009 0
M  V30 8620 H 815.149 4.08147 0.799297 0
M  V30 8621 H 813.726 2.96998 2.25492 0
M  V30 8622 N 815.911 -0.310526 1.54511 0
M  V30 8623 C 817.327 -0.655637 1.45511 0
M  V30 8624 C 817.527 -1.91114 0.638564 0
M  V30 8625 O 816.583 -2.52098 0.142497 0
M  V30 8626 C 817.896 -0.817501 2.89374 0
M  V30 8627 C 819.444 -0.914003 2.99358 0
M  V30 8628 C 819.919 -1.10794 4.44397 0
M  V30 8629 N 821.41 -1.17437 4.48066 0
M  V30 8630 C 822.145 -1.34255 5.57461 0
M  V30 8631 N 821.641 -1.48032 6.768 0
M  V30 8632 N 823.434 -1.37067 5.45132 0
M  V30 8633 H 815.585 0.514506 2.06074 0
M  V30 8634 H 817.848 0.168478 0.932909 0
M  V30 8635 H 817.554 0.034003 3.51684 0
M  V30 8636 H 817.428 -1.7094 3.36243 0
M  V30 8637 H 819.815 -1.756 2.37168 0
M  V30 8638 H 819.896 0.00170958 2.558 0
M  V30 8639 H 819.54 -0.270743 5.07178 0
M  V30 8640 H 819.47 -2.03773 4.85576 0
M  V30 8641 H 821.961 -1.08181 3.62084 0
M  V30 8642 H 822.274 -1.60593 7.5593 0
M  V30 8643 H 820.619 -1.45105 6.79683 0
M  V30 8644 H 823.81 -1.25909 4.50849 0
M  V30 8645 H 823.983 -1.49831 6.3044 0
M  V30 8646 N 817.389 -1.46805 -0.573248 0
M  V30 8647 C 818.637 -1.52302 -1.32847 0
M  V30 8648 C 818.958 -0.180159 -1.94166 0
M  V30 8649 O 818.228 0.794291 -1.79075 0
M  V30 8650 H 816.808 -0.56097 -0.493276 0
M  V30 8651 H 819.47 -1.82998 -0.670642 0
M  V30 8652 H 818.566 -2.28089 -2.13031 0
M  V30 8653 N 818.867 0.818669 -1.34668 0
M  V30 8654 C 820.092 1.61193 -1.30505 0
M  V30 8655 C 820.517 1.87734 0.117341 0
M  V30 8656 O 819.875 1.45591 1.08042 0
M  V30 8657 C 819.923 2.92733 -2.1057 0
M  V30 8658 O 819.027 3.85 -1.47813 0
M  V30 8659 H 818.368 0.490085 -0.44801 0
M  V30 8660 H 820.898 1.01701 -1.77534 0
M  V30 8661 H 820.908 3.42262 -2.22082 0
M  V30 8662 H 819.583 2.7274 -3.13984 0
M  V30 8663 H 818.16 3.43525 -1.45069 0
M  V30 8664 N 820.346 1.18468 1.03938 0
M  V30 8665 C 821.279 0.856251 2.11527 0
M  V30 8666 C 822.257 -0.182323 1.61575 0
M  V30 8667 O 823.441 -0.061 1.88401 0
M  V30 8668 C 820.568 0.279562 3.37544 0
M  V30 8669 C 819.614 1.29552 4.06348 0
M  V30 8670 S 820.447 2.85191 4.5324 0
M  V30 8671 C 821.603 2.29037 5.82489 0
M  V30 8672 H 821.836 1.76742 2.39059 0
M  V30 8673 H 819.369 1.01068 1.16725 0
M  V30 8674 H 821.327 -0.0466579 4.10473 0
M  V30 8675 H 819.988 -0.60975 3.08125 0
M  V30 8676 H 819.181 0.840922 4.96935 0
M  V30 8677 H 818.783 1.56804 3.39541 0
M  V30 8678 H 821.075 1.67376 6.565 0
M  V30 8679 H 822.018 3.17929 6.32714 0
M  V30 8680 H 822.426 1.72009 5.37655 0
M  V30 8681 N 821.824 -1.22873 0.986916 0
M  V30 8682 C 822.756 -2.23889 0.490537 0
M  V30 8683 C 823.769 -1.57523 -0.411144 0
M  V30 8684 O 824.958 -1.7721 -0.214236 0
M  V30 8685 C 822.058 -3.37488 -0.30902 0
M  V30 8686 C 821.231 -4.33438 0.587354 0
M  V30 8687 C 820.29 -5.25958 -0.159467 0
M  V30 8688 O 819.316 -5.67394 0.453115 0
M  V30 8689 N 820.518 -5.62265 -1.44355 0
M  V30 8690 H 823.283 -2.67109 1.35914 0
M  V30 8691 H 820.844 -1.37111 0.860937 0
M  V30 8692 H 822.836 -3.96365 -0.817139 0
M  V30 8693 H 821.406 -2.934 -1.07868 0
M  V30 8694 H 820.626 -3.72969 1.27622 0
M  V30 8695 H 821.914 -4.94495 1.19801 0
M  V30 8696 H 821.312 -5.30562 -1.96266 0
M  V30 8697 H 819.869 -6.23585 -1.89698 0
M  V30 8698 N 823.302 -0.75937 -1.38099 0
M  V30 8699 C 824.212 -0.13774 -2.34195 0
M  V30 8700 C 825.228 0.693985 -1.59561 0
M  V30 8701 O 826.404 0.616792 -1.91723 0
M  V30 8702 C 823.469 0.740535 -3.38699 0
M  V30 8703 C 822.53 -0.106225 -4.29169 0
M  V30 8704 C 821.763 0.730225 -5.28681 0
M  V30 8705 O 821.986 1.96796 -5.35376 0
M  V30 8706 O 820.92 0.145969 -6.01723 0
M  V30 8707 H 824.746 -0.931512 -2.89061 0
M  V30 8708 H 822.331 -0.520345 -1.40046 0
M  V30 8709 H 824.213 1.24232 -4.02672 0
M  V30 8710 H 822.888 1.51271 -2.8618 0
M  V30 8711 H 821.795 -0.654088 -3.68337 0
M  V30 8712 H 823.128 -0.841186 -4.84959 0
M  V30 8713 N 824.78 1.49157 -0.508906 0
M  V30 8714 C 825.71 2.32109 0.254469 0
M  V30 8715 C 826.691 1.40754 0.955111 0
M  V30 8716 O 827.876 1.69658 0.944983 0
M  V30 8717 C 825.006 3.21458 1.3146 0
M  V30 8718 C 823.96 4.2167 0.733368 0
M  V30 8719 C 823.286 5.00009 1.8946 0
M  V30 8720 C 824.586 5.21544 -0.280875 0
M  V30 8721 H 826.28 2.9618 -0.43795 0
M  V30 8722 H 823.826 1.4243 -0.212062 0
M  V30 8723 H 825.779 3.78305 1.85643 0
M  V30 8724 H 824.503 2.55346 2.03632 0
M  V30 8725 H 823.162 3.65979 0.213231 0
M  V30 8726 H 822.81 4.30338 2.60419 0
M  V30 8727 H 822.51 5.67821 1.51173 0
M  V30 8728 H 824.034 5.59702 2.44061 0
M  V30 8729 H 825.448 5.73039 0.173095 0
M  V30 8730 H 823.845 5.97291 -0.580006 0
M  V30 8731 H 824.915 4.69969 -1.19404 0
M  V30 8732 N 826.258 0.243083 1.55714 0
M  V30 8733 C 827.535 -0.432851 1.90751 0
M  V30 8734 C 827.915 -1.76153 1.16333 0
M  V30 8735 O 827.263 -2.26783 0.279565 0
M  V30 8736 C 827.473 -0.604685 3.43722 0
M  V30 8737 C 828.821 -0.90231 4.14902 0
M  V30 8738 O 829.845 -0.690689 3.49439 0
M  V30 8739 O 828.704 -1.3051 5.30688 0
M  V30 8740 H 825.798 -0.231835 0.79384 0
M  V30 8741 H 828.344 0.286867 1.67258 0
M  V30 8742 H 827.116 0.331655 3.89892 0
M  V30 8743 H 826.739 -1.37509 3.73065 0
M  V30 8744 N 827.736 -1.57571 -0.0300757 0
M  V30 8745 C 828.669 -2.01874 -1.06406 0
M  V30 8746 C 829.647 -0.902901 -1.35227 0
M  V30 8747 O 830.831 -1.16865 -1.47901 0
M  V30 8748 C 827.958 -2.39093 -2.39901 0
M  V30 8749 C 827.004 -3.61108 -2.26943 0
M  V30 8750 S 827.837 -5.10287 -1.62382 0
M  V30 8751 C 828.993 -5.50747 -2.97369 0
M  V30 8752 H 829.226 -2.89261 -0.686703 0
M  V30 8753 H 826.759 -1.52523 -0.240017 0
M  V30 8754 H 828.717 -2.61207 -3.16672 0
M  V30 8755 H 827.378 -1.52159 -2.74784 0
M  V30 8756 H 826.571 -3.84803 -3.25489 0
M  V30 8757 H 826.173 -3.3884 -1.58314 0
M  V30 8758 H 828.465 -5.51369 -3.93698 0
M  V30 8759 H 829.408 -6.51071 -2.78409 0
M  V30 8760 H 829.816 -4.7825 -2.99895 0
M  V30 8761 N 829.214 0.302327 -1.54673 0
M  V30 8762 C 830.144 1.37759 -1.88533 0
M  V30 8763 C 831.125 1.52961 -0.744113 0
M  V30 8764 O 832.31 1.6649 -0.999731 0
M  V30 8765 C 829.44 2.74201 -2.13146 0
M  V30 8766 C 828.394 2.73765 -3.28993 0
M  V30 8767 C 827.72 4.13483 -3.39022 0
M  V30 8768 C 829.02 2.35624 -4.66132 0
M  V30 8769 H 830.714 1.0967 -2.78591 0
M  V30 8770 H 828.26 0.52613 -1.34044 0
M  V30 8771 H 830.213 3.49508 -2.35419 0
M  V30 8772 H 828.937 3.03812 -1.19858 0
M  V30 8773 H 827.596 2.00914 -3.06642 0
M  V30 8774 H 827.244 4.40269 -2.43253 0
M  V30 8775 H 826.944 4.14093 -4.16894 0
M  V30 8776 H 828.468 4.90572 -3.63553 0
M  V30 8777 H 829.882 3.00647 -4.88143 0
M  V30 8778 H 828.279 2.47449 -5.46707 0
M  V30 8779 H 829.349 1.30753 -4.66939 0
M  V30 8780 N 830.692 1.47107 0.565454 0
M  V30 8781 C 831.655 1.58535 1.65527 0
M  V30 8782 C 832.655 0.461081 1.54048 0
M  V30 8783 O 833.845 0.725911 1.58355 0
M  V30 8784 C 830.977 1.52204 3.05036 0
M  V30 8785 H 832.17 2.55676 1.56747 0
M  V30 8786 H 829.723 1.35174 0.78471 0
M  V30 8787 H 830.458 0.564071 3.19357 0
M  V30 8788 H 830.243 2.3379 3.14777 0
M  V30 8789 H 831.733 1.63322 3.84338 0
M  V30 8790 N 832.17 -0.811516 1.35101 0
M  V30 8791 C 833.418 -1.56525 1.27845 0
M  V30 8792 C 833.739 -1.94435 -0.14829 0
M  V30 8793 O 833.009 -1.63203 -1.08359 0
M  V30 8794 H 831.589 -0.580433 0.47022 0
M  V30 8795 H 834.251 -0.968277 1.69146 0
M  V30 8796 H 833.347 -2.48291 1.89097 0
M  V30 8797 N 833.648 -1.19017 -1.03309 0
M  V30 8798 C 834.578 -0.94772 -2.13402 0
M  V30 8799 C 835.559 0.117383 -1.69694 0
M  V30 8800 O 836.744 -0.0367733 -1.94165 0
M  V30 8801 C 833.874 -0.480977 -3.43953 0
M  V30 8802 C 832.828 -1.48743 -4.01322 0
M  V30 8803 C 832.154 -0.877924 -5.27443 0
M  V30 8804 C 833.454 -2.86642 -4.36616 0
M  V30 8805 H 835.148 -1.86846 -2.33942 0
M  V30 8806 H 832.694 -0.899781 -1.12427 0
M  V30 8807 H 834.647 -0.298677 -4.2034 0
M  V30 8808 H 833.371 0.475348 -3.23122 0
M  V30 8809 H 832.03 -1.65681 -3.27025 0
M  V30 8810 H 831.678 0.0858232 -5.02927 0
M  V30 8811 H 831.378 -1.54996 -5.66789 0
M  V30 8812 H 832.902 -0.706326 -6.06501 0
M  V30 8813 H 834.316 -2.73312 -5.03958 0
M  V30 8814 H 832.713 -3.50599 -4.87032 0
M  V30 8815 H 833.783 -3.39617 -3.46105 0
M  V30 8816 N 835.127 1.22348 -0.993418 0
M  V30 8817 C 836.543 1.43222 -0.704238 0
M  V30 8818 C 836.743 1.88009 0.724909 0
M  V30 8819 O 835.799 2.03429 1.49575 0
M  V30 8820 C 837.112 2.47328 -1.71025 0
M  V30 8821 C 838.66 2.61126 -1.72576 0
M  V30 8822 C 839.135 3.68453 -2.72041 0
M  V30 8823 N 840.626 3.75911 -2.70639 0
M  V30 8824 C 841.361 4.58551 -3.44266 0
M  V30 8825 N 840.857 5.45179 -4.27495 0
M  V30 8826 N 842.65 4.52866 -3.32969 0
M  V30 8827 H 834.801 0.915832 -1.91641 0
M  V30 8828 H 837.064 0.464283 -0.826526 0
M  V30 8829 H 836.77 2.21366 -2.73295 0
M  V30 8830 H 836.644 3.45939 -1.50353 0
M  V30 8831 H 839.031 2.86431 -0.710037 0
M  V30 8832 H 839.112 1.62787 -1.97317 0
M  V30 8833 H 838.756 3.43895 -3.73763 0
M  V30 8834 H 838.686 4.66362 -2.4457 0
M  V30 8835 H 841.177 3.14014 -2.10247 0
M  V30 8836 H 841.49 6.0526 -4.80499 0
M  V30 8837 H 839.835 5.44759 -4.31582 0
M  V30 8838 H 843.026 3.84215 -2.67389 0
M  V30 8839 H 843.199 5.17039 -3.90608 0
M  V30 8840 N 836.605 0.766683 1.37694 0
M  V30 8841 C 838.021 0.445739 1.53249 0
M  V30 8842 C 838.221 -1.03935 1.72626 0
M  V30 8843 O 837.277 -1.82525 1.74473 0
M  V30 8844 C 838.59 1.2564 2.73194 0
M  V30 8845 C 840.138 1.24779 2.87053 0
M  V30 8846 C 840.613 2.04169 4.09974 0
M  V30 8847 N 842.104 2.01497 4.17077 0
M  V30 8848 C 842.839 2.5971 5.11212 0
M  V30 8849 N 842.335 3.26691 6.10938 0
M  V30 8850 N 844.128 2.49568 5.03659 0
M  V30 8851 H 836.279 1.72899 1.23368 0
M  V30 8852 H 838.542 0.733701 0.600322 0
M  V30 8853 H 838.248 2.30859 2.65324 0
M  V30 8854 H 838.122 0.882133 3.6674 0
M  V30 8855 H 840.509 0.203603 2.94397 0
M  V30 8856 H 840.59 1.66166 1.9448 0
M  V30 8857 H 840.234 3.08606 4.03392 0
M  V30 8858 H 840.164 1.60167 5.01651 0
M  V30 8859 H 842.655 1.52728 3.45662 0
M  V30 8860 H 842.968 3.68497 6.79286 0
M  V30 8861 H 841.313 3.30789 6.11231 0
M  V30 8862 H 844.504 1.96859 4.24693 0
M  V30 8863 H 844.677 2.95231 5.76839 0
M  V30 8864 N 838.083 -1.48885 0.516809 0
M  V30 8865 C 839.308 -2.0739 -0.0205201 0
M  V30 8866 C 839.733 -1.37259 -1.28614 0
M  V30 8867 O 839.091 -0.434304 -1.76021 0
M  V30 8868 C 839.139 -3.59793 -0.24104 0
M  V30 8869 O 838.243 -3.90957 -1.31251 0
M  V30 8870 H 837.584 -0.663167 0.0332564 0
M  V30 8871 H 840.114 -1.91477 0.720956 0
M  V30 8872 H 840.124 -4.0531 -0.467737 0
M  V30 8873 H 838.799 -4.10244 0.68356 0
M  V30 8874 H 837.376 -3.57234 -1.06951 0
M  V30 8875 N 839.561 -0.251338 -1.55583 0
M  V30 8876 C 840.511 0.660351 -2.18228 0
M  V30 8877 C 841.495 1.13596 -1.13951 0
M  V30 8878 O 842.687 1.08499 -1.39846 0
M  V30 8879 C 839.816 1.85498 -2.88869 0
M  V30 8880 C 838.902 1.39767 -4.00407 0
M  V30 8881 N 839.293 0.654876 -5.01543 0
M  V30 8882 C 837.591 1.68259 -4.13044 0
M  V30 8883 C 838.292 0.417521 -5.802 0
M  V30 8884 N 837.268 0.983032 -5.34638 0
M  V30 8885 H 841.07 0.0847425 -2.93778 0
M  V30 8886 H 838.584 -0.0538456 -1.62311 0
M  V30 8887 H 840.581 2.51916 -3.3218 0
M  V30 8888 H 839.241 2.43477 -2.14823 0
M  V30 8889 H 840.252 0.304545 -5.17004 0
M  V30 8890 H 836.929 2.27344 -3.50172 0
M  V30 8891 H 838.319 -0.175764 -6.7167 0
M  V30 8892 N 841.039 1.57585 0.0217189 0
M  V30 8893 C 842.002 2.06004 1.00474 0
M  V30 8894 C 843.002 0.965461 1.2859 0
M  V30 8895 O 844.192 1.22884 1.23471 0
M  V30 8896 C 841.324 2.48319 2.33561 0
M  V30 8897 H 842.517 2.94112 0.586346 0
M  V30 8898 H 840.07 1.53973 0.268716 0
M  V30 8899 H 840.805 1.63389 2.80133 0
M  V30 8900 H 840.59 3.28239 2.1448 0
M  V30 8901 H 842.08 2.86181 3.04122 0
M  V30 8902 N 842.517 -0.29412 1.54831 0
M  V30 8903 C 843.928 -0.866651 1.65366 0
M  V30 8904 C 844.279 -1.87834 0.56681 0
M  V30 8905 O 843.404 -2.14374 -0.295389 0
M  V30 8906 C 843.999 -1.57869 2.99771 0
M  V30 8907 C 842.558 -2.09954 3.12404 0
M  V30 8908 C 841.705 -0.934492 2.6108 0
M  V30 8909 H 844.656 -0.0709551 1.58541 0
M  V30 8910 H 844.677 -2.44462 2.91579 0
M  V30 8911 H 844.189 -0.84212 3.78853 0
M  V30 8912 H 842.29 -2.86637 2.38055 0
M  V30 8913 H 842.403 -2.32934 4.18663 0
M  V30 8914 H 840.767 -1.32199 2.17705 0
M  V30 8915 H 841.55 -0.211768 3.42646 0
M  V30 8916 N 843.995 -1.47404 -0.557645 0
M  V30 8917 C 844.927 -1.55917 -1.67995 0
M  V30 8918 C 845.94 -0.445411 -1.56588 0
M  V30 8919 O 847.129 -0.714999 -1.63554 0
M  V30 8920 C 844.229 -1.44697 -3.06457 0
M  V30 8921 C 843.402 -2.70633 -3.43622 0
M  V30 8922 C 842.461 -2.53256 -4.61246 0
M  V30 8923 O 841.487 -3.27068 -4.65849 0
M  V30 8924 N 842.689 -1.61053 -5.57711 0
M  V30 8925 H 845.454 -2.52694 -1.61139 0
M  V30 8926 H 843.015 -1.43778 -0.744271 0
M  V30 8927 H 845.007 -1.30806 -3.82978 0
M  V30 8928 H 843.577 -0.560039 -3.07542 0
M  V30 8929 H 842.797 -2.99288 -2.56555 0
M  V30 8930 H 844.085 -3.5424 -3.65228 0
M  V30 8931 H 843.483 -1.00235 -5.56749 0
M  V30 8932 H 842.04 -1.53115 -6.33561 0
M  V30 8933 N 845.473 0.80434 -1.35529 0
M  V30 8934 C 846.698 1.598 -1.32207 0
M  V30 8935 C 847.123 1.87848 0.0974226 0
M  V30 8936 O 846.481 1.46728 1.06492 0
M  V30 8937 C 846.529 2.90483 -2.13663 0
M  V30 8938 O 845.633 3.83411 -1.51888 0
M  V30 8939 H 844.974 0.485305 -0.453183 0
M  V30 8940 H 847.504 0.998119 -1.78602 0
M  V30 8941 H 847.514 3.39888 -2.257 0
M  V30 8942 H 846.189 2.69395 -3.16859 0
M  V30 8943 H 844.766 3.41967 -1.48704 0
M  V30 8944 N 846.951 1.19563 1.02676 0
M  V30 8945 C 848.367 0.948304 1.28372 0
M  V30 8946 C 848.567 -0.378096 1.97921 0
M  V30 8947 O 847.623 -1.1091 2.26838 0
M  V30 8948 C 848.936 2.12381 2.12873 0
M  V30 8949 C 850.484 2.16366 2.26174 0
M  V30 8950 C 850.959 3.33374 3.14048 0
M  V30 8951 N 852.45 3.33323 3.21636 0
M  V30 8952 C 853.185 4.20504 3.89825 0
M  V30 8953 N 852.681 5.17845 4.60227 0
M  V30 8954 N 854.474 4.08375 3.86246 0
M  V30 8955 H 846.625 2.04899 0.559485 0
M  V30 8956 H 848.888 0.89606 0.309484 0
M  V30 8957 H 848.594 3.08383 1.69094 0
M  V30 8958 H 848.468 2.09621 3.1359 0
M  V30 8959 H 850.855 1.20933 2.69182 0
M  V30 8960 H 850.936 2.23179 1.25 0
M  V30 8961 H 850.58 4.29087 2.71747 0
M  V30 8962 H 850.51 3.23798 4.15286 0
M  V30 8963 H 853.001 2.62863 2.71498 0
M  V30 8964 H 853.314 5.80712 5.09896 0
M  V30 8965 H 851.659 5.21791 4.59085 0
M  V30 8966 H 854.85 3.31606 3.30386 0
M  V30 8967 H 855.023 4.76532 4.39114 0
M  V30 8968 N 848.429 -1.21819 0.999893 0
M  V30 8969 C 849.654 -1.95298 0.698094 0
M  V30 8970 C 850.079 -1.73273 -0.731982 0
M  V30 8971 O 849.437 -1.01634 -1.50134 0
M  V30 8972 C 849.485 -3.45922 1.01834 0
M  V30 8973 O 848.589 -4.12223 0.120801 0
M  V30 8974 H 847.93 -0.610729 0.260588 0
M  V30 8975 H 850.46 -1.5472 1.33876 0
M  V30 8976 H 850.47 -3.96471 0.963074 0
M  V30 8977 H 849.145 -3.61278 2.06037 0
M  V30 8978 H 847.722 -3.72177 0.232153 0
M  V30 8979 N 849.908 -0.773975 -1.37286 0
M  V30 8980 C 851.133 -0.349561 -2.04433 0
M  V30 8981 C 851.558 1.02082 -1.5799 0
M  V30 8982 O 850.916 1.65458 -0.741172 0
M  V30 8983 C 850.964 -0.404292 -3.58326 0
M  V30 8984 O 850.068 0.594447 -4.08093 0
M  V30 8985 H 849.409 -0.150959 -0.646612 0
M  V30 8986 H 851.939 -1.05079 -1.75555 0
M  V30 8987 H 851.949 -0.262378 -4.07155 0
M  V30 8988 H 850.624 -1.40403 -3.91484 0
M  V30 8989 H 849.201 0.415468 -3.70578 0
M  V30 8990 N 851.386 1.48609 -0.524698 0
M  V30 8991 C 852.316 2.32366 0.229837 0
M  V30 8992 C 853.297 1.41759 0.940129 0
M  V30 8993 O 854.482 1.7065 0.926936 0
M  V30 8994 C 851.612 3.22835 1.28043 0
M  V30 8995 C 850.566 4.22424 0.688603 0
M  V30 8996 C 849.892 5.0199 1.84146 0
M  V30 8997 C 851.192 5.21217 -0.336176 0
M  V30 8998 H 852.886 2.95698 -0.469339 0
M  V30 8999 H 850.432 1.42197 -0.227156 0
M  V30 9000 H 852.385 3.80253 1.8162 0
M  V30 9001 H 851.109 2.57492 2.00912 0
M  V30 9002 H 849.768 3.66185 0.174402 0
M  V30 9003 H 849.416 4.33076 2.5584 0
M  V30 9004 H 849.116 5.69392 1.45142 0
M  V30 9005 H 850.64 5.62259 2.38111 0
M  V30 9006 H 852.054 5.7319 0.112307 0
M  V30 9007 H 850.451 5.96642 -0.643324 0
M  V30 9008 H 851.521 4.68676 -1.24381 0
M  V30 9009 N 852.864 0.259585 1.55447 0
M  V30 9010 C 853.812 -0.6507 2.23313 0
M  V30 9011 C 854.806 -1.17014 1.22491 0
M  V30 9012 O 856.012 -1.12557 1.40467 0
M  V30 9013 H 852.387 -0.228354 0.71649 0
M  V30 9014 H 854.358 -0.0553039 2.98349 0
M  V30 9015 C 853.107 -1.83081 2.95596 0
M  V30 9016 H 852.43 -1.44027 3.72956 0
M  V30 9017 H 853.87 -2.44469 3.46426 0
M  V30 9018 C 852.329 -2.70976 2.00184 0
M  V30 9019 O 852.859 -3.70882 1.54304 0
M  V30 9020 N 851.065 -2.37813 1.67014 0
M  V30 9021 H 850.612 -1.5662 2.04519 0
M  V30 9022 H 850.57 -2.96896 1.03443 0
M  V30 9023 N 854.342 -1.57594 -0.0133615 0
M  V30 9024 C 855.305 -2.06534 -0.993799 0
M  V30 9025 C 856.305 -0.972267 -1.28077 0
M  V30 9026 O 857.495 -1.23537 -1.22818 0
M  V30 9027 C 854.627 -2.49554 -2.3224 0
M  V30 9028 H 855.82 -2.94419 -0.570741 0
M  V30 9029 H 853.373 -1.54113 -0.260546 0
M  V30 9030 H 854.108 -1.64872 -2.79263 0
M  V30 9031 H 853.893 -3.29371 -2.12737 0
M  V30 9032 H 855.383 -2.8779 -3.026 0
M  V30 9033 N 855.82 0.285905 -1.54985 0
M  V30 9034 C 856.767 1.35306 -1.86978 0
M  V30 9035 C 857.737 1.49682 -0.720046 0
M  V30 9036 O 858.922 1.64297 -0.970107 0
M  V30 9037 C 856.062 2.71059 -2.13591 0
M  V30 9038 C 855.175 2.6501 -3.41165 0
M  V30 9039 C 854.31 3.92856 -3.57544 0
M  V30 9040 C 853.349 3.81266 -4.78855 0
M  V30 9041 N 852.486 5.00919 -4.9196 0
M  V30 9042 H 857.326 1.07323 -2.78003 0
M  V30 9043 H 854.863 0.518776 -1.37649 0
M  V30 9044 H 856.821 3.50026 -2.27019 0
M  V30 9045 H 855.451 2.97271 -1.25816 0
M  V30 9046 H 854.503 1.77824 -3.36278 0
M  V30 9047 H 855.815 2.52342 -4.30262 0
M  V30 9048 H 854.969 4.80263 -3.70718 0
M  V30 9049 H 853.708 4.08377 -2.66608 0
M  V30 9050 H 852.713 2.92243 -4.65698 0
M  V30 9051 H 853.938 3.67277 -5.71213 0
M  V30 9052 H 851.884 5.16875 -4.03951 0
M  V30 9053 H 851.801 4.90732 -5.75081 0
M  V30 9054 H 853.069 5.89935 -5.09507 0
M  V30 9055 N 857.298 1.47698 0.54982 0
M  V30 9056 C 858.709 1.48474 1.13191 0
M  V30 9057 C 859.06 0.243504 1.94683 0
M  V30 9058 O 858.185 -0.651009 2.06375 0
M  V30 9059 C 858.78 2.69022 2.05944 0
M  V30 9060 C 857.339 2.72733 2.5941 0
M  V30 9061 C 856.486 2.41691 1.35944 0
M  V30 9062 H 859.437 1.55101 0.336048 0
M  V30 9063 H 859.458 2.46412 2.89934 0
M  V30 9064 H 858.97 3.59345 1.46605 0
M  V30 9065 H 857.071 1.86568 3.22526 0
M  V30 9066 H 857.184 3.73628 2.99899 0
M  V30 9067 H 855.548 1.92428 1.66864 0
M  V30 9068 H 856.331 3.34231 0.783869 0
M  V30 9069 N 858.776 -0.797141 1.35954 0
M  V30 9070 C 859.726 -1.89899 1.26184 0
M  V30 9071 C 860.71 -1.60152 0.155007 0
M  V30 9072 O 861.902 -1.72715 0.387108 0
M  V30 9073 C 859.031 -3.2699 1.04559 0
M  V30 9074 C 858.117 -3.62772 2.19675 0
M  V30 9075 N 858.508 -3.6992 3.44953 0
M  V30 9076 C 856.806 -3.92786 2.1127 0
M  V30 9077 C 857.507 -4.01718 4.20711 0
M  V30 9078 N 856.483 -4.16298 3.49567 0
M  V30 9079 H 860.285 -1.9364 2.2109 0
M  V30 9080 H 857.799 -0.992246 1.28562 0
M  V30 9081 H 859.796 -4.0578 0.956474 0
M  V30 9082 H 858.456 -3.24529 0.105467 0
M  V30 9083 H 859.467 -3.52759 3.79185 0
M  V30 9084 H 856.144 -3.98295 1.25168 0
M  V30 9085 H 857.534 -4.14237 5.29016 0
M  V30 9086 N 860.254 -1.20106 -1.0204 0
M  V30 9087 C 861.531 -0.918029 -1.72718 0
M  V30 9088 C 861.911 0.574163 -2.03142 0
M  V30 9089 O 861.259 1.53476 -1.69285 0
M  V30 9090 C 861.469 -1.78698 -2.9978 0
M  V30 9091 C 862.817 -2.02648 -3.7312 0
M  V30 9092 O 863.841 -1.75919 -3.09727 0
M  V30 9093 O 862.7 -2.47767 -4.87107 0
M  V30 9094 H 859.794 -0.342904 -0.752559 0
M  V30 9095 H 862.34 -1.30961 -1.07923 0
M  V30 9096 H 861.112 -2.79757 -2.7359 0
M  V30 9097 H 860.735 -1.39522 -3.72316 0
M  V30 9098 N 861.732 1.21287 -1.00634 0
M  V30 9099 C 862.957 1.94925 -0.708441 0
M  V30 9100 C 863.382 1.73659 0.722783 0
M  V30 9101 O 862.74 1.02429 1.49593 0
M  V30 9102 C 862.788 3.45377 -1.03667 0
M  V30 9103 O 861.892 4.12153 -0.142661 0
M  V30 9104 H 861.233 0.609338 -0.263824 0
M  V30 9105 H 863.763 1.54008 -1.34695 0
M  V30 9106 H 863.773 3.95954 -0.984086 0
M  V30 9107 H 862.448 3.6018 -2.0795 0
M  V30 9108 H 861.025 3.72048 -0.251888 0
M  V30 9109 N 863.21 0.781244 1.36873 0
M  V30 9110 C 864.14 0.188128 2.32741 0
M  V30 9111 C 865.121 -0.672326 1.56249 0
M  V30 9112 O 866.306 -0.607835 1.84442 0
M  V30 9113 C 863.436 -0.684341 3.40491 0
M  V30 9114 C 862.39 0.0755641 4.27933 0
M  V30 9115 C 861.716 -0.916968 5.26779 0
M  V30 9116 C 863.016 1.26006 5.06873 0
M  V30 9117 H 864.71 0.989016 2.82593 0
M  V30 9118 H 862.256 0.477038 1.35869 0
M  V30 9119 H 864.209 -1.10915 4.06541 0
M  V30 9120 H 862.933 -1.51785 2.89187 0
M  V30 9121 H 861.592 0.481258 3.63427 0
M  V30 9122 H 861.24 -1.74528 4.71751 0
M  V30 9123 H 860.94 -0.413 5.86147 0
M  V30 9124 H 862.464 -1.34052 5.95703 0
M  V30 9125 H 863.878 0.911425 5.66009 0
M  V30 9126 H 862.275 1.69676 5.75613 0
M  V30 9127 H 863.345 2.05948 4.38991 0
M  V30 9128 N 864.689 -1.48329 0.532571 0
M  V30 9129 C 865.966 -1.95492 -0.0650985 0
M  V30 9130 C 866.346 -1.47485 -1.51034 0
M  V30 9131 O 865.694 -0.702516 -2.17433 0
M  V30 9132 C 865.904 -3.48957 0.0548341 0
M  V30 9133 C 867.252 -4.24475 -0.103115 0
M  V30 9134 O 868.276 -3.56195 -0.0188343 0
M  V30 9135 O 867.135 -5.45781 -0.280164 0
M  V30 9136 H 864.229 -0.823327 -0.0778603 0
M  V30 9137 H 866.775 -1.58839 0.597353 0
M  V30 9138 H 865.547 -3.76628 1.06148 0
M  V30 9139 H 865.17 -3.92311 -0.64635 0
M  V30 9140 N 866.167 -0.267825 -1.55308 0
M  V30 9141 C 867.097 0.616585 -2.25212 0
M  V30 9142 C 868.078 1.16472 -1.23969 0
M  V30 9143 O 869.263 1.20021 -1.52672 0
M  V30 9144 C 866.393 1.80412 -2.96764 0
M  V30 9145 C 865.347 1.38784 -4.04874 0
M  V30 9146 C 864.673 2.65789 -4.63961 0
M  V30 9147 C 865.973 0.543415 -5.19465 0
M  V30 9148 H 867.667 0.0336257 -2.99381 0
M  V30 9149 H 865.213 0.0147328 -1.43992 0
M  V30 9150 H 867.166 2.42866 -3.44375 0
M  V30 9151 H 865.89 2.4128 -2.20118 0
M  V30 9152 H 864.549 0.786541 -3.58063 0
M  V30 9153 H 864.197 3.24899 -3.83992 0
M  V30 9154 H 863.897 2.38651 -5.36954 0
M  V30 9155 H 865.421 3.29104 -5.14318 0
M  V30 9156 H 866.835 1.07277 -5.63174 0
M  V30 9157 H 865.232 0.367219 -5.98975 0
M  V30 9158 H 866.302 -0.439534 -4.82904 0
M  V30 9159 N 867.645 1.57599 0.00500368 0
M  V30 9160 C 868.593 2.09223 1.01628 0
M  V30 9161 C 869.587 1.01113 1.35913 0
M  V30 9162 O 870.793 1.19583 1.34536 0
M  V30 9163 H 867.168 0.667999 0.345372 0
M  V30 9164 H 869.139 2.93188 0.555274 0
M  V30 9165 C 867.888 2.60674 2.30097 0
M  V30 9166 H 867.211 3.43491 2.04582 0
M  V30 9167 H 868.651 3.00479 2.99146 0
M  V30 9168 C 867.11 1.51862 3.00731 0
M  V30 9169 O 867.64 0.898651 3.91519 0
M  V30 9170 N 865.846 1.24729 2.62471 0
M  V30 9171 H 865.393 1.7533 1.88725 0
M  V30 9172 H 865.351 0.521437 3.10046 0
M  V30 9173 N 869.123 -0.277682 1.55134 0
M  V30 9174 C 870.363 -1.01761 1.77269 0
M  V30 9175 C 870.727 -1.83668 0.559465 0
M  V30 9176 O 871.928 -2.60597 0.658972 0
M  V30 9177 C 870.199 -1.88062 3.0392 0
M  V30 9178 S 871.758 -2.68383 3.47154 0
M  V30 9179 H 868.576 -0.342816 0.622895 0
M  V30 9180 H 871.178 -0.288514 1.93359 0
M  V30 9181 H 869.882 -1.26805 3.90319 0
M  V30 9182 H 869.413 -2.65299 2.90482 0
M  V30 9183 H 871.428 -3.90567 3.06059 0
M  V30 9184 N 870.601 -1.47988 -0.541979 0
M  V30 9185 C 871.878 -1.45878 -1.30303 0
M  V30 9186 C 872.258 -0.163931 -2.10463 0
M  V30 9187 O 871.606 0.854479 -2.11922 0
M  V30 9188 C 871.816 -2.71359 -2.19466 0
M  V30 9189 C 873.164 -3.19199 -2.79995 0
M  V30 9190 O 874.188 -2.72193 -2.2976 0
M  V30 9191 O 873.047 -4.00961 -3.71339 0
M  V30 9192 H 870.141 -0.582043 -0.587498 0
M  V30 9193 H 872.687 -1.60207 -0.559623 0
M  V30 9194 H 871.459 -3.57122 -1.59936 0
M  V30 9195 H 871.082 -2.59692 -3.01075 0
M  V30 9196 N 872.079 0.78992 -1.36375 0
M  V30 9197 C 873.304 1.58389 -1.33895 0
M  V30 9198 C 873.729 1.8794 0.0774934 0
M  V30 9199 O 873.087 1.4785 1.0493 0
M  V30 9200 C 873.135 2.88201 -2.16732 0
M  V30 9201 O 872.239 3.81778 -1.55946 0
M  V30 9202 H 871.58 0.480471 -0.458305 0
M  V30 9203 H 874.11 0.979119 -1.79651 0
M  V30 9204 H 874.12 3.37475 -2.29292 0
M  V30 9205 H 872.795 2.66019 -3.19698 0
M  V30 9206 H 871.372 3.40371 -1.52323 0
M  V30 9207 N 873.557 1.20646 1.01402 0
M  V30 9208 C 874.973 0.961866 1.27359 0
M  V30 9209 C 875.173 -0.357083 1.98311 0
M  V30 9210 O 874.229 -1.08498 2.28001 0
M  V30 9211 C 875.542 2.14627 2.10609 0
M  V30 9212 C 877.09 2.18753 2.23866 0
M  V30 9213 C 877.565 3.36686 3.10494 0
M  V30 9214 N 879.056 3.36716 3.18083 0
M  V30 9215 C 879.791 4.24615 3.85343 0
M  V30 9216 N 879.287 5.22697 4.54708 0
M  V30 9217 N 881.08 4.12449 3.81893 0
M  V30 9218 H 873.231 2.05481 0.537721 0
M  V30 9219 H 875.494 0.899292 0.299963 0
M  V30 9220 H 875.2 3.10159 1.65814 0
M  V30 9221 H 875.074 2.12935 3.11349 0
M  V30 9222 H 877.461 1.23782 2.67885 0
M  V30 9223 H 877.542 2.24492 1.22626 0
M  V30 9224 H 877.186 4.31945 2.67181 0
M  V30 9225 H 877.116 3.28185 4.11828 0
M  V30 9226 H 879.607 2.65728 2.68695 0
M  V30 9227 H 879.92 5.86087 5.03708 0
M  V30 9228 H 878.265 5.26631 4.53525 0
M  V30 9229 H 881.456 3.35091 3.26851 0
M  V30 9230 H 881.629 4.81162 4.34035 0
M  V30 9231 N 875.035 -1.20752 1.01276 0
M  V30 9232 C 876.312 -1.85676 0.615112 0
M  V30 9233 C 876.692 -1.90623 -0.906976 0
M  V30 9234 O 876.04 -1.41124 -1.79712 0
M  V30 9235 C 876.25 -3.2552 1.25847 0
M  V30 9236 C 877.598 -4.0184 1.37148 0
M  V30 9237 O 878.622 -3.3486 1.21438 0
M  V30 9238 O 877.481 -5.21783 1.62495 0
M  V30 9239 H 874.575 -0.799437 0.211729 0
M  V30 9240 H 877.121 -1.28372 1.10989 0
M  V30 9241 H 875.893 -3.16664 2.29869 0
M  V30 9242 H 875.516 -3.90452 0.750524 0
M  V30 9243 N 876.513 -0.788492 -1.36457 0
M  V30 9244 C 877.76 -0.360461 -1.99266 0
M  V30 9245 C 878.088 1.0676 -1.62581 0
M  V30 9246 O 877.343 1.75205 -0.871884 0
M  V30 9247 C 877.642 -0.470255 -3.54293 0
M  V30 9248 C 877.308 -1.85899 -4.10795 0
M  V30 9249 C 875.97 -2.23896 -4.25939 0
M  V30 9250 C 878.322 -2.76836 -4.41601 0
M  V30 9251 C 875.65 -3.52235 -4.69199 0
M  V30 9252 C 878.002 -4.04602 -4.86292 0
M  V30 9253 C 876.666 -4.42623 -4.99641 0
M  V30 9254 H 875.936 -0.131902 -0.729166 0
M  V30 9255 H 878.583 -1.00577 -1.62962 0
M  V30 9256 H 876.888 0.258559 -3.90946 0
M  V30 9257 H 878.585 -0.120119 -4.0082 0
M  V30 9258 H 875.175 -1.55372 -3.99447 0
M  V30 9259 H 879.359 -2.48735 -4.2947 0
M  V30 9260 H 874.615 -3.81565 -4.77722 0
M  V30 9261 H 878.789 -4.75182 -5.09092 0
M  V30 9262 H 876.416 -5.42125 -5.32921 0
M  V30 9263 N 877.991 1.48044 -0.54043 0
M  V30 9264 C 879.237 2.02797 -0.0101718 0
M  V30 9265 C 879.57 1.41565 1.32939 0
M  V30 9266 O 878.845 0.565139 1.86109 0
M  V30 9267 C 879.128 3.59959 0.100758 0
M  V30 9268 C 878.981 4.31654 -1.26471 0
M  V30 9269 C 880.3 4.32347 0.822455 0
M  V30 9270 H 877.419 0.736982 -0.00517052 0
M  V30 9271 H 880.061 1.76656 -0.69948 0
M  V30 9272 H 878.211 3.82363 0.687824 0
M  V30 9273 H 879.883 4.20639 -1.89369 0
M  V30 9274 H 878.126 3.92663 -1.84386 0
M  V30 9275 H 878.797 5.401 -1.13998 0
M  V30 9276 H 881.273 4.14835 0.324164 0
M  V30 9277 H 880.149 5.41978 0.868993 0
M  V30 9278 H 880.41 4.00369 1.87501 0
M  V30 9279 N 879.47 0.276058 1.55163 0
M  V30 9280 C 880.433 -0.597924 2.21263 0
M  V30 9281 C 881.433 -1.0806 1.19078 0
M  V30 9282 O 882.623 -0.980626 1.43977 0
M  V30 9283 C 879.755 -1.82503 2.87933 0
M  V30 9284 H 880.948 -0.0207769 2.99893 0
M  V30 9285 H 878.501 0.0266823 1.56277 0
M  V30 9286 H 879.236 -2.44266 2.13318 0
M  V30 9287 H 879.021 -1.48683 3.62816 0
M  V30 9288 H 880.511 -2.44651 3.38431 0
M  V30 9289 N 880.948 -1.576 0.00335426 0
M  V30 9290 C 881.911 -2.07576 -0.971838 0
M  V30 9291 C 882.911 -0.985796 -1.27038 0
M  V30 9292 O 884.101 -1.24833 -1.21501 0
M  V30 9293 C 881.233 -2.52003 -2.29581 0
M  V30 9294 H 882.426 -2.95008 -0.539481 0
M  V30 9295 H 879.979 -1.54381 -0.244186 0
M  V30 9296 H 880.714 -1.67825 -2.77498 0
M  V30 9297 H 880.499 -3.31609 -2.09231 0
M  V30 9298 H 881.989 -2.90983 -2.99531 0
M  V30 9299 N 882.426 0.269451 -1.5528 0
M  V30 9300 C 883.675 0.998381 -1.75258 0
M  V30 9301 C 883.988 1.87321 -0.563034 0
M  V30 9302 O 885.194 2.63719 -0.645313 0
M  V30 9303 C 883.65 1.82505 -3.10193 0
M  V30 9304 C 883.258 0.99871 -4.36726 0
M  V30 9305 C 885.002 2.54807 -3.3952 0
M  V30 9306 C 882.909 1.81997 -5.627 0
M  V30 9307 H 881.839 0.376488 -0.653278 0
M  V30 9308 H 884.49 0.253909 -1.81735 0
M  V30 9309 H 882.872 2.61061 -2.97763 0
M  V30 9310 H 884.046 0.257064 -4.60082 0
M  V30 9311 H 882.361 0.390074 -4.14569 0
M  V30 9312 H 884.958 3.16662 -4.30847 0
M  V30 9313 H 885.301 3.25273 -2.59813 0
M  V30 9314 H 885.834 1.83278 -3.53064 0
M  V30 9315 H 882.573 1.15945 -6.45164 0
M  V30 9316 H 882.093 2.53749 -5.43481 0
M  V30 9317 H 883.772 2.39274 -6.0113 0
M  V30 9318 N 883.904 1.48273 0.534124 0
M  V30 9319 C 885.153 1.55334 1.28663 0
M  V30 9320 C 885.466 0.230345 1.94239 0
M  V30 9321 O 886.672 0.179161 2.70908 0
M  V30 9322 C 885.128 2.73927 2.33435 0
M  V30 9323 C 884.736 4.12852 1.73947 0
M  V30 9324 C 886.48 2.90298 3.09722 0
M  V30 9325 C 884.387 5.22711 2.76636 0
M  V30 9326 H 883.317 0.578262 0.483869 0
M  V30 9327 H 885.968 1.74598 0.564602 0
M  V30 9328 H 884.35 2.48089 3.08655 0
M  V30 9329 H 885.524 4.48691 1.04944 0
M  V30 9330 H 883.839 4.01562 1.10167 0
M  V30 9331 H 886.436 3.69542 3.86449 0
M  V30 9332 H 886.779 1.99598 3.6533 0
M  V30 9333 H 887.312 3.16017 2.41616 0
M  V30 9334 H 884.051 6.15362 2.25852 0
M  V30 9335 H 883.571 4.91364 3.43979 0
M  V30 9336 H 885.25 5.50648 3.39699 0
M  V30 9337 N 885.382 -0.782676 1.36792 0
M  V30 9338 C 886.607 -1.57676 1.34733 0
M  V30 9339 C 887.032 -1.87979 -0.0675253 0
M  V30 9340 O 886.39 -1.48404 -1.04144 0
M  V30 9341 C 886.438 -2.87047 2.18257 0
M  V30 9342 O 885.542 -3.80946 1.57969 0
M  V30 9343 H 884.883 -0.478034 0.460846 0
M  V30 9344 H 887.413 -0.969578 1.80168 0
M  V30 9345 H 887.423 -3.36254 2.31079 0
M  V30 9346 H 886.098 -2.64319 3.21104 0
M  V30 9347 H 884.675 -3.39558 1.54126 0
M  V30 9348 N 886.86 -1.21182 -1.00761 0
M  V30 9349 C 888.109 -1.02166 -1.73911 0
M  V30 9350 C 888.422 0.445638 -1.90456 0
M  V30 9351 O 889.628 0.755132 -2.60787 0
M  V30 9352 C 888.084 -1.77936 -3.12837 0
M  V30 9353 C 887.692 -3.28819 -3.04273 0
M  V30 9354 C 889.436 -1.67319 -3.90134 0
M  V30 9355 C 887.343 -3.97089 -4.38262 0
M  V30 9356 H 886.273 -0.378665 -0.652019 0
M  V30 9357 H 888.924 -1.44891 -1.12601 0
M  V30 9358 H 887.306 -1.28003 -3.74742 0
M  V30 9359 H 888.48 -3.86035 -2.51622 0
M  V30 9360 H 886.795 -3.39949 -2.40465 0
M  V30 9361 H 889.392 -2.15659 -4.8928 0
M  V30 9362 H 889.735 -0.630959 -4.11491 0
M  V30 9363 H 890.268 -2.14716 -3.34876 0
M  V30 9364 H 887.007 -5.01503 -4.22107 0
M  V30 9365 H 886.527 -3.44662 -4.90885 0
M  V30 9366 H 888.206 -4.01854 -5.07072 0
M  V30 9367 N 888.338 1.20213 -1.01915 0
M  V30 9368 C 889.749 1.7136 -0.741131 0
M  V30 9369 C 890.1 1.81705 0.740107 0
M  V30 9370 O 889.225 1.48139 1.57746 0
M  V30 9371 C 889.82 3.11231 -1.33869 0
M  V30 9372 C 888.379 3.59677 -1.10948 0
M  V30 9373 C 887.526 2.36809 -1.4428 0
M  V30 9374 H 890.477 1.05191 -1.1883 0
M  V30 9375 H 890.498 3.7342 -0.730585 0
M  V30 9376 H 890.01 3.03669 -2.41675 0
M  V30 9377 H 888.111 3.72568 -0.0492052 0
M  V30 9378 H 888.224 4.44351 -1.79134 0
M  V30 9379 H 886.588 2.39674 -0.861881 0
M  V30 9380 H 887.371 2.31886 -2.53148 0
M  V30 9381 N 889.816 0.795718 1.36037 0
M  V30 9382 C 891.044 0.383153 2.03321 0
M  V30 9383 C 891.459 -1.00246 1.59988 0
M  V30 9384 O 890.816 -1.64406 0.792265 0
M  V30 9385 C 890.867 0.444467 3.58757 0
M  V30 9386 O 890.588 1.77544 4.00512 0
M  V30 9387 C 892.089 0.0233291 4.43294 0
M  V30 9388 H 889.309 0.157061 0.652359 0
M  V30 9389 H 891.853 1.07632 1.73884 0
M  V30 9390 H 890.008 -0.200341 3.86882 0
M  V30 9391 H 890.422 1.73065 4.95125 0
M  V30 9392 H 891.896 0.117361 5.51875 0
M  V30 9393 H 892.373 -1.03007 4.2695 0
M  V30 9394 H 892.979 0.64087 4.20444 0
M  V30 9395 N 891.294 -1.47756 0.548274 0
M  V30 9396 C 892.705 -1.8636 0.112547 0
M  V30 9397 C 893.056 -1.45589 -1.31523 0
M  V30 9398 O 892.181 -0.854874 -1.98799 0
M  V30 9399 C 892.776 -3.38224 0.197473 0
M  V30 9400 C 891.335 -3.75954 -0.183163 0
M  V30 9401 C 890.482 -2.7181 0.549059 0
M  V30 9402 H 893.433 -1.394 0.758506 0
M  V30 9403 H 893.454 -3.75957 -0.586217 0
M  V30 9404 H 892.966 -3.67868 1.23673 0
M  V30 9405 H 891.067 -3.51926 -1.22387 0
M  V30 9406 H 891.18 -4.78801 0.169178 0
M  V30 9407 H 889.544 -2.54699 -0.00682862 0
M  V30 9408 H 890.327 -3.04296 1.5893 0
M  V30 9409 N 892.772 -0.284283 -1.55015 0
M  V30 9410 C 894.183 0.211681 -1.85496 0
M  V30 9411 C 894.534 1.54735 -1.2063 0
M  V30 9412 O 893.659 2.10594 -0.497918 0
M  V30 9413 C 894.254 0.390864 -3.36538 0
M  V30 9414 C 892.813 0.831055 -3.67111 0
M  V30 9415 C 891.96 -0.0703581 -2.77211 0
M  V30 9416 H 894.911 -0.505803 -1.50424 0
M  V30 9417 H 894.932 1.22803 -3.60138 0
M  V30 9418 H 894.444 -0.581409 -3.8372 0
M  V30 9419 H 892.545 1.81447 -3.25434 0
M  V30 9420 H 892.658 0.662026 -4.74504 0
M  V30 9421 H 891.022 0.447528 -2.50737 0
M  V30 9422 H 891.805 -1.03868 -3.2721 0
M  V30 9423 N 894.251 1.57596 -0.0117121 0
M  V30 9424 C 895.214 2.08089 0.960816 0
M  V30 9425 C 896.214 0.992519 1.26514 0
M  V30 9426 O 897.404 1.25475 1.20837 0
M  V30 9427 C 894.536 2.53217 2.28241 0
M  V30 9428 H 895.729 2.9529 0.523829 0
M  V30 9429 H 893.282 1.54508 0.235995 0
M  V30 9430 H 894.017 1.69294 2.76604 0
M  V30 9431 H 893.802 3.32714 2.0747 0
M  V30 9432 H 895.292 2.92568 2.97983 0
M  V30 9433 N 895.729 -0.261212 1.5542 0
M  V30 9434 C 896.677 -1.34298 1.89913 0
M  V30 9435 C 897.671 -1.50547 0.776665 0
M  V30 9436 O 898.877 -1.52191 0.961139 0
M  V30 9437 H 895.252 -0.4494 0.602946 0
M  V30 9438 H 897.223 -1.02464 2.80256 0
M  V30 9439 C 895.972 -2.69423 2.19788 0
M  V30 9440 H 895.295 -2.57715 3.05652 0
M  V30 9441 H 896.735 -3.44026 2.47835 0
M  V30 9442 C 895.194 -3.21423 1.00939 0
M  V30 9443 O 895.724 -4.00921 0.250034 0
M  V30 9444 N 893.93 -2.7926 0.803883 0
M  V30 9445 H 893.477 -2.14724 1.42308 0
M  V30 9446 H 893.435 -3.14398 0.0103257 0
M  V30 9447 N 897.207 -1.48554 -0.526253 0
M  V30 9448 C 898.435 -1.60429 -1.30652 0
M  V30 9449 C 898.85 -0.265963 -1.86917 0
M  V30 9450 O 898.207 0.745262 -1.6659 0
M  V30 9451 C 898.258 -2.65377 -2.45473 0
M  V30 9452 O 897.979 -3.94017 -1.91527 0
M  V30 9453 C 899.48 -2.87726 -3.37237 0
M  V30 9454 H 896.7 -0.540817 -0.397187 0
M  V30 9455 H 899.244 -1.94409 -0.634461 0
M  V30 9456 H 897.399 -2.34246 -3.08557 0
M  V30 9457 H 897.813 -4.51623 -2.66715 0
M  V30 9458 H 899.287 -3.64951 -4.14144 0
M  V30 9459 H 899.764 -1.96688 -3.92696 0
M  V30 9460 H 900.37 -3.20176 -2.79942 0
M  V30 9461 N 898.685 0.775411 -1.37205 0
M  V30 9462 C 900.096 1.35147 -1.28811 0
M  V30 9463 C 900.447 1.96089 0.0659168 0
M  V30 9464 O 899.572 1.93558 0.967684 0
M  V30 9465 C 900.167 2.45715 -2.33258 0
M  V30 9466 C 898.726 2.99099 -2.2851 0
M  V30 9467 C 897.873 1.72286 -2.17285 0
M  V30 9468 H 900.824 0.575954 -1.4788 0
M  V30 9469 H 900.845 3.251 -1.97712 0
M  V30 9470 H 900.357 2.01331 -3.31795 0
M  V30 9471 H 898.458 3.47868 -1.33485 0
M  V30 9472 H 898.571 3.54962 -3.21774 0
M  V30 9473 H 896.935 1.95068 -1.6377 0
M  V30 9474 H 897.718 1.3001 -3.1773 0
M  V30 9475 N 900.163 1.21714 1.00117 0
M  V30 9476 C 901.44 0.945391 1.71236 0
M  V30 9477 C 901.82 -0.541772 2.0403 0
M  V30 9478 O 901.168 -1.50763 1.71705 0
M  V30 9479 C 901.378 1.83444 2.96899 0
M  V30 9480 C 902.726 2.08558 3.69849 0
M  V30 9481 O 903.75 1.80824 3.06889 0
M  V30 9482 O 902.609 2.55485 4.83104 0
M  V30 9483 H 899.703 0.354834 0.747009 0
M  V30 9484 H 902.249 1.32661 1.05825 0
M  V30 9485 H 901.021 2.84075 2.69105 0
M  V30 9486 H 900.644 1.45428 3.70049 0
M  V30 9487 N 901.641 -1.19671 1.02551 0
M  V30 9488 C 902.551 -2.26441 0.613329 0
M  V30 9489 C 903.567 -1.70375 -0.353339 0
M  V30 9490 O 904.743 -2.0028 -0.212064 0
M  V30 9491 C 901.808 -3.46684 -0.0329028 0
M  V30 9492 C 900.869 -4.17945 0.980837 0
M  V30 9493 C 900.102 -5.32448 0.36535 0
M  V30 9494 O 900.325 -5.64291 -0.832596 0
M  V30 9495 O 899.259 -5.92012 1.08652 0
M  V30 9496 H 903.085 -2.63932 1.50246 0
M  V30 9497 H 900.67 -1.2646 0.795502 0
M  V30 9498 H 902.552 -4.1956 -0.393395 0
M  V30 9499 H 901.227 -3.1105 -0.896089 0
M  V30 9500 H 900.134 -3.47204 1.39286 0
M  V30 9501 H 901.467 -4.57542 1.81428 0
M  V30 9502 N 903.119 -0.802921 -1.35613 0
M  V30 9503 C 904.344 -0.392846 -2.03645 0
M  V30 9504 C 904.769 0.987075 -1.6012 0
M  V30 9505 O 904.127 1.63849 -0.776101 0
M  V30 9506 C 904.175 -0.480208 -3.57388 0
M  V30 9507 O 903.279 0.507751 -4.09262 0
M  V30 9508 H 902.62 -0.16464 -0.643265 0
M  V30 9509 H 905.15 -1.08779 -1.73287 0
M  V30 9510 H 905.16 -0.348683 -4.06507 0
M  V30 9511 H 903.835 -1.48675 -3.88418 0
M  V30 9512 H 902.412 0.336769 -3.71376 0
M  V30 9513 N 904.597 1.47463 -0.556102 0
M  V30 9514 C 905.529 2.28046 0.22968 0
M  V30 9515 C 906.542 1.3694 0.880409 0
M  V30 9516 O 907.731 1.61773 0.754447 0
M  V30 9517 C 904.831 3.11165 1.34273 0
M  V30 9518 C 904.004 4.30225 0.789004 0
M  V30 9519 C 903.063 4.94948 1.78641 0
M  V30 9520 O 902.089 5.53372 1.33297 0
M  V30 9521 N 903.291 4.89543 3.11974 0
M  V30 9522 H 906.056 2.96125 -0.461558 0
M  V30 9523 H 903.617 1.5708 -0.392105 0
M  V30 9524 H 905.609 3.51331 2.00869 0
M  V30 9525 H 904.179 2.45337 1.93722 0
M  V30 9526 H 903.399 3.94163 -0.0536971 0
M  V30 9527 H 904.687 5.07238 0.398378 0
M  V30 9528 H 904.085 4.43275 3.51459 0
M  V30 9529 H 902.642 5.33732 3.74131 0
M  V30 9530 N 906.075 0.2925 1.54862 0
M  V30 9531 C 907.486 -0.201841 1.85606 0
M  V30 9532 C 907.837 -1.54093 1.21449 0
M  V30 9533 O 906.962 -2.10327 0.509079 0
M  V30 9534 C 907.557 -0.373011 3.3674 0
M  V30 9535 C 906.116 -0.811574 3.67547 0
M  V30 9536 C 905.263 0.0850583 2.7717 0
M  V30 9537 H 908.214 0.513774 1.50153 0
M  V30 9538 H 908.235 -1.20892 3.60785 0
M  V30 9539 H 907.747 0.601751 3.83407 0
M  V30 9540 H 905.848 -1.79719 3.26392 0
M  V30 9541 H 905.961 -0.636853 4.74848 0
M  V30 9542 H 904.325 -0.434224 2.50971 0
M  V30 9543 H 905.108 1.05602 3.26654 0
M  V30 9544 N 907.553 -1.57587 0.0200696 0
M  V30 9545 C 908.778 -1.96124 -0.674547 0
M  V30 9546 C 909.203 -0.896068 -1.65385 0
M  V30 9547 O 908.561 0.143925 -1.80728 0
M  V30 9548 C 908.609 -3.3376 -1.36517 0
M  V30 9549 O 907.713 -3.29483 -2.48022 0
M  V30 9550 H 907.054 -0.639719 -0.177919 0
M  V30 9551 H 909.584 -2.04447 0.0792317 0
M  V30 9552 H 909.594 -3.69785 -1.72403 0
M  V30 9553 H 908.269 -4.10832 -0.647265 0
M  V30 9554 H 906.846 -3.05162 -2.14314 0
M  V30 9555 N 909.032 0.252966 -1.55557 0
M  V30 9556 C 910.257 1.0038 -1.8149 0
M  V30 9557 C 910.682 1.78397 -0.596318 0
M  V30 9558 O 910.04 1.7551 0.454535 0
M  V30 9559 C 910.088 1.9222 -3.05096 0
M  V30 9560 O 909.192 3.01302 -2.81587 0
M  V30 9561 H 908.533 0.285949 -0.599274 0
M  V30 9562 H 911.063 0.275795 -2.02733 0
M  V30 9563 H 911.073 2.338 -3.34368 0
M  V30 9564 H 909.748 1.34852 -3.93431 0
M  V30 9565 H 908.325 2.63894 -2.63466 0
M  V30 9566 N 910.51 1.48831 0.518367 0
M  V30 9567 C 911.921 1.50842 1.10016 0
M  V30 9568 C 912.272 0.284744 1.94123 0
M  V30 9569 O 911.397 -0.607088 2.0771 0
M  V30 9570 C 911.992 2.73329 2.00191 0
M  V30 9571 C 910.551 2.78175 2.53566 0
M  V30 9572 C 909.698 2.4452 1.30786 0
M  V30 9573 H 912.649 1.55779 0.303073 0
M  V30 9574 H 912.67 2.52506 2.84642 0
M  V30 9575 H 912.182 3.62374 1.3895 0
M  V30 9576 H 910.283 1.93368 3.18496 0
M  V30 9577 H 910.396 3.79905 2.91906 0
M  V30 9578 H 908.76 1.95924 1.62744 0
M  V30 9579 H 909.543 3.35819 0.712797 0
M  V30 9580 N 911.988 -0.768124 1.37614 0
M  V30 9581 C 913.236 -1.52379 1.3276 0
M  V30 9582 C 913.557 -1.94809 -0.0863564 0
M  V30 9583 O 912.827 -1.66568 -1.03112 0
M  V30 9584 H 911.407 -0.565179 0.488448 0
M  V30 9585 H 914.069 -0.913974 1.72141 0
M  V30 9586 H 913.165 -2.4215 1.96901 0
M  V30 9587 N 913.466 -1.22244 -0.994698 0
M  V30 9588 C 914.714 -1.04384 -1.73056 0
M  V30 9589 C 915.035 0.422204 -1.90374 0
M  V30 9590 O 914.305 1.30383 -1.46209 0
M  V30 9591 H 912.885 -0.383263 -0.641185 0
M  V30 9592 H 915.547 -1.53725 -1.1981 0
M  V30 9593 H 914.643 -1.52021 -2.72573 0
M  V30 9594 N 914.944 1.19125 -1.03184 0
M  V30 9595 C 916.192 1.8851 -0.728587 0
M  V30 9596 C 916.513 1.80195 0.74531 0
M  V30 9597 O 915.783 1.21437 1.5372 0
M  V30 9598 H 914.363 0.69784 -0.266511 0
M  V30 9599 H 917.025 1.44607 -1.3067 0
M  V30 9600 H 916.121 2.9477 -1.02554 0
M  V30 9601 N 916.422 0.810101 1.35185 0
M  V30 9602 C 917.67 0.391343 1.98275 0
M  V30 9603 C 917.991 -1.04592 1.64577 0
M  V30 9604 O 917.261 -1.72417 0.93001 0
M  V30 9605 H 915.841 0.141715 0.733434 0
M  V30 9606 H 918.503 1.03672 1.6504 0
M  V30 9607 H 917.599 0.49991 3.0807 0
M  V30 9608 N 917.9 -1.47166 0.563914 0
M  V30 9609 C 919.316 -1.58018 0.224173 0
M  V30 9610 C 919.516 -1.56163 -1.27339 0
M  V30 9611 O 918.572 -1.4686 -2.05398 0
M  V30 9612 C 919.885 -2.88236 0.856762 0
M  V30 9613 C 921.433 -3.01833 0.82861 0
M  V30 9614 C 921.908 -4.34761 1.44039 0
M  V30 9615 N 923.399 -4.41413 1.40388 0
M  V30 9616 C 924.134 -5.42845 1.84681 0
M  V30 9617 N 923.63 -6.51052 2.3686 0
M  V30 9618 N 925.423 -5.33931 1.75711 0
M  V30 9619 H 917.574 -1.46615 1.53681 0
M  V30 9620 H 919.837 -0.698195 0.64127 0
M  V30 9621 H 919.543 -2.95349 1.90949 0
M  V30 9622 H 919.417 -3.75537 0.353766 0
M  V30 9623 H 921.804 -2.94312 -0.215451 0
M  V30 9624 H 921.885 -2.16056 1.36943 0
M  V30 9625 H 921.529 -4.43037 2.48355 0
M  V30 9626 H 921.459 -5.1928 0.874953 0
M  V30 9627 H 923.95 -3.63811 1.02227 0
M  V30 9628 H 924.263 -7.24633 2.68564 0
M  V30 9629 H 922.608 -6.51924 2.40875 0
M  V30 9630 H 925.799 -4.48295 1.34718 0
M  V30 9631 H 925.972 -6.12841 2.10547 0
M  V30 9632 N 919.378 -0.300708 -1.54705 0
M  V30 9633 C 920.341 0.562648 -2.22187 0
M  V30 9634 C 921.341 1.06152 -1.20782 0
M  V30 9635 O 922.531 0.957596 -1.45519 0
M  V30 9636 C 919.663 1.77899 -2.908 0
M  V30 9637 H 920.856 -0.0269361 -2.99888 0
M  V30 9638 H 918.409 -0.0515412 -1.56215 0
M  V30 9639 H 919.144 2.40841 -2.17177 0
M  V30 9640 H 918.929 1.42892 -3.65136 0
M  V30 9641 H 920.419 2.39236 -3.42281 0
M  V30 9642 N 920.856 1.57574 -0.0284266 0
M  V30 9643 C 922.104 1.91393 0.649079 0
M  V30 9644 C 922.425 0.905368 1.72708 0
M  V30 9645 O 921.695 -0.0532107 1.95828 0
M  V30 9646 H 920.275 0.70646 0.24274 0
M  V30 9647 H 922.937 1.94752 -0.076066 0
M  V30 9648 H 922.033 2.91988 1.10226 0
M  V30 9649 N 922.334 -0.244713 1.55689 0
M  V30 9650 C 923.559 -0.994157 1.8202 0
M  V30 9651 C 923.984 -1.78079 0.60577 0
M  V30 9652 O 923.342 -1.75748 -0.445221 0
M  V30 9653 C 923.39 -1.90599 3.06111 0
M  V30 9654 O 922.494 -2.99804 2.8318 0
M  V30 9655 H 921.835 -0.282767 0.600782 0
M  V30 9656 H 924.365 -0.26504 2.02876 0
M  V30 9657 H 924.375 -2.32023 3.35603 0
M  V30 9658 H 923.05 -1.32763 3.9414 0
M  V30 9659 H 921.627 -2.62493 2.64862 0
M  V30 9660 N 923.813 -1.49104 -0.510467 0
M  V30 9661 C 925.041 -1.61806 -1.28944 0
M  V30 9662 C 925.456 -0.285774 -1.86625 0
M  V30 9663 O 924.813 0.727551 -1.67371 0
M  V30 9664 C 924.864 -2.67966 -2.42645 0
M  V30 9665 O 924.585 -3.96026 -1.87337 0
M  V30 9666 C 926.086 -2.91286 -3.34166 0
M  V30 9667 H 923.306 -0.544999 -0.391429 0
M  V30 9668 H 925.85 -1.95071 -0.613805 0
M  V30 9669 H 924.005 -2.37505 -3.06056 0
M  V30 9670 H 924.419 -4.54427 -2.61909 0
M  V30 9671 H 925.893 -3.69323 -4.1025 0
M  V30 9672 H 926.37 -2.00842 -3.90588 0
M  V30 9673 H 926.976 -3.23127 -2.76531 0
M  V30 9674 N 925.291 0.760815 -1.38019 0
M  V30 9675 C 926.221 1.88811 -1.37377 0
M  V30 9676 C 927.202 1.68388 -0.240737 0
M  V30 9677 O 928.387 1.89086 -0.442739 0
M  V30 9678 C 925.517 3.26244 -1.1909 0
M  V30 9679 C 924.471 3.61254 -2.29521 0
M  V30 9680 C 923.797 4.97346 -1.96345 0
M  V30 9681 C 925.097 3.66874 -3.71753 0
M  V30 9682 H 926.791 1.89606 -2.31711 0
M  V30 9683 H 924.337 0.910818 -1.11535 0
M  V30 9684 H 926.29 4.04755 -1.17267 0
M  V30 9685 H 925.014 3.2591 -0.212152 0
M  V30 9686 H 923.673 2.85057 -2.30517 0
M  V30 9687 H 923.321 4.93564 -0.969728 0
M  V30 9688 H 923.021 5.21739 -2.703 0
M  V30 9689 H 924.545 5.78244 -1.96129 0
M  V30 9690 H 925.959 4.35514 -3.72828 0
M  V30 9691 H 924.356 4.02772 -4.44853 0
M  V30 9692 H 925.426 2.67273 -4.0459 0
M  V30 9693 N 926.769 1.22769 0.988202 0
M  V30 9694 C 928.185 0.988665 1.2529 0
M  V30 9695 C 928.385 -0.314938 1.99024 0
M  V30 9696 O 927.441 -1.03637 2.30251 0
M  V30 9697 C 928.754 2.19046 2.06009 0
M  V30 9698 C 930.302 2.23452 2.19176 0
M  V30 9699 C 930.777 3.43196 3.03283 0
M  V30 9700 N 932.268 3.43387 3.10869 0
M  V30 9701 C 933.003 4.32693 3.7625 0
M  V30 9702 N 932.499 5.32224 4.43519 0
M  V30 9703 N 934.292 4.20457 3.73058 0
M  V30 9704 H 926.443 2.06575 0.494014 0
M  V30 9705 H 928.706 0.905452 0.28082 0
M  V30 9706 H 928.412 3.13607 1.59197 0
M  V30 9707 H 928.286 2.19492 3.06763 0
M  V30 9708 H 930.673 1.29436 2.65199 0
M  V30 9709 H 930.754 2.27042 1.17836 0
M  V30 9710 H 930.398 4.37515 2.57959 0
M  V30 9711 H 930.328 3.36847 4.04774 0
M  V30 9712 H 932.819 2.71368 2.62998 0
M  V30 9713 H 933.132 5.9664 4.91163 0
M  V30 9714 H 931.477 5.36133 4.42252 0
M  V30 9715 H 934.668 3.41949 3.19669 0
M  V30 9716 H 934.841 4.90261 4.23731 0
M  V30 9717 N 928.247 -1.18576 1.03814 0
M  V30 9718 C 929.195 -2.24166 0.620678 0
M  V30 9719 C 930.189 -1.65718 -0.351282 0
M  V30 9720 O 931.395 -1.78665 -0.218848 0
M  V30 9721 H 927.77 -0.729522 0.182487 0
M  V30 9722 H 929.741 -2.56686 1.52166 0
M  V30 9723 C 928.49 -3.477 -0.00307331 0
M  V30 9724 H 927.813 -3.92969 0.735874 0
M  V30 9725 H 929.253 -4.23214 -0.257988 0
M  V30 9726 C 927.712 -3.12757 -1.2524 0
M  V30 9727 O 928.242 -3.26261 -2.34344 0
M  V30 9728 N 926.448 -2.67104 -1.14471 0
M  V30 9729 H 925.995 -2.56316 -0.256873 0
M  V30 9730 H 925.953 -2.44096 -1.98153 0
M  V30 9731 N 929.725 -0.817259 -1.34754 0
M  V30 9732 C 930.95 -0.414423 -2.03217 0
M  V30 9733 C 931.375 0.970037 -1.61158 0
M  V30 9734 O 930.733 1.63016 -0.793436 0
M  V30 9735 C 930.781 -0.518087 -3.56859 0
M  V30 9736 O 929.885 0.464314 -4.09778 0
M  V30 9737 H 929.226 -0.171454 -0.641482 0
M  V30 9738 H 931.756 -1.10611 -1.72123 0
M  V30 9739 H 931.766 -0.391779 -4.06115 0
M  V30 9740 H 930.441 -1.52786 -3.86819 0
M  V30 9741 H 929.018 0.297361 -3.71712 0
M  V30 9742 N 931.203 1.46865 -0.571711 0
M  V30 9743 C 932.428 2.07323 -0.0564655 0
M  V30 9744 C 932.853 1.41938 1.23431 0
M  V30 9745 O 932.211 0.499334 1.74288 0
M  V30 9746 C 932.259 3.6044 0.107339 0
M  V30 9747 O 931.363 3.95558 1.1665 0
M  V30 9748 H 930.704 0.661475 -0.0578465 0
M  V30 9749 H 933.234 1.88669 -0.791524 0
M  V30 9750 H 933.244 4.06767 0.316987 0
M  V30 9751 H 931.919 4.07425 -0.835348 0
M  V30 9752 H 930.496 3.60957 0.936189 0
M  V30 9753 N 932.681 0.308908 1.54543 0
M  V30 9754 C 933.611 -0.556657 2.26768 0
M  V30 9755 C 934.592 -1.13145 1.27013 0
M  V30 9756 O 935.777 -1.15931 1.558 0
M  V30 9757 C 932.907 -1.72481 3.01443 0
M  V30 9758 C 931.861 -1.28001 4.08411 0
M  V30 9759 C 931.187 -2.53395 4.70845 0
M  V30 9760 C 932.487 -0.405497 5.20724 0
M  V30 9761 H 934.181 0.0457618 2.99365 0
M  V30 9762 H 931.727 0.0234495 1.43981 0
M  V30 9763 H 933.68 -2.3365 3.50693 0
M  V30 9764 H 932.404 -2.35359 2.26437 0
M  V30 9765 H 931.063 -0.69133 3.60022 0
M  V30 9766 H 930.711 -3.14604 3.92471 0
M  V30 9767 H 930.411 -2.2433 5.43093 0
M  V30 9768 H 931.935 -3.15352 5.22863 0
M  V30 9769 H 933.349 -0.923076 5.6582 0
M  V30 9770 H 931.746 -0.208282 5.99738 0
M  V30 9771 H 932.816 0.567412 4.81569 0
M  V30 9772 N 934.159 -1.57557 0.0367827 0
M  V30 9773 C 935.407 -1.91735 -0.63892 0
M  V30 9774 C 935.728 -0.914515 -1.72226 0
M  V30 9775 O 934.998 0.0428248 -1.95853 0
M  V30 9776 H 933.578 -0.707738 -0.23899 0
M  V30 9777 H 936.24 -1.94708 0.0863931 0
M  V30 9778 H 935.336 -2.92568 -1.08676 0
M  V30 9779 N 935.637 0.236453 -1.55816 0
M  V30 9780 C 936.865 0.980295 -1.82203 0
M  V30 9781 C 937.28 1.7854 -0.613926 0
M  V30 9782 O 936.637 1.77661 0.417491 0
M  V30 9783 C 936.688 1.90982 -3.06933 0
M  V30 9784 O 936.409 1.13728 -4.23081 0
M  V30 9785 C 937.91 2.76879 -3.46198 0
M  V30 9786 H 935.13 0.28799 -0.606055 0
M  V30 9787 H 937.674 0.256182 -2.02889 0
M  V30 9788 H 935.829 2.58808 -2.88266 0
M  V30 9789 H 936.243 1.76694 -4.93842 0
M  V30 9790 H 937.717 3.37831 -4.36548 0
M  V30 9791 H 938.194 3.48522 -2.67262 0
M  V30 9792 H 938.8 2.1449 -3.67252 0
M  V30 9793 N 937.115 1.49373 0.502552 0
M  V30 9794 C 938.526 1.52 1.0841 0
M  V30 9795 C 938.877 0.305317 1.9381 0
M  V30 9796 O 938.002 -0.585023 2.08342 0
M  V30 9797 C 938.597 2.75437 1.97281 0
M  V30 9798 C 937.156 2.80848 2.50602 0
M  V30 9799 C 936.303 2.45894 1.28186 0
M  V30 9800 H 939.254 1.56092 0.286533 0
M  V30 9801 H 939.275 2.55511 2.81947 0
M  V30 9802 H 938.787 3.63827 1.35098 0
M  V30 9803 H 936.888 1.96735 3.16427 0
M  V30 9804 H 937.001 3.82979 2.8786 0
M  V30 9805 H 935.365 1.97639 1.60657 0
M  V30 9806 H 936.148 3.36556 0.677139 0
M  V30 9807 N 938.594 -0.753485 1.38421 0
M  V30 9808 C 939.834 -1.52544 1.3605 0
M  V30 9809 C 940.198 -1.91937 -0.0493257 0
M  V30 9810 O 941.399 -2.6807 -0.197908 0
M  V30 9811 C 939.67 -2.74432 2.28958 0
M  V30 9812 S 941.229 -3.64297 2.44607 0
M  V30 9813 H 938.047 -0.522017 0.48272 0
M  V30 9814 H 940.649 -0.884503 1.74347 0
M  V30 9815 H 939.353 -2.43602 3.30282 0
M  V30 9816 H 938.884 -3.43471 1.91811 0
M  V30 9817 H 940.899 -4.67245 1.67022 0
M  V30 9818 N 940.072 -1.23292 -0.981677 0
M  V30 9819 C 941.002 -1.03738 -2.09191 0
M  V30 9820 C 941.983 0.0453041 -1.7004 0
M  V30 9821 O 943.168 -0.119092 -1.93834 0
M  V30 9822 C 940.298 -0.626426 -3.41604 0
M  V30 9823 C 939.252 -1.65631 -3.94652 0
M  V30 9824 C 938.578 -1.10084 -5.23245 0
M  V30 9825 C 939.878 -3.04903 -4.24066 0
M  V30 9826 H 941.572 -1.966 -2.25807 0
M  V30 9827 H 939.118 -0.946656 -1.0851 0
M  V30 9828 H 941.071 -0.476689 -4.18695 0
M  V30 9829 H 939.795 0.337873 -3.24848 0
M  V30 9830 H 938.454 -1.79402 -3.19704 0
M  V30 9831 H 938.102 -0.127562 -5.02838 0
M  V30 9832 H 937.802 -1.78896 -5.59705 0
M  V30 9833 H 939.326 -0.962928 -6.02959 0
M  V30 9834 H 940.74 -2.94441 -4.91912 0
M  V30 9835 H 939.137 -3.70941 -4.71724 0
M  V30 9836 H 940.207 -3.53991 -3.31389 0
M  V30 9837 N 941.55 1.18024 -1.04442 0
M  V30 9838 C 942.797 1.88098 -0.750022 0
M  V30 9839 C 943.125 1.80583 0.722489 0
M  V30 9840 O 942.38 1.20329 1.54335 0
M  V30 9841 C 942.679 3.37834 -1.16631 0
M  V30 9842 C 942.345 3.65553 -2.63974 0
M  V30 9843 C 941.007 3.72827 -3.04226 0
M  V30 9844 C 943.359 3.77634 -3.59224 0
M  V30 9845 C 940.687 3.89666 -4.38608 0
M  V30 9846 C 943.039 3.9599 -4.9333 0
M  V30 9847 C 941.703 4.01501 -5.33248 0
M  V30 9848 H 940.973 0.6883 -0.274452 0
M  V30 9849 H 943.62 1.39671 -1.31012 0
M  V30 9850 H 941.925 3.88266 -0.525071 0
M  V30 9851 H 943.622 3.90402 -0.915827 0
M  V30 9852 H 940.212 3.6051 -2.31798 0
M  V30 9853 H 944.396 3.71342 -3.2927 0
M  V30 9854 H 939.652 3.92178 -4.69048 0
M  V30 9855 H 943.826 4.0428 -5.67037 0
M  V30 9856 H 941.453 4.14301 -6.37384 0
M  V30 9857 N 943.028 0.824394 1.34319 0
M  V30 9858 C 944.439 0.471802 1.8064 0
M  V30 9859 C 944.79 -1.00793 1.6833 0
M  V30 9860 O 943.915 -1.78447 1.22416 0
M  V30 9861 C 944.51 0.849609 3.27974 0
M  V30 9862 C 943.069 0.549365 3.72369 0
M  V30 9863 C 942.216 1.06573 2.56003 0
M  V30 9864 H 945.167 1.01443 1.22045 0
M  V30 9865 H 945.188 0.153968 3.80188 0
M  V30 9866 H 944.7 1.92663 3.36902 0
M  V30 9867 H 942.801 -0.518182 3.68979 0
M  V30 9868 H 942.914 1.09446 4.66432 0
M  V30 9869 H 941.278 0.487214 2.49997 0
M  V30 9870 H 942.061 2.14923 2.677 0
M  V30 9871 N 944.506 -1.46559 0.579492 0
M  V30 9872 C 945.416 -2.34066 -0.15816 0
M  V30 9873 C 946.432 -1.49556 -0.88932 0
M  V30 9874 O 947.608 -1.82434 -0.853226 0
M  V30 9875 C 944.673 -3.26683 -1.161 0
M  V30 9876 C 943.734 -4.27092 -0.434855 0
M  V30 9877 C 942.967 -5.15283 -1.38992 0
M  V30 9878 O 943.19 -5.06345 -2.62623 0
M  V30 9879 O 942.124 -5.95099 -0.902253 0
M  V30 9880 H 945.95 -2.98488 0.560234 0
M  V30 9881 H 943.535 -1.45482 0.339918 0
M  V30 9882 H 945.417 -3.8383 -1.73932 0
M  V30 9883 H 944.092 -2.64862 -1.86091 0
M  V30 9884 H 942.999 -3.73641 0.185224 0
M  V30 9885 H 944.332 -4.9169 0.224031 0
M  V30 9886 N 945.984 -0.3171 -1.54377 0
M  V30 9887 C 947.212 0.289558 -2.04864 0
M  V30 9888 C 947.627 1.46284 -1.19359 0
M  V30 9889 O 946.984 1.81135 -0.222795 0
M  V30 9890 C 947.035 0.730273 -3.54047 0
M  V30 9891 O 946.756 -0.396325 -4.36304 0
M  V30 9892 C 948.257 1.40041 -4.20599 0
M  V30 9893 H 945.477 0.0605836 -0.668259 0
M  V30 9894 H 948.021 -0.461411 -1.99227 0
M  V30 9895 H 946.176 1.43123 -3.59992 0
M  V30 9896 H 946.59 -0.0502901 -5.24476 0
M  V30 9897 H 948.064 1.65979 -5.26455 0
M  V30 9898 H 948.541 2.34565 -3.71316 0
M  V30 9899 H 949.147 0.742206 -4.18774 0
M  V30 9900 N 947.462 1.57535 -0.0451378 0
M  V30 9901 C 948.708 1.92736 0.630921 0
M  V30 9902 C 949.041 0.923265 1.70849 0
M  V30 9903 O 948.316 -0.0516512 1.94431 0
M  V30 9904 C 948.599 3.38348 1.23259 0
M  V30 9905 C 948.452 4.49503 0.16349 0
M  V30 9906 C 949.771 3.84233 2.14599 0
M  V30 9907 H 946.89 0.700884 0.227883 0
M  V30 9908 H 949.532 1.89706 -0.10567 0
M  V30 9909 H 947.682 3.41061 1.86037 0
M  V30 9910 H 949.354 4.58919 -0.46808 0
M  V30 9911 H 947.597 4.30802 -0.509166 0
M  V30 9912 H 948.268 5.48457 0.624382 0
M  V30 9913 H 950.744 3.83358 1.6179 0
M  V30 9914 H 949.62 4.86781 2.53644 0
M  V30 9915 H 949.881 3.20646 3.04366 0
M  V30 9916 N 948.94 -0.228186 1.55939 0
M  V30 9917 C 949.887 -1.28274 1.91871 0
M  V30 9918 C 950.857 -1.46906 0.775103 0
M  V30 9919 O 952.042 -1.60583 1.03042 0
M  V30 9920 C 949.182 -2.62945 2.23504 0
M  V30 9921 C 948.295 -2.52166 3.50766 0
M  V30 9922 C 947.43 -3.79316 3.71878 0
M  V30 9923 C 946.469 -3.63231 4.92676 0
M  V30 9924 N 945.606 -4.82315 5.10212 0
M  V30 9925 H 950.446 -0.96931 2.81795 0
M  V30 9926 H 947.983 -0.467331 1.39479 0
M  V30 9927 H 949.941 -3.41359 2.39854 0
M  V30 9928 H 948.571 -2.92397 1.36762 0
M  V30 9929 H 947.623 -1.65221 3.42646 0
M  V30 9930 H 948.935 -2.36199 4.39331 0
M  V30 9931 H 948.089 -4.66173 3.88288 0
M  V30 9932 H 946.828 -3.982 2.81581 0
M  V30 9933 H 945.833 -2.74757 4.76223 0
M  V30 9934 H 947.058 -3.45823 5.84451 0
M  V30 9935 H 945.004 -5.01526 4.22856 0
M  V30 9936 H 944.921 -4.6905 5.92898 0
M  V30 9937 H 946.189 -5.70618 5.31051 0
M  V30 9938 N 950.418 -1.49637 -0.494624 0
M  V30 9939 C 951.667 -1.58691 -1.24499 0
M  V30 9940 C 951.98 -0.281763 -1.9356 0
M  V30 9941 O 953.186 -0.250925 -2.70338 0
M  V30 9942 C 951.642 -2.8002 -2.26091 0
M  V30 9943 C 951.25 -4.17318 -1.6294 0
M  V30 9944 C 952.994 -2.98407 -3.01916 0
M  V30 9945 C 950.901 -5.29862 -2.62679 0
M  V30 9946 H 949.831 -0.590888 -0.468367 0
M  V30 9947 H 952.482 -1.76034 -0.518112 0
M  V30 9948 H 950.864 -2.56185 -3.01969 0
M  V30 9949 H 952.038 -4.51315 -0.930108 0
M  V30 9950 H 950.353 -4.04342 -0.994819 0
M  V30 9951 H 952.95 -3.79658 -3.76516 0
M  V30 9952 H 953.293 -2.09214 -3.5991 0
M  V30 9953 H 953.826 -3.22312 -2.33152 0
M  V30 9954 H 950.565 -6.21134 -2.09458 0
M  V30 9955 H 950.085 -5.00311 -3.3083 0
M  V30 9956 H 951.764 -5.59461 -3.2498 0
M  V30 9957 N 951.896 0.746133 -1.38819 0
M  V30 9958 C 953.121 1.54049 -1.38866 0
M  V30 9959 C 953.546 1.88092 0.0176624 0
M  V30 9960 O 952.904 1.51113 1.00173 0
M  V30 9961 C 952.952 2.8116 -2.25791 0
M  V30 9962 O 952.056 3.76623 -1.68014 0
M  V30 9963 H 951.397 0.465648 -0.473359 0
M  V30 9964 H 953.927 0.921469 -1.82675 0
M  V30 9965 H 953.937 3.30009 -2.39913 0
M  V30 9966 H 952.612 2.55713 -3.27999 0
M  V30 9967 H 951.189 3.35352 -1.63074 0
M  V30 9968 N 953.375 1.23811 0.975125 0
M  V30 9969 C 954.6 1.10109 1.75757 0
M  V30 9970 C 955.025 -0.342922 1.84948 0
M  V30 9971 O 954.383 -1.24814 1.31496 0
M  V30 9972 C 954.431 1.73724 3.15994 0
M  V30 9973 O 953.535 1.00297 4.00018 0
M  V30 9974 H 952.876 0.385627 0.540544 0
M  V30 9975 H 955.406 1.63971 1.22372 0
M  V30 9976 H 955.416 1.79178 3.6655 0
M  V30 9977 H 954.091 2.78794 3.0862 0
M  V30 9978 H 952.668 1.02575 3.58515 0
M  V30 9979 N 954.853 -1.17469 1.05066 0
M  V30 9980 C 955.783 -2.23635 0.671552 0
M  V30 9981 C 956.764 -1.66867 -0.33006 0
M  V30 9982 O 957.949 -1.93084 -0.207933 0
M  V30 9983 C 955.079 -3.47272 0.0441845 0
M  V30 9984 C 954.033 -4.16854 0.97042 0
M  V30 9985 C 953.359 -5.34299 0.206998 0
M  V30 9986 C 954.659 -4.69225 2.29401 0
M  V30 9987 H 956.353 -2.55602 1.55911 0
M  V30 9988 H 953.899 -1.2286 0.751101 0
M  V30 9989 H 955.852 -4.20756 -0.23282 0
M  V30 9990 H 954.576 -3.14568 -0.878311 0
M  V30 9991 H 953.235 -3.4528 1.23197 0
M  V30 9992 H 952.883 -4.97846 -0.718222 0
M  V30 9993 H 952.583 -5.81792 0.82416 0
M  V30 9994 H 954.107 -6.10568 -0.0627525 0
M  V30 9995 H 955.521 -5.34353 2.077 0
M  V30 9996 H 953.918 -5.27291 2.86503 0
M  V30 9997 H 954.988 -3.86102 2.93348 0
M  V30 9998 O 956.37 -0.966437 -1.29392 0
M  V30 9999 H 957.061 -0.604752 -1.84018 0
M  V30 END ATOM
M  V30 BEGIN BOND
M  V30 END BOND
M  V30 END CTAB
M  END
$$$$
