drugbank_target|A5HEI4 AtpH (DB04464)
 OpenBabel12092120463D

  0  0  0     0  0            999 V3000
M  V30 BEGIN CTAB
M  V30 COUNTS 1182 1188 0 0 0
M  V30 BEGIN ATOM
M  V30 1 H -0.908 1.98254 -0.117106 0
M  V30 2 N 0 1.576 0 0
M  V30 3 C 0.933 2.03868 1.02534 0
M  V30 4 C 1.911 0.928543 1.3348 0
M  V30 5 O 3.095 1.19667 1.45644 0
M  V30 6 C 0.222 2.43627 2.35294 0
M  V30 7 C -0.732 3.65373 2.2001 0
M  V30 8 S 0.101 5.13292 1.52614 0
M  V30 9 C 1.257 5.56322 2.86805 0
M  V30 10 H 1.49 2.90518 0.631377 0
M  V30 11 H -0.977 1.52953 0.210867 0
M  V30 12 H 0.981 2.67203 3.11629 0
M  V30 13 H -0.358 1.57376 2.7183 0
M  V30 14 H -1.165 3.90944 3.18086 0
M  V30 15 H -1.563 3.418 1.51819 0
M  V30 16 H 0.729 5.58782 3.83104 0
M  V30 17 H 1.672 6.56266 2.65933 0
M  V30 18 H 2.08 4.83886 2.90714 0
M  V30 19 N 1.4781 -0.272755 1.55222 0
M  V30 20 C 2.3881 -1.35918 1.91216 0
M  V30 21 C 3.4041 -1.54026 0.809436 0
M  V30 22 O 4.5801 -1.68148 1.10852 0
M  V30 23 C 1.6451 -2.69834 2.17693 0
M  V30 24 C 0.7061 -2.6047 3.41253 0
M  V30 25 C -0.0609 -3.88 3.66458 0
M  V30 26 O 0.1621 -4.88693 2.94169 0
M  V30 27 O -0.9039 -3.88189 4.59992 0
M  V30 28 H 2.9221 -1.0839 2.83699 0
M  V30 29 H 0.5071 -0.471301 1.41771 0
M  V30 30 H 2.3891 -3.49017 2.36147 0
M  V30 31 H 1.0641 -2.97148 1.28392 0
M  V30 32 H -0.0289 -1.79663 3.28134 0
M  V30 33 H 1.3041 -2.38106 4.30774 0
M  V30 34 N 2.9562 -1.48159 -0.537278 0
M  V30 35 C 4.1812 -1.59707 -1.32319 0
M  V30 36 C 4.6062 -0.254859 -1.86365 0
M  V30 37 O 3.9642 0.772378 -1.64024 0
M  V30 38 C 4.0122 -2.6412 -2.45505 0
M  V30 39 O 3.1162 -2.20774 -3.48328 0
M  V30 40 H 2.4572 -0.535791 -0.392204 0
M  V30 41 H 4.9872 -1.94092 -0.647268 0
M  V30 42 H 4.9972 -2.85166 -2.91795 0
M  V30 43 H 3.6722 -3.61567 -2.05528 0
M  V30 44 H 2.2492 -2.09911 -3.08207 0
M  V30 45 N 4.4343 0.785586 -1.36625 0
M  V30 46 C 5.3823 1.91978 -1.31329 0
M  V30 47 C 6.3763 1.68162 -0.204416 0
M  V30 48 O 7.5823 1.76122 -0.371645 0
M  V30 49 H 3.9573 0.631087 -0.408942 0
M  V30 50 H 5.9283 1.93562 -2.27104 0
M  V30 51 C 4.6773 3.29055 -1.12329 0
M  V30 52 H 4.0003 3.4795 -1.96903 0
M  V30 53 H 5.4403 4.08756 -1.12671 0
M  V30 54 C 3.8993 3.36461 0.171861 0
M  V30 55 O 4.4293 3.84576 1.16035 0
M  V30 56 N 2.6353 2.89782 0.217846 0
M  V30 57 H 2.1823 2.50819 -0.587183 0
M  V30 58 H 2.1403 2.95119 1.08408 0
M  V30 59 N 5.9124 1.20967 1.01018 0
M  V30 60 C 6.8424 0.988272 2.11555 0
M  V30 61 C 7.8234 -0.0849778 1.69888 0
M  V30 62 O 9.0084 0.0738202 1.9406 0
M  V30 63 C 6.1384 0.546528 3.42973 0
M  V30 64 C 5.0924 1.56375 3.9841 0
M  V30 65 C 4.4184 0.97842 5.25672 0
M  V30 66 C 5.7184 2.94922 4.31066 0
M  V30 67 H 7.4124 1.91276 2.30334 0
M  V30 68 H 4.9584 0.921073 1.1069 0
M  V30 69 H 6.9114 0.378839 4.19694 0
M  V30 70 H 5.6354 -0.413598 3.23971 0
M  V30 71 H 4.2944 1.71891 3.23804 0
M  V30 72 H 3.9424 0.0101688 5.02999 0
M  V30 73 H 3.6424 1.65784 5.63728 0
M  V30 74 H 5.1664 0.821939 6.05043 0
M  V30 75 H 6.5804 2.8288 4.9865 0
M  V30 76 H 4.9774 3.5983 4.80253 0
M  V30 77 H 6.0474 3.4616 3.39561 0
M  V30 78 N 7.3905 -1.2043 1.01659 0
M  V30 79 C 8.6185 -1.93777 0.725132 0
M  V30 80 C 9.0335 -1.74772 -0.714166 0
M  V30 81 O 8.3905 -1.06169 -1.4844 0
M  V30 82 C 8.4415 -3.45876 1.05129 0
M  V30 83 O 8.1625 -3.6426 2.43406 0
M  V30 84 C 9.6635 -4.36368 0.780891 0
M  V30 85 H 6.8835 -0.615901 0.266284 0
M  V30 86 H 9.4275 -1.52922 1.35776 0
M  V30 87 H 7.5825 -3.8461 0.464065 0
M  V30 88 H 7.9965 -4.58246 2.55169 0
M  V30 89 H 9.4705 -5.41743 1.05918 0
M  V30 90 H 9.9475 -4.38275 -0.284937 0
M  V30 91 H 10.5535 -4.03296 1.35027 0
M  V30 92 N 8.8686 -0.792821 -1.36206 0
M  V30 93 C 10.0966 -0.378825 -2.03402 0
M  V30 94 C 10.5116 1.00586 -1.59774 0
M  V30 95 O 9.8686 1.64574 -0.788764 0
M  V30 96 C 9.9196 -0.43683 -3.58851 0
M  V30 97 O 9.6406 -1.76691 -4.00889 0
M  V30 98 C 11.1416 -0.0138943 -4.43298 0
M  V30 99 H 8.3616 -0.155673 -0.652692 0
M  V30 100 H 10.9056 -1.07261 -1.74113 0
M  V30 101 H 9.0606 0.208575 -3.86838 0
M  V30 102 H 9.4746 -1.72011 -4.95492 0
M  V30 103 H 10.9486 -0.105615 -5.51899 0
M  V30 104 H 11.4256 1.03915 -4.2673 0
M  V30 105 H 12.0316 -0.63192 -4.20579 0
M  V30 106 N 10.3467 1.47872 -0.545128 0
M  V30 107 C 11.3097 2.28337 0.198717 0
M  V30 108 C 12.3097 1.36255 0.853888 0
M  V30 109 O 13.4997 1.59003 0.711606 0
M  V30 110 C 10.6317 3.15585 1.28915 0
M  V30 111 H 11.8247 2.95567 -0.507941 0
M  V30 112 H 9.3777 1.53362 -0.301616 0
M  V30 113 H 10.1127 2.53019 2.02859 0
M  V30 114 H 9.8977 3.83337 0.824309 0
M  V30 115 H 11.3877 3.76243 1.81194 0
M  V30 116 N 11.8248 0.280983 1.55075 0
M  V30 117 C 12.7878 -0.590896 2.21452 0
M  V30 118 C 13.7878 -1.07682 1.19421 0
M  V30 119 O 14.9778 -0.97605 1.44288 0
M  V30 120 C 12.1098 -1.81587 2.88511 0
M  V30 121 H 13.3028 -0.0112554 2.99898 0
M  V30 122 H 10.8558 0.0316438 1.56268 0
M  V30 123 H 11.5908 -2.43587 2.14093 0
M  V30 124 H 11.3758 -1.4753 3.63287 0
M  V30 125 H 12.8658 -2.43575 3.39206 0
M  V30 126 N 13.3029 -1.57598 0.00835791 0
M  V30 127 C 14.5279 -1.95617 -0.689103 0
M  V30 128 C 14.9529 -0.883753 -1.66046 0
M  V30 129 O 14.3109 0.157352 -1.80616 0
M  V30 130 C 14.3589 -3.32736 -1.38994 0
M  V30 131 O 13.4629 -3.27631 -2.50463 0
M  V30 132 H 12.8039 -0.638379 -0.182668 0
M  V30 133 H 15.3339 -2.045 0.064036 0
M  V30 134 H 15.3439 -3.68494 -1.75147 0
M  V30 135 H 14.0189 -4.1034 -0.677778 0
M  V30 136 H 12.5959 -3.03561 -2.16576 0
M  V30 137 N 14.781 0.264519 -1.55364 0
M  V30 138 C 16.027 0.99646 -1.76631 0
M  V30 139 C 16.36 1.85632 -0.570478 0
M  V30 140 O 15.635 1.89647 0.43175 0
M  V30 141 C 15.918 1.87187 -3.07625 0
M  V30 142 C 15.771 1.04138 -4.37579 0
M  V30 143 C 17.09 2.85749 -3.34717 0
M  V30 144 H 14.209 0.360841 -0.642622 0
M  V30 145 H 16.851 0.268218 -1.88097 0
M  V30 146 H 15.001 2.49279 -2.9798 0
M  V30 147 H 16.673 0.440517 -4.59192 0
M  V30 148 H 14.916 0.345115 -4.32425 0
M  V30 149 H 15.587 1.68729 -5.2558 0
M  V30 150 H 18.063 2.33793 -3.4421 0
M  V30 151 H 16.939 3.44136 -4.27623 0
M  V30 152 H 17.2 3.61311 -2.54768 0
M  V30 153 N 16.2591 1.48442 0.529413 0
M  V30 154 C 17.5081 1.55742 1.28169 0
M  V30 155 C 17.8211 0.236511 1.94165 0
M  V30 156 O 19.0271 0.187761 2.7085 0
M  V30 157 C 17.4831 2.74667 2.32564 0
M  V30 158 C 17.0911 4.13402 1.72636 0
M  V30 159 C 18.8351 2.9128 3.08798 0
M  V30 160 C 16.7421 5.23587 2.74975 0
M  V30 161 H 15.6721 0.579796 0.48203 0
M  V30 162 H 18.3231 1.74776 0.559056 0
M  V30 163 H 16.7051 2.49067 3.07866 0
M  V30 164 H 17.8791 4.49022 1.03519 0
M  V30 165 H 16.1941 4.0191 1.08892 0
M  V30 166 H 18.7911 3.70767 3.85274 0
M  V30 167 H 19.1341 2.00757 3.64695 0
M  V30 168 H 19.6671 3.16782 2.40611 0
M  V30 169 H 16.4061 6.16076 2.23897 0
M  V30 170 H 15.9261 4.92454 3.42417 0
M  V30 171 H 17.6051 5.51724 3.37949 0
M  V30 172 N 17.7372 -0.778329 1.37039 0
M  V30 173 C 18.7002 -1.87301 1.32102 0
M  V30 174 C 19.7002 -1.59198 0.226405 0
M  V30 175 O 20.8902 -1.67403 0.481861 0
M  V30 176 C 18.0222 -3.24309 1.05055 0
M  V30 177 H 19.2152 -1.93093 2.29467 0
M  V30 178 H 16.7682 -0.977358 1.21973 0
M  V30 179 H 17.5032 -3.24196 0.0819373 0
M  V30 180 H 17.2882 -3.46098 1.84279 0
M  V30 181 H 18.7782 -4.04382 1.04234 0
M  V30 182 N 19.2153 -1.21501 -1.00376 0
M  V30 183 C 20.1783 -0.976927 -2.07337 0
M  V30 184 C 21.1783 0.0525322 -1.60714 0
M  V30 185 O 22.3683 -0.184869 -1.73216 0
M  V30 186 C 19.5003 -0.473423 -3.37597 0
M  V30 187 H 20.6933 -1.92587 -2.29892 0
M  V30 188 H 18.2463 -1.03217 -1.17371 0
M  V30 189 H 18.9813 0.480379 -3.20722 0
M  V30 190 H 18.7663 -1.216 -3.72768 0
M  V30 191 H 20.2563 -0.32675 -4.1632 0
M  V30 192 N 20.6934 1.19889 -1.02296 0
M  V30 193 C 21.6564 2.21116 -0.603351 0
M  V30 194 C 22.6564 1.5738 0.329884 0
M  V30 195 O 23.8464 1.73802 0.117702 0
M  V30 196 C 20.9784 3.40696 0.117992 0
M  V30 197 H 22.1714 2.59754 -1.49893 0
M  V30 198 H 19.7244 1.33463 -0.813468 0
M  V30 199 H 20.4594 3.07569 1.0282 0
M  V30 200 H 20.2444 3.88188 -0.552511 0
M  V30 201 H 21.7344 4.15692 0.398696 0
M  V30 202 N 22.1715 0.800033 1.35784 0
M  V30 203 C 23.1015 0.220184 2.3246 0
M  V30 204 C 24.0825 -0.65073 1.57161 0
M  V30 205 O 25.2675 -0.582359 1.85263 0
M  V30 206 C 22.3975 -0.637353 3.41402 0
M  V30 207 C 21.3515 0.134531 4.27789 0
M  V30 208 C 20.6775 -0.844285 5.27992 0
M  V30 209 C 21.9775 1.32979 5.05088 0
M  V30 210 H 23.6715 1.02787 2.81203 0
M  V30 211 H 21.2175 0.495717 1.35199 0
M  V30 212 H 23.1705 -1.05302 4.08031 0
M  V30 213 H 21.8945 -1.47785 2.91251 0
M  V30 214 H 20.5535 0.531296 3.6273 0
M  V30 215 H 20.2015 -1.68011 4.74111 0
M  V30 216 H 19.9015 -0.332184 5.8666 0
M  V30 217 H 21.4255 -1.2583 5.97494 0
M  V30 218 H 22.8395 0.98934 5.64699 0
M  V30 219 H 21.2365 1.77593 5.7322 0
M  V30 220 H 22.3065 2.11978 4.36111 0
M  V30 221 N 23.6496 -1.47581 0.552962 0
M  V30 222 C 24.6126 -2.28439 -0.186605 0
M  V30 223 C 25.6126 -1.36706 -0.84665 0
M  V30 224 O 26.8026 -1.59378 -0.703164 0
M  V30 225 C 23.9346 -3.16264 -1.2724 0
M  V30 226 H 25.1276 -2.95294 0.523609 0
M  V30 227 H 22.6806 -1.532 0.309745 0
M  V30 228 H 23.4156 -2.54091 -2.01514 0
M  V30 229 H 23.2006 -3.83769 -0.803968 0
M  V30 230 H 24.6906 -3.77198 -1.79196 0
M  V30 231 N 25.1277 -0.289203 -1.54924 0
M  V30 232 C 26.3737 0.323998 -2.00195 0
M  V30 233 C 26.7067 1.54441 -1.17735 0
M  V30 234 O 25.9817 1.92875 -0.250878 0
M  V30 235 C 26.2647 0.692276 -3.53383 0
M  V30 236 C 26.1177 -0.536457 -4.46589 0
M  V30 237 C 27.4367 1.52335 -4.12895 0
M  V30 238 H 24.5557 0.116289 -0.727768 0
M  V30 239 H 27.1977 -0.398954 -1.85764 0
M  V30 240 H 25.3477 1.30822 -3.65811 0
M  V30 241 H 27.0197 -1.17499 -4.46085 0
M  V30 242 H 25.2627 -1.17192 -4.1767 0
M  V30 243 H 25.9337 -0.234806 -5.515 0
M  V30 244 H 28.4097 1.00302 -4.0383 0
M  V30 245 H 27.2857 1.74982 -5.20262 0
M  V30 246 H 27.5467 2.50886 -3.64018 0
M  V30 247 N 26.6058 1.57591 -0.0167156 0
M  V30 248 C 27.8538 1.90906 0.663285 0
M  V30 249 C 28.1748 0.892509 1.73376 0
M  V30 250 O 27.4448 -0.0677623 1.95783 0
M  V30 251 H 26.0248 0.704637 0.247983 0
M  V30 252 H 28.6868 1.94803 -0.0615909 0
M  V30 253 H 27.7828 2.9116 1.12393 0
M  V30 254 N 28.0839 -0.256276 1.55502 0
M  V30 255 C 29.3329 -0.983486 1.76098 0
M  V30 256 C 29.6459 -1.86837 0.578896 0
M  V30 257 O 30.8519 -2.63163 0.667648 0
M  V30 258 C 29.3079 -1.79868 3.1173 0
M  V30 259 C 28.9159 -0.961648 4.37557 0
M  V30 260 C 30.6599 -2.51919 3.41668 0
M  V30 261 C 28.5669 -1.77219 5.64223 0
M  V30 262 H 27.4969 -0.370936 0.656447 0
M  V30 263 H 30.1479 -0.238492 1.81944 0
M  V30 264 H 28.5299 -2.58527 2.99966 0
M  V30 265 H 29.7039 -0.218048 4.60284 0
M  V30 266 H 28.0189 -0.354913 4.14885 0
M  V30 267 H 30.6159 -3.12998 4.33516 0
M  V30 268 H 30.9589 -3.23059 2.62562 0
M  V30 269 H 31.4919 -1.80278 3.54605 0
M  V30 270 H 28.2309 -1.10471 6.46124 0
M  V30 271 H 27.7509 -2.49132 5.45613 0
M  V30 272 H 29.4299 -2.34169 6.03137 0
M  V30 273 N 29.562 -1.4872 -0.521534 0
M  V30 274 C 30.81 -1.56857 -1.27437 0
M  V30 275 C 31.131 -0.247982 -1.93417 0
M  V30 276 O 30.401 0.731151 -1.81744 0
M  V30 277 H 28.981 -0.577885 -0.473347 0
M  V30 278 H 31.643 -1.85233 -0.606205 0
M  V30 279 H 30.739 -2.35402 -2.0492 0
M  V30 280 N 31.0401 0.771051 -1.3745 0
M  V30 281 C 32.2651 1.56529 -1.36065 0
M  V30 282 C 32.6901 1.88029 0.0515859 0
M  V30 283 O 32.0481 1.49282 1.02882 0
M  V30 284 C 32.0961 2.85187 -2.20683 0
M  V30 285 O 31.2001 3.79593 -1.61193 0
M  V30 286 H 30.5411 0.47411 -0.464883 0
M  V30 287 H 33.0711 0.954269 -1.80983 0
M  V30 288 H 33.0811 3.34283 -2.33921 0
M  V30 289 H 31.7561 2.61588 -3.23334 0
M  V30 290 H 30.3331 3.38239 -1.56999 0
M  V30 291 N 32.5182 1.22032 0.997298 0
M  V30 292 C 33.7672 1.03637 1.73038 0
M  V30 293 C 34.0802 -0.429475 1.90827 0
M  V30 294 O 35.2862 -0.732995 2.61418 0
M  V30 295 C 33.7422 1.80582 3.11317 0
M  V30 296 C 33.3502 3.31387 3.01474 0
M  V30 297 C 35.0942 1.70621 3.88701 0
M  V30 298 C 33.0012 4.00791 4.3488 0
M  V30 299 H 31.9312 0.384179 0.648785 0
M  V30 300 H 34.5822 1.4584 1.11368 0
M  V30 301 H 32.9642 1.31175 3.73643 0
M  V30 302 H 34.1382 3.88155 2.4834 0
M  V30 303 H 32.4532 3.41976 2.37575 0
M  V30 304 H 35.0502 2.19799 4.87434 0
M  V30 305 H 35.3932 0.665823 4.10941 0
M  V30 306 H 35.9262 2.17547 3.33044 0
M  V30 307 H 32.6652 5.05064 4.1784 0
M  V30 308 H 32.1852 3.48811 4.87945 0
M  V30 309 H 33.8642 4.06139 5.03647 0
M  V30 310 N 33.9963 -1.19345 1.0293 0
M  V30 311 C 35.2443 -1.88665 0.724574 0
M  V30 312 C 35.5653 -1.80036 -0.749144 0
M  V30 313 O 34.8353 -1.2111 -1.53978 0
M  V30 314 H 33.4153 -0.698406 0.265025 0
M  V30 315 H 36.0773 -1.44885 1.30362 0
M  V30 316 H 35.1733 -2.94987 1.01926 0
M  V30 317 N 35.4744 -0.807222 -1.35358 0
M  V30 318 C 36.8854 -0.44876 -1.81226 0
M  V30 319 C 37.2364 1.02929 -1.67033 0
M  V30 320 O 36.3614 1.79991 -1.20133 0
M  V30 321 C 36.9564 -0.807774 -3.2903 0
M  V30 322 C 35.5154 -0.501901 -3.73039 0
M  V30 323 C 34.6624 -1.03304 -2.57339 0
M  V30 324 H 37.6134 -0.998808 -1.23327 0
M  V30 325 H 37.6344 -0.10554 -3.80354 0
M  V30 326 H 37.1464 -1.88357 -3.39328 0
M  V30 327 H 35.2474 0.565128 -3.68289 0
M  V30 328 H 35.3604 -1.03497 -4.67787 0
M  V30 329 H 33.7244 -0.455339 -2.50597 0
M  V30 330 H 34.5074 -2.11496 -2.70415 0
M  V30 331 N 36.9525 1.47285 -0.560781 0
M  V30 332 C 38.2005 2.02064 -0.0379868 0
M  V30 333 C 38.5215 1.43711 1.31803 0
M  V30 334 O 37.7915 0.61362 1.86042 0
M  V30 335 H 36.3715 0.746918 -0.0110531 0
M  V30 336 H 39.0335 1.80648 -0.731598 0
M  V30 337 H 38.1295 3.12064 0.0474463 0
M  V30 338 N 38.4306 0.297415 1.54768 0
M  V30 339 C 39.3606 -0.573494 2.26348 0
M  V30 340 C 40.3416 -1.14085 1.26169 0
M  V30 341 O 41.5266 -1.17086 1.54934 0
M  V30 342 C 38.6566 -1.74716 3.00153 0
M  V30 343 C 37.6106 -1.31032 4.07449 0
M  V30 344 C 36.9366 -2.56887 4.68949 0
M  V30 345 C 38.2366 -0.444183 5.20408 0
M  V30 346 H 39.9306 0.0235131 2.99391 0
M  V30 347 H 37.4766 0.0127488 1.43994 0
M  V30 348 H 39.4296 -2.3625 3.48947 0
M  V30 349 H 38.1536 -2.37035 2.24682 0
M  V30 350 H 36.8126 -0.718066 3.59499 0
M  V30 351 H 36.4606 -3.17512 3.90122 0
M  V30 352 H 36.1606 -2.2836 5.41411 0
M  V30 353 H 37.6846 -3.19229 5.20505 0
M  V30 354 H 39.0986 -0.9651 5.65118 0
M  V30 355 H 37.4956 -0.252846 5.99567 0
M  V30 356 H 38.5656 0.531609 4.81977 0
M  V30 357 N 39.9087 -1.5758 0.0250728 0
M  V30 358 C 41.1567 -1.91255 -0.653151 0
M  V30 359 C 41.4777 -0.901691 -1.729 0
M  V30 360 O 40.7477 0.0573785 -1.95816 0
M  V30 361 H 39.3277 -0.705942 -0.244243 0
M  V30 362 H 41.9897 -1.94767 0.0719209 0
M  V30 363 H 41.0857 -2.91752 -1.10847 0
M  V30 364 N 41.3868 0.248026 -1.55636 0
M  V30 365 C 42.3188 1.32993 -1.8667 0
M  V30 366 C 43.3318 1.44345 -0.752877 0
M  V30 367 O 44.5208 1.45715 -1.03098 0
M  V30 368 C 41.6208 2.70863 -2.03682 0
M  V30 369 C 40.7938 2.81792 -3.34532 0
M  V30 370 C 39.8528 4.005 -3.41301 0
M  V30 371 O 38.8788 3.9008 -4.14519 0
M  V30 372 N 40.0808 5.13618 -2.70512 0
M  V30 373 H 42.8458 1.06707 -2.8006 0
M  V30 374 H 40.4068 0.438129 -1.55859 0
M  V30 375 H 42.3988 3.48612 -2.05553 0
M  V30 376 H 40.9688 2.89862 -1.17041 0
M  V30 377 H 40.1888 1.90729 -3.44987 0
M  V30 378 H 41.4768 2.86043 -4.20781 0
M  V30 379 H 40.8748 5.24975 -2.10755 0
M  V30 380 H 39.4318 5.89505 -2.78077 0
M  V30 381 N 42.8649 1.48995 0.513639 0
M  V30 382 C 44.1129 1.57531 1.26604 0
M  V30 383 C 44.4339 0.258236 1.93283 0
M  V30 384 O 43.7039 -0.721502 1.8213 0
M  V30 385 H 42.2839 0.580387 0.470276 0
M  V30 386 H 44.9459 1.85552 0.596373 0
M  V30 387 H 44.0419 2.36486 2.03669 0
M  V30 388 N 44.343 -0.763751 1.37857 0
M  V30 389 C 45.275 -1.88664 1.30148 0
M  V30 390 C 46.288 -1.61365 0.215685 0
M  V30 391 O 47.477 -1.72134 0.472459 0
M  V30 392 C 44.577 -3.24075 0.991396 0
M  V30 393 C 43.75 -3.78958 2.18426 0
M  V30 394 C 42.809 -4.92862 1.8432 0
M  V30 395 O 41.835 -5.08027 2.56704 0
M  V30 396 N 43.037 -5.75071 0.792081 0
M  V30 397 H 45.802 -1.95791 2.26905 0
M  V30 398 H 43.363 -0.943226 1.31586 0
M  V30 399 H 45.355 -3.97804 0.743935 0
M  V30 400 H 43.925 -3.12399 0.112122 0
M  V30 401 H 43.145 -2.96913 2.59299 0
M  V30 402 H 44.433 -4.12357 2.98058 0
M  V30 403 H 43.831 -5.65375 0.191595 0
M  V30 404 H 42.388 -6.48991 0.60449 0
M  V30 405 N 45.8211 -1.22559 -0.990812 0
M  V30 406 C 46.7841 -0.998863 -2.0629 0
M  V30 407 C 47.7841 0.0354834 -1.60761 0
M  V30 408 O 48.9741 -0.203231 -1.7301 0
M  V30 409 C 46.1061 -0.509203 -3.37076 0
M  V30 410 H 47.2991 -1.95014 -2.27837 0
M  V30 411 H 44.8521 -1.04456 -1.16269 0
M  V30 412 H 45.5871 0.446335 -3.21214 0
M  V30 413 H 45.3721 -1.25547 -3.71457 0
M  V30 414 H 46.8621 -0.370888 -4.1595 0
M  V30 415 N 47.2992 1.18797 -1.03562 0
M  V30 416 C 48.2622 2.20464 -0.626769 0
M  V30 417 C 49.2622 1.57721 0.313173 0
M  V30 418 O 50.4522 1.73917 0.0992615 0
M  V30 419 C 47.5842 3.40802 0.0818498 0
M  V30 420 H 48.7772 2.58149 -1.5264 0
M  V30 421 H 46.3302 1.32593 -0.827578 0
M  V30 422 H 47.0652 3.08642 0.995518 0
M  V30 423 H 46.8502 3.8758 -0.593652 0
M  V30 424 H 48.3402 4.16092 0.354584 0
M  V30 425 N 48.7773 0.814389 1.34928 0
M  V30 426 C 50.0253 0.397636 1.9815 0
M  V30 427 C 50.3463 -1.04069 1.64908 0
M  V30 428 O 49.6163 -1.72121 0.93548 0
M  V30 429 H 48.1963 0.144043 0.732981 0
M  V30 430 H 50.8583 1.04195 1.6471 0
M  V30 431 H 49.9543 0.509688 3.0791 0
M  V30 432 N 50.2554 -1.46986 0.568584 0
M  V30 433 C 51.1874 -2.28233 -0.210337 0
M  V30 434 C 52.2004 -1.37682 -0.868767 0
M  V30 435 O 53.3894 -1.62406 -0.740705 0
M  V30 436 C 50.4894 -3.12293 -1.3163 0
M  V30 437 C 49.6624 -4.30878 -0.7525 0
M  V30 438 C 48.7214 -4.96445 -1.74439 0
M  V30 439 O 47.7474 -5.54482 -1.286 0
M  V30 440 N 48.9494 -4.92171 -3.07812 0
M  V30 441 H 51.7144 -2.95723 0.486648 0
M  V30 442 H 49.2754 -1.56742 0.405409 0
M  V30 443 H 51.2674 -3.53022 -1.97883 0
M  V30 444 H 49.8374 -2.46971 -1.91636 0
M  V30 445 H 49.0574 -3.94104 0.0871128 0
M  V30 446 H 50.3454 -5.07558 -0.35536 0
M  V30 447 H 49.7434 -4.46239 -3.47688 0
M  V30 448 H 48.3004 -5.36884 -3.69592 0
M  V30 449 N 51.7335 -0.305618 -1.54608 0
M  V30 450 C 52.6965 0.555591 -2.22364 0
M  V30 451 C 53.6965 1.05768 -1.21119 0
M  V30 452 O 54.8865 0.952972 -1.45822 0
M  V30 453 C 52.0185 1.76974 -2.91364 0
M  V30 454 H 53.2115 -0.0364572 -2.99878 0
M  V30 455 H 50.7645 -0.0565007 -1.56198 0
M  V30 456 H 51.4995 2.40151 -2.17941 0
M  V30 457 H 51.2845 1.41732 -3.65588 0
M  V30 458 H 52.7745 2.38148 -3.43038 0
M  V30 459 N 53.2116 1.57565 -0.0334293 0
M  V30 460 C 54.4576 1.92262 0.645226 0
M  V30 461 C 54.7906 0.910543 1.71531 0
M  V30 462 O 54.0656 -0.066099 1.94388 0
M  V30 463 C 54.3486 3.37422 1.2577 0
M  V30 464 C 54.2016 4.49369 0.196891 0
M  V30 465 C 55.5206 3.82628 2.17449 0
M  V30 466 H 52.6396 0.699171 0.233085 0
M  V30 467 H 55.2816 1.89779 -0.0915694 0
M  V30 468 H 53.4316 3.39669 1.88566 0
M  V30 469 H 55.1036 4.59254 -0.433962 0
M  V30 470 H 53.3466 4.31168 -0.477137 0
M  V30 471 H 54.0176 5.47978 0.665124 0
M  V30 472 H 56.4936 3.82145 1.64634 0
M  V30 473 H 55.3696 4.84883 2.57254 0
M  V30 474 H 55.6306 3.18376 3.0674 0
M  V30 475 N 54.6897 -0.239769 1.55765 0
M  V30 476 C 55.5997 -1.31831 1.94056 0
M  V30 477 C 56.6157 -1.52275 0.841925 0
M  V30 478 O 57.7917 -1.65759 1.14394 0
M  V30 479 C 54.8567 -2.65156 2.23368 0
M  V30 480 C 53.9177 -2.53173 3.46701 0
M  V30 481 C 53.1507 -3.8014 3.74606 0
M  V30 482 O 53.3737 -4.82343 3.04469 0
M  V30 483 O 52.3077 -3.78344 4.68123 0
M  V30 484 H 56.1337 -1.02347 2.85935 0
M  V30 485 H 53.7187 -0.441123 1.42739 0
M  V30 486 H 55.6007 -3.43929 2.43497 0
M  V30 487 H 54.2757 -2.94358 1.34666 0
M  V30 488 H 53.1827 -1.72662 3.31871 0
M  V30 489 H 54.5157 -2.28915 4.35728 0
M  V30 490 N 56.1678 -1.49265 -0.50573 0
M  V30 491 C 57.4158 -1.582 -1.25766 0
M  V30 492 C 57.7368 -0.268482 -1.93143 0
M  V30 493 O 57.0068 0.711833 -1.8251 0
M  V30 494 H 55.5868 -0.582873 -0.467191 0
M  V30 495 H 58.2488 -1.85865 -0.586525 0
M  V30 496 H 57.3448 -2.37563 -2.02412 0
M  V30 497 N 57.6459 0.756429 -1.3826 0
M  V30 498 C 58.8949 1.51082 -1.3363 0
M  V30 499 C 59.2079 1.95467 0.0720068 0
M  V30 500 O 60.4139 2.7043 0.240834 0
M  V30 501 C 58.8699 2.72893 -2.34644 0
M  V30 502 C 58.4779 2.35544 -3.81081 0
M  V30 503 C 60.2219 3.50791 -2.39052 0
M  V30 504 C 58.1289 3.53948 -4.73787 0
M  V30 505 H 57.0589 0.56727 -0.49671 0
M  V30 506 H 59.7099 0.827147 -1.638 0
M  V30 507 H 58.0919 3.43227 -1.97513 0
M  V30 508 H 59.2659 1.72894 -4.27135 0
M  V30 509 H 57.5809 1.70786 -3.79764 0
M  V30 510 H 60.1779 4.38823 -3.05513 0
M  V30 511 H 60.5209 3.91745 -1.40861 0
M  V30 512 H 61.0539 2.87467 -2.74968 0
M  V30 513 H 57.7929 3.18064 -5.73163 0
M  V30 514 H 57.3129 4.15651 -4.32428 0
M  V30 515 H 58.9919 4.20566 -4.91663 0
M  V30 516 N 59.124 1.23083 0.984299 0
M  V30 517 C 60.087 1.00979 2.05757 0
M  V30 518 C 61.087 -0.0269573 1.60777 0
M  V30 519 O 62.277 0.212403 1.729 0
M  V30 520 C 59.409 0.527072 3.36801 0
M  V30 521 H 60.602 1.9622 2.26799 0
M  V30 522 H 58.155 1.05072 1.15714 0
M  V30 523 H 58.89 -0.429294 3.21446 0
M  V30 524 H 58.675 1.27515 3.70786 0
M  V30 525 H 60.165 0.392942 4.15747 0
M  V30 526 N 60.6021 -1.18246 1.0419 0
M  V30 527 C 62.0181 -1.40269 0.761366 0
M  V30 528 C 62.2181 -1.90777 -0.648578 0
M  V30 529 O 61.2741 -2.0929 -1.41258 0
M  V30 530 C 62.5871 -2.40237 1.8085 0
M  V30 531 C 64.1351 -2.53961 1.82955 0
M  V30 532 C 64.6101 -3.57194 2.86664 0
M  V30 533 N 66.1011 -3.64702 2.85563 0
M  V30 534 C 66.8361 -4.44309 3.6246 0
M  V30 535 N 66.3321 -5.27514 4.49111 0
M  V30 536 N 68.1251 -4.39084 3.50944 0
M  V30 537 H 60.2761 -0.837882 1.95175 0
M  V30 538 H 62.5391 -0.430608 0.84456 0
M  V30 539 H 62.2451 -2.10176 2.81991 0
M  V30 540 H 62.1191 -3.39601 1.64168 0
M  V30 541 H 64.5061 -2.83338 0.824855 0
M  V30 542 H 64.5871 -1.54706 2.03715 0
M  V30 543 H 64.2311 -3.28558 3.87314 0
M  V30 544 H 64.1611 -4.5613 2.6316 0
M  V30 545 H 66.6521 -3.05289 2.22727 0
M  V30 546 H 66.9651 -5.85411 5.04493 0
M  V30 547 H 65.3101 -5.2693 4.53178 0
M  V30 548 H 68.5011 -3.7313 2.82651 0
M  V30 549 H 68.6741 -5.00883 4.11121 0
M  V30 550 N 62.0802 -0.821533 -1.34494 0
M  V30 551 C 63.0122 -0.199946 -2.28326 0
M  V30 552 C 64.0252 0.609377 -1.50965 0
M  V30 553 O 65.2142 0.439285 -1.7301 0
M  V30 554 C 62.3142 0.738431 -3.30757 0
M  V30 555 C 61.4872 -0.0277632 -4.37391 0
M  V30 556 C 60.5462 0.831332 -5.19591 0
M  V30 557 O 59.5722 0.276822 -5.68526 0
M  V30 558 N 60.7742 2.15132 -5.39165 0
M  V30 559 H 63.5392 -1.00609 -2.82308 0
M  V30 560 H 61.1002 -0.678366 -1.47003 0
M  V30 561 H 63.0922 1.31773 -3.82646 0
M  V30 562 H 61.6622 1.44533 -2.7718 0
M  V30 563 H 60.8822 -0.788359 -3.86236 0
M  V30 564 H 62.1702 -0.555251 -5.05761 0
M  V30 565 H 61.5682 2.62559 -5.01078 0
M  V30 566 H 60.1252 2.6795 -5.94177 0
M  V30 567 N 63.5583 1.46682 -0.576371 0
M  V30 568 C 64.9693 1.86112 -0.148091 0
M  V30 569 C 65.3203 1.48073 1.2872 0
M  V30 570 O 64.4453 0.892656 1.97131 0
M  V30 571 C 65.0403 3.37786 -0.261982 0
M  V30 572 C 63.5993 3.76235 0.111384 0
M  V30 573 C 62.7463 2.70713 -0.60083 0
M  V30 574 H 65.6973 1.37927 -0.78497 0
M  V30 575 H 65.7183 3.77007 0.514364 0
M  V30 576 H 65.2303 3.6544 -1.30671 0
M  V30 577 H 63.3313 3.54198 1.15649 0
M  V30 578 H 63.4443 4.78391 -0.26052 0
M  V30 579 H 61.8083 2.54666 -0.0417783 0
M  V30 580 H 62.5913 3.01208 -1.64708 0
M  V30 581 N 65.0364 0.313813 1.54444 0
M  V30 582 C 65.9464 -0.565714 2.27677 0
M  V30 583 C 66.9624 -1.13754 1.31666 0
M  V30 584 O 68.1384 -1.15959 1.64668 0
M  V30 585 C 65.2034 -1.71528 3.01296 0
M  V30 586 C 64.2644 -1.17624 4.12872 0
M  V30 587 C 63.4974 -2.27102 4.8297 0
M  V30 588 O 63.7204 -3.47256 4.52514 0
M  V30 589 O 62.6544 -1.9307 5.70094 0
M  V30 590 H 66.4804 0.0287296 3.03686 0
M  V30 591 H 64.0654 0.0798312 1.49187 0
M  V30 592 H 65.9474 -2.38476 3.4743 0
M  V30 593 H 64.6224 -2.29608 2.2817 0
M  V30 594 H 63.5294 -0.472124 3.71109 0
M  V30 595 H 64.8624 -0.640695 4.88012 0
M  V30 596 N 66.5145 -1.57545 0.0417849 0
M  V30 597 C 67.4775 -2.09885 -0.92093 0
M  V30 598 C 68.4775 -1.01648 -1.24596 0
M  V30 599 O 69.6675 -1.27759 -1.1842 0
M  V30 600 C 66.7995 -2.57527 -2.23367 0
M  V30 601 H 67.9925 -2.96236 -0.467382 0
M  V30 602 H 65.5455 -1.5493 -0.206467 0
M  V30 603 H 66.2805 -1.74542 -2.73323 0
M  V30 604 H 66.0655 -3.36613 -2.01083 0
M  V30 605 H 67.5555 -2.98201 -2.92346 0
M  V30 606 N 67.9926 0.231505 -1.5589 0
M  V30 607 C 68.9026 1.308 -1.94752 0
M  V30 608 C 69.9186 1.51826 -0.849989 0
M  V30 609 O 71.0946 1.6515 -1.15271 0
M  V30 610 C 68.1596 2.63968 -2.24771 0
M  V30 611 C 67.2206 2.51331 -3.48039 0
M  V30 612 C 66.4536 3.78148 -3.76616 0
M  V30 613 O 66.6766 4.80722 -3.07022 0
M  V30 614 O 65.6106 3.75857 -4.70123 0
M  V30 615 H 69.4366 1.0083 -2.86474 0
M  V30 616 H 67.0216 0.433547 -1.42971 0
M  V30 617 H 68.9036 3.42633 -2.45318 0
M  V30 618 H 67.5786 2.9364 -1.36225 0
M  V30 619 H 66.4856 1.709 -3.32782 0
M  V30 620 H 67.8186 2.26601 -4.36936 0
M  V30 621 N 69.4707 1.49531 0.497807 0
M  V30 622 C 70.7187 1.58865 1.24926 0
M  V30 623 C 71.0397 0.278721 1.92998 0
M  V30 624 O 70.3097 -0.702144 1.82885 0
M  V30 625 H 68.8897 0.585343 0.464094 0
M  V30 626 H 71.5517 1.86174 0.57666 0
M  V30 627 H 70.6477 2.38633 2.01149 0
M  V30 628 N 70.9488 -0.749086 1.3866 0
M  V30 629 C 71.8958 -1.86291 1.36251 0
M  V30 630 C 72.8658 -1.64578 0.224347 0
M  V30 631 O 74.0508 -1.86181 0.417279 0
M  V30 632 C 71.1908 -3.23644 1.19786 0
M  V30 633 C 70.3038 -3.57158 2.43027 0
M  V30 634 C 69.4388 -4.83838 2.19258 0
M  V30 635 C 68.4778 -5.10152 3.38247 0
M  V30 636 N 67.6148 -6.28029 3.13884 0
M  V30 637 H 72.4548 -1.87685 2.3147 0
M  V30 638 H 69.9918 -0.917287 1.14997 0
M  V30 639 H 71.9498 -4.0291 1.08254 0
M  V30 640 H 70.5798 -3.21566 0.282031 0
M  V30 641 H 69.6318 -2.72701 2.65214 0
M  V30 642 H 70.9438 -3.7253 3.31697 0
M  V30 643 H 70.0978 -5.71057 2.04888 0
M  V30 644 H 68.8368 -4.70614 1.2796 0
M  V30 645 H 67.8418 -4.21401 3.53131 0
M  V30 646 H 69.0668 -5.25271 4.30427 0
M  V30 647 H 67.0128 -6.1612 2.25238 0
M  V30 648 H 66.9298 -6.43922 3.96106 0
M  V30 649 H 68.1978 -7.18124 3.03179 0
M  V30 650 N 72.4269 -1.23603 -0.977757 0
M  V30 651 C 73.6759 -1.06377 -1.71368 0
M  V30 652 C 73.9889 0.399062 -1.91486 0
M  V30 653 O 75.1949 0.691312 -2.62551 0
M  V30 654 C 73.6509 -1.85512 -3.08404 0
M  V30 655 C 73.2589 -3.36141 -2.96164 0
M  V30 656 C 75.0029 -1.76783 -3.85938 0
M  V30 657 C 72.9099 -4.07659 -4.28449 0
M  V30 658 H 71.8399 -0.394452 -0.642591 0
M  V30 659 H 74.4909 -1.47594 -1.09034 0
M  V30 660 H 72.8729 -1.37103 -3.71509 0
M  V30 661 H 74.0469 -3.92056 -2.42133 0
M  V30 662 H 72.3619 -3.45712 -2.32104 0
M  V30 663 H 74.9589 -2.27526 -4.83876 0
M  V30 664 H 75.3019 -0.731116 -4.0983 0
M  V30 665 H 75.8349 -2.22818 -3.2954 0
M  V30 666 H 72.5739 -5.11648 -4.09752 0
M  V30 667 H 72.0939 -3.5653 -4.82334 0
M  V30 668 H 73.7729 -4.141 -4.97122 0
M  V30 669 N 73.905 1.17692 -1.04816 0
M  V30 670 C 75.321 1.39863 -0.768794 0
M  V30 671 C 75.521 1.91118 0.638451 0
M  V30 672 O 74.577 2.10036 1.40146 0
M  V30 673 C 75.89 2.39274 -1.82122 0
M  V30 674 C 77.438 2.52987 -1.843 0
M  V30 675 C 77.913 3.55669 -2.88555 0
M  V30 676 N 79.404 3.63183 -2.87493 0
M  V30 677 C 80.139 4.42381 -3.64811 0
M  V30 678 N 79.635 5.25125 -4.51903 0
M  V30 679 N 81.428 4.37217 -3.53267 0
M  V30 680 H 73.579 0.82752 -1.95617 0
M  V30 681 H 75.842 0.426123 -0.846831 0
M  V30 682 H 75.548 2.08678 -2.83102 0
M  V30 683 H 75.422 3.38725 -1.65967 0
M  V30 684 H 77.809 2.82896 -0.839869 0
M  V30 685 H 77.89 1.53623 -2.04532 0
M  V30 686 H 77.534 3.26499 -3.89051 0
M  V30 687 H 77.464 4.54728 -2.65575 0
M  V30 688 H 79.955 3.04103 -2.24343 0
M  V30 689 H 80.268 5.82728 -5.07591 0
M  V30 690 H 78.613 5.24519 -4.55966 0
M  V30 691 H 81.804 3.71626 -2.84625 0
M  V30 692 H 81.977 4.98696 -4.13771 0
M  V30 693 N 75.3831 0.828654 1.34056 0
M  V30 694 C 76.6311 0.41863 1.97717 0
M  V30 695 C 76.9521 -1.02314 1.66002 0
M  V30 696 O 76.2221 -1.71119 0.953683 0
M  V30 697 H 74.8021 0.151809 0.731412 0
M  V30 698 H 77.4641 1.05936 1.63596 0
M  V30 699 H 76.5601 0.542318 3.07352 0
M  V30 700 N 76.8612 -1.46375 0.584142 0
M  V30 701 C 78.0892 -2.06761 0.0759296 0
M  V30 702 C 78.5042 -1.43266 -1.22965 0
M  V30 703 O 77.8612 -0.538458 -1.74376 0
M  V30 704 C 77.9122 -3.61375 -0.0950384 0
M  V30 705 O 77.6332 -4.22495 1.15887 0
M  V30 706 C 79.1342 -4.38693 -0.637434 0
M  V30 707 H 76.3542 -0.668479 0.0581075 0
M  V30 708 H 78.8982 -1.8798 0.805218 0
M  V30 709 H 77.0532 -3.79578 -0.774554 0
M  V30 710 H 77.4672 -5.15385 0.973598 0
M  V30 711 H 78.9412 -5.47464 -0.706237 0
M  V30 712 H 79.4182 -4.06836 -1.65472 0
M  V30 713 H 80.0242 -4.25299 0.00725967 0
M  V30 714 N 78.3393 -0.321999 -1.54275 0
M  V30 715 C 79.2693 0.537411 -2.27231 0
M  V30 716 C 80.2503 1.12064 -1.27968 0
M  V30 717 O 81.4353 1.14606 -1.56777 0
M  V30 718 C 78.5653 1.69919 -3.02894 0
M  V30 719 C 77.5193 1.24534 -4.09482 0
M  V30 720 C 76.8453 2.49394 -4.72977 0
M  V30 721 C 78.1453 0.361335 -5.21049 0
M  V30 722 H 79.8393 -0.0711406 -2.99315 0
M  V30 723 H 77.3853 -0.0356555 -1.43956 0
M  V30 724 H 79.3383 2.30668 -3.52662 0
M  V30 725 H 78.0623 2.33431 -2.28424 0
M  V30 726 H 76.7213 0.660782 -3.60596 0
M  V30 727 H 76.3693 3.11265 -3.95124 0
M  V30 728 H 76.0693 2.19718 -5.44975 0
M  V30 729 H 77.5933 3.10908 -5.25517 0
M  V30 730 H 79.0073 0.875072 -5.66582 0
M  V30 731 H 77.4043 0.157428 -5.99893 0
M  V30 732 H 78.4743 -0.60822 -4.8107 0
M  V30 733 N 79.8174 1.5752 -0.0501392 0
M  V30 734 C 80.7474 2.14502 0.922566 0
M  V30 735 C 81.7284 1.06642 1.3252 0
M  V30 736 O 82.9134 1.34577 1.4001 0
M  V30 737 C 80.0434 2.68916 2.19776 0
M  V30 738 C 78.9974 3.8175 1.93523 0
M  V30 739 C 78.3234 4.22677 3.27487 0
M  V30 740 C 79.6234 5.06932 1.25765 0
M  V30 741 H 81.3174 2.9603 0.447952 0
M  V30 742 H 78.8634 1.42401 0.214024 0
M  V30 743 H 80.8164 3.07419 2.88222 0
M  V30 744 H 79.5404 1.84578 2.69441 0
M  V30 745 H 78.1994 3.43718 1.27489 0
M  V30 746 H 77.8474 3.35291 3.74952 0
M  V30 747 H 77.5474 4.98725 3.1072 0
M  V30 748 H 79.0714 4.63779 3.97166 0
M  V30 749 H 80.4854 5.42888 1.84244 0
M  V30 750 H 78.8824 5.88116 1.19328 0
M  V30 751 H 79.9524 4.84337 0.233536 0
M  V30 752 N 81.2955 -0.223234 1.56011 0
M  V30 753 C 82.2255 -1.27988 1.95298 0
M  V30 754 C 83.2065 -1.48976 0.820979 0
M  V30 755 O 84.3915 -1.61188 1.08315 0
M  V30 756 C 81.5215 -2.63 2.26822 0
M  V30 757 C 80.4755 -2.56671 3.42497 0
M  V30 758 C 79.8015 -3.95697 3.59622 0
M  V30 759 C 81.1015 -2.11601 4.77517 0
M  V30 760 H 82.7955 -0.953525 2.8381 0
M  V30 761 H 80.3415 -0.457244 1.36548 0
M  V30 762 H 82.2945 -3.37077 2.52898 0
M  V30 763 H 81.0185 -2.9732 1.35161 0
M  V30 764 H 79.6775 -1.85051 3.16467 0
M  V30 765 H 79.3255 -4.27322 2.6534 0
M  V30 766 H 79.0255 -3.92345 4.37424 0
M  V30 767 H 80.5495 -4.71438 3.88044 0
M  V30 768 H 81.9635 -2.7542 5.02809 0
M  V30 769 H 80.3605 -2.19311 5.5859 0
M  V30 770 H 81.4305 -1.06824 4.72987 0
M  V30 771 N 82.7736 -1.49793 -0.48987 0
M  V30 772 C 83.9986 -1.63836 -1.27172 0
M  V30 773 C 84.4236 -0.31402 -1.8546 0
M  V30 774 O 83.7816 0.719803 -1.66399 0
M  V30 775 C 83.8296 -2.71797 -2.36978 0
M  V30 776 O 82.9336 -2.31744 -3.41128 0
M  V30 777 H 82.2746 -0.547997 -0.37496 0
M  V30 778 H 84.8046 -1.96053 -0.585191 0
M  V30 779 H 84.8146 -2.94305 -2.82575 0
M  V30 780 H 83.4896 -3.67923 -1.93921 0
M  V30 781 H 82.0666 -2.1961 -3.01373 0
M  V30 782 N 84.2517 0.741722 -1.39055 0
M  V30 783 C 85.1817 1.869 -1.39966 0
M  V30 784 C 86.1627 1.6804 -0.26392 0
M  V30 785 O 87.3477 1.88458 -0.468755 0
M  V30 786 C 84.4777 3.24572 -1.23574 0
M  V30 787 C 83.4317 3.58056 -2.34477 0
M  V30 788 C 82.7577 4.94593 -2.0318 0
M  V30 789 C 84.0577 3.61716 -3.76774 0
M  V30 790 H 85.7517 1.86395 -2.34302 0
M  V30 791 H 83.2977 0.895361 -1.1278 0
M  V30 792 H 85.2507 4.031 -1.22834 0
M  V30 793 H 83.9747 3.25587 -0.257045 0
M  V30 794 H 82.6337 2.81854 -2.34423 0
M  V30 795 H 82.2817 4.92181 -1.03765 0
M  V30 796 H 81.9817 5.17964 -2.77465 0
M  V30 797 H 83.5057 5.75486 -2.04079 0
M  V30 798 H 84.9197 4.30335 -3.78794 0
M  V30 799 H 83.3167 3.96603 -4.50362 0
M  V30 800 H 84.3867 2.61672 -4.08235 0
M  V30 801 N 85.7298 1.2412 0.971189 0
M  V30 802 C 86.6928 1.03156 2.04674 0
M  V30 803 C 87.6928 -0.00990322 1.60797 0
M  V30 804 O 88.8828 0.230729 1.72665 0
M  V30 805 C 86.0148 0.562765 3.36223 0
M  V30 806 H 87.2078 1.98614 2.24705 0
M  V30 807 H 84.7608 1.06293 1.14593 0
M  V30 808 H 85.4958 -0.395176 3.21883 0
M  V30 809 H 85.2808 1.31441 3.69413 0
M  V30 810 H 86.7708 0.437015 4.15307 0
M  V30 811 N 87.2079 -1.17134 1.05439 0
M  V30 812 C 88.4549 -1.87456 0.765942 0
M  V30 813 C 88.7829 -1.81189 -0.707153 0
M  V30 814 O 88.0379 -1.21633 -1.5331 0
M  V30 815 C 88.3369 -3.36833 1.19491 0
M  V30 816 C 88.0029 -3.63301 2.67063 0
M  V30 817 C 86.6649 -3.70234 3.07376 0
M  V30 818 C 89.0169 -3.74575 3.62413 0
M  V30 819 C 86.3449 -3.85933 4.41896 0
M  V30 820 C 88.6969 -3.91793 4.9667 0
M  V30 821 C 87.3609 -3.96966 5.36633 0
M  V30 822 H 86.6309 -0.685948 0.280278 0
M  V30 823 H 89.2779 -1.38556 1.32192 0
M  V30 824 H 87.5829 -3.87807 0.557969 0
M  V30 825 H 89.2799 -3.89611 0.948893 0
M  V30 826 H 85.8699 -3.58532 2.34846 0
M  V30 827 H 90.0539 -3.68537 3.32406 0
M  V30 828 H 85.3099 -3.88187 4.72357 0
M  V30 829 H 89.4839 -3.99458 5.70444 0
M  V30 830 H 87.1109 -4.08883 6.40874 0
M  V30 831 N 88.686 -0.835752 -1.33615 0
M  V30 832 C 89.619 -0.211815 -2.27215 0
M  V30 833 C 90.597 0.639249 -1.49507 0
M  V30 834 O 91.781 0.600193 -1.78689 0
M  V30 835 C 88.908 0.702893 -3.31326 0
M  V30 836 C 87.954 -0.0723049 -4.26439 0
M  V30 837 S 88.787 -1.42811 -5.16106 0
M  V30 838 C 89.943 -0.518613 -6.23748 0
M  V30 839 H 90.176 -1.00533 -2.79786 0
M  V30 840 H 87.709 -0.632336 -1.40858 0
M  V30 841 H 89.667 1.22505 -3.91794 0
M  V30 842 H 88.328 1.47004 -2.77576 0
M  V30 843 H 87.521 0.62359 -5.00127 0
M  V30 844 H 87.123 -0.525424 -3.70291 0
M  V30 845 H 89.415 0.284778 -6.76901 0
M  V30 846 H 90.358 -1.22556 -6.97413 0
M  V30 847 H 90.766 -0.101344 -5.64409 0
M  V30 848 N 90.1641 1.46063 -0.591896 0
M  V30 849 C 91.0741 2.34192 0.13831 0
M  V30 850 C 92.0901 1.50305 0.876608 0
M  V30 851 O 93.2661 1.8315 0.837728 0
M  V30 852 C 90.3311 3.27656 1.13326 0
M  V30 853 C 89.3921 4.27445 0.39863 0
M  V30 854 C 88.6251 5.16443 1.34618 0
M  V30 855 O 88.8481 5.08553 2.58321 0
M  V30 856 O 87.7821 5.95843 0.851768 0
M  V30 857 H 91.6081 2.98002 -0.58552 0
M  V30 858 H 89.1931 1.45188 -0.352239 0
M  V30 859 H 91.0751 3.85291 1.70671 0
M  V30 860 H 89.7501 2.6643 1.83839 0
M  V30 861 H 88.6571 3.73471 -0.216895 0
M  V30 862 H 89.9901 4.91482 -0.265709 0
M  V30 863 N 91.6422 0.330177 1.54103 0
M  V30 864 C 92.6052 -0.520144 2.2322 0
M  V30 865 C 93.6052 -1.03828 1.22786 0
M  V30 866 O 94.7952 -0.929652 1.4732 0
M  V30 867 C 91.9272 -1.72317 2.94142 0
M  V30 868 H 93.1202 0.0841605 2.99782 0
M  V30 869 H 90.6732 0.0813433 1.56088 0
M  V30 870 H 91.4082 -2.36653 2.21734 0
M  V30 871 H 91.1932 -1.35898 3.67796 0
M  V30 872 H 92.6832 -2.3266 3.46784 0
M  V30 873 N 93.1203 -1.57491 0.0584922 0
M  V30 874 C 94.0503 -2.14988 -0.911178 0
M  V30 875 C 95.0313 -1.07343 -1.31952 0
M  V30 876 O 96.2163 -1.35318 -1.39294 0
M  V30 877 C 93.3463 -2.70078 -2.18347 0
M  V30 878 C 92.3003 -3.82771 -1.91495 0
M  V30 879 C 91.6263 -4.24408 -3.25241 0
M  V30 880 C 92.9263 -5.07592 -1.23075 0
M  V30 881 H 94.6203 -2.96263 -0.432246 0
M  V30 882 H 92.1663 -1.42512 -0.206469 0
M  V30 883 H 94.1193 -3.08943 -2.86587 0
M  V30 884 H 92.8433 -1.86005 -2.68458 0
M  V30 885 H 91.5023 -3.44389 -1.25664 0
M  V30 886 H 91.1503 -3.37275 -3.73168 0
M  V30 887 H 90.8503 -5.00366 -3.08071 0
M  V30 888 H 92.3743 -4.65879 -3.94701 0
M  V30 889 H 93.7883 -5.43857 -1.81362 0
M  V30 890 H 92.1853 -5.88741 -1.16207 0
M  V30 891 H 93.2553 -4.84454 -0.207847 0
M  V30 892 N 94.5984 0.214957 -1.56127 0
M  V30 893 C 95.8264 0.955092 -1.83536 0
M  V30 894 C 96.2414 1.77677 -0.638472 0
M  V30 895 O 95.5984 1.78219 0.392968 0
M  V30 896 C 95.6494 1.86734 -3.09536 0
M  V30 897 O 95.3704 1.07887 -4.24608 0
M  V30 898 C 96.8714 2.72082 -3.4998 0
M  V30 899 H 94.0914 0.279611 -0.609966 0
M  V30 900 H 96.6354 0.228197 -2.03223 0
M  V30 901 H 94.7904 2.5481 -2.91806 0
M  V30 902 H 95.2044 1.69872 -4.9623 0
M  V30 903 H 96.6784 3.31782 -4.41163 0
M  V30 904 H 97.1554 3.44806 -2.7204 0
M  V30 905 H 97.7614 2.09409 -3.70173 0
M  V30 906 N 96.0765 1.50051 0.48192 0
M  V30 907 C 97.3255 1.59741 1.23149 0
M  V30 908 C 97.6385 0.298163 1.93314 0
M  V30 909 O 98.8445 0.273835 2.70116 0
M  V30 910 C 97.3005 2.81926 2.23708 0
M  V30 911 C 96.9085 4.18685 1.59396 0
M  V30 912 C 98.6525 3.00956 2.99375 0
M  V30 913 C 96.5595 5.3207 2.58178 0
M  V30 914 H 95.4895 0.594838 0.46334 0
M  V30 915 H 98.1405 1.76467 0.503169 0
M  V30 916 H 96.5225 2.58736 2.99786 0
M  V30 917 H 97.6965 4.52088 0.891811 0
M  V30 918 H 96.0115 4.05171 0.960503 0
M  V30 919 H 98.6085 3.82836 3.73283 0
M  V30 920 H 98.9515 2.12258 3.58123 0
M  V30 921 H 99.4845 3.24277 2.30411 0
M  V30 922 H 96.2235 6.22888 2.04184 0
M  V30 923 H 95.7435 5.03098 3.26577 0
M  V30 924 H 97.4225 5.62196 3.20225 0
M  V30 925 N 97.5546 -0.734337 1.39446 0
M  V30 926 C 98.7846 -1.52137 1.39778 0
M  V30 927 C 99.1926 -1.89198 -0.00929312 0
M  V30 928 O 98.5356 -1.54666 -0.991168 0
M  V30 929 C 98.5976 -2.83762 2.20724 0
M  V30 930 C 98.2616 -2.69131 3.69347 0
M  V30 931 C 99.2586 -2.37635 4.62413 0
M  V30 932 C 96.9436 -2.85982 4.1294 0
M  V30 933 C 98.9376 -2.23172 5.97054 0
M  V30 934 C 96.6246 -2.71137 5.47657 0
M  V30 935 C 97.6226 -2.39777 6.39528 0
M  V30 936 O 97.3106 -2.25026 7.71763 0
M  V30 937 H 97.0426 -0.476717 0.479288 0
M  V30 938 H 99.5966 -0.915012 1.83893 0
M  V30 939 H 97.8266 -3.4666 1.71359 0
M  V30 940 H 99.5156 -3.45383 2.13226 0
M  V30 941 H 100.282 -2.24267 4.30034 0
M  V30 942 H 96.1606 -3.09383 3.41765 0
M  V30 943 H 99.7046 -1.98617 6.68728 0
M  V30 944 H 95.6016 -2.84083 5.79626 0
M  V30 945 H 96.3696 -2.40091 7.82495 0
M  V30 946 N 99.0327 -1.24633 -0.964593 0
M  V30 947 C 100.281 -1.08573 -1.70459 0
M  V30 948 C 100.602 0.375655 -1.91347 0
M  V30 949 O 99.8717 1.26779 -1.49345 0
M  V30 950 H 98.4517 -0.398784 -0.631649 0
M  V30 951 H 101.114 -1.56601 -1.16026 0
M  V30 952 H 100.21 -1.58623 -2.68785 0
M  V30 953 N 100.511 1.16574 -1.06058 0
M  V30 954 C 101.441 2.23057 -0.690488 0
M  V30 955 C 102.422 1.67141 0.315901 0
M  V30 956 O 103.607 1.93253 0.191556 0
M  V30 957 C 100.737 3.47222 -0.073625 0
M  V30 958 C 99.6908 4.16016 -1.00573 0
M  V30 959 C 99.0168 5.34104 -0.252289 0
M  V30 960 C 100.317 4.67264 -2.33371 0
M  V30 961 H 102.011 2.54271 -1.58072 0
M  V30 962 H 99.5568 1.22218 -0.76149 0
M  V30 963 H 101.51 4.20939 0.19714 0
M  V30 964 H 100.234 3.15302 0.85161 0
M  V30 965 H 98.8928 3.44223 -1.2612 0
M  V30 966 H 98.5408 4.98437 0.675988 0
M  V30 967 H 98.2408 5.81072 -0.873455 0
M  V30 968 H 99.7648 6.10599 0.0109857 0
M  V30 969 H 101.179 5.32573 -2.12223 0
M  V30 970 H 99.5758 5.24843 -2.90963 0
M  V30 971 H 100.646 3.83602 -2.96611 0
M  V30 972 N 101.989 0.842826 1.3317 0
M  V30 973 C 103.235 0.441099 1.97945 0
M  V30 974 C 103.568 -0.998024 1.66593 0
M  V30 975 O 102.843 -1.69839 0.947898 0
M  V30 976 C 103.126 0.666841 3.53872 0
M  V30 977 C 102.979 2.15352 3.94897 0
M  V30 978 C 104.298 0.115544 4.39948 0
M  V30 979 H 101.417 0.161739 0.719034 0
M  V30 980 H 104.059 1.05907 1.57746 0
M  V30 981 H 102.209 0.140828 3.88245 0
M  V30 982 H 103.881 2.7447 3.70761 0
M  V30 983 H 102.124 2.63653 3.44484 0
M  V30 984 H 102.795 2.26221 5.03516 0
M  V30 985 H 105.271 0.565213 4.12243 0
M  V30 986 H 104.147 0.303152 5.48062 0
M  V30 987 H 104.408 -0.980935 4.3108 0
M  V30 988 N 103.467 -1.45747 0.599634 0
M  V30 989 C 104.713 -2.02592 0.0918643 0
M  V30 990 C 105.046 -1.46806 -1.27128 0
M  V30 991 O 104.321 -0.639658 -1.83681 0
M  V30 992 C 104.604 -3.60073 0.0443398 0
M  V30 993 C 104.457 -4.26208 1.43759 0
M  V30 994 C 105.776 -4.35309 -0.647608 0
M  V30 995 H 102.895 -0.736175 0.034857 0
M  V30 996 H 105.537 -1.73694 0.770081 0
M  V30 997 H 103.687 -3.84823 -0.533224 0
M  V30 998 H 105.359 -4.12668 2.06162 0
M  V30 999 H 103.602 -3.84916 2.00056 0
M  V30 1000 H 104.273 -5.35069 1.35665 0
M  V30 1001 H 106.749 -4.15805 -0.156776 0
M  V30 1002 H 105.625 -5.45038 -0.649942 0
M  V30 1003 H 105.886 -4.07598 -1.71219 0
M  V30 1004 N 104.945 -0.338344 -1.53925 0
M  V30 1005 C 105.908 0.508299 -2.23493 0
M  V30 1006 C 106.908 1.03175 -1.23335 0
M  V30 1007 O 108.098 0.921826 -1.47811 0
M  V30 1008 C 105.23 1.70754 -2.95052 0
M  V30 1009 H 106.423 -0.100058 -2.99733 0
M  V30 1010 H 103.976 -0.0896198 -1.56043 0
M  V30 1011 H 104.711 2.35474 -2.22986 0
M  V30 1012 H 104.496 1.33946 -3.68512 0
M  V30 1013 H 105.986 2.30818 -3.48013 0
M  V30 1014 N 106.423 1.57458 -0.0668435 0
M  V30 1015 C 107.353 2.15468 0.899764 0
M  V30 1016 C 108.334 1.08042 1.31381 0
M  V30 1017 O 109.519 1.36054 1.38574 0
M  V30 1018 C 106.649 2.71232 2.16911 0
M  V30 1019 C 105.603 3.83781 1.89463 0
M  V30 1020 C 104.929 4.26127 3.22986 0
M  V30 1021 C 106.229 5.08238 1.20381 0
M  V30 1022 H 107.923 2.96488 0.416529 0
M  V30 1023 H 105.469 1.4262 0.198908 0
M  V30 1024 H 107.422 3.10458 2.84945 0
M  V30 1025 H 106.146 1.87426 2.67468 0
M  V30 1026 H 104.805 3.45051 1.23836 0
M  V30 1027 H 104.453 3.39249 3.71374 0
M  V30 1028 H 104.153 5.01993 3.05413 0
M  V30 1029 H 105.677 4.67966 3.92225 0
M  V30 1030 H 107.091 5.44811 1.78475 0
M  V30 1031 H 105.488 5.89349 1.13083 0
M  V30 1032 H 106.558 4.84558 0.182153 0
M  V30 1033 N 107.901 -0.206675 1.56239 0
M  V30 1034 C 109.147 -0.930218 1.80208 0
M  V30 1035 C 109.48 -1.83387 0.638981 0
M  V30 1036 O 108.755 -1.91119 -0.361066 0
M  V30 1037 C 109.038 -1.75641 3.1436 0
M  V30 1038 C 108.891 -0.878257 4.41142 0
M  V30 1039 C 110.21 -2.73129 3.45092 0
M  V30 1040 H 107.329 -0.336742 0.655571 0
M  V30 1041 H 109.971 -0.198222 1.88963 0
M  V30 1042 H 108.121 -2.38048 3.07027 0
M  V30 1043 H 109.793 -0.269787 4.6051 0
M  V30 1044 H 108.036 -0.184385 4.33408 0
M  V30 1045 H 108.707 -1.49106 5.3148 0
M  V30 1046 H 111.183 -2.20856 3.52649 0
M  V30 1047 H 110.059 -3.28028 4.40101 0
M  V30 1048 H 110.32 -3.51606 2.68003 0
M  V30 1049 N 109.379 -1.50304 -0.473955 0
M  V30 1050 C 110.309 -1.71886 -1.58042 0
M  V30 1051 C 111.29 -0.567799 -1.60344 0
M  V30 1052 O 112.475 -0.806623 -1.76656 0
M  V30 1053 C 109.605 -1.81036 -2.96384 0
M  V30 1054 C 108.559 -2.962 -3.08949 0
M  V30 1055 C 107.885 -2.9049 -4.48909 0
M  V30 1056 C 109.185 -4.36752 -2.86434 0
M  V30 1057 H 110.879 -2.64527 -1.40234 0
M  V30 1058 H 108.425 -1.27295 -0.673201 0
M  V30 1059 H 110.378 -1.94719 -3.73714 0
M  V30 1060 H 109.102 -0.850147 -3.15341 0
M  V30 1061 H 107.761 -2.82164 -2.3405 0
M  V30 1062 H 107.409 -1.92321 -4.64781 0
M  V30 1063 H 107.109 -3.67802 -4.58253 0
M  V30 1064 H 108.633 -3.06218 -5.28264 0
M  V30 1065 H 110.047 -4.5133 -3.53517 0
M  V30 1066 H 108.444 -5.15493 -3.07225 0
M  V30 1067 H 109.514 -4.49321 -1.82316 0
M  V30 1068 N 110.857 0.726932 -1.39834 0
M  V30 1069 C 111.787 1.85405 -1.41941 0
M  V30 1070 C 112.768 1.67751 -0.281728 0
M  V30 1071 O 113.953 1.8795 -0.488717 0
M  V30 1072 C 111.083 3.23243 -1.2701 0
M  V30 1073 C 110.037 3.55549 -2.38262 0
M  V30 1074 C 109.363 4.9241 -2.08415 0
M  V30 1075 C 110.663 3.577 -3.80589 0
M  V30 1076 H 112.357 1.83899 -2.36266 0
M  V30 1077 H 109.903 0.883349 -1.13723 0
M  V30 1078 H 111.856 4.01775 -1.27103 0
M  V30 1079 H 110.58 3.25296 -0.291564 0
M  V30 1080 H 109.239 2.79351 -2.37399 0
M  V30 1081 H 108.887 4.91052 -1.0898 0
M  V30 1082 H 108.587 5.14992 -2.82943 0
M  V30 1083 H 110.111 5.73289 -2.10171 0
M  V30 1084 H 111.525 4.26293 -3.83337 0
M  V30 1085 H 109.922 3.91804 -4.54543 0
M  V30 1086 H 110.992 2.57328 -4.10987 0
M  V30 1087 N 112.336 1.25143 0.95797 0
M  V30 1088 C 113.583 1.09692 1.70217 0
M  V30 1089 C 113.911 -0.362654 1.91089 0
M  V30 1090 O 113.166 -1.28386 1.47701 0
M  V30 1091 C 113.465 1.79272 3.09187 0
M  V30 1092 C 113.131 3.29196 3.08125 0
M  V30 1093 C 111.793 3.70096 3.07543 0
M  V30 1094 C 114.145 4.24995 3.0171 0
M  V30 1095 C 111.473 5.05213 2.9829 0
M  V30 1096 C 113.825 5.60132 2.93999 0
M  V30 1097 C 112.489 6.00365 2.9175 0
M  V30 1098 H 111.759 0.401393 0.622868 0
M  V30 1099 H 114.406 1.55372 1.11945 0
M  V30 1100 H 112.711 1.26014 3.70982 0
M  V30 1101 H 114.408 1.64773 3.65583 0
M  V30 1102 H 110.998 2.96651 3.09348 0
M  V30 1103 H 115.182 3.9439 3.01281 0
M  V30 1104 H 110.438 5.35569 2.94916 0
M  V30 1105 H 114.612 6.3406 2.87996 0
M  V30 1106 H 112.239 7.05023 2.84336 0
M  V30 1107 N 113.814 -1.1601 1.06675 0
M  V30 1108 C 114.777 -2.18724 0.685001 0
M  V30 1109 C 115.777 -1.58496 -0.271246 0
M  V30 1110 O 116.967 -1.74119 -0.0531156 0
M  V30 1111 C 114.099 -3.40899 0.00853648 0
M  V30 1112 H 115.292 -2.54011 1.59431 0
M  V30 1113 H 112.845 -1.30352 0.862441 0
M  V30 1114 H 113.58 -3.11173 -0.913337 0
M  V30 1115 H 113.365 -3.8587 0.696204 0
M  V30 1116 H 114.855 -4.16886 -0.24414 0
M  V30 1117 N 115.292 -0.849877 -1.32721 0
M  V30 1118 C 116.24 -0.279745 -2.30912 0
M  V30 1119 C 117.234 0.594278 -1.58634 0
M  V30 1120 O 118.44 0.482613 -1.73409 0
M  V30 1121 H 114.815 -0.0717521 -0.748569 0
M  V30 1122 H 116.786 -1.12222 -2.76494 0
M  V30 1123 C 115.535 0.521108 -3.43773 0
M  V30 1124 H 114.858 -0.142141 -3.99547 0
M  V30 1125 H 116.298 0.885693 -4.14646 0
M  V30 1126 C 114.757 1.70442 -2.90605 0
M  V30 1127 O 115.287 2.8034 -2.87702 0
M  V30 1128 N 113.493 1.52991 -2.47067 0
M  V30 1129 H 113.04 0.635914 -2.49628 0
M  V30 1130 H 112.998 2.32311 -2.11847 0
M  V30 1131 N 116.77 1.45427 -0.607355 0
M  V30 1132 C 118.181 1.85756 -0.187535 0
M  V30 1133 C 118.532 1.5077 1.25551 0
M  V30 1134 O 117.657 0.93427 1.95193 0
M  V30 1135 C 118.252 3.37154 -0.333572 0
M  V30 1136 C 116.811 3.76387 0.0315542 0
M  V30 1137 C 115.958 2.69377 -0.658117 0
M  V30 1138 H 118.909 1.36231 -0.81405 0
M  V30 1139 H 118.93 3.78014 0.43428 0
M  V30 1140 H 118.442 3.62586 -1.38393 0
M  V30 1141 H 116.543 3.56571 1.0811 0
M  V30 1142 H 116.656 4.77731 -0.361935 0
M  V30 1143 H 115.02 2.5452 -0.0957873 0
M  V30 1144 H 115.803 2.97646 -1.7106 0
M  V30 1145 N 118.248 0.346503 1.53744 0
M  V30 1146 C 119.495 -0.249104 2.00962 0
M  V30 1147 C 119.823 -1.5032 1.23426 0
M  V30 1148 O 119.078 -1.93217 0.310761 0
M  V30 1149 C 119.377 -0.605809 3.52228 0
M  V30 1150 C 119.043 0.551747 4.47512 0
M  V30 1151 C 117.705 0.86941 4.73281 0
M  V30 1152 C 120.057 1.32818 5.03993 0
M  V30 1153 C 117.385 1.96582 5.52786 0
M  V30 1154 C 119.737 2.41486 5.84694 0
M  V30 1155 C 118.401 2.73808 6.08757 0
M  V30 1156 H 117.671 -0.0911538 0.735372 0
M  V30 1157 H 120.318 0.475027 1.85515 0
M  V30 1158 H 118.623 -1.4107 3.65522 0
M  V30 1159 H 120.32 -1.07858 3.86222 0
M  V30 1160 H 116.91 0.294102 4.2759 0
M  V30 1161 H 121.094 1.09602 4.84047 0
M  V30 1162 H 116.35 2.22045 5.69654 0
M  V30 1163 H 120.524 3.02078 6.27473 0
M  V30 1164 H 118.151 3.58892 6.7015 0
M  V30 1165 N 119.726 -1.57421 0.075193 0
M  V30 1166 C 120.972 -1.93905 -0.594025 0
M  V30 1167 C 121.305 -0.955701 -1.69056 0
M  V30 1168 O 120.58 0.0145373 -1.94495 0
M  V30 1169 C 120.863 -3.40638 -1.1678 0
M  V30 1170 C 120.716 -4.49733 -0.0776792 0
M  V30 1171 C 122.035 -3.88259 -2.07228 0
M  V30 1172 H 119.154 -0.705105 -0.214466 0
M  V30 1173 H 121.796 -1.8947 0.141854 0
M  V30 1174 H 119.946 -3.44549 -1.79494 0
M  V30 1175 H 121.618 -4.57942 0.555573 0
M  V30 1176 H 119.861 -4.29751 0.591286 0
M  V30 1177 H 120.532 -5.49549 -0.519603 0
M  V30 1178 H 123.008 -3.86376 -1.54445 0
M  V30 1179 H 121.884 -4.91533 -2.44308 0
M  V30 1180 H 122.145 -3.26396 -2.98191 0
M  V30 1181 O 121.243 0.0653481 -1.61368 0
M  V30 1182 H 121.934 0.690459 -1.80976 0
M  V30 END ATOM
M  V30 BEGIN BOND
M  V30 END BOND
M  V30 END CTAB
M  END
$$$$
