drugbank_target|P12488 Envelope glycoprotein gp160 (DB02780; DB02904; DB03320; DB03817; DB11796)
 OpenBabel12092120253D

  0  0  0     0  0            999 V3000
M  V30 BEGIN CTAB
M  V30 COUNTS 13711 13858 0 0 0
M  V30 BEGIN ATOM
M  V30 1 H -0.908 1.98254 -0.117106 0
M  V30 2 N 0 1.576 0 0
M  V30 3 C 0.933 2.03868 1.02534 0
M  V30 4 C 1.911 0.928543 1.3348 0
M  V30 5 O 3.095 1.19667 1.45644 0
M  V30 6 C 0.222 2.43627 2.35294 0
M  V30 7 C -0.732 3.65373 2.2001 0
M  V30 8 S 0.101 5.13292 1.52614 0
M  V30 9 C 1.257 5.56322 2.86805 0
M  V30 10 H 1.49 2.90518 0.631377 0
M  V30 11 H -0.977 1.52953 0.210867 0
M  V30 12 H 0.981 2.67203 3.11629 0
M  V30 13 H -0.358 1.57376 2.7183 0
M  V30 14 H -1.165 3.90944 3.18086 0
M  V30 15 H -1.563 3.418 1.51819 0
M  V30 16 H 0.729 5.58782 3.83104 0
M  V30 17 H 1.672 6.56266 2.65933 0
M  V30 18 H 2.08 4.83886 2.90714 0
M  V30 19 N 1.4781 -0.272755 1.55222 0
M  V30 20 C 2.8941 -0.619959 1.47067 0
M  V30 21 C 3.0941 -1.895 0.684978 0
M  V30 22 O 2.1501 -2.51675 0.203931 0
M  V30 23 C 3.4631 -0.746693 2.91282 0
M  V30 24 C 5.0111 -0.840731 3.01497 0
M  V30 25 C 5.4861 -0.99924 4.46967 0
M  V30 26 N 6.9771 -1.06476 4.50796 0
M  V30 27 C 7.7121 -1.20621 5.6057 0
M  V30 28 N 7.2081 -1.31483 6.80209 0
M  V30 29 N 9.0011 -1.23733 5.48312 0
M  V30 30 H 1.1521 0.564606 2.04758 0
M  V30 31 H 3.4151 0.191177 0.928523 0
M  V30 32 H 3.1211 0.119753 3.51496 0
M  V30 33 H 2.9951 -1.6269 3.40311 0
M  V30 34 H 5.3821 -1.69764 2.41379 0
M  V30 35 H 5.4631 0.0640874 2.5572 0
M  V30 36 H 5.1071 -0.146984 5.07687 0
M  V30 37 H 5.0371 -1.91871 4.90401 0
M  V30 38 H 7.5281 -0.993196 3.64615 0
M  V30 39 H 7.8411 -1.42111 7.59621 0
M  V30 40 H 6.1861 -1.28487 6.8302 0
M  V30 41 H 9.3771 -1.14877 4.53785 0
M  V30 42 H 9.5501 -1.34412 6.33906 0
M  V30 43 N 2.9562 -1.48159 -0.537278 0
M  V30 44 C 4.2022 -1.56035 -1.29541 0
M  V30 45 C 4.5352 -0.230377 -1.92829 0
M  V30 46 O 3.8102 0.762952 -1.78911 0
M  V30 47 C 4.0932 -2.69323 -2.39034 0
M  V30 48 C 3.9462 -4.12002 -1.80485 0
M  V30 49 C 5.2652 -2.78408 -3.40847 0
M  V30 50 H 2.3842 -0.567992 -0.469632 0
M  V30 51 H 5.0262 -1.80302 -0.599277 0
M  V30 52 H 3.1762 -2.48763 -2.98412 0
M  V30 53 H 4.8482 -4.43981 -1.25215 0
M  V30 54 H 3.0912 -4.19344 -1.11055 0
M  V30 55 H 3.7622 -4.87077 -2.59731 0
M  V30 56 H 6.2382 -2.97012 -2.91416 0
M  V30 57 H 5.1142 -3.59416 -4.14863 0
M  V30 58 H 5.3752 -1.86269 -4.00944 0
M  V30 59 N 4.4343 0.785586 -1.36625 0
M  V30 60 C 5.3813 1.89838 -1.31264 0
M  V30 61 C 6.3513 1.65115 -0.180633 0
M  V30 62 O 7.5363 1.87222 -0.36777 0
M  V30 63 C 4.6763 3.26706 -1.11163 0
M  V30 64 C 3.7893 3.63476 -2.33472 0
M  V30 65 C 2.9243 4.89481 -2.06353 0
M  V30 66 C 1.9633 5.18941 -3.24602 0
M  V30 67 N 1.1003 6.36131 -2.97123 0
M  V30 68 H 5.9403 1.93756 -2.26413 0
M  V30 69 H 3.4773 0.947454 -1.12524 0
M  V30 70 H 5.4353 4.05639 -0.975337 0
M  V30 71 H 4.0653 3.222 -0.196674 0
M  V30 72 H 3.1173 2.79636 -2.57891 0
M  V30 73 H 4.4293 3.81193 -3.21704 0
M  V30 74 H 3.5833 5.76288 -1.89675 0
M  V30 75 H 2.3223 4.73841 -1.15437 0
M  V30 76 H 1.3273 4.30615 -3.41834 0
M  V30 77 H 2.5523 5.36498 -4.16349 0
M  V30 78 H 0.4983 6.21875 -2.08823 0
M  V30 79 H 0.4153 6.54198 -3.78894 0
M  V30 80 H 1.6833 7.2591 -2.84033 0
M  V30 81 N 5.9124 1.20967 1.01018 0
M  V30 82 C 7.1604 1.02172 1.74371 0
M  V30 83 C 7.4814 -0.446414 1.89821 0
M  V30 84 O 6.7514 -1.32234 1.44537 0
M  V30 85 H 5.3314 0.375066 0.646014 0
M  V30 86 H 7.9934 1.52187 1.21758 0
M  V30 87 H 7.0894 1.48538 2.74487 0
M  V30 88 N 7.3905 -1.2043 1.01659 0
M  V30 89 C 8.6395 -1.89118 0.701237 0
M  V30 90 C 8.9525 -1.79705 -0.772358 0
M  V30 91 O 10.1585 -2.43528 -1.20026 0
M  V30 92 C 8.6145 -3.39168 1.20388 0
M  V30 93 C 8.2225 -3.57166 2.70438 0
M  V30 94 C 9.9665 -4.1341 0.963953 0
M  V30 95 C 7.8735 -5.01042 3.14183 0
M  V30 96 H 6.8035 -0.708267 0.2586 0
M  V30 97 H 9.4545 -1.36239 1.22927 0
M  V30 98 H 7.8365 -3.91369 0.603824 0
M  V30 99 H 9.0105 -3.15351 3.35992 0
M  V30 100 H 7.3255 -2.96294 2.92572 0
M  V30 101 H 9.9225 -5.19491 1.26621 0
M  V30 102 H 10.2655 -4.16181 -0.099578 0
M  V30 103 H 10.7985 -3.67309 1.52738 0
M  V30 104 H 7.5375 -5.03426 4.19812 0
M  V30 105 H 7.0575 -5.43668 2.53348 0
M  V30 106 H 8.7365 -5.69623 3.0682 0
M  V30 107 N 8.8686 -0.792821 -1.36206 0
M  V30 108 C 9.8156 -0.191653 -2.30003 0
M  V30 109 C 10.7856 0.666453 -1.52143 0
M  V30 110 O 11.9706 0.61442 -1.80636 0
M  V30 111 C 9.1106 0.664848 -3.38635 0
M  V30 112 C 8.2236 -0.212175 -4.31479 0
M  V30 113 C 7.3586 0.651022 -5.27196 0
M  V30 114 C 6.3976 -0.227247 -6.11678 0
M  V30 115 N 5.5346 0.595127 -6.99573 0
M  V30 116 H 10.3746 -0.996978 -2.80828 0
M  V30 117 H 7.9116 -0.503206 -1.38225 0
M  V30 118 H 9.8696 1.17645 -4.00269 0
M  V30 119 H 8.4996 1.43557 -2.89122 0
M  V30 120 H 7.5516 -0.841777 -3.70969 0
M  V30 121 H 8.8636 -0.888751 -4.90818 0
M  V30 122 H 8.0176 1.2283 -5.94136 0
M  V30 123 H 6.7566 1.36121 -4.68319 0
M  V30 124 H 5.7616 -0.816904 -5.43697 0
M  V30 125 H 6.9866 -0.93509 -6.72631 0
M  V30 126 H 4.9326 1.28955 -6.432 0
M  V30 127 H 4.8496 -0.0236952 -7.55996 0
M  V30 128 H 6.1176 1.15613 -7.70879 0
M  V30 129 N 10.3467 1.47872 -0.545128 0
M  V30 130 C 11.2937 2.29849 0.2093 0
M  V30 131 C 12.2637 1.38313 0.919707 0
M  V30 132 O 13.4487 1.67277 0.917772 0
M  V30 133 C 10.5887 3.22019 1.24088 0
M  V30 134 C 9.7017 4.2864 0.537778 0
M  V30 135 C 8.8367 5.07973 1.5536 0
M  V30 136 C 7.8757 6.06381 0.8348 0
M  V30 137 N 7.0127 6.78717 1.79688 0
M  V30 138 H 11.8527 2.93845 -0.49591 0
M  V30 139 H 9.3897 1.44848 -0.256389 0
M  V30 140 H 11.3477 3.73868 1.85144 0
M  V30 141 H 9.9777 2.59914 1.91428 0
M  V30 142 H 9.0297 3.7994 -0.187046 0
M  V30 143 H 10.3417 4.98793 -0.0258907 0
M  V30 144 H 9.4957 5.63912 2.23803 0
M  V30 145 H 8.2347 4.37693 2.15118 0
M  V30 146 H 7.2397 5.49631 0.136388 0
M  V30 147 H 8.4647 6.78665 0.24313 0
M  V30 148 H 6.4107 6.11177 2.38326 0
M  V30 149 H 6.3277 7.44998 1.28505 0
M  V30 150 H 7.5957 7.39237 2.47282 0
M  V30 151 N 11.8248 0.280983 1.55075 0
M  V30 152 C 12.7728 -0.619864 2.24188 0
M  V30 153 C 13.7668 -1.15315 1.24092 0
M  V30 154 O 14.9728 -1.1061 1.42005 0
M  V30 155 H 11.3478 -0.218459 0.719569 0
M  V30 156 H 13.3188 -0.0141831 2.98397 0
M  V30 157 C 12.0678 -1.7899 2.98091 0
M  V30 158 H 11.3908 -1.38874 3.74905 0
M  V30 159 H 12.8308 -2.39672 3.49762 0
M  V30 160 C 11.2898 -2.68192 2.03899 0
M  V30 161 O 11.8198 -3.6872 1.594 0
M  V30 162 N 10.0258 -2.35488 1.70275 0
M  V30 163 H 9.5728 -1.53787 2.06658 0
M  V30 164 H 9.5308 -2.95442 1.07524 0
M  V30 165 N 13.3029 -1.57598 0.00835791 0
M  V30 166 C 14.5329 -1.94931 -0.684496 0
M  V30 167 C 14.9409 -0.882233 -1.67372 0
M  V30 168 O 14.2839 0.146621 -1.83114 0
M  V30 169 C 14.3459 -3.283 -1.4649 0
M  V30 170 C 14.0099 -4.52548 -0.63634 0
M  V30 171 C 15.0069 -5.19839 0.0795586 0
M  V30 172 C 12.6919 -4.98942 -0.579849 0
M  V30 173 C 14.6859 -6.3183 0.840843 0
M  V30 174 C 12.3729 -6.10819 0.185155 0
M  V30 175 C 13.3709 -6.77121 0.894227 0
M  V30 176 O 13.0589 -7.86853 1.64673 0
M  V30 177 H 12.7909 -0.647249 -0.19505 0
M  V30 178 H 15.3449 -2.05318 0.0581272 0
M  V30 179 H 13.5749 -3.14345 -2.2522 0
M  V30 180 H 15.2639 -3.50685 -2.04389 0
M  V30 181 H 16.0299 -4.84979 0.0451202 0
M  V30 182 H 11.9089 -4.47155 -1.1213 0
M  V30 183 H 15.4529 -6.83513 1.39483 0
M  V30 184 H 11.3499 -6.4512 0.221384 0
M  V30 185 H 12.1179 -8.03412 1.56432 0
M  V30 186 N 14.781 0.264519 -1.55364 0
M  V30 187 C 15.713 1.34965 -1.85248 0
M  V30 188 C 16.726 1.45136 -0.737525 0
M  V30 189 O 17.915 1.46801 -1.01547 0
M  V30 190 C 15.015 2.73008 -2.00797 0
M  V30 191 C 14.188 2.85324 -3.31525 0
M  V30 192 C 13.247 4.04097 -3.37034 0
M  V30 193 O 12.273 3.94455 -4.10358 0
M  V30 194 N 13.475 5.16458 -2.65049 0
M  V30 195 H 16.24 1.09672 -2.78913 0
M  V30 196 H 13.801 0.454635 -1.55386 0
M  V30 197 H 15.793 3.50772 -2.01844 0
M  V30 198 H 14.363 2.91087 -1.1396 0
M  V30 199 H 13.583 1.94377 -3.42945 0
M  V30 200 H 14.871 2.9049 -4.17724 0
M  V30 201 H 14.269 5.27181 -2.05175 0
M  V30 202 H 12.826 5.92422 -2.71809 0
M  V30 203 N 16.2591 1.48442 0.529413 0
M  V30 204 C 17.2091 1.59407 1.63014 0
M  V30 205 C 18.1931 0.451166 1.54445 0
M  V30 206 O 19.3851 0.702635 1.62456 0
M  V30 207 C 16.5141 1.63746 3.01732 0
M  V30 208 C 15.6001 2.83518 3.15402 0
M  V30 209 N 15.9911 4.07929 2.99045 0
M  V30 210 C 14.2891 2.80862 3.46457 0
M  V30 211 C 14.9901 4.8829 3.16146 0
M  V30 212 N 13.9661 4.21117 3.43746 0
M  V30 213 H 17.7681 2.53343 1.48978 0
M  V30 214 H 15.2821 1.44821 0.734885 0
M  V30 215 H 17.2791 1.69695 3.80801 0
M  V30 216 H 15.9391 0.709264 3.16859 0
M  V30 217 H 16.9501 4.38357 2.75796 0
M  V30 218 H 13.6271 1.97301 3.67938 0
M  V30 219 H 15.0171 5.97028 3.08232 0
M  V30 220 N 17.7372 -0.778329 1.37039 0
M  V30 221 C 18.6672 -1.90546 1.34962 0
M  V30 222 C 19.6482 -1.68681 0.219274 0
M  V30 223 O 20.8332 -1.89634 0.418624 0
M  V30 224 C 17.9632 -3.27734 1.14925 0
M  V30 225 C 16.9172 -3.64147 2.24902 0
M  V30 226 C 16.2432 -4.99806 1.89996 0
M  V30 227 C 17.5432 -3.71579 3.67051 0
M  V30 228 H 19.2372 -1.92541 2.29277 0
M  V30 229 H 16.7832 -0.924948 1.10366 0
M  V30 230 H 18.7362 -4.06215 1.12104 0
M  V30 231 H 17.4602 -3.26154 0.170631 0
M  V30 232 H 16.1192 -2.8797 2.26868 0
M  V30 233 H 15.7672 -4.94759 0.906796 0
M  V30 234 H 15.4672 -5.25139 2.63634 0
M  V30 235 H 16.9912 -5.80694 1.88749 0
M  V30 236 H 18.4052 -4.40227 3.67251 0
M  V30 237 H 16.8022 -4.08405 4.39688 0
M  V30 238 H 17.8722 -2.72404 4.01154 0
M  V30 239 N 19.2153 -1.21501 -1.00376 0
M  V30 240 C 20.4613 -1.04457 -1.74529 0
M  V30 241 C 20.8163 0.417386 -1.87818 0
M  V30 242 O 20.1093 1.30556 -1.40234 0
M  V30 243 C 20.3033 -1.67673 -3.15627 0
M  V30 244 C 20.1323 -3.19865 -3.16096 0
M  V30 245 C 18.9023 -3.88915 -3.22604 0
M  V30 246 C 21.1003 -4.16936 -3.01112 0
M  V30 247 N 19.0823 -5.28284 -3.12712 0
M  V30 248 C 20.4533 -5.43066 -2.99131 0
M  V30 249 C 22.5083 -4.07968 -2.85423 0
M  V30 250 C 21.2113 -6.6126 -2.83068 0
M  V30 251 C 23.2373 -5.258 -2.70718 0
M  V30 252 C 22.5993 -6.50842 -2.69414 0
M  V30 253 H 18.6983 -0.436584 -0.648782 0
M  V30 254 H 21.2823 -1.53875 -1.19293 0
M  V30 255 H 19.4533 -1.20822 -3.6913 0
M  V30 256 H 21.1853 -1.43824 -3.78281 0
M  V30 257 H 17.9403 -3.39847 -3.2985 0
M  V30 258 H 18.3643 -6.01284 -3.11105 0
M  V30 259 H 23.0063 -3.1209 -2.85236 0
M  V30 260 H 20.7243 -7.57298 -2.82002 0
M  V30 261 H 24.3103 -5.20683 -2.59577 0
M  V30 262 H 23.1903 -7.40485 -2.5817 0
M  V30 263 N 20.6934 1.19889 -1.02296 0
M  V30 264 C 22.1094 1.41462 -0.738954 0
M  V30 265 C 22.3094 1.89721 0.678846 0
M  V30 266 O 21.3654 2.07016 1.4457 0
M  V30 267 C 22.6784 2.43083 -1.77005 0
M  V30 268 C 24.2264 2.5684 -1.78892 0
M  V30 269 C 24.7014 3.61709 -2.80945 0
M  V30 270 N 26.1924 3.69199 -2.79725 0
M  V30 271 C 26.9274 4.50019 -3.55345 0
M  V30 272 N 26.4234 5.34592 -4.40662 0
M  V30 273 N 28.2164 4.44612 -3.43914 0
M  V30 274 H 20.3674 0.868827 -1.93817 0
M  V30 275 H 22.6304 0.44399 -0.837602 0
M  V30 276 H 22.3364 2.14636 -2.78612 0
M  V30 277 H 22.2104 3.4217 -1.58744 0
M  V30 278 H 24.5974 2.84614 -0.779674 0
M  V30 279 H 24.6784 1.57927 -2.01228 0
M  V30 280 H 24.3224 3.34678 -3.82038 0
M  V30 281 H 24.2524 4.60259 -2.5587 0
M  V30 282 H 26.7434 3.08794 -2.17842 0
M  V30 283 H 27.0564 5.93363 -4.95116 0
M  V30 284 H 25.4014 5.34073 -4.44737 0
M  V30 285 H 28.5924 3.7758 -2.76679 0
M  V30 286 H 28.7654 5.0736 -4.031 0
M  V30 287 N 22.1715 0.800033 1.35784 0
M  V30 288 C 23.4175 0.38701 1.99684 0
M  V30 289 C 23.7725 -1.03268 1.62338 0
M  V30 290 O 23.0655 -1.70543 0.87325 0
M  V30 291 C 23.2595 0.500276 3.53881 0
M  V30 292 C 23.0885 1.92942 4.06206 0
M  V30 293 C 21.8585 2.55637 4.35865 0
M  V30 294 C 24.0565 2.89307 4.25213 0
M  V30 295 N 22.0385 3.9003 4.74078 0
M  V30 296 C 23.4095 4.08556 4.66349 0
M  V30 297 C 25.4645 2.86225 4.07406 0
M  V30 298 C 24.1675 5.25146 4.91543 0
M  V30 299 C 26.1935 4.02011 4.33752 0
M  V30 300 C 25.5555 5.20007 4.75155 0
M  V30 301 H 21.6545 0.189252 0.758754 0
M  V30 302 H 24.2385 1.03988 1.64604 0
M  V30 303 H 22.4095 -0.122568 3.88207 0
M  V30 304 H 24.1415 0.0624733 4.04652 0
M  V30 305 H 20.8965 2.07039 4.25948 0
M  V30 306 H 21.3205 4.59205 4.97454 0
M  V30 307 H 25.9625 1.96154 3.74544 0
M  V30 308 H 23.6805 6.15794 5.23281 0
M  V30 309 H 27.2665 4.00999 4.21534 0
M  V30 310 H 26.1465 6.08113 4.95145 0
M  V30 311 N 23.6496 -1.47581 0.552962 0
M  V30 312 C 24.8976 -2.02082 0.0272703 0
M  V30 313 C 25.2186 -1.4301 -1.32563 0
M  V30 314 O 24.4886 -0.603745 -1.86365 0
M  V30 315 H 23.0686 -0.746966 0.00709182 0
M  V30 316 H 25.7306 -1.81033 0.722008 0
M  V30 317 H 24.8266 -3.12034 -0.0639951 0
M  V30 318 N 25.1277 -0.289203 -1.54924 0
M  V30 319 C 26.3757 0.322879 -1.99504 0
M  V30 320 C 26.6967 1.55313 -1.1791 0
M  V30 321 O 25.9667 1.94001 -0.272097 0
M  V30 322 H 24.5467 0.122291 -0.736922 0
M  V30 323 H 27.2087 -0.397802 -1.90797 0
M  V30 324 H 26.3047 0.603061 -3.06218 0
M  V30 325 N 26.6058 1.57591 -0.0167156 0
M  V30 326 C 27.5388 2.04944 1.00366 0
M  V30 327 C 28.5168 0.942648 1.32487 0
M  V30 328 O 29.7008 1.21205 1.44367 0
M  V30 329 C 26.8278 2.46109 2.32697 0
M  V30 330 C 25.8738 3.67686 2.16123 0
M  V30 331 S 26.7068 5.14882 1.47161 0
M  V30 332 C 27.8628 5.59332 2.80888 0
M  V30 333 H 28.0958 2.91172 0.600528 0
M  V30 334 H 25.6288 1.53168 0.194632 0
M  V30 335 H 27.5868 2.70493 3.08778 0
M  V30 336 H 26.2478 1.6025 2.70146 0
M  V30 337 H 25.4408 3.94296 3.13922 0
M  V30 338 H 25.0428 3.43391 1.48185 0
M  V30 339 H 27.3348 5.62814 3.77156 0
M  V30 340 H 28.2778 6.5905 2.58958 0
M  V30 341 H 28.6858 4.86942 2.85565 0
M  V30 342 N 28.0839 -0.256276 1.55502 0
M  V30 343 C 29.0169 -1.34321 1.84481 0
M  V30 344 C 29.9949 -1.46802 0.699131 0
M  V30 345 O 31.1789 -1.63165 0.943904 0
M  V30 346 C 28.3059 -2.71779 2.02123 0
M  V30 347 C 27.3519 -2.76496 3.24734 0
M  V30 348 S 28.1849 -2.3405 4.81644 0
M  V30 349 C 29.3409 -3.73452 5.02279 0
M  V30 350 H 29.5739 -1.09539 2.76385 0
M  V30 351 H 27.1069 -0.45678 1.47489 0
M  V30 352 H 29.0649 -3.50932 2.12972 0
M  V30 353 H 27.7259 -2.93803 1.11078 0
M  V30 354 H 26.9189 -3.77424 3.34016 0
M  V30 355 H 26.5209 -2.05379 3.12563 0
M  V30 356 H 28.8129 -4.6887 4.89047 0
M  V30 357 H 29.7559 -3.6911 6.04287 0
M  V30 358 H 30.1639 -3.6553 4.30172 0
M  V30 359 N 29.562 -1.4872 -0.521534 0
M  V30 360 C 30.492 -1.66771 -1.63431 0
M  V30 361 C 31.473 -0.516499 -1.62069 0
M  V30 362 O 32.658 -0.750013 -1.79132 0
M  V30 363 C 29.788 -1.71515 -3.01993 0
M  V30 364 C 28.742 -2.86222 -3.18216 0
M  V30 365 C 28.068 -2.76061 -4.57924 0
M  V30 366 C 29.368 -4.27419 -3.00184 0
M  V30 367 H 31.062 -2.59932 -1.48579 0
M  V30 368 H 28.608 -1.25089 -0.713358 0
M  V30 369 H 30.561 -1.82731 -3.7972 0
M  V30 370 H 29.285 -0.749393 -3.17886 0
M  V30 371 H 27.944 -2.74575 -2.42908 0
M  V30 372 H 27.592 -1.77437 -4.70665 0
M  V30 373 H 27.292 -3.53037 -4.69722 0
M  V30 374 H 28.816 -2.89256 -5.37739 0
M  V30 375 H 30.23 -4.39855 -3.67697 0
M  V30 376 H 28.627 -5.05458 -3.2347 0
M  V30 377 H 29.697 -4.43293 -1.96518 0
M  V30 378 N 31.0401 0.771051 -1.3745 0
M  V30 379 C 31.9701 1.89827 -1.3597 0
M  V30 380 C 32.9511 1.68562 -0.228216 0
M  V30 381 O 34.1361 1.8941 -0.428675 0
M  V30 382 C 31.2661 3.2712 -1.16662 0
M  V30 383 C 30.2201 3.6295 -2.2683 0
M  V30 384 C 29.5461 4.98791 -1.92644 0
M  V30 385 C 30.8461 3.69627 -3.69017 0
M  V30 386 H 32.5401 1.91323 -2.30295 0
M  V30 387 H 30.0861 0.919082 -1.10855 0
M  V30 388 H 32.0391 4.05615 -1.14256 0
M  V30 389 H 30.7631 3.26059 -0.187926 0
M  V30 390 H 29.4221 2.86763 -2.28392 0
M  V30 391 H 29.0701 4.94271 -0.933021 0
M  V30 392 H 28.7701 5.23733 -2.66416 0
M  V30 393 H 30.2941 5.79685 -1.91826 0
M  V30 394 H 31.7081 4.38273 -3.69581 0
M  V30 395 H 30.1051 4.06067 -4.41848 0
M  V30 396 H 31.1751 2.70273 -4.02592 0
M  V30 397 N 32.5182 1.22032 0.997298 0
M  V30 398 C 33.7662 1.04016 1.73278 0
M  V30 399 C 34.0872 -0.426255 1.90284 0
M  V30 400 O 33.3572 -1.30694 1.45931 0
M  V30 401 H 31.9372 0.381897 0.642 0
M  V30 402 H 34.5992 1.5347 1.20137 0
M  V30 403 H 33.6952 1.51441 2.72896 0
M  V30 404 N 33.9963 -1.19345 1.0293 0
M  V30 405 C 35.2453 -1.88363 0.721256 0
M  V30 406 C 35.5583 -1.80514 -0.753254 0
M  V30 407 O 36.7643 -2.44788 -1.17436 0
M  V30 408 C 35.2203 -3.37872 1.23978 0
M  V30 409 C 34.8283 -3.54278 2.74211 0
M  V30 410 C 36.5723 -4.12365 1.00775 0
M  V30 411 C 34.4793 -4.97682 3.19479 0
M  V30 412 H 33.4093 -0.705484 0.266098 0
M  V30 413 H 36.0603 -1.34928 1.24365 0
M  V30 414 H 34.4423 -3.90707 0.6453 0
M  V30 415 H 35.6163 -3.11769 3.39318 0
M  V30 416 H 33.9313 -2.93174 2.95699 0
M  V30 417 H 36.5283 -5.18119 1.32123 0
M  V30 418 H 36.8713 -4.16263 -0.0554308 0
M  V30 419 H 37.4043 -3.65668 1.56625 0
M  V30 420 H 34.1433 -4.98945 4.25128 0
M  V30 421 H 33.6633 -5.4095 2.591 0
M  V30 422 H 35.3423 -5.66337 3.12845 0
M  V30 423 N 35.4744 -0.807222 -1.35358 0
M  V30 424 C 36.4044 -0.232509 -2.3234 0
M  V30 425 C 37.3854 0.642386 -1.57504 0
M  V30 426 O 38.5704 0.572526 -1.85569 0
M  V30 427 C 35.7004 0.619238 -3.41735 0
M  V30 428 C 34.6544 -0.157215 -4.27711 0
M  V30 429 C 33.9804 0.816273 -5.28433 0
M  V30 430 C 35.2804 -1.35656 -5.04376 0
M  V30 431 H 36.9744 -1.04276 -2.80654 0
M  V30 432 H 34.5204 -0.50288 -1.34934 0
M  V30 433 H 36.4734 1.03137 -4.08584 0
M  V30 434 H 35.1974 1.46239 -2.92031 0
M  V30 435 H 33.8564 -0.550525 -3.62443 0
M  V30 436 H 33.5044 1.65494 -4.74996 0
M  V30 437 H 33.2044 0.301067 -5.86828 0
M  V30 438 H 34.7284 1.22659 -5.98153 0
M  V30 439 H 36.1424 -1.01927 -5.64166 0
M  V30 440 H 34.5394 -1.8063 -5.7227 0
M  V30 441 H 35.6094 -2.14288 -4.34981 0
M  V30 442 N 36.9525 1.47285 -0.560781 0
M  V30 443 C 37.8855 2.27009 0.232821 0
M  V30 444 C 38.8635 1.34273 0.917039 0
M  V30 445 O 40.0475 1.63659 0.935315 0
M  V30 446 C 37.1745 3.11406 1.33206 0
M  V30 447 C 36.2205 4.19746 0.756019 0
M  V30 448 S 37.0535 5.34003 -0.400165 0
M  V30 449 C 38.2095 6.21964 0.700805 0
M  V30 450 H 38.4425 2.93971 -0.443683 0
M  V30 451 H 35.9755 1.50446 -0.347181 0
M  V30 452 H 37.9335 3.60601 1.96156 0
M  V30 453 H 36.5945 2.438 1.98041 0
M  V30 454 H 35.7875 4.78541 1.5816 0
M  V30 455 H 35.3895 3.73451 0.202619 0
M  V30 456 H 37.6815 6.58529 1.59202 0
M  V30 457 H 38.6245 7.07941 0.150126 0
M  V30 458 H 39.0325 5.5566 0.995083 0
M  V30 459 N 38.4306 0.297415 1.54768 0
M  V30 460 C 39.6796 -0.313669 1.99246 0
M  V30 461 C 39.9926 -1.55281 1.18942 0
M  V30 462 O 41.1986 -2.23825 1.5367 0
M  V30 463 C 39.6546 -0.609407 3.54703 0
M  V30 464 C 39.2626 0.611192 4.43811 0
M  V30 465 C 41.0066 -1.18188 4.07715 0
M  V30 466 C 38.9136 0.288805 5.90694 0
M  V30 467 H 37.8436 -0.120979 0.744231 0
M  V30 468 H 40.4946 0.40556 1.78962 0
M  V30 469 H 38.8766 -1.38813 3.70873 0
M  V30 470 H 40.0506 1.3875 4.39414 0
M  V30 471 H 38.3656 1.10205 4.01552 0
M  V30 472 H 40.9626 -1.43727 5.15021 0
M  V30 473 H 41.3056 -2.12299 3.58099 0
M  V30 474 H 41.8386 -0.464944 3.95074 0
M  V30 475 H 38.5776 1.19838 6.44453 0
M  V30 476 H 38.0976 -0.450305 5.98107 0
M  V30 477 H 39.7766 -0.110933 6.46905 0
M  V30 478 N 39.9087 -1.5758 0.0250728 0
M  V30 479 C 41.1487 -1.93497 -0.65865 0
M  V30 480 C 41.5127 -0.901409 -1.69525 0
M  V30 481 O 42.7137 -1.14664 -2.43116 0
M  V30 482 C 40.9847 -3.34352 -1.26267 0
M  V30 483 S 42.5437 -3.92191 -1.96803 0
M  V30 484 H 39.3617 -0.67709 -0.216958 0
M  V30 485 H 41.9637 -1.95303 0.0877692 0
M  V30 486 H 40.6677 -4.07395 -0.495741 0
M  V30 487 H 40.1987 -3.3598 -2.04648 0
M  V30 488 H 42.2137 -3.75298 -3.24601 0
M  V30 489 N 41.3868 0.248026 -1.55636 0
M  V30 490 C 42.6118 0.998028 -1.81808 0
M  V30 491 C 43.0368 1.78207 -0.601979 0
M  V30 492 O 42.3948 1.75653 0.448961 0
M  V30 493 C 42.4428 1.9125 -3.05705 0
M  V30 494 O 41.5468 3.00406 -2.82542 0
M  V30 495 H 40.8878 0.284045 -0.600179 0
M  V30 496 H 43.4178 0.269357 -2.02819 0
M  V30 497 H 43.4278 2.32737 -3.35108 0
M  V30 498 H 42.1028 1.33602 -3.93857 0
M  V30 499 H 40.6798 2.63056 -2.64303 0
M  V30 500 N 42.8649 1.48995 0.513639 0
M  V30 501 C 43.8279 1.64229 1.59879 0
M  V30 502 C 44.8279 0.514696 1.5234 0
M  V30 503 O 46.0179 0.78087 1.55718 0
M  V30 504 C 43.1499 1.62783 2.99524 0
M  V30 505 H 44.3429 2.61004 1.47705 0
M  V30 506 H 41.8959 1.37837 0.736936 0
M  V30 507 H 42.6309 0.675461 3.17188 0
M  V30 508 H 42.4159 2.4466 3.06404 0
M  V30 509 H 43.9059 1.76669 3.78388 0
M  V30 510 N 44.343 -0.763751 1.37857 0
M  V30 511 C 45.571 -1.55293 1.36718 0
M  V30 512 C 45.986 -1.88745 -0.0455434 0
M  V30 513 O 45.343 -1.52039 -1.00947 0
M  V30 514 C 45.394 -2.85831 2.2132 0
M  V30 515 O 45.115 -2.5381 3.57089 0
M  V30 516 C 46.616 -3.80023 2.28249 0
M  V30 517 H 43.836 -0.480841 0.468009 0
M  V30 518 H 46.38 -0.946009 1.81303 0
M  V30 519 H 44.535 -3.42926 1.80223 0
M  V30 520 H 44.949 -3.37459 4.01524 0
M  V30 521 H 46.423 -4.68599 2.91752 0
M  V30 522 H 46.9 -4.1973 1.2932 0
M  V30 523 H 47.506 -3.28855 2.69693 0
M  V30 524 N 45.8211 -1.22559 -0.990812 0
M  V30 525 C 47.0981 -0.959875 -1.70428 0
M  V30 526 C 47.4781 0.524455 -2.04481 0
M  V30 527 O 46.8261 1.49302 -1.72977 0
M  V30 528 C 47.0361 -1.85955 -2.95333 0
M  V30 529 C 48.3841 -2.11687 -3.68068 0
M  V30 530 O 49.4081 -1.8342 -3.05345 0
M  V30 531 O 48.2671 -2.59572 -4.80921 0
M  V30 532 H 45.3611 -0.361154 -0.743974 0
M  V30 533 H 47.9071 -1.33554 -1.04697 0
M  V30 534 H 46.6791 -2.86346 -2.66687 0
M  V30 535 H 46.3021 -1.4856 -3.68803 0
M  V30 536 N 47.2992 1.18797 -1.03562 0
M  V30 537 C 48.2462 2.22253 -0.622259 0
M  V30 538 C 49.2162 1.61987 0.36736 0
M  V30 539 O 50.4012 1.88986 0.262492 0
M  V30 540 C 47.5412 3.45097 0.0138462 0
M  V30 541 C 46.6542 4.19722 -1.02263 0
M  V30 542 C 45.7892 5.30009 -0.355573 0
M  V30 543 C 44.8282 5.96399 -1.37749 0
M  V30 544 N 43.9652 6.98234 -0.735766 0
M  V30 545 H 48.8052 2.56968 -1.50903 0
M  V30 546 H 46.3422 1.26245 -0.755017 0
M  V30 547 H 48.3002 4.15279 0.399948 0
M  V30 548 H 46.9302 3.11018 0.864158 0
M  V30 549 H 45.9822 3.48418 -1.52673 0
M  V30 550 H 47.2942 4.65227 -1.79903 0
M  V30 551 H 46.4482 6.0664 0.0850095 0
M  V30 552 H 45.1872 4.85592 0.452967 0
M  V30 553 H 44.1922 5.18512 -1.82826 0
M  V30 554 H 45.4172 6.42899 -2.18764 0
M  V30 555 H 43.3632 6.55979 0.0525597 0
M  V30 556 H 43.2802 7.41965 -1.44995 0
M  V30 557 H 44.5482 7.78845 -0.31941 0
M  V30 558 N 48.7773 0.814389 1.34928 0
M  V30 559 C 49.7073 0.244827 2.32213 0
M  V30 560 C 50.6883 -0.634024 1.57842 0
M  V30 561 O 51.8733 -0.562676 1.8587 0
M  V30 562 C 49.0033 -0.601106 3.42058 0
M  V30 563 C 47.9573 0.179896 4.27622 0
M  V30 564 C 47.2833 -0.788237 5.28858 0
M  V30 565 C 48.5833 1.38329 5.03649 0
M  V30 566 H 50.2773 1.05763 2.80097 0
M  V30 567 H 47.8233 0.510029 1.34665 0
M  V30 568 H 49.7763 -1.00968 4.09125 0
M  V30 569 H 48.5003 -1.44688 2.92802 0
M  V30 570 H 47.1593 0.569739 3.62146 0
M  V30 571 H 46.8073 -1.62973 4.75866 0
M  V30 572 H 46.5073 -0.269942 5.8698 0
M  V30 573 H 48.0313 -1.19485 5.98795 0
M  V30 574 H 49.4453 1.04918 5.63618 0
M  V30 575 H 47.8423 1.83662 5.71304 0
M  V30 576 H 48.9123 2.16592 4.33839 0
M  V30 577 N 50.2554 -1.46986 0.568584 0
M  V30 578 C 51.5014 -2.0332 0.0571487 0
M  V30 579 C 51.8564 -1.43384 -1.28291 0
M  V30 580 O 51.1494 -0.584304 -1.82473 0
M  V30 581 C 51.3434 -3.57306 -0.081836 0
M  V30 582 C 51.1724 -4.32174 1.24321 0
M  V30 583 C 49.9424 -4.71633 1.81358 0
M  V30 584 C 52.1404 -4.66598 2.16312 0
M  V30 585 N 50.1224 -5.31191 3.07748 0
M  V30 586 C 51.4934 -5.26578 3.27285 0
M  V30 587 C 53.5484 -4.48527 2.16166 0
M  V30 588 C 52.2514 -5.70395 4.38226 0
M  V30 589 C 54.2774 -4.93351 3.26127 0
M  V30 590 C 53.6394 -5.5339 4.3582 0
M  V30 591 H 49.7384 -0.77943 0.063351 0
M  V30 592 H 52.3224 -1.79323 0.758378 0
M  V30 593 H 50.4934 -3.81046 -0.752207 0
M  V30 594 H 52.2254 -4.00282 -0.59637 0
M  V30 595 H 48.9804 -4.53946 1.35019 0
M  V30 596 H 49.4044 -5.65505 3.72201 0
M  V30 597 H 54.0464 -4.01456 1.32638 0
M  V30 598 H 51.7644 -6.16452 5.22506 0
M  V30 599 H 55.3504 -4.81131 3.27115 0
M  V30 600 H 54.2304 -5.87441 5.19503 0
M  V30 601 N 51.7335 -0.305618 -1.54608 0
M  V30 602 C 52.9795 0.302746 -2.00528 0
M  V30 603 C 53.3125 1.53184 -1.19367 0
M  V30 604 O 52.5875 1.92598 -0.271321 0
M  V30 605 C 52.8705 0.654756 -3.54097 0
M  V30 606 C 52.7235 -0.583793 -4.45995 0
M  V30 607 C 54.0425 1.47947 -4.14487 0
M  V30 608 H 51.1615 0.108564 -0.72896 0
M  V30 609 H 53.8035 -0.418634 -1.85331 0
M  V30 610 H 51.9535 1.26935 -3.67178 0
M  V30 611 H 53.6255 -1.22224 -4.44814 0
M  V30 612 H 51.8685 -1.21615 -4.16404 0
M  V30 613 H 52.5395 -0.293287 -5.5122 0
M  V30 614 H 55.0155 0.96013 -4.04871 0
M  V30 615 H 53.8915 1.69454 -5.22088 0
M  V30 616 H 54.1525 2.47011 -3.66658 0
M  V30 617 N 53.2116 1.57565 -0.0334293 0
M  V30 618 C 54.4396 1.9628 0.654347 0
M  V30 619 C 54.8546 0.910138 1.65414 0
M  V30 620 O 54.2116 -0.107595 1.82183 0
M  V30 621 C 54.2626 3.35067 1.35693 0
M  V30 622 O 53.9836 4.36296 0.397191 0
M  V30 623 C 55.4846 3.88439 2.13613 0
M  V30 624 H 52.7046 0.646369 0.180132 0
M  V30 625 H 55.2486 2.04282 -0.0944721 0
M  V30 626 H 53.4036 3.2827 2.05712 0
M  V30 627 H 53.8176 5.1678 0.896597 0
M  V30 628 H 55.2916 4.8788 2.58219 0
M  V30 629 H 55.7686 3.22914 2.97696 0
M  V30 630 H 56.3746 3.98516 1.48543 0
M  V30 631 N 54.6897 -0.239769 1.55765 0
M  V30 632 C 55.9357 -0.968234 1.78194 0
M  V30 633 C 56.2687 -1.84701 0.599938 0
M  V30 634 O 55.5437 -1.9031 -0.401524 0
M  V30 635 C 55.8267 -1.8227 3.10564 0
M  V30 636 C 55.6797 -0.971633 4.3918 0
M  V30 637 C 56.9987 -2.80388 3.39221 0
M  V30 638 H 54.1177 -0.350572 0.648281 0
M  V30 639 H 56.7597 -0.238259 1.885 0
M  V30 640 H 54.9097 -2.44507 3.01908 0
M  V30 641 H 56.5817 -0.367408 4.59835 0
M  V30 642 H 54.8247 -0.276276 4.32919 0
M  V30 643 H 55.4957 -1.60346 5.28198 0
M  V30 644 H 57.9717 -2.28287 3.47885 0
M  V30 645 H 56.8477 -3.3729 4.33044 0
M  V30 646 H 57.1087 -3.57212 2.60484 0
M  V30 647 N 56.1678 -1.49265 -0.50573 0
M  V30 648 C 57.3978 -1.61979 -1.28243 0
M  V30 649 C 57.8058 -0.288576 -1.86986 0
M  V30 650 O 57.1488 0.735408 -1.68337 0
M  V30 651 C 57.2108 -2.62632 -2.45489 0
M  V30 652 C 56.8748 -4.071 -2.07651 0
M  V30 653 C 57.8718 -4.94049 -1.61901 0
M  V30 654 C 55.5568 -4.52801 -2.17431 0
M  V30 655 C 57.5508 -6.24736 -1.26428 0
M  V30 656 C 55.2378 -5.83503 -1.8157 0
M  V30 657 C 56.2358 -6.69294 -1.36142 0
M  V30 658 O 55.9238 -7.9756 -1.00764 0
M  V30 659 H 55.6558 -0.54834 -0.395347 0
M  V30 660 H 58.2098 -1.96002 -0.614204 0
M  V30 661 H 56.4398 -2.2378 -3.15372 0
M  V30 662 H 58.1288 -2.64925 -3.07522 0
M  V30 663 H 58.8948 -4.5997 -1.53795 0
M  V30 664 H 54.7738 -3.86196 -2.51742 0
M  V30 665 H 58.3178 -6.91652 -0.908992 0
M  V30 666 H 54.2148 -6.17112 -1.89324 0
M  V30 667 H 54.9828 -8.10529 -1.13952 0
M  V30 668 N 57.6459 0.756429 -1.3826 0
M  V30 669 C 58.8759 1.54341 -1.3734 0
M  V30 670 C 59.2839 1.89159 0.0393917 0
M  V30 671 O 58.6269 1.5307 1.01565 0
M  V30 672 C 58.6889 2.87238 -2.16182 0
M  V30 673 C 58.3529 2.74973 -3.65019 0
M  V30 674 C 59.3499 2.44962 -4.58574 0
M  V30 675 C 57.0349 2.92515 -4.08338 0
M  V30 676 C 59.0289 2.32642 -5.93428 0
M  V30 677 C 56.7159 2.79815 -5.43274 0
M  V30 678 C 57.7139 2.49921 -6.35632 0
M  V30 679 O 57.4019 2.37275 -7.68086 0
M  V30 680 H 57.1339 0.484281 -0.471643 0
M  V30 681 H 59.6879 0.944152 -1.82414 0
M  V30 682 H 57.9179 3.49342 -1.65822 0
M  V30 683 H 59.6069 3.48731 -2.07705 0
M  V30 684 H 60.3729 2.31081 -4.26412 0
M  V30 685 H 56.2519 3.14781 -3.368 0
M  V30 686 H 59.7959 2.0923 -6.65484 0
M  V30 687 H 55.6929 2.93269 -5.75034 0
M  V30 688 H 56.4609 2.52509 -7.78577 0
M  V30 689 N 59.124 1.23083 0.984299 0
M  V30 690 C 60.372 1.05848 1.72165 0
M  V30 691 C 60.693 -0.406049 1.90726 0
M  V30 692 O 59.963 -1.29139 1.47309 0
M  V30 693 H 58.543 0.388685 0.637913 0
M  V30 694 H 61.205 1.54736 1.18503 0
M  V30 695 H 60.301 1.54327 2.71274 0
M  V30 696 N 60.6021 -1.18246 1.0419 0
M  V30 697 C 61.8481 -1.88536 0.747122 0
M  V30 698 C 62.1811 -1.80223 -0.723409 0
M  V30 699 O 61.4561 -1.20337 -1.52804 0
M  V30 700 C 61.7391 -3.38968 1.21544 0
M  V30 701 C 61.5921 -3.56084 2.74816 0
M  V30 702 C 62.9111 -4.32648 0.806482 0
M  V30 703 H 60.0301 -0.684619 0.272883 0
M  V30 704 H 62.6721 -1.39113 1.29413 0
M  V30 705 H 60.8221 -3.8119 0.750081 0
M  V30 706 H 62.4941 -3.22946 3.29399 0
M  V30 707 H 60.7371 -2.98699 3.14582 0
M  V30 708 H 61.4081 -4.61639 3.02644 0
M  V30 709 H 63.8841 -3.98211 1.20695 0
M  V30 710 H 62.7601 -5.36462 1.1619 0
M  V30 711 H 63.0211 -4.41146 -0.29029 0
M  V30 712 N 62.0802 -0.821533 -1.34494 0
M  V30 713 C 63.4912 -0.467956 -1.8074 0
M  V30 714 C 63.8422 1.01151 -1.68116 0
M  V30 715 O 62.9672 1.78707 -1.22036 0
M  V30 716 C 63.5622 -0.842627 -3.28154 0
M  V30 717 C 62.1212 -0.541439 -3.72485 0
M  V30 718 C 61.2682 -1.06028 -2.56229 0
M  V30 719 H 64.2192 -1.01183 -1.22261 0
M  V30 720 H 64.2402 -0.145876 -3.8022 0
M  V30 721 H 63.7522 -1.91945 -3.37311 0
M  V30 722 H 61.8532 0.526034 -3.68868 0
M  V30 723 H 61.9662 -1.08453 -4.66663 0
M  V30 724 H 60.3302 -0.481892 -2.501 0
M  V30 725 H 61.1132 -2.14352 -2.68157 0
M  V30 726 N 63.5583 1.46682 -0.576371 0
M  V30 727 C 64.8043 2.02712 -0.0596221 0
M  V30 728 C 65.1373 1.44765 1.29448 0
M  V30 729 O 64.4123 0.610355 1.84675 0
M  V30 730 C 64.6953 3.60098 0.0129503 0
M  V30 731 C 64.5483 4.28441 -1.3696 0
M  V30 732 C 65.8673 4.34224 0.71678 0
M  V30 733 H 62.9863 0.736637 -0.0231407 0
M  V30 734 H 65.6283 1.74898 -0.742351 0
M  V30 735 H 63.7783 3.83926 0.594378 0
M  V30 736 H 65.4503 4.15896 -1.9957 0
M  V30 737 H 63.6933 3.8805 -1.93907 0
M  V30 738 H 64.3643 5.3716 -1.27135 0
M  V30 739 H 66.8403 4.15503 0.222908 0
M  V30 740 H 65.7163 5.43936 0.73657 0
M  V30 741 H 65.9773 4.04823 1.77682 0
M  V30 742 N 65.0364 0.313813 1.54444 0
M  V30 743 C 66.2824 -0.284918 2.01395 0
M  V30 744 C 66.6374 -1.50537 1.19818 0
M  V30 745 O 65.9304 -1.89692 0.269748 0
M  V30 746 C 66.1244 -0.680386 3.50864 0
M  V30 747 C 65.9534 0.500198 4.4691 0
M  V30 748 C 64.7234 0.996248 4.95382 0
M  V30 749 C 66.9214 1.34928 4.96285 0
M  V30 750 N 64.9034 2.14226 5.75309 0
M  V30 751 C 66.2744 2.3426 5.7404 0
M  V30 752 C 68.3294 1.37818 4.78446 0
M  V30 753 C 67.0324 3.36272 6.35856 0
M  V30 754 C 69.0584 2.38695 5.4109 0
M  V30 755 C 68.4204 3.36755 6.18688 0
M  V30 756 H 64.5194 -0.0683689 0.779006 0
M  V30 757 H 67.1034 0.44664 1.89508 0
M  V30 758 H 65.2744 -1.38109 3.63016 0
M  V30 759 H 67.0064 -1.25975 3.84594 0
M  V30 760 H 63.7614 0.56912 4.70168 0
M  V30 761 H 64.1854 2.72005 6.19953 0
M  V30 762 H 68.8274 0.633747 4.18023 0
M  V30 763 H 66.5454 4.11627 6.95405 0
M  V30 764 H 70.1314 2.41721 5.29209 0
M  V30 765 H 69.0114 4.13535 6.66302 0
M  V30 766 N 66.5145 -1.57545 0.0417849 0
M  V30 767 C 67.4615 -2.10977 -0.935805 0
M  V30 768 C 68.4315 -1.01486 -1.31491 0
M  V30 769 O 69.6165 -1.2898 -1.40602 0
M  V30 770 C 66.7565 -2.65169 -2.2086 0
M  V30 771 C 65.8695 -3.88714 -1.88482 0
M  V30 772 C 65.0045 -4.31254 -3.1015 0
M  V30 773 C 64.0435 -5.47524 -2.7365 0
M  V30 774 N 63.1805 -5.85162 -3.87982 0
M  V30 775 H 68.0205 -2.94218 -0.473249 0
M  V30 776 H 65.5575 -1.45415 -0.221981 0
M  V30 777 H 67.5155 -2.94685 -2.95325 0
M  V30 778 H 66.1455 -1.8474 -2.64709 0
M  V30 779 H 65.1975 -3.65849 -1.04205 0
M  V30 780 H 66.5095 -4.73245 -1.57608 0
M  V30 781 H 65.6635 -4.62273 -3.92923 0
M  V30 782 H 64.4025 -3.45516 -3.44195 0
M  V30 783 H 63.4075 -5.16187 -1.89291 0
M  V30 784 H 64.6325 -6.34971 -2.40807 0
M  V30 785 H 62.5785 -5.02377 -4.21846 0
M  V30 786 H 62.4955 -6.64362 -3.60775 0
M  V30 787 H 63.7635 -6.20791 -4.71422 0
M  V30 788 N 67.9926 0.231505 -1.5589 0
M  V30 789 C 68.9026 1.308 -1.94752 0
M  V30 790 C 69.9186 1.51826 -0.849989 0
M  V30 791 O 71.0946 1.6515 -1.15271 0
M  V30 792 C 68.1596 2.63968 -2.24771 0
M  V30 793 C 67.2206 2.51331 -3.48039 0
M  V30 794 C 66.4536 3.78148 -3.76616 0
M  V30 795 O 66.6766 4.80722 -3.07022 0
M  V30 796 O 65.6106 3.75857 -4.70123 0
M  V30 797 H 69.4366 1.0083 -2.86474 0
M  V30 798 H 67.0216 0.433547 -1.42971 0
M  V30 799 H 68.9036 3.42633 -2.45318 0
M  V30 800 H 67.5786 2.9364 -1.36225 0
M  V30 801 H 66.4856 1.709 -3.32782 0
M  V30 802 H 67.8186 2.26601 -4.36936 0
M  V30 803 N 69.4707 1.49531 0.497807 0
M  V30 804 C 70.4337 1.65916 1.58128 0
M  V30 805 C 71.4337 0.530825 1.51786 0
M  V30 806 O 72.6237 0.797342 1.54881 0
M  V30 807 C 69.7557 1.65951 2.9778 0
M  V30 808 H 70.9487 2.62556 1.44929 0
M  V30 809 H 68.5017 1.38611 0.722275 0
M  V30 810 H 69.2367 0.709065 3.16453 0
M  V30 811 H 69.0217 2.47897 3.03792 0
M  V30 812 H 70.5117 1.80673 3.76493 0
M  V30 813 N 70.9488 -0.749086 1.3866 0
M  V30 814 C 71.8968 -1.88428 1.36373 0
M  V30 815 C 72.8908 -1.67561 0.248929 0
M  V30 816 O 74.0968 -1.75074 0.41821 0
M  V30 817 H 70.4718 -0.620023 0.42553 0
M  V30 818 H 72.4428 -1.87473 2.32156 0
M  V30 819 C 71.1918 -3.25961 1.21014 0
M  V30 820 H 70.5148 -3.42607 2.06059 0
M  V30 821 H 71.9548 -4.05625 1.23469 0
M  V30 822 C 70.4138 -3.36799 -0.0825941 0
M  V30 823 O 70.9438 -3.87517 -1.05797 0
M  V30 824 N 69.1498 -2.90258 -0.140939 0
M  V30 825 H 68.6968 -2.49174 0.653477 0
M  V30 826 H 68.6548 -2.97889 -1.00545 0
M  V30 827 N 72.4269 -1.23603 -0.977757 0
M  V30 828 C 73.6549 -1.09646 -1.75458 0
M  V30 829 C 74.0699 0.351859 -1.85492 0
M  V30 830 O 73.4269 1.24327 -1.336 0
M  V30 831 C 73.4779 -1.71895 -3.18016 0
M  V30 832 O 73.1989 -3.11063 -3.08498 0
M  V30 833 C 74.6999 -1.63415 -4.12081 0
M  V30 834 H 71.9199 -0.38359 -0.550545 0
M  V30 835 H 74.4639 -1.63507 -1.22824 0
M  V30 836 H 72.6189 -1.22061 -3.67668 0
M  V30 837 H 73.0329 -3.41305 -3.9826 0
M  V30 838 H 74.5069 -2.11669 -5.09804 0
M  V30 839 H 74.9839 -0.593462 -4.35172 0
M  V30 840 H 75.5899 -2.12628 -3.68334 0
M  V30 841 N 73.905 1.17692 -1.04816 0
M  V30 842 C 75.133 1.91786 -0.776254 0
M  V30 843 C 75.548 1.76604 0.667577 0
M  V30 844 O 74.905 1.10067 1.45573 0
M  V30 845 C 74.956 3.42967 -1.14263 0
M  V30 846 O 74.677 3.57678 -2.52978 0
M  V30 847 C 76.178 4.34144 -0.896311 0
M  V30 848 H 73.398 0.608624 -0.282519 0
M  V30 849 H 75.942 1.49268 -1.39783 0
M  V30 850 H 74.097 3.83245 -0.565874 0
M  V30 851 H 74.511 4.51319 -2.67229 0
M  V30 852 H 75.985 5.38744 -1.20244 0
M  V30 853 H 76.462 4.38876 0.168636 0
M  V30 854 H 77.068 3.99574 -1.45672 0
M  V30 855 N 75.3831 0.828654 1.34056 0
M  V30 856 C 76.3131 0.269443 2.3194 0
M  V30 857 C 77.2941 -0.617247 1.58506 0
M  V30 858 O 78.4791 -0.542931 1.86456 0
M  V30 859 C 75.6091 -0.564793 3.42677 0
M  V30 860 C 74.5631 0.225241 4.27407 0
M  V30 861 C 73.8891 -0.7321 5.29664 0
M  V30 862 C 75.1891 1.43663 5.02154 0
M  V30 863 H 76.8831 1.08728 2.7896 0
M  V30 864 H 74.4291 0.524283 1.34117 0
M  V30 865 H 76.3821 -0.966233 4.10173 0
M  V30 866 H 75.1061 -1.41574 2.9432 0
M  V30 867 H 73.7651 0.608117 3.61521 0
M  V30 868 H 73.4131 -1.57916 4.77568 0
M  V30 869 H 73.1131 -0.20767 5.87233 0
M  V30 870 H 74.6371 -1.13128 6.00029 0
M  V30 871 H 76.0511 1.1089 5.62473 0
M  V30 872 H 74.4481 1.89711 5.69324 0
M  V30 873 H 75.5181 2.21181 4.31517 0
M  V30 874 N 76.8612 -1.46375 0.584142 0
M  V30 875 C 78.1082 -2.02378 0.0702675 0
M  V30 876 C 78.4362 -1.45545 -1.29023 0
M  V30 877 O 77.6912 -0.610967 -1.85918 0
M  V30 878 C 77.9902 -3.57373 -0.0439342 0
M  V30 879 C 77.6562 -4.33252 1.24915 0
M  V30 880 C 76.3182 -4.53701 1.60341 0
M  V30 881 C 78.6702 -4.7681 2.1048 0
M  V30 882 C 75.9982 -5.1496 2.81128 0
M  V30 883 C 78.3502 -5.39404 3.30494 0
M  V30 884 C 77.0142 -5.5808 3.66201 0
M  V30 885 H 76.2842 -0.740554 0.0257127 0
M  V30 886 H 78.9312 -1.75727 0.761065 0
M  V30 887 H 77.2362 -3.83169 -0.817869 0
M  V30 888 H 78.9332 -3.98384 -0.457318 0
M  V30 889 H 75.5232 -4.17633 0.963364 0
M  V30 890 H 79.7072 -4.60766 1.84414 0
M  V30 891 H 74.9632 -5.27611 3.08928 0
M  V30 892 H 79.1372 -5.72114 3.97063 0
M  V30 893 H 76.7642 -6.05318 4.59885 0
M  V30 894 N 78.3393 -0.321999 -1.54275 0
M  V30 895 C 79.5793 0.281657 -2.0245 0
M  V30 896 C 79.9433 1.49468 -1.20513 0
M  V30 897 O 81.1443 2.17109 -1.58484 0
M  V30 898 C 79.4153 0.609014 -3.52173 0
M  V30 899 S 80.9743 1.19255 -4.22284 0
M  V30 900 H 77.7923 0.0852825 -0.705867 0
M  V30 901 H 80.3943 -0.454758 -1.90137 0
M  V30 902 H 79.0983 -0.281982 -4.0943 0
M  V30 903 H 78.6293 1.37567 -3.68563 0
M  V30 904 H 80.6443 2.47944 -4.29812 0
M  V30 905 N 79.8174 1.5752 -0.0501392 0
M  V30 906 C 80.7804 2.1037 0.909786 0
M  V30 907 C 81.7804 1.02308 1.24056 0
M  V30 908 O 82.9704 1.28385 1.17741 0
M  V30 909 C 80.1024 2.58708 2.21998 0
M  V30 910 H 81.2954 2.96479 0.451665 0
M  V30 911 H 78.8484 1.55038 0.198248 0
M  V30 912 H 79.5834 1.75989 2.72394 0
M  V30 913 H 79.3684 3.37675 1.99295 0
M  V30 914 H 80.8584 2.99747 2.9076 0
M  V30 915 N 81.2955 -0.223234 1.56011 0
M  V30 916 C 82.5205 -0.968978 1.83373 0
M  V30 917 C 82.9455 -1.77227 0.630254 0
M  V30 918 O 82.3035 -1.76345 -0.420959 0
M  V30 919 C 82.3515 -1.86363 3.08709 0
M  V30 920 O 81.4555 -2.95873 2.87285 0
M  V30 921 H 80.7965 -0.274461 0.604622 0
M  V30 922 H 83.3265 -0.237056 2.03222 0
M  V30 923 H 83.3365 -2.27376 3.38768 0
M  V30 924 H 82.0115 -1.27319 3.95933 0
M  V30 925 H 80.5885 -2.58818 2.68454 0
M  V30 926 N 82.7736 -1.49793 -0.48987 0
M  V30 927 C 84.0506 -1.50348 -1.25119 0
M  V30 928 C 84.4306 -0.237466 -2.0976 0
M  V30 929 O 83.7786 0.77981 -2.14782 0
M  V30 930 C 83.9886 -2.78872 -2.09837 0
M  V30 931 C 85.3366 -3.288 -2.68655 0
M  V30 932 O 86.3606 -2.80065 -2.20096 0
M  V30 933 O 85.2196 -4.13707 -3.57083 0
M  V30 934 H 82.3136 -0.602242 -0.566775 0
M  V30 935 H 84.8596 -1.62067 -0.503229 0
M  V30 936 H 83.6316 -3.62499 -1.47343 0
M  V30 937 H 83.2546 -2.70066 -2.91805 0
M  V30 938 N 84.2517 0.741722 -1.39055 0
M  V30 939 C 85.2147 1.83733 -1.37021 0
M  V30 940 C 86.2147 1.58542 -0.268534 0
M  V30 941 O 87.4047 1.66067 -0.526076 0
M  V30 942 C 84.5367 3.2141 -1.13617 0
M  V30 943 H 85.7297 1.86941 -2.34506 0
M  V30 944 H 83.2827 0.944676 -1.24521 0
M  V30 945 H 84.0177 3.23865 -0.167863 0
M  V30 946 H 83.8027 3.4109 -1.93391 0
M  V30 947 H 85.2927 4.01477 -1.14918 0
M  V30 948 N 85.7298 1.2412 0.971189 0
M  V30 949 C 86.6768 1.0305 2.06517 0
M  V30 950 C 87.6468 -0.0550666 1.66009 0
M  V30 951 O 88.8318 0.0988688 1.90544 0
M  V30 952 C 85.9718 0.637653 3.39158 0
M  V30 953 C 85.0848 1.79633 3.92882 0
M  V30 954 C 84.2198 1.34939 5.13775 0
M  V30 955 C 83.2588 2.47823 5.59687 0
M  V30 956 N 82.3958 2.04022 6.71803 0
M  V30 957 H 87.2358 1.96685 2.23873 0
M  V30 958 H 84.7728 0.979694 1.09729 0
M  V30 959 H 86.7308 0.390931 4.15364 0
M  V30 960 H 85.3608 -0.261693 3.21737 0
M  V30 961 H 84.4128 2.15681 3.13346 0
M  V30 962 H 85.7248 2.64466 4.22918 0
M  V30 963 H 84.8788 1.06134 5.97345 0
M  V30 964 H 83.6178 0.471557 4.85415 0
M  V30 965 H 82.6228 2.77392 4.74693 0
M  V30 966 H 83.8478 3.36158 5.90063 0
M  V30 967 H 81.7938 1.18632 6.45184 0
M  V30 968 H 81.7108 2.82409 7.01271 0
M  V30 969 H 82.9788 1.78347 7.58823 0
M  V30 970 N 87.2079 -1.17134 1.05439 0
M  V30 971 C 88.1709 -2.19439 0.661764 0
M  V30 972 C 89.1709 -1.58199 -0.288042 0
M  V30 973 O 90.3609 -1.74053 -0.0715803 0
M  V30 974 C 87.4929 -3.40889 -0.0276209 0
M  V30 975 H 88.6859 -2.55688 1.56728 0
M  V30 976 H 86.2389 -1.31259 0.848567 0
M  V30 977 H 86.9739 -3.10187 -0.94629 0
M  V30 978 H 86.7589 -3.86586 0.655238 0
M  V30 979 H 88.2489 -4.16603 -0.288342 0
M  V30 980 N 88.686 -0.835752 -1.33615 0
M  V30 981 C 89.916 -0.442701 -2.01801 0
M  V30 982 C 90.324 0.959807 -1.63047 0
M  V30 983 O 89.667 1.63468 -0.838088 0
M  V30 984 C 89.729 -0.480125 -3.56279 0
M  V30 985 C 89.393 -1.8382 -4.18401 0
M  V30 986 C 90.39 -2.80097 -4.37998 0
M  V30 987 C 88.075 -2.13019 -4.54894 0
M  V30 988 C 90.069 -4.03736 -4.9323 0
M  V30 989 C 87.756 -3.36916 -5.09834 0
M  V30 990 C 88.754 -4.32091 -5.28948 0
M  V30 991 O 88.442 -5.53797 -5.82721 0
M  V30 992 H 88.174 -0.17441 -0.653114 0
M  V30 993 H 90.728 -1.129 -1.71589 0
M  V30 994 H 88.958 0.262931 -3.85805 0
M  V30 995 H 90.647 -0.105335 -4.05763 0
M  V30 996 H 91.413 -2.58838 -4.10156 0
M  V30 997 H 87.292 -1.39733 -4.39313 0
M  V30 998 H 90.836 -4.78034 -5.08064 0
M  V30 999 H 86.733 -3.58033 -5.37106 0
M  V30 1000 H 87.501 -5.55494 -6.0114 0
M  V30 1001 N 90.1641 1.46063 -0.591896 0
M  V30 1002 C 91.4411 1.95595 -0.0137119 0
M  V30 1003 C 91.8211 1.5345 1.4497 0
M  V30 1004 O 91.1691 0.789543 2.14426 0
M  V30 1005 C 91.3791 3.48453 -0.195373 0
M  V30 1006 C 92.7271 4.24546 -0.0679765 0
M  V30 1007 O 93.7511 3.55982 -0.124681 0
M  V30 1008 O 92.6101 5.46467 0.0600579 0
M  V30 1009 H 89.7041 0.825795 0.0446279 0
M  V30 1010 H 92.2501 1.56303 -0.660859 0
M  V30 1011 H 91.0221 3.72045 -1.21235 0
M  V30 1012 H 90.6451 3.94597 0.487775 0
M  V30 1013 N 91.6422 0.330177 1.54103 0
M  V30 1014 C 92.8702 -0.272179 2.05102 0
M  V30 1015 C 93.2852 -1.45267 1.20595 0
M  V30 1016 O 92.6422 -1.8094 0.238144 0
M  V30 1017 C 92.6932 -0.70023 3.54653 0
M  V30 1018 O 92.4142 0.433301 4.35952 0
M  V30 1019 C 93.9152 -1.3647 4.21771 0
M  V30 1020 H 91.1352 -0.0549159 0.668749 0
M  V30 1021 H 93.6792 0.478285 1.98828 0
M  V30 1022 H 91.8342 -1.40066 3.61193 0
M  V30 1023 H 92.2482 0.0947539 5.24414 0
M  V30 1024 H 93.7222 -1.61509 5.27843 0
M  V30 1025 H 94.1992 -2.31409 3.73292 0
M  V30 1026 H 94.8052 -0.706675 4.19388 0
M  V30 1027 N 93.1203 -1.57491 0.0584922 0
M  V30 1028 C 94.0303 -2.15448 -0.928414 0
M  V30 1029 C 95.0463 -1.11416 -1.3365 0
M  V30 1030 O 96.2223 -1.4362 -1.41193 0
M  V30 1031 C 93.2873 -2.69393 -2.18239 0
M  V30 1032 C 92.3483 -3.88249 -1.83196 0
M  V30 1033 C 91.5813 -4.39613 -3.02616 0
M  V30 1034 O 91.8043 -3.90023 -4.16219 0
M  V30 1035 O 90.7383 -5.31111 -2.83204 0
M  V30 1036 H 94.5643 -3.00112 -0.465483 0
M  V30 1037 H 92.1493 -1.48499 -0.163826 0
M  V30 1038 H 94.0313 -3.04026 -2.91798 0
M  V30 1039 H 92.7063 -1.87796 -2.63656 0
M  V30 1040 H 91.6133 -3.58492 -1.06931 0
M  V30 1041 H 92.9463 -4.71098 -1.42573 0
M  V30 1042 N 94.5984 0.214957 -1.56127 0
M  V30 1043 C 95.8474 0.936451 -1.78643 0
M  V30 1044 C 96.1604 1.85237 -0.628229 0
M  V30 1045 O 97.3664 2.613 -0.737186 0
M  V30 1046 C 95.8224 1.7154 -3.16389 0
M  V30 1047 C 95.4304 0.845299 -4.39953 0
M  V30 1048 C 97.1744 2.42772 -3.48227 0
M  V30 1049 C 95.0814 1.62198 -5.68723 0
M  V30 1050 H 94.0114 0.353401 -0.666051 0
M  V30 1051 H 96.6624 0.190169 -1.82512 0
M  V30 1052 H 95.0444 2.50484 -3.06715 0
M  V30 1053 H 96.2184 0.0959353 -4.607 0
M  V30 1054 H 94.5334 0.244789 -4.1568 0
M  V30 1055 H 97.1304 3.01394 -4.41663 0
M  V30 1056 H 97.4734 3.15984 -2.71035 0
M  V30 1057 H 98.0064 1.70813 -3.5926 0
M  V30 1058 H 94.7454 0.933011 -6.48826 0
M  V30 1059 H 94.2654 2.34579 -5.52026 0
M  V30 1060 H 95.9444 2.18095 -6.09133 0
M  V30 1061 N 96.0765 1.50051 0.48192 0
M  V30 1062 C 97.0265 1.64512 1.5786 0
M  V30 1063 C 98.0105 0.500073 1.52932 0
M  V30 1064 O 99.2025 0.753964 1.60139 0
M  V30 1065 C 96.3315 1.73263 2.9637 0
M  V30 1066 C 95.4175 2.93409 3.06222 0
M  V30 1067 N 95.8085 4.17236 2.85915 0
M  V30 1068 C 94.1065 2.91742 3.37346 0
M  V30 1069 C 94.8075 4.981 3.00451 0
M  V30 1070 N 93.7835 4.3184 3.30174 0
M  V30 1071 H 97.5855 2.57955 1.40842 0
M  V30 1072 H 95.0995 1.47086 0.688439 0
M  V30 1073 H 97.0965 1.81724 3.75209 0
M  V30 1074 H 95.7565 0.809711 3.14442 0
M  V30 1075 H 96.7675 4.46909 2.6171 0
M  V30 1076 H 93.4445 2.08907 3.61475 0
M  V30 1077 H 94.8345 6.06532 2.89082 0
M  V30 1078 N 97.5546 -0.734337 1.39446 0
M  V30 1079 C 98.5026 -1.86971 1.38364 0
M  V30 1080 C 99.4966 -1.67288 0.266687 0
M  V30 1081 O 100.703 -1.74621 0.436755 0
M  V30 1082 H 97.0776 -0.615474 0.432082 0
M  V30 1083 H 99.0486 -1.85 2.34132 0
M  V30 1084 C 97.7976 -3.2466 1.24465 0
M  V30 1085 H 97.1206 -3.40402 2.09682 0
M  V30 1086 H 98.5606 -4.04292 1.27764 0
M  V30 1087 C 97.0196 -3.36867 -0.0468674 0
M  V30 1088 O 97.5496 -3.88618 -1.01681 0
M  V30 1089 N 95.7556 -2.90391 -0.110145 0
M  V30 1090 H 95.3026 -2.48466 0.679868 0
M  V30 1091 H 95.2606 -2.98939 -0.973799 0
M  V30 1092 N 99.0327 -1.24633 -0.964593 0
M  V30 1093 C 100.279 -1.08949 -1.71049 0
M  V30 1094 C 100.612 0.370302 -1.90637 0
M  V30 1095 O 99.8867 1.27349 -1.47011 0
M  V30 1096 C 100.17 -1.83329 -3.0994 0
M  V30 1097 C 100.023 -3.37077 -2.97824 0
M  V30 1098 C 101.342 -1.60846 -4.09654 0
M  V30 1099 H 98.4607 -0.397178 -0.620821 0
M  V30 1100 H 101.103 -1.5334 -1.12191 0
M  V30 1101 H 99.2527 -1.45597 -3.60186 0
M  V30 1102 H 100.925 -3.84425 -2.5498 0
M  V30 1103 H 99.1677 -3.65298 -2.33965 0
M  V30 1104 H 99.8387 -3.84324 -3.96231 0
M  V30 1105 H 102.315 -1.93674 -3.68279 0
M  V30 1106 H 101.191 -2.1534 -5.04896 0
M  V30 1107 H 101.452 -0.547434 -4.38698 0
M  V30 1108 N 100.511 1.16574 -1.06058 0
M  V30 1109 C 101.757 1.87565 -0.78683 0
M  V30 1110 C 102.112 1.80012 0.679214 0
M  V30 1111 O 101.405 1.20327 1.49104 0
M  V30 1112 C 101.599 3.36195 -1.21275 0
M  V30 1113 C 101.428 3.58216 -2.71866 0
M  V30 1114 C 100.198 3.7444 -3.39298 0
M  V30 1115 C 102.396 3.57134 -3.70081 0
M  V30 1116 N 100.378 3.84389 -4.78663 0
M  V30 1117 C 101.749 3.73038 -4.9522 0
M  V30 1118 C 103.804 3.40332 -3.63426 0
M  V30 1119 C 102.507 3.73879 -6.14497 0
M  V30 1120 C 104.533 3.42466 -4.82153 0
M  V30 1121 C 103.895 3.58887 -6.06118 0
M  V30 1122 H 99.9938 0.704081 -0.340284 0
M  V30 1123 H 102.578 1.39885 -1.35426 0
M  V30 1124 H 100.749 3.82522 -0.673179 0
M  V30 1125 H 102.481 3.94839 -0.887917 0
M  V30 1126 H 99.2358 3.74662 -2.89699 0
M  V30 1127 H 99.6598 3.93138 -5.51155 0
M  V30 1128 H 104.302 3.26566 -2.68541 0
M  V30 1129 H 102.02 3.86427 -7.09718 0
M  V30 1130 H 105.606 3.30712 -4.78666 0
M  V30 1131 H 104.486 3.60454 -6.9645 0
M  V30 1132 N 101.989 0.842826 1.3317 0
M  V30 1133 C 102.952 0.284065 2.27433 0
M  V30 1134 C 103.952 -0.54948 1.5112 0
M  V30 1135 O 105.142 -0.362699 1.70382 0
M  V30 1136 C 102.274 -0.599384 3.35589 0
M  V30 1137 H 103.467 1.11589 2.78366 0
M  V30 1138 H 101.02 0.616221 1.4364 0
M  V30 1139 H 101.755 -1.45349 2.89904 0
M  V30 1140 H 101.54 -0.00291266 3.921 0
M  V30 1141 H 103.03 -0.983488 4.05854 0
M  V30 1142 N 103.467 -1.45747 0.599634 0
M  V30 1143 C 104.695 -2.06668 0.0978551 0
M  V30 1144 C 105.11 -1.44562 -1.21439 0
M  V30 1145 O 104.467 -0.556923 -1.73795 0
M  V30 1146 C 104.518 -3.61456 -0.0567044 0
M  V30 1147 O 104.239 -4.21242 1.20361 0
M  V30 1148 C 105.74 -4.39345 -0.590869 0
M  V30 1149 H 102.96 -0.667825 0.0651943 0
M  V30 1150 H 105.504 -1.87115 0.82511 0
M  V30 1151 H 103.659 -3.80378 -0.734251 0
M  V30 1152 H 104.073 -5.14323 1.02821 0
M  V30 1153 H 105.547 -5.48182 -0.648131 0
M  V30 1154 H 106.024 -4.08568 -1.61147 0
M  V30 1155 H 106.63 -4.25268 0.0523679 0
M  V30 1156 N 104.945 -0.338344 -1.53925 0
M  V30 1157 C 105.895 0.536712 -2.21593 0
M  V30 1158 C 106.879 1.07015 -1.20153 0
M  V30 1159 O 108.071 1.00471 -1.45721 0
M  V30 1160 C 105.2 1.68977 -2.98834 0
M  V30 1161 C 104.286 1.17052 -4.07627 0
M  V30 1162 N 104.677 0.372085 -5.0443 0
M  V30 1163 C 102.975 1.44789 -4.21844 0
M  V30 1164 C 103.676 0.0909171 -5.81629 0
M  V30 1165 N 102.652 0.681131 -5.39316 0
M  V30 1166 H 106.454 -0.0804298 -2.9379 0
M  V30 1167 H 103.968 -0.144943 -1.61752 0
M  V30 1168 H 105.965 2.32857 -3.45808 0
M  V30 1169 H 104.625 2.31024 -2.28162 0
M  V30 1170 H 105.636 0.0136217 -5.17898 0
M  V30 1171 H 102.313 2.07313 -3.62391 0
M  V30 1172 H 103.703 -0.552817 -6.69622 0
M  V30 1173 N 106.423 1.57458 -0.0668435 0
M  V30 1174 C 107.386 2.11323 0.887422 0
M  V30 1175 C 108.386 1.03618 1.22964 0
M  V30 1176 O 109.576 1.29626 1.16373 0
M  V30 1177 C 106.708 2.61048 2.19242 0
M  V30 1178 H 107.901 2.96942 0.420194 0
M  V30 1179 H 105.454 1.55239 0.181793 0
M  V30 1180 H 106.189 1.78868 2.70512 0
M  V30 1181 H 105.974 3.39769 1.95702 0
M  V30 1182 H 107.464 3.02814 2.87565 0
M  V30 1183 N 107.901 -0.206675 1.56239 0
M  V30 1184 C 109.141 -0.93574 1.81723 0
M  V30 1185 C 109.505 -1.80927 0.642609 0
M  V30 1186 O 110.706 -2.57323 0.777081 0
M  V30 1187 C 108.977 -1.74012 3.12177 0
M  V30 1188 S 110.536 -2.52279 3.59028 0
M  V30 1189 H 107.354 -0.314065 0.637875 0
M  V30 1190 H 109.956 -0.200071 1.94474 0
M  V30 1191 H 108.66 -1.0888 3.95693 0
M  V30 1192 H 108.191 -2.51782 3.02274 0
M  V30 1193 H 110.206 -3.76209 3.23545 0
M  V30 1194 N 109.379 -1.50304 -0.473955 0
M  V30 1195 C 110.625 -1.61389 -1.22806 0
M  V30 1196 C 110.958 -0.311955 -1.91678 0
M  V30 1197 O 110.233 0.686384 -1.81986 0
M  V30 1198 C 110.516 -2.79219 -2.27396 0
M  V30 1199 C 110.369 -4.19286 -1.62848 0
M  V30 1200 C 111.688 -2.92614 -3.28732 0
M  V30 1201 H 108.807 -0.587399 -0.445119 0
M  V30 1202 H 111.449 -1.82681 -0.522265 0
M  V30 1203 H 109.599 -2.61195 -2.87592 0
M  V30 1204 H 111.271 -4.48892 -1.06271 0
M  V30 1205 H 109.514 -4.23677 -0.931693 0
M  V30 1206 H 110.185 -4.97655 -2.38838 0
M  V30 1207 H 112.661 -3.09105 -2.78556 0
M  V30 1208 H 111.537 -3.76688 -3.99246 0
M  V30 1209 H 111.798 -2.03107 -3.92683 0
M  V30 1210 N 110.857 0.726932 -1.39834 0
M  V30 1211 C 112.268 1.30558 -1.3346 0
M  V30 1212 C 112.619 1.962 -0.00273003 0
M  V30 1213 O 111.744 1.96826 0.899371 0
M  V30 1214 C 112.339 2.37404 -2.41713 0
M  V30 1215 C 110.898 2.90921 -2.38835 0
M  V30 1216 C 110.045 1.64578 -2.2318 0
M  V30 1217 H 112.996 0.523862 -1.49804 0
M  V30 1218 H 113.017 3.17984 -2.08966 0
M  V30 1219 H 112.529 1.89599 -3.38635 0
M  V30 1220 H 110.63 3.42985 -1.45575 0
M  V30 1221 H 110.743 3.43487 -3.33997 0
M  V30 1222 H 109.107 1.89219 -1.70494 0
M  V30 1223 H 109.89 1.18814 -3.22084 0
M  V30 1224 N 112.336 1.25143 0.95797 0
M  V30 1225 C 113.564 1.12424 1.73691 0
M  V30 1226 C 113.979 -0.322304 1.86029 0
M  V30 1227 O 113.336 -1.22186 1.35561 0
M  V30 1228 C 113.387 1.76933 3.15241 0
M  V30 1229 O 113.108 3.15932 3.03511 0
M  V30 1230 C 114.609 1.6995 4.09429 0
M  V30 1231 H 111.829 0.3923 0.544373 0
M  V30 1232 H 114.373 1.6544 1.20207 0
M  V30 1233 H 112.528 1.27895 3.6568 0
M  V30 1234 H 112.942 3.47598 3.9278 0
M  V30 1235 H 114.416 2.19753 5.06372 0
M  V30 1236 H 114.893 0.662619 4.34173 0
M  V30 1237 H 115.499 2.18461 3.64904 0
M  V30 1238 N 113.814 -1.1601 1.06675 0
M  V30 1239 C 115.091 -1.82679 0.699114 0
M  V30 1240 C 115.471 -1.94559 -0.819137 0
M  V30 1241 O 114.819 -1.49169 -1.73092 0
M  V30 1242 C 115.029 -3.19445 1.40555 0
M  V30 1243 C 116.377 -3.95171 1.55323 0
M  V30 1244 O 117.401 -3.28976 1.36577 0
M  V30 1245 O 116.26 -5.13833 1.86112 0
M  V30 1246 H 113.354 -0.788954 0.247951 0
M  V30 1247 H 115.9 -1.23179 1.16726 0
M  V30 1248 H 114.672 -3.05856 2.44065 0
M  V30 1249 H 114.295 -3.86625 0.927733 0
M  V30 1250 N 115.292 -0.849877 -1.32721 0
M  V30 1251 C 116.703 -0.506188 -1.79707 0
M  V30 1252 C 117.054 0.975627 -1.70223 0
M  V30 1253 O 116.179 1.76078 -1.25799 0
M  V30 1254 C 116.774 -0.912044 -3.26293 0
M  V30 1255 C 115.333 -0.620326 -3.71253 0
M  V30 1256 C 114.48 -1.11439 -2.53922 0
M  V30 1257 H 117.431 -1.03754 -1.20087 0
M  V30 1258 H 117.452 -0.226493 -3.79825 0
M  V30 1259 H 116.964 -1.99057 -3.33164 0
M  V30 1260 H 115.065 0.447674 -3.69901 0
M  V30 1261 H 115.178 -1.18327 -4.64258 0
M  V30 1262 H 113.542 -0.534834 -2.49021 0
M  V30 1263 H 114.325 -2.19992 -2.6355 0
M  V30 1264 N 116.77 1.45427 -0.607355 0
M  V30 1265 C 117.718 2.32269 0.12411 0
M  V30 1266 C 118.712 1.45955 0.859854 0
M  V30 1267 O 119.918 1.6244 0.775447 0
M  V30 1268 H 116.293 0.749691 0.0588839 0
M  V30 1269 H 118.264 2.91743 -0.626762 0
M  V30 1270 C 117.013 3.29567 1.1082 0
M  V30 1271 H 116.336 3.95978 0.551492 0
M  V30 1272 H 117.776 3.93061 1.58995 0
M  V30 1273 C 116.235 2.56722 2.18164 0
M  V30 1274 O 116.765 2.34842 3.25902 0
M  V30 1275 N 114.971 2.16861 1.93442 0
M  V30 1276 H 114.518 2.34855 1.05834 0
M  V30 1277 H 114.476 1.68444 2.65469 0
M  V30 1278 N 118.248 0.346503 1.53744 0
M  V30 1279 C 119.659 -0.136779 1.86198 0
M  V30 1280 C 120.01 -1.49749 1.26766 0
M  V30 1281 O 119.135 -2.08417 0.582355 0
M  V30 1282 C 119.73 -0.254966 3.37839 0
M  V30 1283 C 118.289 -0.682482 3.70161 0
M  V30 1284 C 117.436 0.181981 2.76702 0
M  V30 1285 H 120.387 0.565994 1.48264 0
M  V30 1286 H 120.408 -1.08195 3.64793 0
M  V30 1287 H 119.92 0.735526 3.81066 0
M  V30 1288 H 118.021 -1.68189 3.3248 0
M  V30 1289 H 118.134 -0.470326 4.76786 0
M  V30 1290 H 116.498 -0.34615 2.52337 0
M  V30 1291 H 117.281 1.16966 3.2276 0
M  V30 1292 N 119.726 -1.57421 0.075193 0
M  V30 1293 C 120.658 -2.09904 -0.920483 0
M  V30 1294 C 121.671 -1.03191 -1.25918 0
M  V30 1295 O 122.86 -1.30695 -1.21577 0
M  V30 1296 C 119.96 -2.54726 -2.23534 0
M  V30 1297 C 119.133 -3.8505 -2.07498 0
M  V30 1298 C 118.192 -4.15929 -3.22319 0
M  V30 1299 O 117.218 -4.85474 -2.9716 0
M  V30 1300 N 118.42 -3.69745 -4.47514 0
M  V30 1301 H 121.185 -2.95954 -0.472359 0
M  V30 1302 H 118.746 -1.61523 -0.110444 0
M  V30 1303 H 120.738 -2.72443 -2.9926 0
M  V30 1304 H 119.308 -1.73795 -2.59835 0
M  V30 1305 H 118.528 -3.76679 -1.16219 0
M  V30 1306 H 119.816 -4.70348 -1.94038 0
M  V30 1307 H 119.214 -3.13569 -4.7084 0
M  V30 1308 H 117.771 -3.92655 -5.20255 0
M  V30 1309 N 121.204 0.198386 -1.56346 0
M  V30 1310 C 122.114 1.2664 -1.97483 0
M  V30 1311 C 123.13 1.49989 -0.882002 0
M  V30 1312 O 124.306 1.62668 -1.18748 0
M  V30 1313 C 121.371 2.59141 -2.30319 0
M  V30 1314 C 120.432 2.43892 -3.53292 0
M  V30 1315 C 119.665 3.70074 -3.84553 0
M  V30 1316 O 119.888 4.74101 -3.1715 0
M  V30 1317 O 118.822 3.658 -4.7799 0
M  V30 1318 H 122.648 0.947304 -2.88548 0
M  V30 1319 H 120.233 0.403123 -1.43859 0
M  V30 1320 H 122.115 3.37352 -2.5253 0
M  V30 1321 H 120.79 2.90684 -1.42423 0
M  V30 1322 H 119.697 1.63803 -3.36332 0
M  V30 1323 H 121.03 2.17282 -4.41644 0
M  V30 1324 N 122.682 1.50554 0.465978 0
M  V30 1325 C 123.612 1.72722 1.57128 0
M  V30 1326 C 124.593 0.576294 1.6004 0
M  V30 1327 O 125.778 0.81598 1.76225 0
M  V30 1328 C 122.908 1.82605 2.95419 0
M  V30 1329 C 121.862 2.97835 3.07373 0
M  V30 1330 C 121.188 2.92867 4.47363 0
M  V30 1331 C 122.488 4.38265 2.84114 0
M  V30 1332 H 124.182 2.65267 1.38829 0
M  V30 1333 H 121.728 1.2765 0.666441 0
M  V30 1334 H 123.681 1.96698 3.72677 0
M  V30 1335 H 122.405 0.866858 3.14886 0
M  V30 1336 H 121.064 2.83401 2.3255 0
M  V30 1337 H 120.712 1.94783 4.63755 0
M  V30 1338 H 120.412 3.70227 4.56296 0
M  V30 1339 H 121.936 3.09015 5.26633 0
M  V30 1340 H 123.35 4.53198 3.51118 0
M  V30 1341 H 121.747 5.17115 3.04487 0
M  V30 1342 H 122.817 4.50281 1.7993 0
M  V30 1343 N 124.16 -0.719506 1.40217 0
M  V30 1344 C 125.406 -1.48152 1.38488 0
M  V30 1345 C 125.739 -1.94195 -0.0141867 0
M  V30 1346 O 125.014 -1.67884 -0.982096 0
M  V30 1347 C 125.297 -2.71035 2.37091 0
M  V30 1348 C 125.15 -2.30912 3.86005 0
M  V30 1349 C 126.469 -3.73182 2.33288 0
M  V30 1350 H 123.588 -0.537395 0.504357 0
M  V30 1351 H 126.23 -0.821472 1.71324 0
M  V30 1352 H 124.38 -3.27352 2.0922 0
M  V30 1353 H 126.052 -1.80107 4.24687 0
M  V30 1354 H 124.295 -1.62958 4.02029 0
M  V30 1355 H 124.966 -3.18978 4.50508 0
M  V30 1356 H 127.442 -3.26485 2.57966 0
M  V30 1357 H 126.318 -4.56806 3.04334 0
M  V30 1358 H 126.579 -4.21202 1.34317 0
M  V30 1359 N 125.638 -1.25649 -0.95132 0
M  V30 1360 C 126.571 -1.00644 -2.04807 0
M  V30 1361 C 127.549 0.0654271 -1.62468 0
M  V30 1362 O 128.733 -0.074911 -1.88351 0
M  V30 1363 C 125.86 -0.522052 -3.34653 0
M  V30 1364 C 124.906 -1.58495 -3.95957 0
M  V30 1365 S 125.739 -3.17108 -4.31512 0
M  V30 1366 C 126.895 -2.70412 -5.64471 0
M  V30 1367 H 127.128 -1.93508 -2.25703 0
M  V30 1368 H 124.661 -1.09216 -1.09139 0
M  V30 1369 H 126.619 -0.24923 -4.09743 0
M  V30 1370 H 125.28 0.386146 -3.11717 0
M  V30 1371 H 124.473 -1.1968 -4.89584 0
M  V30 1372 H 124.075 -1.80862 -3.2736 0
M  V30 1373 H 126.367 -2.14245 -6.42733 0
M  V30 1374 H 127.31 -3.62693 -6.08161 0
M  V30 1375 H 127.718 -2.10302 -5.23864 0
M  V30 1376 N 127.117 1.15442 -1.07289 0
M  V30 1377 C 128.365 1.85845 -0.794096 0
M  V30 1378 C 128.686 1.82692 0.681809 0
M  V30 1379 O 127.956 1.26741 1.49377 0
M  V30 1380 H 126.536 0.688089 -0.290763 0
M  V30 1381 H 129.198 1.39947 -1.3565 0
M  V30 1382 H 128.294 2.91001 -1.12804 0
M  V30 1383 N 128.595 0.856903 1.32268 0
M  V30 1384 C 129.543 0.291987 2.3076 0
M  V30 1385 C 130.537 -0.585857 1.58947 0
M  V30 1386 O 131.743 -0.47341 1.73663 0
M  V30 1387 H 128.118 0.075721 0.748178 0
M  V30 1388 H 130.089 1.13687 2.75895 0
M  V30 1389 C 128.838 -0.502869 3.44044 0
M  V30 1390 H 128.161 0.163328 3.99466 0
M  V30 1391 H 129.601 -0.863691 4.1511 0
M  V30 1392 C 128.06 -1.68898 2.91505 0
M  V30 1393 O 128.59 -2.78811 2.89184 0
M  V30 1394 N 126.796 -1.51679 2.47875 0
M  V30 1395 H 126.343 -0.622666 2.49961 0
M  V30 1396 H 126.301 -2.31184 2.13076 0
M  V30 1397 N 130.073 -1.45103 0.615059 0
M  V30 1398 C 131.319 -2.02483 0.113347 0
M  V30 1399 C 131.652 -1.48146 -1.25564 0
M  V30 1400 O 130.927 -0.659104 -1.82992 0
M  V30 1401 C 131.21 -3.60005 0.0825278 0
M  V30 1402 C 131.063 -4.2466 1.48271 0
M  V30 1403 C 132.382 -4.35972 -0.601401 0
M  V30 1404 H 129.501 -0.735764 0.0426632 0
M  V30 1405 H 132.143 -1.72868 0.788461 0
M  V30 1406 H 130.293 -3.85367 -0.492378 0
M  V30 1407 H 131.965 -4.10458 2.10527 0
M  V30 1408 H 130.208 -3.82772 2.04127 0
M  V30 1409 H 130.879 -5.336 1.41332 0
M  V30 1410 H 133.355 -4.15947 -0.112666 0
M  V30 1411 H 132.231 -5.45697 -0.592097 0
M  V30 1412 H 132.492 -4.09391 -1.66887 0
M  V30 1413 N 131.551 -0.354651 -1.53558 0
M  V30 1414 C 132.779 0.239515 -2.05509 0
M  V30 1415 C 133.194 1.4333 -1.2289 0
M  V30 1416 O 132.551 1.80538 -0.266899 0
M  V30 1417 C 132.602 0.643719 -3.55723 0
M  V30 1418 O 132.323 -0.502602 -4.35207 0
M  V30 1419 C 133.824 1.29743 -4.23889 0
M  V30 1420 H 131.044 0.0442697 -0.669538 0
M  V30 1421 H 133.588 -0.509856 -1.98042 0
M  V30 1422 H 131.743 1.34302 -3.63376 0
M  V30 1423 H 132.157 -0.178172 -5.24197 0
M  V30 1424 H 133.631 1.53091 -5.30346 0
M  V30 1425 H 134.108 2.25441 -3.76926 0
M  V30 1426 H 134.714 0.639865 -4.20459 0
M  V30 1427 N 133.029 1.57378 -0.0835403 0
M  V30 1428 C 133.939 2.16897 0.894021 0
M  V30 1429 C 134.955 1.13528 1.31861 0
M  V30 1430 O 136.131 1.45848 1.3889 0
M  V30 1431 C 133.196 2.72831 2.13925 0
M  V30 1432 C 132.257 3.91115 1.76997 0
M  V30 1433 C 131.49 4.44371 2.95584 0
M  V30 1434 O 131.713 3.96596 4.09961 0
M  V30 1435 O 130.647 5.35549 2.74719 0
M  V30 1436 H 134.473 3.00814 0.417679 0
M  V30 1437 H 132.058 1.48741 0.140181 0
M  V30 1438 H 133.94 3.0863 2.86924 0
M  V30 1439 H 132.615 1.91967 2.60635 0
M  V30 1440 H 131.522 3.60148 1.01214 0
M  V30 1441 H 132.855 4.73307 1.3506 0
M  V30 1442 N 134.507 -0.190092 1.56449 0
M  V30 1443 C 135.455 -1.25501 1.95837 0
M  V30 1444 C 136.449 -1.4685 0.844485 0
M  V30 1445 O 137.655 -1.47651 1.02952 0
M  V30 1446 H 134.03 -0.421447 0.622805 0
M  V30 1447 H 136.001 -0.895821 2.84636 0
M  V30 1448 C 134.75 -2.59124 2.31841 0
M  V30 1449 H 134.073 -2.43514 3.17082 0
M  V30 1450 H 135.513 -3.32371 2.6326 0
M  V30 1451 C 133.972 -3.16488 1.15486 0
M  V30 1452 O 134.502 -3.99365 0.432535 0
M  V30 1453 N 132.708 -2.75305 0.930349 0
M  V30 1454 H 132.255 -2.08013 1.51948 0
M  V30 1455 H 132.213 -3.14024 0.153634 0
M  V30 1456 N 135.985 -1.50799 -0.457987 0
M  V30 1457 C 137.232 -1.62442 -1.20908 0
M  V30 1458 C 137.56 -0.330865 -1.91665 0
M  V30 1459 O 136.815 0.68401 -1.83357 0
M  V30 1460 C 137.114 -2.76358 -2.2663 0
M  V30 1461 C 136.78 -4.16378 -1.73033 0
M  V30 1462 C 135.442 -4.54473 -1.58138 0
M  V30 1463 C 137.794 -5.03836 -1.33413 0
M  V30 1464 C 135.122 -5.77754 -1.02065 0
M  V30 1465 C 137.474 -6.27676 -0.78778 0
M  V30 1466 C 136.138 -6.64562 -0.625561 0
M  V30 1467 H 135.408 -0.594417 -0.442435 0
M  V30 1468 H 138.055 -1.84772 -0.503136 0
M  V30 1469 H 136.36 -2.48167 -3.03184 0
M  V30 1470 H 138.057 -2.82568 -2.84528 0
M  V30 1471 H 134.647 -3.86331 -1.85598 0
M  V30 1472 H 138.831 -4.75026 -1.4375 0
M  V30 1473 H 134.087 -6.04997 -0.882547 0
M  V30 1474 H 138.261 -6.94797 -0.472177 0
M  V30 1475 H 135.888 -7.59965 -0.188926 0
M  V30 1476 N 137.463 0.71206 -1.40597 0
M  V30 1477 C 138.411 1.84746 -1.41321 0
M  V30 1478 C 139.405 1.66842 -0.293268 0
M  V30 1479 O 140.611 1.73904 -0.464481 0
M  V30 1480 H 136.986 0.608522 -0.441819 0
M  V30 1481 H 138.957 1.81252 -2.37045 0
M  V30 1482 C 137.706 3.22638 -1.29614 0
M  V30 1483 H 137.029 3.37023 -2.15071 0
M  V30 1484 H 138.469 4.02209 -1.3418 0
M  V30 1485 C 136.928 3.36899 -0.00673121 0
M  V30 1486 O 137.458 3.90186 0.954859 0
M  V30 1487 N 135.664 2.9053 0.0639327 0
M  V30 1488 H 135.211 2.47353 -0.719311 0
M  V30 1489 H 135.169 3.0045 0.926118 0
M  V30 1490 N 138.941 1.26152 0.944643 0
M  V30 1491 C 139.874 1.01729 2.04271 0
M  V30 1492 C 140.852 -0.0568101 1.62501 0
M  V30 1493 O 142.036 0.0848987 1.88309 0
M  V30 1494 C 139.163 0.539792 3.34371 0
M  V30 1495 C 138.209 1.60593 3.9511 0
M  V30 1496 S 139.042 3.19392 4.29825 0
M  V30 1497 C 140.198 2.73402 5.63029 0
M  V30 1498 H 140.431 1.94703 2.24673 0
M  V30 1499 H 137.964 1.09793 1.08558 0
M  V30 1500 H 139.922 0.270956 4.09605 0
M  V30 1501 H 138.583 -0.369609 3.11918 0
M  V30 1502 H 137.776 1.22275 4.88943 0
M  V30 1503 H 137.378 1.82596 3.26397 0
M  V30 1504 H 139.67 2.1765 6.41588 0
M  V30 1505 H 140.613 3.65913 6.06229 0
M  V30 1506 H 141.021 2.13077 5.22741 0
M  V30 1507 N 140.419 -1.14872 1.07899 0
M  V30 1508 C 141.665 -1.86289 0.81657 0
M  V30 1509 C 142.02 -1.8107 -0.65049 0
M  V30 1510 O 141.313 -1.22684 -1.47171 0
M  V30 1511 C 141.507 -3.34223 1.26609 0
M  V30 1512 C 141.336 -3.53846 2.77531 0
M  V30 1513 C 140.106 -3.68995 3.45212 0
M  V30 1514 C 142.304 -3.51201 3.75716 0
M  V30 1515 N 140.286 -3.76725 4.84718 0
M  V30 1516 C 141.657 -3.65112 5.01092 0
M  V30 1517 C 143.712 -3.34507 3.68794 0
M  V30 1518 C 142.415 -3.64056 6.20368 0
M  V30 1519 C 144.441 -3.34752 4.8754 0
M  V30 1520 C 143.803 -3.49199 6.11751 0
M  V30 1521 H 139.902 -0.698579 0.351443 0
M  V30 1522 H 142.486 -1.37713 1.37634 0
M  V30 1523 H 140.657 -3.81402 0.73395 0
M  V30 1524 H 142.389 -3.93377 0.95062 0
M  V30 1525 H 139.144 -3.70006 2.95622 0
M  V30 1526 H 139.568 -3.8432 5.5734 0
M  V30 1527 H 144.21 -3.22253 2.73702 0
M  V30 1528 H 141.928 -3.75087 7.15776 0
M  V30 1529 H 145.514 -3.23055 4.83866 0
M  V30 1530 H 144.394 -3.49328 7.02097 0
M  V30 1531 N 141.898 -0.863906 -1.31812 0
M  V30 1532 C 142.845 -0.313303 -2.28664 0
M  V30 1533 C 143.815 0.584868 -1.55462 0
M  V30 1534 O 145 0.517805 -1.83639 0
M  V30 1535 C 142.14 0.48441 -3.41683 0
M  V30 1536 C 141.253 -0.440594 -4.29747 0
M  V30 1537 C 140.388 0.370652 -5.29905 0
M  V30 1538 C 139.427 -0.551164 -6.09613 0
M  V30 1539 N 138.564 0.223462 -7.01744 0
M  V30 1540 H 143.404 -1.14444 -2.75148 0
M  V30 1541 H 140.941 -0.575769 -1.35364 0
M  V30 1542 H 142.899 0.962627 -4.05943 0
M  V30 1543 H 141.529 1.28029 -2.96325 0
M  V30 1544 H 140.581 -1.03724 -3.65986 0
M  V30 1545 H 141.893 -1.14767 -4.85417 0
M  V30 1546 H 141.047 0.911638 -5.99812 0
M  V30 1547 H 139.786 1.11105 -4.74876 0
M  V30 1548 H 138.791 -1.10396 -5.38603 0
M  V30 1549 H 140.016 -1.29032 -6.66729 0
M  V30 1550 H 137.962 0.946787 -6.49132 0
M  V30 1551 H 137.879 -0.424399 -7.54808 0
M  V30 1552 H 139.147 0.745876 -7.75923 0
M  V30 1553 N 143.376 1.44774 -0.622745 0
M  V30 1554 C 144.324 2.32387 0.0994683 0
M  V30 1555 C 145.318 1.46859 0.844326 0
M  V30 1556 O 146.524 1.63254 0.758174 0
M  V30 1557 H 142.899 0.750273 0.0509291 0
M  V30 1558 H 144.87 2.91062 -0.65767 0
M  V30 1559 C 143.619 3.30723 1.07319 0
M  V30 1560 H 142.942 3.96541 0.509462 0
M  V30 1561 H 144.382 3.94725 1.54817 0
M  V30 1562 C 142.841 2.59021 2.15429 0
M  V30 1563 O 143.371 2.38286 3.23393 0
M  V30 1564 N 141.577 2.189 1.91131 0
M  V30 1565 H 141.124 2.35964 1.03337 0
M  V30 1566 H 141.082 1.71251 2.63668 0
M  V30 1567 N 144.854 0.36279 1.53368 0
M  V30 1568 C 146.131 -0.284021 1.93527 0
M  V30 1569 C 146.511 -1.66628 1.29608 0
M  V30 1570 O 145.859 -2.23942 0.45413 0
M  V30 1571 C 146.069 -0.337028 3.47369 0
M  V30 1572 C 147.417 -0.578708 4.20638 0
M  V30 1573 O 148.441 -0.418352 3.53735 0
M  V30 1574 O 147.3 -0.89074 5.39192 0
M  V30 1575 H 144.394 -0.169743 0.809393 0
M  V30 1576 H 146.94 0.41537 1.64538 0
M  V30 1577 H 145.712 0.632217 3.86159 0
M  V30 1578 H 145.335 -1.08243 3.82582 0
M  V30 1579 N 146.332 -1.57332 0.0918853 0
M  V30 1580 C 147.265 -2.09499 -0.904735 0
M  V30 1581 C 148.243 -1.00479 -1.27839 0
M  V30 1582 O 149.427 -1.27954 -1.38419 0
M  V30 1583 C 146.554 -2.56931 -2.2069 0
M  V30 1584 C 145.6 -3.77579 -1.98334 0
M  V30 1585 S 146.433 -5.21317 -1.22428 0
M  V30 1586 C 147.589 -5.72097 -2.53882 0
M  V30 1587 H 147.822 -2.93705 -0.460922 0
M  V30 1588 H 145.355 -1.53923 -0.121332 0
M  V30 1589 H 147.313 -2.84917 -2.95521 0
M  V30 1590 H 145.974 -1.72956 -2.62192 0
M  V30 1591 H 145.167 -4.08824 -2.94752 0
M  V30 1592 H 144.769 -3.5007 -1.31633 0
M  V30 1593 H 147.061 -5.80168 -3.49874 0
M  V30 1594 H 148.004 -6.70654 -2.27219 0
M  V30 1595 H 148.412 -5.00012 -2.62007 0
M  V30 1596 N 147.81 0.181792 -1.56548 0
M  V30 1597 C 149.056 0.901431 -1.81665 0
M  V30 1598 C 149.389 1.82347 -0.668075 0
M  V30 1599 O 148.664 1.91669 0.330615 0
M  V30 1600 C 148.947 1.70618 -3.17115 0
M  V30 1601 C 148.8 0.807964 -4.42484 0
M  V30 1602 C 150.119 2.67605 -3.49393 0
M  V30 1603 H 147.238 0.32627 -0.660846 0
M  V30 1604 H 149.88 0.168134 -1.89255 0
M  V30 1605 H 148.03 2.33133 -3.10775 0
M  V30 1606 H 149.702 0.19649 -4.60881 0
M  V30 1607 H 147.945 0.115411 -4.33646 0
M  V30 1608 H 148.616 1.40632 -5.33785 0
M  V30 1609 H 151.092 2.15218 -3.56118 0
M  V30 1610 H 149.968 3.20985 -4.45264 0
M  V30 1611 H 150.229 3.47298 -2.73563 0
M  V30 1612 N 149.288 1.51039 0.449983 0
M  V30 1613 C 150.198 1.74261 1.57067 0
M  V30 1614 C 151.214 0.626363 1.62335 0
M  V30 1615 O 152.39 0.907162 1.79812 0
M  V30 1616 C 149.455 1.85114 2.93144 0
M  V30 1617 C 148.516 3.0893 2.98095 0
M  V30 1618 C 147.749 3.19256 4.27681 0
M  V30 1619 O 147.972 2.35835 5.19363 0
M  V30 1620 O 146.906 4.12144 4.38658 0
M  V30 1621 H 150.732 2.69303 1.40391 0
M  V30 1622 H 148.317 1.35389 0.631688 0
M  V30 1623 H 150.199 1.94311 3.73926 0
M  V30 1624 H 148.874 0.932588 3.09975 0
M  V30 1625 H 147.781 3.0522 2.16314 0
M  V30 1626 H 149.114 4.00433 2.86206 0
M  V30 1627 N 150.766 -0.704594 1.40972 0
M  V30 1628 C 151.698 -1.82974 1.38033 0
M  V30 1629 C 152.711 -1.60305 0.283931 0
M  V30 1630 O 153.9 -1.69975 0.545042 0
M  V30 1631 C 151 -3.19578 1.12795 0
M  V30 1632 C 150.173 -3.69352 2.34302 0
M  V30 1633 C 149.232 -4.84601 2.05058 0
M  V30 1634 O 148.258 -4.96682 2.7802 0
M  V30 1635 N 149.46 -5.71194 1.03528 0
M  V30 1636 H 152.225 -1.85991 2.35005 0
M  V30 1637 H 149.786 -0.886567 1.35468 0
M  V30 1638 H 151.778 -3.9429 0.911987 0
M  V30 1639 H 150.348 -3.11642 0.24452 0
M  V30 1640 H 149.568 -2.85649 2.71659 0
M  V30 1641 H 150.856 -3.99345 3.1528 0
M  V30 1642 H 150.254 -5.64054 0.431217 0
M  V30 1643 H 148.811 -6.45843 0.879205 0
M  V30 1644 N 152.244 -1.26651 -0.937939 0
M  V30 1645 C 153.177 -1.02811 -2.03728 0
M  V30 1646 C 154.155 0.0481915 -1.62529 0
M  V30 1647 O 155.339 -0.0948839 -1.88261 0
M  V30 1648 C 152.466 -0.557517 -3.3408 0
M  V30 1649 C 151.512 -1.62686 -3.94253 0
M  V30 1650 S 152.345 -3.21667 -4.28125 0
M  V30 1651 C 153.501 -2.76384 -5.61572 0
M  V30 1652 H 153.734 -1.95891 -2.23638 0
M  V30 1653 H 151.267 -1.10367 -1.07974 0
M  V30 1654 H 153.225 -0.292674 -4.09455 0
M  V30 1655 H 151.886 0.353062 -3.12109 0
M  V30 1656 H 151.079 -1.24866 -4.88287 0
M  V30 1657 H 150.681 -1.84324 -3.25424 0
M  V30 1658 H 152.973 -2.2105 -6.40424 0
M  V30 1659 H 153.916 -3.69123 -6.0428 0
M  V30 1660 H 154.324 -2.15847 -5.21604 0
M  V30 1661 N 153.722 1.14298 -1.08507 0
M  V30 1662 C 154.672 2.17449 -0.685569 0
M  V30 1663 C 155.656 1.58167 0.295315 0
M  V30 1664 O 156.848 1.76675 0.107172 0
M  V30 1665 C 153.977 3.43161 -0.0975318 0
M  V30 1666 C 153.063 4.09471 -1.10426 0
M  V30 1667 N 153.454 4.51089 -2.28806 0
M  V30 1668 C 151.752 4.35976 -0.940258 0
M  V30 1669 C 152.453 5.02654 -2.9277 0
M  V30 1670 N 151.429 4.96927 -2.20374 0
M  V30 1671 H 155.231 2.47369 -1.587 0
M  V30 1672 H 152.745 1.30992 -0.959936 0
M  V30 1673 H 154.742 4.16388 0.20664 0
M  V30 1674 H 153.402 3.14719 0.798872 0
M  V30 1675 H 154.413 4.44097 -2.66455 0
M  V30 1676 H 151.09 4.17386 -0.0977441 0
M  V30 1677 H 152.48 5.44723 -3.93352 0
M  V30 1678 N 155.201 0.870884 1.31352 0
M  V30 1679 C 156.111 0.330783 2.32256 0
M  V30 1680 C 157.127 -0.559767 1.6475 0
M  V30 1681 O 158.303 -0.456263 1.96164 0
M  V30 1682 C 155.368 -0.458137 3.4366 0
M  V30 1683 C 154.429 0.460482 4.26823 0
M  V30 1684 C 153.662 -0.290881 5.32907 0
M  V30 1685 O 153.885 -1.51885 5.49806 0
M  V30 1686 O 152.819 0.351732 6.00871 0
M  V30 1687 H 156.645 1.16718 2.80376 0
M  V30 1688 H 154.23 0.634285 1.35267 0
M  V30 1689 H 156.112 -0.905343 4.1156 0
M  V30 1690 H 154.787 -1.27106 2.97701 0
M  V30 1691 H 153.694 0.956207 3.61673 0
M  V30 1692 H 155.027 1.23903 4.7635 0
M  V30 1693 N 156.679 -1.44442 0.630414 0
M  V30 1694 C 157.956 -1.9549 0.0655657 0
M  V30 1695 C 158.336 -1.5724 -1.40851 0
M  V30 1696 O 157.684 -0.846116 -2.12257 0
M  V30 1697 C 157.894 -3.47812 0.287691 0
M  V30 1698 C 159.242 -4.24216 0.180513 0
M  V30 1699 O 160.266 -3.55526 0.219019 0
M  V30 1700 O 159.125 -5.46434 0.0848493 0
M  V30 1701 H 156.219 -0.826688 -0.0227177 0
M  V30 1702 H 158.765 -1.54496 0.702068 0
M  V30 1703 H 157.537 -3.687 1.31056 0
M  V30 1704 H 157.16 -3.95751 -0.382984 0
M  V30 1705 N 158.157 -0.370918 -1.53173 0
M  V30 1706 C 159.406 0.218249 -2.00516 0
M  V30 1707 C 159.719 1.49429 -1.26215 0
M  V30 1708 O 160.925 2.16239 -1.64174 0
M  V30 1709 C 159.381 0.43948 -3.57207 0
M  V30 1710 C 158.989 -0.822244 -4.4039 0
M  V30 1711 C 160.733 0.986012 -4.1289 0
M  V30 1712 C 158.64 -0.570304 -5.88644 0
M  V30 1713 H 157.57 0.0853333 -0.749156 0
M  V30 1714 H 160.221 -0.490483 -1.76823 0
M  V30 1715 H 158.603 1.20961 -3.77074 0
M  V30 1716 H 159.777 -1.59557 -4.32294 0
M  V30 1717 H 158.092 -1.29238 -3.95836 0
M  V30 1718 H 160.689 1.18991 -5.21292 0
M  V30 1719 H 161.032 1.94972 -3.6782 0
M  V30 1720 H 161.565 0.27592 -3.96842 0
M  V30 1721 H 158.304 -1.50449 -6.38001 0
M  V30 1722 H 157.824 0.164427 -5.99575 0
M  V30 1723 H 159.503 -0.19784 -6.46697 0
M  V30 1724 N 159.635 1.57281 -0.100228 0
M  V30 1725 C 160.884 1.93713 0.561984 0
M  V30 1726 C 161.197 0.984492 1.69018 0
M  V30 1727 O 162.403 1.24273 2.41389 0
M  V30 1728 C 160.859 3.4421 1.05106 0
M  V30 1729 C 160.467 4.47975 -0.0476628 0
M  V30 1730 C 162.211 3.89595 1.68571 0
M  V30 1731 C 160.118 5.89631 0.457055 0
M  V30 1732 H 159.048 0.723082 0.2137 0
M  V30 1733 H 161.699 1.82644 -0.177057 0
M  V30 1734 H 160.081 3.50449 1.84395 0
M  V30 1735 H 161.255 4.53385 -0.823333 0
M  V30 1736 H 159.57 4.1223 -0.587816 0
M  V30 1737 H 162.167 4.92832 2.07414 0
M  V30 1738 H 162.51 3.28526 2.55688 0
M  V30 1739 H 163.043 3.86078 0.958562 0
M  V30 1740 H 159.782 6.54411 -0.377616 0
M  V30 1741 H 159.302 5.87681 1.19962 0
M  V30 1742 H 160.981 6.40363 0.92437 0
M  V30 1743 N 161.113 -0.173488 1.56642 0
M  V30 1744 C 162.338 -0.910149 1.86363 0
M  V30 1745 C 162.763 -1.75132 0.686318 0
M  V30 1746 O 162.121 -1.77595 -0.364643 0
M  V30 1747 C 162.169 -1.76447 3.14482 0
M  V30 1748 O 161.273 -2.86584 2.96553 0
M  V30 1749 H 160.614 -0.255086 0.613047 0
M  V30 1750 H 163.144 -0.172283 2.03873 0
M  V30 1751 H 163.154 -2.16483 3.45831 0
M  V30 1752 H 161.829 -1.14658 3.99783 0
M  V30 1753 H 160.406 -2.50146 2.76553 0
M  V30 1754 N 162.591 -1.51276 -0.441967 0
M  V30 1755 C 163.521 -1.752 -1.54361 0
M  V30 1756 C 164.502 -0.601682 -1.59103 0
M  V30 1757 O 165.687 -0.843913 -1.74905 0
M  V30 1758 C 162.817 -1.87282 -2.92477 0
M  V30 1759 C 161.771 -3.02687 -3.02596 0
M  V30 1760 C 161.097 -2.99947 -4.42647 0
M  V30 1761 C 162.397 -4.4273 -2.77106 0
M  V30 1762 H 164.091 -2.67442 -1.34592 0
M  V30 1763 H 161.637 -1.28694 -0.646048 0
M  V30 1764 H 163.59 -2.02602 -3.695 0
M  V30 1765 H 162.314 -0.916844 -3.13467 0
M  V30 1766 H 160.973 -2.87065 -2.28012 0
M  V30 1767 H 160.621 -2.02136 -4.60597 0
M  V30 1768 H 160.321 -3.77439 -4.50348 0
M  V30 1769 H 161.845 -3.17354 -5.2165 0
M  V30 1770 H 163.259 -4.58727 -3.43864 0
M  V30 1771 H 161.656 -5.21893 -2.96222 0
M  V30 1772 H 162.726 -4.53087 -1.72744 0
M  V30 1773 N 164.069 0.697108 -1.41344 0
M  V30 1774 C 165.315 1.45796 -1.41828 0
M  V30 1775 C 165.67 1.92382 -0.0261743 0
M  V30 1776 O 164.963 1.66522 0.947688 0
M  V30 1777 C 165.157 2.68553 -2.35826 0
M  V30 1778 C 164.986 2.33975 -3.84039 0
M  V30 1779 C 163.756 2.24414 -4.52732 0
M  V30 1780 C 165.954 1.97048 -4.75054 0
M  V30 1781 N 163.936 1.82705 -5.86082 0
M  V30 1782 C 165.307 1.66086 -5.9734 0
M  V30 1783 C 167.362 1.83845 -4.62715 0
M  V30 1784 C 166.065 1.23246 -7.08663 0
M  V30 1785 C 168.091 1.4241 -5.73998 0
M  V30 1786 C 167.453 1.12357 -6.95381 0
M  V30 1787 H 163.552 0.530859 -0.574206 0
M  V30 1788 H 166.136 0.806674 -1.77203 0
M  V30 1789 H 164.307 3.31404 -2.02549 0
M  V30 1790 H 166.039 3.35015 -2.2704 0
M  V30 1791 H 162.794 2.4276 -4.0665 0
M  V30 1792 H 163.218 1.64337 -6.56751 0
M  V30 1793 H 167.86 2.05734 -3.69369 0
M  V30 1794 H 165.578 1.00102 -8.01876 0
M  V30 1795 H 169.164 1.32746 -5.66454 0
M  V30 1796 H 168.044 0.807795 -7.80028 0
M  V30 1797 N 165.547 1.27147 0.931209 0
M  V30 1798 C 166.824 1.0401 1.65654 0
M  V30 1799 C 167.204 -0.426297 2.06751 0
M  V30 1800 O 166.552 -1.40879 1.79904 0
M  V30 1801 C 166.762 1.99834 2.86125 0
M  V30 1802 C 168.11 2.29007 3.57549 0
M  V30 1803 O 169.134 1.97779 2.96246 0
M  V30 1804 O 167.993 2.82222 4.67989 0
M  V30 1805 H 165.087 0.396239 0.725895 0
M  V30 1806 H 167.633 1.38397 0.982056 0
M  V30 1807 H 166.405 2.98744 2.52721 0
M  V30 1808 H 166.028 1.65987 3.61295 0
M  V30 1809 N 167.025 -1.13721 1.09112 0
M  V30 1810 C 167.957 -2.1871 0.685467 0
M  V30 1811 C 168.97 -1.60527 -0.271068 0
M  V30 1812 O 170.159 -1.78407 -0.0576148 0
M  V30 1813 C 167.259 -3.38898 -0.0111255 0
M  V30 1814 C 166.432 -4.26597 0.966131 0
M  V30 1815 C 165.491 -5.25324 0.303539 0
M  V30 1816 O 164.517 -5.61213 0.950177 0
M  V30 1817 N 165.719 -5.72779 -0.943651 0
M  V30 1818 H 168.484 -2.54126 1.58871 0
M  V30 1819 H 166.045 -1.29012 0.978143 0
M  V30 1820 H 168.037 -4.02014 -0.465517 0
M  V30 1821 H 166.607 -3.01747 -0.816565 0
M  V30 1822 H 165.827 -3.60306 1.59917 0
M  V30 1823 H 167.115 -4.82048 1.6281 0
M  V30 1824 H 166.513 -5.45762 -1.48862 0
M  V30 1825 H 165.07 -6.37847 -1.34142 0
M  V30 1826 N 168.503 -0.877838 -1.30888 0
M  V30 1827 C 169.728 -0.506629 -2.01117 0
M  V30 1828 C 170.153 0.895564 -1.65412 0
M  V30 1829 O 169.511 1.5923 -0.866922 0
M  V30 1830 C 169.559 -0.680223 -3.54126 0
M  V30 1831 O 168.663 0.277033 -4.11468 0
M  V30 1832 H 168.004 -0.200518 -0.633 0
M  V30 1833 H 170.534 -1.18342 -1.66902 0
M  V30 1834 H 170.544 -0.5765 -4.03907 0
M  V30 1835 H 169.219 -1.70261 -3.79452 0
M  V30 1836 H 167.796 0.127606 -3.72682 0
M  V30 1837 N 169.982 1.44106 -0.638065 0
M  V30 1838 C 170.912 2.33448 0.0494287 0
M  V30 1839 C 171.893 1.48606 0.827672 0
M  V30 1840 O 173.078 1.77308 0.792173 0
M  V30 1841 C 170.208 3.31771 1.02691 0
M  V30 1842 C 169.162 4.26485 0.359823 0
M  V30 1843 C 168.488 5.14729 1.44769 0
M  V30 1844 C 169.788 5.17056 -0.738296 0
M  V30 1845 H 171.482 2.91183 -0.696636 0
M  V30 1846 H 169.028 1.40014 -0.336456 0
M  V30 1847 H 170.981 3.93161 1.51666 0
M  V30 1848 H 169.705 2.7226 1.80395 0
M  V30 1849 H 168.364 3.66437 -0.10934 0
M  V30 1850 H 168.012 4.51566 2.21578 0
M  V30 1851 H 167.712 5.78913 1.00668 0
M  V30 1852 H 169.236 5.78991 1.93911 0
M  V30 1853 H 170.65 5.72342 -0.331354 0
M  V30 1854 H 169.047 5.89879 -1.10286 0
M  V30 1855 H 170.117 4.57652 -1.60258 0
M  V30 1856 N 171.46 0.379036 1.52974 0
M  V30 1857 C 172.407 -0.461048 2.26148 0
M  V30 1858 C 173.377 -1.06637 1.27349 0
M  V30 1859 O 174.562 -1.09633 1.56157 0
M  V30 1860 C 171.702 -1.58782 3.06402 0
M  V30 1861 C 170.815 -1.00636 4.20115 0
M  V30 1862 C 169.95 -2.10334 4.87784 0
M  V30 1863 C 168.989 -1.49724 5.93506 0
M  V30 1864 N 168.126 -2.5331 6.54812 0
M  V30 1865 H 172.966 0.169429 2.97518 0
M  V30 1866 H 170.503 0.0953806 1.4679 0
M  V30 1867 H 172.461 -2.25174 3.51215 0
M  V30 1868 H 171.091 -2.18876 2.37261 0
M  V30 1869 H 170.143 -0.232332 3.7969 0
M  V30 1870 H 171.455 -0.523343 4.96047 0
M  V30 1871 H 170.609 -2.84519 5.35849 0
M  V30 1872 H 169.348 -2.61992 4.11353 0
M  V30 1873 H 168.353 -0.740598 5.44789 0
M  V30 1874 H 169.578 -0.988732 6.71864 0
M  V30 1875 H 167.524 -3.04156 5.81227 0
M  V30 1876 H 167.441 -2.09734 7.26325 0
M  V30 1877 H 168.709 -3.27155 7.07524 0
M  V30 1878 N 172.938 -1.57226 0.108567 0
M  V30 1879 C 174.349 -1.8195 -0.418464 0
M  V30 1880 C 174.7 -1.02508 -1.67292 0
M  V30 1881 O 173.825 -0.258496 -2.14851 0
M  V30 1882 C 174.42 -3.30028 -0.765979 0
M  V30 1883 C 172.979 -3.55469 -1.23769 0
M  V30 1884 C 172.126 -2.7625 -0.241106 0
M  V30 1885 H 175.077 -1.55149 0.33384 0
M  V30 1886 H 175.098 -3.44086 -1.62434 0
M  V30 1887 H 174.61 -3.87821 0.147219 0
M  V30 1888 H 172.711 -3.03022 -2.16814 0
M  V30 1889 H 172.824 -4.6408 -1.19022 0
M  V30 1890 H 171.188 -2.44133 -0.72602 0
M  V30 1891 H 171.971 -3.36797 0.665007 0
M  V30 1892 N 174.416 0.165178 -1.56732 0
M  V30 1893 C 175.656 0.887231 -1.8414 0
M  V30 1894 C 176.02 1.79159 -0.690353 0
M  V30 1895 O 177.221 2.55172 -0.845032 0
M  V30 1896 C 175.492 1.65674 -3.16681 0
M  V30 1897 S 177.051 2.42671 -3.6559 0
M  V30 1898 H 173.869 0.297042 -0.645978 0
M  V30 1899 H 176.471 0.148439 -1.94936 0
M  V30 1900 H 175.175 0.983507 -3.98441 0
M  V30 1901 H 174.706 2.43679 -3.08843 0
M  V30 1902 H 176.721 3.67499 -3.33406 0
M  V30 1903 N 175.894 1.51508 0.433938 0
M  V30 1904 C 177.14 1.64588 1.18484 0
M  V30 1905 C 177.473 0.362666 1.90784 0
M  V30 1906 O 176.748 -0.637892 1.83742 0
M  V30 1907 C 177.031 2.85149 2.19913 0
M  V30 1908 C 176.884 4.23456 1.51674 0
M  V30 1909 C 178.203 3.01227 3.20858 0
M  V30 1910 H 175.322 0.598994 0.429389 0
M  V30 1911 H 177.964 1.84002 0.473647 0
M  V30 1912 H 176.114 2.68729 2.80566 0
M  V30 1913 H 177.786 4.51552 0.943322 0
M  V30 1914 H 176.029 4.25998 0.819035 0
M  V30 1915 H 176.7 5.03812 2.2556 0
M  V30 1916 H 179.176 3.16382 2.70263 0
M  V30 1917 H 178.052 3.87141 3.89118 0
M  V30 1918 H 178.313 2.13447 3.8716 0
M  V30 1919 N 177.372 -0.689602 1.41712 0
M  V30 1920 C 178.319 -1.80345 1.44029 0
M  V30 1921 C 179.289 -1.63478 0.293948 0
M  V30 1922 O 180.474 -1.84244 0.495869 0
M  V30 1923 C 177.614 -3.18272 1.33405 0
M  V30 1924 C 176.727 -3.46529 2.57956 0
M  V30 1925 C 175.862 -4.74103 2.39582 0
M  V30 1926 C 174.901 -4.95347 3.5958 0
M  V30 1927 N 174.038 -6.14151 3.40239 0
M  V30 1928 H 178.878 -1.77698 2.39222 0
M  V30 1929 H 176.415 -0.867688 1.18784 0
M  V30 1930 H 178.373 -3.97956 1.25246 0
M  V30 1931 H 177.003 -3.2008 0.418164 0
M  V30 1932 H 176.055 -2.61207 2.76542 0
M  V30 1933 H 177.367 -3.58126 3.47199 0
M  V30 1934 H 176.521 -5.61853 2.28924 0
M  V30 1935 H 175.26 -4.64763 1.47805 0
M  V30 1936 H 174.265 -4.06044 3.70686 0
M  V30 1937 H 175.49 -5.06542 4.52318 0
M  V30 1938 H 173.436 -6.06013 2.51167 0
M  V30 1939 H 173.353 -6.26543 4.23061 0
M  V30 1940 H 174.621 -7.04619 3.33365 0
M  V30 1941 N 178.85 -1.27639 -0.924453 0
M  V30 1942 C 179.78 -1.13166 -2.04244 0
M  V30 1943 C 180.761 -0.032256 -1.70069 0
M  V30 1944 O 181.946 -0.207328 -1.9309 0
M  V30 1945 C 179.076 -0.781496 -3.38393 0
M  V30 1946 C 178.03 -1.83449 -3.86692 0
M  V30 1947 C 177.356 -1.33822 -5.17683 0
M  V30 1948 C 178.656 -3.23917 -4.09726 0
M  V30 1949 H 180.35 -2.06689 -2.1661 0
M  V30 1950 H 177.896 -0.995136 -1.04082 0
M  V30 1951 H 179.849 -0.667057 -4.16087 0
M  V30 1952 H 178.573 0.189439 -3.2605 0
M  V30 1953 H 177.232 -1.93789 -3.11193 0
M  V30 1954 H 176.88 -0.35665 -5.01734 0
M  V30 1955 H 176.58 -2.04224 -5.50968 0
M  V30 1956 H 178.104 -1.23679 -5.97943 0
M  V30 1957 H 179.518 -3.16559 -4.77978 0
M  V30 1958 H 177.915 -3.92059 -4.54324 0
M  V30 1959 H 178.985 -3.68729 -3.14908 0
M  V30 1960 N 180.328 1.1314 -1.09713 0
M  V30 1961 C 181.556 1.88321 -0.856898 0
M  V30 1962 C 181.971 1.79276 0.592073 0
M  V30 1963 O 181.328 1.16142 1.40774 0
M  V30 1964 C 181.379 3.37812 -1.28706 0
M  V30 1965 O 181.1 3.46627 -2.67921 0
M  V30 1966 C 182.601 4.29952 -1.07964 0
M  V30 1967 H 179.821 0.596094 -0.308079 0
M  V30 1968 H 182.365 1.43205 -1.45988 0
M  V30 1969 H 180.52 3.805 -0.727912 0
M  V30 1970 H 180.934 4.39579 -2.8613 0
M  V30 1971 H 182.408 5.33159 -1.42986 0
M  V30 1972 H 182.885 4.39196 -0.0176577 0
M  V30 1973 H 183.491 3.93036 -1.62489 0
M  V30 1974 N 181.806 0.884767 1.30421 0
M  V30 1975 C 183.217 0.553656 1.78302 0
M  V30 1976 C 183.568 -0.930153 1.7275 0
M  V30 1977 O 182.693 -1.72681 1.30423 0
M  V30 1978 C 183.288 0.998234 3.2376 0
M  V30 1979 C 181.847 0.71854 3.69478 0
M  V30 1980 C 180.994 1.18132 2.50879 0
M  V30 1981 H 183.945 1.06901 1.17294 0
M  V30 1982 H 183.966 0.327118 3.79091 0
M  V30 1983 H 183.478 2.0782 3.27769 0
M  V30 1984 H 181.579 -0.349444 3.70958 0
M  V30 1985 H 181.692 1.30595 4.60958 0
M  V30 1986 H 180.056 0.600669 2.47516 0
M  V30 1987 H 180.839 2.26902 2.57624 0
M  V30 1988 N 183.284 -1.43765 0.645699 0
M  V30 1989 C 184.214 -2.33471 -0.0370477 0
M  V30 1990 C 185.195 -1.49042 -0.819779 0
M  V30 1991 O 186.38 -1.77726 -0.782758 0
M  V30 1992 C 183.51 -3.32311 -1.0093 0
M  V30 1993 C 182.464 -4.2667 -0.337201 0
M  V30 1994 C 181.79 -5.1549 -1.42037 0
M  V30 1995 C 183.09 -5.16657 0.765706 0
M  V30 1996 H 184.784 -2.90809 0.712069 0
M  V30 1997 H 182.33 -1.39834 0.343876 0
M  V30 1998 H 184.283 -3.9396 -1.49578 0
M  V30 1999 H 183.007 -2.73213 -1.78948 0
M  V30 2000 H 181.666 -3.66374 0.128771 0
M  V30 2001 H 181.314 -4.52735 -2.1918 0
M  V30 2002 H 181.014 -5.79438 -0.975966 0
M  V30 2003 H 182.538 -5.80012 -1.90838 0
M  V30 2004 H 183.952 -5.72158 0.361702 0
M  V30 2005 H 182.349 -5.89286 1.13413 0
M  V30 2006 H 183.419 -4.56796 1.62683 0
M  V30 2007 N 184.763 -0.387143 -1.52771 0
M  V30 2008 C 186.003 0.195537 -2.03463 0
M  V30 2009 C 186.367 1.44222 -1.26744 0
M  V30 2010 O 187.568 2.10192 -1.67549 0
M  V30 2011 C 185.839 0.459097 -3.54439 0
M  V30 2012 S 187.398 1.01237 -4.26962 0
M  V30 2013 H 184.216 0.0552675 -0.708849 0
M  V30 2014 H 186.818 -0.534992 -1.88037 0
M  V30 2015 H 185.522 -0.455382 -4.07866 0
M  V30 2016 H 185.053 1.21811 -3.74066 0
M  V30 2017 H 187.068 2.29492 -4.39941 0
M  V30 2018 N 186.241 1.57166 -0.116904 0
M  V30 2019 C 187.487 1.95412 0.542405 0
M  V30 2020 C 187.82 1.00019 1.66463 0
M  V30 2021 O 187.095 0.0370346 1.94465 0
M  V30 2022 C 187.378 3.43615 1.07708 0
M  V30 2023 C 187.231 4.49781 -0.0415868 0
M  V30 2024 C 188.55 3.93616 1.96861 0
M  V30 2025 H 185.669 0.710543 0.195696 0
M  V30 2026 H 188.311 1.89027 -0.192038 0
M  V30 2027 H 186.461 3.49187 1.70296 0
M  V30 2028 H 188.133 4.56308 -0.676793 0
M  V30 2029 H 186.376 4.28033 -0.705019 0
M  V30 2030 H 187.047 5.50733 0.373717 0
M  V30 2031 H 189.523 3.90335 1.44146 0
M  V30 2032 H 188.399 4.97838 2.3119 0
M  V30 2033 H 188.66 3.34188 2.89432 0
M  V30 2034 N 187.719 -0.156864 1.56817 0
M  V30 2035 C 188.947 -0.886316 1.86955 0
M  V30 2036 C 189.362 -1.75185 0.703975 0
M  V30 2037 O 188.719 -1.79555 -0.326552 0
M  V30 2038 C 188.77 -1.75117 3.16253 0
M  V30 2039 O 188.491 -0.920537 4.2832 0
M  V30 2040 C 189.992 -2.58905 3.59837 0
M  V30 2041 H 187.212 -0.25678 0.619923 0
M  V30 2042 H 189.756 -0.152615 2.0393 0
M  V30 2043 H 187.911 -2.43805 3.01062 0
M  V30 2044 H 188.325 -1.51337 5.02192 0
M  V30 2045 H 189.799 -3.1518 4.53172 0
M  V30 2046 H 190.276 -3.34472 2.84649 0
M  V30 2047 H 190.882 -1.95526 3.7769 0
M  V30 2048 N 189.197 -1.51736 -0.425897 0
M  V30 2049 C 190.127 -1.76827 -1.52494 0
M  V30 2050 C 191.108 -0.618524 -1.58456 0
M  V30 2051 O 192.293 -0.862416 -1.74 0
M  V30 2052 C 189.423 -1.90374 -2.90474 0
M  V30 2053 C 188.377 -3.0588 -2.99369 0
M  V30 2054 C 187.703 -3.04625 -4.3944 0
M  V30 2055 C 189.003 -4.45644 -2.72394 0
M  V30 2056 H 190.697 -2.68855 -1.31748 0
M  V30 2057 H 188.243 -1.29372 -0.632362 0
M  V30 2058 H 190.196 -2.0651 -3.6733 0
M  V30 2059 H 188.92 -0.95004 -3.12477 0
M  V30 2060 H 187.579 -2.89467 -2.24954 0
M  V30 2061 H 187.227 -2.0701 -4.58428 0
M  V30 2062 H 186.927 -3.82195 -4.46319 0
M  V30 2063 H 188.451 -3.22869 -5.18255 0
M  V30 2064 H 189.865 -4.62348 -3.38979 0
M  V30 2065 H 188.262 -5.25006 -2.9067 0
M  V30 2066 H 189.332 -4.54893 -1.67929 0
M  V30 2067 N 190.675 0.682077 -1.42076 0
M  V30 2068 C 191.623 1.81707 -1.45208 0
M  V30 2069 C 192.617 1.66183 -0.328591 0
M  V30 2070 O 193.823 1.7288 -0.501264 0
M  V30 2071 H 190.198 0.599014 -0.454628 0
M  V30 2072 H 192.169 1.76183 -2.40836 0
M  V30 2073 C 190.918 3.19816 -1.36428 0
M  V30 2074 H 190.241 3.32385 -2.22171 0
M  V30 2075 H 191.681 3.99272 -1.42681 0
M  V30 2076 C 190.14 3.36809 -0.078191 0
M  V30 2077 O 190.67 3.92124 0.87188 0
M  V30 2078 N 188.876 2.906 0.00229266 0
M  V30 2079 H 188.423 2.45772 -0.771616 0
M  V30 2080 H 188.381 3.02347 0.862179 0
M  V30 2081 N 192.153 1.28127 0.917671 0
M  V30 2082 C 193.393 1.163 1.68088 0
M  V30 2083 C 193.757 -0.284515 1.8988 0
M  V30 2084 O 194.958 -0.525413 2.63615 0
M  V30 2085 C 193.229 1.93546 3.00457 0
M  V30 2086 S 194.788 1.98048 3.91564 0
M  V30 2087 H 191.606 0.415005 0.577315 0
M  V30 2088 H 194.208 1.62173 1.09179 0
M  V30 2089 H 192.912 2.97888 2.82295 0
M  V30 2090 H 192.443 1.48207 3.64415 0
M  V30 2091 H 194.458 1.08415 4.84211 0
M  V30 2092 N 193.631 -1.12557 1.10312 0
M  V30 2093 C 194.581 -2.16331 0.720076 0
M  V30 2094 C 195.565 -1.58616 -0.270115 0
M  V30 2095 O 196.757 -1.76823 -0.0790507 0
M  V30 2096 C 193.886 -3.42963 0.152113 0
M  V30 2097 C 192.972 -4.07663 1.16927 0
M  V30 2098 N 193.363 -4.47392 2.35953 0
M  V30 2099 C 191.661 -4.34425 1.0095 0
M  V30 2100 C 192.362 -4.97932 3.0073 0
M  V30 2101 N 191.338 -4.93358 2.28252 0
M  V30 2102 H 195.14 -2.44813 1.62616 0
M  V30 2103 H 192.654 -1.29449 0.980654 0
M  V30 2104 H 194.651 -4.16664 -0.14037 0
M  V30 2105 H 193.311 -3.1595 -0.748701 0
M  V30 2106 H 194.322 -4.39802 2.73486 0
M  V30 2107 H 190.999 -4.17177 0.164134 0
M  V30 2108 H 192.389 -5.38397 4.01969 0
M  V30 2109 N 195.109 -0.891671 -1.2995 0
M  V30 2110 C 196.386 -0.433307 -1.9074 0
M  V30 2111 C 196.766 1.08646 -1.80995 0
M  V30 2112 O 196.114 1.92476 -1.23147 0
M  V30 2113 C 196.324 -0.938895 -3.36134 0
M  V30 2114 C 197.672 -0.977829 -4.13187 0
M  V30 2115 O 198.696 -0.886015 -3.45005 0
M  V30 2116 O 197.555 -1.11453 -5.35015 0
M  V30 2117 H 194.649 -0.133699 -0.816121 0
M  V30 2118 H 197.195 -0.981011 -1.38471 0
M  V30 2119 H 195.967 -1.98281 -3.37343 0
M  V30 2120 H 195.59 -0.37074 -3.95868 0
M  V30 2121 N 196.587 1.43421 -0.653314 0
M  V30 2122 C 197.834 2.01812 -0.166745 0
M  V30 2123 C 198.162 1.51535 1.21931 0
M  V30 2124 O 197.417 0.698975 1.82792 0
M  V30 2125 C 197.716 3.57176 -0.126623 0
M  V30 2126 C 197.382 4.26798 -1.45444 0
M  V30 2127 C 196.044 4.45534 -1.81805 0
M  V30 2128 C 198.396 4.66225 -2.32989 0
M  V30 2129 C 195.724 5.00961 -3.05377 0
M  V30 2130 C 198.076 5.23021 -3.55853 0
M  V30 2131 C 196.74 5.39973 -3.9241 0
M  V30 2132 H 196.01 0.738484 -0.0610162 0
M  V30 2133 H 198.657 1.71896 -0.84404 0
M  V30 2134 H 196.962 3.86634 0.634123 0
M  V30 2135 H 198.659 4.00112 0.266723 0
M  V30 2136 H 195.249 4.12561 -1.16153 0
M  V30 2137 H 199.433 4.51443 -2.06187 0
M  V30 2138 H 194.689 5.12271 -3.3375 0
M  V30 2139 H 198.863 5.52518 -4.23907 0
M  V30 2140 H 196.49 5.82687 -4.88242 0
M  V30 2141 N 198.065 0.39524 1.52563 0
M  V30 2142 C 199.013 -0.451859 2.28169 0
M  V30 2143 C 200.007 -1.05792 1.32304 0
M  V30 2144 O 201.213 -0.997718 1.49818 0
M  V30 2145 H 197.588 -0.164481 0.733792 0
M  V30 2146 H 199.559 0.207199 2.9768 0
M  V30 2147 C 198.308 -1.56385 3.10546 0
M  V30 2148 H 197.631 -1.10682 3.84174 0
M  V30 2149 H 199.071 -2.13067 3.66577 0
M  V30 2150 C 197.53 -2.52328 2.23231 0
M  V30 2151 O 198.06 -3.5588 1.86312 0
M  V30 2152 N 196.266 -2.22209 1.87274 0
M  V30 2153 H 195.813 -1.38033 2.17496 0
M  V30 2154 H 195.771 -2.86652 1.29143 0
M  V30 2155 N 199.544 -1.57102 0.125237 0
M  V30 2156 C 200.507 -2.14471 -0.80838 0
M  V30 2157 C 201.507 -1.0811 -1.19033 0
M  V30 2158 O 202.697 -1.33856 -1.11482 0
M  V30 2159 C 199.829 -2.69005 -2.09402 0
M  V30 2160 H 201.022 -2.98297 -0.309696 0
M  V30 2161 H 198.575 -1.55807 -0.124051 0
M  V30 2162 H 199.31 -1.88785 -2.63687 0
M  V30 2163 H 199.095 -3.46799 -1.82957 0
M  V30 2164 H 200.585 -3.13278 -2.76128 0
M  V30 2165 N 201.022 0.148545 -1.56898 0
M  V30 2166 C 202.25 0.876389 -1.87422 0
M  V30 2167 C 202.665 1.74809 -0.713256 0
M  V30 2168 O 202.022 1.79725 0.317025 0
M  V30 2169 C 202.073 1.73438 -3.17178 0
M  V30 2170 O 201.794 0.897809 -4.28802 0
M  V30 2171 C 203.295 2.56993 -3.61205 0
M  V30 2172 H 200.515 0.253489 -0.621277 0
M  V30 2173 H 203.059 0.141798 -2.04008 0
M  V30 2174 H 201.214 2.42205 -3.0235 0
M  V30 2175 H 201.628 1.48672 -5.02988 0
M  V30 2176 H 203.102 3.12773 -4.54838 0
M  V30 2177 H 203.579 3.32958 -2.86419 0
M  V30 2178 H 204.185 1.9352 -3.78722 0
M  V30 2179 N 202.5 1.5196 0.417844 0
M  V30 2180 C 203.448 1.75278 1.52907 0
M  V30 2181 C 204.442 0.619611 1.57662 0
M  V30 2182 O 205.648 0.801457 1.61173 0
M  V30 2183 H 202.023 0.554141 0.508362 0
M  V30 2184 H 203.994 2.68389 1.30422 0
M  V30 2185 C 202.743 1.91262 2.90369 0
M  V30 2186 H 202.066 2.77872 2.8745 0
M  V30 2187 H 203.506 2.11581 3.67436 0
M  V30 2188 C 201.965 0.677431 3.30019 0
M  V30 2189 O 202.495 -0.158799 4.01386 0
M  V30 2190 N 200.701 0.515851 2.85985 0
M  V30 2191 H 200.248 1.19744 2.28077 0
M  V30 2192 H 200.206 -0.309315 3.12875 0
M  V30 2193 N 203.978 -0.674533 1.42435 0
M  V30 2194 C 204.941 -1.76986 1.45632 0
M  V30 2195 C 205.941 -1.5708 0.343871 0
M  V30 2196 O 207.131 -1.63367 0.604709 0
M  V30 2197 C 204.263 -3.15623 1.28822 0
M  V30 2198 H 205.456 -1.75539 2.43158 0
M  V30 2199 H 203.009 -0.884189 1.28887 0
M  V30 2200 H 203.744 -3.22696 0.322193 0
M  V30 2201 H 203.529 -3.31475 2.09444 0
M  V30 2202 H 205.019 -3.95537 1.33942 0
M  V30 2203 N 205.456 -1.28612 -0.910864 0
M  V30 2204 C 206.684 -1.18792 -1.69399 0
M  V30 2205 C 207.099 0.253039 -1.87097 0
M  V30 2206 O 206.456 1.17071 -1.40003 0
M  V30 2207 C 206.507 -1.88511 -3.08457 0
M  V30 2208 O 206.228 -3.26979 -2.91576 0
M  V30 2209 C 207.729 -1.85029 -4.02839 0
M  V30 2210 H 204.949 -0.412233 -0.529438 0
M  V30 2211 H 207.493 -1.69788 -1.13984 0
M  V30 2212 H 205.648 -1.41379 -3.60681 0
M  V30 2213 H 206.062 -3.61936 -3.79608 0
M  V30 2214 H 207.536 -2.38395 -4.97867 0
M  V30 2215 H 208.013 -0.823303 -4.31414 0
M  V30 2216 H 208.619 -2.31853 -3.56545 0
M  V30 2217 N 206.934 1.1197 -1.10907 0
M  V30 2218 C 208.159 1.87942 -0.877064 0
M  V30 2219 C 208.584 1.79341 0.567314 0
M  V30 2220 O 207.942 1.15184 1.40009 0
M  V30 2221 C 207.99 3.34926 -1.33629 0
M  V30 2222 O 207.094 4.09303 -0.504447 0
M  V30 2223 H 206.435 0.583785 -0.316371 0
M  V30 2224 H 208.965 1.4157 -1.47712 0
M  V30 2225 H 208.975 3.8577 -1.32837 0
M  V30 2226 H 207.65 3.40504 -2.3881 0
M  V30 2227 H 206.227 3.68393 -0.577993 0
M  V30 2228 N 208.412 0.89855 1.29475 0
M  V30 2229 C 209.36 0.365253 2.29714 0
M  V30 2230 C 210.354 -0.534993 1.6073 0
M  V30 2231 O 211.56 -0.417921 1.75081 0
M  V30 2232 H 207.935 0.0994853 0.74539 0
M  V30 2233 H 209.906 1.22406 2.72138 0
M  V30 2234 C 208.655 -0.393159 3.4547 0
M  V30 2235 H 207.978 0.290332 3.98744 0
M  V30 2236 H 209.418 -0.731189 4.17648 0
M  V30 2237 C 207.877 -1.59539 2.9673 0
M  V30 2238 O 208.407 -2.69469 2.97908 0
M  V30 2239 N 206.613 -1.43716 2.52575 0
M  V30 2240 H 206.16 -0.542828 2.51816 0
M  V30 2241 H 206.118 -2.24288 2.20323 0
M  V30 2242 N 209.89 -1.43072 0.660911 0
M  V30 2243 C 211.115 -2.06584 0.183805 0
M  V30 2244 C 211.54 -1.49257 -1.14472 0
M  V30 2245 O 210.898 -0.605528 -1.70889 0
M  V30 2246 C 210.946 -3.60418 0.114434 0
M  V30 2247 O 210.05 -4.01981 -0.921137 0
M  V30 2248 H 209.391 -0.656669 0.0983994 0
M  V30 2249 H 211.921 -1.83447 0.906006 0
M  V30 2250 H 211.931 -4.07946 -0.0663394 0
M  V30 2251 H 210.606 -4.01519 1.08422 0
M  V30 2252 H 209.183 -3.66029 -0.71253 0
M  V30 2253 N 211.368 -0.403325 -1.52352 0
M  V30 2254 C 212.616 0.174003 -2.0135 0
M  V30 2255 C 212.937 1.46139 -1.29106 0
M  V30 2256 O 212.207 1.91448 -0.415253 0
M  V30 2257 H 210.787 0.0672911 -0.743963 0
M  V30 2258 H 213.449 -0.538235 -1.87321 0
M  V30 2259 H 212.545 0.374254 -3.09848 0
M  V30 2260 N 212.846 1.57033 -0.133567 0
M  V30 2261 C 213.793 2.16074 0.811208 0
M  V30 2262 C 214.763 1.08979 1.2535 0
M  V30 2263 O 215.948 1.36958 1.32843 0
M  V30 2264 C 213.088 2.77595 2.05024 0
M  V30 2265 C 212.201 3.99042 1.65498 0
M  V30 2266 C 211.336 4.48603 2.84479 0
M  V30 2267 C 210.375 5.62547 2.41262 0
M  V30 2268 N 209.512 6.06787 3.53206 0
M  V30 2269 H 214.352 2.96477 0.300906 0
M  V30 2270 H 211.889 1.46462 0.136822 0
M  V30 2271 H 213.847 3.11402 2.77642 0
M  V30 2272 H 212.477 1.99859 2.53488 0
M  V30 2273 H 211.529 3.71302 0.826981 0
M  V30 2274 H 212.841 4.81629 1.29748 0
M  V30 2275 H 211.995 4.84395 3.65303 0
M  V30 2276 H 210.734 3.64995 3.23465 0
M  V30 2277 H 209.739 5.26345 1.58874 0
M  V30 2278 H 210.964 6.47931 2.03377 0
M  V30 2279 H 208.91 5.26117 3.91838 0
M  V30 2280 H 208.827 6.84266 3.21427 0
M  V30 2281 H 210.095 6.4722 4.34427 0
M  V30 2282 N 214.325 -0.140222 1.56975 0
M  V30 2283 C 215.258 -1.20266 1.93936 0
M  V30 2284 C 216.236 -1.41212 0.806099 0
M  V30 2285 O 217.42 -1.55713 1.06234 0
M  V30 2286 C 214.547 -2.56037 2.21726 0
M  V30 2287 C 213.593 -2.51646 3.44349 0
M  V30 2288 S 214.426 -1.97678 4.97678 0
M  V30 2289 C 215.582 -3.35165 5.28597 0
M  V30 2290 H 215.815 -0.887358 2.83749 0
M  V30 2291 H 213.348 -0.346119 1.50471 0
M  V30 2292 H 215.306 -3.34167 2.38416 0
M  V30 2293 H 213.967 -2.84755 1.32566 0
M  V30 2294 H 213.16 -3.51608 3.61092 0
M  V30 2295 H 212.762 -1.81628 3.26936 0
M  V30 2296 H 215.054 -4.31302 5.2248 0
M  V30 2297 H 215.997 -3.23269 6.30002 0
M  V30 2298 H 216.405 -3.32614 4.56101 0
M  V30 2299 N 215.803 -1.52179 -0.40978 0
M  V30 2300 C 216.736 -1.70196 -1.52015 0
M  V30 2301 C 217.714 -0.549542 -1.53032 0
M  V30 2302 O 218.898 -0.776815 -1.71749 0
M  V30 2303 C 216.025 -1.74069 -2.90547 0
M  V30 2304 C 215.071 -2.95601 -3.07445 0
M  V30 2305 S 215.904 -4.55956 -2.80827 0
M  V30 2306 C 217.06 -4.62614 -4.21591 0
M  V30 2307 H 217.293 -2.64109 -1.36504 0
M  V30 2308 H 214.826 -1.4221 -0.601312 0
M  V30 2309 H 216.784 -1.76985 -3.70387 0
M  V30 2310 H 215.445 -0.812835 -3.034 0
M  V30 2311 H 214.638 -2.94791 -4.08796 0
M  V30 2312 H 214.24 -2.90569 -2.35469 0
M  V30 2313 H 216.532 -4.39951 -5.15218 0
M  V30 2314 H 217.475 -5.64548 -4.27424 0
M  V30 2315 H 217.883 -3.91654 -4.06531 0
M  V30 2316 N 217.281 0.66697 -1.42791 0
M  V30 2317 C 218.191 1.80962 -1.49299 0
M  V30 2318 C 219.207 1.69775 -0.381108 0
M  V30 2319 O 220.383 1.91188 -0.633188 0
M  V30 2320 C 217.448 3.17156 -1.40045 0
M  V30 2321 C 216.509 3.40242 -2.6179 0
M  V30 2322 C 215.742 4.69939 -2.52969 0
M  V30 2323 O 215.965 5.48372 -1.56985 0
M  V30 2324 O 214.899 4.94441 -3.43237 0
M  V30 2325 H 218.725 1.78427 -2.45759 0
M  V30 2326 H 216.31 0.823713 -1.24641 0
M  V30 2327 H 218.192 3.98413 -1.37276 0
M  V30 2328 H 216.867 3.20312 -0.467138 0
M  V30 2329 H 215.774 2.58802 -2.70134 0
M  V30 2330 H 217.107 3.41923 -3.54047 0
M  V30 2331 N 218.759 1.29093 0.90403 0
M  V30 2332 C 220.007 1.16583 1.65085 0
M  V30 2333 C 220.328 -0.283933 1.92922 0
M  V30 2334 O 219.598 -1.19509 1.55224 0
M  V30 2335 H 218.178 0.428467 0.611903 0
M  V30 2336 H 220.84 1.61959 1.08422 0
M  V30 2337 H 219.936 1.71266 2.6091 0
M  V30 2338 N 220.237 -1.11381 1.11499 0
M  V30 2339 C 221.485 -1.8277 0.862524 0
M  V30 2340 C 221.806 -1.85097 -0.613534 0
M  V30 2341 O 221.076 -1.32198 -1.4457 0
M  V30 2342 H 219.656 -0.676823 0.316101 0
M  V30 2343 H 222.318 -1.34816 1.4075 0
M  V30 2344 H 221.414 -2.86614 1.23527 0
M  V30 2345 N 221.715 -0.905404 -1.28997 0
M  V30 2346 C 222.625 -0.392246 -2.31298 0
M  V30 2347 C 223.641 0.515889 -1.66176 0
M  V30 2348 O 224.817 0.404093 -1.97304 0
M  V30 2349 C 221.882 0.36686 -3.44754 0
M  V30 2350 C 220.943 -0.573485 -4.25452 0
M  V30 2351 C 220.176 0.149488 -5.33491 0
M  V30 2352 O 220.399 1.37255 -5.5364 0
M  V30 2353 O 219.333 -0.510919 -5.99728 0
M  V30 2354 H 223.159 -1.2411 -2.77183 0
M  V30 2355 H 220.744 -0.669926 -1.33538 0
M  V30 2356 H 222.626 0.795907 -4.13816 0
M  V30 2357 H 221.301 1.19169 -3.00966 0
M  V30 2358 H 220.208 -1.05176 -3.59011 0
M  V30 2359 H 221.541 -1.36489 -4.72897 0
M  V30 2360 N 223.193 1.4272 -0.668489 0
M  V30 2361 C 224.126 2.28111 0.0637898 0
M  V30 2362 C 225.104 1.40705 0.814912 0
M  V30 2363 O 226.288 1.70146 0.81134 0
M  V30 2364 C 223.415 3.20429 1.0974 0
M  V30 2365 C 222.461 4.24197 0.442579 0
M  V30 2366 S 223.294 5.29563 -0.795173 0
M  V30 2367 C 224.45 6.25449 0.237516 0
M  V30 2368 H 224.683 2.8987 -0.660521 0
M  V30 2369 H 222.216 1.47456 -0.457821 0
M  V30 2370 H 224.174 3.74158 1.68868 0
M  V30 2371 H 222.835 2.57818 1.79411 0
M  V30 2372 H 222.028 4.88954 1.22227 0
M  V30 2373 H 221.63 3.73925 -0.0749554 0
M  V30 2374 H 223.922 6.68524 1.09915 0
M  V30 2375 H 224.865 7.07104 -0.375421 0
M  V30 2376 H 225.273 5.61511 0.580167 0
M  V30 2377 N 224.671 0.411399 1.52136 0
M  V30 2378 C 225.618 -0.412975 2.27075 0
M  V30 2379 C 226.588 -1.03912 1.29582 0
M  V30 2380 O 227.773 -1.06296 1.58448 0
M  V30 2381 C 224.913 -1.52247 3.09701 0
M  V30 2382 C 224.026 -0.917021 4.22155 0
M  V30 2383 C 223.161 -1.9994 4.92135 0
M  V30 2384 C 222.2 -1.37101 5.96548 0
M  V30 2385 N 221.337 -2.39364 6.60038 0
M  V30 2386 H 226.177 0.232499 2.97092 0
M  V30 2387 H 223.714 0.126496 1.46555 0
M  V30 2388 H 225.672 -2.17674 3.55913 0
M  V30 2389 H 224.302 -2.13794 2.41851 0
M  V30 2390 H 223.354 -0.151742 3.80097 0
M  V30 2391 H 224.666 -0.418006 4.97045 0
M  V30 2392 H 223.82 -2.73088 5.41763 0
M  V30 2393 H 222.559 -2.53208 4.16818 0
M  V30 2394 H 221.564 -0.624873 5.46237 0
M  V30 2395 H 222.789 -0.845998 6.7381 0
M  V30 2396 H 220.735 -2.91759 5.87548 0
M  V30 2397 H 220.652 -1.9428 7.3061 0
M  V30 2398 H 221.92 -3.12074 7.14304 0
M  V30 2399 N 226.149 -1.5696 0.141893 0
M  V30 2400 C 227.097 -2.17784 -0.816874 0
M  V30 2401 C 228.091 -1.1334 -1.25899 0
M  V30 2402 O 229.297 -1.316 -1.22806 0
M  V30 2403 H 225.672 -0.697278 -0.281615 0
M  V30 2404 H 227.643 -2.97087 -0.279621 0
M  V30 2405 C 226.392 -2.80983 -2.04802 0
M  V30 2406 H 225.715 -3.61062 -1.7168 0
M  V30 2407 H 227.155 -3.2705 -2.69841 0
M  V30 2408 C 225.614 -1.79228 -2.8527 0
M  V30 2409 O 226.144 -1.25962 -3.8144 0
M  V30 2410 N 224.35 -1.48647 -2.49704 0
M  V30 2411 H 223.897 -1.92155 -1.71564 0
M  V30 2412 H 223.855 -0.808115 -3.03837 0
M  V30 2413 N 227.627 0.131896 -1.57047 0
M  V30 2414 C 228.867 0.847972 -1.85981 0
M  V30 2415 C 229.231 1.77655 -0.7282 0
M  V30 2416 O 230.432 2.53322 -0.898968 0
M  V30 2417 C 228.703 1.58919 -3.20124 0
M  V30 2418 S 230.262 2.34862 -3.70655 0
M  V30 2419 H 227.08 0.283273 -0.652133 0
M  V30 2420 H 229.682 0.107057 -1.95207 0
M  V30 2421 H 228.386 0.898771 -4.00438 0
M  V30 2422 H 227.917 2.37073 -3.13942 0
M  V30 2423 H 229.932 3.60344 -3.41126 0
M  V30 2424 N 229.106 1.52395 0.401703 0
M  V30 2425 C 230.331 1.70972 1.17403 0
M  V30 2426 C 230.756 0.421615 1.83314 0
M  V30 2427 O 230.114 -0.621564 1.70312 0
M  V30 2428 C 230.162 2.85151 2.20728 0
M  V30 2429 O 229.266 2.51238 3.27037 0
M  V30 2430 H 228.607 0.568927 0.342372 0
M  V30 2431 H 231.137 1.99131 0.469891 0
M  V30 2432 H 231.147 3.10279 2.64936 0
M  V30 2433 H 229.822 3.78603 1.7214 0
M  V30 2434 H 228.399 2.36808 2.88057 0
M  V30 2435 N 230.584 -0.659388 1.43143 0
M  V30 2436 C 231.831 -1.41935 1.44433 0
M  V30 2437 C 232.159 -1.94387 0.0663522 0
M  V30 2438 O 231.414 -1.72314 -0.927706 0
M  V30 2439 C 231.713 -2.62206 2.42864 0
M  V30 2440 C 231.379 -2.28208 3.88886 0
M  V30 2441 C 230.041 -2.18647 4.28657 0
M  V30 2442 C 232.393 -2.00887 4.8093 0
M  V30 2443 C 229.721 -1.79914 5.58433 0
M  V30 2444 C 232.073 -1.63653 6.11065 0
M  V30 2445 C 230.737 -1.52614 6.49819 0
M  V30 2446 H 230.007 -0.519376 0.528517 0
M  V30 2447 H 232.654 -0.750453 1.76183 0
M  V30 2448 H 230.959 -3.34199 2.04495 0
M  V30 2449 H 232.656 -3.2041 2.41119 0
M  V30 2450 H 229.246 -2.36557 3.57406 0
M  V30 2451 H 233.43 -2.07198 4.5098 0
M  V30 2452 H 228.686 -1.69948 5.87305 0
M  V30 2453 H 232.86 -1.41543 6.81864 0
M  V30 2454 H 230.487 -1.22371 7.50286 0
M  V30 2455 N 232.062 -1.29571 -0.897171 0
M  V30 2456 C 233.01 -1.14802 -2.02295 0
M  V30 2457 C 234.004 -0.0629637 -1.69283 0
M  V30 2458 O 235.21 -0.222945 -1.78614 0
M  V30 2459 H 231.585 -0.354692 -0.663097 0
M  V30 2460 H 233.556 -2.10108 -2.11889 0
M  V30 2461 C 232.305 -0.843966 -3.37302 0
M  V30 2462 H 231.628 -1.67093 -3.63208 0
M  V30 2463 H 233.068 -0.780672 -4.16751 0
M  V30 2464 C 231.527 0.452843 -3.33843 0
M  V30 2465 O 232.057 1.47813 -3.73516 0
M  V30 2466 N 230.263 0.459601 -2.86943 0
M  V30 2467 H 229.81 -0.375213 -2.54853 0
M  V30 2468 H 229.768 1.32726 -2.85011 0
M  V30 2469 N 233.54 1.10788 -1.12088 0
M  V30 2470 C 234.789 1.82036 -0.868659 0
M  V30 2471 C 235.102 1.85929 0.607426 0
M  V30 2472 O 236.308 2.53346 0.97613 0
M  V30 2473 C 234.764 3.26951 -1.50435 0
M  V30 2474 C 234.372 3.31367 -3.01496 0
M  V30 2475 C 236.116 4.03053 -1.33225 0
M  V30 2476 C 234.023 4.7072 -3.58017 0
M  V30 2477 H 232.953 0.682108 -0.321318 0
M  V30 2478 H 235.604 1.24618 -1.34694 0
M  V30 2479 H 233.986 3.84343 -0.953735 0
M  V30 2480 H 235.16 2.83819 -3.6302 0
M  V30 2481 H 233.475 2.6875 -3.18061 0
M  V30 2482 H 236.072 5.05981 -1.72878 0
M  V30 2483 H 236.415 4.15387 -0.275529 0
M  V30 2484 H 236.948 3.52066 -1.85188 0
M  V30 2485 H 233.687 4.63585 -4.63432 0
M  V30 2486 H 233.207 5.1865 -3.01268 0
M  V30 2487 H 234.886 5.39685 -3.56859 0
M  V30 2488 N 235.018 0.912232 1.28515 0
M  V30 2489 C 236.246 0.560416 1.99166 0
M  V30 2490 C 236.661 -0.857927 1.68182 0
M  V30 2491 O 236.018 -1.56805 0.933733 0
M  V30 2492 C 236.069 0.758142 3.53461 0
M  V30 2493 O 235.79 2.12067 3.83352 0
M  V30 2494 C 237.291 0.412954 4.41372 0
M  V30 2495 H 234.511 0.213805 0.636026 0
M  V30 2496 H 237.055 1.22502 1.63749 0
M  V30 2497 H 235.21 0.140556 3.87145 0
M  V30 2498 H 235.624 2.15923 4.77993 0
M  V30 2499 H 237.098 0.60208 5.48707 0
M  V30 2500 H 237.575 -0.65073 4.34353 0
M  V30 2501 H 238.181 1.00802 4.13182 0
M  V30 2502 N 236.496 -1.42363 0.676048 0
M  V30 2503 C 237.724 -2.05859 0.207268 0
M  V30 2504 C 238.139 -1.50796 -1.13605 0
M  V30 2505 O 237.496 -0.648265 -1.70598 0
M  V30 2506 C 237.547 -3.61248 0.134975 0
M  V30 2507 O 237.268 -4.1427 1.42521 0
M  V30 2508 C 238.769 -4.41859 -0.357151 0
M  V30 2509 H 235.989 -0.663431 0.100503 0
M  V30 2510 H 238.533 -1.82479 0.923136 0
M  V30 2511 H 236.688 -3.83735 -0.531588 0
M  V30 2512 H 237.102 -5.0815 1.29939 0
M  V30 2513 H 238.576 -5.50847 -0.356641 0
M  V30 2514 H 239.053 -4.16536 -1.39264 0
M  V30 2515 H 239.659 -4.24392 0.27772 0
M  V30 2516 N 237.974 -0.419461 -1.51915 0
M  V30 2517 C 239.199 0.154572 -2.06823 0
M  V30 2518 C 239.624 1.3722 -1.28656 0
M  V30 2519 O 238.982 1.78461 -0.319583 0
M  V30 2520 C 239.03 0.473172 -3.57482 0
M  V30 2521 O 238.134 1.56255 -3.81652 0
M  V30 2522 H 237.475 0.0096924 -0.663929 0
M  V30 2523 H 240.005 -0.595642 -1.95738 0
M  V30 2524 H 240.015 0.728825 -4.01438 0
M  V30 2525 H 238.69 -0.416873 -4.13805 0
M  V30 2526 H 237.267 1.29825 -3.49571 0
M  V30 2527 N 239.452 1.56882 -0.150215 0
M  V30 2528 C 240.701 1.95403 0.500071 0
M  V30 2529 C 241.014 1.03777 1.658 0
M  V30 2530 O 242.22 1.31889 2.37313 0
M  V30 2531 C 240.676 3.4738 0.941018 0
M  V30 2532 C 240.284 4.47596 -0.190158 0
M  V30 2533 C 242.028 3.9476 1.56091 0
M  V30 2534 C 239.935 5.90787 0.269237 0
M  V30 2535 H 238.865 0.729515 0.190588 0
M  V30 2536 H 241.516 1.81988 -0.235074 0
M  V30 2537 H 239.898 3.56138 1.73152 0
M  V30 2538 H 241.072 4.50536 -0.967157 0
M  V30 2539 H 239.387 4.10151 -0.718666 0
M  V30 2540 H 241.984 4.99181 1.9163 0
M  V30 2541 H 242.327 3.36494 2.45107 0
M  V30 2542 H 242.86 3.88932 0.835249 0
M  V30 2543 H 239.599 6.52879 -0.585621 0
M  V30 2544 H 239.119 5.912 1.01204 0
M  V30 2545 H 240.798 6.42979 0.720176 0
M  V30 2546 N 240.93 -0.123565 1.57115 0
M  V30 2547 C 242.346 -0.476961 1.52306 0
M  V30 2548 C 242.546 -1.82109 0.86248 0
M  V30 2549 O 241.602 -2.48586 0.442884 0
M  V30 2550 C 242.915 -0.465661 2.97073 0
M  V30 2551 C 244.463 -0.549534 3.08138 0
M  V30 2552 C 244.938 -0.568669 4.54456 0
M  V30 2553 N 246.429 -0.630237 4.58892 0
M  V30 2554 C 247.164 -0.666415 5.69514 0
M  V30 2555 N 246.66 -0.660514 6.89644 0
M  V30 2556 N 248.453 -0.709077 5.5761 0
M  V30 2557 H 240.604 0.757198 1.98445 0
M  V30 2558 H 242.867 0.278808 0.906074 0
M  V30 2559 H 242.573 0.454232 3.48754 0
M  V30 2560 H 242.447 -1.29513 3.54269 0
M  V30 2561 H 244.834 -1.45985 2.56461 0
M  V30 2562 H 244.915 0.307532 2.53945 0
M  V30 2563 H 244.559 0.337581 5.06777 0
M  V30 2564 H 244.489 -1.44256 5.06456 0
M  V30 2565 H 246.98 -0.641146 3.72421 0
M  V30 2566 H 247.293 -0.690616 7.69708 0
M  V30 2567 H 245.638 -0.628012 6.92157 0
M  V30 2568 H 248.829 -0.711019 4.62668 0
M  V30 2569 H 249.002 -0.733804 6.43832 0
M  V30 2570 N 242.408 -1.52605 -0.393616 0
M  V30 2571 C 243.685 -1.58001 -1.15304 0
M  V30 2572 C 244.065 -0.370385 -2.07825 0
M  V30 2573 O 243.413 0.641638 -2.19306 0
M  V30 2574 C 243.623 -2.91652 -1.91677 0
M  V30 2575 C 244.971 -3.4522 -2.47201 0
M  V30 2576 O 245.995 -2.93495 -2.01839 0
M  V30 2577 O 244.854 -4.35579 -3.3005 0
M  V30 2578 H 241.948 -0.637068 -0.527327 0
M  V30 2579 H 244.494 -1.64939 -0.399141 0
M  V30 2580 H 243.266 -3.71136 -1.23992 0
M  V30 2581 H 242.889 -2.88077 -2.74039 0
M  V30 2582 N 243.887 0.651787 -1.4349 0
M  V30 2583 C 244.834 1.76462 -1.4876 0
M  V30 2584 C 245.804 1.62641 -0.337189 0
M  V30 2585 O 246.989 1.82864 -0.544544 0
M  V30 2586 C 244.129 3.14623 -1.41796 0
M  V30 2587 C 243.242 3.39568 -2.67053 0
M  V30 2588 C 242.377 4.67585 -2.52068 0
M  V30 2589 C 241.416 4.85639 -3.72587 0
M  V30 2590 N 240.553 6.04915 -3.56402 0
M  V30 2591 H 245.393 1.71293 -2.43849 0
M  V30 2592 H 242.93 0.835889 -1.21043 0
M  V30 2593 H 244.888 3.94496 -1.35753 0
M  V30 2594 H 243.518 3.18859 -0.50288 0
M  V30 2595 H 242.57 2.53783 -2.8337 0
M  V30 2596 H 243.882 3.48795 -3.56572 0
M  V30 2597 H 243.036 5.55586 -2.4374 0
M  V30 2598 H 241.775 4.60681 -1.60075 0
M  V30 2599 H 240.78 3.96073 -3.81321 0
M  V30 2600 H 242.005 4.94372 -4.65589 0
M  V30 2601 H 239.951 5.9914 -2.67146 0
M  V30 2602 H 239.868 6.15106 -4.39524 0
M  V30 2603 H 241.136 6.95533 -3.51929 0
M  V30 2604 N 245.365 1.30045 0.890287 0
M  V30 2605 C 246.298 1.10301 1.99772 0
M  V30 2606 C 247.276 0.0121631 1.62595 0
M  V30 2607 O 248.46 0.16469 1.87779 0
M  V30 2608 C 245.587 0.681125 3.31781 0
M  V30 2609 C 244.633 1.77206 3.87944 0
M  V30 2610 S 245.466 3.37335 4.15891 0
M  V30 2611 C 246.622 2.97036 5.50927 0
M  V30 2612 H 246.855 2.04057 2.16213 0
M  V30 2613 H 244.388 1.14299 1.03804 0
M  V30 2614 H 246.346 0.444439 4.08087 0
M  V30 2615 H 245.007 -0.236981 3.13205 0
M  V30 2616 H 244.2 1.42903 4.83316 0
M  V30 2617 H 243.802 1.96275 3.18358 0
M  V30 2618 H 246.094 2.44666 6.31779 0
M  V30 2619 H 247.037 3.91296 5.90164 0
M  V30 2620 H 247.445 2.35057 5.13233 0
M  V30 2621 N 246.843 -1.10192 1.12674 0
M  V30 2622 C 247.775 -2.16418 0.754701 0
M  V30 2623 C 248.788 -1.61309 -0.21986 0
M  V30 2624 O 249.977 -1.785 -0.000826841 0
M  V30 2625 C 247.077 -3.38762 0.096698 0
M  V30 2626 C 246.25 -4.23307 1.10136 0
M  V30 2627 C 245.309 -5.24092 0.470513 0
M  V30 2628 O 244.335 -5.57906 1.12824 0
M  V30 2629 N 245.537 -5.75491 -0.760948 0
M  V30 2630 H 248.302 -2.48943 1.66875 0
M  V30 2631 H 245.863 -1.25834 1.01869 0
M  V30 2632 H 247.855 -4.03291 -0.337384 0
M  V30 2633 H 246.425 -3.04192 -0.720153 0
M  V30 2634 H 245.645 -3.55036 1.71299 0
M  V30 2635 H 246.933 -4.76624 1.78064 0
M  V30 2636 H 246.331 -5.50222 -1.31424 0
M  V30 2637 H 244.888 -6.41792 -1.13781 0
M  V30 2638 N 248.321 -0.919034 -1.28029 0
M  V30 2639 C 249.268 -0.410005 -2.27129 0
M  V30 2640 C 250.238 0.518405 -1.57803 0
M  V30 2641 O 251.423 0.439451 -1.8567 0
M  V30 2642 C 248.563 0.339054 -3.4343 0
M  V30 2643 C 247.676 -0.622468 -4.27492 0
M  V30 2644 C 246.811 0.145567 -5.31001 0
M  V30 2645 C 245.85 -0.809226 -6.06727 0
M  V30 2646 N 244.987 -0.0743728 -7.02061 0
M  V30 2647 H 249.827 -1.26011 -2.70047 0
M  V30 2648 H 247.364 -0.632663 -1.328 0
M  V30 2649 H 249.322 0.789586 -4.0966 0
M  V30 2650 H 247.952 1.15346 -3.01488 0
M  V30 2651 H 247.004 -1.19153 -3.61257 0
M  V30 2652 H 248.316 -1.35252 -4.80113 0
M  V30 2653 H 247.47 0.656417 -6.03139 0
M  V30 2654 H 246.209 0.908643 -4.79161 0
M  V30 2655 H 245.214 -1.3314 -5.33436 0
M  V30 2656 H 246.439 -1.57194 -6.60656 0
M  V30 2657 H 244.385 0.670616 -6.52563 0
M  V30 2658 H 244.302 -0.744157 -7.52329 0
M  V30 2659 H 245.57 0.416109 -7.78389 0
M  V30 2660 N 249.799 1.42003 -0.683588 0
M  V30 2661 C 250.709 2.34597 -0.0109075 0
M  V30 2662 C 251.725 1.55576 0.779245 0
M  V30 2663 O 252.901 1.88107 0.719555 0
M  V30 2664 C 249.966 3.34199 0.922588 0
M  V30 2665 C 249.027 4.29115 0.125984 0
M  V30 2666 C 248.26 5.23959 1.01502 0
M  V30 2667 O 248.483 5.23952 2.25456 0
M  V30 2668 O 247.417 6.00053 0.47111 0
M  V30 2669 H 251.243 2.93675 -0.773853 0
M  V30 2670 H 248.828 1.42654 -0.443861 0
M  V30 2671 H 250.71 3.95365 1.45823 0
M  V30 2672 H 249.385 2.77582 1.66523 0
M  V30 2673 H 248.292 3.71335 -0.453969 0
M  V30 2674 H 249.625 4.88798 -0.577736 0
M  V30 2675 N 251.277 0.427512 1.51691 0
M  V30 2676 C 252.507 -0.140986 2.06118 0
M  V30 2677 C 252.915 -1.37854 1.29588 0
M  V30 2678 O 252.258 -1.80411 0.346036 0
M  V30 2679 C 252.32 -0.538276 3.55447 0
M  V30 2680 C 251.984 0.591095 4.53161 0
M  V30 2681 C 252.981 1.46027 4.98971 0
M  V30 2682 C 250.666 0.769028 4.96378 0
M  V30 2683 C 252.66 2.49216 5.8666 0
M  V30 2684 C 250.347 1.80421 5.83859 0
M  V30 2685 C 251.345 2.66417 6.28897 0
M  V30 2686 O 251.033 3.68159 7.14643 0
M  V30 2687 H 250.765 -0.0157455 0.675817 0
M  V30 2688 H 253.319 0.602495 1.96365 0
M  V30 2689 H 251.549 -1.33432 3.6295 0
M  V30 2690 H 253.238 -1.0368 3.92435 0
M  V30 2691 H 254.004 1.33429 4.66285 0
M  V30 2692 H 249.883 0.109273 4.6087 0
M  V30 2693 H 253.427 3.16372 6.21735 0
M  V30 2694 H 249.324 1.93042 6.15959 0
M  V30 2695 H 250.092 3.64622 7.32798 0
M  V30 2696 N 252.755 -1.56801 0.158532 0
M  V30 2697 C 253.718 -2.16138 -0.762705 0
M  V30 2698 C 254.718 -1.1061 -1.16713 0
M  V30 2699 O 255.908 -1.36191 -1.08617 0
M  V30 2700 C 253.04 -2.73386 -2.03649 0
M  V30 2701 H 254.233 -2.98886 -0.246354 0
M  V30 2702 H 251.786 -1.56035 -0.0909744 0
M  V30 2703 H 252.521 -1.94335 -2.59623 0
M  V30 2704 H 252.306 -3.50601 -1.75559 0
M  V30 2705 H 253.796 -3.19065 -2.6942 0
M  V30 2706 N 254.233 0.115231 -1.57178 0
M  V30 2707 C 255.163 1.1423 -2.03651 0
M  V30 2708 C 256.144 1.42967 -0.921655 0
M  V30 2709 O 257.329 1.53343 -1.19162 0
M  V30 2710 C 254.459 2.4675 -2.44401 0
M  V30 2711 C 253.413 2.32467 -3.59365 0
M  V30 2712 C 252.739 3.69984 -3.86026 0
M  V30 2713 C 254.039 1.78203 -4.90959 0
M  V30 2714 H 255.733 0.755749 -2.89705 0
M  V30 2715 H 253.279 0.362093 -1.39373 0
M  V30 2716 H 255.232 3.18854 -2.75517 0
M  V30 2717 H 253.956 2.87302 -1.55322 0
M  V30 2718 H 252.615 1.62811 -3.28463 0
M  V30 2719 H 252.263 4.08028 -2.94147 0
M  V30 2720 H 251.963 3.61279 -4.63412 0
M  V30 2721 H 253.487 4.43587 -4.19599 0
M  V30 2722 H 254.901 2.40128 -5.20587 0
M  V30 2723 H 253.298 1.8031 -5.72371 0
M  V30 2724 H 254.368 0.739876 -4.79222 0
M  V30 2725 N 255.711 1.52812 0.385517 0
M  V30 2726 C 256.958 1.68026 1.1302 0
M  V30 2727 C 257.286 0.421934 1.89868 0
M  V30 2728 O 256.541 -0.595749 1.86412 0
M  V30 2729 C 256.84 2.86856 2.13187 0
M  V30 2730 C 256.506 4.24159 1.5297 0
M  V30 2731 C 255.168 4.61501 1.36274 0
M  V30 2732 C 257.52 5.09627 1.09223 0
M  V30 2733 C 254.848 5.81966 0.743837 0
M  V30 2734 C 257.2 6.30719 0.487411 0
M  V30 2735 C 255.864 6.6679 0.307777 0
M  V30 2736 H 255.134 0.614849 0.413571 0
M  V30 2737 H 257.781 1.86962 0.414405 0
M  V30 2738 H 256.086 2.6235 2.90998 0
M  V30 2739 H 257.783 2.95821 2.70722 0
M  V30 2740 H 254.373 3.94746 1.66954 0
M  V30 2741 H 258.557 4.81343 1.20922 0
M  V30 2742 H 253.813 6.08519 0.592891 0
M  V30 2743 H 257.987 6.96259 0.140143 0
M  V30 2744 H 255.614 7.60001 -0.173879 0
M  V30 2745 N 257.189 -0.644168 1.43834 0
M  V30 2746 C 258.419 -1.42939 1.49171 0
M  V30 2747 C 258.827 -1.88874 0.111048 0
M  V30 2748 O 258.17 -1.60656 -0.8908 0
M  V30 2749 C 258.232 -2.69151 2.38324 0
M  V30 2750 C 257.896 -2.45097 3.85715 0
M  V30 2751 C 258.893 -2.07747 4.76589 0
M  V30 2752 C 256.578 -2.59141 4.30292 0
M  V30 2753 C 258.572 -1.8475 6.10038 0
M  V30 2754 C 256.259 -2.35759 5.63792 0
M  V30 2755 C 257.257 -1.9862 6.53482 0
M  V30 2756 O 256.945 -1.75489 7.84512 0
M  V30 2757 H 256.677 -0.445271 0.508635 0
M  V30 2758 H 259.231 -0.79621 1.8934 0
M  V30 2759 H 257.461 -3.3506 1.93058 0
M  V30 2760 H 259.15 -3.31123 2.3476 0
M  V30 2761 H 259.916 -1.96465 4.43426 0
M  V30 2762 H 255.795 -2.87022 3.60749 0
M  V30 2763 H 259.339 -1.55686 6.80006 0
M  V30 2764 H 255.236 -2.46646 5.9652 0
M  V30 2765 H 256.004 -1.89841 7.9618 0
M  V30 2766 N 258.668 -1.30515 -0.883378 0
M  V30 2767 C 259.615 -1.17032 -1.98927 0
M  V30 2768 C 260.585 -0.0594241 -1.65994 0
M  V30 2769 O 261.77 -0.229895 -1.8941 0
M  V30 2770 C 258.91 -0.869777 -3.33959 0
M  V30 2771 C 258.023 -2.06271 -3.79574 0
M  V30 2772 C 257.158 -1.70011 -5.03259 0
M  V30 2773 C 256.197 -2.8579 -5.41286 0
M  V30 2774 N 255.334 -2.49816 -6.56153 0
M  V30 2775 H 260.174 -2.1164 -2.09792 0
M  V30 2776 H 257.711 -1.05296 -1.02719 0
M  V30 2777 H 259.669 -0.676138 -4.11685 0
M  V30 2778 H 258.299 0.0394332 -3.22776 0
M  V30 2779 H 257.351 -2.36755 -2.97744 0
M  V30 2780 H 258.663 -2.92971 -4.03694 0
M  V30 2781 H 257.817 -1.47032 -5.88614 0
M  V30 2782 H 256.556 -0.804829 -4.81013 0
M  V30 2783 H 255.561 -3.09434 -4.54456 0
M  V30 2784 H 256.786 -3.76008 -5.65504 0
M  V30 2785 H 254.732 -1.62795 -6.35479 0
M  V30 2786 H 254.649 -3.30048 -6.8015 0
M  V30 2787 H 255.917 -2.30197 -7.44735 0
M  V30 2788 N 260.146 1.09593 -1.13257 0
M  V30 2789 C 261.076 2.18214 -0.830946 0
M  V30 2790 C 262.057 1.68812 0.208966 0
M  V30 2791 O 263.242 1.9408 0.0682666 0
M  V30 2792 C 260.372 3.46051 -0.294296 0
M  V30 2793 C 259.326 4.08778 -1.26826 0
M  V30 2794 C 258.652 5.31419 -0.591449 0
M  V30 2795 C 259.952 4.51476 -2.62615 0
M  V30 2796 H 261.646 2.43703 -1.73923 0
M  V30 2797 H 259.192 1.17128 -0.837675 0
M  V30 2798 H 261.145 4.2134 -0.0709606 0
M  V30 2799 H 259.869 3.20079 0.649366 0
M  V30 2800 H 258.528 3.35505 -1.47756 0
M  V30 2801 H 258.176 5.01727 0.357633 0
M  V30 2802 H 257.876 5.74341 -1.24123 0
M  V30 2803 H 259.4 6.09433 -0.377355 0
M  V30 2804 H 260.814 5.17999 -2.45663 0
M  V30 2805 H 259.211 5.05277 -3.23752 0
M  V30 2806 H 260.281 3.63962 -3.20406 0
M  V30 2807 N 261.624 0.925811 1.2754 0
M  V30 2808 C 262.901 0.483726 1.89524 0
M  V30 2809 C 263.281 -1.03809 1.83812 0
M  V30 2810 O 262.629 -1.89143 1.28207 0
M  V30 2811 C 262.839 1.02769 3.33526 0
M  V30 2812 C 264.187 1.08703 4.10449 0
M  V30 2813 O 265.211 0.977175 3.42534 0
M  V30 2814 O 264.07 1.25599 5.31871 0
M  V30 2815 H 261.164 0.15529 0.812289 0
M  V30 2816 H 263.71 1.01738 1.35822 0
M  V30 2817 H 262.482 2.07155 3.31967 0
M  V30 2818 H 262.105 0.475567 3.94746 0
M  V30 2819 N 263.102 -1.41638 0.69111 0
M  V30 2820 C 264.351 -2.00526 0.217318 0
M  V30 2821 C 264.664 -1.55353 -1.18848 0
M  V30 2822 O 265.87 -2.06769 -1.75951 0
M  V30 2823 C 264.326 -3.58313 0.337639 0
M  V30 2824 C 263.934 -4.12469 1.74852 0
M  V30 2825 C 265.678 -4.24431 -0.0766066 0
M  V30 2826 C 263.585 -5.62675 1.82074 0
M  V30 2827 H 262.515 -0.750008 0.0774893 0
M  V30 2828 H 265.166 -1.6217 0.858661 0
M  V30 2829 H 263.548 -3.9425 -0.371879 0
M  V30 2830 H 264.722 -3.8796 2.48644 0
M  V30 2831 H 263.037 -3.58861 2.11205 0
M  V30 2832 H 265.634 -5.34683 -0.0430284 0
M  V30 2833 H 265.977 -4.01101 -1.1146 0
M  V30 2834 H 266.51 -3.93512 0.582476 0
M  V30 2835 H 263.249 -5.90826 2.83911 0
M  V30 2836 H 262.769 -5.89124 1.12661 0
M  V30 2837 H 264.448 -6.27371 1.58159 0
M  V30 2838 N 264.58 -0.43555 -1.51462 0
M  V30 2839 C 265.826 0.131709 -2.02372 0
M  V30 2840 C 266.159 1.42516 -1.3192 0
M  V30 2841 O 265.434 1.89606 -0.433573 0
M  V30 2842 C 265.717 0.352301 -3.58373 0
M  V30 2843 C 265.57 -0.959676 -4.39443 0
M  V30 2844 C 266.889 1.12286 -4.25535 0
M  V30 2845 H 264.008 0.0463936 -0.735538 0
M  V30 2846 H 266.65 -0.574197 -1.81116 0
M  V30 2847 H 264.8 0.9536 -3.76615 0
M  V30 2848 H 266.472 -1.59482 -4.32855 0
M  V30 2849 H 264.715 -1.56468 -4.04599 0
M  V30 2850 H 265.386 -0.759394 -5.46752 0
M  V30 2851 H 267.862 0.613545 -4.11552 0
M  V30 2852 H 266.738 1.24598 -5.34571 0
M  V30 2853 H 266.999 2.15048 -3.86273 0
M  V30 2854 N 266.058 1.56714 -0.166846 0
M  V30 2855 C 267.469 1.83378 0.350646 0
M  V30 2856 C 267.82 1.08646 1.63372 0
M  V30 2857 O 266.945 0.338058 2.13743 0
M  V30 2858 C 267.54 3.32643 0.642963 0
M  V30 2859 C 266.099 3.59818 1.10491 0
M  V30 2860 C 265.246 2.76954 0.138411 0
M  V30 2861 H 268.197 1.53803 -0.391193 0
M  V30 2862 H 268.218 3.49878 1.49551 0
M  V30 2863 H 267.73 3.87007 -0.291055 0
M  V30 2864 H 265.831 3.1086 2.05418 0
M  V30 2865 H 265.944 4.68178 1.01716 0
M  V30 2866 H 264.308 2.4666 0.634911 0
M  V30 2867 H 265.091 3.34097 -0.789549 0
M  V30 2868 N 267.536 -0.106894 1.57237 0
M  V30 2869 C 268.785 -0.811163 1.8467 0
M  V30 2870 C 269.098 -1.80469 0.754342 0
M  V30 2871 O 270.304 -2.55601 0.915439 0
M  V30 2872 C 268.76 -1.49337 3.27454 0
M  V30 2873 C 268.368 -0.540217 4.44731 0
M  V30 2874 C 270.112 -2.18206 3.64124 0
M  V30 2875 C 268.019 -1.22634 5.78545 0
M  V30 2876 H 266.949 -0.306679 0.688813 0
M  V30 2877 H 269.6 -0.0639887 1.83388 0
M  V30 2878 H 267.982 -2.2876 3.23241 0
M  V30 2879 H 269.156 0.221659 4.60267 0
M  V30 2880 H 267.471 0.042146 4.16379 0
M  V30 2881 H 270.068 -2.70253 4.61376 0
M  V30 2882 H 270.411 -2.96562 2.92158 0
M  V30 2883 H 270.944 -1.45658 3.70174 0
M  V30 2884 H 267.683 -0.483832 6.53712 0
M  V30 2885 H 267.203 -1.95993 5.66874 0
M  V30 2886 H 268.882 -1.75615 6.2271 0
M  V30 2887 N 269.014 -1.53014 -0.377408 0
M  V30 2888 C 270.291 -1.59215 -1.13622 0
M  V30 2889 C 270.671 -0.392407 -2.07421 0
M  V30 2890 O 270.019 0.618342 -2.19975 0
M  V30 2891 C 270.229 -2.93669 -1.88573 0
M  V30 2892 C 271.577 -3.47822 -2.43526 0
M  V30 2893 O 272.601 -2.9562 -1.98715 0
M  V30 2894 O 271.46 -4.39055 -3.25412 0
M  V30 2895 H 268.554 -0.642625 -0.52054 0
M  V30 2896 H 271.1 -1.65353 -0.381625 0
M  V30 2897 H 269.872 -3.7243 -1.20048 0
M  V30 2898 H 269.495 -2.90968 -2.70968 0
M  V30 2899 N 270.492 0.636531 -1.44174 0
M  V30 2900 C 271.44 1.76995 -1.50915 0
M  V30 2901 C 272.434 1.65053 -0.381295 0
M  V30 2902 O 273.64 1.71197 -0.55601 0
M  V30 2903 H 270.015 0.584247 -0.473455 0
M  V30 2904 H 271.986 1.68432 -2.4632 0
M  V30 2905 C 270.735 3.15314 -1.46534 0
M  V30 2906 H 270.058 3.25149 -2.32633 0
M  V30 2907 H 271.498 3.9453 -1.55312 0
M  V30 2908 C 269.957 3.3639 -0.185305 0
M  V30 2909 O 270.487 3.94699 0.746688 0
M  V30 2910 N 268.693 2.9046 -0.0901606 0
M  V30 2911 H 268.24 2.43193 -0.849416 0
M  V30 2912 H 268.198 3.04937 0.765553 0
M  V30 2913 N 271.97 1.30982 0.876444 0
M  V30 2914 C 273.247 1.10942 1.61094 0
M  V30 2915 C 273.627 -0.338223 2.08373 0
M  V30 2916 O 272.975 -1.33122 1.85717 0
M  V30 2917 C 273.185 2.11789 2.77392 0
M  V30 2918 C 274.533 2.43965 3.47514 0
M  V30 2919 O 275.557 2.10166 2.87591 0
M  V30 2920 O 274.416 3.01817 4.55597 0
M  V30 2921 H 271.51 0.42667 0.708436 0
M  V30 2922 H 274.056 1.42438 0.922474 0
M  V30 2923 H 272.828 3.09194 2.39823 0
M  V30 2924 H 272.451 1.81161 3.5393 0
M  V30 2925 N 273.449 -1.08991 1.13837 0
M  V30 2926 C 274.396 -2.15748 0.819835 0
M  V30 2927 C 275.366 -1.64636 -0.220026 0
M  V30 2928 O 276.551 -1.90582 -0.0912757 0
M  V30 2929 C 273.691 -3.4382 0.296913 0
M  V30 2930 C 272.804 -4.0881 1.39636 0
M  V30 2931 C 271.939 -5.24655 0.831314 0
M  V30 2932 C 270.978 -5.81575 1.90886 0
M  V30 2933 N 270.115 -6.88774 1.36142 0
M  V30 2934 H 274.955 -2.42338 1.73426 0
M  V30 2935 H 272.492 -1.18935 0.865613 0
M  V30 2936 H 274.45 -4.17193 -0.0244339 0
M  V30 2937 H 273.08 -3.17535 -0.580628 0
M  V30 2938 H 272.132 -3.33258 1.83422 0
M  V30 2939 H 273.444 -4.47141 2.21058 0
M  V30 2940 H 272.598 -6.04942 0.461515 0
M  V30 2941 H 271.337 -4.87698 -0.013932 0
M  V30 2942 H 270.342 -4.99946 2.28767 0
M  V30 2943 H 271.567 -6.20592 2.75758 0
M  V30 2944 H 269.513 -6.53788 0.538254 0
M  V30 2945 H 269.43 -7.25898 2.11208 0
M  V30 2946 H 270.698 -7.72806 1.01933 0
M  V30 2947 N 274.927 -0.932562 -1.27047 0
M  V30 2948 C 276.155 -0.592031 -1.98249 0
M  V30 2949 C 276.57 0.831062 -1.69525 0
M  V30 2950 O 275.927 1.55299 -0.958561 0
M  V30 2951 C 275.978 -0.814279 -3.5221 0
M  V30 2952 O 275.699 -2.18139 -3.7993 0
M  V30 2953 C 277.2 -0.483121 -4.4066 0
M  V30 2954 H 274.42 -0.223896 -0.632544 0
M  V30 2955 H 276.964 -1.25091 -1.61779 0
M  V30 2956 H 275.119 -0.20213 -3.86872 0
M  V30 2957 H 275.533 -2.235 -4.74498 0
M  V30 2958 H 277.007 -0.689298 -5.47679 0
M  V30 2959 H 277.484 0.581546 -4.35333 0
M  V30 2960 H 278.09 -1.07362 -4.11526 0
M  V30 2961 N 276.405 1.4127 -0.698611 0
M  V30 2962 C 277.353 2.32588 -0.023855 0
M  V30 2963 C 278.347 1.51128 0.765292 0
M  V30 2964 O 279.553 1.67043 0.670571 0
M  V30 2965 H 275.928 0.751918 0.0110871 0
M  V30 2966 H 277.899 2.87167 -0.811031 0
M  V30 2967 C 276.648 3.35947 0.896369 0
M  V30 2968 H 275.971 3.98684 0.298548 0
M  V30 2969 H 277.411 4.02376 1.33676 0
M  V30 2970 C 275.87 2.70076 2.01396 0
M  V30 2971 O 276.4 2.55093 3.10307 0
M  V30 2972 N 274.606 2.28724 1.79259 0
M  V30 2973 H 274.153 2.4111 0.906841 0
M  V30 2974 H 274.111 1.84986 2.54219 0
M  V30 2975 N 277.883 0.443576 1.51229 0
M  V30 2976 C 279.111 -0.11929 2.06556 0
M  V30 2977 C 279.526 -1.35921 1.31038 0
M  V30 2978 O 278.883 -1.78675 0.371704 0
M  V30 2979 C 278.934 -0.435228 3.5887 0
M  V30 2980 O 278.655 0.755486 4.31537 0
M  V30 2981 C 280.156 -1.04808 4.30732 0
M  V30 2982 H 277.376 -0.0051584 0.67098 0
M  V30 2983 H 279.92 0.624453 1.94733 0
M  V30 2984 H 278.075 -1.12887 3.70588 0
M  V30 2985 H 278.489 0.483491 5.22267 0
M  V30 2986 H 279.963 -1.2191 5.3837 0
M  V30 2987 H 280.44 -2.03081 3.89429 0
M  V30 2988 H 281.046 -0.393637 4.23474 0
M  V30 2989 N 279.361 -1.56624 0.175154 0
M  V30 2990 C 280.777 -1.58571 -0.180966 0
M  V30 2991 C 280.977 -1.19065 -1.6256 0
M  V30 2992 O 280.033 -0.904044 -2.35761 0
M  V30 2993 C 281.346 -3.00522 0.103326 0
M  V30 2994 C 282.894 -3.12972 0.0418426 0
M  V30 2995 C 283.369 -4.57022 0.299175 0
M  V30 2996 N 284.86 -4.62541 0.247086 0
M  V30 2997 C 285.595 -5.71857 0.420318 0
M  V30 2998 N 285.091 -6.89717 0.652816 0
M  V30 2999 N 286.884 -5.60972 0.355957 0
M  V30 3000 H 279.035 -1.80589 1.11809 0
M  V30 3001 H 281.298 -0.837178 0.444788 0
M  V30 3002 H 281.004 -3.33916 1.10422 0
M  V30 3003 H 280.878 -3.72344 -0.603299 0
M  V30 3004 H 283.265 -2.79403 -0.949636 0
M  V30 3005 H 283.346 -2.43578 0.781238 0
M  V30 3006 H 282.99 -4.913 1.28788 0
M  V30 3007 H 282.92 -5.24579 -0.460876 0
M  V30 3008 H 285.411 -3.77829 0.0731895 0
M  V30 3009 H 285.724 -7.68911 0.774347 0
M  V30 3010 H 284.069 -6.91572 0.689476 0
M  V30 3011 H 287.26 -4.67773 0.174882 0
M  V30 3012 H 287.433 -6.46111 0.494388 0
M  V30 3013 N 280.839 0.0985539 -1.57292 0
M  V30 3014 C 282.069 0.815135 -1.8984 0
M  V30 3015 C 282.477 1.7297 -0.766679 0
M  V30 3016 O 281.82 1.81698 0.270483 0
M  V30 3017 C 281.882 1.6842 -3.17608 0
M  V30 3018 C 281.546 0.94182 -4.4719 0
M  V30 3019 C 282.543 0.273212 -5.19182 0
M  V30 3020 C 280.228 0.916927 -4.9386 0
M  V30 3021 C 282.222 -0.410361 -6.36078 0
M  V30 3022 C 279.909 0.229567 -6.10669 0
M  V30 3023 C 280.907 -0.432902 -6.81627 0
M  V30 3024 O 280.595 -1.10925 -7.9621 0
M  V30 3025 H 280.327 0.238501 -0.632529 0
M  V30 3026 H 282.881 0.0812659 -2.05239 0
M  V30 3027 H 281.111 2.46022 -2.98345 0
M  V30 3028 H 282.8 2.27704 -3.36015 0
M  V30 3029 H 283.566 0.283927 -4.84168 0
M  V30 3030 H 279.445 1.42201 -4.3852 0
M  V30 3031 H 282.989 -0.928013 -6.914 0
M  V30 3032 H 278.886 0.216686 -6.45136 0
M  V30 3033 H 279.654 -1.01579 -8.12172 0
M  V30 3034 N 282.317 1.53212 0.369288 0
M  V30 3035 C 283.733 1.42902 0.710712 0
M  V30 3036 C 283.933 0.565135 1.93413 0
M  V30 3037 O 282.989 0.0461484 2.52458 0
M  V30 3038 C 284.302 2.86042 0.927382 0
M  V30 3039 C 285.85 2.9565 1.02762 0
M  V30 3040 C 286.325 4.39843 1.27679 0
M  V30 3041 N 287.816 4.43256 1.34457 0
M  V30 3042 C 288.551 5.51929 1.55439 0
M  V30 3043 N 288.047 6.70655 1.73762 0
M  V30 3044 N 289.84 5.39502 1.57779 0
M  V30 3045 H 281.991 2.07888 -0.435457 0
M  V30 3046 H 284.254 0.938661 -0.132739 0
M  V30 3047 H 283.96 3.51557 0.100287 0
M  V30 3048 H 283.834 3.29472 1.83653 0
M  V30 3049 H 286.221 2.30291 1.84527 0
M  V30 3050 H 286.302 2.5562 0.0959504 0
M  V30 3051 H 285.946 5.05774 0.464175 0
M  V30 3052 H 285.876 4.77443 2.22162 0
M  V30 3053 H 288.367 3.5769 1.21926 0
M  V30 3054 H 288.68 7.49248 1.89335 0
M  V30 3055 H 287.025 6.73648 1.70948 0
M  V30 3056 H 290.216 4.45713 1.43029 0
M  V30 3057 H 290.389 6.2426 1.7379 0
M  V30 3058 N 283.795 -0.628877 1.44509 0
M  V30 3059 C 284.725 -1.75187 1.54376 0
M  V30 3060 C 285.706 -1.65411 0.396618 0
M  V30 3061 O 286.891 -1.84137 0.617031 0
M  V30 3062 C 284.021 -3.13725 1.48976 0
M  V30 3063 C 282.975 -3.38291 2.62189 0
M  V30 3064 C 282.301 -4.76883 2.41841 0
M  V30 3065 C 283.601 -3.30632 4.04326 0
M  V30 3066 H 285.295 -1.67187 2.48373 0
M  V30 3067 H 282.841 -0.802909 1.19538 0
M  V30 3068 H 284.794 -3.92064 1.54478 0
M  V30 3069 H 283.518 -3.22515 0.514961 0
M  V30 3070 H 282.177 -2.62334 2.56079 0
M  V30 3071 H 281.825 -4.82378 1.42548 0
M  V30 3072 H 281.525 -4.94278 3.17747 0
M  V30 3073 H 283.049 -5.57449 2.49165 0
M  V30 3074 H 284.463 -3.98873 4.11793 0
M  V30 3075 H 282.86 -3.59561 4.80454 0
M  V30 3076 H 283.93 -2.28404 4.27738 0
M  V30 3077 N 285.273 -1.31445 -0.869486 0
M  V30 3078 C 286.522 -1.20517 -1.61736 0
M  V30 3079 C 286.835 0.235341 -1.94179 0
M  V30 3080 O 288.041 0.466312 -2.67465 0
M  V30 3081 C 286.497 -2.10982 -2.91573 0
M  V30 3082 C 286.105 -3.60032 -2.66611 0
M  V30 3083 C 287.849 -2.08856 -3.69567 0
M  V30 3084 C 285.756 -4.42503 -3.92358 0
M  V30 3085 H 284.686 -0.447493 -0.606849 0
M  V30 3086 H 287.337 -1.56303 -0.96133 0
M  V30 3087 H 285.719 -1.68095 -3.58553 0
M  V30 3088 H 286.893 -4.11167 -2.08035 0
M  V30 3089 H 285.208 -3.64139 -2.0197 0
M  V30 3090 H 287.805 -2.67716 -4.62852 0
M  V30 3091 H 288.148 -1.07582 -4.02159 0
M  V30 3092 H 288.681 -2.49945 -3.09471 0
M  V30 3093 H 285.42 -5.44533 -3.64916 0
M  V30 3094 H 284.94 -3.96125 -4.50383 0
M  V30 3095 H 286.619 -4.54741 -4.60238 0
M  V30 3096 N 286.751 1.08385 -1.14413 0
M  V30 3097 C 287.976 1.85057 -0.936413 0
M  V30 3098 C 288.401 1.81055 0.509971 0
M  V30 3099 O 287.759 1.1958 1.36273 0
M  V30 3100 C 287.807 3.30505 -1.44217 0
M  V30 3101 O 286.911 4.07491 -0.634409 0
M  V30 3102 H 286.252 0.573425 -0.334784 0
M  V30 3103 H 288.782 1.36799 -1.52142 0
M  V30 3104 H 288.792 3.81348 -1.45043 0
M  V30 3105 H 287.467 3.32734 -2.49522 0
M  V30 3106 H 286.044 3.66368 -0.694902 0
M  V30 3107 N 288.23 0.939286 1.26551 0
M  V30 3108 C 289.47 0.5933 1.956 0
M  V30 3109 C 289.834 -0.851515 1.72085 0
M  V30 3110 O 291.035 -1.30634 2.34921 0
M  V30 3111 C 289.306 0.923996 3.45249 0
M  V30 3112 S 290.865 0.688269 4.33369 0
M  V30 3113 H 287.683 0.218591 0.676564 0
M  V30 3114 H 290.285 1.2102 1.5354 0
M  V30 3115 H 288.989 1.97297 3.59864 0
M  V30 3116 H 288.52 0.296746 3.92279 0
M  V30 3117 H 290.535 -0.448434 4.9417 0
M  V30 3118 N 289.708 -1.40897 0.706093 0
M  V30 3119 C 290.656 -2.32572 0.0361893 0
M  V30 3120 C 291.65 -1.51532 -0.757266 0
M  V30 3121 O 292.856 -1.67396 -0.661703 0
M  V30 3122 H 289.231 -0.751966 -0.00709935 0
M  V30 3123 H 291.202 -2.86733 0.826249 0
M  V30 3124 C 289.951 -3.36418 -0.87854 0
M  V30 3125 H 289.274 -3.98836 -0.277401 0
M  V30 3126 H 290.714 -4.0308 -1.3154 0
M  V30 3127 C 289.173 -2.71141 -1.99961 0
M  V30 3128 O 289.703 -2.56735 -3.0895 0
M  V30 3129 N 287.909 -2.29671 -1.78043 0
M  V30 3130 H 287.456 -2.41588 -0.894042 0
M  V30 3131 H 287.414 -1.86332 -2.53235 0
M  V30 3132 N 291.186 -0.45159 -1.50991 0
M  V30 3133 C 292.414 0.108334 -2.06616 0
M  V30 3134 C 292.829 1.35224 -1.31757 0
M  V30 3135 O 292.186 1.78475 -0.381174 0
M  V30 3136 C 292.237 0.41619 -3.59096 0
M  V30 3137 O 291.958 -0.778361 -4.3113 0
M  V30 3138 C 293.459 1.02523 -4.31282 0
M  V30 3139 H 290.679 0.00159995 -0.670998 0
M  V30 3140 H 293.223 -0.634771 -1.94399 0
M  V30 3141 H 291.378 1.10921 -3.71181 0
M  V30 3142 H 291.792 -0.511181 -5.22003 0
M  V30 3143 H 293.266 1.19053 -5.39009 0
M  V30 3144 H 293.743 2.01013 -3.905 0
M  V30 3145 H 294.349 0.371173 -4.23677 0
M  V30 3146 N 292.664 1.56529 -0.183458 0
M  V30 3147 C 293.889 2.02064 0.467428 0
M  V30 3148 C 294.314 1.06282 1.55196 0
M  V30 3149 O 293.672 0.0443565 1.81246 0
M  V30 3150 C 293.72 3.46122 1.01153 0
M  V30 3151 O 292.824 3.53437 2.12499 0
M  V30 3152 H 292.165 0.654726 0.110588 0
M  V30 3153 H 294.695 2.02521 -0.290917 0
M  V30 3154 H 294.705 3.85676 1.33108 0
M  V30 3155 H 293.38 4.15331 0.217533 0
M  V30 3156 H 291.957 3.2575 1.81497 0
M  V30 3157 N 294.142 -0.090211 1.57342 0
M  V30 3158 C 295.388 -0.793982 1.86611 0
M  V30 3159 C 295.721 -1.78142 0.773252 0
M  V30 3160 O 294.996 -1.93271 -0.218304 0
M  V30 3161 C 295.279 -1.51839 3.26523 0
M  V30 3162 C 295.132 -0.548609 4.46442 0
M  V30 3163 C 296.451 -2.46779 3.64401 0
M  V30 3164 H 293.57 -0.287186 0.678744 0
M  V30 3165 H 296.212 -0.0575076 1.89913 0
M  V30 3166 H 294.362 -2.14617 3.23839 0
M  V30 3167 H 296.034 0.0725513 4.61243 0
M  V30 3168 H 294.277 0.137614 4.33582 0
M  V30 3169 H 294.948 -1.09271 5.41076 0
M  V30 3170 H 297.424 -1.94089 3.68061 0
M  V30 3171 H 296.3 -2.94479 4.63221 0
M  V30 3172 H 296.561 -3.30758 2.93346 0
M  V30 3173 N 295.62 -1.53406 -0.361157 0
M  V30 3174 C 296.869 -1.69022 -1.10066 0
M  V30 3175 C 297.182 -0.450838 -1.90333 0
M  V30 3176 O 298.388 -0.487617 -2.67085 0
M  V30 3177 C 296.844 -2.98812 -2.00598 0
M  V30 3178 C 296.452 -4.30027 -1.25621 0
M  V30 3179 C 298.196 -3.23795 -2.74513 0
M  V30 3180 C 296.103 -5.50903 -2.1508 0
M  V30 3181 H 295.033 -0.629776 -0.414606 0
M  V30 3182 H 297.684 -1.79907 -0.361348 0
M  V30 3183 H 296.066 -2.8174 -2.78278 0
M  V30 3184 H 297.24 -4.57745 -0.529739 0
M  V30 3185 H 295.555 -4.11522 -0.635496 0
M  V30 3186 H 298.152 -4.11289 -3.41681 0
M  V30 3187 H 298.495 -2.40045 -3.40123 0
M  V30 3188 H 299.028 -3.41561 -2.03914 0
M  V30 3189 H 295.767 -6.37143 -1.54041 0
M  V30 3190 H 295.287 -5.27459 -2.85565 0
M  V30 3191 H 296.966 -5.85865 -2.74538 0
M  V30 3192 N 297.098 0.621204 -1.44841 0
M  V30 3193 C 298.326 1.40752 -1.51646 0
M  V30 3194 C 298.741 1.88246 -0.144549 0
M  V30 3195 O 298.098 1.61422 0.851416 0
M  V30 3196 C 298.149 2.62119 -2.4895 0
M  V30 3197 O 297.87 2.16602 -3.80808 0
M  V30 3198 C 299.371 3.55135 -2.65319 0
M  V30 3199 H 296.591 0.431325 -0.514004 0
M  V30 3200 H 299.135 0.758835 -1.899 0
M  V30 3201 H 297.29 3.23058 -2.13805 0
M  V30 3202 H 297.704 2.95358 -4.33433 0
M  V30 3203 H 299.178 4.36874 -3.37409 0
M  V30 3204 H 299.655 4.04592 -1.70886 0
M  V30 3205 H 300.261 3.00058 -3.01405 0
M  V30 3206 N 298.576 1.31904 0.862503 0
M  V30 3207 C 299.508 1.16005 1.97675 0
M  V30 3208 C 300.521 0.0971234 1.6251 0
M  V30 3209 O 301.71 0.345337 1.75128 0
M  V30 3210 C 298.81 0.751791 3.30456 0
M  V30 3211 C 297.983 1.90133 3.93914 0
M  V30 3212 C 297.042 1.4779 5.05019 0
M  V30 3213 O 296.068 2.18872 5.25437 0
M  V30 3214 N 297.27 0.369491 5.79323 0
M  V30 3215 H 300.035 2.11982 2.11857 0
M  V30 3216 H 297.596 1.24337 1.03691 0
M  V30 3217 H 299.588 0.451084 4.02178 0
M  V30 3218 H 298.158 -0.116593 3.12382 0
M  V30 3219 H 297.378 2.36896 3.15078 0
M  V30 3220 H 298.666 2.67111 4.33047 0
M  V30 3221 H 298.064 -0.222299 5.65263 0
M  V30 3222 H 296.621 0.128354 6.51674 0
M  V30 3223 N 300.054 -1.07777 1.14986 0
M  V30 3224 C 301.017 -2.13041 0.845358 0
M  V30 3225 C 302.017 -1.60071 -0.152931 0
M  V30 3226 O 303.207 -1.74033 0.0761879 0
M  V30 3227 C 300.339 -3.39896 0.261383 0
M  V30 3228 H 301.532 -2.41485 1.77834 0
M  V30 3229 H 299.085 -1.23595 0.956757 0
M  V30 3230 H 299.82 -3.17091 -0.68 0
M  V30 3231 H 299.605 -3.79642 0.980514 0
M  V30 3232 H 301.095 -4.17548 0.0657687 0
M  V30 3233 N 301.532 -0.945985 -1.26051 0
M  V30 3234 C 302.772 -0.603665 -1.95282 0
M  V30 3235 C 303.136 0.842377 -1.72534 0
M  V30 3236 O 304.337 1.29387 -2.35611 0
M  V30 3237 C 302.608 -0.942292 -3.44754 0
M  V30 3238 S 304.167 -0.711242 -4.32997 0
M  V30 3239 H 300.985 -0.222176 -0.675395 0
M  V30 3240 H 303.587 -1.21832 -1.52896 0
M  V30 3241 H 302.291 -1.99203 -3.58812 0
M  V30 3242 H 301.822 -0.317546 -3.92116 0
M  V30 3243 H 303.837 0.422221 -4.944 0
M  V30 3244 N 303.011 1.40521 -0.713556 0
M  V30 3245 C 304.422 1.83853 -0.324807 0
M  V30 3246 C 304.773 1.59667 1.14021 0
M  V30 3247 O 303.898 1.07649 1.87725 0
M  V30 3248 C 304.493 3.33751 -0.582746 0
M  V30 3249 C 303.052 3.75584 -0.247727 0
M  V30 3250 C 302.199 2.63753 -0.856121 0
M  V30 3251 H 305.15 1.29817 -0.91286 0
M  V30 3252 H 305.171 3.80194 0.152682 0
M  V30 3253 H 304.683 3.51322 -1.64908 0
M  V30 3254 H 302.784 3.63608 0.813624 0
M  V30 3255 H 302.897 4.7373 -0.715307 0
M  V30 3256 H 301.261 2.53108 -0.28432 0
M  V30 3257 H 302.044 2.84137 -1.92668 0
M  V30 3258 N 304.489 0.459591 1.5075 0
M  V30 3259 C 305.436 -0.340524 2.28274 0
M  V30 3260 C 306.406 -0.997371 1.32822 0
M  V30 3261 O 307.591 -1.01202 1.61749 0
M  V30 3262 C 304.731 -1.42317 3.14388 0
M  V30 3263 C 303.844 -0.782251 4.24859 0
M  V30 3264 C 302.979 -1.84182 4.98247 0
M  V30 3265 C 302.018 -1.18053 6.00608 0
M  V30 3266 N 301.155 -2.18244 6.67319 0
M  V30 3267 H 305.995 0.326899 2.96202 0
M  V30 3268 H 303.532 0.173057 1.46078 0
M  V30 3269 H 305.49 -2.06241 3.62658 0
M  V30 3270 H 304.12 -2.05992 2.4853 0
M  V30 3271 H 303.172 -0.0307404 3.80388 0
M  V30 3272 H 304.484 -0.259663 4.98124 0
M  V30 3273 H 303.638 -2.55714 5.50177 0
M  V30 3274 H 302.377 -2.39819 4.24662 0
M  V30 3275 H 301.382 -0.450776 5.47949 0
M  V30 3276 H 302.607 -0.631202 6.7616 0
M  V30 3277 H 300.553 -2.72919 5.96533 0
M  V30 3278 H 300.47 -1.70938 7.36421 0
M  V30 3279 H 301.738 -2.89191 7.23871 0
M  V30 3280 N 305.967 -1.56429 0.191757 0
M  V30 3281 C 307.213 -1.97777 -0.448554 0
M  V30 3282 C 307.546 -1.07847 -1.61501 0
M  V30 3283 O 306.821 -0.129774 -1.94067 0
M  V30 3284 C 307.104 -3.48362 -0.911906 0
M  V30 3285 C 306.957 -4.4907 0.256136 0
M  V30 3286 C 308.276 -4.02561 -1.77857 0
M  V30 3287 H 305.395 -0.719071 -0.161572 0
M  V30 3288 H 308.037 -1.87896 0.282007 0
M  V30 3289 H 306.187 -3.56914 -1.53442 0
M  V30 3290 H 307.859 -4.5256 0.893733 0
M  V30 3291 H 306.102 -4.24181 0.908436 0
M  V30 3292 H 306.773 -5.51889 -0.11053 0
M  V30 3293 H 309.249 -3.96767 -1.25359 0
M  V30 3294 H 308.125 -5.08301 -2.07174 0
M  V30 3295 H 308.386 -3.47616 -2.73158 0
M  V30 3296 N 307.445 0.0818655 -1.57387 0
M  V30 3297 C 308.673 0.796108 -1.9097 0
M  V30 3298 C 309.088 1.71626 -0.786757 0
M  V30 3299 O 308.445 1.80908 0.240513 0
M  V30 3300 C 308.496 1.59829 -3.24248 0
M  V30 3301 O 308.217 0.715131 -4.32224 0
M  V30 3302 C 309.718 2.41442 -3.7178 0
M  V30 3303 H 306.938 0.22691 -0.631469 0
M  V30 3304 H 309.482 0.0551439 -2.04426 0
M  V30 3305 H 307.637 2.29163 -3.12351 0
M  V30 3306 H 308.051 1.27205 -5.08841 0
M  V30 3307 H 309.525 2.932 -4.67694 0
M  V30 3308 H 310.002 3.2051 -3.00283 0
M  V30 3309 H 310.608 1.77283 -3.86589 0
M  V30 3310 N 308.923 1.53595 0.353017 0
M  V30 3311 C 310.17 1.70385 1.09431 0
M  V30 3312 C 310.498 0.462113 1.88931 0
M  V30 3313 O 309.753 -0.556074 1.87633 0
M  V30 3314 C 310.052 2.91313 2.07054 0
M  V30 3315 C 309.718 4.27308 1.43939 0
M  V30 3316 C 308.38 4.64287 1.26454 0
M  V30 3317 C 310.732 5.11829 0.983883 0
M  V30 3318 C 308.06 5.83412 0.620226 0
M  V30 3319 C 310.412 6.31611 0.353516 0
M  V30 3320 C 309.076 6.67293 0.166272 0
M  V30 3321 H 308.346 0.623484 0.400436 0
M  V30 3322 H 310.993 1.87799 0.374655 0
M  V30 3323 H 309.298 2.68463 2.85368 0
M  V30 3324 H 310.995 3.01497 2.64387 0
M  V30 3325 H 307.585 3.98198 1.58543 0
M  V30 3326 H 311.769 4.838 1.10685 0
M  V30 3327 H 307.025 6.09639 0.463681 0
M  V30 3328 H 311.199 6.964 -0.00757555 0
M  V30 3329 H 308.826 7.59461 -0.335047 0
M  V30 3330 N 310.401 -0.613514 1.45168 0
M  V30 3331 C 311.311 -1.75296 1.55912 0
M  V30 3332 C 312.327 -1.68244 0.443856 0
M  V30 3333 O 313.503 -1.88706 0.70371 0
M  V30 3334 C 310.568 -3.1174 1.5172 0
M  V30 3335 C 309.629 -3.30291 2.74238 0
M  V30 3336 C 308.862 -4.60226 2.70236 0
M  V30 3337 O 309.085 -5.42168 1.77229 0
M  V30 3338 O 308.019 -4.81361 3.61352 0
M  V30 3339 H 311.845 -1.69183 2.52212 0
M  V30 3340 H 309.43 -0.776886 1.27612 0
M  V30 3341 H 311.312 -3.93044 1.51968 0
M  V30 3342 H 309.987 -3.18357 0.585697 0
M  V30 3343 H 308.894 -2.48598 2.79553 0
M  V30 3344 H 310.227 -3.28547 3.66494 0
M  V30 3345 N 311.879 -1.3236 -0.855495 0
M  V30 3346 C 313.29 -1.2056 -1.42556 0
M  V30 3347 C 313.641 0.182209 -1.95352 0
M  V30 3348 O 312.766 1.08088 -1.87472 0
M  V30 3349 C 313.361 -2.1826 -2.59129 0
M  V30 3350 C 311.92 -2.10351 -3.12137 0
M  V30 3351 C 311.067 -2.06674 -1.84882 0
M  V30 3352 H 314.018 -1.442 -0.662727 0
M  V30 3353 H 314.039 -1.78064 -3.36264 0
M  V30 3354 H 313.551 -3.19257 -2.20673 0
M  V30 3355 H 311.652 -1.12599 -3.55179 0
M  V30 3356 H 311.765 -3.00135 -3.73438 0
M  V30 3357 H 310.129 -1.51901 -2.04446 0
M  V30 3358 H 310.912 -3.09451 -1.48643 0
M  V30 3359 N 313.357 1.07166 -1.15556 0
M  V30 3360 C 314.606 1.79181 -0.926132 0
M  V30 3361 C 314.919 1.87768 0.547967 0
M  V30 3362 O 316.125 2.56323 0.895036 0
M  V30 3363 C 314.581 3.22 -1.60761 0
M  V30 3364 C 314.189 3.21607 -3.11886 0
M  V30 3365 C 315.933 3.9861 -1.4598 0
M  V30 3366 C 313.84 4.59092 -3.72812 0
M  V30 3367 H 312.77 0.67154 -0.342856 0
M  V30 3368 H 315.421 1.2027 -1.3859 0
M  V30 3369 H 313.803 3.81115 -1.07553 0
M  V30 3370 H 314.977 2.72127 -3.71865 0
M  V30 3371 H 313.292 2.58495 -3.2645 0
M  V30 3372 H 315.889 5.00225 -1.88888 0
M  V30 3373 H 316.232 4.143 -0.407541 0
M  V30 3374 H 316.765 3.45996 -1.96295 0
M  V30 3375 H 313.504 4.48606 -4.77946 0
M  V30 3376 H 313.024 5.08803 -3.17616 0
M  V30 3377 H 314.703 5.28059 -3.73848 0
M  V30 3378 N 314.835 0.952656 1.25548 0
M  V30 3379 C 316.246 0.647392 1.75116 0
M  V30 3380 C 316.597 -0.837274 1.77438 0
M  V30 3381 O 315.722 -1.65525 1.39393 0
M  V30 3382 C 316.317 1.16845 3.18014 0
M  V30 3383 C 314.876 0.913382 3.6515 0
M  V30 3384 C 314.023 1.31265 2.44264 0
M  V30 3385 H 316.974 1.12968 1.11462 0
M  V30 3386 H 316.995 0.527606 3.76824 0
M  V30 3387 H 316.507 2.24902 3.16292 0
M  V30 3388 H 314.608 -0.152316 3.72289 0
M  V30 3389 H 314.721 1.54845 4.53387 0
M  V30 3390 H 313.085 0.731028 2.43984 0
M  V30 3391 H 313.868 2.40239 2.45234 0
M  V30 3392 N 316.313 -1.40141 0.720998 0
M  V30 3393 C 317.562 -2.0002 0.259804 0
M  V30 3394 C 317.875 -1.57839 -1.15526 0
M  V30 3395 O 319.081 -2.10455 -1.71525 0
M  V30 3396 C 317.537 -3.57516 0.413566 0
M  V30 3397 C 317.145 -4.08667 1.83562 0
M  V30 3398 C 318.889 -4.24498 0.0134387 0
M  V30 3399 C 316.796 -5.58686 1.93968 0
M  V30 3400 H 315.726 -0.748195 0.0933806 0
M  V30 3401 H 318.377 -1.60313 0.892866 0
M  V30 3402 H 316.759 -3.9495 -0.288169 0
M  V30 3403 H 317.933 -3.82598 2.56817 0
M  V30 3404 H 316.248 -3.543 2.1877 0
M  V30 3405 H 318.845 -5.34654 0.0703954 0
M  V30 3406 H 319.188 -4.03375 -1.02927 0
M  V30 3407 H 319.721 -3.92188 0.665815 0
M  V30 3408 H 316.46 -5.8467 2.96379 0
M  V30 3409 H 315.98 -5.86602 1.25131 0
M  V30 3410 H 317.659 -6.23875 1.71431 0
M  V30 3411 N 317.792 -0.46758 -1.50504 0
M  V30 3412 C 318.742 0.34698 -2.25344 0
M  V30 3413 C 319.726 0.964469 -1.2879 0
M  V30 3414 O 320.918 0.8776 -1.53711 0
M  V30 3415 C 318.047 1.43042 -3.1208 0
M  V30 3416 C 317.133 0.82084 -4.16081 0
M  V30 3417 N 317.524 -0.0567602 -5.05768 0
M  V30 3418 C 315.822 1.08517 -4.32597 0
M  V30 3419 C 316.523 -0.402343 -5.80307 0
M  V30 3420 N 315.499 0.221607 -5.43148 0
M  V30 3421 H 319.301 -0.329129 -2.92051 0
M  V30 3422 H 316.815 -0.281508 -1.59942 0
M  V30 3423 H 318.812 2.02712 -3.64299 0
M  V30 3424 H 317.472 2.10856 -2.46921 0
M  V30 3425 H 318.483 -0.425349 -5.1615 0
M  V30 3426 H 315.16 1.75855 -3.78657 0
M  V30 3427 H 316.55 -1.11834 -6.62528 0
M  V30 3428 N 319.27 1.56325 -0.20005 0
M  V30 3429 C 320.5 2.01811 0.442232 0
M  V30 3430 C 320.908 1.07932 1.55394 0
M  V30 3431 O 320.251 0.0772685 1.83537 0
M  V30 3432 C 320.313 3.43685 1.05457 0
M  V30 3433 C 319.977 4.56928 0.0809833 0
M  V30 3434 C 320.974 5.15009 -0.711471 0
M  V30 3435 C 318.659 5.0229 -0.0315364 0
M  V30 3436 C 320.653 6.16904 -1.60336 0
M  V30 3437 C 318.34 6.04028 -0.926981 0
M  V30 3438 C 319.338 6.6121 -1.71146 0
M  V30 3439 O 319.026 7.60971 -2.59189 0
M  V30 3440 H 318.758 0.666173 0.114848 0
M  V30 3441 H 321.312 2.03085 -0.307511 0
M  V30 3442 H 319.542 3.39413 1.85299 0
M  V30 3443 H 321.231 3.72948 1.60201 0
M  V30 3444 H 321.997 4.80827 -0.634873 0
M  V30 3445 H 317.876 4.57476 0.568902 0
M  V30 3446 H 321.42 6.61464 -2.21611 0
M  V30 3447 H 317.317 6.37634 -1.00468 0
M  V30 3448 H 318.085 7.7841 -2.53023 0
M  V30 3449 N 320.748 -0.0735177 1.57428 0
M  V30 3450 C 321.988 -0.778363 1.89 0
M  V30 3451 C 322.352 -1.7483 0.793634 0
M  V30 3452 O 323.553 -2.49811 0.992367 0
M  V30 3453 C 321.824 -1.46929 3.25802 0
M  V30 3454 S 323.383 -2.20943 3.79117 0
M  V30 3455 H 320.201 -0.258874 0.662197 0
M  V30 3456 H 322.803 -0.0345338 1.95469 0
M  V30 3457 H 321.507 -0.749532 4.03497 0
M  V30 3458 H 321.038 -2.25258 3.22525 0
M  V30 3459 H 323.053 -3.47435 3.54265 0
M  V30 3460 N 322.226 -1.5378 -0.344866 0
M  V30 3461 C 323.189 -1.80981 -1.40637 0
M  V30 3462 C 324.189 -0.680816 -1.45676 0
M  V30 3463 O 325.379 -0.949095 -1.46075 0
M  V30 3464 C 322.511 -1.95063 -2.79577 0
M  V30 3465 H 323.704 -2.75803 -1.17783 0
M  V30 3466 H 321.257 -1.45173 -0.579181 0
M  V30 3467 H 321.992 -1.02379 -3.07716 0
M  V30 3468 H 321.777 -2.77198 -2.77315 0
M  V30 3469 H 323.267 -2.17629 -3.56409 0
M  V30 3470 N 323.704 0.605807 -1.45491 0
M  V30 3471 C 325.115 1.18777 -1.44045 0
M  V30 3472 C 325.466 1.95471 -0.169001 0
M  V30 3473 O 324.591 2.0374 0.729324 0
M  V30 3474 C 325.186 2.16064 -2.60963 0
M  V30 3475 C 323.745 2.69633 -2.62631 0
M  V30 3476 C 322.892 1.45072 -2.36325 0
M  V30 3477 H 325.843 0.395017 -1.53705 0
M  V30 3478 H 325.864 2.9913 -2.35163 0
M  V30 3479 H 325.376 1.60217 -3.53486 0
M  V30 3480 H 323.477 3.29414 -1.74119 0
M  V30 3481 H 323.59 3.13944 -3.61906 0
M  V30 3482 H 321.954 1.74089 -1.85917 0
M  V30 3483 H 322.737 0.910899 -3.30995 0
M  V30 3484 N 325.182 1.32811 0.848464 0
M  V30 3485 C 326.145 1.22194 1.9391 0
M  V30 3486 C 327.145 0.143404 1.60159 0
M  V30 3487 O 328.335 0.394253 1.6968 0
M  V30 3488 C 325.467 0.88067 3.29328 0
M  V30 3489 H 326.66 2.19127 2.04752 0
M  V30 3490 H 324.213 1.16731 1.0394 0
M  V30 3491 H 324.948 -0.0865776 3.24184 0
M  V30 3492 H 324.733 1.66052 3.55203 0
M  V30 3493 H 326.223 0.830871 4.09251 0
M  V30 3494 N 326.66 -1.06551 1.16123 0
M  V30 3495 C 327.908 -1.78947 0.939267 0
M  V30 3496 C 328.229 -1.87532 -0.534476 0
M  V30 3497 O 327.499 -1.38211 -1.38833 0
M  V30 3498 H 326.079 -0.662807 0.344523 0
M  V30 3499 H 328.741 -1.28725 1.46342 0
M  V30 3500 H 327.837 -2.81117 1.35572 0
M  V30 3501 N 328.138 -0.959301 -1.25041 0
M  V30 3502 C 329.385 -0.616611 -1.92884 0
M  V30 3503 C 329.713 0.847036 -1.75087 0
M  V30 3504 O 328.968 1.62374 -1.09239 0
M  V30 3505 C 329.267 -0.927136 -3.45165 0
M  V30 3506 C 328.933 -2.37757 -3.83122 0
M  V30 3507 C 327.595 -2.77402 -3.93194 0
M  V30 3508 C 329.947 -3.31929 -4.01836 0
M  V30 3509 C 327.275 -4.10277 -4.19392 0
M  V30 3510 C 329.627 -4.64423 -4.29528 0
M  V30 3511 C 328.291 -5.03857 -4.37818 0
M  V30 3512 H 327.561 -0.225634 -0.705812 0
M  V30 3513 H 330.208 -1.20921 -1.48493 0
M  V30 3514 H 328.513 -0.252195 -3.90987 0
M  V30 3515 H 330.21 -0.6405 -3.95852 0
M  V30 3516 H 326.8 -2.06013 -3.75841 0
M  V30 3517 H 330.984 -3.02488 -3.93465 0
M  V30 3518 H 326.24 -4.40467 -4.24027 0
M  V30 3519 H 330.414 -5.37369 -4.42953 0
M  V30 3520 H 328.041 -6.06843 -4.57871 0
M  V30 3521 N 329.616 1.39756 -0.72842 0
M  V30 3522 C 330.579 2.29012 -0.0927297 0
M  V30 3523 C 331.579 1.45992 0.674025 0
M  V30 3524 O 332.769 1.66749 0.50402 0
M  V30 3525 C 329.901 3.29396 0.878137 0
M  V30 3526 H 331.094 2.86729 -0.879011 0
M  V30 3527 H 328.647 1.48293 -0.493847 0
M  V30 3528 H 329.382 2.76722 1.69101 0
M  V30 3529 H 329.167 3.907 0.331051 0
M  V30 3530 H 330.657 3.96199 1.3197 0
M  V30 3531 N 331.094 0.475555 1.50254 0
M  V30 3532 C 332.343 -0.0795996 2.01543 0
M  V30 3533 C 332.656 -1.4038 1.36209 0
M  V30 3534 O 333.862 -2.04415 1.7868 0
M  V30 3535 C 332.318 -0.192363 3.59386 0
M  V30 3536 C 331.926 1.12367 4.33679 0
M  V30 3537 C 333.67 -0.699238 4.18701 0
M  V30 3538 C 331.577 0.974453 5.83317 0
M  V30 3539 H 330.507 -0.0335228 0.753254 0
M  V30 3540 H 333.158 0.611128 1.73025 0
M  V30 3541 H 331.54 -0.946974 3.84511 0
M  V30 3542 H 332.714 1.88958 4.20276 0
M  V30 3543 H 331.029 1.562 3.85993 0
M  V30 3544 H 333.626 -0.827978 5.28251 0
M  V30 3545 H 333.969 -1.69171 3.80377 0
M  V30 3546 H 334.502 -0.00188807 3.978 0
M  V30 3547 H 331.241 1.94042 6.26121 0
M  V30 3548 H 330.761 0.248998 5.99283 0
M  V30 3549 H 332.44 0.642867 6.43798 0
M  V30 3550 N 332.573 -1.56217 0.208337 0
M  V30 3551 C 333.503 -2.22694 -0.702116 0
M  V30 3552 C 334.484 -1.19432 -1.2112 0
M  V30 3553 O 335.669 -1.47978 -1.25762 0
M  V30 3554 C 332.799 -2.8966 -1.9161 0
M  V30 3555 C 331.753 -3.9928 -1.5414 0
M  V30 3556 C 331.079 -4.53476 -2.83308 0
M  V30 3557 C 332.379 -5.17012 -0.741339 0
M  V30 3558 H 334.073 -2.99034 -0.147898 0
M  V30 3559 H 331.619 -1.43831 -0.0696951 0
M  V30 3560 H 333.572 -3.34852 -2.55836 0
M  V30 3561 H 332.296 -2.10746 -2.49507 0
M  V30 3562 H 330.955 -3.54799 -0.922668 0
M  V30 3563 H 330.603 -3.71308 -3.39322 0
M  V30 3564 H 330.303 -5.27451 -2.58976 0
M  V30 3565 H 331.827 -5.01378 -3.485 0
M  V30 3566 H 333.241 -5.58667 -1.28699 0
M  V30 3567 H 331.638 -5.97137 -0.595627 0
M  V30 3568 H 332.708 -4.8423 0.254851 0
M  V30 3569 N 334.051 0.0651679 -1.57465 0
M  V30 3570 C 334.998 1.07675 -2.04144 0
M  V30 3571 C 335.968 1.38071 -0.923335 0
M  V30 3572 O 337.153 1.49026 -1.19146 0
M  V30 3573 C 334.293 2.38337 -2.49579 0
M  V30 3574 C 333.406 2.14413 -3.75035 0
M  V30 3575 C 332.541 3.38686 -4.09225 0
M  V30 3576 C 331.58 3.10156 -5.27702 0
M  V30 3577 N 330.717 4.26778 -5.57499 0
M  V30 3578 H 335.557 0.671716 -2.90331 0
M  V30 3579 H 333.094 0.3201 -1.43575 0
M  V30 3580 H 335.052 3.14632 -2.73975 0
M  V30 3581 H 333.682 2.7663 -1.6636 0
M  V30 3582 H 332.734 1.2878 -3.57939 0
M  V30 3583 H 334.046 1.89344 -4.61466 0
M  V30 3584 H 333.2 4.23373 -4.34558 0
M  V30 3585 H 331.939 3.66837 -3.21374 0
M  V30 3586 H 330.944 2.23866 -5.02159 0
M  V30 3587 H 332.169 2.8332 -6.17176 0
M  V30 3588 H 330.115 4.54948 -4.72608 0
M  V30 3589 H 330.032 4.05005 -6.38362 0
M  V30 3590 H 331.3 5.12443 -5.87386 0
M  V30 3591 N 335.529 1.53961 0.336706 0
M  V30 3592 C 336.769 1.73254 1.08454 0
M  V30 3593 C 337.133 0.488937 1.8567 0
M  V30 3594 O 338.334 0.559001 2.62923 0
M  V30 3595 C 336.605 2.96519 1.99528 0
M  V30 3596 S 338.164 3.36655 2.81441 0
M  V30 3597 H 334.982 0.609353 0.366347 0
M  V30 3598 H 337.584 1.92117 0.362124 0
M  V30 3599 H 336.288 3.85193 1.41614 0
M  V30 3600 H 335.819 2.80142 2.76196 0
M  V30 3601 H 337.834 2.90925 4.01967 0
M  V30 3602 N 337.007 -0.598083 1.45811 0
M  V30 3603 C 337.955 -1.72932 1.55555 0
M  V30 3604 C 338.949 -1.63984 0.424921 0
M  V30 3605 O 340.155 -1.69663 0.601205 0
M  V30 3606 H 336.53 -0.571489 0.488779 0
M  V30 3607 H 338.501 -1.61842 2.50699 0
M  V30 3608 C 337.25 -3.11318 1.54843 0
M  V30 3609 H 336.573 -3.18867 2.41172 0
M  V30 3610 H 338.013 -3.90274 1.65717 0
M  V30 3611 C 336.472 -3.3578 0.274427 0
M  V30 3612 O 337.002 -3.9654 -0.641778 0
M  V30 3613 N 335.208 -2.90119 0.167139 0
M  V30 3614 H 334.755 -2.40855 0.913596 0
M  V30 3615 H 334.713 -3.0686 -0.684435 0
M  V30 3616 N 338.485 -1.33259 -0.841409 0
M  V30 3617 C 339.433 -1.23279 -1.97244 0
M  V30 3618 C 340.427 -0.134706 -1.68864 0
M  V30 3619 O 341.633 -0.298501 -1.77508 0
M  V30 3620 H 338.008 -0.382497 -0.647457 0
M  V30 3621 H 339.979 -2.18906 -2.02787 0
M  V30 3622 C 338.728 -0.986268 -3.33419 0
M  V30 3623 H 338.051 -1.82347 -3.55794 0
M  V30 3624 H 339.491 -0.956728 -4.13065 0
M  V30 3625 C 337.95 0.310842 -3.35463 0
M  V30 3626 O 338.48 1.31838 -3.79449 0
M  V30 3627 N 336.686 0.337485 -2.88634 0
M  V30 3628 H 336.233 -0.482967 -2.53032 0
M  V30 3629 H 336.191 1.20518 -2.90384 0
M  V30 3630 N 339.963 1.05934 -1.16686 0
M  V30 3631 C 340.91 2.13499 -0.876748 0
M  V30 3632 C 341.88 1.65162 0.176299 0
M  V30 3633 O 343.065 1.90757 0.0407143 0
M  V30 3634 C 340.205 3.42912 -0.387967 0
M  V30 3635 C 339.318 4.04964 -1.50426 0
M  V30 3636 C 338.453 5.22266 -0.970125 0
M  V30 3637 C 337.492 5.76309 -2.06238 0
M  V30 3638 N 336.629 6.84922 -1.54356 0
M  V30 3639 H 341.469 2.37654 -1.7979 0
M  V30 3640 H 339.006 1.16598 -0.896843 0
M  V30 3641 H 340.964 4.17111 -0.086186 0
M  V30 3642 H 339.594 3.18963 0.496235 0
M  V30 3643 H 338.646 3.28277 -1.92193 0
M  V30 3644 H 339.958 4.41122 -2.32836 0
M  V30 3645 H 339.112 6.03506 -0.621743 0
M  V30 3646 H 337.851 4.87564 -0.115377 0
M  V30 3647 H 336.856 4.93704 -2.41942 0
M  V30 3648 H 338.081 6.13062 -2.92115 0
M  V30 3649 H 336.027 6.52131 -0.711406 0
M  V30 3650 H 335.944 7.20043 -2.30379 0
M  V30 3651 H 337.212 7.69832 -1.22387 0
M  V30 3652 N 341.441 0.965919 1.2453 0
M  V30 3653 C 342.388 0.49402 2.25451 0
M  V30 3654 C 343.358 -0.45948 1.59618 0
M  V30 3655 O 344.543 -0.370238 1.87173 0
M  V30 3656 C 341.683 -0.211359 3.44452 0
M  V30 3657 C 340.796 0.7807 4.24887 0
M  V30 3658 C 339.931 0.0516105 5.31175 0
M  V30 3659 C 338.97 1.03385 6.03306 0
M  V30 3660 N 338.107 0.334887 7.01301 0
M  V30 3661 H 342.947 1.35946 2.65184 0
M  V30 3662 H 340.484 0.681515 1.3036 0
M  V30 3663 H 342.442 -0.637 4.12308 0
M  V30 3664 H 341.072 -1.04077 3.05562 0
M  V30 3665 H 340.124 1.32479 3.56586 0
M  V30 3666 H 341.436 1.52978 4.74762 0
M  V30 3667 H 340.59 -0.432114 6.05159 0
M  V30 3668 H 339.329 -0.730179 4.82203 0
M  V30 3669 H 338.334 1.52847 5.28127 0
M  V30 3670 H 339.559 1.81606 6.54367 0
M  V30 3671 H 337.505 -0.427959 6.54603 0
M  V30 3672 H 337.422 1.02287 7.49048 0
M  V30 3673 H 338.69 -0.126928 7.79397 0
M  V30 3674 N 342.919 -1.39368 0.735821 0
M  V30 3675 C 344.166 -2.00497 0.284123 0
M  V30 3676 C 344.494 -1.58387 -1.12889 0
M  V30 3677 O 343.749 -0.804359 -1.78406 0
M  V30 3678 C 344.048 -3.5583 0.334651 0
M  V30 3679 C 343.714 -4.17593 1.7008 0
M  V30 3680 C 342.376 -4.34176 2.07472 0
M  V30 3681 C 344.728 -4.51848 2.59775 0
M  V30 3682 C 342.056 -4.82304 3.34065 0
M  V30 3683 C 344.408 -5.01384 3.85741 0
M  V30 3684 C 343.072 -5.16175 4.23225 0
M  V30 3685 H 342.342 -0.73367 0.103968 0
M  V30 3686 H 344.989 -1.66683 0.942825 0
M  V30 3687 H 343.294 -3.89674 -0.407625 0
M  V30 3688 H 344.991 -4.00986 -0.0329927 0
M  V30 3689 H 341.581 -4.05087 1.40008 0
M  V30 3690 H 345.765 -4.38653 2.32157 0
M  V30 3691 H 341.021 -4.91941 3.63049 0
M  V30 3692 H 345.195 -5.26863 4.55399 0
M  V30 3693 H 342.822 -5.5323 5.21384 0
M  V30 3694 N 344.397 -0.483516 -1.5 0
M  V30 3695 C 345.345 0.318061 -2.30415 0
M  V30 3696 C 346.339 0.978988 -1.38247 0
M  V30 3697 O 347.545 0.908673 -1.55381 0
M  V30 3698 H 343.92 0.121419 -0.742133 0
M  V30 3699 H 345.891 -0.380403 -2.95965 0
M  V30 3700 C 344.64 1.38013 -3.19136 0
M  V30 3701 H 343.963 0.880952 -3.89973 0
M  V30 3702 H 345.403 1.91332 -3.78375 0
M  V30 3703 C 343.862 2.38884 -2.37563 0
M  V30 3704 O 344.392 3.44412 -2.06744 0
M  V30 3705 N 342.598 2.10912 -1.99911 0
M  V30 3706 H 342.145 1.25118 -2.25174 0
M  V30 3707 H 342.103 2.78635 -1.45636 0
M  V30 3708 N 345.875 1.56104 -0.216619 0
M  V30 3709 C 347.123 1.97781 0.415593 0
M  V30 3710 C 347.444 1.10536 1.60645 0
M  V30 3711 O 346.714 0.181303 1.95059 0
M  V30 3712 H 345.294 0.730415 0.156534 0
M  V30 3713 H 347.956 1.92445 -0.308366 0
M  V30 3714 H 347.052 3.03072 0.74525 0
M  V30 3715 N 347.353 -0.0568162 1.57498 0
M  V30 3716 C 348.581 -0.765626 1.92213 0
M  V30 3717 C 348.996 -1.70353 0.813961 0
M  V30 3718 O 348.353 -1.81268 -0.211701 0
M  V30 3719 C 348.404 -1.5465 3.2675 0
M  V30 3720 O 348.125 -0.646278 4.33307 0
M  V30 3721 C 349.626 -2.35497 3.75574 0
M  V30 3722 H 346.846 -0.216835 0.634999 0
M  V30 3723 H 349.39 -0.0226146 2.04487 0
M  V30 3724 H 347.545 -2.24165 3.15957 0
M  V30 3725 H 347.959 -1.19093 5.108 0
M  V30 3726 H 349.433 -2.85722 4.72299 0
M  V30 3727 H 349.91 -3.15692 3.05344 0
M  V30 3728 H 350.516 -1.7111 3.8936 0
M  V30 3729 N 348.832 -1.54138 -0.328536 0
M  V30 3730 C 350.08 -1.71765 -1.06496 0
M  V30 3731 C 350.401 -0.49149 -1.88704 0
M  V30 3732 O 349.671 0.494539 -1.89555 0
M  V30 3733 H 348.251 -0.633295 -0.396164 0
M  V30 3734 H 350.913 -1.91429 -0.366176 0
M  V30 3735 H 350.009 -2.5951 -1.73381 0
M  V30 3736 N 350.31 0.590341 -1.46126 0
M  V30 3737 C 351.721 1.17243 -1.45296 0
M  V30 3738 C 352.072 1.95281 -0.189723 0
M  V30 3739 O 351.197 2.04502 0.707674 0
M  V30 3740 C 351.792 2.13284 -2.6324 0
M  V30 3741 C 350.351 2.66832 -2.65476 0
M  V30 3742 C 349.498 1.42557 -2.3785 0
M  V30 3743 H 352.449 0.378692 -1.54116 0
M  V30 3744 H 352.47 2.96619 -2.38323 0
M  V30 3745 H 351.982 1.56459 -3.55165 0
M  V30 3746 H 350.083 3.27548 -1.77603 0
M  V30 3747 H 350.196 3.10088 -3.65215 0
M  V30 3748 H 348.56 1.72107 -1.87753 0
M  V30 3749 H 349.343 0.875741 -3.31942 0
M  V30 3750 N 351.788 1.33704 0.83433 0
M  V30 3751 C 353.028 1.26754 1.60352 0
M  V30 3752 C 353.392 -0.163182 1.91305 0
M  V30 3753 O 354.593 -0.3567 2.66423 0
M  V30 3754 C 352.864 2.12262 2.8754 0
M  V30 3755 S 354.423 2.22549 3.78176 0
M  V30 3756 H 351.241 0.450879 0.549753 0
M  V30 3757 H 353.843 1.68788 0.986444 0
M  V30 3758 H 352.547 3.15238 2.62779 0
M  V30 3759 H 352.078 1.71082 3.54252 0
M  V30 3760 H 354.093 1.3899 4.76336 0
M  V30 3761 N 353.266 -1.05314 1.17247 0
M  V30 3762 C 354.494 -1.81971 0.984593 0
M  V30 3763 C 354.909 -1.82929 -0.467166 0
M  V30 3764 O 354.266 -1.25564 -1.32438 0
M  V30 3765 C 354.317 -3.28143 1.51672 0
M  V30 3766 O 354.038 -3.27347 2.91163 0
M  V30 3767 C 355.539 -4.21493 1.37326 0
M  V30 3768 H 352.759 -0.573455 0.348411 0
M  V30 3769 H 355.303 -1.32808 1.55506 0
M  V30 3770 H 353.458 -3.74582 0.988302 0
M  V30 3771 H 353.872 -4.18824 3.15732 0
M  V30 3772 H 355.346 -5.22043 1.79375 0
M  V30 3773 H 355.823 -4.38031 0.320169 0
M  V30 3774 H 356.429 -3.80909 1.89178 0
M  V30 3775 N 354.744 -0.972509 -1.24016 0
M  V30 3776 C 355.692 -0.498562 -2.27194 0
M  V30 3777 C 356.686 0.440372 -1.63576 0
M  V30 3778 O 357.892 0.315133 -1.7722 0
M  V30 3779 H 354.267 -0.142775 -0.738322 0
M  V30 3780 H 356.238 -1.38065 -2.64539 0
M  V30 3781 C 354.987 0.191072 -3.47175 0
M  V30 3782 H 354.31 -0.522318 -3.96373 0
M  V30 3783 H 355.75 0.486445 -4.212 0
M  V30 3784 C 354.209 1.41967 -3.05527 0
M  V30 3785 O 354.739 2.51642 -3.13112 0
M  V30 3786 N 352.945 1.28746 -2.60524 0
M  V30 3787 H 352.492 0.395089 -2.54552 0
M  V30 3788 H 352.45 2.11061 -2.33025 0
M  V30 3789 N 356.222 1.38976 -0.743202 0
M  V30 3790 C 357.468 2.0064 -0.295189 0
M  V30 3791 C 357.801 1.5885 1.11716 0
M  V30 3792 O 357.076 0.821181 1.76315 0
M  V30 3793 C 357.359 3.578 -0.406318 0
M  V30 3794 C 357.212 4.09586 -1.85903 0
M  V30 3795 C 358.531 4.39616 0.206439 0
M  V30 3796 H 355.65 0.728935 -0.108733 0
M  V30 3797 H 358.292 1.65067 -0.940897 0
M  V30 3798 H 356.442 3.88235 0.143419 0
M  V30 3799 H 358.114 3.89837 -2.46627 0
M  V30 3800 H 356.357 3.6284 -2.3776 0
M  V30 3801 H 357.028 5.18708 -1.888 0
M  V30 3802 H 359.504 4.15273 -0.262283 0
M  V30 3803 H 358.38 5.48812 0.0983819 0
M  V30 3804 H 358.641 4.22754 1.2935 0
M  V30 3805 N 357.7 0.491464 1.49741 0
M  V30 3806 C 358.925 -0.0557177 2.07325 0
M  V30 3807 C 359.35 -1.30925 1.35056 0
M  V30 3808 O 358.708 -1.76733 0.404365 0
M  V30 3809 C 358.756 -0.302074 3.59333 0
M  V30 3810 O 357.86 -1.37868 3.88672 0
M  V30 3811 H 357.201 0.0219956 0.663636 0
M  V30 3812 H 359.731 0.688352 1.92673 0
M  V30 3813 H 359.741 -0.536464 4.04458 0
M  V30 3814 H 358.416 0.61383 4.11345 0
M  V30 3815 H 356.993 -1.12999 3.55367 0
M  V30 3816 N 359.178 -1.55987 0.224894 0
M  V30 3817 C 360.406 -2.02784 -0.410665 0
M  V30 3818 C 360.821 -1.10464 -1.53112 0
M  V30 3819 O 360.178 -0.114871 -1.82138 0
M  V30 3820 C 360.229 -3.49087 -0.939165 0
M  V30 3821 O 359.95 -4.37887 0.136614 0
M  V30 3822 C 361.451 -4.11543 -1.64763 0
M  V30 3823 H 358.671 -0.663484 -0.100148 0
M  V30 3824 H 361.215 -2.01614 0.342326 0
M  V30 3825 H 359.37 -3.50861 -1.64242 0
M  V30 3826 H 359.784 -5.23849 -0.261155 0
M  V30 3827 H 361.258 -5.15673 -1.96939 0
M  V30 3828 H 361.735 -3.56736 -2.56195 0
M  V30 3829 H 362.341 -4.13629 -0.989503 0
M  V30 3830 N 360.656 0.0484629 -1.57525 0
M  V30 3831 C 361.902 0.744226 -1.88651 0
M  V30 3832 C 362.235 1.76029 -0.820212 0
M  V30 3833 O 361.51 1.93782 0.166985 0
M  V30 3834 C 361.793 1.43128 -3.30434 0
M  V30 3835 C 361.646 0.43005 -4.47739 0
M  V30 3836 C 362.965 2.37031 -3.70816 0
M  V30 3837 H 360.084 0.269089 -0.68612 0
M  V30 3838 H 362.726 0.00713532 -1.89999 0
M  V30 3839 H 360.876 2.05956 -3.29415 0
M  V30 3840 H 362.548 -0.194816 -4.60888 0
M  V30 3841 H 360.791 -0.252522 -4.33064 0
M  V30 3842 H 361.462 0.948874 -5.43783 0
M  V30 3843 H 363.938 1.84263 -3.73077 0
M  V30 3844 H 362.814 2.82094 -4.70865 0
M  V30 3845 H 363.075 3.22864 -3.02012 0
M  V30 3846 N 362.134 1.5431 0.320358 0
M  V30 3847 C 363.066 1.80262 1.41556 0
M  V30 3848 C 364.079 0.684723 1.477 0
M  V30 3849 O 365.268 0.961886 1.50366 0
M  V30 3850 C 362.368 1.90825 2.8007 0
M  V30 3851 C 361.541 3.21023 2.97091 0
M  V30 3852 C 360.6 3.22247 4.15985 0
M  V30 3853 O 359.626 3.95871 4.08992 0
M  V30 3854 N 360.828 2.46258 5.25678 0
M  V30 3855 H 363.593 2.74778 1.19655 0
M  V30 3856 H 361.154 1.53646 0.510358 0
M  V30 3857 H 363.146 1.89067 3.57821 0
M  V30 3858 H 361.716 1.03392 2.95006 0
M  V30 3859 H 360.936 3.35715 2.06614 0
M  V30 3860 H 362.224 4.0698 3.05361 0
M  V30 3861 H 361.622 1.86037 5.34235 0
M  V30 3862 H 360.179 2.50275 6.01835 0
M  V30 3863 N 363.613 -0.582584 1.46437 0
M  V30 3864 C 364.853 -1.35184 1.53312 0
M  V30 3865 C 365.217 -1.9115 0.180508 0
M  V30 3866 O 366.418 -2.68514 0.124017 0
M  V30 3867 C 364.689 -2.45089 2.60127 0
M  V30 3868 S 366.248 -3.32439 2.86408 0
M  V30 3869 H 363.066 -0.460559 0.54167 0
M  V30 3870 H 365.668 -0.669709 1.83671 0
M  V30 3871 H 364.372 -2.02366 3.57038 0
M  V30 3872 H 363.903 -3.18074 2.315 0
M  V30 3873 H 365.918 -4.43924 2.21688 0
M  V30 3874 N 365.091 -1.34144 -0.827227 0
M  V30 3875 C 366.319 -1.29325 -1.61501 0
M  V30 3876 C 366.734 0.13354 -1.88327 0
M  V30 3877 O 366.091 1.0793 -1.47164 0
M  V30 3878 C 366.142 -2.07746 -2.95844 0
M  V30 3879 O 365.863 -3.4486 -2.70191 0
M  V30 3880 C 367.364 -2.10273 -3.90256 0
M  V30 3881 H 364.584 -0.445069 -0.50215 0
M  V30 3882 H 367.128 -1.76693 -1.02955 0
M  V30 3883 H 365.283 -1.6403 -3.5096 0
M  V30 3884 H 365.697 -3.85345 -3.55822 0
M  V30 3885 H 367.171 -2.69575 -4.81698 0
M  V30 3886 H 367.648 -1.096 -4.25305 0
M  V30 3887 H 368.254 -2.54059 -3.41078 0
M  V30 3888 N 366.569 1.04691 -1.17803 0
M  V30 3889 C 367.519 2.10856 -0.867391 0
M  V30 3890 C 368.503 1.601 0.160206 0
M  V30 3891 O 369.695 1.76948 -0.042947 0
M  V30 3892 C 366.824 3.411 -0.388012 0
M  V30 3893 C 365.91 3.9864 -1.44732 0
M  V30 3894 N 366.301 4.30075 -2.66212 0
M  V30 3895 C 364.599 4.26439 -1.30637 0
M  V30 3896 C 365.3 4.76033 -3.34317 0
M  V30 3897 N 364.276 4.76462 -2.61696 0
M  V30 3898 H 368.078 2.33029 -1.79094 0
M  V30 3899 H 365.592 1.22386 -1.0675 0
M  V30 3900 H 367.589 4.16641 -0.146994 0
M  V30 3901 H 366.249 3.20357 0.529271 0
M  V30 3902 H 367.26 4.19917 -3.03134 0
M  V30 3903 H 363.937 4.15056 -0.451129 0
M  V30 3904 H 365.327 5.09427 -4.38103 0
M  V30 3905 N 368.047 0.979072 1.23499 0
M  V30 3906 C 369.295 0.645941 1.91499 0
M  V30 3907 C 369.616 -0.822948 1.76784 0
M  V30 3908 O 368.886 -1.58854 1.14639 0
M  V30 3909 H 367.466 0.235919 0.708767 0
M  V30 3910 H 370.128 1.2426 1.50152 0
M  V30 3911 H 369.224 0.896411 2.9895 0
M  V30 3912 N 369.525 -1.3858 0.750561 0
M  V30 3913 C 370.774 -1.99424 0.302172 0
M  V30 3914 C 371.087 -1.60254 -1.12152 0
M  V30 3915 O 372.293 -2.14046 -1.67023 0
M  V30 3916 C 370.749 -3.56558 0.489307 0
M  V30 3917 C 370.357 -4.04682 1.92189 0
M  V30 3918 C 372.101 -4.24374 0.103478 0
M  V30 3919 C 370.008 -5.54446 2.05775 0
M  V30 3920 H 368.938 -0.746046 0.10923 0
M  V30 3921 H 371.589 -1.58383 0.92667 0
M  V30 3922 H 369.971 -3.95472 -0.204329 0
M  V30 3923 H 371.145 -3.77065 2.64875 0
M  V30 3924 H 369.46 -3.4958 2.26236 0
M  V30 3925 H 372.057 -5.34384 0.183787 0
M  V30 3926 H 372.4 -4.05468 -0.943481 0
M  V30 3927 H 372.933 -3.90688 0.748854 0
M  V30 3928 H 369.672 -5.78252 3.08714 0
M  V30 3929 H 369.192 -5.83816 1.37546 0
M  V30 3930 H 370.871 -6.20099 1.84626 0
M  V30 3931 N 371.003 -0.499398 -1.49478 0
M  V30 3932 C 372.419 -0.155261 -1.58843 0
M  V30 3933 C 372.619 1.34008 -1.50479 0
M  V30 3934 O 371.675 2.11589 -1.37791 0
M  V30 3935 C 372.988 -0.730636 -2.91689 0
M  V30 3936 C 374.536 -0.696599 -3.0515 0
M  V30 3937 C 375.011 -1.25001 -4.40612 0
M  V30 3938 N 376.502 -1.21064 -4.47099 0
M  V30 3939 C 377.237 -1.60905 -5.50361 0
M  V30 3940 N 376.733 -2.08331 -6.60735 0
M  V30 3941 N 378.526 -1.52331 -5.41065 0
M  V30 3942 H 370.677 -1.47162 -1.53158 0
M  V30 3943 H 372.94 -0.610309 -0.725415 0
M  V30 3944 H 372.646 -1.77928 -3.03372 0
M  V30 3945 H 372.52 -0.190161 -3.7672 0
M  V30 3946 H 374.907 0.343204 -2.93097 0
M  V30 3947 H 374.988 -1.2742 -2.21806 0
M  V30 3948 H 374.632 -2.28859 -4.53416 0
M  V30 3949 H 374.562 -0.64836 -5.22593 0
M  V30 3950 H 377.053 -0.863128 -3.67911 0
M  V30 3951 H 377.366 -2.36805 -7.35624 0
M  V30 3952 H 375.711 -2.12304 -6.6178 0
M  V30 3953 H 378.902 -1.151 -4.53729 0
M  V30 3954 H 379.075 -1.83704 -6.21415 0
M  V30 3955 N 372.481 1.55866 -0.233164 0
M  V30 3956 C 373.892 1.847 0.272554 0
M  V30 3957 C 374.243 1.15477 1.58617 0
M  V30 3958 O 373.368 0.42841 2.12117 0
M  V30 3959 C 373.963 3.35071 0.501299 0
M  V30 3960 C 372.522 3.6418 0.951304 0
M  V30 3961 C 371.669 2.77292 0.0208209 0
M  V30 3962 H 374.62 1.52005 -0.456074 0
M  V30 3963 H 374.641 3.55906 1.34577 0
M  V30 3964 H 374.153 3.85424 -0.454936 0
M  V30 3965 H 372.254 3.19293 1.92049 0
M  V30 3966 H 372.367 4.72071 0.817675 0
M  V30 3967 H 370.731 2.49131 0.529723 0
M  V30 3968 H 371.514 3.30448 -0.93054 0
M  V30 3969 N 373.959 -0.0401083 1.57549 0
M  V30 3970 C 375.205 -0.734211 1.89043 0
M  V30 3971 C 375.538 -1.75591 0.829535 0
M  V30 3972 O 374.813 -1.93868 -0.156706 0
M  V30 3973 C 375.096 -1.41374 3.31188 0
M  V30 3974 C 374.949 -0.406299 4.47961 0
M  V30 3975 C 376.268 -2.35061 3.72068 0
M  V30 3976 H 373.387 -0.265447 0.687537 0
M  V30 3977 H 376.029 0.00294087 1.9 0
M  V30 3978 H 374.179 -2.04206 3.30503 0
M  V30 3979 H 375.851 0.219255 4.60779 0
M  V30 3980 H 374.094 0.275485 4.32924 0
M  V30 3981 H 374.765 -0.920022 5.44279 0
M  V30 3982 H 377.241 -1.82282 3.74049 0
M  V30 3983 H 376.117 -2.79593 4.72355 0
M  V30 3984 H 376.378 -3.21258 3.0372 0
M  V30 3985 N 375.437 -1.54477 -0.31217 0
M  V30 3986 C 376.683 -1.73483 -1.0503 0
M  V30 3987 C 377.016 -0.513125 -1.87298 0
M  V30 3988 O 376.291 0.489864 -1.8823 0
M  V30 3989 C 376.574 -3.01723 -1.96558 0
M  V30 3990 C 376.427 -4.3417 -1.17545 0
M  V30 3991 C 377.746 -3.25772 -2.95907 0
M  V30 3992 H 374.865 -0.631222 -0.380432 0
M  V30 3993 H 377.507 -1.87184 -0.325932 0
M  V30 3994 H 375.657 -2.90174 -2.58324 0
M  V30 3995 H 377.329 -4.5762 -0.581513 0
M  V30 3996 H 375.572 -4.31159 -0.477925 0
M  V30 3997 H 376.243 -5.20143 -1.84811 0
M  V30 3998 H 378.719 -3.36857 -2.44267 0
M  V30 3999 H 377.595 -4.16838 -3.57123 0
M  V30 4000 H 377.856 -2.43537 -3.68974 0
M  V30 4001 N 376.915 0.57481 -1.46744 0
M  V30 4002 C 378.14 1.36341 -1.56288 0
M  V30 4003 C 378.565 1.86954 -0.207347 0
M  V30 4004 O 377.923 1.62006 0.813871 0
M  V30 4005 C 377.971 2.52147 -2.57787 0
M  V30 4006 O 377.075 3.53834 -2.11838 0
M  V30 4007 H 376.416 0.405713 -0.525636 0
M  V30 4008 H 378.946 0.696453 -1.92382 0
M  V30 4009 H 378.956 2.98958 -2.77648 0
M  V30 4010 H 377.631 2.14663 -3.5622 0
M  V30 4011 H 376.208 3.1345 -2.01999 0
M  V30 4012 N 378.394 1.34581 0.820102 0
M  V30 4013 C 379.622 1.3018 1.60813 0
M  V30 4014 C 380.037 -0.123551 1.88395 0
M  V30 4015 O 379.394 -1.07148 1.47735 0
M  V30 4016 C 379.445 2.09312 2.94739 0
M  V30 4017 O 379.166 3.46288 2.68358 0
M  V30 4018 C 380.667 2.1234 3.89136 0
M  V30 4019 H 377.887 0.447726 0.499782 0
M  V30 4020 H 380.431 1.77237 1.02017 0
M  V30 4021 H 378.586 1.65889 3.50085 0
M  V30 4022 H 379 3.87227 3.53774 0
M  V30 4023 H 380.474 2.72126 4.80262 0
M  V30 4024 H 380.951 1.11854 4.24718 0
M  V30 4025 H 381.557 2.55864 3.39726 0
M  V30 4026 N 379.872 -1.04064 1.18357 0
M  V30 4027 C 380.804 -2.12114 0.868358 0
M  V30 4028 C 381.817 -1.62247 -0.134045 0
M  V30 4029 O 383.006 -1.78253 0.0937933 0
M  V30 4030 C 380.106 -3.37773 0.276132 0
M  V30 4031 C 379.279 -4.16874 1.3242 0
M  V30 4032 C 378.338 -5.20861 0.747662 0
M  V30 4033 O 377.364 -5.51141 1.42239 0
M  V30 4034 N 378.566 -5.78715 -0.454823 0
M  V30 4035 H 381.331 -2.39748 1.79836 0
M  V30 4036 H 378.892 -1.20258 1.08396 0
M  V30 4037 H 380.884 -4.04513 -0.123133 0
M  V30 4038 H 379.454 -3.07581 -0.557895 0
M  V30 4039 H 378.674 -3.45456 1.89878 0
M  V30 4040 H 379.962 -4.66516 2.03078 0
M  V30 4041 H 379.36 -5.56415 -1.02073 0
M  V30 4042 H 377.917 -6.46921 -0.79601 0
M  V30 4043 N 381.35 -0.985608 -1.22978 0
M  V30 4044 C 382.28 -0.549649 -2.26939 0
M  V30 4045 C 383.261 0.419803 -1.64838 0
M  V30 4046 O 384.446 0.31203 -1.91677 0
M  V30 4047 C 381.576 0.143652 -3.47003 0
M  V30 4048 C 380.53 -0.743606 -4.21491 0
M  V30 4049 C 379.856 0.0822027 -5.34637 0
M  V30 4050 C 381.156 -2.03694 -4.80943 0
M  V30 4051 H 382.85 -1.41862 -2.63658 0
M  V30 4052 H 380.396 -0.683571 -1.26741 0
M  V30 4053 H 382.349 0.459985 -4.18882 0
M  V30 4054 H 381.073 1.04711 -3.09359 0
M  V30 4055 H 379.732 -1.04347 -3.51436 0
M  V30 4056 H 379.38 0.986359 -4.93234 0
M  V30 4057 H 379.08 -0.508377 -5.85397 0
M  V30 4058 H 380.604 0.392797 -6.09335 0
M  V30 4059 H 382.018 -1.78504 -5.44802 0
M  V30 4060 H 380.415 -2.57573 -5.42011 0
M  V30 4061 H 381.485 -2.72042 -4.01399 0
M  V30 4062 N 382.828 1.3818 -0.7579 0
M  V30 4063 C 383.758 2.33027 -0.148597 0
M  V30 4064 C 384.739 1.55085 0.69875 0
M  V30 4065 O 385.924 1.83384 0.639053 0
M  V30 4066 C 383.054 3.3928 0.742034 0
M  V30 4067 C 382.008 4.28 -0.00291946 0
M  V30 4068 C 381.334 5.25146 1.00625 0
M  V30 4069 C 382.634 5.08938 -1.17385 0
M  V30 4070 H 384.328 2.84231 -0.940909 0
M  V30 4071 H 381.874 1.36659 -0.453908 0
M  V30 4072 H 383.827 4.046 1.17799 0
M  V30 4073 H 382.551 2.86569 1.56671 0
M  V30 4074 H 381.21 3.64192 -0.419504 0
M  V30 4075 H 380.858 4.68721 1.8251 0
M  V30 4076 H 380.558 5.85361 0.512428 0
M  V30 4077 H 382.082 5.93342 1.44143 0
M  V30 4078 H 383.496 5.67474 -0.815224 0
M  V30 4079 H 381.893 5.7841 -1.59882 0
M  V30 4080 H 382.963 4.42424 -1.98468 0
M  V30 4081 N 384.306 0.507319 1.49211 0
M  V30 4082 C 385.236 -0.256939 2.32082 0
M  V30 4083 C 386.217 -0.956609 1.40652 0
M  V30 4084 O 387.402 -0.946788 1.69557 0
M  V30 4085 C 384.532 -1.31802 3.21318 0
M  V30 4086 C 383.486 -0.737855 4.21592 0
M  V30 4087 C 382.812 -1.89992 4.99807 0
M  V30 4088 C 384.112 0.275325 5.21574 0
M  V30 4089 H 385.806 0.434798 2.96226 0
M  V30 4090 H 383.352 0.210546 1.42452 0
M  V30 4091 H 385.305 -1.86045 3.78107 0
M  V30 4092 H 384.029 -2.03903 2.5513 0
M  V30 4093 H 382.688 -0.217126 3.65956 0
M  V30 4094 H 382.336 -2.60877 4.30061 0
M  V30 4095 H 382.036 -1.51777 5.6766 0
M  V30 4096 H 383.56 -2.44657 5.59442 0
M  V30 4097 H 384.974 -0.179193 5.7302 0
M  V30 4098 H 383.371 0.573649 5.97352 0
M  V30 4099 H 384.441 1.18903 4.70096 0
M  V30 4100 N 385.784 -1.5574 0.241426 0
M  V30 4101 C 386.732 -2.22538 -0.676718 0
M  V30 4102 C 387.726 -1.21117 -1.18436 0
M  V30 4103 O 388.932 -1.39144 -1.14188 0
M  V30 4104 H 385.307 -0.713776 -0.236701 0
M  V30 4105 H 387.278 -2.98264 -0.0901187 0
M  V30 4106 C 386.027 -2.93439 -1.86518 0
M  V30 4107 H 385.35 -3.7125 -1.4837 0
M  V30 4108 H 386.79 -3.43549 -2.48495 0
M  V30 4109 C 385.249 -1.97008 -2.73294 0
M  V30 4110 O 385.779 -1.49965 -3.72657 0
M  V30 4111 N 383.985 -1.64227 -2.39745 0
M  V30 4112 H 383.532 -2.02677 -1.58996 0
M  V30 4113 H 383.49 -0.999708 -2.98083 0
M  V30 4114 N 387.262 0.0317525 -1.57568 0
M  V30 4115 C 388.51 0.721676 -1.88776 0
M  V30 4116 C 388.831 1.76039 -0.838772 0
M  V30 4117 O 388.101 1.95482 0.127935 0
M  V30 4118 H 386.681 0.269534 -0.696678 0
M  V30 4119 H 389.343 -0.00165879 -1.949 0
M  V30 4120 H 388.439 1.21293 -2.87566 0
M  V30 4121 N 388.74 1.54641 0.303973 0
M  V30 4122 C 389.965 1.78092 1.06292 0
M  V30 4123 C 390.39 0.537342 1.80262 0
M  V30 4124 O 389.748 -0.511993 1.7392 0
M  V30 4125 C 389.796 2.98612 2.02147 0
M  V30 4126 O 388.9 2.71528 3.10397 0
M  V30 4127 H 388.241 0.589548 0.305497 0
M  V30 4128 H 390.771 2.01716 0.3423 0
M  V30 4129 H 390.781 3.265 2.44667 0
M  V30 4130 H 389.456 3.88785 1.47714 0
M  V30 4131 H 388.033 2.54648 2.72413 0
M  V30 4132 N 390.218 -0.567019 1.47046 0
M  V30 4133 C 391.148 -1.68482 1.61667 0
M  V30 4134 C 392.129 -1.6358 0.466418 0
M  V30 4135 O 393.314 -1.81354 0.694574 0
M  V30 4136 C 390.444 -3.07124 1.62148 0
M  V30 4137 C 389.398 -3.26867 2.76301 0
M  V30 4138 C 388.724 -4.66196 2.61849 0
M  V30 4139 C 390.024 -3.13186 4.17986 0
M  V30 4140 H 391.718 -1.56502 2.5524 0
M  V30 4141 H 389.264 -0.751486 1.22836 0
M  V30 4142 H 391.217 -3.8516 1.70968 0
M  V30 4143 H 389.941 -3.2004 0.651287 0
M  V30 4144 H 388.6 -2.51237 2.66975 0
M  V30 4145 H 388.248 -4.75898 1.62879 0
M  V30 4146 H 387.948 -4.80356 3.38425 0
M  V30 4147 H 389.472 -5.46379 2.72584 0
M  V30 4148 H 390.886 -3.81049 4.2834 0
M  V30 4149 H 389.283 -3.3886 4.95272 0
M  V30 4150 H 390.353 -2.10057 4.3704 0
M  V30 4151 N 391.696 -1.35014 -0.812953 0
M  V30 4152 C 392.659 -1.27292 -1.90602 0
M  V30 4153 C 393.659 -0.185817 -1.59723 0
M  V30 4154 O 394.849 -0.439102 -1.68575 0
M  V30 4155 C 391.981 -0.967676 -3.26877 0
M  V30 4156 H 393.174 -2.24479 -1.9887 0
M  V30 4157 H 390.727 -1.19446 -1.00808 0
M  V30 4158 H 391.462 0.0005954 -3.243 0
M  V30 4159 H 391.247 -1.75412 -3.50675 0
M  V30 4160 H 392.737 -0.939085 -4.06904 0
M  V30 4161 N 393.175 1.03435 -1.18907 0
M  V30 4162 C 394.085 2.15075 -0.937015 0
M  V30 4163 C 395.101 1.73706 0.101085 0
M  V30 4164 O 396.277 2.01232 -0.0822948 0
M  V30 4165 C 393.342 3.43458 -0.473057 0
M  V30 4166 C 392.403 3.99172 -1.57989 0
M  V30 4167 C 391.636 5.21427 -1.13797 0
M  V30 4168 O 391.859 5.704 0.000725941 0
M  V30 4169 O 390.793 5.69837 -1.9383 0
M  V30 4170 H 394.619 2.39198 -1.87131 0
M  V30 4171 H 392.204 1.13506 -0.971427 0
M  V30 4172 H 394.086 4.20811 -0.222702 0
M  V30 4173 H 392.761 3.20793 0.432869 0
M  V30 4174 H 391.668 3.23178 -1.88433 0
M  V30 4175 H 393.001 4.2619 -2.46217 0
M  V30 4176 N 394.653 0.992116 1.22453 0
M  V30 4177 C 395.563 0.55065 2.28046 0
M  V30 4178 C 396.579 -0.400189 1.69335 0
M  V30 4179 O 397.755 -0.267215 1.99619 0
M  V30 4180 C 394.82 -0.128496 3.46462 0
M  V30 4181 C 393.881 0.865208 4.20491 0
M  V30 4182 C 393.114 0.218377 5.33253 0
M  V30 4183 O 393.337 -0.987894 5.6178 0
M  V30 4184 O 392.271 0.922845 5.94783 0
M  V30 4185 H 396.097 1.4291 2.67975 0
M  V30 4186 H 393.682 0.760326 1.28606 0
M  V30 4187 H 395.564 -0.508947 4.18315 0
M  V30 4188 H 394.239 -0.981526 3.0846 0
M  V30 4189 H 393.146 1.29658 3.50913 0
M  V30 4190 H 394.479 1.68741 4.62371 0
M  V30 4191 N 396.131 -1.37776 0.765217 0
M  V30 4192 C 397.041 -2.34135 0.147666 0
M  V30 4193 C 398.057 -1.59854 -0.687215 0
M  V30 4194 O 399.233 -1.91983 -0.608659 0
M  V30 4195 C 396.298 -3.3901 -0.72617 0
M  V30 4196 C 395.359 -4.2912 0.124417 0
M  V30 4197 C 394.592 -5.28986 -0.707807 0
M  V30 4198 O 394.815 -5.36205 -1.94525 0
M  V30 4199 O 393.749 -6.01779 -0.12046 0
M  V30 4200 H 397.575 -2.88664 0.943758 0
M  V30 4201 H 395.16 -1.39824 0.526277 0
M  V30 4202 H 397.042 -4.03195 -1.22524 0
M  V30 4203 H 395.717 -2.86819 -1.50056 0
M  V30 4204 H 394.624 -3.68057 0.669696 0
M  V30 4205 H 395.957 -4.84598 0.861736 0
M  V30 4206 N 397.609 -0.515225 -1.4894 0
M  V30 4207 C 398.855 0.0242508 -2.02785 0
M  V30 4208 C 399.188 1.35323 -1.39289 0
M  V30 4209 O 398.463 1.87041 -0.533469 0
M  V30 4210 C 398.746 0.16184 -3.59736 0
M  V30 4211 C 398.599 -1.19127 -4.33738 0
M  V30 4212 C 399.918 0.895719 -4.30888 0
M  V30 4213 H 397.037 0.00733914 -0.736963 0
M  V30 4214 H 399.679 -0.669395 -1.77818 0
M  V30 4215 H 397.829 0.752624 -3.8114 0
M  V30 4216 H 399.501 -1.82202 -4.23792 0
M  V30 4217 H 397.744 -1.77695 -3.95736 0
M  V30 4218 H 398.415 -1.04815 -5.41957 0
M  V30 4219 H 400.891 0.394528 -4.14225 0
M  V30 4220 H 399.767 0.960859 -5.40425 0
M  V30 4221 H 400.028 1.9427 -3.97129 0
M  V30 4222 N 399.087 1.5561 -0.249682 0
M  V30 4223 C 400.333 1.99306 0.374841 0
M  V30 4224 C 400.666 1.13767 1.57387 0
M  V30 4225 O 399.941 0.201711 1.93451 0
M  V30 4226 C 400.224 3.51507 0.781986 0
M  V30 4227 C 400.077 4.4781 -0.422629 0
M  V30 4228 C 401.396 4.08884 1.62793 0
M  V30 4229 H 398.515 0.724572 0.134773 0
M  V30 4230 H 401.157 1.86719 -0.351549 0
M  V30 4231 H 399.307 3.62363 1.4009 0
M  V30 4232 H 400.979 4.48931 -1.06108 0
M  V30 4233 H 399.222 4.20518 -1.06524 0
M  V30 4234 H 399.893 5.51919 -0.0943766 0
M  V30 4235 H 402.369 4.01147 1.10547 0
M  V30 4236 H 401.245 5.1564 1.88166 0
M  V30 4237 H 401.506 3.57515 2.60068 0
M  V30 4238 N 400.565 -0.0233959 1.57583 0
M  V30 4239 C 401.814 -0.712133 1.8871 0
M  V30 4240 C 402.127 -1.76217 0.848944 0
M  V30 4241 O 403.333 -2.50389 1.04964 0
M  V30 4242 C 401.789 -1.3177 3.3491 0
M  V30 4243 C 401.397 -0.303715 4.46969 0
M  V30 4244 C 403.141 -1.98598 3.75179 0
M  V30 4245 C 401.048 -0.917945 5.84233 0
M  V30 4246 H 399.978 -0.269735 0.704101 0
M  V30 4247 H 402.629 0.0333114 1.8347 0
M  V30 4248 H 401.011 -2.11304 3.34913 0
M  V30 4249 H 402.185 0.465325 4.58445 0
M  V30 4250 H 400.5 0.2628 4.1557 0
M  V30 4251 H 403.097 -2.45416 4.75053 0
M  V30 4252 H 403.44 -2.80659 3.07468 0
M  V30 4253 H 403.973 -1.25831 3.77374 0
M  V30 4254 H 400.712 -0.136633 6.55358 0
M  V30 4255 H 400.232 -1.65669 5.76467 0
M  V30 4256 H 401.911 -1.4236 6.31144 0
M  V30 4257 N 402.043 -1.548 -0.295768 0
M  V30 4258 C 403.459 -1.4613 -0.641722 0
M  V30 4259 C 403.659 -0.656771 -1.90496 0
M  V30 4260 O 402.715 -0.166547 -2.5195 0
M  V30 4261 C 404.028 -2.90141 -0.789852 0
M  V30 4262 C 405.576 -3.00216 -0.885396 0
M  V30 4263 C 406.051 -4.45434 -1.06548 0
M  V30 4264 N 407.542 -4.49166 -1.13156 0
M  V30 4265 C 408.277 -5.58717 -1.28929 0
M  V30 4266 N 407.773 -6.78182 -1.41567 0
M  V30 4267 N 409.566 -5.46415 -1.31859 0
M  V30 4268 H 401.717 -2.05574 0.534147 0
M  V30 4269 H 403.98 -0.931259 0.177372 0
M  V30 4270 H 403.686 -3.51635 0.0675598 0
M  V30 4271 H 403.56 -3.37859 -1.67724 0
M  V30 4272 H 405.947 -2.38833 -1.73329 0
M  V30 4273 H 406.028 -2.55787 0.0261185 0
M  V30 4274 H 405.672 -5.07413 -0.222335 0
M  V30 4275 H 405.602 -4.87499 -1.9913 0
M  V30 4276 H 408.093 -3.631 -1.04721 0
M  V30 4277 H 408.406 -7.57428 -1.53372 0
M  V30 4278 H 406.751 -6.81037 -1.38613 0
M  V30 4279 H 409.942 -4.5203 -1.21601 0
M  V30 4280 H 410.115 -6.31841 -1.43808 0
M  V30 4281 N 403.521 0.559213 -1.47345 0
M  V30 4282 C 404.746 1.34676 -1.57725 0
M  V30 4283 C 405.171 1.86723 -0.227164 0
M  V30 4284 O 404.529 1.6286 0.796642 0
M  V30 4285 C 404.577 2.49399 -2.60447 0
M  V30 4286 O 403.681 3.51567 -2.15578 0
M  V30 4287 H 403.022 0.400115 -0.52991 0
M  V30 4288 H 405.552 0.676009 -1.93109 0
M  V30 4289 H 405.562 2.95996 -2.80803 0
M  V30 4290 H 404.237 2.10873 -3.58477 0
M  V30 4291 H 402.814 3.11289 -2.05313 0
M  V30 4292 N 404.999 1.35443 0.805782 0
M  V30 4293 C 405.909 1.30546 1.94923 0
M  V30 4294 C 406.925 0.210233 1.72725 0
M  V30 4295 O 408.101 0.43975 1.9654 0
M  V30 4296 C 405.166 1.07782 3.29521 0
M  V30 4297 C 404.227 2.26625 3.64609 0
M  V30 4298 C 403.46 2.04938 4.92784 0
M  V30 4299 O 403.683 1.01624 5.61274 0
M  V30 4300 O 402.617 2.9232 5.26149 0
M  V30 4301 H 406.443 2.26779 2.02002 0
M  V30 4302 H 404.028 1.15823 0.943682 0
M  V30 4303 H 405.91 0.969392 4.10098 0
M  V30 4304 H 404.585 0.146003 3.23371 0
M  V30 4305 H 403.492 2.43033 2.84404 0
M  V30 4306 H 404.825 3.18257 3.75464 0
M  V30 4307 N 406.477 -1.02803 1.19454 0
M  V30 4308 C 407.425 -2.13213 0.929673 0
M  V30 4309 C 408.419 -1.69011 -0.114806 0
M  V30 4310 O 409.625 -1.79967 0.0345147 0
M  V30 4311 H 406 -0.69662 0.28324 0
M  V30 4312 H 407.971 -2.32744 1.86743 0
M  V30 4313 C 406.72 -3.4429 0.485797 0
M  V30 4314 H 406.043 -3.7872 1.28105 0
M  V30 4315 H 407.483 -4.22638 0.339582 0
M  V30 4316 C 405.942 -3.27258 -0.800244 0
M  V30 4317 O 406.472 -3.55967 -1.86146 0
M  V30 4318 N 404.678 -2.80545 -0.75781 0
M  V30 4319 H 404.225 -2.57382 0.106039 0
M  V30 4320 H 404.183 -2.6953 -1.61867 0
M  V30 4321 N 407.956 -0.998596 -1.21925 0
M  V30 4322 C 409.203 -0.677663 -1.90824 0
M  V30 4323 C 409.531 0.790905 -1.77693 0
M  V30 4324 O 408.786 1.58817 -1.14349 0
M  V30 4325 C 409.085 -1.03648 -3.42041 0
M  V30 4326 C 408.751 -2.49825 -3.75364 0
M  V30 4327 C 407.413 -2.8977 -3.8417 0
M  V30 4328 C 409.765 -3.44545 -3.91073 0
M  V30 4329 C 407.093 -4.23412 -4.06127 0
M  V30 4330 C 409.445 -4.77853 -4.14535 0
M  V30 4331 C 408.109 -5.17531 -4.21566 0
M  V30 4332 H 407.379 -0.247975 -0.698276 0
M  V30 4333 H 410.026 -1.25584 -1.44571 0
M  V30 4334 H 408.331 -0.376457 -3.89987 0
M  V30 4335 H 410.028 -0.766113 -3.93614 0
M  V30 4336 H 406.618 -2.17866 -3.69097 0
M  V30 4337 H 410.802 -3.14853 -3.83642 0
M  V30 4338 H 406.058 -4.53734 -4.09799 0
M  V30 4339 H 410.232 -5.51189 -4.25633 0
M  V30 4340 H 407.859 -6.21102 -4.38333 0
M  V30 4341 N 409.434 1.37368 -0.772513 0
M  V30 4342 C 410.662 2.03942 -0.348588 0
M  V30 4343 C 411.077 1.58264 1.02947 0
M  V30 4344 O 410.434 0.764246 1.65727 0
M  V30 4345 C 410.485 3.5946 -0.38351 0
M  V30 4346 O 410.206 4.03468 -1.70721 0
M  V30 4347 C 411.707 4.4327 0.0519152 0
M  V30 4348 H 408.927 0.654931 -0.145966 0
M  V30 4349 H 411.471 1.75686 -1.04665 0
M  V30 4350 H 409.626 3.86486 0.265978 0
M  V30 4351 H 410.04 4.97991 -1.64636 0
M  V30 4352 H 411.514 5.51995 -0.0236733 0
M  V30 4353 H 411.991 4.2514 1.10238 0
M  V30 4354 H 412.597 4.21471 -0.569415 0
M  V30 4355 N 410.912 0.523116 1.48665 0
M  V30 4356 C 411.86 -0.256859 2.31177 0
M  V30 4357 C 412.854 -0.94199 1.40794 0
M  V30 4358 O 414.06 -0.867157 1.57735 0
M  V30 4359 H 410.435 -0.1017 0.745091 0
M  V30 4360 H 412.406 0.458739 2.94853 0
M  V30 4361 C 411.155 -1.29503 3.22683 0
M  V30 4362 H 410.478 -0.777248 3.92172 0
M  V30 4363 H 411.918 -1.81233 3.83315 0
M  V30 4364 C 410.377 -2.32501 2.43813 0
M  V30 4365 O 410.907 -3.3881 2.15803 0
M  V30 4366 N 409.113 -2.05538 2.05432 0
M  V30 4367 H 408.66 -1.19104 2.28412 0
M  V30 4368 H 408.618 -2.74676 1.52973 0
M  V30 4369 N 412.39 -1.55475 0.257931 0
M  V30 4370 C 413.338 -2.23244 -0.653076 0
M  V30 4371 C 414.332 -1.22366 -1.17144 0
M  V30 4372 O 415.538 -1.40347 -1.12706 0
M  V30 4373 H 411.913 -0.716247 -0.229117 0
M  V30 4374 H 413.884 -2.98343 -0.0584788 0
M  V30 4375 C 412.633 -2.95401 -1.83395 0
M  V30 4376 H 411.956 -3.72802 -1.44424 0
M  V30 4377 H 413.396 -3.46165 -2.44838 0
M  V30 4378 C 411.855 -1.99895 -2.71189 0
M  V30 4379 O 412.385 -1.53909 -3.71046 0
M  V30 4380 N 410.591 -1.6676 -2.3799 0
M  V30 4381 H 410.138 -2.04352 -1.56837 0
M  V30 4382 H 410.096 -1.03127 -2.97005 0
M  V30 4383 N 413.868 0.0150385 -1.57593 0
M  V30 4384 C 415.114 0.704043 -1.90187 0
M  V30 4385 C 415.447 1.74249 -0.857366 0
M  V30 4386 O 414.722 1.94092 0.125843 0
M  V30 4387 C 415.005 1.36087 -3.33395 0
M  V30 4388 C 414.858 0.334981 -4.48551 0
M  V30 4389 C 416.177 2.29112 -3.7576 0
M  V30 4390 H 413.296 0.254475 -0.691673 0
M  V30 4391 H 415.938 -0.0331678 -1.89971 0
M  V30 4392 H 414.088 1.98922 -3.3371 0
M  V30 4393 H 415.76 -0.292534 -4.60372 0
M  V30 4394 H 414.003 -0.344325 -4.32431 0
M  V30 4395 H 414.674 0.833316 -5.45674 0
M  V30 4396 H 417.15 1.76308 -3.76902 0
M  V30 4397 H 416.026 2.72043 -4.76743 0
M  V30 4398 H 416.287 3.16385 -3.08793 0
M  V30 4399 N 415.346 1.54954 0.287554 0
M  V30 4400 C 416.293 1.86834 1.35505 0
M  V30 4401 C 417.263 0.718452 1.49758 0
M  V30 4402 O 418.448 0.968358 1.644 0
M  V30 4403 C 415.588 2.13303 2.71286 0
M  V30 4404 C 414.701 3.40883 2.65373 0
M  V30 4405 C 413.836 3.57125 3.93236 0
M  V30 4406 C 412.875 4.78449 3.81776 0
M  V30 4407 N 412.012 4.91426 5.01443 0
M  V30 4408 H 416.852 2.77889 1.07619 0
M  V30 4409 H 414.389 1.37593 0.520241 0
M  V30 4410 H 416.347 2.26646 3.50267 0
M  V30 4411 H 414.977 1.25499 2.97405 0
M  V30 4412 H 414.029 3.36088 1.78182 0
M  V30 4413 H 415.341 4.29993 2.52799 0
M  V30 4414 H 414.495 3.70207 4.80658 0
M  V30 4415 H 413.234 2.66173 4.0866 0
M  V30 4416 H 412.239 4.65386 2.92738 0
M  V30 4417 H 413.464 5.70822 3.67884 0
M  V30 4418 H 411.41 4.03401 5.17304 0
M  V30 4419 H 411.327 5.74559 4.91343 0
M  V30 4420 H 412.595 5.08879 5.90477 0
M  V30 4421 N 416.824 -0.551391 1.4764 0
M  V30 4422 C 418.052 -1.33357 1.58189 0
M  V30 4423 C 418.467 -1.87342 0.234199 0
M  V30 4424 O 417.824 -1.65301 -0.77343 0
M  V30 4425 C 417.875 -2.49942 2.61173 0
M  V30 4426 O 417.596 -1.98187 3.90709 0
M  V30 4427 C 419.097 -3.42072 2.8196 0
M  V30 4428 H 416.317 -0.40631 0.533998 0
M  V30 4429 H 418.861 -0.667367 1.93304 0
M  V30 4430 H 417.016 -3.12489 2.28975 0
M  V30 4431 H 417.43 -2.74342 4.47031 0
M  V30 4432 H 418.904 -4.20278 3.57869 0
M  V30 4433 H 419.381 -3.95978 1.89995 0
M  V30 4434 H 419.987 -2.85336 3.15378 0
M  V30 4435 N 418.302 -1.35869 -0.798587 0
M  V30 4436 C 419.551 -1.28921 -1.5512 0
M  V30 4437 C 419.864 0.13208 -1.95154 0
M  V30 4438 O 421.07 0.323879 -2.69561 0
M  V30 4439 C 419.526 -2.26141 -2.79979 0
M  V30 4440 C 419.134 -3.73658 -2.47151 0
M  V30 4441 C 420.878 -2.28152 -3.57976 0
M  V30 4442 C 418.785 -4.62679 -3.6835 0
M  V30 4443 H 417.715 -0.479031 -0.582276 0
M  V30 4444 H 420.366 -1.61179 -0.877125 0
M  V30 4445 H 418.748 -1.86865 -3.49138 0
M  V30 4446 H 419.922 -4.21616 -1.85947 0
M  V30 4447 H 418.237 -3.74333 -1.82383 0
M  V30 4448 H 420.834 -2.91875 -4.4801 0
M  V30 4449 H 421.177 -1.28748 -3.95891 0
M  V30 4450 H 421.71 -2.65998 -2.95787 0
M  V30 4451 H 418.449 -5.63111 -3.35538 0
M  V30 4452 H 417.969 -4.19442 -4.28752 0
M  V30 4453 H 419.648 -4.78498 -4.35487 0
M  V30 4454 N 419.78 1.02168 -1.19998 0
M  V30 4455 C 421.029 1.75091 -1.0013 0
M  V30 4456 C 421.342 1.89923 0.467835 0
M  V30 4457 O 422.548 2.59888 0.785515 0
M  V30 4458 C 421.004 3.14892 -1.74273 0
M  V30 4459 C 420.612 3.0809 -3.25245 0
M  V30 4460 C 422.356 3.9206 -1.62755 0
M  V30 4461 C 420.263 4.42867 -3.91948 0
M  V30 4462 H 419.193 0.656394 -0.37103 0
M  V30 4463 H 421.844 1.14284 -1.43567 0
M  V30 4464 H 420.226 3.7621 -1.2362 0
M  V30 4465 H 421.4 2.5611 -3.83072 0
M  V30 4466 H 419.715 2.44416 -3.3712 0
M  V30 4467 H 422.312 4.91764 -2.09934 0
M  V30 4468 H 422.655 4.12199 -0.582894 0
M  V30 4469 H 423.188 3.37359 -2.10793 0
M  V30 4470 H 419.927 4.27931 -4.96543 0
M  V30 4471 H 419.447 4.94874 -3.3891 0
M  V30 4472 H 421.126 5.11728 -3.95909 0
M  V30 4473 N 421.258 1.00505 1.21394 0
M  V30 4474 C 422.504 0.688793 1.90745 0
M  V30 4475 C 422.837 -0.778486 1.77914 0
M  V30 4476 O 422.112 -1.56433 1.15581 0
M  V30 4477 C 422.395 1.11063 3.42545 0
M  V30 4478 C 422.248 2.63737 3.64367 0
M  V30 4479 C 423.567 0.673059 4.34923 0
M  V30 4480 H 420.686 0.251702 0.692687 0
M  V30 4481 H 423.328 1.25074 1.43026 0
M  V30 4482 H 421.478 0.632508 3.83317 0
M  V30 4483 H 423.15 3.19313 3.32922 0
M  V30 4484 H 421.393 3.05248 3.08231 0
M  V30 4485 H 422.064 2.88305 4.70727 0
M  V30 4486 H 424.54 1.08392 4.01734 0
M  V30 4487 H 423.416 0.996383 5.39781 0
M  V30 4488 H 423.677 -0.425808 4.40045 0
M  V30 4489 N 422.737 -1.36956 0.779787 0
M  V30 4490 C 423.669 -2.28833 0.129639 0
M  V30 4491 C 424.682 -1.4902 -0.655511 0
M  V30 4492 O 425.871 -1.71578 -0.492279 0
M  V30 4493 C 422.971 -3.2833 -0.839792 0
M  V30 4494 C 422.144 -4.3727 -0.10675 0
M  V30 4495 C 421.203 -5.16789 -0.990717 0
M  V30 4496 O 420.229 -5.67406 -0.451516 0
M  V30 4497 N 421.431 -5.32294 -2.3161 0
M  V30 4498 H 424.196 -2.85268 0.918803 0
M  V30 4499 H 421.757 -1.49019 0.632841 0
M  V30 4500 H 423.749 -3.78413 -1.43477 0
M  V30 4501 H 422.319 -2.72605 -1.52988 0
M  V30 4502 H 421.539 -3.88478 0.669216 0
M  V30 4503 H 422.827 -5.07229 0.399464 0
M  V30 4504 H 422.225 -4.92768 -2.77843 0
M  V30 4505 H 420.782 -5.85656 -2.86095 0
M  V30 4506 N 424.215 -0.530993 -1.48385 0
M  V30 4507 C 425.145 0.219985 -2.32461 0
M  V30 4508 C 426.126 0.934111 -1.42156 0
M  V30 4509 O 427.311 0.919694 -1.71042 0
M  V30 4510 C 424.441 1.26674 -3.23375 0
M  V30 4511 C 423.395 0.67069 -4.22712 0
M  V30 4512 C 422.721 1.82017 -5.02766 0
M  V30 4513 C 424.021 -0.358268 -5.2107 0
M  V30 4514 H 425.715 -0.48187 -2.95497 0
M  V30 4515 H 423.261 -0.233182 -1.42099 0
M  V30 4516 H 425.214 1.80006 -3.81019 0
M  V30 4517 H 423.938 1.99818 -2.58341 0
M  V30 4518 H 422.597 0.158878 -3.66256 0
M  V30 4519 H 422.245 2.54002 -4.34157 0
M  V30 4520 H 421.945 1.42727 -5.70003 0
M  V30 4521 H 423.469 2.35725 -5.63264 0
M  V30 4522 H 424.883 0.0880081 -5.73232 0
M  V30 4523 H 423.28 -0.66861 -5.96364 0
M  V30 4524 H 424.35 -1.26367 -4.68145 0
M  V30 4525 N 425.693 1.55336 -0.266172 0
M  V30 4526 C 426.641 2.23587 0.641228 0
M  V30 4527 C 427.635 1.22986 1.16494 0
M  V30 4528 O 428.841 1.40943 1.1196 0
M  V30 4529 H 425.216 0.717452 0.225315 0
M  V30 4530 H 427.187 2.9837 0.0426561 0
M  V30 4531 C 425.936 2.96369 1.81826 0
M  V30 4532 H 425.259 3.73563 1.42445 0
M  V30 4533 H 426.699 3.47459 2.42998 0
M  V30 4534 C 425.158 2.0133 2.70125 0
M  V30 4535 O 425.688 1.55875 3.70224 0
M  V30 4536 N 423.894 1.6802 2.37102 0
M  V30 4537 H 423.441 2.05181 1.55751 0
M  V30 4538 H 423.399 1.047 2.96454 0
M  V30 4539 N 427.171 -0.0066808 1.57599 0
M  V30 4540 C 428.081 -1.01671 2.11424 0
M  V30 4541 C 429.097 -1.38143 1.05795 0
M  V30 4542 O 430.273 -1.47011 1.37658 0
M  V30 4543 C 427.338 -2.29192 2.60139 0
M  V30 4544 C 426.399 -1.99094 3.80342 0
M  V30 4545 C 425.632 -3.20535 4.26724 0
M  V30 4546 O 425.855 -4.3199 3.72479 0
M  V30 4547 O 424.789 -3.04924 5.18946 0
M  V30 4548 H 428.615 -0.589181 2.9793 0
M  V30 4549 H 426.2 -0.225091 1.47695 0
M  V30 4550 H 428.082 -3.0412 2.917 0
M  V30 4551 H 426.757 -2.71195 1.76733 0
M  V30 4552 H 425.664 -1.21663 3.53764 0
M  V30 4553 H 426.997 -1.61931 4.648 0
M  V30 4554 N 428.649 -1.55105 -0.279332 0
M  V30 4555 C 429.874 -1.7976 -1.03446 0
M  V30 4556 C 430.299 -0.565952 -1.79384 0
M  V30 4557 O 429.657 0.484259 -1.74713 0
M  V30 4558 C 429.705 -3.0179 -1.97371 0
M  V30 4559 O 428.809 -2.76432 -3.06038 0
M  V30 4560 H 428.15 -0.594334 -0.29608 0
M  V30 4561 H 430.68 -2.02235 -0.310165 0
M  V30 4562 H 430.69 -3.30351 -2.39441 0
M  V30 4563 H 429.365 -3.91085 -1.4151 0
M  V30 4564 H 427.942 -2.58949 -2.68328 0
M  V30 4565 N 430.127 0.543554 -1.4793 0
M  V30 4566 C 431.373 1.30201 -1.55485 0
M  V30 4567 C 431.706 1.92925 -0.222201 0
M  V30 4568 O 430.981 1.78586 0.77053 0
M  V30 4569 C 431.264 2.40174 -2.68307 0
M  V30 4570 C 431.117 1.8223 -4.11233 0
M  V30 4571 C 432.436 3.42024 -2.76961 0
M  V30 4572 H 429.555 0.472036 -0.565996 0
M  V30 4573 H 432.197 0.606914 -1.80046 0
M  V30 4574 H 430.347 2.99463 -2.47495 0
M  V30 4575 H 432.019 1.27096 -4.43446 0
M  V30 4576 H 430.262 1.12832 -4.18869 0
M  V30 4577 H 430.933 2.61793 -4.85972 0
M  V30 4578 H 433.409 2.92672 -2.95774 0
M  V30 4579 H 432.285 4.16383 -3.57654 0
M  V30 4580 H 432.546 4.0173 -1.84568 0
M  V30 4581 N 431.605 1.3629 0.791371 0
M  V30 4582 C 432.515 1.32606 1.93527 0
M  V30 4583 C 433.531 0.228541 1.72493 0
M  V30 4584 O 434.707 0.460571 1.96063 0
M  V30 4585 C 431.772 1.11271 3.28359 0
M  V30 4586 C 430.833 2.3048 3.62185 0
M  V30 4587 C 430.066 2.10154 4.90583 0
M  V30 4588 O 430.289 1.07572 5.60165 0
M  V30 4589 O 429.223 2.97884 5.23019 0
M  V30 4590 H 433.049 2.28909 1.99585 0
M  V30 4591 H 430.634 1.16818 0.931344 0
M  V30 4592 H 432.516 1.01283 4.09047 0
M  V30 4593 H 431.191 0.180292 3.23198 0
M  V30 4594 H 430.098 2.46036 2.81811 0
M  V30 4595 H 431.431 3.22221 3.72068 0
M  V30 4596 N 433.083 -1.0153 1.20538 0
M  V30 4597 C 434.332 -1.74558 1.01057 0
M  V30 4598 C 434.645 -1.90168 -0.457756 0
M  V30 4599 O 435.851 -2.60301 -0.771722 0
M  V30 4600 C 434.307 -3.13963 1.75941 0
M  V30 4601 C 433.915 -3.06361 3.26875 0
M  V30 4602 C 435.659 -3.91191 1.64832 0
M  V30 4603 C 433.566 -4.40782 3.94291 0
M  V30 4604 H 432.496 -0.654417 0.374505 0
M  V30 4605 H 435.147 -1.13521 1.44171 0
M  V30 4606 H 433.529 -3.75549 1.25614 0
M  V30 4607 H 434.703 -2.54074 3.84425 0
M  V30 4608 H 433.018 -2.42625 3.38411 0
M  V30 4609 H 435.615 -4.90644 2.12539 0
M  V30 4610 H 435.958 -4.11884 0.604745 0
M  V30 4611 H 436.491 -3.36236 2.12579 0
M  V30 4612 H 433.23 -4.25292 4.98805 0
M  V30 4613 H 432.75 -4.9307 3.41529 0
M  V30 4614 H 434.429 -5.09621 3.98617 0
M  V30 4615 N 434.561 -1.01147 -1.20859 0
M  V30 4616 C 435.509 -0.57059 -2.25493 0
M  V30 4617 C 436.503 0.388109 -1.64894 0
M  V30 4618 O 437.709 0.258592 -1.78133 0
M  V30 4619 H 434.084 -0.166191 -0.733406 0
M  V30 4620 H 436.055 -1.46411 -2.60012 0
M  V30 4621 C 434.804 0.0805241 -3.47607 0
M  V30 4622 H 434.127 -0.648156 -3.94511 0
M  V30 4623 H 435.567 0.352197 -4.22535 0
M  V30 4624 C 434.026 1.32175 -3.09889 0
M  V30 4625 O 434.556 2.41553 -3.20959 0
M  V30 4626 N 432.762 1.20392 -2.64488 0
M  V30 4627 H 432.309 0.313905 -2.5568 0
M  V30 4628 H 432.267 2.03541 -2.39621 0
M  V30 4629 N 436.039 1.36541 -0.78704 0
M  V30 4630 C 437.279 2.01138 -0.363714 0
M  V30 4631 C 437.643 1.61114 1.04433 0
M  V30 4632 O 438.844 2.18285 1.56861 0
M  V30 4633 C 437.115 3.53603 -0.519582 0
M  V30 4634 S 438.674 4.38415 -0.183782 0
M  V30 4635 H 435.492 0.697263 -0.13909 0
M  V30 4636 H 438.094 1.66475 -1.02501 0
M  V30 4637 H 436.798 3.8022 -1.5447 0
M  V30 4638 H 436.329 3.93084 0.15773 0
M  V30 4639 H 438.344 4.85698 1.01547 0
M  V30 4640 N 437.518 0.538854 1.48102 0
M  V30 4641 C 438.746 0.0123136 2.06896 0
M  V30 4642 C 439.161 -1.27312 1.39417 0
M  V30 4643 O 438.518 -1.75949 0.484582 0
M  V30 4644 C 438.569 -0.206118 3.60912 0
M  V30 4645 O 438.29 1.0284 4.25859 0
M  V30 4646 C 439.791 -0.772033 4.36526 0
M  V30 4647 H 437.011 0.0375239 0.66995 0
M  V30 4648 H 439.555 0.747032 1.90367 0
M  V30 4649 H 437.71 -0.89091 3.77017 0
M  V30 4650 H 438.124 0.814654 5.18135 0
M  V30 4651 H 439.598 -0.874251 5.45033 0
M  V30 4652 H 440.075 -1.77904 4.01555 0
M  V30 4653 H 440.681 -0.123526 4.25121 0
M  V30 4654 N 438.996 -1.55193 0.274407 0
M  V30 4655 C 440.412 -1.59401 -0.0797543 0
M  V30 4656 C 440.612 -1.29162 -1.54659 0
M  V30 4657 O 439.668 -1.05215 -2.29534 0
M  V30 4658 C 440.981 -2.99257 0.294238 0
M  V30 4659 C 442.529 -3.12072 0.240796 0
M  V30 4660 C 443.004 -4.54194 0.589218 0
M  V30 4661 N 444.495 -4.60033 0.540744 0
M  V30 4662 C 445.23 -5.68027 0.783147 0
M  V30 4663 N 444.726 -6.8417 1.09013 0
M  V30 4664 N 446.519 -5.57572 0.711993 0
M  V30 4665 H 438.67 -1.73113 1.23067 0
M  V30 4666 H 440.933 -0.807197 0.497129 0
M  V30 4667 H 440.639 -3.26217 1.31435 0
M  V30 4668 H 440.513 -3.75427 -0.365281 0
M  V30 4669 H 442.9 -2.84877 -0.770024 0
M  V30 4670 H 442.981 -2.38117 0.934563 0
M  V30 4671 H 442.625 -4.82115 1.59772 0
M  V30 4672 H 442.555 -5.26448 -0.126331 0
M  V30 4673 H 445.046 -3.76599 0.313327 0
M  V30 4674 H 445.359 -7.6243 1.26178 0
M  V30 4675 H 443.704 -6.85787 1.12789 0
M  V30 4676 H 446.895 -4.65714 0.472014 0
M  V30 4677 H 447.068 -6.41659 0.90429 0
M  V30 4678 N 440.474 -0.00167713 -1.576 0
M  V30 4679 C 441.885 0.54091 -1.78693 0
M  V30 4680 C 442.236 1.7386 -0.909247 0
M  V30 4681 O 441.361 2.16109 -0.112176 0
M  V30 4682 C 441.956 0.98806 -3.24072 0
M  V30 4683 C 440.515 1.47594 -3.46256 0
M  V30 4684 C 439.662 0.42792 -2.73978 0
M  V30 4685 H 442.613 -0.22784 -1.57056 0
M  V30 4686 H 442.634 1.85398 -3.32277 0
M  V30 4687 H 442.146 0.116164 -3.87926 0
M  V30 4688 H 440.247 2.36868 -2.87618 0
M  V30 4689 H 440.36 1.50225 -4.54939 0
M  V30 4690 H 438.724 0.889934 -2.38647 0
M  V30 4691 H 439.507 -0.435038 -3.40532 0
M  V30 4692 N 441.952 1.55251 0.271103 0
M  V30 4693 C 442.9 1.89054 1.35504 0
M  V30 4694 C 443.894 0.767064 1.51038 0
M  V30 4695 O 445.1 0.951429 1.528 0
M  V30 4696 H 441.475 0.600072 0.45323 0
M  V30 4697 H 443.446 2.79598 1.04247 0
M  V30 4698 C 442.195 2.18068 2.70817 0
M  V30 4699 H 441.518 3.04005 2.59656 0
M  V30 4700 H 442.958 2.4564 3.45597 0
M  V30 4701 C 441.417 0.988901 3.2206 0
M  V30 4702 O 441.947 0.224501 4.01072 0
M  V30 4703 N 440.153 0.786085 2.79766 0
M  V30 4704 H 439.7 1.40937 2.15626 0
M  V30 4705 H 439.658 -0.00969349 3.14399 0
M  V30 4706 N 443.43 -0.535701 1.48216 0
M  V30 4707 C 444.378 -1.66179 1.62749 0
M  V30 4708 C 445.372 -1.62034 0.49409 0
M  V30 4709 O 446.578 -1.6696 0.672624 0
M  V30 4710 H 442.953 -0.550244 0.512578 0
M  V30 4711 H 444.924 -1.51063 2.57337 0
M  V30 4712 C 443.673 -3.04471 1.67907 0
M  V30 4713 H 442.996 -3.08351 2.54479 0
M  V30 4714 H 444.436 -3.82894 1.82121 0
M  V30 4715 C 442.895 -3.34314 0.416596 0
M  V30 4716 O 443.425 -3.98905 -0.473014 0
M  V30 4717 N 441.631 -2.89149 0.290038 0
M  V30 4718 H 441.178 -2.36764 1.01493 0
M  V30 4719 H 441.136 -3.09486 -0.55367 0
M  V30 4720 N 444.908 -1.36708 -0.784132 0
M  V30 4721 C 445.856 -1.31533 -1.91838 0
M  V30 4722 C 446.85 -0.206205 -1.6814 0
M  V30 4723 O 448.056 -0.373519 -1.76082 0
M  V30 4724 H 444.431 -0.409613 -0.630651 0
M  V30 4725 H 446.402 -2.2731 -1.9332 0
M  V30 4726 C 445.151 -1.12679 -3.28936 0
M  V30 4727 H 444.474 -1.97274 -3.4774 0
M  V30 4728 H 445.914 -1.13106 -4.08636 0
M  V30 4729 C 444.373 0.168281 -3.36479 0
M  V30 4730 O 444.903 1.15625 -3.84699 0
M  V30 4731 N 443.109 0.214762 -2.89805 0
M  V30 4732 H 442.656 -0.589852 -2.50756 0
M  V30 4733 H 442.614 1.08094 -2.95234 0
M  V30 4734 N 446.386 1.0089 -1.21074 0
M  V30 4735 C 447.614 1.78191 -1.05145 0
M  V30 4736 C 448.029 1.84537 0.398952 0
M  V30 4737 O 447.386 1.30393 1.27687 0
M  V30 4738 C 447.437 3.22288 -1.63746 0
M  V30 4739 O 447.158 3.16315 -3.03111 0
M  V30 4740 C 448.659 4.16106 -1.52875 0
M  V30 4741 H 445.879 0.560129 -0.369454 0
M  V30 4742 H 448.423 1.26945 -1.60328 0
M  V30 4743 H 446.578 3.70655 -1.12664 0
M  V30 4744 H 446.992 4.06817 -3.31059 0
M  V30 4745 H 448.466 5.15026 -1.98626 0
M  V30 4746 H 448.943 4.36541 -0.482521 0
M  V30 4747 H 449.549 3.73625 -2.03185 0
M  V30 4748 N 447.864 1.01787 1.20321 0
M  V30 4749 C 449.28 0.732951 1.41774 0
M  V30 4750 C 449.48 -0.686883 1.89431 0
M  V30 4751 O 448.536 -1.45446 2.06402 0
M  V30 4752 C 449.849 1.75973 2.43832 0
M  V30 4753 C 451.397 1.77802 2.57596 0
M  V30 4754 C 451.872 2.7941 3.62897 0
M  V30 4755 N 453.363 2.78157 3.70382 0
M  V30 4756 C 454.098 3.53434 4.51521 0
M  V30 4757 N 453.594 4.38392 5.36455 0
M  V30 4758 N 455.387 3.42026 4.46066 0
M  V30 4759 H 447.538 1.93447 0.877035 0
M  V30 4760 H 449.801 0.835712 0.447536 0
M  V30 4761 H 449.507 2.77699 2.15815 0
M  V30 4762 H 449.381 1.57292 3.4284 0
M  V30 4763 H 451.768 0.767602 2.84942 0
M  V30 4764 H 451.849 2.00557 1.58779 0
M  V30 4765 H 451.493 3.80616 3.36295 0
M  V30 4766 H 451.423 2.53916 4.61339 0
M  V30 4767 H 453.914 2.16531 3.09714 0
M  V30 4768 H 454.227 4.92596 5.95457 0
M  V30 4769 H 452.572 4.4247 5.35953 0
M  V30 4770 H 455.763 2.75075 3.78749 0
M  V30 4771 H 455.936 4.00946 5.09064 0
M  V30 4772 N 449.342 -1.36122 0.79427 0
M  V30 4773 C 450.289 -2.29982 0.194101 0
M  V30 4774 C 451.259 -1.52214 -0.664833 0
M  V30 4775 O 452.444 -1.80702 -0.612498 0
M  V30 4776 C 449.584 -3.38706 -0.661244 0
M  V30 4777 C 448.697 -4.31456 0.216766 0
M  V30 4778 C 447.832 -5.27265 -0.645411 0
M  V30 4779 C 446.871 -6.11653 0.233756 0
M  V30 4780 N 446.008 -6.99636 -0.587682 0
M  V30 4781 H 450.848 -2.80722 0.999965 0
M  V30 4782 H 448.385 -1.38172 0.504677 0
M  V30 4783 H 450.343 -4.00394 -1.17219 0
M  V30 4784 H 448.973 -2.89274 -1.43249 0
M  V30 4785 H 448.025 -3.7088 0.845724 0
M  V30 4786 H 449.337 -4.90724 0.893973 0
M  V30 4787 H 448.491 -5.94266 -1.22198 0
M  V30 4788 H 447.23 -4.68463 -1.35623 0
M  V30 4789 H 446.235 -5.4361 0.82269 0
M  V30 4790 H 447.46 -6.72531 0.942247 0
M  V30 4791 H 445.406 -6.43337 -1.2827 0
M  V30 4792 H 445.323 -7.55993 0.0317402 0
M  V30 4793 H 446.591 -7.71001 -1.14792 0
M  V30 4794 N 450.82 -0.546701 -1.47814 0
M  V30 4795 C 452.236 -0.205717 -1.58269 0
M  V30 4796 C 452.436 1.29153 -1.54667 0
M  V30 4797 O 451.492 2.07098 -1.44453 0
M  V30 4798 C 452.805 -0.823065 -2.89216 0
M  V30 4799 C 454.353 -0.793328 -3.02779 0
M  V30 4800 C 454.828 -1.38955 -4.36412 0
M  V30 4801 N 456.319 -1.35227 -4.43021 0
M  V30 4802 C 457.054 -1.78333 -5.44963 0
M  V30 4803 N 456.55 -2.29246 -6.53772 0
M  V30 4804 N 458.343 -1.69467 -5.35945 0
M  V30 4805 H 450.494 -1.5196 -1.48398 0
M  V30 4806 H 452.757 -0.633078 -0.705632 0
M  V30 4807 H 452.463 -1.8749 -2.97558 0
M  V30 4808 H 452.337 -0.309915 -3.75925 0
M  V30 4809 H 454.724 0.249784 -2.94041 0
M  V30 4810 H 454.805 -1.34412 -2.17639 0
M  V30 4811 H 454.449 -2.43168 -4.45906 0
M  V30 4812 H 454.379 -0.814291 -5.20266 0
M  V30 4813 H 456.87 -0.979739 -3.64979 0
M  V30 4814 H 457.183 -2.60089 -7.27718 0
M  V30 4815 H 455.528 -2.3325 -6.5469 0
M  V30 4816 H 458.719 -1.29477 -4.49837 0
M  V30 4817 H 458.892 -2.03381 -6.15256 0
M  V30 4818 N 452.299 1.55045 -0.282633 0
M  V30 4819 C 453.548 1.98938 0.332667 0
M  V30 4820 C 453.861 1.17455 1.56409 0
M  V30 4821 O 455.067 1.51527 2.25282 0
M  V30 4822 C 453.523 3.54105 0.643226 0
M  V30 4823 C 453.131 4.44374 -0.568814 0
M  V30 4824 C 454.875 4.06569 1.22074 0
M  V30 4825 C 452.782 5.90943 -0.232426 0
M  V30 4826 H 451.712 0.743043 0.128075 0
M  V30 4827 H 454.363 1.79341 -0.388464 0
M  V30 4828 H 452.745 3.69532 1.42346 0
M  V30 4829 H 453.919 4.40718 -1.34551 0
M  V30 4830 H 452.234 4.02585 -1.06369 0
M  V30 4831 H 454.831 5.13626 1.48635 0
M  V30 4832 H 455.174 3.56057 2.15707 0
M  V30 4833 H 455.707 3.94612 0.502621 0
M  V30 4834 H 452.446 6.45567 -1.13683 0
M  V30 4835 H 451.966 5.9765 0.507357 0
M  V30 4836 H 453.645 6.4677 0.172657 0
M  V30 4837 N 453.777 0.010035 1.57597 0
M  V30 4838 C 455.005 -0.683413 1.95287 0
M  V30 4839 C 455.42 -1.66747 0.885481 0
M  V30 4840 O 454.777 -1.82003 -0.134629 0
M  V30 4841 C 454.828 -1.40652 3.33015 0
M  V30 4842 O 454.549 -0.461916 4.35658 0
M  V30 4843 C 456.05 -2.19356 3.85225 0
M  V30 4844 H 453.27 -0.189708 0.643624 0
M  V30 4845 H 455.814 0.0641359 2.04399 0
M  V30 4846 H 453.969 -2.10562 3.2518 0
M  V30 4847 H 454.383 -0.973215 5.15392 0
M  V30 4848 H 455.857 -2.65433 4.83993 0
M  V30 4849 H 456.334 -3.02457 3.18459 0
M  V30 4850 H 456.94 -1.54442 3.96267 0
M  V30 4851 N 455.255 -1.55392 -0.262866 0
M  V30 4852 C 456.188 -1.8391 -1.35101 0
M  V30 4853 C 457.166 -0.692901 -1.47097 0
M  V30 4854 O 458.35 -0.936979 -1.63563 0
M  V30 4855 C 455.477 -2.00969 -2.72634 0
M  V30 4856 C 454.523 -3.23559 -2.7787 0
M  V30 4857 S 455.356 -4.80647 -2.3609 0
M  V30 4858 C 456.512 -5.00692 -3.75578 0
M  V30 4859 H 456.745 -2.75918 -1.1071 0
M  V30 4860 H 454.278 -1.47294 -0.463029 0
M  V30 4861 H 456.236 -2.11482 -3.51832 0
M  V30 4862 H 454.897 -1.09832 -2.94272 0
M  V30 4863 H 454.09 -3.32413 -3.78837 0
M  V30 4864 H 453.692 -3.11689 -2.06702 0
M  V30 4865 H 455.984 -4.87055 -4.70939 0
M  V30 4866 H 456.927 -6.02717 -3.71669 0
M  V30 4867 H 457.335 -4.28619 -3.6735 0
M  V30 4868 N 456.733 0.527833 -1.48498 0
M  V30 4869 C 457.981 1.28101 -1.56316 0
M  V30 4870 C 458.302 1.9352 -0.239781 0
M  V30 4871 O 457.572 1.81433 0.738849 0
M  V30 4872 H 456.152 0.475793 -0.575873 0
M  V30 4873 H 458.814 0.614052 -1.84974 0
M  V30 4874 H 457.91 2.05916 -2.34532 0
M  V30 4875 N 458.211 1.37122 0.776871 0
M  V30 4876 C 459.622 1.28667 1.35284 0
M  V30 4877 C 459.973 -0.0680035 1.96082 0
M  V30 4878 O 459.098 -0.969743 1.93455 0
M  V30 4879 C 459.693 2.32997 2.45963 0
M  V30 4880 C 458.252 2.28191 2.99342 0
M  V30 4881 C 457.399 2.17101 1.72517 0
M  V30 4882 H 460.35 1.47819 0.577527 0
M  V30 4883 H 460.371 1.97366 3.2531 0
M  V30 4884 H 459.883 3.3158 2.01684 0
M  V30 4885 H 457.984 1.33115 3.4801 0
M  V30 4886 H 458.097 3.21397 3.55304 0
M  V30 4887 H 456.461 1.63562 1.95242 0
M  V30 4888 H 457.244 3.17591 1.30348 0
M  V30 4889 N 459.689 -1.00246 1.21608 0
M  V30 4890 C 460.937 -1.73717 1.0328 0
M  V30 4891 C 461.258 -1.90102 -0.434318 0
M  V30 4892 O 460.528 -1.45376 -1.31311 0
M  V30 4893 H 459.108 -0.643613 0.379172 0
M  V30 4894 H 461.77 -1.20787 1.52959 0
M  V30 4895 H 460.866 -2.73535 1.50283 0
M  V30 4896 N 461.167 -1.02423 -1.1978 0
M  V30 4897 C 462.583 -0.740459 -1.41384 0
M  V30 4898 C 462.783 0.676827 -1.89793 0
M  V30 4899 O 461.839 1.4435 -2.0717 0
M  V30 4900 C 463.152 -1.77264 -2.42895 0
M  V30 4901 C 464.7 -1.79165 -2.56649 0
M  V30 4902 C 465.175 -2.8133 -3.6141 0
M  V30 4903 N 466.666 -2.80118 -3.68901 0
M  V30 4904 C 467.401 -3.55824 -4.49641 0
M  V30 4905 N 466.897 -4.41231 -5.34123 0
M  V30 4906 N 468.69 -3.44387 -4.44246 0
M  V30 4907 H 460.841 -1.9391 -0.866764 0
M  V30 4908 H 463.104 -0.838074 -0.443098 0
M  V30 4909 H 462.81 -2.7884 -2.14339 0
M  V30 4910 H 462.684 -1.59108 -3.42001 0
M  V30 4911 H 465.071 -0.782702 -2.84531 0
M  V30 4912 H 465.152 -2.01396 -1.57713 0
M  V30 4913 H 464.796 -3.82394 -3.34271 0
M  V30 4914 H 464.726 -2.56359 -4.59986 0
M  V30 4915 H 467.217 -2.1817 -3.08562 0
M  V30 4916 H 467.53 -4.95747 -5.92836 0
M  V30 4917 H 465.875 -4.45306 -5.33599 0
M  V30 4918 H 469.066 -2.7708 -3.77285 0
M  V30 4919 H 469.239 -4.0364 -5.06931 0
M  V30 4920 N 462.645 1.35699 -0.801477 0
M  V30 4921 C 463.891 1.99208 -0.380022 0
M  V30 4922 C 464.224 1.63445 1.04878 0
M  V30 4923 O 463.499 0.895223 1.72673 0
M  V30 4924 C 463.782 3.55755 -0.557708 0
M  V30 4925 C 463.635 4.01332 -2.03107 0
M  V30 4926 C 464.954 4.40096 0.0197968 0
M  V30 4927 H 462.073 0.723667 -0.139552 0
M  V30 4928 H 464.715 1.60928 -1.01006 0
M  V30 4929 H 462.865 3.88494 -0.0213741 0
M  V30 4930 H 464.537 3.79026 -2.62939 0
M  V30 4931 H 462.78 3.52429 -2.52936 0
M  V30 4932 H 463.451 5.10234 -2.1063 0
M  V30 4933 H 465.927 4.13786 -0.438179 0
M  V30 4934 H 464.803 5.48735 -0.134477 0
M  V30 4935 H 465.064 4.2786 1.11303 0
M  V30 4936 N 464.123 0.554532 1.47522 0
M  V30 4937 C 465.353 0.0342074 2.06572 0
M  V30 4938 C 465.761 -1.26375 1.40805 0
M  V30 4939 O 465.104 -1.7683 0.49769 0
M  V30 4940 C 465.166 -0.235096 3.5873 0
M  V30 4941 C 464.83 0.973024 4.46521 0
M  V30 4942 C 465.827 1.8779 4.848 0
M  V30 4943 C 463.512 1.18694 4.88075 0
M  V30 4944 C 465.506 2.98039 5.63428 0
M  V30 4945 C 463.193 2.29254 5.66468 0
M  V30 4946 C 464.191 3.18757 6.04055 0
M  V30 4947 O 463.879 4.27401 6.8087 0
M  V30 4948 H 463.611 0.041587 0.67472 0
M  V30 4949 H 466.165 0.766748 1.90552 0
M  V30 4950 H 464.395 -1.02191 3.72953 0
M  V30 4951 H 466.084 -0.700477 3.9981 0
M  V30 4952 H 466.85 1.72467 4.53299 0
M  V30 4953 H 462.729 0.49947 4.58286 0
M  V30 4954 H 466.273 3.67926 5.92685 0
M  V30 4955 H 462.17 2.4455 5.97382 0
M  V30 4956 H 462.938 4.25415 6.9926 0
M  V30 4957 N 465.601 -1.54893 0.290851 0
M  V30 4958 C 466.831 -2.04047 -0.323818 0
M  V30 4959 C 467.239 -1.16809 -1.48837 0
M  V30 4960 O 466.582 -0.184145 -1.82775 0
M  V30 4961 C 466.644 -3.49248 -0.852395 0
M  V30 4962 C 466.308 -4.56623 0.185557 0
M  V30 4963 C 467.305 -5.09985 1.01053 0
M  V30 4964 C 464.99 -5.01252 0.324332 0
M  V30 4965 C 466.984 -6.06507 1.96031 0
M  V30 4966 C 464.671 -5.97596 1.27757 0
M  V30 4967 C 465.669 -6.50107 2.09405 0
M  V30 4968 O 465.357 -7.44565 3.03114 0
M  V30 4969 H 465.089 -0.671735 -0.0758129 0
M  V30 4970 H 467.643 -2.00947 0.425393 0
M  V30 4971 H 465.873 -3.49639 -1.65195 0
M  V30 4972 H 467.562 -3.81654 -1.38185 0
M  V30 4973 H 468.328 -4.76307 0.914129 0
M  V30 4974 H 464.207 -4.60015 -0.301213 0
M  V30 4975 H 467.751 -6.47418 2.598 0
M  V30 4976 H 463.648 -6.30691 1.37473 0
M  V30 4977 H 464.416 -7.62334 2.97976 0
M  V30 4978 N 467.08 -0.0183926 -1.57589 0
M  V30 4979 C 468.308 0.673046 -1.95647 0
M  V30 4980 C 468.723 1.66275 -0.894312 0
M  V30 4981 O 468.08 1.82072 0.124975 0
M  V30 4982 C 468.131 1.38884 -3.33756 0
M  V30 4983 O 467.852 0.438806 -4.35897 0
M  V30 4984 C 469.353 2.1731 -3.86383 0
M  V30 4985 H 466.573 0.186292 -0.644621 0
M  V30 4986 H 469.117 -0.0749748 -2.04363 0
M  V30 4987 H 467.272 2.08835 -3.26293 0
M  V30 4988 H 467.686 0.945869 -5.15901 0
M  V30 4989 H 469.16 2.62863 -4.85394 0
M  V30 4990 H 469.637 3.00764 -3.20059 0
M  V30 4991 H 470.243 1.52339 -3.97081 0
M  V30 4992 N 468.558 1.5553 0.254621 0
M  V30 4993 C 469.786 1.81046 1.00149 0
M  V30 4994 C 470.201 0.593047 1.79244 0
M  V30 4995 O 469.558 -0.438196 1.77161 0
M  V30 4996 C 469.609 3.04684 1.94551 0
M  V30 4997 O 469.33 4.21725 1.18658 0
M  V30 4998 C 470.831 3.42943 2.80901 0
M  V30 4999 H 468.051 0.602653 0.295044 0
M  V30 5000 H 470.595 2.02576 0.279842 0
M  V30 5001 H 468.75 2.85226 2.62154 0
M  V30 5002 H 469.164 4.91746 1.82445 0
M  V30 5003 H 470.638 4.32576 3.42902 0
M  V30 5004 H 471.115 2.63176 3.51617 0
M  V30 5005 H 471.721 3.64724 2.18762 0
M  V30 5006 N 470.036 -0.519951 1.48776 0
M  V30 5007 C 471.284 -1.2727 1.56993 0
M  V30 5008 C 471.605 -1.9339 0.25004 0
M  V30 5009 O 470.875 -1.81822 -0.729216 0
M  V30 5010 H 469.455 -0.472732 0.578389 0
M  V30 5011 H 472.117 -0.604234 1.85297 0
M  V30 5012 H 471.213 -2.04669 2.3562 0
M  V30 5013 N 471.514 -1.37532 -0.769588 0
M  V30 5014 C 472.446 -1.29347 -1.89214 0
M  V30 5015 C 473.459 -0.208842 -1.61455 0
M  V30 5016 O 474.648 -0.465158 -1.72333 0
M  V30 5017 C 471.748 -0.977649 -3.24492 0
M  V30 5018 C 470.921 -2.16817 -3.7988 0
M  V30 5019 C 469.98 -1.82229 -4.93639 0
M  V30 5020 O 469.006 -2.54548 -5.09111 0
M  V30 5021 N 470.208 -0.767696 -5.75401 0
M  V30 5022 H 472.973 -2.26073 -1.96751 0
M  V30 5023 H 470.534 -1.31185 -0.948795 0
M  V30 5024 H 472.526 -0.727065 -3.98115 0
M  V30 5025 H 471.096 -0.0988777 -3.12444 0
M  V30 5026 H 470.316 -2.58038 -2.9801 0
M  V30 5027 H 471.604 -2.96308 -4.13617 0
M  V30 5028 H 471.002 -0.167626 -5.65452 0
M  V30 5029 H 469.559 -0.576973 -6.49241 0
M  V30 5030 N 472.992 0.995999 -1.22138 0
M  V30 5031 C 474.241 1.72928 -1.03821 0
M  V30 5032 C 474.554 1.90872 0.427444 0
M  V30 5033 O 475.76 2.61496 0.730212 0
M  V30 5034 C 474.216 3.11124 -1.80913 0
M  V30 5035 C 473.824 3.01122 -3.31707 0
M  V30 5036 C 475.568 3.8852 -1.71035 0
M  V30 5037 C 473.475 4.34453 -4.01253 0
M  V30 5038 H 472.405 0.648376 -0.384869 0
M  V30 5039 H 475.056 1.11213 -1.45959 0
M  V30 5040 H 473.438 3.73503 -1.31573 0
M  V30 5041 H 474.612 2.47926 -3.88419 0
M  V30 5042 H 472.927 2.3721 -3.42228 0
M  V30 5043 H 475.524 4.872 -2.20318 0
M  V30 5044 H 475.867 4.1087 -0.670196 0
M  V30 5045 H 476.4 3.32812 -2.17902 0
M  V30 5046 H 473.139 4.17303 -5.05508 0
M  V30 5047 H 472.659 4.87574 -3.49331 0
M  V30 5048 H 474.338 5.03215 -4.06674 0
M  V30 5049 N 474.47 1.03057 1.19235 0
M  V30 5050 C 475.719 0.72326 1.88287 0
M  V30 5051 C 476.032 -0.751333 1.80594 0
M  V30 5052 O 477.238 -1.17176 2.44912 0
M  V30 5053 C 475.694 1.24338 3.3774 0
M  V30 5054 C 475.302 2.74587 3.53986 0
M  V30 5055 C 477.046 1.01213 4.12257 0
M  V30 5056 C 474.953 3.20009 4.97341 0
M  V30 5057 H 473.883 0.266848 0.705201 0
M  V30 5058 H 476.534 1.24509 1.34795 0
M  V30 5059 H 474.916 0.649457 3.90638 0
M  V30 5060 H 476.09 3.39649 3.11408 0
M  V30 5061 H 474.405 2.9601 2.9286 0
M  V30 5062 H 477.002 1.32675 5.17978 0
M  V30 5063 H 477.345 -0.051001 4.16269 0
M  V30 5064 H 477.878 1.57014 3.65501 0
M  V30 5065 H 474.617 4.25659 4.98493 0
M  V30 5066 H 474.137 2.59676 5.40674 0
M  V30 5067 H 475.816 3.13447 5.66003 0
M  V30 5068 N 475.948 -1.35272 0.808662 0
M  V30 5069 C 477.196 -1.98316 0.389233 0
M  V30 5070 C 477.517 -1.64465 -1.04767 0
M  V30 5071 O 476.787 -0.928175 -1.72516 0
M  V30 5072 H 475.367 -0.733585 0.140935 0
M  V30 5073 H 478.029 -1.6515 1.03496 0
M  V30 5074 H 477.125 -3.08123 0.496631 0
M  V30 5075 N 477.426 -0.562348 -1.47226 0
M  V30 5076 C 478.703 0.0256985 -1.95583 0
M  V30 5077 C 479.083 1.48032 -1.50498 0
M  V30 5078 O 478.431 2.15973 -0.746181 0
M  V30 5079 C 478.641 -0.125129 -3.48776 0
M  V30 5080 C 479.989 0.0175728 -4.24596 0
M  V30 5081 O 481.013 -0.0529341 -3.56161 0
M  V30 5082 O 479.872 0.170145 -5.46235 0
M  V30 5083 H 476.966 0.0612565 -0.824728 0
M  V30 5084 H 479.512 -0.629233 -1.57603 0
M  V30 5085 H 478.284 -1.13715 -3.74412 0
M  V30 5086 H 477.907 0.567178 -3.93534 0
M  V30 5087 N 478.904 1.54736 -0.299062 0
M  V30 5088 C 480.153 1.99279 0.311549 0
M  V30 5089 C 480.466 1.19107 1.55154 0
M  V30 5090 O 481.672 1.53908 2.23662 0
M  V30 5091 C 480.128 3.54768 0.605632 0
M  V30 5092 C 479.736 4.43746 -0.615914 0
M  V30 5093 C 481.48 4.07841 1.17754 0
M  V30 5094 C 479.387 5.90663 -0.29509 0
M  V30 5095 H 478.317 0.744359 0.120187 0
M  V30 5096 H 480.968 1.78919 -0.407464 0
M  V30 5097 H 479.35 3.71021 1.38419 0
M  V30 5098 H 480.524 4.39267 -1.39218 0
M  V30 5099 H 478.839 4.01434 -1.10633 0
M  V30 5100 H 481.436 5.15174 1.43179 0
M  V30 5101 H 481.779 3.58324 2.11918 0
M  V30 5102 H 482.312 3.95123 0.460739 0
M  V30 5103 H 479.051 6.44325 -1.20524 0
M  V30 5104 H 478.571 5.98155 0.44394 0
M  V30 5105 H 480.25 6.46916 0.104048 0
M  V30 5106 N 480.382 0.0267497 1.57577 0
M  V30 5107 C 481.798 -0.32962 1.56159 0
M  V30 5108 C 481.998 -1.73059 1.03213 0
M  V30 5109 O 481.054 -2.43233 0.677804 0
M  V30 5110 C 482.367 -0.18039 3.00158 0
M  V30 5111 C 483.915 -0.253334 3.11973 0
M  V30 5112 C 484.39 -0.132921 4.57807 0
M  V30 5113 N 485.881 -0.189979 4.6281 0
M  V30 5114 C 486.616 -0.120554 5.73273 0
M  V30 5115 N 486.112 -0.000180315 6.928 0
M  V30 5116 N 487.905 -0.174369 5.61829 0
M  V30 5117 H 480.056 0.942896 1.90324 0
M  V30 5118 H 482.319 0.3639 0.875375 0
M  V30 5119 H 482.025 0.784576 3.42837 0
M  V30 5120 H 481.899 -0.951565 3.65 0
M  V30 5121 H 484.286 -1.20876 2.69208 0
M  V30 5122 H 484.367 0.548177 2.49857 0
M  V30 5123 H 484.011 0.819073 5.01252 0
M  V30 5124 H 483.941 -0.953264 5.179 0
M  V30 5125 H 486.432 -0.283257 3.76837 0
M  V30 5126 H 486.745 0.0461666 7.72786 0
M  V30 5127 H 485.09 0.034569 6.94991 0
M  V30 5128 H 488.281 -0.266794 4.67339 0
M  V30 5129 H 488.454 -0.116802 6.47895 0
M  V30 5130 N 481.861 -1.55662 -0.24637 0
M  V30 5131 C 483.277 -1.48098 -0.594907 0
M  V30 5132 C 483.477 -0.717044 -1.8831 0
M  V30 5133 O 482.533 -0.246618 -2.51293 0
M  V30 5134 C 483.846 -2.92507 -0.697146 0
M  V30 5135 C 485.394 -3.02881 -0.789436 0
M  V30 5136 C 485.869 -4.48598 -0.923232 0
M  V30 5137 N 487.36 -4.52538 -0.988088 0
M  V30 5138 C 488.095 -5.62536 -1.11089 0
M  V30 5139 N 487.591 -6.82342 -1.19919 0
M  V30 5140 N 489.384 -5.50334 -1.14408 0
M  V30 5141 H 481.535 -2.0377 0.599278 0
M  V30 5142 H 483.798 -0.925145 0.20691 0
M  V30 5143 H 483.504 -3.51242 0.179396 0
M  V30 5144 H 483.378 -3.43024 -1.5689 0
M  V30 5145 H 485.765 -2.44226 -1.65643 0
M  V30 5146 H 485.846 -2.55574 0.107482 0
M  V30 5147 H 485.49 -5.07864 -0.0607927 0
M  V30 5148 H 485.42 -4.93587 -1.8352 0
M  V30 5149 H 487.911 -3.66248 -0.931167 0
M  V30 5150 H 488.224 -7.61924 -1.29197 0
M  V30 5151 H 486.569 -6.85102 -1.16876 0
M  V30 5152 H 489.76 -4.5567 -1.07158 0
M  V30 5153 H 489.933 -6.36096 -1.23634 0
M  V30 5154 N 483.339 0.512053 -1.4905 0
M  V30 5155 C 484.302 1.59704 -1.64399 0
M  V30 5156 C 485.302 1.52285 -0.516317 0
M  V30 5157 O 486.492 1.55635 -0.782527 0
M  V30 5158 C 483.624 2.9935 -1.63102 0
M  V30 5159 H 484.817 1.47428 -2.61161 0
M  V30 5160 H 482.37 0.735469 -1.37915 0
M  V30 5161 H 483.105 3.17116 -0.678836 0
M  V30 5162 H 482.89 3.06144 -2.44986 0
M  V30 5163 H 484.38 3.782 -1.77072 0
M  V30 5164 N 484.817 1.37938 0.762283 0
M  V30 5165 C 485.767 1.30976 1.86626 0
M  V30 5166 C 486.751 0.195714 1.59705 0
M  V30 5167 O 487.943 0.430937 1.71674 0
M  V30 5168 C 485.072 1.12847 3.24223 0
M  V30 5169 C 484.158 2.28836 3.57064 0
M  V30 5170 N 484.549 3.54256 3.61022 0
M  V30 5171 C 482.847 2.21198 3.87282 0
M  V30 5172 C 483.548 4.30798 3.90881 0
M  V30 5173 N 482.524 3.60049 4.07266 0
M  V30 5174 H 486.326 2.25946 1.87951 0
M  V30 5175 H 483.84 1.31046 0.959206 0
M  V30 5176 H 485.837 1.05943 4.03214 0
M  V30 5177 H 484.497 0.188024 3.24155 0
M  V30 5178 H 485.508 3.8804 3.42995 0
M  V30 5179 H 482.185 1.35264 3.94981 0
M  V30 5180 H 483.575 5.39386 4.00639 0
M  V30 5181 N 486.295 -0.989507 1.22664 0
M  V30 5182 C 487.535 -1.7447 1.06488 0
M  V30 5183 C 487.899 -1.8794 -0.392737 0
M  V30 5184 O 489.1 -2.60175 -0.675446 0
M  V30 5185 C 487.371 -3.11043 1.76031 0
M  V30 5186 S 488.93 -4.02258 1.7531 0
M  V30 5187 H 485.748 -0.600123 0.381278 0
M  V30 5188 H 488.35 -1.18283 1.55658 0
M  V30 5189 H 487.054 -2.98884 2.81241 0
M  V30 5190 H 486.585 -3.72301 1.27105 0
M  V30 5191 H 488.6 -4.89623 0.805208 0
M  V30 5192 N 487.773 -1.03688 -1.18687 0
M  V30 5193 C 488.721 -0.618292 -2.24232 0
M  V30 5194 C 489.715 0.353045 -1.6568 0
M  V30 5195 O 490.921 0.220749 -1.78641 0
M  V30 5196 H 487.296 -0.181711 -0.729716 0
M  V30 5197 H 489.267 -1.51893 -2.56848 0
M  V30 5198 C 488.016 0.00677342 -3.47699 0
M  V30 5199 H 487.339 -0.731692 -3.93047 0
M  V30 5200 H 488.779 0.262492 -4.23187 0
M  V30 5201 C 487.238 1.25572 -3.12623 0
M  V30 5202 O 487.768 2.34691 -3.26011 0
M  V30 5203 N 485.974 1.14755 -2.66982 0
M  V30 5204 H 485.521 0.259601 -2.56289 0
M  V30 5205 H 485.479 1.98412 -2.43885 0
M  V30 5206 N 489.251 1.34841 -0.815825 0
M  V30 5207 C 490.181 2.32187 -0.247298 0
M  V30 5208 C 491.162 1.5791 0.632344 0
M  V30 5209 O 492.347 1.8593 0.560698 0
M  V30 5210 C 489.477 3.42122 0.597466 0
M  V30 5211 C 488.431 4.27602 -0.184446 0
M  V30 5212 C 487.757 5.28942 0.782609 0
M  V30 5213 C 489.057 5.03502 -1.38865 0
M  V30 5214 H 490.751 2.79985 -1.06061 0
M  V30 5215 H 488.297 1.34611 -0.511461 0
M  V30 5216 H 490.25 4.09232 1.00533 0
M  V30 5217 H 488.974 2.92956 1.44376 0
M  V30 5218 H 487.633 3.62085 -0.573592 0
M  V30 5219 H 487.281 4.7604 1.62466 0
M  V30 5220 H 486.981 5.87008 0.263695 0
M  V30 5221 H 488.505 5.98922 1.18848 0
M  V30 5222 H 489.919 5.63506 -1.05518 0
M  V30 5223 H 488.316 5.71108 -1.8427 0
M  V30 5224 H 489.386 4.33608 -2.17054 0
M  V30 5225 N 490.729 0.570148 1.46925 0
M  V30 5226 C 491.954 0.0542592 2.07329 0
M  V30 5227 C 492.379 -1.23582 1.41806 0
M  V30 5228 O 491.737 -1.74341 0.497479 0
M  V30 5229 C 491.785 -0.111175 3.60429 0
M  V30 5230 O 490.889 -1.17071 3.95434 0
M  V30 5231 H 490.23 0.0571425 0.661537 0
M  V30 5232 H 492.76 0.789516 1.88753 0
M  V30 5233 H 492.77 -0.321315 4.06733 0
M  V30 5234 H 491.445 0.831012 4.07513 0
M  V30 5235 H 490.022 -0.940029 3.60857 0
M  V30 5236 N 492.207 -1.54576 0.307264 0
M  V30 5237 C 493.623 -1.59534 -0.0459251 0
M  V30 5238 C 493.823 -1.32414 -1.51884 0
M  V30 5239 O 492.879 -1.1006 -2.27251 0
M  V30 5240 C 494.192 -2.98566 0.357649 0
M  V30 5241 C 495.74 -3.11491 0.306937 0
M  V30 5242 C 496.215 -4.52842 0.685427 0
M  V30 5243 N 497.706 -4.58782 0.638203 0
M  V30 5244 C 498.441 -5.66238 0.903458 0
M  V30 5245 N 497.937 -6.81703 1.23501 0
M  V30 5246 N 499.73 -5.55937 0.830102 0
M  V30 5247 H 491.881 -1.70464 1.26712 0
M  V30 5248 H 494.144 -0.79647 0.514139 0
M  V30 5249 H 493.85 -3.23356 1.38325 0
M  V30 5250 H 493.724 -3.76117 -0.285565 0
M  V30 5251 H 496.111 -2.86446 -0.709424 0
M  V30 5252 H 496.192 -2.36081 0.984861 0
M  V30 5253 H 495.836 -4.78618 1.69963 0
M  V30 5254 H 495.766 -5.26598 -0.0146346 0
M  V30 5255 H 498.257 -3.75849 0.393138 0
M  V30 5256 H 498.57 -7.59582 1.42322 0
M  V30 5257 H 496.915 -6.8324 1.27311 0
M  V30 5258 H 500.106 -4.64608 0.570693 0
M  V30 5259 H 500.279 -6.39597 1.04019 0
M  V30 5260 N 493.685 -0.035106 -1.57561 0
M  V30 5261 C 494.91 0.655802 -1.96759 0
M  V30 5262 C 495.335 1.64523 -0.911809 0
M  V30 5263 O 494.693 1.80857 0.126673 0
M  V30 5264 C 494.741 1.33326 -3.35047 0
M  V30 5265 O 493.845 2.44866 -3.31835 0
M  V30 5266 H 493.186 0.171807 -0.641388 0
M  V30 5267 H 495.716 -0.0987369 -2.04362 0
M  V30 5268 H 495.726 1.68867 -3.71413 0
M  V30 5269 H 494.401 0.608033 -4.11431 0
M  V30 5270 H 492.978 2.11392 -3.07193 0
M  V30 5271 N 495.163 1.55791 0.238111 0
M  V30 5272 C 496.11 1.9105 1.29493 0
M  V30 5273 C 497.08 0.765733 1.47397 0
M  V30 5274 O 498.265 1.02017 1.61236 0
M  V30 5275 C 495.405 2.21826 2.64362 0
M  V30 5276 C 494.518 3.49153 2.54394 0
M  V30 5277 C 493.653 3.69455 3.81676 0
M  V30 5278 C 492.692 4.90353 3.66361 0
M  V30 5279 N 491.829 5.07131 4.85554 0
M  V30 5280 H 496.669 2.81172 0.987233 0
M  V30 5281 H 494.206 1.39179 0.476203 0
M  V30 5282 H 496.164 2.37675 3.4288 0
M  V30 5283 H 494.794 1.34897 2.93262 0
M  V30 5284 H 493.846 3.41587 1.67399 0
M  V30 5285 H 495.158 4.37818 2.38991 0
M  V30 5286 H 494.312 3.85311 4.68636 0
M  V30 5287 H 493.051 2.7904 3.99985 0
M  V30 5288 H 492.056 4.74464 2.77784 0
M  V30 5289 H 493.281 5.82237 3.49538 0
M  V30 5290 H 491.227 4.19654 5.04209 0
M  V30 5291 H 491.144 5.89899 4.72816 0
M  V30 5292 H 492.412 5.27407 5.73988 0
M  V30 5293 N 496.642 -0.504142 1.49319 0
M  V30 5294 C 497.888 -1.25767 1.59857 0
M  V30 5295 C 498.243 -1.90348 0.280262 0
M  V30 5296 O 497.536 -1.77588 -0.719241 0
M  V30 5297 C 497.73 -2.35021 2.69258 0
M  V30 5298 C 497.559 -1.81154 4.11598 0
M  V30 5299 C 496.329 -1.62596 4.78425 0
M  V30 5300 C 498.527 -1.3252 4.96934 0
M  V30 5301 N 496.509 -1.03625 6.05091 0
M  V30 5302 C 497.88 -0.856633 6.14054 0
M  V30 5303 C 499.935 -1.21063 4.82958 0
M  V30 5304 C 498.638 -0.284841 7.18736 0
M  V30 5305 C 500.664 -0.652815 5.87786 0
M  V30 5306 C 500.026 -0.194461 7.04132 0
M  V30 5307 H 496.125 -0.450293 0.639343 0
M  V30 5308 H 498.709 -0.565344 1.86311 0
M  V30 5309 H 496.88 -3.01719 2.44581 0
M  V30 5310 H 498.612 -3.02061 2.69335 0
M  V30 5311 H 495.367 -1.86873 4.35173 0
M  V30 5312 H 495.791 -0.76076 6.72712 0
M  V30 5313 H 500.433 -1.551 3.93324 0
M  V30 5314 H 498.151 0.0677979 8.08072 0
M  V30 5315 H 501.737 -0.566994 5.79031 0
M  V30 5316 H 500.617 0.230442 7.83861 0
M  V30 5317 N 498.12 -1.38341 -0.754957 0
M  V30 5318 C 499.03 -1.3769 -1.89944 0
M  V30 5319 C 500.046 -0.274194 -1.71826 0
M  V30 5320 O 501.222 -0.512391 -1.94773 0
M  V30 5321 C 498.287 -1.19938 -3.25293 0
M  V30 5322 C 497.348 -2.40001 -3.55946 0
M  V30 5323 C 496.581 -2.23087 -4.84838 0
M  V30 5324 O 496.804 -1.22386 -5.57116 0
M  V30 5325 O 495.738 -3.11646 -5.14937 0
M  V30 5326 H 499.564 -2.3412 -1.93446 0
M  V30 5327 H 497.149 -1.19246 -0.900044 0
M  V30 5328 H 499.031 -1.12093 -4.06218 0
M  V30 5329 H 497.706 -0.265919 -3.22606 0
M  V30 5330 H 496.613 -2.53421 -2.75188 0
M  V30 5331 H 497.946 -3.31973 -3.63394 0
M  V30 5332 N 499.598 0.982988 -1.23187 0
M  V30 5333 C 500.546 2.09616 -1.00817 0
M  V30 5334 C 501.54 1.6932 0.0519995 0
M  V30 5335 O 502.746 1.79715 -0.101284 0
M  V30 5336 H 499.121 0.685628 -0.308899 0
M  V30 5337 H 501.092 2.25652 -1.95253 0
M  V30 5338 C 499.841 3.42249 -0.613243 0
M  V30 5339 H 499.164 3.73705 -1.42073 0
M  V30 5340 H 500.604 4.21086 -0.496208 0
M  V30 5341 C 499.063 3.30002 0.678233 0
M  V30 5342 O 499.593 3.6263 1.72807 0
M  V30 5343 N 497.799 2.83164 0.653165 0
M  V30 5344 H 497.346 2.56811 -0.201492 0
M  V30 5345 H 497.304 2.75352 1.51752 0
M  V30 5346 N 501.076 1.04316 1.18135 0
M  V30 5347 C 502.304 0.768117 1.92113 0
M  V30 5348 C 502.719 -0.675057 1.76319 0
M  V30 5349 O 502.076 -1.46038 1.09449 0
M  V30 5350 C 502.127 1.12808 3.43448 0
M  V30 5351 O 501.848 2.5146 3.58747 0
M  V30 5352 C 503.349 0.8779 4.3452 0
M  V30 5353 H 500.569 0.279937 0.609817 0
M  V30 5354 H 503.113 1.39149 1.49859 0
M  V30 5355 H 501.268 0.549623 3.83481 0
M  V30 5356 H 501.682 2.65313 4.52448 0
M  V30 5357 H 503.156 1.17959 5.39249 0
M  V30 5358 H 503.633 -0.187239 4.38801 0
M  V30 5359 H 504.239 1.43977 4.00188 0
M  V30 5360 N 502.554 -1.34406 0.822964 0
M  V30 5361 C 503.484 -2.32052 0.259608 0
M  V30 5362 C 504.465 -1.58243 -0.623961 0
M  V30 5363 O 505.65 -1.86224 -0.55083 0
M  V30 5364 C 502.78 -3.42434 -0.579314 0
M  V30 5365 C 501.734 -4.27499 0.20712 0
M  V30 5366 C 501.06 -5.29349 -0.754547 0
M  V30 5367 C 502.36 -5.02758 1.41533 0
M  V30 5368 H 504.054 -2.79418 1.07545 0
M  V30 5369 H 501.6 -1.34338 0.518593 0
M  V30 5370 H 503.553 -4.0976 -0.983612 0
M  V30 5371 H 502.277 -2.93717 -1.4282 0
M  V30 5372 H 500.936 -3.61776 0.592787 0
M  V30 5373 H 500.584 -4.76895 -1.59939 0
M  V30 5374 H 500.284 -5.8714 -0.232561 0
M  V30 5375 H 501.808 -5.99544 -1.1567 0
M  V30 5376 H 503.222 -5.62938 1.08504 0
M  V30 5377 H 501.619 -5.70123 1.87296 0
M  V30 5378 H 502.689 -4.32451 2.1935 0
M  V30 5379 N 504.032 -0.577932 -1.46621 0
M  V30 5380 C 504.979 0.158048 -2.30258 0
M  V30 5381 C 505.949 0.888669 -1.40328 0
M  V30 5382 O 507.134 0.880283 -1.6928 0
M  V30 5383 C 504.274 1.16884 -3.24703 0
M  V30 5384 C 503.387 0.442163 -4.29731 0
M  V30 5385 C 502.522 1.44007 -5.11308 0
M  V30 5386 C 501.561 0.69952 -6.0809 0
M  V30 5387 N 500.698 1.64525 -6.82551 0
M  V30 5388 H 505.538 -0.561242 -2.92667 0
M  V30 5389 H 503.075 -0.288591 -1.44241 0
M  V30 5390 H 505.033 1.7677 -3.779 0
M  V30 5391 H 503.663 1.85591 -2.64113 0
M  V30 5392 H 502.715 -0.271632 -3.79429 0
M  V30 5393 H 504.027 -0.136992 -4.98612 0
M  V30 5394 H 503.181 2.11186 -5.68758 0
M  V30 5395 H 501.92 2.05315 -4.42377 0
M  V30 5396 H 500.925 0.0139217 -5.49798 0
M  V30 5397 H 502.15 0.091894 -6.79038 0
M  V30 5398 H 500.096 2.24653 -6.16334 0
M  V30 5399 H 500.013 1.11878 -7.47676 0
M  V30 5400 H 501.281 2.30754 -7.44562 0
M  V30 5401 N 505.51 1.54411 -0.315457 0
M  V30 5402 C 506.442 2.21527 0.588067 0
M  V30 5403 C 507.455 1.21263 1.08624 0
M  V30 5404 O 508.644 1.47777 1.00121 0
M  V30 5405 C 505.744 2.85963 1.81875 0
M  V30 5406 C 504.917 4.12291 1.46063 0
M  V30 5407 C 503.976 4.60396 2.54799 0
M  V30 5408 O 503.002 5.25265 2.19283 0
M  V30 5409 N 504.204 4.33935 3.85591 0
M  V30 5410 H 506.969 2.99697 0.013414 0
M  V30 5411 H 504.53 1.61308 -0.138295 0
M  V30 5412 H 506.522 3.15071 2.53993 0
M  V30 5413 H 505.092 2.11548 2.30144 0
M  V30 5414 H 504.312 3.90036 0.571445 0
M  V30 5415 H 505.6 4.9452 1.19695 0
M  V30 5416 H 504.998 3.81996 4.17248 0
M  V30 5417 H 503.555 4.67718 4.53964 0
M  V30 5418 N 506.988 0.0434614 1.5754 0
M  V30 5419 C 508.237 -0.631454 1.91561 0
M  V30 5420 C 508.55 -1.72457 0.92292 0
M  V30 5421 O 509.756 -2.45712 1.15489 0
M  V30 5422 C 508.212 -1.17447 3.40197 0
M  V30 5423 C 507.82 -0.113867 4.47855 0
M  V30 5424 C 509.564 -1.82507 3.83264 0
M  V30 5425 C 507.471 -0.669326 5.876 0
M  V30 5426 H 506.401 -0.239629 0.714908 0
M  V30 5427 H 509.052 0.111097 1.83163 0
M  V30 5428 H 507.434 -1.96909 3.43574 0
M  V30 5429 H 508.608 0.659348 4.56058 0
M  V30 5430 H 506.923 0.438821 4.14081 0
M  V30 5431 H 509.52 -2.25047 4.85034 0
M  V30 5432 H 509.863 -2.67365 3.19095 0
M  V30 5433 H 510.396 -1.09712 3.82372 0
M  V30 5434 H 507.135 0.141449 6.55347 0
M  V30 5435 H 506.655 -1.4107 5.82974 0
M  V30 5436 H 508.334 -1.15463 6.36614 0
M  V30 5437 N 508.466 -1.55915 -0.229846 0
M  V30 5438 C 509.712 -1.78807 -0.956868 0
M  V30 5439 C 510.045 -0.611687 -1.84315 0
M  V30 5440 O 509.32 0.389398 -1.90562 0
M  V30 5441 C 509.603 -3.11718 -1.80288 0
M  V30 5442 C 509.456 -4.3979 -0.943649 0
M  V30 5443 C 510.775 -3.40999 -2.78222 0
M  V30 5444 H 507.894 -0.6505 -0.346437 0
M  V30 5445 H 510.536 -1.88648 -0.226252 0
M  V30 5446 H 508.686 -3.03459 -2.42579 0
M  V30 5447 H 510.358 -4.60059 -0.338121 0
M  V30 5448 H 508.601 -4.33086 -0.248705 0
M  V30 5449 H 509.272 -5.29208 -1.5698 0
M  V30 5450 H 511.748 -3.49332 -2.26067 0
M  V30 5451 H 510.624 -4.35183 -3.34526 0
M  V30 5452 H 510.885 -2.62754 -3.55546 0
M  V30 5453 N 509.944 0.496216 -1.49584 0
M  V30 5454 C 511.172 1.27394 -1.63029 0
M  V30 5455 C 511.587 1.86344 -0.303569 0
M  V30 5456 O 510.944 1.68057 0.711547 0
M  V30 5457 C 510.995 2.40077 -2.70269 0
M  V30 5458 O 510.716 1.83549 -3.97796 0
M  V30 5459 C 512.217 3.31372 -2.94462 0
M  V30 5460 H 509.437 0.386211 -0.54871 0
M  V30 5461 H 511.981 0.595163 -1.95648 0
M  V30 5462 H 510.136 3.03775 -2.40415 0
M  V30 5463 H 510.55 2.57561 -4.56905 0
M  V30 5464 H 512.024 4.06707 -3.73221 0
M  V30 5465 H 512.501 3.88654 -2.0456 0
M  V30 5466 H 513.107 2.73435 -3.25751 0
M  V30 5467 N 511.423 1.38739 0.74761 0
M  V30 5468 C 512.37 1.36449 1.86146 0
M  V30 5469 C 513.34 0.226098 1.64554 0
M  V30 5470 O 514.525 0.41926 1.86137 0
M  V30 5471 C 511.665 1.2013 3.23516 0
M  V30 5472 C 510.778 2.43407 3.56899 0
M  V30 5473 C 509.913 2.19773 4.83605 0
M  V30 5474 C 508.952 3.3879 5.09792 0
M  V30 5475 N 508.089 3.14553 6.27695 0
M  V30 5476 H 512.929 2.3167 1.87438 0
M  V30 5477 H 510.466 1.15094 0.916063 0
M  V30 5478 H 512.424 1.08683 4.02795 0
M  V30 5479 H 511.054 0.285453 3.21535 0
M  V30 5480 H 510.106 2.65504 2.72418 0
M  V30 5481 H 511.418 3.32094 3.72176 0
M  V30 5482 H 510.572 2.05496 5.70838 0
M  V30 5483 H 509.311 1.28461 4.70478 0
M  V30 5484 H 508.316 3.53579 4.21025 0
M  V30 5485 H 509.541 4.30986 5.24812 0
M  V30 5486 H 507.487 2.25893 6.1588 0
M  V30 5487 H 507.404 3.96791 6.435 0
M  V30 5488 H 508.672 3.03943 7.17801 0
M  V30 5489 N 512.901 -0.976442 1.23707 0
M  V30 5490 C 513.831 -2.08749 1.04624 0
M  V30 5491 C 514.812 -1.70057 -0.0380956 0
M  V30 5492 O 515.997 -1.93782 0.127308 0
M  V30 5493 C 513.127 -3.41335 0.640902 0
M  V30 5494 C 512.081 -3.93947 1.67302 0
M  V30 5495 C 511.407 -5.22774 1.12301 0
M  V30 5496 C 512.707 -4.22769 3.06697 0
M  V30 5497 H 514.401 -2.24972 1.97555 0
M  V30 5498 H 511.947 -1.08108 0.951247 0
M  V30 5499 H 513.9 -4.18489 0.494434 0
M  V30 5500 H 512.624 -3.24988 -0.324099 0
M  V30 5501 H 511.283 -3.18941 1.80755 0
M  V30 5502 H 510.931 -5.0278 0.148877 0
M  V30 5503 H 510.631 -5.58942 1.81267 0
M  V30 5504 H 512.155 -6.02546 0.988479 0
M  V30 5505 H 513.569 -4.90659 2.96524 0
M  V30 5506 H 511.966 -4.70147 3.72937 0
M  V30 5507 H 513.036 -3.29885 3.55392 0
M  V30 5508 N 514.379 -1.04941 -1.1758 0
M  V30 5509 C 515.795 -0.770282 -1.39781 0
M  V30 5510 C 515.995 0.636417 -1.91186 0
M  V30 5511 O 515.051 1.39923 -2.10185 0
M  V30 5512 C 516.364 -1.82376 -2.3908 0
M  V30 5513 C 517.912 -1.84569 -2.52791 0
M  V30 5514 C 518.387 -2.88933 -3.55361 0
M  V30 5515 N 519.878 -2.8788 -3.62877 0
M  V30 5516 C 520.613 -3.65282 -4.41992 0
M  V30 5517 N 520.109 -4.52461 -5.24643 0
M  V30 5518 N 521.902 -3.53732 -4.36841 0
M  V30 5519 H 514.053 -1.95705 -0.825438 0
M  V30 5520 H 516.316 -0.847284 -0.425222 0
M  V30 5521 H 516.022 -2.83323 -2.08376 0
M  V30 5522 H 515.896 -1.66327 -3.38549 0
M  V30 5523 H 518.283 -0.842879 -2.82807 0
M  V30 5524 H 518.364 -2.04696 -1.53406 0
M  V30 5525 H 518.008 -3.89398 -3.26085 0
M  V30 5526 H 517.938 -2.66059 -4.54445 0
M  V30 5527 H 520.429 -2.24666 -3.03864 0
M  V30 5528 H 520.742 -5.08211 -5.82187 0
M  V30 5529 H 519.087 -4.56524 -5.24033 0
M  V30 5530 H 522.278 -2.85021 -3.71323 0
M  V30 5531 H 522.451 -4.14302 -4.98255 0
M  V30 5532 N 515.857 1.33968 -0.830081 0
M  V30 5533 C 517.103 1.98357 -0.422191 0
M  V30 5534 C 517.436 1.65633 1.01387 0
M  V30 5535 O 516.711 0.931648 1.70735 0
M  V30 5536 C 516.994 3.54492 -0.633043 0
M  V30 5537 C 516.847 3.96934 -2.11574 0
M  V30 5538 C 518.166 4.40039 -0.0735584 0
M  V30 5539 H 515.285 0.720544 -0.154871 0
M  V30 5540 H 517.927 1.58749 -1.04397 0
M  V30 5541 H 516.077 3.88361 -0.103775 0
M  V30 5542 H 517.749 3.73363 -2.7092 0
M  V30 5543 H 515.992 3.46984 -2.60354 0
M  V30 5544 H 516.663 5.05651 -2.21406 0
M  V30 5545 H 519.139 4.12764 -0.52585 0
M  V30 5546 H 518.015 5.48327 -0.250841 0
M  V30 5547 H 518.276 4.30124 1.02202 0
M  V30 5548 N 517.335 0.585699 1.46312 0
M  V30 5549 C 518.267 -0.183687 2.28463 0
M  V30 5550 C 519.28 -0.85264 1.38686 0
M  V30 5551 O 520.469 -0.721701 1.6326 0
M  V30 5552 C 517.569 -1.27977 3.13808 0
M  V30 5553 C 516.742 -0.702164 4.31727 0
M  V30 5554 C 515.801 -1.68633 4.98447 0
M  V30 5555 O 514.827 -1.22121 5.55945 0
M  V30 5556 N 516.029 -3.02047 4.95729 0
M  V30 5557 H 518.794 0.521127 2.95134 0
M  V30 5558 H 516.355 0.423673 1.56258 0
M  V30 5559 H 518.347 -1.9375 3.55307 0
M  V30 5560 H 516.917 -1.8874 2.4919 0
M  V30 5561 H 516.137 0.1331 3.93975 0
M  V30 5562 H 517.425 -0.296101 5.07938 0
M  V30 5563 H 516.823 -3.42457 4.50266 0
M  V30 5564 H 515.38 -3.63301 5.41161 0
M  V30 5565 N 518.813 -1.54241 0.323641 0
M  V30 5566 C 520.06 -2.0057 -0.27891 0
M  V30 5567 C 520.388 -1.21181 -1.52136 0
M  V30 5568 O 519.643 -0.282043 -1.93657 0
M  V30 5569 C 519.942 -3.5129 -0.658031 0
M  V30 5570 C 519.608 -4.48281 0.485252 0
M  V30 5571 C 518.27 -4.74519 0.799055 0
M  V30 5572 C 520.622 -5.05909 1.25322 0
M  V30 5573 C 517.95 -5.55643 1.88354 0
M  V30 5574 C 520.302 -5.88215 2.32779 0
M  V30 5575 C 518.966 -6.12755 2.64741 0
M  V30 5576 H 518.236 -0.733938 -0.10206 0
M  V30 5577 H 520.883 -1.862 0.447435 0
M  V30 5578 H 519.188 -3.63388 -1.4648 0
M  V30 5579 H 520.885 -3.84578 -1.1358 0
M  V30 5580 H 517.475 -4.27979 0.230593 0
M  V30 5581 H 521.659 -4.8562 1.02404 0
M  V30 5582 H 516.915 -5.72888 2.13564 0
M  V30 5583 H 521.089 -6.31888 2.92729 0
M  V30 5584 H 518.716 -6.75404 3.48904 0
M  V30 5585 N 520.291 -0.0518155 -1.57515 0
M  V30 5586 C 521.238 0.922352 -2.11569 0
M  V30 5587 C 522.208 1.30842 -1.02321 0
M  V30 5588 O 523.393 1.39778 -1.29872 0
M  V30 5589 C 520.533 2.19167 -2.6657 0
M  V30 5590 C 519.646 1.86003 -3.89906 0
M  V30 5591 C 518.781 3.07398 -4.33221 0
M  V30 5592 C 517.82 2.70158 -5.49255 0
M  V30 5593 N 516.957 3.84248 -5.8762 0
M  V30 5594 H 521.797 0.454506 -2.94514 0
M  V30 5595 H 519.334 0.212718 -1.45554 0
M  V30 5596 H 521.292 2.93443 -2.96559 0
M  V30 5597 H 519.922 2.63528 -1.86421 0
M  V30 5598 H 518.974 1.01874 -3.66505 0
M  V30 5599 H 520.286 1.54592 -4.74239 0
M  V30 5600 H 519.44 3.89972 -4.64765 0
M  V30 5601 H 518.179 3.41988 -3.477 0
M  V30 5602 H 517.184 1.86001 -5.17382 0
M  V30 5603 H 518.409 2.36759 -6.36492 0
M  V30 5604 H 516.355 4.18638 -5.05053 0
M  V30 5605 H 516.272 3.56538 -6.66646 0
M  V30 5606 H 517.54 4.6746 -6.2378 0
M  V30 5607 N 521.769 1.56035 0.221574 0
M  V30 5608 C 522.717 1.93269 1.29421 0
M  V30 5609 C 523.711 0.814727 1.48521 0
M  V30 5610 O 524.917 0.999559 1.49696 0
M  V30 5611 H 521.292 0.614188 0.43391 0
M  V30 5612 H 523.263 2.82773 0.952987 0
M  V30 5613 C 522.012 2.26573 2.63742 0
M  V30 5614 H 521.335 3.12112 2.49853 0
M  V30 5615 H 522.775 2.5651 3.37607 0
M  V30 5616 C 521.234 1.09086 3.1875 0
M  V30 5617 O 521.764 0.351985 4.00155 0
M  V30 5618 N 519.97 0.874693 2.77124 0
M  V30 5619 H 519.517 1.47726 2.11033 0
M  V30 5620 H 519.475 0.0903349 3.1427 0
M  V30 5621 N 523.247 -0.488276 1.49845 0
M  V30 5622 C 524.194 -1.58836 1.67451 0
M  V30 5623 C 525.164 -1.57886 0.515857 0
M  V30 5624 O 526.349 -1.75679 0.744403 0
M  V30 5625 C 523.489 -2.96915 1.75885 0
M  V30 5626 C 522.602 -3.07784 3.03138 0
M  V30 5627 C 521.737 -4.36673 3.02473 0
M  V30 5628 C 520.776 -4.41222 4.24252 0
M  V30 5629 N 519.913 -5.61557 4.21424 0
M  V30 5630 H 524.753 -1.43131 2.61376 0
M  V30 5631 H 522.29 -0.696186 1.29583 0
M  V30 5632 H 524.248 -3.76965 1.78755 0
M  V30 5633 H 522.878 -3.11295 0.85414 0
M  V30 5634 H 521.93 -2.20717 3.09819 0
M  V30 5635 H 523.242 -3.07005 3.93128 0
M  V30 5636 H 522.396 -5.25055 3.03977 0
M  V30 5637 H 521.135 -4.40037 2.10283 0
M  V30 5638 H 520.14 -3.5124 4.22978 0
M  V30 5639 H 521.365 -4.39564 5.17649 0
M  V30 5640 H 519.311 -5.65738 3.32078 0
M  V30 5641 H 519.228 -5.62447 5.05163 0
M  V30 5642 H 520.496 -6.52111 4.2705 0
M  V30 5643 N 524.725 -1.39134 -0.740242 0
M  V30 5644 C 525.953 -1.39334 -1.5295 0
M  V30 5645 C 526.368 0.0135008 -1.88795 0
M  V30 5646 O 525.725 0.983524 -1.5373 0
M  V30 5647 C 525.776 -2.2614 -2.82034 0
M  V30 5648 O 525.497 -3.61345 -2.47712 0
M  V30 5649 C 526.998 -2.34666 -3.76094 0
M  V30 5650 H 524.218 -0.476103 -0.472828 0
M  V30 5651 H 526.762 -1.82883 -0.9151 0
M  V30 5652 H 524.917 -1.86018 -3.39818 0
M  V30 5653 H 525.331 -4.07194 -3.30595 0
M  V30 5654 H 526.805 -2.99663 -4.63579 0
M  V30 5655 H 527.282 -1.36426 -4.17474 0
M  V30 5656 H 527.888 -2.75236 -3.2423 0
M  V30 5657 N 526.204 0.969867 -1.24223 0
M  V30 5658 C 527.453 1.70687 -1.07466 0
M  V30 5659 C 527.766 1.91736 0.386861 0
M  V30 5660 O 528.972 2.62986 0.674581 0
M  V30 5661 C 527.428 3.07217 -1.87472 0
M  V30 5662 C 527.036 2.94018 -3.3802 0
M  V30 5663 C 528.78 3.84804 -1.79237 0
M  V30 5664 C 526.687 4.25844 -4.10379 0
M  V30 5665 H 525.617 0.640067 -0.398536 0
M  V30 5666 H 528.268 1.08092 -1.48285 0
M  V30 5667 H 526.65 3.70628 -1.39466 0
M  V30 5668 H 527.824 2.39632 -3.9359 0
M  V30 5669 H 526.139 2.29898 -3.47183 0
M  V30 5670 H 528.736 4.82417 -2.30603 0
M  V30 5671 H 529.079 4.09356 -0.757197 0
M  V30 5672 H 529.612 3.28115 -2.24912 0
M  V30 5673 H 526.351 4.06486 -5.14246 0
M  V30 5674 H 525.871 4.80054 -3.59594 0
M  V30 5675 H 527.55 4.94475 -4.17257 0
M  V30 5676 N 527.682 1.05563 1.17022 0
M  V30 5677 C 528.928 0.769074 1.87652 0
M  V30 5678 C 529.261 -0.702326 1.81055 0
M  V30 5679 O 528.536 -1.5139 1.22112 0
M  V30 5680 C 528.819 1.25492 3.37526 0
M  V30 5681 C 528.672 2.78953 3.52853 0
M  V30 5682 C 529.991 0.856919 4.31677 0
M  V30 5683 H 527.11 0.280854 0.681388 0
M  V30 5684 H 529.752 1.31027 1.37593 0
M  V30 5685 H 527.902 0.794516 3.80289 0
M  V30 5686 H 529.574 3.33146 3.19079 0
M  V30 5687 H 527.817 3.18046 2.95007 0
M  V30 5688 H 528.488 3.08011 4.58076 0
M  V30 5689 H 530.964 1.25334 3.96775 0
M  V30 5690 H 529.84 1.22443 5.35069 0
M  V30 5691 H 530.101 -0.238787 4.41455 0
M  V30 5692 N 529.16 -1.33526 0.837174 0
M  V30 5693 C 530.407 -1.97837 0.432064 0
M  V30 5694 C 530.735 -1.66324 -1.00829 0
M  V30 5695 O 529.99 -0.93448 -1.71948 0
M  V30 5696 C 530.289 -3.52367 0.597675 0
M  V30 5697 C 529.955 -4.03826 2.00587 0
M  V30 5698 C 528.617 -4.1759 2.39106 0
M  V30 5699 C 530.969 -4.31333 2.92576 0
M  V30 5700 C 528.297 -4.56195 3.68921 0
M  V30 5701 C 530.649 -4.7139 4.2187 0
M  V30 5702 C 529.313 -4.8336 4.60347 0
M  V30 5703 H 528.583 -0.723937 0.158104 0
M  V30 5704 H 531.23 -1.5923 1.06387 0
M  V30 5705 H 529.535 -3.91624 -0.117452 0
M  V30 5706 H 531.232 -4.00126 0.26454 0
M  V30 5707 H 527.822 -3.93586 1.69671 0
M  V30 5708 H 532.006 -4.20224 2.64056 0
M  V30 5709 H 527.262 -4.63655 3.9854 0
M  V30 5710 H 531.436 -4.91631 4.93226 0
M  V30 5711 H 529.063 -5.1303 5.60985 0
M  V30 5712 N 530.638 -0.59345 -1.46 0
M  V30 5713 C 531.586 0.146268 -2.3214 0
M  V30 5714 C 532.58 0.873743 -1.45128 0
M  V30 5715 O 533.786 0.790912 -1.61693 0
M  V30 5716 H 530.161 0.0660349 -0.749095 0
M  V30 5717 H 532.132 -0.598895 -2.92328 0
M  V30 5718 C 530.881 1.1396 -3.28494 0
M  V30 5719 H 530.204 0.589252 -3.95434 0
M  V30 5720 H 531.644 1.62738 -3.91526 0
M  V30 5721 C 530.103 2.20604 -2.54628 0
M  V30 5722 O 530.633 3.28128 -2.31722 0
M  V30 5723 N 528.839 1.95502 -2.15005 0
M  V30 5724 H 528.386 1.0807 -2.33834 0
M  V30 5725 H 528.344 2.67064 -1.65904 0
M  V30 5726 N 532.116 1.54067 -0.331816 0
M  V30 5727 C 533.532 1.59587 0.0205388 0
M  V30 5728 C 533.732 1.34813 1.49759 0
M  V30 5729 O 532.788 1.13661 2.25471 0
M  V30 5730 C 534.101 2.97959 -0.405103 0
M  V30 5731 C 535.649 3.10964 -0.356454 0
M  V30 5732 C 536.124 4.51694 -0.757384 0
M  V30 5733 N 537.615 4.57709 -0.71111 0
M  V30 5734 C 538.35 5.64729 -0.993427 0
M  V30 5735 N 537.846 6.79652 -1.3433 0
M  V30 5736 N 539.639 5.54546 -0.918442 0
M  V30 5737 H 531.79 1.68426 -1.29407 0
M  V30 5738 H 534.053 0.78819 -0.526745 0
M  V30 5739 H 533.759 3.21115 -1.43451 0
M  V30 5740 H 533.633 3.76524 0.225692 0
M  V30 5741 H 536.02 2.87538 0.663763 0
M  V30 5742 H 536.101 2.34484 -1.02229 0
M  V30 5743 H 535.745 4.75853 -1.77555 0
M  V30 5744 H 535.675 5.26555 -0.0691444 0
M  V30 5745 H 538.166 3.75176 -0.452883 0
M  V30 5746 H 538.479 7.57221 -1.54388 0
M  V30 5747 H 536.824 6.81128 -1.38164 0
M  V30 5748 H 540.015 4.63641 -0.644536 0
M  V30 5749 H 540.188 6.37861 -1.14181 0
M  V30 5750 N 533.594 0.0601682 1.57485 0
M  V30 5751 C 534.819 -0.624416 1.97777 0
M  V30 5752 C 535.244 -1.63051 0.937867 0
M  V30 5753 O 534.602 -1.81036 -0.0978845 0
M  V30 5754 C 534.65 -1.27979 3.37126 0
M  V30 5755 O 533.754 -2.39556 3.35688 0
M  V30 5756 H 533.095 -0.161581 0.64404 0
M  V30 5757 H 535.625 0.131237 2.04179 0
M  V30 5758 H 535.635 -1.62937 3.74053 0
M  V30 5759 H 534.31 -0.542501 4.12347 0
M  V30 5760 H 532.887 -2.06478 3.10517 0
M  V30 5761 N 535.072 -1.5615 -0.213296 0
M  V30 5762 C 536.297 -1.83986 -0.957282 0
M  V30 5763 C 536.722 -0.641526 -1.76822 0
M  V30 5764 O 536.08 0.409722 -1.7661 0
M  V30 5765 C 536.128 -3.09889 -1.84393 0
M  V30 5766 O 535.232 -2.89163 -2.94038 0
M  V30 5767 H 534.573 -0.606357 -0.270605 0
M  V30 5768 H 537.103 -2.03369 -0.224111 0
M  V30 5769 H 537.113 -3.40209 -2.25215 0
M  V30 5770 H 535.788 -3.96735 -1.24795 0
M  V30 5771 H 534.365 -2.70097 -2.57103 0
M  V30 5772 N 536.55 0.480323 -1.50102 0
M  V30 5773 C 537.798 1.23063 -1.60312 0
M  V30 5774 C 538.119 1.92659 -0.301226 0
M  V30 5775 O 537.389 1.83691 0.680753 0
M  V30 5776 H 535.969 0.457231 -0.590719 0
M  V30 5777 H 538.631 0.554893 -1.86834 0
M  V30 5778 H 537.727 1.9835 -2.40964 0
M  V30 5779 N 538.028 1.39524 0.732853 0
M  V30 5780 C 539.276 1.36594 1.48951 0
M  V30 5781 C 539.597 -0.0367507 1.94965 0
M  V30 5782 O 538.867 -0.988391 1.69138 0
M  V30 5783 H 537.447 0.502673 0.552566 0
M  V30 5784 H 540.109 1.74411 0.869869 0
M  V30 5785 H 539.205 2.03 2.3706 0
M  V30 5786 N 539.506 -0.963266 1.24736 0
M  V30 5787 C 540.783 -1.68248 0.9976 0
M  V30 5788 C 541.163 -2.05599 -0.478776 0
M  V30 5789 O 540.511 -1.7626 -1.45412 0
M  V30 5790 C 540.721 -2.91118 1.92487 0
M  V30 5791 C 542.069 -3.63261 2.19833 0
M  V30 5792 O 543.093 -3.01184 1.90176 0
M  V30 5793 O 541.952 -4.75019 2.7022 0
M  V30 5794 H 539.046 -0.735744 0.377637 0
M  V30 5795 H 541.592 -1.01696 1.35853 0
M  V30 5796 H 540.364 -2.60242 2.92215 0
M  V30 5797 H 539.987 -3.65402 1.56738 0
M  V30 5798 N 540.985 -1.06182 -1.16461 0
M  V30 5799 C 542.396 -0.802426 -1.68576 0
M  V30 5800 C 542.747 0.67412 -1.84255 0
M  V30 5801 O 541.872 1.52303 -1.5373 0
M  V30 5802 C 542.467 -1.45002 -3.06202 0
M  V30 5803 C 541.026 -1.23843 -3.55443 0
M  V30 5804 C 540.173 -1.52724 -2.31454 0
M  V30 5805 H 543.124 -1.22545 -1.00839 0
M  V30 5806 H 543.145 -0.864731 -3.70544 0
M  V30 5807 H 542.657 -2.52466 -2.94759 0
M  V30 5808 H 540.758 -0.183487 -3.72148 0
M  V30 5809 H 540.871 -1.95036 -4.37604 0
M  V30 5810 H 539.235 -0.947726 -2.36411 0
M  V30 5811 H 540.018 -2.61343 -2.22609 0
M  V30 5812 N 542.463 1.3308 -0.844243 0
M  V30 5813 C 543.373 2.32876 -0.283922 0
M  V30 5814 C 544.389 1.63589 0.592846 0
M  V30 5815 O 545.565 1.95205 0.495693 0
M  V30 5816 C 542.63 3.42667 0.527283 0
M  V30 5817 C 541.691 4.27664 -0.374394 0
M  V30 5818 C 540.924 5.32212 0.39819 0
M  V30 5819 O 541.147 5.46635 1.62932 0
M  V30 5820 O 540.081 6.01458 -0.2306 0
M  V30 5821 H 543.907 2.82671 -1.11045 0
M  V30 5822 H 541.492 1.36518 -0.606903 0
M  V30 5823 H 543.374 4.09652 0.988078 0
M  V30 5824 H 542.049 2.95079 1.33078 0
M  V30 5825 H 540.956 3.63526 -0.883144 0
M  V30 5826 H 542.289 4.78749 -1.1428 0
M  V30 5827 N 543.941 0.601185 1.45683 0
M  V30 5828 C 545.19 0.0914953 2.01492 0
M  V30 5829 C 545.503 -1.28331 1.47616 0
M  V30 5830 O 546.709 -1.88537 1.95362 0
M  V30 5831 C 545.165 0.11291 3.59723 0
M  V30 5832 C 544.773 1.48717 4.22596 0
M  V30 5833 C 546.517 -0.341871 4.23121 0
M  V30 5834 C 544.424 1.46531 5.7296 0
M  V30 5835 H 543.354 0.0304365 0.753385 0
M  V30 5836 H 546.005 0.755568 1.67223 0
M  V30 5837 H 544.387 -0.617692 3.91153 0
M  V30 5838 H 545.561 2.23897 4.02749 0
M  V30 5839 H 543.876 1.88351 3.71366 0
M  V30 5840 H 546.473 -0.377304 5.33367 0
M  V30 5841 H 546.816 -1.36325 3.93346 0
M  V30 5842 H 547.349 0.335256 3.96385 0
M  V30 5843 H 544.088 2.46408 6.07423 0
M  V30 5844 H 543.608 0.755997 5.95017 0
M  V30 5845 H 545.287 1.18618 6.36034 0
M  V30 5846 N 545.419 -1.53889 0.339982 0
M  V30 5847 C 546.665 -2.01152 -0.258003 0
M  V30 5848 C 546.998 -1.22749 -1.50487 0
M  V30 5849 O 546.273 -0.314156 -1.91946 0
M  V30 5850 C 546.556 -3.55468 -0.575717 0
M  V30 5851 C 546.409 -4.44584 0.682996 0
M  V30 5852 C 547.728 -4.1768 -1.38677 0
M  V30 5853 H 544.847 -0.731198 -0.0922992 0
M  V30 5854 H 547.489 -1.84352 0.459814 0
M  V30 5855 H 545.639 -3.69914 -1.18725 0
M  V30 5856 H 547.311 -4.41981 1.32102 0
M  V30 5857 H 545.554 -4.13592 1.3086 0
M  V30 5858 H 546.225 -5.5043 0.416001 0
M  V30 5859 H 548.701 -4.0691 -0.869705 0
M  V30 5860 H 547.577 -5.25734 -1.57783 0
M  V30 5861 H 547.838 -3.72069 -2.38782 0
M  V30 5862 N 546.897 -0.0685191 -1.57451 0
M  V30 5863 C 547.83 0.935736 -2.08133 0
M  V30 5864 C 548.808 1.29317 -0.985698 0
M  V30 5865 O 549.992 1.40304 -1.25886 0
M  V30 5866 C 547.119 2.2448 -2.53627 0
M  V30 5867 C 546.165 2.03917 -3.74593 0
M  V30 5868 S 546.998 1.30154 -5.19442 0
M  V30 5869 C 548.154 2.62346 -5.68265 0
M  V30 5870 H 548.387 0.504473 -2.92989 0
M  V30 5871 H 545.92 0.144169 -1.53725 0
M  V30 5872 H 547.878 2.99718 -2.80499 0
M  V30 5873 H 546.539 2.64731 -1.69045 0
M  V30 5874 H 545.732 3.00788 -4.04404 0
M  V30 5875 H 545.334 1.36815 -3.48077 0
M  V30 5876 H 547.626 3.58448 -5.7491 0
M  V30 5877 H 548.569 2.3715 -6.67207 0
M  V30 5878 H 548.977 2.69401 -4.96068 0
M  V30 5879 N 548.375 1.56261 0.205012 0
M  V30 5880 C 549.325 1.90155 1.25798 0
M  V30 5881 C 550.309 0.766227 1.41484 0
M  V30 5882 O 551.501 1.02893 1.44021 0
M  V30 5883 C 548.63 2.23603 2.60493 0
M  V30 5884 C 547.716 3.43568 2.48639 0
M  V30 5885 N 548.107 4.61747 2.06455 0
M  V30 5886 C 546.405 3.4751 2.79558 0
M  V30 5887 C 547.106 5.43907 2.06253 0
M  V30 5888 N 546.082 4.84051 2.47377 0
M  V30 5889 H 549.884 2.79031 0.922986 0
M  V30 5890 H 547.398 1.57048 0.413501 0
M  V30 5891 H 549.395 2.46067 3.36537 0
M  V30 5892 H 548.055 1.36049 2.94823 0
M  V30 5893 H 549.066 4.86598 1.77321 0
M  V30 5894 H 545.743 2.70345 3.18151 0
M  V30 5895 H 547.133 6.48542 1.75622 0
M  V30 5896 N 549.853 -0.472356 1.50355 0
M  V30 5897 C 551.078 -1.25251 1.65309 0
M  V30 5898 C 551.503 -1.85081 0.335643 0
M  V30 5899 O 550.861 -1.67227 -0.700335 0
M  V30 5900 C 550.909 -2.3379 2.74544 0
M  V30 5901 O 550.013 -3.38401 2.35709 0
M  V30 5902 H 549.354 -0.368539 0.552336 0
M  V30 5903 H 551.884 -0.562271 1.96722 0
M  V30 5904 H 551.894 -2.79121 2.97583 0
M  V30 5905 H 550.569 -1.89614 3.70161 0
M  V30 5906 H 549.146 -2.9879 2.23112 0
M  V30 5907 N 551.331 -1.39911 -0.725443 0
M  V30 5908 C 552.578 -1.37654 -1.48518 0
M  V30 5909 C 552.906 0.0243982 -1.94485 0
M  V30 5910 O 552.161 1.00708 -1.67799 0
M  V30 5911 C 552.46 -2.30368 -2.7325 0
M  V30 5912 C 552.126 -3.77817 -2.461 0
M  V30 5913 C 550.788 -4.17991 -2.38405 0
M  V30 5914 C 553.14 -4.71036 -2.23103 0
M  V30 5915 C 550.468 -5.49433 -2.05768 0
M  V30 5916 C 552.82 -6.02766 -1.9198 0
M  V30 5917 C 551.484 -6.41993 -1.82761 0
M  V30 5918 H 550.754 -0.503713 -0.543465 0
M  V30 5919 H 553.401 -1.7249 -0.831822 0
M  V30 5920 H 551.706 -1.88683 -3.43375 0
M  V30 5921 H 553.403 -2.2591 -3.31309 0
M  V30 5922 H 549.993 -3.45982 -2.52972 0
M  V30 5923 H 554.177 -4.40823 -2.2801 0
M  V30 5924 H 549.433 -5.78738 -1.9716 0
M  V30 5925 H 553.607 -6.74519 -1.73197 0
M  V30 5926 H 551.234 -7.43761 -1.57237 0
M  V30 5927 N 552.809 0.956637 -1.25245 0
M  V30 5928 C 553.757 2.0743 -1.0524 0
M  V30 5929 C 554.751 1.69392 0.0160725 0
M  V30 5930 O 555.957 1.7946 -0.139382 0
M  V30 5931 H 552.332 0.678921 -0.323373 0
M  V30 5932 H 554.303 2.2146 -1.99995 0
M  V30 5933 C 553.052 3.40872 -0.685702 0
M  V30 5934 H 552.375 3.70607 -1.49968 0
M  V30 5935 H 553.815 4.19939 -0.585415 0
M  V30 5936 C 552.274 3.31367 0.608082 0
M  V30 5937 O 552.804 3.66214 1.65076 0
M  V30 5938 N 551.01 2.84486 0.592955 0
M  V30 5939 H 550.557 2.56326 -0.25592 0
M  V30 5940 H 550.515 2.78509 1.45877 0
M  V30 5941 N 554.287 1.06798 1.15896 0
M  V30 5942 C 555.527 0.797041 1.8822 0
M  V30 5943 C 555.891 -0.664549 1.80133 0
M  V30 5944 O 557.092 -1.0503 2.47431 0
M  V30 5945 C 555.363 1.28431 3.33527 0
M  V30 5946 S 556.922 1.14319 4.23647 0
M  V30 5947 H 553.74 0.288988 0.649621 0
M  V30 5948 H 556.342 1.36594 1.39865 0
M  V30 5949 H 555.046 2.34286 3.36954 0
M  V30 5950 H 554.577 0.710371 3.86933 0
M  V30 5951 H 556.592 0.0772467 4.9614 0
M  V30 5952 N 555.766 -1.3263 0.851289 0
M  V30 5953 C 557.014 -1.96978 0.452128 0
M  V30 5954 C 557.335 -1.67715 -0.99482 0
M  V30 5955 O 556.605 -0.98259 -1.69476 0
M  V30 5956 H 555.185 -0.72873 0.164202 0
M  V30 5957 H 557.847 -1.61774 1.08698 0
M  V30 5958 H 556.943 -3.06387 0.594407 0
M  V30 5959 N 557.244 -0.608902 -1.45362 0
M  V30 5960 C 558.492 -0.104401 -2.0183 0
M  V30 5961 C 558.813 1.27007 -1.47967 0
M  V30 5962 O 558.083 1.83924 -0.674455 0
M  V30 5963 H 556.663 -0.0356042 -0.746151 0
M  V30 5964 H 559.325 -0.790596 -1.78145 0
M  V30 5965 H 558.421 -0.0551793 -3.12051 0
M  V30 5966 N 558.722 1.53707 -0.348139 0
M  V30 5967 C 559.632 2.28881 0.514857 0
M  V30 5968 C 560.648 1.34168 1.10793 0
M  V30 5969 O 561.824 1.6721 1.12262 0
M  V30 5970 C 558.889 3.05042 1.64774 0
M  V30 5971 C 557.95 4.15389 1.08398 0
M  V30 5972 C 557.183 4.87909 2.16287 0
M  V30 5973 O 557.406 4.60137 3.3709 0
M  V30 5974 O 556.34 5.74254 1.80323 0
M  V30 5975 H 560.166 3.03547 -0.0963699 0
M  V30 5976 H 557.751 1.48972 -0.113043 0
M  V30 5977 H 559.633 3.52656 2.30677 0
M  V30 5978 H 558.308 2.33228 2.24469 0
M  V30 5979 H 557.215 3.72068 0.389341 0
M  V30 5980 H 558.548 4.89318 0.531829 0
M  V30 5981 N 560.2 0.0768682 1.57412 0
M  V30 5982 C 561.447 -0.591085 1.93681 0
M  V30 5983 C 561.775 -1.69311 0.957286 0
M  V30 5984 O 561.03 -1.95682 -0.0262428 0
M  V30 5985 C 561.329 -1.20268 3.36557 0
M  V30 5986 C 560.995 -0.226286 4.50332 0
M  V30 5987 C 559.657 0.0423142 4.81181 0
M  V30 5988 C 562.009 0.441415 5.19327 0
M  V30 5989 C 559.337 0.985616 5.78362 0
M  V30 5990 C 561.689 1.37307 6.17519 0
M  V30 5991 C 560.353 1.65009 6.46783 0
M  V30 5992 H 559.623 -0.216293 0.70873 0
M  V30 5993 H 562.27 0.148824 1.90921 0
M  V30 5994 H 560.575 -2.01844 3.35807 0
M  V30 5995 H 562.272 -1.72688 3.61911 0
M  V30 5996 H 558.862 -0.445821 4.26275 0
M  V30 5997 H 563.046 0.247023 4.95685 0
M  V30 5998 H 558.302 1.20743 5.99359 0
M  V30 5999 H 562.476 1.89637 6.70083 0
M  V30 6000 H 560.103 2.38263 7.21897 0
M  V30 6001 N 561.678 -1.56367 -0.196722 0
M  V30 6002 C 562.925 -1.80529 -0.917366 0
M  V30 6003 C 563.253 -0.649817 -1.83324 0
M  V30 6004 O 562.508 0.36451 -1.92275 0
M  V30 6005 C 562.807 -3.10663 -1.767 0
M  V30 6006 C 562.473 -4.3962 -1.00225 0
M  V30 6007 C 561.135 -4.74653 -0.791095 0
M  V30 6008 C 563.487 -5.1913 -0.464035 0
M  V30 6009 C 560.815 -5.86692 -0.0302155 0
M  V30 6010 C 563.167 -6.31964 0.283625 0
M  V30 6011 C 561.831 -6.65581 0.505813 0
M  V30 6012 H 561.101 -0.660602 -0.335688 0
M  V30 6013 H 563.748 -1.90615 -0.183844 0
M  V30 6014 H 562.053 -2.95807 -2.56915 0
M  V30 6015 H 563.75 -3.26563 -2.32718 0
M  V30 6016 H 560.34 -4.12127 -1.17684 0
M  V30 6017 H 564.524 -4.9248 -0.614575 0
M  V30 6018 H 559.78 -6.11211 0.151917 0
M  V30 6019 H 563.954 -6.92791 0.708057 0
M  V30 6020 H 561.581 -7.52239 1.0973 0
M  V30 6021 N 563.156 0.464375 -1.50603 0
M  V30 6022 C 564.403 1.21596 -1.61928 0
M  V30 6023 C 564.731 1.91804 -0.322737 0
M  V30 6024 O 563.986 1.83065 0.691776 0
M  V30 6025 C 564.285 2.278 -2.75394 0
M  V30 6026 C 563.951 1.74797 -4.1564 0
M  V30 6027 C 562.613 1.60063 -4.53799 0
M  V30 6028 C 564.965 1.35548 -5.03266 0
M  V30 6029 C 562.293 1.04514 -5.77316 0
M  V30 6030 C 564.645 0.814381 -6.27336 0
M  V30 6031 C 563.309 0.653726 -6.64291 0
M  V30 6032 H 562.579 0.444951 -0.592536 0
M  V30 6033 H 565.226 0.510964 -1.84557 0
M  V30 6034 H 563.531 3.04233 -2.46879 0
M  V30 6035 H 565.228 2.85723 -2.81359 0
M  V30 6036 H 561.818 1.87234 -3.8554 0
M  V30 6037 H 566.002 1.45763 -4.74412 0
M  V30 6038 H 561.258 0.908186 -6.04617 0
M  V30 6039 H 565.432 0.501626 -6.94591 0
M  V30 6040 H 563.059 0.22114 -7.59878 0
M  V30 6041 N 564.634 1.40294 0.718013 0
M  V30 6042 C 565.874 1.39888 1.49032 0
M  V30 6043 C 566.238 -0.000462935 1.92 0
M  V30 6044 O 567.439 -0.129622 2.68487 0
M  V30 6045 C 565.71 2.35868 2.68516 0
M  V30 6046 S 567.269 2.53799 3.57954 0
M  V30 6047 H 564.087 0.495849 0.509563 0
M  V30 6048 H 566.689 1.76541 0.839846 0
M  V30 6049 H 565.393 3.36375 2.35117 0
M  V30 6050 H 564.924 2.0049 3.38478 0
M  V30 6051 H 566.939 1.78859 4.62843 0
M  V30 6052 N 566.112 -0.949982 1.2575 0
M  V30 6053 C 567.06 -2.06869 1.06339 0
M  V30 6054 C 568.054 -1.69399 -0.00708901 0
M  V30 6055 O 569.26 -1.79383 0.148897 0
M  V30 6056 H 565.635 -0.677197 0.326969 0
M  V30 6057 H 567.606 -2.20396 2.01167 0
M  V30 6058 C 566.355 -3.40503 0.703769 0
M  V30 6059 H 565.678 -3.69807 1.51931 0
M  V30 6060 H 567.118 -4.19623 0.607677 0
M  V30 6061 C 565.577 -3.31685 -0.5905 0
M  V30 6062 O 566.107 -3.67085 -1.63131 0
M  V30 6063 N 564.313 -2.84797 -0.577859 0
M  V30 6064 H 563.86 -2.56186 0.26951 0
M  V30 6065 H 563.818 -2.79279 -1.44398 0
M  V30 6066 N 567.59 -1.07411 -1.15328 0
M  V30 6067 C 568.818 -0.818782 -1.90009 0
M  V30 6068 C 569.233 0.628072 -1.78047 0
M  V30 6069 O 568.59 1.43085 -1.13282 0
M  V30 6070 C 568.641 -1.21874 -3.40337 0
M  V30 6071 O 568.362 -2.60883 -3.51954 0
M  V30 6072 C 569.863 -0.992796 -4.3204 0
M  V30 6073 H 567.083 -0.296007 -0.60218 0
M  V30 6074 H 569.627 -1.43073 -1.46117 0
M  V30 6075 H 567.782 -0.651103 -3.81889 0
M  V30 6076 H 568.196 -2.77216 -4.45255 0
M  V30 6077 H 569.67 -1.32215 -5.35932 0
M  V30 6078 H 570.147 0.0708331 -4.39143 0
M  V30 6079 H 570.753 -1.54537 -3.9623 0
M  V30 6080 N 569.068 1.32177 -0.85831 0
M  V30 6081 C 570.296 2.01313 -0.477582 0
M  V30 6082 C 570.711 1.6449 0.926736 0
M  V30 6083 O 570.068 0.868096 1.60531 0
M  V30 6084 C 570.119 3.56293 -0.611337 0
M  V30 6085 O 569.84 3.91794 -1.96034 0
M  V30 6086 C 571.341 4.42702 -0.230093 0
M  V30 6087 H 568.561 0.644323 -0.187322 0
M  V30 6088 H 571.105 1.68674 -1.15626 0
M  V30 6089 H 569.26 3.87395 0.0196494 0
M  V30 6090 H 569.674 4.86513 -1.95973 0
M  V30 6091 H 571.148 5.50727 -0.374674 0
M  V30 6092 H 571.625 4.3129 0.829779 0
M  V30 6093 H 572.231 4.16997 -0.836302 0
M  V30 6094 N 570.547 0.616602 1.45037 0
M  V30 6095 C 571.479 -0.135186 2.28801 0
M  V30 6096 C 572.492 -0.82303 1.40464 0
M  V30 6097 O 573.681 -0.686909 1.64754 0
M  V30 6098 C 570.781 -1.21292 3.16451 0
M  V30 6099 C 569.954 -0.61043 4.3312 0
M  V30 6100 C 569.013 -1.58022 5.01912 0
M  V30 6101 O 568.039 -1.10301 5.58411 0
M  V30 6102 N 569.241 -2.91464 5.02025 0
M  V30 6103 H 572.006 0.583612 2.93963 0
M  V30 6104 H 569.567 0.456723 1.55324 0
M  V30 6105 H 571.559 -1.86169 3.59337 0
M  V30 6106 H 570.129 -1.83412 2.53138 0
M  V30 6107 H 569.349 0.216638 3.93604 0
M  V30 6108 H 570.637 -0.188293 5.08451 0
M  V30 6109 H 570.035 -3.32829 4.57429 0
M  V30 6110 H 568.592 -3.51741 5.48745 0
M  V30 6111 N 572.025 -1.5352 0.356285 0
M  V30 6112 C 572.955 -2.28372 -0.486661 0
M  V30 6113 C 573.936 -1.30432 -1.09185 0
M  V30 6114 O 575.121 -1.59291 -1.11085 0
M  V30 6115 C 572.251 -3.06604 -1.63129 0
M  V30 6116 C 571.205 -4.12154 -1.15381 0
M  V30 6117 C 570.531 -4.78415 -2.38796 0
M  V30 6118 C 571.831 -5.21724 -0.245179 0
M  V30 6119 H 573.525 -2.99083 0.137797 0
M  V30 6120 H 571.071 -1.43841 0.0677134 0
M  V30 6121 H 573.024 -3.57712 -2.22755 0
M  V30 6122 H 571.748 -2.33568 -2.28284 0
M  V30 6123 H 570.407 -3.61978 -0.580294 0
M  V30 6124 H 570.055 -4.01959 -3.02387 0
M  V30 6125 H 569.755 -5.49734 -2.07524 0
M  V30 6126 H 571.279 -5.32313 -2.99125 0
M  V30 6127 H 572.693 -5.68391 -0.748646 0
M  V30 6128 H 571.09 -6.00095 -0.0237608 0
M  V30 6129 H 572.16 -4.79596 0.715229 0
M  V30 6130 N 573.503 -0.0852151 -1.57369 0
M  V30 6131 C 574.75 0.580806 -1.93992 0
M  V30 6132 C 575.078 1.68801 -0.966252 0
M  V30 6133 O 574.333 1.95694 0.0158649 0
M  V30 6134 C 574.632 1.18482 -3.3719 0
M  V30 6135 C 574.298 0.2024 -4.50446 0
M  V30 6136 C 572.96 -0.0678318 -4.81152 0
M  V30 6137 C 575.312 -0.46895 -5.19086 0
M  V30 6138 C 572.64 -1.01627 -5.77831 0
M  V30 6139 C 574.992 -1.4058 -6.16782 0
M  V30 6140 C 573.656 -1.68436 -6.45899 0
M  V30 6141 H 572.926 0.212532 -0.709867 0
M  V30 6142 H 575.573 -0.158947 -1.90839 0
M  V30 6143 H 573.878 2.0006 -3.36873 0
M  V30 6144 H 575.575 1.70767 -3.62822 0
M  V30 6145 H 572.165 0.423208 -4.26505 0
M  V30 6146 H 576.349 -0.273307 -4.95547 0
M  V30 6147 H 571.605 -1.2392 -5.9871 0
M  V30 6148 H 575.779 -1.93188 -6.69068 0
M  V30 6149 H 573.406 -2.42088 -7.20623 0
M  V30 6150 N 574.981 1.5647 0.188427 0
M  V30 6151 C 575.929 1.95971 1.25293 0
M  V30 6152 C 576.923 0.846047 1.4676 0
M  V30 6153 O 578.129 1.03109 1.47542 0
M  V30 6154 H 574.504 0.623253 0.420784 0
M  V30 6155 H 576.475 2.84731 0.892792 0
M  V30 6156 C 575.224 2.32116 2.58877 0
M  V30 6157 H 574.547 3.17341 2.43176 0
M  V30 6158 H 575.987 2.63613 3.3209 0
M  V30 6159 C 574.446 1.15823 3.16365 0
M  V30 6160 O 574.976 0.436785 3.99318 0
M  V30 6161 N 573.182 0.933278 2.75206 0
M  V30 6162 H 572.729 1.52169 2.07852 0
M  V30 6163 H 572.687 0.156976 3.14008 0
M  V30 6164 N 576.459 -0.456382 1.50847 0
M  V30 6165 C 577.684 -1.2349 1.66628 0
M  V30 6166 C 578.109 -1.84715 0.355254 0
M  V30 6167 O 577.467 -1.67961 -0.682559 0
M  V30 6168 C 577.515 -2.30865 2.77009 0
M  V30 6169 O 576.619 -3.35882 2.39285 0
M  V30 6170 H 575.96 -0.36266 0.556214 0
M  V30 6171 H 578.49 -0.541374 1.97308 0
M  V30 6172 H 578.5 -2.75949 3.00526 0
M  V30 6173 H 577.175 -1.85677 3.72152 0
M  V30 6174 H 575.752 -2.96406 2.26269 0
M  V30 6175 N 577.937 -1.40673 -0.710563 0
M  V30 6176 C 579.165 -1.42547 -1.4996 0
M  V30 6177 C 579.58 -0.0265485 -1.88781 0
M  V30 6178 O 578.937 0.950694 -1.55782 0
M  V30 6179 C 578.988 -2.32071 -2.77173 0
M  V30 6180 O 578.709 -3.66518 -2.39992 0
M  V30 6181 C 580.21 -2.42591 -3.71032 0
M  V30 6182 H 577.43 -0.486025 -0.462623 0
M  V30 6183 H 579.974 -1.84783 -0.876102 0
M  V30 6184 H 578.129 -1.93184 -3.35795 0
M  V30 6185 H 578.543 -4.14115 -3.21884 0
M  V30 6186 H 580.017 -3.09429 -4.57119 0
M  V30 6187 H 580.494 -1.4525 -4.14486 0
M  V30 6188 H 581.1 -2.82051 -3.18319 0
M  V30 6189 N 579.415 0.9433 -1.26252 0
M  V30 6190 C 580.661 1.69226 -1.12846 0
M  V30 6191 C 581.016 1.8963 0.325282 0
M  V30 6192 O 580.309 1.46435 1.23561 0
M  V30 6193 C 580.503 3.07073 -1.82868 0
M  V30 6194 C 580.332 3.00118 -3.34902 0
M  V30 6195 C 579.102 3.03251 -4.04186 0
M  V30 6196 C 581.3 2.80418 -4.31127 0
M  V30 6197 N 579.282 2.86573 -5.42908 0
M  V30 6198 C 580.653 2.72287 -5.5701 0
M  V30 6199 C 582.708 2.65185 -4.21404 0
M  V30 6200 C 581.411 2.50479 -6.74279 0
M  V30 6201 C 583.437 2.4475 -5.38378 0
M  V30 6202 C 582.799 2.37349 -6.63208 0
M  V30 6203 H 578.898 0.626716 -0.467708 0
M  V30 6204 H 581.482 1.11645 -1.5951 0
M  V30 6205 H 579.653 3.62797 -1.38682 0
M  V30 6206 H 581.385 3.70816 -1.62103 0
M  V30 6207 H 578.14 3.12882 -3.55531 0
M  V30 6208 H 578.564 2.81408 -6.15742 0
M  V30 6209 H 583.206 2.69675 -3.25631 0
M  V30 6210 H 580.924 2.4473 -7.70151 0
M  V30 6211 H 584.51 2.33872 -5.32724 0
M  V30 6212 H 583.39 2.21746 -7.52196 0
M  V30 6213 N 580.893 1.08022 1.14757 0
M  V30 6214 C 582.123 0.827646 1.89298 0
M  V30 6215 C 582.531 -0.623506 1.78631 0
M  V30 6216 O 581.874 -1.43991 1.14071 0
M  V30 6217 C 581.936 1.16553 3.40082 0
M  V30 6218 C 581.6 2.61866 3.74533 0
M  V30 6219 C 582.597 3.60116 3.74984 0
M  V30 6220 C 580.282 2.97619 4.04633 0
M  V30 6221 C 582.276 4.92151 4.05051 0
M  V30 6222 C 579.963 4.2985 4.34364 0
M  V30 6223 C 580.961 5.26926 4.34555 0
M  V30 6224 O 580.649 6.5678 4.63568 0
M  V30 6225 H 580.381 0.298396 0.606577 0
M  V30 6226 H 582.935 1.44187 1.46285 0
M  V30 6227 H 581.165 0.494296 3.83528 0
M  V30 6228 H 582.854 0.894407 3.95923 0
M  V30 6229 H 583.62 3.33837 3.51821 0
M  V30 6230 H 579.499 2.22702 4.03639 0
M  V30 6231 H 583.043 5.67915 4.05115 0
M  V30 6232 H 578.94 4.55879 4.56995 0
M  V30 6233 H 579.708 6.62035 4.81303 0
M  V30 6234 N 582.371 -1.3172 0.865308 0
M  V30 6235 C 583.787 -1.4958 0.556596 0
M  V30 6236 C 583.987 -1.79763 -0.910353 0
M  V30 6237 O 583.043 -1.87351 -1.6928 0
M  V30 6238 C 584.356 -2.63277 1.45279 0
M  V30 6239 C 585.904 -2.77161 1.45433 0
M  V30 6240 C 586.379 -3.93949 2.33598 0
M  V30 6241 N 587.87 -4.01228 2.31453 0
M  V30 6242 C 588.605 -4.90855 2.96393 0
M  V30 6243 N 588.101 -5.85416 3.70486 0
M  V30 6244 N 589.894 -4.84063 2.85726 0
M  V30 6245 H 582.045 -1.10396 1.81456 0
M  V30 6246 H 584.308 -0.54507 0.775631 0
M  V30 6247 H 584.014 -2.47734 2.49641 0
M  V30 6248 H 583.888 -3.59309 1.14792 0
M  V30 6249 H 586.275 -2.9212 0.41831 0
M  V30 6250 H 586.356 -1.8181 1.79941 0
M  V30 6251 H 586 -3.79748 3.37274 0
M  V30 6252 H 585.93 -4.88598 1.96417 0
M  V30 6253 H 588.421 -3.3357 1.77593 0
M  V30 6254 H 588.734 -6.50525 4.17178 0
M  V30 6255 H 587.079 -5.85409 3.74594 0
M  V30 6256 H 590.27 -4.09163 2.27384 0
M  V30 6257 H 590.443 -5.53708 3.36617 0
M  V30 6258 N 583.85 -0.624285 -1.44708 0
M  V30 6259 C 584.798 0.0969952 -2.32398 0
M  V30 6260 C 585.792 0.842762 -1.46949 0
M  V30 6261 O 586.998 0.756436 -1.63334 0
M  V30 6262 H 583.373 0.0501306 -0.750327 0
M  V30 6263 H 585.344 -0.660767 -2.90992 0
M  V30 6264 C 584.093 1.06967 -3.30837 0
M  V30 6265 H 583.416 0.505242 -3.96595 0
M  V30 6266 H 584.856 1.54397 -3.94889 0
M  V30 6267 C 583.315 2.15153 -2.5925 0
M  V30 6268 O 583.845 3.23139 -2.3863 0
M  V30 6269 N 582.051 1.90898 -2.19103 0
M  V30 6270 H 581.598 1.03086 -2.36074 0
M  V30 6271 H 581.556 2.63485 -1.71531 0
M  V30 6272 N 585.328 1.53329 -0.364422 0
M  V30 6273 C 586.556 2.05657 0.226424 0
M  V30 6274 C 586.971 1.23801 1.42544 0
M  V30 6275 O 586.328 0.27839 1.80364 0
M  V30 6276 C 586.379 3.56125 0.621056 0
M  V30 6277 O 586.1 4.34879 -0.530304 0
M  V30 6278 C 587.601 4.24706 1.27041 0
M  V30 6279 H 584.821 0.669806 0.0400056 0
M  V30 6280 H 587.365 1.97714 -0.522456 0
M  V30 6281 H 585.52 3.64223 1.31985 0
M  V30 6282 H 585.934 5.24073 -0.211546 0
M  V30 6283 H 587.408 5.3131 1.49711 0
M  V30 6284 H 587.885 3.78354 2.23036 0
M  V30 6285 H 588.491 4.20858 0.613079 0
M  V30 6286 N 586.806 0.0935595 1.57322 0
M  V30 6287 C 588.034 -0.578934 1.98635 0
M  V30 6288 C 588.449 -1.61819 0.972626 0
M  V30 6289 O 587.806 -1.82461 -0.0379638 0
M  V30 6290 C 587.857 -1.22802 3.40003 0
M  V30 6291 O 587.578 -0.230334 4.37494 0
M  V30 6292 C 589.079 -1.98627 3.96311 0
M  V30 6293 H 586.299 -0.155324 0.652775 0
M  V30 6294 H 588.843 0.172393 2.03772 0
M  V30 6295 H 586.998 -1.93029 3.35885 0
M  V30 6296 H 587.412 -0.698649 5.19826 0
M  V30 6297 H 588.886 -2.39405 4.97382 0
M  V30 6298 H 589.363 -2.85151 3.34044 0
M  V30 6299 H 589.969 -1.3322 4.03897 0
M  V30 6300 N 588.284 -1.56567 -0.180126 0
M  V30 6301 C 589.532 -1.81133 -0.896392 0
M  V30 6302 C 589.853 -0.669114 -1.83161 0
M  V30 6303 O 589.123 0.311616 -1.93406 0
M  V30 6304 H 587.703 -0.668172 -0.333999 0
M  V30 6305 H 590.365 -1.94048 -0.182051 0
M  V30 6306 H 589.461 -2.74854 -1.47857 0
M  V30 6307 N 589.762 0.448376 -1.51087 0
M  V30 6308 C 590.71 1.56407 -1.72161 0
M  V30 6309 C 591.704 1.58878 -0.587721 0
M  V30 6310 O 592.91 1.62755 -0.768822 0
M  V30 6311 H 589.285 0.519423 -0.543786 0
M  V30 6312 H 591.256 1.35803 -2.65707 0
M  V30 6313 C 590.005 2.94163 -1.85373 0
M  V30 6314 H 589.328 2.9299 -2.72024 0
M  V30 6315 H 590.768 3.71625 -2.04135 0
M  V30 6316 C 589.227 3.31317 -0.610803 0
M  V30 6317 O 589.757 4.00985 0.239636 0
M  V30 6318 N 587.963 2.86966 -0.458127 0
M  V30 6319 H 587.51 2.30443 -1.15124 0
M  V30 6320 H 587.468 3.12188 0.372289 0
M  V30 6321 N 591.24 1.41047 0.703093 0
M  V30 6322 C 592.489 1.39301 1.4587 0
M  V30 6323 C 592.802 0.00267077 1.956 0
M  V30 6324 O 594.008 -0.137414 2.71152 0
M  V30 6325 C 592.464 2.44891 2.63735 0
M  V30 6326 C 592.072 3.89796 2.20824 0
M  V30 6327 C 593.816 2.5227 3.41409 0
M  V30 6328 C 591.723 4.86955 3.35602 0
M  V30 6329 H 590.653 0.518005 0.547893 0
M  V30 6330 H 593.304 1.66839 0.764009 0
M  V30 6331 H 591.686 2.10472 3.35436 0
M  V30 6332 H 592.86 4.33424 1.56461 0
M  V30 6333 H 591.175 3.86008 1.56163 0
M  V30 6334 H 593.772 3.22044 4.26839 0
M  V30 6335 H 594.115 1.55714 3.86081 0
M  V30 6336 H 594.648 2.85742 2.7676 0
M  V30 6337 H 591.387 5.84888 2.9595 0
M  V30 6338 H 590.907 4.47982 3.98839 0
M  V30 6339 H 592.586 5.07361 4.01489 0
M  V30 6340 N 592.718 -0.936591 1.26751 0
M  V30 6341 C 593.946 -1.71758 1.15355 0
M  V30 6342 C 594.361 -1.86549 -0.290683 0
M  V30 6343 O 593.718 -1.37616 -1.19868 0
M  V30 6344 C 593.769 -3.12193 1.82258 0
M  V30 6345 O 593.49 -2.98105 3.21038 0
M  V30 6346 C 594.991 -4.06485 1.76875 0
M  V30 6347 H 592.211 -0.537636 0.401483 0
M  V30 6348 H 594.755 -1.17382 1.67457 0
M  V30 6349 H 592.91 -3.63456 1.34083 0
M  V30 6350 H 593.324 -3.86824 3.54214 0
M  V30 6351 H 594.798 -5.02569 2.28316 0
M  V30 6352 H 595.275 -4.32986 0.736216 0
M  V30 6353 H 595.881 -3.61144 2.24623 0
M  V30 6354 N 594.196 -1.08629 -1.14182 0
M  V30 6355 C 595.106 -0.730126 -2.22949 0
M  V30 6356 C 596.122 0.26436 -1.7198 0
M  V30 6357 O 597.298 0.107742 -2.01112 0
M  V30 6358 C 594.363 -0.147227 -3.46387 0
M  V30 6359 C 593.424 -1.19662 -4.12286 0
M  V30 6360 C 592.657 -0.641437 -5.29831 0
M  V30 6361 O 592.88 0.538351 -5.67854 0
M  V30 6362 O 591.814 -1.39257 -5.85569 0
M  V30 6363 H 595.64 -1.63753 -2.55771 0
M  V30 6364 H 593.225 -0.860118 -1.22157 0
M  V30 6365 H 595.107 0.174923 -4.21037 0
M  V30 6366 H 593.782 0.733304 -3.15285 0
M  V30 6367 H 592.689 -1.57133 -3.395 0
M  V30 6368 H 594.022 -2.0495 -4.475 0
M  V30 6369 N 595.674 1.31259 -0.872281 0
M  V30 6370 C 596.922 1.96233 -0.483409 0
M  V30 6371 C 597.243 1.69276 0.968012 0
M  V30 6372 O 596.513 1.00943 1.67891 0
M  V30 6373 H 595.093 0.726025 -0.175774 0
M  V30 6374 H 597.755 1.60024 -1.11258 0
M  V30 6375 H 596.851 3.05403 -0.643075 0
M  V30 6376 N 597.152 0.631951 1.44375 0
M  V30 6377 C 598.1 -0.0846693 2.32446 0
M  V30 6378 C 599.094 -0.834957 1.47393 0
M  V30 6379 O 600.3 -0.747764 1.63733 0
M  V30 6380 H 596.675 -0.0461508 0.750583 0
M  V30 6381 H 598.646 0.67619 2.90638 0
M  V30 6382 C 597.395 -1.05211 3.314 0
M  V30 6383 H 596.718 -0.484203 3.96857 0
M  V30 6384 H 598.158 -1.523 3.95703 0
M  V30 6385 C 596.617 -2.13776 2.60387 0
M  V30 6386 O 597.147 -3.21869 2.4034 0
M  V30 6387 N 595.353 -1.89733 2.20113 0
M  V30 6388 H 594.9 -1.01833 2.36618 0
M  V30 6389 H 594.858 -2.62572 1.72926 0
M  V30 6390 N 598.631 -1.53133 0.372548 0
M  V30 6391 C 599.856 -2.0625 -0.218098 0
M  V30 6392 C 600.281 -1.24375 -1.41111 0
M  V30 6393 O 599.639 -0.264554 -1.79359 0
M  V30 6394 C 599.687 -3.55858 -0.582876 0
M  V30 6395 O 598.791 -3.76667 -1.67917 0
M  V30 6396 H 598.132 -0.663317 -0.030104 0
M  V30 6397 H 600.662 -1.97477 0.535169 0
M  V30 6398 H 600.672 -3.99007 -0.851925 0
M  V30 6399 H 599.347 -4.14892 0.289428 0
M  V30 6400 H 597.924 -3.45413 -1.40513 0
M  V30 6401 N 600.109 -0.101901 -1.5727 0
M  V30 6402 C 601.52 0.426173 -1.81771 0
M  V30 6403 C 601.871 1.67725 -1.01797 0
M  V30 6404 O 600.996 2.14958 -0.249386 0
M  V30 6405 C 601.591 0.779962 -3.297 0
M  V30 6406 C 600.15 1.25275 -3.54941 0
M  V30 6407 C 599.297 0.252814 -2.76145 0
M  V30 6408 H 602.248 -0.32726 -1.55289 0
M  V30 6409 H 602.269 1.63891 -3.43395 0
M  V30 6410 H 601.781 -0.130778 -3.8788 0
M  V30 6411 H 599.882 2.18097 -3.021 0
M  V30 6412 H 599.995 1.20988 -4.63572 0
M  V30 6413 H 598.359 0.736362 -2.43823 0
M  V30 6414 H 599.142 -0.650724 -3.37076 0
M  V30 6415 N 601.587 1.56661 0.17182 0
M  V30 6416 C 602.836 1.81158 0.886831 0
M  V30 6417 C 603.149 0.679072 1.83434 0
M  V30 6418 O 604.355 0.808964 2.59168 0
M  V30 6419 C 602.811 3.20999 1.6275 0
M  V30 6420 C 602.419 4.42117 0.723652 0
M  V30 6421 C 604.163 3.5479 2.33076 0
M  V30 6422 C 602.07 5.7298 1.46452 0
M  V30 6423 H 601 0.675543 0.334899 0
M  V30 6424 H 603.651 1.82967 0.139765 0
M  V30 6425 H 602.033 3.13506 2.4193 0
M  V30 6426 H 603.207 4.60789 -0.0311485 0
M  V30 6427 H 601.522 4.16197 0.130063 0
M  V30 6428 H 604.119 4.49806 2.89099 0
M  V30 6429 H 604.462 2.79646 3.08389 0
M  V30 6430 H 604.995 3.63834 1.6084 0
M  V30 6431 H 601.734 6.51152 0.753729 0
M  V30 6432 H 601.254 5.58285 2.19266 0
M  V30 6433 H 602.933 6.14916 2.01214 0
M  V30 6434 N 603.065 -0.440357 1.51323 0
M  V30 6435 C 604.293 -1.21255 1.67645 0
M  V30 6436 C 604.708 -1.85088 0.37252 0
M  V30 6437 O 604.065 -1.70582 -0.648683 0
M  V30 6438 C 604.116 -2.29881 2.78993 0
M  V30 6439 O 603.837 -1.68659 4.04334 0
M  V30 6440 C 605.338 -3.20214 3.06558 0
M  V30 6441 H 602.558 -0.36558 0.562666 0
M  V30 6442 H 605.102 -0.52214 1.97722 0
M  V30 6443 H 603.257 -2.94643 2.51524 0
M  V30 6444 H 603.671 -2.40426 4.6615 0
M  V30 6445 H 605.145 -3.92575 3.88058 0
M  V30 6446 H 605.622 -3.80794 2.18844 0
M  V30 6447 H 606.228 -2.61156 3.35675 0
M  V30 6448 N 604.543 -1.41418 -0.695603 0
M  V30 6449 C 605.473 -1.46035 -1.82197 0
M  V30 6450 C 606.454 -0.319025 -1.67082 0
M  V30 6451 O 607.639 -0.530462 -1.86815 0
M  V30 6452 C 604.769 -1.34179 -3.20333 0
M  V30 6453 C 603.723 -2.46123 -3.50154 0
M  V30 6454 C 603.049 -2.19332 -4.87645 0
M  V30 6455 C 604.349 -3.88463 -3.49133 0
M  V30 6456 H 606.043 -2.40303 -1.78591 0
M  V30 6457 H 603.589 -1.15663 -0.857797 0
M  V30 6458 H 605.542 -1.36021 -3.98844 0
M  V30 6459 H 604.266 -0.363952 -3.24566 0
M  V30 6460 H 602.925 -2.43563 -2.73994 0
M  V30 6461 H 602.573 -1.19891 -4.88503 0
M  V30 6462 H 602.273 -2.94344 -5.08562 0
M  V30 6463 H 603.797 -2.22889 -5.68465 0
M  V30 6464 H 605.211 -3.92738 -4.17648 0
M  V30 6465 H 603.608 -4.63158 -3.81582 0
M  V30 6466 H 604.678 -4.16617 -2.48109 0
M  V30 6467 N 606.021 0.929856 -1.27246 0
M  V30 6468 C 607.432 1.49223 -1.12203 0
M  V30 6469 C 607.783 1.93989 0.293731 0
M  V30 6470 O 606.908 1.80978 1.18642 0
M  V30 6471 C 607.503 2.71198 -2.0307 0
M  V30 6472 C 606.062 3.23666 -1.92139 0
M  V30 6473 C 605.209 1.96409 -1.95752 0
M  V30 6474 H 608.16 0.744181 -1.4017 0
M  V30 6475 H 608.181 3.45905 -1.58524 0
M  V30 6476 H 607.693 2.38585 -3.06102 0
M  V30 6477 H 605.794 3.61042 -0.920834 0
M  V30 6478 H 605.907 3.90006 -2.78267 0
M  V30 6479 H 604.271 2.12806 -1.39949 0
M  V30 6480 H 605.054 1.66113 -3.00436 0
M  V30 6481 N 607.499 1.09233 1.13605 0
M  V30 6482 C 608.739 0.836786 1.86487 0
M  V30 6483 C 609.103 -0.626191 1.81502 0
M  V30 6484 O 610.304 -0.99758 2.49603 0
M  V30 6485 C 608.575 1.35476 3.30728 0
M  V30 6486 S 610.134 1.2328 4.21126 0
M  V30 6487 H 606.952 0.302702 0.643345 0
M  V30 6488 H 609.554 1.3953 1.36936 0
M  V30 6489 H 608.258 2.41381 3.31909 0
M  V30 6490 H 607.789 0.792286 3.85339 0
M  V30 6491 H 609.804 0.182468 4.95864 0
M  V30 6492 N 608.977 -1.30795 0.87923 0
M  V30 6493 C 610.393 -1.48981 0.57243 0
M  V30 6494 C 610.593 -1.80719 -0.891236 0
M  V30 6495 O 609.649 -1.89136 -1.67283 0
M  V30 6496 C 610.962 -2.61721 1.48063 0
M  V30 6497 C 612.51 -2.75603 1.48365 0
M  V30 6498 C 612.985 -3.91449 2.37763 0
M  V30 6499 N 614.476 -3.98751 2.35695 0
M  V30 6500 C 615.211 -4.87684 3.01583 0
M  V30 6501 N 614.707 -5.81454 3.76674 0
M  V30 6502 N 616.5 -4.81005 2.90844 0
M  V30 6503 H 608.651 -1.08465 1.82617 0
M  V30 6504 H 610.914 -0.536813 0.781368 0
M  V30 6505 H 610.62 -2.45073 2.52254 0
M  V30 6506 H 610.494 -3.58071 1.18596 0
M  V30 6507 H 612.881 -2.9166 0.44927 0
M  V30 6508 H 612.962 -1.79891 1.81859 0
M  V30 6509 H 612.606 -3.76149 3.41283 0
M  V30 6510 H 612.536 -4.86487 2.01589 0
M  V30 6511 H 615.027 -3.31668 1.81121 0
M  V30 6512 H 615.34 -6.46063 4.24054 0
M  V30 6513 H 613.685 -5.81403 3.80782 0
M  V30 6514 H 616.876 -4.06728 2.31711 0
M  V30 6515 H 617.049 -5.50107 3.42471 0
M  V30 6516 N 610.455 -0.639598 -1.44038 0
M  V30 6517 C 611.704 -0.144885 -2.01179 0
M  V30 6518 C 612.017 1.24372 -1.50967 0
M  V30 6519 O 613.223 1.83291 -2.00292 0
M  V30 6520 C 611.679 -0.208244 -3.59297 0
M  V30 6521 C 611.287 -1.59869 -4.18504 0
M  V30 6522 C 613.031 0.229568 -4.23879 0
M  V30 6523 C 610.938 -1.61671 -5.68873 0
M  V30 6524 H 609.868 -0.0504005 -0.752314 0
M  V30 6525 H 612.519 -0.799639 -1.65161 0
M  V30 6526 H 610.901 0.513767 -3.92653 0
M  V30 6527 H 612.075 -2.34496 -3.96671 0
M  V30 6528 H 610.39 -1.98131 -3.66242 0
M  V30 6529 H 612.987 0.235758 -5.3418 0
M  V30 6530 H 613.33 1.25848 -3.96822 0
M  V30 6531 H 613.863 -0.440233 -3.95357 0
M  V30 6532 H 610.602 -2.62427 -6.00677 0
M  V30 6533 H 610.122 -0.913489 -5.92803 0
M  V30 6534 H 611.801 -1.35439 -6.32665 0
M  V30 6535 N 611.933 1.52934 -0.380664 0
M  V30 6536 C 612.88 2.26197 0.458641 0
M  V30 6537 C 613.85 1.27462 1.06502 0
M  V30 6538 O 615.035 1.56274 1.09467 0
M  V30 6539 C 612.175 3.06571 1.58456 0
M  V30 6540 C 611.288 4.20222 1.00189 0
M  V30 6541 C 610.423 4.88007 2.09815 0
M  V30 6542 C 609.462 5.93665 1.49092 0
M  V30 6543 N 608.599 6.55081 2.52613 0
M  V30 6544 H 613.439 2.975 -0.172595 0
M  V30 6545 H 610.976 1.4678 -0.0969426 0
M  V30 6546 H 612.934 3.51455 2.24801 0
M  V30 6547 H 611.564 2.37494 2.18624 0
M  V30 6548 H 610.616 3.79714 0.228292 0
M  V30 6549 H 611.928 4.96102 0.518064 0
M  V30 6550 H 611.082 5.36151 2.83948 0
M  V30 6551 H 609.821 4.11632 2.61555 0
M  V30 6552 H 608.826 5.44868 0.7348 0
M  V30 6553 H 610.051 6.71969 0.981582 0
M  V30 6554 H 607.997 5.8155 3.03538 0
M  V30 6555 H 607.914 7.26548 2.08961 0
M  V30 6556 H 609.182 7.07871 3.26402 0
M  V30 6557 N 613.412 0.11024 1.57214 0
M  V30 6558 C 614.344 -0.873497 2.11902 0
M  V30 6559 C 615.357 -1.23588 1.05971 0
M  V30 6560 O 616.546 -1.18636 1.33371 0
M  V30 6561 C 613.646 -2.17805 2.59643 0
M  V30 6562 C 612.819 -1.98869 3.89576 0
M  V30 6563 C 611.878 -3.12974 4.23006 0
M  V30 6564 O 610.904 -2.86272 4.91973 0
M  V30 6565 N 612.106 -4.39167 3.79622 0
M  V30 6566 H 614.871 -0.406317 2.96933 0
M  V30 6567 H 612.432 -0.074437 1.61729 0
M  V30 6568 H 614.424 -2.93117 2.79042 0
M  V30 6569 H 612.994 -2.55899 1.7954 0
M  V30 6570 H 612.214 -1.078 3.79174 0
M  V30 6571 H 613.502 -1.83512 4.74553 0
M  V30 6572 H 612.9 -4.63739 3.2398 0
M  V30 6573 H 611.457 -5.11379 4.04147 0
M  V30 6574 N 614.89 -1.56749 -0.16351 0
M  V30 6575 C 616.139 -1.81626 -0.877211 0
M  V30 6576 C 616.452 -0.688791 -1.83071 0
M  V30 6577 O 617.658 -0.822697 -2.58735 0
M  V30 6578 C 616.114 -3.21858 -1.61045 0
M  V30 6579 C 615.722 -4.42494 -0.700195 0
M  V30 6580 C 617.466 -3.56021 -2.31192 0
M  V30 6581 C 615.373 -5.73748 -1.43412 0
M  V30 6582 H 614.303 -0.67731 -0.331312 0
M  V30 6583 H 616.954 -1.83039 -0.13006 0
M  V30 6584 H 615.336 -3.14784 -2.40264 0
M  V30 6585 H 616.51 -4.60766 0.0555849 0
M  V30 6586 H 614.825 -4.1626 -0.10799 0
M  V30 6587 H 617.422 -4.51333 -2.8671 0
M  V30 6588 H 617.765 -2.81277 -3.06902 0
M  V30 6589 H 618.298 -3.64682 -1.58909 0
M  V30 6590 H 615.037 -6.51543 -0.719186 0
M  V30 6591 H 614.557 -5.5944 -2.16302 0
M  V30 6592 H 616.236 -6.15975 -1.9795 0
M  V30 6593 N 616.368 0.432326 -1.51554 0
M  V30 6594 C 617.617 1.17831 -1.63703 0
M  V30 6595 C 617.93 1.92229 -0.36156 0
M  V30 6596 O 619.136 2.69069 -0.362495 0
M  V30 6597 C 617.592 2.14318 -2.89129 0
M  V30 6598 C 617.2 1.45544 -4.23699 0
M  V30 6599 C 618.944 2.89319 -3.10636 0
M  V30 6600 C 616.851 2.40545 -5.4027 0
M  V30 6601 H 615.781 0.443533 -0.60975 0
M  V30 6602 H 618.432 0.444878 -1.78026 0
M  V30 6603 H 616.814 2.91117 -2.68452 0
M  V30 6604 H 617.988 0.742693 -4.54775 0
M  V30 6605 H 616.303 0.826772 -4.0811 0
M  V30 6606 H 618.9 3.60495 -3.94902 0
M  V30 6607 H 619.243 3.50951 -2.23918 0
M  V30 6608 H 619.776 2.19625 -3.31677 0
M  V30 6609 H 616.515 1.83594 -6.29264 0
M  V30 6610 H 616.035 3.09859 -5.13563 0
M  V30 6611 H 617.714 3.01569 -5.72421 0
M  V30 6612 N 617.846 1.41785 0.688094 0
M  V30 6613 C 618.794 1.44436 1.82321 0
M  V30 6614 C 619.788 0.321544 1.6632 0
M  V30 6615 O 620.994 0.493931 1.73091 0
M  V30 6616 H 617.369 0.452084 0.600936 0
M  V30 6617 H 619.34 2.40087 1.77202 0
M  V30 6618 C 618.089 1.35071 3.20392 0
M  V30 6619 H 617.412 2.2076 3.33324 0
M  V30 6620 H 618.852 1.40988 3.99873 0
M  V30 6621 C 617.311 0.0639127 3.36839 0
M  V30 6622 O 617.841 -0.888495 3.91751 0
M  V30 6623 N 616.047 -0.0146114 2.90596 0
M  V30 6624 H 615.594 0.761191 2.46097 0
M  V30 6625 H 615.552 -0.874988 3.01979 0
M  V30 6626 N 619.324 -0.923095 1.27737 0
M  V30 6627 C 620.257 -2.02515 1.05181 0
M  V30 6628 C 621.235 -1.62574 -0.0292204 0
M  V30 6629 O 622.419 -1.88137 0.116848 0
M  V30 6630 C 619.546 -3.33407 0.596468 0
M  V30 6631 C 618.592 -3.92328 1.67276 0
M  V30 6632 S 619.425 -4.24342 3.26641 0
M  V30 6633 C 620.581 -5.58308 2.82919 0
M  V30 6634 H 620.814 -2.21336 1.98488 0
M  V30 6635 H 618.347 -1.06679 1.1162 0
M  V30 6636 H 620.305 -4.09086 0.34044 0
M  V30 6637 H 618.966 -3.125 -0.316614 0
M  V30 6638 H 618.159 -4.86797 1.30556 0
M  V30 6639 H 617.761 -3.2325 1.8811 0
M  V30 6640 H 620.053 -6.37801 2.28509 0
M  V30 6641 H 620.996 -5.99931 3.7615 0
M  V30 6642 H 621.404 -5.19049 2.21919 0
M  V30 6643 N 620.802 -1.09834 -1.13024 0
M  V30 6644 C 622.048 -0.848072 -1.84876 0
M  V30 6645 C 622.403 0.619663 -1.82148 0
M  V30 6646 O 621.696 1.45067 -1.25164 0
M  V30 6647 C 621.89 -1.32263 -3.32026 0
M  V30 6648 C 621.719 -2.83497 -3.49084 0
M  V30 6649 C 620.489 -3.51425 -3.63082 0
M  V30 6650 C 622.687 -3.81623 -3.44773 0
M  V30 6651 N 620.669 -4.91042 -3.68443 0
M  V30 6652 C 622.04 -5.07217 -3.56555 0
M  V30 6653 C 624.095 -3.74419 -3.282 0
M  V30 6654 C 622.798 -6.26457 -3.53474 0
M  V30 6655 C 624.824 -4.93151 -3.26429 0
M  V30 6656 C 624.186 -6.1759 -3.38765 0
M  V30 6657 H 620.285 -0.363249 -0.692513 0
M  V30 6658 H 622.869 -1.39952 -1.35357 0
M  V30 6659 H 621.04 -0.79858 -3.80102 0
M  V30 6660 H 622.772 -1.01725 -3.91707 0
M  V30 6661 H 619.527 -3.0186 -3.64935 0
M  V30 6662 H 619.951 -5.63782 -3.74805 0
M  V30 6663 H 624.593 -2.79132 -3.17561 0
M  V30 6664 H 622.311 -7.22039 -3.62884 0
M  V30 6665 H 625.897 -4.8928 -3.14796 0
M  V30 6666 H 624.777 -7.07925 -3.37361 0
M  V30 6667 N 622.28 1.30327 -0.886154 0
M  V30 6668 C 623.212 2.27079 -0.311072 0
M  V30 6669 C 624.225 1.53758 0.53502 0
M  V30 6670 O 625.414 1.74947 0.354378 0
M  V30 6671 C 622.514 3.33965 0.576228 0
M  V30 6672 C 621.687 4.36735 -0.241064 0
M  V30 6673 C 620.746 5.23028 0.576916 0
M  V30 6674 O 619.772 5.692 -0.000802231 0
M  V30 6675 N 620.974 5.49016 1.88579 0
M  V30 6676 H 623.739 2.77065 -1.14259 0
M  V30 6677 H 621.3 1.43519 -0.749258 0
M  V30 6678 H 623.292 3.88618 1.12953 0
M  V30 6679 H 621.862 2.839 1.30842 0
M  V30 6680 H 621.082 3.81932 -0.975805 0
M  V30 6681 H 622.37 5.02451 -0.801272 0
M  V30 6682 H 621.768 5.13288 2.37806 0
M  V30 6683 H 620.325 6.06539 2.38651 0
M  V30 6684 N 623.758 0.647228 1.43697 0
M  V30 6685 C 624.668 -0.0487997 2.34549 0
M  V30 6686 C 625.684 -0.818586 1.53542 0
M  V30 6687 O 626.86 -0.767195 1.86215 0
M  V30 6688 C 623.925 -1.00734 3.31743 0
M  V30 6689 C 622.986 -0.23515 4.28655 0
M  V30 6690 C 622.219 -1.14803 5.21206 0
M  V30 6691 O 622.442 -2.38717 5.18045 0
M  V30 6692 O 621.376 -0.623667 5.9866 0
M  V30 6693 H 625.202 0.698863 2.9555 0
M  V30 6694 H 622.787 0.407412 1.43738 0
M  V30 6695 H 624.669 -1.55837 3.91526 0
M  V30 6696 H 623.344 -1.73534 2.73254 0
M  V30 6697 H 622.251 0.359319 3.7237 0
M  V30 6698 H 623.584 0.453152 4.9011 0
M  V30 6699 N 625.236 -1.5273 0.388769 0
M  V30 6700 C 626.482 -2.01871 -0.193877 0
M  V30 6701 C 626.815 -1.27475 -1.46505 0
M  V30 6702 O 626.09 -0.375063 -1.90849 0
M  V30 6703 C 626.373 -3.5712 -0.462336 0
M  V30 6704 C 626.226 -4.42186 0.824091 0
M  V30 6705 C 627.545 -4.21881 -1.25319 0
M  V30 6706 H 624.664 -0.733764 -0.0689899 0
M  V30 6707 H 627.306 -1.82796 0.518231 0
M  V30 6708 H 625.456 -3.73504 -1.06896 0
M  V30 6709 H 627.128 -4.37554 1.46096 0
M  V30 6710 H 625.371 -4.09219 1.43952 0
M  V30 6711 H 626.042 -5.48828 0.590905 0
M  V30 6712 H 628.518 -4.0947 -0.73981 0
M  V30 6713 H 627.394 -5.30487 -1.40977 0
M  V30 6714 H 627.655 -3.79478 -2.26824 0
M  V30 6715 N 626.714 -0.118576 -1.57153 0
M  V30 6716 C 627.962 0.538461 -1.94795 0
M  V30 6717 C 628.283 1.67243 -1.00274 0
M  V30 6718 O 627.553 1.95811 -0.0589692 0
M  V30 6719 H 626.133 0.201904 -0.719197 0
M  V30 6720 H 628.795 -0.187418 -1.93997 0
M  V30 6721 H 627.891 0.933315 -2.97818 0
M  V30 6722 N 628.193 1.56834 0.155195 0
M  V30 6723 C 629.14 1.97646 1.19184 0
M  V30 6724 C 630.11 0.842788 1.4313 0
M  V30 6725 O 631.295 1.1042 1.55602 0
M  V30 6726 C 628.435 2.35527 2.52232 0
M  V30 6727 C 627.548 3.62147 2.35529 0
M  V30 6728 C 626.683 3.89167 3.61555 0
M  V30 6729 C 625.722 5.09084 3.39853 0
M  V30 6730 N 624.859 5.32156 4.5799 0
M  V30 6731 H 629.699 2.8601 0.836802 0
M  V30 6732 H 627.236 1.41507 0.401758 0
M  V30 6733 H 629.194 2.55516 3.29799 0
M  V30 6734 H 627.824 1.50253 2.85699 0
M  V30 6735 H 626.876 3.4998 1.49057 0
M  V30 6736 H 628.188 4.49871 2.15448 0
M  V30 6737 H 627.342 4.09611 4.47553 0
M  V30 6738 H 626.081 2.9985 3.84632 0
M  V30 6739 H 625.086 4.88522 2.52243 0
M  V30 6740 H 626.311 5.99947 3.18183 0
M  V30 6741 H 624.257 4.45791 4.81255 0
M  V30 6742 H 624.174 6.14133 4.40882 0
M  V30 6743 H 625.442 5.57091 5.45225 0
M  V30 6744 N 629.671 -0.424282 1.51781 0
M  V30 6745 C 630.634 -1.49848 1.73431 0
M  V30 6746 C 631.634 -1.49016 0.604225 0
M  V30 6747 O 632.824 -1.50808 0.871935 0
M  V30 6748 C 629.956 -2.89332 1.80277 0
M  V30 6749 H 631.149 -1.3195 2.69312 0
M  V30 6750 H 628.702 -0.653809 1.41968 0
M  V30 6751 H 629.437 -3.12618 0.862568 0
M  V30 6752 H 629.222 -2.9134 2.62419 0
M  V30 6753 H 630.712 -3.67233 1.98821 0
M  V30 6754 N 631.149 -1.42148 -0.680565 0
M  V30 6755 C 632.082 -1.39602 -1.80517 0
M  V30 6756 C 633.06 -0.261098 -1.6049 0
M  V30 6757 O 634.244 -0.450404 -1.8304 0
M  V30 6758 C 631.371 -1.18134 -3.1743 0
M  V30 6759 C 630.417 -2.34543 -3.56219 0
M  V30 6760 S 631.25 -3.97063 -3.59306 0
M  V30 6761 C 632.406 -3.77926 -4.98921 0
M  V30 6762 H 632.639 -2.3477 -1.82402 0
M  V30 6763 H 630.172 -1.28851 -0.850691 0
M  V30 6764 H 632.13 -1.06434 -3.96462 0
M  V30 6765 H 630.791 -0.245611 -3.13138 0
M  V30 6766 H 629.984 -2.15255 -4.55721 0
M  V30 6767 H 629.586 -2.42728 -2.84533 0
M  V30 6768 H 631.878 -3.3856 -5.86842 0
M  V30 6769 H 632.821 -4.77084 -5.23256 0
M  V30 6770 H 633.229 -3.10904 -4.71167 0
M  V30 6771 N 632.627 0.916307 -1.28225 0
M  V30 6772 C 633.857 1.69654 -1.17902 0
M  V30 6773 C 634.265 1.87331 0.265268 0
M  V30 6774 O 633.608 1.39828 1.19137 0
M  V30 6775 C 633.67 3.11024 -1.80289 0
M  V30 6776 C 633.334 3.16643 -3.29525 0
M  V30 6777 C 634.331 2.98032 -4.25997 0
M  V30 6778 C 632.016 3.39238 -3.70436 0
M  V30 6779 C 634.01 3.01924 -5.61356 0
M  V30 6780 C 631.697 3.42762 -5.05922 0
M  V30 6781 C 632.695 3.24125 -6.01192 0
M  V30 6782 O 632.383 3.27406 -7.34208 0
M  V30 6783 H 632.115 0.537197 -0.41036 0
M  V30 6784 H 634.669 1.15547 -1.69817 0
M  V30 6785 H 632.899 3.66662 -1.22865 0
M  V30 6786 H 634.588 3.71063 -1.6452 0
M  V30 6787 H 635.354 2.80405 -3.95725 0
M  V30 6788 H 631.233 3.52791 -2.96749 0
M  V30 6789 H 634.777 2.87295 -6.35694 0
M  V30 6790 H 630.674 3.59916 -5.35846 0
M  V30 6791 H 631.442 3.43784 -7.42802 0
M  V30 6792 N 634.105 1.10431 1.1244 0
M  V30 6793 C 635.068 0.756542 2.16354 0
M  V30 6794 C 636.068 -0.21899 1.59302 0
M  V30 6795 O 637.258 0.00415969 1.742 0
M  V30 6796 C 634.39 0.120612 3.40687 0
M  V30 6797 H 635.583 1.67696 2.48632 0
M  V30 6798 H 633.136 0.904832 1.27446 0
M  V30 6799 H 633.871 -0.810536 3.14008 0
M  V30 6800 H 633.656 0.822693 3.83372 0
M  V30 6801 H 635.146 -0.106945 4.17463 0
M  V30 6802 N 635.583 -1.29855 0.893053 0
M  V30 6803 C 636.994 -1.77946 0.564998 0
M  V30 6804 C 637.345 -1.73339 -0.919134 0
M  V30 6805 O 636.47 -1.3152 -1.71847 0
M  V30 6806 C 637.065 -3.23118 1.01883 0
M  V30 6807 C 635.624 -3.69013 0.742051 0
M  V30 6808 C 634.771 -2.50121 1.19727 0
M  V30 6809 H 637.722 -1.16611 1.07646 0
M  V30 6810 H 637.743 -3.78875 0.351249 0
M  V30 6811 H 637.255 -3.26439 2.09903 0
M  V30 6812 H 635.356 -3.71173 -0.325816 0
M  V30 6813 H 635.469 -4.60117 1.33527 0
M  V30 6814 H 633.833 -2.47128 0.616418 0
M  V30 6815 H 634.616 -2.56174 2.28538 0
M  V30 6816 N 637.061 -0.65484 -1.43351 0
M  V30 6817 C 638.472 -0.248506 -1.85039 0
M  V30 6818 C 638.823 1.20526 -1.54816 0
M  V30 6819 O 637.948 1.92016 -0.99794 0
M  V30 6820 C 638.543 -0.444241 -3.35875 0
M  V30 6821 C 637.102 -0.0922108 -3.76287 0
M  V30 6822 C 636.249 -0.746327 -2.67068 0
M  V30 6823 H 639.2 -0.8584 -1.33481 0
M  V30 6824 H 639.221 0.309762 -3.79237 0
M  V30 6825 H 638.733 -1.50239 -3.5784 0
M  V30 6826 H 636.834 0.96328 -3.59933 0
M  V30 6827 H 636.947 -0.518807 -4.76283 0
M  V30 6828 H 635.311 -0.179416 -2.54067 0
M  V30 6829 H 636.094 -1.80754 -2.91861 0
M  V30 6830 N 638.539 1.52521 -0.396863 0
M  V30 6831 C 639.788 2.00857 0.184184 0
M  V30 6832 C 640.101 1.28733 1.47265 0
M  V30 6833 O 641.307 1.67821 2.13421 0
M  V30 6834 C 639.763 3.57901 0.378787 0
M  V30 6835 C 639.371 4.38931 -0.896873 0
M  V30 6836 C 641.115 4.14504 0.915789 0
M  V30 6837 C 639.022 5.87591 -0.670133 0
M  V30 6838 H 637.952 0.750496 0.0726055 0
M  V30 6839 H 640.603 1.75965 -0.520425 0
M  V30 6840 H 638.985 3.79072 1.14543 0
M  V30 6841 H 640.159 4.29524 -1.66872 0
M  V30 6842 H 638.474 3.93586 -1.35938 0
M  V30 6843 H 641.071 5.23236 1.10126 0
M  V30 6844 H 641.414 3.71076 1.88701 0
M  V30 6845 H 641.947 3.97253 0.208523 0
M  V30 6846 H 638.686 6.35355 -1.61257 0
M  V30 6847 H 638.206 5.99767 0.0626368 0
M  V30 6848 H 639.885 6.46268 -0.307577 0
M  V30 6849 N 640.017 0.126909 1.57088 0
M  V30 6850 C 641.433 -0.229641 1.57939 0
M  V30 6851 C 641.633 -1.66145 1.1401 0
M  V30 6852 O 640.689 -2.3843 0.831119 0
M  V30 6853 C 642.002 0.0108648 3.00698 0
M  V30 6854 C 643.55 -0.054418 3.12953 0
M  V30 6855 C 644.025 0.158497 4.57726 0
M  V30 6856 N 645.516 0.104735 4.63082 0
M  V30 6857 C 646.251 0.24427 5.72879 0
M  V30 6858 N 645.747 0.440415 6.91399 0
M  V30 6859 N 647.54 0.183286 5.61801 0
M  V30 6860 H 639.691 1.06203 1.83942 0
M  V30 6861 H 641.954 0.418834 0.85046 0
M  V30 6862 H 641.66 1.00102 3.37154 0
M  V30 6863 H 641.534 -0.717512 3.70313 0
M  V30 6864 H 643.921 -1.0351 2.7635 0
M  V30 6865 H 644.002 0.705967 2.45865 0
M  V30 6866 H 643.646 1.13619 4.95028 0
M  V30 6867 H 643.576 -0.62197 5.22914 0
M  V30 6868 H 646.067 -0.0430298 3.77876 0
M  V30 6869 H 646.38 0.537536 7.70928 0
M  V30 6870 H 644.725 0.476488 6.93365 0
M  V30 6871 H 647.916 0.0309561 4.6809 0
M  V30 6872 H 648.089 0.295471 6.47326 0
M  V30 6873 N 641.495 -1.56914 -0.146875 0
M  V30 6874 C 642.743 -1.82994 -0.85777 0
M  V30 6875 C 643.064 -0.707814 -1.817 0
M  V30 6876 O 642.334 0.270521 -1.94023 0
M  V30 6877 H 640.914 -0.675106 -0.319751 0
M  V30 6878 H 643.576 -1.9439 -0.140849 0
M  V30 6879 H 642.672 -2.77928 -1.41994 0
M  V30 6880 N 642.974 0.416227 -1.52004 0
M  V30 6881 C 643.906 1.52552 -1.71058 0
M  V30 6882 C 644.919 1.51693 -0.59102 0
M  V30 6883 O 646.108 1.56087 -0.865973 0
M  V30 6884 C 643.208 2.91455 -1.72937 0
M  V30 6885 C 642.381 3.16584 -3.01816 0
M  V30 6886 C 641.44 4.35322 -2.95603 0
M  V30 6887 O 640.466 4.32947 -3.6952 0
M  V30 6888 N 641.668 5.40049 -2.12903 0
M  V30 6889 H 644.433 1.36604 -2.66757 0
M  V30 6890 H 641.994 0.60544 -1.50153 0
M  V30 6891 H 643.986 3.68944 -1.66321 0
M  V30 6892 H 642.556 3.00895 -0.847418 0
M  V30 6893 H 641.776 2.27203 -3.22137 0
M  V30 6894 H 643.064 3.30213 -3.87088 0
M  V30 6895 H 642.462 5.44823 -1.52265 0
M  V30 6896 H 641.019 6.16308 -2.1215 0
M  V30 6897 N 644.452 1.42507 0.673017 0
M  V30 6898 C 645.701 1.42364 1.42883 0
M  V30 6899 C 646.014 0.0441598 1.9555 0
M  V30 6900 O 647.22 -0.0798679 2.71382 0
M  V30 6901 C 645.676 2.5043 2.58482 0
M  V30 6902 C 645.284 3.94392 2.12506 0
M  V30 6903 C 647.028 2.59455 3.35981 0
M  V30 6904 C 644.935 4.93964 3.25198 0
M  V30 6905 H 643.865 0.52951 0.536782 0
M  V30 6906 H 646.516 1.68422 0.728448 0
M  V30 6907 H 644.898 2.1754 3.30896 0
M  V30 6908 H 646.072 4.36645 1.47233 0
M  V30 6909 H 644.387 3.89233 1.4794 0
M  V30 6910 H 646.984 3.31025 4.19912 0
M  V30 6911 H 647.327 1.63869 3.82691 0
M  V30 6912 H 647.86 2.91549 2.70637 0
M  V30 6913 H 644.599 5.91034 2.83477 0
M  V30 6914 H 644.119 4.56341 3.89247 0
M  V30 6915 H 645.798 5.15763 3.90637 0
M  V30 6916 N 645.93 -0.909495 1.28709 0
M  V30 6917 C 646.877 -2.01245 1.13 0
M  V30 6918 C 647.847 -1.6608 0.0259684 0
M  V30 6919 O 649.032 -1.89835 0.191687 0
M  V30 6920 C 646.172 -3.35644 0.802315 0
M  V30 6921 C 645.285 -3.83653 1.98582 0
M  V30 6922 C 644.42 -5.06582 1.59837 0
M  V30 6923 C 643.459 -5.46934 2.74827 0
M  V30 6924 N 642.596 -6.61053 2.36546 0
M  V30 6925 H 647.436 -2.14013 2.0737 0
M  V30 6926 H 644.973 -1.0482 1.03205 0
M  V30 6927 H 646.931 -4.12963 0.593057 0
M  V30 6928 H 645.561 -3.22631 -0.104457 0
M  V30 6929 H 644.613 -3.02454 2.30708 0
M  V30 6930 H 645.925 -4.09515 2.84779 0
M  V30 6931 H 645.079 -5.91457 1.35143 0
M  V30 6932 H 643.818 -4.82537 0.707753 0
M  V30 6933 H 642.823 -4.60599 3.00215 0
M  V30 6934 H 644.048 -5.72965 3.64538 0
M  V30 6935 H 641.994 -6.3863 1.49959 0
M  V30 6936 H 641.911 -6.86662 3.16277 0
M  V30 6937 H 643.179 -7.49221 2.15146 0
M  V30 6938 N 647.408 -1.11026 -1.11852 0
M  V30 6939 C 648.648 -0.866348 -1.85132 0
M  V30 6940 C 649.012 0.597236 -1.82475 0
M  V30 6941 O 650.213 0.957744 -2.51159 0
M  V30 6942 C 648.484 -1.40721 -3.28531 0
M  V30 6943 S 650.043 -1.29964 -4.19112 0
M  V30 6944 H 646.861 -0.312899 -0.638447 0
M  V30 6945 H 649.463 -1.41691 -1.34699 0
M  V30 6946 H 648.167 -2.46631 -3.28027 0
M  V30 6947 H 647.698 -0.85349 -3.8403 0
M  V30 6948 H 649.713 -0.261333 -4.95511 0
M  V30 6949 N 648.886 1.2938 -0.899927 0
M  V30 6950 C 650.111 2.00228 -0.540692 0
M  V30 6951 C 650.536 1.66909 0.867359 0
M  V30 6952 O 649.894 0.893824 1.57735 0
M  V30 6953 C 649.942 3.52921 -0.740232 0
M  V30 6954 O 649.046 4.11879 0.207154 0
M  V30 6955 H 648.387 0.629505 -0.211233 0
M  V30 6956 H 650.917 1.6487 -1.21158 0
M  V30 6957 H 650.927 4.0287 -0.644973 0
M  V30 6958 H 649.602 3.76508 -1.76677 0
M  V30 6959 H 648.179 3.72845 0.0643315 0
M  V30 6960 N 650.364 0.662433 1.43002 0
M  V30 6961 C 651.589 0.186003 2.06564 0
M  V30 6962 C 652.014 -1.14314 1.49379 0
M  V30 6963 O 651.372 -1.70824 0.607346 0
M  V30 6964 C 651.42 0.118269 3.60406 0
M  V30 6965 O 650.524 -0.916859 4.02079 0
M  V30 6966 H 649.865 0.0990981 0.656563 0
M  V30 6967 H 652.395 0.907958 1.8335 0
M  V30 6968 H 652.405 -0.0619981 4.07953 0
M  V30 6969 H 651.08 1.08849 4.01403 0
M  V30 6970 H 649.657 -0.708635 3.66105 0
M  V30 6971 N 651.842 -1.52309 0.404946 0
M  V30 6972 C 652.79 -2.28452 -0.437321 0
M  V30 6973 C 653.784 -1.32975 -1.04948 0
M  V30 6974 O 654.99 -1.50451 -0.988159 0
M  V30 6975 H 651.365 -0.734824 -0.159805 0
M  V30 6976 H 653.336 -2.97542 0.22615 0
M  V30 6977 C 652.085 -3.11536 -1.54404 0
M  V30 6978 H 651.408 -3.84871 -1.08233 0
M  V30 6979 H 652.848 -3.67926 -2.10729 0
M  V30 6980 C 651.307 -2.24833 -2.50902 0
M  V30 6981 O 651.837 -1.88574 -3.54687 0
M  V30 6982 N 650.043 -1.88685 -2.21012 0
M  V30 6983 H 649.59 -2.18371 -1.36646 0
M  V30 6984 H 649.548 -1.30966 -2.85824 0
M  V30 6985 N 653.32 -0.135238 -1.57019 0
M  V30 6986 C 654.569 0.518694 -1.94917 0
M  V30 6987 C 654.882 1.66783 -1.0219 0
M  V30 6988 O 656.088 2.38561 -1.29619 0
M  V30 6989 C 654.544 0.974123 -3.46466 0
M  V30 6990 C 654.152 -0.147439 -4.47757 0
M  V30 6991 C 655.896 1.59851 -3.93253 0
M  V30 6992 C 653.803 0.325599 -5.90503 0
M  V30 6993 H 652.733 0.19754 -0.727663 0
M  V30 6994 H 655.384 -0.217698 -1.82204 0
M  V30 6995 H 653.766 1.76542 -3.5447 0
M  V30 6996 H 654.94 -0.924122 -4.51438 0
M  V30 6997 H 653.255 -0.679496 -4.10818 0
M  V30 6998 H 655.852 1.96385 -4.9733 0
M  V30 6999 H 656.195 2.48306 -3.3414 0
M  V30 7000 H 656.728 0.872323 -3.88118 0
M  V30 7001 H 653.467 -0.523295 -6.53408 0
M  V30 7002 H 652.987 1.06841 -5.90208 0
M  V30 7003 H 654.666 0.781498 -6.42263 0
M  V30 7004 N 654.798 1.5699 0.138552 0
M  V30 7005 C 656.026 1.87976 0.864437 0
M  V30 7006 C 656.441 0.724372 1.74351 0
M  V30 7007 O 655.798 -0.305575 1.79924 0
M  V30 7008 C 655.849 3.18276 1.71414 0
M  V30 7009 O 655.57 4.29365 0.870487 0
M  V30 7010 C 657.071 3.62834 2.54688 0
M  V30 7011 H 654.291 0.622878 0.249528 0
M  V30 7012 H 656.835 2.04094 0.128805 0
M  V30 7013 H 654.99 3.03886 2.40274 0
M  V30 7014 H 655.404 5.03924 1.45466 0
M  V30 7015 H 656.878 4.5682 3.0987 0
M  V30 7016 H 657.355 2.88533 3.31127 0
M  V30 7017 H 657.961 3.79946 1.91105 0
M  V30 7018 N 656.276 -0.40816 1.52223 0
M  V30 7019 C 657.524 -1.15274 1.66001 0
M  V30 7020 C 657.845 -1.91003 0.392803 0
M  V30 7021 O 657.115 -1.8673 -0.592336 0
M  V30 7022 H 655.695 -0.428526 0.611861 0
M  V30 7023 H 658.357 -0.46512 1.89269 0
M  V30 7024 H 657.453 -1.86628 2.50153 0
M  V30 7025 N 657.755 -1.42862 -0.66545 0
M  V30 7026 C 658.685 -1.49867 -1.79059 0
M  V30 7027 C 659.666 -0.354394 -1.66367 0
M  V30 7028 O 660.851 -0.569969 -1.85647 0
M  V30 7029 C 657.981 -1.40943 -3.17415 0
M  V30 7030 C 656.935 -2.53495 -3.44854 0
M  V30 7031 C 656.261 -2.29626 -4.82883 0
M  V30 7032 C 657.561 -3.95781 -3.40815 0
M  V30 7033 H 659.255 -2.44037 -1.73453 0
M  V30 7034 H 656.801 -1.17456 -0.833071 0
M  V30 7035 H 658.754 -1.4445 -3.95869 0
M  V30 7036 H 657.478 -0.432716 -3.23721 0
M  V30 7037 H 656.137 -2.4932 -2.68766 0
M  V30 7038 H 655.785 -1.30226 -4.8585 0
M  V30 7039 H 655.485 -3.05065 -5.02204 0
M  V30 7040 H 657.009 -2.34897 -5.63609 0
M  V30 7041 H 658.423 -4.01508 -4.09224 0
M  V30 7042 H 656.82 -4.71148 -3.71672 0
M  V30 7043 H 657.89 -4.21786 -2.39216 0
M  V30 7044 N 659.233 0.902656 -1.29189 0
M  V30 7045 C 660.163 2.02294 -1.16616 0
M  V30 7046 C 661.144 1.6999 -0.0611175 0
M  V30 7047 O 662.329 1.9271 -0.240072 0
M  V30 7048 C 659.459 3.37018 -0.83882 0
M  V30 7049 C 658.413 3.83522 -1.89986 0
M  V30 7050 C 657.739 5.15337 -1.42589 0
M  V30 7051 C 659.039 4.04169 -3.30824 0
M  V30 7052 H 660.733 2.13071 -2.10336 0
M  V30 7053 H 658.279 1.02378 -1.01266 0
M  V30 7054 H 660.232 4.14895 -0.737584 0
M  V30 7055 H 658.956 3.26325 0.134071 0
M  V30 7056 H 657.615 3.07859 -1.99043 0
M  V30 7057 H 657.263 5.01056 -0.441759 0
M  V30 7058 H 656.963 5.47423 -2.13547 0
M  V30 7059 H 658.487 5.95758 -1.3381 0
M  V30 7060 H 659.901 4.72537 -3.24626 0
M  V30 7061 H 658.298 4.47604 -3.99713 0
M  V30 7062 H 659.368 3.08604 -3.74021 0
M  V30 7063 N 660.711 1.11618 1.11262 0
M  V30 7064 C 661.641 0.79846 2.19424 0
M  V30 7065 C 662.622 -0.234003 1.68483 0
M  V30 7066 O 663.807 -0.0970704 1.93957 0
M  V30 7067 C 660.937 0.242892 3.4645 0
M  V30 7068 C 659.891 1.20744 4.10615 0
M  V30 7069 C 659.217 0.512494 5.32238 0
M  V30 7070 C 660.517 2.55884 4.55325 0
M  V30 7071 H 662.211 1.70286 2.46258 0
M  V30 7072 H 659.757 0.820195 1.18359 0
M  V30 7073 H 661.71 0.00840447 4.21399 0
M  V30 7074 H 660.434 -0.696811 3.1908 0
M  V30 7075 H 659.093 1.42759 3.37662 0
M  V30 7076 H 658.741 -0.432075 5.01141 0
M  V30 7077 H 658.441 1.15583 5.7612 0
M  V30 7078 H 659.965 0.286842 6.09926 0
M  V30 7079 H 661.379 2.37946 5.21588 0
M  V30 7080 H 659.776 3.16216 5.10027 0
M  V30 7081 H 660.846 3.14968 3.68678 0
M  V30 7082 N 662.189 -1.289 0.906776 0
M  V30 7083 C 663.417 -1.99401 0.551969 0
M  V30 7084 C 663.832 -1.67816 -0.865048 0
M  V30 7085 O 663.189 -0.927078 -1.57199 0
M  V30 7086 C 663.24 -3.53779 0.743152 0
M  V30 7087 O 662.961 -3.84248 2.1044 0
M  V30 7088 C 664.462 -4.41543 0.39424 0
M  V30 7089 H 661.682 -0.636926 0.211106 0
M  V30 7090 H 664.226 -1.64266 1.21807 0
M  V30 7091 H 662.381 -3.87201 0.124143 0
M  V30 7092 H 662.795 -4.78904 2.13895 0
M  V30 7093 H 664.269 -5.48957 0.578814 0
M  V30 7094 H 664.746 -4.34073 -0.669137 0
M  V30 7095 H 665.352 -4.13605 0.990491 0
M  V30 7096 N 663.667 -0.670007 -1.42649 0
M  V30 7097 C 665.083 -0.33911 -1.55956 0
M  V30 7098 C 665.283 1.1558 -1.65056 0
M  V30 7099 O 664.339 1.94111 -1.61485 0
M  V30 7100 C 665.652 -1.06522 -2.812 0
M  V30 7101 C 667.2 -1.04708 -2.94966 0
M  V30 7102 C 667.675 -1.75442 -4.23065 0
M  V30 7103 N 669.166 -1.72286 -4.29967 0
M  V30 7104 C 669.901 -2.23877 -5.27889 0
M  V30 7105 N 669.397 -2.83829 -6.31991 0
M  V30 7106 N 671.19 -2.14279 -5.19654 0
M  V30 7107 H 663.341 -1.6399 -1.34986 0
M  V30 7108 H 665.604 -0.690603 -0.649439 0
M  V30 7109 H 665.31 -2.12033 -2.80597 0
M  V30 7110 H 665.184 -0.627398 -3.71946 0
M  V30 7111 H 667.571 -0.000315966 -2.951 0
M  V30 7112 H 667.652 -1.52374 -2.05465 0
M  V30 7113 H 667.296 -2.80084 -4.23693 0
M  V30 7114 H 667.226 -1.25229 -5.11493 0
M  V30 7115 H 669.717 -1.28554 -3.55362 0
M  V30 7116 H 670.03 -3.20827 -7.03057 0
M  V30 7117 H 668.375 -2.87896 -6.32567 0
M  V30 7118 H 671.566 -1.67135 -4.37245 0
M  V30 7119 H 671.739 -2.54792 -5.95806 0
M  V30 7120 N 665.145 1.52092 -0.413018 0
M  V30 7121 C 666.422 1.94356 0.22024 0
M  V30 7122 C 666.802 1.35017 1.62277 0
M  V30 7123 O 666.15 0.527511 2.22328 0
M  V30 7124 C 666.36 3.48289 0.222638 0
M  V30 7125 C 667.708 4.22313 0.440098 0
M  V30 7126 O 668.732 3.54919 0.301826 0
M  V30 7127 O 667.591 5.41829 0.712984 0
M  V30 7128 H 664.685 0.814536 0.14304 0
M  V30 7129 H 667.231 1.63083 -0.469242 0
M  V30 7130 H 666.003 3.83872 -0.758836 0
M  V30 7131 H 665.626 3.85934 0.956057 0
M  V30 7132 N 666.623 0.143563 1.56945 0
M  V30 7133 C 667.871 -0.507402 1.95627 0
M  V30 7134 C 668.192 -1.65626 1.02922 0
M  V30 7135 O 667.462 -1.95693 0.0901136 0
M  V30 7136 H 666.042 -0.190436 0.722318 0
M  V30 7137 H 668.704 0.218257 1.93674 0
M  V30 7138 H 667.8 -0.885816 2.99265 0
M  V30 7139 N 668.101 -1.57061 -0.130224 0
M  V30 7140 C 669.349 -1.83893 -0.838313 0
M  V30 7141 C 669.67 -0.727046 -1.80939 0
M  V30 7142 O 668.94 0.249927 -1.94299 0
M  V30 7143 H 667.52 -0.67846 -0.312573 0
M  V30 7144 H 670.182 -1.94529 -0.120224 0
M  V30 7145 H 669.278 -2.79419 -1.39038 0
M  V30 7146 N 669.579 0.400081 -1.52437 0
M  V30 7147 C 670.527 1.50851 -1.7705 0
M  V30 7148 C 671.521 1.56928 -0.637969 0
M  V30 7149 O 672.727 1.60226 -0.820212 0
M  V30 7150 H 669.102 0.50186 -0.560036 0
M  V30 7151 H 671.073 1.27281 -2.69893 0
M  V30 7152 C 669.822 2.88117 -1.94638 0
M  V30 7153 H 669.145 2.84187 -2.81208 0
M  V30 7154 H 670.585 3.64942 -2.15855 0
M  V30 7155 C 669.044 3.29206 -0.715899 0
M  V30 7156 O 669.574 4.01544 0.111944 0
M  V30 7157 N 667.78 2.85363 -0.549191 0
M  V30 7158 H 667.327 2.26664 -1.22397 0
M  V30 7159 H 667.285 3.13214 0.27278 0
M  V30 7160 N 671.057 1.43213 0.657864 0
M  V30 7161 C 672.005 1.48271 1.79216 0
M  V30 7162 C 672.999 0.35675 1.65601 0
M  V30 7163 O 674.205 0.530535 1.72004 0
M  V30 7164 H 670.58 0.464729 0.591211 0
M  V30 7165 H 672.551 2.43792 1.7207 0
M  V30 7166 C 671.3 1.41837 3.17455 0
M  V30 7167 H 670.623 2.27781 3.28567 0
M  V30 7168 H 672.063 1.49438 3.96793 0
M  V30 7169 C 670.522 0.135347 3.36628 0
M  V30 7170 O 671.052 -0.805199 3.93547 0
M  V30 7171 N 669.258 0.0470316 2.90562 0
M  V30 7172 H 668.805 0.813221 2.44427 0
M  V30 7173 H 668.763 -0.810737 3.03767 0
M  V30 7174 N 672.536 -0.895792 1.29666 0
M  V30 7175 C 673.484 -2.02173 1.15017 0
M  V30 7176 C 674.478 -1.69276 0.0647651 0
M  V30 7177 O 675.684 -1.7859 0.224846 0
M  V30 7178 H 672.059 -0.662719 0.355397 0
M  V30 7179 H 674.03 -2.11666 2.10334 0
M  V30 7180 C 672.779 -3.37212 0.847555 0
M  V30 7181 H 672.102 -3.6303 1.67479 0
M  V30 7182 H 673.542 -4.16668 0.785106 0
M  V30 7183 C 672.001 -3.33891 -0.44929 0
M  V30 7184 O 672.531 -3.73673 -1.47415 0
M  V30 7185 N 670.737 -2.86991 -0.456547 0
M  V30 7186 H 670.284 -2.54813 0.377925 0
M  V30 7187 H 670.242 -2.85152 -1.32423 0
M  V30 7188 N 674.014 -1.12206 -1.10668 0
M  V30 7189 C 674.924 -0.800686 -2.20513 0
M  V30 7190 C 675.94 0.209512 -1.72734 0
M  V30 7191 O 677.116 0.043705 -2.01353 0
M  V30 7192 C 674.181 -0.257353 -3.45744 0
M  V30 7193 C 673.242 -1.32718 -4.0827 0
M  V30 7194 C 672.475 -0.809674 -5.27522 0
M  V30 7195 O 672.698 0.35742 -5.69279 0
M  V30 7196 O 671.632 -1.57816 -5.80842 0
M  V30 7197 H 675.458 -1.71807 -2.50432 0
M  V30 7198 H 673.043 -0.898546 -1.19359 0
M  V30 7199 H 674.925 0.0408849 -4.2138 0
M  V30 7200 H 673.6 0.632627 -3.17458 0
M  V30 7201 H 672.507 -1.67855 -3.34329 0
M  V30 7202 H 673.84 -2.19083 -4.40753 0
M  V30 7203 N 675.492 1.28418 -0.913599 0
M  V30 7204 C 676.72 1.99106 -0.562536 0
M  V30 7205 C 677.135 1.68273 0.856137 0
M  V30 7206 O 676.492 0.935401 1.56705 0
M  V30 7207 C 676.543 3.5338 -0.761903 0
M  V30 7208 O 676.264 3.83127 -2.12475 0
M  V30 7209 C 677.765 4.41328 -0.417651 0
M  V30 7210 H 674.985 0.635798 -0.214481 0
M  V30 7211 H 677.529 1.63618 -1.22676 0
M  V30 7212 H 675.684 3.8713 -0.144676 0
M  V30 7213 H 676.098 4.77763 -2.16431 0
M  V30 7214 H 677.572 5.48642 -0.607919 0
M  V30 7215 H 678.049 4.34422 0.646108 0
M  V30 7216 H 678.655 4.13074 -1.01241 0
M  V30 7217 N 676.97 0.677563 1.42291 0
M  V30 7218 C 678.198 0.209459 2.05837 0
M  V30 7219 C 678.613 -1.13444 1.50917 0
M  V30 7220 O 677.97 -1.70529 0.65008 0
M  V30 7221 C 678.021 0.138819 3.61233 0
M  V30 7222 O 677.742 1.42962 4.14118 0
M  V30 7223 C 679.243 -0.352449 4.41897 0
M  V30 7224 H 676.463 0.101209 0.663323 0
M  V30 7225 H 679.007 0.925077 1.8238 0
M  V30 7226 H 677.162 -0.527505 3.83792 0
M  V30 7227 H 677.576 1.3048 5.08011 0
M  V30 7228 H 679.05 -0.350778 5.50884 0
M  V30 7229 H 679.527 -1.3882 4.16684 0
M  V30 7230 H 680.133 0.282236 4.24362 0
M  V30 7231 N 678.448 -1.51871 0.421078 0
M  V30 7232 C 679.725 -1.9447 -0.20993 0
M  V30 7233 C 680.105 -1.35875 -1.61558 0
M  V30 7234 O 679.453 -0.539294 -2.22045 0
M  V30 7235 C 679.663 -3.48402 -0.204165 0
M  V30 7236 C 681.011 -4.2254 -0.417696 0
M  V30 7237 O 682.035 -3.55074 -0.282999 0
M  V30 7238 O 680.894 -5.422 -0.684239 0
M  V30 7239 H 677.988 -0.815283 -0.138718 0
M  V30 7240 H 680.534 -1.62832 0.477884 0
M  V30 7241 H 679.306 -3.83464 0.779183 0
M  V30 7242 H 678.929 -3.86436 -0.935576 0
M  V30 7243 N 679.926 -0.151884 -1.56866 0
M  V30 7244 C 681.154 0.504813 -2.00647 0
M  V30 7245 C 681.569 1.58098 -1.03201 0
M  V30 7246 O 680.926 1.82476 -0.0297814 0
M  V30 7247 C 680.977 1.10099 -3.44326 0
M  V30 7248 O 680.698 0.0678021 -4.38048 0
M  V30 7249 C 682.199 1.83782 -4.03409 0
M  V30 7250 H 679.419 0.130989 -0.65809 0
M  V30 7251 H 681.963 -0.247903 -2.02992 0
M  V30 7252 H 680.118 1.8043 -3.42817 0
M  V30 7253 H 680.532 0.505237 -5.22061 0
M  V30 7254 H 682.006 2.2078 -5.05925 0
M  V30 7255 H 682.483 2.72557 -3.44397 0
M  V30 7256 H 683.089 1.18138 -4.08563 0
M  V30 7257 N 681.404 1.57128 0.121893 0
M  V30 7258 C 682.314 2.03425 1.16857 0
M  V30 7259 C 683.33 0.954108 1.45509 0
M  V30 7260 O 684.506 1.26541 1.56682 0
M  V30 7261 C 681.571 2.42685 2.47599 0
M  V30 7262 C 680.632 3.64767 2.2637 0
M  V30 7263 C 679.865 4.02145 3.50878 0
M  V30 7264 O 680.088 3.39897 4.58068 0
M  V30 7265 O 679.022 4.95262 3.42051 0
M  V30 7266 H 682.848 2.92825 0.80544 0
M  V30 7267 H 680.433 1.45654 0.332477 0
M  V30 7268 H 682.315 2.68684 3.24634 0
M  V30 7269 H 680.99 1.56432 2.83392 0
M  V30 7270 H 679.897 3.43922 1.47203 0
M  V30 7271 H 681.23 4.51716 1.95482 0
M  V30 7272 N 682.882 -0.391992 1.52647 0
M  V30 7273 C 684.131 -1.13449 1.6677 0
M  V30 7274 C 684.444 -1.91203 0.412399 0
M  V30 7275 O 685.65 -2.68013 0.433707 0
M  V30 7276 C 684.106 -2.06577 2.9471 0
M  V30 7277 C 683.714 -1.3426 4.27409 0
M  V30 7278 C 685.458 -2.80981 3.18198 0
M  V30 7279 C 683.365 -2.26136 5.46458 0
M  V30 7280 H 682.295 -0.427211 0.621295 0
M  V30 7281 H 684.946 -0.397522 1.79142 0
M  V30 7282 H 683.328 -2.83898 2.76076 0
M  V30 7283 H 684.502 -0.621856 4.56585 0
M  V30 7284 H 682.817 -0.718279 4.10158 0
M  V30 7285 H 685.414 -3.49898 4.04321 0
M  V30 7286 H 685.757 -3.44891 2.33144 0
M  V30 7287 H 686.29 -2.10754 3.37383 0
M  V30 7288 H 683.029 -1.66846 6.33911 0
M  V30 7289 H 682.549 -2.96134 5.21598 0
M  V30 7290 H 684.228 -2.86286 5.80215 0
M  V30 7291 N 684.36 -1.4356 -0.65026 0
M  V30 7292 C 685.607 -1.45333 -1.41012 0
M  V30 7293 C 685.935 -0.0787282 -1.94341 0
M  V30 7294 O 685.19 0.916715 -1.72901 0
M  V30 7295 C 685.489 -2.44528 -2.60654 0
M  V30 7296 C 685.155 -3.90331 -2.25727 0
M  V30 7297 C 683.817 -4.3004 -2.15914 0
M  V30 7298 C 686.169 -4.822 -1.97821 0
M  V30 7299 C 683.497 -5.59568 -1.76354 0
M  V30 7300 C 685.849 -6.12095 -1.59759 0
M  V30 7301 C 684.513 -6.50778 -1.48473 0
M  V30 7302 H 683.783 -0.531813 -0.516 0
M  V30 7303 H 686.43 -1.76657 -0.739219 0
M  V30 7304 H 684.735 -2.06619 -3.3289 0
M  V30 7305 H 686.432 -2.43155 -3.18868 0
M  V30 7306 H 683.022 -3.58905 -2.34276 0
M  V30 7307 H 687.206 -4.5229 -2.04322 0
M  V30 7308 H 682.462 -5.88376 -1.66205 0
M  V30 7309 H 686.636 -6.82751 -1.37198 0
M  V30 7310 H 684.263 -7.5105 -1.17591 0
M  V30 7311 N 685.838 0.888903 -1.30139 0
M  V30 7312 C 687.254 1.17153 -1.08385 0
M  V30 7313 C 687.454 2.0088 0.157925 0
M  V30 7314 O 686.51 2.37668 0.852652 0
M  V30 7315 C 687.823 1.882 -2.34523 0
M  V30 7316 C 689.371 2.00981 -2.39949 0
M  V30 7317 C 689.846 2.75441 -3.65918 0
M  V30 7318 N 691.337 2.82989 -3.66704 0
M  V30 7319 C 692.072 3.41167 -4.60861 0
M  V30 7320 N 691.568 4.00425 -5.6536 0
M  V30 7321 N 693.361 3.38944 -4.48412 0
M  V30 7322 H 685.512 0.33053 -2.09812 0
M  V30 7323 H 687.775 0.208964 -0.924683 0
M  V30 7324 H 687.481 1.34119 -3.25123 0
M  V30 7325 H 687.355 2.88609 -2.42868 0
M  V30 7326 H 689.742 2.54234 -1.4983 0
M  V30 7327 H 689.823 0.996725 -2.35582 0
M  V30 7328 H 689.467 2.22861 -4.56394 0
M  V30 7329 H 689.397 3.77118 -3.67546 0
M  V30 7330 H 691.888 2.40912 -2.91153 0
M  V30 7331 H 692.201 4.42871 -6.33313 0
M  V30 7332 H 690.546 3.98856 -5.69157 0
M  V30 7333 H 693.737 2.91875 -3.6596 0
M  V30 7334 H 693.91 3.83989 -5.21974 0
M  V30 7335 N 687.317 1.12792 1.10072 0
M  V30 7336 C 688.728 0.899346 1.63611 0
M  V30 7337 C 689.079 -0.565547 1.87872 0
M  V30 7338 O 688.204 -1.43081 1.62348 0
M  V30 7339 C 688.799 1.62608 2.97227 0
M  V30 7340 C 687.358 1.44356 3.47618 0
M  V30 7341 C 686.505 1.65958 2.22156 0
M  V30 7342 H 689.456 1.28216 0.935223 0
M  V30 7343 H 689.477 1.0793 3.64872 0
M  V30 7344 H 688.989 2.69221 2.79538 0
M  V30 7345 H 687.09 0.400148 3.70445 0
M  V30 7346 H 687.203 2.20218 4.25489 0
M  V30 7347 H 685.567 1.08395 2.30484 0
M  V30 7348 H 686.35 2.73877 2.06993 0
M  V30 7349 N 688.795 -1.27931 0.920396 0
M  V30 7350 C 690.043 -1.94304 0.555906 0
M  V30 7351 C 690.364 -1.72753 -0.904519 0
M  V30 7352 O 689.634 -1.07104 -1.64029 0
M  V30 7353 H 688.214 -0.719001 0.202599 0
M  V30 7354 H 690.876 -1.55785 1.1712 0
M  V30 7355 H 689.972 -3.02806 0.755981 0
M  V30 7356 N 690.273 -0.685099 -1.4193 0
M  V30 7357 C 691.521 -0.21124 -2.00993 0
M  V30 7358 C 691.842 1.18985 -1.54491 0
M  V30 7359 O 691.112 1.8009 -0.771 0
M  V30 7360 H 689.692 -0.0751059 -0.743215 0
M  V30 7361 H 692.354 -0.883915 -1.73704 0
M  V30 7362 H 691.45 -0.220513 -3.1132 0
M  V30 7363 N 691.751 1.51645 -0.429126 0
M  V30 7364 C 692.999 2.01616 0.139802 0
M  V30 7365 C 693.32 1.31568 1.43927 0
M  V30 7366 O 692.59 0.447688 1.90716 0
M  V30 7367 H 691.17 0.744998 0.054654 0
M  V30 7368 H 693.832 1.8638 -0.569952 0
M  V30 7369 H 692.928 3.10439 0.321609 0
M  V30 7370 N 693.229 0.160201 1.56784 0
M  V30 7371 C 694.177 -0.791402 2.18723 0
M  V30 7372 C 695.171 -1.24567 1.14801 0
M  V30 7373 O 696.377 -1.21262 1.33025 0
M  V30 7374 H 692.752 -0.273458 0.700517 0
M  V30 7375 H 694.723 -0.244931 2.97393 0
M  V30 7376 C 693.472 -2.01509 2.83354 0
M  V30 7377 H 692.795 -1.67454 3.63041 0
M  V30 7378 H 694.235 -2.66006 3.30177 0
M  V30 7379 C 692.694 -2.83159 1.82545 0
M  V30 7380 O 693.224 -3.79944 1.30405 0
M  V30 7381 N 691.43 -2.47953 1.51552 0
M  V30 7382 H 690.977 -1.69309 1.94144 0
M  V30 7383 H 690.935 -3.02873 0.843519 0
M  V30 7384 N 694.707 -1.5719 -0.113559 0
M  V30 7385 C 695.64 -1.9595 -1.16957 0
M  V30 7386 C 696.618 -0.829951 -1.39823 0
M  V30 7387 O 697.802 -1.08861 -1.53888 0
M  V30 7388 C 694.929 -2.2604 -2.52237 0
M  V30 7389 C 693.975 -3.48571 -2.45765 0
M  V30 7390 S 694.808 -5.00962 -1.89203 0
M  V30 7391 C 695.964 -5.3421 -3.26145 0
M  V30 7392 H 696.197 -2.85214 -0.839069 0
M  V30 7393 H 693.73 -1.51036 -0.320529 0
M  V30 7394 H 695.688 -2.44054 -3.30073 0
M  V30 7395 H 694.349 -1.3738 -2.82463 0
M  V30 7396 H 693.542 -3.67008 -3.45429 0
M  V30 7397 H 693.144 -3.29972 -1.76053 0
M  V30 7398 H 695.436 -5.29725 -4.22371 0
M  V30 7399 H 696.379 -6.35398 -3.12529 0
M  V30 7400 H 696.787 -4.61681 -3.24825 0
M  V30 7401 N 696.185 0.383891 -1.52853 0
M  V30 7402 C 697.601 0.724316 -1.42218 0
M  V30 7403 C 697.801 1.93943 -0.546654 0
M  V30 7404 O 696.857 2.5249 -0.0220562 0
M  V30 7405 C 698.17 0.954635 -2.85144 0
M  V30 7406 C 699.718 1.05579 -2.94656 0
M  V30 7407 C 700.193 1.3187 -4.38605 0
M  V30 7408 N 701.684 1.38681 -4.41952 0
M  V30 7409 C 702.419 1.60699 -5.50421 0
M  V30 7410 N 701.915 1.80154 -6.68967 0
M  V30 7411 N 703.708 1.6292 -5.37972 0
M  V30 7412 H 695.859 -0.4156 -2.08294 0
M  V30 7413 H 698.122 -0.123776 -0.939885 0
M  V30 7414 H 697.828 0.133829 -3.51445 0
M  V30 7415 H 697.702 1.86788 -3.27704 0
M  V30 7416 H 700.089 1.86716 -2.2852 0
M  V30 7417 H 700.17 0.120338 -2.55517 0
M  V30 7418 H 699.814 0.512416 -5.05309 0
M  V30 7419 H 699.744 2.26708 -4.75301 0
M  V30 7420 H 702.235 1.25334 -3.56511 0
M  V30 7421 H 702.548 1.96476 -7.47407 0
M  V30 7422 H 700.893 1.77368 -6.71986 0
M  V30 7423 H 704.084 1.47276 -4.44328 0
M  V30 7424 H 704.257 1.79739 -6.22574 0
M  V30 7425 N 697.663 1.43903 0.642637 0
M  V30 7426 C 698.94 1.36556 1.40043 0
M  V30 7427 C 699.32 0.0185588 2.11092 0
M  V30 7428 O 698.668 -0.998438 2.05532 0
M  V30 7429 C 698.878 2.55596 2.37638 0
M  V30 7430 C 700.226 2.99153 3.01318 0
M  V30 7431 O 701.25 2.55719 2.47965 0
M  V30 7432 O 700.109 3.74427 3.98078 0
M  V30 7433 H 697.203 0.540189 0.626198 0
M  V30 7434 H 699.749 1.55971 0.668657 0
M  V30 7435 H 698.521 3.45256 1.84158 0
M  V30 7436 H 698.144 2.38334 3.18249 0
M  V30 7437 N 699.141 -0.881989 1.30609 0
M  V30 7438 C 700.089 -2.00942 1.17155 0
M  V30 7439 C 701.083 -1.69198 0.0827154 0
M  V30 7440 O 702.289 -1.78342 0.243775 0
M  V30 7441 H 698.664 -0.658913 0.362406 0
M  V30 7442 H 700.635 -2.09423 2.12567 0
M  V30 7443 C 699.384 -3.36294 0.883273 0
M  V30 7444 H 698.707 -3.61233 1.7132 0
M  V30 7445 H 700.147 -4.15812 0.829255 0
M  V30 7446 C 698.606 -3.34348 -0.413851 0
M  V30 7447 O 699.136 -3.75216 -1.43444 0
M  V30 7448 N 697.342 -2.87459 -0.426082 0
M  V30 7449 H 696.889 -2.54397 0.40493 0
M  V30 7450 H 696.847 -2.8654 -1.29391 0
M  V30 7451 N 700.619 -1.13374 -1.09472 0
M  V30 7452 C 701.865 -0.906459 -1.82085 0
M  V30 7453 C 702.22 0.5614 -1.84027 0
M  V30 7454 O 701.513 1.41012 -1.29716 0
M  V30 7455 C 701.707 -1.42759 -3.2765 0
M  V30 7456 C 701.536 -2.94459 -3.39888 0
M  V30 7457 C 700.306 -3.62798 -3.51718 0
M  V30 7458 C 702.504 -3.92398 -3.32457 0
M  V30 7459 N 700.486 -5.02516 -3.52635 0
M  V30 7460 C 701.857 -5.18304 -3.40237 0
M  V30 7461 C 703.912 -3.84671 -3.16122 0
M  V30 7462 C 702.615 -6.37386 -3.33364 0
M  V30 7463 C 704.641 -5.03287 -3.10574 0
M  V30 7464 C 704.003 -6.28055 -3.18945 0
M  V30 7465 H 700.102 -0.385097 -0.680606 0
M  V30 7466 H 702.686 -1.44187 -1.30836 0
M  V30 7467 H 700.857 -0.919102 -3.77369 0
M  V30 7468 H 702.589 -1.14136 -3.88272 0
M  V30 7469 H 699.344 -3.13317 -3.55147 0
M  V30 7470 H 699.768 -5.75421 -3.56679 0
M  V30 7471 H 704.41 -2.89094 -3.0852 0
M  V30 7472 H 702.128 -7.33219 -3.3973 0
M  V30 7473 H 705.714 -4.99047 -2.9907 0
M  V30 7474 H 704.594 -7.18299 -3.14668 0
M  V30 7475 N 702.098 1.27442 -0.927168 0
M  V30 7476 C 703.514 1.46754 -0.627329 0
M  V30 7477 C 703.714 1.83902 0.823549 0
M  V30 7478 O 702.77 1.95215 1.60148 0
M  V30 7479 C 704.083 2.56045 -1.57674 0
M  V30 7480 C 705.631 2.69906 -1.58491 0
M  V30 7481 C 706.106 3.82355 -2.52128 0
M  V30 7482 N 707.597 3.89728 -2.50332 0
M  V30 7483 C 708.332 4.76155 -3.19475 0
M  V30 7484 N 707.828 5.67073 -3.97995 0
M  V30 7485 N 709.621 4.6988 -3.08496 0
M  V30 7486 H 701.772 1.01613 -1.86517 0
M  V30 7487 H 704.035 0.507443 -0.800753 0
M  V30 7488 H 703.741 2.35542 -2.61176 0
M  V30 7489 H 703.615 3.53423 -1.31804 0
M  V30 7490 H 706.002 2.89792 -0.557208 0
M  V30 7491 H 706.083 1.73018 -1.8841 0
M  V30 7492 H 705.727 3.63224 -3.55008 0
M  V30 7493 H 705.657 4.7867 -2.19505 0
M  V30 7494 H 708.148 3.24717 -1.93306 0
M  V30 7495 H 708.461 6.2988 -4.4774 0
M  V30 7496 H 706.806 5.6687 -4.02098 0
M  V30 7497 H 709.997 3.97848 -2.46646 0
M  V30 7498 H 710.17 5.37017 -3.62652 0
M  V30 7499 N 703.576 0.692616 1.41565 0
M  V30 7500 C 704.801 0.229776 2.06123 0
M  V30 7501 C 705.226 -1.11119 1.5177 0
M  V30 7502 O 704.584 -1.69498 0.643444 0
M  V30 7503 C 704.632 0.19469 3.60074 0
M  V30 7504 O 703.736 -0.831366 4.03933 0
M  V30 7505 H 703.077 0.113002 0.654314 0
M  V30 7506 H 705.607 0.946645 1.81383 0
M  V30 7507 H 705.617 0.0245487 4.07993 0
M  V30 7508 H 704.292 1.17339 3.99004 0
M  V30 7509 H 702.869 -0.630819 3.67526 0
M  V30 7510 N 705.054 -1.51416 0.437162 0
M  V30 7511 C 705.964 -2.31493 -0.380537 0
M  V30 7512 C 706.98 -1.40399 -1.02782 0
M  V30 7513 O 708.156 -1.73471 -1.02323 0
M  V30 7514 C 705.221 -3.1413 -1.46709 0
M  V30 7515 C 704.282 -4.21003 -0.839953 0
M  V30 7516 C 703.515 -4.9969 -1.87473 0
M  V30 7517 O 703.738 -4.79008 -3.09689 0
M  V30 7518 O 702.672 -5.8379 -1.46536 0
M  V30 7519 H 706.498 -3.02469 0.273183 0
M  V30 7520 H 704.083 -1.48059 0.199706 0
M  V30 7521 H 705.965 -3.65505 -2.09724 0
M  V30 7522 H 704.64 -2.45919 -2.10489 0
M  V30 7523 H 703.547 -3.73706 -0.171752 0
M  V30 7524 H 704.88 -4.91587 -0.245638 0
M  V30 7525 N 706.532 -0.168513 -1.56696 0
M  V30 7526 C 707.462 0.758563 -2.20835 0
M  V30 7527 C 708.443 1.24121 -1.1631 0
M  V30 7528 O 709.628 1.29487 -1.4473 0
M  V30 7529 C 706.758 1.9892 -2.8469 0
M  V30 7530 C 705.712 1.64252 -3.95228 0
M  V30 7531 C 705.038 2.94757 -4.46119 0
M  V30 7532 C 706.338 0.872675 -5.14958 0
M  V30 7533 H 708.032 0.223953 -2.98561 0
M  V30 7534 H 705.578 0.106277 -1.43607 0
M  V30 7535 H 707.531 2.64275 -3.28233 0
M  V30 7536 H 706.255 2.5479 -2.04327 0
M  V30 7537 H 704.914 1.01266 -3.52336 0
M  V30 7538 H 704.562 3.48662 -3.62552 0
M  V30 7539 H 704.262 2.72316 -5.2069 0
M  V30 7540 H 705.786 3.61147 -4.92347 0
M  V30 7541 H 707.2 1.42875 -5.55211 0
M  V30 7542 H 705.597 0.747402 -5.95428 0
M  V30 7543 H 706.667 -0.131535 -4.84722 0
M  V30 7544 N 708.01 1.57248 0.105221 0
M  V30 7545 C 709.24 1.89492 0.823175 0
M  V30 7546 C 709.648 0.75934 1.73294 0
M  V30 7547 O 708.991 -0.278182 1.81581 0
M  V30 7548 C 709.053 3.16891 1.69765 0
M  V30 7549 C 708.717 4.46787 0.960769 0
M  V30 7550 C 709.714 5.19061 0.295218 0
M  V30 7551 C 707.399 4.93467 0.937854 0
M  V30 7552 C 709.393 6.36246 -0.383393 0
M  V30 7553 C 707.08 6.10566 0.255452 0
M  V30 7554 C 708.078 6.81804 -0.404003 0
M  V30 7555 O 707.766 7.96673 -1.07549 0
M  V30 7556 H 707.498 0.631512 0.24118 0
M  V30 7557 H 710.052 2.05203 0.0899655 0
M  V30 7558 H 708.282 2.973 2.47285 0
M  V30 7559 H 709.971 3.35046 2.29126 0
M  V30 7560 H 710.737 4.84044 0.304448 0
M  V30 7561 H 706.616 4.37913 1.44058 0
M  V30 7562 H 710.16 6.91787 -0.898696 0
M  V30 7563 H 706.057 6.45039 0.244032 0
M  V30 7564 H 706.825 8.12596 -0.981355 0
M  V30 7565 N 709.488 -0.375779 1.53054 0
M  V30 7566 C 710.435 -1.45978 1.78771 0
M  V30 7567 C 711.405 -1.53625 0.631552 0
M  V30 7568 O 712.59 -1.69674 0.872667 0
M  V30 7569 C 709.73 -2.8305 1.97425 0
M  V30 7570 C 708.843 -2.84451 3.25134 0
M  V30 7571 C 707.978 -4.13034 3.34031 0
M  V30 7572 C 707.017 -4.08536 4.55812 0
M  V30 7573 N 706.154 -5.2875 4.61918 0
M  V30 7574 H 710.994 -1.23349 2.71273 0
M  V30 7575 H 708.531 -0.598147 1.3439 0
M  V30 7576 H 710.489 -3.62666 2.06225 0
M  V30 7577 H 709.119 -3.04101 1.0827 0
M  V30 7578 H 708.171 -1.97127 3.25338 0
M  V30 7579 H 709.483 -2.76998 4.14818 0
M  V30 7580 H 708.637 -5.0106 3.42087 0
M  V30 7581 H 707.376 -4.23226 2.42345 0
M  V30 7582 H 706.381 -3.18897 4.47867 0
M  V30 7583 H 707.606 -3.99955 5.48828 0
M  V30 7584 H 705.552 -5.39547 3.73129 0
M  V30 7585 H 705.469 -5.23426 5.45492 0
M  V30 7586 H 706.737 -6.18637 4.74245 0
M  V30 7587 N 710.966 -1.44241 -0.634997 0
M  V30 7588 C 712.196 -1.50078 -1.41987 0
M  V30 7589 C 712.604 -0.123072 -1.88799 0
M  V30 7590 O 711.947 0.880552 -1.6122 0
M  V30 7591 C 712.009 -2.40033 -2.67628 0
M  V30 7592 C 711.673 -3.87268 -2.42637 0
M  V30 7593 C 712.67 -4.77902 -2.04708 0
M  V30 7594 C 710.355 -4.31933 -2.56396 0
M  V30 7595 C 712.349 -6.11202 -1.80862 0
M  V30 7596 C 710.036 -5.65281 -2.32164 0
M  V30 7597 C 711.034 -6.54734 -1.94455 0
M  V30 7598 O 710.722 -7.85613 -1.7049 0
M  V30 7599 H 710.454 -0.51146 -0.442023 0
M  V30 7600 H 713.008 -1.89843 -0.784138 0
M  V30 7601 H 711.238 -1.95188 -3.33824 0
M  V30 7602 H 712.927 -2.36863 -3.29622 0
M  V30 7603 H 713.693 -4.44668 -1.93638 0
M  V30 7604 H 709.572 -3.62569 -2.84719 0
M  V30 7605 H 713.116 -6.80983 -1.51353 0
M  V30 7606 H 709.013 -5.98078 -2.42843 0
M  V30 7607 H 709.781 -7.97373 -1.84767 0
M  V30 7608 N 712.444 0.87505 -1.31075 0
M  V30 7609 C 713.391 1.98178 -1.18296 0
M  V30 7610 C 714.361 1.65952 -0.0699923 0
M  V30 7611 O 715.546 1.8926 -0.241951 0
M  V30 7612 C 712.686 3.33399 -0.891024 0
M  V30 7613 C 711.799 3.78253 -2.08684 0
M  V30 7614 C 710.934 5.02166 -1.73212 0
M  V30 7615 C 709.973 5.39455 -2.89231 0
M  V30 7616 N 709.11 6.54549 -2.53989 0
M  V30 7617 H 713.95 2.0844 -2.12971 0
M  V30 7618 H 711.487 1.02047 -1.05948 0
M  V30 7619 H 713.445 4.11246 -0.702338 0
M  V30 7620 H 712.075 3.22794 0.0188799 0
M  V30 7621 H 711.127 2.9623 -2.38646 0
M  V30 7622 H 712.439 4.01821 -2.95536 0
M  V30 7623 H 711.593 5.87666 -1.50777 0
M  V30 7624 H 710.332 4.80491 -0.83544 0
M  V30 7625 H 709.337 4.52477 -3.12321 0
M  V30 7626 H 710.562 5.63098 -3.79601 0
M  V30 7627 H 708.508 6.3443 -1.66838 0
M  V30 7628 H 708.425 6.78035 -3.34372 0
M  V30 7629 H 709.693 7.43254 -2.34934 0
M  V30 7630 N 713.922 1.13953 1.08869 0
M  V30 7631 C 715.168 0.906151 1.8143 0
M  V30 7632 C 715.501 -0.566089 1.85766 0
M  V30 7633 O 714.776 -1.41915 1.33006 0
M  V30 7634 C 715.059 1.50183 3.27287 0
M  V30 7635 C 714.912 3.04359 3.31189 0
M  V30 7636 C 716.231 1.17477 4.24131 0
M  V30 7637 H 713.35 0.330624 0.658678 0
M  V30 7638 H 715.992 1.40873 1.27495 0
M  V30 7639 H 714.142 1.07442 3.73348 0
M  V30 7640 H 715.814 3.55896 2.93488 0
M  V30 7641 H 714.057 3.39053 2.70602 0
M  V30 7642 H 714.728 3.41141 4.33966 0
M  V30 7643 H 717.204 1.5442 3.86385 0
M  V30 7644 H 716.08 1.61795 5.24513 0
M  V30 7645 H 716.341 0.0893312 4.4201 0
M  V30 7646 N 715.4 -1.26948 0.933913 0
M  V30 7647 C 716.646 -1.94374 0.57848 0
M  V30 7648 C 716.979 -1.73166 -0.879048 0
M  V30 7649 O 716.254 -1.06438 -1.62792 0
M  V30 7650 C 716.537 -3.4834 0.912739 0
M  V30 7651 C 716.39 -3.78866 2.42448 0
M  V30 7652 C 717.709 -4.38062 0.423003 0
M  V30 7653 H 714.828 -0.705959 0.211639 0
M  V30 7654 H 717.47 -1.49951 1.16682 0
M  V30 7655 H 715.62 -3.86309 0.412058 0
M  V30 7656 H 717.292 -3.50654 2.99733 0
M  V30 7657 H 715.535 -3.25198 2.87104 0
M  V30 7658 H 716.206 -4.86458 2.60887 0
M  V30 7659 H 718.682 -4.0728 0.852191 0
M  V30 7660 H 717.558 -5.44599 0.685776 0
M  V30 7661 H 717.819 -4.36886 -0.676994 0
M  V30 7662 N 716.879 -0.700114 -1.41195 0
M  V30 7663 C 717.826 -0.0376652 -2.30769 0
M  V30 7664 C 718.796 0.766544 -1.47354 0
M  V30 7665 O 719.981 0.73365 -1.76131 0
M  V30 7666 C 717.121 0.889452 -3.33441 0
M  V30 7667 C 716.234 0.076373 -4.31932 0
M  V30 7668 C 715.369 1.00155 -5.21673 0
M  V30 7669 C 714.408 0.181644 -6.1183 0
M  V30 7670 N 713.545 1.06087 -6.94039 0
M  V30 7671 H 718.385 -0.80726 -2.86858 0
M  V30 7672 H 715.922 -0.409798 -1.41277 0
M  V30 7673 H 717.88 1.44107 -3.91522 0
M  V30 7674 H 716.51 1.6254 -2.78892 0
M  V30 7675 H 715.562 -0.592223 -3.75762 0
M  V30 7676 H 716.874 -0.559076 -4.95657 0
M  V30 7677 H 716.028 1.62223 -5.8461 0
M  V30 7678 H 714.767 1.67085 -4.58186 0
M  V30 7679 H 713.772 -0.452085 -5.47938 0
M  V30 7680 H 714.997 -0.483925 -6.77374 0
M  V30 7681 H 712.943 1.7161 -6.33156 0
M  V30 7682 H 712.86 0.481094 -7.54468 0
M  V30 7683 H 714.128 1.66822 -7.6144 0
M  V30 7684 N 718.357 1.51182 -0.445186 0
M  V30 7685 C 719.606 2.01342 0.120189 0
M  V30 7686 C 719.919 1.33353 1.43095 0
M  V30 7687 O 721.125 1.74525 2.07974 0
M  V30 7688 C 719.581 3.58925 0.264732 0
M  V30 7689 C 719.189 4.35855 -1.03606 0
M  V30 7690 C 720.933 4.17208 0.783455 0
M  V30 7691 C 718.84 5.85162 -0.856731 0
M  V30 7692 H 717.77 0.752426 0.0486922 0
M  V30 7693 H 720.421 1.74221 -0.576143 0
M  V30 7694 H 718.803 3.82525 1.02425 0
M  V30 7695 H 719.977 4.23997 -1.80452 0
M  V30 7696 H 718.292 3.89062 -1.48391 0
M  V30 7697 H 720.889 5.26475 0.934239 0
M  V30 7698 H 721.232 3.76892 1.768 0
M  V30 7699 H 721.765 3.97715 0.0820346 0
M  V30 7700 H 718.504 6.29904 -1.81388 0
M  V30 7701 H 718.024 5.99663 -0.128206 0
M  V30 7702 H 719.703 6.44963 -0.513027 0
M  V30 7703 N 719.835 0.176821 1.56605 0
M  V30 7704 C 720.745 -0.763682 2.21822 0
M  V30 7705 C 721.761 -1.24889 1.21156 0
M  V30 7706 O 722.937 -1.29987 1.53836 0
M  V30 7707 C 720.002 -1.97352 2.8505 0
M  V30 7708 C 719.063 -1.53466 4.00932 0
M  V30 7709 C 718.296 -2.68682 4.61135 0
M  V30 7710 O 718.519 -3.85694 4.20234 0
M  V30 7711 O 717.453 -2.42442 5.50913 0
M  V30 7712 H 721.279 -0.238363 3.02763 0
M  V30 7713 H 718.864 -0.0516331 1.49311 0
M  V30 7714 H 720.746 -2.68096 3.25119 0
M  V30 7715 H 719.421 -2.48779 2.07101 0
M  V30 7716 H 718.328 -0.796551 3.65521 0
M  V30 7717 H 719.661 -1.06724 4.8049 0
M  V30 7718 N 721.313 -1.57302 -0.09688 0
M  V30 7719 C 722.724 -1.7496 -0.651595 0
M  V30 7720 C 723.075 -0.798746 -1.79205 0
M  V30 7721 O 722.2 0.0231858 -2.16388 0
M  V30 7722 C 722.795 -3.17259 -1.18878 0
M  V30 7723 C 721.354 -3.36348 -1.68958 0
M  V30 7724 C 720.501 -2.70766 -0.598413 0
M  V30 7725 H 723.452 -1.58173 0.12918 0
M  V30 7726 H 723.473 -3.20033 -2.05814 0
M  V30 7727 H 722.985 -3.8644 -0.358523 0
M  V30 7728 H 721.086 -2.72243 -2.5439 0
M  V30 7729 H 721.199 -4.44654 -1.7838 0
M  V30 7730 H 719.563 -2.32615 -1.03743 0
M  V30 7731 H 720.346 -3.42586 0.221238 0
M  V30 7732 N 722.791 0.367657 -1.53252 0
M  V30 7733 C 723.721 1.45632 -1.8252 0
M  V30 7734 C 724.702 1.55979 -0.678568 0
M  V30 7735 O 725.887 1.70581 -0.928217 0
M  V30 7736 C 723.017 2.82994 -2.01325 0
M  V30 7737 C 721.971 2.87473 -3.17086 0
M  V30 7738 C 721.297 4.2749 -3.21179 0
M  V30 7739 C 722.597 2.55182 -4.55719 0
M  V30 7740 H 724.291 1.21387 -2.73689 0
M  V30 7741 H 721.837 0.58251 -1.31692 0
M  V30 7742 H 723.79 3.59179 -2.20383 0
M  V30 7743 H 722.514 3.08622 -1.06864 0
M  V30 7744 H 721.173 2.13739 -2.97844 0
M  V30 7745 H 720.821 4.5019 -2.24361 0
M  V30 7746 H 720.521 4.31403 -3.98955 0
M  V30 7747 H 722.045 5.0555 -3.42419 0
M  V30 7748 H 723.459 3.21081 -4.74953 0
M  V30 7749 H 721.856 2.70414 -5.3572 0
M  V30 7750 H 722.926 1.5044 -4.60973 0
M  V30 7751 N 724.269 1.44576 0.627338 0
M  V30 7752 C 725.517 1.47267 1.38408 0
M  V30 7753 C 725.838 0.107971 1.94701 0
M  V30 7754 O 725.108 -0.860206 1.76004 0
M  V30 7755 H 723.688 0.542276 0.513756 0
M  V30 7756 H 726.35 1.80383 0.738099 0
M  V30 7757 H 725.446 2.20025 2.21349 0
M  V30 7758 N 725.747 -0.868086 1.31537 0
M  V30 7759 C 726.993 -1.62367 1.2151 0
M  V30 7760 C 727.326 -1.92883 -0.225819 0
M  V30 7761 O 726.601 -1.56176 -1.15927 0
M  V30 7762 C 726.884 -2.95268 2.06129 0
M  V30 7763 C 726.737 -2.71619 3.58529 0
M  V30 7764 C 728.056 -3.96391 1.91212 0
M  V30 7765 H 725.175 -0.589178 0.442762 0
M  V30 7766 H 727.817 -1.00336 1.61347 0
M  V30 7767 H 725.967 -3.4821 1.72284 0
M  V30 7768 H 727.639 -2.25334 4.0252 0
M  V30 7769 H 725.882 -2.05817 3.81866 0
M  V30 7770 H 726.553 -3.66192 4.13047 0
M  V30 7771 H 729.029 -3.52663 2.20834 0
M  V30 7772 H 727.905 -4.87263 2.52718 0
M  V30 7773 H 728.166 -4.33335 0.875953 0
M  V30 7774 N 727.225 -1.14528 -1.08264 0
M  V30 7775 C 728.188 -0.83632 -2.13397 0
M  V30 7776 C 729.188 0.159715 -1.60005 0
M  V30 7777 O 730.378 -0.0688098 -1.74064 0
M  V30 7778 C 727.51 -0.246973 -3.40004 0
M  V30 7779 H 728.703 -1.76808 -2.42237 0
M  V30 7780 H 726.256 -0.951509 -1.24 0
M  V30 7781 H 726.991 0.693436 -3.168 0
M  V30 7782 H 726.776 -0.964412 -3.80055 0
M  V30 7783 H 728.266 -0.0480679 -4.17572 0
M  V30 7784 N 728.703 1.26451 -0.940633 0
M  V30 7785 C 730.114 1.75726 -0.630653 0
M  V30 7786 C 730.465 1.76631 0.854167 0
M  V30 7787 O 729.59 1.37807 1.66848 0
M  V30 7788 C 730.185 3.19114 -1.13805 0
M  V30 7789 C 728.744 3.66005 -0.878497 0
M  V30 7790 C 727.891 2.45505 -1.28928 0
M  V30 7791 H 730.842 1.12535 -1.119 0
M  V30 7792 H 730.863 3.77311 -0.491625 0
M  V30 7793 H 730.375 3.18424 -2.21874 0
M  V30 7794 H 728.476 3.72126 0.187833 0
M  V30 7795 H 728.589 4.54844 -1.50512 0
M  V30 7796 H 726.953 2.4467 -0.707713 0
M  V30 7797 H 727.736 2.47516 -2.37888 0
M  V30 7798 N 730.181 0.707592 1.40822 0
M  V30 7799 C 731.409 0.253073 2.05346 0
M  V30 7800 C 731.824 -1.10218 1.53289 0
M  V30 7801 O 731.181 -1.69112 0.686105 0
M  V30 7802 C 731.232 0.215411 3.60858 0
M  V30 7803 O 730.953 1.51714 4.10992 0
M  V30 7804 C 732.454 -0.258636 4.42545 0
M  V30 7805 H 729.674 0.115256 0.661027 0
M  V30 7806 H 732.218 0.963555 1.80377 0
M  V30 7807 H 730.373 -0.445978 3.84824 0
M  V30 7808 H 730.787 1.41226 5.05129 0
M  V30 7809 H 732.261 -0.233849 5.51504 0
M  V30 7810 H 732.738 -1.2995 4.19535 0
M  V30 7811 H 733.344 0.372186 4.23668 0
M  V30 7812 N 731.66 -1.50943 0.453197 0
M  V30 7813 C 732.607 -2.28128 -0.350197 0
M  V30 7814 C 733.577 -1.32398 -1.00299 0
M  V30 7815 O 734.762 -1.61319 -1.01887 0
M  V30 7816 C 731.902 -3.13782 -1.43649 0
M  V30 7817 C 731.015 -4.24523 -0.800255 0
M  V30 7818 C 730.15 -4.97462 -1.86293 0
M  V30 7819 C 729.189 -6.00102 -1.20598 0
M  V30 7820 N 728.326 -6.66387 -2.21071 0
M  V30 7821 H 733.166 -2.96337 0.31434 0
M  V30 7822 H 730.703 -1.46151 0.166863 0
M  V30 7823 H 732.661 -3.6178 -2.07776 0
M  V30 7824 H 731.291 -2.47655 -2.07044 0
M  V30 7825 H 730.343 -3.80371 -0.0468651 0
M  V30 7826 H 731.655 -4.98009 -0.280777 0
M  V30 7827 H 730.809 -5.49088 -2.58044 0
M  V30 7828 H 729.548 -4.23642 -2.41617 0
M  V30 7829 H 728.553 -5.47753 -0.474 0
M  V30 7830 H 729.778 -6.75887 -0.659859 0
M  V30 7831 H 727.724 -5.9537 -2.75446 0
M  V30 7832 H 727.641 -7.3569 -1.74058 0
M  V30 7833 H 728.909 -7.22638 -2.92257 0
M  V30 7834 N 733.138 -0.185124 -1.56509 0
M  V30 7835 C 734.101 0.72591 -2.17401 0
M  V30 7836 C 735.101 1.14819 -1.12575 0
M  V30 7837 O 736.291 1.0629 -1.38015 0
M  V30 7838 C 733.423 1.98979 -2.76803 0
M  V30 7839 H 734.616 0.195588 -2.99262 0
M  V30 7840 H 732.169 0.0644772 -1.56167 0
M  V30 7841 H 732.904 2.56287 -1.98714 0
M  V30 7842 H 732.689 1.69583 -3.53531 0
M  V30 7843 H 734.179 2.63966 -3.23592 0
M  V30 7844 N 734.616 1.57351 0.0885366 0
M  V30 7845 C 735.563 2.02523 1.10693 0
M  V30 7846 C 736.533 0.902736 1.39427 0
M  V30 7847 O 737.718 1.16921 1.50779 0
M  V30 7848 C 734.858 2.46013 2.42016 0
M  V30 7849 C 733.971 3.7181 2.19957 0
M  V30 7850 C 733.106 4.04152 3.44724 0
M  V30 7851 C 732.145 5.2304 3.17956 0
M  V30 7852 N 731.282 5.51102 4.35007 0
M  V30 7853 H 736.122 2.89302 0.714742 0
M  V30 7854 H 733.659 1.43084 0.341378 0
M  V30 7855 H 735.617 2.69274 3.18665 0
M  V30 7856 H 734.247 1.62235 2.79069 0
M  V30 7857 H 733.299 3.55987 1.34079 0
M  V30 7858 H 734.611 4.58604 1.96173 0
M  V30 7859 H 733.765 4.28225 4.29777 0
M  V30 7860 H 732.504 3.15893 3.71568 0
M  V30 7861 H 731.509 4.98781 2.31296 0
M  V30 7862 H 732.734 6.12902 2.92451 0
M  V30 7863 H 730.68 4.65802 4.61914 0
M  V30 7864 H 730.597 6.3228 4.14437 0
M  V30 7865 H 731.865 5.79714 5.21106 0
M  V30 7866 N 736.094 -0.359525 1.53444 0
M  V30 7867 C 737.51 -0.701599 1.43352 0
M  V30 7868 C 737.71 -1.93049 0.577439 0
M  V30 7869 O 736.766 -2.52423 0.0622224 0
M  V30 7870 C 738.079 -0.90915 2.86627 0
M  V30 7871 C 739.627 -1.00878 2.96298 0
M  V30 7872 C 740.102 -1.24876 4.40647 0
M  V30 7873 N 741.593 -1.31632 4.44103 0
M  V30 7874 C 742.328 -1.51922 5.52908 0
M  V30 7875 N 741.824 -1.69489 6.71748 0
M  V30 7876 N 743.617 -1.54341 5.40496 0
M  V30 7877 H 735.768 0.448685 2.07607 0
M  V30 7878 H 738.031 0.138713 0.937797 0
M  V30 7879 H 737.737 -0.0778997 3.51614 0
M  V30 7880 H 737.611 -1.81551 3.30634 0
M  V30 7881 H 739.998 -1.83057 2.31461 0
M  V30 7882 H 740.079 -0.0796721 2.55676 0
M  V30 7883 H 739.723 -0.431961 5.0606 0
M  V30 7884 H 739.653 -2.19118 4.78848 0
M  V30 7885 H 742.144 -1.19646 3.5846 0
M  V30 7886 H 742.457 -1.84561 7.50438 0
M  V30 7887 H 740.802 -1.66655 6.74723 0
M  V30 7888 H 743.993 -1.40188 4.46615 0
M  V30 7889 H 744.166 -1.69812 6.25354 0
M  V30 7890 N 737.572 -1.44907 -0.619662 0
M  V30 7891 C 738.988 -1.29046 -0.939107 0
M  V30 7892 C 739.188 -0.23462 -2.00129 0
M  V30 7893 O 738.244 0.37558 -2.49691 0
M  V30 7894 C 739.557 -2.66567 -1.39149 0
M  V30 7895 C 741.105 -2.74368 -1.50635 0
M  V30 7896 C 741.58 -4.12386 -1.99253 0
M  V30 7897 N 743.071 -4.1462 -2.06506 0
M  V30 7898 C 743.806 -5.18272 -2.4532 0
M  V30 7899 N 743.302 -6.32278 -2.83189 0
M  V30 7900 N 745.095 -5.05628 -2.45554 0
M  V30 7901 H 737.246 -2.12239 0.0826135 0
M  V30 7902 H 739.509 -0.947652 -0.0256829 0
M  V30 7903 H 739.215 -3.4496 -0.685254 0
M  V30 7904 H 739.089 -2.94224 -2.36034 0
M  V30 7905 H 741.476 -1.96287 -2.20353 0
M  V30 7906 H 741.557 -2.50439 -0.520963 0
M  V30 7907 H 741.201 -4.90947 -1.30127 0
M  V30 7908 H 741.131 -4.33699 -2.98684 0
M  V30 7909 H 743.622 -3.32343 -1.79878 0
M  V30 7910 H 743.935 -7.07172 -3.11652 0
M  V30 7911 H 742.28 -6.35699 -2.80913 0
M  V30 7912 H 745.471 -4.15613 -2.15367 0
M  V30 7913 H 745.644 -5.86529 -2.75478 0
M  V30 7914 N 739.05 0.861098 -1.31996 0
M  V30 7915 C 740.296 1.61721 -1.22369 0
M  V30 7916 C 740.629 1.93 0.215587 0
M  V30 7917 O 739.904 1.56789 1.15098 0
M  V30 7918 C 740.187 2.9417 -2.07691 0
M  V30 7919 C 740.04 2.69714 -3.59965 0
M  V30 7920 C 741.359 3.95372 -1.93312 0
M  V30 7921 H 738.478 0.586822 -0.44588 0
M  V30 7922 H 741.12 0.994788 -1.61876 0
M  V30 7923 H 739.27 3.47292 -1.74128 0
M  V30 7924 H 740.942 2.23196 -4.03709 0
M  V30 7925 H 739.185 2.03789 -3.82952 0
M  V30 7926 H 739.856 3.63996 -4.14983 0
M  V30 7927 H 742.332 3.51487 -2.22701 0
M  V30 7928 H 741.208 4.85916 -2.55298 0
M  V30 7929 H 741.469 4.32865 -0.898922 0
M  V30 7930 N 740.528 1.15101 1.07655 0
M  V30 7931 C 741.774 0.925343 1.80458 0
M  V30 7932 C 742.107 -0.546354 1.86356 0
M  V30 7933 O 741.382 -1.40496 1.34503 0
M  V30 7934 C 741.665 1.53646 3.25676 0
M  V30 7935 C 741.518 3.07854 3.27942 0
M  V30 7936 C 742.837 1.21968 4.22861 0
M  V30 7937 H 739.956 0.337592 0.655134 0
M  V30 7938 H 742.598 1.42217 1.25993 0
M  V30 7939 H 740.748 1.11395 3.72187 0
M  V30 7940 H 742.42 3.58989 2.89697 0
M  V30 7941 H 740.663 3.41904 2.66991 0
M  V30 7942 H 741.334 3.45725 4.30324 0
M  V30 7943 H 743.81 1.5851 3.84726 0
M  V30 7944 H 742.686 1.67349 5.22767 0
M  V30 7945 H 742.947 0.136207 4.4189 0
M  V30 7946 N 742.006 -1.2595 0.947325 0
M  V30 7947 C 742.938 -2.25336 0.41906 0
M  V30 7948 C 743.951 -1.56135 -0.461051 0
M  V30 7949 O 745.14 -1.76438 -0.270505 0
M  V30 7950 C 742.24 -3.36334 -0.416233 0
M  V30 7951 C 741.413 -4.35088 0.449162 0
M  V30 7952 C 740.472 -5.25185 -0.326716 0
M  V30 7953 O 739.498 -5.68548 0.272374 0
M  V30 7954 N 740.7 -5.57388 -1.6217 0
M  V30 7955 H 743.465 -2.71298 1.27348 0
M  V30 7956 H 741.026 -1.39781 0.81688 0
M  V30 7957 H 743.018 -3.93564 -0.942826 0
M  V30 7958 H 741.588 -2.89819 -1.17148 0
M  V30 7959 H 740.808 -3.76841 1.15692 0
M  V30 7960 H 742.096 -4.98056 1.04008 0
M  V30 7961 H 741.494 -5.2405 -2.13046 0
M  V30 7962 H 740.051 -6.17234 -2.0944 0
M  V30 7963 N 743.484 -0.715051 -1.40445 0
M  V30 7964 C 744.9 -0.388555 -1.54798 0
M  V30 7965 C 745.1 1.10271 -1.68649 0
M  V30 7966 O 744.156 1.88875 -1.67578 0
M  V30 7967 C 745.469 -1.15414 -2.77669 0
M  V30 7968 C 747.017 -1.14039 -2.91486 0
M  V30 7969 C 747.492 -1.88812 -4.1727 0
M  V30 7970 N 748.983 -1.85878 -4.24268 0
M  V30 7971 C 749.718 -2.40558 -5.20499 0
M  V30 7972 N 749.214 -3.03791 -6.22642 0
M  V30 7973 N 751.007 -2.30703 -5.12574 0
M  V30 7974 H 743.158 -1.68201 -1.297 0
M  V30 7975 H 745.421 -0.710915 -0.627139 0
M  V30 7976 H 745.127 -2.20853 -2.7371 0
M  V30 7977 H 745.001 -0.745412 -3.69761 0
M  V30 7978 H 747.388 -0.0941996 -2.9495 0
M  V30 7979 H 747.469 -1.58834 -2.00513 0
M  V30 7980 H 747.113 -2.93422 -4.14568 0
M  V30 7981 H 747.043 -1.41438 -5.0725 0
M  V30 7982 H 749.534 -1.39794 -3.51093 0
M  V30 7983 H 749.847 -3.43032 -6.92495 0
M  V30 7984 H 748.192 -3.07875 -6.23087 0
M  V30 7985 H 751.383 -1.80961 -4.31707 0
M  V30 7986 H 751.556 -2.73618 -5.87398 0
M  V30 7987 N 744.962 1.50701 -0.461195 0
M  V30 7988 C 745.872 2.32069 0.343661 0
M  V30 7989 C 746.888 1.42016 1.00535 0
M  V30 7990 O 748.064 1.75077 0.995498 0
M  V30 7991 C 745.129 3.16424 1.41692 0
M  V30 7992 C 744.19 4.22286 0.772869 0
M  V30 7993 C 743.423 5.02609 1.79499 0
M  V30 7994 O 743.646 4.83874 3.0203 0
M  V30 7995 O 742.58 5.86047 1.3723 0
M  V30 7996 H 746.406 3.01996 -0.321268 0
M  V30 7997 H 743.991 1.47723 -0.223235 0
M  V30 7998 H 745.873 3.68795 2.03883 0
M  V30 7999 H 744.548 2.49236 2.0655 0
M  V30 8000 H 743.455 3.73931 0.112277 0
M  V30 8001 H 744.788 4.91915 0.167399 0
M  V30 8002 N 746.441 0.193421 1.56409 0
M  V30 8003 C 747.388 -0.728124 2.19014 0
M  V30 8004 C 748.358 -1.21098 1.13686 0
M  V30 8005 O 749.543 -1.27517 1.4193 0
M  V30 8006 C 746.683 -1.94277 2.8522 0
M  V30 8007 C 745.796 -1.50143 4.05069 0
M  V30 8008 C 744.931 -2.67145 4.59137 0
M  V30 8009 C 743.97 -2.19609 5.71348 0
M  V30 8010 N 743.107 -3.29782 6.19829 0
M  V30 8011 H 747.947 -0.187499 2.9741 0
M  V30 8012 H 745.484 -0.0808064 1.46878 0
M  V30 8013 H 747.442 -2.65551 3.21774 0
M  V30 8014 H 746.072 -2.45673 2.09391 0
M  V30 8015 H 745.124 -0.684624 3.74189 0
M  V30 8016 H 746.436 -1.11266 4.86232 0
M  V30 8017 H 745.59 -3.46544 4.97988 0
M  V30 8018 H 744.329 -3.09295 3.77078 0
M  V30 8019 H 743.334 -1.38664 5.32027 0
M  V30 8020 H 744.559 -1.78492 6.55223 0
M  V30 8021 H 742.505 -3.71466 5.40693 0
M  V30 8022 H 742.422 -2.95069 6.96039 0
M  V30 8023 H 743.69 -4.094 6.63334 0
M  V30 8024 N 747.919 -1.57396 -0.0801906 0
M  V30 8025 C 749.335 -1.53564 -0.434778 0
M  V30 8026 C 749.535 -0.912372 -1.79661 0
M  V30 8027 O 748.591 -0.511268 -2.4727 0
M  V30 8028 C 749.904 -2.98244 -0.383561 0
M  V30 8029 C 751.452 -3.09536 -0.46435 0
M  V30 8030 C 751.927 -4.55851 -0.443128 0
M  V30 8031 N 753.418 -4.60456 -0.503448 0
M  V30 8032 C 754.153 -5.71135 -0.509106 0
M  V30 8033 N 753.649 -6.91203 -0.47008 0
M  V30 8034 N 755.442 -5.59353 -0.555035 0
M  V30 8035 H 747.593 -1.96281 0.811635 0
M  V30 8036 H 749.856 -0.898041 0.303689 0
M  V30 8037 H 749.562 -3.47369 0.550236 0
M  V30 8038 H 749.436 -3.57705 -1.19694 0
M  V30 8039 H 751.823 -2.6039 -1.38857 0
M  V30 8040 H 751.904 -2.53 0.377445 0
M  V30 8041 H 751.548 -5.05653 0.477207 0
M  V30 8042 H 751.478 -5.10242 -1.30234 0
M  V30 8043 H 753.969 -3.74048 -0.538199 0
M  V30 8044 H 754.282 -7.7132 -0.478091 0
M  V30 8045 H 752.627 -6.93625 -0.436897 0
M  V30 8046 H 755.818 -4.64453 -0.583158 0
M  V30 8047 H 755.991 -6.4561 -0.555976 0
M  V30 8048 N 749.397 0.351382 -1.53633 0
M  V30 8049 C 750.36 1.41403 -1.80383 0
M  V30 8050 C 751.36 1.45963 -0.674635 0
M  V30 8051 O 752.55 1.46476 -0.942895 0
M  V30 8052 C 749.682 2.80401 -1.93876 0
M  V30 8053 H 750.875 1.18951 -2.75301 0
M  V30 8054 H 748.428 0.58533 -1.44926 0
M  V30 8055 H 749.163 3.08147 -1.01074 0
M  V30 8056 H 748.948 2.78488 -2.7602 0
M  V30 8057 H 750.438 3.57329 -2.16116 0
M  V30 8058 N 750.875 1.45233 0.611969 0
M  V30 8059 C 752.121 1.49242 1.37312 0
M  V30 8060 C 752.454 0.131963 1.93751 0
M  V30 8061 O 751.729 -0.852999 1.74798 0
M  V30 8062 C 752.012 2.56811 2.52428 0
M  V30 8063 C 751.865 4.02284 2.01215 0
M  V30 8064 C 753.184 2.60705 3.54572 0
M  V30 8065 H 750.303 0.54336 0.497925 0
M  V30 8066 H 752.945 1.77019 0.690242 0
M  V30 8067 H 751.095 2.33256 3.10683 0
M  V30 8068 H 752.767 4.37035 1.47643 0
M  V30 8069 H 751.01 4.1315 1.32248 0
M  V30 8070 H 751.681 4.7323 2.84178 0
M  V30 8071 H 754.157 2.81799 3.06151 0
M  V30 8072 H 753.033 3.37841 4.32614 0
M  V30 8073 H 753.294 1.65627 4.09903 0
M  V30 8074 N 752.353 -0.854086 1.3245 0
M  V30 8075 C 753.601 -1.60513 1.228 0
M  V30 8076 C 753.922 -1.93865 -0.210073 0
M  V30 8077 O 753.192 -1.59673 -1.13496 0
M  V30 8078 H 751.772 -0.595099 0.451516 0
M  V30 8079 H 754.434 -1.0216 1.6598 0
M  V30 8080 H 753.53 -2.54182 1.81102 0
M  V30 8081 N 753.831 -1.1567 -1.07043 0
M  V30 8082 C 754.761 -0.879348 -2.16309 0
M  V30 8083 C 755.742 0.171311 -1.69235 0
M  V30 8084 O 756.927 0.0250175 -1.94184 0
M  V30 8085 C 754.057 -0.371307 -3.45309 0
M  V30 8086 C 753.011 -1.359 -4.05851 0
M  V30 8087 C 752.337 -0.709678 -5.29969 0
M  V30 8088 C 753.637 -2.72606 -4.45514 0
M  V30 8089 H 755.331 -1.79308 -2.39768 0
M  V30 8090 H 752.877 -0.863558 -1.15233 0
M  V30 8091 H 754.83 -0.164798 -4.21078 0
M  V30 8092 H 753.554 0.577906 -3.21446 0
M  V30 8093 H 752.213 -1.55193 -3.32131 0
M  V30 8094 H 751.861 0.245782 -5.02399 0
M  V30 8095 H 751.561 -1.36886 -5.71433 0
M  V30 8096 H 753.085 -0.513015 -6.08441 0
M  V30 8097 H 754.499 -2.57141 -5.12398 0
M  V30 8098 H 752.896 -3.34927 -4.97939 0
M  V30 8099 H 753.966 -3.28434 -3.56734 0
M  V30 8100 N 755.309 1.25446 -0.953992 0
M  V30 8101 C 756.557 1.92762 -0.607227 0
M  V30 8102 C 756.878 1.7509 0.858399 0
M  V30 8103 O 756.148 1.11416 1.61132 0
M  V30 8104 H 754.728 0.713377 -0.221591 0
M  V30 8105 H 757.39 1.52625 -1.21209 0
M  V30 8106 H 756.486 3.00695 -0.835998 0
M  V30 8107 N 756.787 0.722489 1.40064 0
M  V30 8108 C 757.75 0.0830209 2.2905 0
M  V30 8109 C 758.75 -0.680208 1.45705 0
M  V30 8110 O 759.94 -0.511084 1.66534 0
M  V30 8111 C 757.072 -0.892092 3.29021 0
M  V30 8112 H 758.265 0.866848 2.87099 0
M  V30 8113 H 755.818 0.487556 1.48501 0
M  V30 8114 H 756.553 -1.70273 2.76003 0
M  V30 8115 H 756.338 -0.34761 3.90556 0
M  V30 8116 H 757.828 -1.33648 3.95636 0
M  V30 8117 N 758.265 -1.50454 0.469181 0
M  V30 8118 C 759.195 -2.31353 -0.31592 0
M  V30 8119 C 760.176 -1.38172 -0.992094 0
M  V30 8120 O 761.361 -1.67093 -0.989633 0
M  V30 8121 C 758.491 -3.1786 -1.39937 0
M  V30 8122 C 757.445 -4.19578 -0.844909 0
M  V30 8123 C 756.771 -4.9481 -2.0265 0
M  V30 8124 C 758.071 -5.22106 0.142499 0
M  V30 8125 H 759.765 -2.97237 0.359269 0
M  V30 8126 H 757.311 -1.42942 0.174224 0
M  V30 8127 H 759.264 -3.7325 -1.95607 0
M  V30 8128 H 757.988 -2.49858 -2.1033 0
M  V30 8129 H 756.647 -3.65285 -0.310189 0
M  V30 8130 H 756.295 -4.23282 -2.71737 0
M  V30 8131 H 755.995 -5.63613 -1.66174 0
M  V30 8132 H 757.519 -5.53035 -2.58815 0
M  V30 8133 H 758.933 -5.72378 -0.324966 0
M  V30 8134 H 757.33 -5.98618 0.421441 0
M  V30 8135 H 758.4 -4.7297 1.06901 0
M  V30 8136 N 759.743 -0.201713 -1.56304 0
M  V30 8137 C 760.99 0.435307 -1.97766 0
M  V30 8138 C 761.318 1.61169 -1.0888 0
M  V30 8139 O 760.573 1.95272 -0.12934 0
M  V30 8140 C 760.872 0.931432 -3.45049 0
M  V30 8141 C 760.538 -0.132287 -4.50706 0
M  V30 8142 C 759.2 -0.424552 -4.79323 0
M  V30 8143 C 761.552 -0.852703 -5.14177 0
M  V30 8144 C 758.88 -1.4421 -5.68701 0
M  V30 8145 C 761.232 -1.85944 -6.04655 0
M  V30 8146 C 759.896 -2.15884 -6.31625 0
M  V30 8147 H 759.166 0.15929 -0.723676 0
M  V30 8148 H 761.813 -0.300069 -1.89134 0
M  V30 8149 H 760.118 1.7452 -3.50785 0
M  V30 8150 H 761.815 1.43383 -3.74489 0
M  V30 8151 H 758.405 0.105671 -4.2847 0
M  V30 8152 H 762.589 -0.640139 -4.92154 0
M  V30 8153 H 757.845 -1.6799 -5.87869 0
M  V30 8154 H 762.019 -2.42286 -6.52894 0
M  V30 8155 H 759.646 -2.94875 -7.0068 0
M  V30 8156 N 761.222 1.57436 0.0718424 0
M  V30 8157 C 762.152 2.06724 1.08571 0
M  V30 8158 C 763.133 0.960731 1.40371 0
M  V30 8159 O 764.318 1.23345 1.49999 0
M  V30 8160 C 761.448 2.51112 2.39916 0
M  V30 8161 C 760.402 3.65639 2.22469 0
M  V30 8162 C 759.728 3.96082 3.59198 0
M  V30 8163 C 761.028 4.95687 1.64596 0
M  V30 8164 H 762.722 2.91679 0.675569 0
M  V30 8165 H 760.268 1.40319 0.32352 0
M  V30 8166 H 762.221 2.84206 3.11135 0
M  V30 8167 H 760.945 1.63186 2.8291 0
M  V30 8168 H 759.604 3.32828 1.53691 0
M  V30 8169 H 759.252 3.05287 3.99761 0
M  V30 8170 H 758.952 4.73199 3.48362 0
M  V30 8171 H 760.476 4.31672 4.31847 0
M  V30 8172 H 761.89 5.27011 2.25681 0
M  V30 8173 H 760.287 5.77126 1.64457 0
M  V30 8174 H 761.357 4.8108 0.60744 0
M  V30 8175 N 762.7 -0.34323 1.53817 0
M  V30 8176 C 763.948 -1.0813 1.70741 0
M  V30 8177 C 764.269 -1.89165 0.473461 0
M  V30 8178 O 763.539 -1.89075 -0.512605 0
M  V30 8179 H 762.119 -0.40219 0.629486 0
M  V30 8180 H 764.781 -0.384426 1.91071 0
M  V30 8181 H 763.877 -1.7585 2.57843 0
M  V30 8182 N 764.178 -1.45556 -0.604258 0
M  V30 8183 C 765.425 -1.49746 -1.36317 0
M  V30 8184 C 765.753 -0.140516 -1.93992 0
M  V30 8185 O 765.008 0.861244 -1.7573 0
M  V30 8186 C 765.307 -2.52697 -2.52743 0
M  V30 8187 C 764.973 -3.97315 -2.13195 0
M  V30 8188 C 763.635 -4.36692 -2.02123 0
M  V30 8189 C 765.987 -4.88249 -1.8238 0
M  V30 8190 C 763.315 -5.64895 -1.58463 0
M  V30 8191 C 765.667 -6.16867 -1.40205 0
M  V30 8192 C 764.331 -6.55172 -1.27694 0
M  V30 8193 H 763.601 -0.54796 -0.49882 0
M  V30 8194 H 766.248 -1.7892 -0.682643 0
M  V30 8195 H 764.553 -2.17105 -3.26148 0
M  V30 8196 H 766.25 -2.53176 -3.10971 0
M  V30 8197 H 762.84 -3.66176 -2.22739 0
M  V30 8198 H 767.024 -4.58561 -1.89829 0
M  V30 8199 H 762.28 -5.93365 -1.47402 0
M  V30 8200 H 766.454 -6.86771 -1.15408 0
M  V30 8201 H 764.081 -7.54411 -0.936375 0
M  V30 8202 N 765.656 0.84705 -1.32902 0
M  V30 8203 C 766.586 1.97166 -1.25091 0
M  V30 8204 C 767.567 1.69578 -0.133161 0
M  V30 8205 O 768.752 1.91519 -0.321591 0
M  V30 8206 C 765.882 3.33157 -0.981006 0
M  V30 8207 C 764.836 3.75119 -2.06082 0
M  V30 8208 C 764.162 5.08826 -1.64318 0
M  V30 8209 C 765.462 3.89774 -3.47669 0
M  V30 8210 H 767.156 2.03958 -2.19184 0
M  V30 8211 H 764.702 0.979907 -1.05517 0
M  V30 8212 H 766.655 4.11393 -0.912891 0
M  V30 8213 H 765.379 3.266 -0.00445559 0
M  V30 8214 H 764.038 2.9914 -2.11921 0
M  V30 8215 H 763.686 4.98732 -0.653876 0
M  V30 8216 H 763.386 5.37873 -2.36572 0
M  V30 8217 H 764.91 5.89546 -1.58958 0
M  V30 8218 H 766.324 4.58343 -3.44376 0
M  V30 8219 H 764.721 4.30248 -4.18338 0
M  V30 8220 H 765.791 2.92463 -3.86773 0
M  V30 8221 N 767.134 1.16236 1.06428 0
M  V30 8222 C 768.382 0.941171 1.78847 0
M  V30 8223 C 768.703 -0.53248 1.87589 0
M  V30 8224 O 767.973 -1.38686 1.38358 0
M  V30 8225 H 766.553 0.345228 0.66244 0
M  V30 8226 H 769.215 1.46479 1.28569 0
M  V30 8227 H 768.311 1.35871 2.80972 0
M  V30 8228 N 768.612 -1.24939 0.960631 0
M  V30 8229 C 769.575 -2.239 0.49006 0
M  V30 8230 C 770.575 -1.55497 -0.409535 0
M  V30 8231 O 771.765 -1.72978 -0.205984 0
M  V30 8232 C 768.897 -3.39654 -0.291193 0
M  V30 8233 H 770.09 -2.67044 1.36482 0
M  V30 8234 H 767.643 -1.37429 0.744505 0
M  V30 8235 H 768.378 -3.01939 -1.18336 0
M  V30 8236 H 768.163 -3.90496 0.354276 0
M  V30 8237 H 769.653 -4.13125 -0.609693 0
M  V30 8238 N 770.09 -0.729906 -1.39679 0
M  V30 8239 C 771.053 -0.0951668 -2.29002 0
M  V30 8240 C 772.053 0.672471 -1.46063 0
M  V30 8241 O 773.243 0.502245 -1.66803 0
M  V30 8242 C 770.375 0.874631 -3.29489 0
M  V30 8243 H 771.568 -0.882062 -2.86635 0
M  V30 8244 H 769.121 -0.495424 -1.4824 0
M  V30 8245 H 769.856 1.68807 -2.76902 0
M  V30 8246 H 769.641 0.326893 -3.90735 0
M  V30 8247 H 771.131 1.31548 -3.96339 0
M  V30 8248 N 771.568 1.50203 -0.477153 0
M  V30 8249 C 772.816 2.01959 0.0755889 0
M  V30 8250 C 773.137 1.3608 1.39668 0
M  V30 8251 O 772.407 0.508136 1.89195 0
M  V30 8252 H 770.987 0.74636 0.0309248 0
M  V30 8253 H 773.649 1.84473 -0.628959 0
M  V30 8254 H 772.745 3.11305 0.222683 0
M  V30 8255 N 773.046 0.209999 1.56195 0
M  V30 8256 C 774.271 -0.433064 2.02828 0
M  V30 8257 C 774.696 -1.5337 1.08901 0
M  V30 8258 O 774.054 -1.81144 0.0751132 0
M  V30 8259 C 774.102 -0.952635 3.47789 0
M  V30 8260 O 773.206 -2.0647 3.56993 0
M  V30 8261 H 772.547 -0.0994594 0.656509 0
M  V30 8262 H 775.077 0.32525 2.01998 0
M  V30 8263 H 775.087 -1.26542 3.8788 0
M  V30 8264 H 773.762 -0.147007 4.1564 0
M  V30 8265 H 772.339 -1.75942 3.28784 0
M  V30 8266 N 774.524 -1.57472 -0.0634922 0
M  V30 8267 C 775.752 -1.91887 -0.773767 0
M  V30 8268 C 776.167 -0.806733 -1.70696 0
M  V30 8269 O 775.524 0.219383 -1.81177 0
M  V30 8270 C 775.575 -3.26092 -1.56034 0
M  V30 8271 O 775.296 -4.33029 -0.66464 0
M  V30 8272 C 776.797 -3.74573 -2.37087 0
M  V30 8273 H 774.017 -0.634074 -0.219525 0
M  V30 8274 H 776.561 -2.04476 -0.0312828 0
M  V30 8275 H 774.716 -3.15004 -2.25502 0
M  V30 8276 H 775.13 -5.10291 -1.21258 0
M  V30 8277 H 776.604 -4.71084 -2.87722 0
M  V30 8278 H 777.081 -3.04003 -3.16984 0
M  V30 8279 H 777.687 -3.88631 -1.72759 0
M  V30 8280 N 776.003 0.335068 -1.53997 0
M  V30 8281 C 776.936 1.43533 -1.77407 0
M  V30 8282 C 777.914 1.5017 -0.623529 0
M  V30 8283 O 779.098 1.67756 -0.85966 0
M  V30 8284 C 776.225 2.81712 -1.88033 0
M  V30 8285 C 775.271 2.92661 -3.10245 0
M  V30 8286 S 776.104 2.58254 -4.69111 0
M  V30 8287 C 777.26 3.98525 -4.82627 0
M  V30 8288 H 777.493 1.2346 -2.70453 0
M  V30 8289 H 775.026 0.531234 -1.44973 0
M  V30 8290 H 776.984 3.61314 -1.9484 0
M  V30 8291 H 775.645 2.99075 -0.959849 0
M  V30 8292 H 774.838 3.93931 -3.14379 0
M  V30 8293 H 774.44 2.21017 -3.01708 0
M  V30 8294 H 776.732 4.93146 -4.64557 0
M  V30 8295 H 777.675 3.9938 -5.84723 0
M  V30 8296 H 778.083 3.86945 -4.11016 0
M  V30 8297 N 777.481 1.45874 0.596531 0
M  V30 8298 C 778.729 1.5017 1.35253 0
M  V30 8299 C 779.05 0.149246 1.94428 0
M  V30 8300 O 778.32 -0.82268 1.77789 0
M  V30 8301 H 776.9 0.553052 0.502138 0
M  V30 8302 H 779.562 1.81908 0.699671 0
M  V30 8303 H 778.658 2.24671 2.16632 0
M  V30 8304 N 778.959 -0.83999 1.33349 0
M  V30 8305 C 779.922 -1.93128 1.23426 0
M  V30 8306 C 780.922 -1.60065 0.153599 0
M  V30 8307 O 782.112 -1.69425 0.405049 0
M  V30 8308 C 779.244 -3.28761 0.901622 0
M  V30 8309 H 780.437 -2.03352 2.20427 0
M  V30 8310 H 777.99 -1.03194 1.17391 0
M  V30 8311 H 778.725 -3.24233 -0.0659337 0
M  V30 8312 H 778.51 -3.54138 1.68311 0
M  V30 8313 H 780 -4.08714 0.856913 0
M  V30 8314 N 780.437 -1.16799 -1.0581 0
M  V30 8315 C 781.4 -0.881396 -2.11575 0
M  V30 8316 C 782.4 0.12574 -1.60308 0
M  V30 8317 O 783.59 -0.105716 -1.73879 0
M  V30 8318 C 780.722 -0.319037 -3.39404 0
M  V30 8319 H 781.915 -1.81907 -2.38432 0
M  V30 8320 H 779.468 -0.977597 -1.21954 0
M  V30 8321 H 780.203 0.626082 -3.18199 0
M  V30 8322 H 779.988 -1.04481 -3.77923 0
M  V30 8323 H 781.478 -0.13663 -4.17376 0
M  V30 8324 N 781.915 1.24427 -0.967243 0
M  V30 8325 C 783.14 1.9708 -0.646069 0
M  V30 8326 C 783.565 1.71272 0.777665 0
M  V30 8327 O 782.923 0.976179 1.52776 0
M  V30 8328 C 782.971 3.48501 -0.926266 0
M  V30 8329 O 782.075 4.12398 -0.0114653 0
M  V30 8330 H 781.416 0.617423 -0.244304 0
M  V30 8331 H 783.946 1.58215 -1.29727 0
M  V30 8332 H 783.956 3.98885 -0.857619 0
M  V30 8333 H 782.631 3.66613 -1.96386 0
M  V30 8334 H 781.208 3.72661 -0.133396 0
M  V30 8335 N 783.393 0.737304 1.3929 0
M  V30 8336 C 784.323 0.113988 2.33222 0
M  V30 8337 C 785.304 -0.721695 1.54031 0
M  V30 8338 O 786.489 -0.666206 1.82415 0
M  V30 8339 C 783.619 -0.792319 3.38141 0
M  V30 8340 C 782.573 -0.0606178 4.27957 0
M  V30 8341 C 781.899 -1.08409 5.23595 0
M  V30 8342 C 783.199 1.09817 5.10625 0
M  V30 8343 H 784.893 0.898611 2.85596 0
M  V30 8344 H 782.439 0.433571 1.37318 0
M  V30 8345 H 784.392 -1.23793 4.02807 0
M  V30 8346 H 783.116 -1.60908 2.84211 0
M  V30 8347 H 781.775 0.365393 3.64775 0
M  V30 8348 H 781.423 -1.89449 4.6596 0
M  V30 8349 H 781.123 -0.599269 5.84536 0
M  V30 8350 H 782.647 -1.52936 5.91137 0
M  V30 8351 H 784.061 0.730892 5.68622 0
M  V30 8352 H 782.458 1.51278 5.80719 0
M  V30 8353 H 783.528 1.91878 4.45321 0
M  V30 8354 N 784.871 -1.49948 0.485112 0
M  V30 8355 C 786.099 -2.06806 -0.0622824 0
M  V30 8356 C 786.514 -1.34736 -1.32256 0
M  V30 8357 O 785.871 -0.420836 -1.77582 0
M  V30 8358 C 785.922 -3.59934 -0.336096 0
M  V30 8359 O 785.643 -4.29289 0.874203 0
M  V30 8360 C 787.144 -4.33459 -0.928903 0
M  V30 8361 H 784.364 -0.670867 0.0133472 0
M  V30 8362 H 786.908 -1.92937 0.677917 0
M  V30 8363 H 785.063 -3.7356 -1.02625 0
M  V30 8364 H 785.477 -5.20735 0.627332 0
M  V30 8365 H 786.951 -5.41527 -1.07017 0
M  V30 8366 H 787.428 -3.94881 -1.92265 0
M  V30 8367 H 788.034 -4.24399 -0.276705 0
M  V30 8368 N 786.349 -0.21828 -1.56081 0
M  V30 8369 C 787.279 0.687922 -2.23136 0
M  V30 8370 C 788.26 1.20357 -1.202 0
M  V30 8371 O 789.445 1.24817 -1.48776 0
M  V30 8372 C 786.575 1.89762 -2.90874 0
M  V30 8373 C 785.529 1.51595 -4.00254 0
M  V30 8374 C 784.855 2.80415 -4.55271 0
M  V30 8375 C 786.155 0.708404 -5.17474 0
M  V30 8376 H 787.849 0.128854 -2.99123 0
M  V30 8377 H 785.395 0.0605354 -1.43873 0
M  V30 8378 H 787.348 2.53699 -3.36474 0
M  V30 8379 H 786.072 2.4816 -2.1233 0
M  V30 8380 H 784.731 0.900058 -3.55379 0
M  V30 8381 H 784.379 3.36951 -3.73461 0
M  V30 8382 H 784.079 2.55613 -5.2909 0
M  V30 8383 H 785.603 3.453 -5.03587 0
M  V30 8384 H 787.017 1.2514 -5.59476 0
M  V30 8385 H 785.414 0.557593 -5.97504 0
M  V30 8386 H 786.484 -0.285679 -4.84058 0
M  V30 8387 N 787.827 1.57504 0.0551401 0
M  V30 8388 C 789.055 1.92294 0.76358 0
M  V30 8389 C 789.47 0.815774 1.70266 0
M  V30 8390 O 788.827 -0.209772 1.8129 0
M  V30 8391 C 788.878 3.26914 1.54302 0
M  V30 8392 O 788.599 4.33375 0.641666 0
M  V30 8393 C 790.1 3.75825 2.35097 0
M  V30 8394 H 787.32 0.635229 0.216159 0
M  V30 8395 H 789.864 2.0449 0.0204385 0
M  V30 8396 H 788.019 3.16196 2.23828 0
M  V30 8397 H 788.433 5.10927 1.1855 0
M  V30 8398 H 789.907 4.72603 2.8522 0
M  V30 8399 H 790.384 3.0568 3.15367 0
M  V30 8400 H 790.99 3.89542 1.70696 0
M  V30 8401 N 789.305 -0.326896 1.54172 0
M  V30 8402 C 790.551 -1.06681 1.72473 0
M  V30 8403 C 790.884 -1.87779 0.49523 0
M  V30 8404 O 790.159 -1.87754 -0.507803 0
M  V30 8405 C 790.442 -1.99429 2.99834 0
M  V30 8406 C 790.295 -1.21682 4.33028 0
M  V30 8407 C 791.614 -2.99002 3.22933 0
M  V30 8408 H 788.733 -0.386438 0.627563 0
M  V30 8409 H 791.375 -0.343779 1.86864 0
M  V30 8410 H 789.525 -2.61081 2.87696 0
M  V30 8411 H 791.197 -0.625153 4.57044 0
M  V30 8412 H 789.44 -0.519045 4.30684 0
M  V30 8413 H 790.111 -1.89766 5.18356 0
M  V30 8414 H 792.587 -2.4747 3.34511 0
M  V30 8415 H 791.463 -3.61085 4.13412 0
M  V30 8416 H 791.724 -3.71281 2.40006 0
M  V30 8417 N 790.784 -1.46188 -0.588786 0
M  V30 8418 C 791.716 -1.52319 -1.71265 0
M  V30 8419 C 792.729 -0.412096 -1.57498 0
M  V30 8420 O 793.918 -0.680146 -1.65034 0
M  V30 8421 C 791.018 -1.38164 -3.09458 0
M  V30 8422 C 790.191 -2.63284 -3.49286 0
M  V30 8423 C 789.25 -2.43415 -4.66514 0
M  V30 8424 O 788.276 -3.17113 -4.72682 0
M  V30 8425 N 789.478 -1.49187 -5.61002 0
M  V30 8426 H 792.243 -2.49219 -1.66463 0
M  V30 8427 H 789.804 -1.42167 -0.774601 0
M  V30 8428 H 791.796 -1.22653 -3.85666 0
M  V30 8429 H 790.366 -0.494678 -3.08661 0
M  V30 8430 H 789.586 -2.93779 -2.62845 0
M  V30 8431 H 790.874 -3.46413 -3.7266 0
M  V30 8432 H 790.272 -0.884027 -5.5875 0
M  V30 8433 H 788.829 -1.39642 -6.36666 0
M  V30 8434 N 792.262 0.832906 -1.33792 0
M  V30 8435 C 793.225 1.92471 -1.24449 0
M  V30 8436 C 794.225 1.59981 -0.162085 0
M  V30 8437 O 795.415 1.69208 -0.414029 0
M  V30 8438 C 792.547 3.28278 -0.919044 0
M  V30 8439 H 793.74 2.0218 -2.21502 0
M  V30 8440 H 791.293 1.0257 -1.17936 0
M  V30 8441 H 792.028 3.24263 0.048738 0
M  V30 8442 H 791.813 3.53241 -1.70187 0
M  V30 8443 H 793.303 4.08253 -0.878576 0
M  V30 8444 N 793.74 1.17359 1.05189 0
M  V30 8445 C 795.156 0.920861 1.30355 0
M  V30 8446 C 795.356 -0.419993 1.97074 0
M  V30 8447 O 794.412 -1.15696 2.24434 0
M  V30 8448 C 795.725 2.07818 2.1733 0
M  V30 8449 C 797.273 2.1152 2.30712 0
M  V30 8450 C 797.748 3.26637 3.21048 0
M  V30 8451 N 799.239 3.26426 3.28634 0
M  V30 8452 C 799.974 4.12141 3.98657 0
M  V30 8453 N 799.47 5.07966 4.71107 0
M  V30 8454 N 801.263 4.00091 3.94821 0
M  V30 8455 H 793.414 2.03666 0.602821 0
M  V30 8456 H 795.677 0.889294 0.328421 0
M  V30 8457 H 795.383 3.04727 1.75597 0
M  V30 8458 H 795.257 2.02922 3.17966 0
M  V30 8459 H 797.644 1.15196 2.71687 0
M  V30 8460 H 797.725 2.20477 1.29706 0
M  V30 8461 H 797.369 4.23227 2.80788 0
M  V30 8462 H 797.299 3.14917 4.2206 0
M  V30 8463 H 799.79 2.57045 2.77013 0
M  V30 8464 H 800.103 5.69766 5.22099 0
M  V30 8465 H 798.448 5.11936 4.7005 0
M  V30 8466 H 801.639 3.24523 3.37346 0
M  V30 8467 H 801.812 4.6711 4.49123 0
M  V30 8468 N 795.218 -1.23913 0.973828 0
M  V30 8469 C 796.148 -2.27453 0.527969 0
M  V30 8470 C 797.129 -1.6443 -0.435513 0
M  V30 8471 O 798.314 -1.9137 -0.330306 0
M  V30 8472 C 795.444 -3.4685 -0.176757 0
M  V30 8473 C 794.398 -4.22181 0.703352 0
M  V30 8474 C 793.724 -5.34534 -0.133215 0
M  V30 8475 C 795.024 -4.82865 1.99096 0
M  V30 8476 H 796.718 -2.65 1.3934 0
M  V30 8477 H 794.264 -1.27388 0.671446 0
M  V30 8478 H 796.217 -4.18424 -0.499934 0
M  V30 8479 H 794.941 -3.08346 -1.07659 0
M  V30 8480 H 793.6 -3.52416 1.00989 0
M  V30 8481 H 793.248 -4.92271 -1.03338 0
M  V30 8482 H 792.948 -5.85855 0.452494 0
M  V30 8483 H 794.472 -6.08933 -0.450924 0
M  V30 8484 H 795.886 -5.46481 1.73297 0
M  V30 8485 H 794.283 -5.44444 2.52389 0
M  V30 8486 H 795.353 -4.03977 2.68199 0
M  V30 8487 N 796.696 -0.74468 -1.38897 0
M  V30 8488 C 797.626 -0.126355 -2.33158 0
M  V30 8489 C 798.607 0.713517 -1.54412 0
M  V30 8490 O 799.792 0.656523 -1.82766 0
M  V30 8491 C 796.922 0.774375 -3.38557 0
M  V30 8492 C 795.876 0.0379214 -4.27983 0
M  V30 8493 C 795.202 1.05631 -5.24162 0
M  V30 8494 C 796.502 -1.12523 -5.10035 0
M  V30 8495 H 798.196 -0.913744 -2.85116 0
M  V30 8496 H 795.742 -0.440847 -1.37086 0
M  V30 8497 H 797.695 1.21655 -4.03458 0
M  V30 8498 H 796.419 1.59399 -2.85061 0
M  V30 8499 H 795.078 -0.384733 -3.64576 0
M  V30 8500 H 794.726 1.86975 -4.66958 0
M  V30 8501 H 794.426 0.568261 -5.84846 0
M  V30 8502 H 795.95 1.49799 -5.9194 0
M  V30 8503 H 797.364 -0.761037 -5.68226 0
M  V30 8504 H 795.761 -1.54355 -5.79909 0
M  V30 8505 H 796.831 -1.94237 -4.44297 0
M  V30 8506 N 798.174 1.49689 -0.493057 0
M  V30 8507 C 799.104 2.31826 0.279073 0
M  V30 8508 C 800.085 1.39733 0.969987 0
M  V30 8509 O 801.27 1.68646 0.962925 0
M  V30 8510 C 798.4 3.20046 1.34862 0
M  V30 8511 C 797.354 4.20869 0.77805 0
M  V30 8512 C 796.68 4.97971 1.94753 0
M  V30 8513 C 797.98 5.21813 -0.225543 0
M  V30 8514 H 799.674 2.96627 -0.406512 0
M  V30 8515 H 797.22 1.42647 -0.196943 0
M  V30 8516 H 799.173 3.76315 1.89645 0
M  V30 8517 H 797.897 2.53172 2.06328 0
M  V30 8518 H 796.556 3.65733 0.252036 0
M  V30 8519 H 796.204 4.27552 2.64969 0
M  V30 8520 H 795.904 5.66186 1.57187 0
M  V30 8521 H 797.428 5.57082 2.49984 0
M  V30 8522 H 798.842 5.72823 0.233864 0
M  V30 8523 H 797.239 5.97872 -0.516622 0
M  V30 8524 H 798.309 4.71209 -1.14412 0
M  V30 8525 N 799.652 0.226554 1.55963 0
M  V30 8526 C 800.877 -0.411527 2.03276 0
M  V30 8527 C 801.302 -1.52206 1.10521 0
M  V30 8528 O 800.66 -1.81054 0.0943217 0
M  V30 8529 C 800.708 -0.915694 3.4878 0
M  V30 8530 O 799.812 -2.02672 3.59163 0
M  V30 8531 H 799.153 -0.0924907 0.657527 0
M  V30 8532 H 801.683 0.346656 2.01642 0
M  V30 8533 H 801.693 -1.22421 3.892 0
M  V30 8534 H 800.368 -0.102915 4.15773 0
M  V30 8535 H 798.945 -1.72445 3.30632 0
M  V30 8536 N 801.13 -1.57531 -0.0467866 0
M  V30 8537 C 802.378 -1.88078 -0.739656 0
M  V30 8538 C 802.699 -0.821936 -1.76831 0
M  V30 8539 O 801.969 0.146582 -1.95351 0
M  V30 8540 H 800.549 -0.694075 -0.276169 0
M  V30 8541 H 803.211 -1.94893 -0.0169391 0
M  V30 8542 H 802.307 -2.86396 -1.24031 0
M  V30 8543 N 802.608 0.318715 -1.54344 0
M  V30 8544 C 803.857 1.05363 -1.71993 0
M  V30 8545 C 804.17 1.89018 -0.503155 0
M  V30 8546 O 805.376 2.65639 -0.561085 0
M  V30 8547 C 803.832 1.92281 -3.0423 0
M  V30 8548 C 803.44 1.13715 -4.33328 0
M  V30 8549 C 805.184 2.65479 -3.31242 0
M  V30 8550 C 803.091 1.99806 -5.56625 0
M  V30 8551 H 802.021 0.397081 -0.64097 0
M  V30 8552 H 804.672 0.311598 -1.80835 0
M  V30 8553 H 803.054 2.70402 -2.89307 0
M  V30 8554 H 804.228 0.403305 -4.59032 0
M  V30 8555 H 802.543 0.521769 -4.13118 0
M  V30 8556 H 805.14 3.30209 -4.20555 0
M  V30 8557 H 805.483 3.33374 -2.49334 0
M  V30 8558 H 806.016 1.94417 -3.47054 0
M  V30 8559 H 802.755 1.36411 -6.41149 0
M  V30 8560 H 802.275 2.70911 -5.35133 0
M  V30 8561 H 803.954 2.58277 -5.93213 0
M  V30 8562 N 804.086 1.46499 0.581025 0
M  V30 8563 C 805.332 1.52121 1.34116 0
M  V30 8564 C 805.665 0.173031 1.93428 0
M  V30 8565 O 804.94 -0.815729 1.76568 0
M  V30 8566 C 805.223 2.62108 2.46924 0
M  V30 8567 C 805.076 4.06462 1.92636 0
M  V30 8568 C 806.395 2.68167 3.48962 0
M  V30 8569 H 803.514 0.5538 0.486287 0
M  V30 8570 H 806.156 1.78443 0.652538 0
M  V30 8571 H 804.306 2.39794 3.05665 0
M  V30 8572 H 805.978 4.40068 1.3834 0
M  V30 8573 H 804.221 4.15862 1.23455 0
M  V30 8574 H 804.892 4.79152 2.74076 0
M  V30 8575 H 807.368 2.8823 3.00104 0
M  V30 8576 H 806.244 3.46942 4.2535 0
M  V30 8577 H 806.505 1.74284 4.06297 0
M  V30 8578 N 805.565 -0.825799 1.34232 0
M  V30 8579 C 806.497 -1.94401 1.21413 0
M  V30 8580 C 807.51 -1.6218 0.141902 0
M  V30 8581 O 808.699 -1.74109 0.3935 0
M  V30 8582 C 805.799 -3.28257 0.842635 0
M  V30 8583 C 804.972 -3.88521 2.00924 0
M  V30 8584 C 804.031 -5.00752 1.61661 0
M  V30 8585 O 803.057 -5.19201 2.33279 0
M  V30 8586 N 804.259 -5.78084 0.52911 0
M  V30 8587 H 807.024 -2.05931 2.17744 0
M  V30 8588 H 804.585 -1.00223 1.27149 0
M  V30 8589 H 806.577 -4.00781 0.561822 0
M  V30 8590 H 805.147 -3.12585 -0.0304029 0
M  V30 8591 H 804.367 -3.08425 2.45495 0
M  V30 8592 H 805.655 -4.25516 2.78951 0
M  V30 8593 H 805.053 -5.65661 -0.0663322 0
M  V30 8594 H 803.61 -6.51072 0.308017 0
M  V30 8595 N 807.043 -1.17915 -1.04565 0
M  V30 8596 C 807.975 -0.859359 -2.1248 0
M  V30 8597 C 808.988 0.140922 -1.62189 0
M  V30 8598 O 810.177 -0.0862361 -1.78292 0
M  V30 8599 C 807.277 -0.261811 -3.37887 0
M  V30 8600 C 806.45 -1.30651 -4.17431 0
M  V30 8601 C 805.509 -0.725575 -5.21174 0
M  V30 8602 O 804.535 -1.39901 -5.51739 0
M  V30 8603 N 805.737 0.479351 -5.78517 0
M  V30 8604 H 808.502 -1.78818 -2.40508 0
M  V30 8605 H 806.063 -1.07885 -1.20716 0
M  V30 8606 H 808.055 0.14028 -4.04457 0
M  V30 8607 H 806.625 0.570929 -3.07342 0
M  V30 8608 H 805.845 -1.88412 -3.46258 0
M  V30 8609 H 807.133 -2.01099 -4.67372 0
M  V30 8610 H 806.531 1.04431 -5.55977 0
M  V30 8611 H 805.088 0.823427 -6.46578 0
M  V30 8612 N 808.521 1.23394 -0.980386 0
M  V30 8613 C 809.453 2.24146 -0.478657 0
M  V30 8614 C 810.466 1.57303 0.419492 0
M  V30 8615 O 811.655 1.77094 0.223631 0
M  V30 8616 C 808.755 3.3732 0.326913 0
M  V30 8617 C 807.928 4.33744 -0.56436 0
M  V30 8618 C 806.987 5.25866 0.187358 0
M  V30 8619 O 806.013 5.67626 -0.423019 0
M  V30 8620 N 807.215 5.61492 1.47335 0
M  V30 8621 H 809.98 2.67826 -1.34496 0
M  V30 8622 H 807.541 1.37566 -0.853653 0
M  V30 8623 H 809.533 3.95926 0.838148 0
M  V30 8624 H 808.103 2.92823 1.09422 0
M  V30 8625 H 807.323 3.73641 -1.25642 0
M  V30 8626 H 808.611 4.95123 -1.17177 0
M  V30 8627 H 808.009 5.29514 1.99077 0
M  V30 8628 H 806.566 6.2257 1.93002 0
M  V30 8629 N 809.999 0.752036 1.385 0
M  V30 8630 C 810.947 0.112634 2.32327 0
M  V30 8631 C 811.941 -0.707037 1.53939 0
M  V30 8632 O 813.147 -0.606309 1.69481 0
M  V30 8633 H 809.522 0.0176275 0.751793 0
M  V30 8634 H 811.493 0.920074 2.83861 0
M  V30 8635 C 810.242 -0.767458 3.39124 0
M  V30 8636 H 809.565 -0.146122 3.99533 0
M  V30 8637 H 811.005 -1.18216 4.07187 0
M  V30 8638 C 809.464 -1.90938 2.77568 0
M  V30 8639 O 809.994 -3.00342 2.66754 0
M  V30 8640 N 808.2 -1.70396 2.35401 0
M  V30 8641 H 807.747 -0.81413 2.44397 0
M  V30 8642 H 807.705 -2.46972 1.94557 0
M  V30 8643 N 811.477 -1.49425 0.500989 0
M  V30 8644 C 812.425 -2.30771 -0.291149 0
M  V30 8645 C 813.419 -1.3938 -0.962787 0
M  V30 8646 O 814.625 -1.56431 -0.890477 0
M  V30 8647 H 811 -0.743499 -0.11275 0
M  V30 8648 H 812.971 -2.95501 0.414917 0
M  V30 8649 C 811.72 -3.20725 -1.34279 0
M  V30 8650 H 811.043 -3.90975 -0.83538 0
M  V30 8651 H 812.483 -3.80583 -1.86903 0
M  V30 8652 C 810.942 -2.40334 -2.36095 0
M  V30 8653 O 811.472 -2.10749 -3.41976 0
M  V30 8654 N 809.678 -2.02359 -2.08565 0
M  V30 8655 H 809.225 -2.26619 -1.22482 0
M  V30 8656 H 809.183 -1.48878 -2.76916 0
M  V30 8657 N 812.955 -0.234822 -1.55841 0
M  V30 8658 C 813.885 0.664217 -2.23854 0
M  V30 8659 C 814.866 1.19076 -1.2147 0
M  V30 8660 O 816.051 1.23232 -1.50091 0
M  V30 8661 C 813.181 1.86666 -2.9287 0
M  V30 8662 C 812.135 1.47341 -4.01839 0
M  V30 8663 C 811.461 2.75571 -4.58219 0
M  V30 8664 C 812.761 0.653479 -5.18196 0
M  V30 8665 H 814.455 0.0971213 -2.99242 0
M  V30 8666 H 812.001 0.0452724 -1.43929 0
M  V30 8667 H 813.954 2.50116 -3.39146 0
M  V30 8668 H 812.678 2.45894 -2.1495 0
M  V30 8669 H 811.337 0.862314 -3.56314 0
M  V30 8670 H 810.985 3.32971 -3.77014 0
M  V30 8671 H 810.685 2.49987 -5.31771 0
M  V30 8672 H 812.209 3.39939 -5.07221 0
M  V30 8673 H 813.623 1.19198 -5.60771 0
M  V30 8674 H 812.02 0.494188 -5.98062 0
M  V30 8675 H 813.09 -0.337004 -4.83728 0
M  V30 8676 N 814.433 1.57553 0.0384317 0
M  V30 8677 C 815.363 2.0898 1.04161 0
M  V30 8678 C 816.344 0.99029 1.38301 0
M  V30 8679 O 817.529 1.26499 1.47349 0
M  V30 8680 C 814.659 2.56145 2.34536 0
M  V30 8681 C 813.613 3.70275 2.14663 0
M  V30 8682 C 812.939 4.03612 3.50715 0
M  V30 8683 C 814.239 4.99067 1.54045 0
M  V30 8684 H 815.933 2.93046 0.613548 0
M  V30 8685 H 813.479 1.40973 0.293684 0
M  V30 8686 H 815.432 2.90741 3.05037 0
M  V30 8687 H 814.156 1.6915 2.79385 0
M  V30 8688 H 812.815 3.36013 1.46597 0
M  V30 8689 H 812.463 3.13698 3.93195 0
M  V30 8690 H 812.163 4.80482 3.38247 0
M  V30 8691 H 813.687 4.40735 4.22593 0
M  V30 8692 H 815.101 5.3168 2.14451 0
M  V30 8693 H 813.498 5.80484 1.52178 0
M  V30 8694 H 814.568 4.8226 0.505259 0
M  V30 8695 N 815.911 -0.310526 1.54511 0
M  V30 8696 C 816.844 -1.40693 1.79668 0
M  V30 8697 C 817.822 -1.49159 0.64734 0
M  V30 8698 O 819.006 -1.66367 0.886239 0
M  V30 8699 C 816.133 -2.78685 1.92491 0
M  V30 8700 C 815.179 -2.87688 3.14861 0
M  V30 8701 S 816.012 -2.50759 4.7316 0
M  V30 8702 C 817.168 -3.90797 4.88906 0
M  V30 8703 H 817.401 -1.19142 2.72383 0
M  V30 8704 H 814.934 -0.508103 1.458 0
M  V30 8705 H 816.892 -3.58168 2.00563 0
M  V30 8706 H 815.553 -2.9751 1.00731 0
M  V30 8707 H 814.746 -3.8888 3.20607 0
M  V30 8708 H 814.348 -2.16189 3.05186 0
M  V30 8709 H 816.64 -4.85693 4.72344 0
M  V30 8710 H 817.583 -3.90027 5.91003 0
M  V30 8711 H 817.991 -3.80357 4.1712 0
M  V30 8712 N 817.389 -1.46805 -0.573248 0
M  V30 8713 C 818.352 -1.57655 -1.66366 0
M  V30 8714 C 819.352 -0.452905 -1.5429 0
M  V30 8715 O 820.542 -0.717502 -1.58737 0
M  V30 8716 C 817.674 -1.50584 -3.05839 0
M  V30 8717 H 818.867 -2.54842 -1.581 0
M  V30 8718 H 816.42 -1.34756 -0.791868 0
M  V30 8719 H 817.155 -0.547127 -3.19651 0
M  V30 8720 H 816.94 -2.32118 -3.16012 0
M  V30 8721 H 818.43 -1.61282 -3.85199 0
M  V30 8722 N 818.867 0.818669 -1.34668 0
M  V30 8723 C 820.116 1.57017 -1.26604 0
M  V30 8724 C 820.429 1.94936 0.161036 0
M  V30 8725 O 821.635 2.69051 0.36386 0
M  V30 8726 C 820.091 2.83305 -2.2196 0
M  V30 8727 C 819.699 2.52671 -3.69948 0
M  V30 8728 C 821.443 3.61324 -2.22813 0
M  V30 8729 C 819.35 3.75178 -4.5716 0
M  V30 8730 H 818.28 0.589323 -0.470335 0
M  V30 8731 H 820.931 0.900956 -1.59859 0
M  V30 8732 H 819.313 3.51874 -1.81661 0
M  V30 8733 H 820.487 1.92186 -4.18809 0
M  V30 8734 H 818.802 1.8792 -3.71584 0
M  V30 8735 H 821.399 4.52294 -2.85192 0
M  V30 8736 H 821.742 3.97759 -1.22857 0
M  V30 8737 H 822.275 2.99703 -2.61578 0
M  V30 8738 H 819.014 3.43861 -5.58068 0
M  V30 8739 H 818.534 4.34931 -4.13031 0
M  V30 8740 H 820.213 4.42542 -4.71981 0
M  V30 8741 N 820.346 1.18468 1.03938 0
M  V30 8742 C 821.256 0.927889 2.1547 0
M  V30 8743 C 822.272 -0.108447 1.73662 0
M  V30 8744 O 823.448 0.0737636 2.01265 0
M  V30 8745 C 820.513 0.458494 3.43655 0
M  V30 8746 C 819.574 1.56295 3.99838 0
M  V30 8747 C 818.807 1.11586 5.21904 0
M  V30 8748 O 819.03 -0.0249057 5.70395 0
M  V30 8749 O 817.964 1.91412 5.70653 0
M  V30 8750 H 821.79 1.86116 2.39989 0
M  V30 8751 H 819.375 0.966607 1.13917 0
M  V30 8752 H 821.257 0.204861 4.20902 0
M  V30 8753 H 819.932 -0.446464 3.20606 0
M  V30 8754 H 818.839 1.87061 3.23974 0
M  V30 8755 H 820.172 2.44408 4.2723 0
M  V30 8756 N 821.824 -1.22873 0.986916 0
M  V30 8757 C 822.787 -2.2281 0.537442 0
M  V30 8758 C 823.787 -1.56331 -0.37646 0
M  V30 8759 O 824.977 -1.73376 -0.169247 0
M  V30 8760 C 822.109 -3.40195 -0.219082 0
M  V30 8761 H 823.302 -2.64089 1.42116 0
M  V30 8762 H 820.855 -1.35819 0.773488 0
M  V30 8763 H 821.59 -3.04381 -1.11905 0
M  V30 8764 H 821.375 -3.89657 0.437026 0
M  V30 8765 H 822.865 -4.14326 -0.521926 0
M  V30 8766 N 823.302 -0.75937 -1.38099 0
M  V30 8767 C 824.234 -0.0956547 -2.29 0
M  V30 8768 C 825.247 0.677561 -1.4803 0
M  V30 8769 O 826.436 0.517696 -1.70828 0
M  V30 8770 C 823.536 0.88844 -3.27047 0
M  V30 8771 C 822.709 0.171652 -4.37063 0
M  V30 8772 C 821.768 1.06733 -5.15262 0
M  V30 8773 O 820.794 0.535698 -5.66674 0
M  V30 8774 N 821.996 2.39486 -5.28797 0
M  V30 8775 H 824.761 -0.876354 -2.86601 0
M  V30 8776 H 822.322 -0.61065 -1.49942 0
M  V30 8777 H 824.314 1.49079 -3.76241 0
M  V30 8778 H 822.884 1.57018 -2.70304 0
M  V30 8779 H 822.104 -0.611473 -3.89429 0
M  V30 8780 H 823.392 -0.324121 -5.07767 0
M  V30 8781 H 822.79 2.85127 -4.88589 0
M  V30 8782 H 821.347 2.94758 -5.81344 0
M  V30 8783 N 824.78 1.49157 -0.508906 0
M  V30 8784 C 825.712 2.272 0.302115 0
M  V30 8785 C 826.725 1.3407 0.923529 0
M  V30 8786 O 827.914 1.5929 0.805532 0
M  V30 8787 C 825.014 3.06736 1.44105 0
M  V30 8788 C 824.187 4.27497 0.925477 0
M  V30 8789 C 823.246 4.89014 1.94297 0
M  V30 8790 O 822.272 5.48851 1.50834 0
M  V30 8791 N 823.474 4.7937 3.2739 0
M  V30 8792 H 826.239 2.97443 -0.367115 0
M  V30 8793 H 823.8 1.58248 -0.341933 0
M  V30 8794 H 825.792 3.44763 2.11944 0
M  V30 8795 H 824.362 2.3905 2.0143 0
M  V30 8796 H 823.582 3.94135 0.0717301 0
M  V30 8797 H 824.87 5.05714 0.55955 0
M  V30 8798 H 824.268 4.31869 3.65384 0
M  V30 8799 H 822.825 5.21559 3.90922 0
M  V30 8800 N 826.258 0.243083 1.55714 0
M  V30 8801 C 827.208 -0.671915 2.17875 0
M  V30 8802 C 828.192 -1.14199 1.13347 0
M  V30 8803 O 829.384 -1.09239 1.39269 0
M  V30 8804 C 826.513 -1.87027 2.87881 0
M  V30 8805 C 825.599 -1.41888 3.99661 0
M  V30 8806 N 825.99 -0.681465 5.01188 0
M  V30 8807 C 824.288 -1.70447 4.12145 0
M  V30 8808 C 824.989 -0.448285 5.7997 0
M  V30 8809 N 823.965 -1.01137 5.34109 0
M  V30 8810 H 827.767 -0.100321 2.93729 0
M  V30 8811 H 825.281 0.0452371 1.62337 0
M  V30 8812 H 827.278 -2.53674 3.3084 0
M  V30 8813 H 825.938 -2.44613 2.13529 0
M  V30 8814 H 826.949 -0.331959 5.16835 0
M  V30 8815 H 823.626 -2.29198 3.48962 0
M  V30 8816 H 825.016 0.140141 6.71754 0
M  V30 8817 N 827.736 -1.57571 -0.0300757 0
M  V30 8818 C 828.669 -2.01874 -1.06406 0
M  V30 8819 C 829.647 -0.902901 -1.35227 0
M  V30 8820 O 830.831 -1.16865 -1.47901 0
M  V30 8821 C 827.958 -2.39093 -2.39901 0
M  V30 8822 C 827.004 -3.61108 -2.26943 0
M  V30 8823 S 827.837 -5.10287 -1.62382 0
M  V30 8824 C 828.993 -5.50747 -2.97369 0
M  V30 8825 H 829.226 -2.89261 -0.686703 0
M  V30 8826 H 826.759 -1.52523 -0.240017 0
M  V30 8827 H 828.717 -2.61207 -3.16672 0
M  V30 8828 H 827.378 -1.52159 -2.74784 0
M  V30 8829 H 826.571 -3.84803 -3.25489 0
M  V30 8830 H 826.173 -3.3884 -1.58314 0
M  V30 8831 H 828.465 -5.51369 -3.93698 0
M  V30 8832 H 829.408 -6.51071 -2.78409 0
M  V30 8833 H 829.816 -4.7825 -2.99895 0
M  V30 8834 N 829.214 0.302327 -1.54673 0
M  V30 8835 C 830.144 1.37759 -1.88533 0
M  V30 8836 C 831.125 1.52961 -0.744113 0
M  V30 8837 O 832.31 1.6649 -0.999731 0
M  V30 8838 C 829.44 2.74201 -2.13146 0
M  V30 8839 C 828.394 2.73765 -3.28993 0
M  V30 8840 C 827.72 4.13483 -3.39022 0
M  V30 8841 C 829.02 2.35624 -4.66132 0
M  V30 8842 H 830.714 1.0967 -2.78591 0
M  V30 8843 H 828.26 0.52613 -1.34044 0
M  V30 8844 H 830.213 3.49508 -2.35419 0
M  V30 8845 H 828.937 3.03812 -1.19858 0
M  V30 8846 H 827.596 2.00914 -3.06642 0
M  V30 8847 H 827.244 4.40269 -2.43253 0
M  V30 8848 H 826.944 4.14093 -4.16894 0
M  V30 8849 H 828.468 4.90572 -3.63553 0
M  V30 8850 H 829.882 3.00647 -4.88143 0
M  V30 8851 H 828.279 2.47449 -5.46707 0
M  V30 8852 H 829.349 1.30753 -4.66939 0
M  V30 8853 N 830.692 1.47107 0.565454 0
M  V30 8854 C 831.602 1.61591 1.70075 0
M  V30 8855 C 832.618 0.498931 1.66693 0
M  V30 8856 O 833.794 0.765372 1.8629 0
M  V30 8857 C 830.859 1.61887 3.06583 0
M  V30 8858 C 829.92 2.84949 3.21096 0
M  V30 8859 C 829.153 2.85221 4.51093 0
M  V30 8860 O 829.376 1.94959 5.36048 0
M  V30 8861 O 828.31 3.76982 4.69221 0
M  V30 8862 H 832.136 2.57638 1.60799 0
M  V30 8863 H 829.721 1.30097 0.73451 0
M  V30 8864 H 831.603 1.64809 3.87835 0
M  V30 8865 H 830.278 0.69005 3.16259 0
M  V30 8866 H 829.185 2.87575 2.39273 0
M  V30 8867 H 830.518 3.77098 3.1632 0
M  V30 8868 N 832.17 -0.811516 1.35101 0
M  V30 8869 C 833.1 -1.9378 1.30275 0
M  V30 8870 C 834.081 -1.69165 0.178075 0
M  V30 8871 O 835.266 -1.90599 0.372256 0
M  V30 8872 C 832.396 -3.30439 1.06899 0
M  V30 8873 C 831.35 -3.69523 2.15955 0
M  V30 8874 C 830.676 -5.0429 1.77751 0
M  V30 8875 C 831.976 -3.80419 3.57881 0
M  V30 8876 H 833.67 -1.98075 2.24514 0
M  V30 8877 H 831.216 -0.951586 1.08078 0
M  V30 8878 H 833.169 -4.08828 1.02164 0
M  V30 8879 H 831.893 -3.26473 0.0910462 0
M  V30 8880 H 830.552 -2.93416 2.19778 0
M  V30 8881 H 830.2 -4.96823 0.785876 0
M  V30 8882 H 829.9 -5.31411 2.5075 0
M  V30 8883 H 831.424 -5.85125 1.74533 0
M  V30 8884 H 832.838 -4.49051 3.56407 0
M  V30 8885 H 831.235 -4.19005 4.29598 0
M  V30 8886 H 832.305 -2.82105 3.94391 0
M  V30 8887 N 833.648 -1.19017 -1.03309 0
M  V30 8888 C 834.876 -1.01534 -1.80273 0
M  V30 8889 C 835.291 0.43605 -1.83696 0
M  V30 8890 O 834.648 1.30288 -1.27794 0
M  V30 8891 C 834.699 -1.5722 -3.25522 0
M  V30 8892 O 834.42 -2.96677 -3.22358 0
M  V30 8893 C 835.921 -1.4446 -4.19102 0
M  V30 8894 H 833.141 -0.358094 -0.567459 0
M  V30 8895 H 835.685 -1.57738 -1.3015 0
M  V30 8896 H 833.84 -1.05174 -3.7285 0
M  V30 8897 H 834.254 -3.22795 -4.13405 0
M  V30 8898 H 835.728 -1.88209 -5.18923 0
M  V30 8899 H 836.205 -0.394471 -4.37425 0
M  V30 8900 H 836.811 -1.95616 -3.77643 0
M  V30 8901 N 835.127 1.22348 -0.993418 0
M  V30 8902 C 836.373 1.91393 -0.67056 0
M  V30 8903 C 836.706 1.77163 0.795428 0
M  V30 8904 O 835.981 1.14084 1.57528 0
M  V30 8905 C 836.264 3.43589 -1.0779 0
M  V30 8906 C 836.117 3.66867 -2.60248 0
M  V30 8907 C 837.436 4.35545 -0.631527 0
M  V30 8908 H 834.555 0.695057 -0.24508 0
M  V30 8909 H 837.197 1.44213 -1.23703 0
M  V30 8910 H 835.347 3.83903 -0.595902 0
M  V30 8911 H 837.019 3.35954 -3.16121 0
M  V30 8912 H 835.262 3.1113 -3.02293 0
M  V30 8913 H 835.933 4.73457 -2.838 0
M  V30 8914 H 838.409 4.0275 -1.04554 0
M  V30 8915 H 837.285 5.40707 -0.944831 0
M  V30 8916 H 837.546 4.39618 0.467779 0
M  V30 8917 N 836.605 0.766683 1.37694 0
M  V30 8918 C 837.851 0.338201 2.00569 0
M  V30 8919 C 838.206 -1.07196 1.59771 0
M  V30 8920 O 837.499 -1.72622 0.831402 0
M  V30 8921 C 837.693 0.413831 3.54996 0
M  V30 8922 C 837.522 1.8298 4.1079 0
M  V30 8923 C 836.292 2.44932 4.41969 0
M  V30 8924 C 838.49 2.78852 4.32141 0
M  V30 8925 N 836.472 3.78353 4.83448 0
M  V30 8926 C 837.843 3.97063 4.76174 0
M  V30 8927 C 839.898 2.76205 4.14265 0
M  V30 8928 C 838.601 5.13003 5.04203 0
M  V30 8929 C 840.627 3.91314 4.43427 0
M  V30 8930 C 839.989 5.08265 4.87694 0
M  V30 8931 H 836.088 0.170693 0.763143 0
M  V30 8932 H 838.672 0.999435 1.67091 0
M  V30 8933 H 836.843 -0.217198 3.87792 0
M  V30 8934 H 838.575 -0.036222 4.04684 0
M  V30 8935 H 835.33 1.9659 4.3087 0
M  V30 8936 H 835.754 4.46937 5.08504 0
M  V30 8937 H 840.396 1.86962 3.79216 0
M  V30 8938 H 838.114 6.0285 5.38142 0
M  V30 8939 H 841.7 3.906 4.31187 0
M  V30 8940 H 840.58 5.95858 5.09827 0
M  V30 8941 N 838.083 -1.48885 0.516809 0
M  V30 8942 C 839.331 -2.02088 -0.0220166 0
M  V30 8943 C 839.652 -1.39735 -1.36011 0
M  V30 8944 O 838.922 -0.558119 -1.87781 0
M  V30 8945 H 837.502 -0.746917 -0.0111255 0
M  V30 8946 H 840.164 -1.8274 0.677647 0
M  V30 8947 H 839.26 -3.11786 -0.140067 0
M  V30 8948 N 839.561 -0.251338 -1.55583 0
M  V30 8949 C 840.81 0.372681 -1.98227 0
M  V30 8950 C 841.123 1.58743 -1.1428 0
M  V30 8951 O 842.329 2.28289 -1.46957 0
M  V30 8952 C 840.785 0.714439 -3.52738 0
M  V30 8953 C 840.393 -0.479168 -4.4543 0
M  V30 8954 C 842.137 1.3024 -4.04027 0
M  V30 8955 C 840.044 -0.113318 -5.91291 0
M  V30 8956 H 838.974 0.14302 -0.740312 0
M  V30 8957 H 841.625 -0.352253 -1.80087 0
M  V30 8958 H 840.007 1.49762 -3.66589 0
M  V30 8959 H 841.181 -1.25644 -4.4334 0
M  V30 8960 H 839.496 -0.982359 -4.04646 0
M  V30 8961 H 842.093 1.58953 -5.10527 0
M  V30 8962 H 842.436 2.22837 -3.51638 0
M  V30 8963 H 842.969 0.582024 -3.93519 0
M  V30 8964 H 839.708 -1.00654 -6.47726 0
M  V30 8965 H 839.228 0.627666 -5.96507 0
M  V30 8966 H 840.907 0.30293 -6.4629 0
M  V30 8967 N 841.039 1.57585 0.0217189 0
M  V30 8968 C 841.986 2.07036 1.02004 0
M  V30 8969 C 842.956 0.96106 1.35473 0
M  V30 8970 O 844.141 1.23211 1.45684 0
M  V30 8971 C 841.281 2.56056 2.31364 0
M  V30 8972 C 840.394 3.80805 2.03989 0
M  V30 8973 C 839.529 4.18409 3.27272 0
M  V30 8974 C 838.568 5.36055 2.95486 0
M  V30 8975 N 837.705 5.69056 4.11242 0
M  V30 8976 H 842.545 2.92073 0.591396 0
M  V30 8977 H 840.082 1.44403 0.280384 0
M  V30 8978 H 842.04 2.82548 3.06957 0
M  V30 8979 H 840.67 1.73925 2.71937 0
M  V30 8980 H 839.722 3.61354 1.1886 0
M  V30 8981 H 841.034 4.66512 1.76546 0
M  V30 8982 H 840.188 4.46068 4.11228 0
M  V30 8983 H 838.927 3.31369 3.57835 0
M  V30 8984 H 837.932 5.08142 2.09933 0
M  V30 8985 H 839.157 6.24755 2.66193 0
M  V30 8986 H 837.103 4.84974 4.41742 0
M  V30 8987 H 837.02 6.49288 3.87247 0
M  V30 8988 H 838.288 6.01295 4.96049 0
M  V30 8989 N 842.517 -0.29412 1.54831 0
M  V30 8990 C 843.449 -1.38476 1.82639 0
M  V30 8991 C 844.462 -1.46517 0.709694 0
M  V30 8992 O 845.651 -1.48712 0.987269 0
M  V30 8993 C 842.751 -2.76791 1.95551 0
M  V30 8994 C 841.924 -2.91599 3.26019 0
M  V30 8995 C 840.983 -4.10456 3.29261 0
M  V30 8996 O 840.009 -4.02214 4.02756 0
M  V30 8997 N 841.211 -5.21422 2.55145 0
M  V30 8998 H 843.976 -1.14974 2.76769 0
M  V30 8999 H 841.537 -0.484206 1.5449 0
M  V30 9000 H 843.529 -3.5456 1.95113 0
M  V30 9001 H 842.099 -2.93209 1.08384 0
M  V30 9002 H 841.319 -2.00886 3.39173 0
M  V30 9003 H 842.607 -2.98409 4.12104 0
M  V30 9004 H 842.005 -5.31 1.95078 0
M  V30 9005 H 840.562 -5.97501 2.60454 0
M  V30 9006 N 843.995 -1.47404 -0.557645 0
M  V30 9007 C 844.925 -1.62736 -1.67449 0
M  V30 9008 C 845.906 -0.476824 -1.6328 0
M  V30 9009 O 847.091 -0.706108 -1.80908 0
M  V30 9010 C 844.221 -1.641 -3.06086 0
M  V30 9011 C 843.175 -2.78377 -3.25101 0
M  V30 9012 C 842.501 -2.64812 -4.6452 0
M  V30 9013 C 843.801 -4.19971 -3.10518 0
M  V30 9014 H 845.495 -2.56232 -1.54873 0
M  V30 9015 H 843.041 -1.23312 -0.743649 0
M  V30 9016 H 844.994 -1.73417 -3.84063 0
M  V30 9017 H 843.718 -0.671652 -3.19619 0
M  V30 9018 H 842.377 -2.6857 -2.49531 0
M  V30 9019 H 842.025 -1.65906 -4.74852 0
M  V30 9020 H 841.725 -3.41477 -4.78191 0
M  V30 9021 H 843.249 -2.76057 -5.44633 0
M  V30 9022 H 844.663 -4.30757 -3.78313 0
M  V30 9023 H 843.06 -4.97419 -3.35699 0
M  V30 9024 H 844.13 -4.38369 -2.0727 0
M  V30 9025 N 845.473 0.80434 -1.35529 0
M  V30 9026 C 846.405 1.92445 -1.2449 0
M  V30 9027 C 847.418 1.61934 -0.167685 0
M  V30 9028 O 848.607 1.73461 -0.42115 0
M  V30 9029 C 845.707 3.26875 -0.894751 0
M  V30 9030 C 844.88 3.85275 -2.07079 0
M  V30 9031 C 843.939 4.98116 -1.69607 0
M  V30 9032 O 842.965 5.15424 -2.41509 0
M  V30 9033 N 844.167 5.77169 -0.621012 0
M  V30 9034 H 846.932 2.02441 -2.20993 0
M  V30 9035 H 844.493 0.981874 -1.28728 0
M  V30 9036 H 846.485 3.99837 -0.625511 0
M  V30 9037 H 845.055 3.12594 -0.0193306 0
M  V30 9038 H 844.275 3.0448 -2.5037 0
M  V30 9039 H 845.563 4.21024 -2.85685 0
M  V30 9040 H 844.961 5.65695 -0.0236679 0
M  V30 9041 H 843.518 6.50499 -0.411558 0
M  V30 9042 N 846.951 1.19563 1.02676 0
M  V30 9043 C 847.914 0.937182 2.09164 0
M  V30 9044 C 848.914 -0.0831927 1.60585 0
M  V30 9045 O 850.104 0.15178 1.73538 0
M  V30 9046 C 847.236 0.408912 3.38439 0
M  V30 9047 H 848.429 1.88164 2.33526 0
M  V30 9048 H 845.982 1.00959 1.19319 0
M  V30 9049 H 846.717 -0.541497 3.19747 0
M  V30 9050 H 846.502 1.14464 3.7502 0
M  V30 9051 H 847.992 0.247242 4.16867 0
M  V30 9052 N 848.429 -1.21819 0.999893 0
M  V30 9053 C 849.845 -1.42847 0.711824 0
M  V30 9054 C 850.045 -1.88391 -0.714928 0
M  V30 9055 O 849.101 -2.0422 -1.48494 0
M  V30 9056 C 850.414 -2.46417 1.72334 0
M  V30 9057 C 851.962 -2.60207 1.73958 0
M  V30 9058 C 852.437 -3.67005 2.73992 0
M  V30 9059 N 853.928 -3.7447 2.72628 0
M  V30 9060 C 854.663 -4.56718 3.46693 0
M  V30 9061 N 854.159 -5.42904 4.3038 0
M  V30 9062 N 855.952 -4.51094 3.35366 0
M  V30 9063 H 848.103 -0.905656 1.92124 0
M  V30 9064 H 850.366 -0.459893 0.828977 0
M  V30 9065 H 850.072 -2.19914 2.74465 0
M  V30 9066 H 849.946 -3.45137 1.52186 0
M  V30 9067 H 852.333 -2.8605 0.725217 0
M  V30 9068 H 852.414 -1.61739 1.98177 0
M  V30 9069 H 852.058 -3.41908 3.75582 0
M  V30 9070 H 851.988 -4.65058 2.4704 0
M  V30 9071 H 854.479 -3.12895 2.11909 0
M  V30 9072 H 854.792 -6.02704 4.83702 0
M  V30 9073 H 853.137 -5.42463 4.34464 0
M  V30 9074 H 856.328 -3.82791 2.69423 0
M  V30 9075 H 856.501 -5.1496 3.93344 0
M  V30 9076 N 849.908 -0.773975 -1.37286 0
M  V30 9077 C 851.154 -0.339809 -1.99933 0
M  V30 9078 C 851.487 1.0815 -1.61299 0
M  V30 9079 O 850.762 1.74442 -0.860252 0
M  V30 9080 C 851.045 -0.485919 -3.56806 0
M  V30 9081 C 850.898 -1.9498 -4.05343 0
M  V30 9082 C 852.217 0.108461 -4.39966 0
M  V30 9083 H 849.336 -0.124944 -0.726332 0
M  V30 9084 H 851.978 -0.977433 -1.6293 0
M  V30 9085 H 850.128 0.0569023 -3.88458 0
M  V30 9086 H 851.8 -2.5525 -3.84246 0
M  V30 9087 H 850.043 -2.45784 -3.57453 0
M  V30 9088 H 850.714 -2.00308 -5.14374 0
M  V30 9089 H 853.19 -0.354722 -4.14585 0
M  V30 9090 H 852.066 -0.0238926 -5.48895 0
M  V30 9091 H 852.327 1.19901 -4.25531 0
M  V30 9092 N 851.386 1.48609 -0.524698 0
M  V30 9093 C 852.316 2.32366 0.229837 0
M  V30 9094 C 853.297 1.41759 0.940129 0
M  V30 9095 O 854.482 1.7065 0.926936 0
M  V30 9096 C 851.612 3.22835 1.28043 0
M  V30 9097 C 850.566 4.22424 0.688603 0
M  V30 9098 C 849.892 5.0199 1.84146 0
M  V30 9099 C 851.192 5.21217 -0.336176 0
M  V30 9100 H 852.886 2.95698 -0.469339 0
M  V30 9101 H 850.432 1.42197 -0.227156 0
M  V30 9102 H 852.385 3.80253 1.8162 0
M  V30 9103 H 851.109 2.57492 2.00912 0
M  V30 9104 H 849.768 3.66185 0.174402 0
M  V30 9105 H 849.416 4.33076 2.5584 0
M  V30 9106 H 849.116 5.69392 1.45142 0
M  V30 9107 H 850.64 5.62259 2.38111 0
M  V30 9108 H 852.054 5.7319 0.112307 0
M  V30 9109 H 850.451 5.96642 -0.643324 0
M  V30 9110 H 851.521 4.68676 -1.24381 0
M  V30 9111 N 852.864 0.259585 1.55447 0
M  V30 9112 C 853.827 -0.621359 2.20617 0
M  V30 9113 C 854.827 -1.09317 1.17925 0
M  V30 9114 O 856.017 -0.995842 1.42929 0
M  V30 9115 C 853.149 -1.85546 2.85982 0
M  V30 9116 H 854.342 -0.0525833 2.99854 0
M  V30 9117 H 851.895 0.0101055 1.56297 0
M  V30 9118 H 852.63 -2.46515 2.10715 0
M  V30 9119 H 852.415 -1.52523 3.61219 0
M  V30 9120 H 853.905 -2.48227 3.35817 0
M  V30 9121 N 854.342 -1.57594 -0.0133615 0
M  V30 9122 C 855.588 -1.90262 -0.702019 0
M  V30 9123 C 855.921 -0.859219 -1.74158 0
M  V30 9124 O 855.196 0.123778 -1.94106 0
M  V30 9125 C 855.479 -3.3354 -1.35732 0
M  V30 9126 C 855.332 -4.48586 -0.330208 0
M  V30 9127 C 856.651 -3.76004 -2.28712 0
M  V30 9128 H 853.77 -0.691943 -0.253739 0
M  V30 9129 H 856.412 -1.89967 0.0351894 0
M  V30 9130 H 854.562 -3.33921 -1.98567 0
M  V30 9131 H 856.234 -4.6034 0.297433 0
M  V30 9132 H 854.477 -4.32394 0.348926 0
M  V30 9133 H 855.148 -5.45762 -0.827508 0
M  V30 9134 H 857.624 -3.77089 -1.75906 0
M  V30 9135 H 856.5 -4.77032 -2.71535 0
M  V30 9136 H 856.761 -3.09129 -3.16056 0
M  V30 9137 N 855.82 0.285905 -1.54985 0
M  V30 9138 C 856.73 1.37534 -1.90057 0
M  V30 9139 C 857.746 1.54707 -0.796348 0
M  V30 9140 O 858.922 1.69082 -1.09423 0
M  V30 9141 C 855.987 2.7167 -2.15398 0
M  V30 9142 C 855.048 2.63354 -3.39033 0
M  V30 9143 C 854.281 3.91093 -3.63155 0
M  V30 9144 O 854.504 4.91169 -2.90015 0
M  V30 9145 O 853.438 3.92075 -4.56685 0
M  V30 9146 H 857.264 1.10791 -2.8277 0
M  V30 9147 H 854.849 0.483303 -1.41367 0
M  V30 9148 H 856.731 3.51006 -2.33179 0
M  V30 9149 H 855.406 2.98226 -1.25868 0
M  V30 9150 H 854.313 1.82438 -3.26599 0
M  V30 9151 H 855.646 2.41749 -4.2874 0
M  V30 9152 N 857.298 1.47698 0.54982 0
M  V30 9153 C 858.714 1.3338 0.876468 0
M  V30 9154 C 858.914 0.329837 1.98782 0
M  V30 9155 O 857.97 -0.256022 2.51199 0
M  V30 9156 C 859.283 2.72903 1.26272 0
M  V30 9157 C 860.831 2.81243 1.37373 0
M  V30 9158 C 861.306 4.21423 1.79351 0
M  V30 9159 N 862.797 4.24 1.86489 0
M  V30 9160 C 863.532 5.29386 2.20313 0
M  V30 9161 N 863.028 6.4507 2.527 0
M  V30 9162 N 864.821 5.16768 2.2115 0
M  V30 9163 H 856.972 2.11603 -0.183781 0
M  V30 9164 H 859.235 0.947798 -0.0195601 0
M  V30 9165 H 858.941 3.47836 0.519889 0
M  V30 9166 H 858.815 3.05151 2.21727 0
M  V30 9167 H 861.202 2.06577 2.10737 0
M  V30 9168 H 861.283 2.52639 0.400882 0
M  V30 9169 H 860.927 4.96597 1.06555 0
M  V30 9170 H 860.857 4.47456 2.77652 0
M  V30 9171 H 863.348 3.40547 1.63817 0
M  V30 9172 H 863.661 7.21236 2.77557 0
M  V30 9173 H 862.006 6.48377 2.50263 0
M  V30 9174 H 865.197 4.25416 1.95293 0
M  V30 9175 H 865.37 5.99004 2.4718 0
M  V30 9176 N 858.776 -0.797141 1.35954 0
M  V30 9177 C 860.006 -1.5835 1.32698 0
M  V30 9178 C 860.414 -1.88959 -0.0955298 0
M  V30 9179 O 859.757 -1.49987 -1.06064 0
M  V30 9180 C 859.819 -2.93529 2.0756 0
M  V30 9181 C 859.483 -2.85688 3.56695 0
M  V30 9182 C 860.48 -2.58467 4.51099 0
M  V30 9183 C 858.165 -3.04508 3.99475 0
M  V30 9184 C 860.159 -2.50157 5.8626 0
M  V30 9185 C 857.846 -2.9582 5.34728 0
M  V30 9186 C 858.844 -2.68681 6.27933 0
M  V30 9187 O 858.532 -2.59973 7.60703 0
M  V30 9188 H 858.264 -0.49807 0.457059 0
M  V30 9189 H 860.818 -0.997889 1.79531 0
M  V30 9190 H 859.048 -3.54111 1.55378 0
M  V30 9191 H 860.737 -3.54744 1.9726 0
M  V30 9192 H 861.503 -2.43638 4.19363 0
M  V30 9193 H 857.382 -3.24641 3.27306 0
M  V30 9194 H 860.926 -2.28894 6.58979 0
M  V30 9195 H 856.823 -3.10211 5.66074 0
M  V30 9196 H 857.591 -2.75511 7.70737 0
M  V30 9197 N 860.254 -1.20106 -1.0204 0
M  V30 9198 C 861.184 -0.970301 -2.12385 0
M  V30 9199 C 862.165 0.099378 -1.69809 0
M  V30 9200 O 863.35 -0.057365 -1.94115 0
M  V30 9201 C 860.48 -0.517431 -3.43424 0
M  V30 9202 C 859.434 -1.52992 -3.99722 0
M  V30 9203 C 858.76 -0.933817 -5.26483 0
M  V30 9204 C 860.06 -2.91257 -4.33551 0
M  V30 9205 H 861.754 -1.89316 -2.31948 0
M  V30 9206 H 859.3 -0.911655 -1.11467 0
M  V30 9207 H 861.253 -0.343243 -4.2 0
M  V30 9208 H 859.977 0.441049 -3.23608 0
M  V30 9209 H 858.636 -1.6914 -3.2525 0
M  V30 9210 H 858.284 0.0324763 -5.0299 0
M  V30 9211 H 857.984 -1.60999 -5.65113 0
M  V30 9212 H 859.508 -0.770614 -6.05718 0
M  V30 9213 H 860.922 -2.78642 -5.0103 0
M  V30 9214 H 859.319 -3.55745 -4.83286 0
M  V30 9215 H 860.389 -3.43269 -3.42483 0
M  V30 9216 N 861.732 1.21287 -1.00634 0
M  V30 9217 C 862.679 2.23705 -0.567876 0
M  V30 9218 C 863.649 1.61043 0.406753 0
M  V30 9219 O 864.834 1.88289 0.308499 0
M  V30 9220 C 861.974 3.44961 0.097996 0
M  V30 9221 C 861.087 4.22091 -0.919972 0
M  V30 9222 C 860.222 5.30718 -0.226222 0
M  V30 9223 C 859.261 5.99581 -1.23165 0
M  V30 9224 N 858.398 6.99821 -0.565278 0
M  V30 9225 H 863.238 2.60571 -1.44592 0
M  V30 9226 H 860.775 1.28049 -0.724006 0
M  V30 9227 H 862.733 4.1418 0.501097 0
M  V30 9228 H 861.363 3.08818 0.939744 0
M  V30 9229 H 860.415 3.52038 -1.44131 0
M  V30 9230 H 861.727 4.69476 -1.68505 0
M  V30 9231 H 860.881 6.06253 0.232917 0
M  V30 9232 H 859.62 4.84343 0.571247 0
M  V30 9233 H 858.625 5.22816 -1.70128 0
M  V30 9234 H 859.85 6.48042 -2.03022 0
M  V30 9235 H 857.796 6.55656 0.212508 0
M  V30 9236 H 857.713 7.4528 -1.26858 0
M  V30 9237 H 858.981 7.79393 -0.129389 0
M  V30 9238 N 863.21 0.781244 1.36873 0
M  V30 9239 C 864.487 0.274217 1.93668 0
M  V30 9240 C 864.867 -1.2323 1.71399 0
M  V30 9241 O 864.215 -2.01993 1.06822 0
M  V30 9242 C 864.425 0.657939 3.42742 0
M  V30 9243 C 865.773 0.63307 4.19854 0
M  V30 9244 O 866.797 0.597909 3.51146 0
M  V30 9245 O 865.656 0.668636 5.42394 0
M  V30 9246 H 862.75 0.0658059 0.824378 0
M  V30 9247 H 865.296 0.863238 1.46104 0
M  V30 9248 H 864.068 1.69728 3.52573 0
M  V30 9249 H 863.691 0.0423678 3.97577 0
M  V30 9250 N 864.689 -1.48329 0.532571 0
M  V30 9251 C 865.621 -2.27652 -0.265931 0
M  V30 9252 C 866.634 -1.35522 -0.902083 0
M  V30 9253 O 867.823 -1.60552 -0.780088 0
M  V30 9254 C 864.923 -3.0899 -1.39207 0
M  V30 9255 C 864.096 -4.28915 -0.857349 0
M  V30 9256 C 863.155 -4.92044 -1.86493 0
M  V30 9257 O 862.181 -5.51181 -1.42084 0
M  V30 9258 N 863.383 -4.84518 -3.19723 0
M  V30 9259 H 866.148 -2.96821 0.414389 0
M  V30 9260 H 863.709 -1.57684 0.367066 0
M  V30 9261 H 865.701 -3.48091 -2.06433 0
M  V30 9262 H 864.271 -2.42224 -1.97601 0
M  V30 9263 H 863.491 -3.94199 -0.00901765 0
M  V30 9264 H 864.779 -5.0654 -0.479025 0
M  V30 9265 H 864.177 -4.37628 -3.58467 0
M  V30 9266 H 862.734 -5.27712 -3.82575 0
M  V30 9267 N 866.167 -0.267825 -1.55308 0
M  V30 9268 C 867.099 0.65591 -2.19614 0
M  V30 9269 C 868.112 1.12302 -1.17865 0
M  V30 9270 O 869.301 1.04618 -1.44628 0
M  V30 9271 C 866.401 1.90582 -2.80235 0
M  V30 9272 C 865.574 1.58673 -4.07605 0
M  V30 9273 C 864.633 2.68836 -4.52343 0
M  V30 9274 O 863.659 2.35331 -5.18274 0
M  V30 9275 N 864.861 3.98752 -4.21873 0
M  V30 9276 H 867.626 0.105566 -2.99514 0
M  V30 9277 H 865.187 -0.0886263 -1.61657 0
M  V30 9278 H 867.179 2.63561 -3.07112 0
M  V30 9279 H 865.749 2.3654 -2.04371 0
M  V30 9280 H 864.969 0.691113 -3.88094 0
M  V30 9281 H 866.257 1.34845 -4.90606 0
M  V30 9282 H 865.655 4.28797 -3.68985 0
M  V30 9283 H 864.212 4.68131 -4.53537 0
M  V30 9284 N 867.645 1.57599 0.00500368 0
M  V30 9285 C 868.575 2.11143 0.99705 0
M  V30 9286 C 869.556 1.0194 1.3617 0
M  V30 9287 O 870.741 1.29596 1.44632 0
M  V30 9288 C 867.871 2.61062 2.2905 0
M  V30 9289 C 866.825 3.74745 2.0676 0
M  V30 9290 C 866.151 4.10961 3.42075 0
M  V30 9291 C 867.451 5.02222 1.43424 0
M  V30 9292 H 869.145 2.94281 0.551251 0
M  V30 9293 H 866.691 1.41565 0.263715 0
M  V30 9294 H 868.644 2.97146 2.98801 0
M  V30 9295 H 867.368 1.75038 2.75734 0
M  V30 9296 H 866.027 3.39047 1.39436 0
M  V30 9297 H 865.675 3.21968 3.86453 0
M  V30 9298 H 865.375 4.87549 3.27979 0
M  V30 9299 H 866.899 4.49599 4.1315 0
M  V30 9300 H 868.313 5.36109 2.03125 0
M  V30 9301 H 866.71 5.83581 1.39831 0
M  V30 9302 H 867.78 4.83224 0.40285 0
M  V30 9303 N 869.123 -0.277682 1.55134 0
M  V30 9304 C 870.053 -1.34742 1.90701 0
M  V30 9305 C 871.034 -1.51757 0.768354 0
M  V30 9306 O 872.219 -1.64879 1.02609 0
M  V30 9307 C 869.349 -2.70775 2.17481 0
M  V30 9308 C 868.303 -2.68497 3.33307 0
M  V30 9309 C 867.629 -4.08037 3.45557 0
M  V30 9310 C 868.929 -2.28178 4.69821 0
M  V30 9311 H 870.623 -1.05224 2.803 0
M  V30 9312 H 868.169 -0.504738 1.34864 0
M  V30 9313 H 870.122 -3.45719 2.40949 0
M  V30 9314 H 868.846 -3.01867 1.24676 0
M  V30 9315 H 867.505 -1.9601 3.09799 0
M  V30 9316 H 867.153 -4.36344 2.50226 0
M  V30 9317 H 866.853 -4.07409 4.23429 0
M  V30 9318 H 868.377 -4.84726 3.71312 0
M  V30 9319 H 869.791 -2.92843 4.92865 0
M  V30 9320 H 868.188 -2.3872 5.50575 0
M  V30 9321 H 869.258 -1.23308 4.6896 0
M  V30 9322 N 870.601 -1.47988 -0.541979 0
M  V30 9323 C 871.849 -1.55086 -1.29587 0
M  V30 9324 C 872.17 -0.221304 -1.9374 0
M  V30 9325 O 871.44 0.756128 -1.80719 0
M  V30 9326 H 870.02 -0.571307 -0.481266 0
M  V30 9327 H 872.682 -1.8438 -0.631675 0
M  V30 9328 H 871.778 -2.32556 -2.08144 0
M  V30 9329 N 872.079 0.78992 -1.36375 0
M  V30 9330 C 873.328 1.54296 -1.29906 0
M  V30 9331 C 873.641 1.95234 0.119651 0
M  V30 9332 O 874.847 2.69762 0.306708 0
M  V30 9333 C 873.303 2.78533 -2.27919 0
M  V30 9334 C 872.911 2.44767 -3.75224 0
M  V30 9335 C 874.655 3.56516 -2.30427 0
M  V30 9336 C 872.562 3.65397 -4.65015 0
M  V30 9337 H 871.492 0.579214 -0.482729 0
M  V30 9338 H 874.143 0.866845 -1.61735 0
M  V30 9339 H 872.525 3.47941 -1.89084 0
M  V30 9340 H 873.699 1.83259 -4.22792 0
M  V30 9341 H 872.014 1.79996 -3.75487 0
M  V30 9342 H 874.611 4.46143 -2.94722 0
M  V30 9343 H 874.954 3.95063 -1.31266 0
M  V30 9344 H 875.487 2.94087 -2.67876 0
M  V30 9345 H 872.226 3.31946 -5.65236 0
M  V30 9346 H 871.746 4.26072 -4.22164 0
M  V30 9347 H 873.425 4.32431 -4.81261 0
M  V30 9348 N 873.557 1.20646 1.01402 0
M  V30 9349 C 874.803 1.02974 1.75408 0
M  V30 9350 C 875.158 -0.433294 1.87458 0
M  V30 9351 O 874.451 -1.31741 1.39122 0
M  V30 9352 C 874.645 1.64991 3.17037 0
M  V30 9353 C 874.474 3.17174 3.18796 0
M  V30 9354 C 873.244 3.86165 3.2589 0
M  V30 9355 C 875.442 4.14369 3.04636 0
M  V30 9356 N 873.424 5.25614 3.1718 0
M  V30 9357 C 874.795 5.4051 3.03724 0
M  V30 9358 C 876.85 4.05534 2.88872 0
M  V30 9359 C 875.553 6.58836 2.88664 0
M  V30 9360 C 877.579 5.23486 2.75166 0
M  V30 9361 C 876.941 6.48535 2.74922 0
M  V30 9362 H 873.04 0.431068 0.65246 0
M  V30 9363 H 875.624 1.52858 1.20593 0
M  V30 9364 H 873.795 1.17688 3.70141 0
M  V30 9365 H 875.527 1.40612 3.79487 0
M  V30 9366 H 872.282 3.37038 3.32719 0
M  V30 9367 H 872.706 5.98625 3.16192 0
M  V30 9368 H 877.348 3.09661 2.87872 0
M  V30 9369 H 875.066 7.5488 2.88413 0
M  V30 9370 H 878.652 5.18464 2.63982 0
M  V30 9371 H 877.532 7.3827 2.64439 0
M  V30 9372 N 875.035 -1.20752 1.01276 0
M  V30 9373 C 876.283 -1.89645 0.698505 0
M  V30 9374 C 876.604 -1.78986 -0.773883 0
M  V30 9375 O 875.874 -1.18977 -1.55632 0
M  V30 9376 H 874.454 -0.701992 0.255375 0
M  V30 9377 H 877.116 -1.46668 1.28353 0
M  V30 9378 H 876.212 -2.96364 0.978512 0
M  V30 9379 N 876.513 -0.788492 -1.36457 0
M  V30 9380 C 877.753 -0.365855 -2.01099 0
M  V30 9381 C 878.117 1.04262 -1.61225 0
M  V30 9382 O 879.318 1.56628 -2.18451 0
M  V30 9383 C 877.589 -0.523344 -3.53548 0
M  V30 9384 S 879.148 -0.188448 -4.38395 0
M  V30 9385 H 875.966 -0.139832 -0.697114 0
M  V30 9386 H 878.568 -1.02678 -1.66365 0
M  V30 9387 H 877.272 -1.54874 -3.80055 0
M  V30 9388 H 876.803 0.153547 -3.931 0
M  V30 9389 H 878.818 1.0103 -4.85806 0
M  V30 9390 N 877.991 1.48044 -0.54043 0
M  V30 9391 C 879.216 2.07396 -0.0124765 0
M  V30 9392 C 879.641 1.39288 1.26414 0
M  V30 9393 O 878.999 0.462252 1.75308 0
M  V30 9394 C 879.047 3.60131 0.18377 0
M  V30 9395 O 878.151 3.92995 1.25014 0
M  V30 9396 H 877.492 0.662554 -0.0438026 0
M  V30 9397 H 880.022 1.90306 -0.751327 0
M  V30 9398 H 880.032 4.06003 0.403197 0
M  V30 9399 H 878.707 4.09105 -0.74874 0
M  V30 9400 H 877.284 3.5889 1.01254 0
M  V30 9401 N 879.47 0.276058 1.55163 0
M  V30 9402 C 880.718 -0.339782 1.99223 0
M  V30 9403 C 881.039 -1.56307 1.16589 0
M  V30 9404 O 880.309 -1.94225 0.25564 0
M  V30 9405 H 878.889 -0.128534 0.735859 0
M  V30 9406 H 881.551 0.381612 1.91128 0
M  V30 9407 H 880.647 -0.629 3.05696 0
M  V30 9408 N 880.948 -1.576 0.00335426 0
M  V30 9409 C 881.895 -2.08632 -0.986975 0
M  V30 9410 C 882.865 -0.982491 -1.33927 0
M  V30 9411 O 884.05 -1.25513 -1.43705 0
M  V30 9412 C 881.19 -2.59705 -2.27261 0
M  V30 9413 C 880.303 -3.84002 -1.97905 0
M  V30 9414 C 879.438 -4.23563 -3.20574 0
M  V30 9415 C 878.477 -5.40688 -2.8692 0
M  V30 9416 N 877.614 -5.75526 -4.02136 0
M  V30 9417 H 882.454 -2.92977 -0.544855 0
M  V30 9418 H 879.991 -1.44831 -0.257376 0
M  V30 9419 H 881.949 -2.87395 -3.02423 0
M  V30 9420 H 880.579 -1.7823 -2.69136 0
M  V30 9421 H 879.631 -3.63199 -1.13096 0
M  V30 9422 H 880.943 -4.69261 -1.69102 0
M  V30 9423 H 880.097 -4.52554 -4.04079 0
M  V30 9424 H 878.836 -3.37019 -3.52518 0
M  V30 9425 H 877.841 -5.11417 -2.01822 0
M  V30 9426 H 879.066 -6.2891 -2.5622 0
M  V30 9427 H 877.012 -4.9194 -4.33971 0
M  V30 9428 H 876.929 -6.55367 -3.76869 0
M  V30 9429 H 878.197 -6.0911 -4.8642 0
M  V30 9430 N 882.426 0.269451 -1.5528 0
M  V30 9431 C 883.356 1.33729 -1.91413 0
M  V30 9432 C 884.337 1.51348 -0.776391 0
M  V30 9433 O 885.522 1.64332 -1.03482 0
M  V30 9434 C 882.652 2.69618 -2.18914 0
M  V30 9435 C 881.606 2.66725 -3.34726 0
M  V30 9436 C 880.932 4.06199 -3.47716 0
M  V30 9437 C 882.232 2.25684 -4.71025 0
M  V30 9438 H 883.926 1.03736 -2.80854 0
M  V30 9439 H 881.472 0.497579 -1.3513 0
M  V30 9440 H 883.425 3.44436 -2.42779 0
M  V30 9441 H 882.149 3.01201 -1.26275 0
M  V30 9442 H 880.808 1.94365 -3.10834 0
M  V30 9443 H 880.456 4.3501 -2.52537 0
M  V30 9444 H 880.156 4.05157 -4.25583 0
M  V30 9445 H 881.68 4.8275 -3.73877 0
M  V30 9446 H 883.094 2.90225 -4.94411 0
M  V30 9447 H 881.491 2.35797 -5.51833 0
M  V30 9448 H 882.561 1.20819 -4.69607 0
M  V30 9449 N 883.904 1.48273 0.534124 0
M  V30 9450 C 885.153 1.55334 1.28663 0
M  V30 9451 C 885.466 0.230345 1.94239 0
M  V30 9452 O 886.672 0.179161 2.70908 0
M  V30 9453 C 885.128 2.73927 2.33435 0
M  V30 9454 C 884.736 4.12852 1.73947 0
M  V30 9455 C 886.48 2.90298 3.09722 0
M  V30 9456 C 884.387 5.22711 2.76636 0
M  V30 9457 H 883.317 0.578262 0.483869 0
M  V30 9458 H 885.968 1.74598 0.564602 0
M  V30 9459 H 884.35 2.48089 3.08655 0
M  V30 9460 H 885.524 4.48691 1.04944 0
M  V30 9461 H 883.839 4.01562 1.10167 0
M  V30 9462 H 886.436 3.69542 3.86449 0
M  V30 9463 H 886.779 1.99598 3.6533 0
M  V30 9464 H 887.312 3.16017 2.41616 0
M  V30 9465 H 884.051 6.15362 2.25852 0
M  V30 9466 H 883.571 4.91364 3.43979 0
M  V30 9467 H 885.25 5.50648 3.39699 0
M  V30 9468 N 885.382 -0.782676 1.36792 0
M  V30 9469 C 886.622 -1.55396 1.32784 0
M  V30 9470 C 886.986 -1.91789 -0.0900272 0
M  V30 9471 O 888.187 -2.6759 -0.254725 0
M  V30 9472 C 886.458 -2.79227 2.23085 0
M  V30 9473 S 888.017 -3.69404 2.36825 0
M  V30 9474 H 884.835 -0.532139 0.471539 0
M  V30 9475 H 887.437 -0.921285 1.72431 0
M  V30 9476 H 886.141 -2.50553 3.25041 0
M  V30 9477 H 885.672 -3.47462 1.84482 0
M  V30 9478 H 887.687 -4.70683 1.57074 0
M  V30 9479 N 886.86 -1.21182 -1.00761 0
M  V30 9480 C 888.088 -1.05335 -1.78079 0
M  V30 9481 C 888.503 0.396988 -1.84579 0
M  V30 9482 O 887.86 1.27548 -1.30529 0
M  V30 9483 C 887.911 -1.64089 -3.22113 0
M  V30 9484 O 887.632 -3.03448 -3.15992 0
M  V30 9485 C 889.133 -1.53318 -4.15943 0
M  V30 9486 H 886.353 -0.37005 -0.559736 0
M  V30 9487 H 888.897 -1.60463 -1.26775 0
M  V30 9488 H 887.052 -1.13059 -3.70535 0
M  V30 9489 H 887.466 -3.31492 -4.06465 0
M  V30 9490 H 888.94 -1.99174 -5.14814 0
M  V30 9491 H 889.417 -0.487166 -4.3649 0
M  V30 9492 H 890.023 -2.03582 -3.73409 0
M  V30 9493 N 888.338 1.20213 -1.01915 0
M  V30 9494 C 889.566 1.93622 -0.729255 0
M  V30 9495 C 889.981 1.74923 0.710444 0
M  V30 9496 O 889.338 1.06484 1.48214 0
M  V30 9497 C 889.389 3.45651 -1.05865 0
M  V30 9498 O 889.11 3.63741 -2.44181 0
M  V30 9499 C 890.611 4.36201 -0.790176 0
M  V30 9500 H 887.831 0.615333 -0.267594 0
M  V30 9501 H 890.375 1.52633 -1.36101 0
M  V30 9502 H 888.53 3.84511 -0.47225 0
M  V30 9503 H 888.944 4.57702 -2.56143 0
M  V30 9504 H 890.418 5.41516 -1.07071 0
M  V30 9505 H 890.895 4.38334 0.275609 0
M  V30 9506 H 891.501 4.03008 -1.35885 0
M  V30 9507 N 889.816 0.795718 1.36037 0
M  V30 9508 C 890.779 0.204318 2.28287 0
M  V30 9509 C 891.779 -0.602017 1.49105 0
M  V30 9510 O 892.969 -0.422089 1.69009 0
M  V30 9511 C 890.101 -0.716431 3.33287 0
M  V30 9512 H 891.294 1.01781 2.821 0
M  V30 9513 H 888.847 0.565588 1.45708 0
M  V30 9514 H 889.582 -1.55403 2.84641 0
M  V30 9515 H 889.367 -0.140096 3.9185 0
M  V30 9516 H 890.857 -1.12488 4.02164 0
M  V30 9517 N 891.294 -1.47756 0.548274 0
M  V30 9518 C 892.54 -2.02789 0.0209265 0
M  V30 9519 C 892.873 -1.42268 -1.32187 0
M  V30 9520 O 892.148 -0.575001 -1.85806 0
M  V30 9521 C 892.431 -3.60007 -0.0816674 0
M  V30 9522 C 892.284 -4.30977 1.28759 0
M  V30 9523 C 893.603 -4.32777 -0.799515 0
M  V30 9524 H 890.722 -0.736944 0.00907884 0
M  V30 9525 H 893.364 -1.76282 0.708839 0
M  V30 9526 H 891.514 -3.82722 -0.667537 0
M  V30 9527 H 893.186 -4.19629 1.91597 0
M  V30 9528 H 891.429 -3.9168 1.86466 0
M  V30 9529 H 892.1 -5.39488 1.16861 0
M  V30 9530 H 894.576 -4.15001 -0.30216 0
M  V30 9531 H 893.452 -5.42431 -0.840239 0
M  V30 9532 H 893.713 -4.01358 -1.85375 0
M  V30 9533 N 892.772 -0.284283 -1.55015 0
M  V30 9534 C 894.183 0.211681 -1.85496 0
M  V30 9535 C 894.534 1.54735 -1.2063 0
M  V30 9536 O 893.659 2.10594 -0.497918 0
M  V30 9537 C 894.254 0.390864 -3.36538 0
M  V30 9538 C 892.813 0.831055 -3.67111 0
M  V30 9539 C 891.96 -0.0703581 -2.77211 0
M  V30 9540 H 894.911 -0.505803 -1.50424 0
M  V30 9541 H 894.932 1.22803 -3.60138 0
M  V30 9542 H 894.444 -0.581409 -3.8372 0
M  V30 9543 H 892.545 1.81447 -3.25434 0
M  V30 9544 H 892.658 0.662026 -4.74504 0
M  V30 9545 H 891.022 0.447528 -2.50737 0
M  V30 9546 H 891.805 -1.03868 -3.2721 0
M  V30 9547 N 894.251 1.57596 -0.0117121 0
M  V30 9548 C 895.497 1.92189 0.665966 0
M  V30 9549 C 895.852 0.887145 1.70726 0
M  V30 9550 O 895.145 -0.099151 1.91343 0
M  V30 9551 C 895.339 3.31296 1.34082 0
M  V30 9552 C 895.168 4.48205 0.366406 0
M  V30 9553 C 893.938 5.05293 -0.0274458 0
M  V30 9554 C 896.136 5.12951 -0.37219 0
M  V30 9555 N 894.118 6.0572 -0.998846 0
M  V30 9556 C 895.489 6.08318 -1.1979 0
M  V30 9557 C 897.544 4.95998 -0.434768 0
M  V30 9558 C 896.247 6.88555 -2.0805 0
M  V30 9559 C 898.273 5.7683 -1.30464 0
M  V30 9560 C 897.635 6.71798 -2.11816 0
M  V30 9561 H 893.734 0.751422 0.216537 0
M  V30 9562 H 896.318 1.94556 -0.0748079 0
M  V30 9563 H 894.489 3.2978 2.05182 0
M  V30 9564 H 896.221 3.53285 1.97413 0
M  V30 9565 H 892.976 4.72354 0.343382 0
M  V30 9566 H 893.4 6.60619 -1.48027 0
M  V30 9567 H 898.042 4.22417 0.179925 0
M  V30 9568 H 895.76 7.61453 -2.70581 0
M  V30 9569 H 899.346 5.6575 -1.35712 0
M  V30 9570 H 898.226 7.33256 -2.78037 0
M  V30 9571 N 895.729 -0.261212 1.5542 0
M  V30 9572 C 896.677 -1.34298 1.89913 0
M  V30 9573 C 897.671 -1.50547 0.776665 0
M  V30 9574 O 898.877 -1.52191 0.961139 0
M  V30 9575 H 895.252 -0.4494 0.602946 0
M  V30 9576 H 897.223 -1.02464 2.80256 0
M  V30 9577 C 895.972 -2.69423 2.19788 0
M  V30 9578 H 895.295 -2.57715 3.05652 0
M  V30 9579 H 896.735 -3.44026 2.47835 0
M  V30 9580 C 895.194 -3.21423 1.00939 0
M  V30 9581 O 895.724 -4.00921 0.250034 0
M  V30 9582 N 893.93 -2.7926 0.803883 0
M  V30 9583 H 893.477 -2.14724 1.42308 0
M  V30 9584 H 893.435 -3.14398 0.0103257 0
M  V30 9585 N 897.207 -1.48554 -0.526253 0
M  V30 9586 C 898.17 -1.62868 -1.61266 0
M  V30 9587 C 899.17 -0.501762 -1.52771 0
M  V30 9588 O 900.36 -0.76764 -1.56374 0
M  V30 9589 C 897.492 -1.60238 -3.00893 0
M  V30 9590 H 898.685 -2.59742 -1.49913 0
M  V30 9591 H 896.238 -1.37207 -0.748595 0
M  V30 9592 H 896.973 -0.648545 -3.17749 0
M  V30 9593 H 896.758 -2.42054 -3.08468 0
M  V30 9594 H 898.248 -1.73455 -3.79872 0
M  V30 9595 N 898.685 0.775411 -1.37205 0
M  V30 9596 C 899.91 1.5696 -1.35567 0
M  V30 9597 C 900.335 1.88012 0.0575554 0
M  V30 9598 O 899.693 1.48954 1.03355 0
M  V30 9599 C 899.741 2.85886 -2.19776 0
M  V30 9600 O 898.845 3.80103 -1.59987 0
M  V30 9601 H 898.186 0.475583 -0.463375 0
M  V30 9602 H 900.716 0.96001 -1.80679 0
M  V30 9603 H 900.726 3.35024 -2.32859 0
M  V30 9604 H 899.401 2.62613 -3.22502 0
M  V30 9605 H 897.978 3.38736 -1.55924 0
M  V30 9606 N 900.163 1.21714 1.00117 0
M  V30 9607 C 901.409 1.04829 1.74306 0
M  V30 9608 C 901.764 -0.413387 1.87907 0
M  V30 9609 O 901.057 -1.30258 1.40512 0
M  V30 9610 C 901.251 1.68345 3.15269 0
M  V30 9611 C 901.08 3.20537 3.15414 0
M  V30 9612 C 899.85 3.896 3.21776 0
M  V30 9613 C 902.048 4.17576 3.00224 0
M  V30 9614 N 900.03 5.28949 3.11587 0
M  V30 9615 C 901.401 5.43701 2.97974 0
M  V30 9616 C 903.456 4.08575 2.84554 0
M  V30 9617 C 902.159 6.61861 2.8166 0
M  V30 9618 C 904.185 5.26375 2.69598 0
M  V30 9619 C 903.547 6.51414 2.68028 0
M  V30 9620 H 899.646 0.437964 0.647852 0
M  V30 9621 H 902.23 1.54128 1.18965 0
M  V30 9622 H 900.401 1.21607 3.68872 0
M  V30 9623 H 902.133 1.44629 3.77974 0
M  V30 9624 H 898.888 3.40548 3.29126 0
M  V30 9625 H 899.312 6.01945 3.09825 0
M  V30 9626 H 903.954 3.12696 2.84571 0
M  V30 9627 H 901.672 7.57896 2.8039 0
M  V30 9628 H 905.258 5.21235 2.58468 0
M  V30 9629 H 904.138 7.41033 2.56593 0
M  V30 9630 N 901.641 -1.19671 1.02551 0
M  V30 9631 C 902.866 -1.93774 0.739363 0
M  V30 9632 C 903.291 -1.74787 -0.695064 0
M  V30 9633 O 902.649 -1.04796 -1.47944 0
M  V30 9634 C 902.697 -3.43684 1.09149 0
M  V30 9635 O 901.801 -4.11874 0.208213 0
M  V30 9636 H 901.142 -0.605064 0.273484 0
M  V30 9637 H 903.672 -1.51846 1.37128 0
M  V30 9638 H 903.682 -3.94339 1.04695 0
M  V30 9639 H 902.357 -3.56826 2.13654 0
M  V30 9640 H 900.934 -3.716 0.311045 0
M  V30 9641 N 903.119 -0.802921 -1.35613 0
M  V30 9642 C 904.067 -0.198783 -2.31749 0
M  V30 9643 C 905.061 0.649416 -1.56458 0
M  V30 9644 O 906.267 0.542989 -1.71615 0
M  V30 9645 H 902.642 -0.0455177 -0.750621 0
M  V30 9646 H 904.613 -1.02479 -2.80251 0
M  V30 9647 C 903.362 0.641066 -3.41739 0
M  V30 9648 H 902.685 -0.00226244 -3.998 0
M  V30 9649 H 904.125 1.03022 -4.11294 0
M  V30 9650 C 902.584 1.80505 -2.84464 0
M  V30 9651 O 903.114 2.90235 -2.77717 0
M  V30 9652 N 901.32 1.61542 -2.41563 0
M  V30 9653 H 900.867 0.722863 -2.4725 0
M  V30 9654 H 900.825 2.39581 -2.03589 0
M  V30 9655 N 904.597 1.47463 -0.556102 0
M  V30 9656 C 905.544 2.29998 0.192213 0
M  V30 9657 C 906.514 1.38993 0.909403 0
M  V30 9658 O 907.699 1.67954 0.905316 0
M  V30 9659 C 904.839 3.22932 1.21692 0
M  V30 9660 C 903.952 4.29027 0.505908 0
M  V30 9661 C 903.087 5.09114 1.51581 0
M  V30 9662 C 902.126 6.06984 0.789714 0
M  V30 9663 N 901.263 6.80033 1.74639 0
M  V30 9664 H 906.103 2.93468 -0.517734 0
M  V30 9665 H 903.64 1.44654 -0.267147 0
M  V30 9666 H 905.598 3.75234 1.8236 0
M  V30 9667 H 904.228 2.61329 1.89491 0
M  V30 9668 H 903.28 3.7979 -0.215276 0
M  V30 9669 H 904.592 4.9876 -0.062958 0
M  V30 9670 H 903.746 5.6556 2.19606 0
M  V30 9671 H 902.485 4.3928 2.11859 0
M  V30 9672 H 901.49 5.49717 0.0955382 0
M  V30 9673 H 902.715 6.78827 0.192688 0
M  V30 9674 H 900.661 6.12931 2.33777 0
M  V30 9675 H 900.578 7.45933 1.22965 0
M  V30 9676 H 901.846 7.41054 2.41782 0
M  V30 9677 N 906.075 0.2925 1.54862 0
M  V30 9678 C 907.3 -0.32494 2.04839 0
M  V30 9679 C 907.725 -1.47381 1.16877 0
M  V30 9680 O 907.083 -1.80492 0.171028 0
M  V30 9681 C 907.131 -0.76694 3.5235 0
M  V30 9682 O 906.235 -1.87256 3.67436 0
M  V30 9683 H 905.576 -0.0645195 0.660858 0
M  V30 9684 H 908.106 0.431867 1.9999 0
M  V30 9685 H 908.116 -1.05804 3.94043 0
M  V30 9686 H 906.791 0.0735212 4.15835 0
M  V30 9687 H 905.368 -1.58266 3.37648 0
M  V30 9688 N 907.553 -1.57587 0.0200696 0
M  V30 9689 C 908.483 -2.12702 -0.963333 0
M  V30 9690 C 909.464 -1.04094 -1.34531 0
M  V30 9691 O 910.649 -1.31881 -1.42552 0
M  V30 9692 C 907.779 -2.64673 -2.24868 0
M  V30 9693 C 906.733 -3.77987 -2.00772 0
M  V30 9694 C 906.059 -4.16351 -3.35494 0
M  V30 9695 C 907.359 -5.0444 -1.35416 0
M  V30 9696 H 909.053 -2.95121 -0.504363 0
M  V30 9697 H 906.599 -1.41966 -0.24116 0
M  V30 9698 H 908.552 -3.01862 -2.94036 0
M  V30 9699 H 907.276 -1.79403 -2.72914 0
M  V30 9700 H 905.935 -3.41223 -1.34025 0
M  V30 9701 H 905.583 -3.28075 -3.81282 0
M  V30 9702 H 905.283 -4.92705 -3.20181 0
M  V30 9703 H 906.807 -4.56115 -4.05945 0
M  V30 9704 H 908.221 -5.39273 -1.94571 0
M  V30 9705 H 906.618 -5.85732 -1.30529 0
M  V30 9706 H 907.688 -4.83803 -0.325923 0
M  V30 9707 N 909.032 0.252966 -1.55557 0
M  V30 9708 C 910.257 1.0038 -1.8149 0
M  V30 9709 C 910.682 1.78397 -0.596318 0
M  V30 9710 O 910.04 1.7551 0.454535 0
M  V30 9711 C 910.088 1.9222 -3.05096 0
M  V30 9712 O 909.192 3.01302 -2.81587 0
M  V30 9713 H 908.533 0.285949 -0.599274 0
M  V30 9714 H 911.063 0.275795 -2.02733 0
M  V30 9715 H 911.073 2.338 -3.34368 0
M  V30 9716 H 909.748 1.34852 -3.93431 0
M  V30 9717 H 908.325 2.63894 -2.63466 0
M  V30 9718 N 910.51 1.48831 0.518367 0
M  V30 9719 C 911.787 1.47933 1.27966 0
M  V30 9720 C 912.167 0.197393 2.10175 0
M  V30 9721 O 911.515 -0.820656 2.13255 0
M  V30 9722 C 911.725 2.74816 2.15121 0
M  V30 9723 C 913.073 3.23613 2.74881 0
M  V30 9724 O 914.097 2.75814 2.254 0
M  V30 9725 O 912.956 4.06818 3.64913 0
M  V30 9726 H 910.05 0.591316 0.578164 0
M  V30 9727 H 912.596 1.61077 0.534065 0
M  V30 9728 H 911.368 3.59621 1.54234 0
M  V30 9729 H 910.991 2.64449 2.96905 0
M  V30 9730 N 911.988 -0.768124 1.37614 0
M  V30 9731 C 913.237 -1.5221 1.32345 0
M  V30 9732 C 913.55 -1.95399 -0.0885761 0
M  V30 9733 O 914.756 -2.70216 -0.263752 0
M  V30 9734 C 913.212 -2.74872 2.32322 0
M  V30 9735 C 912.82 -2.38767 3.79071 0
M  V30 9736 C 914.564 -3.52805 2.36069 0
M  V30 9737 C 912.471 -3.57953 4.7077 0
M  V30 9738 H 911.401 -0.571461 0.491883 0
M  V30 9739 H 914.052 -0.841004 1.63093 0
M  V30 9740 H 912.434 -3.44889 1.94596 0
M  V30 9741 H 913.608 -1.7651 4.25654 0
M  V30 9742 H 911.923 -1.74 3.78303 0
M  V30 9743 H 914.52 -4.41397 3.01782 0
M  V30 9744 H 914.863 -3.92925 1.37535 0
M  V30 9745 H 915.396 -2.89788 2.72521 0
M  V30 9746 H 912.135 -3.22911 5.70446 0
M  V30 9747 H 911.655 -4.19302 4.28889 0
M  V30 9748 H 913.334 -4.2472 4.8808 0
M  V30 9749 N 913.466 -1.22244 -0.994698 0
M  V30 9750 C 914.712 -1.05752 -1.73747 0
M  V30 9751 C 915.067 0.403416 -1.88123 0
M  V30 9752 O 914.36 1.29511 -1.412 0
M  V30 9753 C 914.554 -1.70014 -3.14372 0
M  V30 9754 C 914.383 -3.22205 -3.1371 0
M  V30 9755 C 913.153 -3.91301 -3.19705 0
M  V30 9756 C 915.351 -4.19163 -2.98005 0
M  V30 9757 N 913.333 -5.30594 -3.08778 0
M  V30 9758 C 914.704 -5.45274 -2.95087 0
M  V30 9759 C 916.759 -4.10078 -2.82383 0
M  V30 9760 C 915.462 -6.63345 -2.78146 0
M  V30 9761 C 917.488 -5.27797 -2.66803 0
M  V30 9762 C 916.85 -6.52826 -2.6457 0
M  V30 9763 H 912.949 -0.441393 -0.64552 0
M  V30 9764 H 915.533 -1.54757 -1.18146 0
M  V30 9765 H 913.704 -1.23562 -3.68221 0
M  V30 9766 H 915.436 -1.46631 -3.77202 0
M  V30 9767 H 912.191 -3.42289 -3.27315 0
M  V30 9768 H 912.615 -6.0358 -3.06628 0
M  V30 9769 H 917.257 -3.14201 -2.82909 0
M  V30 9770 H 914.975 -7.59373 -2.76367 0
M  V30 9771 H 918.561 -5.22598 -2.557 0
M  V30 9772 H 917.441 -7.42383 -2.5266 0
M  V30 9773 N 914.944 1.19125 -1.03184 0
M  V30 9774 C 916.221 1.84674 -0.644574 0
M  V30 9775 C 916.601 1.92042 0.876534 0
M  V30 9776 O 915.949 1.43965 1.77444 0
M  V30 9777 C 916.159 3.23477 -1.3101 0
M  V30 9778 C 917.507 3.99608 -1.43524 0
M  V30 9779 O 918.531 3.32886 -1.2675 0
M  V30 9780 O 917.39 5.19132 -1.70776 0
M  V30 9781 H 914.484 0.795968 -0.22442 0
M  V30 9782 H 917.03 1.2659 -1.13018 0
M  V30 9783 H 915.802 3.12967 -2.34878 0
M  V30 9784 H 915.425 3.89209 -0.812547 0
M  V30 9785 N 916.422 0.810101 1.35185 0
M  V30 9786 C 917.37 0.211071 2.3164 0
M  V30 9787 C 918.364 -0.641109 1.568 0
M  V30 9788 O 919.57 -0.533881 1.719 0
M  V30 9789 H 915.945 0.0494978 0.750369 0
M  V30 9790 H 917.916 1.03964 2.79703 0
M  V30 9791 C 916.665 -0.622933 3.42074 0
M  V30 9792 H 915.988 0.0234648 3.99793 0
M  V30 9793 H 917.428 -1.0084 4.11834 0
M  V30 9794 C 915.887 -1.78994 2.85417 0
M  V30 9795 O 916.417 -2.88758 2.79252 0
M  V30 9796 N 914.623 -1.60259 2.42416 0
M  V30 9797 H 914.17 -0.70974 2.4763 0
M  V30 9798 H 914.128 -2.38498 2.04857 0
M  V30 9799 N 917.9 -1.47166 0.563914 0
M  V30 9800 C 918.833 -2.27058 -0.227989 0
M  V30 9801 C 919.811 -1.34468 -0.914179 0
M  V30 9802 O 920.995 -1.63857 -0.931829 0
M  V30 9803 C 918.122 -3.11689 -1.32543 0
M  V30 9804 C 917.168 -4.19906 -0.747084 0
M  V30 9805 S 918.001 -5.33916 0.41153 0
M  V30 9806 C 919.157 -6.22112 -0.687566 0
M  V30 9807 H 919.39 -2.93876 0.449939 0
M  V30 9808 H 916.923 -1.50372 0.350382 0
M  V30 9809 H 918.881 -3.61017 -1.95389 0
M  V30 9810 H 917.542 -2.44221 -1.97522 0
M  V30 9811 H 916.735 -4.78876 -1.57141 0
M  V30 9812 H 916.337 -3.73493 -0.194671 0
M  V30 9813 H 918.629 -6.58867 -1.578 0
M  V30 9814 H 919.572 -7.07971 -0.135058 0
M  V30 9815 H 919.98 -5.55871 -0.983255 0
M  V30 9816 N 919.378 -0.300708 -1.54705 0
M  V30 9817 C 920.606 0.31127 -2.04545 0
M  V30 9818 C 921.021 1.47542 -1.178 0
M  V30 9819 O 920.378 1.81361 -0.203571 0
M  V30 9820 C 920.429 0.767783 -3.53253 0
M  V30 9821 O 920.15 -0.350027 -4.36699 0
M  V30 9822 C 921.651 1.44494 -4.1909 0
M  V30 9823 H 918.871 0.067668 -0.667579 0
M  V30 9824 H 921.415 -0.440254 -1.99705 0
M  V30 9825 H 919.57 1.46933 -3.58454 0
M  V30 9826 H 919.984 0.00534038 -5.245 0
M  V30 9827 H 921.458 1.71553 -5.24665 0
M  V30 9828 H 921.935 2.3849 -3.68808 0
M  V30 9829 H 922.541 0.786581 -4.17963 0
M  V30 9830 N 920.856 1.57574 -0.0284266 0
M  V30 9831 C 922.102 1.92884 0.645544 0
M  V30 9832 C 922.457 0.905203 1.69776 0
M  V30 9833 O 921.75 -0.0788509 1.91438 0
M  V30 9834 C 921.944 3.32699 1.3056 0
M  V30 9835 C 921.773 4.48568 0.318848 0
M  V30 9836 C 920.543 5.05235 -0.0810373 0
M  V30 9837 C 922.741 5.12528 -0.426575 0
M  V30 9838 N 920.723 6.04626 -1.06303 0
M  V30 9839 C 922.094 6.07013 -1.26235 0
M  V30 9840 C 924.149 4.95509 -0.48735 0
M  V30 9841 C 922.852 6.8631 -2.15341 0
M  V30 9842 C 924.878 5.75414 -1.36575 0
M  V30 9843 C 924.24 6.69514 -2.1893 0
M  V30 9844 H 920.339 0.753677 0.208555 0
M  V30 9845 H 922.923 1.94466 -0.095439 0
M  V30 9846 H 921.094 3.31938 2.01673 0
M  V30 9847 H 922.826 3.55359 1.93655 0
M  V30 9848 H 919.581 4.72691 0.293264 0
M  V30 9849 H 920.005 6.59012 -1.55025 0
M  V30 9850 H 924.647 4.22584 0.135112 0
M  V30 9851 H 922.365 7.58541 -2.78642 0
M  V30 9852 H 925.951 5.64279 -1.41705 0
M  V30 9853 H 924.831 7.30266 -2.85799 0
M  V30 9854 N 922.334 -0.244713 1.55689 0
M  V30 9855 C 923.267 -1.32946 1.85474 0
M  V30 9856 C 924.245 -1.46279 0.710021 0
M  V30 9857 O 925.429 -1.62459 0.956004 0
M  V30 9858 C 922.556 -2.7027 2.04137 0
M  V30 9859 C 921.602 -2.74075 3.2678 0
M  V30 9860 S 922.435 -2.30465 4.8337 0
M  V30 9861 C 923.591 -3.69709 5.05041 0
M  V30 9862 H 923.824 -1.07482 2.77191 0
M  V30 9863 H 921.357 -0.445807 1.47824 0
M  V30 9864 H 923.315 -3.4934 2.15574 0
M  V30 9865 H 921.976 -2.9297 1.13259 0
M  V30 9866 H 921.169 -3.74932 3.36812 0
M  V30 9867 H 920.771 -2.03051 3.1408 0
M  V30 9868 H 923.063 -4.65222 4.92518 0
M  V30 9869 H 924.006 -3.6461 6.07014 0
M  V30 9870 H 924.414 -3.62323 4.32877 0
M  V30 9871 N 923.813 -1.49104 -0.510467 0
M  V30 9872 C 924.723 -1.67792 -1.6396 0
M  V30 9873 C 925.739 -0.560454 -1.64727 0
M  V30 9874 O 926.915 -0.833985 -1.83321 0
M  V30 9875 C 923.98 -1.73154 -3.00364 0
M  V30 9876 C 923.041 -2.9667 -3.10299 0
M  V30 9877 C 922.274 -3.01767 -4.40196 0
M  V30 9878 O 922.497 -2.1472 -5.28443 0
M  V30 9879 O 921.431 -3.94137 -4.54906 0
M  V30 9880 H 925.257 -2.63428 -1.51126 0
M  V30 9881 H 922.842 -1.32734 -0.685719 0
M  V30 9882 H 924.724 -1.79089 -3.81451 0
M  V30 9883 H 923.399 -0.806952 -3.1348 0
M  V30 9884 H 922.306 -2.96257 -2.28435 0
M  V30 9885 H 923.639 -3.88578 -3.02106 0
M  V30 9886 N 925.291 0.760815 -1.38019 0
M  V30 9887 C 926.537 1.52109 -1.35034 0
M  V30 9888 C 926.892 1.92302 0.0615509 0
M  V30 9889 O 926.185 1.62028 1.02261 0
M  V30 9890 C 926.379 2.79024 -2.23339 0
M  V30 9891 C 926.208 2.51238 -3.72974 0
M  V30 9892 C 924.978 2.44818 -4.42032 0
M  V30 9893 C 927.176 2.18499 -4.65578 0
M  V30 9894 N 925.158 2.09232 -5.77144 0
M  V30 9895 C 926.529 1.93143 -5.89148 0
M  V30 9896 C 928.584 2.04747 -4.53854 0
M  V30 9897 C 927.287 1.55423 -7.02308 0
M  V30 9898 C 929.313 1.68428 -5.66909 0
M  V30 9899 C 928.675 1.43939 -6.89537 0
M  V30 9900 H 924.774 0.556482 -0.54941 0
M  V30 9901 H 927.358 0.886614 -1.73341 0
M  V30 9902 H 925.529 3.40292 -1.87232 0
M  V30 9903 H 927.261 3.45016 -2.11533 0
M  V30 9904 H 924.016 2.61045 -3.95161 0
M  V30 9905 H 924.44 1.94104 -6.48577 0
M  V30 9906 H 929.082 2.22358 -3.59607 0
M  V30 9907 H 926.8 1.36551 -7.96479 0
M  V30 9908 H 930.386 1.5843 -5.59814 0
M  V30 9909 H 929.266 1.16253 -7.75535 0
M  V30 9910 N 926.769 1.22769 0.988202 0
M  V30 9911 C 927.679 1.01844 2.11341 0
M  V30 9912 C 928.695 -0.0346937 1.73965 0
M  V30 9913 O 929.871 0.159061 2.00771 0
M  V30 9914 C 926.936 0.603837 3.41401 0
M  V30 9915 C 925.997 1.73113 3.92849 0
M  V30 9916 C 925.23 1.33621 5.16702 0
M  V30 9917 O 925.453 0.217041 5.69987 0
M  V30 9918 O 924.387 2.15444 5.62021 0
M  V30 9919 H 928.213 1.96127 2.31879 0
M  V30 9920 H 925.798 1.01405 1.09715 0
M  V30 9921 H 927.68 0.383196 4.19654 0
M  V30 9922 H 926.355 -0.310082 3.22211 0
M  V30 9923 H 925.262 2.00634 3.15748 0
M  V30 9924 H 926.595 2.62308 4.1648 0
M  V30 9925 N 928.247 -1.18576 1.03814 0
M  V30 9926 C 929.663 -1.4051 0.756909 0
M  V30 9927 C 929.863 -1.9057 -0.654631 0
M  V30 9928 O 928.919 -2.0884 -1.41922 0
M  V30 9929 C 930.232 -2.4081 1.80087 0
M  V30 9930 C 931.78 -2.54541 1.82148 0
M  V30 9931 C 932.255 -3.58102 2.85529 0
M  V30 9932 N 933.746 -3.65607 2.84404 0
M  V30 9933 C 934.481 -4.45458 3.61047 0
M  V30 9934 N 933.977 -5.28937 4.47434 0
M  V30 9935 N 935.77 -4.40196 3.49548 0
M  V30 9936 H 927.921 -0.844075 1.94908 0
M  V30 9937 H 930.184 -0.433287 0.843188 0
M  V30 9938 H 929.89 -2.1107 2.81322 0
M  V30 9939 H 929.764 -3.4012 1.63089 0
M  V30 9940 H 932.151 -2.83598 0.815855 0
M  V30 9941 H 932.232 -1.55352 2.03223 0
M  V30 9942 H 931.876 -3.29786 3.86269 0
M  V30 9943 H 931.806 -4.56963 2.6171 0
M  V30 9944 H 934.297 -3.05994 2.21756 0
M  V30 9945 H 934.61 -5.8701 5.02632 0
M  V30 9946 H 932.955 -5.28366 4.51503 0
M  V30 9947 H 936.146 -3.74026 2.81464 0
M  V30 9948 H 936.319 -5.02186 4.09528 0
M  V30 9949 N 929.725 -0.817259 -1.34754 0
M  V30 9950 C 930.635 -0.236946 -2.334 0
M  V30 9951 C 931.651 0.625685 -1.62361 0
M  V30 9952 O 932.827 0.534921 -1.94166 0
M  V30 9953 C 929.892 0.596215 -3.41535 0
M  V30 9954 C 928.953 -0.288154 -4.28332 0
M  V30 9955 C 928.186 0.505337 -5.31302 0
M  V30 9956 O 928.409 1.73912 -5.43241 0
M  V30 9957 O 927.343 -0.109374 -6.01801 0
M  V30 9958 H 931.169 -1.05327 -2.84851 0
M  V30 9959 H 928.754 -0.579275 -1.37713 0
M  V30 9960 H 930.636 1.07041 -4.07578 0
M  V30 9961 H 929.311 1.38997 -2.92338 0
M  V30 9962 H 928.218 -0.809724 -3.65232 0
M  V30 9963 H 929.551 -1.04612 -4.80955 0
M  V30 9964 N 931.203 1.46865 -0.571711 0
M  V30 9965 C 932.452 2.01636 -0.050881 0
M  V30 9966 C 932.765 1.45001 1.31279 0
M  V30 9967 O 933.971 1.91523 1.92435 0
M  V30 9968 C 932.427 3.59877 -0.0404114 0
M  V30 9969 C 932.035 4.25506 -1.40172 0
M  V30 9970 C 933.779 4.22346 0.42705 0
M  V30 9971 C 931.686 5.75795 -1.34958 0
M  V30 9972 H 930.616 0.753846 -0.0152514 0
M  V30 9973 H 933.267 1.68711 -0.721723 0
M  V30 9974 H 931.649 3.89829 0.696374 0
M  V30 9975 H 932.823 4.07178 -2.15737 0
M  V30 9976 H 931.138 3.75086 -1.8083 0
M  V30 9977 H 933.735 5.32499 0.484688 0
M  V30 9978 H 934.078 3.9052 1.44222 0
M  V30 9979 H 934.611 3.9698 -0.255326 0
M  V30 9980 H 931.35 6.12265 -2.3412 0
M  V30 9981 H 930.87 5.96419 -0.635962 0
M  V30 9982 H 932.549 6.38294 -1.05779 0
M  V30 9983 N 932.681 0.308908 1.54543 0
M  V30 9984 C 933.958 -0.351558 1.92415 0
M  V30 9985 C 934.338 -1.71061 1.23699 0
M  V30 9986 O 933.686 -2.25394 0.3755 0
M  V30 9987 C 933.896 -0.458357 3.45977 0
M  V30 9988 C 935.244 -0.725524 4.18355 0
M  V30 9989 O 936.268 -0.541859 3.52054 0
M  V30 9990 O 935.127 -1.07884 5.35745 0
M  V30 9991 H 932.221 -0.197957 0.802958 0
M  V30 9992 H 934.767 0.357548 1.65891 0
M  V30 9993 H 933.539 0.496723 3.88134 0
M  V30 9994 H 933.162 -1.21562 3.78561 0
M  V30 9995 N 934.159 -1.57557 0.0367827 0
M  V30 9996 C 935.107 -2.11844 -0.960454 0
M  V30 9997 C 936.101 -1.04681 -1.33185 0
M  V30 9998 O 937.307 -1.23108 -1.31318 0
M  V30 9999 H 933.682 -0.676921 -0.32754 0
M  V30 10000 H 935.653 -2.94557 -0.477346 0
M  V30 10001 C 934.402 -2.66683 -2.23105 0
M  V30 10002 H 933.725 -3.48795 -1.95403 0
M  V30 10003 H 935.165 -3.08305 -2.91074 0
M  V30 10004 C 933.624 -1.59782 -2.96599 0
M  V30 10005 O 934.154 -1.00214 -3.88999 0
M  V30 10006 N 932.36 -1.31644 -2.59072 0
M  V30 10007 H 931.907 -1.80272 -1.8401 0
M  V30 10008 H 931.865 -0.603457 -3.08554 0
M  V30 10009 N 935.637 0.236453 -1.55816 0
M  V30 10010 C 936.867 0.978873 -1.81939 0
M  V30 10011 C 937.275 1.79041 -0.611647 0
M  V30 10012 O 936.618 1.78616 0.429172 0
M  V30 10013 C 936.68 1.9569 -3.01572 0
M  V30 10014 C 936.344 1.33131 -4.37178 0
M  V30 10015 C 937.341 0.728585 -5.1477 0
M  V30 10016 C 935.026 1.34755 -4.83887 0
M  V30 10017 C 937.02 0.150427 -6.37222 0
M  V30 10018 C 934.707 0.765539 -6.06286 0
M  V30 10019 C 935.705 0.168017 -6.82793 0
M  V30 10020 O 935.393 -0.404976 -8.02879 0
M  V30 10021 H 935.125 0.293186 -0.609113 0
M  V30 10022 H 937.679 0.261384 -2.0373 0
M  V30 10023 H 935.909 2.71298 -2.75562 0
M  V30 10024 H 937.598 2.56362 -3.14695 0
M  V30 10025 H 938.364 0.708477 -4.79797 0
M  V30 10026 H 934.243 1.80202 -4.24321 0
M  V30 10027 H 937.787 -0.316586 -6.96881 0
M  V30 10028 H 933.684 0.78301 -6.40733 0
M  V30 10029 H 934.452 -0.29785 -8.17958 0
M  V30 10030 N 937.115 1.49373 0.502552 0
M  V30 10031 C 938.343 1.62488 1.28084 0
M  V30 10032 C 938.758 0.295667 1.86471 0
M  V30 10033 O 938.115 -0.718664 1.67754 0
M  V30 10034 C 938.166 2.69249 2.4122 0
M  V30 10035 O 937.887 3.97014 1.85234 0
M  V30 10036 C 939.388 2.93054 3.32617 0
M  V30 10037 H 936.608 0.547068 0.388533 0
M  V30 10038 H 939.152 1.95394 0.603452 0
M  V30 10039 H 937.307 2.39125 3.04792 0
M  V30 10040 H 937.721 4.55809 2.59496 0
M  V30 10041 H 939.195 3.71493 4.08285 0
M  V30 10042 H 939.672 2.02911 3.89517 0
M  V30 10043 H 940.278 3.24589 2.74813 0
M  V30 10044 N 938.594 -0.753485 1.38421 0
M  V30 10045 C 939.542 -1.8886 1.35774 0
M  V30 10046 C 940.536 -1.67639 0.243608 0
M  V30 10047 O 941.742 -1.75206 0.412649 0
M  V30 10048 H 938.117 -0.62137 0.42356 0
M  V30 10049 H 940.088 -1.88209 2.3156 0
M  V30 10050 C 938.837 -3.26344 1.19979 0
M  V30 10051 H 938.16 -3.43259 2.04971 0
M  V30 10052 H 939.6 -4.06015 1.22181 0
M  V30 10053 C 938.059 -3.36771 -0.0932867 0
M  V30 10054 O 938.589 -3.8718 -1.07027 0
M  V30 10055 N 936.795 -2.90212 -0.150154 0
M  V30 10056 H 936.342 -2.4938 0.645562 0
M  V30 10057 H 936.3 -2.97569 -1.0149 0
M  V30 10058 N 940.072 -1.23292 -0.981677 0
M  V30 10059 C 941.002 -1.03738 -2.09191 0
M  V30 10060 C 941.983 0.0453041 -1.7004 0
M  V30 10061 O 943.168 -0.119092 -1.93834 0
M  V30 10062 C 940.298 -0.626426 -3.41604 0
M  V30 10063 C 939.252 -1.65631 -3.94652 0
M  V30 10064 C 938.578 -1.10084 -5.23245 0
M  V30 10065 C 939.878 -3.04903 -4.24066 0
M  V30 10066 H 941.572 -1.966 -2.25807 0
M  V30 10067 H 939.118 -0.946656 -1.0851 0
M  V30 10068 H 941.071 -0.476689 -4.18695 0
M  V30 10069 H 939.795 0.337873 -3.24848 0
M  V30 10070 H 938.454 -1.79402 -3.19704 0
M  V30 10071 H 938.102 -0.127562 -5.02838 0
M  V30 10072 H 937.802 -1.78896 -5.59705 0
M  V30 10073 H 939.326 -0.962928 -6.02959 0
M  V30 10074 H 940.74 -2.94441 -4.91912 0
M  V30 10075 H 939.137 -3.70941 -4.71724 0
M  V30 10076 H 940.207 -3.53991 -3.31389 0
M  V30 10077 N 941.55 1.18024 -1.04442 0
M  V30 10078 C 942.799 1.8743 -0.745185 0
M  V30 10079 C 943.112 1.81459 0.730206 0
M  V30 10080 O 944.318 2.46263 1.1431 0
M  V30 10081 C 942.774 3.36266 -1.28271 0
M  V30 10082 C 942.382 3.50757 -2.787 0
M  V30 10083 C 944.126 4.11048 -1.06018 0
M  V30 10084 C 942.033 4.93573 -3.25791 0
M  V30 10085 H 940.963 0.702038 -0.27506 0
M  V30 10086 H 943.614 1.33333 -1.26073 0
M  V30 10087 H 941.996 3.89853 -0.695002 0
M  V30 10088 H 943.17 3.07423 -3.43261 0
M  V30 10089 H 941.485 2.89385 -2.99408 0
M  V30 10090 H 944.082 5.16395 -1.38711 0
M  V30 10091 H 944.425 4.163 0.00241716 0
M  V30 10092 H 944.958 3.63644 -1.61269 0
M  V30 10093 H 941.697 4.93491 -4.31447 0
M  V30 10094 H 941.217 5.37607 -2.65968 0
M  V30 10095 H 942.896 5.62307 -3.20031 0
M  V30 10096 N 943.028 0.824394 1.34319 0
M  V30 10097 C 944.258 0.425576 2.02169 0
M  V30 10098 C 944.666 -0.973596 1.62227 0
M  V30 10099 O 944.009 -1.64173 0.824199 0
M  V30 10100 C 944.071 0.449902 3.56674 0
M  V30 10101 C 943.735 1.80266 4.19944 0
M  V30 10102 C 944.732 2.76373 4.40357 0
M  V30 10103 C 942.417 2.09155 4.56683 0
M  V30 10104 C 944.411 3.9954 4.96635 0
M  V30 10105 C 942.098 3.32581 5.12672 0
M  V30 10106 C 943.096 4.27591 5.32592 0
M  V30 10107 O 942.784 5.48837 5.87395 0
M  V30 10108 H 942.516 0.168866 0.654569 0
M  V30 10109 H 945.07 1.11441 1.7254 0
M  V30 10110 H 943.3 -0.295631 3.85568 0
M  V30 10111 H 944.989 0.0709302 4.05838 0
M  V30 10112 H 945.755 2.55351 4.12336 0
M  V30 10113 H 941.634 1.36004 4.40481 0
M  V30 10114 H 945.178 4.73709 5.12099 0
M  V30 10115 H 941.075 3.53466 5.40122 0
M  V30 10116 H 941.843 5.50377 6.05828 0
M  V30 10117 N 944.506 -1.46559 0.579492 0
M  V30 10118 C 945.731 -2.0729 0.0674595 0
M  V30 10119 C 946.156 -1.4259 -1.22677 0
M  V30 10120 O 945.514 -0.50857 -1.74021 0
M  V30 10121 C 945.562 -3.60492 -0.0882227 0
M  V30 10122 O 944.666 -3.96172 -1.14551 0
M  V30 10123 H 944.007 -0.661159 0.0613536 0
M  V30 10124 H 946.537 -1.88247 0.801519 0
M  V30 10125 H 946.547 -4.06929 -0.295411 0
M  V30 10126 H 945.222 -4.06976 0.856943 0
M  V30 10127 H 943.799 -3.61448 -0.917033 0
M  V30 10128 N 945.984 -0.3171 -1.54377 0
M  V30 10129 C 946.914 0.544623 -2.2706 0
M  V30 10130 C 947.895 1.12469 -1.27611 0
M  V30 10131 O 949.08 1.15103 -1.56413 0
M  V30 10132 C 946.21 1.70879 -3.02353 0
M  V30 10133 C 945.164 1.25833 -4.09084 0
M  V30 10134 C 944.49 2.50894 -4.72182 0
M  V30 10135 C 945.79 0.377876 -5.20931 0
M  V30 10136 H 947.484 -0.0616372 -2.99337 0
M  V30 10137 H 945.03 -0.0310848 -1.43966 0
M  V30 10138 H 946.983 2.31787 -3.51927 0
M  V30 10139 H 945.707 2.34155 -2.27682 0
M  V30 10140 H 944.366 0.672228 -3.60384 0
M  V30 10141 H 944.014 3.12518 -3.94134 0
M  V30 10142 H 943.714 2.21447 -5.44275 0
M  V30 10143 H 945.238 3.12575 -5.24528 0
M  V30 10144 H 946.652 0.893056 -5.66302 0
M  V30 10145 H 945.049 0.176474 -5.9984 0
M  V30 10146 H 946.119 -0.592943 -4.81261 0
M  V30 10147 N 947.462 1.57535 -0.0451378 0
M  V30 10148 C 948.711 1.91628 0.629415 0
M  V30 10149 C 949.024 0.924754 1.72359 0
M  V30 10150 O 950.23 1.15751 2.45589 0
M  V30 10151 C 948.686 3.40322 1.17084 0
M  V30 10152 C 948.294 4.47867 0.109101 0
M  V30 10153 C 950.038 3.83458 1.82099 0
M  V30 10154 C 947.945 5.87671 0.663072 0
M  V30 10155 H 946.875 0.715163 0.238868 0
M  V30 10156 H 949.526 1.83151 -0.113046 0
M  V30 10157 H 947.908 3.43783 1.96543 0
M  V30 10158 H 949.082 4.55988 -0.664201 0
M  V30 10159 H 947.397 4.14034 -0.443227 0
M  V30 10160 H 949.994 4.85273 2.2453 0
M  V30 10161 H 950.337 3.19379 2.67026 0
M  V30 10162 H 950.87 3.82488 1.09305 0
M  V30 10163 H 947.609 6.55332 -0.148423 0
M  V30 10164 H 947.129 5.83124 1.4045 0
M  V30 10165 H 948.808 6.36737 1.14785 0
M  V30 10166 N 948.94 -0.228186 1.55939 0
M  V30 10167 C 949.85 -1.30386 1.9503 0
M  V30 10168 C 950.866 -1.51645 0.853218 0
M  V30 10169 O 952.042 -1.64904 1.15623 0
M  V30 10170 C 949.107 -2.63489 2.25332 0
M  V30 10171 C 948.168 -2.5059 3.48573 0
M  V30 10172 C 947.401 -3.77345 3.7742 0
M  V30 10173 O 947.624 -4.80067 3.08045 0
M  V30 10174 O 946.558 -3.74855 4.70922 0
M  V30 10175 H 950.384 -1.0022 2.86687 0
M  V30 10176 H 947.969 -0.430503 1.43063 0
M  V30 10177 H 949.851 -3.4211 2.46046 0
M  V30 10178 H 948.526 -2.93349 1.3685 0
M  V30 10179 H 947.433 -1.70191 3.33145 0
M  V30 10180 H 948.766 -2.2567 4.37417 0
M  V30 10181 N 950.418 -1.49637 -0.494624 0
M  V30 10182 C 951.695 -1.4995 -1.25596 0
M  V30 10183 C 952.075 -0.230805 -2.09834 0
M  V30 10184 O 951.423 0.786625 -2.14533 0
M  V30 10185 C 951.633 -2.78204 -2.10721 0
M  V30 10186 C 952.981 -3.27946 -2.69698 0
M  V30 10187 O 954.005 -2.79365 -2.20984 0
M  V30 10188 O 952.864 -4.12571 -3.58395 0
M  V30 10189 H 949.958 -0.60044 -0.568684 0
M  V30 10190 H 952.504 -1.61906 -0.508371 0
M  V30 10191 H 951.276 -3.62029 -1.48494 0
M  V30 10192 H 950.899 -2.69139 -2.92661 0
M  V30 10193 N 951.896 0.746133 -1.38819 0
M  V30 10194 C 953.121 1.54049 -1.38866 0
M  V30 10195 C 953.546 1.88092 0.0176624 0
M  V30 10196 O 952.904 1.51113 1.00173 0
M  V30 10197 C 952.952 2.8116 -2.25791 0
M  V30 10198 O 952.056 3.76623 -1.68014 0
M  V30 10199 H 951.397 0.465648 -0.473359 0
M  V30 10200 H 953.927 0.921469 -1.82675 0
M  V30 10201 H 953.937 3.30009 -2.39913 0
M  V30 10202 H 952.612 2.55713 -3.27999 0
M  V30 10203 H 951.189 3.35352 -1.63074 0
M  V30 10204 N 953.375 1.23811 0.975125 0
M  V30 10205 C 954.307 0.981779 2.07108 0
M  V30 10206 C 955.32 -0.0461211 1.62735 0
M  V30 10207 O 956.509 0.190039 1.77486 0
M  V30 10208 C 953.609 0.458364 3.35786 0
M  V30 10209 C 952.782 1.54767 4.09104 0
M  V30 10210 C 951.841 1.0282 5.16057 0
M  V30 10211 O 950.867 1.71831 5.42644 0
M  V30 10212 N 952.069 -0.141243 5.80328 0
M  V30 10213 H 954.834 1.92537 2.29673 0
M  V30 10214 H 952.395 1.1474 1.14221 0
M  V30 10215 H 954.387 0.0957686 4.04587 0
M  V30 10216 H 952.957 -0.390768 3.10148 0
M  V30 10217 H 952.177 2.08279 3.34684 0
M  V30 10218 H 953.465 2.28006 4.54853 0
M  V30 10219 H 952.863 -0.718382 5.6112 0
M  V30 10220 H 951.42 -0.445052 6.50279 0
M  V30 10221 N 954.853 -1.17469 1.05066 0
M  V30 10222 C 956.102 -1.87032 0.755114 0
M  V30 10223 C 956.415 -1.81844 -0.720572 0
M  V30 10224 O 957.621 -2.46866 -1.13002 0
M  V30 10225 C 956.077 -3.35581 1.30052 0
M  V30 10226 C 955.685 -3.49274 2.80556 0
M  V30 10227 C 957.429 -4.1048 1.08196 0
M  V30 10228 C 955.336 -4.91838 3.28404 0
M  V30 10229 H 954.266 -0.70057 0.278779 0
M  V30 10230 H 956.917 -1.32663 1.26779 0
M  V30 10231 H 955.299 -3.89479 0.715667 0
M  V30 10232 H 956.473 -3.05598 3.44886 0
M  V30 10233 H 954.788 -2.87793 3.00939 0
M  V30 10234 H 957.385 -5.15652 1.41447 0
M  V30 10235 H 957.728 -4.16295 0.0196603 0
M  V30 10236 H 958.261 -3.62784 1.63195 0
M  V30 10237 H 955 -4.91196 4.34058 0
M  V30 10238 H 954.52 -5.36189 2.68815 0
M  V30 10239 H 956.199 -5.60602 3.23009 0
M  V30 10240 N 956.331 -0.831506 -1.3388 0
M  V30 10241 C 957.263 -0.216908 -2.28171 0
M  V30 10242 C 958.276 0.598141 -1.51414 0
M  V30 10243 O 959.465 0.426416 -1.73332 0
M  V30 10244 C 956.565 0.713831 -3.31297 0
M  V30 10245 C 955.738 -0.0602673 -4.37358 0
M  V30 10246 C 954.797 0.792696 -5.20195 0
M  V30 10247 O 953.823 0.234564 -5.68716 0
M  V30 10248 N 955.025 2.11119 -5.40748 0
M  V30 10249 H 957.79 -1.02704 -2.81553 0
M  V30 10250 H 955.351 -0.689272 -1.46495 0
M  V30 10251 H 957.343 1.28925 -3.83615 0
M  V30 10252 H 955.913 1.42469 -2.78247 0
M  V30 10253 H 955.133 -0.817041 -3.8564 0
M  V30 10254 H 956.421 -0.592822 -5.05335 0
M  V30 10255 H 955.819 2.58828 -5.03016 0
M  V30 10256 H 954.376 2.63527 -5.96151 0
M  V30 10257 N 957.809 1.4625 -0.587256 0
M  V30 10258 C 958.741 2.28482 0.181256 0
M  V30 10259 C 959.754 1.38777 0.851163 0
M  V30 10260 O 960.943 1.63336 0.719963 0
M  V30 10261 C 958.043 3.13944 1.27643 0
M  V30 10262 C 957.216 4.31802 0.697569 0
M  V30 10263 C 956.275 4.98626 1.68102 0
M  V30 10264 O 955.301 5.56075 1.21529 0
M  V30 10265 N 956.503 4.96051 3.0152 0
M  V30 10266 H 959.268 2.95079 -0.524267 0
M  V30 10267 H 956.829 1.56213 -0.425336 0
M  V30 10268 H 958.821 3.55513 1.93371 0
M  V30 10269 H 957.391 2.49391 1.88475 0
M  V30 10270 H 956.611 3.93961 -0.137293 0
M  V30 10271 H 957.899 5.07969 0.290696 0
M  V30 10272 H 957.297 4.5063 3.41978 0
M  V30 10273 H 955.854 5.41547 3.62725 0
M  V30 10274 N 959.287 0.325282 1.54207 0
M  V30 10275 C 960.197 -0.548778 2.28091 0
M  V30 10276 C 961.213 -1.12772 1.32508 0
M  V30 10277 O 962.389 -1.14732 1.65525 0
M  V30 10278 C 959.454 -1.69284 3.02562 0
M  V30 10279 C 958.515 -1.14553 4.13734 0
M  V30 10280 C 957.748 -2.23506 4.84645 0
M  V30 10281 O 957.971 -3.43884 4.55082 0
M  V30 10282 O 956.905 -1.88828 5.71513 0
M  V30 10283 H 960.731 0.0512974 3.03657 0
M  V30 10284 H 958.316 0.0909159 1.49123 0
M  V30 10285 H 960.198 -2.35887 3.49192 0
M  V30 10286 H 958.873 -2.27906 2.2987 0
M  V30 10287 H 957.78 -0.444532 3.71449 0
M  V30 10288 H 959.113 -0.60441 4.88475 0
M  V30 10289 N 960.765 -1.57509 0.0534917 0
M  V30 10290 C 961.712 -2.11667 -0.920101 0
M  V30 10291 C 962.682 -1.0246 -1.30733 0
M  V30 10292 O 963.867 -1.30021 -1.39639 0
M  V30 10293 C 961.007 -2.66803 -2.18883 0
M  V30 10294 C 960.12 -3.90104 -1.85588 0
M  V30 10295 C 959.255 -4.33547 -3.06937 0
M  V30 10296 C 958.294 -5.49542 -2.69573 0
M  V30 10297 N 957.431 -5.88029 -3.83623 0
M  V30 10298 H 962.271 -2.94562 -0.451371 0
M  V30 10299 H 959.808 -1.45576 -0.211168 0
M  V30 10300 H 961.766 -2.96871 -2.93127 0
M  V30 10301 H 960.396 -1.86702 -2.63329 0
M  V30 10302 H 959.448 -3.66613 -1.01484 0
M  V30 10303 H 960.76 -4.74404 -1.54087 0
M  V30 10304 H 959.914 -4.6518 -3.89477 0
M  V30 10305 H 958.653 -3.48064 -3.41618 0
M  V30 10306 H 957.658 -5.17579 -1.8545 0
M  V30 10307 H 958.883 -6.36743 -2.36082 0
M  V30 10308 H 956.829 -5.05498 -4.181 0
M  V30 10309 H 956.746 -6.67025 -3.55828 0
M  V30 10310 H 958.014 -6.24277 -4.66796 0
M  V30 10311 N 962.243 0.219913 -1.56058 0
M  V30 10312 C 963.191 1.29215 -1.93407 0
M  V30 10313 C 964.185 1.48434 -0.816307 0
M  V30 10314 O 965.391 1.49589 -1.00115 0
M  V30 10315 H 961.766 0.433256 -0.614649 0
M  V30 10316 H 963.737 0.949977 -2.82875 0
M  V30 10317 C 962.486 2.63501 -2.26854 0
M  V30 10318 H 961.809 2.4952 -3.12377 0
M  V30 10319 H 963.249 3.37334 -2.56869 0
M  V30 10320 C 961.708 3.18634 -1.09425 0
M  V30 10321 O 962.238 4.00117 -0.356243 0
M  V30 10322 N 960.444 2.7703 -0.877642 0
M  V30 10323 H 959.991 2.10875 -1.47951 0
M  V30 10324 H 959.949 3.1426 -0.0936792 0
M  V30 10325 N 963.721 1.49897 0.486681 0
M  V30 10326 C 964.631 1.70379 1.6127 0
M  V30 10327 C 965.647 0.58659 1.63814 0
M  V30 10328 O 966.823 0.863044 1.81971 0
M  V30 10329 C 963.888 1.77911 2.97571 0
M  V30 10330 C 962.949 3.01569 3.0554 0
M  V30 10331 C 962.182 3.08732 4.35339 0
M  V30 10332 O 962.405 2.23099 5.2496 0
M  V30 10333 O 961.339 4.01325 4.48578 0
M  V30 10334 H 965.165 2.65799 1.46916 0
M  V30 10335 H 962.75 1.33808 0.664516 0
M  V30 10336 H 964.632 1.85135 3.78554 0
M  V30 10337 H 963.307 0.856722 3.12157 0
M  V30 10338 H 962.214 2.99854 2.23693 0
M  V30 10339 H 963.547 3.93335 2.95886 0
M  V30 10340 N 965.199 -0.738761 1.39212 0
M  V30 10341 C 966.146 -1.85273 1.37631 0
M  V30 10342 C 967.116 -1.64407 0.236572 0
M  V30 10343 O 968.301 -1.85866 0.431104 0
M  V30 10344 C 965.441 -3.22745 1.22188 0
M  V30 10345 C 964.554 -3.55342 2.45674 0
M  V30 10346 C 963.689 -4.82195 2.22847 0
M  V30 10347 C 962.728 -5.07625 3.42029 0
M  V30 10348 N 961.865 -6.25679 3.18543 0
M  V30 10349 H 966.705 -1.85959 2.32859 0
M  V30 10350 H 964.242 -0.908716 1.15675 0
M  V30 10351 H 966.2 -4.02095 1.11245 0
M  V30 10352 H 964.83 -3.21347 0.30592 0
M  V30 10353 H 963.882 -2.70722 2.67233 0
M  V30 10354 H 965.194 -3.70054 3.34457 0
M  V30 10355 H 964.348 -5.69518 2.09126 0
M  V30 10356 H 963.087 -4.6965 1.31454 0
M  V30 10357 H 962.092 -4.18765 3.56253 0
M  V30 10358 H 963.317 -5.22058 4.34319 0
M  V30 10359 H 961.263 -6.14429 2.2981 0
M  V30 10360 H 961.18 -6.40961 4.0088 0
M  V30 10361 H 962.448 -7.15851 3.08508 0
M  V30 10362 N 966.677 -1.24326 -0.968545 0
M  V30 10363 C 967.587 -1.05194 -2.09694 0
M  V30 10364 C 968.603 0.00701291 -1.73999 0
M  V30 10365 O 969.779 -0.190981 -2.00492 0
M  V30 10366 C 966.844 -0.658075 -3.40397 0
M  V30 10367 C 965.905 -1.79341 -3.90045 0
M  V30 10368 C 965.138 -1.41824 -5.14511 0
M  V30 10369 O 965.361 -0.307693 -5.69569 0
M  V30 10370 O 964.295 -2.24358 -5.58522 0
M  V30 10371 H 968.121 -1.99791 -2.2873 0
M  V30 10372 H 965.706 -1.03138 -1.08088 0
M  V30 10373 H 967.588 -0.449911 -4.18991 0
M  V30 10374 H 966.263 0.258782 -3.22664 0
M  V30 10375 H 965.17 -2.05632 -3.12516 0
M  V30 10376 H 966.503 -2.68901 -4.12254 0
M  V30 10377 N 968.156 1.1691 -1.05688 0
M  V30 10378 C 969.086 2.23275 -0.683402 0
M  V30 10379 C 970.067 1.6704 0.321206 0
M  V30 10380 O 971.252 1.93191 0.197691 0
M  V30 10381 C 968.382 3.47244 -0.0626006 0
M  V30 10382 C 967.336 4.16333 -0.992513 0
M  V30 10383 C 966.662 5.34182 -0.23533 0
M  V30 10384 C 967.962 4.68002 -2.31886 0
M  V30 10385 H 969.656 2.54771 -1.57264 0
M  V30 10386 H 967.202 1.2246 -0.757606 0
M  V30 10387 H 969.155 4.20874 0.210503 0
M  V30 10388 H 967.879 3.1503 0.861616 0
M  V30 10389 H 966.538 3.44622 -1.25026 0
M  V30 10390 H 966.186 4.9822 0.69181 0
M  V30 10391 H 965.886 5.81346 -0.855002 0
M  V30 10392 H 967.41 6.10592 0.0303717 0
M  V30 10393 H 968.824 5.33244 -2.10531 0
M  V30 10394 H 967.221 5.25764 -2.89296 0
M  V30 10395 H 968.291 3.84541 -2.95391 0
M  V30 10396 N 969.634 0.838594 1.33437 0
M  V30 10397 C 970.564 0.286672 2.31734 0
M  V30 10398 C 971.545 -0.605451 1.5896 0
M  V30 10399 O 972.73 -0.529059 1.86854 0
M  V30 10400 C 969.86 -0.539311 3.43087 0
M  V30 10401 C 968.814 0.256997 4.27228 0
M  V30 10402 C 968.14 -0.692718 5.30194 0
M  V30 10403 C 969.44 1.47391 5.01072 0
M  V30 10404 H 971.134 1.10798 2.78144 0
M  V30 10405 H 968.68 0.534235 1.33723 0
M  V30 10406 H 970.633 -0.935724 4.1088 0
M  V30 10407 H 969.357 -1.39383 2.95364 0
M  V30 10408 H 968.016 0.634967 3.61059 0
M  V30 10409 H 967.664 -1.54363 4.78729 0
M  V30 10410 H 967.364 -0.164023 5.87371 0
M  V30 10411 H 968.888 -1.08665 6.00853 0
M  V30 10412 H 970.302 1.15067 5.61634 0
M  V30 10413 H 968.699 1.93937 5.67898 0
M  V30 10414 H 969.769 2.24382 4.29861 0
M  V30 10415 N 971.112 -1.45937 0.595003 0
M  V30 10416 C 972.022 -2.34221 -0.133325 0
M  V30 10417 C 973.038 -1.50491 -0.873407 0
M  V30 10418 O 974.214 -1.83328 -0.833828 0
M  V30 10419 C 971.279 -3.27896 -1.12628 0
M  V30 10420 C 970.34 -4.27529 -0.389532 0
M  V30 10421 C 969.573 -5.16729 -1.33519 0
M  V30 10422 O 969.796 -5.09102 -2.57238 0
M  V30 10423 O 968.73 -5.96023 -0.839084 0
M  V30 10424 H 972.556 -2.97877 0.591861 0
M  V30 10425 H 970.141 -1.45113 0.355329 0
M  V30 10426 H 972.023 -3.85654 -1.69851 0
M  V30 10427 H 970.698 -2.6682 -1.83272 0
M  V30 10428 H 969.605 -3.73424 0.224843 0
M  V30 10429 H 970.938 -4.91425 0.276169 0
M  V30 10430 N 972.59 -0.333456 -1.54032 0
M  V30 10431 C 973.52 0.52051 -2.27625 0
M  V30 10432 C 974.501 1.1111 -1.28797 0
M  V30 10433 O 975.686 1.13438 -1.57625 0
M  V30 10434 C 972.816 1.67663 -3.04149 0
M  V30 10435 C 971.77 1.21487 -4.10396 0
M  V30 10436 C 971.096 2.45872 -4.74817 0
M  V30 10437 C 972.396 0.322603 -5.21303 0
M  V30 10438 H 974.09 -0.0933823 -2.99254 0
M  V30 10439 H 971.636 -0.0463526 -1.43925 0
M  V30 10440 H 973.589 2.28041 -3.54366 0
M  V30 10441 H 972.313 2.31727 -2.30153 0
M  V30 10442 H 970.972 0.633966 -3.61077 0
M  V30 10443 H 970.62 3.0832 -3.97426 0
M  V30 10444 H 970.32 2.15662 -5.46593 0
M  V30 10445 H 971.844 3.06994 -5.27814 0
M  V30 10446 H 973.258 0.832942 -5.67217 0
M  V30 10447 H 971.655 0.112843 -5.99994 0
M  V30 10448 H 972.725 -0.643954 -4.80605 0
M  V30 10449 N 974.068 1.57479 -0.061844 0
M  V30 10450 C 975.345 1.84484 0.649993 0
M  V30 10451 C 975.725 0.952366 1.88396 0
M  V30 10452 O 975.073 0.0161035 2.28494 0
M  V30 10453 C 975.283 3.34452 0.997133 0
M  V30 10454 C 976.631 4.01724 1.37488 0
M  V30 10455 O 977.655 3.3914 1.08916 0
M  V30 10456 O 976.514 5.12091 1.90854 0
M  V30 10457 H 973.608 0.761798 0.321858 0
M  V30 10458 H 976.154 1.6945 -0.0920192 0
M  V30 10459 H 974.926 3.91115 0.120301 0
M  V30 10460 H 974.549 3.54713 1.79624 0
M  V30 10461 N 975.546 -0.211634 1.56173 0
M  V30 10462 C 976.493 -1.26231 1.93221 0
M  V30 10463 C 977.463 -1.46076 0.790641 0
M  V30 10464 O 978.648 -1.59482 1.04739 0
M  V30 10465 C 975.788 -2.60559 2.26281 0
M  V30 10466 C 974.901 -2.48431 3.5342 0
M  V30 10467 C 974.036 -3.7535 3.7588 0
M  V30 10468 C 973.075 -3.57985 4.96501 0
M  V30 10469 N 972.212 -4.76877 5.15299 0
M  V30 10470 H 977.052 -0.939367 2.82807 0
M  V30 10471 H 974.589 -0.452511 1.39967 0
M  V30 10472 H 976.547 -3.38796 2.43461 0
M  V30 10473 H 975.177 -2.9093 1.39855 0
M  V30 10474 H 974.229 -1.61577 3.44379 0
M  V30 10475 H 975.541 -2.31526 4.41811 0
M  V30 10476 H 974.695 -4.62029 3.9321 0
M  V30 10477 H 973.434 -3.95191 2.85788 0
M  V30 10478 H 972.439 -2.69691 4.79111 0
M  V30 10479 H 973.664 -3.39605 5.88086 0
M  V30 10480 H 971.61 -4.97013 4.28152 0
M  V30 10481 H 971.527 -4.62735 5.9784 0
M  V30 10482 H 972.795 -5.64954 5.37073 0
M  V30 10483 N 977.024 -1.50153 -0.478725 0
M  V30 10484 C 978.27 -1.61968 -1.23036 0
M  V30 10485 C 978.625 -0.312529 -1.89845 0
M  V30 10486 O 977.918 0.688995 -1.78783 0
M  V30 10487 C 978.112 -2.73208 -2.30417 0
M  V30 10488 C 977.941 -4.14614 -1.74142 0
M  V30 10489 C 976.711 -4.81116 -1.54452 0
M  V30 10490 C 978.909 -4.99111 -1.24066 0
M  V30 10491 N 976.891 -6.06763 -0.933399 0
M  V30 10492 C 978.262 -6.15419 -0.752286 0
M  V30 10493 C 980.317 -4.84943 -1.12849 0
M  V30 10494 C 979.02 -7.19116 -0.162808 0
M  V30 10495 C 981.046 -5.88809 -0.552955 0
M  V30 10496 C 980.408 -7.0436 -0.0749195 0
M  V30 10497 H 976.507 -0.646894 -0.439377 0
M  V30 10498 H 979.091 -1.87244 -0.53364 0
M  V30 10499 H 977.262 -2.49667 -2.97525 0
M  V30 10500 H 978.994 -2.74423 -2.97446 0
M  V30 10501 H 975.749 -4.38282 -1.7946 0
M  V30 10502 H 976.173 -6.73906 -0.64647 0
M  V30 10503 H 980.815 -3.959 -1.48402 0
M  V30 10504 H 978.533 -8.0784 0.204943 0
M  V30 10505 H 982.119 -5.7991 -0.468633 0
M  V30 10506 H 980.999 -7.83357 0.363455 0
M  V30 10507 N 978.502 0.731368 -1.39602 0
M  V30 10508 C 979.465 1.8271 -1.38383 0
M  V30 10509 C 980.465 1.58338 -0.280309 0
M  V30 10510 O 981.655 1.65671 -0.538402 0
M  V30 10511 C 978.787 3.20556 -1.16002 0
M  V30 10512 H 979.98 1.85193 -2.35889 0
M  V30 10513 H 977.533 0.935396 -1.2522 0
M  V30 10514 H 978.268 3.23732 -0.191927 0
M  V30 10515 H 978.053 3.39643 -1.9592 0
M  V30 10516 H 979.543 4.00612 -1.17899 0
M  V30 10517 N 979.98 1.24838 0.961938 0
M  V30 10518 C 981.205 1.11967 1.7458 0
M  V30 10519 C 981.63 -0.323287 1.85301 0
M  V30 10520 O 980.988 -1.23412 1.32812 0
M  V30 10521 C 981.036 1.77066 3.14134 0
M  V30 10522 O 980.14 1.04534 3.98932 0
M  V30 10523 H 979.481 0.391338 0.536424 0
M  V30 10524 H 982.011 1.65259 1.20626 0
M  V30 10525 H 982.021 1.83056 3.64629 0
M  V30 10526 H 980.696 2.82052 3.05646 0
M  V30 10527 H 979.273 1.06372 3.57407 0
M  V30 10528 N 981.458 -1.16348 1.06306 0
M  V30 10529 C 982.388 -2.2291 0.695234 0
M  V30 10530 C 983.369 -1.67208 -0.312343 0
M  V30 10531 O 984.554 -1.93293 -0.187442 0
M  V30 10532 C 981.684 -3.47205 0.0810149 0
M  V30 10533 C 980.638 -4.15801 1.01458 0
M  V30 10534 C 979.964 -5.3405 0.263656 0
M  V30 10535 C 981.264 -4.66766 2.34365 0
M  V30 10536 H 982.958 -2.53934 1.58613 0
M  V30 10537 H 980.504 -1.22056 0.76409 0
M  V30 10538 H 982.457 -4.2098 -0.18818 0
M  V30 10539 H 981.181 -3.15482 -0.844897 0
M  V30 10540 H 979.84 -3.43954 1.26852 0
M  V30 10541 H 979.488 -4.9858 -0.665378 0
M  V30 10542 H 979.188 -5.80885 0.88582 0
M  V30 10543 H 980.712 -6.106 0.00200994 0
M  V30 10544 H 982.126 -5.3212 2.13356 0
M  V30 10545 H 980.523 -5.24223 2.9208 0
M  V30 10546 H 981.593 -3.82969 2.97426 0
M  V30 10547 N 982.937 -0.845659 -1.3299 0
M  V30 10548 C 984.183 -0.454563 -1.98256 0
M  V30 10549 C 984.538 0.976983 -1.65749 0
M  V30 10550 O 983.831 1.67481 -0.930631 0
M  V30 10551 C 984.025 -0.6201 -3.51979 0
M  V30 10552 C 983.854 -2.06619 -3.99423 0
M  V30 10553 C 982.624 -2.70283 -4.26937 0
M  V30 10554 C 984.822 -3.03573 -4.15148 0
M  V30 10555 N 982.804 -4.05896 -4.60567 0
M  V30 10556 C 984.175 -4.24149 -4.52214 0
M  V30 10557 C 986.23 -2.99888 -3.97457 0
M  V30 10558 C 984.933 -5.41527 -4.73435 0
M  V30 10559 C 986.959 -4.16502 -4.19858 0
M  V30 10560 C 986.321 -5.35835 -4.57231 0
M  V30 10561 H 982.42 -0.214896 -0.751893 0
M  V30 10562 H 985.004 -1.09515 -1.6098 0
M  V30 10563 H 983.175 -0.00926528 -3.88399 0
M  V30 10564 H 984.907 -0.199782 -4.04207 0
M  V30 10565 H 981.662 -2.21377 -4.18676 0
M  V30 10566 H 982.086 -4.75824 -4.81581 0
M  V30 10567 H 986.728 -2.08753 -3.67671 0
M  V30 10568 H 984.446 -6.332 -5.02079 0
M  V30 10569 H 988.032 -4.15075 -4.07681 0
M  V30 10570 H 986.912 -6.24568 -4.74219 0
M  V30 10571 N 984.415 1.45619 -0.602734 0
M  V30 10572 C 985.363 2.32228 0.131484 0
M  V30 10573 C 986.357 1.45681 0.864484 0
M  V30 10574 O 987.563 1.62193 0.7806 0
M  V30 10575 H 983.938 0.7495 0.0612638 0
M  V30 10576 H 985.909 2.91941 -0.617496 0
M  V30 10577 C 984.658 3.29213 1.11866 0
M  V30 10578 H 983.981 3.95801 0.564061 0
M  V30 10579 H 985.421 3.92554 1.60242 0
M  V30 10580 C 983.88 2.56028 2.18978 0
M  V30 10581 O 984.41 2.33806 3.26646 0
M  V30 10582 N 982.616 2.16245 1.94129 0
M  V30 10583 H 982.163 2.34518 1.06579 0
M  V30 10584 H 982.121 1.67601 2.66003 0
M  V30 10585 N 985.893 0.34162 1.53853 0
M  V30 10586 C 987.139 -0.248546 2.01876 0
M  V30 10587 C 987.494 -1.48352 1.22513 0
M  V30 10588 O 986.787 -1.89174 0.303919 0
M  V30 10589 C 986.981 -0.616989 3.52034 0
M  V30 10590 C 986.81 0.580727 4.45935 0
M  V30 10591 C 985.58 1.08544 4.93504 0
M  V30 10592 C 987.778 1.43858 4.93771 0
M  V30 10593 N 985.76 2.24568 5.71351 0
M  V30 10594 C 987.131 2.44575 5.69722 0
M  V30 10595 C 989.186 1.46425 4.75882 0
M  V30 10596 C 987.889 3.47687 6.29688 0
M  V30 10597 C 989.915 2.48416 5.36697 0
M  V30 10598 C 989.277 3.4786 6.12514 0
M  V30 10599 H 985.376 -0.0543067 0.780112 0
M  V30 10600 H 987.96 0.480749 1.88671 0
M  V30 10601 H 986.131 -1.31539 3.65448 0
M  V30 10602 H 987.863 -1.19018 3.86803 0
M  V30 10603 H 984.618 0.653832 4.69065 0
M  V30 10604 H 985.042 2.83143 6.14946 0
M  V30 10605 H 989.684 0.709044 4.16812 0
M  V30 10606 H 987.402 4.24103 6.87868 0
M  V30 10607 H 990.988 2.51227 5.24763 0
M  V30 10608 H 989.868 4.25486 6.58734 0
M  V30 10609 N 987.371 -1.57444 0.0701946 0
M  V30 10610 C 988.618 -1.93429 -0.59929 0
M  V30 10611 C 988.946 -0.9501 -1.69715 0
M  V30 10612 O 988.201 0.0345377 -1.9567 0
M  V30 10613 C 988.5 -3.36044 -1.21694 0
M  V30 10614 C 988.166 -4.50232 -0.245374 0
M  V30 10615 C 986.828 -4.81195 0.0219161 0
M  V30 10616 C 989.18 -5.1951 0.419396 0
M  V30 10617 C 986.508 -5.78775 0.96109 0
M  V30 10618 C 988.86 -6.18095 1.34688 0
M  V30 10619 C 987.524 -6.47477 1.62265 0
M  V30 10620 H 986.794 -0.707807 -0.219296 0
M  V30 10621 H 989.441 -1.90982 0.14073 0
M  V30 10622 H 987.746 -3.34948 -2.03265 0
M  V30 10623 H 989.443 -3.61176 -1.74221 0
M  V30 10624 H 986.033 -4.26082 -0.463887 0
M  V30 10625 H 990.217 -4.95785 0.226009 0
M  V30 10626 H 985.473 -5.99865 1.18202 0
M  V30 10627 H 989.647 -6.7088 1.86795 0
M  V30 10628 H 987.274 -7.229 2.352 0
M  V30 10629 N 988.849 0.203349 -1.56283 0
M  V30 10630 C 989.797 1.27157 -1.94766 0
M  V30 10631 C 990.791 1.4756 -0.832005 0
M  V30 10632 O 991.997 1.48519 -1.01696 0
M  V30 10633 H 988.372 0.426712 -0.61921 0
M  V30 10634 H 990.343 0.919921 -2.83866 0
M  V30 10635 C 989.092 2.6108 -2.29636 0
M  V30 10636 H 988.415 2.46193 -3.15006 0
M  V30 10637 H 989.855 3.34591 -2.60433 0
M  V30 10638 C 988.314 3.17456 -1.12799 0
M  V30 10639 O 988.844 3.99717 -0.398661 0
M  V30 10640 N 987.05 2.76084 -0.906975 0
M  V30 10641 H 986.597 2.09294 -1.50179 0
M  V30 10642 H 986.555 3.14143 -0.127005 0
M  V30 10643 N 990.327 1.50405 0.470755 0
M  V30 10644 C 991.576 1.60652 1.21959 0
M  V30 10645 C 991.889 0.312521 1.93087 0
M  V30 10646 O 993.095 0.293901 2.69905 0
M  V30 10647 C 991.551 2.83581 2.21607 0
M  V30 10648 C 991.159 4.19858 1.5628 0
M  V30 10649 C 992.903 3.03173 2.9713 0
M  V30 10650 C 990.81 5.33974 2.54217 0
M  V30 10651 H 989.74 0.598264 0.458907 0
M  V30 10652 H 992.391 1.76836 0.490041 0
M  V30 10653 H 990.773 2.60957 2.97855 0
M  V30 10654 H 991.947 4.52738 0.85819 0
M  V30 10655 H 990.262 4.05873 0.930366 0
M  V30 10656 H 992.859 3.856 3.70428 0
M  V30 10657 H 993.202 2.14914 3.56536 0
M  V30 10658 H 993.735 3.2598 2.27995 0
M  V30 10659 H 990.474 6.24388 1.99549 0
M  V30 10660 H 989.994 5.05511 3.22829 0
M  V30 10661 H 991.673 5.64561 3.16039 0
M  V30 10662 N 991.805 -0.723954 1.39988 0
M  V30 10663 C 993.033 -1.51313 1.4111 0
M  V30 10664 C 993.448 -1.88798 0.00853333 0
M  V30 10665 O 992.805 -1.54868 -0.965516 0
M  V30 10666 C 992.856 -2.79375 2.29416 0
M  V30 10667 O 992.577 -2.43478 3.64211 0
M  V30 10668 C 994.078 -3.7333 2.3904 0
M  V30 10669 H 991.298 -0.46724 0.481589 0
M  V30 10670 H 993.842 -0.893694 1.83938 0
M  V30 10671 H 991.997 -3.37624 1.89971 0
M  V30 10672 H 992.411 -3.25821 4.11024 0
M  V30 10673 H 993.885 -4.60051 3.05053 0
M  V30 10674 H 994.362 -4.15854 1.41289 0
M  V30 10675 H 994.968 -3.20996 2.79001 0
M  V30 10676 N 993.283 -1.25346 -0.955304 0
M  V30 10677 C 994.231 -1.05461 -2.07318 0
M  V30 10678 C 995.225 0.0142699 -1.69394 0
M  V30 10679 O 996.431 -0.141292 -1.79445 0
M  V30 10680 H 992.806 -0.324095 -0.678577 0
M  V30 10681 H 994.777 -2.00231 -2.21247 0
M  V30 10682 C 993.526 -0.689329 -3.40798 0
M  V30 10683 H 992.849 -1.50362 -3.70447 0
M  V30 10684 H 994.289 -0.589883 -4.19877 0
M  V30 10685 C 992.748 0.604556 -3.31431 0
M  V30 10686 O 993.278 1.64686 -3.6639 0
M  V30 10687 N 991.484 0.589927 -2.84549 0
M  V30 10688 H 991.031 -0.258647 -2.56298 0
M  V30 10689 H 990.989 1.4558 -2.78664 0
M  V30 10690 N 994.761 1.15782 -1.06922 0
M  V30 10691 C 996.007 1.86975 -0.800747 0
M  V30 10692 C 996.362 1.80512 0.665818 0
M  V30 10693 O 995.655 1.21432 1.48205 0
M  V30 10694 C 995.849 3.35284 -1.2377 0
M  V30 10695 C 995.678 3.56186 -2.74521 0
M  V30 10696 C 994.448 3.71908 -3.42071 0
M  V30 10697 C 996.646 3.54373 -3.72725 0
M  V30 10698 N 994.628 3.80821 -4.81507 0
M  V30 10699 C 995.999 3.69347 -4.97978 0
M  V30 10700 C 998.054 3.37622 -3.65945 0
M  V30 10701 C 996.757 3.69302 -6.17259 0
M  V30 10702 C 998.783 3.38873 -4.84684 0
M  V30 10703 C 998.145 3.54373 -6.08769 0
M  V30 10704 H 994.244 0.701533 -0.345507 0
M  V30 10705 H 996.828 1.38875 -1.36462 0
M  V30 10706 H 994.999 3.82011 -0.701588 0
M  V30 10707 H 996.731 3.94169 -0.917235 0
M  V30 10708 H 993.486 3.72499 -2.92475 0
M  V30 10709 H 993.91 3.89031 -5.54061 0
M  V30 10710 H 998.552 3.24562 -2.7096 0
M  V30 10711 H 996.27 3.81142 -7.1257 0
M  V30 10712 H 999.856 3.27146 -4.8111 0
M  V30 10713 H 998.736 3.55268 -6.9911 0
M  V30 10714 N 996.239 0.8527 1.3254 0
M  V30 10715 C 997.169 0.311234 2.31416 0
M  V30 10716 C 998.15 -0.588557 1.59593 0
M  V30 10717 O 999.335 -0.509211 1.87405 0
M  V30 10718 C 996.465 -0.502892 3.4364 0
M  V30 10719 C 995.419 0.302296 4.26931 0
M  V30 10720 C 994.745 -0.636445 5.30899 0
M  V30 10721 C 996.045 1.52697 4.99481 0
M  V30 10722 H 997.739 1.13742 2.76953 0
M  V30 10723 H 995.285 0.548389 1.33149 0
M  V30 10724 H 997.238 -0.892092 4.11849 0
M  V30 10725 H 995.962 -1.36242 2.96826 0
M  V30 10726 H 994.621 0.673226 3.60365 0
M  V30 10727 H 994.269 -1.49277 4.80339 0
M  V30 10728 H 993.969 -0.101716 5.87512 0
M  V30 10729 H 995.493 -1.02286 6.01972 0
M  V30 10730 H 996.907 1.21017 5.60382 0
M  V30 10731 H 995.304 1.9995 5.65809 0
M  V30 10732 H 996.374 2.28929 4.27457 0
M  V30 10733 N 997.718 -1.45297 0.610449 0
M  V30 10734 C 998.964 -2.03073 0.115358 0
M  V30 10735 C 999.319 -1.47 -1.24132 0
M  V30 10736 O 998.612 -0.636326 -1.80725 0
M  V30 10737 C 998.806 -3.57394 0.0205329 0
M  V30 10738 C 998.635 -4.28436 1.36647 0
M  V30 10739 C 997.405 -4.66245 1.94791 0
M  V30 10740 C 999.603 -4.60211 2.29587 0
M  V30 10741 N 997.585 -5.22159 3.22835 0
M  V30 10742 C 998.956 -5.16989 3.42232 0
M  V30 10743 C 1001.01 -4.42152 2.28923 0
M  V30 10744 C 999.714 -5.5761 4.54382 0
M  V30 10745 C 1001.74 -4.83808 3.40123 0
M  V30 10746 C 1001.1 -5.40681 4.5149 0
M  V30 10747 H 997.201 -0.777296 0.0856485 0
M  V30 10748 H 999.785 -1.77077 0.809426 0
M  V30 10749 H 997.956 -3.83045 -0.642763 0
M  V30 10750 H 999.688 -4.01826 -0.481481 0
M  V30 10751 H 996.443 -4.49893 1.47965 0
M  V30 10752 H 996.867 -5.54613 3.88245 0
M  V30 10753 H 1001.51 -3.97493 1.44081 0
M  V30 10754 H 999.227 -6.01234 5.39947 0
M  V30 10755 H 1002.81 -4.71565 3.40761 0
M  V30 10756 H 1001.69 -5.72321 5.36114 0
M  V30 10757 N 999.196 -0.349774 -1.5367 0
M  V30 10758 C 1000.43 0.245682 -2.05134 0
M  V30 10759 C 1000.83 1.44269 -1.22406 0
M  V30 10760 O 1000.18 1.81938 -0.25379 0
M  V30 10761 C 1000.24 0.718439 -3.52248 0
M  V30 10762 C 999.903 -0.35975 -4.55582 0
M  V30 10763 C 1000.9 -1.20449 -5.05755 0
M  V30 10764 C 998.585 -0.515463 -4.99648 0
M  V30 10765 C 1000.58 -2.19043 -5.98581 0
M  V30 10766 C 998.266 -1.50479 -5.92283 0
M  V30 10767 C 999.264 -2.34072 -6.41638 0
M  V30 10768 O 998.952 -3.31319 -7.3245 0
M  V30 10769 H 998.684 0.0501122 -0.67414 0
M  V30 10770 H 1001.24 -0.5018 -1.99176 0
M  V30 10771 H 999.468 1.51727 -3.55691 0
M  V30 10772 H 1001.16 1.23513 -3.86651 0
M  V30 10773 H 1001.92 -1.09531 -4.7247 0
M  V30 10774 H 997.802 0.12537 -4.60829 0
M  V30 10775 H 1001.35 -2.84327 -6.37027 0
M  V30 10776 H 997.243 -1.61451 -6.24983 0
M  V30 10777 H 998.011 -3.26863 -7.50402 0
M  V30 10778 N 1000.67 1.57404 -0.0785433 0
M  V30 10779 C 1001.92 1.9292 0.588626 0
M  V30 10780 C 1002.24 0.961106 1.70359 0
M  V30 10781 O 1003.44 1.20934 2.43079 0
M  V30 10782 C 1001.9 3.42729 1.09839 0
M  V30 10783 C 1001.51 4.47998 0.0140773 0
M  V30 10784 C 1003.25 3.87235 1.73924 0
M  V30 10785 C 1001.16 5.88945 0.538269 0
M  V30 10786 H 1000.09 0.720069 0.223645 0
M  V30 10787 H 1002.74 1.8287 -0.15187 0
M  V30 10788 H 1001.12 3.47875 1.89207 0
M  V30 10789 H 1002.29 4.54476 -0.760773 0
M  V30 10790 H 1000.61 4.13001 -0.53095 0
M  V30 10791 H 1003.21 4.89927 2.14186 0
M  V30 10792 H 1003.55 3.24971 2.60191 0
M  V30 10793 H 1004.08 3.84721 1.01168 0
M  V30 10794 H 1000.82 6.5487 -0.287395 0
M  V30 10795 H 1000.34 5.85972 1.28049 0
M  V30 10796 H 1002.02 6.39028 1.01253 0
M  V30 10797 N 1002.15 -0.195058 1.56388 0
M  V30 10798 C 1003.1 -1.24175 1.94549 0
M  V30 10799 C 1004.07 -1.45229 0.806089 0
M  V30 10800 O 1005.25 -1.58362 1.06425 0
M  V30 10801 C 1002.39 -2.58145 2.29031 0
M  V30 10802 C 1001.51 -2.44669 3.56035 0
M  V30 10803 C 1000.64 -3.71342 3.7984 0
M  V30 10804 C 999.681 -3.52699 5.0027 0
M  V30 10805 N 998.818 -4.71385 5.20328 0
M  V30 10806 H 1003.66 -0.909319 2.83788 0
M  V30 10807 H 1001.19 -0.437641 1.40439 0
M  V30 10808 H 1003.15 -3.36195 2.4704 0
M  V30 10809 H 1001.78 -2.8943 1.42933 0
M  V30 10810 H 1000.83 -1.57916 3.46073 0
M  V30 10811 H 1002.15 -2.26827 4.44242 0
M  V30 10812 H 1001.3 -4.57832 3.98088 0
M  V30 10813 H 1000.04 -3.92138 2.89964 0
M  V30 10814 H 999.045 -2.64594 4.81944 0
M  V30 10815 H 1000.27 -3.33349 5.91655 0
M  V30 10816 H 998.216 -4.92444 4.33399 0
M  V30 10817 H 998.133 -4.56368 6.02714 0
M  V30 10818 H 999.401 -5.59226 5.43035 0
M  V30 10819 N 1003.63 -1.50653 -0.462772 0
M  V30 10820 C 1004.88 -1.61296 -1.21105 0
M  V30 10821 C 1005.19 -0.322757 -1.92919 0
M  V30 10822 O 1006.4 -0.308211 -2.69745 0
M  V30 10823 C 1004.85 -2.84752 -2.201 0
M  V30 10824 C 1004.46 -4.20681 -1.54051 0
M  V30 10825 C 1006.21 -3.04744 -2.95518 0
M  V30 10826 C 1004.11 -5.35314 -2.51381 0
M  V30 10827 H 1003.04 -0.60069 -0.455728 0
M  V30 10828 H 1005.69 -1.77093 -0.480656 0
M  V30 10829 H 1004.08 -2.62532 -2.96467 0
M  V30 10830 H 1005.25 -4.53187 -0.834168 0
M  V30 10831 H 1003.56 -4.06361 -0.908828 0
M  V30 10832 H 1006.16 -3.87559 -3.68378 0
M  V30 10833 H 1006.5 -2.16802 -3.55391 0
M  V30 10834 H 1007.04 -3.27185 -2.26263 0
M  V30 10835 H 1003.78 -6.25437 -1.96235 0
M  V30 10836 H 1003.3 -5.07216 -3.20144 0
M  V30 10837 H 1004.98 -5.66229 -3.1304 0
M  V30 10838 N 1005.11 0.71652 -1.4037 0
M  V30 10839 C 1006.36 1.47638 -1.38597 0
M  V30 10840 C 1006.68 1.94496 0.0120141 0
M  V30 10841 O 1005.94 1.68437 0.996373 0
M  V30 10842 C 1006.24 2.71777 -2.32103 0
M  V30 10843 C 1005.9 2.43689 -3.79376 0
M  V30 10844 C 1004.57 2.35739 -4.195 0
M  V30 10845 C 1006.92 2.20099 -4.72447 0
M  V30 10846 C 1004.25 2.02265 -5.50732 0
M  V30 10847 C 1006.6 1.88138 -6.03976 0
M  V30 10848 C 1005.26 1.78669 -6.43143 0
M  V30 10849 H 1004.53 0.540246 -0.507163 0
M  V30 10850 H 1007.18 0.820822 -1.73017 0
M  V30 10851 H 1005.48 3.42166 -1.90865 0
M  V30 10852 H 1007.18 3.29864 -2.28015 0
M  V30 10853 H 1003.77 2.50763 -3.47585 0
M  V30 10854 H 1007.95 2.25198 -4.42266 0
M  V30 10855 H 1003.21 1.93471 -5.79982 0
M  V30 10856 H 1007.38 1.68898 -6.75608 0
M  V30 10857 H 1005.01 1.52498 -7.44747 0
M  V30 10858 N 1006.59 1.25851 0.948643 0
M  V30 10859 C 1007.84 1.10347 1.68838 0
M  V30 10860 C 1008.15 -0.354262 1.92365 0
M  V30 10861 O 1009.35 -0.629847 2.64093 0
M  V30 10862 C 1007.81 1.92659 3.03991 0
M  V30 10863 C 1007.42 3.42962 2.88238 0
M  V30 10864 C 1009.16 1.85743 3.81707 0
M  V30 10865 C 1007.07 4.17547 4.18818 0
M  V30 10866 H 1006 0.409342 0.63321 0
M  V30 10867 H 1008.65 1.50098 1.05559 0
M  V30 10868 H 1007.03 1.45736 3.68208 0
M  V30 10869 H 1008.21 3.97601 2.32917 0
M  V30 10870 H 1006.52 3.51035 2.23972 0
M  V30 10871 H 1009.12 2.38758 4.78434 0
M  V30 10872 H 1009.46 0.826568 4.08012 0
M  V30 10873 H 1009.99 2.30449 3.2425 0
M  V30 10874 H 1006.73 5.21072 3.97699 0
M  V30 10875 H 1006.25 3.6769 4.73882 0
M  V30 10876 H 1007.93 4.25589 4.87322 0
M  V30 10877 N 1008.06 -1.15214 1.07534 0
M  V30 10878 C 1009 -2.18999 0.641461 0
M  V30 10879 C 1009.98 -1.58958 -0.342238 0
M  V30 10880 O 1011.16 -1.86859 -0.248218 0
M  V30 10881 C 1008.29 -3.38651 -0.0577939 0
M  V30 10882 C 1007.33 -4.17225 0.884641 0
M  V30 10883 S 1008.17 -4.79375 2.38663 0
M  V30 10884 C 1009.32 -6.02393 1.69923 0
M  V30 10885 H 1009.55 -2.55464 1.52071 0
M  V30 10886 H 1007.09 -1.26205 0.889481 0
M  V30 10887 H 1009.05 -4.07971 -0.454982 0
M  V30 10888 H 1007.71 -3.00526 -0.913407 0
M  V30 10889 H 1006.9 -5.02837 0.342133 0
M  V30 10890 H 1006.5 -3.53463 1.2223 0
M  V30 10891 H 1008.79 -6.69899 1.01201 0
M  V30 10892 H 1009.74 -6.61216 2.53375 0
M  V30 10893 H 1010.14 -5.52106 1.1764 0
M  V30 10894 N 1009.54 -0.859717 -1.32086 0
M  V30 10895 C 1010.79 -0.461779 -1.96343 0
M  V30 10896 C 1011.1 0.988837 -1.68764 0
M  V30 10897 O 1012.31 1.49244 -2.268 0
M  V30 10898 C 1010.77 -0.77484 -3.5146 0
M  V30 10899 C 1010.37 -2.24153 -3.87891 0
M  V30 10900 C 1012.12 -0.444873 -4.22162 0
M  V30 10901 C 1010.03 -2.49754 -5.36075 0
M  V30 10902 H 1008.96 -0.168951 -0.734828 0
M  V30 10903 H 1011.61 -1.0512 -1.50406 0
M  V30 10904 H 1009.99 -0.114792 -3.95834 0
M  V30 10905 H 1011.16 -2.94378 -3.54511 0
M  V30 10906 H 1009.48 -2.53651 -3.30227 0
M  V30 10907 H 1012.07 -0.613508 -5.31169 0
M  V30 10908 H 1012.42 0.61391 -4.11749 0
M  V30 10909 H 1012.95 -1.06103 -3.83389 0
M  V30 10910 H 1009.69 -3.54276 -5.51515 0
M  V30 10911 H 1009.21 -1.84112 -5.70844 0
M  V30 10912 H 1010.89 -2.3396 -6.03218 0
M  V30 10913 N 1011.02 1.44971 -0.618145 0
M  V30 10914 C 1012.27 2.02458 -0.117656 0
M  V30 10915 C 1012.6 1.48413 1.25248 0
M  V30 10916 O 1011.87 0.662997 1.82851 0
M  V30 10917 C 1012.16 3.59987 -0.0901897 0
M  V30 10918 C 1012.01 4.24343 -1.49175 0
M  V30 10919 C 1013.33 4.36099 0.592121 0
M  V30 10920 H 1010.45 0.735672 -0.0442291 0
M  V30 10921 H 1013.09 1.727 -0.792138 0
M  V30 10922 H 1011.24 3.85471 0.484175 0
M  V30 10923 H 1012.91 4.10009 -2.114 0
M  V30 10924 H 1011.16 3.82337 -2.04941 0
M  V30 10925 H 1011.83 5.33298 -1.42468 0
M  V30 10926 H 1014.3 4.1597 0.103813 0
M  V30 10927 H 1013.18 5.45822 0.580481 0
M  V30 10928 H 1013.44 4.09746 1.66015 0
M  V30 10929 N 1012.5 0.357919 1.53482 0
M  V30 10930 C 1013.75 -0.2337 2.00744 0
M  V30 10931 C 1014.07 -1.49908 1.2471 0
M  V30 10932 O 1013.34 -1.92597 0.358235 0
M  V30 10933 H 1011.92 -0.0893474 0.741637 0
M  V30 10934 H 1014.58 0.482388 1.88836 0
M  V30 10935 H 1013.68 -0.466073 3.086 0
M  V30 10936 N 1013.98 -1.5736 0.0868897 0
M  V30 10937 C 1015.22 -1.9367 -0.577598 0
M  V30 10938 C 1015.55 -0.968844 -1.69229 0
M  V30 10939 O 1014.82 -0.0195061 -1.9589 0
M  V30 10940 H 1013.4 -0.714983 -0.216353 0
M  V30 10941 H 1016.06 -1.94335 0.148294 0
M  V30 10942 H 1015.15 -2.95877 -0.993128 0
M  V30 10943 N 1015.45 0.186762 -1.56489 0
M  V30 10944 C 1016.38 1.23395 -1.98232 0
M  V30 10945 C 1017.37 1.4702 -0.855526 0
M  V30 10946 O 1018.55 1.58616 -1.12048 0
M  V30 10947 C 1015.68 2.57635 -2.32898 0
M  V30 10948 C 1014.63 2.48607 -3.48394 0
M  V30 10949 C 1013.96 3.87196 -3.68759 0
M  V30 10950 C 1015.26 2.00398 -4.82325 0
M  V30 10951 H 1016.95 0.887026 -2.85958 0
M  V30 10952 H 1014.5 0.42525 -1.37578 0
M  V30 10953 H 1016.45 3.31082 -2.60696 0
M  V30 10954 H 1015.18 2.94084 -1.42064 0
M  V30 10955 H 1013.84 1.77615 -3.207 0
M  V30 10956 H 1013.48 4.21012 -2.75241 0
M  V30 10957 H 1013.18 3.82029 -4.46462 0
M  V30 10958 H 1014.71 4.62253 -3.98941 0
M  V30 10959 H 1016.12 2.6361 -5.091 0
M  V30 10960 H 1014.52 2.06214 -5.63556 0
M  V30 10961 H 1015.59 0.957562 -4.75351 0
M  V30 10962 N 1016.93 1.50896 0.454776 0
M  V30 10963 C 1018.18 1.61936 1.20248 0
M  V30 10964 C 1018.49 0.332983 1.92745 0
M  V30 10965 O 1019.7 0.322512 2.69578 0
M  V30 10966 C 1018.16 2.85916 2.18587 0
M  V30 10967 C 1017.76 4.21492 1.51818 0
M  V30 10968 C 1019.51 3.06307 2.93898 0
M  V30 10969 C 1017.42 5.3664 2.48539 0
M  V30 10970 H 1016.35 0.603098 0.452536 0
M  V30 10971 H 1019 1.77345 0.471257 0
M  V30 10972 H 1017.38 2.64101 2.95071 0
M  V30 10973 H 1018.55 4.53623 0.810123 0
M  V30 10974 H 1016.87 4.06837 0.887265 0
M  V30 10975 H 1019.46 3.89507 3.66317 0
M  V30 10976 H 1019.81 2.18683 3.54236 0
M  V30 10977 H 1020.34 3.2838 2.24525 0
M  V30 10978 H 1017.08 6.26469 1.92916 0
M  V30 10979 H 1016.6 5.08907 3.17449 0
M  V30 10980 H 1018.28 5.67881 3.10033 0
M  V30 10981 N 1018.41 -0.709066 1.40748 0
M  V30 10982 C 1019.66 -1.46611 1.39103 0
M  V30 10983 C 1019.98 -1.95 -0.00365366 0
M  V30 10984 O 1019.25 -1.70791 -0.959541 0
M  V30 10985 H 1017.83 -0.543954 0.511979 0
M  V30 10986 H 1020.49 -0.840141 1.75863 0
M  V30 10987 H 1019.59 -2.33581 2.06994 0
M  V30 10988 N 1019.89 -1.26353 -0.941956 0
M  V30 10989 C 1020.82 -1.10341 -2.05784 0
M  V30 10990 C 1021.8 -0.00881565 -1.70098 0
M  V30 10991 O 1022.99 -0.180699 -1.93357 0
M  V30 10992 C 1020.12 -0.734788 -3.39438 0
M  V30 10993 C 1019.07 -1.78103 -3.89183 0
M  V30 10994 C 1018.4 -1.26675 -5.19478 0
M  V30 10995 C 1019.7 -3.1824 -4.14151 0
M  V30 10996 H 1021.39 -2.03684 -2.19438 0
M  V30 10997 H 1018.94 -0.980698 -1.05443 0
M  V30 10998 H 1020.89 -0.609653 -4.16967 0
M  V30 10999 H 1019.61 0.234354 -3.25758 0
M  V30 11000 H 1018.27 -1.89482 -3.13835 0
M  V30 11001 H 1017.92 -0.287472 -5.02178 0
M  V30 11002 H 1017.62 -1.96612 -5.53731 0
M  V30 11003 H 1019.14 -1.15427 -5.99591 0
M  V30 11004 H 1020.56 -3.09942 -4.82296 0
M  V30 11005 H 1018.95 -3.8576 -4.59684 0
M  V30 11006 H 1020.02 -3.64354 -3.19959 0
M  V30 11007 N 1021.37 1.14642 -1.08144 0
M  V30 11008 C 1022.78 1.37604 -0.808537 0
M  V30 11009 C 1022.98 1.92868 0.583452 0
M  V30 11010 O 1022.04 2.13964 1.34073 0
M  V30 11011 C 1023.35 2.3396 -1.889 0
M  V30 11012 C 1024.9 2.47605 -1.9147 0
M  V30 11013 C 1025.38 3.47258 -2.98623 0
M  V30 11014 N 1026.87 3.548 -2.97777 0
M  V30 11015 C 1027.6 4.31751 -3.77331 0
M  V30 11016 N 1027.1 5.11966 -4.66757 0
M  V30 11017 N 1028.89 4.2692 -3.65645 0
M  V30 11018 H 1021.04 0.771154 -1.97906 0
M  V30 11019 H 1023.3 0.401694 -0.858688 0
M  V30 11020 H 1023.01 2.00484 -2.88962 0
M  V30 11021 H 1022.88 3.33833 -1.756 0
M  V30 11022 H 1025.27 2.80375 -0.920548 0
M  V30 11023 H 1025.35 1.47702 -2.08848 0
M  V30 11024 H 1025 3.15223 -3.98243 0
M  V30 11025 H 1024.93 4.46935 -2.7849 0
M  V30 11026 H 1027.42 2.97553 -2.3296 0
M  V30 11027 H 1027.73 5.67951 -5.24072 0
M  V30 11028 H 1026.08 5.11245 -4.70801 0
M  V30 11029 H 1029.27 3.63322 -2.95152 0
M  V30 11030 H 1029.44 4.8664 -4.27885 0
M  V30 11031 N 1022.85 0.866709 1.31628 0
M  V30 11032 C 1024.09 0.472185 1.96095 0
M  V30 11033 C 1024.41 -0.979873 1.69286 0
M  V30 11034 O 1025.61 -1.48039 2.27589 0
M  V30 11035 C 1024.07 0.793468 3.51044 0
M  V30 11036 C 1023.68 2.26206 3.86697 0
M  V30 11037 C 1025.42 0.467255 4.21921 0
M  V30 11038 C 1023.33 2.52593 5.34743 0
M  V30 11039 H 1022.26 0.172846 0.733921 0
M  V30 11040 H 1024.91 1.05916 1.49847 0
M  V30 11041 H 1023.29 0.135783 3.95767 0
M  V30 11042 H 1024.47 2.96254 3.52945 0
M  V30 11043 H 1022.78 2.55399 3.28877 0
M  V30 11044 H 1025.38 0.641669 5.30836 0
M  V30 11045 H 1025.72 -0.592065 4.12068 0
M  V30 11046 H 1026.25 1.08134 3.82821 0
M  V30 11047 H 1022.99 3.57196 5.49628 0
M  V30 11048 H 1022.51 1.87136 5.6986 0
M  V30 11049 H 1024.19 2.37156 6.01968 0
M  V30 11050 N 1024.32 -1.44642 0.625825 0
M  V30 11051 C 1025.57 -2.02393 0.128391 0
M  V30 11052 C 1025.9 -1.49075 -1.2446 0
M  V30 11053 O 1025.18 -0.672684 -1.82497 0
M  V30 11054 C 1025.46 -3.59934 0.109279 0
M  V30 11055 C 1025.31 -4.23546 1.51423 0
M  V30 11056 C 1026.63 -4.36406 -0.568985 0
M  V30 11057 H 1023.75 -0.735427 0.0481299 0
M  V30 11058 H 1026.39 -1.72277 0.801286 0
M  V30 11059 H 1024.54 -3.85722 -0.463726 0
M  V30 11060 H 1026.22 -4.08882 2.13572 0
M  V30 11061 H 1024.46 -3.81245 2.06966 0
M  V30 11062 H 1025.13 -5.32535 1.45294 0
M  V30 11063 H 1027.61 -4.1602 -0.0817516 0
M  V30 11064 H 1026.48 -5.46122 -0.551527 0
M  V30 11065 H 1026.74 -4.1062 -1.6384 0
M  V30 11066 N 1025.8 -0.366053 -1.5329 0
M  V30 11067 C 1027.05 0.223493 -2.01263 0
M  V30 11068 C 1027.38 1.48736 -1.25331 0
M  V30 11069 O 1026.63 1.92805 -0.335341 0
M  V30 11070 C 1026.93 0.560906 -3.52971 0
M  V30 11071 C 1026.6 -0.60869 -4.46773 0
M  V30 11072 C 1025.26 -0.929609 -4.72135 0
M  V30 11073 C 1027.61 -1.39225 -5.02261 0
M  V30 11074 C 1024.94 -2.03606 -5.50238 0
M  V30 11075 C 1027.29 -2.48912 -5.81572 0
M  V30 11076 C 1025.95 -2.81538 -6.05221 0
M  V30 11077 H 1025.22 0.0817818 -0.736473 0
M  V30 11078 H 1027.87 -0.498613 -1.84895 0
M  V30 11079 H 1026.18 1.36403 -3.67289 0
M  V30 11080 H 1027.87 1.02931 -3.87564 0
M  V30 11081 H 1024.46 -0.348529 -4.27181 0
M  V30 11082 H 1028.65 -1.15757 -4.82612 0
M  V30 11083 H 1023.9 -2.29281 -5.6678 0
M  V30 11084 H 1028.08 -3.10044 -6.23575 0
M  V30 11085 H 1025.7 -3.67396 -6.65525 0
M  V30 11086 N 1027.28 1.57312 -0.0952337 0
M  V30 11087 C 1028.24 2.12889 0.849161 0
M  V30 11088 C 1029.24 1.05819 1.21075 0
M  V30 11089 O 1030.43 1.31704 1.14016 0
M  V30 11090 C 1027.56 2.6496 2.14498 0
M  V30 11091 H 1028.76 2.97651 0.366566 0
M  V30 11092 H 1026.31 1.55542 0.153762 0
M  V30 11093 H 1027.05 1.83718 2.67242 0
M  V30 11094 H 1026.83 3.43244 1.89542 0
M  V30 11095 H 1028.32 3.07952 2.82056 0
M  V30 11096 N 1028.76 -0.17846 1.56586 0
M  V30 11097 C 1030 -0.897562 1.81856 0
M  V30 11098 C 1030.34 -1.82204 0.671955 0
M  V30 11099 O 1029.61 -1.91739 -0.326535 0
M  V30 11100 C 1029.89 -1.69942 3.17477 0
M  V30 11101 C 1029.75 -0.798545 4.42655 0
M  V30 11102 C 1031.07 -2.66861 3.49962 0
M  V30 11103 H 1028.19 -0.324863 0.661539 0
M  V30 11104 H 1030.83 -0.164106 1.8929 0
M  V30 11105 H 1028.98 -2.32471 3.11271 0
M  V30 11106 H 1030.65 -0.18668 4.60922 0
M  V30 11107 H 1028.89 -0.106181 4.3367 0
M  V30 11108 H 1029.56 -1.39496 5.34083 0
M  V30 11109 H 1032.04 -2.1446 3.56576 0
M  V30 11110 H 1030.92 -3.20037 4.45946 0
M  V30 11111 H 1031.18 -3.46715 2.74301 0
M  V30 11112 N 1030.24 -1.51135 -0.446768 0
M  V30 11113 C 1031.17 -1.74709 -1.54916 0
M  V30 11114 C 1032.15 -0.596628 -1.59293 0
M  V30 11115 O 1033.33 -0.838356 -1.75172 0
M  V30 11116 C 1030.46 -1.86353 -2.9307 0
M  V30 11117 C 1029.42 -3.01725 -3.03556 0
M  V30 11118 C 1028.74 -2.9854 -4.43597 0
M  V30 11119 C 1030.04 -4.41848 -2.7851 0
M  V30 11120 H 1031.74 -2.67014 -1.3544 0
M  V30 11121 H 1029.28 -1.28489 -0.650131 0
M  V30 11122 H 1031.23 -2.01428 -3.70141 0
M  V30 11123 H 1029.96 -0.906887 -3.13756 0
M  V30 11124 H 1028.62 -2.86339 -2.28922 0
M  V30 11125 H 1028.27 -2.00673 -4.61237 0
M  V30 11126 H 1027.97 -3.76008 -4.51544 0
M  V30 11127 H 1029.49 -3.15696 -5.22655 0
M  V30 11128 H 1030.9 -4.57633 -3.45319 0
M  V30 11129 H 1029.3 -5.2095 -2.97877 0
M  V30 11130 H 1030.37 -4.52536 -1.74182 0
M  V30 11131 N 1031.71 0.701592 -1.41122 0
M  V30 11132 C 1032.94 1.49553 -1.43696 0
M  V30 11133 C 1033.36 1.88053 -0.0421865 0
M  V30 11134 O 1032.72 1.54223 0.953144 0
M  V30 11135 C 1032.77 2.73834 -2.34622 0
M  V30 11136 O 1031.87 3.71088 -1.7991 0
M  V30 11137 H 1031.21 0.450352 -0.487933 0
M  V30 11138 H 1033.74 0.862886 -1.85514 0
M  V30 11139 H 1033.75 3.22209 -2.5029 0
M  V30 11140 H 1032.43 2.45149 -3.35969 0
M  V30 11141 H 1031.01 3.29994 -1.73661 0
M  V30 11142 N 1033.19 1.2685 0.935242 0
M  V30 11143 C 1034.44 1.12132 1.67658 0
M  V30 11144 C 1034.75 -0.333839 1.9273 0
M  V30 11145 O 1035.96 -0.601801 2.64746 0
M  V30 11146 C 1034.42 1.95873 3.0193 0
M  V30 11147 C 1034.02 3.46 2.84584 0
M  V30 11148 C 1035.77 1.89781 3.79715 0
M  V30 11149 C 1033.67 4.21966 4.14365 0
M  V30 11150 H 1032.6 0.416035 0.628833 0
M  V30 11151 H 1035.26 1.51209 1.03962 0
M  V30 11152 H 1033.64 1.49633 3.66641 0
M  V30 11153 H 1034.81 4.00049 2.28687 0
M  V30 11154 H 1033.13 3.53391 2.20236 0
M  V30 11155 H 1035.72 2.43819 4.75875 0
M  V30 11156 H 1036.07 0.869797 4.07112 0
M  V30 11157 H 1036.6 2.33875 3.21788 0
M  V30 11158 H 1033.34 5.2526 3.9215 0
M  V30 11159 H 1032.86 3.72696 4.69955 0
M  V30 11160 H 1034.54 4.30734 4.82781 0
M  V30 11161 N 1034.67 -1.14067 1.0875 0
M  V30 11162 C 1035.92 -1.85459 0.82053 0
M  V30 11163 C 1036.25 -1.82923 -0.65213 0
M  V30 11164 O 1035.52 -1.26241 -1.47965 0
M  V30 11165 C 1035.81 -3.33937 1.34752 0
M  V30 11166 C 1035.66 -3.45026 2.88578 0
M  V30 11167 C 1036.98 -4.2915 0.975636 0
M  V30 11168 H 1034.1 -0.673384 0.299538 0
M  V30 11169 H 1036.74 -1.33927 1.34772 0
M  V30 11170 H 1034.89 -3.77953 0.899086 0
M  V30 11171 H 1036.56 -3.09771 3.41818 0
M  V30 11172 H 1034.81 -2.86124 3.26061 0
M  V30 11173 H 1035.48 -4.49408 3.20526 0
M  V30 11174 H 1037.95 -3.93168 1.36228 0
M  V30 11175 H 1036.83 -5.31489 1.37152 0
M  V30 11176 H 1037.09 -4.41945 -0.116956 0
M  V30 11177 N 1036.15 -0.873678 -1.31166 0
M  V30 11178 C 1037.1 -0.321349 -2.3037 0
M  V30 11179 C 1038.09 0.565568 -1.5968 0
M  V30 11180 O 1039.3 0.451257 -1.74252 0
M  V30 11181 H 1035.67 -0.0852425 -0.747153 0
M  V30 11182 H 1037.64 -1.17191 -2.74425 0
M  V30 11183 C 1036.39 0.459016 -3.44657 0
M  V30 11184 H 1035.71 -0.214185 -3.99226 0
M  V30 11185 H 1037.15 0.810758 -4.16176 0
M  V30 11186 C 1035.61 1.65173 -2.93632 0
M  V30 11187 O 1036.14 2.75105 -2.92711 0
M  V30 11188 N 1034.35 1.4851 -2.49786 0
M  V30 11189 H 1033.9 0.590785 -2.50734 0
M  V30 11190 H 1033.85 2.28452 -2.16002 0
M  V30 11191 N 1037.63 1.44308 -0.633487 0
M  V30 11192 C 1039.04 1.56768 -0.29931 0
M  V30 11193 C 1039.24 1.62061 1.19743 0
M  V30 11194 O 1038.3 1.56492 1.98158 0
M  V30 11195 C 1039.61 2.8382 -0.993307 0
M  V30 11196 C 1041.16 2.97536 -0.971674 0
M  V30 11197 C 1041.63 4.27393 -1.64618 0
M  V30 11198 N 1043.13 4.34212 -1.61288 0
M  V30 11199 C 1043.86 5.33415 -2.1037 0
M  V30 11200 N 1043.36 6.3901 -2.67653 0
M  V30 11201 N 1045.15 5.24939 -2.00985 0
M  V30 11202 H 1037.3 1.39115 -1.60501 0
M  V30 11203 H 1039.56 0.666804 -0.673852 0
M  V30 11204 H 1039.27 2.85902 -2.04823 0
M  V30 11205 H 1039.14 3.73422 -0.532537 0
M  V30 11206 H 1041.53 2.95005 0.0747854 0
M  V30 11207 H 1041.61 2.09276 -1.47096 0
M  V30 11208 H 1041.26 4.30683 -2.6921 0
M  V30 11209 H 1041.19 5.14515 -1.12171 0
M  V30 11210 H 1043.68 3.58519 -1.19468 0
M  V30 11211 H 1043.99 7.10994 -3.02831 0
M  V30 11212 H 1042.33 6.39689 -2.71705 0
M  V30 11213 H 1045.53 4.41357 -1.55953 0
M  V30 11214 H 1045.7 6.02097 -2.39547 0
M  V30 11215 N 1039.1 0.374177 1.53094 0
M  V30 11216 C 1040.35 -0.213131 2.01677 0
M  V30 11217 C 1040.68 -1.47715 1.26071 0
M  V30 11218 O 1039.96 -1.91199 0.356834 0
M  V30 11219 C 1040.24 -0.496392 3.56662 0
M  V30 11220 C 1040.09 0.781859 4.42953 0
M  V30 11221 C 1041.41 -1.29339 4.20666 0
M  V30 11222 H 1038.53 -0.0759885 0.733072 0
M  V30 11223 H 1041.17 0.500765 1.83282 0
M  V30 11224 H 1039.32 -1.10455 3.72467 0
M  V30 11225 H 1041 1.41914 4.38928 0
M  V30 11226 H 1039.24 1.40041 4.10574 0
M  V30 11227 H 1039.91 0.538508 5.49367 0
M  V30 11228 H 1042.39 -0.778848 4.08746 0
M  V30 11229 H 1041.26 -1.46033 5.29118 0
M  V30 11230 H 1041.52 -2.30435 3.77296 0
M  V30 11231 N 1040.58 -1.57259 0.103575 0
M  V30 11232 C 1042 -1.57581 -0.253062 0
M  V30 11233 C 1042.2 -1.11531 -1.67819 0
M  V30 11234 O 1041.25 -0.795632 -2.39637 0
M  V30 11235 C 1042.57 -3.00681 -0.0337753 0
M  V30 11236 C 1044.12 -3.12837 -0.10087 0
M  V30 11237 C 1044.59 -4.57911 0.0905295 0
M  V30 11238 N 1046.08 -4.63186 0.0359789 0
M  V30 11239 C 1046.82 -5.73179 0.159199 0
M  V30 11240 N 1046.31 -6.91976 0.337728 0
M  V30 11241 N 1048.11 -5.62011 0.0998662 0
M  V30 11242 H 1040.26 -1.85499 1.0346 0
M  V30 11243 H 1042.52 -0.856584 0.406163 0
M  V30 11244 H 1042.23 -3.38602 0.950858 0
M  V30 11245 H 1042.1 -3.69207 -0.772406 0
M  V30 11246 H 1044.49 -2.74783 -1.07601 0
M  V30 11247 H 1044.57 -2.46886 0.66939 0
M  V30 11248 H 1044.21 -4.9666 1.06258 0
M  V30 11249 H 1044.14 -5.21933 -0.699528 0
M  V30 11250 H 1046.63 -3.7777 -0.099121 0
M  V30 11251 H 1046.95 -7.71641 0.423032 0
M  V30 11252 H 1045.29 -6.93996 0.373504 0
M  V30 11253 H 1048.48 -4.68084 -0.0385356 0
M  V30 11254 H 1048.65 -6.47693 0.199342 0
M  V30 11255 N 1042.06 0.170153 -1.56679 0
M  V30 11256 C 1042.99 1.23525 -1.93066 0
M  V30 11257 C 1044.01 1.40414 -0.823879 0
M  V30 11258 O 1045.19 1.40396 -1.10232 0
M  V30 11259 C 1042.29 2.60376 -2.16928 0
M  V30 11260 C 1041.47 2.6477 -3.4816 0
M  V30 11261 C 1040.53 3.82993 -3.60837 0
M  V30 11262 O 1039.55 3.68937 -4.33444 0
M  V30 11263 N 1040.75 4.99498 -2.95773 0
M  V30 11264 H 1043.52 0.926172 -2.8503 0
M  V30 11265 H 1041.08 0.359909 -1.57849 0
M  V30 11266 H 1043.07 3.37934 -2.22672 0
M  V30 11267 H 1041.64 2.83669 -1.31342 0
M  V30 11268 H 1040.86 1.73298 -3.54064 0
M  V30 11269 H 1042.15 2.64717 -4.34514 0
M  V30 11270 H 1041.55 5.13819 -2.36657 0
M  V30 11271 H 1040.11 5.74914 -3.07111 0
M  V30 11272 N 1043.54 1.5137 0.438746 0
M  V30 11273 C 1044.79 1.63645 1.18595 0
M  V30 11274 C 1045.11 0.354241 1.91755 0
M  V30 11275 O 1044.38 -0.629838 1.85499 0
M  V30 11276 H 1042.96 0.603103 0.440767 0
M  V30 11277 H 1045.62 1.88293 0.503159 0
M  V30 11278 H 1044.72 2.46342 1.9163 0
M  V30 11279 N 1045.02 -0.694098 1.41492 0
M  V30 11280 C 1046.25 -1.48071 1.44078 0
M  V30 11281 C 1046.65 -1.89147 0.0448984 0
M  V30 11282 O 1046 -1.57441 -0.946464 0
M  V30 11283 C 1046.06 -2.77324 2.28761 0
M  V30 11284 C 1045.72 -2.58443 3.76904 0
M  V30 11285 C 1046.72 -2.24294 4.69029 0
M  V30 11286 C 1044.41 -2.74037 4.20962 0
M  V30 11287 C 1046.4 -2.0598 6.03201 0
M  V30 11288 C 1044.09 -2.5534 5.55198 0
M  V30 11289 C 1045.08 -2.21362 6.46133 0
M  V30 11290 O 1044.77 -2.02829 7.77892 0
M  V30 11291 H 1044.5 -0.462794 0.492745 0
M  V30 11292 H 1047.06 -0.861968 1.86438 0
M  V30 11293 H 1045.29 -3.4161 1.81217 0
M  V30 11294 H 1046.98 -3.39134 2.23031 0
M  V30 11295 H 1047.74 -2.11859 4.36281 0
M  V30 11296 H 1043.62 -2.99467 3.50486 0
M  V30 11297 H 1047.17 -1.79382 6.74142 0
M  V30 11298 H 1043.06 -2.67366 5.87525 0
M  V30 11299 H 1043.83 -2.17581 7.89051 0
M  V30 11300 N 1046.49 -1.27344 -0.928501 0
M  V30 11301 C 1047.72 -1.16557 -1.7155 0
M  V30 11302 C 1048.14 0.274044 -1.86093 0
M  V30 11303 O 1047.5 1.19847 -1.36038 0
M  V30 11304 C 1047.55 -1.85332 -3.09329 0
M  V30 11305 O 1046.65 -1.15074 -3.9602 0
M  V30 11306 H 1046 -0.405423 -0.525859 0
M  V30 11307 H 1048.53 -1.68399 -1.16202 0
M  V30 11308 H 1048.54 -1.92659 -3.59648 0
M  V30 11309 H 1047.21 -2.90056 -2.98061 0
M  V30 11310 H 1045.79 -1.1581 -3.54461 0
M  V30 11311 N 1047.97 1.13488 -1.09353 0
M  V30 11312 C 1049.38 1.66299 -0.848609 0
M  V30 11313 C 1049.73 1.86044 0.623051 0
M  V30 11314 O 1048.86 1.57871 1.48005 0
M  V30 11315 C 1049.45 3.02087 -1.53391 0
M  V30 11316 C 1048.01 3.51893 -1.33598 0
M  V30 11317 C 1047.16 2.27154 -1.59048 0
M  V30 11318 H 1050.11 0.974208 -1.25279 0
M  V30 11319 H 1050.13 3.68018 -0.966587 0
M  V30 11320 H 1049.64 2.87684 -2.60498 0
M  V30 11321 H 1047.75 3.715 -0.286045 0
M  V30 11322 H 1047.86 4.32059 -2.0703 0
M  V30 11323 H 1046.22 2.33708 -1.01256 0
M  V30 11324 H 1047.01 2.15317 -2.67383 0
M  V30 11325 N 1049.45 0.880621 1.30701 0
M  V30 11326 C 1050.38 0.360251 2.30704 0
M  V30 11327 C 1051.36 -0.554572 1.60806 0
M  V30 11328 O 1052.55 -0.469345 1.88443 0
M  V30 11329 C 1049.68 -0.429888 3.44629 0
M  V30 11330 C 1048.63 0.392786 4.26194 0
M  V30 11331 C 1047.96 -0.52369 5.32129 0
M  V30 11332 C 1049.26 1.63258 4.96129 0
M  V30 11333 H 1050.95 1.19591 2.74478 0
M  V30 11334 H 1048.5 0.576508 1.31956 0
M  V30 11335 H 1050.45 -0.804532 4.13649 0
M  V30 11336 H 1049.17 -1.29916 2.99649 0
M  V30 11337 H 1047.83 0.749514 3.58856 0
M  V30 11338 H 1047.48 -1.39054 4.83397 0
M  V30 11339 H 1047.18 0.0229272 5.87596 0
M  V30 11340 H 1048.71 -0.894946 6.04006 0
M  V30 11341 H 1050.12 1.32877 5.57689 0
M  V30 11342 H 1048.52 2.11906 5.61441 0
M  V30 11343 H 1049.59 2.37944 4.22505 0
M  V30 11344 N 1050.93 -1.4397 0.641131 0
M  V30 11345 C 1052.15 -2.06818 0.155318 0
M  V30 11346 C 1052.58 -1.47665 -1.16519 0
M  V30 11347 O 1051.94 -0.58192 -1.71707 0
M  V30 11348 C 1051.99 -3.60542 0.0647537 0
M  V30 11349 O 1051.09 -4.00674 -0.976447 0
M  V30 11350 H 1050.43 -0.657962 0.0893404 0
M  V30 11351 H 1052.96 -1.84678 0.88064 0
M  V30 11352 H 1052.97 -4.07816 -0.122552 0
M  V30 11353 H 1051.65 -4.02975 1.02878 0
M  V30 11354 H 1050.22 -3.65013 -0.762905 0
M  V30 11355 N 1052.41 -0.382291 -1.52893 0
M  V30 11356 C 1053.65 0.202133 -2.01489 0
M  V30 11357 C 1053.98 1.47399 -1.26901 0
M  V30 11358 O 1053.24 1.92439 -0.355771 0
M  V30 11359 C 1053.54 0.523437 -3.53546 0
M  V30 11360 C 1053.2 -0.656042 -4.46102 0
M  V30 11361 C 1051.86 -0.979633 -4.71123 0
M  V30 11362 C 1054.22 -1.44545 -5.00756 0
M  V30 11363 C 1051.54 -2.0943 -5.48047 0
M  V30 11364 C 1053.9 -2.55066 -5.78899 0
M  V30 11365 C 1052.56 -2.87942 -6.02201 0
M  V30 11366 H 1051.83 0.0739659 -0.737299 0
M  V30 11367 H 1054.48 -0.518196 -1.84356 0
M  V30 11368 H 1052.78 1.325 -3.68715 0
M  V30 11369 H 1054.48 0.988148 -3.88634 0
M  V30 11370 H 1051.07 -0.393818 -4.26787 0
M  V30 11371 H 1055.25 -1.20869 -4.81357 0
M  V30 11372 H 1050.51 -2.3528 -5.64317 0
M  V30 11373 H 1054.68 -3.1664 -6.20252 0
M  V30 11374 H 1052.31 -3.74435 -6.61591 0
M  V30 11375 N 1053.89 1.57202 -0.111913 0
M  V30 11376 C 1054.82 2.11995 0.871242 0
M  V30 11377 C 1055.83 1.06102 1.23475 0
M  V30 11378 O 1057.02 1.33497 1.18494 0
M  V30 11379 C 1054.12 2.59874 2.17528 0
M  V30 11380 C 1053.29 3.89788 1.98455 0
M  V30 11381 C 1052.35 4.23339 3.12523 0
M  V30 11382 O 1051.38 4.92277 2.85748 0
M  V30 11383 N 1052.58 3.80089 4.38762 0
M  V30 11384 H 1055.34 2.96976 0.403157 0
M  V30 11385 H 1052.91 1.61737 0.0727159 0
M  V30 11386 H 1054.9 2.79354 2.9282 0
M  V30 11387 H 1053.47 1.79812 2.55707 0
M  V30 11388 H 1052.69 3.79288 1.07396 0
M  V30 11389 H 1053.98 4.74748 1.83007 0
M  V30 11390 H 1053.37 3.24473 4.63394 0
M  V30 11391 H 1051.93 4.04691 5.10949 0
M  V30 11392 N 1055.36 -0.161842 1.56767 0
M  V30 11393 C 1056.59 -0.892247 1.86672 0
M  V30 11394 C 1057.01 -1.75407 0.69841 0
M  V30 11395 O 1056.36 -1.7945 -0.332251 0
M  V30 11396 C 1056.41 -1.7612 3.15696 0
M  V30 11397 O 1056.14 -0.934131 4.28025 0
M  V30 11398 C 1057.64 -2.60046 3.59014 0
M  V30 11399 H 1054.86 -0.258747 0.619105 0
M  V30 11400 H 1057.4 -0.159089 2.0388 0
M  V30 11401 H 1055.56 -2.44759 3.00286 0
M  V30 11402 H 1055.97 -1.52931 5.01709 0
M  V30 11403 H 1057.44 -3.16618 4.5217 0
M  V30 11404 H 1057.92 -3.35374 2.83586 0
M  V30 11405 H 1058.53 -1.96724 3.77067 0
M  V30 11406 N 1056.84 -1.516 -0.430713 0
M  V30 11407 C 1058.26 -1.39923 -0.767706 0
M  V30 11408 C 1058.46 -0.486756 -1.95532 0
M  V30 11409 O 1057.51 0.0555965 -2.52439 0
M  V30 11410 C 1058.83 -2.82074 -1.04187 0
M  V30 11411 C 1060.37 -2.9127 -1.1459 0
M  V30 11412 C 1060.85 -4.34342 -1.45295 0
M  V30 11413 N 1062.34 -4.37479 -1.52206 0
M  V30 11414 C 1063.08 -5.45219 -1.77549 0
M  V30 11415 N 1062.57 -6.6311 -2.0064 0
M  V30 11416 N 1064.36 -5.32707 -1.79386 0
M  V30 11417 H 1056.52 -2.09474 0.351351 0
M  V30 11418 H 1058.78 -0.943247 0.0948151 0
M  V30 11419 H 1058.48 -3.50868 -0.241837 0
M  V30 11420 H 1058.36 -3.21805 -1.96777 0
M  V30 11421 H 1060.75 -2.2267 -1.93655 0
M  V30 11422 H 1060.83 -2.55026 -0.198854 0
M  V30 11423 H 1060.47 -5.03494 -0.667559 0
M  V30 11424 H 1060.4 -4.68105 -2.41217 0
M  V30 11425 H 1062.89 -3.52488 -1.36237 0
M  V30 11426 H 1063.2 -7.41012 -2.19366 0
M  V30 11427 H 1061.55 -6.66214 -1.97948 0
M  V30 11428 H 1064.74 -4.39589 -1.60869 0
M  V30 11429 H 1064.91 -6.16752 -1.98799 0
M  V30 11430 N 1058.32 0.686584 -1.41858 0
M  V30 11431 C 1059.25 1.81264 -1.47193 0
M  V30 11432 C 1060.23 1.66875 -0.329657 0
M  V30 11433 O 1061.42 1.86473 -0.542347 0
M  V30 11434 C 1058.55 3.19472 -1.36216 0
M  V30 11435 C 1057.5 3.4858 -2.48347 0
M  V30 11436 C 1056.83 4.86239 -2.22432 0
M  V30 11437 C 1058.13 3.46653 -3.90678 0
M  V30 11438 H 1059.82 1.77057 -2.41436 0
M  V30 11439 H 1057.37 0.850415 -1.16206 0
M  V30 11440 H 1059.32 3.97969 -1.38558 0
M  V30 11441 H 1058.04 3.24327 -0.384611 0
M  V30 11442 H 1056.7 2.72437 -2.45303 0
M  V30 11443 H 1056.35 4.8773 -1.22999 0
M  V30 11444 H 1056.05 5.06677 -2.97577 0
M  V30 11445 H 1057.57 5.67034 -2.26505 0
M  V30 11446 H 1058.99 4.15139 -3.95389 0
M  V30 11447 H 1057.38 3.78625 -4.65578 0
M  V30 11448 H 1058.45 2.45451 -4.18189 0
M  V30 11449 N 1059.8 1.27835 0.921735 0
M  V30 11450 C 1061.21 1.13151 1.48505 0
M  V30 11451 C 1061.56 -0.281373 1.94172 0
M  V30 11452 O 1060.68 -1.17487 1.8173 0
M  V30 11453 C 1061.28 2.04792 2.69899 0
M  V30 11454 C 1059.84 1.94196 3.22436 0
M  V30 11455 C 1058.99 1.96999 1.95158 0
M  V30 11456 H 1061.94 1.40641 0.735241 0
M  V30 11457 H 1061.96 1.60724 3.44889 0
M  V30 11458 H 1061.47 3.07615 2.36631 0
M  V30 11459 H 1059.57 0.943805 3.60448 0
M  V30 11460 H 1059.68 2.80744 3.88226 0
M  V30 11461 H 1058.05 1.41301 2.11911 0
M  V30 11462 H 1058.83 3.01487 1.64196 0
M  V30 11463 N 1061.28 -1.12907 1.09954 0
M  V30 11464 C 1062.52 -1.83941 0.837255 0
M  V30 11465 C 1062.84 -1.84234 -0.638984 0
M  V30 11466 O 1062.11 -1.30193 -1.46378 0
M  V30 11467 H 1060.69 -0.681115 0.306743 0
M  V30 11468 H 1063.36 -1.36743 1.38879 0
M  V30 11469 H 1062.45 -2.88289 1.19565 0
M  V30 11470 N 1062.75 -0.88754 -1.30232 0
M  V30 11471 C 1064.17 -0.581904 -1.48614 0
M  V30 11472 C 1064.37 0.879711 -1.81282 0
M  V30 11473 O 1063.43 1.66076 -1.90198 0
M  V30 11474 C 1064.74 -1.49726 -2.60773 0
M  V30 11475 C 1066.29 -1.50117 -2.74653 0
M  V30 11476 C 1066.76 -2.40251 -3.89927 0
M  V30 11477 N 1068.25 -2.38229 -3.97242 0
M  V30 11478 C 1068.99 -3.04682 -4.85754 0
M  V30 11479 N 1068.48 -3.80369 -5.79043 0
M  V30 11480 N 1070.28 -2.93901 -4.79144 0
M  V30 11481 H 1062.43 -1.83304 -1.073 0
M  V30 11482 H 1064.69 -0.78477 -0.531826 0
M  V30 11483 H 1064.4 -2.5381 -2.43462 0
M  V30 11484 H 1064.27 -1.20874 -3.57308 0
M  V30 11485 H 1066.66 -0.467832 -2.91368 0
M  V30 11486 H 1066.74 -1.83001 -1.7873 0
M  V30 11487 H 1066.38 -3.43671 -3.73969 0
M  V30 11488 H 1066.31 -2.04682 -4.85194 0
M  V30 11489 H 1068.8 -1.83229 -3.30508 0
M  V30 11490 H 1069.12 -4.28159 -6.4335 0
M  V30 11491 H 1067.46 -3.84477 -5.78967 0
M  V30 11492 H 1070.65 -2.34296 -4.05245 0
M  V30 11493 H 1070.83 -3.45967 -5.47915 0
M  V30 11494 N 1064.23 1.43628 -0.648757 0
M  V30 11495 C 1065.65 1.56442 -0.315921 0
M  V30 11496 C 1065.85 1.63322 1.18018 0
M  V30 11497 O 1064.9 1.58585 1.96487 0
M  V30 11498 C 1066.22 2.82751 -1.02335 0
M  V30 11499 C 1067.77 2.96488 -1.00318 0
M  V30 11500 C 1068.24 4.25623 -1.69142 0
M  V30 11501 N 1069.73 4.32477 -1.65885 0
M  V30 11502 C 1070.47 5.31154 -2.16016 0
M  V30 11503 N 1069.96 6.36135 -2.74415 0
M  V30 11504 N 1071.76 5.22778 -2.06541 0
M  V30 11505 H 1063.91 1.37405 -1.61968 0
M  V30 11506 H 1066.17 0.65962 -0.680886 0
M  V30 11507 H 1065.88 2.83714 -2.07844 0
M  V30 11508 H 1065.75 3.72836 -0.572114 0
M  V30 11509 H 1068.14 2.95068 0.0434919 0
M  V30 11510 H 1068.22 2.07704 -1.49307 0
M  V30 11511 H 1067.86 4.27804 -2.73763 0
M  V30 11512 H 1067.79 5.13296 -1.17622 0
M  V30 11513 H 1070.28 3.57232 -1.23264 0
M  V30 11514 H 1070.6 7.07743 -3.10355 0
M  V30 11515 H 1068.94 6.36771 -2.78474 0
M  V30 11516 H 1072.13 4.39678 -1.60625 0
M  V30 11517 H 1072.3 5.99523 -2.45919 0
M  V30 11518 N 1065.71 0.390394 1.52688 0
M  V30 11519 C 1066.96 -0.191067 2.01195 0
M  V30 11520 C 1067.28 -1.47229 1.27862 0
M  V30 11521 O 1066.55 -1.91793 0.399007 0
M  V30 11522 H 1065.13 -0.073596 0.743366 0
M  V30 11523 H 1067.79 0.522334 1.8777 0
M  V30 11524 H 1066.89 -0.40051 3.0952 0
M  V30 11525 N 1067.19 -1.57141 0.120249 0
M  V30 11526 C 1068.6 -1.82256 -0.404931 0
M  V30 11527 C 1068.95 -1.03748 -1.66526 0
M  V30 11528 O 1068.08 -0.274456 -2.14653 0
M  V30 11529 C 1068.67 -3.30588 -0.741431 0
M  V30 11530 C 1067.23 -3.56379 -1.21124 0
M  V30 11531 C 1066.38 -2.76421 -0.220569 0
M  V30 11532 H 1069.33 -1.54897 0.345361 0
M  V30 11533 H 1069.35 -3.45284 -1.59872 0
M  V30 11534 H 1068.86 -3.87701 0.176036 0
M  V30 11535 H 1066.96 -3.04625 -2.14556 0
M  V30 11536 H 1067.07 -4.64952 -1.1557 0
M  V30 11537 H 1065.44 -2.44666 -0.707857 0
M  V30 11538 H 1066.22 -3.36294 0.690018 0
M  V30 11539 N 1068.67 0.153526 -1.5685 0
M  V30 11540 C 1069.94 0.895545 -1.73895 0
M  V30 11541 C 1070.32 1.99625 -0.686504 0
M  V30 11542 O 1069.67 2.26579 0.2957 0
M  V30 11543 C 1069.88 1.44399 -3.17726 0
M  V30 11544 C 1071.23 1.90996 -3.79217 0
M  V30 11545 O 1072.25 1.54155 -3.21115 0
M  V30 11546 O 1071.11 2.58917 -4.81274 0
M  V30 11547 H 1068.21 0.422755 -0.710779 0
M  V30 11548 H 1070.75 0.139961 -1.69122 0
M  V30 11549 H 1069.52 0.652635 -3.85819 0
M  V30 11550 H 1069.15 2.26326 -3.26898 0
M  V30 11551 N 1070.14 1.51827 0.422667 0
M  V30 11552 C 1071.56 1.40328 0.760275 0
M  V30 11553 C 1071.76 0.497119 1.95272 0
M  V30 11554 O 1070.82 -0.0422083 2.52465 0
M  V30 11555 C 1072.13 2.82622 1.02689 0
M  V30 11556 C 1073.68 2.91874 1.13044 0
M  V30 11557 C 1074.15 4.35107 1.4299 0
M  V30 11558 N 1075.64 4.3828 1.49883 0
M  V30 11559 C 1076.38 5.46153 1.74655 0
M  V30 11560 N 1075.87 6.64165 1.9712 0
M  V30 11561 N 1077.67 5.33651 1.76558 0
M  V30 11562 H 1069.82 2.09285 -0.362455 0
M  V30 11563 H 1072.08 0.94273 -0.0998161 0
M  V30 11564 H 1071.79 3.50991 0.223226 0
M  V30 11565 H 1071.66 3.22844 1.95068 0
M  V30 11566 H 1074.05 2.23694 1.92471 0
M  V30 11567 H 1074.13 2.55128 0.185326 0
M  V30 11568 H 1073.77 5.03841 0.640848 0
M  V30 11569 H 1073.7 4.69377 2.38731 0
M  V30 11570 H 1076.19 3.53206 1.34366 0
M  V30 11571 H 1076.51 7.42165 2.15434 0
M  V30 11572 H 1074.85 6.67255 1.94413 0
M  V30 11573 H 1078.04 4.40436 1.58536 0
M  V30 11574 H 1078.22 6.17798 1.95525 0
M  V30 11575 N 1071.62 -0.679052 1.4222 0
M  V30 11576 C 1073.03 -1.25953 1.37815 0
M  V30 11577 C 1073.38 -1.96077 0.0693215 0
M  V30 11578 O 1072.51 -1.99765 -0.832047 0
M  V30 11579 C 1073.1 -2.29063 2.49631 0
M  V30 11580 C 1071.66 -2.82647 2.48571 0
M  V30 11581 C 1070.81 -1.56909 2.28637 0
M  V30 11582 H 1073.76 -0.472714 1.51496 0
M  V30 11583 H 1073.78 -3.10708 2.19638 0
M  V30 11584 H 1073.29 -1.77996 3.44876 0
M  V30 11585 H 1071.4 -3.37846 1.57132 0
M  V30 11586 H 1071.51 -3.31952 3.45463 0
M  V30 11587 H 1069.87 -1.83323 1.76819 0
M  V30 11588 H 1070.66 -1.07814 3.25931 0
M  V30 11589 N 1073.1 -1.28322 -0.914942 0
M  V30 11590 C 1074.01 -1.13993 -2.05043 0
M  V30 11591 C 1075.03 -0.0667921 -1.73872 0
M  V30 11592 O 1076.2 -0.275845 -1.99502 0
M  V30 11593 C 1073.27 -0.801856 -3.373 0
M  V30 11594 C 1072.33 -1.95723 -3.82088 0
M  V30 11595 C 1071.56 -1.63519 -5.08033 0
M  V30 11596 O 1071.78 -0.54899 -5.67752 0
M  V30 11597 O 1070.72 -2.47844 -5.48504 0
M  V30 11598 H 1074.54 -2.09313 -2.2005 0
M  V30 11599 H 1072.13 -1.0763 -1.03616 0
M  V30 11600 H 1074.01 -0.627214 -4.16706 0
M  V30 11601 H 1072.69 0.121696 -3.23471 0
M  V30 11602 H 1071.59 -2.18702 -3.03514 0
M  V30 11603 H 1072.93 -2.86144 -4.00478 0
M  V30 11604 N 1074.58 1.12322 -1.10551 0
M  V30 11605 C 1075.83 1.83495 -0.846998 0
M  V30 11606 C 1076.15 1.8457 0.629205 0
M  V30 11607 O 1075.42 1.30968 1.45686 0
M  V30 11608 H 1074 0.679479 -0.310351 0
M  V30 11609 H 1076.66 1.36004 -1.39602 0
M  V30 11610 H 1075.76 2.87651 -1.21092 0
M  V30 11611 N 1076.06 0.894434 1.2976 0
M  V30 11612 C 1077.31 0.513673 1.95049 0
M  V30 11613 C 1077.62 -0.943744 1.71327 0
M  V30 11614 O 1078.82 -1.43179 2.30678 0
M  V30 11615 C 1077.28 0.867751 3.49282 0
M  V30 11616 C 1076.89 2.34358 3.81812 0
M  V30 11617 C 1078.63 0.556645 4.20835 0
M  V30 11618 C 1076.54 2.63879 5.29265 0
M  V30 11619 H 1075.47 0.188375 0.73009 0
M  V30 11620 H 1078.12 1.09071 1.47566 0
M  V30 11621 H 1076.5 0.2197 3.9539 0
M  V30 11622 H 1077.68 3.03674 3.46581 0
M  V30 11623 H 1075.99 2.62318 3.23386 0
M  V30 11624 H 1078.59 0.754123 5.29355 0
M  V30 11625 H 1078.93 -0.504526 4.13231 0
M  V30 11626 H 1079.46 1.1623 3.80441 0
M  V30 11627 H 1076.2 3.68774 5.41928 0
M  V30 11628 H 1075.72 1.99182 5.65762 0
M  V30 11629 H 1077.4 2.49871 5.96803 0
M  V30 11630 N 1077.53 -1.43282 0.656365 0
M  V30 11631 C 1078.44 -2.34576 -0.033864 0
M  V30 11632 C 1079.46 -1.5406 -0.808793 0
M  V30 11633 O 1080.64 -1.867 -0.755322 0
M  V30 11634 C 1077.7 -3.32378 -0.986197 0
M  V30 11635 C 1076.76 -4.28797 -0.207851 0
M  V30 11636 C 1076 -5.21927 -1.11482 0
M  V30 11637 O 1076.22 -5.19554 -2.35414 0
M  V30 11638 O 1075.15 -5.99045 -0.585536 0
M  V30 11639 H 1078.98 -2.95099 0.717668 0
M  V30 11640 H 1076.56 -1.43475 0.416556 0
M  V30 11641 H 1078.45 -3.9251 -1.53341 0
M  V30 11642 H 1077.12 -2.74354 -1.7179 0
M  V30 11643 H 1076.03 -3.72134 0.383022 0
M  V30 11644 H 1077.36 -4.89811 0.48435 0
M  V30 11645 N 1079.01 -0.398486 -1.52479 0
M  V30 11646 C 1079.92 0.439328 -2.3045 0
M  V30 11647 C 1080.94 1.06322 -1.37738 0
M  V30 11648 O 1082.12 1.06704 -1.7081 0
M  V30 11649 C 1079.18 1.54655 -3.10294 0
M  V30 11650 C 1078.24 0.946824 -4.18729 0
M  V30 11651 C 1077.47 2.00129 -4.94757 0
M  V30 11652 O 1077.7 3.2178 -4.70971 0
M  V30 11653 O 1076.63 1.61345 -5.79872 0
M  V30 11654 H 1080.46 -0.196118 -3.03066 0
M  V30 11655 H 1078.04 -0.161961 -1.4852 0
M  V30 11656 H 1079.92 2.18958 -3.60049 0
M  V30 11657 H 1078.6 2.1668 -2.40482 0
M  V30 11658 H 1077.51 0.266802 -3.73147 0
M  V30 11659 H 1078.84 0.370664 -4.90802 0
M  V30 11660 N 1080.49 1.57075 -0.12858 0
M  V30 11661 C 1081.4 2.19369 0.831533 0
M  V30 11662 C 1082.42 1.17258 1.28555 0
M  V30 11663 O 1083.59 1.49766 1.34656 0
M  V30 11664 C 1080.66 2.78846 2.06024 0
M  V30 11665 C 1079.72 3.96024 1.65722 0
M  V30 11666 C 1078.95 4.52655 2.82735 0
M  V30 11667 O 1079.18 4.08175 3.98434 0
M  V30 11668 O 1078.11 5.43198 2.59268 0
M  V30 11669 H 1081.94 3.01887 0.331352 0
M  V30 11670 H 1079.52 1.49081 0.0975226 0
M  V30 11671 H 1081.4 3.16721 2.77967 0
M  V30 11672 H 1080.08 1.99353 2.5503 0
M  V30 11673 H 1078.98 3.62899 0.908574 0
M  V30 11674 H 1080.32 4.76981 1.21449 0
M  V30 11675 N 1081.97 -0.145205 1.5693 0
M  V30 11676 C 1083.22 -0.855822 1.83085 0
M  V30 11677 C 1083.54 -1.81625 0.709747 0
M  V30 11678 O 1082.81 -1.94052 -0.268456 0
M  V30 11679 H 1081.39 -0.319032 0.675446 0
M  V30 11680 H 1084.05 -0.138781 1.94405 0
M  V30 11681 H 1083.15 -1.41698 2.78079 0
M  V30 11682 N 1083.45 -1.52049 -0.414609 0
M  V30 11683 C 1084.7 -1.65511 -1.15977 0
M  V30 11684 C 1085.02 -0.384703 -1.91168 0
M  V30 11685 O 1084.29 0.600247 -1.86477 0
M  V30 11686 H 1082.87 -0.610039 -0.431116 0
M  V30 11687 H 1085.53 -1.8907 -0.473139 0
M  V30 11688 H 1084.62 -2.4936 -1.87686 0
M  V30 11689 N 1084.93 0.6715 -1.42579 0
M  V30 11690 C 1085.84 1.81435 -1.48723 0
M  V30 11691 C 1086.85 1.69895 -0.375716 0
M  V30 11692 O 1088.03 1.91388 -0.627115 0
M  V30 11693 C 1085.09 3.17599 -1.39038 0
M  V30 11694 C 1084.15 3.41071 -2.60709 0
M  V30 11695 C 1083.39 4.7074 -2.51476 0
M  V30 11696 O 1083.61 5.48868 -1.55243 0
M  V30 11697 O 1082.54 4.95528 -3.41666 0
M  V30 11698 H 1086.37 1.79206 -2.45191 0
M  V30 11699 H 1083.95 0.827666 -1.24379 0
M  V30 11700 H 1085.84 3.98847 -1.3601 0
M  V30 11701 H 1084.51 3.20458 -0.456966 0
M  V30 11702 H 1083.42 2.59659 -2.69311 0
M  V30 11703 H 1084.75 3.43045 -3.5296 0
M  V30 11704 N 1086.4 1.28806 0.908124 0
M  V30 11705 C 1087.82 1.06634 1.18749 0
M  V30 11706 C 1088.02 -0.187729 2.00624 0
M  V30 11707 O 1087.08 -0.88784 2.36376 0
M  V30 11708 C 1088.39 2.31703 1.91661 0
M  V30 11709 C 1089.94 2.36939 2.04521 0
M  V30 11710 C 1090.41 3.61789 2.80843 0
M  V30 11711 N 1091.9 3.62462 2.88402 0
M  V30 11712 C 1092.64 4.55746 3.47971 0
M  V30 11713 N 1092.13 5.59353 4.08774 0
M  V30 11714 N 1093.93 4.43331 3.45564 0
M  V30 11715 H 1086.08 2.09299 0.36164 0
M  V30 11716 H 1088.34 0.921479 0.222668 0
M  V30 11717 H 1088.05 3.23096 1.38931 0
M  V30 11718 H 1087.92 2.38556 2.92183 0
M  V30 11719 H 1090.31 1.4604 2.5643 0
M  V30 11720 H 1090.39 2.34077 1.03159 0
M  V30 11721 H 1090.03 4.53035 2.29612 0
M  V30 11722 H 1089.96 3.61907 3.82532 0
M  V30 11723 H 1092.45 2.87544 2.45208 0
M  V30 11724 H 1092.77 6.26668 4.52224 0
M  V30 11725 H 1091.11 5.63173 4.07261 0
M  V30 11726 H 1094.3 3.61587 2.97276 0
M  V30 11727 H 1094.48 5.16216 3.91695 0
M  V30 11728 N 1087.88 -1.11734 1.11145 0
M  V30 11729 C 1089.16 -1.79795 0.770261 0
M  V30 11730 C 1089.54 -1.97624 -0.742158 0
M  V30 11731 O 1088.89 -1.55847 -1.67105 0
M  V30 11732 C 1089.1 -3.13684 1.52982 0
M  V30 11733 C 1090.44 -3.88771 1.70711 0
M  V30 11734 O 1091.47 -3.23363 1.49381 0
M  V30 11735 O 1090.33 -5.06134 2.06132 0
M  V30 11736 H 1087.42 -0.778617 0.27872 0
M  V30 11737 H 1089.97 -1.18504 1.2147 0
M  V30 11738 H 1088.74 -2.96043 2.55879 0
M  V30 11739 H 1088.36 -3.82687 1.07873 0
M  V30 11740 N 1089.36 -0.901303 -1.29284 0
M  V30 11741 C 1090.78 -0.597634 -1.47988 0
M  V30 11742 C 1090.98 0.860434 -1.82205 0
M  V30 11743 O 1090.03 1.64049 -1.91948 0
M  V30 11744 C 1091.34 -1.52484 -2.5917 0
M  V30 11745 C 1092.89 -1.53021 -2.73045 0
M  V30 11746 C 1093.37 -2.44373 -3.87357 0
M  V30 11747 N 1094.86 -2.42429 -3.94693 0
M  V30 11748 C 1095.59 -3.09817 -4.82495 0
M  V30 11749 N 1095.09 -3.86489 -5.74976 0
M  V30 11750 N 1096.88 -2.98966 -4.76 0
M  V30 11751 H 1089.03 -1.84432 -1.0535 0
M  V30 11752 H 1091.3 -0.790367 -0.523473 0
M  V30 11753 H 1091 -2.56378 -2.40756 0
M  V30 11754 H 1090.88 -1.24657 -3.56006 0
M  V30 11755 H 1093.26 -0.498709 -2.90855 0
M  V30 11756 H 1093.34 -1.84886 -1.76779 0
M  V30 11757 H 1092.99 -3.47618 -3.70302 0
M  V30 11758 H 1092.92 -2.09817 -4.82995 0
M  V30 11759 H 1095.41 -1.86724 -3.28546 0
M  V30 11760 H 1095.72 -4.34959 -6.38773 0
M  V30 11761 H 1094.07 -3.90596 -5.74857 0
M  V30 11762 H 1097.26 -2.38581 -4.02737 0
M  V30 11763 H 1097.43 -3.51758 -5.44215 0
M  V30 11764 N 1090.84 1.42931 -0.663954 0
M  V30 11765 C 1092.11 1.95284 -0.111174 0
M  V30 11766 C 1092.49 1.60484 1.37142 0
M  V30 11767 O 1091.84 0.895425 2.10225 0
M  V30 11768 C 1092.05 3.47046 -0.368789 0
M  V30 11769 C 1093.4 4.23679 -0.279473 0
M  V30 11770 O 1094.42 3.54918 -0.301937 0
M  V30 11771 O 1093.28 5.46087 -0.21236 0
M  V30 11772 H 1090.38 0.826993 0.00341718 0
M  V30 11773 H 1092.92 1.52816 -0.737935 0
M  V30 11774 H 1091.7 3.65541 -1.39626 0
M  V30 11775 H 1091.32 3.96537 0.290514 0
M  V30 11776 N 1092.32 0.406567 1.52266 0
M  V30 11777 C 1093.73 0.0573228 1.59497 0
M  V30 11778 C 1093.93 -1.43005 1.41957 0
M  V30 11779 O 1092.99 -2.19659 1.24523 0
M  V30 11780 C 1094.3 0.549947 2.95628 0
M  V30 11781 C 1095.85 0.5077 3.08855 0
M  V30 11782 C 1096.32 0.976792 4.47463 0
M  V30 11783 N 1097.81 0.933508 4.53696 0
M  V30 11784 C 1098.55 1.26769 5.59211 0
M  V30 11785 N 1098.05 1.6732 6.72292 0
M  V30 11786 N 1099.84 1.18782 5.49406 0
M  V30 11787 H 1091.99 1.37468 1.61914 0
M  V30 11788 H 1094.25 0.564562 0.76156 0
M  V30 11789 H 1093.96 1.58943 3.13736 0
M  V30 11790 H 1093.83 -0.0417767 3.77177 0
M  V30 11791 H 1096.22 -0.522728 2.90433 0
M  V30 11792 H 1096.3 1.13545 2.29219 0
M  V30 11793 H 1095.94 2.00554 4.66627 0
M  V30 11794 H 1095.87 0.325885 5.25591 0
M  V30 11795 H 1098.37 0.635333 3.72521 0
M  V30 11796 H 1098.68 1.91137 7.4879 0
M  V30 11797 H 1097.02 1.71221 6.73579 0
M  V30 11798 H 1100.21 0.869906 4.59946 0
M  V30 11799 H 1100.39 1.45157 6.31533 0
M  V30 11800 N 1093.79 -1.57004 0.136909 0
M  V30 11801 C 1095.02 -2.00587 -0.527209 0
M  V30 11802 C 1095.44 -1.01628 -1.58283 0
M  V30 11803 O 1094.8 0.00946934 -1.81298 0
M  V30 11804 C 1094.85 -3.42967 -1.11384 0
M  V30 11805 O 1093.95 -3.46973 -2.22898 0
M  V30 11806 H 1093.3 -0.651155 -0.129976 0
M  V30 11807 H 1095.83 -2.03296 0.230667 0
M  V30 11808 H 1095.84 -3.81555 -1.44499 0
M  V30 11809 H 1094.51 -4.14502 -0.340736 0
M  V30 11810 H 1093.09 -3.20219 -1.91087 0
M  V30 11811 N 1095.27 0.136881 -1.57004 0
M  V30 11812 C 1096.5 0.866405 -1.88436 0
M  V30 11813 C 1096.92 1.73483 -0.727006 0
M  V30 11814 O 1096.28 1.78398 0.323094 0
M  V30 11815 C 1096.33 1.69059 -3.18514 0
M  V30 11816 O 1095.43 2.79584 -3.03161 0
M  V30 11817 H 1094.77 0.240709 -0.618834 0
M  V30 11818 H 1097.3 0.124653 -2.0422 0
M  V30 11819 H 1097.31 2.08353 -3.50789 0
M  V30 11820 H 1095.99 1.05296 -4.0235 0
M  V30 11821 H 1094.57 2.43623 -2.82315 0
M  V30 11822 N 1096.75 1.52266 0.40654 0
M  V30 11823 C 1098.16 1.58587 0.985241 0
M  V30 11824 C 1098.51 0.427955 1.91476 0
M  V30 11825 O 1097.64 -0.451341 2.11641 0
M  V30 11826 C 1098.23 2.87426 1.79365 0
M  V30 11827 C 1096.79 2.96217 2.32233 0
M  V30 11828 C 1095.94 2.53548 1.12288 0
M  V30 11829 H 1098.89 1.57598 0.186685 0
M  V30 11830 H 1098.91 2.72925 2.65127 0
M  V30 11831 H 1098.42 3.71682 1.11687 0
M  V30 11832 H 1096.52 2.1646 3.03275 0
M  V30 11833 H 1096.64 4.00511 2.62922 0
M  V30 11834 H 1095 2.07457 1.47763 0
M  V30 11835 H 1095.78 3.40181 0.461731 0
M  V30 11836 N 1098.23 -0.663929 1.42933 0
M  V30 11837 C 1099.16 -1.78899 1.50058 0
M  V30 11838 C 1100.14 -1.66329 0.356164 0
M  V30 11839 O 1101.32 -1.85587 0.571944 0
M  V30 11840 C 1098.45 -3.17265 1.41281 0
M  V30 11841 C 1097.41 -3.44584 2.53861 0
M  V30 11842 C 1096.73 -4.82638 2.3014 0
M  V30 11843 C 1098.03 -3.40394 3.96143 0
M  V30 11844 H 1099.73 -1.73194 2.44222 0
M  V30 11845 H 1097.27 -0.83182 1.17545 0
M  V30 11846 H 1099.23 -3.95715 1.44872 0
M  V30 11847 H 1097.95 -3.23675 0.43616 0
M  V30 11848 H 1096.61 -2.685 2.49606 0
M  V30 11849 H 1096.26 -4.85711 1.30743 0
M  V30 11850 H 1095.96 -5.01879 3.056 0
M  V30 11851 H 1097.48 -5.63359 2.35497 0
M  V30 11852 H 1098.9 -4.08796 4.01943 0
M  V30 11853 H 1097.29 -3.7117 4.71543 0
M  V30 11854 H 1098.36 -2.38767 4.22041 0
M  V30 11855 N 1099.71 -1.29285 -0.901281 0
M  V30 11856 C 1100.95 -1.17339 -1.65407 0
M  V30 11857 C 1101.29 0.274834 -1.92245 0
M  V30 11858 O 1100.56 1.19865 -1.53176 0
M  V30 11859 C 1100.84 -1.98547 -3.00418 0
M  V30 11860 C 1100.7 -3.51501 -2.80655 0
M  V30 11861 C 1102.02 -1.81062 -4.01129 0
M  V30 11862 H 1099.13 -0.427624 -0.600255 0
M  V30 11863 H 1101.78 -1.58741 -1.0441 0
M  V30 11864 H 1099.93 -1.63366 -3.52482 0
M  V30 11865 H 1101.6 -3.96655 -2.35505 0
M  V30 11866 H 1099.84 -3.76504 -2.15469 0
M  V30 11867 H 1100.51 -4.03593 -3.76585 0
M  V30 11868 H 1102.99 -2.11788 -3.58169 0
M  V30 11869 H 1101.86 -2.40235 -4.93536 0
M  V30 11870 H 1102.13 -0.765388 -4.35424 0
M  V30 11871 N 1101.18 1.11143 -1.11736 0
M  V30 11872 C 1102.46 1.79384 -0.779785 0
M  V30 11873 C 1102.84 1.98015 0.731668 0
M  V30 11874 O 1102.19 1.56731 1.66276 0
M  V30 11875 C 1102.4 3.12868 -1.54643 0
M  V30 11876 C 1103.75 3.8786 -1.7277 0
M  V30 11877 O 1104.77 3.22566 -1.51094 0
M  V30 11878 O 1103.63 5.05034 -2.08813 0
M  V30 11879 H 1100.72 0.777128 -0.282845 0
M  V30 11880 H 1103.27 1.17858 -1.22096 0
M  V30 11881 H 1102.04 2.94682 -2.57446 0
M  V30 11882 H 1101.67 3.82109 -1.09901 0
M  V30 11883 N 1102.66 0.908147 1.28804 0
M  V30 11884 C 1103.91 0.53734 1.94826 0
M  V30 11885 C 1104.23 -0.920962 1.71882 0
M  V30 11886 O 1103.5 -1.65043 1.05534 0
M  V30 11887 H 1102.08 0.195729 0.720902 0
M  V30 11888 H 1104.74 1.15628 1.56895 0
M  V30 11889 H 1103.84 0.727052 3.03513 0
M  V30 11890 N 1104.14 -1.42577 0.671525 0
M  V30 11891 C 1105.39 -2.01584 0.192431 0
M  V30 11892 C 1105.72 -1.53076 -1.19992 0
M  V30 11893 O 1104.97 -0.722196 -1.81887 0
M  V30 11894 C 1105.27 -3.56985 0.172097 0
M  V30 11895 C 1104.94 -4.24912 1.50867 0
M  V30 11896 C 1103.6 -4.43182 1.87464 0
M  V30 11897 C 1105.95 -4.6322 2.38908 0
M  V30 11898 C 1103.28 -4.97031 3.11732 0
M  V30 11899 C 1105.63 -5.18447 3.62485 0
M  V30 11900 C 1104.29 -5.34932 3.99255 0
M  V30 11901 H 1103.56 -0.737647 0.0704155 0
M  V30 11902 H 1106.21 -1.70807 0.865862 0
M  V30 11903 H 1104.52 -3.87411 -0.584835 0
M  V30 11904 H 1106.21 -4.00419 -0.215749 0
M  V30 11905 H 1102.8 -4.11048 1.21397 0
M  V30 11906 H 1106.99 -4.4878 2.1192 0
M  V30 11907 H 1102.24 -5.07979 3.40246 0
M  V30 11908 H 1106.42 -5.47075 4.30909 0
M  V30 11909 H 1104.04 -5.76422 4.95623 0
M  V30 11910 N 1105.62 -0.414636 -1.52048 0
M  V30 11911 C 1106.55 0.399119 -2.30064 0
M  V30 11912 C 1107.53 1.04126 -1.34506 0
M  V30 11913 O 1108.71 1.04923 -1.63416 0
M  V30 11914 C 1105.84 1.51305 -3.12608 0
M  V30 11915 C 1104.8 0.995621 -4.16259 0
M  V30 11916 C 1104.12 2.20357 -4.87183 0
M  V30 11917 C 1105.42 0.0458178 -5.2228 0
M  V30 11918 H 1107.12 -0.251879 -2.98339 0
M  V30 11919 H 1104.66 -0.122579 -1.43477 0
M  V30 11920 H 1106.62 2.08936 -3.65956 0
M  V30 11921 H 1105.34 2.19201 -2.42113 0
M  V30 11922 H 1104 0.441676 -3.6393 0
M  V30 11923 H 1103.65 2.8682 -4.13211 0
M  V30 11924 H 1103.35 1.86385 -5.57256 0
M  V30 11925 H 1104.87 2.78584 -5.43345 0
M  V30 11926 H 1106.29 0.531102 -5.70835 0
M  V30 11927 H 1104.68 -0.20536 -5.99749 0
M  V30 11928 H 1105.75 -0.897807 -4.76516 0
M  V30 11929 N 1107.1 1.56929 -0.145233 0
M  V30 11930 C 1108.06 2.15483 0.781002 0
M  V30 11931 C 1109.06 1.09617 1.17647 0
M  V30 11932 O 1110.25 1.35265 1.09768 0
M  V30 11933 C 1107.38 2.7165 2.05959 0
M  V30 11934 H 1108.57 2.98667 0.271685 0
M  V30 11935 H 1106.13 1.55952 0.1042 0
M  V30 11936 H 1106.86 1.92127 2.61262 0
M  V30 11937 H 1106.65 3.491 1.78526 0
M  V30 11938 H 1108.14 3.16769 2.72116 0
M  V30 11939 N 1108.58 -0.128553 1.57075 0
M  V30 11940 C 1109.51 -1.15953 2.02675 0
M  V30 11941 C 1110.49 -1.43743 0.909501 0
M  V30 11942 O 1111.67 -1.54348 1.17857 0
M  V30 11943 C 1108.8 -2.48813 2.423 0
M  V30 11944 C 1107.76 -2.35506 3.57381 0
M  V30 11945 C 1107.08 -3.73243 3.82875 0
M  V30 11946 C 1108.38 -1.82359 4.89431 0
M  V30 11947 H 1110.08 -0.780283 2.89054 0
M  V30 11948 H 1107.62 -0.373896 1.39061 0
M  V30 11949 H 1109.57 -3.21179 2.72804 0
M  V30 11950 H 1108.3 -2.88609 1.52881 0
M  V30 11951 H 1106.96 -1.6559 3.27071 0
M  V30 11952 H 1106.61 -4.10507 2.90677 0
M  V30 11953 H 1106.31 -3.65195 4.60333 0
M  V30 11954 H 1107.83 -4.47128 4.15823 0
M  V30 11955 H 1109.24 -2.44533 5.18533 0
M  V30 11956 H 1107.64 -1.85156 5.70822 0
M  V30 11957 H 1108.71 -0.780478 4.78578 0
M  V30 11958 N 1110.05 -1.5248 -0.398459 0
M  V30 11959 C 1111.3 -1.67061 -1.14441 0
M  V30 11960 C 1111.63 -0.405821 -1.90219 0
M  V30 11961 O 1110.88 0.611532 -1.859 0
M  V30 11962 C 1111.18 -2.85038 -2.15611 0
M  V30 11963 C 1110.85 -4.22847 -1.56561 0
M  V30 11964 C 1109.51 -4.60329 -1.40182 0
M  V30 11965 C 1111.86 -5.08683 -1.1354 0
M  V30 11966 C 1109.19 -5.81314 -0.793149 0
M  V30 11967 C 1111.54 -6.30284 -0.540866 0
M  V30 11968 C 1110.21 -6.66505 -0.364297 0
M  V30 11969 H 1109.48 -0.611321 -0.418769 0
M  V30 11970 H 1112.12 -1.86604 -0.430241 0
M  V30 11971 H 1110.43 -2.59873 -2.93212 0
M  V30 11972 H 1112.13 -2.93516 -2.73221 0
M  V30 11973 H 1108.72 -3.93316 -1.70295 0
M  V30 11974 H 1112.9 -4.80301 -1.24999 0
M  V30 11975 H 1108.16 -6.07994 -0.64446 0
M  V30 11976 H 1112.33 -6.96115 -0.199167 0
M  V30 11977 H 1109.96 -7.60121 0.109439 0
M  V30 11978 N 1111.53 0.65634 -1.43283 0
M  V30 11979 C 1112.78 1.41674 -1.45946 0
M  V30 11980 C 1113.13 1.92228 -0.0812633 0
M  V30 11981 O 1112.43 1.69167 0.899607 0
M  V30 11982 C 1112.62 2.61688 -2.43421 0
M  V30 11983 C 1112.45 2.2288 -3.90583 0
M  V30 11984 C 1111.22 2.11355 -4.58974 0
M  V30 11985 C 1113.42 1.83361 -4.80503 0
M  V30 11986 N 1111.4 1.65844 -5.91074 0
M  V30 11987 C 1112.77 1.48909 -6.01852 0
M  V30 11988 C 1114.82 1.70517 -4.67791 0
M  V30 11989 C 1113.53 1.02899 -7.11902 0
M  V30 11990 C 1115.55 1.25912 -5.77841 0
M  V30 11991 C 1114.92 0.923948 -6.98314 0
M  V30 11992 H 1111.01 0.514195 -0.589175 0
M  V30 11993 H 1113.6 0.755591 -1.79441 0
M  V30 11994 H 1111.77 3.25466 -2.11958 0
M  V30 11995 H 1113.5 3.28374 -2.36542 0
M  V30 11996 H 1110.26 2.31014 -4.13436 0
M  V30 11997 H 1110.68 1.45459 -6.61189 0
M  V30 11998 H 1115.32 1.9507 -3.7511 0
M  V30 11999 H 1113.04 0.770942 -8.04414 0
M  V30 12000 H 1116.63 1.16468 -5.70023 0
M  V30 12001 H 1115.51 0.584057 -7.82022 0
M  V30 12002 N 1113.01 1.29761 0.894412 0
M  V30 12003 C 1114.26 1.18214 1.64782 0
M  V30 12004 C 1114.59 -0.264635 1.92388 0
M  V30 12005 O 1113.86 -1.19051 1.53809 0
M  V30 12006 C 1114.15 2.00138 2.99361 0
M  V30 12007 C 1114 3.52984 2.78787 0
M  V30 12008 C 1115.32 1.83187 4.00163 0
M  V30 12009 H 1112.44 0.430802 0.597979 0
M  V30 12010 H 1115.08 1.59292 1.03566 0
M  V30 12011 H 1113.23 1.65233 3.51611 0
M  V30 12012 H 1114.9 3.97898 2.33398 0
M  V30 12013 H 1113.14 3.77642 2.13469 0
M  V30 12014 H 1113.82 4.05585 3.7444 0
M  V30 12015 H 1116.29 2.13684 3.57041 0
M  V30 12016 H 1115.17 2.42849 4.92255 0
M  V30 12017 H 1115.43 0.788469 4.35012 0
M  V30 12018 N 1114.49 -1.10549 1.12324 0
M  V30 12019 C 1115.76 -1.78968 0.789287 0
M  V30 12020 C 1116.14 -1.984 -0.721156 0
M  V30 12021 O 1115.49 -1.5761 -1.65443 0
M  V30 12022 C 1115.7 -3.12044 1.563 0
M  V30 12023 C 1117.05 -3.86939 1.74825 0
M  V30 12024 O 1118.07 -3.21761 1.52802 0
M  V30 12025 O 1116.93 -5.0392 2.11488 0
M  V30 12026 H 1114.03 -0.775617 0.286962 0
M  V30 12027 H 1116.57 -1.17209 1.2272 0
M  V30 12028 H 1115.35 -2.93313 2.59005 0
M  V30 12029 H 1114.97 -3.81521 1.11926 0
M  V30 12030 N 1115.97 -0.914965 -1.28321 0
M  V30 12031 C 1116.9 -0.421292 -2.29668 0
M  V30 12032 C 1117.88 0.511743 -1.6222 0
M  V30 12033 O 1119.06 0.419218 -1.89621 0
M  V30 12034 C 1116.19 0.338364 -3.45648 0
M  V30 12035 C 1115.15 -0.505646 -4.25003 0
M  V30 12036 C 1114.47 0.382421 -5.33331 0
M  V30 12037 C 1115.77 -1.76354 -4.91626 0
M  V30 12038 H 1117.47 -1.26826 -2.71211 0
M  V30 12039 H 1115.01 -0.611291 -1.30381 0
M  V30 12040 H 1116.96 0.694578 -4.15636 0
M  V30 12041 H 1115.69 1.21925 -3.02988 0
M  V30 12042 H 1114.35 -0.844395 -3.56743 0
M  V30 12043 H 1114 1.26189 -4.86914 0
M  V30 12044 H 1113.7 -0.17871 -5.87328 0
M  V30 12045 H 1115.22 0.73449 -6.06166 0
M  V30 12046 H 1116.63 -1.47616 -5.5397 0
M  V30 12047 H 1115.03 -2.26717 -5.55625 0
M  V30 12048 H 1116.1 -2.49063 -4.16048 0
M  V30 12049 N 1117.44 1.42219 -0.679077 0
M  V30 12050 C 1118.86 1.55737 -0.349034 0
M  V30 12051 C 1119.06 1.65789 1.14527 0
M  V30 12052 O 1118.12 1.62717 1.93079 0
M  V30 12053 C 1119.43 2.80516 -1.0831 0
M  V30 12054 C 1120.98 2.94294 -1.06584 0
M  V30 12055 C 1121.45 4.2194 -1.78132 0
M  V30 12056 N 1122.94 4.28861 -1.75021 0
M  V30 12057 C 1123.68 5.26453 -2.27234 0
M  V30 12058 N 1123.17 6.30171 -2.87847 0
M  V30 12059 N 1124.97 5.1828 -2.17584 0
M  V30 12060 H 1117.12 1.33939 -1.64846 0
M  V30 12061 H 1119.38 0.645029 -0.694725 0
M  V30 12062 H 1119.09 2.79241 -2.13816 0
M  V30 12063 H 1118.96 3.71539 -0.651069 0
M  V30 12064 H 1121.35 2.95094 -0.0191061 0
M  V30 12065 H 1121.43 2.04491 -1.53679 0
M  V30 12066 H 1121.07 4.21901 -2.82776 0
M  V30 12067 H 1121 5.10685 -1.28483 0
M  V30 12068 H 1123.49 3.54537 -1.30814 0
M  V30 12069 H 1123.81 7.01 -3.25298 0
M  V30 12070 H 1122.15 6.30721 -2.91918 0
M  V30 12071 H 1125.34 4.36172 -1.69916 0
M  V30 12072 H 1125.52 5.94172 -2.58581 0
M  V30 12073 N 1118.92 0.422693 1.51826 0
M  V30 12074 C 1120.15 -0.15017 2.06856 0
M  V30 12075 C 1120.57 -1.36946 1.28948 0
M  V30 12076 O 1119.93 -1.78393 0.32338 0
M  V30 12077 C 1119.98 -0.465563 3.57582 0
M  V30 12078 O 1119.08 -1.55442 3.81984 0
M  V30 12079 H 1118.42 -0.00827931 0.663948 0
M  V30 12080 H 1120.95 0.599806 1.95611 0
M  V30 12081 H 1120.96 -0.720279 4.01592 0
M  V30 12082 H 1119.64 0.425679 4.13716 0
M  V30 12083 H 1118.21 -1.29081 3.49846 0
M  V30 12084 N 1120.4 -1.5685 0.153553 0
M  V30 12085 C 1121.33 -2.20101 -0.779601 0
M  V30 12086 C 1122.31 -1.15121 -1.25225 0
M  V30 12087 O 1123.5 -1.43487 -1.30862 0
M  V30 12088 C 1120.63 -2.82778 -2.01628 0
M  V30 12089 C 1119.58 -3.93643 -1.68015 0
M  V30 12090 C 1118.91 -4.43286 -2.99001 0
M  V30 12091 C 1120.21 -5.14102 -0.921774 0
M  V30 12092 H 1121.9 -2.98334 -0.252432 0
M  V30 12093 H 1119.45 -1.43499 -0.119975 0
M  V30 12094 H 1121.4 -3.25696 -2.67395 0
M  V30 12095 H 1120.12 -2.01887 -2.56728 0
M  V30 12096 H 1118.78 -3.51354 -1.04624 0
M  V30 12097 H 1118.43 -3.59208 -3.52106 0
M  V30 12098 H 1118.13 -5.18068 -2.77272 0
M  V30 12099 H 1119.65 -4.88878 -3.65828 0
M  V30 12100 H 1121.07 -5.53823 -1.48167 0
M  V30 12101 H 1119.46 -5.94687 -0.804185 0
M  V30 12102 H 1120.53 -4.84825 0.0852757 0
M  V30 12103 N 1121.88 0.120221 -1.57141 0
M  V30 12104 C 1123.12 0.828222 -1.84788 0
M  V30 12105 C 1123.45 1.79936 -0.738459 0
M  V30 12106 O 1122.71 1.93824 0.270295 0
M  V30 12107 C 1123.01 1.61338 -3.18912 0
M  V30 12108 C 1122.67 0.786637 -4.43985 0
M  V30 12109 C 1121.33 0.558645 -4.77946 0
M  V30 12110 C 1123.69 0.210281 -5.20776 0
M  V30 12111 C 1121.01 -0.255975 -5.86141 0
M  V30 12112 C 1123.37 -0.591523 -6.29828 0
M  V30 12113 C 1122.03 -0.829843 -6.62322 0
M  V30 12114 H 1121.3 0.303068 -0.676188 0
M  V30 12115 H 1123.95 0.0906538 -1.91285 0
M  V30 12116 H 1122.25 2.42182 -3.07986 0
M  V30 12117 H 1123.95 2.16513 -3.37525 0
M  V30 12118 H 1120.54 0.974426 -4.17376 0
M  V30 12119 H 1124.72 0.373641 -4.94892 0
M  V30 12120 H 1119.98 -0.449849 -6.09743 0
M  V30 12121 H 1124.15 -1.04512 -6.88513 0
M  V30 12122 H 1121.78 -1.4629 -7.45992 0
M  V30 12123 N 1123.36 1.52689 0.390367 0
M  V30 12124 C 1124.29 1.80338 1.48325 0
M  V30 12125 C 1125.27 0.655338 1.56969 0
M  V30 12126 O 1126.45 0.902792 1.7194 0
M  V30 12127 C 1123.58 1.97101 2.85952 0
M  V30 12128 C 1122.54 3.12783 2.92148 0
M  V30 12129 C 1121.86 3.14798 4.32211 0
M  V30 12130 C 1123.16 4.5188 2.61919 0
M  V30 12131 H 1124.86 2.71857 1.25437 0
M  V30 12132 H 1122.4 1.30813 0.601995 0
M  V30 12133 H 1124.36 2.15027 3.62411 0
M  V30 12134 H 1123.08 1.02271 3.10174 0
M  V30 12135 H 1121.74 2.94638 2.18137 0
M  V30 12136 H 1121.39 2.17653 4.53471 0
M  V30 12137 H 1121.09 3.92507 4.37278 0
M  V30 12138 H 1122.61 3.34877 5.10578 0
M  V30 12139 H 1124.02 4.70134 3.28096 0
M  V30 12140 H 1122.42 5.31647 2.78337 0
M  V30 12141 H 1123.49 4.58689 1.57266 0
M  V30 12142 N 1124.83 -0.648732 1.43629 0
M  V30 12143 C 1126.08 -1.40857 1.45483 0
M  V30 12144 C 1126.41 -1.94332 0.0807963 0
M  V30 12145 O 1125.66 -1.72999 -0.914875 0
M  V30 12146 C 1125.96 -2.60394 2.44806 0
M  V30 12147 C 1125.63 -2.25311 3.90571 0
M  V30 12148 C 1124.29 -2.15456 4.3027 0
M  V30 12149 C 1126.64 -1.97307 4.8241 0
M  V30 12150 C 1123.97 -1.75759 5.59755 0
M  V30 12151 C 1126.32 -1.59108 6.12264 0
M  V30 12152 C 1124.99 -1.47781 6.50936 0
M  V30 12153 H 1124.26 -0.515434 0.532362 0
M  V30 12154 H 1126.9 -0.737339 1.76736 0
M  V30 12155 H 1125.21 -3.3267 2.06973 0
M  V30 12156 H 1126.91 -3.18609 2.43494 0
M  V30 12157 H 1123.5 -2.33894 3.59154 0
M  V30 12158 H 1127.68 -2.0384 4.52507 0
M  V30 12159 H 1122.94 -1.65579 5.88552 0
M  V30 12160 H 1127.11 -1.36472 6.82897 0
M  V30 12161 H 1124.74 -1.16792 7.51175 0
M  V30 12162 N 1126.31 -1.30234 -0.887518 0
M  V30 12163 C 1127.54 -1.21955 -1.67755 0
M  V30 12164 C 1127.96 0.214701 -1.86871 0
M  V30 12165 O 1127.32 1.15459 -1.39782 0
M  V30 12166 C 1127.37 -1.95079 -3.03276 0
M  V30 12167 O 1126.47 -1.27615 -3.92158 0
M  V30 12168 H 1125.81 -0.421948 -0.512695 0
M  V30 12169 H 1128.34 -1.72011 -1.10785 0
M  V30 12170 H 1128.35 -2.04004 -3.53336 0
M  V30 12171 H 1127.03 -2.99392 -2.88682 0
M  V30 12172 H 1125.61 -1.27029 -3.50597 0
M  V30 12173 N 1127.79 1.09952 -1.12909 0
M  V30 12174 C 1129.02 1.8552 -0.909163 0
M  V30 12175 C 1129.43 1.81173 0.545253 0
M  V30 12176 O 1128.77 1.20223 1.38896 0
M  V30 12177 C 1128.83 3.34693 -1.31228 0
M  V30 12178 C 1128.5 3.62794 -2.77902 0
M  V30 12179 C 1129.49 3.58973 -3.76078 0
M  V30 12180 C 1127.18 3.91311 -3.1493 0
M  V30 12181 C 1129.17 3.83271 -5.09296 0
M  V30 12182 C 1126.86 4.15265 -4.48328 0
M  V30 12183 C 1127.86 4.11236 -5.4532 0
M  V30 12184 O 1127.55 4.34576 -6.76313 0
M  V30 12185 H 1127.28 0.59303 -0.324486 0
M  V30 12186 H 1129.83 1.39878 -1.5041 0
M  V30 12187 H 1128.06 3.81016 -0.660573 0
M  V30 12188 H 1129.75 3.9166 -1.06569 0
M  V30 12189 H 1130.52 3.36974 -3.48817 0
M  V30 12190 H 1126.4 3.93575 -2.40041 0
M  V30 12191 H 1129.94 3.80041 -5.84991 0
M  V30 12192 H 1125.84 4.36743 -4.75316 0
M  V30 12193 H 1126.61 4.52065 -6.82334 0
M  V30 12194 N 1129.27 0.921757 1.27833 0
M  V30 12195 C 1130.22 0.387357 2.24685 0
M  V30 12196 C 1131.2 -0.505036 1.52768 0
M  V30 12197 O 1132.39 -0.34345 1.73636 0
M  V30 12198 C 1129.52 -0.364168 3.41363 0
M  V30 12199 C 1128.61 0.544401 4.20591 0
M  V30 12200 N 1129 1.66158 4.77729 0
M  V30 12201 C 1127.3 0.346289 4.44654 0
M  V30 12202 C 1128 2.22619 5.37416 0
M  V30 12203 N 1126.98 1.51648 5.22019 0
M  V30 12204 H 1130.78 1.24045 2.6644 0
M  V30 12205 H 1128.29 0.775338 1.42696 0
M  V30 12206 H 1130.29 -0.763917 4.09841 0
M  V30 12207 H 1128.95 -1.21426 3.01141 0
M  V30 12208 H 1129.96 2.04406 4.75856 0
M  V30 12209 H 1126.64 -0.46363 4.14918 0
M  V30 12210 H 1128.03 3.16641 5.92611 0
M  V30 12211 N 1130.75 -1.41857 0.686609 0
M  V30 12212 C 1132.16 -1.55549 0.357288 0
M  V30 12213 C 1132.36 -1.66394 -1.13646 0
M  V30 12214 O 1131.42 -1.63739 -1.92213 0
M  V30 12215 C 1132.73 -2.79938 1.09796 0
M  V30 12216 C 1134.28 -2.93724 1.08143 0
M  V30 12217 C 1134.75 -4.20989 1.80367 0
M  V30 12218 N 1136.25 -4.27927 1.77293 0
M  V30 12219 C 1136.98 -5.2524 2.30022 0
M  V30 12220 N 1136.48 -6.28636 2.91185 0
M  V30 12221 N 1138.27 -5.17118 2.20329 0
M  V30 12222 H 1130.42 -1.33063 1.65554 0
M  V30 12223 H 1132.68 -0.641335 0.698135 0
M  V30 12224 H 1132.39 -2.78104 2.15293 0
M  V30 12225 H 1132.26 -3.71188 0.670763 0
M  V30 12226 H 1134.65 -2.9508 0.0347554 0
M  V30 12227 H 1134.73 -2.03673 1.54761 0
M  V30 12228 H 1134.38 -4.20395 2.85009 0
M  V30 12229 H 1134.31 -5.09997 1.3119 0
M  V30 12230 H 1136.8 -3.53838 1.32692 0
M  V30 12231 H 1137.11 -6.99265 3.29011 0
M  V30 12232 H 1135.45 -6.29164 2.95259 0
M  V30 12233 H 1138.65 -4.35265 1.72226 0
M  V30 12234 H 1138.82 -5.92792 2.61728 0
M  V30 12235 N 1132.22 -0.430739 -1.51599 0
M  V30 12236 C 1133.15 0.374695 -2.30474 0
M  V30 12237 C 1134.14 1.02694 -1.35602 0
M  V30 12238 O 1135.32 1.03184 -1.6452 0
M  V30 12239 C 1132.45 1.47981 -3.14196 0
M  V30 12240 C 1131.4 0.951415 -4.17291 0
M  V30 12241 C 1130.73 2.15177 -4.89492 0
M  V30 12242 C 1132.03 -0.00957951 -5.22299 0
M  V30 12243 H 1133.72 -0.283508 -2.98055 0
M  V30 12244 H 1131.27 -0.13779 -1.43339 0
M  V30 12245 H 1133.22 2.05043 -3.68151 0
M  V30 12246 H 1131.95 2.16621 -2.44424 0
M  V30 12247 H 1130.61 0.403052 -3.64378 0
M  V30 12248 H 1130.25 2.82421 -4.1623 0
M  V30 12249 H 1129.95 1.80464 -5.59202 0
M  V30 12250 H 1131.48 2.72806 -5.46269 0
M  V30 12251 H 1132.89 0.470527 -5.71366 0
M  V30 12252 H 1131.29 -0.268959 -5.99497 0
M  V30 12253 H 1132.36 -0.948297 -4.75537 0
M  V30 12254 N 1133.7 1.56767 -0.161869 0
M  V30 12255 C 1135.12 1.58412 0.194403 0
M  V30 12256 C 1135.32 1.17682 1.63564 0
M  V30 12257 O 1134.37 0.884024 2.36519 0
M  V30 12258 C 1135.69 3.00599 -0.0778438 0
M  V30 12259 C 1137.24 3.12996 -0.015307 0
M  V30 12260 C 1137.71 4.57259 -0.260418 0
M  V30 12261 N 1139.2 4.62733 -0.207863 0
M  V30 12262 C 1139.94 5.72193 -0.371821 0
M  V30 12263 N 1139.43 6.90246 -0.594318 0
M  V30 12264 N 1141.23 5.61253 -0.308384 0
M  V30 12265 H 1133.38 1.81531 -1.10274 0
M  V30 12266 H 1135.64 0.840919 -0.437675 0
M  V30 12267 H 1135.35 3.3484 -1.07587 0
M  V30 12268 H 1135.22 3.71819 0.634845 0
M  V30 12269 H 1137.61 2.78588 0.97329 0
M  V30 12270 H 1137.69 2.44232 -0.760559 0
M  V30 12271 H 1137.33 4.92375 -1.24618 0
M  V30 12272 H 1137.26 5.2417 0.505334 0
M  V30 12273 H 1139.75 3.77878 -0.0411541 0
M  V30 12274 H 1140.07 7.6954 -0.70913 0
M  V30 12275 H 1138.41 6.92131 -0.630819 0
M  V30 12276 H 1141.6 4.67905 -0.135217 0
M  V30 12277 H 1141.77 6.46507 -0.439592 0
M  V30 12278 N 1135.18 -0.111886 1.57202 0
M  V30 12279 C 1136.46 -0.849125 1.76208 0
M  V30 12280 C 1136.84 -1.97735 0.73919 0
M  V30 12281 O 1136.19 -2.27283 -0.235523 0
M  V30 12282 C 1136.4 -1.35924 3.21443 0
M  V30 12283 C 1137.74 -1.80874 3.84148 0
M  V30 12284 O 1138.77 -1.45587 3.25089 0
M  V30 12285 O 1137.63 -2.46065 4.87969 0
M  V30 12286 H 1134.72 -0.403761 0.721738 0
M  V30 12287 H 1137.27 -0.0950726 1.69433 0
M  V30 12288 H 1136.04 -0.550113 3.87414 0
M  V30 12289 H 1135.66 -2.17579 3.32784 0
M  V30 12290 N 1136.66 -1.52894 -0.382264 0
M  V30 12291 C 1137.59 -1.81122 -1.47367 0
M  V30 12292 C 1138.57 -0.663653 -1.56619 0
M  V30 12293 O 1139.75 -0.911898 -1.71459 0
M  V30 12294 C 1136.88 -1.98615 -2.84902 0
M  V30 12295 C 1135.84 -3.14328 -2.90485 0
M  V30 12296 C 1135.16 -3.17086 -4.30535 0
M  V30 12297 C 1136.46 -4.53263 -2.59519 0
M  V30 12298 H 1138.16 -2.72518 -1.23993 0
M  V30 12299 H 1135.7 -1.3113 -0.595049 0
M  V30 12300 H 1137.66 -2.16946 -3.61265 0
M  V30 12301 H 1136.38 -1.03915 -3.09628 0
M  V30 12302 H 1135.04 -2.95791 -2.16572 0
M  V30 12303 H 1134.69 -2.20055 -4.52311 0
M  V30 12304 H 1134.39 -3.94821 -4.3519 0
M  V30 12305 H 1135.91 -3.3758 -5.08795 0
M  V30 12306 H 1137.33 -4.71867 -3.25598 0
M  V30 12307 H 1135.72 -5.33115 -2.75514 0
M  V30 12308 H 1136.79 -4.59516 -1.54831 0
M  V30 12309 N 1138.14 0.641106 -1.43971 0
M  V30 12310 C 1139.07 1.76489 -1.52885 0
M  V30 12311 C 1140.05 1.65742 -0.38258 0
M  V30 12312 O 1141.23 1.84653 -0.601397 0
M  V30 12313 C 1138.36 3.14977 -1.4631 0
M  V30 12314 C 1137.32 3.40502 -2.59311 0
M  V30 12315 C 1136.64 4.78916 -2.37789 0
M  V30 12316 C 1137.94 3.34048 -4.01509 0
M  V30 12317 H 1139.64 1.69286 -2.46946 0
M  V30 12318 H 1137.18 0.813015 -1.18853 0
M  V30 12319 H 1139.14 3.9336 -1.51149 0
M  V30 12320 H 1137.86 3.2294 -0.487599 0
M  V30 12321 H 1136.52 2.64495 -2.53846 0
M  V30 12322 H 1136.17 4.8357 -1.38454 0
M  V30 12323 H 1135.87 4.96954 -3.13545 0
M  V30 12324 H 1137.39 5.59541 -2.4443 0
M  V30 12325 H 1138.81 4.0235 -4.08396 0
M  V30 12326 H 1137.2 3.63622 -4.77388 0
M  V30 12327 H 1138.27 2.32022 -4.25786 0
M  V30 12328 N 1139.62 1.30703 0.880598 0
M  V30 12329 C 1140.55 1.20033 2.00286 0
M  V30 12330 C 1141.53 0.0899614 1.69862 0
M  V30 12331 O 1142.71 0.272747 1.92275 0
M  V30 12332 C 1139.84 0.895902 3.35546 0
M  V30 12333 C 1138.8 1.96468 3.80242 0
M  V30 12334 C 1138.12 1.51316 5.12843 0
M  V30 12335 C 1139.42 3.37637 3.98496 0
M  V30 12336 H 1141.12 2.13922 2.0947 0
M  V30 12337 H 1138.66 1.02989 1.00644 0
M  V30 12338 H 1140.61 0.807899 4.13583 0
M  V30 12339 H 1139.34 -0.0786636 3.26505 0
M  V30 12340 H 1138 2.0424 3.04437 0
M  V30 12341 H 1137.65 0.52674 5.00234 0
M  V30 12342 H 1137.35 2.22807 5.43719 0
M  V30 12343 H 1138.87 1.43903 5.93401 0
M  V30 12344 H 1140.28 3.326 4.66959 0
M  V30 12345 H 1138.68 4.07253 4.40755 0
M  V30 12346 H 1139.75 3.79205 3.02211 0
M  V30 12347 N 1141.09 -1.09351 1.1349 0
M  V30 12348 C 1142.34 -1.80915 0.89177 0
M  V30 12349 C 1142.66 -1.86688 -0.5837 0
M  V30 12350 O 1143.86 -2.54568 -0.943788 0
M  V30 12351 C 1142.32 -3.25009 1.54587 0
M  V30 12352 C 1141.93 -3.27501 3.05691 0
M  V30 12353 C 1143.67 -4.01323 1.38346 0
M  V30 12354 C 1141.58 -4.66123 3.63983 0
M  V30 12355 H 1140.51 -0.677961 0.329978 0
M  V30 12356 H 1143.16 -1.22893 1.3627 0
M  V30 12357 H 1141.54 -3.83098 1.0026 0
M  V30 12358 H 1142.71 -2.79174 3.66604 0
M  V30 12359 H 1141.03 -2.64677 3.21457 0
M  V30 12360 H 1143.63 -5.03739 1.79307 0
M  V30 12361 H 1143.97 -4.15003 0.328404 0
M  V30 12362 H 1144.5 -3.49679 1.89656 0
M  V30 12363 H 1141.24 -4.57646 4.69298 0
M  V30 12364 H 1140.76 -5.14772 3.07848 0
M  V30 12365 H 1142.44 -5.35097 3.63703 0
M  V30 12366 N 1142.57 -0.928524 -1.27343 0
M  V30 12367 C 1143.82 -0.570235 -1.94618 0
M  V30 12368 C 1144.15 0.886381 -1.72792 0
M  V30 12369 O 1143.43 1.63242 -1.05747 0
M  V30 12370 C 1143.71 -0.897964 -3.48724 0
M  V30 12371 C 1143.56 -2.40839 -3.7989 0
M  V30 12372 C 1144.88 -0.404429 -4.38238 0
M  V30 12373 H 1142 -0.208645 -0.70685 0
M  V30 12374 H 1144.64 -1.16045 -1.50444 0
M  V30 12375 H 1142.79 -0.395679 -3.8648 0
M  V30 12376 H 1144.46 -2.98243 -3.51921 0
M  V30 12377 H 1142.71 -2.85723 -3.26412 0
M  V30 12378 H 1143.38 -2.58823 -4.8756 0
M  V30 12379 H 1145.85 -0.834918 -4.07637 0
M  V30 12380 H 1144.73 -0.662684 -5.44885 0
M  V30 12381 H 1144.99 0.695507 -4.36595 0
M  V30 12382 N 1144.05 1.41491 -0.694123 0
M  V30 12383 C 1145.28 2.05579 -0.233466 0
M  V30 12384 C 1145.69 1.5223 1.11675 0
M  V30 12385 O 1145.05 0.669937 1.69759 0
M  V30 12386 C 1145.1 3.61047 -0.180967 0
M  V30 12387 O 1144.82 4.12421 -1.47785 0
M  V30 12388 C 1146.32 4.42278 0.300853 0
M  V30 12389 H 1143.54 0.662097 -0.108943 0
M  V30 12390 H 1146.09 1.81288 -0.946299 0
M  V30 12391 H 1144.24 3.84381 0.482678 0
M  V30 12392 H 1144.66 5.06454 -1.364 0
M  V30 12393 H 1146.13 5.51256 0.286464 0
M  V30 12394 H 1146.61 4.18276 1.33948 0
M  V30 12395 H 1147.21 4.24004 -0.331741 0
M  V30 12396 N 1145.53 0.438773 1.51369 0
M  V30 12397 C 1146.94 0.0911416 1.5934 0
M  V30 12398 C 1147.14 -1.39962 1.44958 0
M  V30 12399 O 1146.2 -2.16968 1.29155 0
M  V30 12400 C 1147.51 0.612531 2.94395 0
M  V30 12401 C 1149.06 0.573098 3.07709 0
M  V30 12402 C 1149.54 1.07149 4.4529 0
M  V30 12403 N 1151.03 1.02953 4.51614 0
M  V30 12404 C 1151.76 1.38602 5.56397 0
M  V30 12405 N 1151.26 1.81543 6.68591 0
M  V30 12406 N 1153.05 1.30409 5.46763 0
M  V30 12407 H 1145.2 1.40872 1.58962 0
M  V30 12408 H 1147.46 0.580589 0.749414 0
M  V30 12409 H 1147.17 1.65562 3.10294 0
M  V30 12410 H 1147.04 0.0382375 3.77181 0
M  V30 12411 H 1149.43 -0.461006 2.91477 0
M  V30 12412 H 1149.51 1.18381 2.26759 0
M  V30 12413 H 1149.16 2.10406 4.62268 0
M  V30 12414 H 1149.09 0.437297 5.24781 0
M  V30 12415 H 1151.58 0.714208 3.7109 0
M  V30 12416 H 1151.89 2.06977 7.44567 0
M  V30 12417 H 1150.24 1.8547 6.69795 0
M  V30 12418 H 1153.43 0.967272 4.57997 0
M  V30 12419 H 1153.6 1.5852 6.28312 0
M  V30 12420 N 1147.01 -1.56678 0.170181 0
M  V30 12421 C 1148.25 -1.96024 -0.475147 0
M  V30 12422 C 1148.57 -1.0588 -1.64465 0
M  V30 12423 O 1149.77 -1.34901 -2.35614 0
M  V30 12424 C 1148.23 -3.4855 -0.896704 0
M  V30 12425 C 1147.84 -4.47318 0.247142 0
M  V30 12426 C 1149.58 -3.96716 -1.51052 0
M  V30 12427 C 1147.49 -5.91082 -0.193982 0
M  V30 12428 H 1146.42 -0.731883 -0.181282 0
M  V30 12429 H 1149.07 -1.81674 0.25823 0
M  V30 12430 H 1147.45 -3.58314 -1.68603 0
M  V30 12431 H 1148.63 -4.49268 1.02445 0
M  V30 12432 H 1146.94 -4.09203 0.770839 0
M  V30 12433 H 1149.54 -5.01581 -1.85258 0
M  V30 12434 H 1149.88 -3.39588 -2.40802 0
M  V30 12435 H 1150.41 -3.89965 -0.785652 0
M  V30 12436 H 1147.15 -6.5208 0.668714 0
M  V30 12437 H 1146.67 -5.92441 -0.936675 0
M  V30 12438 H 1148.35 -6.43844 -0.638237 0
M  V30 12439 N 1148.48 0.103547 -1.57259 0
M  V30 12440 C 1149.73 0.809774 -1.85931 0
M  V30 12441 C 1150.06 1.78791 -0.758122 0
M  V30 12442 O 1149.34 1.93079 0.234682 0
M  V30 12443 C 1149.62 1.54601 -3.25224 0
M  V30 12444 C 1149.47 0.586439 -4.45961 0
M  V30 12445 C 1150.79 2.4986 -3.62296 0
M  V30 12446 H 1147.91 0.29293 -0.676285 0
M  V30 12447 H 1150.55 0.0736065 -1.89857 0
M  V30 12448 H 1148.7 2.17355 -3.22008 0
M  V30 12449 H 1150.38 -0.0334441 -4.61288 0
M  V30 12450 H 1148.62 -0.10085 -4.33683 0
M  V30 12451 H 1149.29 1.13855 -5.40131 0
M  V30 12452 H 1151.77 1.97203 -3.66402 0
M  V30 12453 H 1150.64 2.98396 -4.60707 0
M  V30 12454 H 1150.9 3.33233 -2.90531 0
M  V30 12455 N 1149.96 1.53094 0.37415 0
M  V30 12456 C 1150.87 1.81872 1.48188 0
M  V30 12457 C 1151.89 0.706487 1.59012 0
M  V30 12458 O 1153.06 0.995648 1.75068 0
M  V30 12459 C 1150.13 1.99494 2.83554 0
M  V30 12460 C 1149.19 3.23402 2.82329 0
M  V30 12461 C 1148.42 3.40174 4.11239 0
M  V30 12462 O 1148.65 2.61425 5.06965 0
M  V30 12463 O 1147.58 4.33493 4.17573 0
M  V30 12464 H 1151.41 2.75965 1.26795 0
M  V30 12465 H 1148.99 1.38368 0.56343 0
M  V30 12466 H 1150.87 2.12705 3.63778 0
M  V30 12467 H 1149.55 1.08591 3.04942 0
M  V30 12468 H 1148.45 3.15621 2.00834 0
M  V30 12469 H 1149.79 4.14199 2.65894 0
M  V30 12470 N 1151.44 -0.633461 1.44309 0
M  V30 12471 C 1152.37 -1.75676 1.53819 0
M  V30 12472 C 1153.35 -1.65537 0.391365 0
M  V30 12473 O 1154.54 -1.84332 0.611181 0
M  V30 12474 C 1151.67 -3.14197 1.47979 0
M  V30 12475 C 1150.62 -3.39122 2.61113 0
M  V30 12476 C 1149.95 -4.77648 2.40325 0
M  V30 12477 C 1151.25 -3.31914 4.03274 0
M  V30 12478 H 1152.94 -1.67974 2.47841 0
M  V30 12479 H 1150.49 -0.8067 1.19283 0
M  V30 12480 H 1152.44 -3.92553 1.53233 0
M  V30 12481 H 1151.16 -3.22677 0.504718 0
M  V30 12482 H 1149.82 -2.63145 2.55245 0
M  V30 12483 H 1149.47 -4.82829 1.41016 0
M  V30 12484 H 1149.17 -4.95284 3.16177 0
M  V30 12485 H 1150.69 -5.58237 2.47394 0
M  V30 12486 H 1152.11 -4.00178 4.10524 0
M  V30 12487 H 1150.5 -3.61085 4.7931 0
M  V30 12488 H 1151.57 -2.29761 4.2701 0
M  V30 12489 N 1152.92 -1.31168 -0.873655 0
M  V30 12490 C 1153.85 -1.21094 -1.99646 0
M  V30 12491 C 1154.83 -0.0989684 -1.69812 0
M  V30 12492 O 1156.01 -0.282939 -1.92128 0
M  V30 12493 C 1153.14 -0.913684 -3.35066 0
M  V30 12494 C 1152.1 -1.98482 -3.79195 0
M  V30 12495 C 1151.42 -1.54033 -5.12033 0
M  V30 12496 C 1152.72 -3.39745 -3.96699 0
M  V30 12497 H 1154.42 -2.1503 -2.08333 0
M  V30 12498 H 1151.96 -1.03521 -1.00097 0
M  V30 12499 H 1153.92 -0.829821 -4.13149 0
M  V30 12500 H 1152.64 0.0613471 -3.26542 0
M  V30 12501 H 1151.3 -2.05851 -3.03349 0
M  V30 12502 H 1150.95 -0.553261 -4.99948 0
M  V30 12503 H 1150.65 -2.25688 -5.4253 0
M  V30 12504 H 1152.17 -1.47047 -5.92629 0
M  V30 12505 H 1153.59 -3.35071 -4.65188 0
M  V30 12506 H 1151.98 -4.09585 -4.38589 0
M  V30 12507 H 1153.05 -3.80802 -3.00196 0
M  V30 12508 N 1154.4 1.08748 -1.14068 0
M  V30 12509 C 1155.64 1.80707 -0.904947 0
M  V30 12510 C 1155.97 1.86478 0.570167 0
M  V30 12511 O 1155.24 1.35536 1.41445 0
M  V30 12512 H 1153.82 0.669261 -0.331811 0
M  V30 12513 H 1156.48 1.31494 -1.43859 0
M  V30 12514 H 1155.57 2.83653 -1.30182 0
M  V30 12515 N 1155.87 0.935264 1.26849 0
M  V30 12516 C 1157.29 0.636661 1.46352 0
M  V30 12517 C 1157.49 -0.811823 1.84423 0
M  V30 12518 O 1156.55 -1.58902 1.9623 0
M  V30 12519 C 1157.86 1.59301 2.55036 0
M  V30 12520 C 1159.41 1.60207 2.68892 0
M  V30 12521 C 1159.88 2.54558 3.80742 0
M  V30 12522 N 1161.37 2.52809 3.88126 0
M  V30 12523 C 1162.11 3.225 4.74111 0
M  V30 12524 N 1161.6 4.01598 5.64527 0
M  V30 12525 N 1163.4 3.11481 4.67906 0
M  V30 12526 H 1155.55 1.8716 1.00423 0
M  V30 12527 H 1157.81 0.803968 0.502334 0
M  V30 12528 H 1157.52 2.62671 2.33874 0
M  V30 12529 H 1157.39 1.34052 3.52576 0
M  V30 12530 H 1159.78 0.575649 2.89431 0
M  V30 12531 H 1159.86 1.89508 1.71815 0
M  V30 12532 H 1159.5 3.57314 3.60956 0
M  V30 12533 H 1159.43 2.22549 4.77263 0
M  V30 12534 H 1161.92 1.9537 3.2348 0
M  V30 12535 H 1162.24 4.51742 6.27016 0
M  V30 12536 H 1160.58 4.057 5.64298 0
M  V30 12537 H 1163.77 2.49175 3.9627 0
M  V30 12538 H 1163.95 3.66064 5.34697 0
M  V30 12539 N 1157.35 -1.41121 0.701616 0
M  V30 12540 C 1158.77 -1.55162 0.373766 0
M  V30 12541 C 1158.97 -1.6759 -1.11875 0
M  V30 12542 O 1158.02 -1.65768 -1.90465 0
M  V30 12543 C 1159.34 -2.78758 1.12759 0
M  V30 12544 C 1160.89 -2.92561 1.11253 0
M  V30 12545 C 1161.36 -4.19052 1.84822 0
M  V30 12546 N 1162.85 -4.26023 1.81821 0
M  V30 12547 C 1163.59 -5.22771 2.3558 0
M  V30 12548 N 1163.08 -6.25512 2.97836 0
M  V30 12549 N 1164.88 -5.14752 2.25802 0
M  V30 12550 H 1157.03 -1.31299 1.66956 0
M  V30 12551 H 1159.29 -0.633894 0.704898 0
M  V30 12552 H 1159 -2.75804 2.18231 0
M  V30 12553 H 1158.87 -3.70456 0.710095 0
M  V30 12554 H 1161.26 -2.95026 0.0660506 0
M  V30 12555 H 1161.34 -2.0202 1.56913 0
M  V30 12556 H 1160.98 -4.17349 2.89452 0
M  V30 12557 H 1160.91 -5.08577 1.36592 0
M  V30 12558 H 1163.4 -3.52411 1.36438 0
M  V30 12559 H 1163.72 -6.95736 3.36409 0
M  V30 12560 H 1162.06 -6.25997 3.01916 0
M  V30 12561 H 1165.25 -4.33414 1.76833 0
M  V30 12562 H 1165.42 -5.89983 2.68001 0
M  V30 12563 N 1158.83 -0.446794 -1.51134 0
M  V30 12564 C 1160.08 0.116263 -2.01765 0
M  V30 12565 C 1160.4 1.42382 -1.33238 0
M  V30 12566 O 1159.67 1.9018 -0.469915 0
M  V30 12567 H 1158.25 0.0459558 -0.745585 0
M  V30 12568 H 1160.91 -0.591664 -1.85702 0
M  V30 12569 H 1160.01 0.285358 -3.10793 0
M  V30 12570 N 1160.31 1.56586 -0.178487 0
M  V30 12571 C 1161.55 1.98159 0.45876 0
M  V30 12572 C 1161.91 1.0629 1.60375 0
M  V30 12573 O 1161.2 0.103975 1.91318 0
M  V30 12574 C 1161.4 3.43629 0.982552 0
M  V30 12575 C 1161.23 4.49565 -0.110152 0
M  V30 12576 C 1160 5.02162 -0.562228 0
M  V30 12577 C 1162.19 5.06129 -0.913143 0
M  V30 12578 N 1160.18 5.91741 -1.63449 0
M  V30 12579 C 1161.55 5.92217 -1.83517 0
M  V30 12580 C 1163.6 4.88608 -0.957421 0
M  V30 12581 C 1162.3 6.6266 -2.79775 0
M  V30 12582 C 1164.33 5.59777 -1.90798 0
M  V30 12583 C 1163.69 6.45599 -2.81747 0
M  V30 12584 H 1159.79 0.770124 0.13577 0
M  V30 12585 H 1162.38 1.92671 -0.280358 0
M  V30 12586 H 1160.55 3.49649 1.69117 0
M  V30 12587 H 1162.28 3.72199 1.58902 0
M  V30 12588 H 1159.03 4.73334 -0.158612 0
M  V30 12589 H 1159.46 6.41235 -2.17132 0
M  V30 12590 H 1164.1 4.21948 -0.268285 0
M  V30 12591 H 1161.82 7.28529 -3.49673 0
M  V30 12592 H 1165.4 5.48204 -1.94844 0
M  V30 12593 H 1164.28 6.99701 -3.54102 0
M  V30 12594 N 1161.79 -0.095206 1.57312 0
M  V30 12595 C 1162.7 -1.13388 2.05379 0
M  V30 12596 C 1163.71 -1.43868 0.978668 0
M  V30 12597 O 1164.89 -1.54512 1.29182 0
M  V30 12598 C 1161.95 -2.43444 2.46852 0
M  V30 12599 C 1161.01 -2.20146 3.68557 0
M  V30 12600 C 1160.25 -3.44001 4.08043 0
M  V30 12601 O 1160.47 -4.52233 3.47623 0
M  V30 12602 O 1159.4 -3.33596 5.00997 0
M  V30 12603 H 1163.23 -0.755622 2.9415 0
M  V30 12604 H 1160.82 -0.307707 1.46197 0
M  V30 12605 H 1162.7 -3.20027 2.74155 0
M  V30 12606 H 1161.37 -2.80696 1.61219 0
M  V30 12607 H 1160.28 -1.41345 3.46371 0
M  V30 12608 H 1161.61 -1.87787 4.54969 0
M  V30 12609 N 1163.26 -1.53291 -0.366026 0
M  V30 12610 C 1164.51 -1.69702 -1.11036 0
M  V30 12611 C 1164.84 -0.44728 -1.88979 0
M  V30 12612 O 1164.12 0.55542 -1.86401 0
M  V30 12613 C 1164.4 -2.94661 -2.06995 0
M  V30 12614 C 1164.25 -4.29791 -1.32663 0
M  V30 12615 C 1165.57 -3.15219 -3.07123 0
M  V30 12616 H 1162.69 -0.617525 -0.402284 0
M  V30 12617 H 1165.33 -1.85929 -0.391223 0
M  V30 12618 H 1163.48 -2.80958 -2.68318 0
M  V30 12619 H 1165.16 -4.55305 -0.741266 0
M  V30 12620 H 1163.4 -4.29223 -0.628484 0
M  V30 12621 H 1164.07 -5.13359 -2.02896 0
M  V30 12622 H 1166.55 -3.28105 -2.55903 0
M  V30 12623 H 1165.42 -4.04088 -3.71489 0
M  V30 12624 H 1165.68 -2.30479 -3.77269 0
M  V30 12625 N 1164.74 0.6258 -1.44643 0
M  V30 12626 C 1165.67 1.74858 -1.54748 0
M  V30 12627 C 1166.65 1.65327 -0.400138 0
M  V30 12628 O 1167.84 1.84005 -0.620948 0
M  V30 12629 C 1164.97 3.13408 -1.49643 0
M  V30 12630 C 1163.92 3.37733 -2.62908 0
M  V30 12631 C 1163.25 4.76367 -2.42855 0
M  V30 12632 C 1164.55 3.29771 -4.05029 0
M  V30 12633 H 1166.24 1.66658 -2.48728 0
M  V30 12634 H 1163.79 0.800363 -1.19709 0
M  V30 12635 H 1165.74 3.91735 -1.55312 0
M  V30 12636 H 1164.47 3.22404 -0.521824 0
M  V30 12637 H 1163.12 2.61788 -2.56637 0
M  V30 12638 H 1162.77 4.82074 -1.43575 0
M  V30 12639 H 1162.47 4.936 -3.18799 0
M  V30 12640 H 1164 5.56917 -2.50351 0
M  V30 12641 H 1165.41 3.97996 -4.12641 0
M  V30 12642 H 1163.81 3.58538 -4.81218 0
M  V30 12643 H 1164.88 2.27493 -4.28223 0
M  V30 12644 N 1166.22 1.31629 0.866686 0
M  V30 12645 C 1167.17 1.19556 1.97421 0
M  V30 12646 C 1168.14 0.0805578 1.65905 0
M  V30 12647 O 1169.32 0.253997 1.89102 0
M  V30 12648 C 1166.46 0.912234 3.32825 0
M  V30 12649 C 1165.58 2.11088 3.76916 0
M  V30 12650 C 1164.71 1.76406 5.01053 0
M  V30 12651 C 1163.75 2.9266 5.37602 0
M  V30 12652 N 1162.89 2.58152 6.52918 0
M  V30 12653 H 1167.73 2.14294 2.0708 0
M  V30 12654 H 1165.26 1.06595 1.0137 0
M  V30 12655 H 1167.22 0.72851 4.1079 0
M  V30 12656 H 1165.85 0.00167404 3.228 0
M  V30 12657 H 1164.9 2.40527 2.94705 0
M  V30 12658 H 1166.22 2.98089 3.99931 0
M  V30 12659 H 1165.37 1.54515 5.86694 0
M  V30 12660 H 1164.11 0.866018 4.79949 0
M  V30 12661 H 1163.11 3.15196 4.50479 0
M  V30 12662 H 1164.34 3.83179 5.6067 0
M  V30 12663 H 1162.28 1.70874 6.33355 0
M  V30 12664 H 1162.2 3.38682 6.75892 0
M  V30 12665 H 1163.47 2.39662 7.41743 0
M  V30 12666 N 1167.7 -1.08142 1.14644 0
M  V30 12667 C 1168.93 -1.8405 0.938563 0
M  V30 12668 C 1169.34 -1.82017 -0.516361 0
M  V30 12669 O 1168.68 -1.22418 -1.36966 0
M  V30 12670 C 1168.74 -3.32563 1.36536 0
M  V30 12671 C 1168.41 -3.58327 2.83638 0
M  V30 12672 C 1169.4 -3.52944 3.81741 0
M  V30 12673 C 1167.09 -3.86251 3.21115 0
M  V30 12674 C 1169.08 -3.7512 5.15329 0
M  V30 12675 C 1166.77 -4.0808 4.54878 0
M  V30 12676 C 1167.77 -4.02508 5.51794 0
M  V30 12677 O 1167.46 -4.23761 6.83141 0
M  V30 12678 H 1167.19 -0.587793 0.33388 0
M  V30 12679 H 1169.74 -1.37467 1.52617 0
M  V30 12680 H 1167.97 -3.79917 0.721106 0
M  V30 12681 H 1169.66 -3.89915 1.12787 0
M  V30 12682 H 1170.43 -3.31382 3.54134 0
M  V30 12683 H 1166.31 -3.89707 2.46272 0
M  V30 12684 H 1169.85 -3.70686 5.90963 0
M  V30 12685 H 1165.75 -4.29126 4.82204 0
M  V30 12686 H 1166.51 -4.41152 6.8944 0
M  V30 12687 N 1169.18 -0.941978 -1.26351 0
M  V30 12688 C 1170.42 -0.600372 -1.94338 0
M  V30 12689 C 1170.78 0.851343 -1.7254 0
M  V30 12690 O 1170.07 1.60116 -1.0523 0
M  V30 12691 C 1170.27 -0.879481 -3.4641 0
M  V30 12692 C 1170.09 -2.35678 -3.82996 0
M  V30 12693 C 1168.86 -3.01208 -4.05712 0
M  V30 12694 C 1171.06 -3.33531 -3.91486 0
M  V30 12695 N 1169.04 -4.38942 -4.29189 0
M  V30 12696 C 1170.42 -4.56525 -4.19506 0
M  V30 12697 C 1172.47 -3.28544 -3.74117 0
M  V30 12698 C 1171.17 -5.75153 -4.31962 0
M  V30 12699 C 1173.2 -4.46498 -3.87806 0
M  V30 12700 C 1172.56 -5.68275 -4.16225 0
M  V30 12701 H 1168.66 -0.270078 -0.733881 0
M  V30 12702 H 1171.24 -1.21155 -1.52413 0
M  V30 12703 H 1169.42 -0.297345 -3.8726 0
M  V30 12704 H 1171.15 -0.499062 -4.01611 0
M  V30 12705 H 1167.9 -2.51823 -4.01101 0
M  V30 12706 H 1168.33 -5.10236 -4.44959 0
M  V30 12707 H 1172.97 -2.35451 -3.51173 0
M  V30 12708 H 1170.69 -6.68699 -4.53727 0
M  V30 12709 H 1174.27 -4.44173 -3.75768 0
M  V30 12710 H 1173.15 -6.58024 -4.26584 0
M  V30 12711 N 1170.66 1.40747 -0.709091 0
M  V30 12712 C 1171.9 2.01796 -0.254976 0
M  V30 12713 C 1172.26 1.55202 1.13711 0
M  V30 12714 O 1171.55 0.759312 1.75912 0
M  V30 12715 C 1171.74 3.56404 -0.266685 0
M  V30 12716 C 1171.57 4.18005 -1.65837 0
M  V30 12717 C 1170.34 4.51719 -2.26447 0
M  V30 12718 C 1172.54 4.43302 -2.60744 0
M  V30 12719 N 1170.52 4.9868 -3.58039 0
M  V30 12720 C 1171.89 4.92185 -3.77033 0
M  V30 12721 C 1173.95 4.25332 -2.58839 0
M  V30 12722 C 1172.65 5.24984 -4.91715 0
M  V30 12723 C 1174.68 4.59228 -3.72644 0
M  V30 12724 C 1174.04 5.08294 -4.87664 0
M  V30 12725 H 1170.14 0.769549 -0.138991 0
M  V30 12726 H 1172.72 1.71081 -0.929488 0
M  V30 12727 H 1170.89 3.86562 0.377365 0
M  V30 12728 H 1172.63 4.04188 0.203528 0
M  V30 12729 H 1169.38 4.38631 -1.78605 0
M  V30 12730 H 1169.8 5.2655 -4.25528 0
M  V30 12731 H 1174.45 3.86623 -1.71121 0
M  V30 12732 H 1172.16 5.6261 -5.80082 0
M  V30 12733 H 1175.75 4.4697 -3.72437 0
M  V30 12734 H 1174.63 5.3403 -5.74267 0
M  V30 12735 N 1172.13 0.454803 1.50895 0
M  V30 12736 C 1173.08 -0.361974 2.29766 0
M  V30 12737 C 1174.08 -1.00519 1.36353 0
M  V30 12738 O 1175.28 -0.938159 1.53618 0
M  V30 12739 H 1171.66 -0.135559 0.739681 0
M  V30 12740 H 1173.63 0.323853 2.96637 0
M  V30 12741 C 1172.38 -1.44078 3.16444 0
M  V30 12742 H 1171.7 -0.955212 3.88221 0
M  V30 12743 H 1173.14 -1.98518 3.74655 0
M  V30 12744 C 1171.6 -2.43374 2.32961 0
M  V30 12745 O 1172.13 -3.48295 2.00133 0
M  V30 12746 N 1170.33 -2.14689 1.95849 0
M  V30 12747 H 1169.88 -1.29392 2.22745 0
M  V30 12748 H 1169.84 -2.81363 1.40292 0
M  V30 12749 N 1173.61 -1.56489 0.186789 0
M  V30 12750 C 1174.54 -2.21705 -0.732739 0
M  V30 12751 C 1175.52 -1.17751 -1.22755 0
M  V30 12752 O 1176.71 -1.46231 -1.27789 0
M  V30 12753 C 1173.84 -2.86992 -1.95584 0
M  V30 12754 C 1172.79 -3.97118 -1.59628 0
M  V30 12755 C 1172.12 -4.49529 -2.89531 0
M  V30 12756 C 1173.42 -5.15941 -0.812518 0
M  V30 12757 H 1175.11 -2.98802 -0.189094 0
M  V30 12758 H 1172.66 -1.43722 -0.0895099 0
M  V30 12759 H 1174.61 -3.31295 -2.60426 0
M  V30 12760 H 1173.33 -2.07287 -2.52388 0
M  V30 12761 H 1171.99 -3.53494 -0.971475 0
M  V30 12762 H 1171.64 -3.66596 -3.44407 0
M  V30 12763 H 1171.34 -5.23832 -2.66221 0
M  V30 12764 H 1172.87 -4.96528 -3.55376 0
M  V30 12765 H 1174.28 -5.56841 -1.36386 0
M  V30 12766 H 1172.68 -5.96259 -0.677862 0
M  V30 12767 H 1173.75 -4.84535 0.188095 0
M  V30 12768 N 1175.09 0.086862 -1.5736 0
M  V30 12769 C 1176.02 1.10538 -2.05678 0
M  V30 12770 C 1177 1.41281 -0.947293 0
M  V30 12771 O 1178.19 1.51169 -1.21908 0
M  V30 12772 C 1175.32 2.42302 -2.48812 0
M  V30 12773 C 1174.27 2.25948 -3.63499 0
M  V30 12774 C 1173.6 3.62961 -3.92637 0
M  V30 12775 C 1174.9 1.69319 -4.94094 0
M  V30 12776 H 1176.59 0.703371 -2.91021 0
M  V30 12777 H 1174.14 0.336895 -1.40004 0
M  V30 12778 H 1176.09 3.13833 -2.81224 0
M  V30 12779 H 1174.81 2.84454 -1.60479 0
M  V30 12780 H 1173.47 1.5686 -3.31347 0
M  V30 12781 H 1173.12 4.02656 -3.01459 0
M  V30 12782 H 1172.82 3.52862 -4.69853 0
M  V30 12783 H 1174.34 4.35946 -4.27531 0
M  V30 12784 H 1175.76 2.30699 -5.24834 0
M  V30 12785 H 1174.15 1.69957 -5.7553 0
M  V30 12786 H 1175.22 0.653318 -4.80479 0
M  V30 12787 N 1176.57 1.53483 0.357892 0
M  V30 12788 C 1177.5 1.76757 1.4591 0
M  V30 12789 C 1178.51 0.648502 1.49326 0
M  V30 12790 O 1179.7 0.924932 1.52667 0
M  V30 12791 C 1176.8 1.83938 2.8464 0
M  V30 12792 C 1175.97 3.13683 3.04831 0
M  V30 12793 C 1175.03 3.12007 4.23719 0
M  V30 12794 O 1174.06 3.8578 4.18524 0
M  V30 12795 N 1175.26 2.33366 5.31527 0
M  V30 12796 H 1178.03 2.71778 1.2632 0
M  V30 12797 H 1175.59 1.52355 0.547673 0
M  V30 12798 H 1177.58 1.80285 3.62325 0
M  V30 12799 H 1176.15 0.961675 2.9744 0
M  V30 12800 H 1175.37 3.30576 2.14739 0
M  V30 12801 H 1176.66 3.99412 3.15194 0
M  V30 12802 H 1176.06 1.72954 5.38613 0
M  V30 12803 H 1174.61 2.35524 6.07759 0
M  V30 12804 N 1178.05 -0.61812 1.44973 0
M  V30 12805 C 1179.28 -1.40225 1.51725 0
M  V30 12806 C 1179.68 -1.88643 0.145098 0
M  V30 12807 O 1179.03 -1.62237 -0.861677 0
M  V30 12808 C 1179.09 -2.64808 2.4314 0
M  V30 12809 C 1178.75 -2.381 3.90073 0
M  V30 12810 C 1179.75 -1.99116 4.80259 0
M  V30 12811 C 1177.43 -2.51338 4.34896 0
M  V30 12812 C 1179.43 -1.73716 6.13271 0
M  V30 12813 C 1177.12 -2.25552 5.67952 0
M  V30 12814 C 1178.11 -1.86801 6.56958 0
M  V30 12815 O 1177.8 -1.6131 7.8755 0
M  V30 12816 H 1177.53 -0.436024 0.516584 0
M  V30 12817 H 1180.09 -0.761929 1.90745 0
M  V30 12818 H 1178.32 -3.31524 1.9907 0
M  V30 12819 H 1180.01 -3.26835 2.40694 0
M  V30 12820 H 1180.77 -1.88435 4.46897 0
M  V30 12821 H 1176.65 -2.80468 3.65867 0
M  V30 12822 H 1180.2 -1.43395 6.82703 0
M  V30 12823 H 1176.09 -2.35847 6.00872 0
M  V30 12824 H 1176.86 -1.75449 7.99475 0
M  V30 12825 N 1179.52 -1.32087 -0.859693 0
M  V30 12826 C 1180.77 -1.23551 -1.61575 0
M  V30 12827 C 1181.12 0.20199 -1.91337 0
M  V30 12828 O 1180.42 1.13834 -1.54118 0
M  V30 12829 C 1180.61 -2.0234 -2.94607 0
M  V30 12830 C 1180.44 -3.53606 -2.77836 0
M  V30 12831 C 1179.21 -4.22948 -2.76483 0
M  V30 12832 C 1181.41 -4.48356 -2.51955 0
M  V30 12833 N 1179.39 -5.60301 -2.5087 0
M  V30 12834 C 1180.76 -5.7345 -2.35702 0
M  V30 12835 C 1182.82 -4.37669 -2.37383 0
M  V30 12836 C 1181.52 -6.89064 -2.06357 0
M  V30 12837 C 1183.55 -5.53077 -2.09427 0
M  V30 12838 C 1182.91 -6.77167 -1.93971 0
M  V30 12839 H 1179.01 -0.507252 -0.595164 0
M  V30 12840 H 1181.59 -1.66395 -1.01098 0
M  V30 12841 H 1179.76 -1.6185 -3.53071 0
M  V30 12842 H 1181.49 -1.8574 -3.59559 0
M  V30 12843 H 1178.25 -3.75017 -2.89239 0
M  V30 12844 H 1178.67 -6.32649 -2.41006 0
M  V30 12845 H 1183.31 -3.42386 -2.48056 0
M  V30 12846 H 1181.03 -7.84363 -1.94421 0
M  V30 12847 H 1184.62 -5.46731 -1.98937 0
M  V30 12848 H 1183.5 -7.64959 -1.72646 0
M  V30 12849 N 1181 1.07532 -1.15215 0
M  V30 12850 C 1182.23 1.84356 -0.950139 0
M  V30 12851 C 1182.65 1.81429 0.496502 0
M  V30 12852 O 1182.01 1.20589 1.35381 0
M  V30 12853 C 1182.06 3.29425 -1.46669 0
M  V30 12854 O 1181.16 4.07008 -0.664674 0
M  V30 12855 H 1180.5 0.570921 -0.339036 0
M  V30 12856 H 1183.03 1.35665 -1.53154 0
M  V30 12857 H 1183.04 3.8026 -1.47873 0
M  V30 12858 H 1181.72 3.3087 -2.51988 0
M  V30 12859 H 1180.29 3.65841 -0.72211 0
M  V30 12860 N 1182.48 0.948665 1.2585 0
M  V30 12861 C 1183.41 0.421458 2.25292 0
M  V30 12862 C 1184.43 -0.459389 1.56184 0
M  V30 12863 O 1185.61 -0.268627 1.76467 0
M  V30 12864 C 1182.71 -0.412653 3.36378 0
M  V30 12865 C 1181.89 0.453792 4.3504 0
M  V30 12866 C 1180.95 -0.321127 5.25219 0
M  V30 12867 O 1179.97 0.278424 5.68519 0
M  V30 12868 N 1181.17 -1.61576 5.5756 0
M  V30 12869 H 1183.94 1.27636 2.71162 0
M  V30 12870 H 1181.5 0.818367 1.39694 0
M  V30 12871 H 1183.49 -0.938637 3.93664 0
M  V30 12872 H 1182.06 -1.16839 2.89944 0
M  V30 12873 H 1181.28 1.16093 3.76718 0
M  V30 12874 H 1182.57 1.04538 4.97945 0
M  V30 12875 H 1181.97 -2.12488 5.24276 0
M  V30 12876 H 1180.53 -2.08783 6.17457 0
M  V30 12877 N 1183.96 -1.40369 0.716545 0
M  V30 12878 C 1184.87 -2.34508 0.065658 0
M  V30 12879 C 1185.88 -1.57352 -0.742723 0
M  V30 12880 O 1187.06 -1.89735 -0.675456 0
M  V30 12881 C 1184.13 -3.36262 -0.844337 0
M  V30 12882 C 1183.19 -4.29292 -0.0257971 0
M  V30 12883 C 1182.42 -5.26185 -0.892452 0
M  V30 12884 O 1182.64 -5.29071 -2.13166 0
M  V30 12885 O 1181.58 -6.0099 -0.330933 0
M  V30 12886 H 1185.4 -2.91789 0.842184 0
M  V30 12887 H 1182.99 -1.41579 0.477034 0
M  V30 12888 H 1184.87 -3.98661 -1.36555 0
M  V30 12889 H 1183.54 -2.81393 -1.59999 0
M  V30 12890 H 1182.45 -3.70175 0.540512 0
M  V30 12891 H 1183.78 -4.87316 0.69166 0
M  V30 12892 N 1185.44 -0.462799 -1.50652 0
M  V30 12893 C 1186.37 0.325724 -2.31217 0
M  V30 12894 C 1187.35 0.997942 -1.3775 0
M  V30 12895 O 1188.53 0.996707 -1.66671 0
M  V30 12896 C 1185.66 1.41283 -3.17264 0
M  V30 12897 C 1184.62 0.862687 -4.19216 0
M  V30 12898 C 1183.94 2.04746 -4.93946 0
M  V30 12899 C 1185.24 -0.120365 -5.22161 0
M  V30 12900 H 1186.94 -0.346666 -2.97386 0
M  V30 12901 H 1184.48 -0.168163 -1.43015 0
M  V30 12902 H 1186.44 1.97188 -3.72418 0
M  V30 12903 H 1185.16 2.11387 -2.48964 0
M  V30 12904 H 1183.82 0.325671 -3.65151 0
M  V30 12905 H 1183.47 2.73529 -4.22127 0
M  V30 12906 H 1183.17 1.68562 -5.62904 0
M  V30 12907 H 1184.69 2.61157 -5.51932 0
M  V30 12908 H 1186.1 0.349226 -5.72235 0
M  V30 12909 H 1184.5 -0.396061 -5.98792 0
M  V30 12910 H 1185.57 -1.04895 -4.73418 0
M  V30 12911 N 1186.91 1.56388 -0.195085 0
M  V30 12912 C 1187.86 2.19091 0.725793 0
M  V30 12913 C 1188.83 1.13814 1.20977 0
M  V30 12914 O 1190.02 1.42065 1.27366 0
M  V30 12915 C 1187.16 2.85427 1.93973 0
M  V30 12916 C 1186.27 4.05229 1.49712 0
M  V30 12917 C 1185.4 4.59421 2.66656 0
M  V30 12918 C 1184.44 5.71581 2.19001 0
M  V30 12919 N 1183.58 6.2018 3.29123 0
M  V30 12920 H 1188.42 2.97429 0.184334 0
M  V30 12921 H 1185.96 1.46886 0.0792434 0
M  V30 12922 H 1187.92 3.22057 2.65208 0
M  V30 12923 H 1186.55 2.09652 2.4545 0
M  V30 12924 H 1185.6 3.74261 0.680641 0
M  V30 12925 H 1186.91 4.8635 1.10749 0
M  V30 12926 H 1186.06 4.98357 3.46014 0
M  V30 12927 H 1184.8 3.77407 3.08893 0
M  V30 12928 H 1183.81 5.32174 1.38097 0
M  V30 12929 H 1185.03 6.55413 1.77795 0
M  V30 12930 H 1182.98 5.41088 3.70891 0
M  V30 12931 H 1182.9 6.96353 2.94328 0
M  V30 12932 H 1184.16 6.63769 4.08694 0
M  V30 12933 N 1188.39 -0.0785156 1.57404 0
M  V30 12934 C 1189.34 -1.11278 2.04255 0
M  V30 12935 C 1190.33 -1.40482 0.946633 0
M  V30 12936 O 1191.54 -1.39968 1.13177 0
M  V30 12937 H 1187.92 -0.376157 0.65116 0
M  V30 12938 H 1189.89 -0.691437 2.90279 0
M  V30 12939 C 1188.64 -2.42006 2.49656 0
M  V30 12940 H 1187.96 -2.20383 3.33574 0
M  V30 12941 H 1189.4 -3.12837 2.86197 0
M  V30 12942 C 1187.86 -3.07488 1.37669 0
M  V30 12943 O 1188.39 -3.95285 0.715036 0
M  V30 12944 N 1186.59 -2.68004 1.1235 0
M  V30 12945 H 1186.14 -1.96698 1.66336 0
M  V30 12946 H 1186.1 -3.12141 0.376238 0
M  V30 12947 N 1189.87 -1.5367 -0.349747 0
M  V30 12948 C 1191.1 -1.74858 -1.11532 0
M  V30 12949 C 1191.52 -0.483591 -1.81777 0
M  V30 12950 O 1190.88 0.563399 -1.72324 0
M  V30 12951 C 1190.93 -2.92479 -2.10923 0
M  V30 12952 O 1190.03 -2.62194 -3.18321 0
M  V30 12953 H 1189.37 -0.580219 -0.322865 0
M  V30 12954 H 1191.9 -2.00611 -0.402033 0
M  V30 12955 H 1191.91 -3.19093 -2.54252 0
M  V30 12956 H 1190.59 -3.84228 -1.59191 0
M  V30 12957 H 1189.16 -2.46448 -2.79853 0
M  V30 12958 N 1191.35 0.610423 -1.45298 0
M  V30 12959 C 1192.31 1.70324 -1.5337 0
M  V30 12960 C 1193.31 1.55393 -0.413492 0
M  V30 12961 O 1194.5 1.60512 -0.676872 0
M  V30 12962 C 1191.63 3.09572 -1.42752 0
M  V30 12963 H 1192.83 1.64535 -2.50736 0
M  V30 12964 H 1190.38 0.825906 -1.32697 0
M  V30 12965 H 1191.11 3.2094 -0.465601 0
M  V30 12966 H 1190.9 3.21817 -2.24 0
M  V30 12967 H 1192.39 3.89178 -1.51427 0
M  V30 12968 N 1192.83 1.32541 0.852676 0
M  V30 12969 C 1194.07 1.23397 1.60938 0
M  V30 12970 C 1194.41 -0.203294 1.93133 0
M  V30 12971 O 1193.68 -1.14097 1.57519 0
M  V30 12972 C 1193.96 2.0956 2.92842 0
M  V30 12973 C 1193.82 3.61675 2.67416 0
M  V30 12974 C 1195.14 1.95825 3.94133 0
M  V30 12975 H 1192.25 0.449608 0.583971 0
M  V30 12976 H 1194.9 1.62507 0.98446 0
M  V30 12977 H 1193.05 1.76336 3.46176 0
M  V30 12978 H 1194.72 4.05122 2.20621 0
M  V30 12979 H 1192.96 3.84242 2.01347 0
M  V30 12980 H 1193.63 4.17292 3.61347 0
M  V30 12981 H 1196.11 2.24935 3.50062 0
M  V30 12982 H 1194.98 2.58387 4.8428 0
M  V30 12983 H 1195.25 0.926466 4.32284 0
M  V30 12984 N 1194.3 -1.0692 1.15784 0
M  V30 12985 C 1195.53 -1.83849 0.959903 0
M  V30 12986 C 1195.95 -1.8169 -0.486873 0
M  V30 12987 O 1195.31 -1.21305 -1.34739 0
M  V30 12988 C 1195.36 -3.28642 1.48414 0
M  V30 12989 O 1194.46 -4.0665 0.686249 0
M  V30 12990 H 1193.81 -0.569115 0.342059 0
M  V30 12991 H 1196.34 -1.34851 1.53871 0
M  V30 12992 H 1196.35 -3.7947 1.49888 0
M  V30 12993 H 1195.02 -3.29529 2.53739 0
M  V30 12994 H 1193.6 -3.65453 0.741501 0
M  V30 12995 N 1195.78 -0.955326 -1.25345 0
M  V30 12996 C 1196.71 -0.494145 -2.28211 0
M  V30 12997 C 1197.69 0.459875 -1.63766 0
M  V30 12998 O 1198.88 0.358679 -1.90859 0
M  V30 12999 C 1196.01 0.228228 -3.46549 0
M  V30 13000 C 1194.96 -0.640601 -4.23179 0
M  V30 13001 C 1194.29 0.212553 -5.34277 0
M  V30 13002 C 1195.59 -1.91906 -4.85767 0
M  V30 13003 H 1197.28 -1.35391 -2.67039 0
M  V30 13004 H 1194.83 -0.652462 -1.2837 0
M  V30 13005 H 1196.78 0.561995 -4.17636 0
M  V30 13006 H 1195.51 1.12224 -3.06714 0
M  V30 13007 H 1194.16 -0.957462 -3.53876 0
M  V30 13008 H 1193.81 1.10634 -4.90682 0
M  V30 13009 H 1193.51 -0.365473 -5.86462 0
M  V30 13010 H 1195.04 0.541271 -6.08196 0
M  V30 13011 H 1196.45 -1.65165 -5.48993 0
M  V30 13012 H 1194.85 -2.44279 -5.48131 0
M  V30 13013 H 1195.92 -2.62173 -4.07914 0
M  V30 13014 N 1197.26 1.39987 -0.723979 0
M  V30 13015 C 1198.19 2.3332 -0.0917282 0
M  V30 13016 C 1199.17 1.53335 0.736361 0
M  V30 13017 O 1200.36 1.81771 0.683582 0
M  V30 13018 C 1197.49 3.3737 0.824549 0
M  V30 13019 C 1196.44 4.2788 0.101452 0
M  V30 13020 C 1195.77 5.22536 1.13401 0
M  V30 13021 C 1197.07 5.11649 -1.04939 0
M  V30 13022 H 1198.76 2.86441 -0.871318 0
M  V30 13023 H 1196.31 1.37725 -0.420448 0
M  V30 13024 H 1198.26 4.01607 1.27631 0
M  V30 13025 H 1196.98 2.82663 1.63613 0
M  V30 13026 H 1195.64 3.65107 -0.330569 0
M  V30 13027 H 1195.29 4.64131 1.93886 0
M  V30 13028 H 1194.99 5.83938 0.65502 0
M  V30 13029 H 1196.52 5.89651 1.58569 0
M  V30 13030 H 1197.93 5.69293 -0.6766 0
M  V30 13031 H 1196.33 5.82137 -1.45729 0
M  V30 13032 H 1197.4 4.47132 -1.8762 0
M  V30 13033 N 1198.74 0.470782 1.50404 0
M  V30 13034 C 1199.69 -0.337584 2.30137 0
M  V30 13035 C 1200.68 -0.990673 1.37412 0
M  V30 13036 O 1201.89 -0.921813 1.54605 0
M  V30 13037 H 1198.26 -0.127707 0.741077 0
M  V30 13038 H 1200.23 0.355297 2.96277 0
M  V30 13039 C 1198.98 -1.40714 3.17954 0
M  V30 13040 H 1198.31 -0.913982 3.89213 0
M  V30 13041 H 1199.75 -1.94533 3.7674 0
M  V30 13042 C 1198.2 -2.40889 2.35529 0
M  V30 13043 O 1198.73 -3.46153 2.03816 0
M  V30 13044 N 1196.94 -2.126 1.98115 0
M  V30 13045 H 1196.49 -1.27023 2.24105 0
M  V30 13046 H 1196.45 -2.7986 1.43269 0
M  V30 13047 N 1200.22 -1.56282 0.203376 0
M  V30 13048 C 1201.18 -2.18233 -0.700489 0
M  V30 13049 C 1202.18 -1.13908 -1.13497 0
M  V30 13050 O 1203.37 -1.39246 -1.04672 0
M  V30 13051 C 1200.5 -2.79107 -1.95735 0
M  V30 13052 H 1201.7 -2.99469 -0.160649 0
M  V30 13053 H 1199.25 -1.56232 -0.0462475 0
M  V30 13054 H 1199.98 -2.01691 -2.53951 0
M  V30 13055 H 1199.77 -3.55486 -1.65446 0
M  V30 13056 H 1201.26 -3.2665 -2.60172 0
M  V30 13057 N 1201.7 0.070167 -1.57444 0
M  V30 13058 C 1202.92 0.781894 -1.91557 0
M  V30 13059 C 1203.34 1.71037 -0.799489 0
M  V30 13060 O 1202.7 1.81082 0.227062 0
M  V30 13061 C 1202.75 1.57415 -3.25427 0
M  V30 13062 O 1202.47 0.682991 -4.32743 0
M  V30 13063 C 1203.97 2.38673 -3.73564 0
M  V30 13064 H 1201.19 0.222211 -0.633138 0
M  V30 13065 H 1203.73 0.0399504 -2.04461 0
M  V30 13066 H 1201.89 2.26835 -3.14045 0
M  V30 13067 H 1202.3 1.2342 -5.09772 0
M  V30 13068 H 1203.78 2.89716 -4.6986 0
M  V30 13069 H 1204.25 3.18269 -3.02657 0
M  V30 13070 H 1204.86 1.74405 -3.87896 0
M  V30 13071 N 1203.17 1.53854 0.341593 0
M  V30 13072 C 1204.14 1.8128 1.40251 0
M  V30 13073 C 1205.14 0.683915 1.45531 0
M  V30 13074 O 1206.33 0.952202 1.45872 0
M  V30 13075 C 1203.46 1.95658 2.79161 0
M  V30 13076 H 1204.65 2.76053 1.17195 0
M  V30 13077 H 1202.2 1.45296 0.57609 0
M  V30 13078 H 1202.94 1.03034 3.07497 0
M  V30 13079 H 1202.72 2.77788 2.76724 0
M  V30 13080 H 1204.21 2.18387 3.55945 0
M  V30 13081 N 1204.65 -0.602709 1.4562 0
M  V30 13082 C 1205.9 -1.35769 1.49163 0
M  V30 13083 C 1206.21 -1.95102 0.139485 0
M  V30 13084 O 1207.42 -2.71449 0.0525919 0
M  V30 13085 C 1205.88 -2.45959 2.62739 0
M  V30 13086 C 1205.48 -1.93017 4.04288 0
M  V30 13087 C 1207.23 -3.22926 2.75534 0
M  V30 13088 C 1205.13 -3.00718 5.09237 0
M  V30 13089 H 1204.06 -0.510317 0.555061 0
M  V30 13090 H 1206.72 -0.645434 1.71774 0
M  V30 13091 H 1205.1 -3.19892 2.3342 0
M  V30 13092 H 1206.27 -1.2576 4.43307 0
M  V30 13093 H 1204.59 -1.2878 3.95986 0
M  V30 13094 H 1207.18 -4.03267 3.51112 0
M  V30 13095 H 1207.53 -3.74243 1.82339 0
M  V30 13096 H 1208.06 -2.56095 3.04402 0
M  V30 13097 H 1204.8 -2.54312 6.04157 0
M  V30 13098 H 1204.32 -3.66526 4.74783 0
M  V30 13099 H 1206 -3.65016 5.34202 0
M  V30 13100 N 1206.13 -1.32992 -0.845635 0
M  V30 13101 C 1207.09 -1.22607 -1.9365 0
M  V30 13102 C 1208.09 -0.146812 -1.60128 0
M  V30 13103 O 1209.28 -0.397863 -1.69596 0
M  V30 13104 C 1206.41 -0.887677 -3.2914 0
M  V30 13105 H 1207.61 -2.19563 -2.04285 0
M  V30 13106 H 1205.16 -1.16952 -1.03691 0
M  V30 13107 H 1205.9 0.0796777 -3.24202 0
M  V30 13108 H 1205.68 -1.66808 -3.54849 0
M  V30 13109 H 1207.17 -0.83958 -4.09073 0
M  V30 13110 N 1207.61 1.06304 -1.1635 0
M  V30 13111 C 1208.85 1.79366 -0.94634 0
M  V30 13112 C 1209.19 1.86981 0.524569 0
M  V30 13113 O 1208.46 1.36134 1.38917 0
M  V30 13114 C 1208.74 3.23861 -1.57436 0
M  V30 13115 C 1208.6 3.24327 -3.1166 0
M  V30 13116 C 1209.92 4.21409 -1.26895 0
M  V30 13117 H 1207.04 0.65115 -0.345215 0
M  V30 13118 H 1209.68 1.24325 -1.43678 0
M  V30 13119 H 1207.83 3.70862 -1.15731 0
M  V30 13120 H 1209.5 2.85488 -3.62346 0
M  V30 13121 H 1207.74 2.62983 -3.44997 0
M  V30 13122 H 1208.41 4.2626 -3.50723 0
M  V30 13123 H 1210.89 3.8285 -1.62989 0
M  V30 13124 H 1209.77 5.20778 -1.73439 0
M  V30 13125 H 1210.03 4.41701 -0.187768 0
M  V30 13126 N 1209.09 0.96196 1.24836 0
M  V30 13127 C 1210.33 0.619489 1.92371 0
M  V30 13128 C 1210.65 -0.847233 1.75633 0
M  V30 13129 O 1209.92 -1.60419 1.12439 0
M  V30 13130 H 1208.5 0.226129 0.711951 0
M  V30 13131 H 1211.17 1.22179 1.5185 0
M  V30 13132 H 1210.26 0.855128 3.00157 0
M  V30 13133 N 1210.56 -1.39601 0.731392 0
M  V30 13134 C 1211.47 -2.34425 0.090527 0
M  V30 13135 C 1212.49 -1.58131 -0.725992 0
M  V30 13136 O 1213.67 -1.90441 -0.655294 0
M  V30 13137 C 1210.73 -3.37138 -0.808624 0
M  V30 13138 C 1209.79 -4.29295 0.0197365 0
M  V30 13139 C 1209.02 -5.27102 -0.836593 0
M  V30 13140 O 1209.25 -5.31302 -2.07543 0
M  V30 13141 O 1208.18 -6.01307 -0.267172 0
M  V30 13142 H 1212.01 -2.9088 0.873084 0
M  V30 13143 H 1209.59 -1.41066 0.492024 0
M  V30 13144 H 1211.47 -4.00087 -1.32319 0
M  V30 13145 H 1210.15 -2.83074 -1.57006 0
M  V30 13146 H 1209.06 -3.69581 0.579744 0
M  V30 13147 H 1210.39 -4.86555 0.743308 0
M  V30 13148 N 1212.04 -0.478751 -1.50152 0
M  V30 13149 C 1213.46 -0.133356 -1.59042 0
M  V30 13150 C 1213.66 1.36069 -1.48618 0
M  V30 13151 O 1212.71 2.13468 -1.34862 0
M  V30 13152 C 1214.03 -0.690369 -2.92668 0
M  V30 13153 C 1215.58 -0.654481 -3.06081 0
M  V30 13154 C 1216.05 -1.18917 -4.42293 0
M  V30 13155 N 1217.54 -1.14891 -4.48725 0
M  V30 13156 C 1218.28 -1.53305 -5.52526 0
M  V30 13157 N 1217.77 -1.99205 -6.63543 0
M  V30 13158 N 1219.57 -1.4486 -5.43113 0
M  V30 13159 H 1211.72 -1.45037 -1.55171 0
M  V30 13160 H 1213.98 -0.600254 -0.733757 0
M  V30 13161 H 1213.69 -1.7373 -3.05795 0
M  V30 13162 H 1213.56 -0.138227 -3.76947 0
M  V30 13163 H 1215.95 0.383564 -2.92597 0
M  V30 13164 H 1216.03 -1.24352 -2.2354 0
M  V30 13165 H 1215.67 -2.22588 -4.56527 0
M  V30 13166 H 1215.6 -0.57628 -5.23437 0
M  V30 13167 H 1218.09 -0.812344 -3.69066 0
M  V30 13168 H 1218.41 -2.26645 -7.38818 0
M  V30 13169 H 1216.75 -2.03164 -6.64642 0
M  V30 13170 H 1219.94 -1.08836 -4.55272 0
M  V30 13171 H 1220.11 -1.75123 -6.23888 0
M  V30 13172 N 1213.52 1.56172 -0.211661 0
M  V30 13173 C 1214.75 2.02428 0.427843 0
M  V30 13174 C 1215.16 1.09162 1.54043 0
M  V30 13175 O 1214.52 0.0994249 1.82229 0
M  V30 13176 C 1214.57 3.48279 0.968728 0
M  V30 13177 O 1214.29 4.37987 -0.0994841 0
M  V30 13178 C 1215.79 4.10132 1.68246 0
M  V30 13179 H 1213.01 0.662611 0.10577 0
M  V30 13180 H 1215.56 2.01897 -0.32522 0
M  V30 13181 H 1213.71 3.49456 1.6721 0
M  V30 13182 H 1214.13 5.23609 0.305558 0
M  V30 13183 H 1215.6 5.13985 2.01304 0
M  V30 13184 H 1216.08 3.54552 2.5921 0
M  V30 13185 H 1216.68 4.12775 1.02453 0
M  V30 13186 N 1215 -0.0618163 1.57479 0
M  V30 13187 C 1216.28 -0.792636 1.7882 0
M  V30 13188 C 1216.66 -1.95283 0.801724 0
M  V30 13189 O 1216 -2.27917 -0.163095 0
M  V30 13190 C 1216.21 -1.25629 3.25605 0
M  V30 13191 C 1217.56 -1.68561 3.89708 0
M  V30 13192 O 1218.59 -1.35171 3.29556 0
M  V30 13193 O 1217.44 -2.30417 4.95551 0
M  V30 13194 H 1214.54 -0.380595 0.734218 0
M  V30 13195 H 1217.08 -0.0411205 1.6965 0
M  V30 13196 H 1215.86 -0.426582 3.88968 0
M  V30 13197 H 1215.48 -2.06882 3.39537 0
M  V30 13198 N 1216.48 -1.54033 -0.333429 0
M  V30 13199 C 1217.89 -1.44522 -0.677166 0
M  V30 13200 C 1218.09 -0.610122 -1.92041 0
M  V30 13201 O 1217.15 -0.105058 -2.52281 0
M  V30 13202 C 1218.46 -2.88129 -0.860369 0
M  V30 13203 C 1220.01 -2.97968 -0.958342 0
M  V30 13204 C 1220.48 -4.42703 -1.17379 0
M  V30 13205 N 1221.98 -4.46273 -1.24075 0
M  V30 13206 C 1222.71 -5.55407 -1.42515 0
M  V30 13207 N 1222.21 -6.74528 -1.58062 0
M  V30 13208 N 1224 -5.43037 -1.45144 0
M  V30 13209 H 1216.15 -2.06815 0.483858 0
M  V30 13210 H 1218.41 -0.935307 0.15461 0
M  V30 13211 H 1218.12 -3.51695 -0.0182085 0
M  V30 13212 H 1217.99 -3.33668 -1.75913 0
M  V30 13213 H 1220.38 -2.34535 -1.79102 0
M  V30 13214 H 1220.46 -2.55774 -0.0362643 0
M  V30 13215 H 1220.11 -5.0672 -0.346004 0
M  V30 13216 H 1220.04 -4.82498 -2.10959 0
M  V30 13217 H 1222.53 -3.60439 -1.13545 0
M  V30 13218 H 1222.84 -7.53462 -1.71797 0
M  V30 13219 H 1221.18 -6.77454 -1.55179 0
M  V30 13220 H 1224.38 -4.4893 -1.32588 0
M  V30 13221 H 1224.55 -6.28146 -1.59173 0
M  V30 13222 N 1217.95 0.594978 -1.45938 0
M  V30 13223 C 1218.92 1.68688 -1.55168 0
M  V30 13224 C 1219.92 1.54945 -0.429951 0
M  V30 13225 O 1221.11 1.59785 -0.693859 0
M  V30 13226 C 1218.24 3.0804 -1.46027 0
M  V30 13227 H 1219.43 1.61866 -2.52467 0
M  V30 13228 H 1216.99 0.811785 -1.33565 0
M  V30 13229 H 1217.72 3.20428 -0.499614 0
M  V30 13230 H 1217.51 3.19423 -2.27401 0
M  V30 13231 H 1219 3.8755 -1.55546 0
M  V30 13232 N 1219.43 1.33438 0.838571 0
M  V30 13233 C 1220.68 1.24259 1.58879 0
M  V30 13234 C 1220.99 -0.189957 1.94675 0
M  V30 13235 O 1222.2 -0.40376 2.68481 0
M  V30 13236 C 1220.66 2.1773 2.86569 0
M  V30 13237 C 1220.26 3.66156 2.58135 0
M  V30 13238 C 1222.01 2.17424 3.64591 0
M  V30 13239 C 1219.92 4.5154 3.81923 0
M  V30 13240 H 1218.85 0.461534 0.59624 0
M  V30 13241 H 1221.5 1.58504 0.924588 0
M  V30 13242 H 1219.88 1.76418 3.54532 0
M  V30 13243 H 1221.05 4.1591 1.98382 0
M  V30 13244 H 1219.37 3.68754 1.93416 0
M  V30 13245 H 1221.96 2.78446 4.56478 0
M  V30 13246 H 1222.31 1.16939 3.99539 0
M  V30 13247 H 1222.84 2.571 3.03553 0
M  V30 13248 H 1219.58 5.52902 3.52107 0
M  V30 13249 H 1219.1 4.06529 4.41015 0
M  V30 13250 H 1220.78 4.65359 4.495 0
M  V30 13251 N 1220.91 -1.05686 1.16912 0
M  V30 13252 C 1221.82 -2.16824 0.8958 0
M  V30 13253 C 1222.84 -1.73482 -0.134215 0
M  V30 13254 O 1224.01 -2.01352 0.0438776 0
M  V30 13255 C 1221.08 -3.44298 0.407427 0
M  V30 13256 C 1220.14 -4.02114 1.50342 0
M  V30 13257 C 1219.37 -5.23503 1.03826 0
M  V30 13258 O 1219.59 -5.70295 -0.109579 0
M  V30 13259 O 1218.53 -5.73432 1.8292 0
M  V30 13260 H 1222.35 -2.42725 1.82533 0
M  V30 13261 H 1219.94 -1.15339 0.949589 0
M  V30 13262 H 1221.82 -4.21159 0.142356 0
M  V30 13263 H 1220.5 -3.19908 -0.494009 0
M  V30 13264 H 1219.4 -3.26715 1.82231 0
M  V30 13265 H 1220.74 -4.30811 2.38039 0
M  V30 13266 N 1222.39 -0.968567 -1.24324 0
M  V30 13267 C 1223.63 -0.631863 -1.92705 0
M  V30 13268 C 1223.97 0.83096 -1.75524 0
M  V30 13269 O 1223.24 1.59795 -1.10887 0
M  V30 13270 C 1223.53 -1.00845 -3.45691 0
M  V30 13271 C 1223.38 -2.52803 -3.72036 0
M  V30 13272 C 1224.7 -0.543647 -4.36729 0
M  V30 13273 H 1221.82 -0.231027 -0.699854 0
M  V30 13274 H 1224.46 -1.20773 -1.46676 0
M  V30 13275 H 1222.61 -0.518434 -3.85025 0
M  V30 13276 H 1224.28 -3.09289 -3.42255 0
M  V30 13277 H 1222.52 -2.95963 -3.17157 0
M  V30 13278 H 1223.19 -2.74203 -4.79079 0
M  V30 13279 H 1225.67 -0.964182 -4.04775 0
M  V30 13280 H 1224.55 -0.8357 -5.42501 0
M  V30 13281 H 1224.81 0.556256 -4.38587 0
M  V30 13282 N 1223.87 1.39211 -0.738786 0
M  V30 13283 C 1225.11 2.00733 -0.288817 0
M  V30 13284 C 1225.45 1.58494 1.1222 0
M  V30 13285 O 1224.72 0.815579 1.76575 0
M  V30 13286 C 1225 3.57928 -0.394956 0
M  V30 13287 C 1224.86 4.10174 -1.84601 0
M  V30 13288 C 1226.18 4.39548 0.220395 0
M  V30 13289 H 1223.29 0.729276 -0.106418 0
M  V30 13290 H 1225.94 1.65365 -0.935652 0
M  V30 13291 H 1224.09 3.88188 0.155744 0
M  V30 13292 H 1225.76 3.90618 -2.45388 0
M  V30 13293 H 1224 3.63593 -2.36607 0
M  V30 13294 H 1224.67 5.19305 -1.87152 0
M  V30 13295 H 1227.15 4.15354 -0.249098 0
M  V30 13296 H 1226.02 5.48778 0.115806 0
M  V30 13297 H 1226.29 4.22341 1.30691 0
M  V30 13298 N 1225.34 0.486708 1.49896 0
M  V30 13299 C 1226.28 -0.335809 2.26727 0
M  V30 13300 C 1227.29 -0.94333 1.32684 0
M  V30 13301 O 1228.48 -0.82909 1.58077 0
M  V30 13302 C 1225.58 -1.48642 3.04563 0
M  V30 13303 C 1224.75 -0.988837 4.26076 0
M  V30 13304 C 1223.81 -2.01535 4.86076 0
M  V30 13305 O 1222.84 -1.58966 5.46552 0
M  V30 13306 N 1224.04 -3.34471 4.74457 0
M  V30 13307 H 1226.8 0.322919 2.97955 0
M  V30 13308 H 1224.36 0.318403 1.58738 0
M  V30 13309 H 1226.36 -2.17039 3.41579 0
M  V30 13310 H 1224.93 -2.04956 2.36033 0
M  V30 13311 H 1224.15 -0.130232 3.93985 0
M  V30 13312 H 1225.43 -0.634562 5.04827 0
M  V30 13313 H 1224.83 -3.71755 4.26398 0
M  V30 13314 H 1223.39 -3.98621 5.15698 0
M  V30 13315 N 1226.82 -1.56058 0.219941 0
M  V30 13316 C 1228.24 -1.59024 -0.135476 0
M  V30 13317 C 1228.44 -1.23672 -1.59083 0
M  V30 13318 O 1227.5 -0.971197 -2.33075 0
M  V30 13319 C 1228.81 -3.00103 0.189356 0
M  V30 13320 C 1230.36 -3.12724 0.131463 0
M  V30 13321 C 1230.83 -4.55977 0.429947 0
M  V30 13322 N 1232.32 -4.61643 0.37946 0
M  V30 13323 C 1233.06 -5.70419 0.58393 0
M  V30 13324 N 1232.55 -6.87565 0.850088 0
M  V30 13325 N 1234.35 -5.59722 0.516477 0
M  V30 13326 H 1226.5 -1.77313 1.16935 0
M  V30 13327 H 1228.76 -0.824096 0.468583 0
M  V30 13328 H 1228.47 -3.30616 1.19941 0
M  V30 13329 H 1228.34 -3.73919 -0.49641 0
M  V30 13330 H 1230.73 -2.82008 -0.869223 0
M  V30 13331 H 1230.81 -2.41241 0.85068 0
M  V30 13332 H 1230.45 -4.8741 1.42806 0
M  V30 13333 H 1230.38 -5.25684 -0.310444 0
M  V30 13334 H 1232.87 -3.77465 0.181373 0
M  V30 13335 H 1233.19 -7.66378 0.994251 0
M  V30 13336 H 1231.53 -6.89313 0.887265 0
M  V30 13337 H 1234.72 -4.6708 0.308784 0
M  V30 13338 H 1234.9 -6.4443 0.679236 0
M  V30 13339 N 1228.3 0.053464 -1.57509 0
M  V30 13340 C 1229.26 1.04604 -2.03938 0
M  V30 13341 C 1230.26 1.30509 -0.939357 0
M  V30 13342 O 1231.45 1.25922 -1.20371 0
M  V30 13343 C 1228.59 2.38516 -2.43563 0
M  V30 13344 H 1229.78 0.645484 -2.92871 0
M  V30 13345 H 1227.33 0.299683 -1.534 0
M  V30 13346 H 1228.07 2.83368 -1.57712 0
M  V30 13347 H 1227.85 2.2105 -3.23851 0
M  V30 13348 H 1229.34 3.09826 -2.79996 0
M  V30 13349 N 1229.78 1.54207 0.325255 0
M  V30 13350 C 1231.03 1.72331 1.0634 0
M  V30 13351 C 1231.35 0.496115 1.88066 0
M  V30 13352 O 1230.61 -0.52214 1.88606 0
M  V30 13353 C 1230.91 2.95 2.01766 0
M  V30 13354 C 1230.57 4.29835 1.36208 0
M  V30 13355 C 1229.24 4.66493 1.18059 0
M  V30 13356 C 1231.59 5.13521 0.891404 0
M  V30 13357 C 1228.92 5.84436 0.514894 0
M  V30 13358 C 1231.27 6.32146 0.239534 0
M  V30 13359 C 1229.93 6.67484 0.0458839 0
M  V30 13360 H 1229.2 0.630605 0.389125 0
M  V30 13361 H 1231.85 1.88445 0.34072 0
M  V30 13362 H 1230.15 2.73567 2.80479 0
M  V30 13363 H 1231.85 3.06217 2.58906 0
M  V30 13364 H 1228.44 4.00993 1.51335 0
M  V30 13365 H 1232.63 4.85718 1.01941 0
M  V30 13366 H 1227.88 6.10376 0.353644 0
M  V30 13367 H 1232.06 6.96273 -0.133185 0
M  V30 13368 H 1229.68 7.58733 -0.471978 0
M  V30 13369 N 1231.26 -0.58723 1.46251 0
M  V30 13370 C 1232.67 -0.910129 1.31106 0
M  V30 13371 C 1232.87 -1.99557 0.279141 0
M  V30 13372 O 1231.93 -2.50466 -0.319867 0
M  V30 13373 C 1233.24 -1.33177 2.69601 0
M  V30 13374 C 1234.79 -1.44486 2.77656 0
M  V30 13375 C 1235.27 -1.90018 4.16722 0
M  V30 13376 N 1236.76 -1.97219 4.19117 0
M  V30 13377 C 1237.49 -2.33714 5.23608 0
M  V30 13378 N 1236.99 -2.69034 6.3843 0
M  V30 13379 N 1238.78 -2.3423 5.10972 0
M  V30 13380 H 1230.93 0.12987 2.12003 0
M  V30 13381 H 1233.19 -0.00456718 0.947989 0
M  V30 13382 H 1232.9 -0.608243 3.464 0
M  V30 13383 H 1232.77 -2.29421 2.99409 0
M  V30 13384 H 1235.16 -2.15926 2.01147 0
M  V30 13385 H 1235.24 -0.465047 2.51537 0
M  V30 13386 H 1234.89 -1.19159 4.93724 0
M  V30 13387 H 1234.82 -2.88949 4.40245 0
M  V30 13388 H 1237.31 -1.72431 3.36268 0
M  V30 13389 H 1237.62 -2.95822 7.13939 0
M  V30 13390 H 1235.97 -2.66683 6.41798 0
M  V30 13391 H 1239.16 -2.06056 4.20308 0
M  V30 13392 H 1239.33 -2.62345 5.92519 0
M  V30 13393 N 1232.74 -1.33881 -0.831482 0
M  V30 13394 C 1233.7 -1.24654 -1.92339 0
M  V30 13395 C 1234.7 -0.163788 -1.59964 0
M  V30 13396 O 1235.89 -0.415829 -1.69164 0
M  V30 13397 C 1233.02 -0.922537 -3.2818 0
M  V30 13398 H 1234.21 -2.21717 -2.01944 0
M  V30 13399 H 1231.77 -1.18046 -1.02445 0
M  V30 13400 H 1232.5 0.0452872 -3.24268 0
M  V30 13401 H 1232.29 -1.70562 -3.53059 0
M  V30 13402 H 1233.78 -0.88292 -4.0816 0
M  V30 13403 N 1234.21 1.05064 -1.1747 0
M  V30 13404 C 1235.46 1.77481 -0.958301 0
M  V30 13405 C 1235.78 1.88725 0.51401 0
M  V30 13406 O 1236.98 2.57895 0.848657 0
M  V30 13407 C 1235.44 3.19048 -1.66543 0
M  V30 13408 C 1235.05 3.1593 -3.17636 0
M  V30 13409 C 1236.79 3.95912 -1.53146 0
M  V30 13410 C 1234.7 4.52293 -3.81032 0
M  V30 13411 H 1233.63 0.665247 -0.354913 0
M  V30 13412 H 1236.28 1.17751 -1.40737 0
M  V30 13413 H 1234.66 3.79113 -1.1441 0
M  V30 13414 H 1235.83 2.65375 -3.76713 0
M  V30 13415 H 1234.15 2.52564 -3.31059 0
M  V30 13416 H 1236.75 4.96737 -1.9788 0
M  V30 13417 H 1237.09 4.13498 -0.482203 0
M  V30 13418 H 1237.62 3.42399 -2.02504 0
M  V30 13419 H 1234.36 4.39913 -4.8596 0
M  V30 13420 H 1233.88 5.02991 -3.26741 0
M  V30 13421 H 1235.56 5.2123 -3.83312 0
M  V30 13422 N 1235.69 0.975146 1.23809 0
M  V30 13423 C 1236.62 0.530389 2.27396 0
M  V30 13424 C 1237.6 -0.433763 1.64476 0
M  V30 13425 O 1238.79 -0.32827 1.91405 0
M  V30 13426 C 1235.92 -0.173066 3.46869 0
M  V30 13427 C 1234.87 0.707844 4.22106 0
M  V30 13428 C 1234.2 -0.127527 5.34548 0
M  V30 13429 C 1235.5 1.99609 4.82652 0
M  V30 13430 H 1237.19 1.39622 2.64851 0
M  V30 13431 H 1234.74 0.672802 1.27316 0
M  V30 13432 H 1236.69 -0.495481 4.18477 0
M  V30 13433 H 1235.41 -1.0733 3.0846 0
M  V30 13434 H 1234.07 1.01364 3.52308 0
M  V30 13435 H 1233.72 -1.02814 4.9238 0
M  V30 13436 H 1233.42 0.458728 5.85807 0
M  V30 13437 H 1234.95 -0.444443 6.0898 0
M  V30 13438 H 1236.36 1.73878 5.46296 0
M  V30 13439 H 1234.76 2.52969 5.44175 0
M  V30 13440 H 1235.83 2.68629 4.03691 0
M  V30 13441 N 1237.17 -1.38817 0.746158 0
M  V30 13442 C 1238.12 -2.27825 0.089362 0
M  V30 13443 C 1239.1 -1.44826 -0.701013 0
M  V30 13444 O 1240.3 -1.67632 -0.568188 0
M  V30 13445 C 1237.42 -3.33639 -0.808682 0
M  V30 13446 C 1236.51 -4.24098 -0.0118582 0
M  V30 13447 N 1236.9 -4.95393 1.02075 0
M  V30 13448 C 1235.2 -4.45355 -0.239815 0
M  V30 13449 C 1235.9 -5.61969 1.5022 0
M  V30 13450 N 1234.88 -5.37398 0.818816 0
M  V30 13451 H 1238.68 -2.80406 0.88033 0
M  V30 13452 H 1236.19 -1.51632 0.581512 0
M  V30 13453 H 1238.19 -3.96284 -1.29478 0
M  V30 13454 H 1236.85 -2.82617 -1.59868 0
M  V30 13455 H 1237.86 -4.98552 1.40237 0
M  V30 13456 H 1234.54 -4.05255 -1.00374 0
M  V30 13457 H 1235.93 -6.29017 2.36192 0
M  V30 13458 N 1238.65 -0.49465 -1.49636 0
M  V30 13459 C 1239.9 0.0539277 -2.01628 0
M  V30 13460 C 1240.21 1.38634 -1.37986 0
M  V30 13461 O 1241.42 2.02123 -1.81269 0
M  V30 13462 C 1239.87 0.146582 -3.59601 0
M  V30 13463 C 1239.48 -1.1788 -4.32213 0
M  V30 13464 C 1241.22 0.645862 -4.19558 0
M  V30 13465 C 1239.13 -1.04866 -5.82028 0
M  V30 13466 H 1238.06 0.0239278 -0.75362 0
M  V30 13467 H 1240.71 -0.633112 -1.72232 0
M  V30 13468 H 1239.09 0.897931 -3.85685 0
M  V30 13469 H 1240.27 -1.94295 -4.17835 0
M  V30 13470 H 1238.58 -1.61102 -3.83973 0
M  V30 13471 H 1241.18 0.76064 -5.29262 0
M  V30 13472 H 1241.52 1.64313 -3.82501 0
M  V30 13473 H 1242.06 -0.04877 -3.9777 0
M  V30 13474 H 1238.79 -2.02 -6.23599 0
M  V30 13475 H 1238.31 -0.325293 -5.98917 0
M  V30 13476 H 1239.99 -0.724799 -6.42927 0
M  V30 13477 N 1240.13 1.55939 -0.228214 0
M  V30 13478 C 1241.54 1.84612 0.278417 0
M  V30 13479 C 1241.89 1.14973 1.58983 0
M  V30 13480 O 1241.01 0.421673 2.12252 0
M  V30 13481 C 1241.61 3.3491 0.511935 0
M  V30 13482 C 1240.17 3.63876 0.962861 0
M  V30 13483 C 1239.31 2.77284 0.0296246 0
M  V30 13484 H 1242.26 1.52149 -0.451245 0
M  V30 13485 H 1242.29 3.55477 1.35707 0
M  V30 13486 H 1241.8 3.85567 -0.442697 0
M  V30 13487 H 1239.9 3.18682 1.93062 0
M  V30 13488 H 1240.01 4.71809 0.832659 0
M  V30 13489 H 1238.38 2.48961 0.53763 0
M  V30 13490 H 1239.16 3.30742 -0.920044 0
M  V30 13491 N 1241.6 -0.0451101 1.57535 0
M  V30 13492 C 1243.02 -0.400463 1.54494 0
M  V30 13493 C 1243.22 -1.77584 0.952166 0
M  V30 13494 O 1242.28 -2.46069 0.566221 0
M  V30 13495 C 1243.59 -0.31703 2.99024 0
M  V30 13496 C 1245.14 -0.395284 3.10494 0
M  V30 13497 C 1245.61 -0.341475 4.56725 0
M  V30 13498 N 1247.1 -0.400755 4.61463 0
M  V30 13499 C 1247.84 -0.381757 5.72128 0
M  V30 13500 N 1247.33 -0.315995 6.92079 0
M  V30 13501 N 1249.13 -0.4303 5.60451 0
M  V30 13502 H 1241.28 0.855156 1.94424 0
M  V30 13503 H 1243.54 0.323618 0.891053 0
M  V30 13504 H 1243.25 0.627477 3.46057 0
M  V30 13505 H 1243.12 -1.11696 3.60283 0
M  V30 13506 H 1245.51 -1.33022 2.63418 0
M  V30 13507 H 1245.59 0.433709 2.52096 0
M  V30 13508 H 1245.23 0.589725 5.04465 0
M  V30 13509 H 1245.16 -1.18836 5.13016 0
M  V30 13510 H 1247.65 -0.454745 3.75154 0
M  V30 13511 H 1247.97 -0.306158 7.72193 0
M  V30 13512 H 1246.31 -0.282281 6.94427 0
M  V30 13513 H 1249.5 -0.479555 4.65637 0
M  V30 13514 H 1249.68 -0.412025 6.46689 0
M  V30 13515 N 1243.08 -1.54377 -0.317073 0
M  V30 13516 C 1244.5 -1.45232 -0.6618 0
M  V30 13517 C 1244.7 -0.630457 -1.91383 0
M  V30 13518 O 1243.75 -0.13181 -2.52156 0
M  V30 13519 C 1245.07 -2.89025 -0.829761 0
M  V30 13520 C 1246.62 -2.98967 -0.926685 0
M  V30 13521 C 1247.09 -4.43923 -1.12677 0
M  V30 13522 N 1248.58 -4.47564 -1.19335 0
M  V30 13523 C 1249.32 -5.56887 -1.36617 0
M  V30 13524 N 1248.81 -6.76167 -1.50899 0
M  V30 13525 N 1250.61 -5.44546 -1.39377 0
M  V30 13526 H 1242.76 -2.0629 0.505766 0
M  V30 13527 H 1245.02 -0.933615 0.164522 0
M  V30 13528 H 1244.73 -3.51695 0.0190945 0
M  V30 13529 H 1244.6 -3.35515 -1.72364 0
M  V30 13530 H 1246.99 -2.36421 -1.76604 0
M  V30 13531 H 1247.07 -2.55798 -0.00913402 0
M  V30 13532 H 1246.71 -5.07059 -0.29224 0
M  V30 13533 H 1246.64 -4.84708 -2.05829 0
M  V30 13534 H 1249.13 -3.61623 -1.09715 0
M  V30 13535 H 1249.45 -7.55242 -1.63796 0
M  V30 13536 H 1247.79 -6.79062 -1.47985 0
M  V30 13537 H 1250.98 -4.50311 -1.27819 0
M  V30 13538 H 1251.15 -6.29799 -1.52502 0
M  V30 13539 N 1244.56 0.579466 -1.4656 0
M  V30 13540 C 1245.81 1.33379 -1.51304 0
M  V30 13541 C 1246.12 1.94855 -0.170507 0
M  V30 13542 O 1247.33 2.71331 -0.0957704 0
M  V30 13543 C 1245.78 2.41748 -2.66619 0
M  V30 13544 C 1245.39 1.8656 -4.07307 0
M  V30 13545 C 1247.14 3.18502 -2.80636 0
M  V30 13546 C 1245.04 2.92578 -5.13957 0
M  V30 13547 H 1243.97 0.501422 -0.56311 0
M  V30 13548 H 1246.62 0.618025 -1.72779 0
M  V30 13549 H 1245.01 3.16138 -2.3848 0
M  V30 13550 H 1246.18 1.18692 -4.45252 0
M  V30 13551 H 1244.5 1.22464 -3.97984 0
M  V30 13552 H 1247.09 3.9763 -3.57483 0
M  V30 13553 H 1247.44 3.71295 -1.8827 0
M  V30 13554 H 1247.97 2.51219 -3.08437 0
M  V30 13555 H 1244.71 2.44668 -6.08126 0
M  V30 13556 H 1244.23 3.58926 -4.80554 0
M  V30 13557 H 1245.91 3.56471 -5.39942 0
M  V30 13558 N 1246.04 1.3432 0.824371 0
M  V30 13559 C 1247.45 1.1397 1.11727 0
M  V30 13560 C 1247.65 -0.0597597 2.01411 0
M  V30 13561 O 1246.71 -0.735717 2.41544 0
M  V30 13562 C 1248.02 2.43423 1.76538 0
M  V30 13563 C 1249.57 2.49466 1.89039 0
M  V30 13564 C 1250.05 3.78917 2.57266 0
M  V30 13565 N 1251.54 3.8007 2.64767 0
M  V30 13566 C 1252.27 4.76953 3.18282 0
M  V30 13567 N 1251.77 5.84217 3.72373 0
M  V30 13568 N 1253.56 4.6441 3.1667 0
M  V30 13569 H 1245.71 2.11175 0.227802 0
M  V30 13570 H 1247.98 0.933774 0.163615 0
M  V30 13571 H 1247.68 3.31278 1.18102 0
M  V30 13572 H 1247.56 2.56655 2.7642 0
M  V30 13573 H 1249.94 1.62052 2.46623 0
M  V30 13574 H 1250.02 2.40163 0.880635 0
M  V30 13575 H 1249.67 4.6672 2.00336 0
M  V30 13576 H 1249.6 3.85502 3.58742 0
M  V30 13577 H 1252.09 3.02556 2.26425 0
M  V30 13578 H 1252.4 6.54159 4.11455 0
M  V30 13579 H 1250.75 5.87933 3.70621 0
M  V30 13580 H 1253.94 3.7976 2.73678 0
M  V30 13581 H 1254.11 5.40081 3.58073 0
M  V30 13582 N 1247.52 -1.0444 1.18026 0
M  V30 13583 C 1248.45 -2.12388 0.86162 0
M  V30 13584 C 1249.46 -1.62204 -0.139196 0
M  V30 13585 O 1250.65 -1.78282 0.0881334 0
M  V30 13586 C 1247.75 -3.37859 0.265407 0
M  V30 13587 C 1246.92 -4.17292 1.31096 0
M  V30 13588 C 1245.98 -5.21096 0.731121 0
M  V30 13589 O 1245.01 -5.5159 1.40488 0
M  V30 13590 N 1246.21 -5.78568 -0.473194 0
M  V30 13591 H 1248.98 -2.40317 1.79074 0
M  V30 13592 H 1246.54 -1.20601 1.08014 0
M  V30 13593 H 1248.53 -4.04472 -0.135976 0
M  V30 13594 H 1247.1 -3.07403 -0.567658 0
M  V30 13595 H 1246.32 -3.46057 1.8878 0
M  V30 13596 H 1247.61 -4.67158 2.01596 0
M  V30 13597 H 1247 -5.56088 -1.03839 0
M  V30 13598 H 1245.56 -6.46665 -0.816545 0
M  V30 13599 N 1248.99 -0.981699 -1.2329 0
M  V30 13600 C 1250.24 -0.650015 -1.91361 0
M  V30 13601 C 1250.56 0.819184 -1.76959 0
M  V30 13602 O 1249.83 1.5861 -1.14977 0
M  V30 13603 H 1248.41 -0.237427 -0.708264 0
M  V30 13604 H 1251.08 -1.24579 -1.49887 0
M  V30 13605 H 1250.17 -0.902772 -2.98758 0
M  V30 13606 N 1250.47 1.3842 -0.753509 0
M  V30 13607 C 1251.4 2.33073 -0.141198 0
M  V30 13608 C 1252.38 1.54863 0.70367 0
M  V30 13609 O 1253.57 1.8318 0.644872 0
M  V30 13610 C 1250.7 3.39043 0.752802 0
M  V30 13611 C 1249.65 4.27999 0.0106692 0
M  V30 13612 C 1248.98 5.24824 1.02291 0
M  V30 13613 C 1250.28 5.09308 -1.15768 0
M  V30 13614 H 1251.97 2.84528 -0.93188 0
M  V30 13615 H 1249.52 1.36802 -0.449567 0
M  V30 13616 H 1251.47 4.04224 1.19083 0
M  V30 13617 H 1250.2 2.8607 1.57581 0
M  V30 13618 H 1248.85 3.64323 -0.407939 0
M  V30 13619 H 1248.5 4.68139 1.83998 0
M  V30 13620 H 1248.2 5.85196 0.53101 0
M  V30 13621 H 1249.73 5.92882 1.46026 0
M  V30 13622 H 1251.14 5.6773 -0.797203 0
M  V30 13623 H 1249.54 5.78914 -1.58044 0
M  V30 13624 H 1250.61 4.43051 -1.97062 0
M  V30 13625 N 1251.95 0.502579 1.49372 0
M  V30 13626 C 1252.86 -0.279532 2.32929 0
M  V30 13627 C 1253.88 -0.965806 1.44735 0
M  V30 13628 O 1255.05 -0.946839 1.77755 0
M  V30 13629 C 1252.12 -1.32913 3.20211 0
M  V30 13630 C 1251.18 -0.656121 4.24256 0
M  V30 13631 C 1250.41 -1.65571 5.07368 0
M  V30 13632 O 1250.63 -2.88571 4.92019 0
M  V30 13633 O 1249.57 -1.21016 5.89609 0
M  V30 13634 H 1253.39 0.404427 3.00995 0
M  V30 13635 H 1250.98 0.263888 1.47051 0
M  V30 13636 H 1252.86 -1.93635 3.74277 0
M  V30 13637 H 1251.54 -1.99598 2.54837 0
M  V30 13638 H 1250.44 -0.00911489 3.74099 0
M  V30 13639 H 1251.78 -0.0316802 4.9219 0
M  V30 13640 N 1253.43 -1.55816 0.23648 0
M  V30 13641 C 1254.84 -1.59159 -0.118601 0
M  V30 13642 C 1255.04 -1.25352 -1.57763 0
M  V30 13643 O 1254.1 -0.995863 -2.32032 0
M  V30 13644 C 1255.41 -2.99885 0.221175 0
M  V30 13645 C 1256.96 -3.12567 0.164624 0
M  V30 13646 C 1257.44 -4.55496 0.478285 0
M  V30 13647 N 1258.93 -4.61215 0.428402 0
M  V30 13648 C 1259.66 -5.69768 0.644398 0
M  V30 13649 N 1259.16 -6.86624 0.922966 0
M  V30 13650 N 1260.95 -5.59143 0.575814 0
M  V30 13651 H 1253.1 -1.76063 1.18809 0
M  V30 13652 H 1255.37 -0.819079 0.477297 0
M  V30 13653 H 1255.07 -3.29326 1.2344 0
M  V30 13654 H 1254.95 -3.74425 -0.456723 0
M  V30 13655 H 1257.33 -2.82914 -0.839263 0
M  V30 13656 H 1257.41 -2.40325 0.876219 0
M  V30 13657 H 1257.06 -4.85868 1.47968 0
M  V30 13658 H 1256.99 -5.25984 -0.254671 0
M  V30 13659 H 1259.48 -3.77251 0.221398 0
M  V30 13660 H 1259.79 -7.6528 1.07548 0
M  V30 13661 H 1258.14 -6.88333 0.960325 0
M  V30 13662 H 1261.33 -4.66727 0.358307 0
M  V30 13663 H 1261.5 -6.43674 0.747548 0
M  V30 13664 N 1254.91 0.036755 -1.57557 0
M  V30 13665 C 1255.87 1.02435 -2.05036 0
M  V30 13666 C 1256.87 1.29506 -0.953146 0
M  V30 13667 O 1258.06 1.24638 -1.217 0
M  V30 13668 C 1255.19 2.3592 -2.46079 0
M  V30 13669 H 1256.38 0.614384 -2.93539 0
M  V30 13670 H 1253.94 0.283396 -1.53709 0
M  V30 13671 H 1254.67 2.8168 -1.60708 0
M  V30 13672 H 1254.46 2.17603 -3.26177 0
M  V30 13673 H 1255.95 3.06839 -2.83266 0
M  V30 13674 N 1256.39 1.54543 0.308881 0
M  V30 13675 C 1257.32 1.87947 1.38557 0
M  V30 13676 C 1258.3 0.737622 1.53275 0
M  V30 13677 O 1259.48 0.992664 1.66913 0
M  V30 13678 C 1256.61 2.11982 2.75102 0
M  V30 13679 C 1255.57 3.2783 2.75158 0
M  V30 13680 C 1254.89 3.37266 4.14917 0
M  V30 13681 C 1256.19 4.65129 2.37598 0
M  V30 13682 H 1257.89 2.78123 1.1085 0
M  V30 13683 H 1255.43 1.3382 0.531808 0
M  V30 13684 H 1257.38 2.33935 3.50503 0
M  V30 13685 H 1256.11 1.18569 3.04317 0
M  V30 13686 H 1254.77 3.05787 2.02212 0
M  V30 13687 H 1254.42 2.41384 4.41296 0
M  V30 13688 H 1254.12 4.15135 4.15857 0
M  V30 13689 H 1255.64 3.61471 4.92109 0
M  V30 13690 H 1257.05 4.86865 3.02714 0
M  V30 13691 H 1255.45 5.45653 2.49765 0
M  V30 13692 H 1256.52 4.6638 1.32731 0
M  V30 13693 N 1257.86 -0.571685 1.46866 0
M  V30 13694 C 1258.8 -1.69475 1.54307 0
M  V30 13695 C 1259.81 -1.57006 0.430449 0
M  V30 13696 O 1261 -1.64229 0.69936 0
M  V30 13697 C 1258.1 -3.07824 1.41766 0
M  V30 13698 C 1257.27 -3.46189 2.67342 0
M  V30 13699 C 1256.33 -4.63642 2.48843 0
M  V30 13700 O 1255.36 -4.68949 3.22608 0
M  V30 13701 N 1256.56 -5.59223 1.55724 0
M  V30 13702 H 1259.32 -1.63543 2.51145 0
M  V30 13703 H 1256.88 -0.757957 1.43062 0
M  V30 13704 H 1258.88 -3.84208 1.27146 0
M  V30 13705 H 1257.45 -3.08063 0.530667 0
M  V30 13706 H 1256.67 -2.59399 2.96826 0
M  V30 13707 H 1257.95 -3.68591 3.50739 0
M  V30 13708 H 1257.35 -5.5768 0.949175 0
M  V30 13709 H 1255.91 -6.34993 1.47063 0
M  V30 13710 O 1259.38 -1.44754 -0.716129 0
M  V30 13711 H 1260.07 -1.37238 -1.36695 0
M  V30 END ATOM
M  V30 BEGIN BOND
M  V30 END BOND
M  V30 END CTAB
M  END
$$$$
