drugbank_target|P80342 Cathepsin L2 (DB12245)
 OpenBabel12092121193D

226227  0  0  0  0  0  0  0  0999 V2000
   -0.9080    1.9825   -0.1171 H   0  0  0  0  0 15  0  0  0  0  0  0
    0.0000    1.5760    0.0000 N   0  0  0  0  0 15  0  0  0  0  0  0
    0.9630    2.0737    0.9763 C   0  0  0  0  0 15  0  0  0  0  0  0
    1.9630    0.9831    1.2725 C   0  0  0  0  0 15  0  0  0  0  0  0
    3.1530    1.2457    1.2177 O   0  0  0  0  0 15  0  0  0  0  0  0
    0.2850    2.5151    2.3012 C   0  0  0  0  0 15  0  0  0  0  0  0
    1.4780    2.9489    0.5458 H   0  0  0  0  0 15  0  0  0  0  0  0
   -0.9690    1.5433    0.2475 H   0  0  0  0  0 15  0  0  0  0  0  0
   -0.2340    1.6723    2.7785 H   0  0  0  0  0 15  0  0  0  0  0  0
   -0.4490    3.3116    2.0994 H   0  0  0  0  0 15  0  0  0  0  0  0
    1.0410    2.9035    3.0015 H   0  0  0  0  0 15  0  0  0  0  0  0
    1.4781   -0.2728    1.5522 N   0  0  0  0  0 15  0  0  0  0  0  0
    2.7241   -1.0058    1.7610 C   0  0  0  0  0 15  0  0  0  0  0  0
    3.0571   -1.8593    0.5606 C   0  0  0  0  0 15  0  0  0  0  0  0
    2.3321   -1.8942   -0.4418 O   0  0  0  0  0 15  0  0  0  0  0  0
    2.6151   -1.8882    3.0663 C   0  0  0  0  0 15  0  0  0  0  0  0
    2.4681   -1.0646    4.3702 C   0  0  0  0  0 15  0  0  0  0  0  0
    3.7871   -2.8752    3.3320 C   0  0  0  0  0 15  0  0  0  0  0  0
    0.9061   -0.3642    0.6407 H   0  0  0  0  0 15  0  0  0  0  0  0
    3.5481   -0.2782    1.8795 H   0  0  0  0  0 15  0  0  0  0  0  0
    1.6981   -2.5086    2.9665 H   0  0  0  0  0 15  0  0  0  0  0  0
    3.3701   -0.4649    4.5895 H   0  0  0  0  0 15  0  0  0  0  0  0
    1.6131   -0.3680    4.3224 H   0  0  0  0  0 15  0  0  0  0  0  0
    2.2841   -1.7151    5.2468 H   0  0  0  0  0 15  0  0  0  0  0  0
    4.7601   -2.3561    3.4296 H   0  0  0  0  0 15  0  0  0  0  0  0
    3.6361   -3.4640    4.2579 H   0  0  0  0  0 15  0  0  0  0  0  0
    3.8971   -3.6266    2.5285 H   0  0  0  0  0 15  0  0  0  0  0  0
    2.9562   -1.4816   -0.5373 N   0  0  0  0  0 15  0  0  0  0  0  0
    4.3672   -1.4943   -1.1193 C   0  0  0  0  0 15  0  0  0  0  0  0
    4.7182   -0.2600   -1.9447 C   0  0  0  0  0 15  0  0  0  0  0  0
    3.8432    0.6335   -2.0692 O   0  0  0  0  0 15  0  0  0  0  0  0
    4.4382   -2.7076   -2.0366 C   0  0  0  0  0 15  0  0  0  0  0  0
    2.9972   -2.7492   -2.5709 C   0  0  0  0  0 15  0  0  0  0  0  0
    2.1442   -2.4284   -1.3389 C   0  0  0  0  0 15  0  0  0  0  0  0
    5.0952   -1.5538   -0.3229 H   0  0  0  0  0 15  0  0  0  0  0  0
    5.1162   -2.4886   -2.8783 H   0  0  0  0  0 15  0  0  0  0  0  0
    4.6282   -3.6057   -1.4355 H   0  0  0  0  0 15  0  0  0  0  0  0
    2.7292   -1.8930   -3.2093 H   0  0  0  0  0 15  0  0  0  0  0  0
    2.8422   -3.7616   -2.9672 H   0  0  0  0  0 15  0  0  0  0  0  0
    1.2062   -1.9384   -1.6523 H   0  0  0  0  0 15  0  0  0  0  0  0
    1.9892   -3.3488   -0.7555 H   0  0  0  0  0 15  0  0  0  0  0  0
    4.4343    0.7856   -1.3662 N   0  0  0  0  0 15  0  0  0  0  0  0
    5.7113    1.5320   -1.2161 C   0  0  0  0  0 15  0  0  0  0  0  0
    6.0913    2.1019    0.1961 C   0  0  0  0  0 15  0  0  0  0  0  0
    5.4393    1.9432    1.2022 O   0  0  0  0  0 15  0  0  0  0  0  0
    5.6493    2.6239   -2.3012 C   0  0  0  0  0 15  0  0  0  0  0  0
    6.9973    3.3017   -2.6697 C   0  0  0  0  0 15  0  0  0  0  0  0
    8.0213    2.7267   -2.2919 O   0  0  0  0  0 15  0  0  0  0  0  0
    6.8803    4.3408   -3.3202 O   0  0  0  0  0 15  0  0  0  0  0  0
    3.9743    0.6779   -0.4737 H   0  0  0  0  0 15  0  0  0  0  0  0
    6.5203    0.8237   -1.4837 H   0  0  0  0  0 15  0  0  0  0  0  0
    5.2923    2.1830   -3.2475 H   0  0  0  0  0 15  0  0  0  0  0  0
    4.9153    3.4083   -2.0475 H   0  0  0  0  0 15  0  0  0  0  0  0
    5.9124    1.2097    1.0102 N   0  0  0  0  0 15  0  0  0  0  0  0
    6.8594    0.9643    2.0969 C   0  0  0  0  0 15  0  0  0  0  0  0
    7.8294   -0.1079    1.6575 C   0  0  0  0  0 15  0  0  0  0  0  0
    9.0144    0.0382    1.9076 O   0  0  0  0  0 15  0  0  0  0  0  0
    6.1544    0.5294    3.4101 C   0  0  0  0  0 15  0  0  0  0  0  0
    5.2674    1.6704    3.9840 C   0  0  0  0  0 15  0  0  0  0  0  0
    4.4024    1.1853    5.1781 C   0  0  0  0  0 15  0  0  0  0  0  0
    3.4414    2.2989    5.6729 C   0  0  0  0  0 15  0  0  0  0  0  0
    2.5784    1.8255    6.7795 N   0  0  0  0  0 15  0  0  0  0  0  0
    7.4184    1.8946    2.3002 H   0  0  0  0  0 15  0  0  0  0  0  0
    4.9554    0.9443    1.1279 H   0  0  0  0  0 15  0  0  0  0  0  0
    6.9134    0.2586    4.1640 H   0  0  0  0  0 15  0  0  0  0  0  0
    5.5434   -0.3639    3.2074 H   0  0  0  0  0 15  0  0  0  0  0  0
    4.5954    2.0560    3.2005 H   0  0  0  0  0 15  0  0  0  0  0  0
    5.9074    2.5088    4.3112 H   0  0  0  0  0 15  0  0  0  0  0  0
    5.0614    0.8708    6.0042 H   0  0  0  0  0 15  0  0  0  0  0  0
    3.8004    0.3169    4.8667 H   0  0  0  0  0 15  0  0  0  0  0  0
    2.8054    2.6215    4.8328 H   0  0  0  0  0 15  0  0  0  0  0  0
    4.0304    3.1722    6.0046 H   0  0  0  0  0 15  0  0  0  0  0  0
    1.9764    0.9805    6.4863 H   0  0  0  0  0 15  0  0  0  0  0  0
    1.8934    2.5996    7.0990 H   0  0  0  0  0 15  0  0  0  0  0  0
    3.1614    1.5412    7.6411 H   0  0  0  0  0 15  0  0  0  0  0  0
    7.3905   -1.2043    1.0166 N   0  0  0  0  0 15  0  0  0  0  0  0
    8.6395   -1.8912    0.7012 C   0  0  0  0  0 15  0  0  0  0  0  0
    8.9525   -1.7971   -0.7724 C   0  0  0  0  0 15  0  0  0  0  0  0
   10.1585   -2.4353   -1.2003 O   0  0  0  0  0 15  0  0  0  0  0  0
    8.6145   -3.3917    1.2039 C   0  0  0  0  0 15  0  0  0  0  0  0
    8.2225   -3.5717    2.7044 C   0  0  0  0  0 15  0  0  0  0  0  0
    9.9665   -4.1341    0.9640 C   0  0  0  0  0 15  0  0  0  0  0  0
    7.8735   -5.0104    3.1418 C   0  0  0  0  0 15  0  0  0  0  0  0
    6.8035   -0.7083    0.2586 H   0  0  0  0  0 15  0  0  0  0  0  0
    9.4545   -1.3624    1.2293 H   0  0  0  0  0 15  0  0  0  0  0  0
    7.8365   -3.9137    0.6038 H   0  0  0  0  0 15  0  0  0  0  0  0
    9.0105   -3.1535    3.3599 H   0  0  0  0  0 15  0  0  0  0  0  0
    7.3255   -2.9629    2.9257 H   0  0  0  0  0 15  0  0  0  0  0  0
    9.9225   -5.1949    1.2662 H   0  0  0  0  0 15  0  0  0  0  0  0
   10.2655   -4.1618   -0.0996 H   0  0  0  0  0 15  0  0  0  0  0  0
   10.7985   -3.6731    1.5274 H   0  0  0  0  0 15  0  0  0  0  0  0
    7.5375   -5.0343    4.1981 H   0  0  0  0  0 15  0  0  0  0  0  0
    7.0575   -5.4367    2.5335 H   0  0  0  0  0 15  0  0  0  0  0  0
    8.7365   -5.6962    3.0682 H   0  0  0  0  0 15  0  0  0  0  0  0
    8.8686   -0.7928   -1.3621 N   0  0  0  0  0 15  0  0  0  0  0  0
   10.1456   -0.2906   -1.9343 C   0  0  0  0  0 15  0  0  0  0  0  0
   10.5256    1.2177   -1.7244 C   0  0  0  0  0 15  0  0  0  0  0  0
    9.8736    2.0108   -1.0853 O   0  0  0  0  0 15  0  0  0  0  0  0
   10.0836   -0.6870   -3.4217 C   0  0  0  0  0 15  0  0  0  0  0  0
   11.4316   -0.6686   -4.1930 C   0  0  0  0  0 15  0  0  0  0  0  0
   12.4556   -0.6277   -3.5063 O   0  0  0  0  0 15  0  0  0  0  0  0
   11.3146   -0.7146   -5.4181 O   0  0  0  0  0 15  0  0  0  0  0  0
    8.4086   -0.0728   -0.8238 H   0  0  0  0  0 15  0  0  0  0  0  0
   10.9546   -0.8756   -1.4537 H   0  0  0  0  0 15  0  0  0  0  0  0
    9.7266   -1.7271   -3.5112 H   0  0  0  0  0 15  0  0  0  0  0  0
    9.3496   -0.0761   -3.9753 H   0  0  0  0  0 15  0  0  0  0  0  0
   10.3467    1.4787   -0.5451 N   0  0  0  0  0 15  0  0  0  0  0  0
   11.7627    1.5829   -0.2040 C   0  0  0  0  0 15  0  0  0  0  0  0
   11.9627    1.5453    1.2932 C   0  0  0  0  0 15  0  0  0  0  0  0
   11.0187    1.4423    2.0725 O   0  0  0  0  0 15  0  0  0  0  0  0
   12.3317    2.8930   -0.8200 C   0  0  0  0  0 15  0  0  0  0  0  0
   13.8797    3.0286   -0.7901 C   0  0  0  0  0 15  0  0  0  0  0  0
   14.3547    4.3656   -1.3849 C   0  0  0  0  0 15  0  0  0  0  0  0
   15.8457    4.4317   -1.3476 N   0  0  0  0  0 15  0  0  0  0  0  0
   16.5807    5.4515   -1.7775 C   0  0  0  0  0 15  0  0  0  0  0  0
   16.0767    6.5402   -2.2855 N   0  0  0  0  0 15  0  0  0  0  0  0
   17.8697    5.3613   -1.6890 N   0  0  0  0  0 15  0  0  0  0  0  0
   10.0207    1.4856   -1.5180 H   0  0  0  0  0 15  0  0  0  0  0  0
   12.2837    0.7063   -0.6323 H   0  0  0  0  0 15  0  0  0  0  0  0
   11.9897    2.9776   -1.8717 H   0  0  0  0  0 15  0  0  0  0  0  0
   11.8637    3.7596   -0.3059 H   0  0  0  0  0 15  0  0  0  0  0  0
   14.2507    2.9401    0.2529 H   0  0  0  0  0 15  0  0  0  0  0  0
   14.3317    2.1778   -1.3418 H   0  0  0  0  0 15  0  0  0  0  0  0
   13.9757    4.4616   -2.4269 H   0  0  0  0  0 15  0  0  0  0  0  0
   13.9057    5.2035   -0.8088 H   0  0  0  0  0 15  0  0  0  0  0  0
   16.3967    3.6508   -0.9759 H   0  0  0  0  0 15  0  0  0  0  0  0
   16.7097    7.2799   -2.5931 H   0  0  0  0  0 15  0  0  0  0  0  0
   15.0547    6.5494   -2.3255 H   0  0  0  0  0 15  0  0  0  0  0  0
   18.2457    4.4997   -1.2900 H   0  0  0  0  0 15  0  0  0  0  0  0
   18.4187    6.1547   -2.0273 H   0  0  0  0  0 15  0  0  0  0  0  0
   11.8248    0.2810    1.5507 N   0  0  0  0  0 15  0  0  0  0  0  0
   13.2408   -0.0730    1.5943 C   0  0  0  0  0 15  0  0  0  0  0  0
   13.4408   -1.5411    1.2982 C   0  0  0  0  0 15  0  0  0  0  0  0
   12.4968   -2.2909    1.0619 O   0  0  0  0  0 15  0  0  0  0  0  0
   13.8098    0.3069    2.9913 C   0  0  0  0  0 15  0  0  0  0  0  0
   15.3578    0.2540    3.1197 C   0  0  0  0  0 15  0  0  0  0  0  0
   15.8328    0.6085    4.5394 C   0  0  0  0  0 15  0  0  0  0  0  0
   17.3238    0.5602    4.5980 N   0  0  0  0  0 15  0  0  0  0  0  0
   18.0588    0.8072    5.6769 C   0  0  0  0  0 15  0  0  0  0  0  0
   17.5548    1.1191    6.8370 N   0  0  0  0  0 15  0  0  0  0  0  0
   19.3478    0.7356    5.5727 N   0  0  0  0  0 15  0  0  0  0  0  0
   11.4988    1.2380    1.7259 H   0  0  0  0  0 15  0  0  0  0  0  0
   13.7618    0.5005    0.8051 H   0  0  0  0  0 15  0  0  0  0  0  0
   13.4678    1.3282    3.2566 H   0  0  0  0  0 15  0  0  0  0  0  0
   13.3418   -0.3494    3.7558 H   0  0  0  0  0 15  0  0  0  0  0  0
   15.7288   -0.7579    2.8520 H   0  0  0  0  0 15  0  0  0  0  0  0
   15.8098    0.9446    2.3772 H   0  0  0  0  0 15  0  0  0  0  0  0
   15.4538    1.6181    4.8143 H   0  0  0  0  0 15  0  0  0  0  0  0
   15.3838   -0.1040    5.2650 H   0  0  0  0  0 15  0  0  0  0  0  0
   17.8748    0.3293    3.7646 H   0  0  0  0  0 15  0  0  0  0  0  0
   18.1878    1.2941    7.6189 H   0  0  0  0  0 15  0  0  0  0  0  0
   16.5328    1.1570    6.8530 H   0  0  0  0  0 15  0  0  0  0  0  0
   19.7238    0.4918    4.6551 H   0  0  0  0  0 15  0  0  0  0  0  0
   19.8968    0.9315    6.4127 H   0  0  0  0  0 15  0  0  0  0  0  0
   13.3029   -1.5760    0.0084 N   0  0  0  0  0 15  0  0  0  0  0  0
   14.2129   -2.1238   -0.9965 C   0  0  0  0  0 15  0  0  0  0  0  0
   15.2289   -1.0711   -1.3713 C   0  0  0  0  0 15  0  0  0  0  0  0
   16.4049   -1.3905   -1.4569 O   0  0  0  0  0 15  0  0  0  0  0  0
   13.4699   -2.6231   -2.2670 C   0  0  0  0  0 15  0  0  0  0  0  0
   12.5309   -3.8222   -1.9546 C   0  0  0  0  0 15  0  0  0  0  0  0
   11.7639   -4.2976   -3.1645 C   0  0  0  0  0 15  0  0  0  0  0  0
   11.9869   -3.7658   -4.2842 O   0  0  0  0  0 15  0  0  0  0  0  0
   10.9209   -5.2183   -2.9996 O   0  0  0  0  0 15  0  0  0  0  0  0
   14.7469   -2.9848   -0.5607 H   0  0  0  0  0 15  0  0  0  0  0  0
   12.3319   -1.4790   -0.2110 H   0  0  0  0  0 15  0  0  0  0  0  0
   14.2139   -2.9459   -3.0132 H   0  0  0  0  0 15  0  0  0  0  0  0
   12.8889   -1.7931   -2.6950 H   0  0  0  0  0 15  0  0  0  0  0  0
   11.7959   -3.5491   -1.1828 H   0  0  0  0  0 15  0  0  0  0  0  0
   13.1289   -4.6632   -1.5749 H   0  0  0  0  0 15  0  0  0  0  0  0
   14.7810    0.2645   -1.5536 N   0  0  0  0  0 15  0  0  0  0  0  0
   16.0060    1.0173   -1.8074 C   0  0  0  0  0 15  0  0  0  0  0  0
   16.4310    1.7884   -0.5830 C   0  0  0  0  0 15  0  0  0  0  0  0
   15.7890    1.7517    0.4676 O   0  0  0  0  0 15  0  0  0  0  0  0
   15.8370    1.9448   -3.0366 C   0  0  0  0  0 15  0  0  0  0  0  0
   14.9410    3.0339   -2.7934 O   0  0  0  0  0 15  0  0  0  0  0  0
   14.2820    0.2904   -0.5971 H   0  0  0  0  0 15  0  0  0  0  0  0
   16.8120    0.2909   -2.0252 H   0  0  0  0  0 15  0  0  0  0  0  0
   16.8220    2.3628   -3.3262 H   0  0  0  0  0 15  0  0  0  0  0  0
   15.4970    1.3777   -3.9242 H   0  0  0  0  0 15  0  0  0  0  0  0
   14.0740    2.6584   -2.6150 H   0  0  0  0  0 15  0  0  0  0  0  0
   16.2591    1.4844    0.5294 N   0  0  0  0  0 15  0  0  0  0  0  0
   17.5071    1.5618    1.2827 C   0  0  0  0  0 15  0  0  0  0  0  0
   17.8281    0.2377    1.9355 C   0  0  0  0  0 15  0  0  0  0  0  0
   17.0981   -0.7408    1.8135 O   0  0  0  0  0 15  0  0  0  0  0  0
   15.6781    0.5754    0.4764 H   0  0  0  0  0 15  0  0  0  0  0  0
   18.3401    1.8491    0.6160 H   0  0  0  0  0 15  0  0  0  0  0  0
   17.4361    2.3431    2.0617 H   0  0  0  0  0 15  0  0  0  0  0  0
   17.7372   -0.7783    1.3704 N   0  0  0  0  0 15  0  0  0  0  0  0
   18.9672   -1.5651    1.3487 C   0  0  0  0  0 15  0  0  0  0  0  0
   19.3752   -1.8907   -0.0695 C   0  0  0  0  0 15  0  0  0  0  0  0
   18.7182   -1.5143   -1.0399 O   0  0  0  0  0 15  0  0  0  0  0  0
   18.7802   -2.9064    2.1159 C   0  0  0  0  0 15  0  0  0  0  0  0
   18.4442   -2.8075    3.6060 C   0  0  0  0  0 15  0  0  0  0  0  0
   19.4412   -2.5223    4.5462 C   0  0  0  0  0 15  0  0  0  0  0  0
   17.1262   -2.9897    4.0363 C   0  0  0  0  0 15  0  0  0  0  0  0
   19.1202   -2.4205    5.8965 C   0  0  0  0  0 15  0  0  0  0  0  0
   16.8072   -2.8842    5.3875 C   0  0  0  0  0 15  0  0  0  0  0  0
   17.8052   -2.6000    6.3158 C   0  0  0  0  0 15  0  0  0  0  0  0
   17.4932   -2.4946    7.6421 O   0  0  0  0  0 15  0  0  0  0  0  0
   17.2252   -0.4917    0.4639 H   0  0  0  0  0 15  0  0  0  0  0  0
   19.7792   -0.9731    1.8089 H   0  0  0  0  0 15  0  0  0  0  0  0
   18.0092   -3.5194    1.6024 H   0  0  0  0  0 15  0  0  0  0  0  0
   19.6982   -3.5199    2.0213 H   0  0  0  0  0 15  0  0  0  0  0  0
   20.4642   -2.3784    4.2268 H   0  0  0  0  0 15  0  0  0  0  0  0
   16.3432   -3.2010    3.3175 H   0  0  0  0  0 15  0  0  0  0  0  0
   19.8872   -2.1979    6.6207 H   0  0  0  0  0 15  0  0  0  0  0  0
   15.7842   -3.0238    5.7030 H   0  0  0  0  0 15  0  0  0  0  0  0
   16.5522   -2.6486    7.7446 H   0  0  0  0  0 15  0  0  0  0  0  0
   19.2153   -1.2150   -1.0038 N   0  0  0  0  0 15  0  0  0  0  0  0
   20.4613   -1.0345   -1.7443 C   0  0  0  0  0 15  0  0  0  0  0  0
   20.7943    0.4308   -1.8936 C   0  0  0  0  0 15  0  0  0  0  0  0
   20.0693    1.3196   -1.4289 O   0  0  0  0  0 15  0  0  0  0  0  0
   20.3523   -1.7338   -3.1562 C   0  0  0  0  0 15  0  0  0  0  0  0
   20.2053   -3.2743   -3.0840 C   0  0  0  0  0 15  0  0  0  0  0  0
   21.5243   -1.4773   -4.1456 C   0  0  0  0  0 15  0  0  0  0  0  0
   18.6433   -0.3772   -0.6331 H   0  0  0  0  0 15  0  0  0  0  0  0
   21.2853   -1.4969   -1.1701 H   0  0  0  0  0 15  0  0  0  0  0  0
   19.4353   -1.3406   -3.6464 H   0  0  0  0  0 15  0  0  0  0  0  0
   21.1073   -3.7612   -2.6708 H   0  0  0  0  0 15  0  0  0  0  0  0
   19.3503   -3.5767   -2.4547 H   0  0  0  0  0 15  0  0  0  0  0  0
   20.0213   -3.7152   -4.0826 H   0  0  0  0  0 15  0  0  0  0  0  0
   22.4973   -1.8186   -3.7425 H   0  0  0  0  0 15  0  0  0  0  0  0
   21.3733   -1.9917   -5.1149 H   0  0  0  0  0 15  0  0  0  0  0  0
   21.6343   -0.4076   -4.4022 H   0  0  0  0  0 15  0  0  0  0  0  0
   20.7323    1.1343   -1.1496 O   0  0  0  0  0 15  0  0  0  0  0  0
   21.4233    1.7286   -0.8740 H   0  0  0  0  0 15  0  0  0  0  0  0
M  END
$$$$
