drugbank_target|P47900 P2Y purinoceptor 1 (DB01069)
 OpenBabel12092121213D

  0  0  0     0  0            999 V3000
M  V30 BEGIN CTAB
M  V30 COUNTS 5996 6073 0 0 0
M  V30 BEGIN ATOM
M  V30 1 H -0.908 1.98254 -0.117106 0
M  V30 2 N 0 1.576 0 0
M  V30 3 C 0.933 2.03868 1.02534 0
M  V30 4 C 1.911 0.928543 1.3348 0
M  V30 5 O 3.095 1.19667 1.45644 0
M  V30 6 C 0.222 2.43627 2.35294 0
M  V30 7 C -0.732 3.65373 2.2001 0
M  V30 8 S 0.101 5.13292 1.52614 0
M  V30 9 C 1.257 5.56322 2.86805 0
M  V30 10 H 1.49 2.90518 0.631377 0
M  V30 11 H -0.977 1.52953 0.210867 0
M  V30 12 H 0.981 2.67203 3.11629 0
M  V30 13 H -0.358 1.57376 2.7183 0
M  V30 14 H -1.165 3.90944 3.18086 0
M  V30 15 H -1.563 3.418 1.51819 0
M  V30 16 H 0.729 5.58782 3.83104 0
M  V30 17 H 1.672 6.56266 2.65933 0
M  V30 18 H 2.08 4.83886 2.90714 0
M  V30 19 N 1.4781 -0.272755 1.55222 0
M  V30 20 C 2.7061 -1.02255 1.79865 0
M  V30 21 C 3.1211 -1.79924 0.572088 0
M  V30 22 O 2.4781 -1.76638 -0.458842 0
M  V30 23 C 2.5291 -1.98094 3.02392 0
M  V30 24 O 2.2501 -1.23572 4.20311 0
M  V30 25 C 3.7511 -2.84884 3.39641 0
M  V30 26 H 0.9711 -0.302057 0.599168 0
M  V30 27 H 3.5151 -0.303465 2.02236 0
M  V30 28 H 1.6701 -2.65465 2.82147 0
M  V30 29 H 2.0841 -1.88172 4.89583 0
M  V30 30 H 3.5581 -3.47927 4.28545 0
M  V30 31 H 4.0351 -3.54665 2.59055 0
M  V30 32 H 4.6411 -2.23003 3.62146 0
M  V30 33 N 2.9562 -1.48159 -0.537278 0
M  V30 34 C 3.8662 -1.64807 -1.6696 0
M  V30 35 C 4.8822 -0.530651 -1.65711 0
M  V30 36 O 6.0582 -0.800784 -1.84796 0
M  V30 37 C 3.1232 -1.67708 -3.03438 0
M  V30 38 C 2.1842 -2.91025 -3.156 0
M  V30 39 C 1.4172 -2.93778 -4.45567 0
M  V30 40 O 1.6402 -2.05153 -5.3223 0
M  V30 41 O 0.5742 -3.85868 -4.61941 0
M  V30 42 H 4.4002 -2.6066 -1.55853 0
M  V30 43 H 1.9852 -1.31475 -0.709549 0
M  V30 44 H 3.8672 -1.7218 -3.84619 0
M  V30 45 H 2.5422 -0.750278 -3.14885 0
M  V30 46 H 1.4492 -2.92089 -2.33741 0
M  V30 47 H 2.7822 -3.83065 -3.09066 0
M  V30 48 N 4.4343 0.785586 -1.36625 0
M  V30 49 C 5.6803 1.54591 -1.31261 0
M  V30 50 C 6.0133 1.93906 0.106823 0
M  V30 51 O 5.2883 1.63007 1.06108 0
M  V30 52 C 5.5713 2.82038 -2.23889 0
M  V30 53 C 5.4243 2.49066 -3.74548 0
M  V30 54 C 6.7433 3.83887 -2.15217 0
M  V30 55 H 3.8623 0.560846 -0.478143 0
M  V30 56 H 6.5043 0.902278 -1.67209 0
M  V30 57 H 4.6543 3.36961 -1.93363 0
M  V30 58 H 6.3263 2.00164 -4.15611 0
M  V30 59 H 4.5693 1.81954 -3.93796 0
M  V30 60 H 5.2403 3.40109 -4.34776 0
M  V30 61 H 7.7163 3.38421 -2.42096 0
M  V30 62 H 6.5923 4.70806 -2.82193 0
M  V30 63 H 6.8533 4.27131 -1.14068 0
M  V30 64 N 5.9124 1.20967 1.01018 0
M  V30 65 C 6.8424 0.988272 2.11555 0
M  V30 66 C 7.8234 -0.0849778 1.69888 0
M  V30 67 O 9.0084 0.0738202 1.9406 0
M  V30 68 C 6.1384 0.546528 3.42973 0
M  V30 69 C 5.0924 1.56375 3.9841 0
M  V30 70 C 4.4184 0.97842 5.25672 0
M  V30 71 C 5.7184 2.94922 4.31066 0
M  V30 72 H 7.4124 1.91276 2.30334 0
M  V30 73 H 4.9584 0.921073 1.1069 0
M  V30 74 H 6.9114 0.378839 4.19694 0
M  V30 75 H 5.6354 -0.413598 3.23971 0
M  V30 76 H 4.2944 1.71891 3.23804 0
M  V30 77 H 3.9424 0.0101688 5.02999 0
M  V30 78 H 3.6424 1.65784 5.63728 0
M  V30 79 H 5.1664 0.821939 6.05043 0
M  V30 80 H 6.5804 2.8288 4.9865 0
M  V30 81 H 4.9774 3.5983 4.80253 0
M  V30 82 H 6.0474 3.4616 3.39561 0
M  V30 83 N 7.3905 -1.2043 1.01659 0
M  V30 84 C 8.6365 -1.90356 0.716674 0
M  V30 85 C 8.9915 -1.77367 -0.745557 0
M  V30 86 O 8.2845 -1.1471 -1.53467 0
M  V30 87 C 8.4785 -3.40464 1.08714 0
M  V30 88 C 8.3075 -3.6806 2.58384 0
M  V30 89 C 7.0775 -3.86775 3.25167 0
M  V30 90 C 9.2755 -3.70623 3.56572 0
M  V30 91 N 7.2575 -4.01889 4.64067 0
M  V30 92 C 8.6285 -3.91161 4.81034 0
M  V30 93 C 10.6835 -3.53586 3.50544 0
M  V30 94 C 9.3865 -3.96428 6.00198 0
M  V30 95 C 11.4125 -3.60125 4.6911 0
M  V30 96 C 10.7745 -3.81135 5.92381 0
M  V30 97 H 6.8735 -0.716226 0.313918 0
M  V30 98 H 9.4575 -1.44815 1.30141 0
M  V30 99 H 7.6285 -3.84757 0.530745 0
M  V30 100 H 9.3605 -3.97863 0.740763 0
M  V30 101 H 6.1155 -3.85156 2.75594 0
M  V30 102 H 6.5395 -4.13323 5.36184 0
M  V30 103 H 11.1815 -3.36308 2.56235 0
M  V30 104 H 8.8995 -4.12502 6.94887 0
M  V30 105 H 12.4855 -3.4825 4.66062 0
M  V30 106 H 11.3655 -3.86054 6.82592 0
M  V30 107 N 8.8686 -0.792821 -1.36206 0
M  V30 108 C 10.2796 -0.429513 -1.81692 0
M  V30 109 C 10.6306 1.04695 -1.65932 0
M  V30 110 O 9.7556 1.81256 -1.18218 0
M  V30 111 C 10.3506 -0.772831 -3.29868 0
M  V30 112 C 8.9096 -0.462307 -3.7355 0
M  V30 113 C 8.0566 -1.00569 -2.5842 0
M  V30 114 H 11.0076 -0.985672 -1.24379 0
M  V30 115 H 11.0286 -0.0651928 -3.80444 0
M  V30 116 H 10.5406 -1.84747 -3.41307 0
M  V30 117 H 8.6416 0.604158 -3.67669 0
M  V30 118 H 8.7546 -0.985299 -4.68859 0
M  V30 119 H 7.1186 -0.428734 -2.51066 0
M  V30 120 H 7.9016 -2.08616 -2.72643 0
M  V30 121 N 10.3467 1.47872 -0.545128 0
M  V30 122 C 11.3097 2.28337 0.198717 0
M  V30 123 C 12.3097 1.36255 0.853888 0
M  V30 124 O 13.4997 1.59003 0.711606 0
M  V30 125 C 10.6317 3.15585 1.28915 0
M  V30 126 H 11.8247 2.95567 -0.507941 0
M  V30 127 H 9.3777 1.53362 -0.301616 0
M  V30 128 H 10.1127 2.53019 2.02859 0
M  V30 129 H 9.8977 3.83337 0.824309 0
M  V30 130 H 11.3877 3.76243 1.81194 0
M  V30 131 N 11.8248 0.280983 1.55075 0
M  V30 132 C 13.0708 -0.33461 2.00021 0
M  V30 133 C 13.4038 -1.55063 1.16915 0
M  V30 134 O 12.6788 -1.93006 0.240646 0
M  V30 135 C 12.9618 -0.711007 3.53011 0
M  V30 136 C 12.8148 0.512766 4.46868 0
M  V30 137 C 14.1338 -1.54522 4.12081 0
M  V30 138 H 11.2528 -0.120147 0.727141 0
M  V30 139 H 13.8948 0.389097 1.85973 0
M  V30 140 H 12.0448 -1.32761 3.65112 0
M  V30 141 H 13.7168 1.15131 4.46702 0
M  V30 142 H 11.9598 1.14975 4.18286 0
M  V30 143 H 12.6308 0.205556 5.51617 0
M  V30 144 H 15.1068 -1.02442 4.03293 0
M  V30 145 H 13.9828 -1.77739 5.19327 0
M  V30 146 H 14.2438 -2.52813 3.62682 0
M  V30 147 N 13.3029 -1.57598 0.00835791 0
M  V30 148 C 14.7139 -1.7892 -0.53333 0
M  V30 149 C 15.0649 -0.916609 -1.73473 0
M  V30 150 O 14.1899 -0.121336 -2.1606 0
M  V30 151 C 14.7849 -3.24488 -0.974313 0
M  V30 152 C 13.3439 -3.46878 -1.46125 0
M  V30 153 C 12.4909 -2.74157 -0.416302 0
M  V30 154 H 15.4419 -1.56958 0.234495 0
M  V30 155 H 15.4629 -3.3306 -1.83988 0
M  V30 156 H 14.9749 -3.87972 -0.099718 0
M  V30 157 H 13.0759 -2.8862 -2.35646 0
M  V30 158 H 13.1889 -4.55572 -1.48295 0
M  V30 159 H 11.5529 -2.39022 -0.87981 0
M  V30 160 H 12.3359 -3.40345 0.44947 0
M  V30 161 N 14.781 0.264519 -1.55364 0
M  V30 162 C 15.729 1.34702 -1.89626 0
M  V30 163 C 16.723 1.50712 -0.773459 0
M  V30 164 O 17.929 1.52395 -0.957897 0
M  V30 165 H 14.304 0.450682 -0.601988 0
M  V30 166 H 16.275 1.0306 -2.80038 0
M  V30 167 C 15.024 2.6989 -2.19214 0
M  V30 168 H 14.347 2.58365 -3.05103 0
M  V30 169 H 15.787 3.44553 -2.47102 0
M  V30 170 C 14.246 3.21637 -1.00254 0
M  V30 171 O 14.776 4.00973 -0.241501 0
M  V30 172 N 12.982 2.7943 -0.797938 0
M  V30 173 H 12.529 2.15026 -1.4185 0
M  V30 174 H 12.487 3.144 -0.00363422 0
M  V30 175 N 16.2591 1.48442 0.529413 0
M  V30 176 C 17.5071 1.56179 1.28267 0
M  V30 177 C 17.8281 0.237721 1.93546 0
M  V30 178 O 17.0981 -0.740779 1.81354 0
M  V30 179 H 15.6781 0.575367 0.476405 0
M  V30 180 H 18.3401 1.84909 0.61602 0
M  V30 181 H 17.4361 2.34312 2.06165 0
M  V30 182 N 17.7372 -0.778329 1.37039 0
M  V30 183 C 18.9652 -1.56734 1.35063 0
M  V30 184 C 19.3802 -1.88686 -0.0655597 0
M  V30 185 O 18.7372 -1.5096 -1.02554 0
M  V30 186 C 18.7882 -2.88163 2.18276 0
M  V30 187 O 18.5092 -2.57583 3.54376 0
M  V30 188 C 20.0102 -3.82422 2.24206 0
M  V30 189 H 17.2302 -0.485778 0.462883 0
M  V30 190 H 19.7742 -0.965185 1.8029 0
M  V30 191 H 17.9292 -3.44818 1.76576 0
M  V30 192 H 18.3432 -3.41699 3.97922 0
M  V30 193 H 19.8172 -4.71667 2.86765 0
M  V30 194 H 20.2942 -4.21078 1.24861 0
M  V30 195 H 20.9002 -3.31697 2.6619 0
M  V30 196 N 19.2153 -1.21501 -1.00376 0
M  V30 197 C 20.4923 -0.941745 -1.71437 0
M  V30 198 C 20.8723 0.546114 -2.03914 0
M  V30 199 O 20.2203 1.51128 -1.71384 0
M  V30 200 C 20.4303 -1.82812 -2.97289 0
M  V30 201 C 21.7783 -2.07771 -3.70292 0
M  V30 202 O 22.8023 -1.80171 -3.07273 0
M  V30 203 O 21.6613 -2.54456 -4.83647 0
M  V30 204 H 18.7553 -0.353243 -0.747762 0
M  V30 205 H 21.3013 -1.32436 -1.06108 0
M  V30 206 H 20.0733 -2.83501 -2.69709 0
M  V30 207 H 19.6963 -1.4464 -3.70358 0
M  V30 208 N 20.6934 1.19889 -1.02296 0
M  V30 209 C 21.6564 2.21116 -0.603351 0
M  V30 210 C 22.6564 1.5738 0.329884 0
M  V30 211 O 23.8464 1.73802 0.117702 0
M  V30 212 C 20.9784 3.40696 0.117992 0
M  V30 213 H 22.1714 2.59754 -1.49893 0
M  V30 214 H 19.7244 1.33463 -0.813468 0
M  V30 215 H 20.4594 3.07569 1.0282 0
M  V30 216 H 20.2444 3.88188 -0.552511 0
M  V30 217 H 21.7344 4.15692 0.398696 0
M  V30 218 N 22.1715 0.800033 1.35784 0
M  V30 219 C 23.1345 0.211565 2.28221 0
M  V30 220 C 24.1345 -0.59728 1.49296 0
M  V30 221 O 25.3245 -0.416721 1.69142 0
M  V30 222 C 22.4565 -0.705846 3.33513 0
M  V30 223 H 23.6495 1.02677 2.81776 0
M  V30 224 H 21.2025 0.570211 1.45528 0
M  V30 225 H 21.9375 -1.54498 2.85133 0
M  V30 226 H 21.7225 -0.127655 3.91892 0
M  V30 227 H 23.2125 -1.11211 4.02519 0
M  V30 228 N 23.6496 -1.47581 0.552962 0
M  V30 229 C 24.8966 -2.02482 0.0273243 0
M  V30 230 C 25.2246 -1.42776 -1.32081 0
M  V30 231 O 24.4796 -0.571393 -1.87173 0
M  V30 232 C 24.7786 -3.57199 -0.119728 0
M  V30 233 C 24.4446 -4.35804 1.15697 0
M  V30 234 C 23.1066 -4.57 1.50681 0
M  V30 235 C 25.4586 -4.81167 2.00319 0
M  V30 236 C 22.7866 -5.20807 2.70142 0
M  V30 237 C 25.1386 -5.46293 3.18978 0
M  V30 238 C 23.8026 -5.65722 3.54281 0
M  V30 239 H 23.0726 -0.740933 0.00999866 0
M  V30 240 H 25.7196 -1.77302 0.72362 0
M  V30 241 H 24.0246 -3.81348 -0.89896 0
M  V30 242 H 25.7216 -3.97324 -0.541718 0
M  V30 243 H 22.3116 -4.19582 0.874561 0
M  V30 244 H 26.4956 -4.64574 1.74599 0
M  V30 245 H 21.7516 -5.34045 2.97668 0
M  V30 246 H 25.9256 -5.80407 3.84838 0
M  V30 247 H 23.5526 -6.14936 4.46942 0
M  V30 248 N 25.1277 -0.289203 -1.54924 0
M  V30 249 C 26.0577 0.58549 -2.2604 0
M  V30 250 C 27.0387 1.14753 -1.25562 0
M  V30 251 O 28.2237 1.17906 -1.54311 0
M  V30 252 C 25.3537 1.76305 -2.99222 0
M  V30 253 C 24.3077 1.33191 -4.06748 0
M  V30 254 C 23.6337 2.5937 -4.6758 0
M  V30 255 C 24.9337 0.471775 -5.20165 0
M  V30 256 H 26.6277 -0.00763532 -2.99399 0
M  V30 257 H 24.1737 -0.00511229 -1.43999 0
M  V30 258 H 26.1267 2.38097 -3.47689 0
M  V30 259 H 24.8507 2.38223 -2.23422 0
M  V30 260 H 23.5097 0.737121 -3.59113 0
M  V30 261 H 23.1577 3.19576 -3.88433 0
M  V30 262 H 22.8577 2.31228 -5.40192 0
M  V30 263 H 24.3817 3.21985 -5.18804 0
M  V30 264 H 25.7957 0.995056 -5.64599 0
M  V30 265 H 24.1927 0.284639 -5.99425 0
M  V30 266 H 25.2627 -0.506041 -4.82252 0
M  V30 267 N 26.6058 1.57591 -0.0167156 0
M  V30 268 C 27.5688 2.08393 0.954204 0
M  V30 269 C 28.5688 0.996531 1.26198 0
M  V30 270 O 29.7588 1.25858 1.20438 0
M  V30 271 C 26.8908 2.5394 2.27436 0
M  V30 272 H 28.0838 2.95455 0.514451 0
M  V30 273 H 25.6368 1.54582 0.231089 0
M  V30 274 H 26.3718 1.70171 2.76066 0
M  V30 275 H 26.1568 3.33371 2.06412 0
M  V30 276 H 27.6468 2.93512 2.97053 0
M  V30 277 N 28.0839 -0.256276 1.55502 0
M  V30 278 C 29.3319 -0.983672 1.76545 0
M  V30 279 C 29.6529 -1.86206 0.578982 0
M  V30 280 O 28.9229 -1.91656 -0.405577 0
M  V30 281 H 27.5029 -0.366191 0.651086 0
M  V30 282 H 30.1649 -0.276479 1.92929 0
M  V30 283 H 29.2609 -1.61087 2.67315 0
M  V30 284 N 29.562 -1.4872 -0.521534 0
M  V30 285 C 30.973 -1.50607 -1.10337 0
M  V30 286 C 31.324 -0.280612 -1.94183 0
M  V30 287 O 30.449 0.611507 -2.0758 0
M  V30 288 C 31.044 -2.72903 -2.00772 0
M  V30 289 C 29.603 -2.77634 -2.54158 0
M  V30 290 C 28.75 -2.44241 -1.31307 0
M  V30 291 H 31.701 -1.55714 -0.306388 0
M  V30 292 H 31.722 -2.519 -2.85178 0
M  V30 293 H 31.234 -3.62077 -1.39721 0
M  V30 294 H 29.335 -1.92689 -3.18907 0
M  V30 295 H 29.448 -3.79283 -2.92714 0
M  V30 296 H 27.812 -1.95577 -1.63161 0
M  V30 297 H 28.595 -3.35666 -0.719943 0
M  V30 298 N 31.0401 0.771051 -1.3745 0
M  V30 299 C 32.2881 1.52661 -1.32435 0
M  V30 300 C 32.6091 1.9479 0.0905024 0
M  V30 301 O 31.8791 1.66348 1.03466 0
M  V30 302 H 30.4591 0.566218 -0.487244 0
M  V30 303 H 33.1211 0.917636 -1.71946 0
M  V30 304 H 32.2171 2.42568 -1.96385 0
M  V30 305 N 32.5182 1.22032 0.997298 0
M  V30 306 C 33.7432 1.06921 1.77715 0
M  V30 307 C 34.1682 -0.376226 1.84299 0
M  V30 308 O 33.5262 -1.27165 1.29223 0
M  V30 309 C 33.5742 1.67996 3.19076 0
M  V30 310 O 32.6782 0.930653 4.01762 0
M  V30 311 H 32.0192 0.375814 0.547412 0
M  V30 312 H 34.5492 1.61737 1.25309 0
M  V30 313 H 34.5592 1.72538 3.69723 0
M  V30 314 H 33.2342 2.73182 3.13599 0
M  V30 315 H 31.8112 0.960917 3.60307 0
M  V30 316 N 33.9963 -1.19345 1.0293 0
M  V30 317 C 35.2213 -1.93538 0.745511 0
M  V30 318 C 35.6463 -1.75007 -0.689511 0
M  V30 319 O 35.0043 -1.05265 -1.47611 0
M  V30 320 C 35.0523 -3.43336 1.10239 0
M  V30 321 O 34.1563 -4.11806 0.221289 0
M  V30 322 H 33.4973 -0.604193 0.275404 0
M  V30 323 H 36.0273 -1.5141 1.37609 0
M  V30 324 H 36.0373 -3.94004 1.05947 0
M  V30 325 H 34.7123 -3.56146 2.14786 0
M  V30 326 H 33.2893 -3.715 0.322842 0
M  V30 327 N 35.4744 -0.807222 -1.35358 0
M  V30 328 C 36.7204 -0.397594 -1.99476 0
M  V30 329 C 37.0754 1.02405 -1.62883 0
M  V30 330 O 36.3684 1.70077 -0.882282 0
M  V30 331 C 36.5624 -0.519036 -3.53611 0
M  V30 332 C 36.3914 -1.95094 -4.05177 0
M  V30 333 C 35.1614 -2.57945 -4.34503 0
M  V30 334 C 37.3594 -2.91558 -4.23673 0
M  V30 335 N 35.3414 -3.92539 -4.72003 0
M  V30 336 C 36.7124 -4.11024 -4.64176 0
M  V30 337 C 38.7674 -2.88381 -4.05883 0
M  V30 338 C 37.4704 -5.27745 -4.88751 0
M  V30 339 C 39.4964 -4.04306 -4.31614 0
M  V30 340 C 38.8584 -5.22519 -4.72391 0
M  V30 341 H 34.9574 -0.193274 -0.75774 0
M  V30 342 H 37.5414 -1.0486 -1.6405 0
M  V30 343 H 35.7124 0.101979 -3.88266 0
M  V30 344 H 37.4444 -0.0839321 -4.04613 0
M  V30 345 H 34.1994 -2.09295 -4.24844 0
M  V30 346 H 34.6234 -4.61836 -4.95011 0
M  V30 347 H 39.2654 -1.98137 -3.73499 0
M  V30 348 H 36.9834 -6.1856 -5.20008 0
M  V30 349 H 40.5694 -4.03229 -4.19402 0
M  V30 350 H 39.4494 -6.1073 -4.91913 0
M  V30 351 N 36.9525 1.47285 -0.560781 0
M  V30 352 C 38.2005 2.02064 -0.0379868 0
M  V30 353 C 38.5215 1.43711 1.31803 0
M  V30 354 O 37.7915 0.61362 1.86042 0
M  V30 355 H 36.3715 0.746918 -0.0110531 0
M  V30 356 H 39.0335 1.80648 -0.731598 0
M  V30 357 H 38.1295 3.12064 0.0474463 0
M  V30 358 N 38.4306 0.297415 1.54768 0
M  V30 359 C 39.3786 -0.596051 2.24833 0
M  V30 360 C 40.3726 -1.13992 1.25308 0
M  V30 361 O 41.5786 -1.09098 1.4317 0
M  V30 362 H 37.9536 -0.210814 0.721846 0
M  V30 363 H 39.9246 0.0174667 2.98395 0
M  V30 364 C 38.6736 -1.75818 2.99972 0
M  V30 365 H 37.9966 -1.3489 3.76357 0
M  V30 366 H 39.4366 -2.35949 3.52284 0
M  V30 367 C 37.8956 -2.66014 2.06732 0
M  V30 368 O 38.4256 -3.67009 1.63302 0
M  V30 369 N 36.6316 -2.33669 1.72763 0
M  V30 370 H 36.1786 -1.51586 2.08277 0
M  V30 371 H 36.1366 -2.94285 1.10652 0
M  V30 372 N 39.9087 -1.5758 0.0250728 0
M  V30 373 C 41.1337 -1.96337 -0.668317 0
M  V30 374 C 41.5587 -0.901314 -1.651 0
M  V30 375 O 40.9167 0.138187 -1.80773 0
M  V30 376 C 40.9647 -3.34191 -1.35457 0
M  V30 377 O 40.0687 -3.30269 -2.46974 0
M  V30 378 H 39.4097 -0.640281 -0.175887 0
M  V30 379 H 41.9397 -2.0442 0.0857224 0
M  V30 380 H 41.9497 -3.70331 -1.71228 0
M  V30 381 H 40.6247 -4.11036 -0.634218 0
M  V30 382 H 39.2017 -3.05841 -2.13344 0
M  V30 383 N 41.3868 0.248026 -1.55636 0
M  V30 384 C 42.6148 0.993808 -1.81469 0
M  V30 385 C 43.0298 1.78991 -0.60064 0
M  V30 386 O 42.3868 1.77345 0.430682 0
M  V30 387 C 42.4378 1.93258 -3.05506 0
M  V30 388 O 42.1588 1.16869 -4.22224 0
M  V30 389 C 43.6598 2.79444 -3.4413 0
M  V30 390 H 40.8798 0.292486 -0.603898 0
M  V30 391 H 43.4238 0.271253 -2.02693 0
M  V30 392 H 41.5788 2.60943 -2.86335 0
M  V30 393 H 41.9928 1.80359 -4.92515 0
M  V30 394 H 43.4668 3.41066 -4.34026 0
M  V30 395 H 43.9438 3.50499 -2.64665 0
M  V30 396 H 44.5498 2.17214 -3.65648 0
M  V30 397 N 42.8649 1.48995 0.513639 0
M  V30 398 C 44.1109 1.58076 1.27042 0
M  V30 399 C 44.4439 0.261026 1.92438 0
M  V30 400 O 43.7189 -0.734393 1.80103 0
M  V30 401 C 44.0019 2.73091 2.34719 0
M  V30 402 C 43.8549 4.14821 1.73907 0
M  V30 403 C 45.1739 2.83796 3.36375 0
M  V30 404 H 42.2929 0.575391 0.460536 0
M  V30 405 H 44.9349 1.81232 0.570516 0
M  V30 406 H 43.0849 2.53479 2.94416 0
M  V30 407 H 44.7569 4.45917 1.18135 0
M  V30 408 H 42.9999 4.21058 1.0437 0
M  V30 409 H 43.6709 4.91147 2.51949 0
M  V30 410 H 46.1469 3.01611 2.86653 0
M  V30 411 H 45.0229 3.65971 4.09093 0
M  V30 412 H 45.2839 1.92624 3.9793 0
M  V30 413 N 44.343 -0.763751 1.37857 0
M  V30 414 C 45.306 -1.85889 1.34081 0
M  V30 415 C 46.306 -1.58949 0.243277 0
M  V30 416 O 47.496 -1.66882 0.499589 0
M  V30 417 C 44.628 -3.23176 1.08489 0
M  V30 418 H 45.821 -1.90648 2.31502 0
M  V30 419 H 43.374 -0.964367 1.23003 0
M  V30 420 H 44.109 -3.24091 0.116318 0
M  V30 421 H 43.894 -3.44124 1.8794 0
M  V30 422 H 45.384 -4.03254 1.08517 0
M  V30 423 N 45.8211 -1.22559 -0.990812 0
M  V30 424 C 47.0461 -1.07862 -1.77145 0
M  V30 425 C 47.4711 0.366447 -1.84496 0
M  V30 426 O 46.8291 1.26478 -1.29896 0
M  V30 427 C 46.8771 -1.69686 -3.18181 0
M  V30 428 O 45.9811 -0.951946 -4.01263 0
M  V30 429 H 45.3221 -0.378712 -0.545411 0
M  V30 430 H 47.8521 -1.62399 -1.2445 0
M  V30 431 H 47.8621 -1.74496 -3.68802 0
M  V30 432 H 46.5371 -2.74841 -3.12146 0
M  V30 433 H 45.1141 -0.980011 -3.59792 0
M  V30 434 N 47.2992 1.18797 -1.03562 0
M  V30 435 C 48.5272 1.92599 -0.755869 0
M  V30 436 C 48.9422 1.75886 0.686271 0
M  V30 437 O 48.2992 1.08517 1.46732 0
M  V30 438 C 48.3502 3.44159 -1.10619 0
M  V30 439 O 48.0712 3.60341 -2.4917 0
M  V30 440 C 49.5722 4.3507 -0.850214 0
M  V30 441 H 46.7922 0.611587 -0.276048 0
M  V30 442 H 49.3362 1.50742 -1.38192 0
M  V30 443 H 47.4912 3.83823 -0.525194 0
M  V30 444 H 47.9052 4.54128 -2.62427 0
M  V30 445 H 49.3792 5.39989 -1.14523 0
M  V30 446 H 49.8562 4.38673 0.215176 0
M  V30 447 H 50.4622 4.01097 -1.41426 0
M  V30 448 N 48.7773 0.814389 1.34928 0
M  V30 449 C 49.7403 0.235759 2.27984 0
M  V30 450 C 50.7403 -0.581412 1.49921 0
M  V30 451 O 51.9303 -0.398758 1.69575 0
M  V30 452 C 49.0623 -0.670433 3.34242 0
M  V30 453 H 50.2553 1.05659 2.80671 0
M  V30 454 H 47.8083 0.585614 1.44915 0
M  V30 455 H 48.5433 -1.51466 2.86755 0
M  V30 456 H 48.3283 -0.0860822 3.92005 0
M  V30 457 H 49.8183 -1.06935 4.03676 0
M  V30 458 N 50.2554 -1.46986 0.568584 0
M  V30 459 C 51.2184 -2.28624 -0.162366 0
M  V30 460 C 52.2184 -1.37596 -0.832103 0
M  V30 461 O 53.4084 -1.60115 -0.68622 0
M  V30 462 C 50.5404 -3.17596 -1.23878 0
M  V30 463 H 51.7334 -2.94722 0.554899 0
M  V30 464 H 49.2864 -1.52863 0.325976 0
M  V30 465 H 50.0214 -2.56214 -1.98808 0
M  V30 466 H 49.8064 -3.846 -0.763219 0
M  V30 467 H 51.2964 -3.79078 -1.75185 0
M  V30 468 N 51.7335 -0.305618 -1.54608 0
M  V30 469 C 52.9795 0.302746 -2.00528 0
M  V30 470 C 53.3125 1.53184 -1.19367 0
M  V30 471 O 52.5875 1.92598 -0.271321 0
M  V30 472 C 52.8705 0.654756 -3.54097 0
M  V30 473 C 52.7235 -0.583793 -4.45995 0
M  V30 474 C 54.0425 1.47947 -4.14487 0
M  V30 475 H 51.1615 0.108564 -0.72896 0
M  V30 476 H 53.8035 -0.418634 -1.85331 0
M  V30 477 H 51.9535 1.26935 -3.67178 0
M  V30 478 H 53.6255 -1.22224 -4.44814 0
M  V30 479 H 51.8685 -1.21615 -4.16404 0
M  V30 480 H 52.5395 -0.293287 -5.5122 0
M  V30 481 H 55.0155 0.96013 -4.04871 0
M  V30 482 H 53.8915 1.69454 -5.22088 0
M  V30 483 H 54.1525 2.47011 -3.66658 0
M  V30 484 N 53.2116 1.57565 -0.0334293 0
M  V30 485 C 54.4366 1.96689 0.657895 0
M  V30 486 C 54.8616 0.910057 1.64619 0
M  V30 487 O 54.2196 -0.128598 1.80843 0
M  V30 488 C 54.2676 3.34905 1.33683 0
M  V30 489 O 53.3716 3.31574 2.45219 0
M  V30 490 H 52.7126 0.641205 0.172489 0
M  V30 491 H 55.2426 2.04372 -0.0965621 0
M  V30 492 H 55.2526 3.71234 1.69262 0
M  V30 493 H 53.9276 4.11366 0.612411 0
M  V30 494 H 52.5046 3.06968 2.11719 0
M  V30 495 N 54.6897 -0.239769 1.55765 0
M  V30 496 C 55.9147 -0.988373 1.82335 0
M  V30 497 C 56.3397 -1.77886 0.611421 0
M  V30 498 O 55.6977 -1.75889 -0.439639 0
M  V30 499 C 55.7457 -1.89627 3.06715 0
M  V30 500 O 54.8497 -2.98904 2.84131 0
M  V30 501 H 54.1907 -0.280858 0.601677 0
M  V30 502 H 56.7207 -0.258597 2.02959 0
M  V30 503 H 56.7307 -2.30957 3.36338 0
M  V30 504 H 55.4057 -1.31511 3.9456 0
M  V30 505 H 53.9827 -2.61651 2.65694 0
M  V30 506 N 56.1678 -1.49265 -0.50573 0
M  V30 507 C 57.3928 -1.62478 -1.28902 0
M  V30 508 C 57.8178 -0.294332 -1.85783 0
M  V30 509 O 57.1758 0.737412 -1.65626 0
M  V30 510 C 57.2238 -2.69268 -2.39848 0
M  V30 511 O 56.3278 -2.28113 -3.43567 0
M  V30 512 H 55.6688 -0.54399 -0.380751 0
M  V30 513 H 58.1988 -1.95421 -0.605952 0
M  V30 514 H 58.2088 -2.91291 -2.85681 0
M  V30 515 H 56.8838 -3.65846 -1.97812 0
M  V30 516 H 55.4608 -2.16401 -3.03685 0
M  V30 517 N 57.6459 0.756429 -1.3826 0
M  V30 518 C 58.8929 1.51547 -1.34312 0
M  V30 519 C 59.2209 1.94382 0.0677144 0
M  V30 520 O 58.4759 1.65514 1.04421 0
M  V30 521 C 58.7749 2.78313 -2.24224 0
M  V30 522 C 58.4409 2.54455 -3.72241 0
M  V30 523 C 57.1029 2.47657 -4.12576 0
M  V30 524 C 59.4549 2.3354 -4.65949 0
M  V30 525 C 56.7829 2.17956 -5.44713 0
M  V30 526 C 59.1349 2.05359 -5.9834 0
M  V30 527 C 57.7989 1.97016 -6.37762 0
M  V30 528 H 57.0689 0.55455 -0.491482 0
M  V30 529 H 59.7159 0.870039 -1.70595 0
M  V30 530 H 58.0209 3.47492 -1.80987 0
M  V30 531 H 59.7179 3.36259 -2.18474 0
M  V30 532 H 56.3079 2.60616 -3.40261 0
M  V30 533 H 60.4919 2.37772 -4.35635 0
M  V30 534 H 55.7479 2.10003 -5.74203 0
M  V30 535 H 59.9219 1.88179 -6.70494 0
M  V30 536 H 57.5489 1.73766 -7.40074 0
M  V30 537 N 59.124 1.23083 0.984299 0
M  V30 538 C 60.071 1.00854 2.07598 0
M  V30 539 C 61.041 -0.0726709 1.65941 0
M  V30 540 O 62.226 0.0786535 1.90638 0
M  V30 541 C 59.366 0.601645 3.39815 0
M  V30 542 C 58.479 1.75456 3.94765 0
M  V30 543 C 57.614 1.29482 5.15177 0
M  V30 544 C 56.653 2.41873 5.62284 0
M  V30 545 N 55.79 1.96885 6.73929 0
M  V30 546 H 60.63 1.943 2.25946 0
M  V30 547 H 58.167 0.968001 1.10762 0
M  V30 548 H 60.125 0.346854 4.15756 0
M  V30 549 H 58.755 -0.295803 3.21442 0
M  V30 550 H 57.807 2.12346 3.15616 0
M  V30 551 H 59.119 2.59965 4.25699 0
M  V30 552 H 58.273 0.997923 5.98437 0
M  V30 553 H 57.012 0.420046 4.85888 0
M  V30 554 H 56.017 2.72342 4.77608 0
M  V30 555 H 57.242 3.29881 5.93595 0
M  V30 556 H 55.188 1.11782 6.46406 0
M  V30 557 H 55.105 2.74956 7.04227 0
M  V30 558 H 56.373 1.70289 7.60672 0
M  V30 559 N 60.6021 -1.18246 1.0419 0
M  V30 560 C 61.8421 -1.89948 0.754916 0
M  V30 561 C 62.2061 -1.78608 -0.70451 0
M  V30 562 O 63.4071 -2.4503 -1.10516 0
M  V30 563 C 61.6781 -3.36305 1.20969 0
M  V30 564 S 63.2371 -4.26088 1.04854 0
M  V30 565 H 60.0551 -0.655897 0.274446 0
M  V30 566 H 62.6571 -1.42873 1.33445 0
M  V30 567 H 61.3611 -3.42089 2.26722 0
M  V30 568 H 60.8921 -3.8842 0.624004 0
M  V30 569 H 62.9071 -4.96189 -0.0332896 0
M  V30 570 N 62.0802 -0.821533 -1.34494 0
M  V30 571 C 63.0432 -0.247847 -2.27856 0
M  V30 572 C 64.0432 0.573453 -1.50227 0
M  V30 573 O 65.2332 0.389759 -1.69784 0
M  V30 574 C 62.3652 0.652698 -3.34593 0
M  V30 575 H 63.5582 -1.07146 -2.80107 0
M  V30 576 H 61.1112 -0.593291 -1.44602 0
M  V30 577 H 61.8462 1.49943 -2.87555 0
M  V30 578 H 61.6312 0.065292 -3.92046 0
M  V30 579 H 63.1212 1.04793 -4.04238 0
M  V30 580 N 63.5583 1.46682 -0.576371 0
M  V30 581 C 64.4883 2.33028 0.148397 0
M  V30 582 C 65.4693 1.44961 0.889956 0
M  V30 583 O 66.6543 1.73789 0.866662 0
M  V30 584 C 63.7843 3.27117 1.1667 0
M  V30 585 C 62.7383 4.24575 0.540386 0
M  V30 586 C 62.0643 5.08126 1.6647 0
M  V30 587 C 63.3643 5.19722 -0.518331 0
M  V30 588 H 65.0583 2.93875 -0.572509 0
M  V30 589 H 62.6043 1.41315 -0.276768 0
M  V30 590 H 64.5573 3.86374 1.68204 0
M  V30 591 H 63.2813 2.64364 1.9178 0
M  V30 592 H 61.9403 3.66571 0.0461769 0
M  V30 593 H 61.5883 4.41762 2.40531 0
M  V30 594 H 61.2883 5.74122 1.25131 0
M  V30 595 H 62.8123 5.70246 2.18293 0
M  V30 596 H 64.2263 5.73232 -0.0883058 0
M  V30 597 H 62.6233 5.94026 -0.851679 0
M  V30 598 H 63.6933 4.64037 -1.40703 0
M  V30 599 N 65.0364 0.313813 1.54444 0
M  V30 600 C 66.2644 -0.293918 2.04802 0
M  V30 601 C 66.6794 -1.46537 1.19047 0
M  V30 602 O 66.0364 -1.81182 0.218939 0
M  V30 603 C 66.0874 -0.737806 3.53891 0
M  V30 604 O 65.8084 0.387038 4.36387 0
M  V30 605 C 67.3094 -1.40936 4.203 0
M  V30 606 H 64.5294 -0.0620057 0.668129 0
M  V30 607 H 67.0734 0.457169 1.99324 0
M  V30 608 H 65.2284 -1.43889 3.59687 0
M  V30 609 H 65.6424 0.0391274 5.24485 0
M  V30 610 H 67.1164 -1.67099 5.26101 0
M  V30 611 H 67.5934 -2.35355 3.70816 0
M  V30 612 H 68.1994 -0.751117 4.18615 0
M  V30 613 N 66.5145 -1.57545 0.0417849 0
M  V30 614 C 67.4615 -2.10977 -0.935805 0
M  V30 615 C 68.4315 -1.01486 -1.31491 0
M  V30 616 O 69.6165 -1.2898 -1.40602 0
M  V30 617 C 66.7565 -2.65169 -2.2086 0
M  V30 618 C 65.8695 -3.88714 -1.88482 0
M  V30 619 C 65.0045 -4.31254 -3.1015 0
M  V30 620 C 64.0435 -5.47524 -2.7365 0
M  V30 621 N 63.1805 -5.85162 -3.87982 0
M  V30 622 H 68.0205 -2.94218 -0.473249 0
M  V30 623 H 65.5575 -1.45415 -0.221981 0
M  V30 624 H 67.5155 -2.94685 -2.95325 0
M  V30 625 H 66.1455 -1.8474 -2.64709 0
M  V30 626 H 65.1975 -3.65849 -1.04205 0
M  V30 627 H 66.5095 -4.73245 -1.57608 0
M  V30 628 H 65.6635 -4.62273 -3.92923 0
M  V30 629 H 64.4025 -3.45516 -3.44195 0
M  V30 630 H 63.4075 -5.16187 -1.89291 0
M  V30 631 H 64.6325 -6.34971 -2.40807 0
M  V30 632 H 62.5785 -5.02377 -4.21846 0
M  V30 633 H 62.4955 -6.64362 -3.60775 0
M  V30 634 H 63.7635 -6.20791 -4.71422 0
M  V30 635 N 67.9926 0.231505 -1.5589 0
M  V30 636 C 69.2206 0.974505 -1.82513 0
M  V30 637 C 69.6356 1.78344 -0.619591 0
M  V30 638 O 68.9926 1.77792 0.411848 0
M  V30 639 C 69.0436 1.90007 -3.07538 0
M  V30 640 O 68.7646 1.12385 -4.2344 0
M  V30 641 C 70.2656 2.75779 -3.47075 0
M  V30 642 H 67.4856 0.286065 -0.606966 0
M  V30 643 H 70.0296 0.249739 -2.02969 0
M  V30 644 H 68.1846 2.57891 -2.89086 0
M  V30 645 H 68.5986 1.75125 -4.944 0
M  V30 646 H 70.0726 3.36443 -4.37619 0
M  V30 647 H 70.5496 3.47672 -2.68367 0
M  V30 648 H 71.1556 2.13323 -3.67931 0
M  V30 649 N 69.4707 1.49531 0.497807 0
M  V30 650 C 70.7187 1.58865 1.24926 0
M  V30 651 C 71.0397 0.278721 1.92998 0
M  V30 652 O 70.3097 -0.702144 1.82885 0
M  V30 653 H 68.8897 0.585343 0.464094 0
M  V30 654 H 71.5517 1.86174 0.57666 0
M  V30 655 H 70.6477 2.38633 2.01149 0
M  V30 656 N 70.9488 -0.749086 1.3866 0
M  V30 657 C 72.1958 -1.50833 1.35114 0
M  V30 658 C 72.5238 -1.94415 -0.0574049 0
M  V30 659 O 71.7788 -1.66065 -1.03541 0
M  V30 660 C 72.0778 -2.7712 2.25697 0
M  V30 661 C 71.7438 -2.52477 3.73585 0
M  V30 662 C 70.4058 -2.45466 4.13884 0
M  V30 663 C 72.7578 -2.31066 4.67181 0
M  V30 664 C 70.0858 -2.15064 5.45861 0
M  V30 665 C 72.4378 -2.02183 5.9942 0
M  V30 666 C 71.1018 -1.93631 6.38798 0
M  V30 667 H 70.3718 -0.551936 0.494416 0
M  V30 668 H 73.0188 -0.860979 1.71054 0
M  V30 669 H 71.3238 -3.46528 1.82827 0
M  V30 670 H 73.0208 -3.35096 2.20254 0
M  V30 671 H 69.6108 -2.58807 3.41638 0
M  V30 672 H 73.7948 -2.35459 4.3689 0
M  V30 673 H 69.0508 -2.06954 5.75308 0
M  V30 674 H 73.2248 -1.8462 6.71482 0
M  V30 675 H 70.8518 -1.69839 7.40985 0
M  V30 676 N 72.4269 -1.23603 -0.977757 0
M  V30 677 C 73.3589 -0.977369 -2.07317 0
M  V30 678 C 74.3719 0.0495845 -1.62724 0
M  V30 679 O 75.5609 -0.186261 -1.77526 0
M  V30 680 C 72.6609 -0.451216 -3.35883 0
M  V30 681 C 71.8339 -1.53896 -4.09432 0
M  V30 682 C 70.8929 -1.01721 -5.16274 0
M  V30 683 O 69.9189 -1.70676 -5.43009 0
M  V30 684 N 71.1209 0.153594 -5.80297 0
M  V30 685 H 73.8859 -1.92047 -2.30082 0
M  V30 686 H 71.4469 -1.14497 -1.14465 0
M  V30 687 H 73.4389 -0.0871574 -4.04606 0
M  V30 688 H 72.0089 0.397368 -3.10064 0
M  V30 689 H 71.2289 -2.07566 -3.35127 0
M  V30 690 H 72.5169 -2.27037 -4.55337 0
M  V30 691 H 71.9149 0.730323 -5.60966 0
M  V30 692 H 70.4719 0.458892 -6.50183 0
M  V30 693 N 73.905 1.17692 -1.04816 0
M  V30 694 C 75.152 1.87859 -0.75599 0
M  V30 695 C 75.48 1.80812 0.716752 0
M  V30 696 O 74.735 1.20819 1.53952 0
M  V30 697 C 75.034 3.37462 -1.17703 0
M  V30 698 C 74.7 3.64713 -2.65133 0
M  V30 699 C 73.362 3.71859 -3.05408 0
M  V30 700 C 75.714 3.76492 -3.60421 0
M  V30 701 C 73.042 3.88271 -4.39843 0
M  V30 702 C 75.394 3.94421 -4.94585 0
M  V30 703 C 74.058 3.99806 -5.3452 0
M  V30 704 H 73.328 0.687425 -0.276636 0
M  V30 705 H 75.975 1.39255 -1.31455 0
M  V30 706 H 74.28 3.88097 -0.537395 0
M  V30 707 H 75.977 3.90109 -0.928218 0
M  V30 708 H 72.567 3.59772 -2.32942 0
M  V30 709 H 76.751 3.70295 -3.30447 0
M  V30 710 H 72.007 3.90687 -4.70291 0
M  V30 711 H 76.181 4.02477 -5.68318 0
M  V30 712 H 73.808 4.12276 -6.38696 0
M  V30 713 N 75.3831 0.828654 1.34056 0
M  V30 714 C 76.6131 0.431993 2.02033 0
M  V30 715 C 77.0211 -0.96844 1.62536 0
M  V30 716 O 76.3641 -1.6391 0.829408 0
M  V30 717 C 76.4261 0.461224 3.56529 0
M  V30 718 C 76.0901 1.81599 4.1937 0
M  V30 719 C 77.0871 2.7777 4.39477 0
M  V30 720 C 74.7721 2.10604 4.56017 0
M  V30 721 C 76.7661 4.01115 4.95364 0
M  V30 722 C 74.4531 3.34207 5.11614 0
M  V30 723 C 75.4511 4.2928 5.31232 0
M  V30 724 O 75.1391 5.50699 5.8565 0
M  V30 725 H 74.8711 0.170943 0.654029 0
M  V30 726 H 77.4251 1.11988 1.72185 0
M  V30 727 H 75.6551 -0.283388 3.8566 0
M  V30 728 H 77.3441 0.0838149 4.05813 0
M  V30 729 H 78.1101 2.56659 4.11523 0
M  V30 730 H 73.9891 1.37402 4.40047 0
M  V30 731 H 77.5331 4.75333 5.10592 0
M  V30 732 H 73.4301 3.55179 5.38997 0
M  V30 733 H 74.1981 5.52298 6.04077 0
M  V30 734 N 76.8612 -1.46375 0.584142 0
M  V30 735 C 78.0912 -2.06461 0.0758195 0
M  V30 736 C 78.4992 -1.43322 -1.23512 0
M  V30 737 O 77.8422 -0.533216 -1.75791 0
M  V30 738 C 77.9042 -3.59131 -0.162773 0
M  V30 739 C 77.5682 -4.4447 1.06279 0
M  V30 740 C 78.5652 -4.80918 1.97519 0
M  V30 741 C 76.2502 -4.85584 1.28504 0
M  V30 742 C 78.2442 -5.57309 3.09331 0
M  V30 743 C 75.9312 -5.61734 2.4062 0
M  V30 744 C 76.9292 -5.9751 3.30863 0
M  V30 745 O 76.6172 -6.72121 4.41032 0
M  V30 746 H 76.3492 -0.673745 0.0551725 0
M  V30 747 H 78.9032 -1.88969 0.804984 0
M  V30 748 H 77.1332 -3.74936 -0.946565 0
M  V30 749 H 78.8222 -4.0114 -0.619782 0
M  V30 750 H 79.5882 -4.49732 1.81565 0
M  V30 751 H 75.4672 -4.57187 0.591702 0
M  V30 752 H 79.0112 -5.85152 3.79793 0
M  V30 753 H 74.9082 -5.92334 2.56537 0
M  V30 754 H 75.6762 -6.90547 4.39417 0
M  V30 755 N 78.3393 -0.321999 -1.54275 0
M  V30 756 C 79.2693 0.537411 -2.27231 0
M  V30 757 C 80.2503 1.12064 -1.27968 0
M  V30 758 O 81.4353 1.14606 -1.56777 0
M  V30 759 C 78.5653 1.69919 -3.02894 0
M  V30 760 C 77.5193 1.24534 -4.09482 0
M  V30 761 C 76.8453 2.49394 -4.72977 0
M  V30 762 C 78.1453 0.361335 -5.21049 0
M  V30 763 H 79.8393 -0.0711406 -2.99315 0
M  V30 764 H 77.3853 -0.0356555 -1.43956 0
M  V30 765 H 79.3383 2.30668 -3.52662 0
M  V30 766 H 78.0623 2.33431 -2.28424 0
M  V30 767 H 76.7213 0.660782 -3.60596 0
M  V30 768 H 76.3693 3.11265 -3.95124 0
M  V30 769 H 76.0693 2.19718 -5.44975 0
M  V30 770 H 77.5933 3.10908 -5.25517 0
M  V30 771 H 79.0073 0.875072 -5.66582 0
M  V30 772 H 77.4043 0.157428 -5.99893 0
M  V30 773 H 78.4743 -0.60822 -4.8107 0
M  V30 774 N 79.8174 1.5752 -0.0501392 0
M  V30 775 C 81.2284 1.80271 0.485705 0
M  V30 776 C 81.5794 0.96228 1.70981 0
M  V30 777 O 80.7044 0.178578 2.15662 0
M  V30 778 C 81.2994 3.26957 0.887938 0
M  V30 779 C 79.8584 3.5063 1.36877 0
M  V30 780 C 79.0054 2.75165 0.343468 0
M  V30 781 H 81.9564 1.56281 -0.276028 0
M  V30 782 H 81.9774 3.37821 1.75093 0
M  V30 783 H 81.4894 3.881 -0.0031809 0
M  V30 784 H 79.5904 2.94766 2.27911 0
M  V30 785 H 79.7034 4.59343 1.36164 0
M  V30 786 H 78.0674 2.4127 0.816128 0
M  V30 787 H 78.8504 3.39034 -0.539548 0
M  V30 788 N 81.2955 -0.223234 1.56011 0
M  V30 789 C 82.2585 -1.26014 1.9145 0
M  V30 790 C 83.2585 -1.3989 0.792937 0
M  V30 791 O 84.4485 -1.38184 1.0607 0
M  V30 792 C 81.5805 -2.63422 2.16383 0
M  V30 793 H 82.7735 -0.95796 2.84189 0
M  V30 794 H 80.3265 -0.463576 1.49267 0
M  V30 795 H 81.0615 -2.98741 1.2619 0
M  V30 796 H 80.8465 -2.54728 2.98088 0
M  V30 797 H 82.3365 -3.38249 2.44903 0
M  V30 798 N 82.7736 -1.49793 -0.48987 0
M  V30 799 C 84.0196 -1.60078 -1.24511 0
M  V30 800 C 84.3526 -0.291608 -1.91998 0
M  V30 801 O 83.6276 0.705647 -1.81248 0
M  V30 802 C 83.9106 -2.76791 -2.30345 0
M  V30 803 C 83.7636 -4.17535 -1.67286 0
M  V30 804 C 85.0826 -2.89111 -3.31817 0
M  V30 805 H 82.2016 -0.582645 -0.451324 0
M  V30 806 H 84.8436 -1.82117 -0.541612 0
M  V30 807 H 82.9936 -2.5813 -2.90346 0
M  V30 808 H 84.6656 -4.4774 -1.11026 0
M  V30 809 H 82.9086 -4.22665 -0.976577 0
M  V30 810 H 83.5796 -4.95094 -2.44103 0
M  V30 811 H 86.0556 -3.06133 -2.81819 0
M  V30 812 H 84.9316 -3.72433 -4.03219 0
M  V30 813 H 85.1926 -1.9893 -3.94815 0
M  V30 814 N 84.2517 0.741722 -1.39055 0
M  V30 815 C 85.4817 1.52876 -1.3897 0
M  V30 816 C 85.8897 1.8919 0.0193266 0
M  V30 817 O 85.2327 1.54138 0.999356 0
M  V30 818 C 85.2947 2.84929 -2.19216 0
M  V30 819 C 84.9587 2.71086 -3.67915 0
M  V30 820 C 85.9557 2.40084 -4.61146 0
M  V30 821 C 83.6407 2.88168 -4.11418 0
M  V30 822 C 85.6347 2.26335 -5.95862 0
M  V30 823 C 83.3217 2.74037 -5.46211 0
M  V30 824 C 84.3197 2.43166 -6.38247 0
M  V30 825 O 84.0077 2.29115 -7.70559 0
M  V30 826 H 83.7397 0.479252 -0.476753 0
M  V30 827 H 86.2937 0.924751 -1.83405 0
M  V30 828 H 84.5237 3.47564 -1.69518 0
M  V30 829 H 86.2127 3.46509 -2.11392 0
M  V30 830 H 86.9787 2.26545 -4.28838 0
M  V30 831 H 82.8577 3.11191 -3.40119 0
M  V30 832 H 86.4017 2.0216 -6.67665 0
M  V30 833 H 82.2987 2.87153 -5.78112 0
M  V30 834 H 83.0667 2.44237 -7.81211 0
M  V30 835 N 85.7298 1.2412 0.971189 0
M  V30 836 C 86.9788 1.07284 1.70801 0
M  V30 837 C 87.2918 -0.388902 1.91695 0
M  V30 838 O 88.4978 -0.677379 2.62914 0
M  V30 839 C 86.9538 1.87145 3.07416 0
M  V30 840 C 86.5618 3.37707 2.94377 0
M  V30 841 C 88.3058 1.78828 3.84995 0
M  V30 842 C 86.2128 4.09925 4.26281 0
M  V30 843 H 85.1428 0.397854 0.64049 0
M  V30 844 H 87.7938 1.4817 1.0825 0
M  V30 845 H 86.1758 1.39071 3.70777 0
M  V30 846 H 87.3498 3.93335 2.4005 0
M  V30 847 H 85.6648 3.46938 2.30267 0
M  V30 848 H 88.2618 2.30089 4.82662 0
M  V30 849 H 88.6048 0.75284 4.09436 0
M  V30 850 H 89.1378 2.24563 3.28354 0
M  V30 851 H 85.8768 5.13813 4.07033 0
M  V30 852 H 85.3968 3.59083 4.80437 0
M  V30 853 H 87.0758 4.1673 4.94919 0
M  V30 854 N 87.2079 -1.17134 1.05439 0
M  V30 855 C 88.1379 -2.2342 0.678649 0
M  V30 856 C 89.1189 -1.66971 -0.32476 0
M  V30 857 O 90.3039 -1.93149 -0.201802 0
M  V30 858 C 87.4339 -3.47256 0.0552099 0
M  V30 859 C 86.3879 -4.16543 0.98365 0
M  V30 860 C 85.7139 -5.34231 0.223961 0
M  V30 861 C 87.0139 -4.68495 2.3089 0
M  V30 862 H 88.7079 -2.55105 1.56722 0
M  V30 863 H 86.2539 -1.2262 0.754998 0
M  V30 864 H 88.2069 -4.20828 -0.21946 0
M  V30 865 H 86.9309 -3.14846 -0.868319 0
M  V30 866 H 85.5899 -3.44887 1.24293 0
M  V30 867 H 85.2379 -4.98071 -0.702412 0
M  V30 868 H 84.9379 -5.81527 0.842627 0
M  V30 869 H 86.4619 -6.10585 -0.0433671 0
M  V30 870 H 87.8759 -5.33691 2.09396 0
M  V30 871 H 86.2729 -5.26379 2.88176 0
M  V30 872 H 87.3429 -3.85169 2.94572 0
M  V30 873 N 88.686 -0.835752 -1.33615 0
M  V30 874 C 89.932 -0.430596 -1.98176 0
M  V30 875 C 90.265 1.00684 -1.66061 0
M  V30 876 O 89.54 1.70339 -0.938877 0
M  V30 877 C 89.823 -0.648065 -3.5422 0
M  V30 878 C 89.676 -2.13255 -3.96033 0
M  V30 879 C 90.995 -0.0922113 -4.40003 0
M  V30 880 H 88.114 -0.157924 -0.719881 0
M  V30 881 H 90.756 -1.05069 -1.58305 0
M  V30 882 H 88.906 -0.120237 -3.88314 0
M  V30 883 H 90.578 -2.725 -3.72211 0
M  V30 884 H 88.821 -2.61823 -3.45878 0
M  V30 885 H 89.492 -2.23547 -5.04708 0
M  V30 886 H 91.968 -0.543343 -4.12537 0
M  V30 887 H 90.844 -0.274083 -5.48215 0
M  V30 888 H 91.105 1.00378 -4.30554 0
M  V30 889 N 90.1641 1.46063 -0.591896 0
M  V30 890 C 91.4111 2.02338 -0.0809991 0
M  V30 891 C 91.7391 1.46228 1.28249 0
M  V30 892 O 90.9941 0.620818 1.85592 0
M  V30 893 C 91.2931 3.57391 0.0249813 0
M  V30 894 C 90.9591 4.32583 -1.27211 0
M  V30 895 C 89.6211 4.52844 -1.62745 0
M  V30 896 C 91.9731 4.75687 -2.13005 0
M  V30 897 C 89.3011 5.13462 -2.83855 0
M  V30 898 C 91.6531 5.37644 -3.3335 0
M  V30 899 C 90.3171 5.5613 -3.69155 0
M  V30 900 H 89.5871 0.740407 -0.0296397 0
M  V30 901 H 92.2341 1.75321 -0.770374 0
M  V30 902 H 90.5391 3.83597 0.797537 0
M  V30 903 H 92.2361 3.98621 0.436184 0
M  V30 904 H 88.8261 4.17116 -0.985499 0
M  V30 905 H 93.0101 4.59782 -1.86855 0
M  V30 906 H 88.2661 5.25965 -3.11722 0
M  V30 907 H 92.4401 5.7 -4.00092 0
M  V30 908 H 90.0671 6.0287 -4.63089 0
M  V30 909 N 91.6422 0.330177 1.54103 0
M  V30 910 C 92.8912 -0.271336 1.99867 0
M  V30 911 C 93.2042 -1.52723 1.22209 0
M  V30 912 O 94.4102 -2.20515 1.58383 0
M  V30 913 C 92.8662 -0.534032 3.55916 0
M  V30 914 C 92.4742 0.705193 4.42415 0
M  V30 915 C 94.2182 -1.09514 4.1013 0
M  V30 916 C 92.1252 0.414035 5.89949 0
M  V30 917 H 91.0552 -0.105166 0.74663 0
M  V30 918 H 93.7062 0.443429 1.78062 0
M  V30 919 H 92.0882 -1.30915 3.73734 0
M  V30 920 H 93.2622 1.4804 4.36372 0
M  V30 921 H 91.5772 1.18698 3.99124 0
M  V30 922 H 94.1742 -1.3277 5.17954 0
M  V30 923 H 94.5172 -2.04656 3.62521 0
M  V30 924 H 95.0502 -0.381038 3.95971 0
M  V30 925 H 91.7892 1.33481 6.41766 0
M  V30 926 H 91.3092 -0.323336 5.98928 0
M  V30 927 H 92.9882 0.0263105 6.46995 0
M  V30 928 N 93.1203 -1.57491 0.0584922 0
M  V30 929 C 94.3693 -1.92155 -0.613146 0
M  V30 930 C 94.6823 -0.939334 -1.71569 0
M  V30 931 O 95.8883 -1.17829 -2.44599 0
M  V30 932 C 94.3443 -3.41303 -1.14195 0
M  V30 933 C 93.9523 -4.47944 -0.0711265 0
M  V30 934 C 95.6963 -3.84988 -1.78841 0
M  V30 935 C 93.6033 -5.88212 -0.613225 0
M  V30 936 H 92.5333 -0.717162 -0.232796 0
M  V30 937 H 95.1843 -1.83049 0.12857 0
M  V30 938 H 93.5663 -3.45437 -1.93621 0
M  V30 939 H 94.7403 -4.55408 0.702836 0
M  V30 940 H 93.0553 -4.13644 0.478313 0
M  V30 941 H 95.6523 -4.87159 -2.20408 0
M  V30 942 H 95.9953 -3.21632 -2.64308 0
M  V30 943 H 96.5283 -3.83401 -1.06059 0
M  V30 944 H 93.2673 -6.55183 0.203978 0
M  V30 945 H 92.7873 -5.84294 -1.35501 0
M  V30 946 H 94.4663 -6.37687 -1.09383 0
M  V30 947 N 94.5984 0.214957 -1.56127 0
M  V30 948 C 95.8464 0.936518 -1.79091 0
M  V30 949 C 96.1674 1.84606 -0.628148 0
M  V30 950 O 95.4374 1.92664 0.35462 0
M  V30 951 H 94.0174 0.3488 -0.660566 0
M  V30 952 H 96.6794 0.22523 -1.93594 0
M  V30 953 H 95.7754 1.53943 -2.71492 0
M  V30 954 N 96.0765 1.50051 0.48192 0
M  V30 955 C 97.3235 1.60498 1.23477 0
M  V30 956 C 97.6515 0.300331 1.92167 0
M  V30 957 O 96.9065 -0.713094 1.82246 0
M  V30 958 C 97.2055 2.72717 2.30998 0
M  V30 959 C 96.8715 4.13572 1.79636 0
M  V30 960 C 95.5335 4.519 1.65348 0
M  V30 961 C 97.8855 5.01649 1.41412 0
M  V30 962 C 95.2135 5.76057 1.11244 0
M  V30 963 C 97.5655 6.26343 0.887538 0
M  V30 964 C 96.2295 6.63483 0.731207 0
M  V30 965 H 95.4995 0.587303 0.451836 0
M  V30 966 H 98.1465 1.83948 0.532468 0
M  V30 967 H 96.4515 2.43312 3.07094 0
M  V30 968 H 98.1485 2.78006 2.88988 0
M  V30 969 H 94.7385 3.83329 1.91721 0
M  V30 970 H 98.9225 4.72679 1.51289 0
M  V30 971 H 94.1785 6.03516 0.978686 0
M  V30 972 H 98.3525 6.93958 0.582654 0
M  V30 973 H 95.9795 7.59568 0.309806 0
M  V30 974 N 97.5546 -0.734337 1.39446 0
M  V30 975 C 98.4846 -1.86155 1.40955 0
M  V30 976 C 99.4656 -1.67898 0.272827 0
M  V30 977 O 100.651 -1.88207 0.478743 0
M  V30 978 C 97.7806 -3.23912 1.25294 0
M  V30 979 C 96.7346 -3.56808 2.36373 0
M  V30 980 C 96.0606 -4.93508 2.058 0
M  V30 981 C 97.3606 -3.59713 3.78687 0
M  V30 982 H 99.0546 -1.8515 2.35287 0
M  V30 983 H 96.6006 -0.889367 1.13253 0
M  V30 984 H 98.5536 -4.02443 1.2497 0
M  V30 985 H 97.2776 -3.25446 0.274308 0
M  V30 986 H 95.9366 -2.80606 2.35914 0
M  V30 987 H 95.5846 -4.91623 1.06374 0
M  V30 988 H 95.2846 -5.16486 2.80208 0
M  V30 989 H 96.8086 -5.74396 2.07128 0
M  V30 990 H 98.2226 -4.2832 3.81071 0
M  V30 991 H 96.6196 -3.94209 4.52459 0
M  V30 992 H 97.6896 -2.59504 4.09617 0
M  V30 993 N 99.0327 -1.24633 -0.964593 0
M  V30 994 C 100.281 -1.08573 -1.70459 0
M  V30 995 C 100.602 0.375655 -1.91347 0
M  V30 996 O 99.8717 1.26779 -1.49345 0
M  V30 997 H 98.4517 -0.398784 -0.631649 0
M  V30 998 H 101.114 -1.56601 -1.16026 0
M  V30 999 H 100.21 -1.58623 -2.68785 0
M  V30 1000 N 100.511 1.16574 -1.06058 0
M  V30 1001 C 101.459 2.22941 -0.663343 0
M  V30 1002 C 102.453 1.66358 0.319593 0
M  V30 1003 O 103.659 1.7905 0.184713 0
M  V30 1004 H 100.034 0.725907 -0.196376 0
M  V30 1005 H 102.005 2.53736 -1.57037 0
M  V30 1006 C 100.754 3.47642 -0.0632808 0
M  V30 1007 H 100.077 3.91493 -0.810733 0
M  V30 1008 H 101.517 4.2363 0.177177 0
M  V30 1009 C 99.9758 3.1509 1.19248 0
M  V30 1010 O 100.506 3.30673 2.28075 0
M  V30 1011 N 98.7118 2.6924 1.09353 0
M  V30 1012 H 98.2588 2.5676 0.207912 0
M  V30 1013 H 98.2168 2.47833 1.93458 0
M  V30 1014 N 101.989 0.842826 1.3317 0
M  V30 1015 C 103.214 0.453129 2.02389 0
M  V30 1016 C 103.639 -0.939105 1.6298 0
M  V30 1017 O 102.997 -1.61472 0.8244 0
M  V30 1018 C 103.045 0.586094 3.55805 0
M  V30 1019 O 102.149 -0.386029 4.10589 0
M  V30 1020 H 101.49 0.183664 0.638094 0
M  V30 1021 H 104.02 1.13875 1.69981 0
M  V30 1022 H 104.03 0.469209 4.05293 0
M  V30 1023 H 102.705 1.6014 3.83833 0
M  V30 1024 H 101.282 -0.226371 3.72212 0
M  V30 1025 N 103.467 -1.45747 0.599634 0
M  V30 1026 C 104.713 -2.02592 0.0918643 0
M  V30 1027 C 105.046 -1.46806 -1.27128 0
M  V30 1028 O 104.321 -0.639658 -1.83681 0
M  V30 1029 C 104.604 -3.60073 0.0443398 0
M  V30 1030 C 104.457 -4.26208 1.43759 0
M  V30 1031 C 105.776 -4.35309 -0.647608 0
M  V30 1032 H 102.895 -0.736175 0.034857 0
M  V30 1033 H 105.537 -1.73694 0.770081 0
M  V30 1034 H 103.687 -3.84823 -0.533224 0
M  V30 1035 H 105.359 -4.12668 2.06162 0
M  V30 1036 H 103.602 -3.84916 2.00056 0
M  V30 1037 H 104.273 -5.35069 1.35665 0
M  V30 1038 H 106.749 -4.15805 -0.156776 0
M  V30 1039 H 105.625 -5.45038 -0.649942 0
M  V30 1040 H 105.886 -4.07598 -1.71219 0
M  V30 1041 N 104.945 -0.338344 -1.53925 0
M  V30 1042 C 105.908 0.508299 -2.23493 0
M  V30 1043 C 106.908 1.03175 -1.23335 0
M  V30 1044 O 108.098 0.921826 -1.47811 0
M  V30 1045 C 105.23 1.70754 -2.95052 0
M  V30 1046 H 106.423 -0.100058 -2.99733 0
M  V30 1047 H 103.976 -0.0896198 -1.56043 0
M  V30 1048 H 104.711 2.35474 -2.22986 0
M  V30 1049 H 104.496 1.33946 -3.68512 0
M  V30 1050 H 105.986 2.30818 -3.48013 0
M  V30 1051 N 106.423 1.57458 -0.0668435 0
M  V30 1052 C 107.672 1.92477 0.602947 0
M  V30 1053 C 107.985 0.948419 1.71068 0
M  V30 1054 O 109.191 1.19124 2.43971 0
M  V30 1055 C 107.647 3.41903 1.12383 0
M  V30 1056 C 107.255 4.47975 0.04737 0
M  V30 1057 C 108.999 3.85931 1.76797 0
M  V30 1058 C 106.906 5.88529 0.582022 0
M  V30 1059 H 105.836 0.718387 0.22899 0
M  V30 1060 H 108.487 1.82978 -0.138276 0
M  V30 1061 H 106.869 3.46459 1.91787 0
M  V30 1062 H 108.043 4.55029 -0.726978 0
M  V30 1063 H 106.358 4.13384 -0.500243 0
M  V30 1064 H 108.955 4.88322 2.17821 0
M  V30 1065 H 109.298 3.23029 2.62599 0
M  V30 1066 H 109.831 3.83958 1.04024 0
M  V30 1067 H 106.57 6.55065 -0.238721 0
M  V30 1068 H 106.09 5.85004 1.324 0
M  V30 1069 H 107.769 6.38258 1.05999 0
M  V30 1070 N 107.901 -0.206675 1.56239 0
M  V30 1071 C 109.147 -0.925733 1.81113 0
M  V30 1072 C 109.502 -1.81368 0.642135 0
M  V30 1073 O 108.795 -1.88126 -0.363211 0
M  V30 1074 C 108.989 -1.78675 3.09532 0
M  V30 1075 C 108.818 -0.98365 4.3881 0
M  V30 1076 C 107.588 -0.672661 5.00803 0
M  V30 1077 C 109.786 -0.341847 5.13163 0
M  V30 1078 N 107.768 0.150283 6.13716 0
M  V30 1079 C 109.139 0.343815 6.19046 0
M  V30 1080 C 111.194 -0.256392 4.97239 0
M  V30 1081 C 109.897 1.10678 7.10734 0
M  V30 1082 C 111.923 0.493142 5.8934 0
M  V30 1083 C 111.285 1.16729 6.94661 0
M  V30 1084 H 107.384 -0.318524 0.714189 0
M  V30 1085 H 109.968 -0.195378 1.93717 0
M  V30 1086 H 108.139 -2.4888 2.98183 0
M  V30 1087 H 109.871 -2.44441 3.22538 0
M  V30 1088 H 106.626 -0.994294 4.63045 0
M  V30 1089 H 107.05 0.551026 6.74754 0
M  V30 1090 H 111.692 -0.763249 4.15854 0
M  V30 1091 H 109.41 1.6251 7.91591 0
M  V30 1092 H 112.996 0.560465 5.79094 0
M  V30 1093 H 111.876 1.738 7.64698 0
M  V30 1094 N 109.379 -1.50304 -0.473955 0
M  V30 1095 C 110.312 -1.63595 -1.59097 0
M  V30 1096 C 111.29 -0.484142 -1.55225 0
M  V30 1097 O 112.474 -0.703271 -1.7489 0
M  V30 1098 C 109.601 -1.61589 -2.97669 0
M  V30 1099 C 108.647 -2.82295 -3.19705 0
M  V30 1100 S 109.48 -4.43635 -2.99913 0
M  V30 1101 C 110.636 -4.44317 -4.40832 0
M  V30 1102 H 110.869 -2.58082 -1.47583 0
M  V30 1103 H 108.402 -1.39531 -0.661087 0
M  V30 1104 H 110.36 -1.61116 -3.7756 0
M  V30 1105 H 109.021 -0.683421 -3.06575 0
M  V30 1106 H 108.214 -2.77188 -4.20931 0
M  V30 1107 H 107.816 -2.8032 -2.47582 0
M  V30 1108 H 110.108 -4.17703 -5.33414 0
M  V30 1109 H 111.051 -5.45911 -4.50984 0
M  V30 1110 H 111.459 -3.74059 -4.22777 0
M  V30 1111 N 110.857 0.726932 -1.39834 0
M  V30 1112 C 112.104 1.48664 -1.37496 0
M  V30 1113 C 112.432 1.94482 0.0264678 0
M  V30 1114 O 111.687 1.67692 1.00886 0
M  V30 1115 C 111.986 2.73495 -2.30077 0
M  V30 1116 C 111.652 2.46502 -3.77555 0
M  V30 1117 C 110.314 2.3885 -4.17737 0
M  V30 1118 C 112.666 2.23604 -4.70798 0
M  V30 1119 C 109.994 2.06352 -5.49214 0
M  V30 1120 C 112.346 1.92622 -6.02561 0
M  V30 1121 C 111.01 1.83444 -6.41798 0
M  V30 1122 H 110.28 0.544001 -0.503135 0
M  V30 1123 H 112.927 0.833657 -1.72402 0
M  V30 1124 H 111.232 3.43575 -1.88317 0
M  V30 1125 H 112.929 3.31549 -2.25558 0
M  V30 1126 H 109.519 2.5334 -3.45712 0
M  V30 1127 H 113.703 2.28479 -4.40581 0
M  V30 1128 H 108.959 1.97776 -5.78528 0
M  V30 1129 H 113.133 1.73914 -6.74334 0
M  V30 1130 H 110.76 1.58029 -7.43593 0
M  V30 1131 N 112.336 1.25143 0.95797 0
M  V30 1132 C 113.582 1.09855 1.70469 0
M  V30 1133 C 113.915 -0.360187 1.90831 0
M  V30 1134 O 113.19 -1.26568 1.47685 0
M  V30 1135 C 113.473 1.8497 3.08963 0
M  V30 1136 C 113.326 3.38652 2.96032 0
M  V30 1137 C 114.645 1.63016 4.08795 0
M  V30 1138 H 111.764 0.400465 0.618706 0
M  V30 1139 H 114.406 1.53933 1.11376 0
M  V30 1140 H 112.556 1.47505 3.59409 0
M  V30 1141 H 114.228 3.85772 2.52938 0
M  V30 1142 H 112.471 3.66534 2.32025 0
M  V30 1143 H 113.142 3.8642 3.94187 0
M  V30 1144 H 115.618 1.95625 3.67247 0
M  V30 1145 H 114.494 2.18015 5.03747 0
M  V30 1146 H 114.755 0.570692 4.38401 0
M  V30 1147 N 113.814 -1.1601 1.06675 0
M  V30 1148 C 115.061 -1.86633 0.785781 0
M  V30 1149 C 115.389 -1.81929 -0.687896 0
M  V30 1150 O 114.644 -1.23253 -1.52011 0
M  V30 1151 C 114.943 -3.35547 1.23057 0
M  V30 1152 C 114.609 -3.60448 2.70902 0
M  V30 1153 C 113.271 -3.66954 3.11285 0
M  V30 1154 C 115.623 -3.7071 3.66365 0
M  V30 1155 C 112.951 -3.81225 4.45965 0
M  V30 1156 C 115.303 -3.86503 5.00797 0
M  V30 1157 C 113.967 -3.91252 5.40813 0
M  V30 1158 H 113.237 -0.682937 0.287538 0
M  V30 1159 H 115.884 -1.37146 1.33654 0
M  V30 1160 H 114.189 -3.87193 0.59907 0
M  V30 1161 H 115.886 -3.88583 0.990163 0
M  V30 1162 H 112.476 -3.56021 2.38636 0
M  V30 1163 H 116.66 -3.64991 3.36296 0
M  V30 1164 H 111.916 -3.83155 4.76447 0
M  V30 1165 H 116.09 -3.93385 5.74649 0
M  V30 1166 H 113.717 -4.02062 6.45174 0
M  V30 1167 N 115.292 -0.849877 -1.32721 0
M  V30 1168 C 116.242 -0.262892 -2.26479 0
M  V30 1169 C 117.226 0.588493 -1.49752 0
M  V30 1170 O 118.418 0.438659 -1.71478 0
M  V30 1171 C 115.547 0.551818 -3.38836 0
M  V30 1172 C 114.633 -0.311689 -4.22953 0
M  V30 1173 N 115.024 -1.39567 -4.86163 0
M  V30 1174 C 113.322 -0.100611 -4.45887 0
M  V30 1175 C 114.023 -1.92651 -5.48872 0
M  V30 1176 N 112.999 -1.22637 -5.29586 0
M  V30 1177 H 116.801 -1.09166 -2.72873 0
M  V30 1178 H 114.315 -0.695486 -1.46754 0
M  V30 1179 H 116.312 0.988713 -4.05006 0
M  V30 1180 H 114.972 1.37844 -2.93988 0
M  V30 1181 H 115.983 -1.77859 -4.86402 0
M  V30 1182 H 112.66 0.691681 -4.11731 0
M  V30 1183 H 114.05 -2.83487 -6.09167 0
M  V30 1184 N 116.77 1.45427 -0.607355 0
M  V30 1185 C 117.703 2.27635 0.160482 0
M  V30 1186 C 118.681 1.37122 0.873857 0
M  V30 1187 O 119.865 1.66551 0.882775 0
M  V30 1188 C 116.992 3.15486 1.23231 0
M  V30 1189 C 116.038 4.21939 0.622097 0
M  V30 1190 S 116.871 5.32459 -0.569852 0
M  V30 1191 C 118.027 6.23879 0.502577 0
M  V30 1192 H 118.26 2.9241 -0.536983 0
M  V30 1193 H 115.793 1.49265 -0.394868 0
M  V30 1194 H 117.751 3.66659 1.84585 0
M  V30 1195 H 116.412 2.49977 1.90185 0
M  V30 1196 H 115.605 4.8333 1.42856 0
M  V30 1197 H 115.207 3.73906 0.0837063 0
M  V30 1198 H 117.499 6.63261 1.38171 0
M  V30 1199 H 118.442 7.0806 -0.0751759 0
M  V30 1200 H 118.85 5.58545 0.8178 0
M  V30 1201 N 118.248 0.346503 1.53744 0
M  V30 1202 C 119.195 -0.508914 2.25119 0
M  V30 1203 C 120.165 -1.09315 1.25058 0
M  V30 1204 O 121.35 -1.12921 1.53797 0
M  V30 1205 C 118.49 -1.65246 3.02965 0
M  V30 1206 C 117.603 -1.09525 4.17886 0
M  V30 1207 C 116.738 -2.20634 4.83212 0
M  V30 1208 C 115.777 -1.62279 5.90196 0
M  V30 1209 N 114.914 -2.67143 6.49291 0
M  V30 1210 H 119.754 0.106283 2.9781 0
M  V30 1211 H 117.291 0.0642227 1.4696 0
M  V30 1212 H 119.249 -2.32574 3.4636 0
M  V30 1213 H 117.879 -2.2386 2.32565 0
M  V30 1214 H 116.931 -0.312818 3.79112 0
M  V30 1215 H 118.243 -0.628444 4.94825 0
M  V30 1216 H 117.397 -2.95821 5.29693 0
M  V30 1217 H 116.136 -2.70659 4.05703 0
M  V30 1218 H 115.141 -0.855989 5.43096 0
M  V30 1219 H 116.366 -1.13102 6.69615 0
M  V30 1220 H 114.312 -3.16417 5.74645 0
M  V30 1221 H 114.229 -2.25093 7.21713 0
M  V30 1222 H 115.497 -3.4209 7.00425 0
M  V30 1223 N 119.726 -1.57421 0.075193 0
M  V30 1224 C 121.137 -1.81021 -0.456964 0
M  V30 1225 C 121.488 -0.98936 -1.69429 0
M  V30 1226 O 120.613 -0.212865 -2.15351 0
M  V30 1227 C 121.208 -3.28329 -0.83581 0
M  V30 1228 C 119.767 -3.52764 -1.31281 0
M  V30 1229 C 118.914 -2.75676 -0.299648 0
M  V30 1230 H 121.865 -1.55822 0.300856 0
M  V30 1231 H 121.886 -3.40564 -1.69696 0
M  V30 1232 H 121.398 -3.88046 0.0649238 0
M  V30 1233 H 119.499 -2.98355 -2.23193 0
M  V30 1234 H 119.612 -4.61451 -1.28839 0
M  V30 1235 H 117.976 -2.42538 -0.777641 0
M  V30 1236 H 118.759 -3.38132 0.593417 0
M  V30 1237 N 121.204 0.198386 -1.56346 0
M  V30 1238 C 122.45 0.916115 -1.81601 0
M  V30 1239 C 122.805 1.81025 -0.651744 0
M  V30 1240 O 122.098 1.88316 0.353229 0
M  V30 1241 C 122.292 1.77031 -3.10475 0
M  V30 1242 C 122.121 0.960365 -4.39326 0
M  V30 1243 C 120.891 0.646093 -5.01152 0
M  V30 1244 C 123.089 0.314628 -5.13337 0
M  V30 1245 N 121.071 -0.182828 -6.13628 0
M  V30 1246 C 122.442 -0.37664 -6.18855 0
M  V30 1247 C 124.497 0.230019 -4.97368 0
M  V30 1248 C 123.2 -1.14445 -7.10137 0
M  V30 1249 C 125.226 -0.524389 -5.89071 0
M  V30 1250 C 124.588 -1.20412 -6.94032 0
M  V30 1251 H 120.687 0.314732 -0.715868 0
M  V30 1252 H 123.271 0.185102 -1.93818 0
M  V30 1253 H 121.442 2.47295 -2.99499 0
M  V30 1254 H 123.174 2.42727 -3.2383 0
M  V30 1255 H 119.929 0.969724 -4.63566 0
M  V30 1256 H 120.353 -0.586802 -6.74452 0
M  V30 1257 H 124.995 0.741184 -4.16253 0
M  V30 1258 H 122.713 -1.66706 -7.90718 0
M  V30 1259 H 126.299 -0.591167 -5.78789 0
M  V30 1260 H 125.179 -1.77853 -7.63766 0
M  V30 1261 N 122.682 1.50554 0.465978 0
M  V30 1262 C 123.907 1.65838 1.24549 0
M  V30 1263 C 124.332 0.343486 1.84937 0
M  V30 1264 O 123.69 -0.69324 1.67523 0
M  V30 1265 C 123.738 2.75533 2.32624 0
M  V30 1266 O 122.842 2.37142 3.37398 0
M  V30 1267 H 122.183 0.553893 0.366194 0
M  V30 1268 H 124.713 1.96959 0.553927 0
M  V30 1269 H 124.723 2.98763 2.77857 0
M  V30 1270 H 123.398 3.70962 1.88043 0
M  V30 1271 H 121.975 2.24377 2.97841 0
M  V30 1272 N 124.16 -0.719506 1.40217 0
M  V30 1273 C 125.408 -1.47641 1.3801 0
M  V30 1274 C 125.729 -1.94992 -0.018145 0
M  V30 1275 O 124.999 -1.70073 -0.972207 0
M  V30 1276 H 123.579 -0.547744 0.507923 0
M  V30 1277 H 126.241 -0.853187 1.75233 0
M  V30 1278 H 125.337 -2.35112 2.05253 0
M  V30 1279 N 125.638 -1.25649 -0.95132 0
M  V30 1280 C 126.887 -1.09988 -1.69073 0
M  V30 1281 C 127.2 0.358355 -1.92289 0
M  V30 1282 O 128.406 0.635466 -2.63958 0
M  V30 1283 C 126.862 -1.92012 -3.044 0
M  V30 1284 C 126.47 -3.42347 -2.88968 0
M  V30 1285 C 128.214 -1.8493 -3.82101 0
M  V30 1286 C 126.121 -4.16655 -4.19705 0
M  V30 1287 H 125.051 -0.407993 -0.63408 0
M  V30 1288 H 127.702 -1.49873 -1.05879 0
M  V30 1289 H 126.084 -1.44952 -3.68517 0
M  V30 1290 H 127.258 -3.97104 -2.33762 0
M  V30 1291 H 125.573 -3.50557 -2.24719 0
M  V30 1292 H 128.17 -2.37739 -4.78941 0
M  V30 1293 H 128.513 -0.817883 -4.08187 0
M  V30 1294 H 129.046 -2.29758 -3.2474 0
M  V30 1295 H 125.785 -5.20224 -3.98807 0
M  V30 1296 H 125.305 -3.66681 -4.74663 0
M  V30 1297 H 126.984 -4.24551 -4.88227 0
M  V30 1298 N 127.117 1.15442 -1.07289 0
M  V30 1299 C 128.342 1.90638 -0.816828 0
M  V30 1300 C 128.767 1.77445 0.624083 0
M  V30 1301 O 128.125 1.10671 1.43602 0
M  V30 1302 C 128.173 3.39008 -1.22906 0
M  V30 1303 O 127.277 4.10701 -0.373975 0
M  V30 1304 H 126.618 0.593555 -0.297638 0
M  V30 1305 H 129.148 1.46198 -1.43134 0
M  V30 1306 H 129.158 3.89801 -1.20497 0
M  V30 1307 H 127.833 3.47929 -2.27856 0
M  V30 1308 H 126.41 3.70046 -0.460499 0
M  V30 1309 N 128.595 0.856903 1.32268 0
M  V30 1310 C 129.841 0.462069 1.97466 0
M  V30 1311 C 130.174 -0.980298 1.67642 0
M  V30 1312 O 129.449 -1.68824 0.965858 0
M  V30 1313 C 129.732 0.704336 3.53145 0
M  V30 1314 C 129.585 2.19529 3.9259 0
M  V30 1315 C 130.904 0.1622 4.39801 0
M  V30 1316 H 128.023 0.169357 0.717278 0
M  V30 1317 H 130.665 1.07574 1.56614 0
M  V30 1318 H 128.815 0.181999 3.88073 0
M  V30 1319 H 130.487 2.78387 3.67829 0
M  V30 1320 H 128.73 2.67292 3.41668 0
M  V30 1321 H 129.401 2.31549 5.01088 0
M  V30 1322 H 131.877 0.608905 4.11621 0
M  V30 1323 H 130.753 0.361265 5.4771 0
M  V30 1324 H 131.014 -0.935158 4.32096 0
M  V30 1325 N 130.073 -1.45103 0.615059 0
M  V30 1326 C 131.303 -2.06254 0.119596 0
M  V30 1327 C 131.711 -1.4591 -1.20445 0
M  V30 1328 O 131.054 -0.570384 -1.7462 0
M  V30 1329 C 131.116 -3.59396 -0.0865591 0
M  V30 1330 C 130.78 -4.42116 1.15683 0
M  V30 1331 C 131.777 -4.7662 2.07676 0
M  V30 1332 C 129.462 -4.82749 1.38775 0
M  V30 1333 C 131.456 -5.50622 3.21082 0
M  V30 1334 C 129.143 -5.56504 2.52481 0
M  V30 1335 C 130.141 -5.90358 3.43463 0
M  V30 1336 O 129.829 -6.62615 4.55189 0
M  V30 1337 H 129.561 -0.672423 0.0694512 0
M  V30 1338 H 132.115 -1.87219 0.844885 0
M  V30 1339 H 130.345 -3.76859 -0.866823 0
M  V30 1340 H 132.034 -4.02365 -0.534555 0
M  V30 1341 H 132.8 -4.4578 1.91063 0
M  V30 1342 H 128.679 -4.55829 0.688545 0
M  V30 1343 H 132.223 -5.76965 3.92119 0
M  V30 1344 H 128.12 -5.86759 2.69043 0
M  V30 1345 H 128.888 -6.81071 4.53966 0
M  V30 1346 N 131.551 -0.354651 -1.53558 0
M  V30 1347 C 132.484 0.540273 -2.21712 0
M  V30 1348 C 133.462 1.09161 -1.2051 0
M  V30 1349 O 134.646 1.14979 -1.49372 0
M  V30 1350 C 131.773 1.74435 -2.90328 0
M  V30 1351 C 130.819 1.32146 -4.05512 0
M  V30 1352 S 131.652 0.331924 -5.3447 0
M  V30 1353 C 132.808 1.54258 -6.06593 0
M  V30 1354 H 133.041 -0.0385776 -2.97275 0
M  V30 1355 H 130.574 -0.138736 -1.53775 0
M  V30 1356 H 132.532 2.43507 -3.30476 0
M  V30 1357 H 131.193 2.29444 -2.1451 0
M  V30 1358 H 130.386 2.21952 -4.52497 0
M  V30 1359 H 129.988 0.710091 -3.67197 0
M  V30 1360 H 132.28 2.47534 -6.30661 0
M  V30 1361 H 133.223 1.11431 -6.99277 0
M  V30 1362 H 133.631 1.74367 -5.36895 0
M  V30 1363 N 133.029 1.57378 -0.0835403 0
M  V30 1364 C 134.276 1.9393 0.58287 0
M  V30 1365 C 134.604 0.964455 1.68904 0
M  V30 1366 O 133.859 -0.0179474 1.95692 0
M  V30 1367 C 134.158 3.37063 1.1884 0
M  V30 1368 C 133.824 4.50424 0.207194 0
M  V30 1369 C 132.486 4.81159 -0.0627115 0
M  V30 1370 C 134.838 5.19136 -0.463426 0
M  V30 1371 C 132.166 5.77939 -1.01012 0
M  V30 1372 C 134.518 6.16931 -1.39924 0
M  V30 1373 C 133.182 6.46078 -1.67749 0
M  V30 1374 H 132.452 0.70964 0.213287 0
M  V30 1375 H 135.099 1.90856 -0.156916 0
M  V30 1376 H 133.404 3.3666 2.00418 0
M  V30 1377 H 135.101 3.6264 1.71153 0
M  V30 1378 H 131.691 4.2646 0.427747 0
M  V30 1379 H 135.875 4.95576 -0.268034 0
M  V30 1380 H 131.131 5.98842 -1.23283 0
M  V30 1381 H 135.305 6.69273 -1.92476 0
M  V30 1382 H 132.932 7.2088 -2.41321 0
M  V30 1383 N 134.507 -0.190092 1.56449 0
M  V30 1384 C 135.455 -1.25501 1.95837 0
M  V30 1385 C 136.449 -1.4685 0.844485 0
M  V30 1386 O 137.655 -1.47651 1.02952 0
M  V30 1387 H 134.03 -0.421447 0.622805 0
M  V30 1388 H 136.001 -0.895821 2.84636 0
M  V30 1389 C 134.75 -2.59124 2.31841 0
M  V30 1390 H 134.073 -2.43514 3.17082 0
M  V30 1391 H 135.513 -3.32371 2.6326 0
M  V30 1392 C 133.972 -3.16488 1.15486 0
M  V30 1393 O 134.502 -3.99365 0.432535 0
M  V30 1394 N 132.708 -2.75305 0.930349 0
M  V30 1395 H 132.255 -2.08013 1.51948 0
M  V30 1396 H 132.213 -3.14024 0.153634 0
M  V30 1397 N 135.985 -1.50799 -0.457987 0
M  V30 1398 C 136.915 -1.73553 -1.5621 0
M  V30 1399 C 137.896 -0.584774 -1.59732 0
M  V30 1400 O 139.081 -0.825314 -1.7579 0
M  V30 1401 C 136.211 -1.84169 -2.94447 0
M  V30 1402 C 135.165 -2.99461 -3.0579 0
M  V30 1403 C 134.491 -2.95235 -4.45803 0
M  V30 1404 C 135.791 -4.39766 -2.81786 0
M  V30 1405 H 137.485 -2.66 -1.37421 0
M  V30 1406 H 135.031 -1.28002 -0.659662 0
M  V30 1407 H 136.984 -1.98672 -3.71628 0
M  V30 1408 H 135.708 -0.883545 -3.14422 0
M  V30 1409 H 134.367 -2.8463 -2.31044 0
M  V30 1410 H 134.015 -1.97239 -4.62715 0
M  V30 1411 H 133.715 -3.72642 -4.54326 0
M  V30 1412 H 135.239 -3.11803 -5.24987 0
M  V30 1413 H 136.653 -4.55054 -3.4871 0
M  V30 1414 H 135.05 -5.18722 -3.0174 0
M  V30 1415 H 136.12 -4.51229 -1.7754 0
M  V30 1416 N 137.463 0.71206 -1.40597 0
M  V30 1417 C 138.426 1.80785 -1.40888 0
M  V30 1418 C 139.426 1.57937 -0.302103 0
M  V30 1419 O 140.616 1.64913 -0.561182 0
M  V30 1420 C 137.748 3.18927 -1.20409 0
M  V30 1421 H 138.941 1.81924 -2.38419 0
M  V30 1422 H 136.494 0.91805 -1.26497 0
M  V30 1423 H 137.229 3.23436 -0.236522 0
M  V30 1424 H 137.014 3.36911 -2.00582 0
M  V30 1425 H 138.504 3.98949 -1.23408 0
M  V30 1426 N 138.941 1.26152 0.944643 0
M  V30 1427 C 139.871 1.09902 2.06019 0
M  V30 1428 C 140.852 0.00519538 1.70099 0
M  V30 1429 O 142.037 0.176583 1.93396 0
M  V30 1430 C 139.167 0.727562 3.39594 0
M  V30 1431 C 138.121 1.77274 3.89561 0
M  V30 1432 C 137.447 1.25569 5.19747 0
M  V30 1433 C 138.747 3.17357 4.14827 0
M  V30 1434 H 140.441 2.03217 2.19871 0
M  V30 1435 H 137.987 0.978452 1.05652 0
M  V30 1436 H 139.94 0.600777 4.17095 0
M  V30 1437 H 138.664 -0.241287 3.25707 0
M  V30 1438 H 137.323 1.88814 3.14237 0
M  V30 1439 H 136.971 0.276783 5.02238 0
M  V30 1440 H 136.671 1.95433 5.54148 0
M  V30 1441 H 138.195 1.1415 5.99835 0
M  V30 1442 H 139.609 3.08914 4.82954 0
M  V30 1443 H 138.006 3.84781 4.60504 0
M  V30 1444 H 139.076 3.63673 3.20734 0
M  V30 1445 N 140.419 -1.14872 1.07899 0
M  V30 1446 C 141.382 -2.17986 0.708161 0
M  V30 1447 C 142.382 -1.58775 -0.25442 0
M  V30 1448 O 143.572 -1.74166 -0.034645 0
M  V30 1449 C 140.704 -3.40871 0.0446929 0
M  V30 1450 H 141.897 -2.52306 1.62116 0
M  V30 1451 H 139.45 -1.2943 0.876218 0
M  V30 1452 H 140.185 -3.12124 -0.880281 0
M  V30 1453 H 139.97 -3.8511 0.737091 0
M  V30 1454 H 141.46 -4.17121 -0.19991 0
M  V30 1455 N 141.898 -0.863906 -1.31812 0
M  V30 1456 C 143.175 -0.39275 -1.91616 0
M  V30 1457 C 143.555 1.12461 -1.7865 0
M  V30 1458 O 142.903 1.95045 -1.19037 0
M  V30 1459 C 143.113 -0.867385 -3.38049 0
M  V30 1460 C 144.461 -0.889966 -4.15168 0
M  V30 1461 O 145.485 -0.812635 -3.46806 0
M  V30 1462 O 144.344 -1.00079 -5.37258 0
M  V30 1463 H 141.438 -0.116358 -0.818773 0
M  V30 1464 H 143.984 -0.951418 -1.40521 0
M  V30 1465 H 142.756 -1.91081 -3.41473 0
M  V30 1466 H 142.379 -0.286687 -3.96565 0
M  V30 1467 N 143.376 1.44774 -0.622745 0
M  V30 1468 C 144.623 2.02121 -0.1239 0
M  V30 1469 C 144.951 1.48915 1.25118 0
M  V30 1470 O 144.206 0.660045 1.84233 0
M  V30 1471 C 144.505 3.57364 -0.0508323 0
M  V30 1472 C 144.171 4.29787 -1.36358 0
M  V30 1473 C 142.833 4.4929 -1.72314 0
M  V30 1474 C 145.185 4.71062 -2.23048 0
M  V30 1475 C 142.513 5.07325 -2.94682 0
M  V30 1476 C 144.865 5.30452 -3.44679 0
M  V30 1477 C 143.529 5.48175 -3.80868 0
M  V30 1478 H 142.799 0.739612 -0.0453381 0
M  V30 1479 H 145.446 1.73648 -0.807389 0
M  V30 1480 H 143.751 3.85202 0.715991 0
M  V30 1481 H 145.448 3.99456 0.351533 0
M  V30 1482 H 142.038 4.14932 -1.07375 0
M  V30 1483 H 146.222 4.55715 -1.96565 0
M  V30 1484 H 141.478 5.19235 -3.22809 0
M  V30 1485 H 145.652 5.61385 -4.12092 0
M  V30 1486 H 143.279 5.92912 -4.75773 0
M  V30 1487 N 144.854 0.36279 1.53368 0
M  V30 1488 C 145.784 -0.476976 2.28576 0
M  V30 1489 C 146.765 -1.08631 1.30894 0
M  V30 1490 O 147.95 -1.10409 1.59761 0
M  V30 1491 C 145.08 -1.61828 3.07293 0
M  V30 1492 C 144.034 -1.13633 4.1264 0
M  V30 1493 C 143.36 -2.36766 4.79423 0
M  V30 1494 C 144.66 -0.223061 5.21823 0
M  V30 1495 H 146.354 0.150474 2.99022 0
M  V30 1496 H 143.9 0.0738103 1.43811 0
M  V30 1497 H 145.853 -2.21237 3.58653 0
M  V30 1498 H 144.577 -2.27292 2.34533 0
M  V30 1499 H 143.236 -0.564945 3.62221 0
M  V30 1500 H 142.884 -3.0068 4.03238 0
M  V30 1501 H 142.584 -2.05192 5.50609 0
M  V30 1502 H 144.108 -2.96865 5.33576 0
M  V30 1503 H 145.522 -0.724545 5.68703 0
M  V30 1504 H 143.919 0.001678 6.001 0
M  V30 1505 H 144.989 0.735553 4.79289 0
M  V30 1506 N 146.332 -1.57332 0.0918853 0
M  V30 1507 C 147.562 -1.98286 -0.580205 0
M  V30 1508 C 147.97 -0.969713 -1.6246 0
M  V30 1509 O 147.313 0.0493501 -1.83634 0
M  V30 1510 C 147.375 -3.35603 -1.28882 0
M  V30 1511 C 147.039 -4.55285 -0.395559 0
M  V30 1512 C 148.036 -5.18687 0.355002 0
M  V30 1513 C 145.721 -5.01314 -0.314556 0
M  V30 1514 C 147.715 -6.26484 1.17458 0
M  V30 1515 C 145.402 -6.08979 0.508677 0
M  V30 1516 C 146.4 -6.71429 1.2519 0
M  V30 1517 O 146.088 -7.77018 2.06151 0
M  V30 1518 H 145.82 -0.656678 -0.160466 0
M  V30 1519 H 148.374 -2.04721 0.16688 0
M  V30 1520 H 146.604 -3.25842 -2.08241 0
M  V30 1521 H 148.293 -3.61026 -1.85512 0
M  V30 1522 H 149.059 -4.84058 0.302134 0
M  V30 1523 H 144.938 -4.5247 -0.882697 0
M  V30 1524 H 148.482 -6.75159 1.75518 0
M  V30 1525 H 144.379 -6.4304 0.563037 0
M  V30 1526 H 145.147 -7.93991 1.98799 0
M  V30 1527 N 147.81 0.181792 -1.56548 0
M  V30 1528 C 149.056 0.901431 -1.81665 0
M  V30 1529 C 149.389 1.82347 -0.668075 0
M  V30 1530 O 148.664 1.91669 0.330615 0
M  V30 1531 C 148.947 1.70618 -3.17115 0
M  V30 1532 C 148.8 0.807964 -4.42484 0
M  V30 1533 C 150.119 2.67605 -3.49393 0
M  V30 1534 H 147.238 0.32627 -0.660846 0
M  V30 1535 H 149.88 0.168134 -1.89255 0
M  V30 1536 H 148.03 2.33133 -3.10775 0
M  V30 1537 H 149.702 0.19649 -4.60881 0
M  V30 1538 H 147.945 0.115411 -4.33646 0
M  V30 1539 H 148.616 1.40632 -5.33785 0
M  V30 1540 H 151.092 2.15218 -3.56118 0
M  V30 1541 H 149.968 3.20985 -4.45264 0
M  V30 1542 H 150.229 3.47298 -2.73563 0
M  V30 1543 N 149.288 1.51039 0.449983 0
M  V30 1544 C 150.218 1.74379 1.55288 0
M  V30 1545 C 151.199 0.593236 1.5942 0
M  V30 1546 O 152.384 0.834625 1.7535 0
M  V30 1547 C 149.514 1.85728 2.93466 0
M  V30 1548 C 148.468 3.01078 3.04197 0
M  V30 1549 C 147.794 2.97595 4.44231 0
M  V30 1550 C 149.094 4.41254 2.7945 0
M  V30 1551 H 150.788 2.66725 1.36008 0
M  V30 1552 H 148.334 1.2835 0.652864 0
M  V30 1553 H 150.287 2.0064 3.70569 0
M  V30 1554 H 149.011 0.900207 3.13949 0
M  V30 1555 H 147.67 2.85851 2.29531 0
M  V30 1556 H 147.318 1.99691 4.61663 0
M  V30 1557 H 147.018 3.75046 4.52343 0
M  V30 1558 H 148.542 3.14583 5.23326 0
M  V30 1559 H 149.956 4.56897 3.46292 0
M  V30 1560 H 148.353 5.20315 2.98985 0
M  V30 1561 H 149.423 4.52164 1.75144 0
M  V30 1562 N 150.766 -0.704594 1.40972 0
M  V30 1563 C 151.994 -1.49354 1.43182 0
M  V30 1564 C 152.409 -1.88768 0.0345508 0
M  V30 1565 O 151.766 -1.56184 -0.944081 0
M  V30 1566 C 151.817 -2.76187 2.33244 0
M  V30 1567 O 151.538 -2.38436 3.67532 0
M  V30 1568 C 153.039 -3.7 2.44162 0
M  V30 1569 H 150.259 -0.460559 0.487982 0
M  V30 1570 H 152.803 -0.868261 1.85153 0
M  V30 1571 H 150.958 -3.34974 1.94606 0
M  V30 1572 H 151.372 -3.20126 4.15475 0
M  V30 1573 H 152.846 -4.55803 3.11364 0
M  V30 1574 H 153.323 -4.13867 1.47006 0
M  V30 1575 H 153.929 -3.17121 2.83398 0
M  V30 1576 N 152.244 -1.26651 -0.937939 0
M  V30 1577 C 153.174 -1.10993 -2.05433 0
M  V30 1578 C 154.155 -0.0142161 -1.70094 0
M  V30 1579 O 155.34 -0.186837 -1.93299 0
M  V30 1580 C 152.47 -0.745561 -3.39203 0
M  V30 1581 C 151.424 -1.79337 -3.88616 0
M  V30 1582 C 150.75 -1.28324 -5.19073 0
M  V30 1583 C 152.05 -3.19553 -4.13138 0
M  V30 1584 H 153.744 -2.0438 -2.1879 0
M  V30 1585 H 151.29 -0.984041 -1.05131 0
M  V30 1586 H 153.243 -0.622888 -4.16771 0
M  V30 1587 H 151.967 0.22401 -3.25831 0
M  V30 1588 H 150.626 -1.90477 -3.13231 0
M  V30 1589 H 150.274 -0.303414 -5.02084 0
M  V30 1590 H 149.974 -1.98369 -5.53103 0
M  V30 1591 H 151.498 -1.1733 -5.99221 0
M  V30 1592 H 152.912 -3.11471 -4.81309 0
M  V30 1593 H 151.309 -3.87218 -4.58457 0
M  V30 1594 H 152.379 -3.65368 -3.18801 0
M  V30 1595 N 153.722 1.14298 -1.08507 0
M  V30 1596 C 155.133 1.66926 -0.836227 0
M  V30 1597 C 155.484 1.85576 0.63686 0
M  V30 1598 O 154.609 1.56767 1.49175 0
M  V30 1599 C 155.204 3.03219 -1.51142 0
M  V30 1600 C 153.763 3.52876 -1.30979 0
M  V30 1601 C 152.91 2.2833 -1.57356 0
M  V30 1602 H 155.861 0.983491 -1.24552 0
M  V30 1603 H 155.882 3.68726 -0.939211 0
M  V30 1604 H 155.394 2.89612 -2.58353 0
M  V30 1605 H 153.495 3.71703 -0.258429 0
M  V30 1606 H 153.608 4.33586 -2.03814 0
M  V30 1607 H 151.972 2.34454 -0.995164 0
M  V30 1608 H 152.755 2.17298 -2.65775 0
M  V30 1609 N 155.201 0.870884 1.31352 0
M  V30 1610 C 156.164 0.332243 2.26779 0
M  V30 1611 C 157.164 -0.517302 1.52252 0
M  V30 1612 O 158.354 -0.326477 1.71113 0
M  V30 1613 C 155.486 -0.528066 3.36785 0
M  V30 1614 H 156.679 1.17469 2.75937 0
M  V30 1615 H 154.232 0.64655 1.423 0
M  V30 1616 H 154.967 -1.39167 2.92922 0
M  V30 1617 H 154.752 0.0802582 3.92018 0
M  V30 1618 H 156.242 -0.897179 4.07849 0
M  V30 1619 N 156.679 -1.44442 0.630414 0
M  V30 1620 C 157.609 -2.33418 -0.0618083 0
M  V30 1621 C 158.59 -1.48165 -0.835541 0
M  V30 1622 O 159.775 -1.76886 -0.801564 0
M  V30 1623 C 156.905 -3.31222 -1.04449 0
M  V30 1624 C 155.859 -4.26288 -0.382436 0
M  V30 1625 C 155.185 -5.13954 -1.47497 0
M  V30 1626 C 156.485 -5.1744 0.710865 0
M  V30 1627 H 158.179 -2.91548 0.681184 0
M  V30 1628 H 155.725 -1.40191 0.329026 0
M  V30 1629 H 157.678 -3.92351 -1.53748 0
M  V30 1630 H 156.402 -2.71299 -1.81836 0
M  V30 1631 H 155.061 -3.6649 0.0899054 0
M  V30 1632 H 154.709 -4.50385 -2.2397 0
M  V30 1633 H 154.409 -5.7837 -1.03737 0
M  V30 1634 H 155.933 -5.77955 -1.96979 0
M  V30 1635 H 157.347 -5.72509 0.300996 0
M  V30 1636 H 155.744 -5.90455 1.07156 0
M  V30 1637 H 156.814 -4.58496 1.57829 0
M  V30 1638 N 158.157 -0.370918 -1.53173 0
M  V30 1639 C 159.406 0.218249 -2.00516 0
M  V30 1640 C 159.719 1.49429 -1.26215 0
M  V30 1641 O 160.925 2.16239 -1.64174 0
M  V30 1642 C 159.381 0.43948 -3.57207 0
M  V30 1643 C 158.989 -0.822244 -4.4039 0
M  V30 1644 C 160.733 0.986012 -4.1289 0
M  V30 1645 C 158.64 -0.570304 -5.88644 0
M  V30 1646 H 157.57 0.0853333 -0.749156 0
M  V30 1647 H 160.221 -0.490483 -1.76823 0
M  V30 1648 H 158.603 1.20961 -3.77074 0
M  V30 1649 H 159.777 -1.59557 -4.32294 0
M  V30 1650 H 158.092 -1.29238 -3.95836 0
M  V30 1651 H 160.689 1.18991 -5.21292 0
M  V30 1652 H 161.032 1.94972 -3.6782 0
M  V30 1653 H 161.565 0.27592 -3.96842 0
M  V30 1654 H 158.304 -1.50449 -6.38001 0
M  V30 1655 H 157.824 0.164427 -5.99575 0
M  V30 1656 H 159.503 -0.19784 -6.46697 0
M  V30 1657 N 159.635 1.57281 -0.100228 0
M  V30 1658 C 160.882 1.94537 0.562268 0
M  V30 1659 C 161.21 0.982315 1.67871 0
M  V30 1660 O 160.465 0.00280936 1.957 0
M  V30 1661 C 160.764 3.38305 1.15259 0
M  V30 1662 C 160.43 4.50618 0.159409 0
M  V30 1663 C 159.092 4.81066 -0.113741 0
M  V30 1664 C 161.444 5.18615 -0.518461 0
M  V30 1665 C 158.772 5.76835 -1.07137 0
M  V30 1666 C 161.124 6.15412 -1.46459 0
M  V30 1667 C 159.788 6.44262 -1.74592 0
M  V30 1668 H 159.058 0.711863 0.205748 0
M  V30 1669 H 161.705 1.90679 -0.17715 0
M  V30 1670 H 160.01 3.38766 1.96836 0
M  V30 1671 H 161.707 3.64435 1.67297 0
M  V30 1672 H 158.297 4.2689 0.382491 0
M  V30 1673 H 162.481 4.95264 -0.320581 0
M  V30 1674 H 157.737 5.975 -1.29628 0
M  V30 1675 H 161.911 6.67194 -1.99564 0
M  V30 1676 H 159.538 7.1828 -2.48953 0
M  V30 1677 N 161.113 -0.173488 1.56642 0
M  V30 1678 C 162.343 -0.904781 1.85734 0
M  V30 1679 C 162.751 -1.76431 0.68328 0
M  V30 1680 O 162.094 -1.802 -0.356865 0
M  V30 1681 C 162.156 -1.83382 3.09211 0
M  V30 1682 C 161.82 -1.15411 4.42187 0
M  V30 1683 C 162.817 -0.520609 5.17287 0
M  V30 1684 C 160.502 -1.15151 4.88923 0
M  V30 1685 C 162.496 0.106412 6.37311 0
M  V30 1686 C 160.183 -0.520664 6.08878 0
M  V30 1687 C 161.181 0.107196 6.82916 0
M  V30 1688 O 160.869 0.728102 8.00596 0
M  V30 1689 H 160.601 -0.268408 0.62043 0
M  V30 1690 H 163.155 -0.179096 2.04618 0
M  V30 1691 H 161.385 -2.59976 2.86268 0
M  V30 1692 H 163.074 -2.43476 3.24768 0
M  V30 1693 H 163.84 -0.514606 4.82262 0
M  V30 1694 H 159.719 -1.62961 4.31236 0
M  V30 1695 H 163.263 0.597081 6.9504 0
M  V30 1696 H 159.16 -0.524242 6.43368 0
M  V30 1697 H 159.928 0.627138 8.16094 0
M  V30 1698 N 162.591 -1.51276 -0.441967 0
M  V30 1699 C 163.821 -1.67273 -1.21257 0
M  V30 1700 C 164.229 -0.367624 -1.85594 0
M  V30 1701 O 163.572 0.663349 -1.71305 0
M  V30 1702 C 163.634 -2.72807 -2.34129 0
M  V30 1703 C 163.298 -4.1554 -1.90198 0
M  V30 1704 C 164.295 -5.00471 -1.40801 0
M  V30 1705 C 161.98 -4.61616 -1.9803 0
M  V30 1706 C 163.974 -6.29536 -0.998174 0
M  V30 1707 C 161.661 -5.90679 -1.56658 0
M  V30 1708 C 162.659 -6.74466 -1.07633 0
M  V30 1709 O 162.347 -8.01116 -0.668459 0
M  V30 1710 H 162.079 -0.564614 -0.371734 0
M  V30 1711 H 164.633 -1.9843 -0.530521 0
M  V30 1712 H 162.863 -2.36954 -3.05597 0
M  V30 1713 H 164.552 -2.77729 -2.96009 0
M  V30 1714 H 165.318 -4.66079 -1.34148 0
M  V30 1715 H 161.197 -3.96526 -2.35135 0
M  V30 1716 H 164.741 -6.94885 -0.61482 0
M  V30 1717 H 160.638 -6.24586 -1.62979 0
M  V30 1718 H 161.406 -8.14633 -0.794722 0
M  V30 1719 N 164.069 0.697108 -1.41344 0
M  V30 1720 C 165.316 1.45714 -1.40619 0
M  V30 1721 C 165.644 1.94494 -0.0147907 0
M  V30 1722 O 164.899 1.69794 0.973066 0
M  V30 1723 C 165.198 2.68553 -2.35826 0
M  V30 1724 C 164.864 2.38438 -3.82698 0
M  V30 1725 C 163.526 2.29936 -4.22709 0
M  V30 1726 C 165.878 2.13567 -4.75435 0
M  V30 1727 C 163.206 1.94656 -5.53467 0
M  V30 1728 C 165.558 1.79797 -6.06511 0
M  V30 1729 C 164.222 1.69789 -6.45545 0
M  V30 1730 H 163.492 0.533206 -0.51456 0
M  V30 1731 H 166.139 0.796901 -1.74131 0
M  V30 1732 H 164.444 3.39503 -1.95563 0
M  V30 1733 H 166.141 3.2669 -2.32539 0
M  V30 1734 H 162.731 2.4595 -3.51008 0
M  V30 1735 H 166.915 2.19082 -4.45328 0
M  V30 1736 H 162.171 1.8546 -5.82593 0
M  V30 1737 H 166.345 1.59572 -6.77872 0
M  V30 1738 H 163.972 1.4222 -7.46778 0
M  V30 1739 N 165.547 1.27147 0.931209 0
M  V30 1740 C 166.495 1.09398 2.05268 0
M  V30 1741 C 167.489 0.0180591 1.6939 0
M  V30 1742 O 168.695 0.17551 1.79142 0
M  V30 1743 H 165.07 0.336986 0.672268 0
M  V30 1744 H 167.041 2.04416 2.17386 0
M  V30 1745 C 165.79 0.75424 3.39421 0
M  V30 1746 H 165.113 1.57404 3.67511 0
M  V30 1747 H 166.553 0.669903 4.18674 0
M  V30 1748 C 165.012 -0.541197 3.32525 0
M  V30 1749 O 165.542 -1.57664 3.69466 0
M  V30 1750 N 163.748 -0.535517 2.85623 0
M  V30 1751 H 163.295 0.307511 2.55758 0
M  V30 1752 H 163.253 -1.40236 2.81392 0
M  V30 1753 N 167.025 -1.13721 1.09112 0
M  V30 1754 C 167.972 -2.19031 0.727591 0
M  V30 1755 C 168.942 -1.63555 -0.289656 0
M  V30 1756 O 170.127 -1.90023 -0.172026 0
M  V30 1757 C 167.267 -3.4477 0.15082 0
M  V30 1758 C 166.38 -4.14365 1.22172 0
M  V30 1759 C 165.515 -5.27709 0.608042 0
M  V30 1760 C 164.554 -5.89147 1.66047 0
M  V30 1761 N 163.691 -6.93929 1.06806 0
M  V30 1762 H 168.531 -2.49475 1.62991 0
M  V30 1763 H 166.068 -1.22499 0.81439 0
M  V30 1764 H 168.026 -4.16714 -0.201358 0
M  V30 1765 H 166.656 -3.14787 -0.714783 0
M  V30 1766 H 165.708 -3.40737 1.69122 0
M  V30 1767 H 167.02 -4.56114 2.01895 0
M  V30 1768 H 166.174 -6.06355 0.204523 0
M  V30 1769 H 164.913 -4.872 -0.220769 0
M  V30 1770 H 163.918 -5.09198 2.07357 0
M  V30 1771 H 165.143 -6.31729 2.49189 0
M  V30 1772 H 163.089 -6.55483 0.260476 0
M  V30 1773 H 163.006 -7.34202 1.8023 0
M  V30 1774 H 164.274 -7.76434 0.690644 0
M  V30 1775 N 168.503 -0.877838 -1.30888 0
M  V30 1776 C 169.731 -0.507414 -2.00581 0
M  V30 1777 C 170.146 0.902216 -1.65848 0
M  V30 1778 O 169.503 1.59225 -0.891831 0
M  V30 1779 C 169.554 -0.664162 -3.55347 0
M  V30 1780 O 169.275 -2.01829 -3.8884 0
M  V30 1781 C 170.776 -0.295787 -4.42312 0
M  V30 1782 H 167.996 -0.196866 -0.641471 0
M  V30 1783 H 170.54 -1.18117 -1.66939 0
M  V30 1784 H 168.695 -0.0378619 -3.87381 0
M  V30 1785 H 169.109 -2.03174 -4.8355 0
M  V30 1786 H 170.583 -0.456388 -5.5011 0
M  V30 1787 H 171.06 0.765663 -4.32475 0
M  V30 1788 H 171.666 -0.898113 -4.15709 0
M  V30 1789 N 169.982 1.44106 -0.638065 0
M  V30 1790 C 171.259 1.95453 -0.0759321 0
M  V30 1791 C 171.639 1.57984 1.40015 0
M  V30 1792 O 170.987 0.857361 2.11806 0
M  V30 1793 C 171.197 3.47655 -0.306132 0
M  V30 1794 C 172.545 4.24114 -0.203008 0
M  V30 1795 O 173.569 3.55405 -0.237871 0
M  V30 1796 O 172.428 5.46381 -0.113827 0
M  V30 1797 H 169.522 0.826797 0.0183332 0
M  V30 1798 H 172.068 1.54122 -0.710251 0
M  V30 1799 H 170.84 3.68 -1.3301 0
M  V30 1800 H 170.463 3.95949 0.361991 0
M  V30 1801 N 171.46 0.379036 1.52974 0
M  V30 1802 C 172.706 -0.199244 2.02422 0
M  V30 1803 C 173.061 -1.4532 1.26095 0
M  V30 1804 O 172.354 -1.88377 0.34996 0
M  V30 1805 C 172.548 -0.53096 3.53434 0
M  V30 1806 C 172.377 0.689298 4.44386 0
M  V30 1807 C 171.147 1.20546 4.9071 0
M  V30 1808 C 173.345 1.55856 4.90116 0
M  V30 1809 N 171.327 2.38434 5.65705 0
M  V30 1810 C 172.698 2.58396 5.63588 0
M  V30 1811 C 174.753 1.57986 4.7217 0
M  V30 1812 C 173.456 3.62939 6.21022 0
M  V30 1813 C 175.482 2.6143 5.30479 0
M  V30 1814 C 174.844 3.62693 6.03849 0
M  V30 1815 H 170.943 -0.0352671 0.781204 0
M  V30 1816 H 173.527 0.526614 1.87443 0
M  V30 1817 H 171.698 -1.22588 3.68547 0
M  V30 1818 H 173.43 -1.0955 3.89591 0
M  V30 1819 H 170.185 0.768022 4.67331 0
M  V30 1820 H 170.609 2.98055 6.07859 0
M  V30 1821 H 175.251 0.810475 4.14959 0
M  V30 1822 H 172.969 4.40751 6.77321 0
M  V30 1823 H 176.555 2.63949 5.18481 0
M  V30 1824 H 175.435 4.41424 6.48163 0
M  V30 1825 N 172.938 -1.57226 0.108567 0
M  V30 1826 C 174.187 -1.94008 -0.551703 0
M  V30 1827 C 174.5 -0.993442 -1.68494 0
M  V30 1828 O 175.706 -1.25551 -2.40726 0
M  V30 1829 C 174.162 -3.44763 -1.03279 0
M  V30 1830 C 173.77 -4.47943 0.0714193 0
M  V30 1831 C 175.514 -3.90483 -1.66503 0
M  V30 1832 C 173.421 -5.89865 -0.425779 0
M  V30 1833 H 172.351 -0.724206 -0.209863 0
M  V30 1834 H 175.002 -1.82547 0.186741 0
M  V30 1835 H 173.384 -3.51422 -1.82533 0
M  V30 1836 H 174.558 -4.52942 0.847365 0
M  V30 1837 H 172.873 -4.11913 0.609669 0
M  V30 1838 H 175.47 -4.93925 -2.04798 0
M  V30 1839 H 175.813 -3.29877 -2.53942 0
M  V30 1840 H 176.346 -3.86581 -0.938074 0
M  V30 1841 H 173.085 -6.54202 0.412316 0
M  V30 1842 H 172.605 -5.88309 -1.16843 0
M  V30 1843 H 174.284 -6.40844 -0.890397 0
M  V30 1844 N 174.416 0.165178 -1.56732 0
M  V30 1845 C 175.663 0.880807 -1.8234 0
M  V30 1846 C 175.991 1.81977 -0.686621 0
M  V30 1847 O 175.246 1.92971 0.325697 0
M  V30 1848 C 175.545 1.70405 -3.1416 0
M  V30 1849 C 175.211 0.913475 -4.4155 0
M  V30 1850 C 173.873 0.695303 -4.7615 0
M  V30 1851 C 176.225 0.359349 -5.1996 0
M  V30 1852 C 173.553 -0.0879947 -5.86634 0
M  V30 1853 C 175.905 -0.410893 -6.31264 0
M  V30 1854 C 174.569 -0.639808 -6.64427 0
M  V30 1855 H 173.839 0.32231 -0.667231 0
M  V30 1856 H 176.486 0.145402 -1.90947 0
M  V30 1857 H 174.791 2.50903 -3.00923 0
M  V30 1858 H 176.488 2.26091 -3.31186 0
M  V30 1859 H 173.078 1.09357 -4.14414 0
M  V30 1860 H 177.262 0.515228 -4.93618 0
M  V30 1861 H 172.518 -0.27503 -6.10781 0
M  V30 1862 H 176.692 -0.847494 -6.91224 0
M  V30 1863 H 174.319 -1.24864 -7.49875 0
M  V30 1864 N 175.894 1.51508 0.433938 0
M  V30 1865 C 177.142 1.6402 1.18075 0
M  V30 1866 C 177.463 0.360328 1.91642 0
M  V30 1867 O 176.733 -0.623945 1.85698 0
M  V30 1868 H 175.313 0.6045 0.43885 0
M  V30 1869 H 177.975 1.88452 0.497178 0
M  V30 1870 H 177.071 2.46949 1.90847 0
M  V30 1871 N 177.372 -0.689602 1.41712 0
M  V30 1872 C 178.649 -1.44457 1.31877 0
M  V30 1873 C 179.029 -2.11039 -0.0508537 0
M  V30 1874 O 178.377 -2.02138 -1.06547 0
M  V30 1875 C 178.587 -2.45913 2.47645 0
M  V30 1876 C 179.935 -3.10991 2.89084 0
M  V30 1877 O 180.959 -2.56238 2.47428 0
M  V30 1878 O 179.818 -4.10174 3.61137 0
M  V30 1879 H 176.912 -0.64362 0.519309 0
M  V30 1880 H 179.458 -0.719576 1.53689 0
M  V30 1881 H 178.23 -1.95409 3.39015 0
M  V30 1882 H 177.853 -3.25913 2.27742 0
M  V30 1883 N 178.85 -1.27639 -0.924453 0
M  V30 1884 C 179.813 -1.10681 -2.00705 0
M  V30 1885 C 180.813 -0.0497823 -1.60723 0
M  V30 1886 O 182.003 -0.294654 -1.7169 0
M  V30 1887 C 179.135 -0.687164 -3.33902 0
M  V30 1888 H 180.328 -2.06817 -2.17179 0
M  V30 1889 H 177.881 -1.10473 -1.10569 0
M  V30 1890 H 178.616 0.275439 -3.23128 0
M  V30 1891 H 178.401 -1.45061 -3.6428 0
M  V30 1892 H 179.891 -0.590853 -4.13399 0
M  V30 1893 N 180.328 1.1314 -1.09713 0
M  V30 1894 C 181.261 2.17735 -0.683137 0
M  V30 1895 C 182.239 1.59582 0.311841 0
M  V30 1896 O 183.423 1.87298 0.212514 0
M  V30 1897 C 180.55 3.38699 -0.00684324 0
M  V30 1898 C 179.596 4.1546 -0.964102 0
M  V30 1899 S 180.429 4.74733 -2.47767 0
M  V30 1900 C 181.585 5.9904 -1.81387 0
M  V30 1901 H 181.818 2.52515 -1.56918 0
M  V30 1902 H 179.351 1.24484 -0.913404 0
M  V30 1903 H 181.309 4.08765 0.377044 0
M  V30 1904 H 179.97 3.02214 0.85589 0
M  V30 1905 H 179.163 5.02093 -0.43803 0
M  V30 1906 H 178.765 3.51066 -1.28953 0
M  V30 1907 H 181.057 6.67846 -1.13967 0
M  V30 1908 H 182 6.56261 -2.65947 0
M  V30 1909 H 182.408 5.4976 -1.28155 0
M  V30 1910 N 181.806 0.884767 1.30421 0
M  V30 1911 C 183.046 0.509806 1.9794 0
M  V30 1912 C 183.41 -0.923736 1.68319 0
M  V30 1913 O 184.611 -1.40481 2.29169 0
M  V30 1914 C 182.882 0.776732 3.48858 0
M  V30 1915 S 184.441 0.503843 4.35898 0
M  V30 1916 H 181.259 0.189699 0.685227 0
M  V30 1917 H 183.861 1.14399 1.58535 0
M  V30 1918 H 182.565 1.81857 3.67908 0
M  V30 1919 H 182.096 0.1301 3.93185 0
M  V30 1920 H 184.111 -0.657625 4.91823 0
M  V30 1921 N 183.284 -1.43765 0.645699 0
M  V30 1922 C 184.231 -2.30745 -0.0504648 0
M  V30 1923 C 185.201 -1.4432 -0.822241 0
M  V30 1924 O 186.386 -1.73202 -0.800358 0
M  V30 1925 C 183.526 -3.29802 -1.0161 0
M  V30 1926 C 182.639 -4.31326 -0.241219 0
M  V30 1927 C 181.774 -5.17469 -1.19998 0
M  V30 1928 C 180.813 -6.10691 -0.415094 0
M  V30 1929 N 179.95 -6.89483 -1.32506 0
M  V30 1930 H 184.79 -2.8973 0.697155 0
M  V30 1931 H 182.327 -1.42738 0.355563 0
M  V30 1932 H 184.285 -3.85734 -1.58949 0
M  V30 1933 H 182.915 -2.72483 -1.73069 0
M  V30 1934 H 181.967 -3.77749 0.448334 0
M  V30 1935 H 183.279 -4.9743 0.369437 0
M  V30 1936 H 182.433 -5.7799 -1.84424 0
M  V30 1937 H 181.172 -4.51473 -1.84455 0
M  V30 1938 H 180.177 -5.49265 0.242565 0
M  V30 1939 H 181.402 -6.78727 0.224966 0
M  V30 1940 H 179.348 -6.26142 -1.95657 0
M  V30 1941 H 179.265 -7.52081 -0.768783 0
M  V30 1942 H 180.533 -7.54516 -1.9577 0
M  V30 1943 N 184.763 -0.387143 -1.52771 0
M  V30 1944 C 185.693 0.440551 -2.29306 0
M  V30 1945 C 186.674 1.06535 -1.32606 0
M  V30 1946 O 187.859 1.07853 -1.61497 0
M  V30 1947 C 184.989 1.56919 -3.09829 0
M  V30 1948 C 183.943 1.07054 -4.14395 0
M  V30 1949 C 183.269 2.29109 -4.83129 0
M  V30 1950 C 184.569 0.140015 -5.22112 0
M  V30 1951 H 186.263 -0.198026 -2.98744 0
M  V30 1952 H 183.809 -0.09668 -1.43675 0
M  V30 1953 H 185.762 2.15503 -3.62128 0
M  V30 1954 H 184.486 2.23532 -2.3812 0
M  V30 1955 H 183.145 0.507247 -3.63074 0
M  V30 1956 H 182.793 2.94227 -4.0797 0
M  V30 1957 H 182.493 1.96406 -5.53804 0
M  V30 1958 H 184.017 2.88339 -5.38231 0
M  V30 1959 H 185.431 0.633978 -5.69784 0
M  V30 1960 H 183.828 -0.0971485 -6.00021 0
M  V30 1961 H 184.898 -0.811711 -4.78058 0
M  V30 1962 N 186.241 1.57166 -0.116904 0
M  V30 1963 C 187.173 2.12271 0.864507 0
M  V30 1964 C 188.186 1.06494 1.23138 0
M  V30 1965 O 189.375 1.33873 1.18069 0
M  V30 1966 C 186.475 2.60564 2.16702 0
M  V30 1967 C 185.648 3.90416 1.97216 0
M  V30 1968 C 184.707 4.24329 3.11178 0
M  V30 1969 O 183.733 4.93182 2.84184 0
M  V30 1970 N 184.935 3.8148 4.37554 0
M  V30 1971 H 187.7 2.97102 0.393726 0
M  V30 1972 H 185.261 1.61759 0.0675805 0
M  V30 1973 H 187.253 2.80282 2.91932 0
M  V30 1974 H 185.823 1.80623 2.55135 0
M  V30 1975 H 185.043 3.79627 1.06192 0
M  V30 1976 H 186.331 4.75327 1.81499 0
M  V30 1977 H 185.729 3.25943 4.62361 0
M  V30 1978 H 184.286 4.06311 5.09661 0
M  V30 1979 N 187.719 -0.156864 1.56817 0
M  V30 1980 C 189.135 -0.50916 1.5126 0
M  V30 1981 C 189.335 -1.83897 0.823658 0
M  V30 1982 O 188.391 -2.49469 0.390055 0
M  V30 1983 C 189.704 -0.52857 2.96018 0
M  V30 1984 C 191.252 -0.614771 3.06903 0
M  V30 1985 C 191.727 -0.664938 4.53147 0
M  V30 1986 N 193.218 -0.727433 4.57452 0
M  V30 1987 C 193.953 -0.787067 5.67973 0
M  V30 1988 N 193.449 -0.806649 6.88088 0
M  V30 1989 N 195.242 -0.827195 5.5598 0
M  V30 1990 H 187.393 0.714935 2.00006 0
M  V30 1991 H 189.656 0.259526 0.911784 0
M  V30 1992 H 189.362 0.380154 3.49639 0
M  V30 1993 H 189.236 -1.36998 3.51442 0
M  V30 1994 H 191.623 -1.51392 2.53307 0
M  V30 1995 H 191.704 0.253597 2.5454 0
M  V30 1996 H 191.348 0.230011 5.07379 0
M  V30 1997 H 191.278 -1.54966 5.03282 0
M  V30 1998 H 193.769 -0.719998 3.70978 0
M  V30 1999 H 194.082 -0.853727 7.6807 0
M  V30 2000 H 192.427 -0.774687 6.90669 0
M  V30 2001 H 195.618 -0.808998 4.61056 0
M  V30 2002 H 195.791 -0.870206 6.4213 0
M  V30 2003 N 189.197 -1.51736 -0.425897 0
M  V30 2004 C 190.444 -1.6497 -1.17436 0
M  V30 2005 C 190.772 -0.371445 -1.9092 0
M  V30 2006 O 190.027 0.644963 -1.84767 0
M  V30 2007 C 190.326 -2.81103 -2.20717 0
M  V30 2008 C 189.992 -4.19954 -1.64162 0
M  V30 2009 C 188.654 -4.57725 -1.48462 0
M  V30 2010 C 191.006 -5.06552 -1.22696 0
M  V30 2011 C 188.334 -5.79789 -0.897873 0
M  V30 2012 C 190.686 -6.29205 -0.654464 0
M  V30 2013 C 189.35 -6.6574 -0.484456 0
M  V30 2014 H 188.62 -0.603668 -0.429727 0
M  V30 2015 H 191.267 -1.85798 -0.463829 0
M  V30 2016 H 189.572 -2.54542 -2.97852 0
M  V30 2017 H 191.269 -2.8854 -2.78471 0
M  V30 2018 H 187.859 -3.90181 -1.77361 0
M  V30 2019 H 192.043 -4.77968 -1.33642 0
M  V30 2020 H 187.299 -6.06733 -0.75402 0
M  V30 2021 H 191.473 -6.95643 -0.324694 0
M  V30 2022 H 189.1 -7.60195 -0.0276833 0
M  V30 2023 N 190.675 0.682077 -1.42076 0
M  V30 2024 C 191.924 1.43786 -1.41451 0
M  V30 2025 C 192.237 1.95574 -0.0317074 0
M  V30 2026 O 193.443 2.71326 0.0971462 0
M  V30 2027 C 191.899 2.60071 -2.48779 0
M  V30 2028 C 191.507 2.15013 -3.93031 0
M  V30 2029 C 193.251 3.37626 -2.57311 0
M  V30 2030 C 191.158 3.28336 -4.91883 0
M  V30 2031 H 190.088 0.540143 -0.526082 0
M  V30 2032 H 192.739 0.739157 -1.67955 0
M  V30 2033 H 191.121 3.32275 -2.15429 0
M  V30 2034 H 192.295 1.5001 -4.35699 0
M  V30 2035 H 190.61 1.50416 -3.88284 0
M  V30 2036 H 193.207 4.22012 -3.28345 0
M  V30 2037 H 193.55 3.83727 -1.61429 0
M  V30 2038 H 194.083 2.72488 -2.89819 0
M  V30 2039 H 190.822 2.87234 -5.89217 0
M  V30 2040 H 190.342 3.92145 -4.53853 0
M  V30 2041 H 192.021 3.93913 -5.13265 0
M  V30 2042 N 192.153 1.28127 0.917671 0
M  V30 2043 C 193.4 1.15052 1.66641 0
M  V30 2044 C 193.728 -0.301677 1.92146 0
M  V30 2045 O 192.983 -1.23622 1.51711 0
M  V30 2046 C 193.282 1.89018 3.03327 0
M  V30 2047 C 192.948 3.38832 2.97496 0
M  V30 2048 C 191.61 3.79693 2.95613 0
M  V30 2049 C 193.962 4.34378 2.88036 0
M  V30 2050 C 191.29 5.14447 2.82066 0
M  V30 2051 C 193.642 5.69201 2.7603 0
M  V30 2052 C 192.306 6.09343 2.72502 0
M  V30 2053 H 191.576 0.421006 0.609783 0
M  V30 2054 H 194.223 1.58855 1.06945 0
M  V30 2055 H 192.528 1.37752 3.66785 0
M  V30 2056 H 194.225 1.76321 3.60156 0
M  V30 2057 H 190.815 3.06342 2.99754 0
M  V30 2058 H 194.999 4.03775 2.88581 0
M  V30 2059 H 190.255 5.44681 2.77728 0
M  V30 2060 H 194.429 6.42901 2.67678 0
M  V30 2061 H 192.056 7.13712 2.61762 0
M  V30 2062 N 193.631 -1.12557 1.10312 0
M  V30 2063 C 194.581 -2.16331 0.720076 0
M  V30 2064 C 195.565 -1.58616 -0.270115 0
M  V30 2065 O 196.757 -1.76823 -0.0790507 0
M  V30 2066 C 193.886 -3.42963 0.152113 0
M  V30 2067 C 192.972 -4.07663 1.16927 0
M  V30 2068 N 193.363 -4.47392 2.35953 0
M  V30 2069 C 191.661 -4.34425 1.0095 0
M  V30 2070 C 192.362 -4.97932 3.0073 0
M  V30 2071 N 191.338 -4.93358 2.28252 0
M  V30 2072 H 195.14 -2.44813 1.62616 0
M  V30 2073 H 192.654 -1.29449 0.980654 0
M  V30 2074 H 194.651 -4.16664 -0.14037 0
M  V30 2075 H 193.311 -3.1595 -0.748701 0
M  V30 2076 H 194.322 -4.39802 2.73486 0
M  V30 2077 H 190.999 -4.17177 0.164134 0
M  V30 2078 H 192.389 -5.38397 4.01969 0
M  V30 2079 N 195.109 -0.891671 -1.2995 0
M  V30 2080 C 196.355 -0.514261 -1.96171 0
M  V30 2081 C 196.688 0.935506 -1.70182 0
M  V30 2082 O 195.963 1.66204 -1.01028 0
M  V30 2083 C 196.246 -0.797719 -3.51153 0
M  V30 2084 C 196.099 -2.2986 -3.86632 0
M  V30 2085 C 197.418 -0.278749 -4.39216 0
M  V30 2086 H 194.537 -0.188314 -0.712535 0
M  V30 2087 H 197.179 -1.11689 -1.53706 0
M  V30 2088 H 195.329 -0.284826 -3.87455 0
M  V30 2089 H 197.001 -2.88042 -3.60319 0
M  V30 2090 H 195.244 -2.76257 -3.34462 0
M  V30 2091 H 195.915 -2.44753 -4.94773 0
M  V30 2092 H 198.391 -0.717825 -4.09862 0
M  V30 2093 H 197.267 -0.506353 -5.46559 0
M  V30 2094 H 197.528 0.820266 -4.34424 0
M  V30 2095 N 196.587 1.43421 -0.653314 0
M  V30 2096 C 197.535 2.32546 0.0501531 0
M  V30 2097 C 198.529 1.48617 0.812985 0
M  V30 2098 O 199.735 1.64825 0.723375 0
M  V30 2099 H 196.11 0.751185 0.0350032 0
M  V30 2100 H 198.081 2.89602 -0.719261 0
M  V30 2101 C 196.83 3.32925 1.00279 0
M  V30 2102 H 196.153 3.97532 0.425236 0
M  V30 2103 H 197.593 3.9792 1.46409 0
M  V30 2104 C 196.052 2.63532 2.09886 0
M  V30 2105 O 196.582 2.45092 3.18265 0
M  V30 2106 N 194.788 2.22905 1.86445 0
M  V30 2107 H 194.335 2.38103 0.98309 0
M  V30 2108 H 194.293 1.76805 2.59976 0
M  V30 2109 N 198.065 0.39524 1.52563 0
M  V30 2110 C 198.995 -0.428384 2.29537 0
M  V30 2111 C 199.976 -1.05831 1.33169 0
M  V30 2112 O 201.161 -1.06995 1.62067 0
M  V30 2113 C 198.291 -1.55274 3.10656 0
M  V30 2114 C 197.245 -1.04855 4.14957 0
M  V30 2115 C 196.571 -2.26543 4.84337 0
M  V30 2116 C 197.871 -0.112324 5.22179 0
M  V30 2117 H 199.565 0.213867 2.98635 0
M  V30 2118 H 197.111 0.104298 1.43622 0
M  V30 2119 H 199.064 -2.1358 3.63265 0
M  V30 2120 H 197.788 -2.22266 2.39302 0
M  V30 2121 H 196.447 -0.487985 3.63338 0
M  V30 2122 H 196.095 -2.92059 4.09525 0
M  V30 2123 H 195.795 -1.93466 5.54837 0
M  V30 2124 H 197.319 -2.85481 5.39753 0
M  V30 2125 H 198.733 -0.603752 5.70112 0
M  V30 2126 H 197.13 0.128968 5.99961 0
M  V30 2127 H 198.2 0.837052 4.77621 0
M  V30 2128 N 199.544 -1.57102 0.125237 0
M  V30 2129 C 200.774 -1.99472 -0.538015 0
M  V30 2130 C 201.182 -1.00395 -1.60366 0
M  V30 2131 O 200.525 0.0103875 -1.83697 0
M  V30 2132 C 200.587 -3.38262 -1.21734 0
M  V30 2133 C 200.251 -4.56021 -0.298897 0
M  V30 2134 C 201.248 -5.17817 0.464943 0
M  V30 2135 C 198.933 -5.01869 -0.208149 0
M  V30 2136 C 200.927 -6.23852 1.3072 0
M  V30 2137 C 198.614 -6.07763 0.637736 0
M  V30 2138 C 199.612 -6.68622 1.39403 0
M  V30 2139 O 199.3 -7.7247 2.22586 0
M  V30 2140 H 199.032 -0.659934 -0.146501 0
M  V30 2141 H 201.586 -2.04321 0.210267 0
M  V30 2142 H 199.816 -3.30185 -2.01282 0
M  V30 2143 H 201.505 -3.6488 -1.77813 0
M  V30 2144 H 202.271 -4.83308 0.404741 0
M  V30 2145 H 198.15 -4.54241 -0.786522 0
M  V30 2146 H 201.694 -6.71284 1.898 0
M  V30 2147 H 197.591 -6.41701 0.699309 0
M  V30 2148 H 198.359 -7.89595 2.15596 0
M  V30 2149 N 201.022 0.148545 -1.56898 0
M  V30 2150 C 202.27 0.859717 -1.82902 0
M  V30 2151 C 202.591 1.81775 -0.70588 0
M  V30 2152 O 201.861 1.93994 0.272586 0
M  V30 2153 H 200.441 0.320469 -0.674766 0
M  V30 2154 H 203.103 0.142918 -1.94375 0
M  V30 2155 H 202.199 1.4229 -2.77777 0
M  V30 2156 N 202.5 1.5196 0.417844 0
M  V30 2157 C 203.725 1.69717 1.1921 0
M  V30 2158 C 204.15 0.402148 1.83751 0
M  V30 2159 O 203.508 -0.639593 1.69643 0
M  V30 2160 C 203.556 2.82794 2.2374 0
M  V30 2161 O 202.66 2.47756 3.29683 0
M  V30 2162 H 202.001 0.565263 0.348387 0
M  V30 2163 H 204.531 1.98621 0.490985 0
M  V30 2164 H 204.541 3.07452 2.68212 0
M  V30 2165 H 203.216 3.76756 1.76146 0
M  V30 2166 H 201.793 2.33739 2.90552 0
M  V30 2167 N 203.978 -0.674533 1.42435 0
M  V30 2168 C 205.227 -1.43034 1.42212 0
M  V30 2169 C 205.54 -1.95555 0.0420788 0
M  V30 2170 O 206.746 -2.71374 -0.0827558 0
M  V30 2171 C 205.202 -2.58748 2.50155 0
M  V30 2172 C 204.81 -2.12925 3.94166 0
M  V30 2173 C 206.554 -3.36257 2.59098 0
M  V30 2174 C 204.461 -3.25723 4.93618 0
M  V30 2175 H 203.391 -0.537345 0.528939 0
M  V30 2176 H 206.042 -0.73024 1.68344 0
M  V30 2177 H 204.424 -3.31128 2.17188 0
M  V30 2178 H 205.598 -1.47697 4.36488 0
M  V30 2179 H 203.913 -1.48354 3.89076 0
M  V30 2180 H 206.51 -4.20264 3.30578 0
M  V30 2181 H 206.853 -3.82866 1.63461 0
M  V30 2182 H 207.386 -2.70947 2.9126 0
M  V30 2183 H 204.125 -2.84105 5.90732 0
M  V30 2184 H 203.645 -3.89732 4.55926 0
M  V30 2185 H 205.324 -3.91186 5.15347 0
M  V30 2186 N 205.456 -1.28612 -0.910864 0
M  V30 2187 C 206.386 -1.15326 -2.03032 0
M  V30 2188 C 207.367 -0.0502924 -1.70026 0
M  V30 2189 O 208.552 -0.227797 -1.92859 0
M  V30 2190 C 205.682 -0.817343 -3.37545 0
M  V30 2191 C 204.636 -1.8754 -3.84724 0
M  V30 2192 C 203.962 -1.39305 -5.16235 0
M  V30 2193 C 205.262 -3.28244 -4.06267 0
M  V30 2194 H 206.956 -2.08975 -2.14406 0
M  V30 2195 H 204.502 -1.00612 -1.03021 0
M  V30 2196 H 206.455 -0.711151 -4.15356 0
M  V30 2197 H 205.179 0.154846 -3.26233 0
M  V30 2198 H 203.838 -1.97079 -3.09121 0
M  V30 2199 H 203.486 -0.409846 -5.01328 0
M  V30 2200 H 203.186 -2.10057 -5.48771 0
M  V30 2201 H 204.71 -1.30014 -5.96598 0
M  V30 2202 H 206.124 -3.21611 -4.74594 0
M  V30 2203 H 204.521 -3.96855 -4.5014 0
M  V30 2204 H 205.591 -3.72048 -3.10979 0
M  V30 2205 N 206.934 1.1197 -1.10907 0
M  V30 2206 C 208.181 1.83588 -0.854507 0
M  V30 2207 C 208.509 1.84357 0.6199 0
M  V30 2208 O 207.764 1.28809 1.47332 0
M  V30 2209 C 208.063 3.30749 -1.35425 0
M  V30 2210 C 207.729 3.50146 -2.84093 0
M  V30 2211 C 206.391 3.55148 -3.2469 0
M  V30 2212 C 208.743 3.56857 -3.79872 0
M  V30 2213 C 206.071 3.6441 -4.59806 0
M  V30 2214 C 208.423 3.6765 -5.14797 0
M  V30 2215 C 207.087 3.7091 -5.54961 0
M  V30 2216 H 206.357 0.671795 -0.312686 0
M  V30 2217 H 209.004 1.32091 -1.38652 0
M  V30 2218 H 207.309 3.84703 -0.742361 0
M  V30 2219 H 209.006 3.8464 -1.1337 0
M  V30 2220 H 205.596 3.46919 -2.51685 0
M  V30 2221 H 209.78 3.52258 -3.49611 0
M  V30 2222 H 205.036 3.65208 -4.9034 0
M  V30 2223 H 209.21 3.71786 -5.88853 0
M  V30 2224 H 206.837 3.7784 -6.59652 0
M  V30 2225 N 208.412 0.89855 1.29475 0
M  V30 2226 C 209.342 0.39201 2.30186 0
M  V30 2227 C 210.323 -0.532359 1.61555 0
M  V30 2228 O 211.508 -0.443331 1.89072 0
M  V30 2229 C 208.638 -0.382353 3.45189 0
M  V30 2230 C 207.592 0.451483 4.25612 0
M  V30 2231 C 206.918 -0.450307 5.328 0
M  V30 2232 C 208.218 1.70079 4.93832 0
M  V30 2233 H 209.912 1.23362 2.72804 0
M  V30 2234 H 207.458 0.594638 1.31149 0
M  V30 2235 H 209.411 -0.747451 4.14718 0
M  V30 2236 H 208.135 -1.25774 3.01411 0
M  V30 2237 H 206.794 0.798897 3.57789 0
M  V30 2238 H 206.442 -1.32379 4.85268 0
M  V30 2239 H 206.142 0.103902 5.87508 0
M  V30 2240 H 207.666 -0.811623 6.05182 0
M  V30 2241 H 209.08 1.40549 5.55805 0
M  V30 2242 H 207.477 2.19623 5.58467 0
M  V30 2243 H 208.547 2.43744 4.19186 0
M  V30 2244 N 209.89 -1.43072 0.660911 0
M  V30 2245 C 211.118 -2.06067 0.185422 0
M  V30 2246 C 211.533 -1.49582 -1.15198 0
M  V30 2247 O 210.89 -0.630134 -1.71276 0
M  V30 2248 C 210.941 -3.61371 0.0966523 0
M  V30 2249 O 210.662 -4.15758 1.38119 0
M  V30 2250 C 212.163 -4.41455 -0.403996 0
M  V30 2251 H 209.383 -0.664459 0.0934604 0
M  V30 2252 H 211.927 -1.83447 0.90373 0
M  V30 2253 H 210.082 -3.8315 -0.572259 0
M  V30 2254 H 210.496 -5.09499 1.24542 0
M  V30 2255 H 211.97 -5.50437 -0.415045 0
M  V30 2256 H 212.447 -4.15036 -1.43674 0
M  V30 2257 H 213.053 -4.24663 0.232691 0
M  V30 2258 N 211.368 -0.403325 -1.52352 0
M  V30 2259 C 212.608 0.173946 -2.03659 0
M  V30 2260 C 212.972 1.42869 -1.28267 0
M  V30 2261 O 214.173 2.08403 -1.69769 0
M  V30 2262 C 212.444 0.421478 -3.54906 0
M  V30 2263 S 214.003 0.967027 -4.28012 0
M  V30 2264 H 210.821 0.0477461 -0.709395 0
M  V30 2265 H 213.423 -0.554906 -1.87459 0
M  V30 2266 H 212.127 -0.498616 -4.0736 0
M  V30 2267 H 211.658 1.17837 -3.75337 0
M  V30 2268 H 213.673 2.24812 -4.4235 0
M  V30 2269 N 212.846 1.57033 -0.133567 0
M  V30 2270 C 214.095 1.94861 0.520768 0
M  V30 2271 C 214.408 1.02012 1.66892 0
M  V30 2272 O 215.614 1.29365 2.38699 0
M  V30 2273 C 214.07 3.46362 0.977809 0
M  V30 2274 C 213.678 4.47773 -0.142674 0
M  V30 2275 C 215.422 3.93083 1.60269 0
M  V30 2276 C 213.329 5.90468 0.331883 0
M  V30 2277 H 212.259 0.727453 0.198315 0
M  V30 2278 H 214.91 1.82227 -0.215759 0
M  V30 2279 H 213.292 3.54282 1.7692 0
M  V30 2280 H 214.466 4.51536 -0.919317 0
M  V30 2281 H 212.781 4.10891 -0.675124 0
M  V30 2282 H 215.378 4.97121 1.96914 0
M  V30 2283 H 215.721 3.33876 2.48662 0
M  V30 2284 H 216.254 3.88025 0.876453 0
M  V30 2285 H 212.993 6.53463 -0.516341 0
M  V30 2286 H 212.513 5.90094 1.07469 0
M  V30 2287 H 214.192 6.42179 0.788332 0
M  V30 2288 N 214.325 -0.140222 1.56975 0
M  V30 2289 C 215.55 -0.870414 1.88251 0
M  V30 2290 C 215.975 -1.73637 0.723312 0
M  V30 2291 O 215.333 -1.78329 -0.32689 0
M  V30 2292 C 215.381 -1.69737 3.18154 0
M  V30 2293 O 214.485 -2.80229 3.02565 0
M  V30 2294 H 213.826 -0.242025 0.61832 0
M  V30 2295 H 216.356 -0.128999 2.04193 0
M  V30 2296 H 216.366 -2.09099 3.50345 0
M  V30 2297 H 215.041 -1.06152 4.02125 0
M  V30 2298 H 213.618 -2.44224 2.81796 0
M  V30 2299 N 215.803 -1.52179 -0.40978 0
M  V30 2300 C 216.766 -1.74853 -1.48186 0
M  V30 2301 C 217.766 -0.618417 -1.48433 0
M  V30 2302 O 218.956 -0.886286 -1.49969 0
M  V30 2303 C 216.088 -1.8303 -2.87598 0
M  V30 2304 H 217.281 -2.70559 -1.29374 0
M  V30 2305 H 214.834 -1.42586 -0.640233 0
M  V30 2306 H 215.569 -0.89236 -3.11781 0
M  V30 2307 H 215.354 -2.65187 -2.88822 0
M  V30 2308 H 216.844 -2.02316 -3.65319 0
M  V30 2309 N 217.281 0.66697 -1.42791 0
M  V30 2310 C 218.231 1.77313 -1.43332 0
M  V30 2311 C 219.215 1.5801 -0.303586 0
M  V30 2312 O 220.407 1.68356 -0.546385 0
M  V30 2313 C 217.536 3.15822 -1.34578 0
M  V30 2314 C 216.622 3.40721 -2.52528 0
M  V30 2315 N 217.013 3.36162 -3.77927 0
M  V30 2316 C 215.311 3.71387 -2.46956 0
M  V30 2317 C 216.012 3.60762 -4.56318 0
M  V30 2318 N 214.988 3.81908 -3.86843 0
M  V30 2319 H 218.79 1.72193 -2.38174 0
M  V30 2320 H 216.304 0.868114 -1.3725 0
M  V30 2321 H 218.301 3.951 -1.33048 0
M  V30 2322 H 216.961 3.22133 -0.407453 0
M  V30 2323 H 217.972 3.15885 -4.10411 0
M  V30 2324 H 214.649 3.84897 -1.61743 0
M  V30 2325 H 216.039 3.63132 -5.65318 0
M  V30 2326 N 218.759 1.29093 0.90403 0
M  V30 2327 C 220.175 1.07011 1.1841 0
M  V30 2328 C 220.375 -0.181358 2.00682 0
M  V30 2329 O 219.431 -0.880331 2.36657 0
M  V30 2330 C 220.744 2.32311 1.90924 0
M  V30 2331 C 222.292 2.37587 2.03768 0
M  V30 2332 C 222.767 3.62679 2.79693 0
M  V30 2333 N 224.258 3.63376 2.87249 0
M  V30 2334 C 224.993 4.56848 3.46522 0
M  V30 2335 N 224.489 5.60648 4.06996 0
M  V30 2336 N 226.282 4.44426 3.44154 0
M  V30 2337 H 218.433 2.09412 0.354993 0
M  V30 2338 H 220.696 0.922181 0.219742 0
M  V30 2339 H 220.402 3.23536 1.37905 0
M  V30 2340 H 220.276 2.39483 2.91424 0
M  V30 2341 H 222.663 1.46853 2.55965 0
M  V30 2342 H 222.744 2.34403 1.02415 0
M  V30 2343 H 222.388 4.53762 2.28173 0
M  V30 2344 H 222.318 3.63119 3.81381 0
M  V30 2345 H 224.809 2.88321 2.44293 0
M  V30 2346 H 225.122 6.28101 4.50232 0
M  V30 2347 H 223.467 5.64463 4.05471 0
M  V30 2348 H 226.658 3.62529 2.96126 0
M  V30 2349 H 226.831 5.17457 3.90054 0
M  V30 2350 N 220.237 -1.11381 1.11499 0
M  V30 2351 C 221.467 -1.86663 0.885464 0
M  V30 2352 C 221.875 -1.80464 -0.568281 0
M  V30 2353 O 221.218 -1.18445 -1.40415 0
M  V30 2354 C 221.28 -3.36337 1.26956 0
M  V30 2355 C 220.944 -3.66304 2.73259 0
M  V30 2356 C 221.941 -3.63733 3.71476 0
M  V30 2357 C 219.626 -3.9529 3.09921 0
M  V30 2358 C 221.62 -3.89725 5.04374 0
M  V30 2359 C 219.307 -4.20941 4.43004 0
M  V30 2360 C 220.305 -4.18147 5.40039 0
M  V30 2361 O 219.993 -4.43153 6.70724 0
M  V30 2362 H 219.725 -0.597114 0.316908 0
M  V30 2363 H 222.279 -1.41782 1.48617 0
M  V30 2364 H 220.509 -3.81826 0.611999 0
M  V30 2365 H 222.198 -3.92986 1.01573 0
M  V30 2366 H 222.964 -3.41389 3.44498 0
M  V30 2367 H 218.843 -3.966 2.35009 0
M  V30 2368 H 222.387 -3.8746 5.80104 0
M  V30 2369 H 218.284 -4.42761 4.69716 0
M  V30 2370 H 219.052 -4.60717 6.76522 0
M  V30 2371 N 221.715 -0.905404 -1.28997 0
M  V30 2372 C 222.94 -0.549175 -1.99997 0
M  V30 2373 C 223.365 0.860276 -1.67275 0
M  V30 2374 O 222.723 1.57355 -0.900502 0
M  V30 2375 C 222.771 -0.755185 -3.52604 0
M  V30 2376 O 221.875 0.189692 -4.11964 0
M  V30 2377 H 221.216 -0.213899 -0.628604 0
M  V30 2378 H 223.746 -1.21856 -1.64354 0
M  V30 2379 H 223.756 -0.662045 -4.02593 0
M  V30 2380 H 222.431 -1.78271 -3.75755 0
M  V30 2381 H 221.008 0.0485257 -3.72868 0
M  V30 2382 N 223.193 1.4272 -0.668489 0
M  V30 2383 C 224.441 2.01226 -0.187769 0
M  V30 2384 C 224.762 1.53092 1.2078 0
M  V30 2385 O 224.032 0.74993 1.80977 0
M  V30 2386 H 222.612 0.744041 -0.0664272 0
M  V30 2387 H 225.274 1.74723 -0.863583 0
M  V30 2388 H 224.37 3.11556 -0.184166 0
M  V30 2389 N 224.671 0.411399 1.52136 0
M  V30 2390 C 225.917 -0.163888 2.02137 0
M  V30 2391 C 226.25 -1.44597 1.29636 0
M  V30 2392 O 225.525 -1.90272 0.403353 0
M  V30 2393 C 225.808 -0.40927 3.57767 0
M  V30 2394 C 225.661 0.889643 4.40914 0
M  V30 2395 C 226.98 -1.19042 4.23694 0
M  V30 2396 H 224.099 -0.0580896 0.734707 0
M  V30 2397 H 226.741 0.54531 1.82007 0
M  V30 2398 H 224.891 -1.0134 3.7505 0
M  V30 2399 H 226.563 1.52575 4.35337 0
M  V30 2400 H 224.806 1.50011 4.07037 0
M  V30 2401 H 225.477 0.672314 5.4789 0
M  V30 2402 H 227.953 -0.678942 4.10524 0
M  V30 2403 H 226.829 -1.33086 5.32522 0
M  V30 2404 H 227.09 -2.21166 3.82803 0
M  V30 2405 N 226.149 -1.5696 0.141893 0
M  V30 2406 C 227.395 -1.9625 -0.511248 0
M  V30 2407 C 227.728 -1.02654 -1.64851 0
M  V30 2408 O 227.003 -0.0679676 -1.94381 0
M  V30 2409 C 227.286 -3.45285 -1.02227 0
M  V30 2410 C 227.139 -4.49658 0.113138 0
M  V30 2411 C 228.458 -3.96698 -1.90574 0
M  V30 2412 H 225.577 -0.713567 -0.184367 0
M  V30 2413 H 228.219 -1.88698 0.222087 0
M  V30 2414 H 226.369 -3.51852 -1.64719 0
M  V30 2415 H 228.041 -4.55174 0.749302 0
M  V30 2416 H 226.284 -4.26857 0.773026 0
M  V30 2417 H 226.955 -5.51258 -0.286053 0
M  V30 2418 H 229.431 -3.92578 -1.37918 0
M  V30 2419 H 228.307 -5.01453 -2.2324 0
M  V30 2420 H 228.568 -3.3875 -2.84079 0
M  V30 2421 N 227.627 0.131896 -1.57047 0
M  V30 2422 C 228.857 0.855219 -1.88068 0
M  V30 2423 C 229.265 1.74557 -0.729817 0
M  V30 2424 O 228.608 1.81083 0.308962 0
M  V30 2425 C 228.67 1.75119 -3.13964 0
M  V30 2426 C 228.334 1.03646 -4.45091 0
M  V30 2427 C 229.331 0.383276 -5.18485 0
M  V30 2428 C 227.016 1.02148 -4.91804 0
M  V30 2429 C 229.01 -0.275347 -6.36805 0
M  V30 2430 C 226.697 0.359047 -6.10044 0
M  V30 2431 C 227.695 -0.288222 -6.82392 0
M  V30 2432 O 227.383 -0.94011 -7.98384 0
M  V30 2433 H 227.115 0.251864 -0.627328 0
M  V30 2434 H 229.669 0.124782 -2.05021 0
M  V30 2435 H 227.899 2.52295 -2.9306 0
M  V30 2436 H 229.588 2.3478 -3.31109 0
M  V30 2437 H 230.354 0.386562 -4.83457 0
M  V30 2438 H 226.233 1.5147 -4.35405 0
M  V30 2439 H 229.777 -0.781148 -6.93213 0
M  V30 2440 H 225.674 0.35348 -6.44531 0
M  V30 2441 H 226.442 -0.84329 -8.14144 0
M  V30 2442 N 229.106 1.52395 0.401703 0
M  V30 2443 C 230.517 1.58899 0.980202 0
M  V30 2444 C 230.868 0.434032 1.91339 0
M  V30 2445 O 229.993 -0.444619 2.11783 0
M  V30 2446 C 230.588 2.87994 1.78451 0
M  V30 2447 C 229.147 2.96953 2.31292 0
M  V30 2448 C 228.294 2.53903 1.11483 0
M  V30 2449 H 231.245 1.57657 0.18168 0
M  V30 2450 H 231.266 2.73765 2.64259 0
M  V30 2451 H 230.778 3.72035 1.10506 0
M  V30 2452 H 228.879 2.17422 3.02586 0
M  V30 2453 H 228.992 4.01344 2.61649 0
M  V30 2454 H 227.356 2.07925 1.47104 0
M  V30 2455 H 228.139 3.40326 0.450928 0
M  V30 2456 N 230.584 -0.659388 1.43143 0
M  V30 2457 C 231.514 -1.78422 1.50625 0
M  V30 2458 C 232.495 -1.66216 0.361443 0
M  V30 2459 O 233.68 -1.85404 0.577834 0
M  V30 2460 C 230.81 -3.16815 1.42287 0
M  V30 2461 C 229.764 -3.43777 2.54954 0
M  V30 2462 C 229.09 -4.81905 2.31671 0
M  V30 2463 C 230.39 -3.39134 3.97222 0
M  V30 2464 H 232.084 -1.72417 2.44771 0
M  V30 2465 H 229.63 -0.828084 1.17808 0
M  V30 2466 H 231.583 -3.95253 1.46127 0
M  V30 2467 H 230.307 -3.23534 0.446435 0
M  V30 2468 H 228.966 -2.67707 2.50457 0
M  V30 2469 H 228.614 -4.85294 1.32284 0
M  V30 2470 H 228.314 -5.00906 3.07192 0
M  V30 2471 H 229.838 -5.62609 2.37284 0
M  V30 2472 H 231.252 -4.07518 4.03239 0
M  V30 2473 H 229.649 -3.69671 4.72719 0
M  V30 2474 H 230.719 -2.37426 4.22797 0
M  V30 2475 N 232.062 -1.29571 -0.897171 0
M  V30 2476 C 233.009 -1.14916 -2.00158 0
M  V30 2477 C 233.979 -0.0418149 -1.66047 0
M  V30 2478 O 235.164 -0.209793 -1.89643 0
M  V30 2479 C 232.304 -0.834307 -3.34863 0
M  V30 2480 C 231.417 -2.02234 -3.8174 0
M  V30 2481 C 230.552 -1.64664 -5.05034 0
M  V30 2482 C 229.591 -2.80033 -5.44286 0
M  V30 2483 N 228.728 -2.42843 -6.58765 0
M  V30 2484 H 233.568 -2.09403 -2.12025 0
M  V30 2485 H 231.105 -1.042 -1.0383 0
M  V30 2486 H 233.063 -0.632436 -4.12379 0
M  V30 2487 H 231.693 0.0736656 -3.22716 0
M  V30 2488 H 230.745 -2.33583 -3.00238 0
M  V30 2489 H 232.057 -2.88673 -4.06779 0
M  V30 2490 H 231.211 -1.4078 -5.9014 0
M  V30 2491 H 229.95 -0.753766 -4.8184 0
M  V30 2492 H 228.955 -3.04596 -4.57713 0
M  V30 2493 H 230.18 -3.69989 -5.6946 0
M  V30 2494 H 228.126 -1.56046 -6.3717 0
M  V30 2495 H 228.043 -3.22815 -6.83613 0
M  V30 2496 H 229.311 -2.22285 -7.47134 0
M  V30 2497 N 233.54 1.10788 -1.12088 0
M  V30 2498 C 234.765 1.87002 -0.896949 0
M  V30 2499 C 235.19 1.79933 0.548261 0
M  V30 2500 O 234.548 1.16662 1.38779 0
M  V30 2501 C 234.596 3.3349 -1.37174 0
M  V30 2502 O 233.7 4.08745 -0.547831 0
M  V30 2503 H 233.041 0.580397 -0.322545 0
M  V30 2504 H 235.571 1.39996 -1.49206 0
M  V30 2505 H 235.581 3.84339 -1.36922 0
M  V30 2506 H 234.256 3.37951 -2.42408 0
M  V30 2507 H 232.833 3.6776 -0.617034 0
M  V30 2508 N 235.018 0.912232 1.28515 0
M  V30 2509 C 235.948 0.416403 2.29757 0
M  V30 2510 C 236.929 -0.515194 1.6211 0
M  V30 2511 O 238.114 -0.423253 1.89532 0
M  V30 2512 C 235.244 -0.34572 3.45575 0
M  V30 2513 C 234.198 0.496599 4.25109 0
M  V30 2514 C 233.524 -0.393771 5.33248 0
M  V30 2515 C 234.824 1.75307 4.92001 0
M  V30 2516 H 236.518 1.26249 2.7148 0
M  V30 2517 H 234.064 0.608515 1.30511 0
M  V30 2518 H 236.017 -0.703422 4.15488 0
M  V30 2519 H 234.741 -1.2257 3.02728 0
M  V30 2520 H 233.4 0.8368 3.56922 0
M  V30 2521 H 233.048 -1.27225 4.86644 0
M  V30 2522 H 232.748 0.166209 5.87365 0
M  V30 2523 H 234.272 -0.747389 6.06009 0
M  V30 2524 H 235.686 1.46437 5.54283 0
M  V30 2525 H 234.083 2.25534 5.56106 0
M  V30 2526 H 235.153 2.48176 4.16577 0
M  V30 2527 N 236.496 -1.42363 0.676048 0
M  V30 2528 C 237.744 -2.01123 0.198437 0
M  V30 2529 C 238.065 -1.53731 -1.19966 0
M  V30 2530 O 237.335 -0.759518 -1.80577 0
M  V30 2531 H 235.915 -0.743678 0.0703721 0
M  V30 2532 H 238.577 -1.74263 0.872837 0
M  V30 2533 H 237.673 -3.11454 0.200686 0
M  V30 2534 N 237.974 -0.419461 -1.51915 0
M  V30 2535 C 239.39 -0.0708431 -1.59443 0
M  V30 2536 C 239.59 1.41796 -1.43164 0
M  V30 2537 O 238.646 2.18596 -1.26381 0
M  V30 2538 C 239.959 -0.574991 -2.95151 0
M  V30 2539 C 241.507 -0.533867 -3.08413 0
M  V30 2540 C 241.982 -1.01469 -4.46618 0
M  V30 2541 N 243.473 -0.971939 -4.52888 0
M  V30 2542 C 244.208 -1.31505 -5.58116 0
M  V30 2543 N 243.704 -1.73014 -6.70849 0
M  V30 2544 N 245.497 -1.23436 -5.48379 0
M  V30 2545 H 237.648 -1.38836 -1.60743 0
M  V30 2546 H 239.911 -0.570998 -0.756747 0
M  V30 2547 H 239.617 -1.61597 -3.12377 0
M  V30 2548 H 239.491 0.00979777 -3.77199 0
M  V30 2549 H 241.878 0.498086 -2.90866 0
M  V30 2550 H 241.959 -1.15484 -2.28248 0
M  V30 2551 H 241.603 -2.04502 -4.6491 0
M  V30 2552 H 241.533 -0.370433 -5.25295 0
M  V30 2553 H 244.024 -0.666893 -3.71969 0
M  V30 2554 H 244.337 -1.97479 -7.47143 0
M  V30 2555 H 242.682 -1.76926 -6.72103 0
M  V30 2556 H 245.873 -0.908869 -4.59192 0
M  V30 2557 H 246.046 -1.50506 -6.30279 0
M  V30 2558 N 239.452 1.56882 -0.150215 0
M  V30 2559 C 240.382 2.19935 0.784284 0
M  V30 2560 C 241.363 1.14854 1.25469 0
M  V30 2561 O 242.548 1.43209 1.31168 0
M  V30 2562 C 239.678 2.82349 2.02229 0
M  V30 2563 C 238.632 3.93285 1.68853 0
M  V30 2564 C 237.958 4.42649 2.99944 0
M  V30 2565 C 239.258 5.13904 0.932714 0
M  V30 2566 H 240.952 2.9828 0.258781 0
M  V30 2567 H 238.498 1.43473 0.123029 0
M  V30 2568 H 240.451 3.25126 2.68088 0
M  V30 2569 H 239.175 2.0134 2.57157 0
M  V30 2570 H 237.834 3.5113 1.05371 0
M  V30 2571 H 237.482 3.58458 3.52869 0
M  V30 2572 H 237.182 5.17476 2.78374 0
M  V30 2573 H 238.706 4.88099 3.66868 0
M  V30 2574 H 240.12 5.53506 1.49345 0
M  V30 2575 H 238.517 5.94515 0.81684 0
M  V30 2576 H 239.587 4.84842 -0.0749568 0
M  V30 2577 N 240.93 -0.123565 1.57115 0
M  V30 2578 C 241.877 -1.15177 2.00007 0
M  V30 2579 C 242.847 -1.41403 0.871454 0
M  V30 2580 O 244.032 -1.53346 1.13533 0
M  V30 2581 C 241.172 -2.47436 2.40561 0
M  V30 2582 C 240.285 -2.28184 3.66819 0
M  V30 2583 C 239.42 -3.53641 3.96373 0
M  V30 2584 C 238.459 -3.29528 5.15827 0
M  V30 2585 N 237.596 -4.47175 5.41275 0
M  V30 2586 H 242.436 -0.779008 2.87638 0
M  V30 2587 H 239.973 -0.373166 1.42288 0
M  V30 2588 H 241.931 -3.24584 2.62109 0
M  V30 2589 H 240.561 -2.82614 1.55978 0
M  V30 2590 H 239.613 -1.41976 3.52912 0
M  V30 2591 H 240.925 -2.0634 4.5412 0
M  V30 2592 H 240.079 -4.39209 4.18545 0
M  V30 2593 H 238.818 -3.78512 3.07538 0
M  V30 2594 H 237.823 -2.42349 4.93505 0
M  V30 2595 H 239.048 -3.06031 6.06236 0
M  V30 2596 H 236.994 -4.72175 4.55397 0
M  V30 2597 H 236.911 -4.28419 6.22891 0
M  V30 2598 H 238.179 -5.3389 5.67963 0
M  V30 2599 N 242.408 -1.52605 -0.393616 0
M  V30 2600 C 243.355 -1.77055 -1.48054 0
M  V30 2601 C 244.325 -0.61358 -1.54352 0
M  V30 2602 O 245.51 -0.852806 -1.70681 0
M  V30 2603 C 242.65 -1.94108 -2.85335 0
M  V30 2604 C 241.763 -3.21792 -2.88226 0
M  V30 2605 C 240.898 -3.29188 -4.16904 0
M  V30 2606 C 239.937 -4.51013 -4.13828 0
M  V30 2607 N 239.074 -4.55716 -5.34105 0
M  V30 2608 H 243.914 -2.69815 -1.26506 0
M  V30 2609 H 241.451 -1.33683 -0.61379 0
M  V30 2610 H 243.409 -2.01979 -3.65049 0
M  V30 2611 H 242.039 -1.04713 -3.05344 0
M  V30 2612 H 241.091 -3.23015 -2.00911 0
M  V30 2613 H 242.403 -4.11557 -2.8182 0
M  V30 2614 H 241.557 -3.36216 -5.05018 0
M  V30 2615 H 240.296 -2.37389 -4.26026 0
M  V30 2616 H 239.301 -4.44115 -3.24102 0
M  V30 2617 H 240.526 -5.44123 -4.06333 0
M  V30 2618 H 238.472 -3.66807 -5.43865 0
M  V30 2619 H 238.389 -5.39346 -5.29756 0
M  V30 2620 H 239.657 -4.66993 -6.2413 0
M  V30 2621 N 243.887 0.651787 -1.4349 0
M  V30 2622 C 244.834 1.76462 -1.4876 0
M  V30 2623 C 245.804 1.62641 -0.337189 0
M  V30 2624 O 246.989 1.82864 -0.544544 0
M  V30 2625 C 244.129 3.14623 -1.41796 0
M  V30 2626 C 243.242 3.39568 -2.67053 0
M  V30 2627 C 242.377 4.67585 -2.52068 0
M  V30 2628 C 241.416 4.85639 -3.72587 0
M  V30 2629 N 240.553 6.04915 -3.56402 0
M  V30 2630 H 245.393 1.71293 -2.43849 0
M  V30 2631 H 242.93 0.835889 -1.21043 0
M  V30 2632 H 244.888 3.94496 -1.35753 0
M  V30 2633 H 243.518 3.18859 -0.50288 0
M  V30 2634 H 242.57 2.53783 -2.8337 0
M  V30 2635 H 243.882 3.48795 -3.56572 0
M  V30 2636 H 243.036 5.55586 -2.4374 0
M  V30 2637 H 241.775 4.60681 -1.60075 0
M  V30 2638 H 240.78 3.96073 -3.81321 0
M  V30 2639 H 242.005 4.94372 -4.65589 0
M  V30 2640 H 239.951 5.9914 -2.67146 0
M  V30 2641 H 239.868 6.15106 -4.39524 0
M  V30 2642 H 241.136 6.95533 -3.51929 0
M  V30 2643 N 245.365 1.30045 0.890287 0
M  V30 2644 C 246.313 1.15873 2.01683 0
M  V30 2645 C 247.307 0.0719403 1.69247 0
M  V30 2646 O 248.513 0.232414 1.78493 0
M  V30 2647 H 244.888 0.358203 0.661207 0
M  V30 2648 H 246.859 2.11229 2.10772 0
M  V30 2649 C 245.608 0.861842 3.36849 0
M  V30 2650 H 244.931 1.69016 3.62317 0
M  V30 2651 H 246.371 0.802762 4.16331 0
M  V30 2652 C 244.83 -0.435132 3.34078 0
M  V30 2653 O 245.36 -1.4583 3.74295 0
M  V30 2654 N 243.566 -0.444377 2.87182 0
M  V30 2655 H 243.113 0.388723 2.5465 0
M  V30 2656 H 243.071 -1.31213 2.85711 0
M  V30 2657 N 246.843 -1.10192 1.12674 0
M  V30 2658 C 247.806 -2.14786 0.799979 0
M  V30 2659 C 248.806 -1.59711 -0.18685 0
M  V30 2660 O 249.996 -1.74156 0.0392558 0
M  V30 2661 C 247.128 -3.40374 0.189228 0
M  V30 2662 H 248.321 -2.45203 1.72671 0
M  V30 2663 H 245.874 -1.25597 0.930326 0
M  V30 2664 H 246.609 -3.15577 -0.747107 0
M  V30 2665 H 246.394 -3.81637 0.899766 0
M  V30 2666 H 247.884 -4.17594 -0.0228143 0
M  V30 2667 N 248.321 -0.919034 -1.28029 0
M  V30 2668 C 249.57 -0.550802 -1.94034 0
M  V30 2669 C 249.883 0.910877 -1.73096 0
M  V30 2670 O 251.089 1.3875 -2.33368 0
M  V30 2671 C 249.545 -0.934249 -3.47563 0
M  V30 2672 C 249.153 -2.41602 -3.7727 0
M  V30 2673 C 250.897 -0.636854 -4.19696 0
M  V30 2674 C 248.804 -2.73932 -5.24133 0
M  V30 2675 H 247.734 -0.202273 -0.726362 0
M  V30 2676 H 250.385 -1.11867 -1.45458 0
M  V30 2677 H 248.767 -0.295115 -3.94899 0
M  V30 2678 H 249.941 -3.10233 -3.40723 0
M  V30 2679 H 248.256 -2.68441 -3.18321 0
M  V30 2680 H 250.853 -0.855005 -5.2782 0
M  V30 2681 H 251.196 0.425575 -4.14119 0
M  V30 2682 H 251.729 -1.23469 -3.78154 0
M  V30 2683 H 248.468 -3.79049 -5.34792 0
M  V30 2684 H 247.988 -2.09942 -5.61858 0
M  V30 2685 H 249.667 -2.61215 -5.91925 0
M  V30 2686 N 249.799 1.42003 -0.683588 0
M  V30 2687 C 251.039 2.03282 -0.213513 0
M  V30 2688 C 251.403 1.52924 1.16097 0
M  V30 2689 O 252.604 2.06048 1.7262 0
M  V30 2690 C 250.875 3.56483 -0.255856 0
M  V30 2691 S 252.434 4.3857 0.14193 0
M  V30 2692 H 249.252 0.705659 -0.0869853 0
M  V30 2693 H 251.854 1.73619 -0.8987 0
M  V30 2694 H 250.558 3.90631 -1.25841 0
M  V30 2695 H 250.089 3.90831 0.448875 0
M  V30 2696 H 252.104 4.76828 1.37295 0
M  V30 2697 N 251.277 0.427512 1.51691 0
M  V30 2698 C 252.526 -0.143679 2.01188 0
M  V30 2699 C 252.839 -1.44642 1.31674 0
M  V30 2700 O 254.045 -2.09997 1.72086 0
M  V30 2701 C 252.501 -0.306602 3.58592 0
M  V30 2702 C 252.109 0.985125 4.37035 0
M  V30 2703 C 253.853 -0.832091 4.16265 0
M  V30 2704 C 251.76 0.788382 5.86122 0
M  V30 2705 H 250.69 -0.0574701 0.751807 0
M  V30 2706 H 253.341 0.555772 1.74881 0
M  V30 2707 H 251.723 -1.06882 3.81303 0
M  V30 2708 H 252.897 1.75492 4.26074 0
M  V30 2709 H 251.212 1.4384 3.90767 0
M  V30 2710 H 253.809 -0.995617 5.25349 0
M  V30 2711 H 254.152 -1.81186 3.74803 0
M  V30 2712 H 254.685 -0.128444 3.97593 0
M  V30 2713 H 251.424 1.74025 6.31978 0
M  V30 2714 H 250.944 0.0582143 5.99772 0
M  V30 2715 H 252.623 0.437722 6.45518 0
M  V30 2716 N 252.755 -1.56801 0.158532 0
M  V30 2717 C 253.98 -2.01295 -0.499516 0
M  V30 2718 C 254.405 -1.03799 -1.56867 0
M  V30 2719 O 253.763 -0.0155162 -1.81293 0
M  V30 2720 C 253.811 -3.44469 -1.06647 0
M  V30 2721 O 252.915 -3.50012 -2.18095 0
M  V30 2722 H 252.256 -0.652884 -0.12099 0
M  V30 2723 H 254.786 -2.02958 0.258661 0
M  V30 2724 H 254.796 -3.8351 -1.39227 0
M  V30 2725 H 253.471 -4.14932 -0.283581 0
M  V30 2726 H 252.048 -3.22822 -1.86656 0
M  V30 2727 N 254.233 0.115231 -1.57178 0
M  V30 2728 C 255.479 0.82357 -1.85325 0
M  V30 2729 C 255.812 1.79349 -0.744814 0
M  V30 2730 O 255.087 1.92899 0.249024 0
M  V30 2731 C 255.37 1.57014 -3.24066 0
M  V30 2732 C 255.223 0.619565 -4.45513 0
M  V30 2733 C 256.542 2.52545 -3.60429 0
M  V30 2734 H 253.661 0.297948 -0.674089 0
M  V30 2735 H 256.303 0.0877138 -1.89797 0
M  V30 2736 H 254.453 2.19742 -3.20383 0
M  V30 2737 H 256.125 0.000837639 -4.613 0
M  V30 2738 H 254.368 -0.0686174 -4.33746 0
M  V30 2739 H 255.039 1.17866 -5.3927 0
M  V30 2740 H 257.515 1.9992 -3.64926 0
M  V30 2741 H 256.391 3.01811 -4.58477 0
M  V30 2742 H 256.652 3.35383 -2.88047 0
M  V30 2743 N 255.711 1.52812 0.385517 0
M  V30 2744 C 256.641 1.80808 1.47752 0
M  V30 2745 C 257.622 0.660318 1.5676 0
M  V30 2746 O 258.807 0.908246 1.71652 0
M  V30 2747 C 255.937 1.98008 2.85324 0
M  V30 2748 C 254.891 3.13709 2.91154 0
M  V30 2749 C 254.217 3.16169 4.31209 0
M  V30 2750 C 255.517 4.52709 2.60483 0
M  V30 2751 H 257.211 2.72253 1.24573 0
M  V30 2752 H 254.757 1.31003 0.597839 0
M  V30 2753 H 256.71 2.16176 3.61726 0
M  V30 2754 H 255.434 1.03255 3.09848 0
M  V30 2755 H 254.093 2.95329 2.17201 0
M  V30 2756 H 253.741 2.19092 4.52778 0
M  V30 2757 H 253.441 3.93894 4.36029 0
M  V30 2758 H 254.965 3.36496 5.09512 0
M  V30 2759 H 256.379 4.71173 3.26602 0
M  V30 2760 H 254.776 5.32528 2.76648 0
M  V30 2761 H 255.846 4.59186 1.55809 0
M  V30 2762 N 257.189 -0.644168 1.43834 0
M  V30 2763 C 258.435 -1.40603 1.46146 0
M  V30 2764 C 258.768 -1.93997 0.0887717 0
M  V30 2765 O 258.043 -1.72854 -0.891724 0
M  V30 2766 C 258.326 -2.58086 2.51124 0
M  V30 2767 C 258.179 -2.10126 3.97702 0
M  V30 2768 C 259.498 -3.60291 2.52742 0
M  V30 2769 H 256.617 -0.509905 0.532134 0
M  V30 2770 H 259.259 -0.729502 1.75437 0
M  V30 2771 H 257.409 -3.15801 2.26278 0
M  V30 2772 H 259.081 -1.57342 4.33637 0
M  V30 2773 H 257.324 -1.41419 4.10101 0
M  V30 2774 H 257.995 -2.94649 4.66783 0
M  V30 2775 H 260.471 -3.12352 2.7491 0
M  V30 2776 H 259.347 -4.40032 3.28121 0
M  V30 2777 H 259.608 -4.1349 1.56455 0
M  V30 2778 N 258.668 -1.30515 -0.883378 0
M  V30 2779 C 259.914 -1.20617 -1.63778 0
M  V30 2780 C 260.269 0.236469 -1.90941 0
M  V30 2781 O 259.562 1.16596 -1.52039 0
M  V30 2782 C 259.756 -1.96994 -2.98209 0
M  V30 2783 C 259.585 -3.48537 -2.84169 0
M  V30 2784 C 258.355 -4.17893 -2.84067 0
M  V30 2785 C 260.553 -4.43738 -2.60001 0
M  V30 2786 N 258.535 -5.55685 -2.60936 0
M  V30 2787 C 259.906 -5.69105 -2.46007 0
M  V30 2788 C 261.961 -4.33316 -2.45239 0
M  V30 2789 C 260.664 -6.8523 -2.18752 0
M  V30 2790 C 262.69 -5.4921 -2.19369 0
M  V30 2791 C 262.052 -6.73558 -2.06153 0
M  V30 2792 H 258.151 -0.496434 -0.604216 0
M  V30 2793 H 260.735 -1.64544 -1.04083 0
M  V30 2794 H 258.906 -1.55455 -3.55933 0
M  V30 2795 H 260.638 -1.79225 -3.62851 0
M  V30 2796 H 257.393 -3.69739 -2.95956 0
M  V30 2797 H 257.817 -6.28199 -2.52378 0
M  V30 2798 H 262.459 -3.37856 -2.54191 0
M  V30 2799 H 260.177 -7.80729 -2.08537 0
M  V30 2800 H 263.763 -5.43054 -2.08766 0
M  V30 2801 H 262.643 -7.61721 -1.86416 0
M  V30 2802 N 260.146 1.09593 -1.13257 0
M  V30 2803 C 261.076 2.18214 -0.830946 0
M  V30 2804 C 262.057 1.68812 0.208966 0
M  V30 2805 O 263.242 1.9408 0.0682666 0
M  V30 2806 C 260.372 3.46051 -0.294296 0
M  V30 2807 C 259.326 4.08778 -1.26826 0
M  V30 2808 C 258.652 5.31419 -0.591449 0
M  V30 2809 C 259.952 4.51476 -2.62615 0
M  V30 2810 H 261.646 2.43703 -1.73923 0
M  V30 2811 H 259.192 1.17128 -0.837675 0
M  V30 2812 H 261.145 4.2134 -0.0709606 0
M  V30 2813 H 259.869 3.20079 0.649366 0
M  V30 2814 H 258.528 3.35505 -1.47756 0
M  V30 2815 H 258.176 5.01727 0.357633 0
M  V30 2816 H 257.876 5.74341 -1.24123 0
M  V30 2817 H 259.4 6.09433 -0.377355 0
M  V30 2818 H 260.814 5.17999 -2.45663 0
M  V30 2819 H 259.211 5.05277 -3.23752 0
M  V30 2820 H 260.281 3.63962 -3.20406 0
M  V30 2821 N 261.624 0.925811 1.2754 0
M  V30 2822 C 262.873 0.561084 1.93739 0
M  V30 2823 C 263.186 -0.901685 1.73577 0
M  V30 2824 O 264.392 -1.37511 2.34101 0
M  V30 2825 C 262.848 0.952668 3.47062 0
M  V30 2826 C 262.456 2.43599 3.75983 0
M  V30 2827 C 264.2 0.659103 4.19352 0
M  V30 2828 C 262.107 2.76707 5.22673 0
M  V30 2829 H 261.037 0.206122 0.725279 0
M  V30 2830 H 263.688 1.12637 1.44863 0
M  V30 2831 H 262.07 0.316053 3.94737 0
M  V30 2832 H 263.244 3.12035 3.39073 0
M  V30 2833 H 261.559 2.70125 3.16893 0
M  V30 2834 H 264.156 0.882985 5.27359 0
M  V30 2835 H 264.499 -0.403607 4.14339 0
M  V30 2836 H 265.032 1.25473 3.77494 0
M  V30 2837 H 261.771 3.8188 5.32774 0
M  V30 2838 H 261.291 2.12919 5.60737 0
M  V30 2839 H 262.97 2.6435 5.90532 0
M  V30 2840 N 263.102 -1.41638 0.69111 0
M  V30 2841 C 264.348 -2.01598 0.220519 0
M  V30 2842 C 264.681 -1.54594 -1.17535 0
M  V30 2843 O 263.956 -0.755177 -1.79241 0
M  V30 2844 C 264.239 -3.59062 0.273243 0
M  V30 2845 C 264.092 -4.16203 1.70573 0
M  V30 2846 C 265.411 -4.38546 -0.369457 0
M  V30 2847 H 262.53 -0.732468 0.0816045 0
M  V30 2848 H 265.172 -1.68445 0.878986 0
M  V30 2849 H 263.322 -3.87435 -0.287411 0
M  V30 2850 H 264.994 -3.98722 2.31989 0
M  V30 2851 H 263.237 -3.71414 2.2413 0
M  V30 2852 H 263.908 -5.25358 1.69419 0
M  V30 2853 H 266.384 -4.1596 0.107977 0
M  V30 2854 H 265.26 -5.48069 -0.302002 0
M  V30 2855 H 265.521 -4.17662 -1.44951 0
M  V30 2856 N 264.58 -0.43555 -1.51462 0
M  V30 2857 C 265.826 0.131709 -2.02372 0
M  V30 2858 C 266.159 1.42516 -1.3192 0
M  V30 2859 O 265.434 1.89606 -0.433573 0
M  V30 2860 C 265.717 0.352301 -3.58373 0
M  V30 2861 C 265.57 -0.959676 -4.39443 0
M  V30 2862 C 266.889 1.12286 -4.25535 0
M  V30 2863 H 264.008 0.0463936 -0.735538 0
M  V30 2864 H 266.65 -0.574197 -1.81116 0
M  V30 2865 H 264.8 0.9536 -3.76615 0
M  V30 2866 H 266.472 -1.59482 -4.32855 0
M  V30 2867 H 264.715 -1.56468 -4.04599 0
M  V30 2868 H 265.386 -0.759394 -5.46752 0
M  V30 2869 H 267.862 0.613545 -4.11552 0
M  V30 2870 H 266.738 1.24598 -5.34571 0
M  V30 2871 H 266.999 2.15048 -3.86273 0
M  V30 2872 N 266.058 1.56714 -0.166846 0
M  V30 2873 C 267.304 1.97039 0.479962 0
M  V30 2874 C 267.637 1.05264 1.63197 0
M  V30 2875 O 266.912 0.0988833 1.94248 0
M  V30 2876 C 267.195 3.46867 0.967212 0
M  V30 2877 C 267.048 4.49421 -0.18466 0
M  V30 2878 C 268.367 3.9968 1.84238 0
M  V30 2879 H 265.486 0.71641 0.172992 0
M  V30 2880 H 268.128 1.8832 -0.252079 0
M  V30 2881 H 266.278 3.54428 1.59101 0
M  V30 2882 H 267.95 4.53924 -0.821621 0
M  V30 2883 H 266.193 4.25573 -0.840837 0
M  V30 2884 H 266.864 5.51644 0.198317 0
M  V30 2885 H 269.34 3.94723 1.31655 0
M  V30 2886 H 268.216 5.04941 2.15234 0
M  V30 2887 H 268.477 3.43226 2.78654 0
M  V30 2888 N 267.536 -0.106894 1.57237 0
M  V30 2889 C 268.499 -1.11466 2.0027 0
M  V30 2890 C 269.499 -1.33623 0.894519 0
M  V30 2891 O 270.689 -1.29935 1.16028 0
M  V30 2892 C 267.821 -2.46646 2.35327 0
M  V30 2893 H 269.014 -0.744516 2.90512 0
M  V30 2894 H 266.567 -0.351576 1.52295 0
M  V30 2895 H 267.302 -2.88558 1.48003 0
M  V30 2896 H 267.087 -2.31915 3.16161 0
M  V30 2897 H 268.577 -3.19151 2.69318 0
M  V30 2898 N 269.014 -1.53014 -0.377408 0
M  V30 2899 C 270.263 -1.67845 -1.11853 0
M  V30 2900 C 270.576 -0.430625 -1.90801 0
M  V30 2901 O 271.782 -0.459261 -2.67587 0
M  V30 2902 C 270.238 -2.96668 -2.03756 0
M  V30 2903 C 269.846 -4.28671 -1.30175 0
M  V30 2904 C 271.59 -3.20865 -2.77932 0
M  V30 2905 C 269.497 -5.48591 -2.20911 0
M  V30 2906 H 268.427 -0.625343 -0.421263 0
M  V30 2907 H 271.078 -1.79514 -0.380409 0
M  V30 2908 H 269.46 -2.78773 -2.8125 0
M  V30 2909 H 270.634 -4.57157 -0.578259 0
M  V30 2910 H 268.949 -4.10825 -0.679108 0
M  V30 2911 H 271.546 -4.07642 -3.46024 0
M  V30 2912 H 271.889 -2.36424 -3.4265 0
M  V30 2913 H 272.422 -3.39379 -2.07525 0
M  V30 2914 H 269.161 -6.35474 -1.6079 0
M  V30 2915 H 268.681 -5.244 -2.91144 0
M  V30 2916 H 270.36 -5.8292 -2.80736 0
M  V30 2917 N 270.492 0.636531 -1.44174 0
M  V30 2918 C 271.717 1.42847 -1.50364 0
M  V30 2919 C 272.142 1.87665 -0.127867 0
M  V30 2920 O 271.5 1.58408 0.88185 0
M  V30 2921 C 271.548 2.62854 -2.4686 0
M  V30 2922 O 270.652 3.62501 -1.9664 0
M  V30 2923 H 269.993 0.427642 -0.507955 0
M  V30 2924 H 272.523 0.777422 -1.89255 0
M  V30 2925 H 272.533 3.10465 -2.64718 0
M  V30 2926 H 271.208 2.29578 -3.46795 0
M  V30 2927 H 269.785 3.21735 -1.88523 0
M  V30 2928 N 271.97 1.30982 0.876444 0
M  V30 2929 C 273.381 1.18277 1.44456 0
M  V30 2930 C 273.732 -0.213265 1.95037 0
M  V30 2931 O 272.857 -1.11057 1.85729 0
M  V30 2932 C 273.452 2.1411 2.62569 0
M  V30 2933 C 272.011 2.05358 3.15444 0
M  V30 2934 C 271.158 2.03706 1.88146 0
M  V30 2935 H 274.109 1.43127 0.685584 0
M  V30 2936 H 274.13 1.72692 3.39054 0
M  V30 2937 H 273.642 3.15706 2.25724 0
M  V30 2938 H 271.743 1.06934 3.56926 0
M  V30 2939 H 271.856 2.94156 3.78166 0
M  V30 2940 H 270.22 1.48629 2.06837 0
M  V30 2941 H 271.003 3.07047 1.53547 0
M  V30 2942 N 273.449 -1.08991 1.13837 0
M  V30 2943 C 274.698 -1.80631 0.897509 0
M  V30 2944 C 275.011 -1.86872 -0.57777 0
M  V30 2945 O 276.217 -2.54866 -0.935701 0
M  V30 2946 C 274.673 -3.24517 1.55618 0
M  V30 2947 C 274.281 -3.26529 3.0673 0
M  V30 2948 C 276.025 -4.00882 1.3962 0
M  V30 2949 C 273.932 -4.64965 3.65461 0
M  V30 2950 H 272.862 -0.67691 0.332129 0
M  V30 2951 H 275.513 -1.2246 1.3666 0
M  V30 2952 H 273.895 -3.82778 1.01476 0
M  V30 2953 H 275.069 -2.78008 3.67489 0
M  V30 2954 H 273.384 -2.63656 3.22296 0
M  V30 2955 H 275.981 -5.03167 1.80906 0
M  V30 2956 H 276.324 -4.14896 0.341578 0
M  V30 2957 H 276.857 -3.49075 1.90766 0
M  V30 2958 H 273.596 -4.56153 4.70749 0
M  V30 2959 H 273.116 -5.13792 3.09481 0
M  V30 2960 H 274.795 -5.3394 3.654 0
M  V30 2961 N 274.927 -0.932562 -1.27047 0
M  V30 2962 C 275.857 -0.452902 -2.29066 0
M  V30 2963 C 276.838 0.489338 -1.62909 0
M  V30 2964 O 278.023 0.393046 -1.90181 0
M  V30 2965 C 275.153 0.290698 -3.46081 0
M  V30 2966 C 274.107 -0.564168 -4.24265 0
M  V30 2967 C 273.433 0.308886 -5.33807 0
M  V30 2968 C 274.733 -1.83112 -4.89149 0
M  V30 2969 H 276.427 -1.30552 -2.69437 0
M  V30 2970 H 273.973 -0.629201 -1.29526 0
M  V30 2971 H 275.926 0.637233 -4.16554 0
M  V30 2972 H 274.65 1.17738 -3.0464 0
M  V30 2973 H 273.309 -0.893477 -3.55545 0
M  V30 2974 H 272.957 1.19467 -4.88607 0
M  V30 2975 H 272.657 -0.259633 -5.87026 0
M  V30 2976 H 274.181 0.650884 -6.07121 0
M  V30 2977 H 275.595 -1.55236 -5.51883 0
M  V30 2978 H 273.992 -2.34353 -5.52448 0
M  V30 2979 H 275.062 -2.54772 -4.12576 0
M  V30 2980 N 276.405 1.4127 -0.698611 0
M  V30 2981 C 277.652 2.0118 -0.230865 0
M  V30 2982 C 277.98 1.55338 1.17049 0
M  V30 2983 O 277.235 0.756775 1.80475 0
M  V30 2984 C 277.534 3.56592 -0.240192 0
M  V30 2985 C 277.2 4.21955 -1.58948 0
M  V30 2986 C 275.862 4.39524 -1.95887 0
M  V30 2987 C 278.214 4.58576 -2.47704 0
M  V30 2988 C 275.542 4.90992 -3.2116 0
M  V30 2989 C 277.894 5.11435 -3.72313 0
M  V30 2990 C 276.558 5.27215 -4.0939 0
M  V30 2991 H 275.828 0.736169 -0.0844796 0
M  V30 2992 H 278.475 1.69124 -0.8983 0
M  V30 2993 H 276.78 3.88456 0.510797 0
M  V30 2994 H 278.477 4.00758 0.139296 0
M  V30 2995 H 275.067 4.08657 -1.29219 0
M  V30 2996 H 279.251 4.44654 -2.20445 0
M  V30 2997 H 274.507 5.01393 -3.49878 0
M  V30 2998 H 278.681 5.38752 -4.4127 0
M  V30 2999 H 276.308 5.66859 -5.06533 0
M  V30 3000 N 277.883 0.443576 1.51229 0
M  V30 3001 C 279.113 -0.119117 2.06256 0
M  V30 3002 C 279.521 -1.36471 1.31043 0
M  V30 3003 O 278.864 -1.80034 0.365151 0
M  V30 3004 C 278.926 -0.500546 3.55998 0
M  V30 3005 C 278.59 0.639125 4.52509 0
M  V30 3006 C 279.587 1.51311 4.97394 0
M  V30 3007 C 277.272 0.821632 4.95535 0
M  V30 3008 C 279.266 2.55425 5.83984 0
M  V30 3009 C 276.953 1.86603 5.81913 0
M  V30 3010 C 277.951 2.73072 6.26036 0
M  V30 3011 O 277.639 3.75718 7.10698 0
M  V30 3012 H 277.371 -0.00857665 0.675946 0
M  V30 3013 H 279.925 0.623288 1.95715 0
M  V30 3014 H 278.155 -1.29575 3.64345 0
M  V30 3015 H 279.844 -0.995116 3.93513 0
M  V30 3016 H 280.61 1.38367 4.64844 0
M  V30 3017 H 276.489 0.158149 4.60729 0
M  V30 3018 H 280.033 3.22949 6.18344 0
M  V30 3019 H 275.93 1.99564 6.13876 0
M  V30 3020 H 276.698 3.72374 7.2889 0
M  V30 3021 N 279.361 -1.56624 0.175154 0
M  V30 3022 C 280.586 -2.01813 -0.478137 0
M  V30 3023 C 281.011 -1.05457 -1.55757 0
M  V30 3024 O 280.369 -0.0347439 -1.81267 0
M  V30 3025 C 280.417 -3.45581 -1.02987 0
M  V30 3026 O 279.521 -3.52305 -2.14371 0
M  V30 3027 H 278.862 -0.65413 -0.114059 0
M  V30 3028 H 281.392 -2.02673 0.280173 0
M  V30 3029 H 281.402 -3.84965 -1.35151 0
M  V30 3030 H 280.077 -4.1521 -0.239556 0
M  V30 3031 H 278.654 -3.24783 -1.83222 0
M  V30 3032 N 280.839 0.0985539 -1.57292 0
M  V30 3033 C 282.087 0.801092 -1.85545 0
M  V30 3034 C 282.408 1.79438 -0.763353 0
M  V30 3035 O 281.678 1.94763 0.21073 0
M  V30 3036 H 280.258 0.29884 -0.684619 0
M  V30 3037 H 282.92 0.0810064 -1.94732 0
M  V30 3038 H 282.016 1.3338 -2.82163 0
M  V30 3039 N 282.317 1.53212 0.369288 0
M  V30 3040 C 283.545 1.73119 1.13303 0
M  V30 3041 C 283.96 0.458455 1.83149 0
M  V30 3042 O 283.317 -0.568403 1.73423 0
M  V30 3043 C 283.368 2.89413 2.16616 0
M  V30 3044 O 283.089 4.11761 1.49614 0
M  V30 3045 C 284.59 3.21161 3.05566 0
M  V30 3046 H 281.81 0.579107 0.338934 0
M  V30 3047 H 284.354 1.99942 0.429338 0
M  V30 3048 H 282.509 2.64994 2.82589 0
M  V30 3049 H 282.923 4.76858 2.18419 0
M  V30 3050 H 284.397 4.05949 3.74045 0
M  V30 3051 H 284.874 2.36369 3.70171 0
M  V30 3052 H 285.48 3.47492 2.45213 0
M  V30 3053 N 283.795 -0.628877 1.44509 0
M  V30 3054 C 285.043 -1.38565 1.4712 0
M  V30 3055 C 285.364 -1.94712 0.105899 0
M  V30 3056 O 284.634 -1.75912 -0.862079 0
M  V30 3057 H 283.214 -0.514333 0.541729 0
M  V30 3058 H 285.876 -0.740018 1.80305 0
M  V30 3059 H 284.972 -2.21583 2.19789 0
M  V30 3060 N 285.273 -1.31445 -0.869486 0
M  V30 3061 C 286.519 -1.21337 -1.62496 0
M  V30 3062 C 286.852 0.227872 -1.92858 0
M  V30 3063 O 286.127 1.16094 -1.56053 0
M  V30 3064 C 286.41 -2.05814 -2.95487 0
M  V30 3065 C 286.263 -3.5824 -2.72 0
M  V30 3066 C 287.582 -1.9079 -3.96594 0
M  V30 3067 H 284.701 -0.442135 -0.589649 0
M  V30 3068 H 287.343 -1.6124 -1.00507 0
M  V30 3069 H 285.493 -1.71913 -3.48394 0
M  V30 3070 H 287.165 -4.0228 -2.25762 0
M  V30 3071 H 285.408 -3.81647 -2.06224 0
M  V30 3072 H 286.079 -4.12657 -3.66631 0
M  V30 3073 H 288.555 -2.20459 -3.52898 0
M  V30 3074 H 287.431 -2.52199 -4.87531 0
M  V30 3075 H 287.692 -0.871341 -4.33428 0
M  V30 3076 N 286.751 1.08385 -1.14413 0
M  V30 3077 C 288.167 1.32844 -0.884563 0
M  V30 3078 C 288.367 1.95841 0.474181 0
M  V30 3079 O 287.423 2.21158 1.21842 0
M  V30 3080 C 288.736 2.22978 -2.01745 0
M  V30 3081 C 290.284 2.36458 -2.05077 0
M  V30 3082 C 290.759 3.29934 -3.1766 0
M  V30 3083 N 292.25 3.37511 -3.17239 0
M  V30 3084 C 292.985 4.09871 -4.0099 0
M  V30 3085 N 292.481 4.84936 -4.94781 0
M  V30 3086 N 294.274 4.05704 -3.89051 0
M  V30 3087 H 286.425 0.658756 -2.01926 0
M  V30 3088 H 288.688 0.352821 -0.879899 0
M  V30 3089 H 288.394 1.83934 -2.99769 0
M  V30 3090 H 288.268 3.23441 -1.94077 0
M  V30 3091 H 290.655 2.7476 -1.0766 0
M  V30 3092 H 290.736 1.35736 -2.16816 0
M  V30 3093 H 290.38 2.92352 -4.15322 0
M  V30 3094 H 290.31 4.30584 -3.03158 0
M  V30 3095 H 292.801 2.83996 -2.49308 0
M  V30 3096 H 293.114 5.37612 -5.55151 0
M  V30 3097 H 291.459 4.83988 -4.98779 0
M  V30 3098 H 294.65 3.46167 -3.15097 0
M  V30 3099 H 294.823 4.61834 -4.54547 0
M  V30 3100 N 288.23 0.939286 1.26551 0
M  V30 3101 C 289.177 0.446088 2.26448 0
M  V30 3102 C 290.147 -0.493234 1.58608 0
M  V30 3103 O 291.332 -0.409857 1.86346 0
M  V30 3104 C 288.472 -0.284375 3.43926 0
M  V30 3105 C 287.585 0.690399 4.26448 0
M  V30 3106 C 286.72 -0.0610712 5.31165 0
M  V30 3107 C 285.759 0.905649 6.05363 0
M  V30 3108 N 284.896 0.186055 7.01853 0
M  V30 3109 H 289.736 1.30291 2.68008 0
M  V30 3110 H 287.273 0.65371 1.31776 0
M  V30 3111 H 289.231 -0.724313 4.10864 0
M  V30 3112 H 287.861 -1.10535 3.03285 0
M  V30 3113 H 286.913 1.24885 3.59316 0
M  V30 3114 H 288.225 1.42873 4.779 0
M  V30 3115 H 287.379 -0.56038 6.04106 0
M  V30 3116 H 286.118 -0.832297 4.80546 0
M  V30 3117 H 285.123 1.4161 5.3125 0
M  V30 3118 H 286.348 1.67685 6.58072 0
M  V30 3119 H 284.294 -0.566714 6.53548 0
M  V30 3120 H 284.211 0.863752 7.51049 0
M  V30 3121 H 285.479 -0.292221 7.78952 0
M  V30 3122 N 289.708 -1.40897 0.706093 0
M  V30 3123 C 290.656 -2.32572 0.0361893 0
M  V30 3124 C 291.65 -1.51532 -0.757266 0
M  V30 3125 O 292.856 -1.67396 -0.661703 0
M  V30 3126 H 289.231 -0.751966 -0.00709935 0
M  V30 3127 H 291.202 -2.86733 0.826249 0
M  V30 3128 C 289.951 -3.36418 -0.87854 0
M  V30 3129 H 289.274 -3.98836 -0.277401 0
M  V30 3130 H 290.714 -4.0308 -1.3154 0
M  V30 3131 C 289.173 -2.71141 -1.99961 0
M  V30 3132 O 289.703 -2.56735 -3.0895 0
M  V30 3133 N 287.909 -2.29671 -1.78043 0
M  V30 3134 H 287.456 -2.41588 -0.894042 0
M  V30 3135 H 287.414 -1.86332 -2.53235 0
M  V30 3136 N 291.186 -0.45159 -1.50991 0
M  V30 3137 C 292.133 0.352625 -2.2809 0
M  V30 3138 C 293.103 1.0044 -1.32291 0
M  V30 3139 O 294.288 1.02058 -1.6121 0
M  V30 3140 C 291.428 1.43983 -3.13629 0
M  V30 3141 C 290.541 0.804772 -4.24438 0
M  V30 3142 C 289.676 1.86822 -4.97263 0
M  V30 3143 C 288.715 1.21236 -5.99973 0
M  V30 3144 N 287.852 2.2178 -6.66152 0
M  V30 3145 H 292.692 -0.311186 -2.96371 0
M  V30 3146 H 290.229 -0.165308 -1.46168 0
M  V30 3147 H 292.187 2.08161 -3.61559 0
M  V30 3148 H 290.817 2.07307 -2.47434 0
M  V30 3149 H 289.869 0.0509129 -3.80366 0
M  V30 3150 H 291.181 0.286076 -4.97979 0
M  V30 3151 H 290.335 2.58628 -5.48813 0
M  V30 3152 H 289.074 2.42068 -4.23385 0
M  V30 3153 H 288.079 0.479828 -5.47702 0
M  V30 3154 H 289.304 0.667051 -6.75816 0
M  V30 3155 H 287.25 2.76079 -5.95077 0
M  V30 3156 H 287.167 1.74841 -7.35504 0
M  V30 3157 H 288.435 2.93026 -7.22327 0
M  V30 3158 N 292.664 1.56529 -0.183458 0
M  V30 3159 C 293.892 2.01623 0.464285 0
M  V30 3160 C 294.307 1.06366 1.55986 0
M  V30 3161 O 293.664 0.0665398 1.82379 0
M  V30 3162 C 293.715 3.46475 1.03139 0
M  V30 3163 O 293.436 4.38095 -0.0204675 0
M  V30 3164 C 294.937 4.0703 1.75617 0
M  V30 3165 H 292.157 0.660596 0.117704 0
M  V30 3166 H 294.701 2.02451 -0.288751 0
M  V30 3167 H 292.856 3.46383 1.73486 0
M  V30 3168 H 293.27 5.22973 0.399952 0
M  V30 3169 H 294.744 5.10271 2.10542 0
M  V30 3170 H 295.221 3.49819 2.65563 0
M  V30 3171 H 295.827 4.1086 1.09882 0
M  V30 3172 N 294.142 -0.090211 1.57342 0
M  V30 3173 C 295.391 -0.791531 1.8552 0
M  V30 3174 C 295.704 -1.79659 0.773441 0
M  V30 3175 O 296.91 -2.54616 0.942497 0
M  V30 3176 C 295.366 -1.45856 3.2902 0
M  V30 3177 C 294.974 -0.493017 4.45279 0
M  V30 3178 C 296.718 -2.14332 3.66418 0
M  V30 3179 C 294.625 -1.16491 5.79814 0
M  V30 3180 H 293.555 -0.299356 0.692027 0
M  V30 3181 H 296.206 -0.0445343 1.83446 0
M  V30 3182 H 294.588 -2.25318 3.2565 0
M  V30 3183 H 295.762 0.270464 4.60006 0
M  V30 3184 H 294.077 0.0863061 4.16311 0
M  V30 3185 H 296.674 -2.65344 4.64216 0
M  V30 3186 H 297.017 -2.93447 2.95287 0
M  V30 3187 H 297.55 -1.41724 3.71698 0
M  V30 3188 H 294.289 -0.41447 6.54188 0
M  V30 3189 H 293.809 -1.8997 5.68921 0
M  V30 3190 H 295.488 -1.69001 6.24538 0
M  V30 3191 N 295.62 -1.53406 -0.361157 0
M  V30 3192 C 296.848 -1.73717 -1.12383 0
M  V30 3193 C 297.263 -0.468161 -1.82904 0
M  V30 3194 O 296.62 0.559198 -1.73722 0
M  V30 3195 C 296.671 -2.90558 -2.15078 0
M  V30 3196 O 296.392 -4.12549 -1.47428 0
M  V30 3197 C 297.893 -3.22777 -3.03858 0
M  V30 3198 H 295.113 -0.580896 -0.335858 0
M  V30 3199 H 297.657 -2.00167 -0.418728 0
M  V30 3200 H 295.812 -2.66489 -2.8118 0
M  V30 3201 H 296.226 -4.78009 -2.15887 0
M  V30 3202 H 297.7 -4.07927 -3.71887 0
M  V30 3203 H 298.177 -2.38329 -3.68912 0
M  V30 3204 H 298.783 -3.48787 -2.43367 0
M  V30 3205 N 297.098 0.621204 -1.44841 0
M  V30 3206 C 298.338 1.39201 -1.49674 0
M  V30 3207 C 298.702 1.91561 -0.129764 0
M  V30 3208 O 299.903 2.68748 -0.0527814 0
M  V30 3209 C 298.174 2.519 -2.53537 0
M  V30 3210 S 299.733 3.39916 -2.77494 0
M  V30 3211 H 296.551 0.474758 -0.529269 0
M  V30 3212 H 299.153 0.718171 -1.81831 0
M  V30 3213 H 297.857 2.11761 -3.51547 0
M  V30 3214 H 297.388 3.241 -2.22986 0
M  V30 3215 H 299.403 4.49646 -2.0984 0
M  V30 3216 N 298.576 1.31904 0.862503 0
M  V30 3217 C 299.806 1.24817 1.64634 0
M  V30 3218 C 300.214 -0.187579 1.88268 0
M  V30 3219 O 299.557 -1.13253 1.44635 0
M  V30 3220 C 299.619 1.92996 3.03303 0
M  V30 3221 C 299.283 3.42336 3.02746 0
M  V30 3222 C 300.28 4.37956 2.80162 0
M  V30 3223 C 297.965 3.84147 3.2363 0
M  V30 3224 C 299.959 5.73361 2.78453 0
M  V30 3225 C 297.646 5.19663 3.21549 0
M  V30 3226 C 298.644 6.14081 2.98988 0
M  V30 3227 O 298.332 7.47118 2.96766 0
M  V30 3228 H 298.064 0.432222 0.519769 0
M  V30 3229 H 300.618 1.7445 1.08427 0
M  V30 3230 H 298.848 1.37922 3.61268 0
M  V30 3231 H 300.537 1.79723 3.63943 0
M  V30 3232 H 301.303 4.06981 2.63802 0
M  V30 3233 H 297.182 3.11083 3.40218 0
M  V30 3234 H 300.726 6.4703 2.60763 0
M  V30 3235 H 296.623 5.5027 3.37451 0
M  V30 3236 H 297.391 7.56382 3.12775 0
M  V30 3237 N 300.054 -1.07777 1.14986 0
M  V30 3238 C 301.331 -1.7699 0.832695 0
M  V30 3239 C 301.711 -2.001 -0.672561 0
M  V30 3240 O 301.059 -1.61598 -1.6155 0
M  V30 3241 C 301.269 -3.08139 1.63863 0
M  V30 3242 C 302.617 -3.8256 1.84208 0
M  V30 3243 O 303.641 -3.17939 1.60603 0
M  V30 3244 O 302.5 -4.98612 2.23714 0
M  V30 3245 H 299.594 -0.768389 0.305791 0
M  V30 3246 H 302.14 -1.14182 1.25541 0
M  V30 3247 H 300.912 -2.86909 2.6608 0
M  V30 3248 H 300.535 -3.78678 1.21197 0
M  V30 3249 N 301.532 -0.945985 -1.26051 0
M  V30 3250 C 302.76 -0.613025 -1.9761 0
M  V30 3251 C 303.175 0.813035 -1.70397 0
M  V30 3252 O 302.532 1.54274 -0.974979 0
M  V30 3253 C 302.583 -0.85159 -3.51326 0
M  V30 3254 O 302.304 -2.22157 -3.77595 0
M  V30 3255 C 303.805 -0.529831 -4.40122 0
M  V30 3256 H 301.025 -0.230593 -0.630133 0
M  V30 3257 H 303.569 -1.268 -1.60443 0
M  V30 3258 H 301.724 -0.243151 -3.86636 0
M  V30 3259 H 302.138 -2.2852 -4.721 0
M  V30 3260 H 303.612 -0.747348 -5.46917 0
M  V30 3261 H 304.089 0.535341 -4.35925 0
M  V30 3262 H 304.695 -1.11721 -4.10364 0
M  V30 3263 N 303.011 1.40521 -0.713556 0
M  V30 3264 C 304.239 2.05237 -0.261775 0
M  V30 3265 C 304.654 1.53755 1.09567 0
M  V30 3266 O 304.011 0.693268 1.6882 0
M  V30 3267 C 304.062 3.60763 -0.230706 0
M  V30 3268 O 303.783 4.10345 -1.53455 0
M  V30 3269 C 305.284 4.42651 0.239874 0
M  V30 3270 H 302.504 0.660533 -0.118057 0
M  V30 3271 H 305.048 1.79967 -0.971192 0
M  V30 3272 H 303.203 3.8501 0.429661 0
M  V30 3273 H 303.617 5.04526 -1.43366 0
M  V30 3274 H 305.091 5.51599 0.210468 0
M  V30 3275 H 305.568 4.20082 1.28171 0
M  V30 3276 H 306.174 4.23507 -0.390142 0
M  V30 3277 N 304.489 0.459591 1.5075 0
M  V30 3278 C 305.714 -0.0996819 2.0716 0
M  V30 3279 C 306.139 -1.33761 1.32249 0
M  V30 3280 O 305.497 -1.77551 0.366786 0
M  V30 3281 C 305.545 -0.378226 3.58611 0
M  V30 3282 O 304.649 -1.46081 3.85661 0
M  V30 3283 H 303.99 0.00791392 0.663953 0
M  V30 3284 H 306.52 0.647329 1.9409 0
M  V30 3285 H 306.53 -0.622135 4.03229 0
M  V30 3286 H 305.205 0.526439 4.12555 0
M  V30 3287 H 303.782 -1.20511 3.5289 0
M  V30 3288 N 305.967 -1.56429 0.191757 0
M  V30 3289 C 307.244 -1.89224 -0.495332 0
M  V30 3290 C 307.624 -1.10478 -1.79883 0
M  V30 3291 O 306.972 -0.204852 -2.2758 0
M  V30 3292 C 307.182 -3.41548 -0.717367 0
M  V30 3293 C 308.53 -4.11711 -1.03823 0
M  V30 3294 O 309.554 -3.4698 -0.805204 0
M  V30 3295 O 308.413 -5.2611 -1.47887 0
M  V30 3296 H 305.507 -0.785788 -0.25781 0
M  V30 3297 H 308.053 -1.68111 0.231721 0
M  V30 3298 H 306.825 -3.90772 0.203287 0
M  V30 3299 H 306.448 -3.68342 -1.497 0
M  V30 3300 N 307.445 0.0818655 -1.57387 0
M  V30 3301 C 308.355 1.11642 -2.06333 0
M  V30 3302 C 309.371 1.43033 -0.99083 0
M  V30 3303 O 310.547 1.53411 -1.30488 0
M  V30 3304 C 307.612 2.41342 -2.48907 0
M  V30 3305 C 306.673 2.17014 -3.7041 0
M  V30 3306 C 305.906 3.4053 -4.10944 0
M  V30 3307 O 306.129 4.4927 -3.51444 0
M  V30 3308 O 305.063 3.29336 -5.03807 0
M  V30 3309 H 308.889 0.730657 -2.9478 0
M  V30 3310 H 306.474 0.295301 -1.46452 0
M  V30 3311 H 308.356 3.17691 -2.76858 0
M  V30 3312 H 307.031 2.79319 -1.63593 0
M  V30 3313 H 305.938 1.38403 -3.47556 0
M  V30 3314 H 307.271 1.83923 -4.56545 0
M  V30 3315 N 308.923 1.53595 0.353017 0
M  V30 3316 C 310.153 1.74058 1.11299 0
M  V30 3317 C 310.561 0.475205 1.83135 0
M  V30 3318 O 309.904 -0.562344 1.74881 0
M  V30 3319 C 309.966 2.85994 2.17825 0
M  V30 3320 C 309.63 4.25923 1.65647 0
M  V30 3321 C 310.627 5.07829 1.11383 0
M  V30 3322 C 308.312 4.72377 1.7078 0
M  V30 3323 C 310.306 6.34285 0.629439 0
M  V30 3324 C 307.993 5.98808 1.21953 0
M  V30 3325 C 308.991 6.79594 0.681265 0
M  V30 3326 O 308.679 8.03651 0.200248 0
M  V30 3327 H 308.411 0.585327 0.338183 0
M  V30 3328 H 310.965 2.01186 0.413927 0
M  V30 3329 H 309.195 2.54368 2.91262 0
M  V30 3330 H 310.884 2.94515 2.79313 0
M  V30 3331 H 311.65 4.73107 1.06746 0
M  V30 3332 H 307.529 4.0956 2.11617 0
M  V30 3333 H 311.073 6.97288 0.208636 0
M  V30 3334 H 306.97 6.33026 1.26287 0
M  V30 3335 H 307.738 8.1788 0.318416 0
M  V30 3336 N 310.401 -0.613514 1.45168 0
M  V30 3337 C 311.331 -1.7354 1.56225 0
M  V30 3338 C 312.312 -1.64981 0.41414 0
M  V30 3339 O 313.497 -1.83472 0.636526 0
M  V30 3340 C 310.627 -3.12128 1.52295 0
M  V30 3341 C 309.581 -3.35491 2.65762 0
M  V30 3342 C 308.907 -4.74291 2.46885 0
M  V30 3343 C 310.207 -3.26325 4.0781 0
M  V30 3344 H 311.901 -1.64543 2.50132 0
M  V30 3345 H 309.447 -0.790185 1.20383 0
M  V30 3346 H 311.4 -3.90404 1.58628 0
M  V30 3347 H 310.124 -3.2195 0.549139 0
M  V30 3348 H 308.783 -2.59603 2.58847 0
M  V30 3349 H 308.431 -4.80839 1.47657 0
M  V30 3350 H 308.131 -4.9088 3.22972 0
M  V30 3351 H 309.655 -5.54775 2.55063 0
M  V30 3352 H 311.069 -3.94483 4.16 0
M  V30 3353 H 309.466 -3.54445 4.8424 0
M  V30 3354 H 310.536 -2.23855 4.30136 0
M  V30 3355 N 311.879 -1.3236 -0.855495 0
M  V30 3356 C 313.295 -1.11332 -1.14356 0
M  V30 3357 C 313.495 0.106751 -2.01217 0
M  V30 3358 O 312.551 0.791891 -2.39761 0
M  V30 3359 C 313.864 -2.39237 -1.82171 0
M  V30 3360 C 315.412 -2.44986 -1.9481 0
M  V30 3361 C 315.887 -3.7281 -2.66039 0
M  V30 3362 N 317.378 -3.73787 -2.73565 0
M  V30 3363 C 318.113 -4.69394 -3.29327 0
M  V30 3364 N 317.609 -5.75367 -3.85907 0
M  V30 3365 N 319.402 -4.56893 -3.27423 0
M  V30 3366 H 311.553 -2.10586 -0.277027 0
M  V30 3367 H 313.816 -0.929701 -0.185364 0
M  V30 3368 H 313.522 -3.28431 -1.25802 0
M  V30 3369 H 313.396 -2.50134 -2.82335 0
M  V30 3370 H 315.783 -1.56252 -2.50338 0
M  V30 3371 H 315.864 -2.38043 -0.936448 0
M  V30 3372 H 315.508 -4.61918 -2.11174 0
M  V30 3373 H 315.438 -3.77024 -3.67642 0
M  V30 3374 H 317.929 -2.97189 -2.33424 0
M  V30 3375 H 318.242 -6.44378 -4.26611 0
M  V30 3376 H 316.587 -5.79123 -3.84242 0
M  V30 3377 H 319.778 -3.73269 -2.82467 0
M  V30 3378 H 319.951 -5.31577 -3.7058 0
M  V30 3379 N 313.357 1.07166 -1.15556 0
M  V30 3380 C 314.582 1.84053 -0.955988 0
M  V30 3381 C 315.007 1.81586 0.490739 0
M  V30 3382 O 314.365 1.21018 1.34997 0
M  V30 3383 C 314.413 3.28957 -1.47714 0
M  V30 3384 O 313.517 4.06795 -0.677593 0
M  V30 3385 H 312.858 0.569842 -0.340847 0
M  V30 3386 H 315.388 1.35178 -1.53584 0
M  V30 3387 H 315.398 3.79788 -1.4908 0
M  V30 3388 H 314.073 3.30068 -2.53037 0
M  V30 3389 H 312.65 3.6561 -0.733721 0
M  V30 3390 N 314.835 0.952656 1.25548 0
M  V30 3391 C 316.065 0.622592 1.96996 0
M  V30 3392 C 316.473 -0.809112 1.71026 0
M  V30 3393 O 315.816 -1.55258 0.981861 0
M  V30 3394 C 315.878 0.798946 3.5051 0
M  V30 3395 C 315.542 2.20744 4.00151 0
M  V30 3396 C 316.539 3.18394 4.11001 0
M  V30 3397 C 314.224 2.5311 4.33867 0
M  V30 3398 C 316.218 4.46504 4.54877 0
M  V30 3399 C 313.905 3.8145 4.7743 0
M  V30 3400 C 314.903 4.77959 4.87897 0
M  V30 3401 O 314.591 6.04012 5.30494 0
M  V30 3402 H 314.323 0.232503 0.634758 0
M  V30 3403 H 316.877 1.2789 1.60728 0
M  V30 3404 H 315.107 0.0854903 3.86605 0
M  V30 3405 H 316.796 0.47023 4.03167 0
M  V30 3406 H 317.562 2.94715 3.85186 0
M  V30 3407 H 313.441 1.78719 4.24948 0
M  V30 3408 H 316.985 5.21835 4.62962 0
M  V30 3409 H 312.882 4.04936 5.0269 0
M  V30 3410 H 313.65 6.0736 5.48685 0
M  V30 3411 N 316.313 -1.40141 0.720998 0
M  V30 3412 C 317.56 -2.00787 0.262842 0
M  V30 3413 C 317.888 -1.5718 -1.14563 0
M  V30 3414 O 317.143 -0.785391 -1.79249 0
M  V30 3415 C 317.442 -3.56165 0.296892 0
M  V30 3416 C 317.108 -4.19373 1.65641 0
M  V30 3417 C 315.77 -4.36352 2.02855 0
M  V30 3418 C 318.122 -4.54578 2.54968 0
M  V30 3419 C 315.45 -4.8582 3.28931 0
M  V30 3420 C 317.802 -5.05447 3.80402 0
M  V30 3421 C 316.466 -5.20635 4.17726 0
M  V30 3422 H 315.736 -0.734731 0.0961807 0
M  V30 3423 H 318.383 -1.67673 0.925093 0
M  V30 3424 H 316.688 -3.8922 -0.448932 0
M  V30 3425 H 318.385 -4.00929 -0.0755208 0
M  V30 3426 H 314.975 -4.06549 1.35704 0
M  V30 3427 H 319.159 -4.41091 2.27491 0
M  V30 3428 H 314.415 -4.95764 3.57811 0
M  V30 3429 H 318.589 -5.31663 4.49786 0
M  V30 3430 H 316.216 -5.58728 5.15487 0
M  V30 3431 N 317.792 -0.46758 -1.50504 0
M  V30 3432 C 319.041 0.0902868 -2.01498 0
M  V30 3433 C 319.354 1.411 -1.35463 0
M  V30 3434 O 320.56 2.0536 -1.77594 0
M  V30 3435 C 319.016 0.21142 -3.59278 0
M  V30 3436 C 318.624 -1.10065 -4.34269 0
M  V30 3437 C 320.368 0.721433 -4.18325 0
M  V30 3438 C 318.275 -0.943505 -5.83825 0
M  V30 3439 H 317.205 0.037517 -0.753066 0
M  V30 3440 H 319.856 -0.601943 -1.73346 0
M  V30 3441 H 318.238 0.967352 -3.84003 0
M  V30 3442 H 319.412 -1.86726 -4.21272 0
M  V30 3443 H 317.727 -1.5415 -3.86816 0
M  V30 3444 H 320.324 0.85598 -5.27804 0
M  V30 3445 H 320.667 1.71186 -3.79475 0
M  V30 3446 H 321.2 0.0229843 -3.97793 0
M  V30 3447 H 317.939 -1.90719 -6.27141 0
M  V30 3448 H 317.459 -0.217213 -5.99407 0
M  V30 3449 H 319.138 -0.608715 -6.4413 0
M  V30 3450 N 319.27 1.56325 -0.20005 0
M  V30 3451 C 320.5 2.01811 0.442232 0
M  V30 3452 C 320.908 1.07932 1.55394 0
M  V30 3453 O 320.251 0.0772685 1.83537 0
M  V30 3454 C 320.313 3.43685 1.05457 0
M  V30 3455 C 319.977 4.56928 0.0809833 0
M  V30 3456 C 320.974 5.15009 -0.711471 0
M  V30 3457 C 318.659 5.0229 -0.0315364 0
M  V30 3458 C 320.653 6.16904 -1.60336 0
M  V30 3459 C 318.34 6.04028 -0.926981 0
M  V30 3460 C 319.338 6.6121 -1.71146 0
M  V30 3461 O 319.026 7.60971 -2.59189 0
M  V30 3462 H 318.758 0.666173 0.114848 0
M  V30 3463 H 321.312 2.03085 -0.307511 0
M  V30 3464 H 319.542 3.39413 1.85299 0
M  V30 3465 H 321.231 3.72948 1.60201 0
M  V30 3466 H 321.997 4.80827 -0.634873 0
M  V30 3467 H 317.876 4.57476 0.568902 0
M  V30 3468 H 321.42 6.61464 -2.21611 0
M  V30 3469 H 317.317 6.37634 -1.00468 0
M  V30 3470 H 318.085 7.7841 -2.53023 0
M  V30 3471 N 320.748 -0.0735177 1.57428 0
M  V30 3472 C 321.973 -0.789787 1.91774 0
M  V30 3473 C 322.398 -1.70413 0.796306 0
M  V30 3474 O 321.756 -1.79555 -0.250961 0
M  V30 3475 C 321.804 -1.5609 3.25067 0
M  V30 3476 O 320.908 -2.67144 3.14178 0
M  V30 3477 H 320.249 -0.215582 0.628029 0
M  V30 3478 H 322.779 -0.0422781 2.04556 0
M  V30 3479 H 322.789 -1.94052 3.58898 0
M  V30 3480 H 321.464 -0.890015 4.06265 0
M  V30 3481 H 320.041 -2.32052 2.91901 0
M  V30 3482 N 322.226 -1.5378 -0.344866 0
M  V30 3483 C 323.159 -1.7649 -1.4466 0
M  V30 3484 C 324.137 -0.613954 -1.50563 0
M  V30 3485 O 325.321 -0.84896 -1.683 0
M  V30 3486 C 322.448 -1.86235 -2.82903 0
M  V30 3487 C 321.494 -3.08375 -2.94631 0
M  V30 3488 S 322.327 -4.67457 -2.61236 0
M  V30 3489 C 323.483 -4.80079 -4.0159 0
M  V30 3490 H 323.716 -2.69661 -1.2518 0
M  V30 3491 H 321.249 -1.44632 -0.540455 0
M  V30 3492 H 323.207 -1.92535 -3.62547 0
M  V30 3493 H 321.868 -0.940786 -2.9968 0
M  V30 3494 H 321.061 -3.11865 -3.95925 0
M  V30 3495 H 320.663 -3.00294 -2.22934 0
M  V30 3496 H 322.955 -4.61407 -4.96094 0
M  V30 3497 H 323.898 -5.82168 -4.03095 0
M  V30 3498 H 324.306 -4.08544 -3.89554 0
M  V30 3499 N 323.704 0.605807 -1.45491 0
M  V30 3500 C 324.944 1.37606 -1.51142 0
M  V30 3501 C 325.308 1.91413 -0.150075 0
M  V30 3502 O 326.509 2.68677 -0.0812828 0
M  V30 3503 C 324.78 2.49197 -2.56195 0
M  V30 3504 S 326.339 3.36953 -2.81083 0
M  V30 3505 H 323.157 0.469118 -0.534275 0
M  V30 3506 H 325.759 0.698845 -1.82583 0
M  V30 3507 H 324.463 2.0802 -3.53773 0
M  V30 3508 H 323.994 3.21717 -2.26411 0
M  V30 3509 H 326.009 4.47395 -2.14598 0
M  V30 3510 N 325.182 1.32811 0.848464 0
M  V30 3511 C 326.41 1.26739 1.63538 0
M  V30 3512 C 326.825 -0.163484 1.88091 0
M  V30 3513 O 326.182 -1.10258 1.45429 0
M  V30 3514 C 326.233 2.03013 2.99112 0
M  V30 3515 O 325.954 3.40518 2.75643 0
M  V30 3516 C 327.455 2.04038 3.93552 0
M  V30 3517 H 324.675 0.437024 0.509167 0
M  V30 3518 H 327.219 1.75033 1.05753 0
M  V30 3519 H 325.374 1.58426 3.53525 0
M  V30 3520 H 325.788 3.79635 3.61908 0
M  V30 3521 H 327.262 2.61877 4.85926 0
M  V30 3522 H 327.739 1.0282 4.26995 0
M  V30 3523 H 328.345 2.486 3.45077 0
M  V30 3524 N 326.66 -1.06551 1.16123 0
M  V30 3525 C 327.888 -1.83005 0.965237 0
M  V30 3526 C 328.303 -1.82423 -0.486542 0
M  V30 3527 O 327.66 -1.24152 -1.33763 0
M  V30 3528 C 327.711 -3.29733 1.48183 0
M  V30 3529 O 327.432 -3.30416 2.87674 0
M  V30 3530 C 328.933 -4.22926 1.32848 0
M  V30 3531 H 326.153 -0.577118 0.342309 0
M  V30 3532 H 328.697 -1.3445 1.54089 0
M  V30 3533 H 326.852 -3.75609 0.948517 0
M  V30 3534 H 327.266 -4.22149 3.11272 0
M  V30 3535 H 328.74 -5.23916 1.73827 0
M  V30 3536 H 329.217 -4.38346 0.273692 0
M  V30 3537 H 329.823 -3.82894 1.85127 0
M  V30 3538 N 328.138 -0.959301 -1.25041 0
M  V30 3539 C 329.384 -0.617525 -1.9317 0
M  V30 3540 C 329.717 0.843981 -1.74902 0
M  V30 3541 O 328.992 1.60615 -1.09696 0
M  V30 3542 C 329.275 -0.982736 -3.46431 0
M  V30 3543 C 329.128 -2.50032 -3.73904 0
M  V30 3544 C 330.447 -0.511176 -4.37121 0
M  V30 3545 H 327.566 -0.22582 -0.701552 0
M  V30 3546 H 330.208 -1.19679 -1.4757 0
M  V30 3547 H 328.358 -0.489806 -3.854 0
M  V30 3548 H 330.03 -3.06737 -3.44544 0
M  V30 3549 H 328.273 -2.93598 -3.19348 0
M  V30 3550 H 328.944 -2.70635 -4.81103 0
M  V30 3551 H 331.42 -0.934075 -4.0548 0
M  V30 3552 H 330.296 -0.795361 -5.43107 0
M  V30 3553 H 330.557 0.588834 -4.38161 0
M  V30 3554 N 329.616 1.39756 -0.72842 0
M  V30 3555 C 330.579 2.29012 -0.0927297 0
M  V30 3556 C 331.579 1.45992 0.674025 0
M  V30 3557 O 332.769 1.66749 0.50402 0
M  V30 3558 C 329.901 3.29396 0.878137 0
M  V30 3559 H 331.094 2.86729 -0.879011 0
M  V30 3560 H 328.647 1.48293 -0.493847 0
M  V30 3561 H 329.382 2.76722 1.69101 0
M  V30 3562 H 329.167 3.907 0.331051 0
M  V30 3563 H 330.657 3.96199 1.3197 0
M  V30 3564 N 331.094 0.475555 1.50254 0
M  V30 3565 C 332.027 -0.362381 2.25304 0
M  V30 3566 C 333.005 -0.992393 1.28803 0
M  V30 3567 O 334.189 -1.02746 1.58036 0
M  V30 3568 C 331.316 -1.50813 3.03271 0
M  V30 3569 C 330.362 -0.995044 4.1473 0
M  V30 3570 S 331.195 0.0938436 5.35418 0
M  V30 3571 C 332.351 -1.05567 6.16933 0
M  V30 3572 H 332.584 0.274686 2.96028 0
M  V30 3573 H 330.117 0.260495 1.52187 0
M  V30 3574 H 332.075 -2.16476 3.48781 0
M  V30 3575 H 330.736 -2.11672 2.32064 0
M  V30 3576 H 329.929 -1.85293 4.68703 0
M  V30 3577 H 329.531 -0.416052 3.71679 0
M  V30 3578 H 331.823 -1.96636 6.48337 0
M  V30 3579 H 332.766 -0.555109 7.05921 0
M  V30 3580 H 333.174 -1.31151 5.49053 0
M  V30 3581 N 332.573 -1.56217 0.208337 0
M  V30 3582 C 333.82 -1.97949 -0.42692 0
M  V30 3583 C 334.148 -1.09562 -1.60706 0
M  V30 3584 O 333.403 -0.137616 -1.95216 0
M  V30 3585 C 333.702 -3.45441 -0.916797 0
M  V30 3586 C 333.368 -4.50646 0.151391 0
M  V30 3587 C 332.03 -4.79139 0.444867 0
M  V30 3588 C 334.382 -5.13811 0.874492 0
M  V30 3589 C 331.71 -5.68084 1.46619 0
M  V30 3590 C 334.062 -6.03861 1.88506 0
M  V30 3591 C 332.726 -6.30704 2.18559 0
M  V30 3592 H 331.996 -0.724345 -0.156221 0
M  V30 3593 H 334.643 -1.89006 0.308084 0
M  V30 3594 H 332.948 -3.51521 -1.73032 0
M  V30 3595 H 334.645 -3.75094 -1.41794 0
M  V30 3596 H 331.235 -4.28511 -0.0875068 0
M  V30 3597 H 335.419 -4.91879 0.660996 0
M  V30 3598 H 330.675 -5.87151 1.7048 0
M  V30 3599 H 334.849 -6.51861 2.45051 0
M  V30 3600 H 332.476 -6.99424 2.97843 0
M  V30 3601 N 334.051 0.0651679 -1.57465 0
M  V30 3602 C 335.291 0.768329 -1.8941 0
M  V30 3603 C 335.655 1.74406 -0.802894 0
M  V30 3604 O 336.856 2.49281 -1.0056 0
M  V30 3605 C 335.127 1.45199 -3.26576 0
M  V30 3606 S 336.686 2.1893 -3.80283 0
M  V30 3607 H 333.504 0.255359 -0.663561 0
M  V30 3608 H 336.106 0.024167 -1.95485 0
M  V30 3609 H 334.81 0.728123 -4.03889 0
M  V30 3610 H 334.341 2.23545 -3.23715 0
M  V30 3611 H 336.356 3.45551 -3.56102 0
M  V30 3612 N 335.529 1.53961 0.336706 0
M  V30 3613 C 336.775 1.7179 1.07777 0
M  V30 3614 C 337.108 0.483263 1.88091 0
M  V30 3615 O 336.383 -0.519747 1.87427 0
M  V30 3616 C 336.666 2.98558 2.01334 0
M  V30 3617 C 336.519 4.32245 1.24437 0
M  V30 3618 C 337.838 3.21023 3.01052 0
M  V30 3619 H 334.957 0.625089 0.390426 0
M  V30 3620 H 337.599 1.86641 0.35567 0
M  V30 3621 H 335.749 2.86028 2.62908 0
M  V30 3622 H 337.421 4.56637 0.654243 0
M  V30 3623 H 335.664 4.30344 0.546458 0
M  V30 3624 H 336.335 5.17137 1.93063 0
M  V30 3625 H 338.811 3.32929 2.49595 0
M  V30 3626 H 337.687 4.11104 3.6371 0
M  V30 3627 H 337.948 2.37637 3.72802 0
M  V30 3628 N 337.007 -0.598083 1.45811 0
M  V30 3629 C 338.418 -1.18011 1.44673 0
M  V30 3630 C 338.769 -1.95378 0.179364 0
M  V30 3631 O 337.894 -2.04124 -0.718509 0
M  V30 3632 C 338.489 -2.14677 2.62105 0
M  V30 3633 C 337.048 -2.68236 2.64057 0
M  V30 3634 C 336.195 -1.43816 2.37091 0
M  V30 3635 H 339.146 -0.38686 1.53913 0
M  V30 3636 H 339.167 -2.97878 2.36746 0
M  V30 3637 H 338.679 -1.5834 3.5433 0
M  V30 3638 H 336.78 -3.28486 1.75864 0
M  V30 3639 H 336.893 -3.12021 3.63566 0
M  V30 3640 H 335.257 -1.731 1.86838 0
M  V30 3641 H 336.04 -0.893333 3.31473 0
M  V30 3642 N 338.485 -1.33259 -0.841409 0
M  V30 3643 C 339.415 -1.25926 -1.96634 0
M  V30 3644 C 340.396 -0.140349 -1.6952 0
M  V30 3645 O 341.581 -0.329707 -1.91381 0
M  V30 3646 C 338.711 -0.99512 -3.32738 0
M  V30 3647 C 337.665 -2.0767 -3.74242 0
M  V30 3648 C 336.991 -1.66474 -5.08125 0
M  V30 3649 C 338.291 -3.49318 -3.88297 0
M  V30 3650 H 339.985 -2.20046 -2.03027 0
M  V30 3651 H 337.531 -1.05931 -0.975425 0
M  V30 3652 H 339.484 -0.930323 -4.11002 0
M  V30 3653 H 338.208 -0.0183004 -3.26595 0
M  V30 3654 H 336.867 -2.13187 -2.98239 0
M  V30 3655 H 336.515 -0.675012 -4.9845 0
M  V30 3656 H 336.215 -2.3885 -5.36865 0
M  V30 3657 H 337.739 -1.61455 -5.88867 0
M  V30 3658 H 339.153 -3.46316 -4.56879 0
M  V30 3659 H 337.55 -4.20158 -4.28471 0
M  V30 3660 H 338.62 -3.8801 -2.9082 0
M  V30 3661 N 339.963 1.05934 -1.16686 0
M  V30 3662 C 341.209 1.79065 -0.95203 0
M  V30 3663 C 341.542 1.87147 0.518629 0
M  V30 3664 O 340.817 1.36574 1.38484 0
M  V30 3665 C 341.1 3.23359 -1.58464 0
M  V30 3666 C 340.953 3.23336 -3.12689 0
M  V30 3667 C 342.272 4.21004 -1.28232 0
M  V30 3668 H 339.391 0.65005 -0.34728 0
M  V30 3669 H 342.033 1.23868 -1.44072 0
M  V30 3670 H 340.183 3.70493 -1.16908 0
M  V30 3671 H 341.855 2.84336 -3.6325 0
M  V30 3672 H 340.098 2.61886 -3.4583 0
M  V30 3673 H 340.769 4.25144 -3.52075 0
M  V30 3674 H 343.245 3.8233 -1.64203 0
M  V30 3675 H 342.121 5.20225 -1.75092 0
M  V30 3676 H 342.382 4.41639 -0.201791 0
M  V30 3677 N 341.441 0.965919 1.2453 0
M  V30 3678 C 342.371 0.513476 2.27784 0
M  V30 3679 C 343.352 -0.445974 1.6415 0
M  V30 3680 O 344.537 -0.342485 1.91156 0
M  V30 3681 C 341.667 -0.198839 3.4673 0
M  V30 3682 C 340.621 0.676456 4.2262 0
M  V30 3683 C 339.947 -0.167248 5.34438 0
M  V30 3684 C 341.247 1.96017 4.84123 0
M  V30 3685 H 342.941 1.3765 2.65881 0
M  V30 3686 H 340.487 0.663321 1.27813 0
M  V30 3687 H 342.44 -0.526567 4.18097 0
M  V30 3688 H 341.164 -1.0962 3.07654 0
M  V30 3689 H 339.823 0.98743 3.53052 0
M  V30 3690 H 339.471 -1.0647 4.91603 0
M  V30 3691 H 339.171 0.415181 5.86131 0
M  V30 3692 H 340.695 -0.489688 6.08633 0
M  V30 3693 H 342.109 1.69814 5.47573 0
M  V30 3694 H 340.506 2.48918 5.4604 0
M  V30 3695 H 341.576 2.65622 4.05676 0
M  V30 3696 N 342.919 -1.39368 0.735821 0
M  V30 3697 C 344.168 -1.99733 0.281004 0
M  V30 3698 C 344.481 -1.59055 -1.13846 0
M  V30 3699 O 345.687 -2.12262 -1.69284 0
M  V30 3700 C 344.143 -3.57057 0.451462 0
M  V30 3701 C 343.751 -4.06697 1.87886 0
M  V30 3702 C 345.495 -4.2446 0.0584616 0
M  V30 3703 C 343.402 -5.56598 1.99883 0
M  V30 3704 H 342.332 -0.747163 0.101311 0
M  V30 3705 H 344.983 -1.59357 0.909819 0
M  V30 3706 H 343.365 -3.95234 -0.246263 0
M  V30 3707 H 344.539 -3.79853 2.60861 0
M  V30 3708 H 342.854 -3.5196 2.22515 0
M  V30 3709 H 345.451 -5.34549 0.127099 0
M  V30 3710 H 345.794 -4.04444 -0.986433 0
M  V30 3711 H 346.327 -3.9146 0.707374 0
M  V30 3712 H 343.066 -5.81494 3.02564 0
M  V30 3713 H 342.586 -5.85242 1.31346 0
M  V30 3714 H 344.265 -6.22022 1.78039 0
M  V30 3715 N 344.397 -0.483516 -1.5 0
M  V30 3716 C 345.327 0.293829 -2.31644 0
M  V30 3717 C 346.308 0.978864 -1.39112 0
M  V30 3718 O 347.493 0.973644 -1.68029 0
M  V30 3719 C 344.623 1.36897 -3.19181 0
M  V30 3720 C 343.577 0.804833 -4.20365 0
M  V30 3721 C 342.903 1.9792 -4.96721 0
M  V30 3722 C 344.203 -0.192313 -5.21946 0
M  V30 3723 H 345.897 -0.387616 -2.9688 0
M  V30 3724 H 343.443 -0.187856 -1.42769 0
M  V30 3725 H 345.396 1.92037 -3.751 0
M  V30 3726 H 344.12 2.07936 -2.51853 0
M  V30 3727 H 342.779 0.275319 -3.65565 0
M  V30 3728 H 342.427 2.67686 -4.25856 0
M  V30 3729 H 342.127 1.60789 -5.65173 0
M  V30 3730 H 343.651 2.53526 -5.55479 0
M  V30 3731 H 345.065 0.270333 -5.72662 0
M  V30 3732 H 343.462 -0.478543 -5.98189 0
M  V30 3733 H 344.532 -1.11409 -4.71928 0
M  V30 3734 N 345.875 1.56104 -0.216619 0
M  V30 3735 C 347.123 1.97781 0.415593 0
M  V30 3736 C 347.444 1.10536 1.60645 0
M  V30 3737 O 346.714 0.181303 1.95059 0
M  V30 3738 H 345.294 0.730415 0.156534 0
M  V30 3739 H 347.956 1.92445 -0.308366 0
M  V30 3740 H 347.052 3.03072 0.74525 0
M  V30 3741 N 347.353 -0.0568162 1.57498 0
M  V30 3742 C 348.593 -0.758273 1.89815 0
M  V30 3743 C 348.957 -1.73978 0.812132 0
M  V30 3744 O 350.158 -2.48744 1.01881 0
M  V30 3745 C 348.429 -1.43465 3.27342 0
M  V30 3746 S 349.988 -2.1691 3.81439 0
M  V30 3747 H 346.806 -0.251836 0.664906 0
M  V30 3748 H 349.408 -0.0137997 1.95495 0
M  V30 3749 H 348.112 -0.706693 4.0427 0
M  V30 3750 H 347.643 -2.21825 3.24896 0
M  V30 3751 H 349.658 -3.43658 3.5793 0
M  V30 3752 N 348.832 -1.54138 -0.328536 0
M  V30 3753 C 350.062 -1.75807 -1.08516 0
M  V30 3754 C 350.47 -0.50428 -1.82356 0
M  V30 3755 O 349.813 0.534451 -1.75754 0
M  V30 3756 C 349.875 -2.89423 -2.13248 0
M  V30 3757 C 349.539 -4.28504 -1.5885 0
M  V30 3758 C 350.536 -5.09536 -1.03289 0
M  V30 3759 C 348.221 -4.75034 -1.63243 0
M  V30 3760 C 350.215 -6.35206 -0.52845 0
M  V30 3761 C 347.902 -6.00672 -1.12411 0
M  V30 3762 C 348.9 -6.80592 -0.573062 0
M  V30 3763 O 348.588 -8.03867 -0.0723692 0
M  V30 3764 H 348.32 -0.590633 -0.328829 0
M  V30 3765 H 350.874 -2.01819 -0.381868 0
M  V30 3766 H 349.104 -2.5897 -2.87178 0
M  V30 3767 H 350.793 -2.98921 -2.74592 0
M  V30 3768 H 351.559 -4.74745 -0.99206 0
M  V30 3769 H 347.438 -4.12875 -2.05074 0
M  V30 3770 H 350.982 -6.97532 -0.0976774 0
M  V30 3771 H 346.879 -6.34955 -1.162 0
M  V30 3772 H 347.647 -8.18283 -0.188258 0
M  V30 3773 N 350.31 0.590341 -1.46126 0
M  V30 3774 C 351.558 1.34616 -1.50742 0
M  V30 3775 C 351.879 1.94363 -0.157486 0
M  V30 3776 O 351.149 1.78136 0.815136 0
M  V30 3777 H 349.729 0.499789 -0.555175 0
M  V30 3778 H 352.391 0.691953 -1.82203 0
M  V30 3779 H 351.487 2.15678 -2.25587 0
M  V30 3780 N 351.788 1.33704 0.83433 0
M  V30 3781 C 352.718 1.26967 1.95963 0
M  V30 3782 C 353.699 0.149337 1.69443 0
M  V30 3783 O 354.884 0.339852 1.91203 0
M  V30 3784 C 352.014 1.01275 3.32206 0
M  V30 3785 C 350.968 2.09652 3.73136 0
M  V30 3786 C 350.294 1.69166 5.07235 0
M  V30 3787 C 351.594 3.51372 3.86439 0
M  V30 3788 H 353.288 2.2112 2.01857 0
M  V30 3789 H 350.834 1.06447 0.969793 0
M  V30 3790 H 352.787 0.952106 4.10503 0
M  V30 3791 H 351.511 0.0356203 3.26581 0
M  V30 3792 H 350.17 2.14766 2.97104 0
M  V30 3793 H 349.818 0.701437 4.98085 0
M  V30 3794 H 349.518 2.41694 5.35591 0
M  V30 3795 H 351.042 1.64576 5.88003 0
M  V30 3796 H 352.456 3.48734 4.55036 0
M  V30 3797 H 350.853 4.22425 4.26236 0
M  V30 3798 H 351.923 3.89546 2.88759 0
M  V30 3799 N 353.266 -1.05314 1.17247 0
M  V30 3800 C 354.515 -1.77685 0.954521 0
M  V30 3801 C 354.828 -1.88616 -0.518025 0
M  V30 3802 O 356.034 -2.57714 -0.854144 0
M  V30 3803 C 354.49 -3.19402 1.65863 0
M  V30 3804 C 354.098 -3.16605 3.16963 0
M  V30 3805 C 355.842 -3.96237 1.52303 0
M  V30 3806 C 353.749 -4.53103 3.80068 0
M  V30 3807 H 352.679 -0.666 0.353496 0
M  V30 3808 H 355.33 -1.1805 1.40486 0
M  V30 3809 H 353.712 -3.79355 1.13602 0
M  V30 3810 H 354.886 -2.66176 3.76148 0
M  V30 3811 H 353.201 -2.53268 3.30521 0
M  V30 3812 H 355.798 -4.97157 1.96822 0
M  V30 3813 H 356.141 -4.136 0.473401 0
M  V30 3814 H 356.674 -3.42829 2.01775 0
M  V30 3815 H 353.413 -4.40946 4.85023 0
M  V30 3816 H 352.933 -5.03686 3.2567 0
M  V30 3817 H 354.612 -5.22045 3.82202 0
M  V30 3818 N 354.744 -0.972509 -1.24016 0
M  V30 3819 C 355.99 -0.637978 -1.92504 0
M  V30 3820 C 356.323 0.825383 -1.75787 0
M  V30 3821 O 355.598 1.59442 -1.11393 0
M  V30 3822 C 355.881 -1.01942 -3.45369 0
M  V30 3823 C 355.734 -2.53983 -3.71231 0
M  V30 3824 C 357.053 -0.55751 -4.36555 0
M  V30 3825 H 354.172 -0.233248 -0.699117 0
M  V30 3826 H 356.814 -1.21238 -1.46292 0
M  V30 3827 H 354.964 -0.530656 -3.84859 0
M  V30 3828 H 356.636 -3.10374 -3.41271 0
M  V30 3829 H 354.879 -2.96968 -3.16216 0
M  V30 3830 H 355.55 -2.75723 -4.78206 0
M  V30 3831 H 358.026 -0.977029 -4.04467 0
M  V30 3832 H 356.902 -0.85292 -5.42233 0
M  V30 3833 H 357.163 0.542328 -4.38761 0
M  V30 3834 N 356.222 1.38976 -0.743202 0
M  V30 3835 C 357.638 1.53984 -0.419664 0
M  V30 3836 C 357.838 1.70837 1.0685 0
M  V30 3837 O 356.894 1.7135 1.8546 0
M  V30 3838 C 358.207 2.75287 -1.20985 0
M  V30 3839 C 359.755 2.89129 -1.19889 0
M  V30 3840 C 360.23 4.13381 -1.97181 0
M  V30 3841 N 361.721 4.20437 -1.94389 0
M  V30 3842 C 362.456 5.15547 -2.50996 0
M  V30 3843 N 361.952 6.16395 -3.16274 0
M  V30 3844 N 363.745 5.07822 -2.40984 0
M  V30 3845 H 355.896 1.26285 -1.7078 0
M  V30 3846 H 358.159 0.612689 -0.723406 0
M  V30 3847 H 357.865 2.69204 -2.26323 0
M  V30 3848 H 357.739 3.68184 -0.819759 0
M  V30 3849 H 360.126 2.947 -0.153606 0
M  V30 3850 H 360.207 1.97272 -1.62841 0
M  V30 3851 H 359.851 4.08572 -3.01714 0
M  V30 3852 H 359.781 5.04298 -1.51629 0
M  V30 3853 H 362.272 3.48205 -1.46839 0
M  V30 3854 H 362.585 6.85443 -3.56915 0
M  V30 3855 H 360.93 6.16758 -3.20367 0
M  V30 3856 H 364.121 4.27973 -1.89622 0
M  V30 3857 H 364.294 5.81767 -2.85397 0
M  V30 3858 N 357.7 0.491464 1.49741 0
M  V30 3859 C 358.663 -0.280906 2.27472 0
M  V30 3860 C 359.663 -0.902454 1.33088 0
M  V30 3861 O 360.853 -0.768465 1.56334 0
M  V30 3862 C 357.985 -1.40209 3.10732 0
M  V30 3863 H 359.178 0.401056 2.97206 0
M  V30 3864 H 356.731 0.246131 1.5435 0
M  V30 3865 H 357.466 -2.11849 2.45541 0
M  V30 3866 H 357.251 -0.961969 3.80117 0
M  V30 3867 H 358.741 -1.9464 3.69466 0
M  V30 3868 N 359.178 -1.55987 0.224894 0
M  V30 3869 C 360.108 -2.23426 -0.678457 0
M  V30 3870 C 361.089 -1.20709 -1.19847 0
M  V30 3871 O 362.274 -1.49304 -1.24186 0
M  V30 3872 C 359.404 -2.91676 -1.88527 0
M  V30 3873 C 358.358 -4.00893 -1.49896 0
M  V30 3874 C 357.684 -4.56455 -2.78483 0
M  V30 3875 C 358.984 -5.17769 -0.686461 0
M  V30 3876 H 360.678 -2.99175 -0.116173 0
M  V30 3877 H 358.224 -1.43897 -0.054436 0
M  V30 3878 H 360.177 -3.37547 -2.5227 0
M  V30 3879 H 358.901 -2.1338 -2.47258 0
M  V30 3880 H 357.56 -3.55758 -0.884985 0
M  V30 3881 H 357.208 -3.74886 -3.35365 0
M  V30 3882 H 356.908 -5.30169 -2.53368 0
M  V30 3883 H 358.432 -5.05047 -3.43162 0
M  V30 3884 H 359.846 -5.60001 -1.22767 0
M  V30 3885 H 358.243 -5.97735 -0.532259 0
M  V30 3886 H 359.313 -4.83932 0.306196 0
M  V30 3887 N 360.656 0.0484629 -1.57525 0
M  V30 3888 C 361.905 0.742065 -1.87553 0
M  V30 3889 C 362.218 1.77545 -0.820802 0
M  V30 3890 O 363.424 2.52027 -1.00967 0
M  V30 3891 C 361.88 1.37081 -3.32771 0
M  V30 3892 C 361.488 0.374786 -4.4643 0
M  V30 3893 C 363.232 2.04542 -3.71972 0
M  V30 3894 C 361.139 1.01077 -5.82698 0
M  V30 3895 H 360.069 0.280903 -0.699721 0
M  V30 3896 H 362.72 -0.00411877 -1.835 0
M  V30 3897 H 361.102 2.16605 -3.31509 0
M  V30 3898 H 362.276 -0.392331 -4.59127 0
M  V30 3899 H 360.591 -0.196653 -4.15935 0
M  V30 3900 H 363.188 2.52943 -4.71088 0
M  V30 3901 H 363.531 2.85515 -3.02964 0
M  V30 3902 H 364.064 1.31819 -3.75325 0
M  V30 3903 H 360.803 0.240878 -6.55057 0
M  V30 3904 H 360.323 1.74819 -5.73758 0
M  V30 3905 H 362.002 1.52383 -6.28799 0
M  V30 3906 N 362.134 1.5431 0.320358 0
M  V30 3907 C 363.364 1.7638 1.07582 0
M  V30 3908 C 363.772 0.513944 1.82086 0
M  V30 3909 O 363.115 -0.525123 1.76035 0
M  V30 3910 C 363.177 2.9055 2.1171 0
M  V30 3911 C 362.841 4.2934 1.56575 0
M  V30 3912 C 363.838 5.10077 1.00586 0
M  V30 3913 C 361.523 4.75893 1.60722 0
M  V30 3914 C 363.517 6.35477 0.494756 0
M  V30 3915 C 361.204 6.0126 1.09224 0
M  V30 3916 C 362.202 6.80886 0.53696 0
M  V30 3917 O 361.89 8.03894 0.0297371 0
M  V30 3918 H 361.622 0.592369 0.325692 0
M  V30 3919 H 364.176 2.02019 0.37116 0
M  V30 3920 H 362.406 2.60489 2.85801 0
M  V30 3921 H 364.095 3.00373 2.73003 0
M  V30 3922 H 364.861 4.75265 0.966869 0
M  V30 3923 H 360.74 4.13957 2.02882 0
M  V30 3924 H 364.284 6.97574 0.0606842 0
M  V30 3925 H 360.181 6.35562 1.12831 0
M  V30 3926 H 360.949 8.18372 0.14486 0
M  V30 3927 N 363.613 -0.582584 1.46437 0
M  V30 3928 C 364.56 -1.69164 1.5701 0
M  V30 3929 C 365.53 -1.60847 0.414403 0
M  V30 3930 O 366.715 -1.80058 0.631171 0
M  V30 3931 C 363.855 -3.075 1.56646 0
M  V30 3932 C 362.968 -3.2644 2.82951 0
M  V30 3933 C 362.103 -4.55026 2.7409 0
M  V30 3934 C 361.142 -4.6731 3.95333 0
M  V30 3935 N 360.279 -5.87221 3.84858 0
M  V30 3936 H 365.119 -1.59464 2.51744 0
M  V30 3937 H 362.656 -0.777186 1.24893 0
M  V30 3938 H 364.614 -3.8757 1.5442 0
M  V30 3939 H 363.244 -3.16096 0.654439 0
M  V30 3940 H 362.296 -2.39974 2.95155 0
M  V30 3941 H 363.608 -3.31385 3.72808 0
M  V30 3942 H 362.762 -5.43324 2.6997 0
M  V30 3943 H 361.501 -4.52519 1.81873 0
M  V30 3944 H 360.506 -3.77429 3.99784 0
M  V30 3945 H 361.731 -4.71595 4.88646 0
M  V30 3946 H 359.677 -5.85712 2.95427 0
M  V30 3947 H 359.594 -5.93435 4.6837 0
M  V30 3948 H 360.862 -6.7795 3.84713 0
M  V30 3949 N 365.091 -1.34144 -0.827227 0
M  V30 3950 C 366.368 -1.16844 -1.56865 0
M  V30 3951 C 366.748 0.260654 -2.09485 0
M  V30 3952 O 366.096 1.26138 -1.9053 0
M  V30 3953 C 366.306 -2.21939 -2.6934 0
M  V30 3954 C 367.654 -2.56695 -3.3822 0
M  V30 3955 O 368.678 -2.20695 -2.79593 0
M  V30 3956 O 367.537 -3.18518 -4.44082 0
M  V30 3957 H 364.631 -0.452669 -0.692112 0
M  V30 3958 H 367.177 -1.45763 -0.868973 0
M  V30 3959 H 365.949 -3.17882 -2.28182 0
M  V30 3960 H 365.572 -1.94172 -3.46962 0
M  V30 3961 N 366.569 1.04691 -1.17803 0
M  V30 3962 C 367.499 2.14494 -0.92275 0
M  V30 3963 C 368.48 1.69546 0.137179 0
M  V30 3964 O 369.665 1.94195 -0.0141108 0
M  V30 3965 C 366.795 3.44491 -0.440803 0
M  V30 3966 C 365.749 4.03031 -1.4405 0
M  V30 3967 C 365.075 5.28432 -0.81631 0
M  V30 3968 C 366.375 4.39932 -2.81527 0
M  V30 3969 H 368.069 2.36107 -1.84103 0
M  V30 3970 H 365.615 1.1347 -0.886599 0
M  V30 3971 H 367.568 4.2066 -0.249602 0
M  V30 3972 H 366.292 3.22546 0.513025 0
M  V30 3973 H 364.951 3.28937 -1.61853 0
M  V30 3974 H 364.599 5.02792 0.144511 0
M  V30 3975 H 364.299 5.68559 -1.48371 0
M  V30 3976 H 365.823 6.07284 -0.635496 0
M  V30 3977 H 367.237 5.07113 -2.67412 0
M  V30 3978 H 365.634 4.9109 -3.44892 0
M  V30 3979 H 366.704 3.50045 -3.35554 0
M  V30 3980 N 368.047 0.979072 1.23499 0
M  V30 3981 C 369.324 0.563674 1.87302 0
M  V30 3982 C 369.704 -0.959199 1.88049 0
M  V30 3983 O 369.052 -1.83535 1.36114 0
M  V30 3984 C 369.262 1.16822 3.28867 0
M  V30 3985 C 370.61 1.26014 4.0547 0
M  V30 3986 O 371.634 1.12158 3.38082 0
M  V30 3987 O 370.493 1.48044 5.26066 0
M  V30 3988 H 367.587 0.189602 0.804972 0
M  V30 3989 H 370.133 1.07407 1.31384 0
M  V30 3990 H 368.905 2.21049 3.22883 0
M  V30 3991 H 368.528 0.642564 3.92373 0
M  V30 3992 N 369.525 -1.3858 0.750561 0
M  V30 3993 C 370.473 -2.32339 0.110162 0
M  V30 3994 C 371.467 -1.53864 -0.708674 0
M  V30 3995 O 372.673 -1.69417 -0.608112 0
M  V30 3996 H 369.048 -0.751812 0.0168275 0
M  V30 3997 H 371.019 -2.83959 0.917053 0
M  V30 3998 C 369.768 -3.39043 -0.771067 0
M  V30 3999 H 369.091 -3.99517 -0.150374 0
M  V30 4000 H 370.531 -4.07061 -1.1865 0
M  V30 4001 C 368.99 -2.77365 -1.91234 0
M  V30 4002 O 369.52 -2.66434 -3.00626 0
M  V30 4003 N 367.726 -2.35219 -1.70646 0
M  V30 4004 H 367.273 -2.4431 -0.81673 0
M  V30 4005 H 367.231 -1.94294 -2.47178 0
M  V30 4006 N 371.003 -0.499398 -1.49478 0
M  V30 4007 C 372.228 0.044722 -2.07352 0
M  V30 4008 C 372.653 1.30207 -1.35749 0
M  V30 4009 O 372.011 1.76516 -0.413732 0
M  V30 4010 C 372.059 0.283013 -3.59488 0
M  V30 4011 O 371.163 1.35804 -3.89398 0
M  V30 4012 H 370.504 -0.0255147 -0.66351 0
M  V30 4013 H 373.034 -0.698561 -1.92305 0
M  V30 4014 H 373.044 0.515007 -4.04737 0
M  V30 4015 H 371.719 -0.635636 -4.11014 0
M  V30 4016 H 370.296 1.11113 -3.55961 0
M  V30 4017 N 372.481 1.55866 -0.233164 0
M  V30 4018 C 373.892 1.847 0.272554 0
M  V30 4019 C 374.243 1.15477 1.58617 0
M  V30 4020 O 373.368 0.42841 2.12117 0
M  V30 4021 C 373.963 3.35071 0.501299 0
M  V30 4022 C 372.522 3.6418 0.951304 0
M  V30 4023 C 371.669 2.77292 0.0208209 0
M  V30 4024 H 374.62 1.52005 -0.456074 0
M  V30 4025 H 374.641 3.55906 1.34577 0
M  V30 4026 H 374.153 3.85424 -0.454936 0
M  V30 4027 H 372.254 3.19293 1.92049 0
M  V30 4028 H 372.367 4.72071 0.817675 0
M  V30 4029 H 370.731 2.49131 0.529723 0
M  V30 4030 H 371.514 3.30448 -0.93054 0
M  V30 4031 N 373.959 -0.0401083 1.57549 0
M  V30 4032 C 374.889 -1.04384 2.08869 0
M  V30 4033 C 375.87 -1.38407 0.988817 0
M  V30 4034 O 377.055 -1.47483 1.26342 0
M  V30 4035 C 374.185 -2.34808 2.55895 0
M  V30 4036 C 373.139 -2.15057 3.70047 0
M  V30 4037 C 372.465 -3.51145 4.03239 0
M  V30 4038 C 373.765 -1.54576 4.98902 0
M  V30 4039 H 375.459 -0.616666 2.92981 0
M  V30 4040 H 373.005 -0.295184 1.40942 0
M  V30 4041 H 374.958 -3.05346 2.90417 0
M  V30 4042 H 373.682 -2.79565 1.68853 0
M  V30 4043 H 372.341 -1.46954 3.35857 0
M  V30 4044 H 371.989 -3.93529 3.13279 0
M  V30 4045 H 371.689 -3.38758 4.80122 0
M  V30 4046 H 373.213 -4.23062 4.40285 0
M  V30 4047 H 374.627 -2.15017 5.31451 0
M  V30 4048 H 373.024 -1.52796 5.80322 0
M  V30 4049 H 374.094 -0.51039 4.82206 0
M  V30 4050 N 375.437 -1.54477 -0.31217 0
M  V30 4051 C 376.853 -1.45442 -0.657185 0
M  V30 4052 C 377.053 -0.63653 -1.91182 0
M  V30 4053 O 376.109 -0.139815 -2.52113 0
M  V30 4054 C 377.422 -2.89287 -0.82058 0
M  V30 4055 C 378.97 -2.9926 -0.917188 0
M  V30 4056 C 379.445 -4.44279 -1.11267 0
M  V30 4057 N 380.936 -4.4794 -1.17914 0
M  V30 4058 C 381.671 -5.57318 -1.34848 0
M  V30 4059 N 381.167 -6.76642 -1.48752 0
M  V30 4060 N 382.96 -5.44986 -1.37647 0
M  V30 4061 H 375.111 -2.06129 0.512313 0
M  V30 4062 H 377.374 -0.933088 0.167485 0
M  V30 4063 H 377.08 -3.51687 0.0302604 0
M  V30 4064 H 376.954 -3.36061 -1.71298 0
M  V30 4065 H 379.341 -2.36981 -1.75852 0
M  V30 4066 H 379.422 -2.558 -0.00101257 0
M  V30 4067 H 379.066 -5.07149 -0.27614 0
M  V30 4068 H 378.996 -4.85359 -2.04289 0
M  V30 4069 H 381.487 -3.61969 -1.08567 0
M  V30 4070 H 381.8 -7.55758 -1.61397 0
M  V30 4071 H 380.145 -6.79529 -1.45828 0
M  V30 4072 H 383.336 -4.50715 -1.26388 0
M  V30 4073 H 383.509 -6.3028 -1.50501 0
M  V30 4074 N 376.915 0.57481 -1.46744 0
M  V30 4075 C 378.331 0.898981 -1.31873 0
M  V30 4076 C 378.531 1.99313 -0.29605 0
M  V30 4077 O 377.587 2.50728 0.298621 0
M  V30 4078 C 378.9 1.30886 -2.7072 0
M  V30 4079 C 380.448 1.42127 -2.78871 0
M  V30 4080 C 380.923 1.86478 -4.18318 0
M  V30 4081 N 382.414 1.93658 -4.20774 0
M  V30 4082 C 383.149 2.29267 -5.2557 0
M  V30 4083 N 382.645 2.63612 -6.40688 0
M  V30 4084 N 384.438 2.29889 -5.1294 0
M  V30 4085 H 376.589 -0.147839 -2.11885 0
M  V30 4086 H 378.852 -0.00347013 -0.947994 0
M  V30 4087 H 378.558 0.578853 -3.46904 0
M  V30 4088 H 378.432 2.26874 -3.01343 0
M  V30 4089 H 380.819 2.14213 -2.0297 0
M  V30 4090 H 380.9 0.443705 -2.51922 0
M  V30 4091 H 380.544 1.14968 -4.94717 0
M  V30 4092 H 380.474 2.85207 -4.42679 0
M  V30 4093 H 382.965 1.69574 -3.37718 0
M  V30 4094 H 383.278 2.89759 -7.16421 0
M  V30 4095 H 381.623 2.61232 -6.44036 0
M  V30 4096 H 384.814 2.02485 -4.22039 0
M  V30 4097 H 384.987 2.57312 -5.94722 0
M  V30 4098 N 378.394 1.34581 0.820102 0
M  V30 4099 C 379.341 1.2639 1.93117 0
M  V30 4100 C 380.311 0.138554 1.65521 0
M  V30 4101 O 381.496 0.320004 1.88097 0
M  V30 4102 C 378.636 1.02812 3.29429 0
M  V30 4103 C 377.749 2.24146 3.693 0
M  V30 4104 C 376.884 1.93829 4.94574 0
M  V30 4105 C 375.923 3.1129 5.27034 0
M  V30 4106 N 375.06 2.80838 6.43486 0
M  V30 4107 H 379.9 2.21408 1.99455 0
M  V30 4108 H 377.437 1.10077 0.975784 0
M  V30 4109 H 379.395 0.871788 4.0799 0
M  V30 4110 H 378.025 0.114612 3.22596 0
M  V30 4111 H 377.077 2.50691 2.86109 0
M  V30 4112 H 378.389 3.11899 3.89257 0
M  V30 4113 H 377.543 1.74948 5.80929 0
M  V30 4114 H 376.282 1.03341 4.76626 0
M  V30 4115 H 375.287 3.30764 4.39175 0
M  V30 4116 H 376.512 4.02561 5.4692 0
M  V30 4117 H 374.458 1.92929 6.26988 0
M  V30 4118 H 374.375 3.62123 6.63629 0
M  V30 4119 H 375.643 2.65467 7.32903 0
M  V30 4120 N 379.872 -1.04064 1.18357 0
M  V30 4121 C 381.097 -1.81454 1.00445 0
M  V30 4122 C 381.522 -1.82823 -0.442423 0
M  V30 4123 O 380.88 -1.24555 -1.31741 0
M  V30 4124 C 380.928 -3.24925 1.56384 0
M  V30 4125 O 380.032 -4.04856 0.785209 0
M  V30 4126 H 379.373 -0.560604 0.355835 0
M  V30 4127 H 381.903 -1.31059 1.57114 0
M  V30 4128 H 381.913 -3.75702 1.59097 0
M  V30 4129 H 380.588 -3.23244 2.61699 0
M  V30 4130 H 379.165 -3.63537 0.830399 0
M  V30 4131 N 381.35 -0.985608 -1.22978 0
M  V30 4132 C 382.599 -0.652881 -1.90841 0
M  V30 4133 C 382.912 0.817842 -1.77681 0
M  V30 4134 O 384.118 1.26185 -2.40395 0
M  V30 4135 C 382.574 -1.11717 -3.42122 0
M  V30 4136 C 382.182 -2.6126 -3.63933 0
M  V30 4137 C 383.926 -0.85843 -4.1573 0
M  V30 4138 C 381.833 -3.0133 -5.08876 0
M  V30 4139 H 380.763 -0.240491 -0.714619 0
M  V30 4140 H 383.414 -1.1942 -1.39324 0
M  V30 4141 H 381.796 -0.504027 -3.92779 0
M  V30 4142 H 382.97 -3.27858 -3.23799 0
M  V30 4143 H 381.285 -2.84937 -3.03644 0
M  V30 4144 H 383.882 -1.13359 -5.22546 0
M  V30 4145 H 384.225 0.205461 -4.15793 0
M  V30 4146 H 384.758 -1.43341 -3.71077 0
M  V30 4147 H 381.497 -4.06864 -5.13947 0
M  V30 4148 H 381.017 -2.3943 -5.49939 0
M  V30 4149 H 382.696 -2.92224 -5.77247 0
M  V30 4150 N 382.828 1.3818 -0.7579 0
M  V30 4151 C 384.058 2.04004 -0.326463 0
M  V30 4152 C 384.466 1.57286 1.05156 0
M  V30 4153 O 383.809 0.743144 1.67997 0
M  V30 4154 C 383.871 3.58444 -0.275402 0
M  V30 4155 C 383.535 4.28237 -1.59569 0
M  V30 4156 C 384.532 4.53312 -2.54566 0
M  V30 4157 C 382.217 4.66341 -1.86631 0
M  V30 4158 C 384.211 5.15531 -3.74842 0
M  V30 4159 C 381.898 5.28283 -3.0718 0
M  V30 4160 C 382.896 5.52814 -4.01106 0
M  V30 4161 O 382.584 6.13465 -5.19534 0
M  V30 4162 H 382.316 0.662026 -0.136739 0
M  V30 4163 H 384.87 1.7777 -1.02893 0
M  V30 4164 H 383.1 3.83667 0.483337 0
M  V30 4165 H 384.789 4.05701 0.127099 0
M  V30 4166 H 385.555 4.24299 -2.34936 0
M  V30 4167 H 381.434 4.46591 -1.14358 0
M  V30 4168 H 384.978 5.34594 -4.48168 0
M  V30 4169 H 380.875 5.56719 -3.26702 0
M  V30 4170 H 381.643 6.31951 -5.20173 0
M  V30 4171 N 384.306 0.507319 1.49211 0
M  V30 4172 C 385.236 -0.256939 2.32082 0
M  V30 4173 C 386.217 -0.956609 1.40652 0
M  V30 4174 O 387.402 -0.946788 1.69557 0
M  V30 4175 C 384.532 -1.31802 3.21318 0
M  V30 4176 C 383.486 -0.737855 4.21592 0
M  V30 4177 C 382.812 -1.89992 4.99807 0
M  V30 4178 C 384.112 0.275325 5.21574 0
M  V30 4179 H 385.806 0.434798 2.96226 0
M  V30 4180 H 383.352 0.210546 1.42452 0
M  V30 4181 H 385.305 -1.86045 3.78107 0
M  V30 4182 H 384.029 -2.03903 2.5513 0
M  V30 4183 H 382.688 -0.217126 3.65956 0
M  V30 4184 H 382.336 -2.60877 4.30061 0
M  V30 4185 H 382.036 -1.51777 5.6766 0
M  V30 4186 H 383.56 -2.44657 5.59442 0
M  V30 4187 H 384.974 -0.179193 5.7302 0
M  V30 4188 H 383.371 0.573649 5.97352 0
M  V30 4189 H 384.441 1.18903 4.70096 0
M  V30 4190 N 385.784 -1.5574 0.241426 0
M  V30 4191 C 387.03 -1.99104 -0.385406 0
M  V30 4192 C 387.363 -1.1293 -1.57988 0
M  V30 4193 O 386.638 -0.191449 -1.93555 0
M  V30 4194 C 386.921 -3.51087 -0.800616 0
M  V30 4195 C 386.774 -4.48028 0.398874 0
M  V30 4196 C 388.093 -4.08015 -1.64959 0
M  V30 4197 H 385.212 -0.723848 -0.138614 0
M  V30 4198 H 387.854 -1.86903 0.341642 0
M  V30 4199 H 386.004 -3.61615 -1.4201 0
M  V30 4200 H 387.676 -4.49487 1.03726 0
M  V30 4201 H 385.919 -4.21077 1.04293 0
M  V30 4202 H 386.59 -5.51962 0.0651056 0
M  V30 4203 H 389.066 -4.00555 -1.12672 0
M  V30 4204 H 387.942 -5.14635 -1.90898 0
M  V30 4205 H 388.203 -3.56131 -2.61961 0
M  V30 4206 N 387.262 0.0317525 -1.57568 0
M  V30 4207 C 388.511 0.722131 -1.8833 0
M  V30 4208 C 388.824 1.76664 -0.839587 0
M  V30 4209 O 390.03 2.50942 -1.03635 0
M  V30 4210 C 388.486 1.33544 -3.34207 0
M  V30 4211 C 388.094 0.327415 -4.46802 0
M  V30 4212 C 389.838 2.00585 -3.7412 0
M  V30 4213 C 387.745 0.948915 -5.83738 0
M  V30 4214 H 386.675 0.273466 -0.702661 0
M  V30 4215 H 389.326 -0.0235811 -1.83485 0
M  V30 4216 H 387.708 2.13077 -3.33788 0
M  V30 4217 H 388.882 -0.441006 -4.58685 0
M  V30 4218 H 387.197 -0.240758 -4.15703 0
M  V30 4219 H 389.794 2.47932 -4.73744 0
M  V30 4220 H 390.137 2.82285 -3.05975 0
M  V30 4221 H 390.67 1.27831 -3.76702 0
M  V30 4222 H 387.409 0.171387 -6.55276 0
M  V30 4223 H 386.929 1.68724 -5.7558 0
M  V30 4224 H 388.608 1.45705 -6.3038 0
M  V30 4225 N 388.74 1.54641 0.303973 0
M  V30 4226 C 389.989 1.7299 1.03717 0
M  V30 4227 C 390.302 0.521168 1.88529 0
M  V30 4228 O 391.508 0.586408 2.65092 0
M  V30 4229 C 389.964 3.06051 1.89369 0
M  V30 4230 C 389.572 4.34393 1.09574 0
M  V30 4231 C 391.316 3.3376 2.62306 0
M  V30 4232 C 389.223 5.58506 1.94486 0
M  V30 4233 H 388.153 0.64473 0.390947 0
M  V30 4234 H 390.804 1.81124 0.294328 0
M  V30 4235 H 389.186 2.91874 2.67629 0
M  V30 4236 H 390.36 4.59396 0.359485 0
M  V30 4237 H 388.675 4.13597 0.482324 0
M  V30 4238 H 391.272 4.23687 3.26181 0
M  V30 4239 H 391.615 2.52503 3.3098 0
M  V30 4240 H 392.148 3.48894 1.91097 0
M  V30 4241 H 388.887 6.42422 1.30287 0
M  V30 4242 H 388.407 5.37694 2.65792 0
M  V30 4243 H 390.086 5.95651 2.52605 0
M  V30 4244 N 390.218 -0.567019 1.47046 0
M  V30 4245 C 391.464 -1.32658 1.53394 0
M  V30 4246 C 391.797 -1.93254 0.19148 0
M  V30 4247 O 391.072 -1.77338 -0.798844 0
M  V30 4248 C 391.355 -2.44412 2.64452 0
M  V30 4249 C 391.208 -1.88749 4.08282 0
M  V30 4250 C 392.527 -3.46387 2.71485 0
M  V30 4251 H 389.646 -0.48098 0.558415 0
M  V30 4252 H 392.288 -0.635481 1.79058 0
M  V30 4253 H 390.438 -3.03363 2.427 0
M  V30 4254 H 392.11 -1.34134 4.41368 0
M  V30 4255 H 390.353 -1.19481 4.17021 0
M  V30 4256 H 391.024 -2.69491 4.81745 0
M  V30 4257 H 393.5 -2.9734 2.91081 0
M  V30 4258 H 392.376 -4.2202 3.50985 0
M  V30 4259 H 392.637 -4.04616 1.78153 0
M  V30 4260 N 391.696 -1.35014 -0.812953 0
M  V30 4261 C 392.626 -1.30069 -1.93919 0
M  V30 4262 C 393.607 -0.176275 -1.69184 0
M  V30 4263 O 394.792 -0.370227 -1.90638 0
M  V30 4264 C 391.922 -1.06547 -3.30552 0
M  V30 4265 C 390.876 -2.15561 -3.69753 0
M  V30 4266 C 390.202 -1.77214 -5.04479 0
M  V30 4267 C 391.502 -3.57476 -3.808 0
M  V30 4268 H 393.196 -2.24303 -1.98314 0
M  V30 4269 H 390.742 -1.07977 -0.952736 0
M  V30 4270 H 392.695 -1.01729 -4.08937 0
M  V30 4271 H 391.419 -0.0875719 -3.26483 0
M  V30 4272 H 390.078 -2.19466 -2.9365 0
M  V30 4273 H 389.726 -0.780589 -4.96906 0
M  V30 4274 H 389.426 -2.50184 -5.31678 0
M  V30 4275 H 390.95 -1.7391 -5.8531 0
M  V30 4276 H 392.364 -3.55929 -4.4943 0
M  V30 4277 H 390.761 -4.29152 -4.19462 0
M  V30 4278 H 391.831 -3.94091 -2.82525 0
M  V30 4279 N 393.175 1.03435 -1.18907 0
M  V30 4280 C 394.403 1.80381 -1.01342 0
M  V30 4281 C 394.818 1.83649 0.438005 0
M  V30 4282 O 394.175 1.27655 1.30424 0
M  V30 4283 C 394.226 3.25689 -1.56873 0
M  V30 4284 O 393.947 3.22673 -2.96334 0
M  V30 4285 C 395.448 4.19255 -1.44014 0
M  V30 4286 H 392.668 0.56784 -0.35749 0
M  V30 4287 H 395.212 1.30317 -1.576 0
M  V30 4288 H 393.367 3.72962 -1.04777 0
M  V30 4289 H 393.781 4.13748 -3.22355 0
M  V30 4290 H 395.255 5.19123 -1.87657 0
M  V30 4291 H 395.732 4.37467 -0.389815 0
M  V30 4292 H 396.338 3.77851 -1.95214 0
M  V30 4293 N 394.653 0.992116 1.22453 0
M  V30 4294 C 395.899 0.668523 1.91464 0
M  V30 4295 C 396.232 -0.797313 1.77078 0
M  V30 4296 O 395.507 -1.5765 1.13916 0
M  V30 4297 C 395.79 1.07424 3.43703 0
M  V30 4298 C 395.643 2.59857 3.67143 0
M  V30 4299 C 396.962 0.626891 4.35612 0
M  V30 4300 H 394.081 0.244341 0.695318 0
M  V30 4301 H 396.723 1.2355 1.44345 0
M  V30 4302 H 394.873 0.591816 3.83966 0
M  V30 4303 H 396.545 3.15764 3.3629 0
M  V30 4304 H 394.788 3.01961 3.11451 0
M  V30 4305 H 395.459 2.83296 4.73759 0
M  V30 4306 H 397.935 1.04125 4.02861 0
M  V30 4307 H 396.811 0.939076 5.40807 0
M  V30 4308 H 397.072 -0.472457 4.39568 0
M  V30 4309 N 396.131 -1.37776 0.765217 0
M  V30 4310 C 397.378 -1.99849 0.326588 0
M  V30 4311 C 397.706 -1.60746 -1.09504 0
M  V30 4312 O 396.961 -0.84202 -1.76659 0
M  V30 4313 C 397.26 -3.5504 0.410053 0
M  V30 4314 C 396.926 -4.13891 1.78899 0
M  V30 4315 C 395.588 -4.29678 2.16635 0
M  V30 4316 C 397.94 -4.46236 2.69301 0
M  V30 4317 C 395.268 -4.7511 3.44221 0
M  V30 4318 C 397.62 -4.93089 3.9629 0
M  V30 4319 C 396.284 -5.07082 4.34078 0
M  V30 4320 H 395.554 -0.7313 0.119507 0
M  V30 4321 H 398.201 -1.64645 0.977968 0
M  V30 4322 H 396.506 -3.90451 -0.324878 0
M  V30 4323 H 398.203 -4.00966 0.0520699 0
M  V30 4324 H 394.793 -4.02026 1.48569 0
M  V30 4325 H 398.977 -4.3363 2.41409 0
M  V30 4326 H 394.233 -4.84129 3.73402 0
M  V30 4327 H 398.407 -5.17084 4.66472 0
M  V30 4328 H 396.034 -5.42046 5.33001 0
M  V30 4329 N 397.609 -0.515225 -1.4894 0
M  V30 4330 C 398.572 0.244681 -2.2789 0
M  V30 4331 C 399.572 0.881166 -1.34507 0
M  V30 4332 O 400.762 0.743497 -1.57537 0
M  V30 4333 C 397.894 1.35247 -3.12923 0
M  V30 4334 H 399.087 -0.448289 -2.96531 0
M  V30 4335 H 396.64 -0.270656 -1.53939 0
M  V30 4336 H 397.375 2.07916 -2.48881 0
M  V30 4337 H 397.16 0.901374 -3.81599 0
M  V30 4338 H 398.65 1.88737 -3.72516 0
M  V30 4339 N 399.087 1.5561 -0.249682 0
M  V30 4340 C 400.333 1.99306 0.374841 0
M  V30 4341 C 400.666 1.13767 1.57387 0
M  V30 4342 O 399.941 0.201711 1.93451 0
M  V30 4343 C 400.224 3.51507 0.781986 0
M  V30 4344 C 400.077 4.4781 -0.422629 0
M  V30 4345 C 401.396 4.08884 1.62793 0
M  V30 4346 H 398.515 0.724572 0.134773 0
M  V30 4347 H 401.157 1.86719 -0.351549 0
M  V30 4348 H 399.307 3.62363 1.4009 0
M  V30 4349 H 400.979 4.48931 -1.06108 0
M  V30 4350 H 399.222 4.20518 -1.06524 0
M  V30 4351 H 399.893 5.51919 -0.0943766 0
M  V30 4352 H 402.369 4.01147 1.10547 0
M  V30 4353 H 401.245 5.1564 1.88166 0
M  V30 4354 H 401.506 3.57515 2.60068 0
M  V30 4355 N 400.565 -0.0233959 1.57583 0
M  V30 4356 C 401.79 -0.728376 1.94189 0
M  V30 4357 C 402.215 -1.67793 0.850119 0
M  V30 4358 O 401.573 -1.80262 -0.19371 0
M  V30 4359 C 401.621 -1.45669 3.29868 0
M  V30 4360 O 400.725 -2.57013 3.22518 0
M  V30 4361 H 400.066 -0.195493 0.63457 0
M  V30 4362 H 402.596 0.0228214 2.04587 0
M  V30 4363 H 402.606 -1.82535 3.6489 0
M  V30 4364 H 401.281 -0.760314 4.08891 0
M  V30 4365 H 399.858 -2.22648 2.99136 0
M  V30 4366 N 402.043 -1.548 -0.295768 0
M  V30 4367 C 403.273 -1.78069 -1.04762 0
M  V30 4368 C 403.681 -0.542847 -1.81245 0
M  V30 4369 O 403.024 0.497051 -1.76848 0
M  V30 4370 C 403.086 -2.93881 -2.07061 0
M  V30 4371 C 402.75 -4.31777 -1.49725 0
M  V30 4372 C 403.747 -5.11613 -0.924581 0
M  V30 4373 C 401.432 -4.78389 -1.5313 0
M  V30 4374 C 403.426 -6.36184 -0.393594 0
M  V30 4375 C 401.113 -6.02921 -0.996447 0
M  V30 4376 C 402.111 -6.81654 -0.428569 0
M  V30 4377 O 401.799 -8.0384 0.0981593 0
M  V30 4378 H 401.531 -0.597475 -0.316226 0
M  V30 4379 H 404.085 -2.02584 -0.338973 0
M  V30 4380 H 402.315 -2.65003 -2.81621 0
M  V30 4381 H 404.004 -3.04679 -2.6819 0
M  V30 4382 H 404.77 -4.76743 -0.891136 0
M  V30 4383 H 400.649 -4.17132 -1.9627 0
M  V30 4384 H 404.193 -6.97582 0.0503014 0
M  V30 4385 H 400.09 -6.37277 -1.02706 0
M  V30 4386 H 400.858 -8.18499 -0.0146455 0
M  V30 4387 N 403.521 0.559213 -1.47345 0
M  V30 4388 C 404.77 1.31281 -1.53128 0
M  V30 4389 C 405.083 1.94602 -0.197344 0
M  V30 4390 O 406.289 2.71173 -0.133154 0
M  V30 4391 C 404.745 2.38051 -2.69925 0
M  V30 4392 C 404.353 1.8093 -4.0984 0
M  V30 4393 C 406.097 3.14604 -2.84999 0
M  V30 4394 C 404.004 2.85468 -5.1794 0
M  V30 4395 H 402.934 0.493614 -0.569966 0
M  V30 4396 H 405.585 0.594155 -1.73615 0
M  V30 4397 H 403.967 3.12822 -2.42814 0
M  V30 4398 H 405.141 1.12544 -4.46845 0
M  V30 4399 H 403.456 1.16967 -3.99634 0
M  V30 4400 H 406.053 3.92666 -3.62929 0
M  V30 4401 H 406.396 3.68665 -1.93369 0
M  V30 4402 H 406.929 2.46945 -3.1187 0
M  V30 4403 H 403.668 2.36264 -6.1144 0
M  V30 4404 H 403.188 3.52269 -4.85455 0
M  V30 4405 H 404.867 3.48996 -5.44803 0
M  V30 4406 N 404.999 1.35443 0.805782 0
M  V30 4407 C 406.41 1.25768 1.37983 0
M  V30 4408 C 406.761 -0.10958 1.95894 0
M  V30 4409 O 405.886 -1.01056 1.91355 0
M  V30 4410 C 406.481 2.27727 2.5085 0
M  V30 4411 C 405.04 2.2179 3.04115 0
M  V30 4412 C 404.187 2.13393 1.77084 0
M  V30 4413 H 407.138 1.4656 0.608752 0
M  V30 4414 H 407.159 1.90422 3.29424 0
M  V30 4415 H 406.671 3.27227 2.08671 0
M  V30 4416 H 404.772 1.25703 3.50756 0
M  V30 4417 H 404.885 3.13788 3.62042 0
M  V30 4418 H 403.249 1.59384 1.98668 0
M  V30 4419 H 404.032 3.14755 1.37056 0
M  V30 4420 N 406.477 -1.02803 1.19454 0
M  V30 4421 C 407.724 -1.76217 0.997693 0
M  V30 4422 C 408.052 -1.887 -0.47144 0
M  V30 4423 O 407.307 -1.4011 -1.3663 0
M  V30 4424 C 407.606 -3.18941 1.6128 0
M  V30 4425 C 407.272 -3.26463 3.11019 0
M  V30 4426 C 405.934 -3.28223 3.51885 0
M  V30 4427 C 408.286 -3.25542 4.07028 0
M  V30 4428 C 405.614 -3.26719 4.8731 0
M  V30 4429 C 407.966 -3.25579 5.42385 0
M  V30 4430 C 406.63 -3.25637 5.82681 0
M  V30 4431 H 405.9 -0.644823 0.365082 0
M  V30 4432 H 408.547 -1.20655 1.4871 0
M  V30 4433 H 406.852 -3.77587 1.04572 0
M  V30 4434 H 408.549 -3.74415 1.43577 0
M  V30 4435 H 405.139 -3.25822 2.78457 0
M  V30 4436 H 409.323 -3.23362 3.76498 0
M  V30 4437 H 404.579 -3.25089 5.1781 0
M  V30 4438 H 408.753 -3.23817 6.16535 0
M  V30 4439 H 406.38 -3.24226 6.87591 0
M  V30 4440 N 407.956 -0.998596 -1.21925 0
M  V30 4441 C 408.906 -0.524743 -2.21879 0
M  V30 4442 C 409.89 0.41017 -1.55584 0
M  V30 4443 O 411.082 0.236063 -1.75419 0
M  V30 4444 C 408.211 0.153636 -3.42956 0
M  V30 4445 C 407.297 -0.801918 -4.16449 0
M  V30 4446 N 407.688 -1.95211 -4.66611 0
M  V30 4447 C 405.986 -0.618972 -4.41684 0
M  V30 4448 C 406.687 -2.55234 -5.22715 0
M  V30 4449 N 405.663 -1.83451 -5.1171 0
M  V30 4450 H 409.465 -1.40189 -2.58311 0
M  V30 4451 H 406.979 -0.86159 -1.3766 0
M  V30 4452 H 408.976 0.510534 -4.13762 0
M  V30 4453 H 407.636 1.02684 -3.08036 0
M  V30 4454 H 408.647 -2.33271 -4.62391 0
M  V30 4455 H 405.324 0.207694 -4.16983 0
M  V30 4456 H 406.714 -3.52471 -5.72026 0
M  V30 4457 N 409.434 1.37368 -0.772513 0
M  V30 4458 C 410.68 1.99969 -0.337681 0
M  V30 4459 C 411.013 1.61184 1.08321 0
M  V30 4460 O 410.288 0.858395 1.74533 0
M  V30 4461 C 410.571 3.56858 -0.482121 0
M  V30 4462 C 410.424 4.0555 -1.94549 0
M  V30 4463 C 411.743 4.39955 0.113143 0
M  V30 4464 H 408.862 0.726464 -0.124171 0
M  V30 4465 H 411.504 1.63034 -0.975699 0
M  V30 4466 H 409.654 3.88452 0.0610361 0
M  V30 4467 H 411.326 3.84518 -2.54841 0
M  V30 4468 H 409.569 3.57715 -2.45403 0
M  V30 4469 H 410.24 5.14587 -1.9976 0
M  V30 4470 H 412.716 4.14623 -0.35031 0
M  V30 4471 H 411.592 5.48897 -0.0180514 0
M  V30 4472 H 411.853 4.25403 1.20354 0
M  V30 4473 N 410.912 0.523116 1.48665 0
M  V30 4474 C 411.845 -0.290518 2.26343 0
M  V30 4475 C 412.823 -0.950913 1.31895 0
M  V30 4476 O 414.007 -0.976662 1.61225 0
M  V30 4477 C 411.134 -1.41088 3.07915 0
M  V30 4478 C 410.18 -0.862597 4.17686 0
M  V30 4479 S 411.013 0.264135 5.34848 0
M  V30 4480 C 412.169 -0.858864 6.19979 0
M  V30 4481 H 412.402 0.368726 2.95005 0
M  V30 4482 H 409.935 0.30878 1.51281 0
M  V30 4483 H 411.893 -2.0527 3.55492 0
M  V30 4484 H 410.554 -2.04182 2.38681 0
M  V30 4485 H 409.747 -1.70287 4.74361 0
M  V30 4486 H 409.349 -0.297595 3.72814 0
M  V30 4487 H 411.641 -1.7591 6.54264 0
M  V30 4488 H 412.584 -0.330244 7.07329 0
M  V30 4489 H 412.992 -1.13617 5.52948 0
M  V30 4490 N 412.39 -1.55475 0.257931 0
M  V30 4491 C 413.337 -2.21837 -0.636939 0
M  V30 4492 C 414.307 -1.18596 -1.16294 0
M  V30 4493 O 415.492 -1.47081 -1.21539 0
M  V30 4494 C 412.632 -2.9301 -1.82317 0
M  V30 4495 C 411.745 -4.10931 -1.33265 0
M  V30 4496 C 410.88 -4.69791 -2.47931 0
M  V30 4497 C 409.919 -5.7994 -1.95796 0
M  V30 4498 N 409.056 -6.32935 -3.0387 0
M  V30 4499 H 413.896 -2.9793 -0.0643591 0
M  V30 4500 H 411.433 -1.47086 -0.0200031 0
M  V30 4501 H 413.391 -3.3248 -2.52018 0
M  V30 4502 H 412.021 -2.1937 -2.36805 0
M  V30 4503 H 411.073 -3.76699 -0.52931 0
M  V30 4504 H 412.385 -4.90417 -0.910654 0
M  V30 4505 H 411.539 -5.11892 -3.25656 0
M  V30 4506 H 410.278 -3.89545 -2.93438 0
M  V30 4507 H 409.283 -5.37305 -1.16546 0
M  V30 4508 H 410.508 -6.62043 -1.51246 0
M  V30 4509 H 408.454 -5.55591 -3.48791 0
M  V30 4510 H 408.371 -7.07645 -2.66035 0
M  V30 4511 H 409.639 -6.79695 -3.81621 0
M  V30 4512 N 413.868 0.0150385 -1.57593 0
M  V30 4513 C 415.096 0.714395 -1.94175 0
M  V30 4514 C 415.511 1.68135 -0.858841 0
M  V30 4515 O 414.868 1.81766 0.163567 0
M  V30 4516 C 414.919 1.45933 -3.30735 0
M  V30 4517 O 414.64 0.531167 -4.34868 0
M  V30 4518 C 416.141 2.25456 -3.81686 0
M  V30 4519 H 413.361 0.199923 -0.640525 0
M  V30 4520 H 415.905 -0.0316096 -2.04476 0
M  V30 4521 H 414.06 2.15709 -3.21789 0
M  V30 4522 H 414.474 1.05509 -5.13778 0
M  V30 4523 H 415.948 2.731 -4.79709 0
M  V30 4524 H 416.425 3.07485 -3.13607 0
M  V30 4525 H 417.031 1.60727 -3.9376 0
M  V30 4526 N 415.346 1.54954 0.287554 0
M  V30 4527 C 416.279 1.81737 1.3801 0
M  V30 4528 C 417.257 0.669412 1.48181 0
M  V30 4529 O 418.441 0.910839 1.65033 0
M  V30 4530 C 415.568 1.96606 2.75796 0
M  V30 4531 C 414.614 3.19098 2.82982 0
M  V30 4532 S 415.447 4.7683 2.43707 0
M  V30 4533 C 416.603 4.94653 3.83496 0
M  V30 4534 H 416.836 2.74122 1.15085 0
M  V30 4535 H 414.369 1.46538 0.486403 0
M  V30 4536 H 416.327 2.05858 3.55152 0
M  V30 4537 H 414.988 1.05136 2.95982 0
M  V30 4538 H 414.181 3.26344 3.84077 0
M  V30 4539 H 413.783 3.08361 2.11635 0
M  V30 4540 H 416.075 4.79502 4.78628 0
M  V30 4541 H 417.018 5.96728 3.8121 0
M  V30 4542 H 417.426 4.2272 3.74123 0
M  V30 4543 N 416.824 -0.551391 1.4764 0
M  V30 4544 C 417.772 -1.67896 1.60978 0
M  V30 4545 C 418.766 -1.62549 0.476877 0
M  V30 4546 O 419.972 -1.67664 0.654878 0
M  V30 4547 H 416.347 -0.555649 0.506713 0
M  V30 4548 H 418.318 -1.53784 2.55721 0
M  V30 4549 C 417.067 -3.06234 1.64669 0
M  V30 4550 H 416.39 -3.11033 2.51194 0
M  V30 4551 H 417.83 -3.84804 1.7805 0
M  V30 4552 C 416.289 -3.34737 0.381115 0
M  V30 4553 O 416.819 -3.98381 -0.515297 0
M  V30 4554 N 415.025 -2.8944 0.259354 0
M  V30 4555 H 414.572 -2.37827 0.98976 0
M  V30 4556 H 414.53 -3.08882 -0.586464 0
M  V30 4557 N 418.302 -1.35869 -0.798587 0
M  V30 4558 C 419.232 -1.32118 -1.92528 0
M  V30 4559 C 420.213 -0.194209 -1.68988 0
M  V30 4560 O 421.398 -0.390426 -1.90235 0
M  V30 4561 C 418.528 -1.10047 -3.29404 0
M  V30 4562 C 417.482 -2.19471 -3.67446 0
M  V30 4563 C 416.808 -1.82555 -5.02571 0
M  V30 4564 C 418.108 -3.61495 -3.76987 0
M  V30 4565 H 419.802 -2.26394 -1.95924 0
M  V30 4566 H 417.348 -1.08981 -0.94123 0
M  V30 4567 H 419.301 -1.06061 -4.07835 0
M  V30 4568 H 418.025 -0.122195 -3.26371 0
M  V30 4569 H 416.684 -2.22568 -2.91306 0
M  V30 4570 H 416.332 -0.833249 -4.9605 0
M  V30 4571 H 416.032 -2.5581 -5.28995 0
M  V30 4572 H 417.556 -1.80108 -5.83432 0
M  V30 4573 H 418.97 -3.60676 -4.4563 0
M  V30 4574 H 417.367 -4.33577 -4.14887 0
M  V30 4575 H 418.437 -3.97065 -2.78329 0
M  V30 4576 N 419.78 1.02168 -1.19998 0
M  V30 4577 C 421.196 1.27969 -0.953737 0
M  V30 4578 C 421.396 1.98079 0.369703 0
M  V30 4579 O 420.452 2.27306 1.09947 0
M  V30 4580 C 421.765 2.11971 -2.13281 0
M  V30 4581 C 423.313 2.25255 -2.17323 0
M  V30 4582 C 423.788 3.12632 -3.34702 0
M  V30 4583 N 425.279 3.2022 -3.34684 0
M  V30 4584 C 426.014 3.88039 -4.22153 0
M  V30 4585 N 425.51 4.58027 -5.19791 0
M  V30 4586 N 427.303 3.84511 -4.10009 0
M  V30 4587 H 419.454 0.550794 -2.05134 0
M  V30 4588 H 421.717 0.305683 -0.897364 0
M  V30 4589 H 421.423 1.67785 -3.09097 0
M  V30 4590 H 421.297 3.12699 -2.10949 0
M  V30 4591 H 423.684 2.68667 -1.22073 0
M  V30 4592 H 423.765 1.24053 -2.23706 0
M  V30 4593 H 423.409 2.69926 -4.30235 0
M  V30 4594 H 423.339 4.13909 -3.25556 0
M  V30 4595 H 425.83 2.70382 -2.64012 0
M  V30 4596 H 426.143 5.07429 -5.82868 0
M  V30 4597 H 424.488 4.56869 -5.23733 0
M  V30 4598 H 427.679 3.28978 -3.33003 0
M  V30 4599 H 427.852 4.3709 -4.78389 0
M  V30 4600 N 421.258 1.00505 1.21394 0
M  V30 4601 C 422.221 0.570459 2.21987 0
M  V30 4602 C 423.221 -0.353211 1.56873 0
M  V30 4603 O 424.411 -0.14349 1.73608 0
M  V30 4604 C 421.543 -0.168555 3.40483 0
M  V30 4605 H 422.736 1.46021 2.6195 0
M  V30 4606 H 420.289 0.793565 1.34656 0
M  V30 4607 H 421.024 -1.07374 3.06009 0
M  V30 4608 H 420.809 0.494823 3.88965 0
M  V30 4609 H 422.299 -0.460362 4.15055 0
M  V30 4610 N 422.737 -1.36956 0.779787 0
M  V30 4611 C 424.153 -1.52817 0.460342 0
M  V30 4612 C 424.353 -1.7361 -1.02283 0
M  V30 4613 O 423.409 -1.76207 -1.80852 0
M  V30 4614 C 424.722 -2.71983 1.28241 0
M  V30 4615 C 426.27 -2.85849 1.27512 0
M  V30 4616 C 426.745 -4.08008 2.08072 0
M  V30 4617 N 428.236 -4.15135 2.05467 0
M  V30 4618 C 428.971 -5.08711 2.64577 0
M  V30 4619 N 428.467 -6.07792 3.32506 0
M  V30 4620 N 430.26 -5.01254 2.54363 0
M  V30 4621 H 422.411 -1.21713 1.74068 0
M  V30 4622 H 424.674 -0.593294 0.739396 0
M  V30 4623 H 424.38 -2.63109 2.33381 0
M  V30 4624 H 424.254 -3.65882 0.917088 0
M  V30 4625 H 426.641 -2.94189 0.231686 0
M  V30 4626 H 426.722 -1.92886 1.68014 0
M  V30 4627 H 426.366 -4.00429 3.12441 0
M  V30 4628 H 426.296 -5.001 1.64947 0
M  V30 4629 H 428.787 -3.44189 1.5602 0
M  V30 4630 H 429.1 -6.75739 3.74963 0
M  V30 4631 H 427.445 -6.08047 3.36606 0
M  V30 4632 H 430.636 -4.22795 2.00902 0
M  V30 4633 H 430.809 -5.73995 3.00722 0
M  V30 4634 N 424.215 -0.530993 -1.48385 0
M  V30 4635 C 425.145 0.219985 -2.32461 0
M  V30 4636 C 426.126 0.934111 -1.42156 0
M  V30 4637 O 427.311 0.919694 -1.71042 0
M  V30 4638 C 424.441 1.26674 -3.23375 0
M  V30 4639 C 423.395 0.67069 -4.22712 0
M  V30 4640 C 422.721 1.82017 -5.02766 0
M  V30 4641 C 424.021 -0.358268 -5.2107 0
M  V30 4642 H 425.715 -0.48187 -2.95497 0
M  V30 4643 H 423.261 -0.233182 -1.42099 0
M  V30 4644 H 425.214 1.80006 -3.81019 0
M  V30 4645 H 423.938 1.99818 -2.58341 0
M  V30 4646 H 422.597 0.158878 -3.66256 0
M  V30 4647 H 422.245 2.54002 -4.34157 0
M  V30 4648 H 421.945 1.42727 -5.70003 0
M  V30 4649 H 423.469 2.35725 -5.63264 0
M  V30 4650 H 424.883 0.0880081 -5.73232 0
M  V30 4651 H 423.28 -0.66861 -5.96364 0
M  V30 4652 H 424.35 -1.26367 -4.68145 0
M  V30 4653 N 425.693 1.55336 -0.266172 0
M  V30 4654 C 426.97 1.91372 0.404486 0
M  V30 4655 C 427.35 1.18935 1.74407 0
M  V30 4656 O 426.698 0.3132 2.26343 0
M  V30 4657 C 426.908 3.44581 0.553593 0
M  V30 4658 C 428.256 4.16196 0.840618 0
M  V30 4659 O 429.28 3.50426 0.638739 0
M  V30 4660 O 428.139 5.32567 1.22618 0
M  V30 4661 H 425.233 0.797194 0.220025 0
M  V30 4662 H 427.779 1.66813 -0.311664 0
M  V30 4663 H 426.551 3.89357 -0.389498 0
M  V30 4664 H 426.174 3.75065 1.31955 0
M  V30 4665 N 427.171 -0.0066808 1.57599 0
M  V30 4666 C 428.418 -0.69292 1.90276 0
M  V30 4667 C 428.746 -1.74148 0.866192 0
M  V30 4668 O 428.001 -1.95268 -0.129933 0
M  V30 4669 C 428.3 -1.37939 3.29708 0
M  V30 4670 C 427.966 -0.464679 4.48499 0
M  V30 4671 C 426.628 -0.212809 4.80729 0
M  V30 4672 C 428.98 0.16551 5.20937 0
M  V30 4673 C 426.308 0.677653 5.82773 0
M  V30 4674 C 428.66 1.04381 6.23929 0
M  V30 4675 C 427.324 1.30492 6.54621 0
M  V30 4676 H 426.594 -0.253558 0.696268 0
M  V30 4677 H 429.241 0.0474123 1.91441 0
M  V30 4678 H 427.546 -2.1936 3.24636 0
M  V30 4679 H 429.243 -1.9163 3.52249 0
M  V30 4680 H 425.833 -0.671153 4.23313 0
M  V30 4681 H 430.017 -0.0160756 4.96297 0
M  V30 4682 H 425.273 0.88803 6.04917 0
M  V30 4683 H 429.447 1.53851 6.79193 0
M  V30 4684 H 427.074 1.99662 7.33512 0
M  V30 4685 N 428.649 -1.55105 -0.279332 0
M  V30 4686 C 429.581 -1.83952 -1.36727 0
M  V30 4687 C 430.594 -0.723642 -1.45833 0
M  V30 4688 O 431.783 -1.00141 -1.47763 0
M  V30 4689 C 428.883 -1.98183 -2.74912 0
M  V30 4690 C 428.056 -3.28787 -2.88475 0
M  V30 4691 C 427.115 -3.33162 -4.07295 0
M  V30 4692 O 426.141 -4.06576 -3.98353 0
M  V30 4693 N 427.343 -2.60109 -5.18964 0
M  V30 4694 H 430.108 -2.77853 -1.12328 0
M  V30 4695 H 427.669 -1.54945 -0.469442 0
M  V30 4696 H 429.661 -1.98488 -3.52682 0
M  V30 4697 H 428.231 -1.11177 -2.92162 0
M  V30 4698 H 427.451 -3.41075 -1.97641 0
M  V30 4699 H 428.739 -4.14933 -2.94463 0
M  V30 4700 H 428.137 -2.00136 -5.29115 0
M  V30 4701 H 426.694 -2.66143 -5.94988 0
M  V30 4702 N 430.127 0.543554 -1.4793 0
M  V30 4703 C 431.355 1.32516 -1.58894 0
M  V30 4704 C 431.77 1.87215 -0.244131 0
M  V30 4705 O 431.127 1.65709 0.764652 0
M  V30 4706 C 431.178 2.48554 -2.62494 0
M  V30 4707 O 430.899 1.96112 -3.91755 0
M  V30 4708 C 432.4 3.40572 -2.8377 0
M  V30 4709 H 429.62 0.403472 -0.536145 0
M  V30 4710 H 432.164 0.657106 -1.93655 0
M  V30 4711 H 430.319 3.1127 -2.30629 0
M  V30 4712 H 430.733 2.71967 -4.4848 0
M  V30 4713 H 432.207 4.18375 -3.60093 0
M  V30 4714 H 432.684 3.94965 -1.92092 0
M  V30 4715 H 433.29 2.8366 -3.16887 0
M  V30 4716 N 431.605 1.3629 0.791371 0
M  V30 4717 C 433.016 1.27225 1.36641 0
M  V30 4718 C 433.367 -0.0887968 1.95999 0
M  V30 4719 O 432.492 -0.990207 1.92416 0
M  V30 4720 C 433.087 2.30375 2.48421 0
M  V30 4721 C 431.646 2.25004 3.01746 0
M  V30 4722 C 430.793 2.15259 1.7481 0
M  V30 4723 H 433.744 1.47198 0.593173 0
M  V30 4724 H 433.765 1.93905 3.27385 0
M  V30 4725 H 433.277 3.29422 2.05189 0
M  V30 4726 H 431.378 1.29417 3.49403 0
M  V30 4727 H 431.491 3.1761 3.58693 0
M  V30 4728 H 429.855 1.61482 1.96966 0
M  V30 4729 H 430.638 3.16191 1.33709 0
M  V30 4730 N 433.083 -1.0153 1.20538 0
M  V30 4731 C 434.046 -2.0826 0.957098 0
M  V30 4732 C 435.046 -1.60657 -0.0678655 0
M  V30 4733 O 436.236 -1.73385 0.168332 0
M  V30 4734 C 433.368 -3.38033 0.441188 0
M  V30 4735 H 434.561 -2.31719 1.90384 0
M  V30 4736 H 432.114 -1.1835 1.02093 0
M  V30 4737 H 432.849 -3.20249 -0.510961 0
M  V30 4738 H 432.634 -3.73911 1.18038 0
M  V30 4739 H 434.124 -4.16613 0.287009 0
M  V30 4740 N 434.561 -1.01147 -1.20859 0
M  V30 4741 C 435.494 -0.522108 -2.22147 0
M  V30 4742 C 436.472 0.427686 -1.56874 0
M  V30 4743 O 437.656 0.34889 -1.85243 0
M  V30 4744 C 434.783 0.240819 -3.37843 0
M  V30 4745 C 433.829 -0.657752 -4.21398 0
M  V30 4746 S 434.662 -2.12393 -4.91578 0
M  V30 4747 C 435.818 -1.37102 -6.10699 0
M  V30 4748 H 436.051 -1.38035 -2.63313 0
M  V30 4749 H 433.584 -0.819941 -1.30829 0
M  V30 4750 H 435.542 0.674908 -4.04914 0
M  V30 4751 H 434.203 1.07457 -2.95147 0
M  V30 4752 H 433.396 -0.0697456 -5.03952 0
M  V30 4753 H 432.998 -1.0294 -3.59555 0
M  V30 4754 H 435.29 -0.648315 -6.74391 0
M  V30 4755 H 436.233 -2.17252 -6.73949 0
M  V30 4756 H 436.641 -0.876154 -5.57659 0
M  V30 4757 N 436.039 1.36541 -0.78704 0
M  V30 4758 C 437.279 2.01138 -0.363714 0
M  V30 4759 C 437.643 1.61114 1.04433 0
M  V30 4760 O 438.844 2.18285 1.56861 0
M  V30 4761 C 437.115 3.53603 -0.519582 0
M  V30 4762 S 438.674 4.38415 -0.183782 0
M  V30 4763 H 435.492 0.697263 -0.13909 0
M  V30 4764 H 438.094 1.66475 -1.02501 0
M  V30 4765 H 436.798 3.8022 -1.5447 0
M  V30 4766 H 436.329 3.93084 0.15773 0
M  V30 4767 H 438.344 4.85698 1.01547 0
M  V30 4768 N 437.518 0.538854 1.48102 0
M  V30 4769 C 438.481 -0.208395 2.28251 0
M  V30 4770 C 439.481 -0.859656 1.35892 0
M  V30 4771 O 440.671 -0.71834 1.58699 0
M  V30 4772 C 437.803 -1.30252 3.15035 0
M  V30 4773 H 438.996 0.495407 2.9578 0
M  V30 4774 H 436.549 0.295112 1.53489 0
M  V30 4775 H 437.284 -2.0393 2.52157 0
M  V30 4776 H 437.069 -0.840551 3.82985 0
M  V30 4777 H 438.559 -1.82787 3.75471 0
M  V30 4778 N 438.996 -1.55193 0.274407 0
M  V30 4779 C 440.243 -1.99581 -0.342579 0
M  V30 4780 C 440.571 -1.1628 -1.55914 0
M  V30 4781 O 439.826 -0.22029 -1.94456 0
M  V30 4782 C 440.125 -3.49019 -0.769458 0
M  V30 4783 C 439.791 -4.49598 0.342389 0
M  V30 4784 C 438.453 -4.76821 0.647686 0
M  V30 4785 C 440.805 -5.0964 1.09163 0
M  V30 4786 C 438.133 -5.61354 1.70581 0
M  V30 4787 C 440.485 -5.95323 2.13948 0
M  V30 4788 C 439.149 -6.20867 2.45113 0
M  V30 4789 H 438.419 -0.730319 -0.125358 0
M  V30 4790 H 441.066 -1.87529 0.387971 0
M  V30 4791 H 439.371 -3.58544 -1.57967 0
M  V30 4792 H 441.068 -3.8077 -1.25757 0
M  V30 4793 H 437.658 -4.28496 0.094318 0
M  V30 4794 H 441.842 -4.88632 0.869024 0
M  V30 4795 H 437.098 -5.79392 1.9523 0
M  V30 4796 H 441.272 -6.40881 2.72478 0
M  V30 4797 H 438.899 -6.86162 3.27239 0
M  V30 4798 N 440.474 -0.00167713 -1.576 0
M  V30 4799 C 441.422 1.0074 -2.09652 0
M  V30 4800 C 442.416 1.35483 -1.01689 0
M  V30 4801 O 443.622 1.34028 -1.20152 0
M  V30 4802 H 439.997 0.342537 -0.669457 0
M  V30 4803 H 441.968 0.542841 -2.93421 0
M  V30 4804 C 440.717 2.2899 -2.61647 0
M  V30 4805 H 440.04 2.03124 -3.44355 0
M  V30 4806 H 441.48 2.9787 -3.01744 0
M  V30 4807 C 439.939 3.00085 -1.53136 0
M  V30 4808 O 440.469 3.91135 -0.91524 0
M  V30 4809 N 438.675 2.6194 -1.25841 0
M  V30 4810 H 438.222 1.8798 -1.76129 0
M  V30 4811 H 438.18 3.09822 -0.534576 0
M  V30 4812 N 441.952 1.55251 0.271103 0
M  V30 4813 C 443.229 1.66664 1.02384 0
M  V30 4814 C 443.609 0.534363 2.04225 0
M  V30 4815 O 442.957 -0.465337 2.23712 0
M  V30 4816 C 443.167 3.05961 1.67895 0
M  V30 4817 C 444.515 3.63772 2.18986 0
M  V30 4818 O 445.539 3.08606 1.77878 0
M  V30 4819 O 444.398 4.60429 2.94393 0
M  V30 4820 H 441.492 0.676957 0.475035 0
M  V30 4821 H 444.038 1.67589 0.26681 0
M  V30 4822 H 442.81 3.79815 0.941071 0
M  V30 4823 H 442.433 3.08943 2.5028 0
M  V30 4824 N 443.43 -0.535701 1.48216 0
M  V30 4825 C 444.846 -0.863701 1.3421 0
M  V30 4826 C 445.046 -1.98458 0.34879 0
M  V30 4827 O 444.102 -2.51432 -0.23204 0
M  V30 4828 C 445.415 -1.23662 2.74095 0
M  V30 4829 C 446.963 -1.34683 2.82541 0
M  V30 4830 C 447.438 -1.75322 4.23115 0
M  V30 4831 N 448.929 -1.82434 4.2576 0
M  V30 4832 C 449.664 -2.15252 5.31464 0
M  V30 4833 N 449.16 -2.46533 6.47452 0
M  V30 4834 N 450.953 -2.16209 5.18855 0
M  V30 4835 H 443.104 0.203965 2.11418 0
M  V30 4836 H 445.367 0.0286033 0.947568 0
M  V30 4837 H 445.073 -0.486674 3.48316 0
M  V30 4838 H 444.947 -2.18805 3.07253 0
M  V30 4839 H 447.334 -2.08756 2.08579 0
M  V30 4840 H 447.415 -0.376756 2.5301 0
M  V30 4841 H 447.059 -1.01812 4.97591 0
M  V30 4842 H 446.989 -2.7337 4.50085 0
M  V30 4843 H 449.48 -1.6056 3.42095 0
M  V30 4844 H 449.793 -2.70662 7.23852 0
M  V30 4845 H 448.138 -2.44065 6.50736 0
M  V30 4846 H 451.329 -1.91224 4.2726 0
M  V30 4847 H 451.502 -2.41453 6.01335 0
M  V30 4848 N 444.908 -1.36708 -0.784132 0
M  V30 4849 C 446.154 -1.31426 -1.54451 0
M  V30 4850 C 446.487 0.10476 -1.93917 0
M  V30 4851 O 445.762 1.05934 -1.6312 0
M  V30 4852 C 446.045 -2.24189 -2.818 0
M  V30 4853 C 445.898 -3.74813 -2.48667 0
M  V30 4854 C 447.217 -2.15626 -3.83658 0
M  V30 4855 H 444.336 -0.478739 -0.560337 0
M  V30 4856 H 446.978 -1.67305 -0.900498 0
M  V30 4857 H 445.128 -1.93722 -3.36755 0
M  V30 4858 H 446.8 -4.15823 -1.99722 0
M  V30 4859 H 445.043 -3.93989 -1.81535 0
M  V30 4860 H 445.714 -4.35138 -3.39646 0
M  V30 4861 H 448.19 -2.42456 -3.38163 0
M  V30 4862 H 447.066 -2.82694 -4.70506 0
M  V30 4863 H 447.327 -1.14522 -4.27009 0
M  V30 4864 N 446.386 1.0089 -1.21074 0
M  V30 4865 C 447.616 1.77933 -1.04993 0
M  V30 4866 C 448.024 1.84847 0.403495 0
M  V30 4867 O 447.367 1.30606 1.29181 0
M  V30 4868 C 447.429 3.23541 -1.56722 0
M  V30 4869 C 447.093 3.40214 -3.05129 0
M  V30 4870 C 448.09 3.2881 -4.02716 0
M  V30 4871 C 445.775 3.65781 -3.44252 0
M  V30 4872 C 447.769 3.42732 -5.37414 0
M  V30 4873 C 445.456 3.79346 -4.79103 0
M  V30 4874 C 446.454 3.67827 -5.75493 0
M  V30 4875 O 446.142 3.80965 -7.07899 0
M  V30 4876 H 445.874 0.566157 -0.369381 0
M  V30 4877 H 448.428 1.27826 -1.60779 0
M  V30 4878 H 446.658 3.74766 -0.953285 0
M  V30 4879 H 448.347 3.82245 -1.36543 0
M  V30 4880 H 449.113 3.08986 -3.73835 0
M  V30 4881 H 444.992 3.73831 -2.69762 0
M  V30 4882 H 448.536 3.33658 -6.12632 0
M  V30 4883 H 444.433 3.98672 -5.07672 0
M  V30 4884 H 445.201 3.97937 -7.15254 0
M  V30 4885 N 447.864 1.01787 1.20321 0
M  V30 4886 C 448.827 0.593972 2.2137 0
M  V30 4887 C 449.827 -0.336553 1.57239 0
M  V30 4888 O 451.017 -0.125069 1.7375 0
M  V30 4889 C 448.149 -0.132433 3.40643 0
M  V30 4890 H 449.342 1.48791 2.60387 0
M  V30 4891 H 446.895 0.807803 1.33807 0
M  V30 4892 H 447.63 -1.04123 3.0713 0
M  V30 4893 H 447.415 0.53605 3.88418 0
M  V30 4894 H 448.905 -0.416314 4.1552 0
M  V30 4895 N 449.342 -1.36122 0.79427 0
M  V30 4896 C 450.57 -2.03362 0.380989 0
M  V30 4897 C 450.985 -1.59881 -1.00416 0
M  V30 4898 O 450.342 -0.790515 -1.6449 0
M  V30 4899 C 450.393 -3.58804 0.440649 0
M  V30 4900 O 450.114 -4.007 1.77118 0
M  V30 4901 C 451.615 -4.43296 0.0186117 0
M  V30 4902 H 448.835 -0.652526 0.156367 0
M  V30 4903 H 451.379 -1.73998 1.07447 0
M  V30 4904 H 449.534 -3.8686 -0.204458 0
M  V30 4905 H 449.948 -4.95309 1.72538 0
M  V30 4906 H 451.422 -5.51887 0.111488 0
M  V30 4907 H 451.899 -4.2684 -1.03461 0
M  V30 4908 H 452.505 -4.20512 0.636395 0
M  V30 4909 N 450.82 -0.546701 -1.47814 0
M  V30 4910 C 452.05 -0.0232519 -2.06587 0
M  V30 4911 C 452.458 1.2712 -1.40133 0
M  V30 4912 O 451.801 1.77091 -0.488305 0
M  V30 4913 C 451.863 0.254117 -3.58601 0
M  V30 4914 C 451.527 -0.949331 -4.47031 0
M  V30 4915 C 452.524 -1.85216 -4.85789 0
M  V30 4916 C 450.209 -1.16104 -4.88697 0
M  V30 4917 C 452.203 -2.95047 -5.65001 0
M  V30 4918 C 449.89 -2.26247 -5.67676 0
M  V30 4919 C 450.888 -3.1555 -6.05737 0
M  V30 4920 O 450.576 -4.23784 -6.83127 0
M  V30 4921 H 450.308 -0.0380082 -0.674931 0
M  V30 4922 H 452.862 -0.756631 -1.90956 0
M  V30 4923 H 451.092 1.04168 -3.72406 0
M  V30 4924 H 452.781 0.72167 -3.99433 0
M  V30 4925 H 453.547 -1.70061 -4.54207 0
M  V30 4926 H 449.426 -0.475159 -4.58545 0
M  V30 4927 H 452.97 -3.64778 -5.94628 0
M  V30 4928 H 448.867 -2.41379 -5.98671 0
M  V30 4929 H 449.635 -4.21701 -7.01506 0
M  V30 4930 N 452.299 1.55045 -0.282633 0
M  V30 4931 C 453.231 2.2023 0.634924 0
M  V30 4932 C 454.244 1.18931 1.11172 0
M  V30 4933 O 455.433 1.4562 1.03233 0
M  V30 4934 C 452.533 2.82041 1.87899 0
M  V30 4935 C 451.706 4.091 1.54776 0
M  V30 4936 C 450.765 4.54887 2.64507 0
M  V30 4937 O 449.791 5.20496 2.30375 0
M  V30 4938 N 450.993 4.25659 3.94709 0
M  V30 4939 H 453.758 2.99601 0.0769811 0
M  V30 4940 H 451.319 1.61565 -0.104048 0
M  V30 4941 H 453.311 3.09613 2.60619 0
M  V30 4942 H 451.881 2.06618 2.3458 0
M  V30 4943 H 451.101 3.88736 0.654049 0
M  V30 4944 H 452.389 4.9187 1.30158 0
M  V30 4945 H 451.787 3.7306 4.25256 0
M  V30 4946 H 450.344 4.57984 4.63782 0
M  V30 4947 N 453.777 0.010035 1.57597 0
M  V30 4948 C 455.023 -0.673697 1.91283 0
M  V30 4949 C 455.356 -1.72863 0.884979 0
M  V30 4950 O 454.631 -1.94268 -0.0949487 0
M  V30 4951 C 454.914 -1.30766 3.35518 0
M  V30 4952 C 454.767 -0.263578 4.49027 0
M  V30 4953 C 456.086 -2.23105 3.79358 0
M  V30 4954 H 453.205 -0.243439 0.695634 0
M  V30 4955 H 455.847 0.0633864 1.89894 0
M  V30 4956 H 453.997 -1.93588 3.36832 0
M  V30 4957 H 455.669 0.365738 4.59848 0
M  V30 4958 H 453.912 0.413077 4.31829 0
M  V30 4959 H 454.583 -0.746398 5.4693 0
M  V30 4960 H 457.059 -1.70289 3.79659 0
M  V30 4961 H 455.935 -2.64424 4.81011 0
M  V30 4962 H 456.196 -3.11433 3.13787 0
M  V30 4963 N 455.255 -1.55392 -0.262866 0
M  V30 4964 C 456.483 -1.80513 -1.01108 0
M  V30 4965 C 456.898 -0.583533 -1.79556 0
M  V30 4966 O 456.255 0.447585 -1.76926 0
M  V30 4967 C 456.306 -3.03648 -1.96164 0
M  V30 4968 O 456.027 -4.2109 -1.20893 0
M  V30 4969 C 457.528 -3.41448 -2.82715 0
M  V30 4970 H 454.748 -0.601079 -0.298236 0
M  V30 4971 H 457.292 -2.02425 -0.290582 0
M  V30 4972 H 455.447 -2.83832 -2.63663 0
M  V30 4973 H 455.861 -4.90771 -1.85051 0
M  V30 4974 H 457.335 -4.30751 -3.45192 0
M  V30 4975 H 457.812 -2.61308 -3.53008 0
M  V30 4976 H 458.418 -3.63559 -2.20693 0
M  V30 4977 N 456.733 0.527833 -1.48498 0
M  V30 4978 C 458.149 0.856571 -1.34666 0
M  V30 4979 C 458.349 1.98271 -0.35931 0
M  V30 4980 O 457.405 2.51551 0.218703 0
M  V30 4981 C 458.718 1.22207 -2.74747 0
M  V30 4982 C 460.266 1.33183 -2.83251 0
M  V30 4983 C 460.741 1.73075 -4.24039 0
M  V30 4984 N 462.232 1.80174 -4.26722 0
M  V30 4985 C 462.967 2.1243 -5.32598 0
M  V30 4986 N 462.463 2.43096 -6.4875 0
M  V30 4987 N 464.256 2.13454 -5.19994 0
M  V30 4988 H 456.407 -0.215174 -2.11307 0
M  V30 4989 H 458.67 -0.0336281 -0.947403 0
M  V30 4990 H 458.376 0.468195 -3.4857 0
M  V30 4991 H 458.25 2.17173 -3.08409 0
M  V30 4992 H 460.637 2.07647 -2.09683 0
M  V30 4993 H 460.718 0.363333 -2.53206 0
M  V30 4994 H 460.362 0.991712 -4.98124 0
M  V30 4995 H 460.292 2.70979 -4.51529 0
M  V30 4996 H 462.783 1.58744 -3.42942 0
M  V30 4997 H 463.096 2.6682 -7.25277 0
M  V30 4998 H 461.441 2.40611 -6.52021 0
M  V30 4999 H 464.632 1.88956 -4.28268 0
M  V30 5000 H 464.805 2.38261 -6.02608 0
M  V30 5001 N 458.211 1.37122 0.776871 0
M  V30 5002 C 459.459 1.31787 1.53221 0
M  V30 5003 C 459.78 -0.0987589 1.9475 0
M  V30 5004 O 459.05 -1.0417 1.65908 0
M  V30 5005 H 457.63 0.484839 0.568278 0
M  V30 5006 H 460.292 1.71556 0.924917 0
M  V30 5007 H 459.388 1.95355 2.43398 0
M  V30 5008 N 459.689 -1.00246 1.21608 0
M  V30 5009 C 460.619 -2.10921 1.00172 0
M  V30 5010 C 461.6 -1.69938 -0.0741587 0
M  V30 5011 O 462.785 -1.94009 0.0861753 0
M  V30 5012 C 459.915 -3.42618 0.568355 0
M  V30 5013 C 458.869 -3.97407 1.58909 0
M  V30 5014 C 458.195 -5.25038 1.01187 0
M  V30 5015 C 459.495 -4.2918 2.97661 0
M  V30 5016 H 461.189 -2.29112 1.92739 0
M  V30 5017 H 458.735 -1.10101 0.928102 0
M  V30 5018 H 460.688 -4.19444 0.405555 0
M  V30 5019 H 459.412 -3.24227 -0.392961 0
M  V30 5020 H 458.071 -3.22703 1.73949 0
M  V30 5021 H 457.719 -5.02982 0.0421965 0
M  V30 5022 H 457.419 -5.62661 1.6937 0
M  V30 5023 H 458.943 -6.04507 0.860448 0
M  V30 5024 H 460.357 -4.96839 2.86049 0
M  V30 5025 H 458.754 -4.77952 3.6288 0
M  V30 5026 H 459.824 -3.3735 3.48315 0
M  V30 5027 N 461.167 -1.02423 -1.1978 0
M  V30 5028 C 462.13 -0.605703 -2.21052 0
M  V30 5029 C 463.13 0.328209 -1.57415 0
M  V30 5030 O 464.32 0.115853 -1.73814 0
M  V30 5031 C 461.452 0.114366 -3.40708 0
M  V30 5032 H 462.645 -1.5017 -2.59594 0
M  V30 5033 H 460.198 -0.814888 -1.33376 0
M  V30 5034 H 460.933 1.02492 -3.07678 0
M  V30 5035 H 460.718 -0.556641 -3.88129 0
M  V30 5036 H 462.208 0.394272 -4.15735 0
M  V30 5037 N 462.645 1.35699 -0.801477 0
M  V30 5038 C 463.87 2.03687 -0.390678 0
M  V30 5039 C 464.295 1.60015 0.988778 0
M  V30 5040 O 463.653 0.774357 1.63931 0
M  V30 5041 C 463.701 3.57439 -0.476404 0
M  V30 5042 O 462.805 4.09208 0.512106 0
M  V30 5043 H 462.146 0.64344 -0.163956 0
M  V30 5044 H 464.676 1.73403 -1.08594 0
M  V30 5045 H 464.686 4.06544 -0.344357 0
M  V30 5046 H 463.361 3.88576 -1.48262 0
M  V30 5047 H 461.938 3.7134 0.340721 0
M  V30 5048 N 464.123 0.554532 1.47522 0
M  V30 5049 C 465.053 -0.182974 2.32782 0
M  V30 5050 C 466.034 -0.911377 1.43624 0
M  V30 5051 O 467.219 -0.892366 1.72483 0
M  V30 5052 C 464.349 -1.21513 3.25349 0
M  V30 5053 C 463.303 -0.603355 4.23726 0
M  V30 5054 C 462.629 -1.73995 5.05598 0
M  V30 5055 C 463.929 0.441121 5.20434 0
M  V30 5056 H 465.623 0.52882 2.94693 0
M  V30 5057 H 463.169 0.255759 1.41711 0
M  V30 5058 H 465.122 -1.73922 3.83835 0
M  V30 5059 H 463.846 -1.95683 2.61487 0
M  V30 5060 H 462.505 -0.10059 3.66462 0
M  V30 5061 H 462.153 -2.47063 4.38143 0
M  V30 5062 H 461.853 -1.3364 5.72201 0
M  V30 5063 H 463.377 -2.26735 5.66942 0
M  V30 5064 H 464.791 0.00319931 5.733 0
M  V30 5065 H 463.188 0.763402 5.95224 0
M  V30 5066 H 464.258 1.33799 4.66075 0
M  V30 5067 N 465.601 -1.54893 0.290851 0
M  V30 5068 C 466.549 -2.24579 -0.605576 0
M  V30 5069 C 467.543 -1.24824 -1.14522 0
M  V30 5070 O 468.749 -1.42706 -1.09704 0
M  V30 5071 H 465.124 -0.720946 -0.213872 0
M  V30 5072 H 467.095 -2.984 0.0048173 0
M  V30 5073 C 465.844 -2.99224 -1.77088 0
M  V30 5074 H 465.167 -3.75782 -1.36484 0
M  V30 5075 H 466.607 -3.51281 -2.3744 0
M  V30 5076 C 465.066 -2.05602 -2.66888 0
M  V30 5077 O 465.596 -1.61745 -3.67698 0
M  V30 5078 N 463.802 -1.71771 -2.34399 0
M  V30 5079 H 463.349 -2.07633 -1.52468 0
M  V30 5080 H 463.307 -1.09403 -2.94751 0
M  V30 5081 N 467.08 -0.0183926 -1.57589 0
M  V30 5082 C 468.305 0.676634 -1.96052 0
M  V30 5083 C 468.73 1.6548 -0.894307 0
M  V30 5084 O 468.088 1.80712 0.145849 0
M  V30 5085 C 468.136 1.36872 -3.33614 0
M  V30 5086 O 467.24 2.48372 -3.29219 0
M  V30 5087 H 466.581 0.1786 -0.63953 0
M  V30 5088 H 469.111 -0.077056 -2.04455 0
M  V30 5089 H 469.121 1.72797 -3.69601 0
M  V30 5090 H 467.796 0.651636 -4.10763 0
M  V30 5091 H 466.373 2.14639 -3.04934 0
M  V30 5092 N 468.558 1.5553 0.254621 0
M  V30 5093 C 469.798 1.7876 0.991179 0
M  V30 5094 C 470.162 0.586669 1.82817 0
M  V30 5095 O 471.363 0.697585 2.5959 0
M  V30 5096 C 469.634 3.06679 1.83529 0
M  V30 5097 S 471.193 3.511 2.632 0
M  V30 5098 H 468.011 0.627916 0.333531 0
M  V30 5099 H 470.613 1.93766 0.259778 0
M  V30 5100 H 469.317 3.92158 1.20996 0
M  V30 5101 H 468.848 2.94388 2.60958 0
M  V30 5102 H 470.863 3.11823 3.8598 0
M  V30 5103 N 470.036 -0.519951 1.48776 0
M  V30 5104 C 471.282 -1.27711 1.57536 0
M  V30 5105 C 471.615 -1.92547 0.252866 0
M  V30 5106 O 470.89 -1.7979 -0.742021 0
M  V30 5107 C 471.173 -2.35875 2.72094 0
M  V30 5108 C 471.026 -1.75664 4.1408 0
M  V30 5109 C 472.345 -3.37575 2.82367 0
M  V30 5110 H 469.464 -0.462971 0.573434 0
M  V30 5111 H 472.106 -0.578194 1.80989 0
M  V30 5112 H 470.256 -2.95488 2.52228 0
M  V30 5113 H 471.928 -1.20025 4.45412 0
M  V30 5114 H 470.171 -1.06154 4.20611 0
M  V30 5115 H 470.842 -2.54029 4.90075 0
M  V30 5116 H 473.318 -2.87929 3.00393 0
M  V30 5117 H 472.194 -4.1064 3.64233 0
M  V30 5118 H 472.455 -3.98743 1.90936 0
M  V30 5119 N 471.514 -1.37532 -0.769588 0
M  V30 5120 C 472.791 -1.23392 -1.51768 0
M  V30 5121 C 473.171 0.17157 -2.10402 0
M  V30 5122 O 472.519 1.17943 -1.95708 0
M  V30 5123 C 472.729 -2.33163 -2.59685 0
M  V30 5124 C 474.077 -2.70809 -3.27028 0
M  V30 5125 O 475.101 -2.32355 -2.69981 0
M  V30 5126 O 473.96 -3.37066 -4.30173 0
M  V30 5127 H 471.054 -0.481617 -0.67229 0
M  V30 5128 H 473.6 -1.49318 -0.806368 0
M  V30 5129 H 472.372 -3.27273 -2.14494 0
M  V30 5130 H 471.995 -2.08713 -3.38415 0
M  V30 5131 N 472.992 0.995999 -1.22138 0
M  V30 5132 C 474.403 1.54961 -1.04135 0
M  V30 5133 C 474.754 1.92159 0.396147 0
M  V30 5134 O 473.879 1.74435 1.28069 0
M  V30 5135 C 474.474 2.81581 -1.88408 0
M  V30 5136 C 473.033 3.33396 -1.74712 0
M  V30 5137 C 472.18 2.06509 -1.85066 0
M  V30 5138 H 475.131 0.817436 -1.36028 0
M  V30 5139 H 475.152 3.53822 -1.39966 0
M  V30 5140 H 474.664 2.54476 -2.93025 0
M  V30 5141 H 472.765 3.65416 -0.728159 0
M  V30 5142 H 472.878 4.04208 -2.57202 0
M  V30 5143 H 471.242 2.19925 -1.28472 0
M  V30 5144 H 472.025 1.81804 -2.91208 0
M  V30 5145 N 474.47 1.03057 1.19235 0
M  V30 5146 C 475.719 0.72326 1.88287 0
M  V30 5147 C 476.032 -0.751333 1.80594 0
M  V30 5148 O 477.238 -1.17176 2.44912 0
M  V30 5149 C 475.694 1.24338 3.3774 0
M  V30 5150 C 475.302 2.74587 3.53986 0
M  V30 5151 C 477.046 1.01213 4.12257 0
M  V30 5152 C 474.953 3.20009 4.97341 0
M  V30 5153 H 473.883 0.266848 0.705201 0
M  V30 5154 H 476.534 1.24509 1.34795 0
M  V30 5155 H 474.916 0.649457 3.90638 0
M  V30 5156 H 476.09 3.39649 3.11408 0
M  V30 5157 H 474.405 2.9601 2.9286 0
M  V30 5158 H 477.002 1.32675 5.17978 0
M  V30 5159 H 477.345 -0.051001 4.16269 0
M  V30 5160 H 477.878 1.57014 3.65501 0
M  V30 5161 H 474.617 4.25659 4.98493 0
M  V30 5162 H 474.137 2.59676 5.40674 0
M  V30 5163 H 475.816 3.13447 5.66003 0
M  V30 5164 N 475.948 -1.35272 0.808662 0
M  V30 5165 C 476.878 -2.32315 0.234981 0
M  V30 5166 C 477.859 -1.57572 -0.64071 0
M  V30 5167 O 479.044 -1.8563 -0.570551 0
M  V30 5168 C 476.174 -3.41801 -0.615601 0
M  V30 5169 C 475.128 -4.27694 0.161767 0
M  V30 5170 C 474.454 -5.28519 -0.810649 0
M  V30 5171 C 475.754 -5.04231 1.36193 0
M  V30 5172 H 477.448 -2.80543 1.04575 0
M  V30 5173 H 474.994 -1.3488 0.504315 0
M  V30 5174 H 476.947 -4.08693 -1.02702 0
M  V30 5175 H 475.671 -2.92186 -1.45928 0
M  V30 5176 H 474.33 -3.62384 0.554382 0
M  V30 5177 H 473.978 -4.75171 -1.64988 0
M  V30 5178 H 473.678 -5.8686 -0.294822 0
M  V30 5179 H 475.202 -5.98283 -1.22023 0
M  V30 5180 H 476.616 -5.64058 1.02528 0
M  V30 5181 H 475.013 -5.72077 1.81239 0
M  V30 5182 H 476.083 -4.34753 2.14751 0
M  V30 5183 N 477.426 -0.562348 -1.47226 0
M  V30 5184 C 478.656 -0.0451619 -2.06551 0
M  V30 5185 C 479.064 1.25626 -1.41473 0
M  V30 5186 O 478.407 1.76563 -0.507061 0
M  V30 5187 C 478.469 0.216068 -3.5885 0
M  V30 5188 C 478.133 -0.996691 -4.45999 0
M  V30 5189 C 479.13 -1.90358 -4.83797 0
M  V30 5190 C 476.815 -1.21281 -4.87438 0
M  V30 5191 C 478.809 -3.01023 -5.6184 0
M  V30 5192 C 476.496 -2.32255 -5.65244 0
M  V30 5193 C 477.494 -3.21956 -6.02356 0
M  V30 5194 O 477.182 -4.31005 -6.78594 0
M  V30 5195 H 476.914 -0.0451646 -0.67449 0
M  V30 5196 H 479.468 -0.776842 -1.90143 0
M  V30 5197 H 477.698 1.00212 -3.7349 0
M  V30 5198 H 479.387 0.679264 -4.00176 0
M  V30 5199 H 480.153 -1.74868 -4.52378 0
M  V30 5200 H 476.032 -0.523767 -4.58015 0
M  V30 5201 H 479.576 -3.71064 -5.90726 0
M  V30 5202 H 475.473 -2.47715 -5.96077 0
M  V30 5203 H 476.241 -4.29118 -6.96994 0
M  V30 5204 N 478.904 1.54736 -0.299062 0
M  V30 5205 C 480.151 2.00101 0.310784 0
M  V30 5206 C 480.479 1.18746 1.54045 0
M  V30 5207 O 479.734 0.251198 1.94081 0
M  V30 5208 C 480.033 3.50199 0.713835 0
M  V30 5209 C 479.699 4.48997 -0.413873 0
M  V30 5210 C 478.361 4.7573 -0.723462 0
M  V30 5211 C 480.713 5.07839 -1.17257 0
M  V30 5212 C 478.041 5.5857 -1.79491 0
M  V30 5213 C 480.393 5.91844 -2.23392 0
M  V30 5214 C 479.057 6.16889 -2.54959 0
M  V30 5215 H 478.327 0.732221 0.113724 0
M  V30 5216 H 480.974 1.86888 -0.417756 0
M  V30 5217 H 479.279 3.61012 1.52243 0
M  V30 5218 H 480.976 3.82723 1.19684 0
M  V30 5219 H 477.566 4.28292 -0.162476 0
M  V30 5220 H 481.75 4.87188 -0.946651 0
M  V30 5221 H 477.006 5.76213 -2.04423 0
M  V30 5222 H 481.18 6.36465 -2.8264 0
M  V30 5223 H 478.807 6.80869 -3.38114 0
M  V30 5224 N 480.382 0.0267497 1.57577 0
M  V30 5225 C 481.312 -0.954308 2.13108 0
M  V30 5226 C 482.293 -1.34088 1.04663 0
M  V30 5227 O 483.478 -1.41992 1.32484 0
M  V30 5228 C 480.608 -2.23744 2.65624 0
M  V30 5229 C 479.562 -1.99168 3.78835 0
M  V30 5230 C 478.888 -3.33726 4.17769 0
M  V30 5231 C 480.188 -1.33277 5.0501 0
M  V30 5232 H 481.882 -0.491848 2.95332 0
M  V30 5233 H 479.428 -0.23514 1.42067 0
M  V30 5234 H 481.381 -2.92754 3.03106 0
M  V30 5235 H 480.105 -2.72151 1.80558 0
M  V30 5236 H 478.764 -1.32577 3.41788 0
M  V30 5237 H 478.412 -3.79888 3.29688 0
M  V30 5238 H 478.112 -3.18089 4.94058 0
M  V30 5239 H 479.636 -4.04008 4.57832 0
M  V30 5240 H 481.05 -1.92283 5.40093 0
M  V30 5241 H 479.447 -1.28045 5.8628 0
M  V30 5242 H 480.517 -0.305411 4.83937 0
M  V30 5243 N 481.861 -1.55662 -0.24637 0
M  V30 5244 C 482.824 -1.89558 -1.28842 0
M  V30 5245 C 483.824 -0.772082 -1.41052 0
M  V30 5246 O 485.014 -1.04007 -1.39743 0
M  V30 5247 C 482.146 -2.12449 -2.66605 0
M  V30 5248 H 483.339 -2.82735 -1.00004 0
M  V30 5249 H 480.892 -1.48562 -0.485684 0
M  V30 5250 H 481.627 -1.21742 -3.00582 0
M  V30 5251 H 481.412 -2.94273 -2.59125 0
M  V30 5252 H 482.902 -2.39854 -3.41847 0
M  V30 5253 N 483.339 0.512053 -1.4905 0
M  V30 5254 C 484.587 1.26436 -1.57665 0
M  V30 5255 C 484.908 1.93255 -0.260293 0
M  V30 5256 O 484.178 1.82206 0.719564 0
M  V30 5257 H 482.758 0.469658 -0.580888 0
M  V30 5258 H 485.42 0.594398 -1.85615 0
M  V30 5259 H 484.516 2.03417 -2.36702 0
M  V30 5260 N 484.817 1.37938 0.762283 0
M  V30 5261 C 486.094 1.24196 1.51112 0
M  V30 5262 C 486.474 -0.160409 2.1049 0
M  V30 5263 O 485.822 -1.16904 1.96331 0
M  V30 5264 C 486.032 2.34537 2.58445 0
M  V30 5265 C 487.38 2.7254 3.25588 0
M  V30 5266 O 488.404 2.33783 2.68745 0
M  V30 5267 O 487.263 3.39343 4.28379 0
M  V30 5268 H 484.357 0.485175 0.669727 0
M  V30 5269 H 486.903 1.49743 0.798438 0
M  V30 5270 H 485.675 3.28406 2.12756 0
M  V30 5271 H 485.298 2.10505 3.37303 0
M  V30 5272 N 486.295 -0.989507 1.22664 0
M  V30 5273 C 487.523 -1.76496 1.07967 0
M  V30 5274 C 487.938 -1.85148 -0.369543 0
M  V30 5275 O 487.295 -1.32408 -1.25596 0
M  V30 5276 C 487.346 -3.19642 1.68853 0
M  V30 5277 O 487.067 -3.11453 3.08105 0
M  V30 5278 C 488.568 -4.13621 1.59475 0
M  V30 5279 H 485.788 -0.55418 0.378319 0
M  V30 5280 H 488.332 -1.24378 1.62328 0
M  V30 5281 H 486.487 -3.68816 1.18547 0
M  V30 5282 H 486.901 -4.01499 3.37489 0
M  V30 5283 H 488.375 -5.11801 2.06795 0
M  V30 5284 H 488.852 -4.35718 0.55191 0
M  V30 5285 H 489.458 -3.70346 2.09103 0
M  V30 5286 N 487.773 -1.03688 -1.18687 0
M  V30 5287 C 489.02 -0.73803 -1.88572 0
M  V30 5288 C 489.348 0.733973 -1.8012 0
M  V30 5289 O 488.603 1.55098 -1.19344 0
M  V30 5290 C 488.902 -1.14477 -3.3857 0
M  V30 5291 C 488.568 -2.61641 -3.67226 0
M  V30 5292 C 487.23 -3.01846 -3.74757 0
M  V30 5293 C 489.582 -3.56812 -3.79914 0
M  V30 5294 C 486.91 -4.36118 -3.92451 0
M  V30 5295 C 489.262 -4.90799 -3.99123 0
M  V30 5296 C 487.926 -5.3068 -4.04888 0
M  V30 5297 H 487.196 -0.270064 -0.690034 0
M  V30 5298 H 489.843 -1.3012 -1.40503 0
M  V30 5299 H 488.148 -0.500337 -3.88592 0
M  V30 5300 H 489.845 -0.89095 -3.90977 0
M  V30 5301 H 486.435 -2.29498 -3.61979 0
M  V30 5302 H 490.619 -3.26899 -3.73431 0
M  V30 5303 H 485.875 -4.66542 -3.95157 0
M  V30 5304 H 490.049 -5.64451 -4.07882 0
M  V30 5305 H 487.676 -6.34733 -4.18351 0
M  V30 5306 N 489.251 1.34841 -0.815825 0
M  V30 5307 C 490.667 1.51543 -0.500697 0
M  V30 5308 C 490.867 1.76261 0.976444 0
M  V30 5309 O 489.923 1.8094 1.76117 0
M  V30 5310 C 491.236 2.68487 -1.35407 0
M  V30 5311 C 492.784 2.82368 -1.35046 0
M  V30 5312 C 493.259 4.02347 -2.18816 0
M  V30 5313 N 494.75 4.09542 -2.16402 0
M  V30 5314 C 495.485 5.01517 -2.77971 0
M  V30 5315 N 494.981 5.98763 -3.48503 0
M  V30 5316 N 496.774 4.94334 -2.67563 0
M  V30 5317 H 488.925 1.17055 -1.77234 0
M  V30 5318 H 491.188 0.573481 -0.754866 0
M  V30 5319 H 490.894 2.56829 -2.40274 0
M  V30 5320 H 490.768 3.63321 -1.01377 0
M  V30 5321 H 493.155 2.93471 -0.309604 0
M  V30 5322 H 493.236 1.88363 -1.73069 0
M  V30 5323 H 492.88 3.92004 -3.22948 0
M  V30 5324 H 492.81 4.95551 -1.78148 0
M  V30 5325 H 495.301 3.39932 -1.65091 0
M  V30 5326 H 495.614 6.6556 -3.92747 0
M  V30 5327 H 493.959 5.98909 -3.52609 0
M  V30 5328 H 497.15 4.1732 -2.12041 0
M  V30 5329 H 497.323 5.6582 -3.15834 0
M  V30 5330 N 490.729 0.570148 1.46925 0
M  V30 5331 C 492.145 0.23087 1.57921 0
M  V30 5332 C 492.345 -1.26676 1.56702 0
M  V30 5333 O 491.401 -2.04774 1.47729 0
M  V30 5334 C 492.714 0.868973 2.8787 0
M  V30 5335 C 494.262 0.841397 3.01479 0
M  V30 5336 C 494.737 1.45881 4.34146 0
M  V30 5337 N 496.228 1.42258 4.40814 0
M  V30 5338 C 496.963 1.8698 5.42057 0
M  V30 5339 N 496.459 2.39618 6.50042 0
M  V30 5340 N 498.252 1.77972 5.33181 0
M  V30 5341 H 490.403 1.54301 1.45962 0
M  V30 5342 H 492.666 0.644224 0.69547 0
M  V30 5343 H 492.372 1.922 2.94537 0
M  V30 5344 H 492.246 0.369682 3.75384 0
M  V30 5345 H 494.633 -0.202973 2.94401 0
M  V30 5346 H 494.714 1.37858 2.15474 0
M  V30 5347 H 494.358 2.50231 4.4198 0
M  V30 5348 H 494.288 0.896958 5.18905 0
M  V30 5349 H 496.779 1.03768 3.63374 0
M  V30 5350 H 497.092 2.71633 7.23488 0
M  V30 5351 H 495.437 2.43636 6.50897 0
M  V30 5352 H 498.628 1.36617 4.4772 0
M  V30 5353 H 498.801 2.13143 6.11943 0
M  V30 5354 N 492.207 -1.54576 0.307264 0
M  V30 5355 C 493.623 -1.59534 -0.0459251 0
M  V30 5356 C 493.823 -1.32414 -1.51884 0
M  V30 5357 O 492.879 -1.1006 -2.27251 0
M  V30 5358 C 494.192 -2.98566 0.357649 0
M  V30 5359 C 495.74 -3.11491 0.306937 0
M  V30 5360 C 496.215 -4.52842 0.685427 0
M  V30 5361 N 497.706 -4.58782 0.638203 0
M  V30 5362 C 498.441 -5.66238 0.903458 0
M  V30 5363 N 497.937 -6.81703 1.23501 0
M  V30 5364 N 499.73 -5.55937 0.830102 0
M  V30 5365 H 491.881 -1.70464 1.26712 0
M  V30 5366 H 494.144 -0.79647 0.514139 0
M  V30 5367 H 493.85 -3.23356 1.38325 0
M  V30 5368 H 493.724 -3.76117 -0.285565 0
M  V30 5369 H 496.111 -2.86446 -0.709424 0
M  V30 5370 H 496.192 -2.36081 0.984861 0
M  V30 5371 H 495.836 -4.78618 1.69963 0
M  V30 5372 H 495.766 -5.26598 -0.0146346 0
M  V30 5373 H 498.257 -3.75849 0.393138 0
M  V30 5374 H 498.57 -7.59582 1.42322 0
M  V30 5375 H 496.915 -6.8324 1.27311 0
M  V30 5376 H 500.106 -4.64608 0.570693 0
M  V30 5377 H 500.279 -6.39597 1.04019 0
M  V30 5378 N 493.685 -0.035106 -1.57561 0
M  V30 5379 C 494.615 0.942993 -2.13612 0
M  V30 5380 C 495.596 1.33531 -1.05373 0
M  V30 5381 O 496.781 1.41287 -1.33235 0
M  V30 5382 C 493.911 2.22332 -2.66807 0
M  V30 5383 C 492.865 1.97156 -3.79886 0
M  V30 5384 C 492.191 3.31506 -4.19533 0
M  V30 5385 C 493.491 1.30596 -5.05709 0
M  V30 5386 H 495.185 0.476179 -2.95589 0
M  V30 5387 H 492.731 0.227602 -1.4219 0
M  V30 5388 H 494.684 2.91142 -3.04654 0
M  V30 5389 H 493.408 2.7119 -1.81999 0
M  V30 5390 H 492.067 1.30763 -3.42486 0
M  V30 5391 H 491.715 3.78134 -3.31698 0
M  V30 5392 H 491.415 3.15465 -4.95738 0
M  V30 5393 H 492.939 4.01574 -4.59968 0
M  V30 5394 H 494.353 1.89416 -5.41105 0
M  V30 5395 H 492.75 1.24934 -5.86951 0
M  V30 5396 H 493.82 0.279742 -4.84092 0
M  V30 5397 N 495.163 1.55791 0.238111 0
M  V30 5398 C 496.388 1.8244 0.986432 0
M  V30 5399 C 496.813 0.613314 1.7782 0
M  V30 5400 O 496.171 -0.437767 1.75935 0
M  V30 5401 C 496.219 3.06917 1.893 0
M  V30 5402 O 495.323 2.84449 2.98601 0
M  V30 5403 H 494.664 0.601975 0.280218 0
M  V30 5404 H 497.194 2.02987 0.256437 0
M  V30 5405 H 497.204 3.36583 2.30598 0
M  V30 5406 H 495.879 3.947 1.31091 0
M  V30 5407 H 494.456 2.65972 2.61368 0
M  V30 5408 N 496.642 -0.504142 1.49319 0
M  V30 5409 C 498.058 -0.835039 1.36012 0
M  V30 5410 C 498.258 -1.97674 0.390808 0
M  V30 5411 O 497.314 -2.51867 -0.178655 0
M  V30 5412 C 498.627 -1.17821 2.76656 0
M  V30 5413 C 500.175 -1.2866 2.85334 0
M  V30 5414 C 500.65 -1.66307 4.26739 0
M  V30 5415 N 502.141 -1.73362 4.29534 0
M  V30 5416 C 502.876 -2.0393 5.35911 0
M  V30 5417 N 502.372 -2.32744 6.52535 0
M  V30 5418 N 504.165 -2.05155 5.23324 0
M  V30 5419 H 496.316 0.248764 2.10938 0
M  V30 5420 H 498.579 0.0486962 0.946748 0
M  V30 5421 H 498.285 -0.412682 3.4927 0
M  V30 5422 H 498.159 -2.12239 3.11825 0
M  V30 5423 H 500.546 -2.04285 2.1296 0
M  V30 5424 H 500.627 -0.323004 2.53752 0
M  V30 5425 H 500.271 -0.91234 4.99639 0
M  V30 5426 H 500.201 -2.63761 4.55782 0
M  V30 5427 H 502.692 -1.53268 3.45424 0
M  V30 5428 H 503.005 -2.55248 7.2943 0
M  V30 5429 H 501.35 -2.30207 6.55767 0
M  V30 5430 H 504.541 -1.82119 4.3122 0
M  V30 5431 H 504.714 -2.28644 6.06322 0
M  V30 5432 N 498.12 -1.38341 -0.754957 0
M  V30 5433 C 499.083 -1.35262 -1.85032 0
M  V30 5434 C 500.083 -0.253393 -1.58791 0
M  V30 5435 O 501.273 -0.510205 -1.66561 0
M  V30 5436 C 498.405 -1.10544 -3.22479 0
M  V30 5437 H 499.598 -2.32712 -1.8917 0
M  V30 5438 H 497.151 -1.23614 -0.956515 0
M  V30 5439 H 497.886 -0.136952 -3.24011 0
M  V30 5440 H 497.671 -1.90127 -3.4292 0
M  V30 5441 H 499.161 -1.11082 -4.02555 0
M  V30 5442 N 499.598 0.982988 -1.23187 0
M  V30 5443 C 500.826 1.75921 -1.08901 0
M  V30 5444 C 501.241 1.85341 0.359719 0
M  V30 5445 O 500.598 1.33072 1.24892 0
M  V30 5446 C 500.649 3.18742 -1.70545 0
M  V30 5447 O 500.37 3.09814 -3.09753 0
M  V30 5448 C 501.871 4.1277 -1.61667 0
M  V30 5449 H 499.091 0.552166 -0.381252 0
M  V30 5450 H 501.635 1.23516 -1.62985 0
M  V30 5451 H 499.79 3.68182 -1.20501 0
M  V30 5452 H 500.204 3.99703 -3.39614 0
M  V30 5453 H 501.678 5.10697 -2.09506 0
M  V30 5454 H 502.155 4.3542 -0.575009 0
M  V30 5455 H 502.761 3.69232 -2.11064 0
M  V30 5456 N 501.076 1.04316 1.18135 0
M  V30 5457 C 502.492 0.762858 1.40188 0
M  V30 5458 C 502.692 -0.646547 1.90846 0
M  V30 5459 O 501.748 -1.41036 2.0944 0
M  V30 5460 C 503.061 1.81106 2.40044 0
M  V30 5461 C 504.609 1.83226 2.53766 0
M  V30 5462 C 505.084 2.87044 3.56889 0
M  V30 5463 N 506.575 2.85951 3.64398 0
M  V30 5464 C 507.31 3.62932 4.43923 0
M  V30 5465 N 506.806 4.49672 5.27036 0
M  V30 5466 N 508.599 3.51411 4.38711 0
M  V30 5467 H 500.75 1.95264 0.835805 0
M  V30 5468 H 503.013 0.845017 0.429709 0
M  V30 5469 H 502.719 2.82214 2.09876 0
M  V30 5470 H 502.593 1.64529 3.39426 0
M  V30 5471 H 504.98 0.827869 2.8325 0
M  V30 5472 H 505.061 2.03879 1.54489 0
M  V30 5473 H 504.705 3.87663 3.28145 0
M  V30 5474 H 504.635 2.63645 4.5585 0
M  V30 5475 H 507.126 2.23051 3.05052 0
M  V30 5476 H 507.439 5.05116 5.84874 0
M  V30 5477 H 505.784 4.53738 5.26447 0
M  V30 5478 H 508.975 2.83047 3.72829 0
M  V30 5479 H 509.148 4.11654 5.00445 0
M  V30 5480 N 502.554 -1.34406 0.822964 0
M  V30 5481 C 503.501 -2.29519 0.24284 0
M  V30 5482 C 504.471 -1.5359 -0.632397 0
M  V30 5483 O 505.656 -1.8196 -0.57403 0
M  V30 5484 C 502.796 -3.40032 -0.58925 0
M  V30 5485 C 501.909 -4.30899 0.308236 0
M  V30 5486 C 501.044 -5.28515 -0.533425 0
M  V30 5487 C 500.083 -6.1102 0.363444 0
M  V30 5488 N 499.22 -7.00725 -0.439147 0
M  V30 5489 H 504.06 -2.78537 1.05929 0
M  V30 5490 H 501.597 -1.3707 0.533872 0
M  V30 5491 H 503.555 -4.0279 -1.087 0
M  V30 5492 H 502.185 -2.92248 -1.37081 0
M  V30 5493 H 501.237 -3.69002 0.924203 0
M  V30 5494 H 502.549 -4.88717 0.997862 0
M  V30 5495 H 501.703 -5.96725 -1.09565 0
M  V30 5496 H 500.442 -4.71235 -1.25656 0
M  V30 5497 H 499.447 -5.41743 0.937812 0
M  V30 5498 H 500.672 -6.70381 1.08469 0
M  V30 5499 H 498.618 -6.45913 -1.14595 0
M  V30 5500 H 498.535 -7.55756 0.19209 0
M  V30 5501 H 499.803 -7.73263 -0.984124 0
M  V30 5502 N 504.032 -0.577932 -1.46621 0
M  V30 5503 C 504.995 0.147805 -2.28723 0
M  V30 5504 C 505.995 0.823325 -1.38123 0
M  V30 5505 O 507.185 0.676011 -1.60548 0
M  V30 5506 C 504.317 1.21853 -3.18378 0
M  V30 5507 H 505.51 -0.573654 -2.94362 0
M  V30 5508 H 503.063 -0.335703 -1.52652 0
M  V30 5509 H 503.798 1.97173 -2.57475 0
M  V30 5510 H 503.583 0.738714 -3.85078 0
M  V30 5511 H 505.073 1.72768 -3.80186 0
M  V30 5512 N 505.51 1.54411 -0.315457 0
M  V30 5513 C 506.735 2.05299 0.294496 0
M  V30 5514 C 507.16 1.19052 1.4563 0
M  V30 5515 O 506.518 0.197804 1.80218 0
M  V30 5516 C 506.566 3.5345 0.714549 0
M  V30 5517 O 505.67 3.70175 1.81781 0
M  V30 5518 H 505.011 0.661743 0.0547019 0
M  V30 5519 H 507.541 1.99327 -0.461508 0
M  V30 5520 H 507.551 3.9557 0.999426 0
M  V30 5521 H 506.226 4.1568 -0.135244 0
M  V30 5522 H 504.803 3.3996 1.53236 0
M  V30 5523 N 506.988 0.0434614 1.5754 0
M  V30 5524 C 508.404 -0.313039 1.565 0
M  V30 5525 C 508.604 -1.71954 1.05043 0
M  V30 5526 O 507.66 -2.425 0.703564 0
M  V30 5527 C 508.973 -0.148544 3.00333 0
M  V30 5528 C 510.521 -0.220231 3.12224 0
M  V30 5529 C 510.996 -0.0843565 4.57922 0
M  V30 5530 N 512.487 -0.140881 4.62986 0
M  V30 5531 C 513.222 -0.0597443 5.73369 0
M  V30 5532 N 512.718 0.0733004 6.92761 0
M  V30 5533 N 514.511 -0.11477 5.61983 0
M  V30 5534 H 506.662 0.96303 1.89313 0
M  V30 5535 H 508.925 0.373164 0.871466 0
M  V30 5536 H 508.631 0.820894 3.41986 0
M  V30 5537 H 508.505 -0.912798 3.65989 0
M  V30 5538 H 510.892 -1.18014 2.70475 0
M  V30 5539 H 510.973 0.574646 2.49262 0
M  V30 5540 H 510.617 0.872192 5.00355 0
M  V30 5541 H 510.547 -0.898281 5.18882 0
M  V30 5542 H 513.038 -0.243273 3.77116 0
M  V30 5543 H 513.351 0.128128 7.72694 0
M  V30 5544 H 511.696 0.10828 6.94916 0
M  V30 5545 H 514.887 -0.217212 4.67596 0
M  V30 5546 H 515.06 -0.0480779 6.47982 0
M  V30 5547 N 508.466 -1.55915 -0.229846 0
M  V30 5548 C 509.882 -1.48721 -0.579166 0
M  V30 5549 C 510.082 -0.736976 -1.87539 0
M  V30 5550 O 509.138 -0.273258 -2.51017 0
M  V30 5551 C 510.451 -2.9323 -0.666082 0
M  V30 5552 C 511.999 -3.03701 -0.757267 0
M  V30 5553 C 512.474 -4.49552 -0.8756 0
M  V30 5554 N 513.965 -4.53561 -0.940035 0
M  V30 5555 C 514.7 -5.63683 -1.05116 0
M  V30 5556 N 514.196 -6.83576 -1.12675 0
M  V30 5557 N 515.989 -5.51516 -1.08565 0
M  V30 5558 H 508.14 -2.03123 0.620857 0
M  V30 5559 H 510.403 -0.922898 0.21671 0
M  V30 5560 H 510.109 -3.51032 0.21664 0
M  V30 5561 H 509.983 -3.44668 -1.53243 0
M  V30 5562 H 512.37 -2.45969 -1.63043 0
M  V30 5563 H 512.451 -2.55446 0.134583 0
M  V30 5564 H 512.095 -5.079 -0.00692351 0
M  V30 5565 H 512.025 -4.95506 -1.78274 0
M  V30 5566 H 514.516 -3.67215 -0.892269 0
M  V30 5567 H 514.829 -7.63251 -1.21109 0
M  V30 5568 H 513.174 -6.86303 -1.09603 0
M  V30 5569 H 516.365 -4.5678 -1.02319 0
M  V30 5570 H 516.538 -6.37372 -1.1688 0
M  V30 5571 N 509.944 0.496216 -1.49584 0
M  V30 5572 C 511.169 1.27865 -1.63295 0
M  V30 5573 C 511.594 1.85592 -0.306156 0
M  V30 5574 O 510.952 1.66092 0.726851 0
M  V30 5575 C 511 2.38128 -2.7079 0
M  V30 5576 O 510.104 3.42108 -2.30296 0
M  V30 5577 H 509.445 0.377279 -0.546403 0
M  V30 5578 H 511.975 0.593497 -1.95803 0
M  V30 5579 H 511.985 2.8382 -2.93104 0
M  V30 5580 H 510.66 1.95479 -3.67098 0
M  V30 5581 H 509.237 3.02301 -2.18331 0
M  V30 5582 N 511.423 1.38739 0.74761 0
M  V30 5583 C 512.333 1.38696 1.89211 0
M  V30 5584 C 513.349 0.283303 1.71678 0
M  V30 5585 O 514.525 0.522713 1.94498 0
M  V30 5586 C 511.59 1.21662 3.24653 0
M  V30 5587 C 510.651 2.41886 3.54669 0
M  V30 5588 C 509.884 2.25655 4.83648 0
M  V30 5589 O 510.107 1.25339 5.56459 0
M  V30 5590 O 509.041 3.14372 5.13277 0
M  V30 5591 H 512.867 2.35143 1.92202 0
M  V30 5592 H 510.452 1.19721 0.893708 0
M  V30 5593 H 512.334 1.14246 4.05618 0
M  V30 5594 H 511.009 0.283024 3.2246 0
M  V30 5595 H 509.916 2.54877 2.73841 0
M  V30 5596 H 511.249 3.33895 3.61628 0
M  V30 5597 N 512.901 -0.976442 1.23707 0
M  V30 5598 C 513.864 -2.0511 1.02287 0
M  V30 5599 C 514.864 -1.60791 -0.0167195 0
M  V30 5600 O 516.054 -1.72761 0.223408 0
M  V30 5601 C 513.186 -3.36458 0.548507 0
M  V30 5602 H 514.379 -2.25545 1.9766 0
M  V30 5603 H 511.932 -1.15042 1.05806 0
M  V30 5604 H 512.667 -3.21713 -0.408818 0
M  V30 5605 H 512.452 -3.69967 1.29874 0
M  V30 5606 H 513.942 -4.15489 0.419406 0
M  V30 5607 N 514.379 -1.04941 -1.1758 0
M  V30 5608 C 515.327 -0.64204 -2.23563 0
M  V30 5609 C 516.321 0.335453 -1.66045 0
M  V30 5610 O 517.527 0.20179 -1.78865 0
M  V30 5611 H 513.902 -0.18944 -0.727748 0
M  V30 5612 H 515.873 -1.54609 -2.55223 0
M  V30 5613 C 514.622 -0.0301051 -3.47687 0
M  V30 5614 H 513.945 -0.773339 -3.92249 0
M  V30 5615 H 515.385 0.217592 -4.23441 0
M  V30 5616 C 513.844 1.2225 -3.13937 0
M  V30 5617 O 514.374 2.3122 -3.28482 0
M  V30 5618 N 512.58 1.11917 -2.68185 0
M  V30 5619 H 512.127 0.232403 -2.5655 0
M  V30 5620 H 512.085 1.95814 -2.45976 0
M  V30 5621 N 515.857 1.33968 -0.830081 0
M  V30 5622 C 516.787 2.31911 -0.271911 0
M  V30 5623 C 517.768 1.58571 0.61556 0
M  V30 5624 O 518.953 1.86514 0.540946 0
M  V30 5625 C 516.083 3.42737 0.561146 0
M  V30 5626 C 515.037 4.27383 -0.229789 0
M  V30 5627 C 514.363 5.29742 0.726463 0
M  V30 5628 C 515.663 5.02 -1.44197 0
M  V30 5629 H 517.357 2.78844 -1.09025 0
M  V30 5630 H 514.903 1.34061 -0.52571 0
M  V30 5631 H 516.856 4.10276 0.961867 0
M  V30 5632 H 515.58 2.94471 1.41261 0
M  V30 5633 H 514.239 3.61456 -0.611964 0
M  V30 5634 H 513.887 4.77736 1.57408 0
M  V30 5635 H 513.587 5.87255 0.20142 0
M  V30 5636 H 515.111 6.00149 1.12489 0
M  V30 5637 H 516.525 5.62355 -1.11488 0
M  V30 5638 H 514.922 5.69122 -1.90317 0
M  V30 5639 H 515.992 4.31281 -2.2164 0
M  V30 5640 N 517.335 0.585699 1.46312 0
M  V30 5641 C 518.267 -0.183687 2.28463 0
M  V30 5642 C 519.28 -0.85264 1.38686 0
M  V30 5643 O 520.469 -0.721701 1.6326 0
M  V30 5644 C 517.569 -1.27977 3.13808 0
M  V30 5645 C 516.742 -0.702164 4.31727 0
M  V30 5646 C 515.801 -1.68633 4.98447 0
M  V30 5647 O 514.827 -1.22121 5.55945 0
M  V30 5648 N 516.029 -3.02047 4.95729 0
M  V30 5649 H 518.794 0.521127 2.95134 0
M  V30 5650 H 516.355 0.423673 1.56258 0
M  V30 5651 H 518.347 -1.9375 3.55307 0
M  V30 5652 H 516.917 -1.8874 2.4919 0
M  V30 5653 H 516.137 0.1331 3.93975 0
M  V30 5654 H 517.425 -0.296101 5.07938 0
M  V30 5655 H 516.823 -3.42457 4.50266 0
M  V30 5656 H 515.38 -3.63301 5.41161 0
M  V30 5657 N 518.813 -1.54241 0.323641 0
M  V30 5658 C 520.038 -2.05452 -0.283605 0
M  V30 5659 C 520.463 -1.19823 -1.44997 0
M  V30 5660 O 519.821 -0.207358 -1.8011 0
M  V30 5661 C 519.869 -3.53823 -0.695795 0
M  V30 5662 O 518.973 -3.71134 -1.79815 0
M  V30 5663 H 518.314 -0.662024 -0.0511917 0
M  V30 5664 H 520.844 -1.99079 0.472073 0
M  V30 5665 H 520.854 -3.96094 -0.978434 0
M  V30 5666 H 519.529 -4.15602 0.157287 0
M  V30 5667 H 518.106 -3.40768 -1.51431 0
M  V30 5668 N 520.291 -0.0518155 -1.57515 0
M  V30 5669 C 521.238 0.922352 -2.11569 0
M  V30 5670 C 522.208 1.30842 -1.02321 0
M  V30 5671 O 523.393 1.39778 -1.29872 0
M  V30 5672 C 520.533 2.19167 -2.6657 0
M  V30 5673 C 519.646 1.86003 -3.89906 0
M  V30 5674 C 518.781 3.07398 -4.33221 0
M  V30 5675 C 517.82 2.70158 -5.49255 0
M  V30 5676 N 516.957 3.84248 -5.8762 0
M  V30 5677 H 521.797 0.454506 -2.94514 0
M  V30 5678 H 519.334 0.212718 -1.45554 0
M  V30 5679 H 521.292 2.93443 -2.96559 0
M  V30 5680 H 519.922 2.63528 -1.86421 0
M  V30 5681 H 518.974 1.01874 -3.66505 0
M  V30 5682 H 520.286 1.54592 -4.74239 0
M  V30 5683 H 519.44 3.89972 -4.64765 0
M  V30 5684 H 518.179 3.41988 -3.477 0
M  V30 5685 H 517.184 1.86001 -5.17382 0
M  V30 5686 H 518.409 2.36759 -6.36492 0
M  V30 5687 H 516.355 4.18638 -5.05053 0
M  V30 5688 H 516.272 3.56538 -6.66646 0
M  V30 5689 H 517.54 4.6746 -6.2378 0
M  V30 5690 N 521.769 1.56035 0.221574 0
M  V30 5691 C 522.994 1.83476 0.967026 0
M  V30 5692 C 523.419 0.632139 1.7716 0
M  V30 5693 O 522.777 -0.419082 1.7639 0
M  V30 5694 C 522.825 3.08907 1.86034 0
M  V30 5695 O 521.929 2.876 2.95567 0
M  V30 5696 H 521.27 0.604913 0.273817 0
M  V30 5697 H 523.8 2.03247 0.234893 0
M  V30 5698 H 523.81 3.3901 2.27016 0
M  V30 5699 H 522.485 3.96068 1.26898 0
M  V30 5700 H 521.062 2.6873 2.58532 0
M  V30 5701 N 523.247 -0.488276 1.49845 0
M  V30 5702 C 524.157 -1.61451 1.70207 0
M  V30 5703 C 525.173 -1.63877 0.584846 0
M  V30 5704 O 526.349 -1.82063 0.861107 0
M  V30 5705 C 523.414 -2.9776 1.77594 0
M  V30 5706 C 522.475 -3.05861 3.01243 0
M  V30 5707 C 521.708 -4.35668 3.08268 0
M  V30 5708 O 521.931 -5.25197 2.22541 0
M  V30 5709 O 520.865 -4.49005 4.00847 0
M  V30 5710 H 524.691 -1.47199 2.65643 0
M  V30 5711 H 522.276 -0.665939 1.33737 0
M  V30 5712 H 524.158 -3.7875 1.84732 0
M  V30 5713 H 522.833 -3.12248 0.8534 0
M  V30 5714 H 521.74 -2.24012 2.99616 0
M  V30 5715 H 523.073 -2.96304 3.9302 0
M  V30 5716 N 524.725 -1.39134 -0.740242 0
M  V30 5717 C 526.002 -1.26584 -1.49117 0
M  V30 5718 C 526.382 0.126902 -2.10718 0
M  V30 5719 O 525.73 1.13765 -1.98166 0
M  V30 5720 C 525.94 -2.38619 -2.54681 0
M  V30 5721 C 527.288 -2.77685 -3.21211 0
M  V30 5722 O 528.312 -2.38029 -2.64991 0
M  V30 5723 O 527.171 -3.46115 -4.22926 0
M  V30 5724 H 524.265 -0.495769 -0.661923 0
M  V30 5725 H 526.811 -1.50995 -0.774514 0
M  V30 5726 H 525.583 -3.3175 -2.07504 0
M  V30 5727 H 525.206 -2.15845 -3.33911 0
M  V30 5728 N 526.204 0.969867 -1.24223 0
M  V30 5729 C 527.137 2.06279 -0.975926 0
M  V30 5730 C 528.115 1.62353 0.0895385 0
M  V30 5731 O 529.299 1.88442 -0.0469418 0
M  V30 5732 C 526.426 3.35391 -0.472315 0
M  V30 5733 C 525.472 3.98266 -1.526 0
M  V30 5734 S 526.305 4.36172 -3.10667 0
M  V30 5735 C 527.461 5.68423 -2.62003 0
M  V30 5736 H 527.694 2.28551 -1.90137 0
M  V30 5737 H 525.227 1.10748 -1.07584 0
M  V30 5738 H 527.185 4.10068 -0.188376 0
M  V30 5739 H 525.846 3.1111 0.432378 0
M  V30 5740 H 525.039 4.91307 -1.12399 0
M  V30 5741 H 524.641 3.30009 -1.75983 0
M  V30 5742 H 526.933 6.45842 -2.0468 0
M  V30 5743 H 527.876 6.13478 -3.53625 0
M  V30 5744 H 528.284 5.26928 -2.02502 0
M  V30 5745 N 527.682 1.05563 1.17022 0
M  V30 5746 C 528.91 0.78845 1.91288 0
M  V30 5747 C 529.325 -0.656318 1.77025 0
M  V30 5748 O 528.682 -1.44869 1.10992 0
M  V30 5749 C 528.733 1.16444 3.42232 0
M  V30 5750 O 528.454 2.5525 3.5606 0
M  V30 5751 C 529.955 0.923937 4.33565 0
M  V30 5752 H 527.175 0.286389 0.606813 0
M  V30 5753 H 529.719 1.4073 1.48375 0
M  V30 5754 H 527.874 0.590266 3.82877 0
M  V30 5755 H 528.288 2.70097 4.49609 0
M  V30 5756 H 529.762 1.23672 5.37968 0
M  V30 5757 H 530.239 -0.140688 4.38975 0
M  V30 5758 H 530.845 1.48214 3.98639 0
M  V30 5759 N 529.16 -1.33526 0.837174 0
M  V30 5760 C 530.09 -2.31764 0.284206 0
M  V30 5761 C 531.071 -1.58896 -0.607142 0
M  V30 5762 O 532.256 -1.86798 -0.531047 0
M  V30 5763 C 529.386 -3.43029 -0.542962 0
M  V30 5764 C 528.34 -4.27255 0.252451 0
M  V30 5765 C 527.666 -5.3012 -0.69836 0
M  V30 5766 C 528.966 -5.01229 1.46858 0
M  V30 5767 H 530.66 -2.78262 1.10502 0
M  V30 5768 H 528.206 -1.3378 0.532812 0
M  V30 5769 H 530.159 -4.1078 -0.940096 0
M  V30 5770 H 528.883 -2.95216 -1.39697 0
M  V30 5771 H 527.542 -3.61127 0.631124 0
M  V30 5772 H 527.19 -4.78564 -1.54872 0
M  V30 5773 H 526.89 -5.87353 -0.170274 0
M  V30 5774 H 528.414 -6.00737 -1.09305 0
M  V30 5775 H 529.828 -5.61756 1.14469 0
M  V30 5776 H 528.225 -5.68104 1.93333 0
M  V30 5777 H 529.295 -4.301 2.23924 0
M  V30 5778 N 530.638 -0.59345 -1.46 0
M  V30 5779 C 531.586 0.146268 -2.3214 0
M  V30 5780 C 532.58 0.873743 -1.45128 0
M  V30 5781 O 533.786 0.790912 -1.61693 0
M  V30 5782 H 530.161 0.0660349 -0.749095 0
M  V30 5783 H 532.132 -0.598895 -2.92328 0
M  V30 5784 C 530.881 1.1396 -3.28494 0
M  V30 5785 H 530.204 0.589252 -3.95434 0
M  V30 5786 H 531.644 1.62738 -3.91526 0
M  V30 5787 C 530.103 2.20604 -2.54628 0
M  V30 5788 O 530.633 3.28128 -2.31722 0
M  V30 5789 N 528.839 1.95502 -2.15005 0
M  V30 5790 H 528.386 1.0807 -2.33834 0
M  V30 5791 H 528.344 2.67064 -1.65904 0
M  V30 5792 N 532.116 1.54067 -0.331816 0
M  V30 5793 C 533.365 1.99895 0.269209 0
M  V30 5794 C 533.678 1.22371 1.52593 0
M  V30 5795 O 534.884 1.58618 2.20347 0
M  V30 5796 C 533.34 3.55972 0.530244 0
M  V30 5797 C 532.948 4.4234 -0.709901 0
M  V30 5798 C 534.692 4.10247 1.09077 0
M  V30 5799 C 532.599 5.89905 -0.420312 0
M  V30 5800 H 531.529 0.746741 0.104371 0
M  V30 5801 H 534.18 1.78014 -0.445324 0
M  V30 5802 H 532.562 3.73873 1.30518 0
M  V30 5803 H 533.736 4.36215 -1.48504 0
M  V30 5804 H 532.051 3.98997 -1.19123 0
M  V30 5805 H 534.648 5.18095 1.32219 0
M  V30 5806 H 534.991 3.62739 2.0427 0
M  V30 5807 H 535.524 3.96011 0.376824 0
M  V30 5808 H 532.263 6.41623 -1.34164 0
M  V30 5809 H 531.783 5.98962 0.316962 0
M  V30 5810 H 533.462 6.46991 -0.0331956 0
M  V30 5811 N 533.594 0.0601682 1.57485 0
M  V30 5812 C 534.524 -0.90889 2.15085 0
M  V30 5813 C 535.505 -1.31838 1.07484 0
M  V30 5814 O 536.69 -1.3915 1.35466 0
M  V30 5815 C 533.82 -2.18059 2.7031 0
M  V30 5816 C 532.774 -1.91088 3.82974 0
M  V30 5817 C 532.1 -3.24789 4.24754 0
M  V30 5818 C 533.4 -1.22535 5.07723 0
M  V30 5819 H 535.094 -0.429093 2.96309 0
M  V30 5820 H 532.64 -0.204952 1.42534 0
M  V30 5821 H 534.593 -2.86258 3.09248 0
M  V30 5822 H 533.317 -2.6826 1.8629 0
M  V30 5823 H 531.976 -1.25297 3.44523 0
M  V30 5824 H 531.624 -3.72809 3.37672 0
M  V30 5825 H 531.324 -3.07538 5.00694 0
M  V30 5826 H 532.848 -3.94205 4.66299 0
M  V30 5827 H 534.262 -1.80783 5.4405 0
M  V30 5828 H 532.659 -1.1558 5.88864 0
M  V30 5829 H 533.729 -0.202692 4.84476 0
M  V30 5830 N 535.072 -1.5615 -0.213296 0
M  V30 5831 C 536.483 -1.69645 -0.779582 0
M  V30 5832 C 536.834 -0.663615 -1.84636 0
M  V30 5833 O 535.959 0.183633 -2.15619 0
M  V30 5834 C 536.554 -3.07567 -1.42084 0
M  V30 5835 C 535.113 -3.22889 -1.93442 0
M  V30 5836 C 534.26 -2.65581 -0.797612 0
M  V30 5837 H 537.211 -1.58696 0.0114951 0
M  V30 5838 H 537.232 -3.03884 -2.28986 0
M  V30 5839 H 536.744 -3.82716 -0.644187 0
M  V30 5840 H 534.845 -2.52623 -2.73884 0
M  V30 5841 H 534.958 -4.30197 -2.10872 0
M  V30 5842 H 533.322 -2.24278 -1.20712 0
M  V30 5843 H 534.105 -3.43284 -0.033494 0
M  V30 5844 N 536.55 0.480323 -1.50102 0
M  V30 5845 C 537.46 1.60547 -1.71061 0
M  V30 5846 C 538.476 1.63564 -0.593529 0
M  V30 5847 O 539.652 1.81604 -0.870751 0
M  V30 5848 C 536.717 2.96814 -1.79171 0
M  V30 5849 C 535.778 3.04259 -3.02861 0
M  V30 5850 C 535.011 4.34027 -3.10574 0
M  V30 5851 O 535.234 5.24009 -2.25323 0
M  V30 5852 O 534.168 4.46873 -4.03223 0
M  V30 5853 H 537.994 1.45788 -2.6642 0
M  V30 5854 H 535.579 0.658838 -1.34088 0
M  V30 5855 H 537.461 3.77765 -1.86738 0
M  V30 5856 H 536.136 3.11791 -0.869947 0
M  V30 5857 H 535.043 2.22419 -3.008 0
M  V30 5858 H 536.376 2.94216 -3.94586 0
M  V30 5859 N 538.028 1.39524 0.732853 0
M  V30 5860 C 539.275 1.36865 1.49246 0
M  V30 5861 C 539.603 -0.0347118 1.94469 0
M  V30 5862 O 538.858 -1.01596 1.67262 0
M  V30 5863 C 539.157 2.28916 2.74468 0
M  V30 5864 C 538.823 3.76506 2.481 0
M  V30 5865 C 537.485 4.16721 2.40619 0
M  V30 5866 C 539.837 4.69846 2.25598 0
M  V30 5867 C 537.165 5.48334 2.08679 0
M  V30 5868 C 539.517 6.01739 1.95174 0
M  V30 5869 C 538.181 6.41015 1.86163 0
M  V30 5870 H 537.451 0.500824 0.546129 0
M  V30 5871 H 540.098 1.72047 0.840958 0
M  V30 5872 H 538.403 1.86859 3.4437 0
M  V30 5873 H 540.1 2.2415 3.32502 0
M  V30 5874 H 536.69 3.44635 2.54803 0
M  V30 5875 H 540.874 4.39608 2.30344 0
M  V30 5876 H 536.13 5.77685 2.00226 0
M  V30 5877 H 540.304 6.73591 1.76771 0
M  V30 5878 H 537.931 7.42917 1.61179 0
M  V30 5879 N 539.506 -0.963266 1.24736 0
M  V30 5880 C 540.453 -2.05857 1.04363 0
M  V30 5881 C 541.423 -1.6604 -0.0444951 0
M  V30 5882 O 542.608 -1.90477 0.110999 0
M  V30 5883 C 539.748 -3.38745 0.659235 0
M  V30 5884 C 538.861 -3.9173 1.82131 0
M  V30 5885 C 537.996 -5.12906 1.38208 0
M  V30 5886 C 537.035 -5.58098 2.51382 0
M  V30 5887 N 536.172 -6.7049 2.08295 0
M  V30 5888 H 541.012 -2.22616 1.98107 0
M  V30 5889 H 538.549 -1.09103 0.986661 0
M  V30 5890 H 540.507 -4.15107 0.417371 0
M  V30 5891 H 539.137 -3.21898 -0.241201 0
M  V30 5892 H 538.189 -3.11966 2.17672 0
M  V30 5893 H 539.501 -4.21225 2.67153 0
M  V30 5894 H 538.655 -5.96657 1.09935 0
M  V30 5895 H 537.394 -4.85105 0.502456 0
M  V30 5896 H 536.399 -4.72917 2.80409 0
M  V30 5897 H 537.624 -5.87911 3.39909 0
M  V30 5898 H 535.57 -6.44416 1.22737 0
M  V30 5899 H 535.487 -6.99458 2.86869 0
M  V30 5900 H 536.755 -7.57672 1.83175 0
M  V30 5901 N 540.985 -1.06182 -1.16461 0
M  V30 5902 C 541.917 -0.629584 -2.20383 0
M  V30 5903 C 542.93 0.311834 -1.59786 0
M  V30 5904 O 544.119 0.103 -1.78203 0
M  V30 5905 C 541.219 0.0973695 -3.3876 0
M  V30 5906 C 540.392 -0.857252 -4.28917 0
M  V30 5907 C 539.451 -0.169749 -5.25926 0
M  V30 5908 O 538.477 -0.807044 -5.6345 0
M  V30 5909 N 539.679 1.08911 -5.70192 0
M  V30 5910 H 542.444 -1.52352 -2.58087 0
M  V30 5911 H 540.005 -0.944993 -1.31459 0
M  V30 5912 H 541.997 0.567676 -4.00699 0
M  V30 5913 H 540.567 0.893093 -2.99571 0
M  V30 5914 H 539.787 -1.50696 -3.64259 0
M  V30 5915 H 541.075 -1.50489 -4.86035 0
M  V30 5916 H 540.473 1.62703 -5.41797 0
M  V30 5917 H 539.03 1.50331 -6.34227 0
M  V30 5918 N 542.463 1.3308 -0.844243 0
M  V30 5919 C 543.411 2.31028 -0.269954 0
M  V30 5920 C 544.405 1.58381 0.600997 0
M  V30 5921 O 545.611 1.73203 0.48996 0
M  V30 5922 H 541.986 0.748866 -0.0685782 0
M  V30 5923 H 543.957 2.76967 -1.11049 0
M  V30 5924 C 542.706 3.43549 0.535676 0
M  V30 5925 H 542.029 3.99604 -0.125202 0
M  V30 5926 H 543.469 4.14267 0.903262 0
M  V30 5927 C 541.928 2.8988 1.71672 0
M  V30 5928 O 542.458 2.86511 2.81557 0
M  V30 5929 N 540.664 2.46416 1.54037 0
M  V30 5930 H 540.211 2.49356 0.64649 0
M  V30 5931 H 540.169 2.1086 2.33207 0
M  V30 5932 N 543.941 0.601185 1.45683 0
M  V30 5933 C 545.189 0.0936957 2.01883 0
M  V30 5934 C 545.51 -1.2779 1.47291 0
M  V30 5935 O 544.78 -1.84279 0.664691 0
M  V30 5936 H 543.36 0.0316466 0.746329 0
M  V30 5937 H 546.022 0.781137 1.78562 0
M  V30 5938 H 545.118 0.0386297 3.12076 0
M  V30 5939 N 545.419 -1.53889 0.339982 0
M  V30 5940 C 546.696 -1.93084 -0.312719 0
M  V30 5941 C 547.076 -1.2712 -1.68534 0
M  V30 5942 O 546.424 -0.420835 -2.24591 0
M  V30 5943 C 546.634 -3.4683 -0.388558 0
M  V30 5944 C 547.982 -4.19732 -0.641088 0
M  V30 5945 O 549.006 -3.53075 -0.470818 0
M  V30 5946 O 547.865 -5.3781 -0.970685 0
M  V30 5947 H 544.959 -0.806784 -0.18174 0
M  V30 5948 H 547.505 -1.65137 0.390898 0
M  V30 5949 H 546.277 -3.87055 0.574821 0
M  V30 5950 H 545.9 -3.80933 -1.1391 0
M  V30 5951 N 546.897 -0.0685191 -1.57451 0
M  V30 5952 C 548.125 0.610462 -1.97689 0
M  V30 5953 C 548.54 1.63346 -0.946758 0
M  V30 5954 O 547.897 1.82377 0.0669868 0
M  V30 5955 C 547.948 1.28196 -3.38006 0
M  V30 5956 O 547.669 0.299906 -4.37072 0
M  V30 5957 C 549.17 2.04907 -3.931 0
M  V30 5958 H 546.39 0.165689 -0.650222 0
M  V30 5959 H 548.934 -0.139953 -2.04021 0
M  V30 5960 H 547.089 1.98348 -3.32771 0
M  V30 5961 H 547.503 0.78126 -5.18649 0
M  V30 5962 H 548.977 2.47287 -4.93511 0
M  V30 5963 H 549.454 2.9043 -3.29465 0
M  V30 5964 H 550.06 1.39629 -4.01726 0
M  V30 5965 N 548.375 1.56261 0.205012 0
M  V30 5966 C 549.6 1.84491 0.947512 0
M  V30 5967 C 550.025 0.650894 1.76479 0
M  V30 5968 O 549.383 -0.40035 1.76824 0
M  V30 5969 C 549.431 3.10863 1.82747 0
M  V30 5970 O 548.535 2.90719 2.925 0
M  V30 5971 H 547.876 0.607783 0.267386 0
M  V30 5972 H 550.406 2.03485 0.213323 0
M  V30 5973 H 550.416 3.41399 2.23407 0
M  V30 5974 H 549.091 3.97392 1.2269 0
M  V30 5975 H 547.668 2.71457 2.55667 0
M  V30 5976 N 549.853 -0.472356 1.50355 0
M  V30 5977 C 550.783 -1.57859 1.72055 0
M  V30 5978 C 551.764 -1.60283 0.569505 0
M  V30 5979 O 552.949 -1.7657 0.808503 0
M  V30 5980 C 550.079 -2.96191 1.81351 0
M  V30 5981 C 549.033 -3.08633 2.96529 0
M  V30 5982 C 548.359 -4.486 2.90968 0
M  V30 5983 C 549.659 -2.85969 4.37057 0
M  V30 5984 H 551.353 -1.39953 2.64676 0
M  V30 5985 H 548.899 -0.671846 1.27367 0
M  V30 5986 H 550.852 -3.73507 1.95117 0
M  V30 5987 H 549.576 -3.15251 0.853502 0
M  V30 5988 H 548.235 -2.33749 2.82413 0
M  V30 5989 H 547.883 -4.64577 1.92815 0
M  V30 5990 H 547.583 -4.57861 3.68289 0
M  V30 5991 H 549.107 -5.27938 3.0678 0
M  V30 5992 H 550.521 -3.53036 4.51706 0
M  V30 5993 H 548.918 -3.06677 5.15819 0
M  V30 5994 H 549.988 -1.81838 4.49514 0
M  V30 5995 O 551.37 -1.49213 -0.617887 0
M  V30 5996 H 552.061 -1.46058 -1.27227 0
M  V30 END ATOM
M  V30 BEGIN BOND
M  V30 END BOND
M  V30 END CTAB
M  END
$$$$
