drugbank_target|Q9Y221 60S ribosome subunit biogenesis protein NIP7 homolog (DB12339)
 OpenBabel12092120323D

  0  0  0     0  0            999 V3000
M  V30 BEGIN CTAB
M  V30 COUNTS 7322 7860 0 0 0
M  V30 BEGIN ATOM
M  V30 1 H -1.547 9.37743 -1.21644 0
M  V30 2 O -1.44 8.89599 -0.40059 0
M  V30 3 P 0 8.91 0 0
M  V30 4 O 0.22 10.1746 0.733838 0
M  V30 5 O 0.79 8.73346 -1.23964 0
M  V30 6 O 0.25 7.66872 0.971405 0
M  V30 7 C -0.69 7.42405 2.04668 0
M  V30 8 C 0.04 6.86059 3.24661 0
M  V30 9 O 0.25 5.42934 3.03695 0
M  V30 10 C 1.44 7.41287 3.50796 0
M  V30 11 O 1.83 7.27073 4.86816 0
M  V30 12 C 2.32 6.5273 2.63741 0
M  V30 13 C 1.61 5.1842 2.73198 0
M  V30 14 N 1.66 4.38762 1.4784 0
M  V30 15 H -1.178 8.36899 2.3252 0
M  V30 16 H -1.45 6.70391 1.71179 0
M  V30 17 H -0.582 7.03638 4.13219 0
M  V30 18 H 2.073 4.59931 3.54016 0
M  V30 19 H 2.353 6.88995 1.59871 0
M  V30 20 H 3.344 6.4684 3.0373 0
M  V30 21 H 1.51 8.47002 3.20749 0
M  V30 22 P 3.37998 7.20834 5.23717 0
M  V30 23 O 3.59998 7.79853 6.57286 0
M  V30 24 O 4.16998 7.79239 4.12957 0
M  V30 25 O 3.62998 5.63315 5.29344 0
M  V30 26 C 2.68998 4.80255 6.01876 0
M  V30 27 C 3.41998 3.64202 6.65911 0
M  V30 28 O 3.62998 2.60694 5.64732 0
M  V30 29 C 4.81998 3.93473 7.1943 0
M  V30 30 O 5.20998 3.02071 8.21205 0
M  V30 31 C 5.69998 3.73047 5.97036 0
M  V30 32 C 4.98998 2.58828 5.25741 0
M  V30 33 N 5.03998 2.68068 3.77503 0
M  V30 34 C 4.95998 3.79715 2.96723 0
M  V30 35 N 5.03998 3.5377 1.68852 0
M  V30 36 C 5.17998 2.15054 1.63254 0
M  V30 37 C 5.30998 1.28964 0.518571 0
M  V30 38 N 5.42998 -0.0538097 0.918425 0
M  V30 39 C 5.42998 -0.494275 2.22578 0
M  V30 40 N 5.55998 -1.81086 2.40434 0
M  V30 41 N 5.29998 0.313645 3.27502 0
M  V30 42 C 5.17998 1.61829 2.91033 0
M  V30 43 H 2.20098 5.40332 6.79951 0
M  V30 44 H 1.93098 4.41613 5.32378 0
M  V30 45 H 2.79798 3.26331 7.47797 0
M  V30 46 P 6.75996 2.75334 8.47391 0
M  V30 47 O 6.97996 2.44571 9.90142 0
M  V30 48 O 7.54996 3.87688 7.92115 0
M  V30 49 O 7.00996 1.4459 7.59357 0
M  V30 50 C 6.06996 0.347608 7.69215 0
M  V30 51 C 6.79996 -0.96767 7.52806 0
M  V30 52 O 7.00996 -1.21036 6.1011 0
M  V30 53 C 8.19996 -1.04544 8.13308 0
M  V30 54 O 8.58996 -2.38311 8.41922 0
M  V30 55 C 9.07996 -0.491279 7.02284 0
M  V30 56 C 8.36996 -0.996264 5.77469 0
M  V30 57 N 8.41996 -0.0501916 4.62973 0
M  V30 58 H 5.58096 0.374722 8.67691 0
M  V30 59 H 5.31096 0.443485 6.90277 0
M  V30 60 H 6.17796 -1.75537 7.96793 0
M  V30 61 P 10.1399 -2.75334 8.47391 0
M  V30 62 O 10.3599 -3.84128 9.44797 0
M  V30 63 O 10.9299 -1.51947 8.68712 0
M  V30 64 O 10.3899 -3.29363 6.99321 0
M  V30 65 C 9.44994 -4.24011 6.4274 0
M  V30 66 C 10.1799 -5.20775 5.52155 0
M  V30 67 O 10.3899 -4.56534 4.22446 0
M  V30 68 C 11.5799 -5.62629 5.96531 0
M  V30 69 O 11.9699 -6.87667 5.41053 0
M  V30 70 C 12.4599 -4.52537 5.39283 0
M  V30 71 C 11.7499 -4.20027 4.08623 0
M  V30 72 N 11.7999 -2.76189 3.71603 0
M  V30 73 H 8.96094 -4.797 7.24003 0
M  V30 74 H 8.69094 -3.69856 5.84513 0
M  V30 75 H 9.55794 -6.10356 5.41441 0
M  V30 76 P 13.5199 -7.20834 5.23717 0
M  V30 77 O 13.7399 -8.66189 5.38625 0
M  V30 78 O 14.3099 -6.33615 6.1356 0
M  V30 79 O 13.7699 -6.7751 3.72168 0
M  V30 80 C 12.8299 -7.20732 2.70725 0
M  V30 81 C 13.5599 -7.45864 1.40599 0
M  V30 82 O 13.7699 -6.17651 0.734225 0
M  V30 83 C 14.9599 -8.05808 1.51899 0
M  V30 84 O 15.3499 -8.74358 0.335205 0
M  V30 85 C 15.8399 -6.83093 1.70294 0
M  V30 86 C 15.1299 -5.79992 0.836974 0
M  V30 87 N 15.1799 -4.41769 1.38263 0
M  V30 88 C 15.3299 -3.38591 0.481702 0
M  V30 89 O 15.4199 -3.56839 -0.718452 0
M  V30 90 N 15.3699 -2.1206 1.03569 0
M  V30 91 C 15.2799 -1.80696 2.36966 0
M  V30 92 O 15.3299 -0.630473 2.74862 0
M  V30 93 C 15.1299 -2.94845 3.23898 0
M  V30 94 C 15.0199 -2.65253 4.70362 0
M  V30 95 C 15.0799 -4.19803 2.73435 0
M  V30 96 H 12.3399 -8.13644 3.0377 0
M  V30 97 H 12.0709 -6.42695 2.55448 0
M  V30 98 H 12.9379 -8.12039 0.792769 0
M  V30 99 H 15.5929 -5.79978 -0.160587 0
M  V30 100 H 15.8719 -6.51379 2.75643 0
M  V30 101 H 16.8639 -7.01734 1.34462 0
M  V30 102 H 15.0299 -8.73674 2.38337 0
M  V30 103 H 14.9589 -5.04492 3.4095 0
M  V30 104 H 15.9889 -2.83924 5.1913 0
M  V30 105 H 14.2519 -3.29824 5.15163 0
M  V30 106 H 14.7399 -1.59723 4.84449 0
M  V30 107 H 15.4759 -1.35644 0.399345 0
M  V30 108 P 16.8999 -8.91 1.09116e-15 0
M  V30 109 O 17.1199 -10.1726 -0.733694 0
M  V30 110 O 17.6899 -8.73148 1.23936 0
M  V30 111 O 17.1499 -7.66872 -0.971405 0
M  V30 112 C 16.2099 -7.42309 -2.04641 0
M  V30 113 C 16.9399 -6.86059 -3.24661 0
M  V30 114 O 17.1499 -5.42847 -3.03646 0
M  V30 115 C 18.3399 -7.41196 -3.50753 0
M  V30 116 O 18.7299 -7.27073 -4.86816 0
M  V30 117 C 19.2199 -6.5273 -2.63741 0
M  V30 118 C 18.5099 -5.1842 -2.73198 0
M  V30 119 N 18.5599 -4.38762 -1.4784 0
M  V30 120 H 15.7209 -8.36803 -2.32493 0
M  V30 121 H 15.4509 -6.70197 -1.71129 0
M  V30 122 H 16.3179 -7.03551 -4.13168 0
M  V30 123 P 20.2799 -7.20834 -5.23717 0
M  V30 124 O 20.4999 -7.79853 -6.57286 0
M  V30 125 O 21.0699 -7.79239 -4.12957 0
M  V30 126 O 20.5299 -5.63315 -5.29344 0
M  V30 127 C 19.5899 -4.80255 -6.01876 0
M  V30 128 C 20.3199 -3.64202 -6.65911 0
M  V30 129 O 20.5299 -2.60694 -5.64732 0
M  V30 130 C 21.7199 -3.93473 -7.1943 0
M  V30 131 O 22.1099 -3.02071 -8.21205 0
M  V30 132 C 22.5999 -3.73047 -5.97036 0
M  V30 133 C 21.8899 -2.58828 -5.25741 0
M  V30 134 N 21.9399 -2.68068 -3.77503 0
M  V30 135 H 19.1009 -5.40332 -6.79951 0
M  V30 136 H 18.8309 -4.41613 -5.32378 0
M  V30 137 H 19.6979 -3.26331 -7.47797 0
M  V30 138 P 23.6599 -2.75334 -8.47391 0
M  V30 139 O 23.8799 -2.44571 -9.90142 0
M  V30 140 O 24.4499 -3.87688 -7.92115 0
M  V30 141 O 23.9099 -1.4459 -7.59357 0
M  V30 142 C 22.9699 -0.347608 -7.69215 0
M  V30 143 C 23.6999 0.96767 -7.52806 0
M  V30 144 O 23.9099 1.21036 -6.1011 0
M  V30 145 C 25.0999 1.04544 -8.13308 0
M  V30 146 O 25.4899 2.38311 -8.41922 0
M  V30 147 C 25.9799 0.491279 -7.02284 0
M  V30 148 C 25.2699 0.996264 -5.77469 0
M  V30 149 N 25.3199 0.0501916 -4.62973 0
M  V30 150 H 22.4809 -0.374722 -8.67691 0
M  V30 151 H 22.2109 -0.443485 -6.90277 0
M  V30 152 H 23.0779 1.75537 -7.96793 0
M  V30 153 P 27.0398 2.75334 -8.47391 0
M  V30 154 O 27.2598 3.84166 -9.4489 0
M  V30 155 O 27.8298 1.51964 -8.6881 0
M  V30 156 O 27.2898 3.29363 -6.99321 0
M  V30 157 C 26.3498 4.23956 -6.42656 0
M  V30 158 C 27.0798 5.20775 -5.52155 0
M  V30 159 O 27.2898 4.56534 -4.22446 0
M  V30 160 C 28.4798 5.62629 -5.96531 0
M  V30 161 O 28.8698 6.87667 -5.41053 0
M  V30 162 C 29.3598 4.52537 -5.39283 0
M  V30 163 C 28.6498 4.20027 -4.08623 0
M  V30 164 N 28.6998 2.7613 -3.71522 0
M  V30 165 C 28.8498 2.45612 -2.37989 0
M  V30 166 O 28.9398 3.30919 -1.51621 0
M  V30 167 N 28.8898 1.10684 -2.08435 0
M  V30 168 C 28.7998 0.0690084 -2.9792 0
M  V30 169 O 28.8498 -1.10553 -2.59426 0
M  V30 170 C 28.6498 0.481522 -4.35345 0
M  V30 171 C 28.5398 -0.618778 -5.36443 0
M  V30 172 C 28.5998 1.78906 -4.67968 0
M  V30 173 H 25.8598 4.797 -7.24003 0
M  V30 174 H 25.5908 3.69802 -5.84429 0
M  V30 175 H 26.4578 6.10356 -5.41441 0
M  V30 176 H 29.1128 4.78651 -3.27911 0
M  V30 177 H 29.3918 3.64957 -6.05871 0
M  V30 178 H 30.3838 4.8868 -5.2125 0
M  V30 179 H 28.5498 5.66726 -7.06352 0
M  V30 180 H 28.4788 2.07737 -5.72367 0
M  V30 181 H 29.5088 -0.754375 -5.86871 0
M  V30 182 H 27.7718 -0.359721 -6.10641 0
M  V30 183 H 28.2598 -1.55533 -4.8581 0
M  V30 184 H 28.9958 0.862651 -1.12037 0
M  V30 185 P 30.4198 7.20834 -5.23717 0
M  V30 186 O 30.6398 8.66104 -5.38572 0
M  V30 187 O 31.2098 6.33544 -6.1349 0
M  V30 188 O 30.6698 6.7751 -3.72168 0
M  V30 189 C 29.7298 7.20825 -2.7076 0
M  V30 190 C 30.4598 7.45864 -1.40599 0
M  V30 191 O 30.6698 6.17651 -0.734225 0
M  V30 192 C 31.8598 8.05808 -1.51899 0
M  V30 193 O 32.2498 8.74358 -0.335205 0
M  V30 194 C 32.7398 6.83093 -1.70294 0
M  V30 195 C 32.0298 5.79992 -0.836974 0
M  V30 196 N 32.0798 4.41864 -1.38293 0
M  V30 197 C 31.9998 3.99538 -2.69438 0
M  V30 198 N 32.0798 2.69909 -2.84277 0
M  V30 199 C 32.2198 2.21719 -1.5408 0
M  V30 200 C 32.3498 0.891712 -1.06628 0
M  V30 201 N 32.4698 0.856846 0.334985 0
M  V30 202 C 32.4698 1.9641 1.15789 0
M  V30 203 N 32.5998 1.72708 2.46522 0
M  V30 204 N 32.3398 3.21165 0.713741 0
M  V30 205 C 32.2198 3.26797 -0.639748 0
M  V30 206 H 29.2408 8.13644 -3.0377 0
M  V30 207 H 28.9708 6.42788 -2.55485 0
M  V30 208 H 29.8378 8.12039 -0.792769 0
M  V30 209 P 33.7998 8.91 -2.18232e-15 0
M  V30 210 O 34.0198 10.1726 0.733694 0
M  V30 211 O 34.5898 8.73148 -1.23936 0
M  V30 212 O 34.0498 7.66872 0.971405 0
M  V30 213 C 33.1098 7.42309 2.04641 0
M  V30 214 C 33.8398 6.86059 3.24661 0
M  V30 215 O 34.0498 5.42847 3.03646 0
M  V30 216 C 35.2398 7.41196 3.50753 0
M  V30 217 O 35.6298 7.27073 4.86816 0
M  V30 218 C 36.1198 6.5273 2.63741 0
M  V30 219 C 35.4098 5.1842 2.73198 0
M  V30 220 N 35.4598 4.38762 1.4784 0
M  V30 221 H 32.6208 8.36803 2.32493 0
M  V30 222 H 32.3508 6.70197 1.71129 0
M  V30 223 H 33.2178 7.03551 4.13168 0
M  V30 224 P 37.1798 7.20834 5.23717 0
M  V30 225 O 37.3998 7.80006 6.57415 0
M  V30 226 O 37.9698 7.79416 4.13051 0
M  V30 227 O 37.4298 5.63315 5.29344 0
M  V30 228 C 36.4898 4.80318 6.01954 0
M  V30 229 C 37.2198 3.64202 6.65911 0
M  V30 230 O 37.4298 2.60736 5.64823 0
M  V30 231 C 38.6198 3.93521 7.19518 0
M  V30 232 O 39.0098 3.02071 8.21205 0
M  V30 233 C 39.4998 3.73047 5.97036 0
M  V30 234 C 38.7898 2.58828 5.25741 0
M  V30 235 N 38.8398 2.68068 3.77503 0
M  V30 236 H 36.0018 5.40394 6.8003 0
M  V30 237 H 35.7298 4.41741 5.32532 0
M  V30 238 H 36.5978 3.26371 7.47889 0
M  V30 239 H 39.2528 1.64007 5.56746 0
M  V30 240 H 39.5328 4.63439 5.3432 0
M  V30 241 H 40.5238 3.44776 6.25925 0
M  V30 242 H 38.6898 4.96707 7.57347 0
M  V30 243 P 40.5598 2.75334 8.47391 0
M  V30 244 O 40.7798 2.44571 9.90142 0
M  V30 245 O 41.3498 3.87688 7.92115 0
M  V30 246 O 40.8098 1.4459 7.59357 0
M  V30 247 C 39.8698 0.347608 7.69215 0
M  V30 248 C 40.5998 -0.96767 7.52806 0
M  V30 249 O 40.8098 -1.21036 6.1011 0
M  V30 250 C 41.9998 -1.04544 8.13308 0
M  V30 251 O 42.3898 -2.38311 8.41922 0
M  V30 252 C 42.8798 -0.491279 7.02284 0
M  V30 253 C 42.1698 -0.996264 5.77469 0
M  V30 254 N 42.2198 -0.0501916 4.62973 0
M  V30 255 H 39.3808 0.374722 8.67691 0
M  V30 256 H 39.1108 0.443485 6.90277 0
M  V30 257 H 39.9778 -1.75537 7.96793 0
M  V30 258 P 43.9397 -2.75334 8.47391 0
M  V30 259 O 44.1597 -3.84128 9.44797 0
M  V30 260 O 44.7297 -1.51947 8.68712 0
M  V30 261 O 44.1897 -3.29363 6.99321 0
M  V30 262 C 43.2497 -4.24011 6.4274 0
M  V30 263 C 43.9797 -5.20775 5.52155 0
M  V30 264 O 44.1897 -4.56534 4.22446 0
M  V30 265 C 45.3797 -5.62629 5.96531 0
M  V30 266 O 45.7697 -6.87667 5.41053 0
M  V30 267 C 46.2597 -4.52537 5.39283 0
M  V30 268 C 45.5497 -4.20027 4.08623 0
M  V30 269 N 45.5997 -2.76189 3.71603 0
M  V30 270 H 42.7607 -4.797 7.24003 0
M  V30 271 H 42.4907 -3.69856 5.84513 0
M  V30 272 H 43.3577 -6.10356 5.41441 0
M  V30 273 P 47.3197 -7.20834 5.23717 0
M  V30 274 O 47.5397 -8.66104 5.38572 0
M  V30 275 O 48.1097 -6.33544 6.1349 0
M  V30 276 O 47.5697 -6.7751 3.72168 0
M  V30 277 C 46.6297 -7.20825 2.7076 0
M  V30 278 C 47.3597 -7.45864 1.40599 0
M  V30 279 O 47.5697 -6.17651 0.734225 0
M  V30 280 C 48.7597 -8.05808 1.51899 0
M  V30 281 O 49.1497 -8.74358 0.335205 0
M  V30 282 C 49.6397 -6.83093 1.70294 0
M  V30 283 C 48.9297 -5.79992 0.836974 0
M  V30 284 N 48.9797 -4.41864 1.38293 0
M  V30 285 H 46.1407 -8.13644 3.0377 0
M  V30 286 H 45.8707 -6.42788 2.55485 0
M  V30 287 H 46.7377 -8.12039 0.792769 0
M  V30 288 P 50.6997 -8.91 3.27348e-15 0
M  V30 289 O 50.9197 -10.1726 -0.733694 0
M  V30 290 O 51.4897 -8.73148 1.23936 0
M  V30 291 O 50.9497 -7.66872 -0.971405 0
M  V30 292 C 50.0097 -7.42309 -2.04641 0
M  V30 293 C 50.7397 -6.86059 -3.24661 0
M  V30 294 O 50.9497 -5.42847 -3.03646 0
M  V30 295 C 52.1397 -7.41196 -3.50753 0
M  V30 296 O 52.5297 -7.27073 -4.86816 0
M  V30 297 C 53.0197 -6.5273 -2.63741 0
M  V30 298 C 52.3097 -5.1842 -2.73198 0
M  V30 299 N 52.3597 -4.38762 -1.4784 0
M  V30 300 H 49.5207 -8.36803 -2.32493 0
M  V30 301 H 49.2507 -6.70197 -1.71129 0
M  V30 302 H 50.1177 -7.03551 -4.13168 0
M  V30 303 P 54.0797 -7.20834 -5.23717 0
M  V30 304 O 54.2997 -7.80006 -6.57415 0
M  V30 305 O 54.8697 -7.79416 -4.13051 0
M  V30 306 O 54.3297 -5.63315 -5.29344 0
M  V30 307 C 53.3897 -4.80318 -6.01954 0
M  V30 308 C 54.1197 -3.64202 -6.65911 0
M  V30 309 O 54.3297 -2.60736 -5.64823 0
M  V30 310 C 55.5197 -3.93521 -7.19518 0
M  V30 311 O 55.9097 -3.02071 -8.21205 0
M  V30 312 C 56.3997 -3.73047 -5.97036 0
M  V30 313 C 55.6897 -2.58828 -5.25741 0
M  V30 314 N 55.7397 -2.68068 -3.77503 0
M  V30 315 C 55.6597 -3.80474 -2.99159 0
M  V30 316 N 55.7297 -3.55622 -1.71925 0
M  V30 317 C 55.8797 -2.1832 -1.65733 0
M  V30 318 C 56.0097 -1.28842 -0.572777 0
M  V30 319 N 56.0197 -1.66875 0.70098 0
M  V30 320 N 56.1297 0.016788 -0.859836 0
M  V30 321 C 56.1197 0.398145 -2.13316 0
M  V30 322 N 55.9997 -0.328224 -3.22333 0
M  V30 323 C 55.8797 -1.62992 -2.90383 0
M  V30 324 H 52.9017 -5.40394 -6.8003 0
M  V30 325 H 52.6297 -4.41741 -5.32532 0
M  V30 326 H 53.4977 -3.26371 -7.47889 0
M  V30 327 H 56.1527 -1.64007 -5.56746 0
M  V30 328 H 56.4327 -4.63439 -5.3432 0
M  V30 329 H 57.4237 -3.44776 -6.25925 0
M  V30 330 H 55.5897 -4.96707 -7.57347 0
M  V30 331 H 55.5487 -4.8089 -3.39924 0
M  V30 332 H 55.9297 -2.66547 0.941919 0
M  V30 333 H 56.1187 -0.965341 1.44766 0
M  V30 334 H 56.2267 1.46427 -2.29697 0
M  V30 335 P 57.4597 -2.75334 -8.47391 0
M  V30 336 O 57.6797 -2.44571 -9.90142 0
M  V30 337 O 58.2497 -3.87688 -7.92115 0
M  V30 338 O 57.7097 -1.4459 -7.59357 0
M  V30 339 C 56.7697 -0.347608 -7.69215 0
M  V30 340 C 57.4997 0.96767 -7.52806 0
M  V30 341 O 57.7097 1.21036 -6.1011 0
M  V30 342 C 58.8997 1.04544 -8.13308 0
M  V30 343 O 59.2897 2.38311 -8.41922 0
M  V30 344 C 59.7797 0.491279 -7.02284 0
M  V30 345 C 59.0697 0.996264 -5.77469 0
M  V30 346 N 59.1197 0.0501916 -4.62973 0
M  V30 347 H 56.2807 -0.374722 -8.67691 0
M  V30 348 H 56.0107 -0.443485 -6.90277 0
M  V30 349 H 56.8777 1.75537 -7.96793 0
M  V30 350 P 60.8396 2.75334 -8.47391 0
M  V30 351 O 61.0596 3.84166 -9.4489 0
M  V30 352 O 61.6296 1.51964 -8.6881 0
M  V30 353 O 61.0896 3.29363 -6.99321 0
M  V30 354 C 60.1496 4.23956 -6.42656 0
M  V30 355 C 60.8796 5.20775 -5.52155 0
M  V30 356 O 61.0896 4.56534 -4.22446 0
M  V30 357 C 62.2796 5.62629 -5.96531 0
M  V30 358 O 62.6696 6.87667 -5.41053 0
M  V30 359 C 63.1596 4.52537 -5.39283 0
M  V30 360 C 62.4496 4.20027 -4.08623 0
M  V30 361 N 62.4996 2.7613 -3.71522 0
M  V30 362 C 62.6496 2.45612 -2.37989 0
M  V30 363 O 62.7396 3.30919 -1.51621 0
M  V30 364 N 62.6896 1.10684 -2.08435 0
M  V30 365 C 62.5996 0.0690084 -2.9792 0
M  V30 366 C 62.4496 0.481522 -4.35345 0
M  V30 367 C 62.3996 1.78906 -4.67968 0
M  V30 368 H 59.6596 4.797 -7.24003 0
M  V30 369 H 59.3906 3.69802 -5.84429 0
M  V30 370 H 60.2576 6.10356 -5.41441 0
M  V30 371 H 62.9126 4.78651 -3.27911 0
M  V30 372 H 63.1916 3.64957 -6.05871 0
M  V30 373 H 64.1836 4.8868 -5.2125 0
M  V30 374 H 62.3496 5.66726 -7.06352 0
M  V30 375 H 62.2786 2.07737 -5.72367 0
M  V30 376 P 64.2196 7.20834 -5.23717 0
M  V30 377 O 64.4396 8.66104 -5.38572 0
M  V30 378 O 65.0096 6.33544 -6.1349 0
M  V30 379 O 64.4696 6.7751 -3.72168 0
M  V30 380 C 63.5296 7.20825 -2.7076 0
M  V30 381 C 64.2596 7.45864 -1.40599 0
M  V30 382 O 64.4696 6.17651 -0.734225 0
M  V30 383 C 65.6596 8.05808 -1.51899 0
M  V30 384 O 66.0496 8.74358 -0.335205 0
M  V30 385 C 66.5396 6.83093 -1.70294 0
M  V30 386 C 65.8296 5.79992 -0.836974 0
M  V30 387 N 65.8796 4.41864 -1.38293 0
M  V30 388 H 63.0406 8.13644 -3.0377 0
M  V30 389 H 62.7706 6.42788 -2.55485 0
M  V30 390 H 63.6376 8.12039 -0.792769 0
M  V30 391 P 67.5996 8.91 -4.36464e-15 0
M  V30 392 O 67.8196 10.1726 0.733694 0
M  V30 393 O 68.3896 8.73148 -1.23936 0
M  V30 394 O 67.8496 7.66872 0.971405 0
M  V30 395 C 66.9096 7.42309 2.04641 0
M  V30 396 C 67.6396 6.86059 3.24661 0
M  V30 397 O 67.8496 5.42847 3.03646 0
M  V30 398 C 69.0396 7.41196 3.50753 0
M  V30 399 O 69.4296 7.27073 4.86816 0
M  V30 400 C 69.9196 6.5273 2.63741 0
M  V30 401 C 69.2096 5.1842 2.73198 0
M  V30 402 N 69.2596 4.38762 1.4784 0
M  V30 403 C 69.1796 4.81605 0.168631 0
M  V30 404 N 69.2596 3.85454 -0.713363 0
M  V30 405 C 69.3996 2.6994 0.0566958 0
M  V30 406 C 69.5296 1.34815 -0.338502 0
M  V30 407 O 69.5496 0.869548 -1.47125 0
M  V30 408 N 69.6496 0.496304 0.77465 0
M  V30 409 C 69.6496 0.908403 2.09122 0
M  V30 410 N 69.7796 -0.0517805 3.00955 0
M  V30 411 N 69.5196 2.17875 2.46519 0
M  V30 412 C 69.3996 3.01988 1.4033 0
M  V30 413 H 66.4206 8.36803 2.32493 0
M  V30 414 H 66.1506 6.70197 1.71129 0
M  V30 415 H 67.0176 7.03551 4.13168 0
M  V30 416 H 69.6726 4.59498 3.54415 0
M  V30 417 H 69.9516 6.88898 1.59848 0
M  V30 418 H 70.9436 6.46749 3.03687 0
M  V30 419 H 69.1096 8.46908 3.20714 0
M  V30 420 H 69.0606 5.86405 -0.105564 0
M  V30 421 H 69.7426 -0.483664 0.597855 0
M  V30 422 H 69.7796 0.187865 4.0116 0
M  V30 423 H 69.8806 -1.03585 2.71726 0
M  V30 424 P 70.9796 7.20834 5.23717 0
M  V30 425 O 71.1996 7.79853 6.57286 0
M  V30 426 O 71.7696 7.79239 4.12957 0
M  V30 427 O 71.2296 5.63315 5.29344 0
M  V30 428 C 70.2896 4.80255 6.01876 0
M  V30 429 C 71.0196 3.64202 6.65911 0
M  V30 430 O 71.2296 2.60694 5.64732 0
M  V30 431 C 72.4196 3.93473 7.1943 0
M  V30 432 O 72.8096 3.02071 8.21205 0
M  V30 433 C 73.2996 3.73047 5.97036 0
M  V30 434 C 72.5896 2.58828 5.25741 0
M  V30 435 N 72.6396 2.68068 3.77503 0
M  V30 436 H 69.8006 5.40332 6.79951 0
M  V30 437 H 69.5306 4.41613 5.32378 0
M  V30 438 H 70.3976 3.26331 7.47797 0
M  V30 439 P 74.3596 2.75334 8.47391 0
M  V30 440 O 74.5796 2.44571 9.90142 0
M  V30 441 O 75.1496 3.87688 7.92115 0
M  V30 442 O 74.6096 1.4459 7.59357 0
M  V30 443 C 73.6696 0.347608 7.69215 0
M  V30 444 C 74.3996 -0.96767 7.52806 0
M  V30 445 O 74.6096 -1.21036 6.1011 0
M  V30 446 C 75.7996 -1.04544 8.13308 0
M  V30 447 O 76.1896 -2.38311 8.41922 0
M  V30 448 C 76.6796 -0.491279 7.02284 0
M  V30 449 C 75.9696 -0.996264 5.77469 0
M  V30 450 N 76.0196 -0.0501916 4.62973 0
M  V30 451 H 73.1806 0.374722 8.67691 0
M  V30 452 H 72.9106 0.443485 6.90277 0
M  V30 453 H 73.7776 -1.75537 7.96793 0
M  V30 454 P 77.7395 -2.75334 8.47391 0
M  V30 455 O 77.9595 -3.84128 9.44797 0
M  V30 456 O 78.5295 -1.51947 8.68712 0
M  V30 457 O 77.9895 -3.29363 6.99321 0
M  V30 458 C 77.0495 -4.24011 6.4274 0
M  V30 459 C 77.7795 -5.20775 5.52155 0
M  V30 460 O 77.9895 -4.56534 4.22446 0
M  V30 461 C 79.1795 -5.62629 5.96531 0
M  V30 462 O 79.5695 -6.87667 5.41053 0
M  V30 463 C 80.0595 -4.52537 5.39283 0
M  V30 464 C 79.3495 -4.20027 4.08623 0
M  V30 465 N 79.3995 -2.76189 3.71603 0
M  V30 466 H 76.5605 -4.797 7.24003 0
M  V30 467 H 76.2905 -3.69856 5.84513 0
M  V30 468 H 77.1575 -6.10356 5.41441 0
M  V30 469 P 81.1195 -7.20834 5.23717 0
M  V30 470 O 81.3395 -8.66104 5.38572 0
M  V30 471 O 81.9095 -6.33544 6.1349 0
M  V30 472 O 81.3695 -6.7751 3.72168 0
M  V30 473 C 80.4295 -7.20825 2.7076 0
M  V30 474 C 81.1595 -7.45864 1.40599 0
M  V30 475 O 81.3695 -6.17651 0.734225 0
M  V30 476 C 82.5595 -8.05808 1.51899 0
M  V30 477 O 82.9495 -8.74358 0.335205 0
M  V30 478 C 83.4395 -6.83093 1.70294 0
M  V30 479 C 82.7295 -5.79992 0.836974 0
M  V30 480 N 82.7795 -4.41864 1.38293 0
M  V30 481 H 79.9405 -8.13644 3.0377 0
M  V30 482 H 79.6705 -6.42788 2.55485 0
M  V30 483 H 80.5375 -8.12039 0.792769 0
M  V30 484 P 84.4995 -8.91 5.4558e-15 0
M  V30 485 O 84.7195 -10.1726 -0.733694 0
M  V30 486 O 85.2895 -8.73148 1.23936 0
M  V30 487 O 84.7495 -7.66872 -0.971405 0
M  V30 488 C 83.8095 -7.42309 -2.04641 0
M  V30 489 C 84.5395 -6.86059 -3.24661 0
M  V30 490 O 84.7495 -5.42847 -3.03646 0
M  V30 491 C 85.9395 -7.41196 -3.50753 0
M  V30 492 O 86.3295 -7.27073 -4.86816 0
M  V30 493 C 86.8195 -6.5273 -2.63741 0
M  V30 494 C 86.1095 -5.1842 -2.73198 0
M  V30 495 N 86.1595 -4.38762 -1.4784 0
M  V30 496 H 83.3205 -8.36803 -2.32493 0
M  V30 497 H 83.0505 -6.70197 -1.71129 0
M  V30 498 H 83.9175 -7.03551 -4.13168 0
M  V30 499 P 87.8795 -7.20834 -5.23717 0
M  V30 500 O 88.0995 -7.79853 -6.57286 0
M  V30 501 O 88.6695 -7.79239 -4.12957 0
M  V30 502 O 88.1295 -5.63315 -5.29344 0
M  V30 503 C 87.1895 -4.80255 -6.01876 0
M  V30 504 C 87.9195 -3.64202 -6.65911 0
M  V30 505 O 88.1295 -2.60694 -5.64732 0
M  V30 506 C 89.3195 -3.93473 -7.1943 0
M  V30 507 O 89.7095 -3.02071 -8.21205 0
M  V30 508 C 90.1995 -3.73047 -5.97036 0
M  V30 509 C 89.4895 -2.58828 -5.25741 0
M  V30 510 N 89.5395 -2.68068 -3.77503 0
M  V30 511 H 86.7005 -5.40332 -6.79951 0
M  V30 512 H 86.4305 -4.41613 -5.32378 0
M  V30 513 H 87.2975 -3.26331 -7.47797 0
M  V30 514 P 91.2595 -2.75334 -8.47391 0
M  V30 515 O 91.4795 -2.44571 -9.90142 0
M  V30 516 O 92.0495 -3.87688 -7.92115 0
M  V30 517 O 91.5095 -1.4459 -7.59357 0
M  V30 518 C 90.5695 -0.347608 -7.69215 0
M  V30 519 C 91.2995 0.96767 -7.52806 0
M  V30 520 O 91.5095 1.21036 -6.1011 0
M  V30 521 C 92.6995 1.04544 -8.13308 0
M  V30 522 O 93.0895 2.38311 -8.41922 0
M  V30 523 C 93.5795 0.491279 -7.02284 0
M  V30 524 C 92.8695 0.996264 -5.77469 0
M  V30 525 N 92.9195 0.0501916 -4.62973 0
M  V30 526 H 90.0805 -0.374722 -8.67691 0
M  V30 527 H 89.8105 -0.443485 -6.90277 0
M  V30 528 H 90.6775 1.75537 -7.96793 0
M  V30 529 P 94.6394 2.75334 -8.47391 0
M  V30 530 O 94.8594 3.84128 -9.44797 0
M  V30 531 O 95.4294 1.51947 -8.68712 0
M  V30 532 O 94.8894 3.29363 -6.99321 0
M  V30 533 C 93.9494 4.24011 -6.4274 0
M  V30 534 C 94.6794 5.20775 -5.52155 0
M  V30 535 O 94.8894 4.56534 -4.22446 0
M  V30 536 C 96.0794 5.62629 -5.96531 0
M  V30 537 O 96.4694 6.87667 -5.41053 0
M  V30 538 C 96.9594 4.52537 -5.39283 0
M  V30 539 C 96.2494 4.20027 -4.08623 0
M  V30 540 N 96.2994 2.76189 -3.71603 0
M  V30 541 H 93.4604 4.797 -7.24003 0
M  V30 542 H 93.1904 3.69856 -5.84513 0
M  V30 543 H 94.0574 6.10356 -5.41441 0
M  V30 544 P 98.0194 7.20834 -5.23717 0
M  V30 545 O 98.2394 8.66104 -5.38572 0
M  V30 546 O 98.8094 6.33544 -6.1349 0
M  V30 547 O 98.2694 6.7751 -3.72168 0
M  V30 548 C 97.3294 7.20825 -2.7076 0
M  V30 549 C 98.0594 7.45864 -1.40599 0
M  V30 550 O 98.2694 6.17651 -0.734225 0
M  V30 551 C 99.4594 8.05808 -1.51899 0
M  V30 552 O 99.8494 8.74358 -0.335205 0
M  V30 553 C 100.339 6.83093 -1.70294 0
M  V30 554 C 99.6294 5.79992 -0.836974 0
M  V30 555 N 99.6794 4.41864 -1.38293 0
M  V30 556 C 99.5994 3.99538 -2.69438 0
M  V30 557 N 99.6794 2.69909 -2.84277 0
M  V30 558 C 99.8194 2.21719 -1.5408 0
M  V30 559 C 99.9494 0.891712 -1.06628 0
M  V30 560 N 100.069 0.856846 0.334985 0
M  V30 561 C 100.069 1.9641 1.15789 0
M  V30 562 N 100.199 1.72708 2.46522 0
M  V30 563 N 99.9394 3.21165 0.713741 0
M  V30 564 C 99.8194 3.26797 -0.639748 0
M  V30 565 H 96.8404 8.13644 -3.0377 0
M  V30 566 H 96.5704 6.42788 -2.55485 0
M  V30 567 H 97.4374 8.12039 -0.792769 0
M  V30 568 P 101.399 8.91 -6.54696e-15 0
M  V30 569 O 101.619 10.1726 0.733694 0
M  V30 570 O 102.189 8.73148 -1.23936 0
M  V30 571 O 101.649 7.66872 0.971405 0
M  V30 572 C 100.709 7.42309 2.04641 0
M  V30 573 C 101.439 6.86059 3.24661 0
M  V30 574 O 101.649 5.42847 3.03646 0
M  V30 575 C 102.839 7.41196 3.50753 0
M  V30 576 O 103.229 7.27073 4.86816 0
M  V30 577 C 103.719 6.5273 2.63741 0
M  V30 578 C 103.009 5.1842 2.73198 0
M  V30 579 N 103.059 4.38762 1.4784 0
M  V30 580 H 100.22 8.36803 2.32493 0
M  V30 581 H 99.9504 6.70197 1.71129 0
M  V30 582 H 100.817 7.03551 4.13168 0
M  V30 583 P 104.779 7.20834 5.23717 0
M  V30 584 O 104.999 7.79853 6.57286 0
M  V30 585 O 105.569 7.79239 4.12957 0
M  V30 586 O 105.029 5.63315 5.29344 0
M  V30 587 C 104.089 4.80255 6.01876 0
M  V30 588 C 104.819 3.64202 6.65911 0
M  V30 589 O 105.029 2.60694 5.64732 0
M  V30 590 C 106.219 3.93473 7.1943 0
M  V30 591 O 106.609 3.02071 8.21205 0
M  V30 592 C 107.099 3.73047 5.97036 0
M  V30 593 C 106.389 2.58828 5.25741 0
M  V30 594 N 106.439 2.68068 3.77503 0
M  V30 595 H 103.6 5.40332 6.79951 0
M  V30 596 H 103.33 4.41613 5.32378 0
M  V30 597 H 104.197 3.26331 7.47797 0
M  V30 598 P 108.159 2.75334 8.47391 0
M  V30 599 O 108.379 2.44571 9.90142 0
M  V30 600 O 108.949 3.87688 7.92115 0
M  V30 601 O 108.409 1.4459 7.59357 0
M  V30 602 C 107.469 0.347608 7.69215 0
M  V30 603 C 108.199 -0.96767 7.52806 0
M  V30 604 O 108.409 -1.21036 6.1011 0
M  V30 605 C 109.599 -1.04544 8.13308 0
M  V30 606 O 109.989 -2.38311 8.41922 0
M  V30 607 C 110.479 -0.491279 7.02284 0
M  V30 608 C 109.769 -0.996264 5.77469 0
M  V30 609 N 109.819 -0.0501916 4.62973 0
M  V30 610 C 109.739 1.32786 4.63244 0
M  V30 611 N 109.819 1.86957 3.44545 0
M  V30 612 C 109.959 0.780241 2.58481 0
M  V30 613 C 110.089 0.738536 1.17757 0
M  V30 614 O 110.109 1.66794 0.372349 0
M  V30 615 N 110.209 -0.58337 0.711393 0
M  V30 616 C 110.209 -1.70816 1.51017 0
M  V30 617 N 110.339 -2.87826 0.880757 0
M  V30 618 N 110.079 -1.67126 2.8339 0
M  V30 619 C 109.959 -0.401421 3.30572 0
M  V30 620 H 106.98 0.374722 8.67691 0
M  V30 621 H 106.71 0.443485 6.90277 0
M  V30 622 H 107.577 -1.75537 7.96793 0
M  V30 623 H 110.232 -1.95076 5.46529 0
M  V30 624 H 110.511 0.608565 7.04577 0
M  V30 625 H 111.503 -0.889672 7.08939 0
M  V30 626 H 109.669 -0.43308 9.04564 0
M  V30 627 H 109.62 1.91249 5.54442 0
M  V30 628 H 110.302 -0.718054 -0.275244 0
M  V30 629 H 110.339 -3.75721 1.41832 0
M  V30 630 H 110.44 -2.90436 -0.145468 0
M  V30 631 P 111.539 -2.75334 8.47391 0
M  V30 632 O 111.759 -3.84166 9.4489 0
M  V30 633 O 112.329 -1.51964 8.6881 0
M  V30 634 O 111.789 -3.29363 6.99321 0
M  V30 635 C 110.849 -4.23956 6.42656 0
M  V30 636 C 111.579 -5.20775 5.52155 0
M  V30 637 O 111.789 -4.56534 4.22446 0
M  V30 638 C 112.979 -5.62629 5.96531 0
M  V30 639 O 113.369 -6.87667 5.41053 0
M  V30 640 C 113.859 -4.52537 5.39283 0
M  V30 641 C 113.149 -4.20027 4.08623 0
M  V30 642 N 113.199 -2.7613 3.71522 0
M  V30 643 C 113.349 -2.45612 2.37989 0
M  V30 644 O 113.439 -3.30919 1.51621 0
M  V30 645 N 113.389 -1.10684 2.08435 0
M  V30 646 C 113.299 -0.0690084 2.9792 0
M  V30 647 O 113.349 1.10553 2.59426 0
M  V30 648 C 113.149 -0.481522 4.35345 0
M  V30 649 C 113.039 0.618778 5.36443 0
M  V30 650 C 113.099 -1.78906 4.67968 0
M  V30 651 H 110.359 -4.797 7.24003 0
M  V30 652 H 110.09 -3.69802 5.84429 0
M  V30 653 H 110.957 -6.10356 5.41441 0
M  V30 654 H 113.612 -4.78651 3.27911 0
M  V30 655 H 113.891 -3.64957 6.05871 0
M  V30 656 H 114.883 -4.8868 5.2125 0
M  V30 657 H 113.049 -5.66726 7.06352 0
M  V30 658 H 112.978 -2.07737 5.72367 0
M  V30 659 H 114.008 0.754375 5.86871 0
M  V30 660 H 112.271 0.359721 6.10641 0
M  V30 661 H 112.759 1.55533 4.8581 0
M  V30 662 H 113.495 -0.862651 1.12037 0
M  V30 663 P 114.919 -7.20834 5.23717 0
M  V30 664 O 115.139 -8.66189 5.38625 0
M  V30 665 O 115.709 -6.33615 6.1356 0
M  V30 666 O 115.169 -6.7751 3.72168 0
M  V30 667 C 114.229 -7.20732 2.70725 0
M  V30 668 C 114.959 -7.45864 1.40599 0
M  V30 669 O 115.169 -6.17651 0.734225 0
M  V30 670 C 116.359 -8.05808 1.51899 0
M  V30 671 O 116.749 -8.74358 0.335205 0
M  V30 672 C 117.239 -6.83093 1.70294 0
M  V30 673 C 116.529 -5.79992 0.836974 0
M  V30 674 N 116.579 -4.41769 1.38263 0
M  V30 675 C 116.729 -3.38591 0.481702 0
M  V30 676 O 116.819 -3.56839 -0.718452 0
M  V30 677 N 116.769 -2.1206 1.03569 0
M  V30 678 C 116.679 -1.80696 2.36966 0
M  V30 679 C 116.529 -2.94845 3.23898 0
M  V30 680 C 116.479 -4.19803 2.73435 0
M  V30 681 H 113.739 -8.13644 3.0377 0
M  V30 682 H 113.47 -6.42695 2.55448 0
M  V30 683 H 114.337 -8.12039 0.792769 0
M  V30 684 H 116.992 -5.79978 -0.160587 0
M  V30 685 H 117.271 -6.51379 2.75643 0
M  V30 686 H 118.263 -7.01734 1.34462 0
M  V30 687 H 116.429 -8.73674 2.38337 0
M  V30 688 H 116.358 -5.04492 3.4095 0
M  V30 689 P 118.299 -8.91 7.63812e-15 0
M  V30 690 O 118.519 -10.1736 -0.733766 0
M  V30 691 O 119.089 -8.73247 1.2395 0
M  V30 692 O 118.549 -7.66872 -0.971405 0
M  V30 693 C 117.609 -7.42309 -2.04641 0
M  V30 694 C 118.339 -6.86059 -3.24661 0
M  V30 695 O 118.549 -5.42847 -3.03646 0
M  V30 696 C 119.739 -7.41196 -3.50753 0
M  V30 697 O 120.129 -7.27073 -4.86816 0
M  V30 698 C 120.619 -6.5273 -2.63741 0
M  V30 699 C 119.909 -5.1842 -2.73198 0
M  V30 700 N 119.959 -4.38668 -1.47808 0
M  V30 701 C 120.109 -3.00789 -1.58511 0
M  V30 702 O 120.199 -2.50116 -2.71298 0
M  V30 703 N 120.159 -2.29703 -0.253698 0
M  V30 704 C 120.059 -2.84269 0.750133 0
M  V30 705 N 120.109 -2.06951 1.82612 0
M  V30 706 C 119.909 -4.25803 0.889776 0
M  V30 707 C 119.859 -4.98326 -0.259363 0
M  V30 708 H 117.119 -8.36707 -2.32466 0
M  V30 709 H 116.85 -6.701 -1.71105 0
M  V30 710 H 117.717 -7.03638 -4.13219 0
M  V30 711 H 120.372 -4.59852 -3.53955 0
M  V30 712 H 120.651 -6.88995 -1.59871 0
M  V30 713 H 121.643 -6.46749 -3.03687 0
M  V30 714 H 119.809 -8.46908 -3.20714 0
M  V30 715 H 119.737 -6.06349 -0.206238 0
M  V30 716 H 119.839 -4.73163 1.86796 0
M  V30 717 H 120.227 -1.05099 1.72271 0
M  V30 718 H 120.03 -2.48716 2.76361 0
M  V30 719 P 121.679 -7.20834 -5.23717 0
M  V30 720 O 121.899 -7.79853 -6.57286 0
M  V30 721 O 122.469 -7.79239 -4.12957 0
M  V30 722 O 121.929 -5.63315 -5.29344 0
M  V30 723 C 120.989 -4.80255 -6.01876 0
M  V30 724 C 121.719 -3.64202 -6.65911 0
M  V30 725 O 121.929 -2.60694 -5.64732 0
M  V30 726 C 123.119 -3.93473 -7.1943 0
M  V30 727 O 123.509 -3.02071 -8.21205 0
M  V30 728 C 123.999 -3.73047 -5.97036 0
M  V30 729 C 123.289 -2.58828 -5.25741 0
M  V30 730 N 123.339 -2.68068 -3.77503 0
M  V30 731 H 120.5 -5.40332 -6.79951 0
M  V30 732 H 120.23 -4.41613 -5.32378 0
M  V30 733 H 121.097 -3.26331 -7.47797 0
M  V30 734 P 125.059 -2.75334 -8.47391 0
M  V30 735 O 125.279 -2.44571 -9.90142 0
M  V30 736 O 125.849 -3.87688 -7.92115 0
M  V30 737 O 125.309 -1.4459 -7.59357 0
M  V30 738 C 124.369 -0.347608 -7.69215 0
M  V30 739 C 125.099 0.96767 -7.52806 0
M  V30 740 O 125.309 1.21036 -6.1011 0
M  V30 741 C 126.499 1.04544 -8.13308 0
M  V30 742 O 126.889 2.38311 -8.41922 0
M  V30 743 C 127.379 0.491279 -7.02284 0
M  V30 744 C 126.669 0.996264 -5.77469 0
M  V30 745 N 126.719 0.0501916 -4.62973 0
M  V30 746 C 126.639 -1.32786 -4.63244 0
M  V30 747 N 126.719 -1.86957 -3.44545 0
M  V30 748 C 126.859 -0.780241 -2.58481 0
M  V30 749 C 126.989 -0.738536 -1.17757 0
M  V30 750 N 127.109 0.58337 -0.711393 0
M  V30 751 C 127.109 1.70816 -1.51017 0
M  V30 752 N 127.239 2.87826 -0.880757 0
M  V30 753 N 126.979 1.67126 -2.8339 0
M  V30 754 C 126.859 0.401421 -3.30572 0
M  V30 755 H 123.88 -0.374722 -8.67691 0
M  V30 756 H 123.61 -0.443485 -6.90277 0
M  V30 757 H 124.477 1.75537 -7.96793 0
M  V30 758 P 128.439 2.75334 -8.47391 0
M  V30 759 O 128.659 3.84128 -9.44797 0
M  V30 760 O 129.229 1.51947 -8.68712 0
M  V30 761 O 128.689 3.29363 -6.99321 0
M  V30 762 C 127.749 4.24011 -6.4274 0
M  V30 763 C 128.479 5.20775 -5.52155 0
M  V30 764 O 128.689 4.56534 -4.22446 0
M  V30 765 C 129.879 5.62629 -5.96531 0
M  V30 766 O 130.269 6.87667 -5.41053 0
M  V30 767 C 130.759 4.52537 -5.39283 0
M  V30 768 C 130.049 4.20027 -4.08623 0
M  V30 769 N 130.099 2.76189 -3.71603 0
M  V30 770 H 127.26 4.797 -7.24003 0
M  V30 771 H 126.99 3.69856 -5.84513 0
M  V30 772 H 127.857 6.10356 -5.41441 0
M  V30 773 P 131.819 7.20834 -5.23717 0
M  V30 774 O 132.039 8.66274 -5.38678 0
M  V30 775 O 132.609 6.33687 -6.13629 0
M  V30 776 O 132.069 6.7751 -3.72168 0
M  V30 777 C 131.129 7.20919 -2.70795 0
M  V30 778 C 131.859 7.45864 -1.40599 0
M  V30 779 O 132.069 6.17751 -0.734343 0
M  V30 780 C 133.259 8.05906 -1.51917 0
M  V30 781 O 133.649 8.74358 -0.335205 0
M  V30 782 C 134.139 6.83093 -1.70294 0
M  V30 783 C 133.429 5.79992 -0.836974 0
M  V30 784 N 133.479 4.41864 -1.38293 0
M  V30 785 H 130.641 8.13738 -3.03804 0
M  V30 786 H 130.369 6.42974 -2.55559 0
M  V30 787 H 131.237 8.12139 -0.792866 0
M  V30 788 H 133.892 5.80178 0.160643 0
M  V30 789 H 134.172 6.51379 -2.75643 0
M  V30 790 H 135.163 7.01832 -1.3448 0
M  V30 791 H 133.329 8.73771 -2.38364 0
M  V30 792 P 135.199 8.91 -8.72928e-15 0
M  V30 793 O 135.419 10.1726 0.733694 0
M  V30 794 O 135.989 8.73148 -1.23936 0
M  V30 795 O 135.449 7.66872 0.971405 0
M  V30 796 C 134.509 7.42309 2.04641 0
M  V30 797 C 135.239 6.86059 3.24661 0
M  V30 798 O 135.449 5.42847 3.03646 0
M  V30 799 C 136.639 7.41196 3.50753 0
M  V30 800 O 137.029 7.27073 4.86816 0
M  V30 801 C 137.519 6.5273 2.63741 0
M  V30 802 C 136.809 5.1842 2.73198 0
M  V30 803 N 136.859 4.38762 1.4784 0
M  V30 804 H 134.02 8.36803 2.32493 0
M  V30 805 H 133.75 6.70197 1.71129 0
M  V30 806 H 134.617 7.03551 4.13168 0
M  V30 807 P 138.579 7.20834 5.23717 0
M  V30 808 O 138.799 7.79853 6.57286 0
M  V30 809 O 139.369 7.79239 4.12957 0
M  V30 810 O 138.829 5.63315 5.29344 0
M  V30 811 C 137.889 4.80255 6.01876 0
M  V30 812 C 138.619 3.64202 6.65911 0
M  V30 813 O 138.829 2.60694 5.64732 0
M  V30 814 C 140.019 3.93473 7.1943 0
M  V30 815 O 140.409 3.02071 8.21205 0
M  V30 816 C 140.899 3.73047 5.97036 0
M  V30 817 C 140.189 2.58828 5.25741 0
M  V30 818 N 140.239 2.68068 3.77503 0
M  V30 819 H 137.4 5.40332 6.79951 0
M  V30 820 H 137.13 4.41613 5.32378 0
M  V30 821 H 137.997 3.26331 7.47797 0
M  V30 822 P 141.959 2.75334 8.47391 0
M  V30 823 O 142.179 2.44571 9.90142 0
M  V30 824 O 142.749 3.87688 7.92115 0
M  V30 825 O 142.209 1.4459 7.59357 0
M  V30 826 C 141.269 0.347608 7.69215 0
M  V30 827 C 141.999 -0.96767 7.52806 0
M  V30 828 O 142.209 -1.21036 6.1011 0
M  V30 829 C 143.399 -1.04544 8.13308 0
M  V30 830 O 143.789 -2.38311 8.41922 0
M  V30 831 C 144.279 -0.491279 7.02284 0
M  V30 832 C 143.569 -0.996264 5.77469 0
M  V30 833 N 143.619 -0.0501916 4.62973 0
M  V30 834 C 143.539 1.32786 4.63244 0
M  V30 835 N 143.619 1.86957 3.44545 0
M  V30 836 C 143.759 0.780241 2.58481 0
M  V30 837 C 143.889 0.738536 1.17757 0
M  V30 838 N 144.009 -0.58337 0.711393 0
M  V30 839 C 144.009 -1.70816 1.51017 0
M  V30 840 N 144.139 -2.87826 0.880757 0
M  V30 841 N 143.879 -1.67126 2.8339 0
M  V30 842 C 143.759 -0.401421 3.30572 0
M  V30 843 H 140.78 0.374722 8.67691 0
M  V30 844 H 140.51 0.443485 6.90277 0
M  V30 845 H 141.377 -1.75537 7.96793 0
M  V30 846 P 145.339 -2.75334 8.47391 0
M  V30 847 O 145.559 -3.84128 9.44797 0
M  V30 848 O 146.129 -1.51947 8.68712 0
M  V30 849 O 145.589 -3.29363 6.99321 0
M  V30 850 C 144.649 -4.24011 6.4274 0
M  V30 851 C 145.379 -5.20775 5.52155 0
M  V30 852 O 145.589 -4.56534 4.22446 0
M  V30 853 C 146.779 -5.62629 5.96531 0
M  V30 854 O 147.169 -6.87667 5.41053 0
M  V30 855 C 147.659 -4.52537 5.39283 0
M  V30 856 C 146.949 -4.20027 4.08623 0
M  V30 857 N 146.999 -2.76189 3.71603 0
M  V30 858 H 144.16 -4.797 7.24003 0
M  V30 859 H 143.89 -3.69856 5.84513 0
M  V30 860 H 144.757 -6.10356 5.41441 0
M  V30 861 P 148.719 -7.20834 5.23717 0
M  V30 862 O 148.939 -8.66189 5.38625 0
M  V30 863 O 149.509 -6.33615 6.1356 0
M  V30 864 O 148.969 -6.7751 3.72168 0
M  V30 865 C 148.029 -7.20732 2.70725 0
M  V30 866 C 148.759 -7.45864 1.40599 0
M  V30 867 O 148.969 -6.17651 0.734225 0
M  V30 868 C 150.159 -8.05808 1.51899 0
M  V30 869 O 150.549 -8.74358 0.335205 0
M  V30 870 C 151.039 -6.83093 1.70294 0
M  V30 871 C 150.329 -5.79992 0.836974 0
M  V30 872 N 150.379 -4.41769 1.38263 0
M  V30 873 C 150.529 -3.38591 0.481702 0
M  V30 874 O 150.619 -3.56839 -0.718452 0
M  V30 875 N 150.569 -2.1206 1.03569 0
M  V30 876 C 150.479 -1.80696 2.36966 0
M  V30 877 C 150.329 -2.94845 3.23898 0
M  V30 878 C 150.279 -4.19803 2.73435 0
M  V30 879 H 147.539 -8.13644 3.0377 0
M  V30 880 H 147.27 -6.42695 2.55448 0
M  V30 881 H 148.137 -8.12039 0.792769 0
M  V30 882 H 150.792 -5.79978 -0.160587 0
M  V30 883 H 151.071 -6.51379 2.75643 0
M  V30 884 H 152.063 -7.01734 1.34462 0
M  V30 885 H 150.229 -8.73674 2.38337 0
M  V30 886 H 150.158 -5.04492 3.4095 0
M  V30 887 P 152.099 -8.91 9.82044e-15 0
M  V30 888 O 152.319 -10.1736 -0.733766 0
M  V30 889 O 152.889 -8.73247 1.2395 0
M  V30 890 O 152.349 -7.66872 -0.971405 0
M  V30 891 C 151.409 -7.42212 -2.04614 0
M  V30 892 C 152.139 -6.86059 -3.24661 0
M  V30 893 O 152.349 -5.42847 -3.03646 0
M  V30 894 C 153.539 -7.41196 -3.50753 0
M  V30 895 O 153.929 -7.27073 -4.86816 0
M  V30 896 C 154.419 -6.5273 -2.63741 0
M  V30 897 C 153.709 -5.1842 -2.73198 0
M  V30 898 N 153.759 -4.38668 -1.47808 0
M  V30 899 C 153.909 -3.02239 -1.60048 0
M  V30 900 O 153.999 -2.46459 -2.67869 0
M  V30 901 N 153.949 -2.32436 -0.408571 0
M  V30 902 C 153.859 -2.85471 0.854993 0
M  V30 903 C 153.709 -4.28918 0.887335 0
M  V30 904 C 153.659 -5.00349 -0.255399 0
M  V30 905 H 150.919 -8.36803 -2.32493 0
M  V30 906 H 150.65 -6.701 -1.71105 0
M  V30 907 H 151.517 -7.03551 -4.13168 0
M  V30 908 H 154.172 -4.59773 -3.53894 0
M  V30 909 H 154.451 -6.88995 -1.59871 0
M  V30 910 H 155.443 -6.46749 -3.03687 0
M  V30 911 H 153.609 -8.46908 -3.20714 0
M  V30 912 H 153.538 -6.08548 -0.206986 0
M  V30 913 P 155.479 -7.20834 -5.23717 0
M  V30 914 O 155.699 -7.79853 -6.57286 0
M  V30 915 O 156.269 -7.79239 -4.12957 0
M  V30 916 O 155.729 -5.63315 -5.29344 0
M  V30 917 C 154.789 -4.80255 -6.01876 0
M  V30 918 C 155.519 -3.64202 -6.65911 0
M  V30 919 O 155.729 -2.60694 -5.64732 0
M  V30 920 C 156.919 -3.93473 -7.1943 0
M  V30 921 O 157.309 -3.02071 -8.21205 0
M  V30 922 C 157.799 -3.73047 -5.97036 0
M  V30 923 C 157.089 -2.58828 -5.25741 0
M  V30 924 N 157.139 -2.68068 -3.77503 0
M  V30 925 H 154.3 -5.40332 -6.79951 0
M  V30 926 H 154.03 -4.41613 -5.32378 0
M  V30 927 H 154.897 -3.26331 -7.47797 0
M  V30 928 P 158.859 -2.75334 -8.47391 0
M  V30 929 O 159.079 -2.44571 -9.90142 0
M  V30 930 O 159.649 -3.87688 -7.92115 0
M  V30 931 O 159.109 -1.4459 -7.59357 0
M  V30 932 C 158.169 -0.347608 -7.69215 0
M  V30 933 C 158.899 0.96767 -7.52806 0
M  V30 934 O 159.109 1.21036 -6.1011 0
M  V30 935 C 160.299 1.04544 -8.13308 0
M  V30 936 O 160.689 2.38311 -8.41922 0
M  V30 937 C 161.179 0.491279 -7.02284 0
M  V30 938 C 160.469 0.996264 -5.77469 0
M  V30 939 N 160.519 0.0501916 -4.62973 0
M  V30 940 H 157.68 -0.374722 -8.67691 0
M  V30 941 H 157.41 -0.443485 -6.90277 0
M  V30 942 H 158.277 1.75537 -7.96793 0
M  V30 943 P 162.239 2.75334 -8.47391 0
M  V30 944 O 162.459 3.84128 -9.44797 0
M  V30 945 O 163.029 1.51947 -8.68712 0
M  V30 946 O 162.489 3.29363 -6.99321 0
M  V30 947 C 161.549 4.24011 -6.4274 0
M  V30 948 C 162.279 5.20775 -5.52155 0
M  V30 949 O 162.489 4.56534 -4.22446 0
M  V30 950 C 163.679 5.62629 -5.96531 0
M  V30 951 O 164.069 6.87667 -5.41053 0
M  V30 952 C 164.559 4.52537 -5.39283 0
M  V30 953 C 163.849 4.20027 -4.08623 0
M  V30 954 N 163.899 2.76189 -3.71603 0
M  V30 955 H 161.06 4.797 -7.24003 0
M  V30 956 H 160.79 3.69856 -5.84513 0
M  V30 957 H 161.657 6.10356 -5.41441 0
M  V30 958 P 165.619 7.20834 -5.23717 0
M  V30 959 O 165.839 8.66104 -5.38572 0
M  V30 960 O 166.409 6.33544 -6.1349 0
M  V30 961 O 165.869 6.7751 -3.72168 0
M  V30 962 C 164.929 7.20825 -2.7076 0
M  V30 963 C 165.659 7.45864 -1.40599 0
M  V30 964 O 165.869 6.17651 -0.734225 0
M  V30 965 C 167.059 8.05808 -1.51899 0
M  V30 966 O 167.449 8.74358 -0.335205 0
M  V30 967 C 167.939 6.83093 -1.70294 0
M  V30 968 C 167.229 5.79992 -0.836974 0
M  V30 969 N 167.279 4.41864 -1.38293 0
M  V30 970 H 164.44 8.13644 -3.0377 0
M  V30 971 H 164.17 6.42788 -2.55485 0
M  V30 972 H 165.037 8.12039 -0.792769 0
M  V30 973 P 168.999 8.91 -1.09116e-14 0
M  V30 974 O 169.219 10.1726 0.733694 0
M  V30 975 O 169.789 8.73148 -1.23936 0
M  V30 976 O 169.249 7.66872 0.971405 0
M  V30 977 C 168.309 7.42309 2.04641 0
M  V30 978 C 169.039 6.86059 3.24661 0
M  V30 979 O 169.249 5.42847 3.03646 0
M  V30 980 C 170.439 7.41196 3.50753 0
M  V30 981 O 170.829 7.27073 4.86816 0
M  V30 982 C 171.319 6.5273 2.63741 0
M  V30 983 C 170.609 5.1842 2.73198 0
M  V30 984 N 170.659 4.38762 1.4784 0
M  V30 985 H 167.82 8.36803 2.32493 0
M  V30 986 H 167.55 6.70197 1.71129 0
M  V30 987 H 168.417 7.03551 4.13168 0
M  V30 988 P 172.379 7.20834 5.23717 0
M  V30 989 O 172.599 7.80006 6.57415 0
M  V30 990 O 173.169 7.79416 4.13051 0
M  V30 991 O 172.629 5.63315 5.29344 0
M  V30 992 C 171.689 4.80318 6.01954 0
M  V30 993 C 172.419 3.64202 6.65911 0
M  V30 994 O 172.629 2.60736 5.64823 0
M  V30 995 C 173.819 3.93521 7.19518 0
M  V30 996 O 174.209 3.02071 8.21205 0
M  V30 997 C 174.699 3.73047 5.97036 0
M  V30 998 C 173.989 2.58828 5.25741 0
M  V30 999 N 174.039 2.68068 3.77503 0
M  V30 1000 H 171.201 5.40394 6.8003 0
M  V30 1001 H 170.929 4.41741 5.32532 0
M  V30 1002 H 171.797 3.26371 7.47889 0
M  V30 1003 H 174.452 1.64007 5.56746 0
M  V30 1004 H 174.732 4.63439 5.3432 0
M  V30 1005 H 175.723 3.44776 6.25925 0
M  V30 1006 H 173.889 4.96707 7.57347 0
M  V30 1007 P 175.759 2.75334 8.47391 0
M  V30 1008 O 175.979 2.44571 9.90142 0
M  V30 1009 O 176.549 3.87688 7.92115 0
M  V30 1010 O 176.009 1.4459 7.59357 0
M  V30 1011 C 175.069 0.347608 7.69215 0
M  V30 1012 C 175.799 -0.96767 7.52806 0
M  V30 1013 O 176.009 -1.21036 6.1011 0
M  V30 1014 C 177.199 -1.04544 8.13308 0
M  V30 1015 O 177.589 -2.38311 8.41922 0
M  V30 1016 C 178.079 -0.491279 7.02284 0
M  V30 1017 C 177.369 -0.996264 5.77469 0
M  V30 1018 N 177.419 -0.0501916 4.62973 0
M  V30 1019 H 174.58 0.374722 8.67691 0
M  V30 1020 H 174.31 0.443485 6.90277 0
M  V30 1021 H 175.177 -1.75537 7.96793 0
M  V30 1022 P 179.139 -2.75334 8.47391 0
M  V30 1023 O 179.359 -3.84128 9.44797 0
M  V30 1024 O 179.929 -1.51947 8.68712 0
M  V30 1025 O 179.389 -3.29363 6.99321 0
M  V30 1026 C 178.449 -4.24011 6.4274 0
M  V30 1027 C 179.179 -5.20775 5.52155 0
M  V30 1028 O 179.389 -4.56534 4.22446 0
M  V30 1029 C 180.579 -5.62629 5.96531 0
M  V30 1030 O 180.969 -6.87667 5.41053 0
M  V30 1031 C 181.459 -4.52537 5.39283 0
M  V30 1032 C 180.749 -4.20027 4.08623 0
M  V30 1033 N 180.799 -2.76189 3.71603 0
M  V30 1034 H 177.96 -4.797 7.24003 0
M  V30 1035 H 177.69 -3.69856 5.84513 0
M  V30 1036 H 178.557 -6.10356 5.41441 0
M  V30 1037 P 182.519 -7.20834 5.23717 0
M  V30 1038 O 182.739 -8.66274 5.38678 0
M  V30 1039 O 183.309 -6.33687 6.13629 0
M  V30 1040 O 182.769 -6.7751 3.72168 0
M  V30 1041 C 181.829 -7.20919 2.70795 0
M  V30 1042 C 182.559 -7.45864 1.40599 0
M  V30 1043 O 182.769 -6.17751 0.734343 0
M  V30 1044 C 183.959 -8.05906 1.51917 0
M  V30 1045 O 184.349 -8.74358 0.335205 0
M  V30 1046 C 184.839 -6.83093 1.70294 0
M  V30 1047 C 184.129 -5.79992 0.836974 0
M  V30 1048 N 184.179 -4.41864 1.38293 0
M  V30 1049 C 184.099 -4.02089 2.69407 0
M  V30 1050 N 184.169 -2.73403 2.85089 0
M  V30 1051 C 184.319 -2.25086 1.5642 0
M  V30 1052 C 184.449 -0.942887 1.04836 0
M  V30 1053 N 184.459 0.150999 1.80369 0
M  V30 1054 N 184.569 -0.812565 -0.28167 0
M  V30 1055 C 184.559 -1.90572 -1.03784 0
M  V30 1056 N 184.439 -3.167 -0.683905 0
M  V30 1057 C 184.319 -3.26538 0.652815 0
M  V30 1058 H 181.341 -8.13738 3.03804 0
M  V30 1059 H 181.069 -6.42974 2.55559 0
M  V30 1060 H 181.937 -8.12139 0.792866 0
M  V30 1061 H 184.592 -5.80178 -0.160643 0
M  V30 1062 H 184.872 -6.51379 2.75643 0
M  V30 1063 H 185.863 -7.01832 1.3448 0
M  V30 1064 H 184.029 -8.73771 2.38364 0
M  V30 1065 H 183.988 -4.7189 3.52311 0
M  V30 1066 H 184.369 0.0721434 2.82608 0
M  V30 1067 H 184.558 1.0785 1.36544 0
M  V30 1068 H 184.666 -1.73207 -2.10241 0
M  V30 1069 P 185.899 -8.91 -8.29613e-14 0
M  V30 1070 O 186.119 -10.1746 -0.733838 0
M  V30 1071 O 186.689 -8.73346 1.23964 0
M  V30 1072 O 186.149 -7.66872 -0.971405 0
M  V30 1073 C 185.209 -7.42405 -2.04668 0
M  V30 1074 C 185.939 -6.86059 -3.24661 0
M  V30 1075 O 186.149 -5.42934 -3.03695 0
M  V30 1076 C 187.339 -7.41287 -3.50796 0
M  V30 1077 O 187.729 -7.27073 -4.86816 0
M  V30 1078 C 188.219 -6.5273 -2.63741 0
M  V30 1079 C 187.509 -5.1842 -2.73198 0
M  V30 1080 N 187.559 -4.38762 -1.4784 0
M  V30 1081 C 187.479 -4.83651 -0.183876 0
M  V30 1082 N 187.549 -3.88759 0.699393 0
M  V30 1083 C 187.699 -2.7404 -0.0575568 0
M  V30 1084 C 187.829 -1.37902 0.293928 0
M  V30 1085 N 187.839 -0.938021 1.54797 0
M  V30 1086 N 187.949 -0.491817 -0.70549 0
M  V30 1087 C 187.939 -0.931735 -1.95979 0
M  V30 1088 N 187.819 -2.16017 -2.41481 0
M  V30 1089 C 187.699 -3.02547 -1.39121 0
M  V30 1090 H 184.721 -8.36899 -2.3252 0
M  V30 1091 H 184.449 -6.70391 -1.71179 0
M  V30 1092 H 185.317 -7.03638 -4.13219 0
M  V30 1093 H 187.972 -4.59931 -3.54016 0
M  V30 1094 H 188.252 -6.88995 -1.59871 0
M  V30 1095 H 189.243 -6.4684 -3.0373 0
M  V30 1096 H 187.409 -8.47002 -3.20749 0
M  V30 1097 H 187.368 -5.8885 0.0765548 0
M  V30 1098 H 187.749 -1.60276 2.32875 0
M  V30 1099 H 187.938 0.0699355 1.73859 0
M  V30 1100 H 188.046 -0.165507 -2.71897 0
M  V30 1101 P 189.279 -7.20834 -5.23717 0
M  V30 1102 O 189.499 -7.79853 -6.57286 0
M  V30 1103 O 190.069 -7.79239 -4.12957 0
M  V30 1104 O 189.529 -5.63315 -5.29344 0
M  V30 1105 C 188.589 -4.80255 -6.01876 0
M  V30 1106 C 189.319 -3.64202 -6.65911 0
M  V30 1107 O 189.529 -2.60694 -5.64732 0
M  V30 1108 C 190.719 -3.93473 -7.1943 0
M  V30 1109 O 191.109 -3.02071 -8.21205 0
M  V30 1110 C 191.599 -3.73047 -5.97036 0
M  V30 1111 C 190.889 -2.58828 -5.25741 0
M  V30 1112 N 190.939 -2.68068 -3.77503 0
M  V30 1113 H 188.1 -5.40332 -6.79951 0
M  V30 1114 H 187.83 -4.41613 -5.32378 0
M  V30 1115 H 188.697 -3.26331 -7.47797 0
M  V30 1116 P 192.659 -2.75334 -8.47391 0
M  V30 1117 O 192.879 -2.44571 -9.90142 0
M  V30 1118 O 193.449 -3.87688 -7.92115 0
M  V30 1119 O 192.909 -1.4459 -7.59357 0
M  V30 1120 C 191.969 -0.347608 -7.69215 0
M  V30 1121 C 192.699 0.96767 -7.52806 0
M  V30 1122 O 192.909 1.21036 -6.1011 0
M  V30 1123 C 194.099 1.04544 -8.13308 0
M  V30 1124 O 194.489 2.38311 -8.41922 0
M  V30 1125 C 194.979 0.491279 -7.02284 0
M  V30 1126 C 194.269 0.996264 -5.77469 0
M  V30 1127 N 194.319 0.0501916 -4.62973 0
M  V30 1128 H 191.48 -0.374722 -8.67691 0
M  V30 1129 H 191.21 -0.443485 -6.90277 0
M  V30 1130 H 192.077 1.75537 -7.96793 0
M  V30 1131 P 196.039 2.75334 -8.47391 0
M  V30 1132 O 196.259 3.84128 -9.44797 0
M  V30 1133 O 196.829 1.51947 -8.68712 0
M  V30 1134 O 196.289 3.29363 -6.99321 0
M  V30 1135 C 195.349 4.24011 -6.4274 0
M  V30 1136 C 196.079 5.20775 -5.52155 0
M  V30 1137 O 196.289 4.56534 -4.22446 0
M  V30 1138 C 197.479 5.62629 -5.96531 0
M  V30 1139 O 197.869 6.87667 -5.41053 0
M  V30 1140 C 198.359 4.52537 -5.39283 0
M  V30 1141 C 197.649 4.20027 -4.08623 0
M  V30 1142 N 197.699 2.76189 -3.71603 0
M  V30 1143 H 194.86 4.797 -7.24003 0
M  V30 1144 H 194.59 3.69856 -5.84513 0
M  V30 1145 H 195.457 6.10356 -5.41441 0
M  V30 1146 P 199.419 7.20834 -5.23717 0
M  V30 1147 O 199.639 8.66104 -5.38572 0
M  V30 1148 O 200.209 6.33544 -6.1349 0
M  V30 1149 O 199.669 6.7751 -3.72168 0
M  V30 1150 C 198.729 7.20825 -2.7076 0
M  V30 1151 C 199.459 7.45864 -1.40599 0
M  V30 1152 O 199.669 6.17651 -0.734225 0
M  V30 1153 C 200.859 8.05808 -1.51899 0
M  V30 1154 O 201.249 8.74358 -0.335205 0
M  V30 1155 C 201.739 6.83093 -1.70294 0
M  V30 1156 C 201.029 5.79992 -0.836974 0
M  V30 1157 N 201.079 4.41864 -1.38293 0
M  V30 1158 C 200.999 3.99538 -2.69438 0
M  V30 1159 N 201.079 2.69909 -2.84277 0
M  V30 1160 C 201.219 2.21719 -1.5408 0
M  V30 1161 C 201.349 0.891712 -1.06628 0
M  V30 1162 O 201.369 -0.161298 -1.70137 0
M  V30 1163 N 201.469 0.856846 0.334985 0
M  V30 1164 C 201.469 1.9641 1.15789 0
M  V30 1165 N 201.599 1.72708 2.46522 0
M  V30 1166 N 201.339 3.21165 0.713741 0
M  V30 1167 C 201.219 3.26797 -0.639748 0
M  V30 1168 H 198.24 8.13644 -3.0377 0
M  V30 1169 H 197.97 6.42788 -2.55485 0
M  V30 1170 H 198.837 8.12039 -0.792769 0
M  V30 1171 H 201.492 5.80061 0.166416 0
M  V30 1172 H 201.771 6.51287 -2.75604 0
M  V30 1173 H 202.763 7.01734 -1.34462 0
M  V30 1174 H 200.929 8.73674 -2.38337 0
M  V30 1175 H 200.88 4.68207 -3.53221 0
M  V30 1176 H 201.562 -0.0398818 0.767965 0
M  V30 1177 H 201.599 2.50995 3.13503 0
M  V30 1178 H 201.7 0.759148 2.80716 0
M  V30 1179 P 202.799 8.91 2.40144e-13 0
M  V30 1180 O 203.019 10.1726 0.733694 0
M  V30 1181 O 203.589 8.73148 -1.23936 0
M  V30 1182 O 203.049 7.66872 0.971405 0
M  V30 1183 C 202.109 7.42309 2.04641 0
M  V30 1184 C 202.839 6.86059 3.24661 0
M  V30 1185 O 203.049 5.42847 3.03646 0
M  V30 1186 C 204.239 7.41196 3.50753 0
M  V30 1187 O 204.629 7.27073 4.86816 0
M  V30 1188 C 205.119 6.5273 2.63741 0
M  V30 1189 C 204.409 5.1842 2.73198 0
M  V30 1190 N 204.459 4.38762 1.4784 0
M  V30 1191 H 201.62 8.36803 2.32493 0
M  V30 1192 H 201.35 6.70197 1.71129 0
M  V30 1193 H 202.217 7.03551 4.13168 0
M  V30 1194 P 206.179 7.20834 5.23717 0
M  V30 1195 O 206.399 7.79853 6.57286 0
M  V30 1196 O 206.969 7.79239 4.12957 0
M  V30 1197 O 206.429 5.63315 5.29344 0
M  V30 1198 C 205.489 4.80255 6.01876 0
M  V30 1199 C 206.219 3.64202 6.65911 0
M  V30 1200 O 206.429 2.60694 5.64732 0
M  V30 1201 C 207.619 3.93473 7.1943 0
M  V30 1202 O 208.009 3.02071 8.21205 0
M  V30 1203 C 208.499 3.73047 5.97036 0
M  V30 1204 C 207.789 2.58828 5.25741 0
M  V30 1205 N 207.839 2.68068 3.77503 0
M  V30 1206 H 205 5.40332 6.79951 0
M  V30 1207 H 204.73 4.41613 5.32378 0
M  V30 1208 H 205.597 3.26331 7.47797 0
M  V30 1209 P 209.559 2.75334 8.47391 0
M  V30 1210 O 209.779 2.44571 9.90142 0
M  V30 1211 O 210.349 3.87688 7.92115 0
M  V30 1212 O 209.809 1.4459 7.59357 0
M  V30 1213 C 208.869 0.347608 7.69215 0
M  V30 1214 C 209.599 -0.96767 7.52806 0
M  V30 1215 O 209.809 -1.21036 6.1011 0
M  V30 1216 C 210.999 -1.04544 8.13308 0
M  V30 1217 O 211.389 -2.38311 8.41922 0
M  V30 1218 C 211.879 -0.491279 7.02284 0
M  V30 1219 C 211.169 -0.996264 5.77469 0
M  V30 1220 N 211.219 -0.0501916 4.62973 0
M  V30 1221 H 208.38 0.374722 8.67691 0
M  V30 1222 H 208.11 0.443485 6.90277 0
M  V30 1223 H 208.977 -1.75537 7.96793 0
M  V30 1224 P 212.939 -2.75334 8.47391 0
M  V30 1225 O 213.159 -3.84128 9.44797 0
M  V30 1226 O 213.729 -1.51947 8.68712 0
M  V30 1227 O 213.189 -3.29363 6.99321 0
M  V30 1228 C 212.249 -4.24011 6.4274 0
M  V30 1229 C 212.979 -5.20775 5.52155 0
M  V30 1230 O 213.189 -4.56534 4.22446 0
M  V30 1231 C 214.379 -5.62629 5.96531 0
M  V30 1232 O 214.769 -6.87667 5.41053 0
M  V30 1233 C 215.259 -4.52537 5.39283 0
M  V30 1234 C 214.549 -4.20027 4.08623 0
M  V30 1235 N 214.599 -2.76189 3.71603 0
M  V30 1236 H 211.76 -4.797 7.24003 0
M  V30 1237 H 211.49 -3.69856 5.84513 0
M  V30 1238 H 212.357 -6.10356 5.41441 0
M  V30 1239 P 216.319 -7.20834 5.23717 0
M  V30 1240 O 216.539 -8.66104 5.38572 0
M  V30 1241 O 217.109 -6.33544 6.1349 0
M  V30 1242 O 216.569 -6.7751 3.72168 0
M  V30 1243 C 215.629 -7.20825 2.7076 0
M  V30 1244 C 216.359 -7.45864 1.40599 0
M  V30 1245 O 216.569 -6.17651 0.734225 0
M  V30 1246 C 217.759 -8.05808 1.51899 0
M  V30 1247 O 218.149 -8.74358 0.335205 0
M  V30 1248 C 218.639 -6.83093 1.70294 0
M  V30 1249 C 217.929 -5.79992 0.836974 0
M  V30 1250 N 217.979 -4.41864 1.38293 0
M  V30 1251 H 215.14 -8.13644 3.0377 0
M  V30 1252 H 214.87 -6.42788 2.55485 0
M  V30 1253 H 215.737 -8.12039 0.792769 0
M  V30 1254 P 219.699 -8.91 -3.97326e-13 0
M  V30 1255 O 219.919 -10.1726 -0.733694 0
M  V30 1256 O 220.489 -8.73148 1.23936 0
M  V30 1257 O 219.949 -7.66872 -0.971405 0
M  V30 1258 C 219.009 -7.42309 -2.04641 0
M  V30 1259 C 219.739 -6.86059 -3.24661 0
M  V30 1260 O 219.949 -5.42847 -3.03646 0
M  V30 1261 C 221.139 -7.41196 -3.50753 0
M  V30 1262 O 221.529 -7.27073 -4.86816 0
M  V30 1263 C 222.019 -6.5273 -2.63741 0
M  V30 1264 C 221.309 -5.1842 -2.73198 0
M  V30 1265 N 221.359 -4.38762 -1.4784 0
M  V30 1266 H 218.52 -8.36803 -2.32493 0
M  V30 1267 H 218.25 -6.70197 -1.71129 0
M  V30 1268 H 219.117 -7.03551 -4.13168 0
M  V30 1269 P 223.079 -7.20834 -5.23717 0
M  V30 1270 O 223.299 -7.79853 -6.57286 0
M  V30 1271 O 223.869 -7.79239 -4.12957 0
M  V30 1272 O 223.329 -5.63315 -5.29344 0
M  V30 1273 C 222.389 -4.80255 -6.01876 0
M  V30 1274 C 223.119 -3.64202 -6.65911 0
M  V30 1275 O 223.329 -2.60694 -5.64732 0
M  V30 1276 C 224.519 -3.93473 -7.1943 0
M  V30 1277 O 224.909 -3.02071 -8.21205 0
M  V30 1278 C 225.399 -3.73047 -5.97036 0
M  V30 1279 C 224.689 -2.58828 -5.25741 0
M  V30 1280 N 224.739 -2.68068 -3.77503 0
M  V30 1281 C 224.659 -3.79715 -2.96723 0
M  V30 1282 N 224.739 -3.5377 -1.68852 0
M  V30 1283 C 224.879 -2.15054 -1.63254 0
M  V30 1284 C 225.009 -1.28964 -0.518571 0
M  V30 1285 O 225.029 -1.56826 0.679156 0
M  V30 1286 N 225.129 0.0538097 -0.918425 0
M  V30 1287 C 225.129 0.494275 -2.22578 0
M  V30 1288 N 225.259 1.81086 -2.40434 0
M  V30 1289 N 224.999 -0.313645 -3.27502 0
M  V30 1290 C 224.879 -1.61829 -2.91033 0
M  V30 1291 H 221.9 -5.40332 -6.79951 0
M  V30 1292 H 221.63 -4.41613 -5.32378 0
M  V30 1293 H 222.497 -3.26331 -7.47797 0
M  V30 1294 H 225.152 -1.63422 -5.56814 0
M  V30 1295 H 225.431 -4.63374 -5.34244 0
M  V30 1296 H 226.423 -3.44728 -6.25838 0
M  V30 1297 H 224.589 -4.96652 -7.57263 0
M  V30 1298 H 224.54 -4.80617 -3.3614 0
M  V30 1299 H 225.222 0.742702 -0.199384 0
M  V30 1300 H 225.259 2.20598 -3.35588 0
M  V30 1301 H 225.36 2.43518 -1.58945 0
M  V30 1302 P 226.459 -2.75334 -8.47391 0
M  V30 1303 O 226.679 -2.44595 -9.90239 0
M  V30 1304 O 227.249 -3.87732 -7.92204 0
M  V30 1305 O 226.709 -1.4459 -7.59357 0
M  V30 1306 C 225.769 -0.347563 -7.69115 0
M  V30 1307 C 226.499 0.96767 -7.52806 0
M  V30 1308 O 226.709 1.21036 -6.1011 0
M  V30 1309 C 227.899 1.04544 -8.13308 0
M  V30 1310 O 228.289 2.38311 -8.41922 0
M  V30 1311 C 228.779 0.491279 -7.02284 0
M  V30 1312 C 228.069 0.996264 -5.77469 0
M  V30 1313 N 228.119 0.0501808 -4.62873 0
M  V30 1314 C 228.269 0.588177 -3.36904 0
M  V30 1315 O 228.359 1.78598 -3.17173 0
M  V30 1316 N 228.309 -0.329694 -2.33686 0
M  V30 1317 C 228.219 -1.6953 -2.45079 0
M  V30 1318 O 228.269 -2.41926 -1.44899 0
M  V30 1319 C 228.069 -2.16933 -3.80505 0
M  V30 1320 C 227.959 -3.65373 -3.97621 0
M  V30 1321 C 228.019 -1.30326 -4.83752 0
M  V30 1322 H 225.279 -0.374722 -8.67691 0
M  V30 1323 H 225.01 -0.443421 -6.90177 0
M  V30 1324 H 225.877 1.75537 -7.96793 0
M  V30 1325 H 228.532 1.94496 -5.46629 0
M  V30 1326 H 228.811 -0.608651 -7.04676 0
M  V30 1327 H 229.803 0.889672 -7.08939 0
M  V30 1328 H 227.969 0.43308 -9.04564 0
M  V30 1329 H 227.898 -1.68366 -5.8516 0
M  V30 1330 H 228.928 -4.05985 -4.30448 0
M  V30 1331 H 227.191 -3.88028 -4.72875 0
M  V30 1332 H 227.679 -4.11381 -3.01609 0
M  V30 1333 H 228.415 0.0393617 -1.41345 0
M  V30 1334 P 229.839 2.75334 -8.47391 0
M  V30 1335 O 230.059 3.84166 -9.4489 0
M  V30 1336 O 230.629 1.51964 -8.6881 0
M  V30 1337 O 230.089 3.29363 -6.99321 0
M  V30 1338 C 229.149 4.24011 -6.4274 0
M  V30 1339 C 229.879 5.20775 -5.52155 0
M  V30 1340 O 230.089 4.56534 -4.22446 0
M  V30 1341 C 231.279 5.62629 -5.96531 0
M  V30 1342 O 231.669 6.87667 -5.41053 0
M  V30 1343 C 232.159 4.52537 -5.39283 0
M  V30 1344 C 231.449 4.20027 -4.08623 0
M  V30 1345 N 231.499 2.7613 -3.71522 0
M  V30 1346 C 231.649 2.43702 -2.37085 0
M  V30 1347 O 231.739 3.3531 -1.54039 0
M  V30 1348 N 231.699 0.951103 -2.10621 0
M  V30 1349 C 231.599 0.165021 -2.93537 0
M  V30 1350 N 231.649 -1.09723 -2.53253 0
M  V30 1351 C 231.449 0.469576 -4.32458 0
M  V30 1352 C 231.399 1.78658 -4.65921 0
M  V30 1353 H 228.659 4.79645 -7.23919 0
M  V30 1354 H 228.39 3.69802 -5.84429 0
M  V30 1355 H 229.257 6.10431 -5.41508 0
M  V30 1356 H 231.912 4.78733 -3.27967 0
M  V30 1357 H 232.191 3.64957 -6.05871 0
M  V30 1358 H 233.183 4.8868 -5.2125 0
M  V30 1359 H 231.349 5.66726 -7.06352 0
M  V30 1360 H 231.277 2.06987 -5.70299 0
M  V30 1361 H 231.379 -0.314383 -5.07728 0
M  V30 1362 H 231.767 -1.31363 -1.5319 0
M  V30 1363 H 231.57 -1.85978 -3.21943 0
M  V30 1364 P 233.219 7.20834 -5.23717 0
M  V30 1365 O 233.439 8.66104 -5.38572 0
M  V30 1366 O 234.009 6.33544 -6.1349 0
M  V30 1367 O 233.469 6.7751 -3.72168 0
M  V30 1368 C 232.529 7.20825 -2.7076 0
M  V30 1369 C 233.259 7.45864 -1.40599 0
M  V30 1370 O 233.469 6.17651 -0.734225 0
M  V30 1371 C 234.659 8.05808 -1.51899 0
M  V30 1372 O 235.049 8.74358 -0.335205 0
M  V30 1373 C 235.539 6.83093 -1.70294 0
M  V30 1374 C 234.829 5.79992 -0.836974 0
M  V30 1375 N 234.879 4.41864 -1.38293 0
M  V30 1376 H 232.04 8.13644 -3.0377 0
M  V30 1377 H 231.77 6.42788 -2.55485 0
M  V30 1378 H 232.637 8.12039 -0.792769 0
M  V30 1379 P 236.599 8.91 5.54508e-13 0
M  V30 1380 O 236.819 10.1726 0.733694 0
M  V30 1381 O 237.389 8.73148 -1.23936 0
M  V30 1382 O 236.849 7.66872 0.971405 0
M  V30 1383 C 235.909 7.42309 2.04641 0
M  V30 1384 C 236.639 6.86059 3.24661 0
M  V30 1385 O 236.849 5.42847 3.03646 0
M  V30 1386 C 238.039 7.41196 3.50753 0
M  V30 1387 O 238.429 7.27073 4.86816 0
M  V30 1388 C 238.919 6.5273 2.63741 0
M  V30 1389 C 238.209 5.1842 2.73198 0
M  V30 1390 N 238.259 4.38762 1.4784 0
M  V30 1391 C 238.179 4.81605 0.168631 0
M  V30 1392 N 238.259 3.85454 -0.713363 0
M  V30 1393 C 238.399 2.6994 0.0566958 0
M  V30 1394 C 238.529 1.34815 -0.338502 0
M  V30 1395 O 238.549 0.869548 -1.47125 0
M  V30 1396 N 238.649 0.496304 0.77465 0
M  V30 1397 C 238.649 0.908403 2.09122 0
M  V30 1398 N 238.779 -0.0517805 3.00955 0
M  V30 1399 N 238.519 2.17875 2.46519 0
M  V30 1400 C 238.399 3.01988 1.4033 0
M  V30 1401 H 235.42 8.36803 2.32493 0
M  V30 1402 H 235.15 6.70197 1.71129 0
M  V30 1403 H 236.017 7.03551 4.13168 0
M  V30 1404 H 238.672 4.59498 3.54415 0
M  V30 1405 H 238.951 6.88898 1.59848 0
M  V30 1406 H 239.943 6.46749 3.03687 0
M  V30 1407 H 238.109 8.46908 3.20714 0
M  V30 1408 H 238.06 5.86405 -0.105564 0
M  V30 1409 H 238.742 -0.483664 0.597855 0
M  V30 1410 H 238.779 0.187865 4.0116 0
M  V30 1411 H 238.88 -1.03585 2.71726 0
M  V30 1412 P 239.979 7.20834 5.23717 0
M  V30 1413 O 240.199 7.79853 6.57286 0
M  V30 1414 O 240.769 7.79239 4.12957 0
M  V30 1415 O 240.229 5.63315 5.29344 0
M  V30 1416 C 239.289 4.80255 6.01876 0
M  V30 1417 C 240.019 3.64202 6.65911 0
M  V30 1418 O 240.229 2.60694 5.64732 0
M  V30 1419 C 241.419 3.93473 7.1943 0
M  V30 1420 O 241.809 3.02071 8.21205 0
M  V30 1421 C 242.299 3.73047 5.97036 0
M  V30 1422 C 241.589 2.58828 5.25741 0
M  V30 1423 N 241.639 2.68068 3.77503 0
M  V30 1424 H 238.8 5.40332 6.79951 0
M  V30 1425 H 238.53 4.41613 5.32378 0
M  V30 1426 H 239.397 3.26331 7.47797 0
M  V30 1427 P 243.359 2.75334 8.47391 0
M  V30 1428 O 243.579 2.44571 9.90142 0
M  V30 1429 O 244.149 3.87688 7.92115 0
M  V30 1430 O 243.609 1.4459 7.59357 0
M  V30 1431 C 242.669 0.347608 7.69215 0
M  V30 1432 C 243.399 -0.96767 7.52806 0
M  V30 1433 O 243.609 -1.21036 6.1011 0
M  V30 1434 C 244.799 -1.04544 8.13308 0
M  V30 1435 O 245.189 -2.38311 8.41922 0
M  V30 1436 C 245.679 -0.491279 7.02284 0
M  V30 1437 C 244.969 -0.996264 5.77469 0
M  V30 1438 N 245.019 -0.0501916 4.62973 0
M  V30 1439 H 242.18 0.374722 8.67691 0
M  V30 1440 H 241.91 0.443485 6.90277 0
M  V30 1441 H 242.777 -1.75537 7.96793 0
M  V30 1442 P 246.739 -2.75334 8.47391 0
M  V30 1443 O 246.959 -3.84166 9.4489 0
M  V30 1444 O 247.529 -1.51964 8.6881 0
M  V30 1445 O 246.989 -3.29363 6.99321 0
M  V30 1446 C 246.049 -4.23956 6.42656 0
M  V30 1447 C 246.779 -5.20775 5.52155 0
M  V30 1448 O 246.989 -4.56534 4.22446 0
M  V30 1449 C 248.179 -5.62629 5.96531 0
M  V30 1450 O 248.569 -6.87667 5.41053 0
M  V30 1451 C 249.059 -4.52537 5.39283 0
M  V30 1452 C 248.349 -4.20027 4.08623 0
M  V30 1453 N 248.399 -2.7613 3.71522 0
M  V30 1454 C 248.549 -2.45612 2.37989 0
M  V30 1455 O 248.639 -3.30919 1.51621 0
M  V30 1456 N 248.589 -1.10684 2.08435 0
M  V30 1457 C 248.499 -0.0690084 2.9792 0
M  V30 1458 O 248.549 1.10553 2.59426 0
M  V30 1459 C 248.349 -0.481522 4.35345 0
M  V30 1460 C 248.239 0.618778 5.36443 0
M  V30 1461 C 248.299 -1.78906 4.67968 0
M  V30 1462 H 245.559 -4.797 7.24003 0
M  V30 1463 H 245.29 -3.69802 5.84429 0
M  V30 1464 H 246.157 -6.10356 5.41441 0
M  V30 1465 H 248.812 -4.78651 3.27911 0
M  V30 1466 H 249.091 -3.64957 6.05871 0
M  V30 1467 H 250.083 -4.8868 5.2125 0
M  V30 1468 H 248.249 -5.66726 7.06352 0
M  V30 1469 H 248.178 -2.07737 5.72367 0
M  V30 1470 H 249.208 0.754375 5.86871 0
M  V30 1471 H 247.471 0.359721 6.10641 0
M  V30 1472 H 247.959 1.55533 4.8581 0
M  V30 1473 H 248.695 -0.862651 1.12037 0
M  V30 1474 P 250.119 -7.20834 5.23717 0
M  V30 1475 O 250.339 -8.66104 5.38572 0
M  V30 1476 O 250.909 -6.33544 6.1349 0
M  V30 1477 O 250.369 -6.7751 3.72168 0
M  V30 1478 C 249.429 -7.20825 2.7076 0
M  V30 1479 C 250.159 -7.45864 1.40599 0
M  V30 1480 O 250.369 -6.17651 0.734225 0
M  V30 1481 C 251.559 -8.05808 1.51899 0
M  V30 1482 O 251.949 -8.74358 0.335205 0
M  V30 1483 C 252.439 -6.83093 1.70294 0
M  V30 1484 C 251.729 -5.79992 0.836974 0
M  V30 1485 N 251.779 -4.41864 1.38293 0
M  V30 1486 H 248.94 -8.13644 3.0377 0
M  V30 1487 H 248.67 -6.42788 2.55485 0
M  V30 1488 H 249.537 -8.12039 0.792769 0
M  V30 1489 P 253.498 -8.91 -7.1169e-13 0
M  V30 1490 O 253.718 -10.1736 -0.733766 0
M  V30 1491 O 254.288 -8.73247 1.2395 0
M  V30 1492 O 253.748 -7.66872 -0.971405 0
M  V30 1493 C 252.808 -7.42212 -2.04614 0
M  V30 1494 C 253.538 -6.86059 -3.24661 0
M  V30 1495 O 253.748 -5.42847 -3.03646 0
M  V30 1496 C 254.938 -7.41196 -3.50753 0
M  V30 1497 O 255.328 -7.27073 -4.86816 0
M  V30 1498 C 255.818 -6.5273 -2.63741 0
M  V30 1499 C 255.108 -5.1842 -2.73198 0
M  V30 1500 N 255.158 -4.38668 -1.47808 0
M  V30 1501 C 255.308 -3.02239 -1.60048 0
M  V30 1502 O 255.398 -2.46459 -2.67869 0
M  V30 1503 N 255.348 -2.32436 -0.408571 0
M  V30 1504 C 255.258 -2.85471 0.854993 0
M  V30 1505 O 255.308 -2.12566 1.8531 0
M  V30 1506 C 255.108 -4.28918 0.887335 0
M  V30 1507 C 254.998 -4.91066 2.24619 0
M  V30 1508 C 255.058 -5.00349 -0.255399 0
M  V30 1509 H 252.318 -8.36803 -2.32493 0
M  V30 1510 H 252.049 -6.701 -1.71105 0
M  V30 1511 H 252.916 -7.03551 -4.13168 0
M  V30 1512 H 255.571 -4.59773 -3.53894 0
M  V30 1513 H 255.85 -6.88995 -1.59871 0
M  V30 1514 H 256.842 -6.46749 -3.03687 0
M  V30 1515 H 255.008 -8.46908 -3.20714 0
M  V30 1516 H 254.937 -6.08548 -0.206986 0
M  V30 1517 H 255.967 -5.34836 2.53099 0
M  V30 1518 H 254.23 -5.69638 2.2291 0
M  V30 1519 H 254.718 -4.13971 2.98044 0
M  V30 1520 H 255.454 -1.33211 -0.474216 0
M  V30 1521 P 256.878 -7.20834 -5.23717 0
M  V30 1522 O 257.098 -7.80006 -6.57415 0
M  V30 1523 O 257.668 -7.79416 -4.13051 0
M  V30 1524 O 257.128 -5.63315 -5.29344 0
M  V30 1525 C 256.188 -4.80318 -6.01954 0
M  V30 1526 C 256.918 -3.64202 -6.65911 0
M  V30 1527 O 257.128 -2.60736 -5.64823 0
M  V30 1528 C 258.318 -3.93521 -7.19518 0
M  V30 1529 O 258.708 -3.02071 -8.21205 0
M  V30 1530 C 259.198 -3.73047 -5.97036 0
M  V30 1531 C 258.488 -2.58828 -5.25741 0
M  V30 1532 N 258.538 -2.68068 -3.77503 0
M  V30 1533 H 255.7 -5.40394 -6.8003 0
M  V30 1534 H 255.428 -4.41741 -5.32532 0
M  V30 1535 H 256.296 -3.26371 -7.47889 0
M  V30 1536 H 258.951 -1.64007 -5.56746 0
M  V30 1537 H 259.231 -4.63439 -5.3432 0
M  V30 1538 H 260.222 -3.44776 -6.25925 0
M  V30 1539 H 258.388 -4.96707 -7.57347 0
M  V30 1540 P 260.258 -2.75334 -8.47391 0
M  V30 1541 O 260.478 -2.44571 -9.90142 0
M  V30 1542 O 261.048 -3.87688 -7.92115 0
M  V30 1543 O 260.508 -1.4459 -7.59357 0
M  V30 1544 C 259.568 -0.347608 -7.69215 0
M  V30 1545 C 260.298 0.96767 -7.52806 0
M  V30 1546 O 260.508 1.21036 -6.1011 0
M  V30 1547 C 261.698 1.04544 -8.13308 0
M  V30 1548 O 262.088 2.38311 -8.41922 0
M  V30 1549 C 262.578 0.491279 -7.02284 0
M  V30 1550 C 261.868 0.996264 -5.77469 0
M  V30 1551 N 261.918 0.0501916 -4.62973 0
M  V30 1552 H 259.079 -0.374722 -8.67691 0
M  V30 1553 H 258.809 -0.443485 -6.90277 0
M  V30 1554 H 259.676 1.75537 -7.96793 0
M  V30 1555 P 263.638 2.75334 -8.47391 0
M  V30 1556 O 263.858 3.84128 -9.44797 0
M  V30 1557 O 264.428 1.51947 -8.68712 0
M  V30 1558 O 263.888 3.29363 -6.99321 0
M  V30 1559 C 262.948 4.24011 -6.4274 0
M  V30 1560 C 263.678 5.20775 -5.52155 0
M  V30 1561 O 263.888 4.56534 -4.22446 0
M  V30 1562 C 265.078 5.62629 -5.96531 0
M  V30 1563 O 265.468 6.87667 -5.41053 0
M  V30 1564 C 265.958 4.52537 -5.39283 0
M  V30 1565 C 265.248 4.20027 -4.08623 0
M  V30 1566 N 265.298 2.76189 -3.71603 0
M  V30 1567 H 262.459 4.797 -7.24003 0
M  V30 1568 H 262.189 3.69856 -5.84513 0
M  V30 1569 H 263.056 6.10356 -5.41441 0
M  V30 1570 P 267.018 7.20834 -5.23717 0
M  V30 1571 O 267.238 8.66104 -5.38572 0
M  V30 1572 O 267.808 6.33544 -6.1349 0
M  V30 1573 O 267.268 6.7751 -3.72168 0
M  V30 1574 C 266.328 7.20825 -2.7076 0
M  V30 1575 C 267.058 7.45864 -1.40599 0
M  V30 1576 O 267.268 6.17651 -0.734225 0
M  V30 1577 C 268.458 8.05808 -1.51899 0
M  V30 1578 O 268.848 8.74358 -0.335205 0
M  V30 1579 C 269.338 6.83093 -1.70294 0
M  V30 1580 C 268.628 5.79992 -0.836974 0
M  V30 1581 N 268.678 4.41864 -1.38293 0
M  V30 1582 C 268.598 3.99538 -2.69438 0
M  V30 1583 N 268.678 2.69909 -2.84277 0
M  V30 1584 C 268.818 2.21719 -1.5408 0
M  V30 1585 C 268.948 0.891712 -1.06628 0
M  V30 1586 N 269.068 0.856846 0.334985 0
M  V30 1587 C 269.068 1.9641 1.15789 0
M  V30 1588 N 269.198 1.72708 2.46522 0
M  V30 1589 N 268.938 3.21165 0.713741 0
M  V30 1590 C 268.818 3.26797 -0.639748 0
M  V30 1591 H 265.839 8.13644 -3.0377 0
M  V30 1592 H 265.569 6.42788 -2.55485 0
M  V30 1593 H 266.436 8.12039 -0.792769 0
M  V30 1594 P 270.398 8.91 8.68872e-13 0
M  V30 1595 O 270.618 10.1726 0.733694 0
M  V30 1596 O 271.188 8.73148 -1.23936 0
M  V30 1597 O 270.648 7.66872 0.971405 0
M  V30 1598 C 269.708 7.42309 2.04641 0
M  V30 1599 C 270.438 6.86059 3.24661 0
M  V30 1600 O 270.648 5.42847 3.03646 0
M  V30 1601 C 271.838 7.41196 3.50753 0
M  V30 1602 O 272.228 7.27073 4.86816 0
M  V30 1603 C 272.718 6.5273 2.63741 0
M  V30 1604 C 272.008 5.1842 2.73198 0
M  V30 1605 N 272.058 4.38762 1.4784 0
M  V30 1606 H 269.219 8.36803 2.32493 0
M  V30 1607 H 268.949 6.70197 1.71129 0
M  V30 1608 H 269.816 7.03551 4.13168 0
M  V30 1609 P 273.778 7.20834 5.23717 0
M  V30 1610 O 273.998 7.80006 6.57415 0
M  V30 1611 O 274.568 7.79416 4.13051 0
M  V30 1612 O 274.028 5.63315 5.29344 0
M  V30 1613 C 273.088 4.80318 6.01954 0
M  V30 1614 C 273.818 3.64202 6.65911 0
M  V30 1615 O 274.028 2.60736 5.64823 0
M  V30 1616 C 275.218 3.93521 7.19518 0
M  V30 1617 O 275.608 3.02071 8.21205 0
M  V30 1618 C 276.098 3.73047 5.97036 0
M  V30 1619 C 275.388 2.58828 5.25741 0
M  V30 1620 N 275.438 2.68068 3.77503 0
M  V30 1621 H 272.6 5.40394 6.8003 0
M  V30 1622 H 272.328 4.41741 5.32532 0
M  V30 1623 H 273.196 3.26371 7.47889 0
M  V30 1624 H 275.851 1.64007 5.56746 0
M  V30 1625 H 276.131 4.63439 5.3432 0
M  V30 1626 H 277.122 3.44776 6.25925 0
M  V30 1627 H 275.288 4.96707 7.57347 0
M  V30 1628 P 277.158 2.75334 8.47391 0
M  V30 1629 O 277.378 2.44571 9.90142 0
M  V30 1630 O 277.948 3.87688 7.92115 0
M  V30 1631 O 277.408 1.4459 7.59357 0
M  V30 1632 C 276.468 0.347608 7.69215 0
M  V30 1633 C 277.198 -0.96767 7.52806 0
M  V30 1634 O 277.408 -1.21036 6.1011 0
M  V30 1635 C 278.598 -1.04544 8.13308 0
M  V30 1636 O 278.988 -2.38311 8.41922 0
M  V30 1637 C 279.478 -0.491279 7.02284 0
M  V30 1638 C 278.768 -0.996264 5.77469 0
M  V30 1639 N 278.818 -0.0501916 4.62973 0
M  V30 1640 H 275.979 0.374722 8.67691 0
M  V30 1641 H 275.709 0.443485 6.90277 0
M  V30 1642 H 276.576 -1.75537 7.96793 0
M  V30 1643 P 280.538 -2.75334 8.47391 0
M  V30 1644 O 280.758 -3.84166 9.4489 0
M  V30 1645 O 281.328 -1.51964 8.6881 0
M  V30 1646 O 280.788 -3.29363 6.99321 0
M  V30 1647 C 279.848 -4.23956 6.42656 0
M  V30 1648 C 280.578 -5.20775 5.52155 0
M  V30 1649 O 280.788 -4.56534 4.22446 0
M  V30 1650 C 281.978 -5.62629 5.96531 0
M  V30 1651 O 282.368 -6.87667 5.41053 0
M  V30 1652 C 282.858 -4.52537 5.39283 0
M  V30 1653 C 282.148 -4.20027 4.08623 0
M  V30 1654 N 282.198 -2.7613 3.71522 0
M  V30 1655 C 282.348 -2.45612 2.37989 0
M  V30 1656 O 282.438 -3.30919 1.51621 0
M  V30 1657 N 282.388 -1.10684 2.08435 0
M  V30 1658 C 282.298 -0.0690084 2.9792 0
M  V30 1659 O 282.348 1.10553 2.59426 0
M  V30 1660 C 282.148 -0.481522 4.35345 0
M  V30 1661 C 282.038 0.618778 5.36443 0
M  V30 1662 C 282.098 -1.78906 4.67968 0
M  V30 1663 H 279.358 -4.797 7.24003 0
M  V30 1664 H 279.089 -3.69802 5.84429 0
M  V30 1665 H 279.956 -6.10356 5.41441 0
M  V30 1666 H 282.611 -4.78651 3.27911 0
M  V30 1667 H 282.89 -3.64957 6.05871 0
M  V30 1668 H 283.882 -4.8868 5.2125 0
M  V30 1669 H 282.048 -5.66726 7.06352 0
M  V30 1670 H 281.977 -2.07737 5.72367 0
M  V30 1671 H 283.007 0.754375 5.86871 0
M  V30 1672 H 281.27 0.359721 6.10641 0
M  V30 1673 H 281.758 1.55533 4.8581 0
M  V30 1674 H 282.494 -0.862651 1.12037 0
M  V30 1675 P 283.918 -7.20834 5.23717 0
M  V30 1676 O 284.138 -8.66274 5.38678 0
M  V30 1677 O 284.708 -6.33687 6.13629 0
M  V30 1678 O 284.168 -6.7751 3.72168 0
M  V30 1679 C 283.228 -7.20919 2.70795 0
M  V30 1680 C 283.958 -7.45864 1.40599 0
M  V30 1681 O 284.168 -6.17751 0.734343 0
M  V30 1682 C 285.358 -8.05906 1.51917 0
M  V30 1683 O 285.748 -8.74358 0.335205 0
M  V30 1684 C 286.238 -6.83093 1.70294 0
M  V30 1685 C 285.528 -5.79992 0.836974 0
M  V30 1686 N 285.578 -4.41864 1.38293 0
M  V30 1687 C 285.498 -4.02089 2.69407 0
M  V30 1688 N 285.568 -2.73403 2.85089 0
M  V30 1689 C 285.718 -2.25086 1.5642 0
M  V30 1690 C 285.848 -0.942887 1.04836 0
M  V30 1691 N 285.858 0.150999 1.80369 0
M  V30 1692 N 285.968 -0.812565 -0.28167 0
M  V30 1693 C 285.958 -1.90572 -1.03784 0
M  V30 1694 N 285.838 -3.167 -0.683905 0
M  V30 1695 C 285.718 -3.26538 0.652815 0
M  V30 1696 H 282.74 -8.13738 3.03804 0
M  V30 1697 H 282.468 -6.42974 2.55559 0
M  V30 1698 H 283.336 -8.12139 0.792866 0
M  V30 1699 H 285.991 -5.80178 -0.160643 0
M  V30 1700 H 286.271 -6.51379 2.75643 0
M  V30 1701 H 287.262 -7.01832 1.3448 0
M  V30 1702 H 285.428 -8.73771 2.38364 0
M  V30 1703 H 285.387 -4.7189 3.52311 0
M  V30 1704 H 285.768 0.0721434 2.82608 0
M  V30 1705 H 285.957 1.0785 1.36544 0
M  V30 1706 H 286.065 -1.73207 -2.10241 0
M  V30 1707 P 287.298 -8.91 -1.02605e-12 0
M  V30 1708 O 287.518 -10.1726 -0.733694 0
M  V30 1709 O 288.088 -8.73148 1.23936 0
M  V30 1710 O 287.548 -7.66872 -0.971405 0
M  V30 1711 C 286.608 -7.42309 -2.04641 0
M  V30 1712 C 287.338 -6.86059 -3.24661 0
M  V30 1713 O 287.548 -5.42847 -3.03646 0
M  V30 1714 C 288.738 -7.41196 -3.50753 0
M  V30 1715 O 289.128 -7.27073 -4.86816 0
M  V30 1716 C 289.618 -6.5273 -2.63741 0
M  V30 1717 C 288.908 -5.1842 -2.73198 0
M  V30 1718 N 288.958 -4.38762 -1.4784 0
M  V30 1719 H 286.119 -8.36803 -2.32493 0
M  V30 1720 H 285.849 -6.70197 -1.71129 0
M  V30 1721 H 286.716 -7.03551 -4.13168 0
M  V30 1722 P 290.678 -7.20834 -5.23717 0
M  V30 1723 O 290.898 -7.79853 -6.57286 0
M  V30 1724 O 291.468 -7.79239 -4.12957 0
M  V30 1725 O 290.928 -5.63315 -5.29344 0
M  V30 1726 C 289.988 -4.80255 -6.01876 0
M  V30 1727 C 290.718 -3.64202 -6.65911 0
M  V30 1728 O 290.928 -2.60694 -5.64732 0
M  V30 1729 C 292.118 -3.93473 -7.1943 0
M  V30 1730 O 292.508 -3.02071 -8.21205 0
M  V30 1731 C 292.998 -3.73047 -5.97036 0
M  V30 1732 C 292.288 -2.58828 -5.25741 0
M  V30 1733 N 292.338 -2.68068 -3.77503 0
M  V30 1734 H 289.499 -5.40332 -6.79951 0
M  V30 1735 H 289.229 -4.41613 -5.32378 0
M  V30 1736 H 290.096 -3.26331 -7.47797 0
M  V30 1737 P 294.058 -2.75334 -8.47391 0
M  V30 1738 O 294.278 -2.44595 -9.90239 0
M  V30 1739 O 294.848 -3.87732 -7.92204 0
M  V30 1740 O 294.308 -1.4459 -7.59357 0
M  V30 1741 C 293.368 -0.347563 -7.69115 0
M  V30 1742 C 294.098 0.96767 -7.52806 0
M  V30 1743 O 294.308 1.21036 -6.1011 0
M  V30 1744 C 295.498 1.04544 -8.13308 0
M  V30 1745 O 295.888 2.38311 -8.41922 0
M  V30 1746 C 296.378 0.491279 -7.02284 0
M  V30 1747 C 295.668 0.996264 -5.77469 0
M  V30 1748 N 295.718 0.0501808 -4.62873 0
M  V30 1749 C 295.868 0.588177 -3.36904 0
M  V30 1750 O 295.958 1.78598 -3.17173 0
M  V30 1751 N 295.908 -0.329694 -2.33686 0
M  V30 1752 C 295.818 -1.6953 -2.45079 0
M  V30 1753 C 295.668 -2.16933 -3.80505 0
M  V30 1754 C 295.618 -1.30326 -4.83752 0
M  V30 1755 H 292.878 -0.374722 -8.67691 0
M  V30 1756 H 292.609 -0.443421 -6.90177 0
M  V30 1757 H 293.476 1.75537 -7.96793 0
M  V30 1758 H 296.131 1.94496 -5.46629 0
M  V30 1759 H 296.41 -0.608651 -7.04676 0
M  V30 1760 H 297.402 0.889672 -7.08939 0
M  V30 1761 H 295.568 0.43308 -9.04564 0
M  V30 1762 H 295.497 -1.68366 -5.8516 0
M  V30 1763 P 297.438 2.75334 -8.47391 0
M  V30 1764 O 297.658 3.84128 -9.44797 0
M  V30 1765 O 298.228 1.51947 -8.68712 0
M  V30 1766 O 297.688 3.29363 -6.99321 0
M  V30 1767 C 296.748 4.24011 -6.4274 0
M  V30 1768 C 297.478 5.20775 -5.52155 0
M  V30 1769 O 297.688 4.56534 -4.22446 0
M  V30 1770 C 298.878 5.62629 -5.96531 0
M  V30 1771 O 299.268 6.87667 -5.41053 0
M  V30 1772 C 299.758 4.52537 -5.39283 0
M  V30 1773 C 299.048 4.20027 -4.08623 0
M  V30 1774 N 299.098 2.76189 -3.71603 0
M  V30 1775 H 296.259 4.797 -7.24003 0
M  V30 1776 H 295.989 3.69856 -5.84513 0
M  V30 1777 H 296.856 6.10356 -5.41441 0
M  V30 1778 P 300.818 7.20834 -5.23717 0
M  V30 1779 O 301.038 8.66274 -5.38678 0
M  V30 1780 O 301.608 6.33687 -6.13629 0
M  V30 1781 O 301.068 6.7751 -3.72168 0
M  V30 1782 C 300.128 7.20919 -2.70795 0
M  V30 1783 C 300.858 7.45864 -1.40599 0
M  V30 1784 O 301.068 6.17751 -0.734343 0
M  V30 1785 C 302.258 8.05906 -1.51917 0
M  V30 1786 O 302.648 8.74358 -0.335205 0
M  V30 1787 C 303.138 6.83093 -1.70294 0
M  V30 1788 C 302.428 5.79992 -0.836974 0
M  V30 1789 N 302.478 4.41864 -1.38293 0
M  V30 1790 C 302.398 4.02089 -2.69407 0
M  V30 1791 N 302.468 2.73403 -2.85089 0
M  V30 1792 C 302.618 2.25086 -1.5642 0
M  V30 1793 C 302.748 0.942887 -1.04836 0
M  V30 1794 N 302.758 -0.150999 -1.80369 0
M  V30 1795 N 302.868 0.812565 0.28167 0
M  V30 1796 C 302.858 1.90572 1.03784 0
M  V30 1797 N 302.738 3.167 0.683905 0
M  V30 1798 C 302.618 3.26538 -0.652815 0
M  V30 1799 H 299.64 8.13738 -3.03804 0
M  V30 1800 H 299.368 6.42974 -2.55559 0
M  V30 1801 H 300.236 8.12139 -0.792866 0
M  V30 1802 H 302.891 5.80178 0.160643 0
M  V30 1803 H 303.171 6.51379 -2.75643 0
M  V30 1804 H 304.162 7.01832 -1.3448 0
M  V30 1805 H 302.328 8.73771 -2.38364 0
M  V30 1806 H 302.287 4.7189 -3.52311 0
M  V30 1807 H 302.668 -0.0721434 -2.82608 0
M  V30 1808 H 302.857 -1.0785 -1.36544 0
M  V30 1809 H 302.965 1.73207 2.10241 0
M  V30 1810 P 304.198 8.91 1.18324e-12 0
M  V30 1811 O 304.418 10.1726 0.733694 0
M  V30 1812 O 304.988 8.73148 -1.23936 0
M  V30 1813 O 304.448 7.66872 0.971405 0
M  V30 1814 C 303.508 7.42309 2.04641 0
M  V30 1815 C 304.238 6.86059 3.24661 0
M  V30 1816 O 304.448 5.42847 3.03646 0
M  V30 1817 C 305.638 7.41196 3.50753 0
M  V30 1818 O 306.028 7.27073 4.86816 0
M  V30 1819 C 306.518 6.5273 2.63741 0
M  V30 1820 C 305.808 5.1842 2.73198 0
M  V30 1821 N 305.858 4.38762 1.4784 0
M  V30 1822 H 303.019 8.36803 2.32493 0
M  V30 1823 H 302.749 6.70197 1.71129 0
M  V30 1824 H 303.616 7.03551 4.13168 0
M  V30 1825 P 307.578 7.20834 5.23717 0
M  V30 1826 O 307.798 7.7993 6.57351 0
M  V30 1827 O 308.368 7.79328 4.13004 0
M  V30 1828 O 307.828 5.63315 5.29344 0
M  V30 1829 C 306.888 4.80193 6.01798 0
M  V30 1830 C 307.618 3.64202 6.65911 0
M  V30 1831 O 307.828 2.60694 5.64732 0
M  V30 1832 C 309.018 3.93473 7.1943 0
M  V30 1833 O 309.408 3.02071 8.21205 0
M  V30 1834 C 309.898 3.73047 5.97036 0
M  V30 1835 C 309.188 2.58828 5.25741 0
M  V30 1836 N 309.238 2.6801 3.77422 0
M  V30 1837 C 309.388 1.50443 3.07133 0
M  V30 1838 O 309.478 0.419406 3.61576 0
M  V30 1839 N 309.428 1.6403 1.69677 0
M  V30 1840 C 309.338 2.81206 0.986255 0
M  V30 1841 C 309.188 3.99158 1.80325 0
M  V30 1842 C 309.138 3.89779 3.1476 0
M  V30 1843 H 306.398 5.40332 6.79951 0
M  V30 1844 H 306.129 4.41549 5.32301 0
M  V30 1845 H 306.996 3.26331 7.47797 0
M  V30 1846 H 309.651 1.6395 5.56554 0
M  V30 1847 H 309.93 4.63439 5.3432 0
M  V30 1848 H 310.922 3.44728 6.25838 0
M  V30 1849 H 309.088 4.96652 7.57263 0
M  V30 1850 H 309.017 4.80159 3.74441 0
M  V30 1851 P 310.958 2.75334 8.47391 0
M  V30 1852 O 311.178 2.44619 9.90336 0
M  V30 1853 O 311.748 3.87776 7.92294 0
M  V30 1854 O 311.208 1.4459 7.59357 0
M  V30 1855 C 310.268 0.347653 7.69315 0
M  V30 1856 C 310.998 -0.96767 7.52806 0
M  V30 1857 O 311.208 -1.21055 6.10208 0
M  V30 1858 C 312.398 -1.04557 8.13408 0
M  V30 1859 O 312.788 -2.38311 8.41922 0
M  V30 1860 C 313.278 -0.491279 7.02284 0
M  V30 1861 C 312.568 -0.996264 5.77469 0
M  V30 1862 N 312.618 -0.0501916 4.62973 0
M  V30 1863 C 312.538 1.31969 4.65661 0
M  V30 1864 N 312.608 1.86649 3.48119 0
M  V30 1865 C 312.758 0.792089 2.62406 0
M  V30 1866 C 312.888 0.705684 1.2207 0
M  V30 1867 N 312.898 1.76207 0.413762 0
M  V30 1868 N 313.008 -0.518981 0.685754 0
M  V30 1869 C 312.998 -1.57595 1.49174 0
M  V30 1870 N 312.878 -1.62909 2.80066 0
M  V30 1871 C 312.758 -0.388195 3.3073 0
M  V30 1872 H 309.78 0.374765 8.67791 0
M  V30 1873 H 309.508 0.443613 6.90476 0
M  V30 1874 H 310.376 -1.75559 7.96891 0
M  V30 1875 H 313.031 -1.94563 5.46818 0
M  V30 1876 H 313.311 0.608651 7.04676 0
M  V30 1877 H 314.302 -0.889796 7.09039 0
M  V30 1878 H 312.468 -0.433128 9.04664 0
M  V30 1879 H 312.427 1.89246 5.57664 0
M  V30 1880 H 312.808 2.71005 0.804694 0
M  V30 1881 H 312.997 1.63189 -0.603768 0
M  V30 1882 H 313.105 -2.53475 0.997614 0
M  V30 1883 P 314.338 -2.75334 8.47391 0
M  V30 1884 O 314.558 -3.84128 9.44797 0
M  V30 1885 O 315.128 -1.51947 8.68712 0
M  V30 1886 O 314.588 -3.29363 6.99321 0
M  V30 1887 C 313.648 -4.24011 6.4274 0
M  V30 1888 C 314.378 -5.20775 5.52155 0
M  V30 1889 O 314.588 -4.56534 4.22446 0
M  V30 1890 C 315.778 -5.62629 5.96531 0
M  V30 1891 O 316.168 -6.87667 5.41053 0
M  V30 1892 C 316.658 -4.52537 5.39283 0
M  V30 1893 C 315.948 -4.20027 4.08623 0
M  V30 1894 N 315.998 -2.76189 3.71603 0
M  V30 1895 H 313.159 -4.797 7.24003 0
M  V30 1896 H 312.889 -3.69856 5.84513 0
M  V30 1897 H 313.756 -6.10356 5.41441 0
M  V30 1898 P 317.718 -7.20834 5.23717 0
M  V30 1899 O 317.938 -8.66189 5.38625 0
M  V30 1900 O 318.508 -6.33615 6.1356 0
M  V30 1901 O 317.968 -6.7751 3.72168 0
M  V30 1902 C 317.028 -7.20732 2.70725 0
M  V30 1903 C 317.758 -7.45864 1.40599 0
M  V30 1904 O 317.968 -6.17651 0.734225 0
M  V30 1905 C 319.158 -8.05808 1.51899 0
M  V30 1906 O 319.548 -8.74358 0.335205 0
M  V30 1907 C 320.038 -6.83093 1.70294 0
M  V30 1908 C 319.328 -5.79992 0.836974 0
M  V30 1909 N 319.378 -4.41769 1.38263 0
M  V30 1910 C 319.528 -3.38591 0.481702 0
M  V30 1911 O 319.618 -3.56839 -0.718452 0
M  V30 1912 N 319.568 -2.1206 1.03569 0
M  V30 1913 C 319.478 -1.80696 2.36966 0
M  V30 1914 C 319.328 -2.94845 3.23898 0
M  V30 1915 C 319.278 -4.19803 2.73435 0
M  V30 1916 H 316.538 -8.13644 3.0377 0
M  V30 1917 H 316.269 -6.42695 2.55448 0
M  V30 1918 H 317.136 -8.12039 0.792769 0
M  V30 1919 H 319.791 -5.79978 -0.160587 0
M  V30 1920 H 320.07 -6.51379 2.75643 0
M  V30 1921 H 321.062 -7.01734 1.34462 0
M  V30 1922 H 319.228 -8.73674 2.38337 0
M  V30 1923 H 319.157 -5.04492 3.4095 0
M  V30 1924 P 321.098 -8.91 -1.34042e-12 0
M  V30 1925 O 321.318 -10.1726 -0.733694 0
M  V30 1926 O 321.888 -8.73148 1.23936 0
M  V30 1927 O 321.348 -7.66872 -0.971405 0
M  V30 1928 C 320.408 -7.42309 -2.04641 0
M  V30 1929 C 321.138 -6.86059 -3.24661 0
M  V30 1930 O 321.348 -5.42847 -3.03646 0
M  V30 1931 C 322.538 -7.41196 -3.50753 0
M  V30 1932 O 322.928 -7.27073 -4.86816 0
M  V30 1933 C 323.418 -6.5273 -2.63741 0
M  V30 1934 C 322.708 -5.1842 -2.73198 0
M  V30 1935 N 322.758 -4.38762 -1.4784 0
M  V30 1936 H 319.919 -8.36803 -2.32493 0
M  V30 1937 H 319.649 -6.70197 -1.71129 0
M  V30 1938 H 320.516 -7.03551 -4.13168 0
M  V30 1939 P 324.478 -7.20834 -5.23717 0
M  V30 1940 O 324.698 -7.79853 -6.57286 0
M  V30 1941 O 325.268 -7.79239 -4.12957 0
M  V30 1942 O 324.728 -5.63315 -5.29344 0
M  V30 1943 C 323.788 -4.80255 -6.01876 0
M  V30 1944 C 324.518 -3.64202 -6.65911 0
M  V30 1945 O 324.728 -2.60694 -5.64732 0
M  V30 1946 C 325.918 -3.93473 -7.1943 0
M  V30 1947 O 326.308 -3.02071 -8.21205 0
M  V30 1948 C 326.798 -3.73047 -5.97036 0
M  V30 1949 C 326.088 -2.58828 -5.25741 0
M  V30 1950 N 326.138 -2.68068 -3.77503 0
M  V30 1951 H 323.299 -5.40332 -6.79951 0
M  V30 1952 H 323.029 -4.41613 -5.32378 0
M  V30 1953 H 323.896 -3.26331 -7.47797 0
M  V30 1954 P 327.858 -2.75334 -8.47391 0
M  V30 1955 O 328.078 -2.44619 -9.90336 0
M  V30 1956 O 328.648 -3.87776 -7.92294 0
M  V30 1957 O 328.108 -1.4459 -7.59357 0
M  V30 1958 C 327.168 -0.347653 -7.69315 0
M  V30 1959 C 327.898 0.96767 -7.52806 0
M  V30 1960 O 328.108 1.21055 -6.10208 0
M  V30 1961 C 329.298 1.04557 -8.13408 0
M  V30 1962 O 329.688 2.38311 -8.41922 0
M  V30 1963 C 330.178 0.491279 -7.02284 0
M  V30 1964 C 329.468 0.996264 -5.77469 0
M  V30 1965 N 329.518 0.0501916 -4.62973 0
M  V30 1966 H 326.68 -0.374765 -8.67791 0
M  V30 1967 H 326.408 -0.443613 -6.90476 0
M  V30 1968 H 327.276 1.75559 -7.96891 0
M  V30 1969 H 329.931 1.94563 -5.46818 0
M  V30 1970 H 330.211 -0.608651 -7.04676 0
M  V30 1971 H 331.202 0.889796 -7.09039 0
M  V30 1972 H 329.368 0.433128 -9.04664 0
M  V30 1973 P 331.238 2.75334 -8.47391 0
M  V30 1974 O 331.458 3.84128 -9.44797 0
M  V30 1975 O 332.028 1.51947 -8.68712 0
M  V30 1976 O 331.488 3.29363 -6.99321 0
M  V30 1977 C 330.548 4.24011 -6.4274 0
M  V30 1978 C 331.278 5.20775 -5.52155 0
M  V30 1979 O 331.488 4.56534 -4.22446 0
M  V30 1980 C 332.678 5.62629 -5.96531 0
M  V30 1981 O 333.068 6.87667 -5.41053 0
M  V30 1982 C 333.558 4.52537 -5.39283 0
M  V30 1983 C 332.848 4.20027 -4.08623 0
M  V30 1984 N 332.898 2.76189 -3.71603 0
M  V30 1985 H 330.059 4.797 -7.24003 0
M  V30 1986 H 329.789 3.69856 -5.84513 0
M  V30 1987 H 330.656 6.10356 -5.41441 0
M  V30 1988 P 334.618 7.20834 -5.23717 0
M  V30 1989 O 334.838 8.66104 -5.38572 0
M  V30 1990 O 335.408 6.33544 -6.1349 0
M  V30 1991 O 334.868 6.7751 -3.72168 0
M  V30 1992 C 333.928 7.20825 -2.7076 0
M  V30 1993 C 334.658 7.45864 -1.40599 0
M  V30 1994 O 334.868 6.17651 -0.734225 0
M  V30 1995 C 336.058 8.05808 -1.51899 0
M  V30 1996 O 336.448 8.74358 -0.335205 0
M  V30 1997 C 336.938 6.83093 -1.70294 0
M  V30 1998 C 336.228 5.79992 -0.836974 0
M  V30 1999 N 336.278 4.41864 -1.38293 0
M  V30 2000 H 333.439 8.13644 -3.0377 0
M  V30 2001 H 333.169 6.42788 -2.55485 0
M  V30 2002 H 334.036 8.12039 -0.792769 0
M  V30 2003 P 337.998 8.91 1.4976e-12 0
M  V30 2004 O 338.218 10.1726 0.733694 0
M  V30 2005 O 338.788 8.73148 -1.23936 0
M  V30 2006 O 338.248 7.66872 0.971405 0
M  V30 2007 C 337.308 7.42309 2.04641 0
M  V30 2008 C 338.038 6.86059 3.24661 0
M  V30 2009 O 338.248 5.42847 3.03646 0
M  V30 2010 C 339.438 7.41196 3.50753 0
M  V30 2011 O 339.828 7.27073 4.86816 0
M  V30 2012 C 340.318 6.5273 2.63741 0
M  V30 2013 C 339.608 5.1842 2.73198 0
M  V30 2014 N 339.658 4.38762 1.4784 0
M  V30 2015 H 336.819 8.36803 2.32493 0
M  V30 2016 H 336.549 6.70197 1.71129 0
M  V30 2017 H 337.416 7.03551 4.13168 0
M  V30 2018 P 341.378 7.20834 5.23717 0
M  V30 2019 O 341.598 7.79853 6.57286 0
M  V30 2020 O 342.168 7.79239 4.12957 0
M  V30 2021 O 341.628 5.63315 5.29344 0
M  V30 2022 C 340.688 4.80255 6.01876 0
M  V30 2023 C 341.418 3.64202 6.65911 0
M  V30 2024 O 341.628 2.60694 5.64732 0
M  V30 2025 C 342.818 3.93473 7.1943 0
M  V30 2026 O 343.208 3.02071 8.21205 0
M  V30 2027 C 343.698 3.73047 5.97036 0
M  V30 2028 C 342.988 2.58828 5.25741 0
M  V30 2029 N 343.038 2.68068 3.77503 0
M  V30 2030 C 342.958 3.79715 2.96723 0
M  V30 2031 N 343.038 3.5377 1.68852 0
M  V30 2032 C 343.178 2.15054 1.63254 0
M  V30 2033 C 343.308 1.28964 0.518571 0
M  V30 2034 O 343.328 1.56826 -0.679156 0
M  V30 2035 N 343.428 -0.0538097 0.918425 0
M  V30 2036 C 343.428 -0.494275 2.22578 0
M  V30 2037 N 343.558 -1.81086 2.40434 0
M  V30 2038 N 343.298 0.313645 3.27502 0
M  V30 2039 C 343.178 1.61829 2.91033 0
M  V30 2040 H 340.199 5.40332 6.79951 0
M  V30 2041 H 339.929 4.41613 5.32378 0
M  V30 2042 H 340.796 3.26331 7.47797 0
M  V30 2043 H 343.451 1.63422 5.56814 0
M  V30 2044 H 343.73 4.63374 5.34244 0
M  V30 2045 H 344.722 3.44728 6.25838 0
M  V30 2046 H 342.888 4.96652 7.57263 0
M  V30 2047 H 342.839 4.80617 3.3614 0
M  V30 2048 H 343.521 -0.742702 0.199384 0
M  V30 2049 H 343.558 -2.20598 3.35588 0
M  V30 2050 H 343.659 -2.43518 1.58945 0
M  V30 2051 P 344.758 2.75334 8.47391 0
M  V30 2052 O 344.978 2.44619 9.90336 0
M  V30 2053 O 345.548 3.87776 7.92294 0
M  V30 2054 O 345.008 1.4459 7.59357 0
M  V30 2055 C 344.068 0.347653 7.69315 0
M  V30 2056 C 344.798 -0.96767 7.52806 0
M  V30 2057 O 345.008 -1.21055 6.10208 0
M  V30 2058 C 346.198 -1.04557 8.13408 0
M  V30 2059 O 346.588 -2.38311 8.41922 0
M  V30 2060 C 347.078 -0.491279 7.02284 0
M  V30 2061 C 346.368 -0.996264 5.77469 0
M  V30 2062 N 346.418 -0.0501916 4.62973 0
M  V30 2063 C 346.338 1.31969 4.65661 0
M  V30 2064 N 346.408 1.86649 3.48119 0
M  V30 2065 C 346.558 0.792089 2.62406 0
M  V30 2066 C 346.688 0.705684 1.2207 0
M  V30 2067 N 346.698 1.76207 0.413762 0
M  V30 2068 N 346.808 -0.518981 0.685754 0
M  V30 2069 C 346.798 -1.57595 1.49174 0
M  V30 2070 N 346.678 -1.62909 2.80066 0
M  V30 2071 C 346.558 -0.388195 3.3073 0
M  V30 2072 H 343.58 0.374765 8.67791 0
M  V30 2073 H 343.308 0.443613 6.90476 0
M  V30 2074 H 344.176 -1.75559 7.96891 0
M  V30 2075 H 346.831 -1.94563 5.46818 0
M  V30 2076 H 347.111 0.608651 7.04676 0
M  V30 2077 H 348.102 -0.889796 7.09039 0
M  V30 2078 H 346.268 -0.433128 9.04664 0
M  V30 2079 H 346.227 1.89246 5.57664 0
M  V30 2080 H 346.608 2.71005 0.804694 0
M  V30 2081 H 346.797 1.63189 -0.603768 0
M  V30 2082 H 346.905 -2.53475 0.997614 0
M  V30 2083 P 348.138 -2.75334 8.47391 0
M  V30 2084 O 348.358 -3.84128 9.44797 0
M  V30 2085 O 348.928 -1.51947 8.68712 0
M  V30 2086 O 348.388 -3.29363 6.99321 0
M  V30 2087 C 347.448 -4.24011 6.4274 0
M  V30 2088 C 348.178 -5.20775 5.52155 0
M  V30 2089 O 348.388 -4.56534 4.22446 0
M  V30 2090 C 349.578 -5.62629 5.96531 0
M  V30 2091 O 349.968 -6.87667 5.41053 0
M  V30 2092 C 350.458 -4.52537 5.39283 0
M  V30 2093 C 349.748 -4.20027 4.08623 0
M  V30 2094 N 349.798 -2.76189 3.71603 0
M  V30 2095 H 346.959 -4.797 7.24003 0
M  V30 2096 H 346.689 -3.69856 5.84513 0
M  V30 2097 H 347.556 -6.10356 5.41441 0
M  V30 2098 P 351.518 -7.20834 5.23717 0
M  V30 2099 O 351.738 -8.66104 5.38572 0
M  V30 2100 O 352.308 -6.33544 6.1349 0
M  V30 2101 O 351.768 -6.7751 3.72168 0
M  V30 2102 C 350.828 -7.20825 2.7076 0
M  V30 2103 C 351.558 -7.45864 1.40599 0
M  V30 2104 O 351.768 -6.17651 0.734225 0
M  V30 2105 C 352.958 -8.05808 1.51899 0
M  V30 2106 O 353.348 -8.74358 0.335205 0
M  V30 2107 C 353.838 -6.83093 1.70294 0
M  V30 2108 C 353.128 -5.79992 0.836974 0
M  V30 2109 N 353.178 -4.41864 1.38293 0
M  V30 2110 H 350.339 -8.13644 3.0377 0
M  V30 2111 H 350.069 -6.42788 2.55485 0
M  V30 2112 H 350.936 -8.12039 0.792769 0
M  V30 2113 P 354.898 -8.91 -1.65478e-12 0
M  V30 2114 O 355.118 -10.1726 -0.733694 0
M  V30 2115 O 355.688 -8.73148 1.23936 0
M  V30 2116 O 355.148 -7.66872 -0.971405 0
M  V30 2117 C 354.208 -7.42309 -2.04641 0
M  V30 2118 C 354.938 -6.86059 -3.24661 0
M  V30 2119 O 355.148 -5.42847 -3.03646 0
M  V30 2120 C 356.338 -7.41196 -3.50753 0
M  V30 2121 O 356.728 -7.27073 -4.86816 0
M  V30 2122 C 357.218 -6.5273 -2.63741 0
M  V30 2123 C 356.508 -5.1842 -2.73198 0
M  V30 2124 N 356.558 -4.38762 -1.4784 0
M  V30 2125 H 353.719 -8.36803 -2.32493 0
M  V30 2126 H 353.449 -6.70197 -1.71129 0
M  V30 2127 H 354.316 -7.03551 -4.13168 0
M  V30 2128 P 358.278 -7.20834 -5.23717 0
M  V30 2129 O 358.498 -7.79853 -6.57286 0
M  V30 2130 O 359.068 -7.79239 -4.12957 0
M  V30 2131 O 358.528 -5.63315 -5.29344 0
M  V30 2132 C 357.588 -4.80255 -6.01876 0
M  V30 2133 C 358.318 -3.64202 -6.65911 0
M  V30 2134 O 358.528 -2.60694 -5.64732 0
M  V30 2135 C 359.718 -3.93473 -7.1943 0
M  V30 2136 O 360.108 -3.02071 -8.21205 0
M  V30 2137 C 360.598 -3.73047 -5.97036 0
M  V30 2138 C 359.888 -2.58828 -5.25741 0
M  V30 2139 N 359.938 -2.68068 -3.77503 0
M  V30 2140 H 357.099 -5.40332 -6.79951 0
M  V30 2141 H 356.829 -4.41613 -5.32378 0
M  V30 2142 H 357.696 -3.26331 -7.47797 0
M  V30 2143 P 361.658 -2.75334 -8.47391 0
M  V30 2144 O 361.878 -2.44571 -9.90142 0
M  V30 2145 O 362.448 -3.87688 -7.92115 0
M  V30 2146 O 361.908 -1.4459 -7.59357 0
M  V30 2147 C 360.968 -0.347608 -7.69215 0
M  V30 2148 C 361.698 0.96767 -7.52806 0
M  V30 2149 O 361.908 1.21036 -6.1011 0
M  V30 2150 C 363.098 1.04544 -8.13308 0
M  V30 2151 O 363.488 2.38311 -8.41922 0
M  V30 2152 C 363.978 0.491279 -7.02284 0
M  V30 2153 C 363.268 0.996264 -5.77469 0
M  V30 2154 N 363.318 0.0501916 -4.62973 0
M  V30 2155 H 360.479 -0.374722 -8.67691 0
M  V30 2156 H 360.209 -0.443485 -6.90277 0
M  V30 2157 H 361.076 1.75537 -7.96793 0
M  V30 2158 P 365.038 2.75334 -8.47391 0
M  V30 2159 O 365.258 3.84166 -9.4489 0
M  V30 2160 O 365.828 1.51964 -8.6881 0
M  V30 2161 O 365.288 3.29363 -6.99321 0
M  V30 2162 C 364.348 4.23956 -6.42656 0
M  V30 2163 C 365.078 5.20775 -5.52155 0
M  V30 2164 O 365.288 4.56534 -4.22446 0
M  V30 2165 C 366.478 5.62629 -5.96531 0
M  V30 2166 O 366.868 6.87667 -5.41053 0
M  V30 2167 C 367.358 4.52537 -5.39283 0
M  V30 2168 C 366.648 4.20027 -4.08623 0
M  V30 2169 N 366.698 2.7613 -3.71522 0
M  V30 2170 C 366.848 2.45612 -2.37989 0
M  V30 2171 O 366.938 3.30919 -1.51621 0
M  V30 2172 N 366.888 1.10684 -2.08435 0
M  V30 2173 C 366.798 0.0690084 -2.9792 0
M  V30 2174 C 366.648 0.481522 -4.35345 0
M  V30 2175 C 366.598 1.78906 -4.67968 0
M  V30 2176 H 363.858 4.797 -7.24003 0
M  V30 2177 H 363.589 3.69802 -5.84429 0
M  V30 2178 H 364.456 6.10356 -5.41441 0
M  V30 2179 H 367.111 4.78651 -3.27911 0
M  V30 2180 H 367.39 3.64957 -6.05871 0
M  V30 2181 H 368.382 4.8868 -5.2125 0
M  V30 2182 H 366.548 5.66726 -7.06352 0
M  V30 2183 H 366.477 2.07737 -5.72367 0
M  V30 2184 P 368.418 7.20834 -5.23717 0
M  V30 2185 O 368.638 8.66104 -5.38572 0
M  V30 2186 O 369.208 6.33544 -6.1349 0
M  V30 2187 O 368.668 6.7751 -3.72168 0
M  V30 2188 C 367.728 7.20825 -2.7076 0
M  V30 2189 C 368.458 7.45864 -1.40599 0
M  V30 2190 O 368.668 6.17651 -0.734225 0
M  V30 2191 C 369.858 8.05808 -1.51899 0
M  V30 2192 O 370.248 8.74358 -0.335205 0
M  V30 2193 C 370.738 6.83093 -1.70294 0
M  V30 2194 C 370.028 5.79992 -0.836974 0
M  V30 2195 N 370.078 4.41864 -1.38293 0
M  V30 2196 C 369.998 3.99538 -2.69438 0
M  V30 2197 N 370.078 2.69909 -2.84277 0
M  V30 2198 C 370.218 2.21719 -1.5408 0
M  V30 2199 C 370.348 0.891712 -1.06628 0
M  V30 2200 O 370.368 -0.161298 -1.70137 0
M  V30 2201 N 370.468 0.856846 0.334985 0
M  V30 2202 C 370.468 1.9641 1.15789 0
M  V30 2203 N 370.598 1.72708 2.46522 0
M  V30 2204 N 370.338 3.21165 0.713741 0
M  V30 2205 C 370.218 3.26797 -0.639748 0
M  V30 2206 H 367.239 8.13644 -3.0377 0
M  V30 2207 H 366.969 6.42788 -2.55485 0
M  V30 2208 H 367.836 8.12039 -0.792769 0
M  V30 2209 H 370.491 5.80061 0.166416 0
M  V30 2210 H 370.77 6.51287 -2.75604 0
M  V30 2211 H 371.762 7.01734 -1.34462 0
M  V30 2212 H 369.928 8.73674 -2.38337 0
M  V30 2213 H 369.879 4.68207 -3.53221 0
M  V30 2214 H 370.561 -0.0398818 0.767965 0
M  V30 2215 H 370.598 2.50995 3.13503 0
M  V30 2216 H 370.699 0.759148 2.80716 0
M  V30 2217 P 371.798 8.91 1.81197e-12 0
M  V30 2218 O 372.018 10.1726 0.733694 0
M  V30 2219 O 372.588 8.73148 -1.23936 0
M  V30 2220 O 372.048 7.66872 0.971405 0
M  V30 2221 C 371.108 7.42309 2.04641 0
M  V30 2222 C 371.838 6.86059 3.24661 0
M  V30 2223 O 372.048 5.42847 3.03646 0
M  V30 2224 C 373.238 7.41196 3.50753 0
M  V30 2225 O 373.628 7.27073 4.86816 0
M  V30 2226 C 374.118 6.5273 2.63741 0
M  V30 2227 C 373.408 5.1842 2.73198 0
M  V30 2228 N 373.458 4.38762 1.4784 0
M  V30 2229 H 370.619 8.36803 2.32493 0
M  V30 2230 H 370.349 6.70197 1.71129 0
M  V30 2231 H 371.216 7.03551 4.13168 0
M  V30 2232 P 375.178 7.20834 5.23717 0
M  V30 2233 O 375.398 7.80006 6.57415 0
M  V30 2234 O 375.968 7.79416 4.13051 0
M  V30 2235 O 375.428 5.63315 5.29344 0
M  V30 2236 C 374.488 4.80318 6.01954 0
M  V30 2237 C 375.218 3.64202 6.65911 0
M  V30 2238 O 375.428 2.60736 5.64823 0
M  V30 2239 C 376.618 3.93521 7.19518 0
M  V30 2240 O 377.008 3.02071 8.21205 0
M  V30 2241 C 377.498 3.73047 5.97036 0
M  V30 2242 C 376.788 2.58828 5.25741 0
M  V30 2243 N 376.838 2.68068 3.77503 0
M  V30 2244 H 374 5.40394 6.8003 0
M  V30 2245 H 373.728 4.41741 5.32532 0
M  V30 2246 H 374.596 3.26371 7.47889 0
M  V30 2247 H 377.251 1.64007 5.56746 0
M  V30 2248 H 377.531 4.63439 5.3432 0
M  V30 2249 H 378.522 3.44776 6.25925 0
M  V30 2250 H 376.688 4.96707 7.57347 0
M  V30 2251 P 378.558 2.75334 8.47391 0
M  V30 2252 O 378.778 2.44571 9.90142 0
M  V30 2253 O 379.348 3.87688 7.92115 0
M  V30 2254 O 378.808 1.4459 7.59357 0
M  V30 2255 C 377.868 0.347608 7.69215 0
M  V30 2256 C 378.598 -0.96767 7.52806 0
M  V30 2257 O 378.808 -1.21036 6.1011 0
M  V30 2258 C 379.998 -1.04544 8.13308 0
M  V30 2259 O 380.388 -2.38311 8.41922 0
M  V30 2260 C 380.878 -0.491279 7.02284 0
M  V30 2261 C 380.168 -0.996264 5.77469 0
M  V30 2262 N 380.218 -0.0501916 4.62973 0
M  V30 2263 H 377.379 0.374722 8.67691 0
M  V30 2264 H 377.109 0.443485 6.90277 0
M  V30 2265 H 377.976 -1.75537 7.96793 0
M  V30 2266 P 381.938 -2.75334 8.47391 0
M  V30 2267 O 382.158 -3.84128 9.44797 0
M  V30 2268 O 382.728 -1.51947 8.68712 0
M  V30 2269 O 382.188 -3.29363 6.99321 0
M  V30 2270 C 381.248 -4.24011 6.4274 0
M  V30 2271 C 381.978 -5.20775 5.52155 0
M  V30 2272 O 382.188 -4.56534 4.22446 0
M  V30 2273 C 383.378 -5.62629 5.96531 0
M  V30 2274 O 383.768 -6.87667 5.41053 0
M  V30 2275 C 384.258 -4.52537 5.39283 0
M  V30 2276 C 383.548 -4.20027 4.08623 0
M  V30 2277 N 383.598 -2.76189 3.71603 0
M  V30 2278 H 380.759 -4.797 7.24003 0
M  V30 2279 H 380.489 -3.69856 5.84513 0
M  V30 2280 H 381.356 -6.10356 5.41441 0
M  V30 2281 P 385.318 -7.20834 5.23717 0
M  V30 2282 O 385.538 -8.66104 5.38572 0
M  V30 2283 O 386.108 -6.33544 6.1349 0
M  V30 2284 O 385.568 -6.7751 3.72168 0
M  V30 2285 C 384.628 -7.20825 2.7076 0
M  V30 2286 C 385.358 -7.45864 1.40599 0
M  V30 2287 O 385.568 -6.17651 0.734225 0
M  V30 2288 C 386.758 -8.05808 1.51899 0
M  V30 2289 O 387.148 -8.74358 0.335205 0
M  V30 2290 C 387.638 -6.83093 1.70294 0
M  V30 2291 C 386.928 -5.79992 0.836974 0
M  V30 2292 N 386.978 -4.41864 1.38293 0
M  V30 2293 H 384.139 -8.13644 3.0377 0
M  V30 2294 H 383.869 -6.42788 2.55485 0
M  V30 2295 H 384.736 -8.12039 0.792769 0
M  V30 2296 P 388.698 -8.91 -1.96915e-12 0
M  V30 2297 O 388.918 -10.1726 -0.733694 0
M  V30 2298 O 389.488 -8.73148 1.23936 0
M  V30 2299 O 388.948 -7.66872 -0.971405 0
M  V30 2300 C 388.008 -7.42309 -2.04641 0
M  V30 2301 C 388.738 -6.86059 -3.24661 0
M  V30 2302 O 388.948 -5.42847 -3.03646 0
M  V30 2303 C 390.138 -7.41196 -3.50753 0
M  V30 2304 O 390.528 -7.27073 -4.86816 0
M  V30 2305 C 391.018 -6.5273 -2.63741 0
M  V30 2306 C 390.308 -5.1842 -2.73198 0
M  V30 2307 N 390.358 -4.38762 -1.4784 0
M  V30 2308 H 387.519 -8.36803 -2.32493 0
M  V30 2309 H 387.249 -6.70197 -1.71129 0
M  V30 2310 H 388.116 -7.03551 -4.13168 0
M  V30 2311 P 392.078 -7.20834 -5.23717 0
M  V30 2312 O 392.298 -7.79853 -6.57286 0
M  V30 2313 O 392.868 -7.79239 -4.12957 0
M  V30 2314 O 392.328 -5.63315 -5.29344 0
M  V30 2315 C 391.388 -4.80255 -6.01876 0
M  V30 2316 C 392.118 -3.64202 -6.65911 0
M  V30 2317 O 392.328 -2.60694 -5.64732 0
M  V30 2318 C 393.518 -3.93473 -7.1943 0
M  V30 2319 O 393.908 -3.02071 -8.21205 0
M  V30 2320 C 394.398 -3.73047 -5.97036 0
M  V30 2321 C 393.688 -2.58828 -5.25741 0
M  V30 2322 N 393.738 -2.68068 -3.77503 0
M  V30 2323 C 393.658 -3.79715 -2.96723 0
M  V30 2324 N 393.738 -3.5377 -1.68852 0
M  V30 2325 C 393.878 -2.15054 -1.63254 0
M  V30 2326 C 394.008 -1.28964 -0.518571 0
M  V30 2327 O 394.028 -1.56826 0.679156 0
M  V30 2328 N 394.128 0.0538097 -0.918425 0
M  V30 2329 C 394.128 0.494275 -2.22578 0
M  V30 2330 N 394.258 1.81086 -2.40434 0
M  V30 2331 N 393.998 -0.313645 -3.27502 0
M  V30 2332 C 393.878 -1.61829 -2.91033 0
M  V30 2333 H 390.899 -5.40332 -6.79951 0
M  V30 2334 H 390.629 -4.41613 -5.32378 0
M  V30 2335 H 391.496 -3.26331 -7.47797 0
M  V30 2336 H 394.151 -1.63422 -5.56814 0
M  V30 2337 H 394.43 -4.63374 -5.34244 0
M  V30 2338 H 395.422 -3.44728 -6.25838 0
M  V30 2339 H 393.588 -4.96652 -7.57263 0
M  V30 2340 H 393.539 -4.80617 -3.3614 0
M  V30 2341 H 394.221 0.742702 -0.199384 0
M  V30 2342 H 394.258 2.20598 -3.35588 0
M  V30 2343 H 394.359 2.43518 -1.58945 0
M  V30 2344 P 395.458 -2.75334 -8.47391 0
M  V30 2345 O 395.678 -2.44571 -9.90142 0
M  V30 2346 O 396.248 -3.87688 -7.92115 0
M  V30 2347 O 395.708 -1.4459 -7.59357 0
M  V30 2348 C 394.768 -0.347608 -7.69215 0
M  V30 2349 C 395.498 0.96767 -7.52806 0
M  V30 2350 O 395.708 1.21036 -6.1011 0
M  V30 2351 C 396.898 1.04544 -8.13308 0
M  V30 2352 O 397.288 2.38311 -8.41922 0
M  V30 2353 C 397.778 0.491279 -7.02284 0
M  V30 2354 C 397.068 0.996264 -5.77469 0
M  V30 2355 N 397.118 0.0501916 -4.62973 0
M  V30 2356 H 394.279 -0.374722 -8.67691 0
M  V30 2357 H 394.009 -0.443485 -6.90277 0
M  V30 2358 H 394.876 1.75537 -7.96793 0
M  V30 2359 P 398.838 2.75334 -8.47391 0
M  V30 2360 O 399.058 3.84128 -9.44797 0
M  V30 2361 O 399.628 1.51947 -8.68712 0
M  V30 2362 O 399.088 3.29363 -6.99321 0
M  V30 2363 C 398.148 4.24011 -6.4274 0
M  V30 2364 C 398.878 5.20775 -5.52155 0
M  V30 2365 O 399.088 4.56534 -4.22446 0
M  V30 2366 C 400.278 5.62629 -5.96531 0
M  V30 2367 O 400.668 6.87667 -5.41053 0
M  V30 2368 C 401.158 4.52537 -5.39283 0
M  V30 2369 C 400.448 4.20027 -4.08623 0
M  V30 2370 N 400.498 2.76189 -3.71603 0
M  V30 2371 C 400.418 1.64862 -4.52822 0
M  V30 2372 N 400.498 0.512671 -3.88633 0
M  V30 2373 C 400.638 0.888083 -2.54977 0
M  V30 2374 C 400.768 0.094668 -1.38677 0
M  V30 2375 O 400.788 -1.13053 -1.28163 0
M  V30 2376 N 400.888 0.890102 -0.232633 0
M  V30 2377 C 400.888 2.26958 -0.21772 0
M  V30 2378 N 401.018 2.84626 0.97925 0
M  V30 2379 N 400.758 3.0178 -1.31033 0
M  V30 2380 C 400.638 2.26781 -2.43843 0
M  V30 2381 H 397.659 4.797 -7.24003 0
M  V30 2382 H 397.389 3.69856 -5.84513 0
M  V30 2383 H 398.256 6.10356 -5.41441 0
M  V30 2384 H 400.911 4.79061 -3.27488 0
M  V30 2385 H 401.19 3.64906 -6.05785 0
M  V30 2386 H 402.182 4.8868 -5.2125 0
M  V30 2387 H 400.348 5.66726 -7.06352 0
M  V30 2388 H 400.299 1.71169 -5.60966 0
M  V30 2389 H 400.981 0.419134 0.644739 0
M  V30 2390 H 401.018 3.87332 1.06098 0
M  V30 2391 H 401.119 2.26417 1.82483 0
M  V30 2392 P 402.218 7.20834 -5.23717 0
M  V30 2393 O 402.438 8.66104 -5.38572 0
M  V30 2394 O 403.008 6.33544 -6.1349 0
M  V30 2395 O 402.468 6.7751 -3.72168 0
M  V30 2396 C 401.528 7.20825 -2.7076 0
M  V30 2397 C 402.258 7.45864 -1.40599 0
M  V30 2398 O 402.468 6.17651 -0.734225 0
M  V30 2399 C 403.658 8.05808 -1.51899 0
M  V30 2400 O 404.048 8.74358 -0.335205 0
M  V30 2401 C 404.538 6.83093 -1.70294 0
M  V30 2402 C 403.828 5.79992 -0.836974 0
M  V30 2403 N 403.878 4.41864 -1.38293 0
M  V30 2404 C 403.798 3.99538 -2.69438 0
M  V30 2405 N 403.878 2.69909 -2.84277 0
M  V30 2406 C 404.018 2.21719 -1.5408 0
M  V30 2407 C 404.148 0.891712 -1.06628 0
M  V30 2408 N 404.268 0.856846 0.334985 0
M  V30 2409 C 404.268 1.9641 1.15789 0
M  V30 2410 N 404.398 1.72708 2.46522 0
M  V30 2411 N 404.138 3.21165 0.713741 0
M  V30 2412 C 404.018 3.26797 -0.639748 0
M  V30 2413 H 401.039 8.13644 -3.0377 0
M  V30 2414 H 400.769 6.42788 -2.55485 0
M  V30 2415 H 401.636 8.12039 -0.792769 0
M  V30 2416 P 405.598 8.91 2.12633e-12 0
M  V30 2417 O 405.818 10.1726 0.733694 0
M  V30 2418 O 406.388 8.73148 -1.23936 0
M  V30 2419 O 405.848 7.66872 0.971405 0
M  V30 2420 C 404.908 7.42309 2.04641 0
M  V30 2421 C 405.638 6.86059 3.24661 0
M  V30 2422 O 405.848 5.42847 3.03646 0
M  V30 2423 C 407.038 7.41196 3.50753 0
M  V30 2424 O 407.428 7.27073 4.86816 0
M  V30 2425 C 407.918 6.5273 2.63741 0
M  V30 2426 C 407.208 5.1842 2.73198 0
M  V30 2427 N 407.258 4.38762 1.4784 0
M  V30 2428 H 404.419 8.36803 2.32493 0
M  V30 2429 H 404.149 6.70197 1.71129 0
M  V30 2430 H 405.016 7.03551 4.13168 0
M  V30 2431 P 408.978 7.20834 5.23717 0
M  V30 2432 O 409.198 7.7993 6.57351 0
M  V30 2433 O 409.768 7.79328 4.13004 0
M  V30 2434 O 409.228 5.63315 5.29344 0
M  V30 2435 C 408.288 4.80193 6.01798 0
M  V30 2436 C 409.018 3.64202 6.65911 0
M  V30 2437 O 409.228 2.60694 5.64732 0
M  V30 2438 C 410.418 3.93473 7.1943 0
M  V30 2439 O 410.808 3.02071 8.21205 0
M  V30 2440 C 411.298 3.73047 5.97036 0
M  V30 2441 C 410.588 2.58828 5.25741 0
M  V30 2442 N 410.638 2.6801 3.77422 0
M  V30 2443 C 410.788 1.50443 3.07133 0
M  V30 2444 O 410.878 0.419406 3.61576 0
M  V30 2445 N 410.828 1.6403 1.69677 0
M  V30 2446 C 410.738 2.81206 0.986255 0
M  V30 2447 O 410.788 2.80892 -0.249754 0
M  V30 2448 C 410.588 3.99158 1.80325 0
M  V30 2449 C 410.478 5.29309 1.06921 0
M  V30 2450 C 410.538 3.89779 3.1476 0
M  V30 2451 H 407.798 5.40332 6.79951 0
M  V30 2452 H 407.529 4.41549 5.32301 0
M  V30 2453 H 408.396 3.26331 7.47797 0
M  V30 2454 H 411.051 1.6395 5.56554 0
M  V30 2455 H 411.33 4.63439 5.3432 0
M  V30 2456 H 412.322 3.44728 6.25838 0
M  V30 2457 H 410.488 4.96652 7.57263 0
M  V30 2458 H 410.417 4.80159 3.74441 0
M  V30 2459 H 411.447 5.81459 1.09608 0
M  V30 2460 H 409.71 5.9187 1.54487 0
M  V30 2461 H 410.198 5.10095 0.0220288 0
M  V30 2462 H 410.934 0.798962 1.16664 0
M  V30 2463 P 412.358 2.75334 8.47391 0
M  V30 2464 O 412.578 2.44571 9.90142 0
M  V30 2465 O 413.148 3.87688 7.92115 0
M  V30 2466 O 412.608 1.4459 7.59357 0
M  V30 2467 C 411.668 0.347608 7.69215 0
M  V30 2468 C 412.398 -0.96767 7.52806 0
M  V30 2469 O 412.608 -1.21036 6.1011 0
M  V30 2470 C 413.798 -1.04544 8.13308 0
M  V30 2471 O 414.188 -2.38311 8.41922 0
M  V30 2472 C 414.678 -0.491279 7.02284 0
M  V30 2473 C 413.968 -0.996264 5.77469 0
M  V30 2474 N 414.018 -0.0501916 4.62973 0
M  V30 2475 H 411.179 0.374722 8.67691 0
M  V30 2476 H 410.909 0.443485 6.90277 0
M  V30 2477 H 411.776 -1.75537 7.96793 0
M  V30 2478 P 415.738 -2.75334 8.47391 0
M  V30 2479 O 415.958 -3.84128 9.44797 0
M  V30 2480 O 416.528 -1.51947 8.68712 0
M  V30 2481 O 415.988 -3.29363 6.99321 0
M  V30 2482 C 415.048 -4.24011 6.4274 0
M  V30 2483 C 415.778 -5.20775 5.52155 0
M  V30 2484 O 415.988 -4.56534 4.22446 0
M  V30 2485 C 417.178 -5.62629 5.96531 0
M  V30 2486 O 417.568 -6.87667 5.41053 0
M  V30 2487 C 418.058 -4.52537 5.39283 0
M  V30 2488 C 417.348 -4.20027 4.08623 0
M  V30 2489 N 417.398 -2.76189 3.71603 0
M  V30 2490 H 414.559 -4.797 7.24003 0
M  V30 2491 H 414.289 -3.69856 5.84513 0
M  V30 2492 H 415.156 -6.10356 5.41441 0
M  V30 2493 P 419.118 -7.20834 5.23717 0
M  V30 2494 O 419.338 -8.66189 5.38625 0
M  V30 2495 O 419.908 -6.33615 6.1356 0
M  V30 2496 O 419.368 -6.7751 3.72168 0
M  V30 2497 C 418.428 -7.20732 2.70725 0
M  V30 2498 C 419.158 -7.45864 1.40599 0
M  V30 2499 O 419.368 -6.17651 0.734225 0
M  V30 2500 C 420.558 -8.05808 1.51899 0
M  V30 2501 O 420.948 -8.74358 0.335205 0
M  V30 2502 C 421.438 -6.83093 1.70294 0
M  V30 2503 C 420.728 -5.79992 0.836974 0
M  V30 2504 N 420.778 -4.41769 1.38263 0
M  V30 2505 C 420.928 -3.38591 0.481702 0
M  V30 2506 O 421.018 -3.56839 -0.718452 0
M  V30 2507 N 420.968 -2.1206 1.03569 0
M  V30 2508 C 420.878 -1.80696 2.36966 0
M  V30 2509 O 420.928 -0.630473 2.74862 0
M  V30 2510 C 420.728 -2.94845 3.23898 0
M  V30 2511 C 420.618 -2.65253 4.70362 0
M  V30 2512 C 420.678 -4.19803 2.73435 0
M  V30 2513 H 417.938 -8.13644 3.0377 0
M  V30 2514 H 417.669 -6.42695 2.55448 0
M  V30 2515 H 418.536 -8.12039 0.792769 0
M  V30 2516 H 421.191 -5.79978 -0.160587 0
M  V30 2517 H 421.47 -6.51379 2.75643 0
M  V30 2518 H 422.462 -7.01734 1.34462 0
M  V30 2519 H 420.628 -8.73674 2.38337 0
M  V30 2520 H 420.557 -5.04492 3.4095 0
M  V30 2521 H 421.587 -2.83924 5.1913 0
M  V30 2522 H 419.85 -3.29824 5.15163 0
M  V30 2523 H 420.338 -1.59723 4.84449 0
M  V30 2524 H 421.074 -1.35644 0.399345 0
M  V30 2525 P 422.497 -8.91 -2.28351e-12 0
M  V30 2526 O 422.717 -10.1726 -0.733694 0
M  V30 2527 O 423.287 -8.73148 1.23936 0
M  V30 2528 O 422.747 -7.66872 -0.971405 0
M  V30 2529 C 421.807 -7.42309 -2.04641 0
M  V30 2530 C 422.537 -6.86059 -3.24661 0
M  V30 2531 O 422.747 -5.42847 -3.03646 0
M  V30 2532 C 423.937 -7.41196 -3.50753 0
M  V30 2533 O 424.327 -7.27073 -4.86816 0
M  V30 2534 C 424.817 -6.5273 -2.63741 0
M  V30 2535 C 424.107 -5.1842 -2.73198 0
M  V30 2536 N 424.157 -4.38762 -1.4784 0
M  V30 2537 H 421.318 -8.36803 -2.32493 0
M  V30 2538 H 421.048 -6.70197 -1.71129 0
M  V30 2539 H 421.915 -7.03551 -4.13168 0
M  V30 2540 P 425.877 -7.20834 -5.23717 0
M  V30 2541 O 426.097 -7.79853 -6.57286 0
M  V30 2542 O 426.667 -7.79239 -4.12957 0
M  V30 2543 O 426.127 -5.63315 -5.29344 0
M  V30 2544 C 425.187 -4.80255 -6.01876 0
M  V30 2545 C 425.917 -3.64202 -6.65911 0
M  V30 2546 O 426.127 -2.60694 -5.64732 0
M  V30 2547 C 427.317 -3.93473 -7.1943 0
M  V30 2548 O 427.707 -3.02071 -8.21205 0
M  V30 2549 C 428.197 -3.73047 -5.97036 0
M  V30 2550 C 427.487 -2.58828 -5.25741 0
M  V30 2551 N 427.537 -2.68068 -3.77503 0
M  V30 2552 H 424.698 -5.40332 -6.79951 0
M  V30 2553 H 424.428 -4.41613 -5.32378 0
M  V30 2554 H 425.295 -3.26331 -7.47797 0
M  V30 2555 P 429.257 -2.75334 -8.47391 0
M  V30 2556 O 429.477 -2.44595 -9.90239 0
M  V30 2557 O 430.047 -3.87732 -7.92204 0
M  V30 2558 O 429.507 -1.4459 -7.59357 0
M  V30 2559 C 428.567 -0.347563 -7.69115 0
M  V30 2560 C 429.297 0.96767 -7.52806 0
M  V30 2561 O 429.507 1.21036 -6.1011 0
M  V30 2562 C 430.697 1.04544 -8.13308 0
M  V30 2563 O 431.087 2.38311 -8.41922 0
M  V30 2564 C 431.577 0.491279 -7.02284 0
M  V30 2565 C 430.867 0.996264 -5.77469 0
M  V30 2566 N 430.917 0.0501808 -4.62873 0
M  V30 2567 C 431.067 0.588177 -3.36904 0
M  V30 2568 O 431.157 1.78598 -3.17173 0
M  V30 2569 N 431.107 -0.329694 -2.33686 0
M  V30 2570 C 431.017 -1.6953 -2.45079 0
M  V30 2571 C 430.867 -2.16933 -3.80505 0
M  V30 2572 C 430.817 -1.30326 -4.83752 0
M  V30 2573 H 428.077 -0.374722 -8.67691 0
M  V30 2574 H 427.808 -0.443421 -6.90177 0
M  V30 2575 H 428.675 1.75537 -7.96793 0
M  V30 2576 H 431.33 1.94496 -5.46629 0
M  V30 2577 H 431.609 -0.608651 -7.04676 0
M  V30 2578 H 432.601 0.889672 -7.08939 0
M  V30 2579 H 430.767 0.43308 -9.04564 0
M  V30 2580 H 430.696 -1.68366 -5.8516 0
M  V30 2581 P 432.637 2.75334 -8.47391 0
M  V30 2582 O 432.857 3.84128 -9.44797 0
M  V30 2583 O 433.427 1.51947 -8.68712 0
M  V30 2584 O 432.887 3.29363 -6.99321 0
M  V30 2585 C 431.947 4.24011 -6.4274 0
M  V30 2586 C 432.677 5.20775 -5.52155 0
M  V30 2587 O 432.887 4.56534 -4.22446 0
M  V30 2588 C 434.077 5.62629 -5.96531 0
M  V30 2589 O 434.467 6.87667 -5.41053 0
M  V30 2590 C 434.957 4.52537 -5.39283 0
M  V30 2591 C 434.247 4.20027 -4.08623 0
M  V30 2592 N 434.297 2.76189 -3.71603 0
M  V30 2593 H 431.458 4.797 -7.24003 0
M  V30 2594 H 431.188 3.69856 -5.84513 0
M  V30 2595 H 432.055 6.10356 -5.41441 0
M  V30 2596 P 436.017 7.20834 -5.23717 0
M  V30 2597 O 436.237 8.66104 -5.38572 0
M  V30 2598 O 436.807 6.33544 -6.1349 0
M  V30 2599 O 436.267 6.7751 -3.72168 0
M  V30 2600 C 435.327 7.20825 -2.7076 0
M  V30 2601 C 436.057 7.45864 -1.40599 0
M  V30 2602 O 436.267 6.17651 -0.734225 0
M  V30 2603 C 437.457 8.05808 -1.51899 0
M  V30 2604 O 437.847 8.74358 -0.335205 0
M  V30 2605 C 438.337 6.83093 -1.70294 0
M  V30 2606 C 437.627 5.79992 -0.836974 0
M  V30 2607 N 437.677 4.41864 -1.38293 0
M  V30 2608 C 437.597 3.99538 -2.69438 0
M  V30 2609 N 437.677 2.69909 -2.84277 0
M  V30 2610 C 437.817 2.21719 -1.5408 0
M  V30 2611 C 437.947 0.891712 -1.06628 0
M  V30 2612 O 437.967 -0.161298 -1.70137 0
M  V30 2613 N 438.067 0.856846 0.334985 0
M  V30 2614 C 438.067 1.9641 1.15789 0
M  V30 2615 N 438.197 1.72708 2.46522 0
M  V30 2616 N 437.937 3.21165 0.713741 0
M  V30 2617 C 437.817 3.26797 -0.639748 0
M  V30 2618 H 434.838 8.13644 -3.0377 0
M  V30 2619 H 434.568 6.42788 -2.55485 0
M  V30 2620 H 435.435 8.12039 -0.792769 0
M  V30 2621 H 438.09 5.80061 0.166416 0
M  V30 2622 H 438.369 6.51287 -2.75604 0
M  V30 2623 H 439.361 7.01734 -1.34462 0
M  V30 2624 H 437.527 8.73674 -2.38337 0
M  V30 2625 H 437.478 4.68207 -3.53221 0
M  V30 2626 H 438.16 -0.0398818 0.767965 0
M  V30 2627 H 438.197 2.50995 3.13503 0
M  V30 2628 H 438.298 0.759148 2.80716 0
M  V30 2629 P 439.397 8.91 2.44069e-12 0
M  V30 2630 O 439.617 10.1726 0.733694 0
M  V30 2631 O 440.187 8.73148 -1.23936 0
M  V30 2632 O 439.647 7.66872 0.971405 0
M  V30 2633 C 438.707 7.42309 2.04641 0
M  V30 2634 C 439.437 6.86059 3.24661 0
M  V30 2635 O 439.647 5.42847 3.03646 0
M  V30 2636 C 440.837 7.41196 3.50753 0
M  V30 2637 O 441.227 7.27073 4.86816 0
M  V30 2638 C 441.717 6.5273 2.63741 0
M  V30 2639 C 441.007 5.1842 2.73198 0
M  V30 2640 N 441.057 4.38762 1.4784 0
M  V30 2641 H 438.218 8.36803 2.32493 0
M  V30 2642 H 437.948 6.70197 1.71129 0
M  V30 2643 H 438.815 7.03551 4.13168 0
M  V30 2644 P 442.777 7.20834 5.23717 0
M  V30 2645 O 442.997 7.79853 6.57286 0
M  V30 2646 O 443.567 7.79239 4.12957 0
M  V30 2647 O 443.027 5.63315 5.29344 0
M  V30 2648 C 442.087 4.80255 6.01876 0
M  V30 2649 C 442.817 3.64202 6.65911 0
M  V30 2650 O 443.027 2.60694 5.64732 0
M  V30 2651 C 444.217 3.93473 7.1943 0
M  V30 2652 O 444.607 3.02071 8.21205 0
M  V30 2653 C 445.097 3.73047 5.97036 0
M  V30 2654 C 444.387 2.58828 5.25741 0
M  V30 2655 N 444.437 2.68068 3.77503 0
M  V30 2656 H 441.598 5.40332 6.79951 0
M  V30 2657 H 441.328 4.41613 5.32378 0
M  V30 2658 H 442.195 3.26331 7.47797 0
M  V30 2659 P 446.157 2.75334 8.47391 0
M  V30 2660 O 446.377 2.44571 9.90142 0
M  V30 2661 O 446.947 3.87688 7.92115 0
M  V30 2662 O 446.407 1.4459 7.59357 0
M  V30 2663 C 445.467 0.347608 7.69215 0
M  V30 2664 C 446.197 -0.96767 7.52806 0
M  V30 2665 O 446.407 -1.21036 6.1011 0
M  V30 2666 C 447.597 -1.04544 8.13308 0
M  V30 2667 O 447.987 -2.38311 8.41922 0
M  V30 2668 C 448.477 -0.491279 7.02284 0
M  V30 2669 C 447.767 -0.996264 5.77469 0
M  V30 2670 N 447.817 -0.0501916 4.62973 0
M  V30 2671 H 444.978 0.374722 8.67691 0
M  V30 2672 H 444.708 0.443485 6.90277 0
M  V30 2673 H 445.575 -1.75537 7.96793 0
M  V30 2674 P 449.537 -2.75334 8.47391 0
M  V30 2675 O 449.757 -3.84166 9.4489 0
M  V30 2676 O 450.327 -1.51964 8.6881 0
M  V30 2677 O 449.787 -3.29363 6.99321 0
M  V30 2678 C 448.847 -4.23956 6.42656 0
M  V30 2679 C 449.577 -5.20775 5.52155 0
M  V30 2680 O 449.787 -4.56534 4.22446 0
M  V30 2681 C 450.977 -5.62629 5.96531 0
M  V30 2682 O 451.367 -6.87667 5.41053 0
M  V30 2683 C 451.857 -4.52537 5.39283 0
M  V30 2684 C 451.147 -4.20027 4.08623 0
M  V30 2685 N 451.197 -2.7613 3.71522 0
M  V30 2686 C 451.347 -2.45612 2.37989 0
M  V30 2687 O 451.437 -3.30919 1.51621 0
M  V30 2688 N 451.387 -1.10684 2.08435 0
M  V30 2689 C 451.297 -0.0690084 2.9792 0
M  V30 2690 C 451.147 -0.481522 4.35345 0
M  V30 2691 C 451.097 -1.78906 4.67968 0
M  V30 2692 H 448.357 -4.797 7.24003 0
M  V30 2693 H 448.088 -3.69802 5.84429 0
M  V30 2694 H 448.955 -6.10356 5.41441 0
M  V30 2695 H 451.61 -4.78651 3.27911 0
M  V30 2696 H 451.889 -3.64957 6.05871 0
M  V30 2697 H 452.881 -4.8868 5.2125 0
M  V30 2698 H 451.047 -5.66726 7.06352 0
M  V30 2699 H 450.976 -2.07737 5.72367 0
M  V30 2700 P 452.917 -7.20834 5.23717 0
M  V30 2701 O 453.137 -8.66104 5.38572 0
M  V30 2702 O 453.707 -6.33544 6.1349 0
M  V30 2703 O 453.167 -6.7751 3.72168 0
M  V30 2704 C 452.227 -7.20825 2.7076 0
M  V30 2705 C 452.957 -7.45864 1.40599 0
M  V30 2706 O 453.167 -6.17651 0.734225 0
M  V30 2707 C 454.357 -8.05808 1.51899 0
M  V30 2708 O 454.747 -8.74358 0.335205 0
M  V30 2709 C 455.237 -6.83093 1.70294 0
M  V30 2710 C 454.527 -5.79992 0.836974 0
M  V30 2711 N 454.577 -4.41864 1.38293 0
M  V30 2712 H 451.738 -8.13644 3.0377 0
M  V30 2713 H 451.468 -6.42788 2.55485 0
M  V30 2714 H 452.335 -8.12039 0.792769 0
M  V30 2715 P 456.297 -8.91 -2.59788e-12 0
M  V30 2716 O 456.517 -10.1746 -0.733838 0
M  V30 2717 O 457.087 -8.73346 1.23964 0
M  V30 2718 O 456.547 -7.66872 -0.971405 0
M  V30 2719 C 455.607 -7.42405 -2.04668 0
M  V30 2720 C 456.337 -6.86059 -3.24661 0
M  V30 2721 O 456.547 -5.42934 -3.03695 0
M  V30 2722 C 457.737 -7.41287 -3.50796 0
M  V30 2723 O 458.127 -7.27073 -4.86816 0
M  V30 2724 C 458.617 -6.5273 -2.63741 0
M  V30 2725 C 457.907 -5.1842 -2.73198 0
M  V30 2726 N 457.957 -4.38762 -1.4784 0
M  V30 2727 H 455.119 -8.36899 -2.3252 0
M  V30 2728 H 454.847 -6.70391 -1.71179 0
M  V30 2729 H 455.715 -7.03638 -4.13219 0
M  V30 2730 H 458.37 -4.59931 -3.54016 0
M  V30 2731 H 458.65 -6.88995 -1.59871 0
M  V30 2732 H 459.641 -6.4684 -3.0373 0
M  V30 2733 H 457.807 -8.47002 -3.20749 0
M  V30 2734 P 459.677 -7.20834 -5.23717 0
M  V30 2735 O 459.897 -7.80006 -6.57415 0
M  V30 2736 O 460.467 -7.79416 -4.13051 0
M  V30 2737 O 459.927 -5.63315 -5.29344 0
M  V30 2738 C 458.987 -4.80318 -6.01954 0
M  V30 2739 C 459.717 -3.64202 -6.65911 0
M  V30 2740 O 459.927 -2.60736 -5.64823 0
M  V30 2741 C 461.117 -3.93521 -7.19518 0
M  V30 2742 O 461.507 -3.02071 -8.21205 0
M  V30 2743 C 461.997 -3.73047 -5.97036 0
M  V30 2744 C 461.287 -2.58828 -5.25741 0
M  V30 2745 N 461.337 -2.68068 -3.77503 0
M  V30 2746 C 461.257 -3.80474 -2.99159 0
M  V30 2747 N 461.327 -3.55622 -1.71925 0
M  V30 2748 C 461.477 -2.1832 -1.65733 0
M  V30 2749 C 461.607 -1.28842 -0.572777 0
M  V30 2750 N 461.617 -1.66875 0.70098 0
M  V30 2751 N 461.727 0.016788 -0.859836 0
M  V30 2752 C 461.717 0.398145 -2.13316 0
M  V30 2753 N 461.597 -0.328224 -3.22333 0
M  V30 2754 C 461.477 -1.62992 -2.90383 0
M  V30 2755 H 458.499 -5.40394 -6.8003 0
M  V30 2756 H 458.227 -4.41741 -5.32532 0
M  V30 2757 H 459.095 -3.26371 -7.47889 0
M  V30 2758 H 461.75 -1.64007 -5.56746 0
M  V30 2759 H 462.03 -4.63439 -5.3432 0
M  V30 2760 H 463.021 -3.44776 -6.25925 0
M  V30 2761 H 461.187 -4.96707 -7.57347 0
M  V30 2762 H 461.146 -4.8089 -3.39924 0
M  V30 2763 H 461.527 -2.66547 0.941919 0
M  V30 2764 H 461.716 -0.965341 1.44766 0
M  V30 2765 H 461.824 1.46427 -2.29697 0
M  V30 2766 P 463.057 -2.75334 -8.47391 0
M  V30 2767 O 463.277 -2.44571 -9.90142 0
M  V30 2768 O 463.847 -3.87688 -7.92115 0
M  V30 2769 O 463.307 -1.4459 -7.59357 0
M  V30 2770 C 462.367 -0.347608 -7.69215 0
M  V30 2771 C 463.097 0.96767 -7.52806 0
M  V30 2772 O 463.307 1.21036 -6.1011 0
M  V30 2773 C 464.497 1.04544 -8.13308 0
M  V30 2774 O 464.887 2.38311 -8.41922 0
M  V30 2775 C 465.377 0.491279 -7.02284 0
M  V30 2776 C 464.667 0.996264 -5.77469 0
M  V30 2777 N 464.717 0.0501916 -4.62973 0
M  V30 2778 H 461.878 -0.374722 -8.67691 0
M  V30 2779 H 461.608 -0.443485 -6.90277 0
M  V30 2780 H 462.475 1.75537 -7.96793 0
M  V30 2781 P 466.437 2.75334 -8.47391 0
M  V30 2782 O 466.657 3.84128 -9.44797 0
M  V30 2783 O 467.227 1.51947 -8.68712 0
M  V30 2784 O 466.687 3.29363 -6.99321 0
M  V30 2785 C 465.747 4.24011 -6.4274 0
M  V30 2786 C 466.477 5.20775 -5.52155 0
M  V30 2787 O 466.687 4.56534 -4.22446 0
M  V30 2788 C 467.877 5.62629 -5.96531 0
M  V30 2789 O 468.267 6.87667 -5.41053 0
M  V30 2790 C 468.757 4.52537 -5.39283 0
M  V30 2791 C 468.047 4.20027 -4.08623 0
M  V30 2792 N 468.097 2.76189 -3.71603 0
M  V30 2793 H 465.258 4.797 -7.24003 0
M  V30 2794 H 464.988 3.69856 -5.84513 0
M  V30 2795 H 465.855 6.10356 -5.41441 0
M  V30 2796 P 469.817 7.20834 -5.23717 0
M  V30 2797 O 470.037 8.66104 -5.38572 0
M  V30 2798 O 470.607 6.33544 -6.1349 0
M  V30 2799 O 470.067 6.7751 -3.72168 0
M  V30 2800 C 469.127 7.20825 -2.7076 0
M  V30 2801 C 469.857 7.45864 -1.40599 0
M  V30 2802 O 470.067 6.17651 -0.734225 0
M  V30 2803 C 471.257 8.05808 -1.51899 0
M  V30 2804 O 471.647 8.74358 -0.335205 0
M  V30 2805 C 472.137 6.83093 -1.70294 0
M  V30 2806 C 471.427 5.79992 -0.836974 0
M  V30 2807 N 471.477 4.41864 -1.38293 0
M  V30 2808 H 468.638 8.13644 -3.0377 0
M  V30 2809 H 468.368 6.42788 -2.55485 0
M  V30 2810 H 469.235 8.12039 -0.792769 0
M  V30 2811 P 473.197 8.91 2.75506e-12 0
M  V30 2812 O 473.417 10.1726 0.733694 0
M  V30 2813 O 473.987 8.73148 -1.23936 0
M  V30 2814 O 473.447 7.66872 0.971405 0
M  V30 2815 C 472.507 7.42309 2.04641 0
M  V30 2816 C 473.237 6.86059 3.24661 0
M  V30 2817 O 473.447 5.42847 3.03646 0
M  V30 2818 C 474.637 7.41196 3.50753 0
M  V30 2819 O 475.027 7.27073 4.86816 0
M  V30 2820 C 475.517 6.5273 2.63741 0
M  V30 2821 C 474.807 5.1842 2.73198 0
M  V30 2822 N 474.857 4.38762 1.4784 0
M  V30 2823 H 472.018 8.36803 2.32493 0
M  V30 2824 H 471.748 6.70197 1.71129 0
M  V30 2825 H 472.615 7.03551 4.13168 0
M  V30 2826 P 476.577 7.20834 5.23717 0
M  V30 2827 O 476.797 7.79853 6.57286 0
M  V30 2828 O 477.367 7.79239 4.12957 0
M  V30 2829 O 476.827 5.63315 5.29344 0
M  V30 2830 C 475.887 4.80255 6.01876 0
M  V30 2831 C 476.617 3.64202 6.65911 0
M  V30 2832 O 476.827 2.60694 5.64732 0
M  V30 2833 C 478.017 3.93473 7.1943 0
M  V30 2834 O 478.407 3.02071 8.21205 0
M  V30 2835 C 478.897 3.73047 5.97036 0
M  V30 2836 C 478.187 2.58828 5.25741 0
M  V30 2837 N 478.237 2.68068 3.77503 0
M  V30 2838 C 478.157 3.79715 2.96723 0
M  V30 2839 N 478.237 3.5377 1.68852 0
M  V30 2840 C 478.377 2.15054 1.63254 0
M  V30 2841 C 478.507 1.28964 0.518571 0
M  V30 2842 O 478.527 1.56826 -0.679156 0
M  V30 2843 N 478.627 -0.0538097 0.918425 0
M  V30 2844 C 478.627 -0.494275 2.22578 0
M  V30 2845 N 478.757 -1.81086 2.40434 0
M  V30 2846 N 478.497 0.313645 3.27502 0
M  V30 2847 C 478.377 1.61829 2.91033 0
M  V30 2848 H 475.398 5.40332 6.79951 0
M  V30 2849 H 475.128 4.41613 5.32378 0
M  V30 2850 H 475.995 3.26331 7.47797 0
M  V30 2851 H 478.65 1.63422 5.56814 0
M  V30 2852 H 478.929 4.63374 5.34244 0
M  V30 2853 H 479.921 3.44728 6.25838 0
M  V30 2854 H 478.087 4.96652 7.57263 0
M  V30 2855 H 478.038 4.80617 3.3614 0
M  V30 2856 H 478.72 -0.742702 0.199384 0
M  V30 2857 H 478.757 -2.20598 3.35588 0
M  V30 2858 H 478.858 -2.43518 1.58945 0
M  V30 2859 P 479.957 2.75334 8.47391 0
M  V30 2860 O 480.177 2.44571 9.90142 0
M  V30 2861 O 480.747 3.87688 7.92115 0
M  V30 2862 O 480.207 1.4459 7.59357 0
M  V30 2863 C 479.267 0.347608 7.69215 0
M  V30 2864 C 479.997 -0.96767 7.52806 0
M  V30 2865 O 480.207 -1.21036 6.1011 0
M  V30 2866 C 481.397 -1.04544 8.13308 0
M  V30 2867 O 481.787 -2.38311 8.41922 0
M  V30 2868 C 482.277 -0.491279 7.02284 0
M  V30 2869 C 481.567 -0.996264 5.77469 0
M  V30 2870 N 481.617 -0.0501916 4.62973 0
M  V30 2871 H 478.778 0.374722 8.67691 0
M  V30 2872 H 478.508 0.443485 6.90277 0
M  V30 2873 H 479.375 -1.75537 7.96793 0
M  V30 2874 P 483.337 -2.75334 8.47391 0
M  V30 2875 O 483.557 -3.84128 9.44797 0
M  V30 2876 O 484.127 -1.51947 8.68712 0
M  V30 2877 O 483.587 -3.29363 6.99321 0
M  V30 2878 C 482.647 -4.24011 6.4274 0
M  V30 2879 C 483.377 -5.20775 5.52155 0
M  V30 2880 O 483.587 -4.56534 4.22446 0
M  V30 2881 C 484.777 -5.62629 5.96531 0
M  V30 2882 O 485.167 -6.87667 5.41053 0
M  V30 2883 C 485.657 -4.52537 5.39283 0
M  V30 2884 C 484.947 -4.20027 4.08623 0
M  V30 2885 N 484.997 -2.76189 3.71603 0
M  V30 2886 C 484.917 -1.64862 4.52822 0
M  V30 2887 N 484.997 -0.512671 3.88633 0
M  V30 2888 C 485.137 -0.888083 2.54977 0
M  V30 2889 C 485.267 -0.094668 1.38677 0
M  V30 2890 O 485.287 1.13053 1.28163 0
M  V30 2891 N 485.387 -0.890102 0.232633 0
M  V30 2892 C 485.387 -2.26958 0.21772 0
M  V30 2893 N 485.517 -2.84626 -0.97925 0
M  V30 2894 N 485.257 -3.0178 1.31033 0
M  V30 2895 C 485.137 -2.26781 2.43843 0
M  V30 2896 H 482.158 -4.797 7.24003 0
M  V30 2897 H 481.888 -3.69856 5.84513 0
M  V30 2898 H 482.755 -6.10356 5.41441 0
M  V30 2899 H 485.41 -4.79061 3.27488 0
M  V30 2900 H 485.689 -3.64906 6.05785 0
M  V30 2901 H 486.681 -4.8868 5.2125 0
M  V30 2902 H 484.847 -5.66726 7.06352 0
M  V30 2903 H 484.798 -1.71169 5.60966 0
M  V30 2904 H 485.48 -0.419134 -0.644739 0
M  V30 2905 H 485.517 -3.87332 -1.06098 0
M  V30 2906 H 485.618 -2.26417 -1.82483 0
M  V30 2907 P 486.717 -7.20834 5.23717 0
M  V30 2908 O 486.937 -8.66104 5.38572 0
M  V30 2909 O 487.507 -6.33544 6.1349 0
M  V30 2910 O 486.967 -6.7751 3.72168 0
M  V30 2911 C 486.027 -7.20825 2.7076 0
M  V30 2912 C 486.757 -7.45864 1.40599 0
M  V30 2913 O 486.967 -6.17651 0.734225 0
M  V30 2914 C 488.157 -8.05808 1.51899 0
M  V30 2915 O 488.547 -8.74358 0.335205 0
M  V30 2916 C 489.037 -6.83093 1.70294 0
M  V30 2917 C 488.327 -5.79992 0.836974 0
M  V30 2918 N 488.377 -4.41864 1.38293 0
M  V30 2919 H 485.538 -8.13644 3.0377 0
M  V30 2920 H 485.268 -6.42788 2.55485 0
M  V30 2921 H 486.135 -8.12039 0.792769 0
M  V30 2922 P 490.097 -8.91 -2.91224e-12 0
M  V30 2923 O 490.317 -10.1746 -0.733838 0
M  V30 2924 O 490.887 -8.73346 1.23964 0
M  V30 2925 O 490.347 -7.66872 -0.971405 0
M  V30 2926 C 489.407 -7.42405 -2.04668 0
M  V30 2927 C 490.137 -6.86059 -3.24661 0
M  V30 2928 O 490.347 -5.42934 -3.03695 0
M  V30 2929 C 491.537 -7.41287 -3.50796 0
M  V30 2930 O 491.927 -7.27073 -4.86816 0
M  V30 2931 C 492.417 -6.5273 -2.63741 0
M  V30 2932 C 491.707 -5.1842 -2.73198 0
M  V30 2933 N 491.757 -4.38762 -1.4784 0
M  V30 2934 C 491.677 -4.83651 -0.183876 0
M  V30 2935 N 491.747 -3.88759 0.699393 0
M  V30 2936 C 491.897 -2.7404 -0.0575568 0
M  V30 2937 C 492.027 -1.37902 0.293928 0
M  V30 2938 N 492.037 -0.938021 1.54797 0
M  V30 2939 N 492.147 -0.491817 -0.70549 0
M  V30 2940 C 492.137 -0.931735 -1.95979 0
M  V30 2941 N 492.017 -2.16017 -2.41481 0
M  V30 2942 C 491.897 -3.02547 -1.39121 0
M  V30 2943 H 488.919 -8.36899 -2.3252 0
M  V30 2944 H 488.647 -6.70391 -1.71179 0
M  V30 2945 H 489.515 -7.03638 -4.13219 0
M  V30 2946 H 492.17 -4.59931 -3.54016 0
M  V30 2947 H 492.45 -6.88995 -1.59871 0
M  V30 2948 H 493.441 -6.4684 -3.0373 0
M  V30 2949 H 491.607 -8.47002 -3.20749 0
M  V30 2950 H 491.566 -5.8885 0.0765548 0
M  V30 2951 H 491.947 -1.60276 2.32875 0
M  V30 2952 H 492.136 0.0699355 1.73859 0
M  V30 2953 H 492.244 -0.165507 -2.71897 0
M  V30 2954 P 493.477 -7.20834 -5.23717 0
M  V30 2955 O 493.697 -7.80006 -6.57415 0
M  V30 2956 O 494.267 -7.79416 -4.13051 0
M  V30 2957 O 493.727 -5.63315 -5.29344 0
M  V30 2958 C 492.787 -4.80318 -6.01954 0
M  V30 2959 C 493.517 -3.64202 -6.65911 0
M  V30 2960 O 493.727 -2.60736 -5.64823 0
M  V30 2961 C 494.917 -3.93521 -7.19518 0
M  V30 2962 O 495.307 -3.02071 -8.21205 0
M  V30 2963 C 495.797 -3.73047 -5.97036 0
M  V30 2964 C 495.087 -2.58828 -5.25741 0
M  V30 2965 N 495.137 -2.68068 -3.77503 0
M  V30 2966 C 495.057 -3.80474 -2.99159 0
M  V30 2967 N 495.127 -3.55622 -1.71925 0
M  V30 2968 C 495.277 -2.1832 -1.65733 0
M  V30 2969 C 495.407 -1.28842 -0.572777 0
M  V30 2970 N 495.417 -1.66875 0.70098 0
M  V30 2971 N 495.527 0.016788 -0.859836 0
M  V30 2972 C 495.517 0.398145 -2.13316 0
M  V30 2973 N 495.397 -0.328224 -3.22333 0
M  V30 2974 C 495.277 -1.62992 -2.90383 0
M  V30 2975 H 492.299 -5.40394 -6.8003 0
M  V30 2976 H 492.027 -4.41741 -5.32532 0
M  V30 2977 H 492.895 -3.26371 -7.47889 0
M  V30 2978 H 495.55 -1.64007 -5.56746 0
M  V30 2979 H 495.83 -4.63439 -5.3432 0
M  V30 2980 H 496.821 -3.44776 -6.25925 0
M  V30 2981 H 494.987 -4.96707 -7.57347 0
M  V30 2982 H 494.946 -4.8089 -3.39924 0
M  V30 2983 H 495.327 -2.66547 0.941919 0
M  V30 2984 H 495.516 -0.965341 1.44766 0
M  V30 2985 H 495.624 1.46427 -2.29697 0
M  V30 2986 P 496.857 -2.75334 -8.47391 0
M  V30 2987 O 497.077 -2.44571 -9.90142 0
M  V30 2988 O 497.647 -3.87688 -7.92115 0
M  V30 2989 O 497.107 -1.4459 -7.59357 0
M  V30 2990 C 496.167 -0.347608 -7.69215 0
M  V30 2991 C 496.897 0.96767 -7.52806 0
M  V30 2992 O 497.107 1.21036 -6.1011 0
M  V30 2993 C 498.297 1.04544 -8.13308 0
M  V30 2994 O 498.687 2.38311 -8.41922 0
M  V30 2995 C 499.177 0.491279 -7.02284 0
M  V30 2996 C 498.467 0.996264 -5.77469 0
M  V30 2997 N 498.517 0.0501916 -4.62973 0
M  V30 2998 H 495.678 -0.374722 -8.67691 0
M  V30 2999 H 495.408 -0.443485 -6.90277 0
M  V30 3000 H 496.275 1.75537 -7.96793 0
M  V30 3001 P 500.237 2.75334 -8.47391 0
M  V30 3002 O 500.457 3.84128 -9.44797 0
M  V30 3003 O 501.027 1.51947 -8.68712 0
M  V30 3004 O 500.487 3.29363 -6.99321 0
M  V30 3005 C 499.547 4.24011 -6.4274 0
M  V30 3006 C 500.277 5.20775 -5.52155 0
M  V30 3007 O 500.487 4.56534 -4.22446 0
M  V30 3008 C 501.677 5.62629 -5.96531 0
M  V30 3009 O 502.067 6.87667 -5.41053 0
M  V30 3010 C 502.557 4.52537 -5.39283 0
M  V30 3011 C 501.847 4.20027 -4.08623 0
M  V30 3012 N 501.897 2.76189 -3.71603 0
M  V30 3013 H 499.058 4.797 -7.24003 0
M  V30 3014 H 498.788 3.69856 -5.84513 0
M  V30 3015 H 499.655 6.10356 -5.41441 0
M  V30 3016 P 503.617 7.20834 -5.23717 0
M  V30 3017 O 503.837 8.66189 -5.38625 0
M  V30 3018 O 504.407 6.33615 -6.1356 0
M  V30 3019 O 503.867 6.7751 -3.72168 0
M  V30 3020 C 502.927 7.20732 -2.70725 0
M  V30 3021 C 503.657 7.45864 -1.40599 0
M  V30 3022 O 503.867 6.17651 -0.734225 0
M  V30 3023 C 505.057 8.05808 -1.51899 0
M  V30 3024 O 505.447 8.74358 -0.335205 0
M  V30 3025 C 505.937 6.83093 -1.70294 0
M  V30 3026 C 505.227 5.79992 -0.836974 0
M  V30 3027 N 505.277 4.41769 -1.38263 0
M  V30 3028 C 505.427 3.38591 -0.481702 0
M  V30 3029 O 505.517 3.56839 0.718452 0
M  V30 3030 N 505.467 2.1206 -1.03569 0
M  V30 3031 C 505.377 1.80696 -2.36966 0
M  V30 3032 O 505.427 0.630473 -2.74862 0
M  V30 3033 C 505.227 2.94845 -3.23898 0
M  V30 3034 C 505.117 2.65253 -4.70362 0
M  V30 3035 C 505.177 4.19803 -2.73435 0
M  V30 3036 H 502.437 8.13644 -3.0377 0
M  V30 3037 H 502.168 6.42695 -2.55448 0
M  V30 3038 H 503.035 8.12039 -0.792769 0
M  V30 3039 H 505.69 5.79978 0.160587 0
M  V30 3040 H 505.969 6.51379 -2.75643 0
M  V30 3041 H 506.961 7.01734 -1.34462 0
M  V30 3042 H 505.127 8.73674 -2.38337 0
M  V30 3043 H 505.056 5.04492 -3.4095 0
M  V30 3044 H 506.086 2.83924 -5.1913 0
M  V30 3045 H 504.349 3.29824 -5.15163 0
M  V30 3046 H 504.837 1.59723 -4.84449 0
M  V30 3047 H 505.573 1.35644 -0.399345 0
M  V30 3048 P 506.997 8.91 3.06942e-12 0
M  V30 3049 O 507.217 10.1726 0.733694 0
M  V30 3050 O 507.787 8.73148 -1.23936 0
M  V30 3051 O 507.247 7.66872 0.971405 0
M  V30 3052 C 506.307 7.42309 2.04641 0
M  V30 3053 C 507.037 6.86059 3.24661 0
M  V30 3054 O 507.247 5.42847 3.03646 0
M  V30 3055 C 508.437 7.41196 3.50753 0
M  V30 3056 O 508.827 7.27073 4.86816 0
M  V30 3057 C 509.317 6.5273 2.63741 0
M  V30 3058 C 508.607 5.1842 2.73198 0
M  V30 3059 N 508.657 4.38762 1.4784 0
M  V30 3060 H 505.818 8.36803 2.32493 0
M  V30 3061 H 505.548 6.70197 1.71129 0
M  V30 3062 H 506.415 7.03551 4.13168 0
M  V30 3063 P 510.377 7.20834 5.23717 0
M  V30 3064 O 510.597 7.79853 6.57286 0
M  V30 3065 O 511.167 7.79239 4.12957 0
M  V30 3066 O 510.627 5.63315 5.29344 0
M  V30 3067 C 509.687 4.80255 6.01876 0
M  V30 3068 C 510.417 3.64202 6.65911 0
M  V30 3069 O 510.627 2.60694 5.64732 0
M  V30 3070 C 511.817 3.93473 7.1943 0
M  V30 3071 O 512.207 3.02071 8.21205 0
M  V30 3072 C 512.697 3.73047 5.97036 0
M  V30 3073 C 511.987 2.58828 5.25741 0
M  V30 3074 N 512.037 2.68068 3.77503 0
M  V30 3075 H 509.198 5.40332 6.79951 0
M  V30 3076 H 508.928 4.41613 5.32378 0
M  V30 3077 H 509.795 3.26331 7.47797 0
M  V30 3078 P 513.757 2.75334 8.47391 0
M  V30 3079 O 513.977 2.44595 9.90239 0
M  V30 3080 O 514.547 3.87732 7.92204 0
M  V30 3081 O 514.007 1.4459 7.59357 0
M  V30 3082 C 513.067 0.347608 7.69215 0
M  V30 3083 C 513.797 -0.96767 7.52806 0
M  V30 3084 O 514.007 -1.21036 6.1011 0
M  V30 3085 C 515.197 -1.04544 8.13308 0
M  V30 3086 O 515.587 -2.38311 8.41922 0
M  V30 3087 C 516.077 -0.491279 7.02284 0
M  V30 3088 C 515.367 -0.996264 5.77469 0
M  V30 3089 N 515.417 -0.0501808 4.62873 0
M  V30 3090 C 515.567 -0.578037 3.3505 0
M  V30 3091 O 515.657 -1.8073 3.21711 0
M  V30 3092 N 515.617 0.468541 2.263 0
M  V30 3093 C 515.517 1.59186 2.47176 0
M  V30 3094 N 515.567 2.37626 1.40392 0
M  V30 3095 C 515.367 2.16203 3.77467 0
M  V30 3096 C 515.317 1.29324 4.8195 0
M  V30 3097 H 512.577 0.374679 8.67591 0
M  V30 3098 H 512.308 0.443421 6.90177 0
M  V30 3099 H 513.175 -1.75559 7.96891 0
M  V30 3100 H 515.83 -1.94529 5.46723 0
M  V30 3101 H 516.109 0.608651 7.04676 0
M  V30 3102 H 517.101 -0.889672 7.08939 0
M  V30 3103 H 515.267 -0.43308 9.04564 0
M  V30 3104 H 515.195 1.67758 5.83046 0
M  V30 3105 H 515.297 3.23869 3.92281 0
M  V30 3106 H 515.685 1.96317 0.467202 0
M  V30 3107 H 515.488 3.39693 1.51142 0
M  V30 3108 P 517.137 -2.75334 8.47391 0
M  V30 3109 O 517.357 -3.84128 9.44797 0
M  V30 3110 O 517.927 -1.51947 8.68712 0
M  V30 3111 O 517.387 -3.29363 6.99321 0
M  V30 3112 C 516.447 -4.24011 6.4274 0
M  V30 3113 C 517.177 -5.20775 5.52155 0
M  V30 3114 O 517.387 -4.56534 4.22446 0
M  V30 3115 C 518.577 -5.62629 5.96531 0
M  V30 3116 O 518.967 -6.87667 5.41053 0
M  V30 3117 C 519.457 -4.52537 5.39283 0
M  V30 3118 C 518.747 -4.20027 4.08623 0
M  V30 3119 N 518.797 -2.76189 3.71603 0
M  V30 3120 C 518.717 -1.64862 4.52822 0
M  V30 3121 N 518.797 -0.512671 3.88633 0
M  V30 3122 C 518.937 -0.888083 2.54977 0
M  V30 3123 C 519.067 -0.094668 1.38677 0
M  V30 3124 N 519.187 -0.890102 0.232633 0
M  V30 3125 C 519.187 -2.26958 0.21772 0
M  V30 3126 N 519.317 -2.84626 -0.97925 0
M  V30 3127 N 519.057 -3.0178 1.31033 0
M  V30 3128 C 518.937 -2.26781 2.43843 0
M  V30 3129 H 515.958 -4.797 7.24003 0
M  V30 3130 H 515.688 -3.69856 5.84513 0
M  V30 3131 H 516.555 -6.10356 5.41441 0
M  V30 3132 P 520.517 -7.20834 5.23717 0
M  V30 3133 O 520.737 -8.66104 5.38572 0
M  V30 3134 O 521.307 -6.33544 6.1349 0
M  V30 3135 O 520.767 -6.7751 3.72168 0
M  V30 3136 C 519.827 -7.20825 2.7076 0
M  V30 3137 C 520.557 -7.45864 1.40599 0
M  V30 3138 O 520.767 -6.17651 0.734225 0
M  V30 3139 C 521.957 -8.05808 1.51899 0
M  V30 3140 O 522.347 -8.74358 0.335205 0
M  V30 3141 C 522.837 -6.83093 1.70294 0
M  V30 3142 C 522.127 -5.79992 0.836974 0
M  V30 3143 N 522.177 -4.41864 1.38293 0
M  V30 3144 H 519.338 -8.13644 3.0377 0
M  V30 3145 H 519.068 -6.42788 2.55485 0
M  V30 3146 H 519.935 -8.12039 0.792769 0
M  V30 3147 P 523.897 -8.91 -3.22661e-12 0
M  V30 3148 O 524.117 -10.1726 -0.733694 0
M  V30 3149 O 524.687 -8.73148 1.23936 0
M  V30 3150 O 524.147 -7.66872 -0.971405 0
M  V30 3151 C 523.207 -7.42309 -2.04641 0
M  V30 3152 C 523.937 -6.86059 -3.24661 0
M  V30 3153 O 524.147 -5.42847 -3.03646 0
M  V30 3154 C 525.337 -7.41196 -3.50753 0
M  V30 3155 O 525.727 -7.27073 -4.86816 0
M  V30 3156 C 526.217 -6.5273 -2.63741 0
M  V30 3157 C 525.507 -5.1842 -2.73198 0
M  V30 3158 N 525.557 -4.38762 -1.4784 0
M  V30 3159 H 522.718 -8.36803 -2.32493 0
M  V30 3160 H 522.448 -6.70197 -1.71129 0
M  V30 3161 H 523.315 -7.03551 -4.13168 0
M  V30 3162 P 527.277 -7.20834 -5.23717 0
M  V30 3163 O 527.497 -7.79853 -6.57286 0
M  V30 3164 O 528.067 -7.79239 -4.12957 0
M  V30 3165 O 527.527 -5.63315 -5.29344 0
M  V30 3166 C 526.587 -4.80255 -6.01876 0
M  V30 3167 C 527.317 -3.64202 -6.65911 0
M  V30 3168 O 527.527 -2.60694 -5.64732 0
M  V30 3169 C 528.717 -3.93473 -7.1943 0
M  V30 3170 O 529.107 -3.02071 -8.21205 0
M  V30 3171 C 529.597 -3.73047 -5.97036 0
M  V30 3172 C 528.887 -2.58828 -5.25741 0
M  V30 3173 N 528.937 -2.68068 -3.77503 0
M  V30 3174 H 526.098 -5.40332 -6.79951 0
M  V30 3175 H 525.828 -4.41613 -5.32378 0
M  V30 3176 H 526.695 -3.26331 -7.47797 0
M  V30 3177 P 530.657 -2.75334 -8.47391 0
M  V30 3178 O 530.877 -2.44571 -9.90142 0
M  V30 3179 O 531.447 -3.87688 -7.92115 0
M  V30 3180 O 530.907 -1.4459 -7.59357 0
M  V30 3181 C 529.967 -0.347608 -7.69215 0
M  V30 3182 C 530.697 0.96767 -7.52806 0
M  V30 3183 O 530.907 1.21036 -6.1011 0
M  V30 3184 C 532.097 1.04544 -8.13308 0
M  V30 3185 O 532.487 2.38311 -8.41922 0
M  V30 3186 C 532.977 0.491279 -7.02284 0
M  V30 3187 C 532.267 0.996264 -5.77469 0
M  V30 3188 N 532.317 0.0501916 -4.62973 0
M  V30 3189 H 529.478 -0.374722 -8.67691 0
M  V30 3190 H 529.208 -0.443485 -6.90277 0
M  V30 3191 H 530.075 1.75537 -7.96793 0
M  V30 3192 P 534.037 2.75334 -8.47391 0
M  V30 3193 O 534.257 3.84204 -9.44982 0
M  V30 3194 O 534.827 1.51982 -8.68909 0
M  V30 3195 O 534.287 3.29363 -6.99321 0
M  V30 3196 C 533.347 4.24066 -6.42823 0
M  V30 3197 C 534.077 5.20775 -5.52155 0
M  V30 3198 O 534.287 4.56607 -4.22514 0
M  V30 3199 C 535.477 5.62697 -5.96604 0
M  V30 3200 O 535.867 6.87667 -5.41053 0
M  V30 3201 C 536.357 4.52537 -5.39283 0
M  V30 3202 C 535.647 4.20027 -4.08623 0
M  V30 3203 N 535.697 2.76189 -3.71603 0
M  V30 3204 H 532.859 4.79756 -7.24086 0
M  V30 3205 H 532.587 3.69963 -5.84682 0
M  V30 3206 H 533.455 6.10431 -5.41508 0
M  V30 3207 H 536.11 4.78816 -3.28024 0
M  V30 3208 H 536.39 3.64957 -6.05871 0
M  V30 3209 H 537.381 4.88748 -5.21323 0
M  V30 3210 H 535.547 5.66789 -7.0643 0
M  V30 3211 P 537.417 7.20834 -5.23717 0
M  V30 3212 O 537.637 8.66274 -5.38678 0
M  V30 3213 O 538.207 6.33687 -6.13629 0
M  V30 3214 O 537.667 6.7751 -3.72168 0
M  V30 3215 C 536.727 7.20919 -2.70795 0
M  V30 3216 C 537.457 7.45864 -1.40599 0
M  V30 3217 O 537.667 6.17751 -0.734343 0
M  V30 3218 C 538.857 8.05906 -1.51917 0
M  V30 3219 O 539.247 8.74358 -0.335205 0
M  V30 3220 C 539.737 6.83093 -1.70294 0
M  V30 3221 C 539.027 5.79992 -0.836974 0
M  V30 3222 N 539.077 4.41864 -1.38293 0
M  V30 3223 C 538.997 4.02089 -2.69407 0
M  V30 3224 N 539.067 2.73403 -2.85089 0
M  V30 3225 C 539.217 2.25086 -1.5642 0
M  V30 3226 C 539.347 0.942887 -1.04836 0
M  V30 3227 N 539.357 -0.150999 -1.80369 0
M  V30 3228 N 539.467 0.812565 0.28167 0
M  V30 3229 C 539.457 1.90572 1.03784 0
M  V30 3230 N 539.337 3.167 0.683905 0
M  V30 3231 C 539.217 3.26538 -0.652815 0
M  V30 3232 H 536.239 8.13738 -3.03804 0
M  V30 3233 H 535.967 6.42974 -2.55559 0
M  V30 3234 H 536.835 8.12139 -0.792866 0
M  V30 3235 H 539.49 5.80178 0.160643 0
M  V30 3236 H 539.77 6.51379 -2.75643 0
M  V30 3237 H 540.761 7.01832 -1.3448 0
M  V30 3238 H 538.927 8.73771 -2.38364 0
M  V30 3239 H 538.886 4.7189 -3.52311 0
M  V30 3240 H 539.267 -0.0721434 -2.82608 0
M  V30 3241 H 539.456 -1.0785 -1.36544 0
M  V30 3242 H 539.564 1.73207 2.10241 0
M  V30 3243 P 540.797 8.91 3.38379e-12 0
M  V30 3244 O 541.017 10.1726 0.733694 0
M  V30 3245 O 541.587 8.73148 -1.23936 0
M  V30 3246 O 541.047 7.66872 0.971405 0
M  V30 3247 C 540.107 7.42309 2.04641 0
M  V30 3248 C 540.837 6.86059 3.24661 0
M  V30 3249 O 541.047 5.42847 3.03646 0
M  V30 3250 C 542.237 7.41196 3.50753 0
M  V30 3251 O 542.627 7.27073 4.86816 0
M  V30 3252 C 543.117 6.5273 2.63741 0
M  V30 3253 C 542.407 5.1842 2.73198 0
M  V30 3254 N 542.457 4.38762 1.4784 0
M  V30 3255 H 539.618 8.36803 2.32493 0
M  V30 3256 H 539.348 6.70197 1.71129 0
M  V30 3257 H 540.215 7.03551 4.13168 0
M  V30 3258 P 544.177 7.20834 5.23717 0
M  V30 3259 O 544.397 7.79853 6.57286 0
M  V30 3260 O 544.967 7.79239 4.12957 0
M  V30 3261 O 544.427 5.63315 5.29344 0
M  V30 3262 C 543.487 4.80255 6.01876 0
M  V30 3263 C 544.217 3.64202 6.65911 0
M  V30 3264 O 544.427 2.60694 5.64732 0
M  V30 3265 C 545.617 3.93473 7.1943 0
M  V30 3266 O 546.007 3.02071 8.21205 0
M  V30 3267 C 546.497 3.73047 5.97036 0
M  V30 3268 C 545.787 2.58828 5.25741 0
M  V30 3269 N 545.837 2.68068 3.77503 0
M  V30 3270 H 542.998 5.40332 6.79951 0
M  V30 3271 H 542.728 4.41613 5.32378 0
M  V30 3272 H 543.595 3.26331 7.47797 0
M  V30 3273 P 547.557 2.75334 8.47391 0
M  V30 3274 O 547.777 2.44571 9.90142 0
M  V30 3275 O 548.347 3.87688 7.92115 0
M  V30 3276 O 547.807 1.4459 7.59357 0
M  V30 3277 C 546.867 0.347608 7.69215 0
M  V30 3278 C 547.597 -0.96767 7.52806 0
M  V30 3279 O 547.807 -1.21036 6.1011 0
M  V30 3280 C 548.997 -1.04544 8.13308 0
M  V30 3281 O 549.387 -2.38311 8.41922 0
M  V30 3282 C 549.877 -0.491279 7.02284 0
M  V30 3283 C 549.167 -0.996264 5.77469 0
M  V30 3284 N 549.217 -0.0501916 4.62973 0
M  V30 3285 H 546.378 0.374722 8.67691 0
M  V30 3286 H 546.108 0.443485 6.90277 0
M  V30 3287 H 546.975 -1.75537 7.96793 0
M  V30 3288 P 550.937 -2.75334 8.47391 0
M  V30 3289 O 551.157 -3.84128 9.44797 0
M  V30 3290 O 551.727 -1.51947 8.68712 0
M  V30 3291 O 551.187 -3.29363 6.99321 0
M  V30 3292 C 550.247 -4.24011 6.4274 0
M  V30 3293 C 550.977 -5.20775 5.52155 0
M  V30 3294 O 551.187 -4.56534 4.22446 0
M  V30 3295 C 552.377 -5.62629 5.96531 0
M  V30 3296 O 552.767 -6.87667 5.41053 0
M  V30 3297 C 553.257 -4.52537 5.39283 0
M  V30 3298 C 552.547 -4.20027 4.08623 0
M  V30 3299 N 552.597 -2.76189 3.71603 0
M  V30 3300 H 549.758 -4.797 7.24003 0
M  V30 3301 H 549.488 -3.69856 5.84513 0
M  V30 3302 H 550.355 -6.10356 5.41441 0
M  V30 3303 P 554.317 -7.20834 5.23717 0
M  V30 3304 O 554.537 -8.66274 5.38678 0
M  V30 3305 O 555.107 -6.33687 6.13629 0
M  V30 3306 O 554.567 -6.7751 3.72168 0
M  V30 3307 C 553.627 -7.20919 2.70795 0
M  V30 3308 C 554.357 -7.45864 1.40599 0
M  V30 3309 O 554.567 -6.17751 0.734343 0
M  V30 3310 C 555.757 -8.05906 1.51917 0
M  V30 3311 O 556.147 -8.74358 0.335205 0
M  V30 3312 C 556.637 -6.83093 1.70294 0
M  V30 3313 C 555.927 -5.79992 0.836974 0
M  V30 3314 N 555.977 -4.41864 1.38293 0
M  V30 3315 H 553.139 -8.13738 3.03804 0
M  V30 3316 H 552.867 -6.42974 2.55559 0
M  V30 3317 H 553.735 -8.12139 0.792866 0
M  V30 3318 H 556.39 -5.80178 -0.160643 0
M  V30 3319 H 556.67 -6.51379 2.75643 0
M  V30 3320 H 557.661 -7.01832 1.3448 0
M  V30 3321 H 555.827 -8.73771 2.38364 0
M  V30 3322 P 557.697 -8.91 -3.54097e-12 0
M  V30 3323 O 557.917 -10.1726 -0.733694 0
M  V30 3324 O 558.487 -8.73148 1.23936 0
M  V30 3325 O 557.947 -7.66872 -0.971405 0
M  V30 3326 C 557.007 -7.42309 -2.04641 0
M  V30 3327 C 557.737 -6.86059 -3.24661 0
M  V30 3328 O 557.947 -5.42847 -3.03646 0
M  V30 3329 C 559.137 -7.41196 -3.50753 0
M  V30 3330 O 559.527 -7.27073 -4.86816 0
M  V30 3331 C 560.017 -6.5273 -2.63741 0
M  V30 3332 C 559.307 -5.1842 -2.73198 0
M  V30 3333 N 559.357 -4.38762 -1.4784 0
M  V30 3334 H 556.518 -8.36803 -2.32493 0
M  V30 3335 H 556.248 -6.70197 -1.71129 0
M  V30 3336 H 557.115 -7.03551 -4.13168 0
M  V30 3337 P 561.077 -7.20834 -5.23717 0
M  V30 3338 O 561.297 -7.80006 -6.57415 0
M  V30 3339 O 561.867 -7.79416 -4.13051 0
M  V30 3340 O 561.327 -5.63315 -5.29344 0
M  V30 3341 C 560.387 -4.80318 -6.01954 0
M  V30 3342 C 561.117 -3.64202 -6.65911 0
M  V30 3343 O 561.327 -2.60736 -5.64823 0
M  V30 3344 C 562.517 -3.93521 -7.19518 0
M  V30 3345 O 562.907 -3.02071 -8.21205 0
M  V30 3346 C 563.397 -3.73047 -5.97036 0
M  V30 3347 C 562.687 -2.58828 -5.25741 0
M  V30 3348 N 562.737 -2.68068 -3.77503 0
M  V30 3349 C 562.657 -3.80474 -2.99159 0
M  V30 3350 N 562.727 -3.55622 -1.71925 0
M  V30 3351 C 562.877 -2.1832 -1.65733 0
M  V30 3352 C 563.007 -1.28842 -0.572777 0
M  V30 3353 N 563.017 -1.66875 0.70098 0
M  V30 3354 N 563.127 0.016788 -0.859836 0
M  V30 3355 C 563.117 0.398145 -2.13316 0
M  V30 3356 N 562.997 -0.328224 -3.22333 0
M  V30 3357 C 562.877 -1.62992 -2.90383 0
M  V30 3358 H 559.899 -5.40394 -6.8003 0
M  V30 3359 H 559.627 -4.41741 -5.32532 0
M  V30 3360 H 560.495 -3.26371 -7.47889 0
M  V30 3361 H 563.15 -1.64007 -5.56746 0
M  V30 3362 H 563.43 -4.63439 -5.3432 0
M  V30 3363 H 564.421 -3.44776 -6.25925 0
M  V30 3364 H 562.587 -4.96707 -7.57347 0
M  V30 3365 H 562.546 -4.8089 -3.39924 0
M  V30 3366 H 562.927 -2.66547 0.941919 0
M  V30 3367 H 563.116 -0.965341 1.44766 0
M  V30 3368 H 563.224 1.46427 -2.29697 0
M  V30 3369 P 564.457 -2.75334 -8.47391 0
M  V30 3370 O 564.677 -2.44571 -9.90142 0
M  V30 3371 O 565.247 -3.87688 -7.92115 0
M  V30 3372 O 564.707 -1.4459 -7.59357 0
M  V30 3373 C 563.767 -0.347608 -7.69215 0
M  V30 3374 C 564.497 0.96767 -7.52806 0
M  V30 3375 O 564.707 1.21036 -6.1011 0
M  V30 3376 C 565.897 1.04544 -8.13308 0
M  V30 3377 O 566.287 2.38311 -8.41922 0
M  V30 3378 C 566.777 0.491279 -7.02284 0
M  V30 3379 C 566.067 0.996264 -5.77469 0
M  V30 3380 N 566.117 0.0501916 -4.62973 0
M  V30 3381 H 563.278 -0.374722 -8.67691 0
M  V30 3382 H 563.008 -0.443485 -6.90277 0
M  V30 3383 H 563.875 1.75537 -7.96793 0
M  V30 3384 P 567.837 2.75334 -8.47391 0
M  V30 3385 O 568.057 3.84128 -9.44797 0
M  V30 3386 O 568.627 1.51947 -8.68712 0
M  V30 3387 O 568.087 3.29363 -6.99321 0
M  V30 3388 C 567.147 4.24011 -6.4274 0
M  V30 3389 C 567.877 5.20775 -5.52155 0
M  V30 3390 O 568.087 4.56534 -4.22446 0
M  V30 3391 C 569.277 5.62629 -5.96531 0
M  V30 3392 O 569.667 6.87667 -5.41053 0
M  V30 3393 C 570.157 4.52537 -5.39283 0
M  V30 3394 C 569.447 4.20027 -4.08623 0
M  V30 3395 N 569.497 2.76189 -3.71603 0
M  V30 3396 H 566.658 4.797 -7.24003 0
M  V30 3397 H 566.388 3.69856 -5.84513 0
M  V30 3398 H 567.255 6.10356 -5.41441 0
M  V30 3399 P 571.217 7.20834 -5.23717 0
M  V30 3400 O 571.437 8.66104 -5.38572 0
M  V30 3401 O 572.007 6.33544 -6.1349 0
M  V30 3402 O 571.467 6.7751 -3.72168 0
M  V30 3403 C 570.527 7.20825 -2.7076 0
M  V30 3404 C 571.257 7.45864 -1.40599 0
M  V30 3405 O 571.467 6.17651 -0.734225 0
M  V30 3406 C 572.657 8.05808 -1.51899 0
M  V30 3407 O 573.047 8.74358 -0.335205 0
M  V30 3408 C 573.537 6.83093 -1.70294 0
M  V30 3409 C 572.827 5.79992 -0.836974 0
M  V30 3410 N 572.877 4.41864 -1.38293 0
M  V30 3411 C 572.797 3.99538 -2.69438 0
M  V30 3412 N 572.877 2.69909 -2.84277 0
M  V30 3413 C 573.017 2.21719 -1.5408 0
M  V30 3414 C 573.147 0.891712 -1.06628 0
M  V30 3415 O 573.167 -0.161298 -1.70137 0
M  V30 3416 N 573.267 0.856846 0.334985 0
M  V30 3417 C 573.267 1.9641 1.15789 0
M  V30 3418 N 573.397 1.72708 2.46522 0
M  V30 3419 N 573.137 3.21165 0.713741 0
M  V30 3420 C 573.017 3.26797 -0.639748 0
M  V30 3421 H 570.038 8.13644 -3.0377 0
M  V30 3422 H 569.768 6.42788 -2.55485 0
M  V30 3423 H 570.635 8.12039 -0.792769 0
M  V30 3424 H 573.29 5.80061 0.166416 0
M  V30 3425 H 573.569 6.51287 -2.75604 0
M  V30 3426 H 574.561 7.01734 -1.34462 0
M  V30 3427 H 572.727 8.73674 -2.38337 0
M  V30 3428 H 572.678 4.68207 -3.53221 0
M  V30 3429 H 573.36 -0.0398818 0.767965 0
M  V30 3430 H 573.397 2.50995 3.13503 0
M  V30 3431 H 573.498 0.759148 2.80716 0
M  V30 3432 P 574.597 8.91 3.69815e-12 0
M  V30 3433 O 574.817 10.1726 0.733694 0
M  V30 3434 O 575.387 8.73148 -1.23936 0
M  V30 3435 O 574.847 7.66872 0.971405 0
M  V30 3436 C 573.907 7.42309 2.04641 0
M  V30 3437 C 574.637 6.86059 3.24661 0
M  V30 3438 O 574.847 5.42847 3.03646 0
M  V30 3439 C 576.037 7.41196 3.50753 0
M  V30 3440 O 576.427 7.27073 4.86816 0
M  V30 3441 C 576.917 6.5273 2.63741 0
M  V30 3442 C 576.207 5.1842 2.73198 0
M  V30 3443 N 576.257 4.38762 1.4784 0
M  V30 3444 H 573.418 8.36803 2.32493 0
M  V30 3445 H 573.148 6.70197 1.71129 0
M  V30 3446 H 574.015 7.03551 4.13168 0
M  V30 3447 P 577.977 7.20834 5.23717 0
M  V30 3448 O 578.197 7.7993 6.57351 0
M  V30 3449 O 578.767 7.79328 4.13004 0
M  V30 3450 O 578.227 5.63315 5.29344 0
M  V30 3451 C 577.287 4.80193 6.01798 0
M  V30 3452 C 578.017 3.64202 6.65911 0
M  V30 3453 O 578.227 2.60694 5.64732 0
M  V30 3454 C 579.417 3.93473 7.1943 0
M  V30 3455 O 579.807 3.02071 8.21205 0
M  V30 3456 C 580.297 3.73047 5.97036 0
M  V30 3457 C 579.587 2.58828 5.25741 0
M  V30 3458 N 579.637 2.6801 3.77422 0
M  V30 3459 C 579.787 1.50443 3.07133 0
M  V30 3460 O 579.877 0.419406 3.61576 0
M  V30 3461 N 579.827 1.6403 1.69677 0
M  V30 3462 C 579.737 2.81206 0.986255 0
M  V30 3463 C 579.587 3.99158 1.80325 0
M  V30 3464 C 579.537 3.89779 3.1476 0
M  V30 3465 H 576.797 5.40332 6.79951 0
M  V30 3466 H 576.528 4.41549 5.32301 0
M  V30 3467 H 577.395 3.26331 7.47797 0
M  V30 3468 H 580.05 1.6395 5.56554 0
M  V30 3469 H 580.329 4.63439 5.3432 0
M  V30 3470 H 581.321 3.44728 6.25838 0
M  V30 3471 H 579.487 4.96652 7.57263 0
M  V30 3472 H 579.416 4.80159 3.74441 0
M  V30 3473 P 581.357 2.75334 8.47391 0
M  V30 3474 O 581.577 2.44571 9.90142 0
M  V30 3475 O 582.147 3.87688 7.92115 0
M  V30 3476 O 581.607 1.4459 7.59357 0
M  V30 3477 C 580.667 0.347608 7.69215 0
M  V30 3478 C 581.397 -0.96767 7.52806 0
M  V30 3479 O 581.607 -1.21036 6.1011 0
M  V30 3480 C 582.797 -1.04544 8.13308 0
M  V30 3481 O 583.187 -2.38311 8.41922 0
M  V30 3482 C 583.677 -0.491279 7.02284 0
M  V30 3483 C 582.967 -0.996264 5.77469 0
M  V30 3484 N 583.017 -0.0501916 4.62973 0
M  V30 3485 H 580.178 0.374722 8.67691 0
M  V30 3486 H 579.908 0.443485 6.90277 0
M  V30 3487 H 580.775 -1.75537 7.96793 0
M  V30 3488 P 584.737 -2.75334 8.47391 0
M  V30 3489 O 584.957 -3.84128 9.44797 0
M  V30 3490 O 585.527 -1.51947 8.68712 0
M  V30 3491 O 584.987 -3.29363 6.99321 0
M  V30 3492 C 584.047 -4.24011 6.4274 0
M  V30 3493 C 584.777 -5.20775 5.52155 0
M  V30 3494 O 584.987 -4.56534 4.22446 0
M  V30 3495 C 586.177 -5.62629 5.96531 0
M  V30 3496 O 586.567 -6.87667 5.41053 0
M  V30 3497 C 587.057 -4.52537 5.39283 0
M  V30 3498 C 586.347 -4.20027 4.08623 0
M  V30 3499 N 586.397 -2.76189 3.71603 0
M  V30 3500 C 586.317 -1.64862 4.52822 0
M  V30 3501 N 586.397 -0.512671 3.88633 0
M  V30 3502 C 586.537 -0.888083 2.54977 0
M  V30 3503 C 586.667 -0.094668 1.38677 0
M  V30 3504 N 586.787 -0.890102 0.232633 0
M  V30 3505 C 586.787 -2.26958 0.21772 0
M  V30 3506 N 586.917 -2.84626 -0.97925 0
M  V30 3507 N 586.657 -3.0178 1.31033 0
M  V30 3508 C 586.537 -2.26781 2.43843 0
M  V30 3509 H 583.558 -4.797 7.24003 0
M  V30 3510 H 583.288 -3.69856 5.84513 0
M  V30 3511 H 584.155 -6.10356 5.41441 0
M  V30 3512 P 588.117 -7.20834 5.23717 0
M  V30 3513 O 588.337 -8.66274 5.38678 0
M  V30 3514 O 588.907 -6.33687 6.13629 0
M  V30 3515 O 588.367 -6.7751 3.72168 0
M  V30 3516 C 587.427 -7.20919 2.70795 0
M  V30 3517 C 588.157 -7.45864 1.40599 0
M  V30 3518 O 588.367 -6.17751 0.734343 0
M  V30 3519 C 589.557 -8.05906 1.51917 0
M  V30 3520 O 589.947 -8.74358 0.335205 0
M  V30 3521 C 590.437 -6.83093 1.70294 0
M  V30 3522 C 589.727 -5.79992 0.836974 0
M  V30 3523 N 589.777 -4.41864 1.38293 0
M  V30 3524 H 586.939 -8.13738 3.03804 0
M  V30 3525 H 586.667 -6.42974 2.55559 0
M  V30 3526 H 587.535 -8.12139 0.792866 0
M  V30 3527 H 590.19 -5.80178 -0.160643 0
M  V30 3528 H 590.47 -6.51379 2.75643 0
M  V30 3529 H 591.461 -7.01832 1.3448 0
M  V30 3530 H 589.627 -8.73771 2.38364 0
M  V30 3531 P 591.496 -8.91 -3.85533e-12 0
M  V30 3532 O 591.716 -10.1726 -0.733694 0
M  V30 3533 O 592.286 -8.73148 1.23936 0
M  V30 3534 O 591.746 -7.66872 -0.971405 0
M  V30 3535 C 590.806 -7.42309 -2.04641 0
M  V30 3536 C 591.536 -6.86059 -3.24661 0
M  V30 3537 O 591.746 -5.42847 -3.03646 0
M  V30 3538 C 592.937 -7.41196 -3.50753 0
M  V30 3539 O 593.327 -7.27073 -4.86816 0
M  V30 3540 C 593.817 -6.5273 -2.63741 0
M  V30 3541 C 593.106 -5.1842 -2.73198 0
M  V30 3542 N 593.156 -4.38762 -1.4784 0
M  V30 3543 H 590.317 -8.36803 -2.32493 0
M  V30 3544 H 590.048 -6.70197 -1.71129 0
M  V30 3545 H 590.914 -7.03551 -4.13168 0
M  V30 3546 P 594.876 -7.20834 -5.23717 0
M  V30 3547 O 595.096 -7.79853 -6.57286 0
M  V30 3548 O 595.666 -7.79239 -4.12957 0
M  V30 3549 O 595.126 -5.63315 -5.29344 0
M  V30 3550 C 594.186 -4.80255 -6.01876 0
M  V30 3551 C 594.916 -3.64202 -6.65911 0
M  V30 3552 O 595.126 -2.60694 -5.64732 0
M  V30 3553 C 596.316 -3.93473 -7.1943 0
M  V30 3554 O 596.706 -3.02071 -8.21205 0
M  V30 3555 C 597.196 -3.73047 -5.97036 0
M  V30 3556 C 596.486 -2.58828 -5.25741 0
M  V30 3557 N 596.536 -2.68068 -3.77503 0
M  V30 3558 H 593.697 -5.40332 -6.79951 0
M  V30 3559 H 593.427 -4.41613 -5.32378 0
M  V30 3560 H 594.294 -3.26331 -7.47797 0
M  V30 3561 P 598.256 -2.75334 -8.47391 0
M  V30 3562 O 598.476 -2.44595 -9.90239 0
M  V30 3563 O 599.046 -3.87732 -7.92204 0
M  V30 3564 O 598.506 -1.4459 -7.59357 0
M  V30 3565 C 597.566 -0.347563 -7.69115 0
M  V30 3566 C 598.296 0.96767 -7.52806 0
M  V30 3567 O 598.506 1.21036 -6.1011 0
M  V30 3568 C 599.696 1.04544 -8.13308 0
M  V30 3569 O 600.086 2.38311 -8.41922 0
M  V30 3570 C 600.576 0.491279 -7.02284 0
M  V30 3571 C 599.866 0.996264 -5.77469 0
M  V30 3572 N 599.916 0.0501808 -4.62873 0
M  V30 3573 C 600.066 0.588177 -3.36904 0
M  V30 3574 O 600.156 1.78598 -3.17173 0
M  V30 3575 N 600.106 -0.329694 -2.33686 0
M  V30 3576 C 600.016 -1.6953 -2.45079 0
M  V30 3577 O 600.066 -2.41926 -1.44899 0
M  V30 3578 C 599.866 -2.16933 -3.80505 0
M  V30 3579 C 599.756 -3.65373 -3.97621 0
M  V30 3580 C 599.816 -1.30326 -4.83752 0
M  V30 3581 H 597.076 -0.374722 -8.67691 0
M  V30 3582 H 596.807 -0.443421 -6.90177 0
M  V30 3583 H 597.674 1.75537 -7.96793 0
M  V30 3584 H 600.329 1.94496 -5.46629 0
M  V30 3585 H 600.608 -0.608651 -7.04676 0
M  V30 3586 H 601.6 0.889672 -7.08939 0
M  V30 3587 H 599.766 0.43308 -9.04564 0
M  V30 3588 H 599.695 -1.68366 -5.8516 0
M  V30 3589 H 600.725 -4.05985 -4.30448 0
M  V30 3590 H 598.988 -3.88028 -4.72875 0
M  V30 3591 H 599.476 -4.11381 -3.01609 0
M  V30 3592 H 600.212 0.0393617 -1.41345 0
M  V30 3593 P 601.636 2.75334 -8.47391 0
M  V30 3594 O 601.856 3.84128 -9.44797 0
M  V30 3595 O 602.426 1.51947 -8.68712 0
M  V30 3596 O 601.886 3.29363 -6.99321 0
M  V30 3597 C 600.946 4.24011 -6.4274 0
M  V30 3598 C 601.676 5.20775 -5.52155 0
M  V30 3599 O 601.886 4.56534 -4.22446 0
M  V30 3600 C 603.076 5.62629 -5.96531 0
M  V30 3601 O 603.466 6.87667 -5.41053 0
M  V30 3602 C 603.956 4.52537 -5.39283 0
M  V30 3603 C 603.246 4.20027 -4.08623 0
M  V30 3604 N 603.296 2.76189 -3.71603 0
M  V30 3605 H 600.457 4.797 -7.24003 0
M  V30 3606 H 600.187 3.69856 -5.84513 0
M  V30 3607 H 601.054 6.10356 -5.41441 0
M  V30 3608 P 605.016 7.20834 -5.23717 0
M  V30 3609 O 605.236 8.66189 -5.38625 0
M  V30 3610 O 605.806 6.33615 -6.1356 0
M  V30 3611 O 605.266 6.7751 -3.72168 0
M  V30 3612 C 604.326 7.20732 -2.70725 0
M  V30 3613 C 605.056 7.45864 -1.40599 0
M  V30 3614 O 605.266 6.17651 -0.734225 0
M  V30 3615 C 606.456 8.05808 -1.51899 0
M  V30 3616 O 606.846 8.74358 -0.335205 0
M  V30 3617 C 607.336 6.83093 -1.70294 0
M  V30 3618 C 606.626 5.79992 -0.836974 0
M  V30 3619 N 606.676 4.41769 -1.38263 0
M  V30 3620 C 606.826 3.38591 -0.481702 0
M  V30 3621 O 606.916 3.56839 0.718452 0
M  V30 3622 N 606.866 2.1206 -1.03569 0
M  V30 3623 C 606.776 1.80696 -2.36966 0
M  V30 3624 O 606.826 0.630473 -2.74862 0
M  V30 3625 C 606.626 2.94845 -3.23898 0
M  V30 3626 C 606.516 2.65253 -4.70362 0
M  V30 3627 C 606.576 4.19803 -2.73435 0
M  V30 3628 H 603.836 8.13644 -3.0377 0
M  V30 3629 H 603.567 6.42695 -2.55448 0
M  V30 3630 H 604.434 8.12039 -0.792769 0
M  V30 3631 H 607.089 5.79978 0.160587 0
M  V30 3632 H 607.368 6.51379 -2.75643 0
M  V30 3633 H 608.36 7.01734 -1.34462 0
M  V30 3634 H 606.526 8.73674 -2.38337 0
M  V30 3635 H 606.455 5.04492 -3.4095 0
M  V30 3636 H 607.485 2.83924 -5.1913 0
M  V30 3637 H 605.748 3.29824 -5.15163 0
M  V30 3638 H 606.236 1.59723 -4.84449 0
M  V30 3639 H 606.972 1.35644 -0.399345 0
M  V30 3640 H 606.715 8.17008 0.422618 0
M  V30 3641 H 610.737 -9.01697 3.02546 0
M  V30 3642 O 610.617 -8.19513 3.48153 0
M  V30 3643 P 609.176 -8.03563 3.84925 0
M  V30 3644 O 608.956 -8.85821 5.0569 0
M  V30 3645 O 608.386 -8.41101 2.65469 0
M  V30 3646 O 608.926 -6.4965 4.18908 0
M  V30 3647 C 609.866 -5.81037 5.05421 0
M  V30 3648 C 609.136 -4.78366 5.89277 0
M  V30 3649 O 608.926 -3.58302 5.08433 0
M  V30 3650 C 607.736 -5.17448 6.36119 0
M  V30 3651 O 607.346 -4.45271 7.53232 0
M  V30 3652 C 606.856 -4.74639 5.19936 0
M  V30 3653 C 607.566 -3.49432 4.70418 0
M  V30 3654 N 607.516 -3.32099 3.22613 0
M  V30 3655 C 607.596 -4.28245 2.25527 0
M  V30 3656 N 607.526 -3.80823 1.04874 0
M  V30 3657 C 607.376 -2.44571 1.23535 0
M  V30 3658 C 607.246 -1.37068 0.330675 0
M  V30 3659 N 607.236 -1.51472 -0.990824 0
M  V30 3660 N 607.126 -0.138614 0.848756 0
M  V30 3661 C 607.136 0.00675923 2.16999 0
M  V30 3662 N 607.256 -0.904372 3.11122 0
M  V30 3663 C 607.376 -2.12707 2.56212 0
M  V30 3664 H 610.355 -6.54213 5.71376 0
M  V30 3665 H 610.627 -5.30936 4.43503 0
M  V30 3666 H 609.759 -4.55889 6.76652 0
M  V30 3667 H 607.104 -2.61715 5.17932 0
M  V30 3668 H 606.824 -5.52155 4.41878 0
M  V30 3669 H 605.833 -4.51981 5.53374 0
M  V30 3670 H 607.667 -6.25124 6.55234 0
M  V30 3671 H 607.708 -5.34372 2.47488 0
M  V30 3672 H 607.327 -2.45153 -1.4078 0
M  V30 3673 H 607.138 -0.688422 -1.59911 0
M  V30 3674 H 607.03 1.02584 2.52346 0
M  V30 3675 P 605.796 -4.23843 7.83734 0
M  V30 3676 O 605.576 -4.19407 9.29784 0
M  V30 3677 O 605.006 -5.24426 7.09156 0
M  V30 3678 O 605.546 -2.7935 7.20758 0
M  V30 3679 C 606.486 -1.7299 7.50419 0
M  V30 3680 C 605.756 -0.406376 7.57911 0
M  V30 3681 O 605.546 0.0897726 6.21935 0
M  V30 3682 C 604.356 -0.447224 8.1878 0
M  V30 3683 O 603.966 0.825065 8.71101 0
M  V30 3684 C 603.476 -0.783801 6.99623 0
M  V30 3685 C 604.186 -0.0619192 5.85967 0
M  V30 3686 N 604.136 -0.7859 4.56281 0
M  V30 3687 H 606.975 -1.93423 8.4679 0
M  V30 3688 H 607.247 -1.68181 6.71046 0
M  V30 3689 H 606.379 0.289041 8.15388 0
M  V30 3690 P 602.416 1.17771 8.83182 0
M  V30 3691 O 602.196 2.07206 9.98732 0
M  V30 3692 O 601.626 -0.0743816 8.81969 0
M  V30 3693 O 602.166 1.97652 7.47304 0
M  V30 3694 C 603.106 3.01133 7.08783 0
M  V30 3695 C 602.376 4.12613 6.37049 0
M  V30 3696 O 602.166 3.72827 4.97879 0
M  V30 3697 C 600.976 4.45085 6.88694 0
M  V30 3698 O 600.586 5.7877 6.5624 0
M  V30 3699 C 600.096 3.47817 6.12078 0
M  V30 3700 C 600.806 3.39414 4.77697 0
M  V30 3701 N 600.756 2.04199 4.15538 0
M  V30 3702 C 600.836 0.821545 4.76977 0
M  V30 3703 N 600.766 -0.1794 3.94592 0
M  V30 3704 C 600.616 0.419121 2.70776 0
M  V30 3705 C 600.486 -0.109072 1.40577 0
M  V30 3706 N 600.476 -1.4104 1.1344 0
M  V30 3707 N 600.366 0.764381 0.39411 0
M  V30 3708 C 600.376 2.06587 0.664135 0
M  V30 3709 N 600.496 2.67948 1.82153 0
M  V30 3710 C 600.616 1.77942 2.8147 0
M  V30 3711 H 603.595 3.41248 7.98759 0
M  V30 3712 H 603.867 2.57728 6.42 0
M  V30 3713 H 602.999 5.02657 6.42673 0
M  V30 3714 H 600.344 4.11708 4.08956 0
M  V30 3715 H 600.064 2.49626 6.61679 0
M  V30 3716 H 599.073 3.8662 6.00862 0
M  V30 3717 H 600.907 4.29991 7.97006 0
M  V30 3718 H 600.948 0.702451 5.84696 0
M  V30 3719 H 600.567 -2.09647 1.89651 0
M  V30 3720 H 600.378 -1.73358 0.160575 0
M  V30 3721 H 600.27 2.71695 -0.195838 0
M  V30 3722 P 599.036 6.144 6.45285 0
M  V30 3723 O 598.816 7.54673 6.86199 0
M  V30 3724 O 598.246 5.12391 7.179 0
M  V30 3725 O 598.786 5.99158 4.88404 0
M  V30 3726 C 599.726 6.60234 3.96415 0
M  V30 3727 C 598.996 7.08259 2.72856 0
M  V30 3728 O 598.786 5.9427 1.83651 0
M  V30 3729 C 597.596 7.64886 2.9555 0
M  V30 3730 O 597.206 8.53963 1.90717 0
M  V30 3731 C 596.716 6.4116 2.90739 0
M  V30 3732 C 597.426 5.55375 1.86963 0
M  V30 3733 N 597.376 4.09664 2.15742 0
M  V30 3734 H 600.215 7.45574 4.45629 0
M  V30 3735 H 600.487 5.86232 3.67314 0
M  V30 3736 H 599.619 7.84412 2.24479 0
M  V30 3737 P 595.656 8.7635 1.60911 0
M  V30 3738 O 595.437 10.1388 1.11561 0
M  V30 3739 O 594.866 8.36503 2.79617 0
M  V30 3740 O 595.406 7.71806 0.42951 0
M  V30 3741 C 596.346 7.67148 -0.673689 0
M  V30 3742 C 595.616 7.33374 -1.95559 0
M  V30 3743 O 595.406 5.88721 -2.00726 0
M  V30 3744 C 594.216 7.92526 -2.10483 0
M  V30 3745 O 593.827 8.02971 -3.47653 0
M  V30 3746 C 593.337 6.89602 -1.41652 0
M  V30 3747 C 594.046 5.59201 -1.75185 0
M  V30 3748 N 593.996 4.58235 -0.662552 0
M  V30 3749 H 596.836 8.65116 -0.777161 0
M  V30 3750 H 597.107 6.90173 -0.474152 0
M  V30 3751 H 596.24 7.66548 -2.79458 0
M  V30 3752 P 592.277 8.03563 -3.84925 0
M  V30 3753 O 592.057 8.85821 -5.0569 0
M  V30 3754 O 591.487 8.41101 -2.65469 0
M  V30 3755 O 592.027 6.4965 -4.18908 0
M  V30 3756 C 592.967 5.81037 -5.05421 0
M  V30 3757 C 592.237 4.78366 -5.89277 0
M  V30 3758 O 592.027 3.58302 -5.08433 0
M  V30 3759 C 590.837 5.17448 -6.36119 0
M  V30 3760 O 590.447 4.45271 -7.53232 0
M  V30 3761 C 589.957 4.74639 -5.19936 0
M  V30 3762 C 590.667 3.49432 -4.70418 0
M  V30 3763 N 590.617 3.31776 -3.22945 0
M  V30 3764 H 593.456 6.54213 -5.71376 0
M  V30 3765 H 593.728 5.30492 -4.44033 0
M  V30 3766 H 592.86 4.55889 -6.76652 0
M  V30 3767 P 588.897 4.23843 -7.83734 0
M  V30 3768 O 588.677 4.19407 -9.29784 0
M  V30 3769 O 588.107 5.24426 -7.09156 0
M  V30 3770 O 588.647 2.7935 -7.20758 0
M  V30 3771 C 589.587 1.72945 -7.50224 0
M  V30 3772 C 588.857 0.406376 -7.57911 0
M  V30 3773 O 588.647 -0.0897726 -6.21935 0
M  V30 3774 C 587.457 0.438983 -8.18724 0
M  V30 3775 O 587.067 -0.825065 -8.71101 0
M  V30 3776 C 586.577 0.783689 -6.99524 0
M  V30 3777 C 587.287 0.0619086 -5.85867 0
M  V30 3778 N 587.237 0.78573 -4.56183 0
M  V30 3779 C 587.087 0.0292889 -3.41887 0
M  V30 3780 O 586.997 -1.18445 -3.4419 0
M  V30 3781 N 587.047 0.744061 -2.23964 0
M  V30 3782 C 587.137 2.10932 -2.10362 0
M  V30 3783 C 587.287 2.8202 -3.34994 0
M  V30 3784 C 587.337 2.15547 -4.52261 0
M  V30 3785 H 590.078 1.93379 -8.46595 0
M  V30 3786 H 590.347 1.68132 -6.70852 0
M  V30 3787 H 589.48 -0.289041 -8.15388 0
M  V30 3788 H 586.825 -0.926847 -5.72749 0
M  V30 3789 H 586.546 1.86973 -6.82036 0
M  V30 3790 H 585.554 0.403896 -7.13257 0
M  V30 3791 H 587.388 1.20585 -8.97435 0
M  V30 3792 H 587.459 2.71231 -5.45042 0
M  V30 3793 P 585.517 -1.17771 -8.83182 0
M  V30 3794 O 585.297 -2.07206 -9.98732 0
M  V30 3795 O 584.727 0.0743816 -8.81969 0
M  V30 3796 O 585.267 -1.97652 -7.47304 0
M  V30 3797 C 586.207 -3.01133 -7.08783 0
M  V30 3798 C 585.477 -4.12613 -6.37049 0
M  V30 3799 O 585.267 -3.72827 -4.97879 0
M  V30 3800 C 584.077 -4.45085 -6.88694 0
M  V30 3801 O 583.687 -5.7877 -6.5624 0
M  V30 3802 C 583.197 -3.47817 -6.12078 0
M  V30 3803 C 583.907 -3.39414 -4.77697 0
M  V30 3804 N 583.857 -2.04615 -4.15333 0
M  V30 3805 H 586.696 -3.41248 -7.98759 0
M  V30 3806 H 586.968 -2.5837 -6.41742 0
M  V30 3807 H 586.1 -5.02657 -6.42673 0
M  V30 3808 P 582.137 -6.144 -6.45285 0
M  V30 3809 O 581.917 -7.54673 -6.86199 0
M  V30 3810 O 581.347 -5.12391 -7.179 0
M  V30 3811 O 581.887 -5.99158 -4.88404 0
M  V30 3812 C 582.827 -6.60234 -3.96415 0
M  V30 3813 C 582.097 -7.08259 -2.72856 0
M  V30 3814 O 581.887 -5.9427 -1.83651 0
M  V30 3815 C 580.697 -7.64886 -2.9555 0
M  V30 3816 O 580.307 -8.53963 -1.90717 0
M  V30 3817 C 579.817 -6.4116 -2.90739 0
M  V30 3818 C 580.527 -5.55375 -1.86963 0
M  V30 3819 N 580.477 -4.09664 -2.15742 0
M  V30 3820 C 580.557 -3.44381 -3.37233 0
M  V30 3821 N 580.477 -2.14131 -3.28347 0
M  V30 3822 C 580.337 -1.90247 -1.91588 0
M  V30 3823 C 580.207 -0.683992 -1.20892 0
M  V30 3824 N 580.087 -0.903396 0.173998 0
M  V30 3825 C 580.087 -2.14171 0.784879 0
M  V30 3826 N 579.957 -2.1435 2.11317 0
M  V30 3827 N 580.217 -3.28784 0.119316 0
M  V30 3828 C 580.337 -3.0977 -1.22194 0
M  V30 3829 H 583.316 -7.45574 -4.45629 0
M  V30 3830 H 583.588 -5.86232 -3.67314 0
M  V30 3831 H 582.72 -7.84412 -2.24479 0
M  V30 3832 P 578.757 -8.7635 -1.60911 0
M  V30 3833 O 578.537 -10.1388 -1.11561 0
M  V30 3834 O 577.967 -8.36503 -2.79617 0
M  V30 3835 O 578.507 -7.71806 -0.42951 0
M  V30 3836 C 579.447 -7.67148 0.673689 0
M  V30 3837 C 578.717 -7.33374 1.95559 0
M  V30 3838 O 578.507 -5.88721 2.00726 0
M  V30 3839 C 577.317 -7.92526 2.10483 0
M  V30 3840 O 576.927 -8.02971 3.47653 0
M  V30 3841 C 576.437 -6.89602 1.41652 0
M  V30 3842 C 577.147 -5.59201 1.75185 0
M  V30 3843 N 577.097 -4.58235 0.662552 0
M  V30 3844 H 579.936 -8.65116 0.777161 0
M  V30 3845 H 580.208 -6.90173 0.474152 0
M  V30 3846 H 579.34 -7.66548 2.79458 0
M  V30 3847 P 575.377 -8.03563 3.84925 0
M  V30 3848 O 575.157 -8.85821 5.0569 0
M  V30 3849 O 574.587 -8.41101 2.65469 0
M  V30 3850 O 575.127 -6.49734 4.18962 0
M  V30 3851 C 576.067 -5.81037 5.05421 0
M  V30 3852 C 575.337 -4.79018 5.88876 0
M  V30 3853 O 575.127 -3.58359 5.08515 0
M  V30 3854 C 573.937 -5.17448 6.36119 0
M  V30 3855 O 573.547 -4.45322 7.53318 0
M  V30 3856 C 573.057 -4.74639 5.19936 0
M  V30 3857 C 573.767 -3.49432 4.70418 0
M  V30 3858 N 573.717 -3.31776 3.22945 0
M  V30 3859 C 573.567 -2.02742 2.72939 0
M  V30 3860 O 573.477 -1.08301 3.52749 0
M  V30 3861 N 573.517 -1.96117 1.22063 0
M  V30 3862 C 573.617 -2.8878 0.551566 0
M  V30 3863 N 573.567 -2.65609 -0.750198 0
M  V30 3864 C 573.767 -4.22457 1.03707 0
M  V30 3865 C 573.817 -4.37979 2.39113 0
M  V30 3866 H 576.557 -6.54138 5.7131 0
M  V30 3867 H 576.827 -5.30492 4.44033 0
M  V30 3868 H 575.96 -4.55945 6.76735 0
M  V30 3869 H 573.305 -2.6176 5.18021 0
M  V30 3870 H 573.025 -5.52233 4.41941 0
M  V30 3871 H 572.034 -4.52045 5.53452 0
M  V30 3872 H 573.868 -6.25124 6.55234 0
M  V30 3873 H 573.94 -5.37936 2.80552 0
M  V30 3874 H 573.838 -5.07528 0.359553 0
M  V30 3875 H 573.45 -1.69403 -1.09847 0
M  V30 3876 H 573.646 -3.43701 -1.41792 0
M  V30 3877 P 571.997 -4.23843 7.83734 0
M  V30 3878 O 571.777 -4.19407 9.29784 0
M  V30 3879 O 571.207 -5.24426 7.09156 0
M  V30 3880 O 571.747 -2.7935 7.20758 0
M  V30 3881 C 572.687 -1.7299 7.50419 0
M  V30 3882 C 571.957 -0.406376 7.57911 0
M  V30 3883 O 571.747 0.0897726 6.21935 0
M  V30 3884 C 570.557 -0.447224 8.1878 0
M  V30 3885 O 570.167 0.825065 8.71101 0
M  V30 3886 C 569.677 -0.783801 6.99623 0
M  V30 3887 C 570.387 -0.0619192 5.85967 0
M  V30 3888 N 570.337 -0.7859 4.56281 0
M  V30 3889 H 573.176 -1.93423 8.4679 0
M  V30 3890 H 573.448 -1.68181 6.71046 0
M  V30 3891 H 572.58 0.289041 8.15388 0
M  V30 3892 P 568.617 1.17771 8.83182 0
M  V30 3893 O 568.397 2.07206 9.98732 0
M  V30 3894 O 567.827 -0.0743816 8.81969 0
M  V30 3895 O 568.367 1.97652 7.47304 0
M  V30 3896 C 569.307 3.01133 7.08783 0
M  V30 3897 C 568.577 4.12613 6.37049 0
M  V30 3898 O 568.367 3.72827 4.97879 0
M  V30 3899 C 567.177 4.45085 6.88694 0
M  V30 3900 O 566.787 5.7877 6.5624 0
M  V30 3901 C 566.297 3.47817 6.12078 0
M  V30 3902 C 567.007 3.39414 4.77697 0
M  V30 3903 N 566.957 2.04199 4.15538 0
M  V30 3904 H 569.796 3.41248 7.98759 0
M  V30 3905 H 570.068 2.57728 6.42 0
M  V30 3906 H 569.2 5.02657 6.42673 0
M  V30 3907 H 566.545 4.11708 4.08956 0
M  V30 3908 H 566.265 2.49626 6.61679 0
M  V30 3909 H 565.274 3.8662 6.00862 0
M  V30 3910 H 567.108 4.29991 7.97006 0
M  V30 3911 P 565.237 6.144 6.45285 0
M  V30 3912 O 565.017 7.54673 6.86199 0
M  V30 3913 O 564.447 5.12391 7.179 0
M  V30 3914 O 564.987 5.99158 4.88404 0
M  V30 3915 C 565.927 6.60062 3.96313 0
M  V30 3916 C 565.197 7.08259 2.72856 0
M  V30 3917 O 564.987 5.9427 1.83651 0
M  V30 3918 C 563.797 7.65087 2.94749 0
M  V30 3919 O 563.407 8.53963 1.90717 0
M  V30 3920 C 562.917 6.41069 2.90698 0
M  V30 3921 C 563.627 5.5528 1.86931 0
M  V30 3922 N 563.577 4.09575 2.15696 0
M  V30 3923 C 563.427 3.24249 1.08435 0
M  V30 3924 O 563.337 3.63946 -0.0628747 0
M  V30 3925 N 563.387 1.90009 1.39973 0
M  V30 3926 C 563.477 1.34884 2.65614 0
M  V30 3927 O 563.427 0.123716 2.81728 0
M  V30 3928 C 563.627 2.3145 3.71736 0
M  V30 3929 C 563.737 1.75913 5.10438 0
M  V30 3930 C 563.677 3.63518 3.44754 0
M  V30 3931 H 566.418 7.45402 4.45526 0
M  V30 3932 H 566.687 5.86062 3.67208 0
M  V30 3933 H 565.82 7.84412 2.24479 0
M  V30 3934 H 563.165 5.73358 0.888409 0
M  V30 3935 H 562.886 5.90877 3.88583 0
M  V30 3936 H 561.894 6.65867 2.58821 0
M  V30 3937 H 563.728 8.16248 3.92006 0
M  V30 3938 H 563.799 4.34551 4.26383 0
M  V30 3939 H 562.769 1.85471 5.61775 0
M  V30 3940 H 564.506 2.31364 5.66257 0
M  V30 3941 H 564.018 0.695936 5.05229 0
M  V30 3942 H 563.282 1.26277 0.63625 0
M  V30 3943 P 561.857 8.7635 1.60911 0
M  V30 3944 O 561.637 10.1388 1.11561 0
M  V30 3945 O 561.067 8.36503 2.79617 0
M  V30 3946 O 561.607 7.71806 0.42951 0
M  V30 3947 C 562.547 7.67148 -0.673689 0
M  V30 3948 C 561.817 7.33374 -1.95559 0
M  V30 3949 O 561.607 5.88721 -2.00726 0
M  V30 3950 C 560.417 7.92526 -2.10483 0
M  V30 3951 O 560.027 8.02971 -3.47653 0
M  V30 3952 C 559.537 6.89602 -1.41652 0
M  V30 3953 C 560.247 5.59201 -1.75185 0
M  V30 3954 N 560.197 4.58235 -0.662552 0
M  V30 3955 H 563.036 8.65116 -0.777161 0
M  V30 3956 H 563.308 6.90173 -0.474152 0
M  V30 3957 H 562.44 7.66548 -2.79458 0
M  V30 3958 P 558.477 8.03563 -3.84925 0
M  V30 3959 O 558.257 8.85821 -5.0569 0
M  V30 3960 O 557.687 8.41101 -2.65469 0
M  V30 3961 O 558.227 6.4965 -4.18908 0
M  V30 3962 C 559.167 5.81037 -5.05421 0
M  V30 3963 C 558.437 4.78366 -5.89277 0
M  V30 3964 O 558.227 3.58302 -5.08433 0
M  V30 3965 C 557.037 5.17448 -6.36119 0
M  V30 3966 O 556.647 4.45271 -7.53232 0
M  V30 3967 C 556.157 4.74639 -5.19936 0
M  V30 3968 C 556.867 3.49432 -4.70418 0
M  V30 3969 N 556.817 3.31776 -3.22945 0
M  V30 3970 H 559.656 6.54213 -5.71376 0
M  V30 3971 H 559.928 5.30492 -4.44033 0
M  V30 3972 H 559.06 4.55889 -6.76652 0
M  V30 3973 P 555.097 4.23843 -7.83734 0
M  V30 3974 O 554.877 4.19407 -9.29784 0
M  V30 3975 O 554.307 5.24426 -7.09156 0
M  V30 3976 O 554.847 2.7935 -7.20758 0
M  V30 3977 C 555.787 1.7299 -7.50419 0
M  V30 3978 C 555.057 0.406376 -7.57911 0
M  V30 3979 O 554.847 -0.0897726 -6.21935 0
M  V30 3980 C 553.657 0.447224 -8.1878 0
M  V30 3981 O 553.267 -0.825065 -8.71101 0
M  V30 3982 C 552.777 0.783801 -6.99623 0
M  V30 3983 C 553.487 0.0619192 -5.85967 0
M  V30 3984 N 553.437 0.7859 -4.56281 0
M  V30 3985 H 556.276 1.93423 -8.4679 0
M  V30 3986 H 556.548 1.68181 -6.71046 0
M  V30 3987 H 555.68 -0.289041 -8.15388 0
M  V30 3988 P 551.717 -1.17771 -8.83182 0
M  V30 3989 O 551.497 -2.07206 -9.98732 0
M  V30 3990 O 550.927 0.0743816 -8.81969 0
M  V30 3991 O 551.467 -1.97652 -7.47304 0
M  V30 3992 C 552.407 -3.01133 -7.08783 0
M  V30 3993 C 551.677 -4.12613 -6.37049 0
M  V30 3994 O 551.467 -3.72827 -4.97879 0
M  V30 3995 C 550.277 -4.45085 -6.88694 0
M  V30 3996 O 549.887 -5.7877 -6.5624 0
M  V30 3997 C 549.397 -3.47817 -6.12078 0
M  V30 3998 C 550.107 -3.39414 -4.77697 0
M  V30 3999 N 550.057 -2.04615 -4.15333 0
M  V30 4000 H 552.896 -3.41248 -7.98759 0
M  V30 4001 H 553.168 -2.5837 -6.41742 0
M  V30 4002 H 552.3 -5.02657 -6.42673 0
M  V30 4003 P 548.337 -6.144 -6.45285 0
M  V30 4004 O 548.117 -7.54673 -6.86199 0
M  V30 4005 O 547.547 -5.12391 -7.179 0
M  V30 4006 O 548.087 -5.99158 -4.88404 0
M  V30 4007 C 549.027 -6.60234 -3.96415 0
M  V30 4008 C 548.297 -7.08259 -2.72856 0
M  V30 4009 O 548.087 -5.9427 -1.83651 0
M  V30 4010 C 546.897 -7.64886 -2.9555 0
M  V30 4011 O 546.507 -8.53963 -1.90717 0
M  V30 4012 C 546.017 -6.4116 -2.90739 0
M  V30 4013 C 546.727 -5.55375 -1.86963 0
M  V30 4014 N 546.677 -4.09664 -2.15742 0
M  V30 4015 H 549.516 -7.45574 -4.45629 0
M  V30 4016 H 549.788 -5.86232 -3.67314 0
M  V30 4017 H 548.92 -7.84412 -2.24479 0
M  V30 4018 P 544.957 -8.7635 -1.60911 0
M  V30 4019 O 544.737 -10.1388 -1.11561 0
M  V30 4020 O 544.167 -8.36503 -2.79617 0
M  V30 4021 O 544.707 -7.71806 -0.42951 0
M  V30 4022 C 545.647 -7.67148 0.673689 0
M  V30 4023 C 544.917 -7.33374 1.95559 0
M  V30 4024 O 544.707 -5.88721 2.00726 0
M  V30 4025 C 543.517 -7.92526 2.10483 0
M  V30 4026 O 543.127 -8.02971 3.47653 0
M  V30 4027 C 542.637 -6.89602 1.41652 0
M  V30 4028 C 543.347 -5.59201 1.75185 0
M  V30 4029 N 543.297 -4.58235 0.662552 0
M  V30 4030 H 546.136 -8.65116 0.777161 0
M  V30 4031 H 546.408 -6.90173 0.474152 0
M  V30 4032 H 545.54 -7.66548 2.79458 0
M  V30 4033 P 541.577 -8.03563 3.84925 0
M  V30 4034 O 541.357 -8.85821 5.0569 0
M  V30 4035 O 540.787 -8.41101 2.65469 0
M  V30 4036 O 541.327 -6.4965 4.18908 0
M  V30 4037 C 542.267 -5.80886 5.05289 0
M  V30 4038 C 541.537 -4.78366 5.89277 0
M  V30 4039 O 541.327 -3.58302 5.08433 0
M  V30 4040 C 540.137 -5.16748 6.36559 0
M  V30 4041 O 539.747 -4.45271 7.53232 0
M  V30 4042 C 539.257 -4.74572 5.19863 0
M  V30 4043 C 539.967 -3.49373 4.70338 0
M  V30 4044 N 539.917 -3.31704 3.22876 0
M  V30 4045 C 539.767 -2.03326 2.74871 0
M  V30 4046 O 539.677 -1.06486 3.48076 0
M  V30 4047 N 539.727 -1.91838 1.37456 0
M  V30 4048 C 539.817 -2.94295 0.462035 0
M  V30 4049 O 539.767 -2.71763 -0.752928 0
M  V30 4050 C 539.967 -4.25064 1.05249 0
M  V30 4051 C 540.077 -5.39815 0.095697 0
M  V30 4052 C 540.017 -4.40214 2.39192 0
M  V30 4053 H 542.758 -6.54063 5.71245 0
M  V30 4054 H 543.027 -5.30339 4.43905 0
M  V30 4055 H 542.16 -4.55889 6.76652 0
M  V30 4056 H 539.505 -2.6167 5.17842 0
M  V30 4057 H 539.226 -5.52155 4.41878 0
M  V30 4058 H 538.234 -4.51918 5.53297 0
M  V30 4059 H 540.068 -6.25055 6.55162 0
M  V30 4060 H 540.139 -5.39798 2.81523 0
M  V30 4061 H 539.109 -5.91593 0.0279582 0
M  V30 4062 H 540.846 -6.10038 0.450573 0
M  V30 4063 H 540.358 -5.02007 -0.89937 0
M  V30 4064 H 539.622 -0.995326 1.00435 0
M  V30 4065 P 538.197 -4.23843 7.83734 0
M  V30 4066 O 537.977 -4.19407 9.29784 0
M  V30 4067 O 537.407 -5.24426 7.09156 0
M  V30 4068 O 537.947 -2.7935 7.20758 0
M  V30 4069 C 538.887 -1.7299 7.50419 0
M  V30 4070 C 538.157 -0.406376 7.57911 0
M  V30 4071 O 537.947 0.0897726 6.21935 0
M  V30 4072 C 536.757 -0.447224 8.1878 0
M  V30 4073 O 536.367 0.825065 8.71101 0
M  V30 4074 C 535.877 -0.783801 6.99623 0
M  V30 4075 C 536.587 -0.0619192 5.85967 0
M  V30 4076 N 536.537 -0.7859 4.56281 0
M  V30 4077 H 539.376 -1.93423 8.4679 0
M  V30 4078 H 539.648 -1.68181 6.71046 0
M  V30 4079 H 538.78 0.289041 8.15388 0
M  V30 4080 P 534.817 1.17771 8.83182 0
M  V30 4081 O 534.597 2.07206 9.98732 0
M  V30 4082 O 534.027 -0.0743816 8.81969 0
M  V30 4083 O 534.567 1.97652 7.47304 0
M  V30 4084 C 535.507 3.01133 7.08783 0
M  V30 4085 C 534.777 4.12613 6.37049 0
M  V30 4086 O 534.567 3.72827 4.97879 0
M  V30 4087 C 533.377 4.45085 6.88694 0
M  V30 4088 O 532.987 5.7877 6.5624 0
M  V30 4089 C 532.497 3.47817 6.12078 0
M  V30 4090 C 533.207 3.39414 4.77697 0
M  V30 4091 N 533.157 2.04615 4.15333 0
M  V30 4092 H 535.996 3.41248 7.98759 0
M  V30 4093 H 536.268 2.5837 6.41742 0
M  V30 4094 H 535.4 5.02657 6.42673 0
M  V30 4095 P 531.437 6.144 6.45285 0
M  V30 4096 O 531.217 7.54673 6.86199 0
M  V30 4097 O 530.647 5.12391 7.179 0
M  V30 4098 O 531.187 5.99158 4.88404 0
M  V30 4099 C 532.127 6.60234 3.96415 0
M  V30 4100 C 531.397 7.08259 2.72856 0
M  V30 4101 O 531.187 5.9427 1.83651 0
M  V30 4102 C 529.997 7.64886 2.9555 0
M  V30 4103 O 529.607 8.53963 1.90717 0
M  V30 4104 C 529.117 6.4116 2.90739 0
M  V30 4105 C 529.827 5.55375 1.86963 0
M  V30 4106 N 529.777 4.09448 2.16152 0
M  V30 4107 H 532.616 7.45574 4.45629 0
M  V30 4108 H 532.888 5.85864 3.679 0
M  V30 4109 H 532.02 7.84412 2.24479 0
M  V30 4110 H 529.365 5.73457 0.888562 0
M  V30 4111 H 529.085 5.90877 3.88583 0
M  V30 4112 H 528.094 6.6596 2.58858 0
M  V30 4113 H 529.928 8.16339 3.92049 0
M  V30 4114 P 528.057 8.7635 1.60911 0
M  V30 4115 O 527.837 10.1388 1.11561 0
M  V30 4116 O 527.267 8.36503 2.79617 0
M  V30 4117 O 527.807 7.71806 0.42951 0
M  V30 4118 C 528.747 7.67148 -0.673689 0
M  V30 4119 C 528.017 7.33374 -1.95559 0
M  V30 4120 O 527.807 5.88721 -2.00726 0
M  V30 4121 C 526.617 7.92526 -2.10483 0
M  V30 4122 O 526.227 8.02971 -3.47653 0
M  V30 4123 C 525.737 6.89602 -1.41652 0
M  V30 4124 C 526.447 5.59201 -1.75185 0
M  V30 4125 N 526.397 4.58235 -0.662552 0
M  V30 4126 H 529.236 8.65116 -0.777161 0
M  V30 4127 H 529.508 6.90173 -0.474152 0
M  V30 4128 H 528.64 7.66548 -2.79458 0
M  V30 4129 P 524.677 8.03563 -3.84925 0
M  V30 4130 O 524.457 8.85821 -5.0569 0
M  V30 4131 O 523.887 8.41101 -2.65469 0
M  V30 4132 O 524.427 6.4965 -4.18908 0
M  V30 4133 C 525.367 5.81037 -5.05421 0
M  V30 4134 C 524.637 4.78366 -5.89277 0
M  V30 4135 O 524.427 3.58302 -5.08433 0
M  V30 4136 C 523.237 5.17448 -6.36119 0
M  V30 4137 O 522.847 4.45271 -7.53232 0
M  V30 4138 C 522.357 4.74639 -5.19936 0
M  V30 4139 C 523.067 3.49432 -4.70418 0
M  V30 4140 N 523.017 3.32099 -3.22613 0
M  V30 4141 H 525.856 6.54213 -5.71376 0
M  V30 4142 H 526.128 5.30936 -4.43503 0
M  V30 4143 H 525.26 4.55889 -6.76652 0
M  V30 4144 H 522.605 2.61715 -5.17932 0
M  V30 4145 H 522.325 5.52155 -4.41878 0
M  V30 4146 H 521.334 4.51981 -5.53374 0
M  V30 4147 H 523.168 6.25124 -6.55234 0
M  V30 4148 P 521.297 4.23843 -7.83734 0
M  V30 4149 O 521.077 4.19407 -9.29784 0
M  V30 4150 O 520.507 5.24426 -7.09156 0
M  V30 4151 O 521.047 2.7935 -7.20758 0
M  V30 4152 C 521.987 1.72945 -7.50224 0
M  V30 4153 C 521.257 0.406376 -7.57911 0
M  V30 4154 O 521.047 -0.0897726 -6.21935 0
M  V30 4155 C 519.857 0.438983 -8.18724 0
M  V30 4156 O 519.467 -0.825065 -8.71101 0
M  V30 4157 C 518.977 0.783689 -6.99524 0
M  V30 4158 C 519.687 0.0619086 -5.85867 0
M  V30 4159 N 519.637 0.78573 -4.56183 0
M  V30 4160 C 519.487 0.0292889 -3.41887 0
M  V30 4161 O 519.397 -1.18445 -3.4419 0
M  V30 4162 N 519.447 0.744061 -2.23964 0
M  V30 4163 C 519.537 2.10932 -2.10362 0
M  V30 4164 C 519.687 2.8202 -3.34994 0
M  V30 4165 C 519.737 2.15547 -4.52261 0
M  V30 4166 H 522.478 1.93379 -8.46595 0
M  V30 4167 H 522.747 1.68132 -6.70852 0
M  V30 4168 H 521.88 -0.289041 -8.15388 0
M  V30 4169 H 519.225 -0.926847 -5.72749 0
M  V30 4170 H 518.946 1.86973 -6.82036 0
M  V30 4171 H 517.954 0.403896 -7.13257 0
M  V30 4172 H 519.788 1.20585 -8.97435 0
M  V30 4173 H 519.859 2.71231 -5.45042 0
M  V30 4174 P 517.917 -1.17771 -8.83182 0
M  V30 4175 O 517.697 -2.07206 -9.98732 0
M  V30 4176 O 517.127 0.0743816 -8.81969 0
M  V30 4177 O 517.667 -1.97652 -7.47304 0
M  V30 4178 C 518.607 -3.01133 -7.08783 0
M  V30 4179 C 517.877 -4.12613 -6.37049 0
M  V30 4180 O 517.667 -3.72827 -4.97879 0
M  V30 4181 C 516.477 -4.45085 -6.88694 0
M  V30 4182 O 516.087 -5.7877 -6.5624 0
M  V30 4183 C 515.597 -3.47817 -6.12078 0
M  V30 4184 C 516.307 -3.39414 -4.77697 0
M  V30 4185 N 516.257 -2.04615 -4.15333 0
M  V30 4186 C 516.337 -0.803897 -4.75249 0
M  V30 4187 N 516.257 0.197615 -3.91502 0
M  V30 4188 C 516.117 -0.413002 -2.66823 0
M  V30 4189 C 515.987 0.157221 -1.38007 0
M  V30 4190 O 515.967 1.34419 -1.057 0
M  V30 4191 N 515.867 -0.833136 -0.390236 0
M  V30 4192 C 515.867 -2.19402 -0.623885 0
M  V30 4193 N 515.737 -2.97622 0.449677 0
M  V30 4194 N 515.997 -2.73005 -1.83601 0
M  V30 4195 C 516.117 -1.78786 -2.80935 0
M  V30 4196 H 519.096 -3.41248 -7.98759 0
M  V30 4197 H 519.368 -2.5837 -6.41742 0
M  V30 4198 H 518.5 -5.02657 -6.42673 0
M  V30 4199 H 515.845 -4.11779 -4.09026 0
M  V30 4200 H 515.565 -2.49661 -6.61772 0
M  V30 4201 H 514.574 -3.86674 -6.00946 0
M  V30 4202 H 516.408 -4.30038 -7.97094 0
M  V30 4203 H 516.457 -0.670579 -5.82754 0
M  V30 4204 H 515.775 -0.528446 0.557287 0
M  V30 4205 H 515.738 -4.00117 0.344773 0
M  V30 4206 H 515.637 -2.55448 1.38544 0
M  V30 4207 P 514.537 -6.144 -6.45285 0
M  V30 4208 O 514.317 -7.54673 -6.86199 0
M  V30 4209 O 513.747 -5.12391 -7.179 0
M  V30 4210 O 514.287 -5.99158 -4.88404 0
M  V30 4211 C 515.227 -6.60234 -3.96415 0
M  V30 4212 C 514.497 -7.08259 -2.72856 0
M  V30 4213 O 514.287 -5.9427 -1.83651 0
M  V30 4214 C 513.097 -7.64886 -2.9555 0
M  V30 4215 O 512.707 -8.53963 -1.90717 0
M  V30 4216 C 512.217 -6.4116 -2.90739 0
M  V30 4217 C 512.927 -5.55375 -1.86963 0
M  V30 4218 N 512.877 -4.09448 -2.16152 0
M  V30 4219 H 515.716 -7.45574 -4.45629 0
M  V30 4220 H 515.988 -5.85864 -3.679 0
M  V30 4221 H 515.12 -7.84412 -2.24479 0
M  V30 4222 H 512.465 -5.73457 -0.888562 0
M  V30 4223 H 512.185 -5.90877 -3.88583 0
M  V30 4224 H 511.194 -6.6596 -2.58858 0
M  V30 4225 H 513.028 -8.16339 -3.92049 0
M  V30 4226 P 511.157 -8.7635 -1.60911 0
M  V30 4227 O 510.937 -10.1388 -1.11561 0
M  V30 4228 O 510.367 -8.36503 -2.79617 0
M  V30 4229 O 510.907 -7.71806 -0.42951 0
M  V30 4230 C 511.847 -7.67148 0.673689 0
M  V30 4231 C 511.117 -7.33374 1.95559 0
M  V30 4232 O 510.907 -5.88721 2.00726 0
M  V30 4233 C 509.717 -7.92526 2.10483 0
M  V30 4234 O 509.327 -8.02971 3.47653 0
M  V30 4235 C 508.837 -6.89602 1.41652 0
M  V30 4236 C 509.547 -5.59201 1.75185 0
M  V30 4237 N 509.497 -4.58235 0.662552 0
M  V30 4238 H 512.336 -8.65116 0.777161 0
M  V30 4239 H 512.608 -6.90173 0.474152 0
M  V30 4240 H 511.74 -7.66548 2.79458 0
M  V30 4241 P 507.777 -8.03563 3.84925 0
M  V30 4242 O 507.557 -8.85821 5.0569 0
M  V30 4243 O 506.987 -8.41101 2.65469 0
M  V30 4244 O 507.527 -6.4965 4.18908 0
M  V30 4245 C 508.467 -5.81037 5.05421 0
M  V30 4246 C 507.737 -4.78366 5.89277 0
M  V30 4247 O 507.527 -3.58302 5.08433 0
M  V30 4248 C 506.337 -5.17448 6.36119 0
M  V30 4249 O 505.947 -4.45271 7.53232 0
M  V30 4250 C 505.457 -4.74639 5.19936 0
M  V30 4251 C 506.167 -3.49432 4.70418 0
M  V30 4252 N 506.117 -3.32099 3.22613 0
M  V30 4253 C 506.197 -4.28245 2.25527 0
M  V30 4254 N 506.127 -3.80823 1.04874 0
M  V30 4255 C 505.977 -2.44571 1.23535 0
M  V30 4256 C 505.847 -1.37068 0.330675 0
M  V30 4257 N 505.837 -1.51472 -0.990824 0
M  V30 4258 N 505.727 -0.138614 0.848756 0
M  V30 4259 C 505.737 0.00675923 2.16999 0
M  V30 4260 N 505.857 -0.904372 3.11122 0
M  V30 4261 C 505.977 -2.12707 2.56212 0
M  V30 4262 H 508.956 -6.54213 5.71376 0
M  V30 4263 H 509.228 -5.30936 4.43503 0
M  V30 4264 H 508.36 -4.55889 6.76652 0
M  V30 4265 H 505.705 -2.61715 5.17932 0
M  V30 4266 H 505.425 -5.52155 4.41878 0
M  V30 4267 H 504.434 -4.51981 5.53374 0
M  V30 4268 H 506.268 -6.25124 6.55234 0
M  V30 4269 H 506.309 -5.34372 2.47488 0
M  V30 4270 H 505.928 -2.45153 -1.4078 0
M  V30 4271 H 505.739 -0.688422 -1.59911 0
M  V30 4272 H 505.631 1.02584 2.52346 0
M  V30 4273 P 504.397 -4.23843 7.83734 0
M  V30 4274 O 504.177 -4.19407 9.29784 0
M  V30 4275 O 503.607 -5.24426 7.09156 0
M  V30 4276 O 504.147 -2.7935 7.20758 0
M  V30 4277 C 505.087 -1.7299 7.50419 0
M  V30 4278 C 504.357 -0.406376 7.57911 0
M  V30 4279 O 504.147 0.0897726 6.21935 0
M  V30 4280 C 502.957 -0.447224 8.1878 0
M  V30 4281 O 502.567 0.825065 8.71101 0
M  V30 4282 C 502.077 -0.783801 6.99623 0
M  V30 4283 C 502.787 -0.0619192 5.85967 0
M  V30 4284 N 502.737 -0.790462 4.56202 0
M  V30 4285 H 505.576 -1.93423 8.4679 0
M  V30 4286 H 505.848 -1.68852 6.70877 0
M  V30 4287 H 504.98 0.289041 8.15388 0
M  V30 4288 H 502.325 0.927006 5.72848 0
M  V30 4289 H 502.045 -1.86973 6.82036 0
M  V30 4290 H 501.054 -0.403953 7.13357 0
M  V30 4291 H 502.888 -1.20599 8.97534 0
M  V30 4292 P 501.017 1.17771 8.83182 0
M  V30 4293 O 500.797 2.07206 9.98732 0
M  V30 4294 O 500.227 -0.0743816 8.81969 0
M  V30 4295 O 500.767 1.97652 7.47304 0
M  V30 4296 C 501.707 3.01133 7.08783 0
M  V30 4297 C 500.977 4.12613 6.37049 0
M  V30 4298 O 500.767 3.72827 4.97879 0
M  V30 4299 C 499.577 4.45085 6.88694 0
M  V30 4300 O 499.187 5.7877 6.5624 0
M  V30 4301 C 498.697 3.47817 6.12078 0
M  V30 4302 C 499.407 3.39414 4.77697 0
M  V30 4303 N 499.357 2.04199 4.15538 0
M  V30 4304 H 502.196 3.41248 7.98759 0
M  V30 4305 H 502.468 2.57728 6.42 0
M  V30 4306 H 501.6 5.02657 6.42673 0
M  V30 4307 H 498.945 4.11708 4.08956 0
M  V30 4308 H 498.665 2.49626 6.61679 0
M  V30 4309 H 497.674 3.8662 6.00862 0
M  V30 4310 H 499.508 4.29991 7.97006 0
M  V30 4311 P 497.637 6.144 6.45285 0
M  V30 4312 O 497.417 7.54673 6.86199 0
M  V30 4313 O 496.847 5.12391 7.179 0
M  V30 4314 O 497.387 5.99158 4.88404 0
M  V30 4315 C 498.327 6.60062 3.96313 0
M  V30 4316 C 497.597 7.08259 2.72856 0
M  V30 4317 O 497.387 5.9427 1.83651 0
M  V30 4318 C 496.197 7.65087 2.94749 0
M  V30 4319 O 495.807 8.53963 1.90717 0
M  V30 4320 C 495.317 6.41069 2.90698 0
M  V30 4321 C 496.027 5.5528 1.86931 0
M  V30 4322 N 495.977 4.09575 2.15696 0
M  V30 4323 C 495.827 3.24249 1.08435 0
M  V30 4324 O 495.737 3.63946 -0.0628747 0
M  V30 4325 N 495.787 1.90009 1.39973 0
M  V30 4326 C 495.877 1.34884 2.65614 0
M  V30 4327 O 495.827 0.123716 2.81728 0
M  V30 4328 C 496.027 2.3145 3.71736 0
M  V30 4329 C 496.137 1.75913 5.10438 0
M  V30 4330 C 496.077 3.63518 3.44754 0
M  V30 4331 H 498.818 7.45402 4.45526 0
M  V30 4332 H 499.087 5.86062 3.67208 0
M  V30 4333 H 498.22 7.84412 2.24479 0
M  V30 4334 H 495.565 5.73358 0.888409 0
M  V30 4335 H 495.286 5.90877 3.88583 0
M  V30 4336 H 494.294 6.65867 2.58821 0
M  V30 4337 H 496.128 8.16248 3.92006 0
M  V30 4338 H 496.199 4.34551 4.26383 0
M  V30 4339 H 495.169 1.85471 5.61775 0
M  V30 4340 H 496.906 2.31364 5.66257 0
M  V30 4341 H 496.418 0.695936 5.05229 0
M  V30 4342 H 495.682 1.26277 0.63625 0
M  V30 4343 P 494.257 8.7635 1.60911 0
M  V30 4344 O 494.037 10.1388 1.11561 0
M  V30 4345 O 493.467 8.36503 2.79617 0
M  V30 4346 O 494.007 7.71806 0.42951 0
M  V30 4347 C 494.947 7.66948 -0.673514 0
M  V30 4348 C 494.217 7.33374 -1.95559 0
M  V30 4349 O 494.007 5.88721 -2.00726 0
M  V30 4350 C 492.817 7.92218 -2.1125 0
M  V30 4351 O 492.427 8.02971 -3.47653 0
M  V30 4352 C 491.937 6.89504 -1.41631 0
M  V30 4353 C 492.647 5.59106 -1.75155 0
M  V30 4354 N 492.597 4.58136 -0.662409 0
M  V30 4355 C 492.447 3.26059 -1.02863 0
M  V30 4356 O 492.357 2.90743 -2.19009 0
M  V30 4357 N 492.407 2.35995 0.0155585 0
M  V30 4358 C 492.497 2.65248 1.35603 0
M  V30 4359 O 492.447 1.75605 2.20651 0
M  V30 4360 C 492.647 4.05747 1.64698 0
M  V30 4361 C 492.757 4.42345 3.09553 0
M  V30 4362 C 492.697 4.96734 0.652411 0
M  V30 4363 H 495.438 8.64917 -0.776982 0
M  V30 4364 H 495.707 6.89974 -0.474015 0
M  V30 4365 H 494.84 7.66548 -2.79458 0
M  V30 4366 H 492.185 5.16076 -2.65138 0
M  V30 4367 H 491.906 7.06433 -0.329384 0
M  V30 4368 H 490.914 6.90829 -1.81996 0
M  V30 4369 H 492.748 8.90774 -1.62639 0
M  V30 4370 H 492.819 6.02181 0.895285 0
M  V30 4371 H 491.789 4.80252 3.45468 0
M  V30 4372 H 493.526 5.20015 3.22119 0
M  V30 4373 H 493.038 3.53269 3.67833 0
M  V30 4374 H 492.302 1.39558 -0.227499 0
M  V30 4375 P 490.877 8.03563 -3.84925 0
M  V30 4376 O 490.657 8.85821 -5.0569 0
M  V30 4377 O 490.087 8.41101 -2.65469 0
M  V30 4378 O 490.627 6.4965 -4.18908 0
M  V30 4379 C 491.567 5.81037 -5.05421 0
M  V30 4380 C 490.837 4.78366 -5.89277 0
M  V30 4381 O 490.627 3.58302 -5.08433 0
M  V30 4382 C 489.437 5.17448 -6.36119 0
M  V30 4383 O 489.047 4.45271 -7.53232 0
M  V30 4384 C 488.557 4.74639 -5.19936 0
M  V30 4385 C 489.267 3.49432 -4.70418 0
M  V30 4386 N 489.217 3.31776 -3.22945 0
M  V30 4387 H 492.056 6.54213 -5.71376 0
M  V30 4388 H 492.328 5.30492 -4.44033 0
M  V30 4389 H 491.46 4.55889 -6.76652 0
M  V30 4390 P 487.497 4.23843 -7.83734 0
M  V30 4391 O 487.277 4.19407 -9.29784 0
M  V30 4392 O 486.707 5.24426 -7.09156 0
M  V30 4393 O 487.247 2.79386 -7.20852 0
M  V30 4394 C 488.187 1.7299 -7.50419 0
M  V30 4395 C 487.457 0.41401 -7.5797 0
M  V30 4396 O 487.247 -0.089787 -6.22035 0
M  V30 4397 C 486.057 0.447224 -8.1878 0
M  V30 4398 O 485.667 -0.825159 -8.71201 0
M  V30 4399 C 485.177 0.783801 -6.99623 0
M  V30 4400 C 485.887 0.0619192 -5.85967 0
M  V30 4401 N 485.837 0.7859 -4.56281 0
M  V30 4402 C 485.687 0.0359258 -3.39981 0
M  V30 4403 O 485.597 -1.19723 -3.49038 0
M  V30 4404 N 485.637 0.869151 -2.14025 0
M  V30 4405 C 485.737 2.01207 -2.14363 0
M  V30 4406 N 485.687 2.58978 -0.954287 0
M  V30 4407 C 485.887 2.80817 -3.32215 0
M  V30 4408 C 485.937 2.13785 -4.50884 0
M  V30 4409 H 488.677 1.93401 -8.46693 0
M  V30 4410 H 488.947 1.68181 -6.71046 0
M  V30 4411 H 488.08 -0.289076 -8.15488 0
M  V30 4412 H 485.425 -0.927166 -5.72947 0
M  V30 4413 H 485.145 1.87 -6.82132 0
M  V30 4414 H 484.154 0.404009 -7.13457 0
M  V30 4415 H 485.988 1.20599 -8.97534 0
M  V30 4416 H 486.06 2.70295 -5.43162 0
M  V30 4417 H 485.958 3.89465 -3.27406 0
M  V30 4418 H 485.57 2.01616 -0.107046 0
M  V30 4419 H 485.766 3.61403 -0.873101 0
M  V30 4420 P 484.117 -1.17771 -8.83182 0
M  V30 4421 O 483.897 -2.07206 -9.98732 0
M  V30 4422 O 483.327 0.0743816 -8.81969 0
M  V30 4423 O 483.867 -1.97652 -7.47304 0
M  V30 4424 C 484.807 -3.01133 -7.08783 0
M  V30 4425 C 484.077 -4.12613 -6.37049 0
M  V30 4426 O 483.867 -3.72827 -4.97879 0
M  V30 4427 C 482.677 -4.45085 -6.88694 0
M  V30 4428 O 482.287 -5.7877 -6.5624 0
M  V30 4429 C 481.797 -3.47817 -6.12078 0
M  V30 4430 C 482.507 -3.39414 -4.77697 0
M  V30 4431 N 482.457 -2.04615 -4.15333 0
M  V30 4432 H 485.296 -3.41248 -7.98759 0
M  V30 4433 H 485.568 -2.5837 -6.41742 0
M  V30 4434 H 484.7 -5.02657 -6.42673 0
M  V30 4435 P 480.737 -6.144 -6.45285 0
M  V30 4436 O 480.517 -7.54673 -6.86199 0
M  V30 4437 O 479.947 -5.12391 -7.179 0
M  V30 4438 O 480.487 -5.99236 -4.88467 0
M  V30 4439 C 481.427 -6.60234 -3.96415 0
M  V30 4440 C 480.697 -7.08079 -2.736 0
M  V30 4441 O 480.487 -5.94365 -1.8368 0
M  V30 4442 C 479.297 -7.64886 -2.9555 0
M  V30 4443 O 478.907 -8.5406 -1.90739 0
M  V30 4444 C 478.417 -6.4116 -2.90739 0
M  V30 4445 C 479.127 -5.55375 -1.86963 0
M  V30 4446 N 479.077 -4.09664 -2.15742 0
M  V30 4447 C 478.927 -3.22231 -1.08477 0
M  V30 4448 O 478.837 -3.68951 0.0600489 0
M  V30 4449 N 478.877 -1.76692 -1.48799 0
M  V30 4450 C 478.977 -1.41695 -2.57602 0
M  V30 4451 N 478.927 -0.107296 -2.75791 0
M  V30 4452 C 479.127 -2.29178 -3.69733 0
M  V30 4453 C 479.177 -3.62753 -3.42653 0
M  V30 4454 H 481.917 -7.45488 -4.45578 0
M  V30 4455 H 482.187 -5.86232 -3.67314 0
M  V30 4456 H 481.32 -7.84508 -2.24507 0
M  V30 4457 H 478.665 -5.73556 -0.888715 0
M  V30 4458 H 478.385 -5.9096 -3.88638 0
M  V30 4459 H 477.394 -6.66053 -2.58894 0
M  V30 4460 H 479.228 -8.16339 -3.92049 0
M  V30 4461 H 479.3 -4.33052 -4.24913 0
M  V30 4462 H 479.198 -1.9103 -4.71577 0
M  V30 4463 H 478.81 0.521221 -1.95056 0
M  V30 4464 H 479.006 0.286429 -3.70695 0
M  V30 4465 P 477.357 -8.7635 -1.60911 0
M  V30 4466 O 477.137 -10.1388 -1.11561 0
M  V30 4467 O 476.567 -8.36503 -2.79617 0
M  V30 4468 O 477.107 -7.71806 -0.42951 0
M  V30 4469 C 478.047 -7.67148 0.673689 0
M  V30 4470 C 477.317 -7.33374 1.95559 0
M  V30 4471 O 477.107 -5.88721 2.00726 0
M  V30 4472 C 475.917 -7.92526 2.10483 0
M  V30 4473 O 475.527 -8.02971 3.47653 0
M  V30 4474 C 475.037 -6.89602 1.41652 0
M  V30 4475 C 475.747 -5.59201 1.75185 0
M  V30 4476 N 475.697 -4.58235 0.662552 0
M  V30 4477 H 478.536 -8.65116 0.777161 0
M  V30 4478 H 478.808 -6.90173 0.474152 0
M  V30 4479 H 477.94 -7.66548 2.79458 0
M  V30 4480 P 473.977 -8.03563 3.84925 0
M  V30 4481 O 473.757 -8.85821 5.0569 0
M  V30 4482 O 473.187 -8.41101 2.65469 0
M  V30 4483 O 473.727 -6.4965 4.18908 0
M  V30 4484 C 474.667 -5.81037 5.05421 0
M  V30 4485 C 473.937 -4.78366 5.89277 0
M  V30 4486 O 473.727 -3.58302 5.08433 0
M  V30 4487 C 472.537 -5.17448 6.36119 0
M  V30 4488 O 472.147 -4.45271 7.53232 0
M  V30 4489 C 471.657 -4.74639 5.19936 0
M  V30 4490 C 472.367 -3.49432 4.70418 0
M  V30 4491 N 472.317 -3.31776 3.22945 0
M  V30 4492 H 475.156 -6.54213 5.71376 0
M  V30 4493 H 475.428 -5.30492 4.44033 0
M  V30 4494 H 474.56 -4.55889 6.76652 0
M  V30 4495 P 470.597 -4.23843 7.83734 0
M  V30 4496 O 470.377 -4.19407 9.29784 0
M  V30 4497 O 469.807 -5.24426 7.09156 0
M  V30 4498 O 470.347 -2.7935 7.20758 0
M  V30 4499 C 471.287 -1.7299 7.50419 0
M  V30 4500 C 470.557 -0.406376 7.57911 0
M  V30 4501 O 470.347 0.0897726 6.21935 0
M  V30 4502 C 469.157 -0.447224 8.1878 0
M  V30 4503 O 468.767 0.825065 8.71101 0
M  V30 4504 C 468.277 -0.783801 6.99623 0
M  V30 4505 C 468.987 -0.0619192 5.85967 0
M  V30 4506 N 468.937 -0.7859 4.56281 0
M  V30 4507 H 471.776 -1.93423 8.4679 0
M  V30 4508 H 472.048 -1.68181 6.71046 0
M  V30 4509 H 471.18 0.289041 8.15388 0
M  V30 4510 P 467.217 1.17771 8.83182 0
M  V30 4511 O 466.997 2.07206 9.98732 0
M  V30 4512 O 466.427 -0.0743816 8.81969 0
M  V30 4513 O 466.967 1.97652 7.47304 0
M  V30 4514 C 467.907 3.01133 7.08783 0
M  V30 4515 C 467.177 4.12613 6.37049 0
M  V30 4516 O 466.967 3.72827 4.97879 0
M  V30 4517 C 465.777 4.45085 6.88694 0
M  V30 4518 O 465.387 5.7877 6.5624 0
M  V30 4519 C 464.897 3.47817 6.12078 0
M  V30 4520 C 465.607 3.39414 4.77697 0
M  V30 4521 N 465.557 2.04199 4.15538 0
M  V30 4522 H 468.396 3.41248 7.98759 0
M  V30 4523 H 468.668 2.57728 6.42 0
M  V30 4524 H 467.8 5.02657 6.42673 0
M  V30 4525 H 465.145 4.11708 4.08956 0
M  V30 4526 H 464.865 2.49626 6.61679 0
M  V30 4527 H 463.874 3.8662 6.00862 0
M  V30 4528 H 465.708 4.29991 7.97006 0
M  V30 4529 P 463.837 6.144 6.45285 0
M  V30 4530 O 463.617 7.54673 6.86199 0
M  V30 4531 O 463.047 5.12391 7.179 0
M  V30 4532 O 463.587 5.99158 4.88404 0
M  V30 4533 C 464.527 6.60062 3.96313 0
M  V30 4534 C 463.797 7.08259 2.72856 0
M  V30 4535 O 463.587 5.9427 1.83651 0
M  V30 4536 C 462.397 7.65087 2.94749 0
M  V30 4537 O 462.007 8.53963 1.90717 0
M  V30 4538 C 461.517 6.41069 2.90698 0
M  V30 4539 C 462.227 5.5528 1.86931 0
M  V30 4540 N 462.177 4.09575 2.15696 0
M  V30 4541 C 462.027 3.24249 1.08435 0
M  V30 4542 O 461.937 3.63946 -0.0628747 0
M  V30 4543 N 461.987 1.90009 1.39973 0
M  V30 4544 C 462.077 1.34884 2.65614 0
M  V30 4545 O 462.027 0.123716 2.81728 0
M  V30 4546 C 462.227 2.3145 3.71736 0
M  V30 4547 C 462.337 1.75913 5.10438 0
M  V30 4548 C 462.277 3.63518 3.44754 0
M  V30 4549 H 465.018 7.45402 4.45526 0
M  V30 4550 H 465.287 5.86062 3.67208 0
M  V30 4551 H 464.42 7.84412 2.24479 0
M  V30 4552 H 461.765 5.73358 0.888409 0
M  V30 4553 H 461.486 5.90877 3.88583 0
M  V30 4554 H 460.494 6.65867 2.58821 0
M  V30 4555 H 462.328 8.16248 3.92006 0
M  V30 4556 H 462.399 4.34551 4.26383 0
M  V30 4557 H 461.369 1.85471 5.61775 0
M  V30 4558 H 463.106 2.31364 5.66257 0
M  V30 4559 H 462.618 0.695936 5.05229 0
M  V30 4560 H 461.882 1.26277 0.63625 0
M  V30 4561 P 460.457 8.7635 1.60911 0
M  V30 4562 O 460.237 10.1388 1.11561 0
M  V30 4563 O 459.667 8.36503 2.79617 0
M  V30 4564 O 460.207 7.71806 0.42951 0
M  V30 4565 C 461.147 7.67148 -0.673689 0
M  V30 4566 C 460.417 7.33374 -1.95559 0
M  V30 4567 O 460.207 5.88721 -2.00726 0
M  V30 4568 C 459.017 7.92526 -2.10483 0
M  V30 4569 O 458.627 8.02971 -3.47653 0
M  V30 4570 C 458.137 6.89602 -1.41652 0
M  V30 4571 C 458.847 5.59201 -1.75185 0
M  V30 4572 N 458.797 4.58235 -0.662552 0
M  V30 4573 H 461.636 8.65116 -0.777161 0
M  V30 4574 H 461.908 6.90173 -0.474152 0
M  V30 4575 H 461.04 7.66548 -2.79458 0
M  V30 4576 P 457.077 8.03563 -3.84925 0
M  V30 4577 O 456.857 8.85821 -5.0569 0
M  V30 4578 O 456.287 8.41101 -2.65469 0
M  V30 4579 O 456.827 6.4965 -4.18908 0
M  V30 4580 C 457.767 5.81037 -5.05421 0
M  V30 4581 C 457.037 4.78366 -5.89277 0
M  V30 4582 O 456.827 3.58302 -5.08433 0
M  V30 4583 C 455.637 5.17448 -6.36119 0
M  V30 4584 O 455.247 4.45271 -7.53232 0
M  V30 4585 C 454.757 4.74639 -5.19936 0
M  V30 4586 C 455.467 3.49432 -4.70418 0
M  V30 4587 N 455.417 3.32099 -3.22613 0
M  V30 4588 H 458.256 6.54213 -5.71376 0
M  V30 4589 H 458.528 5.30936 -4.43503 0
M  V30 4590 H 457.66 4.55889 -6.76652 0
M  V30 4591 H 455.005 2.61715 -5.17932 0
M  V30 4592 H 454.725 5.52155 -4.41878 0
M  V30 4593 H 453.734 4.51981 -5.53374 0
M  V30 4594 H 455.568 6.25124 -6.55234 0
M  V30 4595 P 453.697 4.23843 -7.83734 0
M  V30 4596 O 453.477 4.19407 -9.29784 0
M  V30 4597 O 452.907 5.24426 -7.09156 0
M  V30 4598 O 453.447 2.7935 -7.20758 0
M  V30 4599 C 454.387 1.7299 -7.50419 0
M  V30 4600 C 453.657 0.406376 -7.57911 0
M  V30 4601 O 453.447 -0.0897726 -6.21935 0
M  V30 4602 C 452.257 0.447224 -8.1878 0
M  V30 4603 O 451.867 -0.825065 -8.71101 0
M  V30 4604 C 451.377 0.783801 -6.99623 0
M  V30 4605 C 452.087 0.0619192 -5.85967 0
M  V30 4606 N 452.037 0.7859 -4.56281 0
M  V30 4607 C 452.117 2.14308 -4.31736 0
M  V30 4608 N 452.037 2.46106 -3.05116 0
M  V30 4609 C 451.897 1.23422 -2.4014 0
M  V30 4610 C 451.767 0.938381 -1.02409 0
M  V30 4611 N 451.647 -0.444647 -0.805413 0
M  V30 4612 C 451.647 -1.40829 -1.79435 0
M  V30 4613 N 451.517 -2.67213 -1.38558 0
M  V30 4614 N 451.777 -1.12947 -3.09005 0
M  V30 4615 C 451.897 0.204887 -3.32369 0
M  V30 4616 H 454.876 1.93423 -8.4679 0
M  V30 4617 H 455.148 1.68181 -6.71046 0
M  V30 4618 H 454.28 -0.289041 -8.15388 0
M  V30 4619 P 450.317 -1.17771 -8.83182 0
M  V30 4620 O 450.097 -2.07206 -9.98732 0
M  V30 4621 O 449.527 0.0743816 -8.81969 0
M  V30 4622 O 450.067 -1.97652 -7.47304 0
M  V30 4623 C 451.007 -3.01133 -7.08783 0
M  V30 4624 C 450.277 -4.12613 -6.37049 0
M  V30 4625 O 450.067 -3.72827 -4.97879 0
M  V30 4626 C 448.877 -4.45085 -6.88694 0
M  V30 4627 O 448.487 -5.7877 -6.5624 0
M  V30 4628 C 447.997 -3.47817 -6.12078 0
M  V30 4629 C 448.707 -3.39414 -4.77697 0
M  V30 4630 N 448.657 -2.04615 -4.15333 0
M  V30 4631 H 451.496 -3.41248 -7.98759 0
M  V30 4632 H 451.768 -2.5837 -6.41742 0
M  V30 4633 H 450.9 -5.02657 -6.42673 0
M  V30 4634 P 446.937 -6.144 -6.45285 0
M  V30 4635 O 446.717 -7.54673 -6.86199 0
M  V30 4636 O 446.147 -5.12391 -7.179 0
M  V30 4637 O 446.687 -5.99158 -4.88404 0
M  V30 4638 C 447.627 -6.60234 -3.96415 0
M  V30 4639 C 446.897 -7.08259 -2.72856 0
M  V30 4640 O 446.687 -5.9427 -1.83651 0
M  V30 4641 C 445.497 -7.64886 -2.9555 0
M  V30 4642 O 445.107 -8.53963 -1.90717 0
M  V30 4643 C 444.617 -6.4116 -2.90739 0
M  V30 4644 C 445.327 -5.55375 -1.86963 0
M  V30 4645 N 445.277 -4.09664 -2.15742 0
M  V30 4646 H 448.116 -7.45574 -4.45629 0
M  V30 4647 H 448.388 -5.86232 -3.67314 0
M  V30 4648 H 447.52 -7.84412 -2.24479 0
M  V30 4649 P 443.557 -8.7635 -1.60911 0
M  V30 4650 O 443.337 -10.1388 -1.11561 0
M  V30 4651 O 442.767 -8.36503 -2.79617 0
M  V30 4652 O 443.307 -7.71806 -0.42951 0
M  V30 4653 C 444.247 -7.67148 0.673689 0
M  V30 4654 C 443.517 -7.33374 1.95559 0
M  V30 4655 O 443.307 -5.88721 2.00726 0
M  V30 4656 C 442.117 -7.92526 2.10483 0
M  V30 4657 O 441.727 -8.02971 3.47653 0
M  V30 4658 C 441.237 -6.89602 1.41652 0
M  V30 4659 C 441.947 -5.59201 1.75185 0
M  V30 4660 N 441.897 -4.58235 0.662552 0
M  V30 4661 H 444.736 -8.65116 0.777161 0
M  V30 4662 H 445.008 -6.90173 0.474152 0
M  V30 4663 H 444.14 -7.66548 2.79458 0
M  V30 4664 P 440.177 -8.03563 3.84925 0
M  V30 4665 O 439.957 -8.85821 5.0569 0
M  V30 4666 O 439.387 -8.41101 2.65469 0
M  V30 4667 O 439.927 -6.49734 4.18962 0
M  V30 4668 C 440.867 -5.81037 5.05421 0
M  V30 4669 C 440.137 -4.79018 5.88876 0
M  V30 4670 O 439.927 -3.58359 5.08515 0
M  V30 4671 C 438.737 -5.17448 6.36119 0
M  V30 4672 O 438.347 -4.45322 7.53318 0
M  V30 4673 C 437.857 -4.74639 5.19936 0
M  V30 4674 C 438.567 -3.49432 4.70418 0
M  V30 4675 N 438.517 -3.31776 3.22945 0
M  V30 4676 C 438.367 -2.02742 2.72939 0
M  V30 4677 O 438.277 -1.08301 3.52749 0
M  V30 4678 N 438.317 -1.96117 1.22063 0
M  V30 4679 C 438.417 -2.8878 0.551566 0
M  V30 4680 N 438.367 -2.65609 -0.750198 0
M  V30 4681 C 438.567 -4.22457 1.03707 0
M  V30 4682 C 438.617 -4.37979 2.39113 0
M  V30 4683 H 441.357 -6.54138 5.7131 0
M  V30 4684 H 441.627 -5.30492 4.44033 0
M  V30 4685 H 440.76 -4.55945 6.76735 0
M  V30 4686 H 438.105 -2.6176 5.18021 0
M  V30 4687 H 437.825 -5.52233 4.41941 0
M  V30 4688 H 436.834 -4.52045 5.53452 0
M  V30 4689 H 438.668 -6.25124 6.55234 0
M  V30 4690 H 438.74 -5.37936 2.80552 0
M  V30 4691 H 438.638 -5.07528 0.359553 0
M  V30 4692 H 438.25 -1.69403 -1.09847 0
M  V30 4693 H 438.446 -3.43701 -1.41792 0
M  V30 4694 P 436.797 -4.23843 7.83734 0
M  V30 4695 O 436.577 -4.19407 9.29784 0
M  V30 4696 O 436.007 -5.24426 7.09156 0
M  V30 4697 O 436.547 -2.7935 7.20758 0
M  V30 4698 C 437.487 -1.7299 7.50419 0
M  V30 4699 C 436.757 -0.406376 7.57911 0
M  V30 4700 O 436.547 0.0897726 6.21935 0
M  V30 4701 C 435.357 -0.447224 8.1878 0
M  V30 4702 O 434.967 0.825065 8.71101 0
M  V30 4703 C 434.477 -0.783801 6.99623 0
M  V30 4704 C 435.187 -0.0619192 5.85967 0
M  V30 4705 N 435.137 -0.7859 4.56281 0
M  V30 4706 H 437.976 -1.93423 8.4679 0
M  V30 4707 H 438.248 -1.68181 6.71046 0
M  V30 4708 H 437.38 0.289041 8.15388 0
M  V30 4709 P 433.417 1.17771 8.83182 0
M  V30 4710 O 433.197 2.07206 9.98732 0
M  V30 4711 O 432.627 -0.0743816 8.81969 0
M  V30 4712 O 433.167 1.97652 7.47304 0
M  V30 4713 C 434.107 3.01133 7.08783 0
M  V30 4714 C 433.377 4.12613 6.37049 0
M  V30 4715 O 433.167 3.72827 4.97879 0
M  V30 4716 C 431.977 4.45085 6.88694 0
M  V30 4717 O 431.587 5.7877 6.5624 0
M  V30 4718 C 431.097 3.47817 6.12078 0
M  V30 4719 C 431.807 3.39414 4.77697 0
M  V30 4720 N 431.757 2.04615 4.15333 0
M  V30 4721 C 431.837 0.803897 4.75249 0
M  V30 4722 N 431.757 -0.197615 3.91502 0
M  V30 4723 C 431.617 0.413002 2.66823 0
M  V30 4724 C 431.487 -0.157221 1.38007 0
M  V30 4725 N 431.367 0.833136 0.390236 0
M  V30 4726 C 431.367 2.19402 0.623885 0
M  V30 4727 N 431.237 2.97622 -0.449677 0
M  V30 4728 N 431.497 2.73005 1.83601 0
M  V30 4729 C 431.617 1.78786 2.80935 0
M  V30 4730 H 434.596 3.41248 7.98759 0
M  V30 4731 H 434.868 2.5837 6.41742 0
M  V30 4732 H 434 5.02657 6.42673 0
M  V30 4733 P 430.037 6.144 6.45285 0
M  V30 4734 O 429.817 7.54673 6.86199 0
M  V30 4735 O 429.247 5.12391 7.179 0
M  V30 4736 O 429.787 5.99158 4.88404 0
M  V30 4737 C 430.727 6.60234 3.96415 0
M  V30 4738 C 429.997 7.08259 2.72856 0
M  V30 4739 O 429.787 5.9427 1.83651 0
M  V30 4740 C 428.597 7.64886 2.9555 0
M  V30 4741 O 428.207 8.53963 1.90717 0
M  V30 4742 C 427.717 6.4116 2.90739 0
M  V30 4743 C 428.427 5.55375 1.86963 0
M  V30 4744 N 428.377 4.09664 2.15742 0
M  V30 4745 H 431.216 7.45574 4.45629 0
M  V30 4746 H 431.488 5.86232 3.67314 0
M  V30 4747 H 430.62 7.84412 2.24479 0
M  V30 4748 P 426.657 8.7635 1.60911 0
M  V30 4749 O 426.437 10.1388 1.11561 0
M  V30 4750 O 425.867 8.36503 2.79617 0
M  V30 4751 O 426.407 7.71806 0.42951 0
M  V30 4752 C 427.347 7.67148 -0.673689 0
M  V30 4753 C 426.617 7.33374 -1.95559 0
M  V30 4754 O 426.407 5.88721 -2.00726 0
M  V30 4755 C 425.217 7.92526 -2.10483 0
M  V30 4756 O 424.827 8.02971 -3.47653 0
M  V30 4757 C 424.337 6.89602 -1.41652 0
M  V30 4758 C 425.047 5.59201 -1.75185 0
M  V30 4759 N 424.997 4.58301 -0.657969 0
M  V30 4760 H 427.836 8.65116 -0.777161 0
M  V30 4761 H 428.108 6.9022 -0.46725 0
M  V30 4762 H 427.24 7.66548 -2.79458 0
M  V30 4763 H 424.585 5.16165 -2.65183 0
M  V30 4764 H 424.305 7.06433 -0.329384 0
M  V30 4765 H 423.314 6.90926 -1.82021 0
M  V30 4766 H 425.148 8.90873 -1.62657 0
M  V30 4767 P 423.278 8.03563 -3.84925 0
M  V30 4768 O 423.058 8.85821 -5.0569 0
M  V30 4769 O 422.488 8.41101 -2.65469 0
M  V30 4770 O 423.028 6.4965 -4.18908 0
M  V30 4771 C 423.968 5.81037 -5.05421 0
M  V30 4772 C 423.238 4.78366 -5.89277 0
M  V30 4773 O 423.028 3.58302 -5.08433 0
M  V30 4774 C 421.838 5.17448 -6.36119 0
M  V30 4775 O 421.448 4.45271 -7.53232 0
M  V30 4776 C 420.958 4.74639 -5.19936 0
M  V30 4777 C 421.668 3.49432 -4.70418 0
M  V30 4778 N 421.618 3.32099 -3.22613 0
M  V30 4779 C 421.698 4.28245 -2.25527 0
M  V30 4780 N 421.628 3.80823 -1.04874 0
M  V30 4781 C 421.478 2.44571 -1.23535 0
M  V30 4782 C 421.348 1.37068 -0.330675 0
M  V30 4783 N 421.338 1.51472 0.990824 0
M  V30 4784 N 421.228 0.138614 -0.848756 0
M  V30 4785 C 421.238 -0.00675923 -2.16999 0
M  V30 4786 N 421.358 0.904372 -3.11122 0
M  V30 4787 C 421.478 2.12707 -2.56212 0
M  V30 4788 H 424.457 6.54213 -5.71376 0
M  V30 4789 H 424.729 5.30936 -4.43503 0
M  V30 4790 H 423.861 4.55889 -6.76652 0
M  V30 4791 H 421.206 2.61715 -5.17932 0
M  V30 4792 H 420.926 5.52155 -4.41878 0
M  V30 4793 H 419.935 4.51981 -5.53374 0
M  V30 4794 H 421.769 6.25124 -6.55234 0
M  V30 4795 H 421.81 5.34372 -2.47488 0
M  V30 4796 H 421.429 2.45153 1.4078 0
M  V30 4797 H 421.24 0.688422 1.59911 0
M  V30 4798 H 421.132 -1.02584 -2.52346 0
M  V30 4799 P 419.898 4.23843 -7.83734 0
M  V30 4800 O 419.678 4.19407 -9.29784 0
M  V30 4801 O 419.108 5.24426 -7.09156 0
M  V30 4802 O 419.648 2.7935 -7.20758 0
M  V30 4803 C 420.588 1.7299 -7.50419 0
M  V30 4804 C 419.858 0.406376 -7.57911 0
M  V30 4805 O 419.648 -0.0897726 -6.21935 0
M  V30 4806 C 418.458 0.447224 -8.1878 0
M  V30 4807 O 418.068 -0.825065 -8.71101 0
M  V30 4808 C 417.578 0.783801 -6.99623 0
M  V30 4809 C 418.288 0.0619192 -5.85967 0
M  V30 4810 N 418.238 0.7859 -4.56281 0
M  V30 4811 H 421.077 1.93423 -8.4679 0
M  V30 4812 H 421.349 1.68181 -6.71046 0
M  V30 4813 H 420.481 -0.289041 -8.15388 0
M  V30 4814 P 416.518 -1.17771 -8.83182 0
M  V30 4815 O 416.298 -2.07206 -9.98732 0
M  V30 4816 O 415.728 0.0743816 -8.81969 0
M  V30 4817 O 416.268 -1.97652 -7.47304 0
M  V30 4818 C 417.208 -3.01133 -7.08783 0
M  V30 4819 C 416.478 -4.12613 -6.37049 0
M  V30 4820 O 416.268 -3.72827 -4.97879 0
M  V30 4821 C 415.078 -4.45085 -6.88694 0
M  V30 4822 O 414.688 -5.7877 -6.5624 0
M  V30 4823 C 414.198 -3.47817 -6.12078 0
M  V30 4824 C 414.908 -3.39414 -4.77697 0
M  V30 4825 N 414.858 -2.04615 -4.15333 0
M  V30 4826 H 417.697 -3.41248 -7.98759 0
M  V30 4827 H 417.969 -2.5837 -6.41742 0
M  V30 4828 H 417.101 -5.02657 -6.42673 0
M  V30 4829 P 413.138 -6.144 -6.45285 0
M  V30 4830 O 412.918 -7.54673 -6.86199 0
M  V30 4831 O 412.348 -5.12391 -7.179 0
M  V30 4832 O 412.888 -5.99158 -4.88404 0
M  V30 4833 C 413.828 -6.60234 -3.96415 0
M  V30 4834 C 413.098 -7.08259 -2.72856 0
M  V30 4835 O 412.888 -5.9427 -1.83651 0
M  V30 4836 C 411.698 -7.64886 -2.9555 0
M  V30 4837 O 411.308 -8.53963 -1.90717 0
M  V30 4838 C 410.818 -6.4116 -2.90739 0
M  V30 4839 C 411.528 -5.55375 -1.86963 0
M  V30 4840 N 411.478 -4.09448 -2.16152 0
M  V30 4841 C 411.558 -3.46824 -3.37593 0
M  V30 4842 N 411.488 -2.17422 -3.29777 0
M  V30 4843 C 411.338 -1.93065 -1.94427 0
M  V30 4844 C 411.208 -0.738053 -1.20141 0
M  V30 4845 N 411.198 0.474256 -1.74676 0
M  V30 4846 N 411.088 -0.850049 0.13045 0
M  V30 4847 C 411.098 -2.06169 0.676992 0
M  V30 4848 N 411.218 -3.23842 0.101312 0
M  V30 4849 C 411.338 -3.09402 -1.23122 0
M  V30 4850 H 414.317 -7.45574 -4.45629 0
M  V30 4851 H 414.589 -5.85864 -3.679 0
M  V30 4852 H 413.721 -7.84412 -2.24479 0
M  V30 4853 H 411.066 -5.73457 -0.888562 0
M  V30 4854 H 410.786 -5.90877 -3.88583 0
M  V30 4855 H 409.795 -6.6596 -2.58858 0
M  V30 4856 H 411.629 -8.16339 -3.92049 0
M  V30 4857 H 411.67 -4.00505 -4.3174 0
M  V30 4858 H 411.289 0.581337 -2.76658 0
M  V30 4859 H 411.1 1.30811 -1.14888 0
M  V30 4860 H 410.992 -2.08295 1.75542 0
M  V30 4861 P 409.758 -8.7635 -1.60911 0
M  V30 4862 O 409.538 -10.1388 -1.11561 0
M  V30 4863 O 408.968 -8.36503 -2.79617 0
M  V30 4864 O 409.508 -7.71806 -0.42951 0
M  V30 4865 C 410.448 -7.67148 0.673689 0
M  V30 4866 C 409.718 -7.33374 1.95559 0
M  V30 4867 O 409.508 -5.88721 2.00726 0
M  V30 4868 C 408.318 -7.92526 2.10483 0
M  V30 4869 O 407.928 -8.02971 3.47653 0
M  V30 4870 C 407.438 -6.89602 1.41652 0
M  V30 4871 C 408.148 -5.59201 1.75185 0
M  V30 4872 N 408.098 -4.58235 0.662552 0
M  V30 4873 H 410.937 -8.65116 0.777161 0
M  V30 4874 H 411.209 -6.90173 0.474152 0
M  V30 4875 H 410.341 -7.66548 2.79458 0
M  V30 4876 P 406.378 -8.03563 3.84925 0
M  V30 4877 O 406.158 -8.85821 5.0569 0
M  V30 4878 O 405.588 -8.41101 2.65469 0
M  V30 4879 O 406.128 -6.4965 4.18908 0
M  V30 4880 C 407.068 -5.80886 5.05289 0
M  V30 4881 C 406.338 -4.78366 5.89277 0
M  V30 4882 O 406.128 -3.58302 5.08433 0
M  V30 4883 C 404.938 -5.16748 6.36559 0
M  V30 4884 O 404.548 -4.45271 7.53232 0
M  V30 4885 C 404.058 -4.74572 5.19863 0
M  V30 4886 C 404.768 -3.49373 4.70338 0
M  V30 4887 N 404.718 -3.31704 3.22876 0
M  V30 4888 C 404.568 -2.03326 2.74871 0
M  V30 4889 O 404.478 -1.06486 3.48076 0
M  V30 4890 N 404.528 -1.91838 1.37456 0
M  V30 4891 C 404.618 -2.94295 0.462035 0
M  V30 4892 C 404.768 -4.25064 1.05249 0
M  V30 4893 C 404.818 -4.40214 2.39192 0
M  V30 4894 H 407.559 -6.54063 5.71245 0
M  V30 4895 H 407.828 -5.30339 4.43905 0
M  V30 4896 H 406.961 -4.55889 6.76652 0
M  V30 4897 H 404.306 -2.6167 5.17842 0
M  V30 4898 H 404.027 -5.52155 4.41878 0
M  V30 4899 H 403.035 -4.51918 5.53297 0
M  V30 4900 H 404.869 -6.25055 6.55162 0
M  V30 4901 H 404.94 -5.39798 2.81523 0
M  V30 4902 P 402.998 -4.23843 7.83734 0
M  V30 4903 O 402.778 -4.19407 9.29784 0
M  V30 4904 O 402.208 -5.24426 7.09156 0
M  V30 4905 O 402.748 -2.79386 7.20852 0
M  V30 4906 C 403.688 -1.7299 7.50419 0
M  V30 4907 C 402.958 -0.41401 7.5797 0
M  V30 4908 O 402.748 0.089787 6.22035 0
M  V30 4909 C 401.558 -0.447224 8.1878 0
M  V30 4910 O 401.168 0.825159 8.71201 0
M  V30 4911 C 400.678 -0.783801 6.99623 0
M  V30 4912 C 401.388 -0.0619192 5.85967 0
M  V30 4913 N 401.338 -0.7859 4.56281 0
M  V30 4914 C 401.188 -0.0359258 3.39981 0
M  V30 4915 O 401.098 1.19723 3.49038 0
M  V30 4916 N 401.138 -0.869151 2.14025 0
M  V30 4917 C 401.238 -2.01207 2.14363 0
M  V30 4918 N 401.188 -2.58978 0.954287 0
M  V30 4919 C 401.388 -2.80817 3.32215 0
M  V30 4920 C 401.438 -2.13785 4.50884 0
M  V30 4921 H 404.178 -1.93401 8.46693 0
M  V30 4922 H 404.448 -1.68181 6.71046 0
M  V30 4923 H 403.581 0.289076 8.15488 0
M  V30 4924 H 400.926 0.927166 5.72947 0
M  V30 4925 H 400.646 -1.87 6.82132 0
M  V30 4926 H 399.655 -0.404009 7.13457 0
M  V30 4927 H 401.489 -1.20599 8.97534 0
M  V30 4928 H 401.561 -2.70295 5.43162 0
M  V30 4929 H 401.459 -3.89465 3.27406 0
M  V30 4930 H 401.071 -2.01616 0.107046 0
M  V30 4931 H 401.267 -3.61403 0.873101 0
M  V30 4932 P 399.618 1.17771 8.83182 0
M  V30 4933 O 399.398 2.07206 9.98732 0
M  V30 4934 O 398.828 -0.0743816 8.81969 0
M  V30 4935 O 399.368 1.97652 7.47304 0
M  V30 4936 C 400.308 3.01133 7.08783 0
M  V30 4937 C 399.578 4.12613 6.37049 0
M  V30 4938 O 399.368 3.72827 4.97879 0
M  V30 4939 C 398.178 4.45085 6.88694 0
M  V30 4940 O 397.788 5.7877 6.5624 0
M  V30 4941 C 397.298 3.47817 6.12078 0
M  V30 4942 C 398.008 3.39414 4.77697 0
M  V30 4943 N 397.958 2.04615 4.15333 0
M  V30 4944 H 400.797 3.41248 7.98759 0
M  V30 4945 H 401.069 2.5837 6.41742 0
M  V30 4946 H 400.201 5.02657 6.42673 0
M  V30 4947 P 396.238 6.144 6.45285 0
M  V30 4948 O 396.018 7.54673 6.86199 0
M  V30 4949 O 395.448 5.12391 7.179 0
M  V30 4950 O 395.988 5.99236 4.88467 0
M  V30 4951 C 396.928 6.60234 3.96415 0
M  V30 4952 C 396.198 7.08079 2.736 0
M  V30 4953 O 395.988 5.94365 1.8368 0
M  V30 4954 C 394.798 7.64886 2.9555 0
M  V30 4955 O 394.408 8.5406 1.90739 0
M  V30 4956 C 393.918 6.4116 2.90739 0
M  V30 4957 C 394.628 5.55375 1.86963 0
M  V30 4958 N 394.578 4.09664 2.15742 0
M  V30 4959 C 394.428 3.22231 1.08477 0
M  V30 4960 O 394.338 3.68951 -0.0600489 0
M  V30 4961 N 394.378 1.76692 1.48799 0
M  V30 4962 C 394.478 1.41695 2.57602 0
M  V30 4963 N 394.428 0.107296 2.75791 0
M  V30 4964 C 394.628 2.29178 3.69733 0
M  V30 4965 C 394.678 3.62753 3.42653 0
M  V30 4966 H 397.418 7.45488 4.45578 0
M  V30 4967 H 397.688 5.86232 3.67314 0
M  V30 4968 H 396.821 7.84508 2.24507 0
M  V30 4969 H 394.166 5.73556 0.888715 0
M  V30 4970 H 393.886 5.9096 3.88638 0
M  V30 4971 H 392.895 6.66053 2.58894 0
M  V30 4972 H 394.729 8.16339 3.92049 0
M  V30 4973 H 394.801 4.33052 4.24913 0
M  V30 4974 H 394.699 1.9103 4.71577 0
M  V30 4975 H 394.311 -0.521221 1.95056 0
M  V30 4976 H 394.507 -0.286429 3.70695 0
M  V30 4977 P 392.858 8.7635 1.60911 0
M  V30 4978 O 392.638 10.1388 1.11561 0
M  V30 4979 O 392.068 8.36503 2.79617 0
M  V30 4980 O 392.608 7.71806 0.42951 0
M  V30 4981 C 393.548 7.67148 -0.673689 0
M  V30 4982 C 392.818 7.33374 -1.95559 0
M  V30 4983 O 392.608 5.88721 -2.00726 0
M  V30 4984 C 391.418 7.92526 -2.10483 0
M  V30 4985 O 391.028 8.02971 -3.47653 0
M  V30 4986 C 390.538 6.89602 -1.41652 0
M  V30 4987 C 391.248 5.59201 -1.75185 0
M  V30 4988 N 391.198 4.58301 -0.657969 0
M  V30 4989 H 394.037 8.65116 -0.777161 0
M  V30 4990 H 394.309 6.9022 -0.46725 0
M  V30 4991 H 393.441 7.66548 -2.79458 0
M  V30 4992 H 390.786 5.16165 -2.65183 0
M  V30 4993 H 390.506 7.06433 -0.329384 0
M  V30 4994 H 389.515 6.90926 -1.82021 0
M  V30 4995 H 391.349 8.90873 -1.62657 0
M  V30 4996 P 389.478 8.03563 -3.84925 0
M  V30 4997 O 389.258 8.85821 -5.0569 0
M  V30 4998 O 388.688 8.41101 -2.65469 0
M  V30 4999 O 389.228 6.4965 -4.18908 0
M  V30 5000 C 390.168 5.81037 -5.05421 0
M  V30 5001 C 389.438 4.78366 -5.89277 0
M  V30 5002 O 389.228 3.58302 -5.08433 0
M  V30 5003 C 388.038 5.17448 -6.36119 0
M  V30 5004 O 387.648 4.45271 -7.53232 0
M  V30 5005 C 387.158 4.74639 -5.19936 0
M  V30 5006 C 387.868 3.49432 -4.70418 0
M  V30 5007 N 387.818 3.32099 -3.22613 0
M  V30 5008 H 390.657 6.54213 -5.71376 0
M  V30 5009 H 390.929 5.30936 -4.43503 0
M  V30 5010 H 390.061 4.55889 -6.76652 0
M  V30 5011 H 387.406 2.61715 -5.17932 0
M  V30 5012 H 387.126 5.52155 -4.41878 0
M  V30 5013 H 386.135 4.51981 -5.53374 0
M  V30 5014 H 387.969 6.25124 -6.55234 0
M  V30 5015 P 386.098 4.23843 -7.83734 0
M  V30 5016 O 385.878 4.19407 -9.29784 0
M  V30 5017 O 385.308 5.24426 -7.09156 0
M  V30 5018 O 385.848 2.7935 -7.20758 0
M  V30 5019 C 386.788 1.7299 -7.50419 0
M  V30 5020 C 386.058 0.406376 -7.57911 0
M  V30 5021 O 385.848 -0.0897726 -6.21935 0
M  V30 5022 C 384.658 0.447224 -8.1878 0
M  V30 5023 O 384.268 -0.825065 -8.71101 0
M  V30 5024 C 383.778 0.783801 -6.99623 0
M  V30 5025 C 384.488 0.0619192 -5.85967 0
M  V30 5026 N 384.438 0.7859 -4.56281 0
M  V30 5027 H 387.277 1.93423 -8.4679 0
M  V30 5028 H 387.549 1.68181 -6.71046 0
M  V30 5029 H 386.681 -0.289041 -8.15388 0
M  V30 5030 P 382.718 -1.17771 -8.83182 0
M  V30 5031 O 382.498 -2.07206 -9.98732 0
M  V30 5032 O 381.928 0.0743816 -8.81969 0
M  V30 5033 O 382.468 -1.97652 -7.47304 0
M  V30 5034 C 383.408 -3.01133 -7.08783 0
M  V30 5035 C 382.678 -4.12613 -6.37049 0
M  V30 5036 O 382.468 -3.72827 -4.97879 0
M  V30 5037 C 381.278 -4.45085 -6.88694 0
M  V30 5038 O 380.888 -5.7877 -6.5624 0
M  V30 5039 C 380.398 -3.47817 -6.12078 0
M  V30 5040 C 381.108 -3.39414 -4.77697 0
M  V30 5041 N 381.058 -2.04615 -4.15333 0
M  V30 5042 H 383.897 -3.41248 -7.98759 0
M  V30 5043 H 384.169 -2.5837 -6.41742 0
M  V30 5044 H 383.301 -5.02657 -6.42673 0
M  V30 5045 P 379.338 -6.144 -6.45285 0
M  V30 5046 O 379.118 -7.54673 -6.86199 0
M  V30 5047 O 378.548 -5.12391 -7.179 0
M  V30 5048 O 379.088 -5.99158 -4.88404 0
M  V30 5049 C 380.028 -6.60234 -3.96415 0
M  V30 5050 C 379.298 -7.08259 -2.72856 0
M  V30 5051 O 379.088 -5.9427 -1.83651 0
M  V30 5052 C 377.898 -7.64886 -2.9555 0
M  V30 5053 O 377.508 -8.53963 -1.90717 0
M  V30 5054 C 377.018 -6.4116 -2.90739 0
M  V30 5055 C 377.728 -5.55375 -1.86963 0
M  V30 5056 N 377.678 -4.09664 -2.15742 0
M  V30 5057 H 380.517 -7.45574 -4.45629 0
M  V30 5058 H 380.789 -5.86232 -3.67314 0
M  V30 5059 H 379.921 -7.84412 -2.24479 0
M  V30 5060 P 375.958 -8.7635 -1.60911 0
M  V30 5061 O 375.738 -10.1388 -1.11561 0
M  V30 5062 O 375.168 -8.36503 -2.79617 0
M  V30 5063 O 375.708 -7.71806 -0.42951 0
M  V30 5064 C 376.648 -7.67148 0.673689 0
M  V30 5065 C 375.918 -7.33374 1.95559 0
M  V30 5066 O 375.708 -5.88721 2.00726 0
M  V30 5067 C 374.518 -7.92526 2.10483 0
M  V30 5068 O 374.128 -8.02971 3.47653 0
M  V30 5069 C 373.638 -6.89602 1.41652 0
M  V30 5070 C 374.348 -5.59201 1.75185 0
M  V30 5071 N 374.298 -4.58235 0.662552 0
M  V30 5072 H 377.137 -8.65116 0.777161 0
M  V30 5073 H 377.409 -6.90173 0.474152 0
M  V30 5074 H 376.541 -7.66548 2.79458 0
M  V30 5075 P 372.578 -8.03563 3.84925 0
M  V30 5076 O 372.358 -8.85821 5.0569 0
M  V30 5077 O 371.788 -8.41101 2.65469 0
M  V30 5078 O 372.328 -6.49734 4.18962 0
M  V30 5079 C 373.268 -5.81037 5.05421 0
M  V30 5080 C 372.538 -4.79018 5.88876 0
M  V30 5081 O 372.328 -3.58359 5.08515 0
M  V30 5082 C 371.138 -5.17448 6.36119 0
M  V30 5083 O 370.748 -4.45322 7.53318 0
M  V30 5084 C 370.258 -4.74639 5.19936 0
M  V30 5085 C 370.968 -3.49432 4.70418 0
M  V30 5086 N 370.918 -3.31776 3.22945 0
M  V30 5087 C 370.768 -2.02742 2.72939 0
M  V30 5088 O 370.678 -1.08301 3.52749 0
M  V30 5089 N 370.718 -1.96117 1.22063 0
M  V30 5090 C 370.818 -2.8878 0.551566 0
M  V30 5091 N 370.768 -2.65609 -0.750198 0
M  V30 5092 C 370.968 -4.22457 1.03707 0
M  V30 5093 C 371.018 -4.37979 2.39113 0
M  V30 5094 H 373.758 -6.54138 5.7131 0
M  V30 5095 H 374.028 -5.30492 4.44033 0
M  V30 5096 H 373.161 -4.55945 6.76735 0
M  V30 5097 H 370.506 -2.6176 5.18021 0
M  V30 5098 H 370.226 -5.52233 4.41941 0
M  V30 5099 H 369.235 -4.52045 5.53452 0
M  V30 5100 H 371.069 -6.25124 6.55234 0
M  V30 5101 H 371.141 -5.37936 2.80552 0
M  V30 5102 H 371.039 -5.07528 0.359553 0
M  V30 5103 H 370.651 -1.69403 -1.09847 0
M  V30 5104 H 370.847 -3.43701 -1.41792 0
M  V30 5105 P 369.198 -4.23843 7.83734 0
M  V30 5106 O 368.978 -4.19407 9.29784 0
M  V30 5107 O 368.408 -5.24426 7.09156 0
M  V30 5108 O 368.948 -2.7935 7.20758 0
M  V30 5109 C 369.888 -1.7299 7.50419 0
M  V30 5110 C 369.158 -0.406376 7.57911 0
M  V30 5111 O 368.948 0.0897726 6.21935 0
M  V30 5112 C 367.758 -0.447224 8.1878 0
M  V30 5113 O 367.368 0.825065 8.71101 0
M  V30 5114 C 366.878 -0.783801 6.99623 0
M  V30 5115 C 367.588 -0.0619192 5.85967 0
M  V30 5116 N 367.538 -0.7859 4.56281 0
M  V30 5117 C 367.618 -2.14308 4.31736 0
M  V30 5118 N 367.538 -2.46106 3.05116 0
M  V30 5119 C 367.398 -1.23422 2.4014 0
M  V30 5120 C 367.268 -0.938381 1.02409 0
M  V30 5121 N 367.148 0.444647 0.805413 0
M  V30 5122 C 367.148 1.40829 1.79435 0
M  V30 5123 N 367.018 2.67213 1.38558 0
M  V30 5124 N 367.278 1.12947 3.09005 0
M  V30 5125 C 367.398 -0.204887 3.32369 0
M  V30 5126 H 370.377 -1.93423 8.4679 0
M  V30 5127 H 370.649 -1.68181 6.71046 0
M  V30 5128 H 369.781 0.289041 8.15388 0
M  V30 5129 P 365.818 1.17771 8.83182 0
M  V30 5130 O 365.598 2.07206 9.98732 0
M  V30 5131 O 365.028 -0.0743816 8.81969 0
M  V30 5132 O 365.568 1.97652 7.47304 0
M  V30 5133 C 366.508 3.01133 7.08783 0
M  V30 5134 C 365.778 4.12613 6.37049 0
M  V30 5135 O 365.568 3.72827 4.97879 0
M  V30 5136 C 364.378 4.45085 6.88694 0
M  V30 5137 O 363.988 5.7877 6.5624 0
M  V30 5138 C 363.498 3.47817 6.12078 0
M  V30 5139 C 364.208 3.39414 4.77697 0
M  V30 5140 N 364.158 2.04615 4.15333 0
M  V30 5141 H 366.997 3.41248 7.98759 0
M  V30 5142 H 367.269 2.5837 6.41742 0
M  V30 5143 H 366.401 5.02657 6.42673 0
M  V30 5144 P 362.438 6.144 6.45285 0
M  V30 5145 O 362.218 7.54673 6.86199 0
M  V30 5146 O 361.648 5.12391 7.179 0
M  V30 5147 O 362.188 5.99158 4.88404 0
M  V30 5148 C 363.128 6.60234 3.96415 0
M  V30 5149 C 362.398 7.08259 2.72856 0
M  V30 5150 O 362.188 5.9427 1.83651 0
M  V30 5151 C 360.998 7.64886 2.9555 0
M  V30 5152 O 360.608 8.53963 1.90717 0
M  V30 5153 C 360.118 6.4116 2.90739 0
M  V30 5154 C 360.828 5.55375 1.86963 0
M  V30 5155 N 360.778 4.09664 2.15742 0
M  V30 5156 H 363.617 7.45574 4.45629 0
M  V30 5157 H 363.889 5.86232 3.67314 0
M  V30 5158 H 363.021 7.84412 2.24479 0
M  V30 5159 P 359.058 8.7635 1.60911 0
M  V30 5160 O 358.838 10.1388 1.11561 0
M  V30 5161 O 358.268 8.36503 2.79617 0
M  V30 5162 O 358.808 7.71806 0.42951 0
M  V30 5163 C 359.748 7.67148 -0.673689 0
M  V30 5164 C 359.018 7.33374 -1.95559 0
M  V30 5165 O 358.808 5.88721 -2.00726 0
M  V30 5166 C 357.618 7.92526 -2.10483 0
M  V30 5167 O 357.228 8.02971 -3.47653 0
M  V30 5168 C 356.738 6.89602 -1.41652 0
M  V30 5169 C 357.448 5.59201 -1.75185 0
M  V30 5170 N 357.398 4.58301 -0.657969 0
M  V30 5171 H 360.237 8.65116 -0.777161 0
M  V30 5172 H 360.509 6.9022 -0.46725 0
M  V30 5173 H 359.641 7.66548 -2.79458 0
M  V30 5174 H 356.986 5.16165 -2.65183 0
M  V30 5175 H 356.706 7.06433 -0.329384 0
M  V30 5176 H 355.715 6.90926 -1.82021 0
M  V30 5177 H 357.549 8.90873 -1.62657 0
M  V30 5178 P 355.678 8.03563 -3.84925 0
M  V30 5179 O 355.458 8.85821 -5.0569 0
M  V30 5180 O 354.888 8.41101 -2.65469 0
M  V30 5181 O 355.428 6.4965 -4.18908 0
M  V30 5182 C 356.368 5.81037 -5.05421 0
M  V30 5183 C 355.638 4.78366 -5.89277 0
M  V30 5184 O 355.428 3.58302 -5.08433 0
M  V30 5185 C 354.238 5.17448 -6.36119 0
M  V30 5186 O 353.848 4.45271 -7.53232 0
M  V30 5187 C 353.358 4.74639 -5.19936 0
M  V30 5188 C 354.068 3.49432 -4.70418 0
M  V30 5189 N 354.018 3.31776 -3.22945 0
M  V30 5190 H 356.857 6.54213 -5.71376 0
M  V30 5191 H 357.129 5.30492 -4.44033 0
M  V30 5192 H 356.261 4.55889 -6.76652 0
M  V30 5193 P 352.298 4.23843 -7.83734 0
M  V30 5194 O 352.078 4.19407 -9.29784 0
M  V30 5195 O 351.508 5.24426 -7.09156 0
M  V30 5196 O 352.048 2.7935 -7.20758 0
M  V30 5197 C 352.988 1.7299 -7.50419 0
M  V30 5198 C 352.258 0.406376 -7.57911 0
M  V30 5199 O 352.048 -0.0897726 -6.21935 0
M  V30 5200 C 350.858 0.447224 -8.1878 0
M  V30 5201 O 350.468 -0.825065 -8.71101 0
M  V30 5202 C 349.978 0.783801 -6.99623 0
M  V30 5203 C 350.688 0.0619192 -5.85967 0
M  V30 5204 N 350.638 0.7859 -4.56281 0
M  V30 5205 H 353.477 1.93423 -8.4679 0
M  V30 5206 H 353.749 1.68181 -6.71046 0
M  V30 5207 H 352.881 -0.289041 -8.15388 0
M  V30 5208 P 348.918 -1.17771 -8.83182 0
M  V30 5209 O 348.698 -2.07206 -9.98732 0
M  V30 5210 O 348.128 0.0743816 -8.81969 0
M  V30 5211 O 348.668 -1.97652 -7.47304 0
M  V30 5212 C 349.608 -3.01055 -7.08599 0
M  V30 5213 C 348.878 -4.12613 -6.37049 0
M  V30 5214 O 348.668 -3.72827 -4.97879 0
M  V30 5215 C 347.478 -4.45719 -6.88164 0
M  V30 5216 O 347.088 -5.7877 -6.5624 0
M  V30 5217 C 346.598 -3.47768 -6.11991 0
M  V30 5218 C 347.308 -3.39356 -4.77615 0
M  V30 5219 N 347.258 -2.04571 -4.15244 0
M  V30 5220 C 347.108 -1.98587 -2.78314 0
M  V30 5221 O 347.018 -2.98134 -2.08835 0
M  V30 5222 N 347.068 -0.714467 -2.24925 0
M  V30 5223 C 347.158 0.470001 -2.94169 0
M  V30 5224 O 347.108 1.55587 -2.35195 0
M  V30 5225 C 347.308 0.312541 -4.36783 0
M  V30 5226 C 347.418 1.57711 -5.16352 0
M  V30 5227 C 347.358 -0.914512 -4.92583 0
M  V30 5228 H 350.099 -3.41169 -7.98575 0
M  V30 5229 H 350.368 -2.58295 -6.41556 0
M  V30 5230 H 349.501 -5.02657 -6.42673 0
M  V30 5231 H 346.846 -4.11637 -4.08885 0
M  V30 5232 H 346.567 -2.49626 -6.61679 0
M  V30 5233 H 345.575 -3.86566 -6.00778 0
M  V30 5234 H 347.409 -4.29943 -7.96918 0
M  V30 5235 H 347.48 -1.00937 -6.00374 0
M  V30 5236 H 346.45 1.80153 -5.63503 0
M  V30 5237 H 348.187 1.4566 -5.94104 0
M  V30 5238 H 347.699 2.40664 -4.49645 0
M  V30 5239 H 346.963 -0.647622 -1.25697 0
M  V30 5240 P 345.538 -6.144 -6.45285 0
M  V30 5241 O 345.318 -7.54673 -6.86199 0
M  V30 5242 O 344.748 -5.12391 -7.179 0
M  V30 5243 O 345.288 -5.99236 -4.88467 0
M  V30 5244 C 346.228 -6.60234 -3.96415 0
M  V30 5245 C 345.498 -7.08079 -2.736 0
M  V30 5246 O 345.288 -5.94365 -1.8368 0
M  V30 5247 C 344.098 -7.64886 -2.9555 0
M  V30 5248 O 343.708 -8.5406 -1.90739 0
M  V30 5249 C 343.218 -6.4116 -2.90739 0
M  V30 5250 C 343.928 -5.55375 -1.86963 0
M  V30 5251 N 343.878 -4.09664 -2.15742 0
M  V30 5252 C 343.728 -3.22231 -1.08477 0
M  V30 5253 O 343.638 -3.68951 0.0600489 0
M  V30 5254 N 343.678 -1.76692 -1.48799 0
M  V30 5255 C 343.778 -1.41695 -2.57602 0
M  V30 5256 N 343.728 -0.107296 -2.75791 0
M  V30 5257 C 343.928 -2.29178 -3.69733 0
M  V30 5258 C 343.978 -3.62753 -3.42653 0
M  V30 5259 H 346.718 -7.45488 -4.45578 0
M  V30 5260 H 346.988 -5.86232 -3.67314 0
M  V30 5261 H 346.121 -7.84508 -2.24507 0
M  V30 5262 H 343.466 -5.73556 -0.888715 0
M  V30 5263 H 343.186 -5.9096 -3.88638 0
M  V30 5264 H 342.195 -6.66053 -2.58894 0
M  V30 5265 H 344.029 -8.16339 -3.92049 0
M  V30 5266 H 344.101 -4.33052 -4.24913 0
M  V30 5267 H 343.999 -1.9103 -4.71577 0
M  V30 5268 H 343.611 0.521221 -1.95056 0
M  V30 5269 H 343.807 0.286429 -3.70695 0
M  V30 5270 P 342.158 -8.7635 -1.60911 0
M  V30 5271 O 341.938 -10.1388 -1.11561 0
M  V30 5272 O 341.368 -8.36503 -2.79617 0
M  V30 5273 O 341.908 -7.71806 -0.42951 0
M  V30 5274 C 342.848 -7.67148 0.673689 0
M  V30 5275 C 342.118 -7.33374 1.95559 0
M  V30 5276 O 341.908 -5.88721 2.00726 0
M  V30 5277 C 340.718 -7.92526 2.10483 0
M  V30 5278 O 340.328 -8.02971 3.47653 0
M  V30 5279 C 339.838 -6.89602 1.41652 0
M  V30 5280 C 340.548 -5.59201 1.75185 0
M  V30 5281 N 340.498 -4.58235 0.662552 0
M  V30 5282 H 343.337 -8.65116 0.777161 0
M  V30 5283 H 343.609 -6.90173 0.474152 0
M  V30 5284 H 342.741 -7.66548 2.79458 0
M  V30 5285 P 338.778 -8.03563 3.84925 0
M  V30 5286 O 338.558 -8.85821 5.0569 0
M  V30 5287 O 337.988 -8.41101 2.65469 0
M  V30 5288 O 338.528 -6.4965 4.18908 0
M  V30 5289 C 339.468 -5.81037 5.05421 0
M  V30 5290 C 338.738 -4.78366 5.89277 0
M  V30 5291 O 338.528 -3.58302 5.08433 0
M  V30 5292 C 337.338 -5.17448 6.36119 0
M  V30 5293 O 336.948 -4.45271 7.53232 0
M  V30 5294 C 336.458 -4.74639 5.19936 0
M  V30 5295 C 337.168 -3.49432 4.70418 0
M  V30 5296 N 337.118 -3.32099 3.22613 0
M  V30 5297 H 339.957 -6.54213 5.71376 0
M  V30 5298 H 340.229 -5.30936 4.43503 0
M  V30 5299 H 339.361 -4.55889 6.76652 0
M  V30 5300 H 336.706 -2.61715 5.17932 0
M  V30 5301 H 336.426 -5.52155 4.41878 0
M  V30 5302 H 335.435 -4.51981 5.53374 0
M  V30 5303 H 337.269 -6.25124 6.55234 0
M  V30 5304 P 335.398 -4.23843 7.83734 0
M  V30 5305 O 335.178 -4.19407 9.29784 0
M  V30 5306 O 334.608 -5.24426 7.09156 0
M  V30 5307 O 335.148 -2.7935 7.20758 0
M  V30 5308 C 336.088 -1.7299 7.50419 0
M  V30 5309 C 335.358 -0.406376 7.57911 0
M  V30 5310 O 335.148 0.0897726 6.21935 0
M  V30 5311 C 333.958 -0.447224 8.1878 0
M  V30 5312 O 333.568 0.825065 8.71101 0
M  V30 5313 C 333.078 -0.783801 6.99623 0
M  V30 5314 C 333.788 -0.0619192 5.85967 0
M  V30 5315 N 333.738 -0.7859 4.56281 0
M  V30 5316 H 336.577 -1.93423 8.4679 0
M  V30 5317 H 336.849 -1.68181 6.71046 0
M  V30 5318 H 335.981 0.289041 8.15388 0
M  V30 5319 P 332.018 1.17771 8.83182 0
M  V30 5320 O 331.798 2.07206 9.98732 0
M  V30 5321 O 331.228 -0.0743816 8.81969 0
M  V30 5322 O 331.768 1.97652 7.47304 0
M  V30 5323 C 332.708 3.01133 7.08783 0
M  V30 5324 C 331.978 4.12613 6.37049 0
M  V30 5325 O 331.768 3.72827 4.97879 0
M  V30 5326 C 330.578 4.45085 6.88694 0
M  V30 5327 O 330.188 5.7877 6.5624 0
M  V30 5328 C 329.698 3.47817 6.12078 0
M  V30 5329 C 330.408 3.39414 4.77697 0
M  V30 5330 N 330.358 2.04615 4.15333 0
M  V30 5331 H 333.197 3.41248 7.98759 0
M  V30 5332 H 333.469 2.5837 6.41742 0
M  V30 5333 H 332.601 5.02657 6.42673 0
M  V30 5334 P 328.638 6.144 6.45285 0
M  V30 5335 O 328.418 7.54673 6.86199 0
M  V30 5336 O 327.848 5.12391 7.179 0
M  V30 5337 O 328.388 5.99158 4.88404 0
M  V30 5338 C 329.328 6.60234 3.96415 0
M  V30 5339 C 328.598 7.08259 2.72856 0
M  V30 5340 O 328.388 5.9427 1.83651 0
M  V30 5341 C 327.198 7.64886 2.9555 0
M  V30 5342 O 326.808 8.53963 1.90717 0
M  V30 5343 C 326.318 6.4116 2.90739 0
M  V30 5344 C 327.028 5.55375 1.86963 0
M  V30 5345 N 326.978 4.09664 2.15742 0
M  V30 5346 H 329.817 7.45574 4.45629 0
M  V30 5347 H 330.089 5.86232 3.67314 0
M  V30 5348 H 329.221 7.84412 2.24479 0
M  V30 5349 P 325.258 8.7635 1.60911 0
M  V30 5350 O 325.038 10.1388 1.11561 0
M  V30 5351 O 324.468 8.36503 2.79617 0
M  V30 5352 O 325.008 7.71806 0.42951 0
M  V30 5353 C 325.948 7.67148 -0.673689 0
M  V30 5354 C 325.218 7.33374 -1.95559 0
M  V30 5355 O 325.008 5.88721 -2.00726 0
M  V30 5356 C 323.818 7.92526 -2.10483 0
M  V30 5357 O 323.428 8.02971 -3.47653 0
M  V30 5358 C 322.938 6.89602 -1.41652 0
M  V30 5359 C 323.648 5.59201 -1.75185 0
M  V30 5360 N 323.598 4.58301 -0.657969 0
M  V30 5361 H 326.437 8.65116 -0.777161 0
M  V30 5362 H 326.709 6.9022 -0.46725 0
M  V30 5363 H 325.841 7.66548 -2.79458 0
M  V30 5364 H 323.186 5.16165 -2.65183 0
M  V30 5365 H 322.906 7.06433 -0.329384 0
M  V30 5366 H 321.915 6.90926 -1.82021 0
M  V30 5367 H 323.749 8.90873 -1.62657 0
M  V30 5368 P 321.878 8.03563 -3.84925 0
M  V30 5369 O 321.658 8.85821 -5.0569 0
M  V30 5370 O 321.088 8.41101 -2.65469 0
M  V30 5371 O 321.628 6.4965 -4.18908 0
M  V30 5372 C 322.568 5.81037 -5.05421 0
M  V30 5373 C 321.838 4.78366 -5.89277 0
M  V30 5374 O 321.628 3.58302 -5.08433 0
M  V30 5375 C 320.438 5.17448 -6.36119 0
M  V30 5376 O 320.048 4.45271 -7.53232 0
M  V30 5377 C 319.558 4.74639 -5.19936 0
M  V30 5378 C 320.268 3.49432 -4.70418 0
M  V30 5379 N 320.218 3.31776 -3.22945 0
M  V30 5380 C 320.298 4.27147 -2.23315 0
M  V30 5381 N 320.218 3.78447 -1.02186 0
M  V30 5382 C 320.078 2.41001 -1.21732 0
M  V30 5383 C 319.948 1.36111 -0.27694 0
M  V30 5384 N 319.828 0.113683 -0.912949 0
M  V30 5385 C 319.828 -0.0846396 -2.27943 0
M  V30 5386 N 319.698 -1.34737 -2.6916 0
M  V30 5387 N 319.958 0.902521 -3.16379 0
M  V30 5388 C 320.078 2.11937 -2.56849 0
M  V30 5389 H 323.057 6.54213 -5.71376 0
M  V30 5390 H 323.329 5.30492 -4.44033 0
M  V30 5391 H 322.461 4.55889 -6.76652 0
M  V30 5392 P 318.498 4.23843 -7.83734 0
M  V30 5393 O 318.278 4.19407 -9.29784 0
M  V30 5394 O 317.708 5.24426 -7.09156 0
M  V30 5395 O 318.248 2.7935 -7.20758 0
M  V30 5396 C 319.188 1.7299 -7.50419 0
M  V30 5397 C 318.458 0.406376 -7.57911 0
M  V30 5398 O 318.248 -0.0897726 -6.21935 0
M  V30 5399 C 317.058 0.447224 -8.1878 0
M  V30 5400 O 316.668 -0.825065 -8.71101 0
M  V30 5401 C 316.178 0.783801 -6.99623 0
M  V30 5402 C 316.888 0.0619192 -5.85967 0
M  V30 5403 N 316.838 0.790462 -4.56202 0
M  V30 5404 H 319.677 1.93423 -8.4679 0
M  V30 5405 H 319.949 1.68852 -6.70877 0
M  V30 5406 H 319.081 -0.289041 -8.15388 0
M  V30 5407 H 316.426 -0.927006 -5.72848 0
M  V30 5408 H 316.146 1.86973 -6.82036 0
M  V30 5409 H 315.155 0.403953 -7.13357 0
M  V30 5410 H 316.989 1.20599 -8.97534 0
M  V30 5411 P 315.118 -1.17771 -8.83182 0
M  V30 5412 O 314.898 -2.07206 -9.98732 0
M  V30 5413 O 314.328 0.0743816 -8.81969 0
M  V30 5414 O 314.868 -1.97652 -7.47304 0
M  V30 5415 C 315.808 -3.01055 -7.08599 0
M  V30 5416 C 315.078 -4.12613 -6.37049 0
M  V30 5417 O 314.868 -3.72827 -4.97879 0
M  V30 5418 C 313.678 -4.45719 -6.88164 0
M  V30 5419 O 313.288 -5.7877 -6.5624 0
M  V30 5420 C 312.798 -3.47768 -6.11991 0
M  V30 5421 C 313.508 -3.39356 -4.77615 0
M  V30 5422 N 313.458 -2.04571 -4.15244 0
M  V30 5423 C 313.308 -1.98587 -2.78314 0
M  V30 5424 O 313.218 -2.98134 -2.08835 0
M  V30 5425 N 313.268 -0.714467 -2.24925 0
M  V30 5426 C 313.358 0.470001 -2.94169 0
M  V30 5427 O 313.308 1.55587 -2.35195 0
M  V30 5428 C 313.508 0.312541 -4.36783 0
M  V30 5429 C 313.618 1.57711 -5.16352 0
M  V30 5430 C 313.558 -0.914512 -4.92583 0
M  V30 5431 H 316.299 -3.41169 -7.98575 0
M  V30 5432 H 316.568 -2.58295 -6.41556 0
M  V30 5433 H 315.701 -5.02657 -6.42673 0
M  V30 5434 H 313.046 -4.11637 -4.08885 0
M  V30 5435 H 312.767 -2.49626 -6.61679 0
M  V30 5436 H 311.775 -3.86566 -6.00778 0
M  V30 5437 H 313.609 -4.29943 -7.96918 0
M  V30 5438 H 313.68 -1.00937 -6.00374 0
M  V30 5439 H 312.65 1.80153 -5.63503 0
M  V30 5440 H 314.387 1.4566 -5.94104 0
M  V30 5441 H 313.899 2.40664 -4.49645 0
M  V30 5442 H 313.163 -0.647622 -1.25697 0
M  V30 5443 P 311.738 -6.144 -6.45285 0
M  V30 5444 O 311.518 -7.54673 -6.86199 0
M  V30 5445 O 310.948 -5.12391 -7.179 0
M  V30 5446 O 311.488 -5.99158 -4.88404 0
M  V30 5447 C 312.428 -6.60234 -3.96415 0
M  V30 5448 C 311.698 -7.08259 -2.72856 0
M  V30 5449 O 311.488 -5.9427 -1.83651 0
M  V30 5450 C 310.298 -7.64886 -2.9555 0
M  V30 5451 O 309.908 -8.53963 -1.90717 0
M  V30 5452 C 309.418 -6.4116 -2.90739 0
M  V30 5453 C 310.128 -5.55375 -1.86963 0
M  V30 5454 N 310.078 -4.09664 -2.15742 0
M  V30 5455 C 310.158 -3.44381 -3.37233 0
M  V30 5456 N 310.078 -2.14131 -3.28347 0
M  V30 5457 C 309.938 -1.90247 -1.91588 0
M  V30 5458 C 309.808 -0.683992 -1.20892 0
M  V30 5459 N 309.688 -0.903396 0.173998 0
M  V30 5460 C 309.688 -2.14171 0.784879 0
M  V30 5461 N 309.558 -2.1435 2.11317 0
M  V30 5462 N 309.818 -3.28784 0.119316 0
M  V30 5463 C 309.938 -3.0977 -1.22194 0
M  V30 5464 H 312.917 -7.45574 -4.45629 0
M  V30 5465 H 313.189 -5.86232 -3.67314 0
M  V30 5466 H 312.321 -7.84412 -2.24479 0
M  V30 5467 P 308.358 -8.7635 -1.60911 0
M  V30 5468 O 308.138 -10.1388 -1.11561 0
M  V30 5469 O 307.568 -8.36503 -2.79617 0
M  V30 5470 O 308.108 -7.71806 -0.42951 0
M  V30 5471 C 309.048 -7.67148 0.673689 0
M  V30 5472 C 308.318 -7.33374 1.95559 0
M  V30 5473 O 308.108 -5.88721 2.00726 0
M  V30 5474 C 306.918 -7.92526 2.10483 0
M  V30 5475 O 306.528 -8.02971 3.47653 0
M  V30 5476 C 306.038 -6.89602 1.41652 0
M  V30 5477 C 306.748 -5.59201 1.75185 0
M  V30 5478 N 306.698 -4.58235 0.662552 0
M  V30 5479 H 309.537 -8.65116 0.777161 0
M  V30 5480 H 309.809 -6.90173 0.474152 0
M  V30 5481 H 308.941 -7.66548 2.79458 0
M  V30 5482 P 304.978 -8.03563 3.84925 0
M  V30 5483 O 304.758 -8.85821 5.0569 0
M  V30 5484 O 304.188 -8.41101 2.65469 0
M  V30 5485 O 304.728 -6.4965 4.18908 0
M  V30 5486 C 305.668 -5.80886 5.05289 0
M  V30 5487 C 304.938 -4.78366 5.89277 0
M  V30 5488 O 304.728 -3.58302 5.08433 0
M  V30 5489 C 303.538 -5.16748 6.36559 0
M  V30 5490 O 303.148 -4.45271 7.53232 0
M  V30 5491 C 302.658 -4.74572 5.19863 0
M  V30 5492 C 303.368 -3.49373 4.70338 0
M  V30 5493 N 303.318 -3.31704 3.22876 0
M  V30 5494 C 303.168 -2.03326 2.74871 0
M  V30 5495 O 303.078 -1.06486 3.48076 0
M  V30 5496 N 303.128 -1.91838 1.37456 0
M  V30 5497 C 303.218 -2.94295 0.462035 0
M  V30 5498 O 303.168 -2.71763 -0.752928 0
M  V30 5499 C 303.368 -4.25064 1.05249 0
M  V30 5500 C 303.478 -5.39815 0.095697 0
M  V30 5501 C 303.418 -4.40214 2.39192 0
M  V30 5502 H 306.159 -6.54063 5.71245 0
M  V30 5503 H 306.428 -5.30339 4.43905 0
M  V30 5504 H 305.561 -4.55889 6.76652 0
M  V30 5505 H 302.906 -2.6167 5.17842 0
M  V30 5506 H 302.627 -5.52155 4.41878 0
M  V30 5507 H 301.635 -4.51918 5.53297 0
M  V30 5508 H 303.469 -6.25055 6.55162 0
M  V30 5509 H 303.54 -5.39798 2.81523 0
M  V30 5510 H 302.51 -5.91593 0.0279582 0
M  V30 5511 H 304.247 -6.10038 0.450573 0
M  V30 5512 H 303.759 -5.02007 -0.89937 0
M  V30 5513 H 303.023 -0.995326 1.00435 0
M  V30 5514 P 301.598 -4.23843 7.83734 0
M  V30 5515 O 301.378 -4.19407 9.29784 0
M  V30 5516 O 300.808 -5.24426 7.09156 0
M  V30 5517 O 301.348 -2.7935 7.20758 0
M  V30 5518 C 302.288 -1.7299 7.50419 0
M  V30 5519 C 301.558 -0.406376 7.57911 0
M  V30 5520 O 301.348 0.0897726 6.21935 0
M  V30 5521 C 300.158 -0.447224 8.1878 0
M  V30 5522 O 299.768 0.825065 8.71101 0
M  V30 5523 C 299.278 -0.783801 6.99623 0
M  V30 5524 C 299.988 -0.0619192 5.85967 0
M  V30 5525 N 299.938 -0.7859 4.56281 0
M  V30 5526 H 302.777 -1.93423 8.4679 0
M  V30 5527 H 303.049 -1.68181 6.71046 0
M  V30 5528 H 302.181 0.289041 8.15388 0
M  V30 5529 P 298.218 1.17771 8.83182 0
M  V30 5530 O 297.998 2.07206 9.98732 0
M  V30 5531 O 297.428 -0.0743816 8.81969 0
M  V30 5532 O 297.968 1.97652 7.47304 0
M  V30 5533 C 298.908 3.01133 7.08783 0
M  V30 5534 C 298.178 4.12613 6.37049 0
M  V30 5535 O 297.968 3.72827 4.97879 0
M  V30 5536 C 296.778 4.45085 6.88694 0
M  V30 5537 O 296.388 5.7877 6.5624 0
M  V30 5538 C 295.898 3.47817 6.12078 0
M  V30 5539 C 296.608 3.39414 4.77697 0
M  V30 5540 N 296.558 2.04615 4.15333 0
M  V30 5541 C 296.638 0.803897 4.75249 0
M  V30 5542 N 296.558 -0.197615 3.91502 0
M  V30 5543 C 296.418 0.413002 2.66823 0
M  V30 5544 C 296.288 -0.157221 1.38007 0
M  V30 5545 N 296.168 0.833136 0.390236 0
M  V30 5546 C 296.168 2.19402 0.623885 0
M  V30 5547 N 296.038 2.97622 -0.449677 0
M  V30 5548 N 296.298 2.73005 1.83601 0
M  V30 5549 C 296.418 1.78786 2.80935 0
M  V30 5550 H 299.397 3.41248 7.98759 0
M  V30 5551 H 299.669 2.5837 6.41742 0
M  V30 5552 H 298.801 5.02657 6.42673 0
M  V30 5553 P 294.838 6.144 6.45285 0
M  V30 5554 O 294.618 7.54673 6.86199 0
M  V30 5555 O 294.048 5.12391 7.179 0
M  V30 5556 O 294.588 5.99158 4.88404 0
M  V30 5557 C 295.528 6.60234 3.96415 0
M  V30 5558 C 294.798 7.08259 2.72856 0
M  V30 5559 O 294.588 5.9427 1.83651 0
M  V30 5560 C 293.398 7.64886 2.9555 0
M  V30 5561 O 293.008 8.53963 1.90717 0
M  V30 5562 C 292.518 6.4116 2.90739 0
M  V30 5563 C 293.228 5.55375 1.86963 0
M  V30 5564 N 293.178 4.09448 2.16152 0
M  V30 5565 H 296.017 7.45574 4.45629 0
M  V30 5566 H 296.289 5.85864 3.679 0
M  V30 5567 H 295.421 7.84412 2.24479 0
M  V30 5568 H 292.766 5.73457 0.888562 0
M  V30 5569 H 292.486 5.90877 3.88583 0
M  V30 5570 H 291.495 6.6596 2.58858 0
M  V30 5571 H 293.329 8.16339 3.92049 0
M  V30 5572 P 291.458 8.7635 1.60911 0
M  V30 5573 O 291.238 10.1388 1.11561 0
M  V30 5574 O 290.668 8.36503 2.79617 0
M  V30 5575 O 291.208 7.71806 0.42951 0
M  V30 5576 C 292.148 7.67148 -0.673689 0
M  V30 5577 C 291.418 7.33374 -1.95559 0
M  V30 5578 O 291.208 5.88721 -2.00726 0
M  V30 5579 C 290.018 7.92526 -2.10483 0
M  V30 5580 O 289.628 8.02971 -3.47653 0
M  V30 5581 C 289.138 6.89602 -1.41652 0
M  V30 5582 C 289.848 5.59201 -1.75185 0
M  V30 5583 N 289.798 4.58235 -0.662552 0
M  V30 5584 H 292.637 8.65116 -0.777161 0
M  V30 5585 H 292.909 6.90173 -0.474152 0
M  V30 5586 H 292.041 7.66548 -2.79458 0
M  V30 5587 P 288.078 8.03563 -3.84925 0
M  V30 5588 O 287.858 8.85821 -5.0569 0
M  V30 5589 O 287.288 8.41101 -2.65469 0
M  V30 5590 O 287.828 6.4965 -4.18908 0
M  V30 5591 C 288.768 5.80886 -5.05289 0
M  V30 5592 C 288.038 4.78366 -5.89277 0
M  V30 5593 O 287.828 3.58302 -5.08433 0
M  V30 5594 C 286.638 5.16748 -6.36559 0
M  V30 5595 O 286.248 4.45271 -7.53232 0
M  V30 5596 C 285.758 4.74572 -5.19863 0
M  V30 5597 C 286.468 3.49373 -4.70338 0
M  V30 5598 N 286.418 3.31704 -3.22876 0
M  V30 5599 C 286.268 2.03326 -2.74871 0
M  V30 5600 O 286.178 1.06486 -3.48076 0
M  V30 5601 N 286.228 1.91838 -1.37456 0
M  V30 5602 C 286.318 2.94295 -0.462035 0
M  V30 5603 O 286.268 2.71763 0.752928 0
M  V30 5604 C 286.468 4.25064 -1.05249 0
M  V30 5605 C 286.578 5.39815 -0.095697 0
M  V30 5606 C 286.518 4.40214 -2.39192 0
M  V30 5607 H 289.259 6.54063 -5.71245 0
M  V30 5608 H 289.528 5.30339 -4.43905 0
M  V30 5609 H 288.661 4.55889 -6.76652 0
M  V30 5610 H 286.006 2.6167 -5.17842 0
M  V30 5611 H 285.727 5.52155 -4.41878 0
M  V30 5612 H 284.735 4.51918 -5.53297 0
M  V30 5613 H 286.569 6.25055 -6.55162 0
M  V30 5614 H 286.64 5.39798 -2.81523 0
M  V30 5615 H 285.61 5.91593 -0.0279582 0
M  V30 5616 H 287.347 6.10038 -0.450573 0
M  V30 5617 H 286.859 5.02007 0.89937 0
M  V30 5618 H 286.123 0.995326 -1.00435 0
M  V30 5619 P 284.698 4.23843 -7.83734 0
M  V30 5620 O 284.478 4.19407 -9.29784 0
M  V30 5621 O 283.908 5.24426 -7.09156 0
M  V30 5622 O 284.448 2.7935 -7.20758 0
M  V30 5623 C 285.388 1.7299 -7.50419 0
M  V30 5624 C 284.658 0.406376 -7.57911 0
M  V30 5625 O 284.448 -0.0897726 -6.21935 0
M  V30 5626 C 283.258 0.447224 -8.1878 0
M  V30 5627 O 282.868 -0.825065 -8.71101 0
M  V30 5628 C 282.378 0.783801 -6.99623 0
M  V30 5629 C 283.088 0.0619192 -5.85967 0
M  V30 5630 N 283.038 0.790462 -4.56202 0
M  V30 5631 C 283.118 2.13895 -4.34171 0
M  V30 5632 N 283.048 2.46449 -3.08687 0
M  V30 5633 C 282.898 1.2525 -2.43697 0
M  V30 5634 C 282.768 0.914535 -1.07318 0
M  V30 5635 N 282.758 1.80782 -0.0887348 0
M  V30 5636 N 282.648 -0.386745 -0.768133 0
M  V30 5637 C 282.658 -1.28096 -1.75159 0
M  V30 5638 N 282.778 -1.09708 -3.04861 0
M  V30 5639 C 282.898 0.214857 -3.32306 0
M  V30 5640 H 285.877 1.93423 -8.4679 0
M  V30 5641 H 286.149 1.68852 -6.70877 0
M  V30 5642 H 285.281 -0.289041 -8.15388 0
M  V30 5643 H 282.626 -0.927006 -5.72848 0
M  V30 5644 H 282.346 1.86973 -6.82036 0
M  V30 5645 H 281.355 0.403953 -7.13357 0
M  V30 5646 H 283.189 1.20599 -8.97534 0
M  V30 5647 H 283.23 2.86846 -5.14318 0
M  V30 5648 H 282.849 2.81082 -0.302037 0
M  V30 5649 H 282.66 1.49688 0.889064 0
M  V30 5650 H 282.552 -2.31317 -1.43855 0
M  V30 5651 P 281.318 -1.17771 -8.83182 0
M  V30 5652 O 281.098 -2.07206 -9.98732 0
M  V30 5653 O 280.528 0.0743816 -8.81969 0
M  V30 5654 O 281.068 -1.97652 -7.47304 0
M  V30 5655 C 282.008 -3.01133 -7.08783 0
M  V30 5656 C 281.278 -4.12613 -6.37049 0
M  V30 5657 O 281.068 -3.72827 -4.97879 0
M  V30 5658 C 279.878 -4.45085 -6.88694 0
M  V30 5659 O 279.488 -5.7877 -6.5624 0
M  V30 5660 C 278.998 -3.47817 -6.12078 0
M  V30 5661 C 279.708 -3.39414 -4.77697 0
M  V30 5662 N 279.658 -2.04615 -4.15333 0
M  V30 5663 H 282.497 -3.41248 -7.98759 0
M  V30 5664 H 282.769 -2.5837 -6.41742 0
M  V30 5665 H 281.901 -5.02657 -6.42673 0
M  V30 5666 P 277.938 -6.144 -6.45285 0
M  V30 5667 O 277.718 -7.54673 -6.86199 0
M  V30 5668 O 277.148 -5.12391 -7.179 0
M  V30 5669 O 277.688 -5.99158 -4.88404 0
M  V30 5670 C 278.628 -6.60234 -3.96415 0
M  V30 5671 C 277.898 -7.08259 -2.72856 0
M  V30 5672 O 277.688 -5.9427 -1.83651 0
M  V30 5673 C 276.498 -7.64886 -2.9555 0
M  V30 5674 O 276.108 -8.53963 -1.90717 0
M  V30 5675 C 275.618 -6.4116 -2.90739 0
M  V30 5676 C 276.328 -5.55375 -1.86963 0
M  V30 5677 N 276.278 -4.09664 -2.15742 0
M  V30 5678 H 279.117 -7.45574 -4.45629 0
M  V30 5679 H 279.389 -5.86232 -3.67314 0
M  V30 5680 H 278.521 -7.84412 -2.24479 0
M  V30 5681 P 274.558 -8.7635 -1.60911 0
M  V30 5682 O 274.338 -10.1388 -1.11561 0
M  V30 5683 O 273.768 -8.36503 -2.79617 0
M  V30 5684 O 274.308 -7.71806 -0.42951 0
M  V30 5685 C 275.248 -7.67148 0.673689 0
M  V30 5686 C 274.518 -7.33374 1.95559 0
M  V30 5687 O 274.308 -5.88721 2.00726 0
M  V30 5688 C 273.118 -7.92526 2.10483 0
M  V30 5689 O 272.728 -8.02971 3.47653 0
M  V30 5690 C 272.238 -6.89602 1.41652 0
M  V30 5691 C 272.948 -5.59201 1.75185 0
M  V30 5692 N 272.898 -4.58235 0.662552 0
M  V30 5693 H 275.737 -8.65116 0.777161 0
M  V30 5694 H 276.009 -6.90173 0.474152 0
M  V30 5695 H 275.141 -7.66548 2.79458 0
M  V30 5696 P 271.178 -8.03563 3.84925 0
M  V30 5697 O 270.958 -8.85821 5.0569 0
M  V30 5698 O 270.388 -8.41101 2.65469 0
M  V30 5699 O 270.928 -6.4965 4.18908 0
M  V30 5700 C 271.868 -5.80886 5.05289 0
M  V30 5701 C 271.138 -4.78366 5.89277 0
M  V30 5702 O 270.928 -3.58302 5.08433 0
M  V30 5703 C 269.738 -5.16748 6.36559 0
M  V30 5704 O 269.348 -4.45271 7.53232 0
M  V30 5705 C 268.858 -4.74572 5.19863 0
M  V30 5706 C 269.568 -3.49373 4.70338 0
M  V30 5707 N 269.518 -3.31704 3.22876 0
M  V30 5708 C 269.368 -2.03326 2.74871 0
M  V30 5709 O 269.278 -1.06486 3.48076 0
M  V30 5710 N 269.328 -1.91838 1.37456 0
M  V30 5711 C 269.418 -2.94295 0.462035 0
M  V30 5712 C 269.568 -4.25064 1.05249 0
M  V30 5713 C 269.618 -4.40214 2.39192 0
M  V30 5714 H 272.359 -6.54063 5.71245 0
M  V30 5715 H 272.628 -5.30339 4.43905 0
M  V30 5716 H 271.761 -4.55889 6.76652 0
M  V30 5717 H 269.106 -2.6167 5.17842 0
M  V30 5718 H 268.827 -5.52155 4.41878 0
M  V30 5719 H 267.835 -4.51918 5.53297 0
M  V30 5720 H 269.669 -6.25055 6.55162 0
M  V30 5721 H 269.74 -5.39798 2.81523 0
M  V30 5722 P 267.798 -4.23843 7.83734 0
M  V30 5723 O 267.578 -4.19407 9.29784 0
M  V30 5724 O 267.008 -5.24426 7.09156 0
M  V30 5725 O 267.548 -2.7935 7.20758 0
M  V30 5726 C 268.488 -1.7299 7.50419 0
M  V30 5727 C 267.758 -0.406376 7.57911 0
M  V30 5728 O 267.548 0.0897726 6.21935 0
M  V30 5729 C 266.358 -0.447224 8.1878 0
M  V30 5730 O 265.968 0.825065 8.71101 0
M  V30 5731 C 265.478 -0.783801 6.99623 0
M  V30 5732 C 266.188 -0.0619192 5.85967 0
M  V30 5733 N 266.138 -0.7859 4.56281 0
M  V30 5734 H 268.977 -1.93423 8.4679 0
M  V30 5735 H 269.249 -1.68181 6.71046 0
M  V30 5736 H 268.381 0.289041 8.15388 0
M  V30 5737 P 264.418 1.17771 8.83182 0
M  V30 5738 O 264.198 2.07206 9.98732 0
M  V30 5739 O 263.628 -0.0743816 8.81969 0
M  V30 5740 O 264.168 1.97652 7.47304 0
M  V30 5741 C 265.108 3.01133 7.08783 0
M  V30 5742 C 264.378 4.12613 6.37049 0
M  V30 5743 O 264.168 3.72827 4.97879 0
M  V30 5744 C 262.978 4.45085 6.88694 0
M  V30 5745 O 262.588 5.7877 6.5624 0
M  V30 5746 C 262.098 3.47817 6.12078 0
M  V30 5747 C 262.808 3.39414 4.77697 0
M  V30 5748 N 262.758 2.04199 4.15538 0
M  V30 5749 H 265.597 3.41248 7.98759 0
M  V30 5750 H 265.869 2.57728 6.42 0
M  V30 5751 H 265.001 5.02657 6.42673 0
M  V30 5752 H 262.346 4.11708 4.08956 0
M  V30 5753 H 262.066 2.49626 6.61679 0
M  V30 5754 H 261.075 3.8662 6.00862 0
M  V30 5755 H 262.909 4.29991 7.97006 0
M  V30 5756 P 261.038 6.144 6.45285 0
M  V30 5757 O 260.818 7.54673 6.86199 0
M  V30 5758 O 260.248 5.12391 7.179 0
M  V30 5759 O 260.788 5.99158 4.88404 0
M  V30 5760 C 261.728 6.60234 3.96415 0
M  V30 5761 C 260.998 7.08259 2.72856 0
M  V30 5762 O 260.788 5.9427 1.83651 0
M  V30 5763 C 259.598 7.64886 2.9555 0
M  V30 5764 O 259.208 8.53963 1.90717 0
M  V30 5765 C 258.718 6.4116 2.90739 0
M  V30 5766 C 259.428 5.55375 1.86963 0
M  V30 5767 N 259.378 4.09664 2.15742 0
M  V30 5768 H 262.217 7.45574 4.45629 0
M  V30 5769 H 262.489 5.86232 3.67314 0
M  V30 5770 H 261.621 7.84412 2.24479 0
M  V30 5771 P 257.658 8.7635 1.60911 0
M  V30 5772 O 257.438 10.1388 1.11561 0
M  V30 5773 O 256.868 8.36503 2.79617 0
M  V30 5774 O 257.408 7.71806 0.42951 0
M  V30 5775 C 258.348 7.67148 -0.673689 0
M  V30 5776 C 257.618 7.33374 -1.95559 0
M  V30 5777 O 257.408 5.88721 -2.00726 0
M  V30 5778 C 256.218 7.92526 -2.10483 0
M  V30 5779 O 255.828 8.02971 -3.47653 0
M  V30 5780 C 255.338 6.89602 -1.41652 0
M  V30 5781 C 256.048 5.59201 -1.75185 0
M  V30 5782 N 255.998 4.58301 -0.657969 0
M  V30 5783 C 256.078 4.79019 0.692603 0
M  V30 5784 N 256.008 3.69736 1.38998 0
M  V30 5785 C 255.858 2.70474 0.438135 0
M  V30 5786 C 255.728 1.30327 0.538142 0
M  V30 5787 N 255.718 0.64304 1.69192 0
M  V30 5788 N 255.608 0.611027 -0.605183 0
M  V30 5789 C 255.618 1.27002 -1.75953 0
M  V30 5790 N 255.738 2.56038 -1.98546 0
M  V30 5791 C 255.858 3.22681 -0.822541 0
M  V30 5792 H 258.837 8.65116 -0.777161 0
M  V30 5793 H 259.109 6.9022 -0.46725 0
M  V30 5794 H 258.241 7.66548 -2.79458 0
M  V30 5795 H 255.586 5.16165 -2.65183 0
M  V30 5796 H 255.306 7.06433 -0.329384 0
M  V30 5797 H 254.315 6.90926 -1.82021 0
M  V30 5798 H 256.149 8.90873 -1.62657 0
M  V30 5799 H 256.19 5.77785 1.13874 0
M  V30 5800 H 255.809 1.15585 2.57991 0
M  V30 5801 H 255.62 -0.382989 1.69835 0
M  V30 5802 H 255.512 0.653331 -2.64449 0
M  V30 5803 P 254.279 8.03563 -3.84925 0
M  V30 5804 O 254.059 8.85821 -5.0569 0
M  V30 5805 O 253.489 8.41101 -2.65469 0
M  V30 5806 O 254.029 6.4965 -4.18908 0
M  V30 5807 C 254.969 5.81037 -5.05421 0
M  V30 5808 C 254.239 4.78366 -5.89277 0
M  V30 5809 O 254.029 3.58302 -5.08433 0
M  V30 5810 C 252.839 5.17448 -6.36119 0
M  V30 5811 O 252.449 4.45271 -7.53232 0
M  V30 5812 C 251.959 4.74639 -5.19936 0
M  V30 5813 C 252.669 3.49432 -4.70418 0
M  V30 5814 N 252.619 3.32099 -3.22613 0
M  V30 5815 H 255.458 6.54213 -5.71376 0
M  V30 5816 H 255.73 5.30936 -4.43503 0
M  V30 5817 H 254.862 4.55889 -6.76652 0
M  V30 5818 H 252.207 2.61715 -5.17932 0
M  V30 5819 H 251.927 5.52155 -4.41878 0
M  V30 5820 H 250.936 4.51981 -5.53374 0
M  V30 5821 H 252.77 6.25124 -6.55234 0
M  V30 5822 P 250.899 4.23843 -7.83734 0
M  V30 5823 O 250.679 4.19407 -9.29784 0
M  V30 5824 O 250.109 5.24426 -7.09156 0
M  V30 5825 O 250.649 2.7935 -7.20758 0
M  V30 5826 C 251.589 1.7299 -7.50419 0
M  V30 5827 C 250.859 0.406376 -7.57911 0
M  V30 5828 O 250.649 -0.0897726 -6.21935 0
M  V30 5829 C 249.459 0.447224 -8.1878 0
M  V30 5830 O 249.069 -0.825065 -8.71101 0
M  V30 5831 C 248.579 0.783801 -6.99623 0
M  V30 5832 C 249.289 0.0619192 -5.85967 0
M  V30 5833 N 249.239 0.790462 -4.56202 0
M  V30 5834 C 249.319 2.13895 -4.34171 0
M  V30 5835 N 249.249 2.46449 -3.08687 0
M  V30 5836 C 249.099 1.2525 -2.43697 0
M  V30 5837 C 248.969 0.914535 -1.07318 0
M  V30 5838 N 248.959 1.80782 -0.0887348 0
M  V30 5839 N 248.849 -0.386745 -0.768133 0
M  V30 5840 C 248.859 -1.28096 -1.75159 0
M  V30 5841 N 248.979 -1.09708 -3.04861 0
M  V30 5842 C 249.099 0.214857 -3.32306 0
M  V30 5843 H 252.078 1.93423 -8.4679 0
M  V30 5844 H 252.35 1.68852 -6.70877 0
M  V30 5845 H 251.482 -0.289041 -8.15388 0
M  V30 5846 H 248.827 -0.927006 -5.72848 0
M  V30 5847 H 248.547 1.86973 -6.82036 0
M  V30 5848 H 247.556 0.403953 -7.13357 0
M  V30 5849 H 249.39 1.20599 -8.97534 0
M  V30 5850 H 249.431 2.86846 -5.14318 0
M  V30 5851 H 249.05 2.81082 -0.302037 0
M  V30 5852 H 248.861 1.49688 0.889064 0
M  V30 5853 H 248.753 -2.31317 -1.43855 0
M  V30 5854 P 247.519 -1.17771 -8.83182 0
M  V30 5855 O 247.299 -2.07206 -9.98732 0
M  V30 5856 O 246.729 0.0743816 -8.81969 0
M  V30 5857 O 247.269 -1.97652 -7.47304 0
M  V30 5858 C 248.209 -3.01133 -7.08783 0
M  V30 5859 C 247.479 -4.12613 -6.37049 0
M  V30 5860 O 247.269 -3.72827 -4.97879 0
M  V30 5861 C 246.079 -4.45085 -6.88694 0
M  V30 5862 O 245.689 -5.7877 -6.5624 0
M  V30 5863 C 245.199 -3.47817 -6.12078 0
M  V30 5864 C 245.909 -3.39414 -4.77697 0
M  V30 5865 N 245.859 -2.04615 -4.15333 0
M  V30 5866 H 248.698 -3.41248 -7.98759 0
M  V30 5867 H 248.97 -2.5837 -6.41742 0
M  V30 5868 H 248.102 -5.02657 -6.42673 0
M  V30 5869 P 244.139 -6.144 -6.45285 0
M  V30 5870 O 243.919 -7.54673 -6.86199 0
M  V30 5871 O 243.349 -5.12391 -7.179 0
M  V30 5872 O 243.889 -5.99158 -4.88404 0
M  V30 5873 C 244.829 -6.60234 -3.96415 0
M  V30 5874 C 244.099 -7.08259 -2.72856 0
M  V30 5875 O 243.889 -5.9427 -1.83651 0
M  V30 5876 C 242.699 -7.64886 -2.9555 0
M  V30 5877 O 242.309 -8.53963 -1.90717 0
M  V30 5878 C 241.819 -6.4116 -2.90739 0
M  V30 5879 C 242.529 -5.55375 -1.86963 0
M  V30 5880 N 242.479 -4.09448 -2.16152 0
M  V30 5881 H 245.318 -7.45574 -4.45629 0
M  V30 5882 H 245.59 -5.85864 -3.679 0
M  V30 5883 H 244.722 -7.84412 -2.24479 0
M  V30 5884 H 242.067 -5.73457 -0.888562 0
M  V30 5885 H 241.787 -5.90877 -3.88583 0
M  V30 5886 H 240.796 -6.6596 -2.58858 0
M  V30 5887 H 242.63 -8.16339 -3.92049 0
M  V30 5888 P 240.759 -8.7635 -1.60911 0
M  V30 5889 O 240.539 -10.1388 -1.11561 0
M  V30 5890 O 239.969 -8.36503 -2.79617 0
M  V30 5891 O 240.509 -7.71906 -0.429565 0
M  V30 5892 C 241.449 -7.67148 0.673689 0
M  V30 5893 C 240.719 -7.33666 1.94851 0
M  V30 5894 O 240.509 -5.88816 2.00759 0
M  V30 5895 C 239.319 -7.92526 2.10483 0
M  V30 5896 O 238.929 -8.03063 3.47693 0
M  V30 5897 C 238.439 -6.89602 1.41652 0
M  V30 5898 C 239.149 -5.59201 1.75185 0
M  V30 5899 N 239.099 -4.58235 0.662552 0
M  V30 5900 C 238.949 -3.24451 1.01643 0
M  V30 5901 O 238.859 -2.94958 2.21722 0
M  V30 5902 N 238.899 -2.30408 -0.165238 0
M  V30 5903 C 238.999 -2.66048 -1.25118 0
M  V30 5904 N 238.949 -1.70787 -2.16813 0
M  V30 5905 C 239.149 -4.02732 -1.64413 0
M  V30 5906 C 239.199 -4.9488 -0.63991 0
M  V30 5907 H 241.939 -8.65017 0.777072 0
M  V30 5908 H 242.209 -6.90173 0.474152 0
M  V30 5909 H 241.342 -7.66642 2.79492 0
M  V30 5910 H 238.687 -5.16254 2.65229 0
M  V30 5911 H 238.407 -7.06532 0.329431 0
M  V30 5912 H 237.416 -6.91023 1.82047 0
M  V30 5913 H 239.25 -8.90873 1.62657 0
M  V30 5914 H 239.322 -6.00104 -0.892197 0
M  V30 5915 H 239.22 -4.31733 -2.69229 0
M  V30 5916 H 238.832 -0.724835 -1.8844 0
M  V30 5917 H 239.028 -1.94716 -3.16734 0
M  V30 5918 P 237.379 -8.03563 3.84925 0
M  V30 5919 O 237.159 -8.85821 5.0569 0
M  V30 5920 O 236.589 -8.41101 2.65469 0
M  V30 5921 O 237.129 -6.4965 4.18908 0
M  V30 5922 C 238.069 -5.81037 5.05421 0
M  V30 5923 C 237.339 -4.78366 5.89277 0
M  V30 5924 O 237.129 -3.58302 5.08433 0
M  V30 5925 C 235.939 -5.17448 6.36119 0
M  V30 5926 O 235.549 -4.45271 7.53232 0
M  V30 5927 C 235.059 -4.74639 5.19936 0
M  V30 5928 C 235.769 -3.49432 4.70418 0
M  V30 5929 N 235.719 -3.31776 3.22945 0
M  V30 5930 H 238.558 -6.54213 5.71376 0
M  V30 5931 H 238.83 -5.30492 4.44033 0
M  V30 5932 H 237.962 -4.55889 6.76652 0
M  V30 5933 P 233.999 -4.23843 7.83734 0
M  V30 5934 O 233.779 -4.19407 9.29784 0
M  V30 5935 O 233.209 -5.24426 7.09156 0
M  V30 5936 O 233.749 -2.7935 7.20758 0
M  V30 5937 C 234.689 -1.7299 7.50419 0
M  V30 5938 C 233.959 -0.406376 7.57911 0
M  V30 5939 O 233.749 0.0897726 6.21935 0
M  V30 5940 C 232.559 -0.447224 8.1878 0
M  V30 5941 O 232.169 0.825065 8.71101 0
M  V30 5942 C 231.679 -0.783801 6.99623 0
M  V30 5943 C 232.389 -0.0619192 5.85967 0
M  V30 5944 N 232.339 -0.7859 4.56281 0
M  V30 5945 C 232.419 -2.14308 4.31736 0
M  V30 5946 N 232.339 -2.46106 3.05116 0
M  V30 5947 C 232.199 -1.23422 2.4014 0
M  V30 5948 C 232.069 -0.938381 1.02409 0
M  V30 5949 O 232.049 -1.70876 0.0650402 0
M  V30 5950 N 231.949 0.444647 0.805413 0
M  V30 5951 C 231.949 1.40829 1.79435 0
M  V30 5952 N 231.819 2.67213 1.38558 0
M  V30 5953 N 232.079 1.12947 3.09005 0
M  V30 5954 C 232.199 -0.204887 3.32369 0
M  V30 5955 H 235.178 -1.93423 8.4679 0
M  V30 5956 H 235.45 -1.68181 6.71046 0
M  V30 5957 H 234.582 0.289041 8.15388 0
M  V30 5958 H 231.927 0.927166 5.72947 0
M  V30 5959 H 231.647 -1.87 6.82132 0
M  V30 5960 H 230.656 -0.404009 7.13457 0
M  V30 5961 H 232.49 -1.20612 8.97633 0
M  V30 5962 H 232.539 -2.88284 5.10874 0
M  V30 5963 H 231.857 0.755087 -0.140242 0
M  V30 5964 H 231.82 3.43967 2.0729 0
M  V30 5965 H 231.719 2.88096 0.380644 0
M  V30 5966 P 230.619 1.17771 8.83182 0
M  V30 5967 O 230.399 2.07206 9.98732 0
M  V30 5968 O 229.829 -0.0743816 8.81969 0
M  V30 5969 O 230.369 1.97652 7.47304 0
M  V30 5970 C 231.309 3.01133 7.08783 0
M  V30 5971 C 230.579 4.12613 6.37049 0
M  V30 5972 O 230.369 3.72827 4.97879 0
M  V30 5973 C 229.179 4.45085 6.88694 0
M  V30 5974 O 228.789 5.7877 6.5624 0
M  V30 5975 C 228.299 3.47817 6.12078 0
M  V30 5976 C 229.009 3.39414 4.77697 0
M  V30 5977 N 228.959 2.04199 4.15538 0
M  V30 5978 C 229.039 0.821545 4.76977 0
M  V30 5979 N 228.969 -0.1794 3.94592 0
M  V30 5980 C 228.819 0.419121 2.70776 0
M  V30 5981 C 228.689 -0.109072 1.40577 0
M  V30 5982 N 228.679 -1.4104 1.1344 0
M  V30 5983 N 228.569 0.764381 0.39411 0
M  V30 5984 C 228.579 2.06587 0.664135 0
M  V30 5985 N 228.699 2.67948 1.82153 0
M  V30 5986 C 228.819 1.77942 2.8147 0
M  V30 5987 H 231.798 3.41248 7.98759 0
M  V30 5988 H 232.07 2.57728 6.42 0
M  V30 5989 H 231.202 5.02657 6.42673 0
M  V30 5990 H 228.547 4.11708 4.08956 0
M  V30 5991 H 228.267 2.49626 6.61679 0
M  V30 5992 H 227.276 3.8662 6.00862 0
M  V30 5993 H 229.11 4.29991 7.97006 0
M  V30 5994 H 229.151 0.702451 5.84696 0
M  V30 5995 H 228.77 -2.09647 1.89651 0
M  V30 5996 H 228.581 -1.73358 0.160575 0
M  V30 5997 H 228.473 2.71695 -0.195838 0
M  V30 5998 P 227.239 6.144 6.45285 0
M  V30 5999 O 227.019 7.54673 6.86199 0
M  V30 6000 O 226.449 5.12391 7.179 0
M  V30 6001 O 226.989 5.99236 4.88467 0
M  V30 6002 C 227.929 6.60234 3.96415 0
M  V30 6003 C 227.199 7.08079 2.736 0
M  V30 6004 O 226.989 5.94365 1.8368 0
M  V30 6005 C 225.799 7.64886 2.9555 0
M  V30 6006 O 225.409 8.5406 1.90739 0
M  V30 6007 C 224.919 6.4116 2.90739 0
M  V30 6008 C 225.629 5.55375 1.86963 0
M  V30 6009 N 225.579 4.09664 2.15742 0
M  V30 6010 C 225.429 3.22231 1.08477 0
M  V30 6011 O 225.339 3.68951 -0.0600489 0
M  V30 6012 N 225.379 1.76692 1.48799 0
M  V30 6013 C 225.479 1.41695 2.57602 0
M  V30 6014 N 225.429 0.107296 2.75791 0
M  V30 6015 C 225.629 2.29178 3.69733 0
M  V30 6016 C 225.679 3.62753 3.42653 0
M  V30 6017 H 228.419 7.45488 4.45578 0
M  V30 6018 H 228.689 5.86232 3.67314 0
M  V30 6019 H 227.822 7.84508 2.24507 0
M  V30 6020 H 225.167 5.73556 0.888715 0
M  V30 6021 H 224.887 5.9096 3.88638 0
M  V30 6022 H 223.896 6.66053 2.58894 0
M  V30 6023 H 225.73 8.16339 3.92049 0
M  V30 6024 H 225.802 4.33052 4.24913 0
M  V30 6025 H 225.7 1.9103 4.71577 0
M  V30 6026 H 225.312 -0.521221 1.95056 0
M  V30 6027 H 225.508 -0.286429 3.70695 0
M  V30 6028 P 223.859 8.7635 1.60911 0
M  V30 6029 O 223.639 10.1388 1.11561 0
M  V30 6030 O 223.069 8.36503 2.79617 0
M  V30 6031 O 223.609 7.71806 0.42951 0
M  V30 6032 C 224.549 7.67148 -0.673689 0
M  V30 6033 C 223.819 7.33374 -1.95559 0
M  V30 6034 O 223.609 5.88721 -2.00726 0
M  V30 6035 C 222.419 7.92526 -2.10483 0
M  V30 6036 O 222.029 8.02971 -3.47653 0
M  V30 6037 C 221.539 6.89602 -1.41652 0
M  V30 6038 C 222.249 5.59201 -1.75185 0
M  V30 6039 N 222.199 4.58235 -0.662552 0
M  V30 6040 H 225.038 8.65116 -0.777161 0
M  V30 6041 H 225.31 6.90173 -0.474152 0
M  V30 6042 H 224.442 7.66548 -2.79458 0
M  V30 6043 P 220.479 8.03563 -3.84925 0
M  V30 6044 O 220.259 8.85821 -5.0569 0
M  V30 6045 O 219.689 8.41101 -2.65469 0
M  V30 6046 O 220.229 6.4965 -4.18908 0
M  V30 6047 C 221.169 5.81037 -5.05421 0
M  V30 6048 C 220.439 4.78366 -5.89277 0
M  V30 6049 O 220.229 3.58302 -5.08433 0
M  V30 6050 C 219.039 5.17448 -6.36119 0
M  V30 6051 O 218.649 4.45271 -7.53232 0
M  V30 6052 C 218.159 4.74639 -5.19936 0
M  V30 6053 C 218.869 3.49432 -4.70418 0
M  V30 6054 N 218.819 3.32099 -3.22613 0
M  V30 6055 H 221.658 6.54213 -5.71376 0
M  V30 6056 H 221.93 5.30936 -4.43503 0
M  V30 6057 H 221.062 4.55889 -6.76652 0
M  V30 6058 H 218.407 2.61715 -5.17932 0
M  V30 6059 H 218.127 5.52155 -4.41878 0
M  V30 6060 H 217.136 4.51981 -5.53374 0
M  V30 6061 H 218.97 6.25124 -6.55234 0
M  V30 6062 P 217.099 4.23843 -7.83734 0
M  V30 6063 O 216.879 4.19407 -9.29784 0
M  V30 6064 O 216.309 5.24426 -7.09156 0
M  V30 6065 O 216.849 2.7935 -7.20758 0
M  V30 6066 C 217.789 1.7299 -7.50419 0
M  V30 6067 C 217.059 0.406376 -7.57911 0
M  V30 6068 O 216.849 -0.0897726 -6.21935 0
M  V30 6069 C 215.659 0.447224 -8.1878 0
M  V30 6070 O 215.269 -0.825065 -8.71101 0
M  V30 6071 C 214.779 0.783801 -6.99623 0
M  V30 6072 C 215.489 0.0619192 -5.85967 0
M  V30 6073 N 215.439 0.7859 -4.56281 0
M  V30 6074 H 218.278 1.93423 -8.4679 0
M  V30 6075 H 218.55 1.68181 -6.71046 0
M  V30 6076 H 217.682 -0.289041 -8.15388 0
M  V30 6077 P 213.719 -1.17771 -8.83182 0
M  V30 6078 O 213.499 -2.07206 -9.98732 0
M  V30 6079 O 212.929 0.0743816 -8.81969 0
M  V30 6080 O 213.469 -1.97652 -7.47304 0
M  V30 6081 C 214.409 -3.01133 -7.08783 0
M  V30 6082 C 213.679 -4.12613 -6.37049 0
M  V30 6083 O 213.469 -3.72827 -4.97879 0
M  V30 6084 C 212.279 -4.45085 -6.88694 0
M  V30 6085 O 211.889 -5.7877 -6.5624 0
M  V30 6086 C 211.399 -3.47817 -6.12078 0
M  V30 6087 C 212.109 -3.39414 -4.77697 0
M  V30 6088 N 212.059 -2.04615 -4.15333 0
M  V30 6089 H 214.898 -3.41248 -7.98759 0
M  V30 6090 H 215.17 -2.5837 -6.41742 0
M  V30 6091 H 214.302 -5.02657 -6.42673 0
M  V30 6092 P 210.339 -6.144 -6.45285 0
M  V30 6093 O 210.119 -7.54673 -6.86199 0
M  V30 6094 O 209.549 -5.12391 -7.179 0
M  V30 6095 O 210.089 -5.99158 -4.88404 0
M  V30 6096 C 211.029 -6.60234 -3.96415 0
M  V30 6097 C 210.299 -7.08259 -2.72856 0
M  V30 6098 O 210.089 -5.9427 -1.83651 0
M  V30 6099 C 208.899 -7.64886 -2.9555 0
M  V30 6100 O 208.509 -8.53963 -1.90717 0
M  V30 6101 C 208.019 -6.4116 -2.90739 0
M  V30 6102 C 208.729 -5.55375 -1.86963 0
M  V30 6103 N 208.679 -4.09448 -2.16152 0
M  V30 6104 H 211.518 -7.45574 -4.45629 0
M  V30 6105 H 211.79 -5.85864 -3.679 0
M  V30 6106 H 210.922 -7.84412 -2.24479 0
M  V30 6107 H 208.267 -5.73457 -0.888562 0
M  V30 6108 H 207.987 -5.90877 -3.88583 0
M  V30 6109 H 206.996 -6.6596 -2.58858 0
M  V30 6110 H 208.83 -8.16339 -3.92049 0
M  V30 6111 P 206.959 -8.7635 -1.60911 0
M  V30 6112 O 206.739 -10.1388 -1.11561 0
M  V30 6113 O 206.169 -8.36503 -2.79617 0
M  V30 6114 O 206.709 -7.71806 -0.42951 0
M  V30 6115 C 207.649 -7.67148 0.673689 0
M  V30 6116 C 206.919 -7.33374 1.95559 0
M  V30 6117 O 206.709 -5.88721 2.00726 0
M  V30 6118 C 205.519 -7.92526 2.10483 0
M  V30 6119 O 205.129 -8.02971 3.47653 0
M  V30 6120 C 204.639 -6.89602 1.41652 0
M  V30 6121 C 205.349 -5.59201 1.75185 0
M  V30 6122 N 205.299 -4.58301 0.657969 0
M  V30 6123 H 208.138 -8.65116 0.777161 0
M  V30 6124 H 208.41 -6.9022 0.46725 0
M  V30 6125 H 207.542 -7.66548 2.79458 0
M  V30 6126 H 204.887 -5.16165 2.65183 0
M  V30 6127 H 204.607 -7.06433 0.329384 0
M  V30 6128 H 203.616 -6.90926 1.82021 0
M  V30 6129 H 205.45 -8.90873 1.62657 0
M  V30 6130 P 203.579 -8.03563 3.84925 0
M  V30 6131 O 203.359 -8.85821 5.0569 0
M  V30 6132 O 202.789 -8.41101 2.65469 0
M  V30 6133 O 203.329 -6.49734 4.18962 0
M  V30 6134 C 204.269 -5.81037 5.05421 0
M  V30 6135 C 203.539 -4.79018 5.88876 0
M  V30 6136 O 203.329 -3.58359 5.08515 0
M  V30 6137 C 202.139 -5.17448 6.36119 0
M  V30 6138 O 201.749 -4.45322 7.53318 0
M  V30 6139 C 201.259 -4.74639 5.19936 0
M  V30 6140 C 201.969 -3.49432 4.70418 0
M  V30 6141 N 201.919 -3.31776 3.22945 0
M  V30 6142 C 201.769 -2.02742 2.72939 0
M  V30 6143 O 201.679 -1.08301 3.52749 0
M  V30 6144 N 201.719 -1.96117 1.22063 0
M  V30 6145 C 201.819 -2.8878 0.551566 0
M  V30 6146 N 201.769 -2.65609 -0.750198 0
M  V30 6147 C 201.969 -4.22457 1.03707 0
M  V30 6148 C 202.019 -4.37979 2.39113 0
M  V30 6149 H 204.759 -6.54138 5.7131 0
M  V30 6150 H 205.029 -5.30492 4.44033 0
M  V30 6151 H 204.162 -4.55945 6.76735 0
M  V30 6152 H 201.507 -2.6176 5.18021 0
M  V30 6153 H 201.227 -5.52233 4.41941 0
M  V30 6154 H 200.236 -4.52045 5.53452 0
M  V30 6155 H 202.07 -6.25124 6.55234 0
M  V30 6156 H 202.142 -5.37936 2.80552 0
M  V30 6157 H 202.04 -5.07528 0.359553 0
M  V30 6158 H 201.652 -1.69403 -1.09847 0
M  V30 6159 H 201.848 -3.43701 -1.41792 0
M  V30 6160 P 200.199 -4.23843 7.83734 0
M  V30 6161 O 199.979 -4.19407 9.29784 0
M  V30 6162 O 199.409 -5.24426 7.09156 0
M  V30 6163 O 199.949 -2.7935 7.20758 0
M  V30 6164 C 200.889 -1.7299 7.50419 0
M  V30 6165 C 200.159 -0.406376 7.57911 0
M  V30 6166 O 199.949 0.0897726 6.21935 0
M  V30 6167 C 198.759 -0.447224 8.1878 0
M  V30 6168 O 198.369 0.825065 8.71101 0
M  V30 6169 C 197.879 -0.783801 6.99623 0
M  V30 6170 C 198.589 -0.0619192 5.85967 0
M  V30 6171 N 198.539 -0.790462 4.56202 0
M  V30 6172 H 201.378 -1.93423 8.4679 0
M  V30 6173 H 201.65 -1.68852 6.70877 0
M  V30 6174 H 200.782 0.289041 8.15388 0
M  V30 6175 H 198.127 0.927006 5.72848 0
M  V30 6176 H 197.847 -1.86973 6.82036 0
M  V30 6177 H 196.856 -0.403953 7.13357 0
M  V30 6178 H 198.69 -1.20599 8.97534 0
M  V30 6179 P 196.819 1.17771 8.83182 0
M  V30 6180 O 196.599 2.07206 9.98732 0
M  V30 6181 O 196.029 -0.0743816 8.81969 0
M  V30 6182 O 196.569 1.97652 7.47304 0
M  V30 6183 C 197.509 3.01133 7.08783 0
M  V30 6184 C 196.779 4.12613 6.37049 0
M  V30 6185 O 196.569 3.72827 4.97879 0
M  V30 6186 C 195.379 4.45085 6.88694 0
M  V30 6187 O 194.989 5.7877 6.5624 0
M  V30 6188 C 194.499 3.47817 6.12078 0
M  V30 6189 C 195.209 3.39414 4.77697 0
M  V30 6190 N 195.159 2.04615 4.15333 0
M  V30 6191 H 197.998 3.41248 7.98759 0
M  V30 6192 H 198.27 2.5837 6.41742 0
M  V30 6193 H 197.402 5.02657 6.42673 0
M  V30 6194 P 193.439 6.144 6.45285 0
M  V30 6195 O 193.219 7.54673 6.86199 0
M  V30 6196 O 192.649 5.12391 7.179 0
M  V30 6197 O 193.189 5.99158 4.88404 0
M  V30 6198 C 194.129 6.60234 3.96415 0
M  V30 6199 C 193.399 7.08259 2.72856 0
M  V30 6200 O 193.189 5.9427 1.83651 0
M  V30 6201 C 191.999 7.64886 2.9555 0
M  V30 6202 O 191.609 8.53963 1.90717 0
M  V30 6203 C 191.119 6.4116 2.90739 0
M  V30 6204 C 191.829 5.55375 1.86963 0
M  V30 6205 N 191.779 4.09664 2.15742 0
M  V30 6206 H 194.618 7.45574 4.45629 0
M  V30 6207 H 194.89 5.86232 3.67314 0
M  V30 6208 H 194.022 7.84412 2.24479 0
M  V30 6209 P 190.059 8.7635 1.60911 0
M  V30 6210 O 189.839 10.1388 1.11561 0
M  V30 6211 O 189.269 8.36503 2.79617 0
M  V30 6212 O 189.809 7.71806 0.42951 0
M  V30 6213 C 190.749 7.66948 -0.673514 0
M  V30 6214 C 190.019 7.33374 -1.95559 0
M  V30 6215 O 189.809 5.88721 -2.00726 0
M  V30 6216 C 188.619 7.92218 -2.1125 0
M  V30 6217 O 188.229 8.02971 -3.47653 0
M  V30 6218 C 187.739 6.89504 -1.41631 0
M  V30 6219 C 188.449 5.59106 -1.75155 0
M  V30 6220 N 188.399 4.58136 -0.662409 0
M  V30 6221 C 188.249 3.26059 -1.02863 0
M  V30 6222 O 188.159 2.90743 -2.19009 0
M  V30 6223 N 188.209 2.35995 0.0155585 0
M  V30 6224 C 188.299 2.65248 1.35603 0
M  V30 6225 O 188.249 1.75605 2.20651 0
M  V30 6226 C 188.449 4.05747 1.64698 0
M  V30 6227 C 188.559 4.42345 3.09553 0
M  V30 6228 C 188.499 4.96734 0.652411 0
M  V30 6229 H 191.24 8.64917 -0.776982 0
M  V30 6230 H 191.509 6.89974 -0.474015 0
M  V30 6231 H 190.642 7.66548 -2.79458 0
M  V30 6232 H 187.987 5.16076 -2.65138 0
M  V30 6233 H 187.708 7.06433 -0.329384 0
M  V30 6234 H 186.716 6.90829 -1.81996 0
M  V30 6235 H 188.55 8.90774 -1.62639 0
M  V30 6236 H 188.621 6.02181 0.895285 0
M  V30 6237 H 187.591 4.80252 3.45468 0
M  V30 6238 H 189.328 5.20015 3.22119 0
M  V30 6239 H 188.84 3.53269 3.67833 0
M  V30 6240 H 188.104 1.39558 -0.227499 0
M  V30 6241 P 186.679 8.03563 -3.84925 0
M  V30 6242 O 186.459 8.85821 -5.0569 0
M  V30 6243 O 185.889 8.41101 -2.65469 0
M  V30 6244 O 186.429 6.4965 -4.18908 0
M  V30 6245 C 187.369 5.80886 -5.05289 0
M  V30 6246 C 186.639 4.78366 -5.89277 0
M  V30 6247 O 186.429 3.58302 -5.08433 0
M  V30 6248 C 185.239 5.16748 -6.36559 0
M  V30 6249 O 184.849 4.45271 -7.53232 0
M  V30 6250 C 184.359 4.74572 -5.19863 0
M  V30 6251 C 185.069 3.49373 -4.70338 0
M  V30 6252 N 185.019 3.31704 -3.22876 0
M  V30 6253 C 184.869 2.03326 -2.74871 0
M  V30 6254 O 184.779 1.06486 -3.48076 0
M  V30 6255 N 184.829 1.91838 -1.37456 0
M  V30 6256 C 184.919 2.94295 -0.462035 0
M  V30 6257 O 184.869 2.71763 0.752928 0
M  V30 6258 C 185.069 4.25064 -1.05249 0
M  V30 6259 C 185.179 5.39815 -0.095697 0
M  V30 6260 C 185.119 4.40214 -2.39192 0
M  V30 6261 H 187.86 6.54063 -5.71245 0
M  V30 6262 H 188.129 5.30339 -4.43905 0
M  V30 6263 H 187.262 4.55889 -6.76652 0
M  V30 6264 H 184.607 2.6167 -5.17842 0
M  V30 6265 H 184.328 5.52155 -4.41878 0
M  V30 6266 H 183.336 4.51918 -5.53297 0
M  V30 6267 H 185.17 6.25055 -6.55162 0
M  V30 6268 H 185.241 5.39798 -2.81523 0
M  V30 6269 H 184.211 5.91593 -0.0279582 0
M  V30 6270 H 185.948 6.10038 -0.450573 0
M  V30 6271 H 185.46 5.02007 0.89937 0
M  V30 6272 H 184.724 0.995326 -1.00435 0
M  V30 6273 P 183.299 4.23843 -7.83734 0
M  V30 6274 O 183.079 4.19407 -9.29784 0
M  V30 6275 O 182.509 5.24426 -7.09156 0
M  V30 6276 O 183.049 2.7935 -7.20758 0
M  V30 6277 C 183.989 1.7299 -7.50419 0
M  V30 6278 C 183.259 0.406376 -7.57911 0
M  V30 6279 O 183.049 -0.0897726 -6.21935 0
M  V30 6280 C 181.859 0.447224 -8.1878 0
M  V30 6281 O 181.469 -0.825065 -8.71101 0
M  V30 6282 C 180.979 0.783801 -6.99623 0
M  V30 6283 C 181.689 0.0619192 -5.85967 0
M  V30 6284 N 181.639 0.7859 -4.56281 0
M  V30 6285 H 184.478 1.93423 -8.4679 0
M  V30 6286 H 184.75 1.68181 -6.71046 0
M  V30 6287 H 183.882 -0.289041 -8.15388 0
M  V30 6288 P 179.919 -1.17771 -8.83182 0
M  V30 6289 O 179.699 -2.07206 -9.98732 0
M  V30 6290 O 179.129 0.0743816 -8.81969 0
M  V30 6291 O 179.669 -1.97652 -7.47304 0
M  V30 6292 C 180.609 -3.01133 -7.08783 0
M  V30 6293 C 179.879 -4.12613 -6.37049 0
M  V30 6294 O 179.669 -3.72827 -4.97879 0
M  V30 6295 C 178.479 -4.45085 -6.88694 0
M  V30 6296 O 178.089 -5.7877 -6.5624 0
M  V30 6297 C 177.599 -3.47817 -6.12078 0
M  V30 6298 C 178.309 -3.39414 -4.77697 0
M  V30 6299 N 178.259 -2.04199 -4.15538 0
M  V30 6300 H 181.098 -3.41248 -7.98759 0
M  V30 6301 H 181.37 -2.57728 -6.42 0
M  V30 6302 H 180.502 -5.02657 -6.42673 0
M  V30 6303 H 177.847 -4.11708 -4.08956 0
M  V30 6304 H 177.567 -2.49626 -6.61679 0
M  V30 6305 H 176.576 -3.8662 -6.00862 0
M  V30 6306 H 178.41 -4.29991 -7.97006 0
M  V30 6307 P 176.539 -6.144 -6.45285 0
M  V30 6308 O 176.319 -7.54673 -6.86199 0
M  V30 6309 O 175.749 -5.12391 -7.179 0
M  V30 6310 O 176.289 -5.99158 -4.88404 0
M  V30 6311 C 177.229 -6.60234 -3.96415 0
M  V30 6312 C 176.499 -7.08259 -2.72856 0
M  V30 6313 O 176.289 -5.9427 -1.83651 0
M  V30 6314 C 175.099 -7.64886 -2.9555 0
M  V30 6315 O 174.709 -8.53963 -1.90717 0
M  V30 6316 C 174.219 -6.4116 -2.90739 0
M  V30 6317 C 174.929 -5.55375 -1.86963 0
M  V30 6318 N 174.879 -4.09664 -2.15742 0
M  V30 6319 H 177.718 -7.45574 -4.45629 0
M  V30 6320 H 177.99 -5.86232 -3.67314 0
M  V30 6321 H 177.122 -7.84412 -2.24479 0
M  V30 6322 P 173.159 -8.7635 -1.60911 0
M  V30 6323 O 172.939 -10.1388 -1.11561 0
M  V30 6324 O 172.369 -8.36503 -2.79617 0
M  V30 6325 O 172.909 -7.71806 -0.42951 0
M  V30 6326 C 173.849 -7.67148 0.673689 0
M  V30 6327 C 173.119 -7.33374 1.95559 0
M  V30 6328 O 172.909 -5.88721 2.00726 0
M  V30 6329 C 171.719 -7.92526 2.10483 0
M  V30 6330 O 171.329 -8.02971 3.47653 0
M  V30 6331 C 170.839 -6.89602 1.41652 0
M  V30 6332 C 171.549 -5.59201 1.75185 0
M  V30 6333 N 171.499 -4.58235 0.662552 0
M  V30 6334 H 174.338 -8.65116 0.777161 0
M  V30 6335 H 174.61 -6.90173 0.474152 0
M  V30 6336 H 173.742 -7.66548 2.79458 0
M  V30 6337 P 169.779 -8.03563 3.84925 0
M  V30 6338 O 169.559 -8.85821 5.0569 0
M  V30 6339 O 168.989 -8.41101 2.65469 0
M  V30 6340 O 169.529 -6.4965 4.18908 0
M  V30 6341 C 170.469 -5.81037 5.05421 0
M  V30 6342 C 169.739 -4.78366 5.89277 0
M  V30 6343 O 169.529 -3.58302 5.08433 0
M  V30 6344 C 168.339 -5.17448 6.36119 0
M  V30 6345 O 167.949 -4.45271 7.53232 0
M  V30 6346 C 167.459 -4.74639 5.19936 0
M  V30 6347 C 168.169 -3.49432 4.70418 0
M  V30 6348 N 168.119 -3.32099 3.22613 0
M  V30 6349 H 170.958 -6.54213 5.71376 0
M  V30 6350 H 171.23 -5.30936 4.43503 0
M  V30 6351 H 170.362 -4.55889 6.76652 0
M  V30 6352 H 167.707 -2.61715 5.17932 0
M  V30 6353 H 167.427 -5.52155 4.41878 0
M  V30 6354 H 166.436 -4.51981 5.53374 0
M  V30 6355 H 168.27 -6.25124 6.55234 0
M  V30 6356 P 166.399 -4.23843 7.83734 0
M  V30 6357 O 166.179 -4.19407 9.29784 0
M  V30 6358 O 165.609 -5.24426 7.09156 0
M  V30 6359 O 166.149 -2.7935 7.20758 0
M  V30 6360 C 167.089 -1.7299 7.50419 0
M  V30 6361 C 166.359 -0.406376 7.57911 0
M  V30 6362 O 166.149 0.0897726 6.21935 0
M  V30 6363 C 164.959 -0.447224 8.1878 0
M  V30 6364 O 164.569 0.825065 8.71101 0
M  V30 6365 C 164.079 -0.783801 6.99623 0
M  V30 6366 C 164.789 -0.0619192 5.85967 0
M  V30 6367 N 164.739 -0.7859 4.56281 0
M  V30 6368 H 167.578 -1.93423 8.4679 0
M  V30 6369 H 167.85 -1.68181 6.71046 0
M  V30 6370 H 166.982 0.289041 8.15388 0
M  V30 6371 P 163.019 1.17771 8.83182 0
M  V30 6372 O 162.799 2.07206 9.98732 0
M  V30 6373 O 162.229 -0.0743816 8.81969 0
M  V30 6374 O 162.769 1.97652 7.47304 0
M  V30 6375 C 163.709 3.01133 7.08783 0
M  V30 6376 C 162.979 4.12613 6.37049 0
M  V30 6377 O 162.769 3.72827 4.97879 0
M  V30 6378 C 161.579 4.45085 6.88694 0
M  V30 6379 O 161.189 5.7877 6.5624 0
M  V30 6380 C 160.699 3.47817 6.12078 0
M  V30 6381 C 161.409 3.39414 4.77697 0
M  V30 6382 N 161.359 2.04199 4.15538 0
M  V30 6383 H 164.198 3.41248 7.98759 0
M  V30 6384 H 164.47 2.57728 6.42 0
M  V30 6385 H 163.602 5.02657 6.42673 0
M  V30 6386 H 160.947 4.11708 4.08956 0
M  V30 6387 H 160.667 2.49626 6.61679 0
M  V30 6388 H 159.676 3.8662 6.00862 0
M  V30 6389 H 161.51 4.29991 7.97006 0
M  V30 6390 P 159.639 6.144 6.45285 0
M  V30 6391 O 159.419 7.54673 6.86199 0
M  V30 6392 O 158.849 5.12391 7.179 0
M  V30 6393 O 159.389 5.99158 4.88404 0
M  V30 6394 C 160.329 6.60234 3.96415 0
M  V30 6395 C 159.599 7.08259 2.72856 0
M  V30 6396 O 159.389 5.9427 1.83651 0
M  V30 6397 C 158.199 7.64886 2.9555 0
M  V30 6398 O 157.809 8.53963 1.90717 0
M  V30 6399 C 157.319 6.4116 2.90739 0
M  V30 6400 C 158.029 5.55375 1.86963 0
M  V30 6401 N 157.979 4.09664 2.15742 0
M  V30 6402 H 160.818 7.45574 4.45629 0
M  V30 6403 H 161.09 5.86232 3.67314 0
M  V30 6404 H 160.222 7.84412 2.24479 0
M  V30 6405 P 156.259 8.7635 1.60911 0
M  V30 6406 O 156.039 10.1388 1.11561 0
M  V30 6407 O 155.469 8.36503 2.79617 0
M  V30 6408 O 156.009 7.71806 0.42951 0
M  V30 6409 C 156.949 7.67148 -0.673689 0
M  V30 6410 C 156.219 7.33374 -1.95559 0
M  V30 6411 O 156.009 5.88721 -2.00726 0
M  V30 6412 C 154.819 7.92526 -2.10483 0
M  V30 6413 O 154.429 8.02971 -3.47653 0
M  V30 6414 C 153.939 6.89602 -1.41652 0
M  V30 6415 C 154.649 5.59201 -1.75185 0
M  V30 6416 N 154.599 4.58235 -0.662552 0
M  V30 6417 C 154.679 4.7683 0.704049 0
M  V30 6418 N 154.599 3.66233 1.39775 0
M  V30 6419 C 154.459 2.66526 0.431739 0
M  V30 6420 C 154.329 1.26394 0.575992 0
M  V30 6421 N 154.209 0.62859 -0.67177 0
M  V30 6422 C 154.209 1.27134 -1.89385 0
M  V30 6423 N 154.079 0.492035 -2.96951 0
M  V30 6424 N 154.339 2.58978 -2.02907 0
M  V30 6425 C 154.459 3.22433 -0.832218 0
M  V30 6426 H 157.438 8.65116 -0.777161 0
M  V30 6427 H 157.71 6.90173 -0.474152 0
M  V30 6428 H 156.842 7.66548 -2.79458 0
M  V30 6429 P 152.879 8.03563 -3.84925 0
M  V30 6430 O 152.659 8.85821 -5.0569 0
M  V30 6431 O 152.089 8.41101 -2.65469 0
M  V30 6432 O 152.629 6.4965 -4.18908 0
M  V30 6433 C 153.569 5.81037 -5.05421 0
M  V30 6434 C 152.839 4.78366 -5.89277 0
M  V30 6435 O 152.629 3.58302 -5.08433 0
M  V30 6436 C 151.439 5.17448 -6.36119 0
M  V30 6437 O 151.049 4.45271 -7.53232 0
M  V30 6438 C 150.559 4.74639 -5.19936 0
M  V30 6439 C 151.269 3.49432 -4.70418 0
M  V30 6440 N 151.219 3.31776 -3.22945 0
M  V30 6441 C 151.299 4.27147 -2.23315 0
M  V30 6442 N 151.219 3.78447 -1.02186 0
M  V30 6443 C 151.079 2.41001 -1.21732 0
M  V30 6444 C 150.949 1.36111 -0.27694 0
M  V30 6445 N 150.829 0.113683 -0.912949 0
M  V30 6446 C 150.829 -0.0846396 -2.27943 0
M  V30 6447 N 150.699 -1.34737 -2.6916 0
M  V30 6448 N 150.959 0.902521 -3.16379 0
M  V30 6449 C 151.079 2.11937 -2.56849 0
M  V30 6450 H 154.058 6.54213 -5.71376 0
M  V30 6451 H 154.33 5.30492 -4.44033 0
M  V30 6452 H 153.462 4.55889 -6.76652 0
M  V30 6453 P 149.499 4.23843 -7.83734 0
M  V30 6454 O 149.279 4.19407 -9.29784 0
M  V30 6455 O 148.709 5.24426 -7.09156 0
M  V30 6456 O 149.249 2.7935 -7.20758 0
M  V30 6457 C 150.189 1.7299 -7.50419 0
M  V30 6458 C 149.459 0.406376 -7.57911 0
M  V30 6459 O 149.249 -0.0897726 -6.21935 0
M  V30 6460 C 148.059 0.447224 -8.1878 0
M  V30 6461 O 147.669 -0.825065 -8.71101 0
M  V30 6462 C 147.179 0.783801 -6.99623 0
M  V30 6463 C 147.889 0.0619192 -5.85967 0
M  V30 6464 N 147.839 0.7859 -4.56281 0
M  V30 6465 H 150.678 1.93423 -8.4679 0
M  V30 6466 H 150.95 1.68181 -6.71046 0
M  V30 6467 H 150.082 -0.289041 -8.15388 0
M  V30 6468 P 146.119 -1.17771 -8.83182 0
M  V30 6469 O 145.899 -2.07206 -9.98732 0
M  V30 6470 O 145.329 0.0743816 -8.81969 0
M  V30 6471 O 145.869 -1.97652 -7.47304 0
M  V30 6472 C 146.809 -3.01055 -7.08599 0
M  V30 6473 C 146.079 -4.12613 -6.37049 0
M  V30 6474 O 145.869 -3.72827 -4.97879 0
M  V30 6475 C 144.679 -4.45719 -6.88164 0
M  V30 6476 O 144.289 -5.7877 -6.5624 0
M  V30 6477 C 143.799 -3.47768 -6.11991 0
M  V30 6478 C 144.509 -3.39356 -4.77615 0
M  V30 6479 N 144.459 -2.04571 -4.15244 0
M  V30 6480 C 144.309 -1.98587 -2.78314 0
M  V30 6481 O 144.219 -2.98134 -2.08835 0
M  V30 6482 N 144.269 -0.714467 -2.24925 0
M  V30 6483 C 144.359 0.470001 -2.94169 0
M  V30 6484 C 144.509 0.312541 -4.36783 0
M  V30 6485 C 144.559 -0.914512 -4.92583 0
M  V30 6486 H 147.3 -3.41169 -7.98575 0
M  V30 6487 H 147.569 -2.58295 -6.41556 0
M  V30 6488 H 146.702 -5.02657 -6.42673 0
M  V30 6489 H 144.047 -4.11637 -4.08885 0
M  V30 6490 H 143.768 -2.49626 -6.61679 0
M  V30 6491 H 142.776 -3.86566 -6.00778 0
M  V30 6492 H 144.61 -4.29943 -7.96918 0
M  V30 6493 H 144.681 -1.00937 -6.00374 0
M  V30 6494 P 142.739 -6.144 -6.45285 0
M  V30 6495 O 142.519 -7.54673 -6.86199 0
M  V30 6496 O 141.949 -5.12391 -7.179 0
M  V30 6497 O 142.489 -5.99158 -4.88404 0
M  V30 6498 C 143.429 -6.60234 -3.96415 0
M  V30 6499 C 142.699 -7.08259 -2.72856 0
M  V30 6500 O 142.489 -5.9427 -1.83651 0
M  V30 6501 C 141.299 -7.64886 -2.9555 0
M  V30 6502 O 140.909 -8.53963 -1.90717 0
M  V30 6503 C 140.419 -6.4116 -2.90739 0
M  V30 6504 C 141.129 -5.55375 -1.86963 0
M  V30 6505 N 141.079 -4.09448 -2.16152 0
M  V30 6506 H 143.918 -7.45574 -4.45629 0
M  V30 6507 H 144.19 -5.85864 -3.679 0
M  V30 6508 H 143.322 -7.84412 -2.24479 0
M  V30 6509 H 140.667 -5.73457 -0.888562 0
M  V30 6510 H 140.387 -5.90877 -3.88583 0
M  V30 6511 H 139.396 -6.6596 -2.58858 0
M  V30 6512 H 141.23 -8.16339 -3.92049 0
M  V30 6513 P 139.359 -8.7635 -1.60911 0
M  V30 6514 O 139.139 -10.1388 -1.11561 0
M  V30 6515 O 138.569 -8.36503 -2.79617 0
M  V30 6516 O 139.109 -7.71806 -0.42951 0
M  V30 6517 C 140.049 -7.67148 0.673689 0
M  V30 6518 C 139.319 -7.33374 1.95559 0
M  V30 6519 O 139.109 -5.88721 2.00726 0
M  V30 6520 C 137.919 -7.92526 2.10483 0
M  V30 6521 O 137.529 -8.02971 3.47653 0
M  V30 6522 C 137.039 -6.89602 1.41652 0
M  V30 6523 C 137.749 -5.59201 1.75185 0
M  V30 6524 N 137.699 -4.58235 0.662552 0
M  V30 6525 H 140.538 -8.65116 0.777161 0
M  V30 6526 H 140.81 -6.90173 0.474152 0
M  V30 6527 H 139.942 -7.66548 2.79458 0
M  V30 6528 P 135.979 -8.03563 3.84925 0
M  V30 6529 O 135.759 -8.85821 5.0569 0
M  V30 6530 O 135.189 -8.41101 2.65469 0
M  V30 6531 O 135.729 -6.4965 4.18908 0
M  V30 6532 C 136.669 -5.81037 5.05421 0
M  V30 6533 C 135.939 -4.78366 5.89277 0
M  V30 6534 O 135.729 -3.58302 5.08433 0
M  V30 6535 C 134.539 -5.17448 6.36119 0
M  V30 6536 O 134.149 -4.45271 7.53232 0
M  V30 6537 C 133.659 -4.74639 5.19936 0
M  V30 6538 C 134.369 -3.49432 4.70418 0
M  V30 6539 N 134.319 -3.31776 3.22945 0
M  V30 6540 H 137.158 -6.54213 5.71376 0
M  V30 6541 H 137.43 -5.30492 4.44033 0
M  V30 6542 H 136.562 -4.55889 6.76652 0
M  V30 6543 P 132.599 -4.23843 7.83734 0
M  V30 6544 O 132.379 -4.19407 9.29784 0
M  V30 6545 O 131.809 -5.24426 7.09156 0
M  V30 6546 O 132.349 -2.7935 7.20758 0
M  V30 6547 C 133.289 -1.7299 7.50419 0
M  V30 6548 C 132.559 -0.406376 7.57911 0
M  V30 6549 O 132.349 0.0897726 6.21935 0
M  V30 6550 C 131.159 -0.447224 8.1878 0
M  V30 6551 O 130.769 0.825065 8.71101 0
M  V30 6552 C 130.279 -0.783801 6.99623 0
M  V30 6553 C 130.989 -0.0619192 5.85967 0
M  V30 6554 N 130.939 -0.7859 4.56281 0
M  V30 6555 H 133.778 -1.93423 8.4679 0
M  V30 6556 H 134.05 -1.68181 6.71046 0
M  V30 6557 H 133.182 0.289041 8.15388 0
M  V30 6558 P 129.219 1.17771 8.83182 0
M  V30 6559 O 128.999 2.07206 9.98732 0
M  V30 6560 O 128.429 -0.0743816 8.81969 0
M  V30 6561 O 128.969 1.97652 7.47304 0
M  V30 6562 C 129.909 3.01055 7.08599 0
M  V30 6563 C 129.179 4.12613 6.37049 0
M  V30 6564 O 128.969 3.72827 4.97879 0
M  V30 6565 C 127.779 4.45719 6.88164 0
M  V30 6566 O 127.389 5.7877 6.5624 0
M  V30 6567 C 126.899 3.47768 6.11991 0
M  V30 6568 C 127.609 3.39356 4.77615 0
M  V30 6569 N 127.559 2.04571 4.15244 0
M  V30 6570 C 127.409 1.98587 2.78314 0
M  V30 6571 O 127.319 2.98134 2.08835 0
M  V30 6572 N 127.369 0.714467 2.24925 0
M  V30 6573 C 127.459 -0.470001 2.94169 0
M  V30 6574 C 127.609 -0.312541 4.36783 0
M  V30 6575 C 127.659 0.914512 4.92583 0
M  V30 6576 H 130.4 3.41169 7.98575 0
M  V30 6577 H 130.669 2.58295 6.41556 0
M  V30 6578 H 129.802 5.02657 6.42673 0
M  V30 6579 H 127.147 4.11637 4.08885 0
M  V30 6580 H 126.868 2.49626 6.61679 0
M  V30 6581 H 125.876 3.86566 6.00778 0
M  V30 6582 H 127.71 4.29943 7.96918 0
M  V30 6583 H 127.781 1.00937 6.00374 0
M  V30 6584 P 125.839 6.144 6.45285 0
M  V30 6585 O 125.619 7.54673 6.86199 0
M  V30 6586 O 125.049 5.12391 7.179 0
M  V30 6587 O 125.589 5.99158 4.88404 0
M  V30 6588 C 126.529 6.60234 3.96415 0
M  V30 6589 C 125.799 7.08259 2.72856 0
M  V30 6590 O 125.589 5.9427 1.83651 0
M  V30 6591 C 124.399 7.64886 2.9555 0
M  V30 6592 O 124.009 8.53963 1.90717 0
M  V30 6593 C 123.519 6.4116 2.90739 0
M  V30 6594 C 124.229 5.55375 1.86963 0
M  V30 6595 N 124.179 4.09664 2.15742 0
M  V30 6596 H 127.018 7.45574 4.45629 0
M  V30 6597 H 127.29 5.86232 3.67314 0
M  V30 6598 H 126.422 7.84412 2.24479 0
M  V30 6599 P 122.459 8.7635 1.60911 0
M  V30 6600 O 122.239 10.1388 1.11561 0
M  V30 6601 O 121.669 8.36503 2.79617 0
M  V30 6602 O 122.209 7.71806 0.42951 0
M  V30 6603 C 123.149 7.67148 -0.673689 0
M  V30 6604 C 122.419 7.33374 -1.95559 0
M  V30 6605 O 122.209 5.88721 -2.00726 0
M  V30 6606 C 121.019 7.92526 -2.10483 0
M  V30 6607 O 120.629 8.02971 -3.47653 0
M  V30 6608 C 120.139 6.89602 -1.41652 0
M  V30 6609 C 120.849 5.59201 -1.75185 0
M  V30 6610 N 120.799 4.58235 -0.662552 0
M  V30 6611 C 120.879 4.7683 0.704049 0
M  V30 6612 N 120.799 3.66233 1.39775 0
M  V30 6613 C 120.659 2.66526 0.431739 0
M  V30 6614 C 120.529 1.26394 0.575992 0
M  V30 6615 O 120.509 0.589894 1.60503 0
M  V30 6616 N 120.409 0.62859 -0.67177 0
M  V30 6617 C 120.409 1.27134 -1.89385 0
M  V30 6618 N 120.279 0.492035 -2.96951 0
M  V30 6619 N 120.539 2.58978 -2.02907 0
M  V30 6620 C 120.659 3.22433 -0.832218 0
M  V30 6621 H 123.638 8.65116 -0.777161 0
M  V30 6622 H 123.91 6.90173 -0.474152 0
M  V30 6623 H 123.042 7.66548 -2.79458 0
M  V30 6624 H 120.387 5.16254 -2.65229 0
M  V30 6625 H 120.107 7.06532 -0.329431 0
M  V30 6626 H 119.116 6.91023 -1.82047 0
M  V30 6627 H 120.95 8.90971 -1.62675 0
M  V30 6628 H 120.999 5.74954 1.16305 0
M  V30 6629 H 120.317 -0.366713 -0.674793 0
M  V30 6630 H 120.28 0.908532 -3.91188 0
M  V30 6631 H 120.179 -0.528253 -2.85758 0
M  V30 6632 P 119.079 8.03563 -3.84925 0
M  V30 6633 O 118.859 8.85821 -5.0569 0
M  V30 6634 O 118.289 8.41101 -2.65469 0
M  V30 6635 O 118.829 6.4965 -4.18908 0
M  V30 6636 C 119.769 5.81037 -5.05421 0
M  V30 6637 C 119.039 4.78366 -5.89277 0
M  V30 6638 O 118.829 3.58302 -5.08433 0
M  V30 6639 C 117.639 5.17448 -6.36119 0
M  V30 6640 O 117.249 4.45271 -7.53232 0
M  V30 6641 C 116.759 4.74639 -5.19936 0
M  V30 6642 C 117.469 3.49432 -4.70418 0
M  V30 6643 N 117.419 3.31776 -3.22945 0
M  V30 6644 C 117.499 4.27147 -2.23315 0
M  V30 6645 N 117.419 3.78447 -1.02186 0
M  V30 6646 C 117.279 2.41001 -1.21732 0
M  V30 6647 C 117.149 1.36111 -0.27694 0
M  V30 6648 N 117.029 0.113683 -0.912949 0
M  V30 6649 C 117.029 -0.0846396 -2.27943 0
M  V30 6650 N 116.899 -1.34737 -2.6916 0
M  V30 6651 N 117.159 0.902521 -3.16379 0
M  V30 6652 C 117.279 2.11937 -2.56849 0
M  V30 6653 H 120.258 6.54213 -5.71376 0
M  V30 6654 H 120.53 5.30492 -4.44033 0
M  V30 6655 H 119.662 4.55889 -6.76652 0
M  V30 6656 P 115.699 4.23843 -7.83734 0
M  V30 6657 O 115.479 4.19407 -9.29784 0
M  V30 6658 O 114.909 5.24426 -7.09156 0
M  V30 6659 O 115.449 2.7935 -7.20758 0
M  V30 6660 C 116.389 1.7299 -7.50419 0
M  V30 6661 C 115.659 0.406376 -7.57911 0
M  V30 6662 O 115.449 -0.0897726 -6.21935 0
M  V30 6663 C 114.259 0.447224 -8.1878 0
M  V30 6664 O 113.869 -0.825065 -8.71101 0
M  V30 6665 C 113.379 0.783801 -6.99623 0
M  V30 6666 C 114.089 0.0619192 -5.85967 0
M  V30 6667 N 114.039 0.790462 -4.56202 0
M  V30 6668 C 114.119 2.13895 -4.34171 0
M  V30 6669 N 114.049 2.46449 -3.08687 0
M  V30 6670 C 113.899 1.2525 -2.43697 0
M  V30 6671 C 113.769 0.914535 -1.07318 0
M  V30 6672 N 113.759 1.80782 -0.0887348 0
M  V30 6673 N 113.649 -0.386745 -0.768133 0
M  V30 6674 C 113.659 -1.28096 -1.75159 0
M  V30 6675 N 113.779 -1.09708 -3.04861 0
M  V30 6676 C 113.899 0.214857 -3.32306 0
M  V30 6677 H 116.878 1.93423 -8.4679 0
M  V30 6678 H 117.15 1.68852 -6.70877 0
M  V30 6679 H 116.282 -0.289041 -8.15388 0
M  V30 6680 H 113.627 -0.927006 -5.72848 0
M  V30 6681 H 113.347 1.86973 -6.82036 0
M  V30 6682 H 112.356 0.403953 -7.13357 0
M  V30 6683 H 114.19 1.20599 -8.97534 0
M  V30 6684 H 114.231 2.86846 -5.14318 0
M  V30 6685 H 113.85 2.81082 -0.302037 0
M  V30 6686 H 113.661 1.49688 0.889064 0
M  V30 6687 H 113.553 -2.31317 -1.43855 0
M  V30 6688 P 112.319 -1.17771 -8.83182 0
M  V30 6689 O 112.099 -2.07206 -9.98732 0
M  V30 6690 O 111.529 0.0743816 -8.81969 0
M  V30 6691 O 112.069 -1.97678 -7.474 0
M  V30 6692 C 113.009 -3.01133 -7.08783 0
M  V30 6693 C 112.279 -4.1203 -6.37546 0
M  V30 6694 O 112.069 -3.72887 -4.9796 0
M  V30 6695 C 110.879 -4.45085 -6.88694 0
M  V30 6696 O 110.489 -5.78836 -6.56315 0
M  V30 6697 C 109.999 -3.47817 -6.12078 0
M  V30 6698 C 110.709 -3.39414 -4.77697 0
M  V30 6699 N 110.659 -2.04615 -4.15333 0
M  V30 6700 C 110.509 -1.96929 -2.77162 0
M  V30 6701 O 110.419 -3.02017 -2.12006 0
M  V30 6702 N 110.459 -0.55485 -2.24237 0
M  V30 6703 C 110.559 0.367808 -2.9169 0
M  V30 6704 N 110.509 1.53426 -2.29427 0
M  V30 6705 C 110.709 0.319148 -4.33828 0
M  V30 6706 C 110.759 -0.920672 -4.90433 0
M  V30 6707 H 113.499 -3.41209 -7.98667 0
M  V30 6708 H 113.769 -2.5837 -6.41742 0
M  V30 6709 H 112.902 -5.02718 -6.42752 0
M  V30 6710 H 110.247 -4.11779 -4.09026 0
M  V30 6711 H 109.967 -2.49661 -6.61772 0
M  V30 6712 H 108.976 -3.86674 -6.00946 0
M  V30 6713 H 110.81 -4.29991 -7.97006 0
M  V30 6714 H 110.882 -1.00589 -5.98303 0
M  V30 6715 H 110.78 1.22639 -4.93799 0
M  V30 6716 H 110.392 1.56819 -1.27167 0
M  V30 6717 H 110.588 2.41062 -2.83063 0
M  V30 6718 P 108.939 -6.144 -6.45285 0
M  V30 6719 O 108.719 -7.54673 -6.86199 0
M  V30 6720 O 108.149 -5.12391 -7.179 0
M  V30 6721 O 108.689 -5.99158 -4.88404 0
M  V30 6722 C 109.629 -6.60234 -3.96415 0
M  V30 6723 C 108.899 -7.08259 -2.72856 0
M  V30 6724 O 108.689 -5.9427 -1.83651 0
M  V30 6725 C 107.499 -7.64886 -2.9555 0
M  V30 6726 O 107.109 -8.53963 -1.90717 0
M  V30 6727 C 106.619 -6.4116 -2.90739 0
M  V30 6728 C 107.329 -5.55375 -1.86963 0
M  V30 6729 N 107.279 -4.09448 -2.16152 0
M  V30 6730 H 110.118 -7.45574 -4.45629 0
M  V30 6731 H 110.39 -5.85864 -3.679 0
M  V30 6732 H 109.522 -7.84412 -2.24479 0
M  V30 6733 H 106.867 -5.73457 -0.888562 0
M  V30 6734 H 106.587 -5.90877 -3.88583 0
M  V30 6735 H 105.596 -6.6596 -2.58858 0
M  V30 6736 H 107.43 -8.16339 -3.92049 0
M  V30 6737 P 105.559 -8.7635 -1.60911 0
M  V30 6738 O 105.339 -10.1388 -1.11561 0
M  V30 6739 O 104.769 -8.36503 -2.79617 0
M  V30 6740 O 105.309 -7.71806 -0.42951 0
M  V30 6741 C 106.249 -7.67148 0.673689 0
M  V30 6742 C 105.519 -7.33374 1.95559 0
M  V30 6743 O 105.309 -5.88721 2.00726 0
M  V30 6744 C 104.119 -7.92526 2.10483 0
M  V30 6745 O 103.729 -8.02971 3.47653 0
M  V30 6746 C 103.239 -6.89602 1.41652 0
M  V30 6747 C 103.949 -5.59201 1.75185 0
M  V30 6748 N 103.899 -4.58235 0.662552 0
M  V30 6749 H 106.738 -8.65116 0.777161 0
M  V30 6750 H 107.01 -6.90173 0.474152 0
M  V30 6751 H 106.142 -7.66548 2.79458 0
M  V30 6752 P 102.179 -8.03563 3.84925 0
M  V30 6753 O 101.959 -8.85821 5.0569 0
M  V30 6754 O 101.389 -8.41101 2.65469 0
M  V30 6755 O 101.929 -6.4965 4.18908 0
M  V30 6756 C 102.869 -5.80886 5.05289 0
M  V30 6757 C 102.139 -4.78366 5.89277 0
M  V30 6758 O 101.929 -3.58302 5.08433 0
M  V30 6759 C 100.739 -5.16748 6.36559 0
M  V30 6760 O 100.349 -4.45271 7.53232 0
M  V30 6761 C 99.8594 -4.74572 5.19863 0
M  V30 6762 C 100.569 -3.49373 4.70338 0
M  V30 6763 N 100.519 -3.31704 3.22876 0
M  V30 6764 C 100.369 -2.03326 2.74871 0
M  V30 6765 O 100.279 -1.06486 3.48076 0
M  V30 6766 N 100.329 -1.91838 1.37456 0
M  V30 6767 C 100.419 -2.94295 0.462035 0
M  V30 6768 C 100.569 -4.25064 1.05249 0
M  V30 6769 C 100.619 -4.40214 2.39192 0
M  V30 6770 H 103.36 -6.54063 5.71245 0
M  V30 6771 H 103.629 -5.30339 4.43905 0
M  V30 6772 H 102.762 -4.55889 6.76652 0
M  V30 6773 H 100.107 -2.6167 5.17842 0
M  V30 6774 H 99.8284 -5.52155 4.41878 0
M  V30 6775 H 98.8364 -4.51918 5.53297 0
M  V30 6776 H 100.67 -6.25055 6.55162 0
M  V30 6777 H 100.741 -5.39798 2.81523 0
M  V30 6778 P 98.7994 -4.23843 7.83734 0
M  V30 6779 O 98.5794 -4.19407 9.29784 0
M  V30 6780 O 98.0094 -5.24426 7.09156 0
M  V30 6781 O 98.5494 -2.7935 7.20758 0
M  V30 6782 C 99.4894 -1.7299 7.50419 0
M  V30 6783 C 98.7594 -0.406376 7.57911 0
M  V30 6784 O 98.5494 0.0897726 6.21935 0
M  V30 6785 C 97.3594 -0.447224 8.1878 0
M  V30 6786 O 96.9694 0.825065 8.71101 0
M  V30 6787 C 96.4794 -0.783801 6.99623 0
M  V30 6788 C 97.1894 -0.0619192 5.85967 0
M  V30 6789 N 97.1394 -0.790462 4.56202 0
M  V30 6790 H 99.9784 -1.93423 8.4679 0
M  V30 6791 H 100.25 -1.68852 6.70877 0
M  V30 6792 H 99.3824 0.289041 8.15388 0
M  V30 6793 H 96.7274 0.927006 5.72848 0
M  V30 6794 H 96.4474 -1.86973 6.82036 0
M  V30 6795 H 95.4564 -0.403953 7.13357 0
M  V30 6796 H 97.2904 -1.20599 8.97534 0
M  V30 6797 P 95.4195 1.17771 8.83182 0
M  V30 6798 O 95.1995 2.07206 9.98732 0
M  V30 6799 O 94.6295 -0.0743816 8.81969 0
M  V30 6800 O 95.1695 1.97652 7.47304 0
M  V30 6801 C 96.1095 3.01133 7.08783 0
M  V30 6802 C 95.3795 4.12613 6.37049 0
M  V30 6803 O 95.1695 3.72827 4.97879 0
M  V30 6804 C 93.9795 4.45085 6.88694 0
M  V30 6805 O 93.5895 5.7877 6.5624 0
M  V30 6806 C 93.0995 3.47817 6.12078 0
M  V30 6807 C 93.8095 3.39414 4.77697 0
M  V30 6808 N 93.7595 2.04615 4.15333 0
M  V30 6809 H 96.5985 3.41248 7.98759 0
M  V30 6810 H 96.8705 2.5837 6.41742 0
M  V30 6811 H 96.0025 5.02657 6.42673 0
M  V30 6812 P 92.0395 6.144 6.45285 0
M  V30 6813 O 91.8195 7.54673 6.86199 0
M  V30 6814 O 91.2495 5.12391 7.179 0
M  V30 6815 O 91.7895 5.99158 4.88404 0
M  V30 6816 C 92.7295 6.60234 3.96415 0
M  V30 6817 C 91.9995 7.08259 2.72856 0
M  V30 6818 O 91.7895 5.9427 1.83651 0
M  V30 6819 C 90.5995 7.64886 2.9555 0
M  V30 6820 O 90.2095 8.53963 1.90717 0
M  V30 6821 C 89.7195 6.4116 2.90739 0
M  V30 6822 C 90.4295 5.55375 1.86963 0
M  V30 6823 N 90.3795 4.09664 2.15742 0
M  V30 6824 H 93.2185 7.45574 4.45629 0
M  V30 6825 H 93.4905 5.86232 3.67314 0
M  V30 6826 H 92.6225 7.84412 2.24479 0
M  V30 6827 P 88.6595 8.7635 1.60911 0
M  V30 6828 O 88.4395 10.1388 1.11561 0
M  V30 6829 O 87.8695 8.36503 2.79617 0
M  V30 6830 O 88.4095 7.71806 0.42951 0
M  V30 6831 C 89.3495 7.67148 -0.673689 0
M  V30 6832 C 88.6195 7.33374 -1.95559 0
M  V30 6833 O 88.4095 5.88721 -2.00726 0
M  V30 6834 C 87.2195 7.92526 -2.10483 0
M  V30 6835 O 86.8295 8.02971 -3.47653 0
M  V30 6836 C 86.3395 6.89602 -1.41652 0
M  V30 6837 C 87.0495 5.59201 -1.75185 0
M  V30 6838 N 86.9995 4.58235 -0.662552 0
M  V30 6839 H 89.8385 8.65116 -0.777161 0
M  V30 6840 H 90.1105 6.90173 -0.474152 0
M  V30 6841 H 89.2425 7.66548 -2.79458 0
M  V30 6842 P 85.2795 8.03563 -3.84925 0
M  V30 6843 O 85.0595 8.85821 -5.0569 0
M  V30 6844 O 84.4895 8.41101 -2.65469 0
M  V30 6845 O 85.0295 6.4965 -4.18908 0
M  V30 6846 C 85.9695 5.81037 -5.05421 0
M  V30 6847 C 85.2395 4.78366 -5.89277 0
M  V30 6848 O 85.0295 3.58302 -5.08433 0
M  V30 6849 C 83.8395 5.17448 -6.36119 0
M  V30 6850 O 83.4495 4.45271 -7.53232 0
M  V30 6851 C 82.9595 4.74639 -5.19936 0
M  V30 6852 C 83.6695 3.49432 -4.70418 0
M  V30 6853 N 83.6195 3.31776 -3.22945 0
M  V30 6854 H 86.4585 6.54213 -5.71376 0
M  V30 6855 H 86.7305 5.30492 -4.44033 0
M  V30 6856 H 85.8625 4.55889 -6.76652 0
M  V30 6857 P 81.8995 4.23843 -7.83734 0
M  V30 6858 O 81.6795 4.19407 -9.29784 0
M  V30 6859 O 81.1095 5.24426 -7.09156 0
M  V30 6860 O 81.6495 2.7935 -7.20758 0
M  V30 6861 C 82.5895 1.7299 -7.50419 0
M  V30 6862 C 81.8595 0.406376 -7.57911 0
M  V30 6863 O 81.6495 -0.0897726 -6.21935 0
M  V30 6864 C 80.4595 0.447224 -8.1878 0
M  V30 6865 O 80.0695 -0.825065 -8.71101 0
M  V30 6866 C 79.5795 0.783801 -6.99623 0
M  V30 6867 C 80.2895 0.0619192 -5.85967 0
M  V30 6868 N 80.2395 0.7859 -4.56281 0
M  V30 6869 H 83.0785 1.93423 -8.4679 0
M  V30 6870 H 83.3505 1.68181 -6.71046 0
M  V30 6871 H 82.4825 -0.289041 -8.15388 0
M  V30 6872 P 78.5196 -1.17771 -8.83182 0
M  V30 6873 O 78.2996 -2.07206 -9.98732 0
M  V30 6874 O 77.7296 0.0743816 -8.81969 0
M  V30 6875 O 78.2696 -1.97652 -7.47304 0
M  V30 6876 C 79.2096 -3.01133 -7.08783 0
M  V30 6877 C 78.4796 -4.12613 -6.37049 0
M  V30 6878 O 78.2696 -3.72827 -4.97879 0
M  V30 6879 C 77.0796 -4.45085 -6.88694 0
M  V30 6880 O 76.6896 -5.7877 -6.5624 0
M  V30 6881 C 76.1996 -3.47817 -6.12078 0
M  V30 6882 C 76.9096 -3.39414 -4.77697 0
M  V30 6883 N 76.8596 -2.04615 -4.15333 0
M  V30 6884 H 79.6986 -3.41248 -7.98759 0
M  V30 6885 H 79.9706 -2.5837 -6.41742 0
M  V30 6886 H 79.1026 -5.02657 -6.42673 0
M  V30 6887 P 75.1396 -6.144 -6.45285 0
M  V30 6888 O 74.9196 -7.54673 -6.86199 0
M  V30 6889 O 74.3496 -5.12391 -7.179 0
M  V30 6890 O 74.8896 -5.99158 -4.88404 0
M  V30 6891 C 75.8296 -6.60234 -3.96415 0
M  V30 6892 C 75.0996 -7.08259 -2.72856 0
M  V30 6893 O 74.8896 -5.9427 -1.83651 0
M  V30 6894 C 73.6996 -7.64886 -2.9555 0
M  V30 6895 O 73.3096 -8.53963 -1.90717 0
M  V30 6896 C 72.8196 -6.4116 -2.90739 0
M  V30 6897 C 73.5296 -5.55375 -1.86963 0
M  V30 6898 N 73.4796 -4.09664 -2.15742 0
M  V30 6899 H 76.3186 -7.45574 -4.45629 0
M  V30 6900 H 76.5906 -5.86232 -3.67314 0
M  V30 6901 H 75.7226 -7.84412 -2.24479 0
M  V30 6902 P 71.7596 -8.7635 -1.60911 0
M  V30 6903 O 71.5396 -10.1388 -1.11561 0
M  V30 6904 O 70.9696 -8.36503 -2.79617 0
M  V30 6905 O 71.5096 -7.71906 -0.429565 0
M  V30 6906 C 72.4496 -7.67148 0.673689 0
M  V30 6907 C 71.7196 -7.33666 1.94851 0
M  V30 6908 O 71.5096 -5.88816 2.00759 0
M  V30 6909 C 70.3196 -7.92526 2.10483 0
M  V30 6910 O 69.9296 -8.03063 3.47693 0
M  V30 6911 C 69.4396 -6.89602 1.41652 0
M  V30 6912 C 70.1496 -5.59201 1.75185 0
M  V30 6913 N 70.0996 -4.58235 0.662552 0
M  V30 6914 C 69.9496 -3.24451 1.01643 0
M  V30 6915 O 69.8596 -2.94958 2.21722 0
M  V30 6916 N 69.8996 -2.30408 -0.165238 0
M  V30 6917 C 69.9996 -2.66048 -1.25118 0
M  V30 6918 N 69.9496 -1.70787 -2.16813 0
M  V30 6919 C 70.1496 -4.02732 -1.64413 0
M  V30 6920 C 70.1996 -4.9488 -0.63991 0
M  V30 6921 H 72.9396 -8.65017 0.777072 0
M  V30 6922 H 73.2096 -6.90173 0.474152 0
M  V30 6923 H 72.3426 -7.66642 2.79492 0
M  V30 6924 H 69.6876 -5.16254 2.65229 0
M  V30 6925 H 69.4076 -7.06532 0.329431 0
M  V30 6926 H 68.4166 -6.91023 1.82047 0
M  V30 6927 H 70.2506 -8.90873 1.62657 0
M  V30 6928 H 70.3226 -6.00104 -0.892197 0
M  V30 6929 H 70.2206 -4.31733 -2.69229 0
M  V30 6930 H 69.8326 -0.724835 -1.8844 0
M  V30 6931 H 70.0286 -1.94716 -3.16734 0
M  V30 6932 P 68.3796 -8.03563 3.84925 0
M  V30 6933 O 68.1596 -8.85821 5.0569 0
M  V30 6934 O 67.5896 -8.41101 2.65469 0
M  V30 6935 O 68.1296 -6.4965 4.18908 0
M  V30 6936 C 69.0696 -5.81037 5.05421 0
M  V30 6937 C 68.3396 -4.78366 5.89277 0
M  V30 6938 O 68.1296 -3.58302 5.08433 0
M  V30 6939 C 66.9396 -5.17448 6.36119 0
M  V30 6940 O 66.5496 -4.45271 7.53232 0
M  V30 6941 C 66.0596 -4.74639 5.19936 0
M  V30 6942 C 66.7696 -3.49432 4.70418 0
M  V30 6943 N 66.7196 -3.31776 3.22945 0
M  V30 6944 H 69.5586 -6.54213 5.71376 0
M  V30 6945 H 69.8306 -5.30492 4.44033 0
M  V30 6946 H 68.9626 -4.55889 6.76652 0
M  V30 6947 P 64.9996 -4.23843 7.83734 0
M  V30 6948 O 64.7796 -4.19407 9.29784 0
M  V30 6949 O 64.2096 -5.24426 7.09156 0
M  V30 6950 O 64.7496 -2.7935 7.20758 0
M  V30 6951 C 65.6896 -1.7299 7.50419 0
M  V30 6952 C 64.9596 -0.406376 7.57911 0
M  V30 6953 O 64.7496 0.0897726 6.21935 0
M  V30 6954 C 63.5596 -0.447224 8.1878 0
M  V30 6955 O 63.1696 0.825065 8.71101 0
M  V30 6956 C 62.6796 -0.783801 6.99623 0
M  V30 6957 C 63.3896 -0.0619192 5.85967 0
M  V30 6958 N 63.3396 -0.7859 4.56281 0
M  V30 6959 C 63.4196 -2.14308 4.31736 0
M  V30 6960 N 63.3396 -2.46106 3.05116 0
M  V30 6961 C 63.1996 -1.23422 2.4014 0
M  V30 6962 C 63.0696 -0.938381 1.02409 0
M  V30 6963 N 62.9496 0.444647 0.805413 0
M  V30 6964 C 62.9496 1.40829 1.79435 0
M  V30 6965 N 62.8196 2.67213 1.38558 0
M  V30 6966 N 63.0796 1.12947 3.09005 0
M  V30 6967 C 63.1996 -0.204887 3.32369 0
M  V30 6968 H 66.1786 -1.93423 8.4679 0
M  V30 6969 H 66.4506 -1.68181 6.71046 0
M  V30 6970 H 65.5826 0.289041 8.15388 0
M  V30 6971 P 61.6197 1.17771 8.83182 0
M  V30 6972 O 61.3997 2.07206 9.98732 0
M  V30 6973 O 60.8297 -0.0743816 8.81969 0
M  V30 6974 O 61.3697 1.97652 7.47304 0
M  V30 6975 C 62.3097 3.01133 7.08783 0
M  V30 6976 C 61.5797 4.12613 6.37049 0
M  V30 6977 O 61.3697 3.72827 4.97879 0
M  V30 6978 C 60.1797 4.45085 6.88694 0
M  V30 6979 O 59.7897 5.7877 6.5624 0
M  V30 6980 C 59.2997 3.47817 6.12078 0
M  V30 6981 C 60.0097 3.39414 4.77697 0
M  V30 6982 N 59.9597 2.04199 4.15538 0
M  V30 6983 H 62.7987 3.41248 7.98759 0
M  V30 6984 H 63.0707 2.57728 6.42 0
M  V30 6985 H 62.2027 5.02657 6.42673 0
M  V30 6986 H 59.5477 4.11708 4.08956 0
M  V30 6987 H 59.2677 2.49626 6.61679 0
M  V30 6988 H 58.2767 3.8662 6.00862 0
M  V30 6989 H 60.1107 4.29991 7.97006 0
M  V30 6990 P 58.2397 6.144 6.45285 0
M  V30 6991 O 58.0197 7.54673 6.86199 0
M  V30 6992 O 57.4497 5.12391 7.179 0
M  V30 6993 O 57.9897 5.99158 4.88404 0
M  V30 6994 C 58.9297 6.60062 3.96313 0
M  V30 6995 C 58.1997 7.08259 2.72856 0
M  V30 6996 O 57.9897 5.9427 1.83651 0
M  V30 6997 C 56.7997 7.65087 2.94749 0
M  V30 6998 O 56.4097 8.53963 1.90717 0
M  V30 6999 C 55.9197 6.41069 2.90698 0
M  V30 7000 C 56.6297 5.5528 1.86931 0
M  V30 7001 N 56.5797 4.09575 2.15696 0
M  V30 7002 C 56.4297 3.24249 1.08435 0
M  V30 7003 O 56.3397 3.63946 -0.0628747 0
M  V30 7004 N 56.3897 1.90009 1.39973 0
M  V30 7005 C 56.4797 1.34884 2.65614 0
M  V30 7006 O 56.4297 0.123716 2.81728 0
M  V30 7007 C 56.6297 2.3145 3.71736 0
M  V30 7008 C 56.7397 1.75913 5.10438 0
M  V30 7009 C 56.6797 3.63518 3.44754 0
M  V30 7010 H 59.4207 7.45402 4.45526 0
M  V30 7011 H 59.6897 5.86062 3.67208 0
M  V30 7012 H 58.8227 7.84412 2.24479 0
M  V30 7013 H 56.1677 5.73358 0.888409 0
M  V30 7014 H 55.8887 5.90877 3.88583 0
M  V30 7015 H 54.8967 6.65867 2.58821 0
M  V30 7016 H 56.7307 8.16248 3.92006 0
M  V30 7017 H 56.8017 4.34551 4.26383 0
M  V30 7018 H 55.7717 1.85471 5.61775 0
M  V30 7019 H 57.5087 2.31364 5.66257 0
M  V30 7020 H 57.0207 0.695936 5.05229 0
M  V30 7021 H 56.2847 1.26277 0.63625 0
M  V30 7022 P 54.8597 8.7635 1.60911 0
M  V30 7023 O 54.6397 10.1388 1.11561 0
M  V30 7024 O 54.0697 8.36503 2.79617 0
M  V30 7025 O 54.6097 7.71806 0.42951 0
M  V30 7026 C 55.5497 7.67148 -0.673689 0
M  V30 7027 C 54.8197 7.33374 -1.95559 0
M  V30 7028 O 54.6097 5.88721 -2.00726 0
M  V30 7029 C 53.4197 7.92526 -2.10483 0
M  V30 7030 O 53.0297 8.02971 -3.47653 0
M  V30 7031 C 52.5397 6.89602 -1.41652 0
M  V30 7032 C 53.2497 5.59201 -1.75185 0
M  V30 7033 N 53.1997 4.58235 -0.662552 0
M  V30 7034 H 56.0387 8.65116 -0.777161 0
M  V30 7035 H 56.3107 6.90173 -0.474152 0
M  V30 7036 H 55.4427 7.66548 -2.79458 0
M  V30 7037 P 51.4797 8.03563 -3.84925 0
M  V30 7038 O 51.2597 8.85821 -5.0569 0
M  V30 7039 O 50.6897 8.41101 -2.65469 0
M  V30 7040 O 51.2297 6.4965 -4.18908 0
M  V30 7041 C 52.1697 5.81037 -5.05421 0
M  V30 7042 C 51.4397 4.78366 -5.89277 0
M  V30 7043 O 51.2297 3.58302 -5.08433 0
M  V30 7044 C 50.0397 5.17448 -6.36119 0
M  V30 7045 O 49.6497 4.45271 -7.53232 0
M  V30 7046 C 49.1597 4.74639 -5.19936 0
M  V30 7047 C 49.8697 3.49432 -4.70418 0
M  V30 7048 N 49.8197 3.32099 -3.22613 0
M  V30 7049 H 52.6587 6.54213 -5.71376 0
M  V30 7050 H 52.9307 5.30936 -4.43503 0
M  V30 7051 H 52.0627 4.55889 -6.76652 0
M  V30 7052 H 49.4077 2.61715 -5.17932 0
M  V30 7053 H 49.1277 5.52155 -4.41878 0
M  V30 7054 H 48.1367 4.51981 -5.53374 0
M  V30 7055 H 49.9707 6.25124 -6.55234 0
M  V30 7056 P 48.0997 4.23843 -7.83734 0
M  V30 7057 O 47.8797 4.19407 -9.29784 0
M  V30 7058 O 47.3097 5.24426 -7.09156 0
M  V30 7059 O 47.8497 2.7935 -7.20758 0
M  V30 7060 C 48.7897 1.7299 -7.50419 0
M  V30 7061 C 48.0597 0.406376 -7.57911 0
M  V30 7062 O 47.8497 -0.0897726 -6.21935 0
M  V30 7063 C 46.6597 0.447224 -8.1878 0
M  V30 7064 O 46.2697 -0.825065 -8.71101 0
M  V30 7065 C 45.7797 0.783801 -6.99623 0
M  V30 7066 C 46.4897 0.0619192 -5.85967 0
M  V30 7067 N 46.4397 0.7859 -4.56281 0
M  V30 7068 H 49.2787 1.93423 -8.4679 0
M  V30 7069 H 49.5507 1.68181 -6.71046 0
M  V30 7070 H 48.6827 -0.289041 -8.15388 0
M  V30 7071 P 44.7198 -1.17771 -8.83182 0
M  V30 7072 O 44.4998 -2.07206 -9.98732 0
M  V30 7073 O 43.9298 0.0743816 -8.81969 0
M  V30 7074 O 44.4698 -1.97652 -7.47304 0
M  V30 7075 C 45.4098 -3.01133 -7.08783 0
M  V30 7076 C 44.6798 -4.12613 -6.37049 0
M  V30 7077 O 44.4698 -3.72827 -4.97879 0
M  V30 7078 C 43.2798 -4.45085 -6.88694 0
M  V30 7079 O 42.8898 -5.7877 -6.5624 0
M  V30 7080 C 42.3998 -3.47817 -6.12078 0
M  V30 7081 C 43.1098 -3.39414 -4.77697 0
M  V30 7082 N 43.0598 -2.04615 -4.15333 0
M  V30 7083 H 45.8988 -3.41248 -7.98759 0
M  V30 7084 H 46.1708 -2.5837 -6.41742 0
M  V30 7085 H 45.3028 -5.02657 -6.42673 0
M  V30 7086 P 41.3398 -6.144 -6.45285 0
M  V30 7087 O 41.1198 -7.54673 -6.86199 0
M  V30 7088 O 40.5498 -5.12391 -7.179 0
M  V30 7089 O 41.0898 -5.99158 -4.88404 0
M  V30 7090 C 42.0298 -6.60234 -3.96415 0
M  V30 7091 C 41.2998 -7.08259 -2.72856 0
M  V30 7092 O 41.0898 -5.9427 -1.83651 0
M  V30 7093 C 39.8998 -7.64886 -2.9555 0
M  V30 7094 O 39.5098 -8.53963 -1.90717 0
M  V30 7095 C 39.0198 -6.4116 -2.90739 0
M  V30 7096 C 39.7298 -5.55375 -1.86963 0
M  V30 7097 N 39.6798 -4.09664 -2.15742 0
M  V30 7098 H 42.5188 -7.45574 -4.45629 0
M  V30 7099 H 42.7908 -5.86232 -3.67314 0
M  V30 7100 H 41.9228 -7.84412 -2.24479 0
M  V30 7101 P 37.9598 -8.7635 -1.60911 0
M  V30 7102 O 37.7398 -10.1388 -1.11561 0
M  V30 7103 O 37.1698 -8.36503 -2.79617 0
M  V30 7104 O 37.7098 -7.71806 -0.42951 0
M  V30 7105 C 38.6498 -7.67148 0.673689 0
M  V30 7106 C 37.9198 -7.33374 1.95559 0
M  V30 7107 O 37.7098 -5.88721 2.00726 0
M  V30 7108 C 36.5198 -7.92526 2.10483 0
M  V30 7109 O 36.1298 -8.02971 3.47653 0
M  V30 7110 C 35.6398 -6.89602 1.41652 0
M  V30 7111 C 36.3498 -5.59201 1.75185 0
M  V30 7112 N 36.2998 -4.58235 0.662552 0
M  V30 7113 H 39.1388 -8.65116 0.777161 0
M  V30 7114 H 39.4108 -6.90173 0.474152 0
M  V30 7115 H 38.5428 -7.66548 2.79458 0
M  V30 7116 P 34.5798 -8.03563 3.84925 0
M  V30 7117 O 34.3598 -8.85821 5.0569 0
M  V30 7118 O 33.7898 -8.41101 2.65469 0
M  V30 7119 O 34.3298 -6.4965 4.18908 0
M  V30 7120 C 35.2698 -5.80886 5.05289 0
M  V30 7121 C 34.5398 -4.78366 5.89277 0
M  V30 7122 O 34.3298 -3.58302 5.08433 0
M  V30 7123 C 33.1398 -5.16748 6.36559 0
M  V30 7124 O 32.7498 -4.45271 7.53232 0
M  V30 7125 C 32.2598 -4.74572 5.19863 0
M  V30 7126 C 32.9698 -3.49373 4.70338 0
M  V30 7127 N 32.9198 -3.31704 3.22876 0
M  V30 7128 C 32.7698 -2.03326 2.74871 0
M  V30 7129 O 32.6798 -1.06486 3.48076 0
M  V30 7130 N 32.7298 -1.91838 1.37456 0
M  V30 7131 C 32.8198 -2.94295 0.462035 0
M  V30 7132 C 32.9698 -4.25064 1.05249 0
M  V30 7133 C 33.0198 -4.40214 2.39192 0
M  V30 7134 H 35.7608 -6.54063 5.71245 0
M  V30 7135 H 36.0298 -5.30339 4.43905 0
M  V30 7136 H 35.1628 -4.55889 6.76652 0
M  V30 7137 H 32.5078 -2.6167 5.17842 0
M  V30 7138 H 32.2288 -5.52155 4.41878 0
M  V30 7139 H 31.2368 -4.51918 5.53297 0
M  V30 7140 H 33.0708 -6.25055 6.55162 0
M  V30 7141 H 33.1418 -5.39798 2.81523 0
M  V30 7142 P 31.1998 -4.23843 7.83734 0
M  V30 7143 O 30.9798 -4.19407 9.29784 0
M  V30 7144 O 30.4098 -5.24426 7.09156 0
M  V30 7145 O 30.9498 -2.7935 7.20758 0
M  V30 7146 C 31.8898 -1.7299 7.50419 0
M  V30 7147 C 31.1598 -0.406376 7.57911 0
M  V30 7148 O 30.9498 0.0897726 6.21935 0
M  V30 7149 C 29.7598 -0.447224 8.1878 0
M  V30 7150 O 29.3698 0.825065 8.71101 0
M  V30 7151 C 28.8798 -0.783801 6.99623 0
M  V30 7152 C 29.5898 -0.0619192 5.85967 0
M  V30 7153 N 29.5398 -0.790462 4.56202 0
M  V30 7154 C 29.6198 -2.13895 4.34171 0
M  V30 7155 N 29.5498 -2.46449 3.08687 0
M  V30 7156 C 29.3998 -1.2525 2.43697 0
M  V30 7157 C 29.2698 -0.914535 1.07318 0
M  V30 7158 N 29.2598 -1.80782 0.0887348 0
M  V30 7159 N 29.1498 0.386745 0.768133 0
M  V30 7160 C 29.1598 1.28096 1.75159 0
M  V30 7161 N 29.2798 1.09708 3.04861 0
M  V30 7162 C 29.3998 -0.214857 3.32306 0
M  V30 7163 H 32.3788 -1.93423 8.4679 0
M  V30 7164 H 32.6508 -1.68852 6.70877 0
M  V30 7165 H 31.7828 0.289041 8.15388 0
M  V30 7166 H 29.1278 0.927006 5.72848 0
M  V30 7167 H 28.8478 -1.86973 6.82036 0
M  V30 7168 H 27.8568 -0.403953 7.13357 0
M  V30 7169 H 29.6908 -1.20599 8.97534 0
M  V30 7170 H 29.7318 -2.86846 5.14318 0
M  V30 7171 H 29.3508 -2.81082 0.302037 0
M  V30 7172 H 29.1618 -1.49688 -0.889064 0
M  V30 7173 H 29.0538 2.31317 1.43855 0
M  V30 7174 P 27.8199 1.17771 8.83182 0
M  V30 7175 O 27.5999 2.07206 9.98732 0
M  V30 7176 O 27.0299 -0.0743816 8.81969 0
M  V30 7177 O 27.5699 1.97652 7.47304 0
M  V30 7178 C 28.5099 3.01133 7.08783 0
M  V30 7179 C 27.7799 4.12613 6.37049 0
M  V30 7180 O 27.5699 3.72827 4.97879 0
M  V30 7181 C 26.3799 4.45085 6.88694 0
M  V30 7182 O 25.9899 5.7877 6.5624 0
M  V30 7183 C 25.4999 3.47817 6.12078 0
M  V30 7184 C 26.2099 3.39414 4.77697 0
M  V30 7185 N 26.1599 2.04615 4.15333 0
M  V30 7186 H 28.9989 3.41248 7.98759 0
M  V30 7187 H 29.2709 2.5837 6.41742 0
M  V30 7188 H 28.4029 5.02657 6.42673 0
M  V30 7189 P 24.4399 6.144 6.45285 0
M  V30 7190 O 24.2199 7.54673 6.86199 0
M  V30 7191 O 23.6499 5.12391 7.179 0
M  V30 7192 O 24.1899 5.99158 4.88404 0
M  V30 7193 C 25.1299 6.60234 3.96415 0
M  V30 7194 C 24.3999 7.08259 2.72856 0
M  V30 7195 O 24.1899 5.9427 1.83651 0
M  V30 7196 C 22.9999 7.64886 2.9555 0
M  V30 7197 O 22.6099 8.53963 1.90717 0
M  V30 7198 C 22.1199 6.4116 2.90739 0
M  V30 7199 C 22.8299 5.55375 1.86963 0
M  V30 7200 N 22.7799 4.09664 2.15742 0
M  V30 7201 H 25.6189 7.45574 4.45629 0
M  V30 7202 H 25.8909 5.86232 3.67314 0
M  V30 7203 H 25.0229 7.84412 2.24479 0
M  V30 7204 P 21.0599 8.7635 1.60911 0
M  V30 7205 O 20.8399 10.1388 1.11561 0
M  V30 7206 O 20.2699 8.36503 2.79617 0
M  V30 7207 O 20.8099 7.71806 0.42951 0
M  V30 7208 C 21.7499 7.67148 -0.673689 0
M  V30 7209 C 21.0199 7.33374 -1.95559 0
M  V30 7210 O 20.8099 5.88721 -2.00726 0
M  V30 7211 C 19.6199 7.92526 -2.10483 0
M  V30 7212 O 19.2299 8.02971 -3.47653 0
M  V30 7213 C 18.7399 6.89602 -1.41652 0
M  V30 7214 C 19.4499 5.59201 -1.75185 0
M  V30 7215 N 19.3999 4.58235 -0.662552 0
M  V30 7216 H 22.2389 8.65116 -0.777161 0
M  V30 7217 H 22.5109 6.90173 -0.474152 0
M  V30 7218 H 21.6429 7.66548 -2.79458 0
M  V30 7219 P 17.6799 8.03563 -3.84925 0
M  V30 7220 O 17.4599 8.85821 -5.0569 0
M  V30 7221 O 16.8899 8.41101 -2.65469 0
M  V30 7222 O 17.4299 6.4965 -4.18908 0
M  V30 7223 C 18.3699 5.81037 -5.05421 0
M  V30 7224 C 17.6399 4.78366 -5.89277 0
M  V30 7225 O 17.4299 3.58302 -5.08433 0
M  V30 7226 C 16.2399 5.17448 -6.36119 0
M  V30 7227 O 15.8499 4.45271 -7.53232 0
M  V30 7228 C 15.3599 4.74639 -5.19936 0
M  V30 7229 C 16.0699 3.49432 -4.70418 0
M  V30 7230 N 16.0199 3.32099 -3.22613 0
M  V30 7231 C 16.0999 4.28245 -2.25527 0
M  V30 7232 N 16.0299 3.80823 -1.04874 0
M  V30 7233 C 15.8799 2.44571 -1.23535 0
M  V30 7234 C 15.7499 1.37068 -0.330675 0
M  V30 7235 N 15.7399 1.51472 0.990824 0
M  V30 7236 N 15.6299 0.138614 -0.848756 0
M  V30 7237 C 15.6399 -0.00675923 -2.16999 0
M  V30 7238 N 15.7599 0.904372 -3.11122 0
M  V30 7239 C 15.8799 2.12707 -2.56212 0
M  V30 7240 H 18.8589 6.54213 -5.71376 0
M  V30 7241 H 19.1309 5.30936 -4.43503 0
M  V30 7242 H 18.2629 4.55889 -6.76652 0
M  V30 7243 H 15.6079 2.61715 -5.17932 0
M  V30 7244 H 15.3279 5.52155 -4.41878 0
M  V30 7245 H 14.3369 4.51981 -5.53374 0
M  V30 7246 H 16.1709 6.25124 -6.55234 0
M  V30 7247 H 16.2119 5.34372 -2.47488 0
M  V30 7248 H 15.8309 2.45153 1.4078 0
M  V30 7249 H 15.6419 0.688422 1.59911 0
M  V30 7250 H 15.5339 -1.02584 -2.52346 0
M  V30 7251 P 14.2999 4.23843 -7.83734 0
M  V30 7252 O 14.0799 4.19407 -9.29784 0
M  V30 7253 O 13.5099 5.24426 -7.09156 0
M  V30 7254 O 14.0499 2.7935 -7.20758 0
M  V30 7255 C 14.9899 1.7299 -7.50419 0
M  V30 7256 C 14.2599 0.406376 -7.57911 0
M  V30 7257 O 14.0499 -0.0897726 -6.21935 0
M  V30 7258 C 12.8599 0.447224 -8.1878 0
M  V30 7259 O 12.4699 -0.825065 -8.71101 0
M  V30 7260 C 11.9799 0.783801 -6.99623 0
M  V30 7261 C 12.6899 0.0619192 -5.85967 0
M  V30 7262 N 12.6399 0.7859 -4.56281 0
M  V30 7263 H 15.4789 1.93423 -8.4679 0
M  V30 7264 H 15.7509 1.68181 -6.71046 0
M  V30 7265 H 14.8829 -0.289041 -8.15388 0
M  V30 7266 P 10.92 -1.17771 -8.83182 0
M  V30 7267 O 10.7 -2.07206 -9.98732 0
M  V30 7268 O 10.13 0.0743816 -8.81969 0
M  V30 7269 O 10.67 -1.97652 -7.47304 0
M  V30 7270 C 11.61 -3.01133 -7.08783 0
M  V30 7271 C 10.88 -4.12613 -6.37049 0
M  V30 7272 O 10.67 -3.72827 -4.97879 0
M  V30 7273 C 9.47996 -4.45085 -6.88694 0
M  V30 7274 O 9.08996 -5.7877 -6.5624 0
M  V30 7275 C 8.59996 -3.47817 -6.12078 0
M  V30 7276 C 9.30996 -3.39414 -4.77697 0
M  V30 7277 N 9.25996 -2.04615 -4.15333 0
M  V30 7278 H 12.099 -3.41248 -7.98759 0
M  V30 7279 H 12.371 -2.5837 -6.41742 0
M  V30 7280 H 11.503 -5.02657 -6.42673 0
M  V30 7281 P 7.53998 -6.144 -6.45285 0
M  V30 7282 O 7.31998 -7.54673 -6.86199 0
M  V30 7283 O 6.74998 -5.12391 -7.179 0
M  V30 7284 O 7.28998 -5.99158 -4.88404 0
M  V30 7285 C 8.22998 -6.60062 -3.96313 0
M  V30 7286 C 7.49998 -7.08259 -2.72856 0
M  V30 7287 O 7.28998 -5.9427 -1.83651 0
M  V30 7288 C 6.09998 -7.65087 -2.94749 0
M  V30 7289 O 5.70998 -8.53963 -1.90717 0
M  V30 7290 C 5.21998 -6.41069 -2.90698 0
M  V30 7291 C 5.92998 -5.5528 -1.86931 0
M  V30 7292 N 5.87998 -4.09575 -2.15696 0
M  V30 7293 C 5.72998 -3.24249 -1.08435 0
M  V30 7294 O 5.63998 -3.63946 0.0628747 0
M  V30 7295 N 5.68998 -1.90009 -1.39973 0
M  V30 7296 C 5.77998 -1.34884 -2.65614 0
M  V30 7297 C 5.92998 -2.3145 -3.71736 0
M  V30 7298 C 5.97998 -3.63518 -3.44754 0
M  V30 7299 H 8.72098 -7.45402 -4.45526 0
M  V30 7300 H 8.98998 -5.86062 -3.67208 0
M  V30 7301 H 8.12298 -7.84412 -2.24479 0
M  V30 7302 H 5.46798 -5.73358 -0.888409 0
M  V30 7303 H 5.18898 -5.90877 -3.88583 0
M  V30 7304 H 4.19698 -6.65867 -2.58821 0
M  V30 7305 H 6.03098 -8.16248 -3.92006 0
M  V30 7306 H 6.10198 -4.34551 -4.26383 0
M  V30 7307 P 4.16 -8.7635 -1.60911 0
M  V30 7308 O 3.94 -10.1388 -1.11561 0
M  V30 7309 O 3.37 -8.36503 -2.79617 0
M  V30 7310 O 3.91 -7.71806 -0.42951 0
M  V30 7311 C 4.85 -7.67148 0.673689 0
M  V30 7312 C 4.12 -7.33374 1.95559 0
M  V30 7313 O 3.91 -5.88721 2.00726 0
M  V30 7314 C 2.72 -7.92526 2.10483 0
M  V30 7315 O 2.33 -8.02971 3.47653 0
M  V30 7316 C 1.84 -6.89602 1.41652 0
M  V30 7317 C 2.55 -5.59201 1.75185 0
M  V30 7318 N 2.5 -4.58235 0.662552 0
M  V30 7319 H 5.339 -8.65116 0.777161 0
M  V30 7320 H 5.611 -6.90173 0.474152 0
M  V30 7321 H 4.743 -7.66548 2.79458 0
M  V30 7322 H 1.613 -8.66322 3.55694 0
M  V30 END ATOM
M  V30 BEGIN BOND
M  V30 END BOND
M  V30 END CTAB
M  END
$$$$
