drugbank_target|Q76NN7 Peptidyl-prolyl cis-trans isomerase (DB11638)
 OpenBabel12092121113D

  0  0  0     0  0            999 V3000
M  V30 BEGIN CTAB
M  V30 COUNTS 2631 2657 0 0 0
M  V30 BEGIN ATOM
M  V30 1 H -0.908 1.98254 -0.117106 0
M  V30 2 N 0 1.576 0 0
M  V30 3 C 0.933 2.03868 1.02534 0
M  V30 4 C 1.911 0.928543 1.3348 0
M  V30 5 O 3.095 1.19667 1.45644 0
M  V30 6 C 0.222 2.43627 2.35294 0
M  V30 7 C -0.732 3.65373 2.2001 0
M  V30 8 S 0.101 5.13292 1.52614 0
M  V30 9 C 1.257 5.56322 2.86805 0
M  V30 10 H 1.49 2.90518 0.631377 0
M  V30 11 H -0.977 1.52953 0.210867 0
M  V30 12 H 0.981 2.67203 3.11629 0
M  V30 13 H -0.358 1.57376 2.7183 0
M  V30 14 H -1.165 3.90944 3.18086 0
M  V30 15 H -1.563 3.418 1.51819 0
M  V30 16 H 0.729 5.58782 3.83104 0
M  V30 17 H 1.672 6.56266 2.65933 0
M  V30 18 H 2.08 4.83886 2.90714 0
M  V30 19 N 1.4781 -0.272755 1.55222 0
M  V30 20 C 2.7031 -1.02683 1.80197 0
M  V30 21 C 3.1281 -1.79142 0.573551 0
M  V30 22 O 2.4861 -1.74917 -0.476849 0
M  V30 23 C 2.5341 -1.9609 3.02624 0
M  V30 24 O 1.6381 -3.04863 2.77727 0
M  V30 25 H 0.9791 -0.293557 0.595584 0
M  V30 26 H 3.5091 -0.30159 2.02365 0
M  V30 27 H 3.5191 -2.38039 3.31363 0
M  V30 28 H 2.1941 -1.39851 3.91682 0
M  V30 29 H 0.7711 -2.67228 2.60084 0
M  V30 30 N 2.9562 -1.48159 -0.537278 0
M  V30 31 C 3.9032 -1.62138 -1.64256 0
M  V30 32 C 4.8732 -0.463668 -1.59497 0
M  V30 33 O 6.0582 -0.686241 -1.78032 0
M  V30 34 C 3.1982 -1.66028 -3.02537 0
M  V30 35 C 2.3112 -2.92855 -3.17585 0
M  V30 36 C 1.4462 -2.87952 -4.46382 0
M  V30 37 C 0.4852 -4.09516 -4.54932 0
M  V30 38 N -0.3778 -4.02733 -5.75109 0
M  V30 39 H 4.4622 -2.56529 -1.51647 0
M  V30 40 H 1.9992 -1.27224 -0.738414 0
M  V30 41 H 3.9572 -1.66265 -3.82638 0
M  V30 42 H 2.5872 -0.751331 -3.13934 0
M  V30 43 H 1.6392 -3.02395 -2.30784 0
M  V30 44 H 2.9512 -3.82822 -3.19764 0
M  V30 45 H 2.1052 -2.8655 -5.34765 0
M  V30 46 H 0.8442 -1.95702 -4.46712 0
M  V30 47 H -0.1508 -4.11201 -3.64957 0
M  V30 48 H 1.0742 -5.02917 -4.56346 0
M  V30 49 H -0.9798 -3.13299 -5.76351 0
M  V30 50 H -1.0628 -4.86397 -5.78752 0
M  V30 51 H 0.2052 -4.05379 -6.65799 0
M  V30 52 N 4.4343 0.785586 -1.36625 0
M  V30 53 C 5.8503 1.08419 -1.17122 0
M  V30 54 C 6.0503 2.015 0.00208491 0
M  V30 55 O 5.1063 2.43551 0.666278 0
M  V30 56 C 6.4193 1.69498 -2.48377 0
M  V30 57 C 7.9673 1.81821 -2.54775 0
M  V30 58 C 8.4423 2.46315 -3.86126 0
M  V30 59 N 9.9333 2.53779 -3.87492 0
M  V30 60 C 10.6683 3.045 -4.85868 0
M  V30 61 N 10.1643 3.55499 -5.94637 0
M  V30 62 N 11.9573 3.03247 -4.73284 0
M  V30 63 H 4.1083 0.167264 -2.1174 0
M  V30 64 H 6.3713 0.13682 -0.938075 0
M  V30 65 H 6.0773 1.08571 -3.34522 0
M  V30 66 H 5.9513 2.6896 -2.64462 0
M  V30 67 H 8.3383 2.41884 -1.69045 0
M  V30 68 H 8.4193 0.811532 -2.42586 0
M  V30 69 H 8.0633 1.86895 -4.72263 0
M  V30 70 H 7.9933 3.47561 -3.95612 0
M  V30 71 H 10.4843 2.17672 -3.08913 0
M  V30 72 H 10.7973 3.92562 -6.65669 0
M  V30 73 H 9.1423 3.5364 -5.98301 0
M  V30 74 H 12.3333 2.62696 -3.87438 0
M  V30 75 H 12.5063 3.42467 -5.50109 0
M  V30 76 N 5.9124 1.20967 1.01018 0
M  V30 77 C 7.1374 1.0503 1.78839 0
M  V30 78 C 7.5624 -0.395752 1.8389 0
M  V30 79 O 6.9204 -1.28529 1.27867 0
M  V30 80 C 6.9684 1.64602 3.2084 0
M  V30 81 O 6.0724 0.887988 4.02726 0
M  V30 82 H 5.4134 0.369987 0.551367 0
M  V30 83 H 7.9434 1.60399 1.27018 0
M  V30 84 H 7.9534 1.68607 3.71532 0
M  V30 85 H 6.6284 2.69841 3.16479 0
M  V30 86 H 5.2054 0.922648 3.61305 0
M  V30 87 N 7.3905 -1.2043 1.01659 0
M  V30 88 C 8.3375 -2.23215 0.586822 0
M  V30 89 C 9.3075 -1.61382 -0.393085 0
M  V30 90 O 10.4925 -1.88544 -0.292525 0
M  V30 91 C 7.6325 -3.45032 -0.0687464 0
M  V30 92 C 6.7455 -4.21296 0.955724 0
M  V30 93 C 5.8805 -5.30507 0.271208 0
M  V30 94 C 4.9195 -5.98515 1.28244 0
M  V30 95 N 4.0565 -6.99316 0.62459 0
M  V30 96 H 8.8965 -2.59336 1.46796 0
M  V30 97 H 6.4335 -1.27431 0.734836 0
M  V30 98 H 8.3915 -4.1459 -0.465965 0
M  V30 99 H 7.0215 -3.09604 -0.913529 0
M  V30 100 H 6.0735 -3.50803 1.4711 0
M  V30 101 H 7.3855 -4.6803 1.72479 0
M  V30 102 H 6.5395 -6.06428 -0.18151 0
M  V30 103 H 5.2785 -4.8481 -0.530163 0
M  V30 104 H 4.2835 -5.21355 1.74554 0
M  V30 105 H 5.5085 -6.46298 2.08509 0
M  V30 106 H 3.4545 -6.55812 -0.156914 0
M  V30 107 H 3.3715 -7.44178 1.33172 0
M  V30 108 H 4.6395 -7.79255 0.195462 0
M  V30 109 N 8.8686 -0.792821 -1.36206 0
M  V30 110 C 10.1146 -0.36733 -1.99446 0
M  V30 111 C 10.4476 1.05917 -1.62774 0
M  V30 112 O 9.7226 1.7324 -0.88421 0
M  V30 113 C 10.0056 -0.535044 -3.56103 0
M  V30 114 C 9.8586 -2.00548 -4.02617 0
M  V30 115 C 11.1776 0.0478191 -4.40074 0
M  V30 116 H 8.2966 -0.134941 -0.724541 0
M  V30 117 H 10.9386 -0.999794 -1.61568 0
M  V30 118 H 9.0886 0.00336329 -3.885 0
M  V30 119 H 10.7606 -2.60521 -3.80692 0
M  V30 120 H 9.0036 -2.50686 -3.54032 0
M  V30 121 H 9.6746 -2.07377 -5.11565 0
M  V30 122 H 12.1506 -0.411822 -4.14057 0
M  V30 123 H 11.0266 -0.0995336 -5.4881 0
M  V30 124 H 11.2876 1.14025 -4.27142 0
M  V30 125 N 10.3467 1.47872 -0.545128 0
M  V30 126 C 11.5937 2.02493 -0.0165858 0
M  V30 127 C 11.9217 1.42073 1.32836 0
M  V30 128 O 11.1767 0.561459 1.87473 0
M  V30 129 C 11.4757 3.57131 0.13867 0
M  V30 130 C 11.1417 4.36411 -1.13384 0
M  V30 131 C 9.8037 4.57792 -1.48256 0
M  V30 132 C 12.1557 4.82223 -1.97764 0
M  V30 133 C 9.4837 5.22233 -2.67376 0
M  V30 134 C 11.8357 5.47977 -3.16076 0
M  V30 135 C 10.4997 5.67593 -3.51275 0
M  V30 136 H 9.7697 0.740975 -0.00606918 0
M  V30 137 H 12.4167 1.77683 -0.714207 0
M  V30 138 H 10.7217 3.80865 0.919172 0
M  V30 139 H 12.4187 3.97031 0.562782 0
M  V30 140 H 9.0087 4.2004 -0.852297 0
M  V30 141 H 13.1927 4.65493 -1.72132 0
M  V30 142 H 8.4487 5.35616 -2.94831 0
M  V30 143 H 12.6227 5.8244 -3.81755 0
M  V30 144 H 10.2497 6.17298 -4.43675 0
M  V30 145 N 11.8248 0.280983 1.55075 0
M  V30 146 C 13.0718 -0.334115 1.99725 0
M  V30 147 C 13.3998 -1.5542 1.1694 0
M  V30 148 O 12.6548 -1.94361 0.228531 0
M  V30 149 C 12.9538 -0.754656 3.49342 0
M  V30 150 C 12.6198 0.361445 4.49449 0
M  V30 151 C 11.2818 0.667893 4.76542 0
M  V30 152 C 13.6338 1.11322 5.09173 0
M  V30 153 C 10.9618 1.7296 5.60626 0
M  V30 154 C 13.3138 2.1647 5.9441 0
M  V30 155 C 11.9778 2.47742 6.19822 0
M  V30 156 H 11.2478 -0.122261 0.730844 0
M  V30 157 H 13.8948 0.395917 1.87363 0
M  V30 158 H 12.1998 -1.56446 3.5921 0
M  V30 159 H 13.8968 -1.24142 3.813 0
M  V30 160 H 10.4868 0.112481 4.28452 0
M  V30 161 H 14.6708 0.88973 4.8826 0
M  V30 162 H 9.9268 1.97684 5.78559 0
M  V30 163 H 14.1008 2.75193 6.3972 0
M  V30 164 H 11.7278 3.30145 6.84769 0
M  V30 165 N 13.3029 -1.57598 0.00835791 0
M  V30 166 C 14.5799 -1.82172 -0.712235 0
M  V30 167 C 14.9599 -0.887873 -1.9152 0
M  V30 168 O 14.3079 0.06146 -2.28417 0
M  V30 169 C 14.5179 -3.30875 -1.11008 0
M  V30 170 C 15.8659 -3.96826 -1.51044 0
M  V30 171 O 16.8899 -3.35248 -1.20364 0
M  V30 172 O 15.7489 -5.05318 -2.08125 0
M  V30 173 H 12.8429 -0.750435 -0.347529 0
M  V30 174 H 15.3889 -1.69665 0.0344523 0
M  V30 175 H 14.1609 -3.90481 -0.252982 0
M  V30 176 H 13.7839 -3.48412 -1.9156 0
M  V30 177 N 14.781 0.264519 -1.55364 0
M  V30 178 C 16.03 0.992812 -1.75574 0
M  V30 179 C 16.343 1.87142 -0.568979 0
M  V30 180 O 17.549 2.63513 -0.653682 0
M  V30 181 C 16.005 1.81519 -3.10771 0
M  V30 182 C 15.613 0.984839 -4.37041 0
M  V30 183 C 17.357 2.53727 -3.40327 0
M  V30 184 C 15.264 1.80209 -5.63275 0
M  V30 185 H 14.194 0.374412 -0.65447 0
M  V30 186 H 16.845 0.248138 -1.81815 0
M  V30 187 H 15.227 2.60115 -2.98591 0
M  V30 188 H 16.401 0.242455 -4.60162 0
M  V30 189 H 14.716 0.37691 -4.14691 0
M  V30 190 H 17.313 3.15292 -4.3185 0
M  V30 191 H 17.656 3.24447 -2.60845 0
M  V30 192 H 18.189 1.82156 -3.53644 0
M  V30 193 H 14.928 1.13896 -6.45529 0
M  V30 194 H 14.448 2.52022 -5.44284 0
M  V30 195 H 16.127 2.37364 -6.01887 0
M  V30 196 N 16.2591 1.48442 0.529413 0
M  V30 197 C 17.4841 1.60406 1.31471 0
M  V30 198 C 17.9091 0.264738 1.86228 0
M  V30 199 O 17.2671 -0.763668 1.64432 0
M  V30 200 C 17.3151 2.65419 2.44101 0
M  V30 201 O 16.4191 2.22618 3.47153 0
M  V30 202 H 15.7601 0.537863 0.389357 0
M  V30 203 H 18.2901 1.94432 0.636965 0
M  V30 204 H 18.3001 2.86709 2.90279 0
M  V30 205 H 16.9751 3.62652 2.03608 0
M  V30 206 H 15.5521 2.11543 3.0709 0
M  V30 207 N 17.7372 -0.778329 1.37039 0
M  V30 208 C 18.9862 -1.53189 1.3121 0
M  V30 209 C 19.2992 -1.95328 -0.103095 0
M  V30 210 O 20.5052 -2.70012 -0.283826 0
M  V30 211 C 18.9612 -2.76591 2.30272 0
M  V30 212 C 18.5692 -2.41577 3.77286 0
M  V30 213 C 20.3132 -3.5455 2.33441 0
M  V30 214 C 18.2202 -3.61441 4.68096 0
M  V30 215 H 17.1502 -0.5751 0.487622 0
M  V30 216 H 19.8012 -0.853101 1.62464 0
M  V30 217 H 18.1832 -3.46326 1.92027 0
M  V30 218 H 19.3572 -1.79668 4.2433 0
M  V30 219 H 17.6722 -1.76806 3.76999 0
M  V30 220 H 20.2692 -4.43628 2.98493 0
M  V30 221 H 20.6122 -3.93936 1.34611 0
M  V30 222 H 21.1452 -2.91805 2.7036 0
M  V30 223 H 17.8842 -3.27142 5.6803 0
M  V30 224 H 17.4042 -4.22478 4.25761 0
M  V30 225 H 19.0832 -4.28335 4.8491 0
M  V30 226 N 19.2153 -1.21501 -1.00376 0
M  V30 227 C 20.4923 -0.941745 -1.71437 0
M  V30 228 C 20.8723 0.546114 -2.03914 0
M  V30 229 O 20.2203 1.51128 -1.71384 0
M  V30 230 C 20.4303 -1.82812 -2.97289 0
M  V30 231 C 21.7783 -2.07771 -3.70292 0
M  V30 232 O 22.8023 -1.80171 -3.07273 0
M  V30 233 O 21.6613 -2.54456 -4.83647 0
M  V30 234 H 18.7553 -0.353243 -0.747762 0
M  V30 235 H 21.3013 -1.32436 -1.06108 0
M  V30 236 H 20.0733 -2.83501 -2.69709 0
M  V30 237 H 19.6963 -1.4464 -3.70358 0
M  V30 238 N 20.6934 1.19889 -1.02296 0
M  V30 239 C 21.6414 2.24938 -0.592081 0
M  V30 240 C 22.6354 1.65257 0.372357 0
M  V30 241 O 23.8414 1.78371 0.241583 0
M  V30 242 H 20.2164 0.731787 -0.173182 0
M  V30 243 H 22.1874 2.58603 -1.48885 0
M  V30 244 C 20.9364 3.47668 0.047351 0
M  V30 245 H 20.2594 3.93875 -0.685772 0
M  V30 246 H 21.6994 4.22852 0.311862 0
M  V30 247 C 20.1584 3.11136 1.29212 0
M  V30 248 O 20.6884 3.2325 2.38479 0
M  V30 249 N 18.8944 2.65625 1.17863 0
M  V30 250 H 18.4414 2.55968 0.289493 0
M  V30 251 H 18.3994 2.41553 2.01245 0
M  V30 252 N 22.1715 0.800033 1.35784 0
M  V30 253 C 23.3965 0.388511 2.03729 0
M  V30 254 C 23.8215 -0.990481 1.5991 0
M  V30 255 O 23.1795 -1.64013 0.772612 0
M  V30 256 C 23.2275 0.4726 3.5749 0
M  V30 257 O 22.3315 -0.51646 4.09153 0
M  V30 258 H 21.6725 0.163271 0.643614 0
M  V30 259 H 24.2025 1.0841 1.73518 0
M  V30 260 H 24.2125 0.34003 4.06581 0
M  V30 261 H 22.8875 1.47848 3.88734 0
M  V30 262 H 21.4645 -0.344673 3.71304 0
M  V30 263 N 23.6496 -1.47581 0.552962 0
M  V30 264 C 24.5976 -2.31648 -0.21023 0
M  V30 265 C 25.5916 -1.42663 -0.913432 0
M  V30 266 O 26.7976 -1.5945 -0.835201 0
M  V30 267 H 23.1726 -0.746989 -0.0866676 0
M  V30 268 H 25.1436 -2.93869 0.518051 0
M  V30 269 C 23.8926 -3.25226 -1.22976 0
M  V30 270 H 23.2156 -3.93658 -0.698077 0
M  V30 271 H 24.6556 -3.86889 -1.73473 0
M  V30 272 C 23.1146 -2.48448 -2.27542 0
M  V30 273 O 23.6446 -2.22585 -3.34393 0
M  V30 274 N 21.8506 -2.09532 -2.01357 0
M  V30 275 H 21.3976 -2.30765 -1.14478 0
M  V30 276 H 21.3556 -1.58476 -2.71538 0
M  V30 277 N 25.1277 -0.289203 -1.54924 0
M  V30 278 C 26.0907 0.579144 -2.21762 0
M  V30 279 C 27.0907 1.07047 -1.1999 0
M  V30 280 O 28.2807 0.968384 -1.44803 0
M  V30 281 C 25.4127 1.80055 -2.8947 0
M  V30 282 H 26.6057 -0.00464908 -2.999 0
M  V30 283 H 24.1587 -0.0399306 -1.56249 0
M  V30 284 H 24.8937 2.42449 -2.15381 0
M  V30 285 H 24.6787 1.45602 -3.64064 0
M  V30 286 H 26.1687 2.41773 -3.40493 0
M  V30 287 N 26.6058 1.57591 -0.0167156 0
M  V30 288 C 27.8538 1.90906 0.663285 0
M  V30 289 C 28.1748 0.892509 1.73376 0
M  V30 290 O 27.4448 -0.0677623 1.95783 0
M  V30 291 H 26.0248 0.704637 0.247983 0
M  V30 292 H 28.6868 1.94803 -0.0615909 0
M  V30 293 H 27.7828 2.9116 1.12393 0
M  V30 294 N 28.0839 -0.256276 1.55502 0
M  V30 295 C 29.4999 -0.604325 1.47716 0
M  V30 296 C 29.6999 -1.88763 0.705039 0
M  V30 297 O 28.7559 -2.51445 0.230613 0
M  V30 298 C 30.0689 -0.715756 2.92057 0
M  V30 299 C 31.6169 -0.808706 3.02372 0
M  V30 300 C 32.0919 -0.951777 4.48001 0
M  V30 301 N 33.5829 -1.01688 4.519 0
M  V30 302 C 34.3179 -1.14668 5.61817 0
M  V30 303 N 33.8139 -1.24261 6.81565 0
M  V30 304 N 35.6069 -1.1791 5.49594 0
M  V30 305 H 27.7579 0.586291 2.04148 0
M  V30 306 H 30.0209 0.201015 0.926443 0
M  V30 307 H 29.7269 0.157027 3.51349 0
M  V30 308 H 29.6009 -1.59071 3.42018 0
M  V30 309 H 31.9879 -1.67195 2.43166 0
M  V30 310 H 32.0689 0.0912063 2.55637 0
M  V30 311 H 31.7129 -0.0931291 5.07815 0
M  V30 312 H 31.6429 -1.86659 4.92408 0
M  V30 313 H 34.1339 -0.954468 3.65648 0
M  V30 314 H 34.4469 -1.34046 7.61086 0
M  V30 315 H 32.7919 -1.21236 6.84344 0
M  V30 316 H 35.9829 -1.10057 4.54978 0
M  V30 317 H 36.1559 -1.27681 6.35296 0
M  V30 318 N 29.562 -1.4872 -0.521534 0
M  V30 319 C 30.811 -1.56419 -1.27341 0
M  V30 320 C 31.124 -0.246805 -1.94037 0
M  V30 321 O 32.33 -0.202122 -2.70747 0
M  V30 322 C 30.786 -2.75896 -2.31105 0
M  V30 323 C 30.394 -4.14311 -1.70441 0
M  V30 324 C 32.138 -2.92913 -3.07249 0
M  V30 325 C 30.045 -5.25038 -2.72194 0
M  V30 326 H 28.975 -0.582344 -0.478949 0
M  V30 327 H 31.626 -1.75071 -0.549779 0
M  V30 328 H 30.008 -2.50697 -3.06541 0
M  V30 329 H 31.182 -4.49564 -1.01136 0
M  V30 330 H 29.497 -4.02482 -1.06759 0
M  V30 331 H 32.094 -3.72805 -3.83302 0
M  V30 332 H 32.437 -2.02689 -3.63625 0
M  V30 333 H 32.97 -3.18054 -2.38928 0
M  V30 334 H 29.709 -6.17255 -2.20627 0
M  V30 335 H 29.229 -4.94263 -3.39801 0
M  V30 336 H 30.908 -5.53508 -3.35019 0
M  V30 337 N 31.0401 0.771051 -1.3745 0
M  V30 338 C 32.2891 1.52491 -1.3202 0
M  V30 339 C 32.6021 1.9538 0.0927347 0
M  V30 340 O 33.8081 2.70159 0.269503 0
M  V30 341 C 32.2641 2.75366 -2.31736 0
M  V30 342 C 31.8721 2.39573 -3.78562 0
M  V30 343 C 33.6161 3.53307 -2.35318 0
M  V30 344 C 31.5231 3.58954 -4.70007 0
M  V30 345 H 30.4531 0.572506 -0.490666 0
M  V30 346 H 33.1041 0.844474 -1.62914 0
M  V30 347 H 31.4861 3.45303 -1.93861 0
M  V30 348 H 32.6601 1.77415 -4.25277 0
M  V30 349 H 30.9751 1.74805 -3.77932 0
M  V30 350 H 33.5721 4.42039 -3.00842 0
M  V30 351 H 33.9151 3.93217 -1.36698 0
M  V30 352 H 34.4481 2.90367 -2.71904 0
M  V30 353 H 31.1871 3.24125 -5.69757 0
M  V30 354 H 30.7071 4.20214 -4.27996 0
M  V30 355 H 32.3861 4.25758 -4.87175 0
M  V30 356 N 32.5182 1.22032 0.997298 0
M  V30 357 C 33.7652 1.04222 1.73621 0
M  V30 358 C 34.0932 -0.423264 1.89839 0
M  V30 359 O 33.3482 -1.3302 1.43542 0
M  V30 360 C 33.6472 1.69345 3.14733 0
M  V30 361 C 33.3132 3.19226 3.18442 0
M  V30 362 C 31.9752 3.60124 3.19161 0
M  V30 363 C 34.3272 4.15181 3.15078 0
M  V30 364 C 31.6552 4.95467 3.14212 0
M  V30 365 C 34.0072 5.50495 3.1167 0
M  V30 366 C 32.6712 5.90779 3.10703 0
M  V30 367 H 31.9412 0.381374 0.635323 0
M  V30 368 H 34.5882 1.51732 1.16831 0
M  V30 369 H 32.8932 1.14147 3.74803 0
M  V30 370 H 34.5902 1.53059 3.7064 0
M  V30 371 H 31.1802 2.86659 3.18629 0
M  V30 372 H 35.3642 3.84605 3.13676 0
M  V30 373 H 30.6202 5.25916 3.11805 0
M  V30 374 H 34.7942 6.24576 3.08022 0
M  V30 375 H 32.4212 6.9562 3.06622 0
M  V30 376 N 33.9963 -1.19345 1.0293 0
M  V30 377 C 34.9063 -2.26245 0.620515 0
M  V30 378 C 35.9223 -1.70486 -0.347928 0
M  V30 379 O 37.0983 -2.00347 -0.205704 0
M  V30 380 C 34.1633 -3.46693 -0.0218957 0
M  V30 381 C 33.2243 -4.17632 0.994102 0
M  V30 382 C 32.4573 -5.32329 0.382253 0
M  V30 383 O 32.6803 -5.64552 -0.814676 0
M  V30 384 O 31.6143 -5.91664 1.10531 0
M  V30 385 H 35.4403 -2.63453 1.51083 0
M  V30 386 H 33.0253 -1.26207 0.799513 0
M  V30 387 H 34.9073 -4.19683 -0.380072 0
M  V30 388 H 33.5823 -3.11333 -0.886209 0
M  V30 389 H 32.4893 -3.4676 1.40387 0
M  V30 390 H 33.8223 -4.56964 1.8288 0
M  V30 391 N 35.4744 -0.807222 -1.35358 0
M  V30 392 C 36.4044 -0.232509 -2.3234 0
M  V30 393 C 37.3854 0.642386 -1.57504 0
M  V30 394 O 38.5704 0.572526 -1.85569 0
M  V30 395 C 35.7004 0.619238 -3.41735 0
M  V30 396 C 34.6544 -0.157215 -4.27711 0
M  V30 397 C 33.9804 0.816273 -5.28433 0
M  V30 398 C 35.2804 -1.35656 -5.04376 0
M  V30 399 H 36.9744 -1.04276 -2.80654 0
M  V30 400 H 34.5204 -0.50288 -1.34934 0
M  V30 401 H 36.4734 1.03137 -4.08584 0
M  V30 402 H 35.1974 1.46239 -2.92031 0
M  V30 403 H 33.8564 -0.550525 -3.62443 0
M  V30 404 H 33.5044 1.65494 -4.74996 0
M  V30 405 H 33.2044 0.301067 -5.86828 0
M  V30 406 H 34.7284 1.22659 -5.98153 0
M  V30 407 H 36.1424 -1.01927 -5.64166 0
M  V30 408 H 34.5394 -1.8063 -5.7227 0
M  V30 409 H 35.6094 -2.14288 -4.34981 0
M  V30 410 N 36.9525 1.47285 -0.560781 0
M  V30 411 C 38.1995 2.02464 -0.038062 0
M  V30 412 C 38.5275 1.43474 1.31322 0
M  V30 413 O 37.7825 0.581311 1.86867 0
M  V30 414 C 38.0815 3.57258 0.100784 0
M  V30 415 C 37.7475 4.35184 -1.18007 0
M  V30 416 C 36.4095 4.56194 -1.53103 0
M  V30 417 C 38.7615 4.80098 -2.02867 0
M  V30 418 C 36.0895 5.19367 -2.729 0
M  V30 419 C 38.4415 5.44593 -3.21871 0
M  V30 420 C 37.1055 5.63835 -3.57276 0
M  V30 421 H 36.3755 0.740869 -0.0139279 0
M  V30 422 H 39.0225 1.76916 -0.733012 0
M  V30 423 H 37.3275 3.81819 0.878724 0
M  V30 424 H 39.0245 3.97606 0.520639 0
M  V30 425 H 35.6145 4.19113 -0.8968 0
M  V30 426 H 39.7985 4.63642 -1.7706 0
M  V30 427 H 35.0545 5.32459 -3.00496 0
M  V30 428 H 39.2285 5.78358 -3.87911 0
M  V30 429 H 36.8555 6.12557 -4.50197 0
M  V30 430 N 38.4306 0.297415 1.54768 0
M  V30 431 C 39.6556 -0.318435 2.04941 0
M  V30 432 C 40.0806 -1.4701 1.17345 0
M  V30 433 O 39.4386 -1.80436 0.176758 0
M  V30 434 C 39.4866 -0.755749 3.52592 0
M  V30 435 O 38.5906 -1.86088 3.68028 0
M  V30 436 H 37.9316 -0.062421 0.661059 0
M  V30 437 H 40.4616 0.438215 1.99852 0
M  V30 438 H 40.4716 -1.04552 3.94376 0
M  V30 439 H 39.1466 0.0867233 4.1581 0
M  V30 440 H 37.7236 -1.57193 3.38149 0
M  V30 441 N 39.9087 -1.5758 0.0250728 0
M  V30 442 C 41.1857 -1.82917 -0.692873 0
M  V30 443 C 41.5657 -0.908137 -1.90568 0
M  V30 444 O 40.9137 0.0372298 -2.2847 0
M  V30 445 C 41.1237 -3.32034 -1.07492 0
M  V30 446 C 42.4717 -3.98406 -1.46826 0
M  V30 447 O 43.4957 -3.36505 -1.16801 0
M  V30 448 O 42.3547 -5.07497 -2.02754 0
M  V30 449 H 39.4487 -0.754079 -0.33955 0
M  V30 450 H 41.9947 -1.69619 0.0524456 0
M  V30 451 H 40.7667 -3.90728 -0.211552 0
M  V30 452 H 40.3897 -3.50424 -1.87854 0
M  V30 453 N 41.3868 0.248026 -1.55636 0
M  V30 454 C 42.6358 0.974134 -1.76617 0
M  V30 455 C 42.9488 1.86528 -0.588796 0
M  V30 456 O 44.1548 2.62805 -0.681594 0
M  V30 457 C 42.6108 1.78213 -3.12679 0
M  V30 458 C 42.2188 0.93843 -4.38061 0
M  V30 459 C 43.9628 2.50104 -3.42999 0
M  V30 460 C 41.8698 1.74225 -5.65155 0
M  V30 461 H 40.7998 0.36745 -0.658405 0
M  V30 462 H 43.4508 0.22884 -1.82067 0
M  V30 463 H 41.8328 2.56933 -3.01333 0
M  V30 464 H 43.0068 0.193635 -4.60393 0
M  V30 465 H 41.3218 0.332905 -4.15067 0
M  V30 466 H 43.9188 3.10694 -4.3517 0
M  V30 467 H 44.2618 3.21662 -2.64271 0
M  V30 468 H 44.7948 1.78395 -3.55556 0
M  V30 469 H 41.5338 1.07043 -6.46701 0
M  V30 470 H 41.0538 2.46235 -5.46926 0
M  V30 471 H 42.7328 2.30967 -6.0437 0
M  V30 472 N 42.8649 1.48995 0.513639 0
M  V30 473 C 44.0929 1.61531 1.29288 0
M  V30 474 C 44.5079 0.281801 1.86685 0
M  V30 475 O 43.8649 -0.731111 1.67215 0
M  V30 476 C 43.9159 2.67449 2.43215 0
M  V30 477 O 43.6369 3.95626 1.88179 0
M  V30 478 C 45.1379 2.90575 3.34785 0
M  V30 479 H 42.3579 0.544165 0.392588 0
M  V30 480 H 44.9019 1.9494 0.617956 0
M  V30 481 H 43.0569 2.36853 3.0656 0
M  V30 482 H 43.4709 4.53868 2.62876 0
M  V30 483 H 44.9449 3.68449 4.11035 0
M  V30 484 H 45.4219 2.00011 3.91015 0
M  V30 485 H 46.0279 3.22538 2.77218 0
M  V30 486 N 44.343 -0.763751 1.37857 0
M  V30 487 C 45.754 -1.3405 1.29952 0
M  V30 488 C 46.105 -1.96138 -0.0492898 0
M  V30 489 O 45.23 -1.94372 -0.951239 0
M  V30 490 C 45.825 -2.43729 2.35333 0
M  V30 491 C 44.384 -2.97151 2.31037 0
M  V30 492 C 43.531 -1.70438 2.18738 0
M  V30 493 H 46.482 -0.563396 1.48363 0
M  V30 494 H 46.503 -3.23412 2.00462 0
M  V30 495 H 46.015 -1.9851 3.33489 0
M  V30 496 H 44.116 -3.46724 1.3643 0
M  V30 497 H 44.229 -3.52221 3.24772 0
M  V30 498 H 42.593 -1.93673 1.65418 0
M  V30 499 H 43.376 -1.27312 3.18821 0
M  V30 500 N 45.8211 -1.22559 -0.990812 0
M  V30 501 C 47.2371 -0.985996 -1.255 0
M  V30 502 C 47.4371 0.319173 -1.98956 0
M  V30 503 O 46.4931 1.04127 -2.3003 0
M  V30 504 C 47.8061 -2.18607 -2.06474 0
M  V30 505 C 49.3541 -2.22985 -2.19651 0
M  V30 506 C 49.8291 -3.4255 -3.04012 0
M  V30 507 N 51.3201 -3.42725 -3.11599 0
M  V30 508 C 52.0551 -4.31892 -3.7717 0
M  V30 509 N 51.5511 -5.31279 -4.44651 0
M  V30 510 N 53.3441 -4.19662 -3.73952 0
M  V30 511 H 45.4951 -2.06469 -0.49841 0
M  V30 512 H 47.7581 -0.904853 -0.282747 0
M  V30 513 H 47.4641 -3.13267 -1.59865 0
M  V30 514 H 47.3381 -2.18838 -3.07229 0
M  V30 515 H 49.7251 -1.28871 -2.65474 0
M  V30 516 H 49.8061 -2.26791 -1.18319 0
M  V30 517 H 49.4501 -4.36965 -2.58889 0
M  V30 518 H 49.3801 -3.35984 -4.0549 0
M  V30 519 H 51.8711 -2.70807 -2.63575 0
M  V30 520 H 52.1841 -5.95593 -4.92431 0
M  V30 521 H 50.5291 -5.3519 -4.43392 0
M  V30 522 H 53.7201 -3.41268 -3.20396 0
M  V30 523 H 53.8931 -4.89358 -4.24774 0
M  V30 524 N 47.2992 1.18797 -1.03562 0
M  V30 525 C 48.5272 1.92599 -0.755869 0
M  V30 526 C 48.9422 1.75886 0.686271 0
M  V30 527 O 48.2992 1.08517 1.46732 0
M  V30 528 C 48.3502 3.44159 -1.10619 0
M  V30 529 O 48.0712 3.60341 -2.4917 0
M  V30 530 C 49.5722 4.3507 -0.850214 0
M  V30 531 H 46.7922 0.611587 -0.276048 0
M  V30 532 H 49.3362 1.50742 -1.38192 0
M  V30 533 H 47.4912 3.83823 -0.525194 0
M  V30 534 H 47.9052 4.54128 -2.62427 0
M  V30 535 H 49.3792 5.39989 -1.14523 0
M  V30 536 H 49.8562 4.38673 0.215176 0
M  V30 537 H 50.4622 4.01097 -1.41426 0
M  V30 538 N 48.7773 0.814389 1.34928 0
M  V30 539 C 50.0173 0.404165 2.00364 0
M  V30 540 C 50.3813 -1.01166 1.63185 0
M  V30 541 O 51.5823 -1.52431 2.21401 0
M  V30 542 C 49.8533 0.590718 3.52484 0
M  V30 543 S 51.4123 0.272075 4.37956 0
M  V30 544 H 48.2303 0.15311 0.694319 0
M  V30 545 H 50.8323 1.05834 1.64376 0
M  V30 546 H 49.5363 1.62099 3.77031 0
M  V30 547 H 49.0673 -0.0785013 3.93322 0
M  V30 548 H 51.0823 -0.917405 4.87645 0
M  V30 549 N 50.2554 -1.46986 0.568584 0
M  V30 550 C 51.1654 -2.33942 -0.17555 0
M  V30 551 C 52.1814 -1.48891 -0.90041 0
M  V30 552 O 53.3574 -1.81794 -0.86676 0
M  V30 553 C 50.4224 -3.25811 -1.18524 0
M  V30 554 C 49.4834 -4.26757 -0.466582 0
M  V30 555 C 48.7164 -5.14236 -1.42817 0
M  V30 556 O 48.9394 -5.04379 -2.66379 0
M  V30 557 O 47.8734 -5.94412 -0.946453 0
M  V30 558 H 51.6994 -2.98896 0.538036 0
M  V30 559 H 49.2844 -1.4573 0.329097 0
M  V30 560 H 51.1664 -3.82527 -1.76779 0
M  V30 561 H 49.8414 -2.63471 -1.88055 0
M  V30 562 H 48.7484 -3.73769 0.157451 0
M  V30 563 H 50.0814 -4.91843 0.187485 0
M  V30 564 N 51.7335 -0.305618 -1.54608 0
M  V30 565 C 52.6815 0.584119 -2.25146 0
M  V30 566 C 53.6755 1.13326 -1.25911 0
M  V30 567 O 54.8815 1.08337 -1.43747 0
M  V30 568 H 51.2565 0.206983 -0.722954 0
M  V30 569 H 53.2275 -0.033291 -2.98381 0
M  V30 570 C 51.9765 1.74225 -3.009 0
M  V30 571 H 51.2995 1.32892 -3.77067 0
M  V30 572 H 52.7395 2.34077 -3.53531 0
M  V30 573 C 51.1985 2.64914 -2.0814 0
M  V30 574 O 51.7285 3.66137 -1.65246 0
M  V30 575 N 49.9345 2.3275 -1.74 0
M  V30 576 H 49.4815 1.50479 -2.09078 0
M  V30 577 H 49.4395 2.93694 -1.12211 0
M  V30 578 N 53.2116 1.57565 -0.0334293 0
M  V30 579 C 54.4586 1.91978 0.644272 0
M  V30 580 C 54.7866 0.910231 1.71887 0
M  V30 581 O 54.0416 -0.0801961 1.95536 0
M  V30 582 C 54.3406 3.33112 1.29504 0
M  V30 583 C 54.0066 4.49537 0.350388 0
M  V30 584 C 52.6686 4.81115 0.0903974 0
M  V30 585 C 55.0206 5.20347 -0.298032 0
M  V30 586 C 52.3486 5.8086 -0.825746 0
M  V30 587 C 54.7006 6.2107 -1.20226 0
M  V30 588 C 53.3646 6.51088 -1.4711 0
M  V30 589 H 52.6346 0.702496 0.235756 0
M  V30 590 H 55.2816 1.91259 -0.0961176 0
M  V30 591 H 53.5866 3.30113 2.11028 0
M  V30 592 H 55.2836 3.57011 1.82603 0
M  V30 593 H 51.8736 4.24883 0.563205 0
M  V30 594 H 56.0576 4.96178 -0.110234 0
M  V30 595 H 51.3136 6.02461 -1.04169 0
M  V30 596 H 55.4876 6.75057 -1.71086 0
M  V30 597 H 53.1146 7.28193 -2.18264 0
M  V30 598 N 54.6897 -0.239769 1.55765 0
M  V30 599 C 56.1057 -0.588624 1.48349 0
M  V30 600 C 56.3057 -1.88005 0.72502 0
M  V30 601 O 55.3617 -2.51186 0.257269 0
M  V30 602 C 56.6747 -0.68474 2.928 0
M  V30 603 C 58.2227 -0.77659 3.03213 0
M  V30 604 C 58.6977 -0.904207 4.48986 0
M  V30 605 N 60.1887 -0.968896 4.52953 0
M  V30 606 C 60.9237 -1.08703 5.63002 0
M  V30 607 N 60.4197 -1.17026 6.82845 0
M  V30 608 N 62.2127 -1.12074 5.50814 0
M  V30 609 H 54.3637 0.607911 2.03515 0
M  V30 610 H 56.6267 0.21083 0.924259 0
M  V30 611 H 56.3327 0.194284 3.51163 0
M  V30 612 H 56.2067 -1.55435 3.43686 0
M  V30 613 H 58.5937 -1.64606 2.44926 0
M  V30 614 H 58.6747 0.118315 2.55526 0
M  V30 615 H 58.3187 -0.0392633 5.07885 0
M  V30 616 H 58.2487 -1.81426 4.9436 0
M  V30 617 H 60.7397 -0.915633 3.6664 0
M  V30 618 H 61.0527 -1.25966 7.62465 0
M  V30 619 H 59.3977 -1.13971 6.85591 0
M  V30 620 H 62.5887 -1.05226 4.5612 0
M  V30 621 H 62.7617 -1.20936 6.36615 0
M  V30 622 N 56.1678 -1.49265 -0.50573 0
M  V30 623 C 57.1308 -1.65075 -1.59006 0
M  V30 624 C 58.1308 -0.522768 -1.52065 0
M  V30 625 O 59.3208 -0.789117 -1.55302 0
M  V30 626 C 56.4528 -1.64369 -2.98656 0
M  V30 627 H 57.6458 -2.61784 -1.46319 0
M  V30 628 H 55.1988 -1.38226 -0.729616 0
M  V30 629 H 55.9338 -0.692272 -3.16825 0
M  V30 630 H 55.7188 -2.46282 -3.05103 0
M  V30 631 H 57.2088 -1.78674 -3.77446 0
M  V30 632 N 57.6459 0.756429 -1.3826 0
M  V30 633 C 58.5759 1.88374 -1.37976 0
M  V30 634 C 59.5569 1.68311 -0.246082 0
M  V30 635 O 60.7419 1.88944 -0.44874 0
M  V30 636 C 57.8719 3.25864 -1.20125 0
M  V30 637 C 56.8259 3.60523 -2.30666 0
M  V30 638 C 56.1519 4.9672 -1.97923 0
M  V30 639 C 57.4519 3.65692 -3.72916 0
M  V30 640 H 59.1459 1.88869 -2.32312 0
M  V30 641 H 56.6919 0.907272 -1.11824 0
M  V30 642 H 58.6449 4.0438 -1.18552 0
M  V30 643 H 57.3689 3.25841 -0.222498 0
M  V30 644 H 56.0279 2.84324 -2.3142 0
M  V30 645 H 55.6759 4.93253 -0.985393 0
M  V30 646 H 55.3759 5.20878 -2.71955 0
M  V30 647 H 56.8999 5.77618 -1.97964 0
M  V30 648 H 58.3139 4.34328 -3.74208 0
M  V30 649 H 56.7109 4.01358 -4.4613 0
M  V30 650 H 57.7809 2.65987 -4.05436 0
M  V30 651 N 59.124 1.23083 0.984299 0
M  V30 652 C 60.364 1.07226 1.74017 0
M  V30 653 C 60.728 -0.384766 1.88105 0
M  V30 654 O 61.929 -0.664411 2.60459 0
M  V30 655 C 60.2 1.77348 3.10294 0
M  V30 656 S 61.759 1.77014 4.01512 0
M  V30 657 H 58.577 0.383819 0.598502 0
M  V30 658 H 61.179 1.56158 1.17622 0
M  V30 659 H 59.883 2.82506 2.97689 0
M  V30 660 H 59.414 1.28682 3.71759 0
M  V30 661 H 61.429 0.825956 4.89277 0
M  V30 662 N 60.6021 -1.18246 1.0419 0
M  V30 663 C 61.8301 -1.92195 0.766072 0
M  V30 664 C 62.2451 -1.76247 -0.676933 0
M  V30 665 O 61.6021 -1.09293 -1.46155 0
M  V30 666 C 61.6531 -3.43568 1.12442 0
M  V30 667 O 61.3741 -3.59015 2.51078 0
M  V30 668 C 62.8751 -4.34613 0.873275 0
M  V30 669 H 60.0951 -0.610114 0.279288 0
M  V30 670 H 62.6391 -1.50007 1.38989 0
M  V30 671 H 60.7941 -3.8354 0.545542 0
M  V30 672 H 61.2081 -4.5273 2.64831 0
M  V30 673 H 62.6821 -5.39374 1.17385 0
M  V30 674 H 63.1591 -4.38781 -0.191909 0
M  V30 675 H 63.7651 -4.00341 1.43551 0
M  V30 676 N 62.0802 -0.821533 -1.34494 0
M  V30 677 C 63.3282 -0.408139 -1.97936 0
M  V30 678 C 63.6492 1.03193 -1.65457 0
M  V30 679 O 62.9192 1.71622 -0.944595 0
M  V30 680 H 61.4992 -0.147928 -0.732206 0
M  V30 681 H 64.1612 -1.05067 -1.64155 0
M  V30 682 H 63.2572 -0.52601 -3.07635 0
M  V30 683 N 63.5583 1.46682 -0.576371 0
M  V30 684 C 64.4683 2.34032 0.163141 0
M  V30 685 C 65.4843 1.49367 0.892501 0
M  V30 686 O 66.6603 1.82252 0.857106 0
M  V30 687 C 63.7253 3.26435 1.16795 0
M  V30 688 C 62.7863 4.26998 0.443944 0
M  V30 689 C 62.0193 5.14986 1.40088 0
M  V30 690 O 62.2423 5.05785 2.637 0
M  V30 691 O 61.1763 5.94906 0.914917 0
M  V30 692 H 65.0023 2.98607 -0.55388 0
M  V30 693 H 62.5873 1.45554 -0.336821 0
M  V30 694 H 64.4693 3.83459 1.74748 0
M  V30 695 H 63.1443 2.64465 1.86655 0
M  V30 696 H 62.0513 3.7368 -0.177271 0
M  V30 697 H 63.3843 4.91736 -0.213566 0
M  V30 698 N 65.0364 0.313813 1.54444 0
M  V30 699 C 65.9834 -0.55655 2.23989 0
M  V30 700 C 66.9534 -1.11943 1.22711 0
M  V30 701 O 68.1384 -1.16158 1.51367 0
M  V30 702 C 65.2784 -1.71635 2.99392 0
M  V30 703 C 64.3914 -1.18364 4.15468 0
M  V30 704 C 63.5264 -2.30834 4.78424 0
M  V30 705 C 62.5654 -1.74762 5.86622 0
M  V30 706 N 61.7024 -2.80855 6.43479 0
M  V30 707 H 66.5424 0.0430893 2.97969 0
M  V30 708 H 64.0794 0.0330359 1.47063 0
M  V30 709 H 66.0374 -2.39868 3.41349 0
M  V30 710 H 64.6674 -2.28742 2.27765 0
M  V30 711 H 63.7194 -0.393163 3.78363 0
M  V30 712 H 65.0314 -0.733262 4.93381 0
M  V30 713 H 64.1854 -3.0699 5.23299 0
M  V30 714 H 62.9244 -2.79204 3.99871 0
M  V30 715 H 61.9294 -0.970995 5.41158 0
M  V30 716 H 63.1544 -1.2728 6.67066 0
M  V30 717 H 61.1004 -3.28535 5.67804 0
M  V30 718 H 61.0174 -2.40351 7.16776 0
M  V30 719 H 62.2854 -3.5687 6.93011 0
M  V30 720 N 66.5145 -1.57545 0.0417849 0
M  V30 721 C 67.7635 -1.91494 -0.633492 0
M  V30 722 C 68.0765 -0.921084 -1.72556 0
M  V30 723 O 69.2825 -1.15228 -2.45835 0
M  V30 724 C 67.7385 -3.40072 -1.17808 0
M  V30 725 C 67.3465 -4.47843 -0.118633 0
M  V30 726 C 69.0905 -3.8307 -1.82915 0
M  V30 727 C 66.9975 -5.87529 -0.675578 0
M  V30 728 H 65.9275 -0.714653 -0.24039 0
M  V30 729 H 68.5785 -1.83175 0.109148 0
M  V30 730 H 66.9605 -3.43364 -1.97274 0
M  V30 731 H 68.1345 -4.56128 0.654494 0
M  V30 732 H 66.4495 -4.14128 0.434414 0
M  V30 733 H 69.0465 -4.84794 -2.25563 0
M  V30 734 H 69.3895 -3.1881 -2.67705 0
M  V30 735 H 69.9225 -3.82255 -1.10119 0
M  V30 736 H 66.6615 -6.55362 0.134475 0
M  V30 737 H 66.1815 -5.82824 -1.4169 0
M  V30 738 H 67.8605 -6.36491 -1.1614 0
M  V30 739 N 67.9926 0.231505 -1.5589 0
M  V30 740 C 69.2406 0.955461 -1.78088 0
M  V30 741 C 69.5616 1.85262 -0.608533 0
M  V30 742 O 68.8316 1.92277 0.375035 0
M  V30 743 H 67.4116 0.355787 -0.656829 0
M  V30 744 H 70.0736 0.245751 -1.93344 0
M  V30 745 H 69.1696 1.56814 -2.69844 0
M  V30 746 N 69.4707 1.49531 0.497807 0
M  V30 747 C 70.6957 1.63159 1.28039 0
M  V30 748 C 71.1207 0.30418 1.85624 0
M  V30 749 O 70.4787 -0.728618 1.66015 0
M  V30 750 C 70.5267 2.70537 2.38416 0
M  V30 751 O 69.6307 2.29931 3.42353 0
M  V30 752 H 68.9717 0.546001 0.377861 0
M  V30 753 H 71.5017 1.9574 0.59558 0
M  V30 754 H 71.5117 2.92802 2.84132 0
M  V30 755 H 70.1867 3.6689 1.95869 0
M  V30 756 H 68.7637 2.18009 3.02533 0
M  V30 757 N 70.9488 -0.749086 1.3866 0
M  V30 758 C 72.3648 -1.05276 1.19955 0
M  V30 759 C 72.5648 -2.01435 0.05134 0
M  V30 760 O 71.6208 -2.45232 -0.60147 0
M  V30 761 C 72.9338 -1.62853 2.52783 0
M  V30 762 C 74.4818 -1.75002 2.59506 0
M  V30 763 C 74.9568 -2.35991 3.92521 0
M  V30 764 N 76.4478 -2.43416 3.94085 0
M  V30 765 C 77.1828 -2.91511 4.9377 0
M  V30 766 N 76.6788 -3.39608 6.03853 0
M  V30 767 N 78.4718 -2.90592 4.81157 0
M  V30 768 H 70.6228 -0.111066 2.12109 0
M  V30 769 H 72.8858 -0.111901 0.941373 0
M  V30 770 H 72.5918 -0.99664 3.37283 0
M  V30 771 H 72.4658 -2.61854 2.715 0
M  V30 772 H 74.8528 -2.37317 1.75398 0
M  V30 773 H 74.9338 -0.74693 2.44652 0
M  V30 774 H 74.5778 -1.74308 4.77053 0
M  V30 775 H 74.5078 -3.3695 4.04688 0
M  V30 776 H 76.9988 -2.09405 3.14576 0
M  V30 777 H 77.3118 -3.74775 6.75843 0
M  V30 778 H 75.6568 -3.37653 6.07466 0
M  V30 779 H 78.8478 -2.52332 3.94267 0
M  V30 780 H 79.0208 -3.27762 5.58996 0
M  V30 781 N 72.4269 -1.23603 -0.977757 0
M  V30 782 C 73.6749 -1.06759 -1.71601 0
M  V30 783 C 73.9959 0.395929 -1.90938 0
M  V30 784 O 73.2659 1.28356 -1.47992 0
M  V30 785 H 71.8459 -0.392062 -0.635843 0
M  V30 786 H 74.5079 -1.55362 -1.1768 0
M  V30 787 H 73.6039 -1.55763 -2.70452 0
M  V30 788 N 73.905 1.17692 -1.04816 0
M  V30 789 C 74.852 2.21581 -0.645797 0
M  V30 790 C 75.822 1.62367 0.350159 0
M  V30 791 O 77.007 1.89254 0.242433 0
M  V30 792 C 74.147 3.45092 -0.0227568 0
M  V30 793 C 73.26 4.18613 -1.06709 0
M  V30 794 C 72.395 5.29602 -0.411767 0
M  V30 795 C 71.434 5.94904 -1.44067 0
M  V30 796 N 70.571 6.97414 -0.809781 0
M  V30 797 H 75.411 2.55353 -1.5362 0
M  V30 798 H 72.948 1.25438 -0.768364 0
M  V30 799 H 74.906 4.15679 0.35588 0
M  V30 800 H 73.536 3.11917 0.831122 0
M  V30 801 H 72.588 3.46779 -1.5636 0
M  V30 802 H 73.9 4.63293 -1.84827 0
M  V30 803 H 73.054 6.06696 0.0206623 0
M  V30 804 H 71.793 4.86045 0.401438 0
M  V30 805 H 70.798 5.16544 -1.88316 0
M  V30 806 H 72.023 6.40542 -2.25571 0
M  V30 807 H 69.969 6.55998 -0.0170186 0
M  V30 808 H 69.886 7.40386 -1.52856 0
M  V30 809 H 71.154 7.78463 -0.401999 0
M  V30 810 N 75.3831 0.828654 1.34056 0
M  V30 811 C 76.3311 0.242973 2.31327 0
M  V30 812 C 77.3251 -0.61944 1.57668 0
M  V30 813 O 78.5311 -0.51014 1.7262 0
M  V30 814 H 74.9061 0.059834 0.749616 0
M  V30 815 H 76.8771 1.07809 2.78244 0
M  V30 816 C 75.6261 -0.575733 3.429 0
M  V30 817 H 74.9491 0.0785582 3.99723 0
M  V30 818 H 76.3891 -0.951547 4.13185 0
M  V30 819 C 74.8481 -1.75044 2.87856 0
M  V30 820 O 75.3781 -2.84882 2.83205 0
M  V30 821 N 73.5841 -1.56903 2.44602 0
M  V30 822 H 73.1311 -0.675547 2.48584 0
M  V30 823 H 73.0891 -2.35652 2.08124 0
M  V30 824 N 76.8612 -1.46375 0.584142 0
M  V30 825 C 77.7912 -2.33103 -0.136037 0
M  V30 826 C 78.7722 -1.45431 -0.882255 0
M  V30 827 O 79.9572 -1.74246 -0.857434 0
M  V30 828 C 77.0872 -3.27731 -1.14933 0
M  V30 829 C 76.0412 -4.24855 -0.517862 0
M  V30 830 C 75.3672 -5.09001 -1.63773 0
M  V30 831 C 76.6672 -5.19439 0.545886 0
M  V30 832 H 78.3612 -2.93568 0.588086 0
M  V30 833 H 75.9072 -1.41166 0.284259 0
M  V30 834 H 77.8602 -3.87261 -1.66153 0
M  V30 835 H 76.5842 -2.65377 -1.90375 0
M  V30 836 H 75.2432 -3.6659 -0.0267361 0
M  V30 837 H 74.8912 -4.43031 -2.38185 0
M  V30 838 H 74.5912 -5.74777 -1.22085 0
M  V30 839 H 76.1152 -5.71396 -2.15266 0
M  V30 840 H 77.5292 -5.73177 0.118704 0
M  V30 841 H 75.9262 -5.93566 0.88317 0
M  V30 842 H 76.9962 -4.63285 1.43162 0
M  V30 843 N 78.3393 -0.321999 -1.54275 0
M  V30 844 C 79.2893 0.560185 -2.21011 0
M  V30 845 C 80.2733 1.08283 -1.19011 0
M  V30 846 O 81.4653 1.02011 -1.44647 0
M  V30 847 C 78.5943 1.72137 -2.97025 0
M  V30 848 C 77.6803 1.21369 -4.06363 0
M  V30 849 N 78.0713 0.425566 -5.04007 0
M  V30 850 C 76.3693 1.49255 -4.20284 0
M  V30 851 C 77.0703 0.152601 -5.815 0
M  V30 852 N 76.0463 0.738294 -5.38563 0
M  V30 853 H 79.8483 -0.049265 -2.93859 0
M  V30 854 H 77.3623 -0.127779 -1.61897 0
M  V30 855 H 79.3593 2.36512 -3.43319 0
M  V30 856 H 78.0193 2.33431 -2.25699 0
M  V30 857 H 79.0303 0.068551 -5.17855 0
M  V30 858 H 75.7073 2.11145 -3.60172 0
M  V30 859 H 77.0973 -0.481764 -6.70171 0
M  V30 860 N 79.8174 1.5752 -0.0501392 0
M  V30 861 C 81.0474 1.96678 0.632573 0
M  V30 862 C 81.4554 0.926298 1.64974 0
M  V30 863 O 80.7984 -0.09802 1.83438 0
M  V30 864 C 80.8604 3.32068 1.37735 0
M  V30 865 C 80.5244 4.54076 0.516131 0
M  V30 866 C 81.5214 5.19445 -0.217357 0
M  V30 867 C 79.2064 5.00304 0.44736 0
M  V30 868 C 81.2004 6.29378 -1.00807 0
M  V30 869 C 78.8874 6.10114 -0.347038 0
M  V30 870 C 79.8854 6.74512 -1.07344 0
M  V30 871 O 79.5734 7.82211 -1.85477 0
M  V30 872 H 79.3054 0.652193 0.177821 0
M  V30 873 H 81.8594 2.05091 -0.112543 0
M  V30 874 H 80.0894 3.20206 2.16807 0
M  V30 875 H 81.7784 3.55981 1.95019 0
M  V30 876 H 82.5444 4.84689 -0.173688 0
M  V30 877 H 78.4234 4.49971 1.00235 0
M  V30 878 H 81.9674 6.79575 -1.57556 0
M  V30 879 H 77.8644 6.44307 -0.392349 0
M  V30 880 H 78.6324 7.98982 -1.77678 0
M  V30 881 N 81.2955 -0.223234 1.56011 0
M  V30 882 C 82.2425 -1.27664 1.92277 0
M  V30 883 C 83.2125 -1.46659 0.779763 0
M  V30 884 O 84.3975 -1.60256 1.03551 0
M  V30 885 C 81.5375 -2.62234 2.24338 0
M  V30 886 C 80.6505 -2.51051 3.51564 0
M  V30 887 C 79.7855 -3.78133 3.7308 0
M  V30 888 C 78.8245 -3.61665 4.93827 0
M  V30 889 N 77.9615 -4.80693 5.11741 0
M  V30 890 H 82.8015 -0.960358 2.82101 0
M  V30 891 H 80.3385 -0.462901 1.39627 0
M  V30 892 H 82.2965 -3.40596 2.40936 0
M  V30 893 H 80.9265 -2.91961 1.3769 0
M  V30 894 H 79.9785 -1.64132 3.43169 0
M  V30 895 H 81.2905 -2.34803 4.40079 0
M  V30 896 H 80.4445 -4.64938 3.89766 0
M  V30 897 H 79.1835 -3.97304 2.82844 0
M  V30 898 H 78.1885 -2.73244 4.77093 0
M  V30 899 H 79.4135 -3.43966 5.85546 0
M  V30 900 H 77.3595 -5.00181 4.24446 0
M  V30 901 H 77.2765 -4.67165 5.94384 0
M  V30 902 H 78.5445 -5.6893 5.3286 0
M  V30 903 N 82.7736 -1.49793 -0.48987 0
M  V30 904 C 83.7216 -1.67783 -1.61095 0
M  V30 905 C 84.7156 -0.543683 -1.60438 0
M  V30 906 O 85.9216 -0.723647 -1.64813 0
M  V30 907 H 82.2966 -0.529255 -0.534222 0
M  V30 908 H 84.2676 -2.61861 -1.43078 0
M  V30 909 C 83.0166 -1.77191 -2.99164 0
M  V30 910 H 82.3396 -2.63841 -3.0038 0
M  V30 911 H 83.7796 -1.93809 -3.77113 0
M  V30 912 C 82.2386 -0.519203 -3.32875 0
M  V30 913 O 82.7686 0.350124 -4.00171 0
M  V30 914 N 80.9746 -0.378816 -2.8812 0
M  V30 915 H 80.5216 -1.08725 -2.33531 0
M  V30 916 H 80.4796 0.458239 -3.11043 0
M  V30 917 N 84.2517 0.741722 -1.39055 0
M  V30 918 C 85.4767 1.53607 -1.39354 0
M  V30 919 C 85.9017 1.88096 0.0116905 0
M  V30 920 O 85.2597 1.5143 0.996924 0
M  V30 921 C 85.3077 2.80441 -2.26682 0
M  V30 922 O 84.4117 3.76088 -1.69208 0
M  V30 923 H 83.7527 0.464142 -0.474835 0
M  V30 924 H 86.2827 0.915665 -1.82967 0
M  V30 925 H 86.2927 3.29246 -2.40959 0
M  V30 926 H 84.9677 2.5467 -3.2881 0
M  V30 927 H 83.5447 3.34833 -1.64138 0
M  V30 928 N 85.7298 1.2412 0.971189 0
M  V30 929 C 86.9788 1.07284 1.70801 0
M  V30 930 C 87.2918 -0.388902 1.91695 0
M  V30 931 O 88.4978 -0.677379 2.62914 0
M  V30 932 C 86.9538 1.87145 3.07416 0
M  V30 933 C 86.5618 3.37707 2.94377 0
M  V30 934 C 88.3058 1.78828 3.84995 0
M  V30 935 C 86.2128 4.09925 4.26281 0
M  V30 936 H 85.1428 0.397854 0.64049 0
M  V30 937 H 87.7938 1.4817 1.0825 0
M  V30 938 H 86.1758 1.39071 3.70777 0
M  V30 939 H 87.3498 3.93335 2.4005 0
M  V30 940 H 85.6648 3.46938 2.30267 0
M  V30 941 H 88.2618 2.30089 4.82662 0
M  V30 942 H 88.6048 0.75284 4.09436 0
M  V30 943 H 89.1378 2.24563 3.28354 0
M  V30 944 H 85.8768 5.13813 4.07033 0
M  V30 945 H 85.3968 3.59083 4.80437 0
M  V30 946 H 87.0758 4.1673 4.94919 0
M  V30 947 N 87.2079 -1.17134 1.05439 0
M  V30 948 C 88.4549 -1.87456 0.765942 0
M  V30 949 C 88.7829 -1.81189 -0.707153 0
M  V30 950 O 88.0379 -1.21633 -1.5331 0
M  V30 951 C 88.3369 -3.36833 1.19491 0
M  V30 952 C 88.0029 -3.63301 2.67063 0
M  V30 953 C 86.6649 -3.70234 3.07376 0
M  V30 954 C 89.0169 -3.74575 3.62413 0
M  V30 955 C 86.3449 -3.85933 4.41896 0
M  V30 956 C 88.6969 -3.91793 4.9667 0
M  V30 957 C 87.3609 -3.96966 5.36633 0
M  V30 958 H 86.6309 -0.685948 0.280278 0
M  V30 959 H 89.2779 -1.38556 1.32192 0
M  V30 960 H 87.5829 -3.87807 0.557969 0
M  V30 961 H 89.2799 -3.89611 0.948893 0
M  V30 962 H 85.8699 -3.58532 2.34846 0
M  V30 963 H 90.0539 -3.68537 3.32406 0
M  V30 964 H 85.3099 -3.88187 4.72357 0
M  V30 965 H 89.4839 -3.99458 5.70444 0
M  V30 966 H 87.1109 -4.08883 6.40874 0
M  V30 967 N 88.686 -0.835752 -1.33615 0
M  V30 968 C 89.636 -0.238856 -2.26745 0
M  V30 969 C 90.62 0.604343 -1.49119 0
M  V30 970 O 91.812 0.456822 -1.71003 0
M  V30 971 C 88.941 0.587725 -3.38232 0
M  V30 972 C 88.027 -0.266811 -4.2326 0
M  V30 973 N 88.418 -1.34403 -4.87616 0
M  V30 974 C 86.716 -0.0533131 -4.45968 0
M  V30 975 C 87.417 -1.86819 -5.50884 0
M  V30 976 N 86.393 -1.17013 -5.30857 0
M  V30 977 H 90.195 -1.06266 -2.74016 0
M  V30 978 H 87.709 -0.679881 -1.47483 0
M  V30 979 H 89.706 1.03161 -4.03935 0
M  V30 980 H 88.366 1.40954 -2.9251 0
M  V30 981 H 89.377 -1.7269 -4.88261 0
M  V30 982 H 86.054 0.735312 -4.10974 0
M  V30 983 H 87.444 -2.7701 -6.1214 0
M  V30 984 N 90.1641 1.46063 -0.591896 0
M  V30 985 C 91.5801 1.57561 -0.254288 0
M  V30 986 C 91.7801 1.58565 1.24336 0
M  V30 987 O 90.8361 1.50753 2.02558 0
M  V30 988 C 92.1491 2.86549 -0.911611 0
M  V30 989 C 93.6971 3.00197 -0.886059 0
M  V30 990 C 94.1721 4.31933 -1.5231 0
M  V30 991 N 95.6631 4.38654 -1.48786 0
M  V30 992 C 96.3981 5.39222 -1.95006 0
M  V30 993 N 95.8941 6.46414 -2.49241 0
M  V30 994 N 97.6871 5.3048 -1.85868 0
M  V30 995 H 89.8381 1.43655 -1.56451 0
M  V30 996 H 92.1011 0.68583 -0.654478 0
M  V30 997 H 91.8071 2.91651 -1.96551 0
M  V30 998 H 91.6811 3.74794 -0.425368 0
M  V30 999 H 94.0681 2.9467 0.159246 0
M  V30 1000 H 94.1491 2.13403 -1.41041 0
M  V30 1001 H 93.7931 4.38217 -2.56765 0
M  V30 1002 H 93.7231 5.17516 -0.973891 0
M  V30 1003 H 96.2141 3.61793 -1.09151 0
M  V30 1004 H 96.5271 7.19376 -2.82344 0
M  V30 1005 H 94.8721 6.47208 -2.53272 0
M  V30 1006 H 98.0631 4.45643 -1.43248 0
M  V30 1007 H 98.2361 6.08711 -2.22204 0
M  V30 1008 N 91.6422 0.330177 1.54103 0
M  V30 1009 C 92.8912 -0.271336 1.99867 0
M  V30 1010 C 93.2042 -1.52723 1.22209 0
M  V30 1011 O 94.4102 -2.20515 1.58383 0
M  V30 1012 C 92.8662 -0.534032 3.55916 0
M  V30 1013 C 92.4742 0.705193 4.42415 0
M  V30 1014 C 94.2182 -1.09514 4.1013 0
M  V30 1015 C 92.1252 0.414035 5.89949 0
M  V30 1016 H 91.0552 -0.105166 0.74663 0
M  V30 1017 H 93.7062 0.443429 1.78062 0
M  V30 1018 H 92.0882 -1.30915 3.73734 0
M  V30 1019 H 93.2622 1.4804 4.36372 0
M  V30 1020 H 91.5772 1.18698 3.99124 0
M  V30 1021 H 94.1742 -1.3277 5.17954 0
M  V30 1022 H 94.5172 -2.04656 3.62521 0
M  V30 1023 H 95.0502 -0.381038 3.95971 0
M  V30 1024 H 91.7892 1.33481 6.41766 0
M  V30 1025 H 91.3092 -0.323336 5.98928 0
M  V30 1026 H 92.9882 0.0263105 6.46995 0
M  V30 1027 N 93.1203 -1.57491 0.0584922 0
M  V30 1028 C 94.3693 -1.92155 -0.613146 0
M  V30 1029 C 94.6823 -0.939334 -1.71569 0
M  V30 1030 O 95.8883 -1.17829 -2.44599 0
M  V30 1031 C 94.3443 -3.41303 -1.14195 0
M  V30 1032 C 93.9523 -4.47944 -0.0711265 0
M  V30 1033 C 95.6963 -3.84988 -1.78841 0
M  V30 1034 C 93.6033 -5.88212 -0.613225 0
M  V30 1035 H 92.5333 -0.717162 -0.232796 0
M  V30 1036 H 95.1843 -1.83049 0.12857 0
M  V30 1037 H 93.5663 -3.45437 -1.93621 0
M  V30 1038 H 94.7403 -4.55408 0.702836 0
M  V30 1039 H 93.0553 -4.13644 0.478313 0
M  V30 1040 H 95.6523 -4.87159 -2.20408 0
M  V30 1041 H 95.9953 -3.21632 -2.64308 0
M  V30 1042 H 96.5283 -3.83401 -1.06059 0
M  V30 1043 H 93.2673 -6.55183 0.203978 0
M  V30 1044 H 92.7873 -5.84294 -1.35501 0
M  V30 1045 H 94.4663 -6.37687 -1.09383 0
M  V30 1046 N 94.5984 0.214957 -1.56127 0
M  V30 1047 C 96.0094 0.781386 -1.69562 0
M  V30 1048 C 96.3604 1.84707 -0.66165 0
M  V30 1049 O 95.4854 2.156 0.185927 0
M  V30 1050 C 96.0804 1.42411 -3.07416 0
M  V30 1051 C 94.6394 1.93786 -3.22683 0
M  V30 1052 C 93.7864 0.800438 -2.65496 0
M  V30 1053 H 96.7374 -0.00980633 -1.58697 0
M  V30 1054 H 96.7584 2.29309 -3.0364 0
M  V30 1055 H 96.2704 0.64826 -3.82648 0
M  V30 1056 H 94.3714 2.74152 -2.52332 0
M  V30 1057 H 94.4844 2.1133 -4.29973 0
M  V30 1058 H 92.8484 1.2095 -2.2415 0
M  V30 1059 H 93.6314 0.0371471 -3.4328 0
M  V30 1060 N 96.0765 1.50051 0.48192 0
M  V30 1061 C 97.0085 1.64263 1.59844 0
M  V30 1062 C 98.0215 0.52451 1.54119 0
M  V30 1063 O 99.2105 0.797293 1.59704 0
M  V30 1064 C 96.3105 1.60102 2.98698 0
M  V30 1065 C 95.4835 2.87767 3.29407 0
M  V30 1066 C 94.5425 2.76397 4.47762 0
M  V30 1067 O 93.5685 3.50348 4.48603 0
M  V30 1068 N 94.7705 1.89222 5.48794 0
M  V30 1069 H 97.5355 2.60566 1.48073 0
M  V30 1070 H 95.0965 1.47379 0.670149 0
M  V30 1071 H 97.0885 1.50123 3.75826 0
M  V30 1072 H 95.6585 0.715798 3.04294 0
M  V30 1073 H 94.8785 3.11954 2.40994 0
M  V30 1074 H 96.1665 3.72365 3.4673 0
M  V30 1075 H 95.5645 1.28434 5.50928 0
M  V30 1076 H 94.1215 1.85154 6.24949 0
M  V30 1077 N 97.5546 -0.734337 1.39446 0
M  V30 1078 C 98.8016 -1.49391 1.36706 0
M  V30 1079 C 99.1296 -1.94465 -0.0367813 0
M  V30 1080 O 98.3846 -1.67154 -1.01774 0
M  V30 1081 C 98.6836 -2.74711 2.28623 0
M  V30 1082 C 98.3496 -2.48501 3.76242 0
M  V30 1083 C 97.0116 -2.41062 4.16464 0
M  V30 1084 C 99.3636 -2.26098 4.69606 0
M  V30 1085 C 96.6916 -2.09262 5.48112 0
M  V30 1086 C 99.0436 -1.95814 6.01531 0
M  V30 1087 C 97.7076 -1.86845 6.40816 0
M  V30 1088 H 96.9776 -0.546661 0.500243 0
M  V30 1089 H 99.6246 -0.842788 1.71957 0
M  V30 1090 H 97.9296 -3.44569 1.86492 0
M  V30 1091 H 99.6266 -3.32741 2.23796 0
M  V30 1092 H 96.2166 -2.55169 3.44364 0
M  V30 1093 H 100.401 -2.30812 4.39363 0
M  V30 1094 H 95.6566 -2.00841 5.77471 0
M  V30 1095 H 99.8306 -1.77488 6.73403 0
M  V30 1096 H 97.4576 -1.6197 7.42745 0
M  V30 1097 N 99.0327 -1.24633 -0.964593 0
M  V30 1098 C 99.9657 -0.984662 -2.05863 0
M  V30 1099 C 100.944 0.0826554 -1.6239 0
M  V30 1100 O 102.128 -0.0549296 -1.8842 0
M  V30 1101 C 99.2547 -0.486529 -3.35187 0
M  V30 1102 C 98.3007 -1.54286 -3.97615 0
M  V30 1103 S 99.1337 -3.12513 -4.34851 0
M  V30 1104 C 100.29 -2.6441 -5.67308 0
M  V30 1105 H 100.523 -1.91104 -2.27743 0
M  V30 1106 H 98.0557 -1.08052 -1.10291 0
M  V30 1107 H 100.014 -0.205757 -4.09984 0
M  V30 1108 H 98.6747 0.419186 -3.1129 0
M  V30 1109 H 97.8677 -1.14481 -4.90826 0
M  V30 1110 H 97.4697 -1.7738 -3.2926 0
M  V30 1111 H 99.7617 -2.07416 -6.44969 0
M  V30 1112 H 100.705 -3.56222 -6.11973 0
M  V30 1113 H 101.113 -2.04734 -5.26065 0
M  V30 1114 N 100.511 1.16574 -1.06058 0
M  V30 1115 C 101.751 1.88723 -0.78504 0
M  V30 1116 C 102.115 1.79706 0.676006 0
M  V30 1117 O 103.316 2.46757 1.06603 0
M  V30 1118 C 101.587 3.34338 -1.26304 0
M  V30 1119 S 103.146 4.24366 -1.1162 0
M  V30 1120 H 99.9638 0.651448 -0.284846 0
M  V30 1121 H 102.566 1.40732 -1.35701 0
M  V30 1122 H 101.27 3.38439 -2.32136 0
M  V30 1123 H 100.801 3.87378 -0.685719 0
M  V30 1124 H 102.816 4.96179 -0.0456539 0
M  V30 1125 N 101.989 0.842826 1.3317 0
M  V30 1126 C 102.921 0.236245 2.27979 0
M  V30 1127 C 103.934 -0.585282 1.51915 0
M  V30 1128 O 105.123 -0.411705 1.73687 0
M  V30 1129 C 102.223 -0.685717 3.3189 0
M  V30 1130 C 101.396 0.0973448 4.37292 0
M  V30 1131 C 100.455 -0.748565 5.20848 0
M  V30 1132 O 99.4809 -0.186339 5.68895 0
M  V30 1133 N 100.683 -2.06527 5.42519 0
M  V30 1134 H 103.448 1.05088 2.80672 0
M  V30 1135 H 101.009 0.701667 1.45905 0
M  V30 1136 H 103.001 -1.25669 3.84694 0
M  V30 1137 H 101.571 -1.40105 2.79445 0
M  V30 1138 H 100.791 0.849706 3.84933 0
M  V30 1139 H 102.079 0.635643 5.04814 0
M  V30 1140 H 101.477 -2.54554 5.05192 0
M  V30 1141 H 100.034 -2.58464 5.98364 0
M  V30 1142 N 103.467 -1.45747 0.599634 0
M  V30 1143 C 104.715 -2.01893 0.0915472 0
M  V30 1144 C 105.036 -1.47155 -1.27946 0
M  V30 1145 O 104.306 -0.66273 -1.84349 0
M  V30 1146 H 102.886 -0.746363 0.0308524 0
M  V30 1147 H 105.548 -1.78645 0.779237 0
M  V30 1148 H 104.644 -3.1208 0.0353086 0
M  V30 1149 N 104.945 -0.338344 -1.53925 0
M  V30 1150 C 106.193 0.259245 -2.0043 0
M  V30 1151 C 106.514 1.51484 -1.22791 0
M  V30 1152 O 105.784 1.93037 -0.33368 0
M  V30 1153 H 104.364 0.0987845 -0.740439 0
M  V30 1154 H 107.026 -0.458302 -1.89435 0
M  V30 1155 H 106.122 0.505334 -3.07982 0
M  V30 1156 N 106.423 1.57458 -0.0668435 0
M  V30 1157 C 107.7 1.8469 0.644132 0
M  V30 1158 C 108.08 0.958343 1.88093 0
M  V30 1159 O 107.428 0.0233579 2.28488 0
M  V30 1160 C 107.638 3.34767 0.986509 0
M  V30 1161 C 108.986 4.02159 1.36212 0
M  V30 1162 O 110.01 3.39484 1.07839 0
M  V30 1163 O 108.869 5.12694 1.89227 0
M  V30 1164 H 105.963 0.762816 0.319437 0
M  V30 1165 H 108.509 1.6942 -0.0973986 0
M  V30 1166 H 107.281 3.91151 0.107883 0
M  V30 1167 H 106.904 3.55281 1.78497 0
M  V30 1168 N 107.901 -0.206675 1.56239 0
M  V30 1169 C 109.15 -0.926964 1.79138 0
M  V30 1170 C 109.463 -1.84901 0.638043 0
M  V30 1171 O 110.669 -2.60906 0.751033 0
M  V30 1172 C 109.125 -1.6986 3.17294 0
M  V30 1173 C 108.733 -0.821956 4.40395 0
M  V30 1174 C 110.477 -2.40922 3.4951 0
M  V30 1175 C 108.384 -1.59179 5.69575 0
M  V30 1176 H 107.314 -0.349864 0.667915 0
M  V30 1177 H 109.965 -0.180487 1.8261 0
M  V30 1178 H 108.347 -2.48853 3.08039 0
M  V30 1179 H 109.521 -0.0715019 4.60745 0
M  V30 1180 H 107.836 -0.222741 4.15804 0
M  V30 1181 H 110.433 -2.99047 4.43255 0
M  V30 1182 H 110.776 -3.14542 2.72707 0
M  V30 1183 H 111.309 -1.68905 3.60161 0
M  V30 1184 H 108.048 -0.898589 6.49312 0
M  V30 1185 H 107.568 -2.31648 5.53262 0
M  V30 1186 H 109.247 -2.14862 6.10281 0
M  V30 1187 N 109.379 -1.50304 -0.473955 0
M  V30 1188 C 110.607 -1.64902 -1.24959 0
M  V30 1189 C 111.022 -0.331198 -1.85872 0
M  V30 1190 O 110.379 0.68652 -1.69095 0
M  V30 1191 C 110.43 -2.73803 -2.36038 0
M  V30 1192 O 110.151 -4.00477 -1.77624 0
M  V30 1193 C 111.652 -2.99349 -3.26964 0
M  V30 1194 H 108.872 -0.554383 -0.378022 0
M  V30 1195 H 111.416 -1.9651 -0.566054 0
M  V30 1196 H 109.571 -2.44898 -3.00173 0
M  V30 1197 H 109.985 -4.60678 -2.5075 0
M  V30 1198 H 111.459 -3.79217 -4.01121 0
M  V30 1199 H 111.936 -2.10307 -3.85574 0
M  V30 1200 H 112.542 -3.29774 -2.68569 0
M  V30 1201 N 110.857 0.726932 -1.39834 0
M  V30 1202 C 111.805 1.86235 -1.39353 0
M  V30 1203 C 112.799 1.67144 -0.275555 0
M  V30 1204 O 114.005 1.74387 -0.44601 0
M  V30 1205 H 110.38 0.613174 -0.43534 0
M  V30 1206 H 112.351 1.83756 -2.35109 0
M  V30 1207 C 111.1 3.23995 -1.26185 0
M  V30 1208 H 110.423 3.39285 -2.11484 0
M  V30 1209 H 111.863 4.03609 -1.29907 0
M  V30 1210 C 110.322 3.36888 0.0290018 0
M  V30 1211 O 110.852 3.89152 0.99619 0
M  V30 1212 N 109.058 2.90446 0.0947437 0
M  V30 1213 H 108.605 2.48102 -0.693035 0
M  V30 1214 H 108.563 2.99451 0.957932 0
M  V30 1215 N 112.336 1.25143 0.95797 0
M  V30 1216 C 113.584 1.09476 1.69881 0
M  V30 1217 C 113.905 -0.365502 1.91544 0
M  V30 1218 O 113.175 -1.25985 1.50015 0
M  V30 1219 H 111.755 0.402128 0.629525 0
M  V30 1220 H 114.417 1.57214 1.15194 0
M  V30 1221 H 113.513 1.60046 2.6794 0
M  V30 1222 N 113.814 -1.1601 1.06675 0
M  V30 1223 C 114.762 -2.22586 0.675157 0
M  V30 1224 C 115.756 -1.66525 -0.310766 0
M  V30 1225 O 116.962 -1.79145 -0.175215 0
M  V30 1226 H 113.337 -0.724855 0.200223 0
M  V30 1227 H 115.308 -2.52899 1.58381 0
M  V30 1228 C 114.057 -3.47604 0.0817162 0
M  V30 1229 H 113.38 -3.91058 0.831484 0
M  V30 1230 H 114.82 -4.23718 -0.154708 0
M  V30 1231 C 113.279 -3.15718 -1.17576 0
M  V30 1232 O 113.809 -3.31878 -2.26318 0
M  V30 1233 N 112.015 -2.69816 -1.07923 0
M  V30 1234 H 111.562 -2.56866 -0.194293 0
M  V30 1235 H 111.52 -2.48855 -1.92141 0
M  V30 1236 N 115.292 -0.849877 -1.32721 0
M  V30 1237 C 116.54 -0.450032 -1.97026 0
M  V30 1238 C 116.861 0.996604 -1.67609 0
M  V30 1239 O 116.131 1.6958 -0.980786 0
M  V30 1240 H 114.711 -0.163426 -0.728904 0
M  V30 1241 H 117.373 -1.08526 -1.6189 0
M  V30 1242 H 116.469 -0.591146 -3.0645 0
M  V30 1243 N 116.77 1.45427 -0.607355 0
M  V30 1244 C 117.995 2.07124 -0.107006 0
M  V30 1245 C 118.42 1.44906 1.19933 0
M  V30 1246 O 117.778 0.541687 1.73019 0
M  V30 1247 C 117.826 3.60595 0.0194119 0
M  V30 1248 O 116.93 3.98285 1.0697 0
M  V30 1249 H 116.271 0.659868 -0.0739597 0
M  V30 1250 H 118.801 1.86683 -0.837297 0
M  V30 1251 H 118.811 4.07419 0.2177 0
M  V30 1252 H 117.486 4.05266 -0.934453 0
M  V30 1253 H 116.063 3.63133 0.847889 0
M  V30 1254 N 118.248 0.346503 1.53744 0
M  V30 1255 C 119.496 -0.248612 2.00565 0
M  V30 1256 C 119.817 -1.5083 1.23593 0
M  V30 1257 O 119.087 -1.92858 0.343912 0
M  V30 1258 H 117.667 -0.0948564 0.740953 0
M  V30 1259 H 120.329 0.468341 1.89189 0
M  V30 1260 H 119.425 -0.488994 3.08245 0
M  V30 1261 N 119.726 -1.57421 0.075193 0
M  V30 1262 C 120.974 -1.93236 -0.591974 0
M  V30 1263 C 121.295 -0.956241 -1.69944 0
M  V30 1264 O 120.565 -0.00494792 -1.95899 0
M  V30 1265 H 119.145 -0.713355 -0.22166 0
M  V30 1266 H 121.807 -1.9444 0.133848 0
M  V30 1267 H 120.903 -2.95131 -1.01509 0
M  V30 1268 N 121.204 0.198386 -1.56346 0
M  V30 1269 C 122.114 1.2664 -1.97483 0
M  V30 1270 C 123.13 1.49989 -0.882002 0
M  V30 1271 O 124.306 1.62668 -1.18748 0
M  V30 1272 C 121.371 2.59141 -2.30319 0
M  V30 1273 C 120.432 2.43892 -3.53292 0
M  V30 1274 C 119.665 3.70074 -3.84553 0
M  V30 1275 O 119.888 4.74101 -3.1715 0
M  V30 1276 O 118.822 3.658 -4.7799 0
M  V30 1277 H 122.648 0.947304 -2.88548 0
M  V30 1278 H 120.233 0.403123 -1.43859 0
M  V30 1279 H 122.115 3.37352 -2.5253 0
M  V30 1280 H 120.79 2.90684 -1.42423 0
M  V30 1281 H 119.697 1.63803 -3.36332 0
M  V30 1282 H 121.03 2.17282 -4.41644 0
M  V30 1283 N 122.682 1.50554 0.465978 0
M  V30 1284 C 123.907 1.65838 1.24549 0
M  V30 1285 C 124.332 0.343486 1.84937 0
M  V30 1286 O 123.69 -0.69324 1.67523 0
M  V30 1287 C 123.738 2.75533 2.32624 0
M  V30 1288 O 122.842 2.37142 3.37398 0
M  V30 1289 H 122.183 0.553893 0.366194 0
M  V30 1290 H 124.713 1.96959 0.553927 0
M  V30 1291 H 124.723 2.98763 2.77857 0
M  V30 1292 H 123.398 3.70962 1.88043 0
M  V30 1293 H 121.975 2.24377 2.97841 0
M  V30 1294 N 124.16 -0.719506 1.40217 0
M  V30 1295 C 125.409 -1.47486 1.37589 0
M  V30 1296 C 125.722 -1.9559 -0.0201568 0
M  V30 1297 O 126.928 -2.70973 -0.169049 0
M  V30 1298 C 125.384 -2.66575 2.41796 0
M  V30 1299 C 124.992 -2.25358 3.87192 0
M  V30 1300 C 126.736 -3.4433 2.48269 0
M  V30 1301 C 124.643 -3.41262 4.83005 0
M  V30 1302 H 123.573 -0.553901 0.511576 0
M  V30 1303 H 126.224 -0.783427 1.65936 0
M  V30 1304 H 124.606 -3.3787 2.06543 0
M  V30 1305 H 125.78 -1.61509 4.31569 0
M  V30 1306 H 124.095 -1.60657 3.84159 0
M  V30 1307 H 126.692 -4.30569 3.17041 0
M  V30 1308 H 127.035 -3.87872 1.51198 0
M  V30 1309 H 127.568 -2.80076 2.82493 0
M  V30 1310 H 124.307 -3.02755 5.81394 0
M  V30 1311 H 123.827 -4.0404 4.43297 0
M  V30 1312 H 125.506 -4.07383 5.02641 0
M  V30 1313 N 125.638 -1.25649 -0.95132 0
M  V30 1314 C 126.868 -1.13179 -1.72841 0
M  V30 1315 C 127.276 0.316827 -1.86528 0
M  V30 1316 O 126.619 1.22948 -1.3649 0
M  V30 1317 C 126.681 -1.71644 -3.15878 0
M  V30 1318 C 126.345 -3.20667 -3.25609 0
M  V30 1319 C 127.342 -4.17616 -3.09666 0
M  V30 1320 C 125.027 -3.6094 -3.49324 0
M  V30 1321 C 127.021 -5.52817 -3.17289 0
M  V30 1322 C 124.708 -4.96278 -3.56584 0
M  V30 1323 C 125.706 -5.92025 -3.40581 0
M  V30 1324 O 125.394 -7.24899 -3.47528 0
M  V30 1325 H 125.126 -0.395389 -0.54831 0
M  V30 1326 H 127.68 -1.66566 -1.20187 0
M  V30 1327 H 125.91 -1.12707 -3.69911 0
M  V30 1328 H 127.599 -1.54225 -3.75459 0
M  V30 1329 H 128.365 -3.87842 -2.91211 0
M  V30 1330 H 124.244 -2.86907 -3.6084 0
M  V30 1331 H 127.788 -6.2753 -3.04716 0
M  V30 1332 H 123.685 -5.25716 -3.74556 0
M  V30 1333 H 124.453 -7.33039 -3.64138 0
M  V30 1334 N 127.117 1.15442 -1.07289 0
M  V30 1335 C 128.365 1.85845 -0.794096 0
M  V30 1336 C 128.686 1.82692 0.681809 0
M  V30 1337 O 127.956 1.26741 1.49377 0
M  V30 1338 H 126.536 0.688089 -0.290763 0
M  V30 1339 H 129.198 1.39947 -1.3565 0
M  V30 1340 H 128.294 2.91001 -1.12804 0
M  V30 1341 N 128.595 0.856903 1.32268 0
M  V30 1342 C 130.011 0.547061 1.49931 0
M  V30 1343 C 130.211 -0.921781 1.7918 0
M  V30 1344 O 129.267 -1.70469 1.8627 0
M  V30 1345 C 130.58 1.43599 2.64196 0
M  V30 1346 C 132.128 1.43665 2.78081 0
M  V30 1347 C 132.603 2.31085 3.95428 0
M  V30 1348 N 134.094 2.28893 4.02694 0
M  V30 1349 C 134.829 2.93262 4.92732 0
M  V30 1350 N 134.325 3.66751 5.87763 0
M  V30 1351 N 136.118 2.82638 4.85873 0
M  V30 1352 H 128.269 1.8075 1.11549 0
M  V30 1353 H 130.532 0.772144 0.549997 0
M  V30 1354 H 130.238 2.48058 2.49319 0
M  V30 1355 H 130.112 1.12502 3.60032 0
M  V30 1356 H 132.499 0.399701 2.92381 0
M  V30 1357 H 132.58 1.7878 1.82952 0
M  V30 1358 H 132.224 3.34849 3.81888 0
M  V30 1359 H 132.154 1.93302 4.89839 0
M  V30 1360 H 134.645 1.75466 3.34694 0
M  V30 1361 H 134.958 4.13027 6.53168 0
M  V30 1362 H 133.303 3.70859 5.87783 0
M  V30 1363 H 136.494 2.24774 4.10602 0
M  V30 1364 H 136.667 3.33084 5.55841 0
M  V30 1365 N 130.073 -1.45103 0.615059 0
M  V30 1366 C 131.298 -2.07064 0.117988 0
M  V30 1367 C 131.723 -1.4554 -1.19163 0
M  V30 1368 O 131.081 -0.550855 -1.72729 0
M  V30 1369 C 131.129 -3.606 -0.000288387 0
M  V30 1370 O 130.233 -3.98847 -1.04856 0
M  V30 1371 H 129.574 -0.659467 0.0774581 0
M  V30 1372 H 132.104 -1.86236 0.847186 0
M  V30 1373 H 132.114 -4.07529 -0.196091 0
M  V30 1374 H 130.789 -4.04765 0.955932 0
M  V30 1375 H 129.366 -3.63577 -0.828619 0
M  V30 1376 N 131.551 -0.354651 -1.53558 0
M  V30 1377 C 132.798 0.238443 -2.01091 0
M  V30 1378 C 133.126 1.49663 -1.24222 0
M  V30 1379 O 132.381 1.93049 -0.321003 0
M  V30 1380 C 132.68 0.587121 -3.52545 0
M  V30 1381 C 132.346 -0.575472 -4.47213 0
M  V30 1382 C 131.008 -0.894497 -4.72813 0
M  V30 1383 C 133.36 -1.35489 -5.03281 0
M  V30 1384 C 130.688 -1.99511 -5.51736 0
M  V30 1385 C 133.04 -2.44583 -5.83405 0
M  V30 1386 C 131.704 -2.77033 -6.07296 0
M  V30 1387 H 130.974 0.0872526 -0.735845 0
M  V30 1388 H 133.621 -0.484859 -1.8526 0
M  V30 1389 H 131.926 1.39129 -3.66265 0
M  V30 1390 H 133.623 1.05809 -3.86789 0
M  V30 1391 H 130.213 -0.316774 -4.27428 0
M  V30 1392 H 134.397 -1.12167 -4.83459 0
M  V30 1393 H 129.653 -2.25063 -5.68469 0
M  V30 1394 H 133.827 -3.05401 -6.25862 0
M  V30 1395 H 131.454 -3.6244 -6.68237 0
M  V30 1396 N 133.029 1.57378 -0.0835403 0
M  V30 1397 C 134.257 1.98263 0.59157 0
M  V30 1398 C 134.672 0.962302 1.62435 0
M  V30 1399 O 134.029 -0.049581 1.82433 0
M  V30 1400 C 134.08 3.39214 1.24965 0
M  V30 1401 O 133.801 4.37339 0.258186 0
M  V30 1402 C 135.302 3.95038 2.01147 0
M  V30 1403 H 132.522 0.651773 0.159477 0
M  V30 1404 H 135.066 2.03878 -0.159415 0
M  V30 1405 H 133.221 3.34649 1.95164 0
M  V30 1406 H 133.635 5.19371 0.731734 0
M  V30 1407 H 135.109 4.95848 2.42567 0
M  V30 1408 H 135.586 3.32222 2.87272 0
M  V30 1409 H 136.192 4.0304 1.35789 0
M  V30 1410 N 134.507 -0.190092 1.56449 0
M  V30 1411 C 135.784 -0.935886 1.71757 0
M  V30 1412 C 136.164 -2.01173 0.639726 0
M  V30 1413 O 135.512 -2.25827 -0.348502 0
M  V30 1414 C 135.722 -1.51775 3.1427 0
M  V30 1415 C 137.07 -1.99794 3.74656 0
M  V30 1416 O 138.094 -1.61607 3.1743 0
M  V30 1417 O 136.953 -2.70079 4.751 0
M  V30 1418 H 134.047 -0.439229 0.700719 0
M  V30 1419 H 136.593 -0.179395 1.68749 0
M  V30 1420 H 135.365 -0.742505 3.84191 0
M  V30 1421 H 134.988 -2.33894 3.21527 0
M  V30 1422 N 135.985 -1.50799 -0.457987 0
M  V30 1423 C 136.895 -1.73426 -1.57989 0
M  V30 1424 C 137.911 -0.617745 -1.62665 0
M  V30 1425 O 139.087 -0.897614 -1.80291 0
M  V30 1426 C 136.152 -1.83557 -2.94122 0
M  V30 1427 C 135.213 -3.07345 -2.99729 0
M  V30 1428 C 134.446 -3.16983 -4.29368 0
M  V30 1429 O 134.669 -2.33077 -5.20607 0
M  V30 1430 O 133.603 -4.09812 -4.40837 0
M  V30 1431 H 137.429 -2.68555 -1.41817 0
M  V30 1432 H 135.014 -1.35052 -0.638859 0
M  V30 1433 H 136.896 -1.92326 -3.74952 0
M  V30 1434 H 135.571 -0.916137 -3.10465 0
M  V30 1435 H 134.478 -3.04068 -2.1793 0
M  V30 1436 H 135.811 -3.9891 -2.88326 0
M  V30 1437 N 137.463 0.71206 -1.40597 0
M  V30 1438 C 138.411 1.84746 -1.41321 0
M  V30 1439 C 139.405 1.66842 -0.293268 0
M  V30 1440 O 140.611 1.73904 -0.464481 0
M  V30 1441 H 136.986 0.608522 -0.441819 0
M  V30 1442 H 138.957 1.81252 -2.37045 0
M  V30 1443 C 137.706 3.22638 -1.29614 0
M  V30 1444 H 137.029 3.37023 -2.15071 0
M  V30 1445 H 138.469 4.02209 -1.3418 0
M  V30 1446 C 136.928 3.36899 -0.00673121 0
M  V30 1447 O 137.458 3.90186 0.954859 0
M  V30 1448 N 135.664 2.9053 0.0639327 0
M  V30 1449 H 135.211 2.47353 -0.719311 0
M  V30 1450 H 135.169 3.0045 0.926118 0
M  V30 1451 N 138.941 1.26152 0.944643 0
M  V30 1452 C 140.188 1.11492 1.69044 0
M  V30 1453 C 140.516 -0.342366 1.91463 0
M  V30 1454 O 139.771 -1.26812 1.49054 0
M  V30 1455 C 140.07 1.82541 3.07268 0
M  V30 1456 C 139.736 3.32445 3.04616 0
M  V30 1457 C 138.398 3.73337 3.036 0
M  V30 1458 C 140.75 4.28171 2.97185 0
M  V30 1459 C 138.078 5.08348 2.92915 0
M  V30 1460 C 140.43 5.63218 2.88041 0
M  V30 1461 C 139.094 6.03426 2.85366 0
M  V30 1462 H 138.364 0.407977 0.618576 0
M  V30 1463 H 141.011 1.56551 1.10291 0
M  V30 1464 H 139.316 1.29941 3.69625 0
M  V30 1465 H 141.013 1.68642 3.63815 0
M  V30 1466 H 137.603 2.99915 3.06185 0
M  V30 1467 H 141.787 3.97563 2.97081 0
M  V30 1468 H 137.043 5.38667 2.89219 0
M  V30 1469 H 141.217 6.37078 2.81254 0
M  V30 1470 H 138.844 7.07999 2.76842 0
M  V30 1471 N 140.419 -1.14872 1.07899 0
M  V30 1472 C 141.367 -2.21857 0.698727 0
M  V30 1473 C 142.361 -1.66845 -0.293086 0
M  V30 1474 O 143.567 -1.79321 -0.156204 0
M  V30 1475 H 139.942 -0.722691 0.207899 0
M  V30 1476 H 141.913 -2.51205 1.61054 0
M  V30 1477 C 140.662 -3.47498 0.11858 0
M  V30 1478 H 139.985 -3.90154 0.872914 0
M  V30 1479 H 141.425 -4.23858 -0.109759 0
M  V30 1480 C 139.884 -3.16947 -1.1422 0
M  V30 1481 O 140.414 -3.3426 -2.22785 0
M  V30 1482 N 138.62 -2.70946 -1.05055 0
M  V30 1483 H 138.167 -2.57058 -0.167038 0
M  V30 1484 H 138.125 -2.50879 -1.89491 0
M  V30 1485 N 141.898 -0.863906 -1.31812 0
M  V30 1486 C 142.831 -0.259963 -2.26714 0
M  V30 1487 C 143.809 0.607392 -1.50829 0
M  V30 1488 O 144.993 0.562155 -1.79922 0
M  V30 1489 C 142.12 0.632456 -3.32743 0
M  V30 1490 C 141.166 -0.162743 -4.26189 0
M  V30 1491 S 141.999 -1.53726 -5.12961 0
M  V30 1492 C 143.155 -0.650803 -6.22507 0
M  V30 1493 H 143.388 -1.06445 -2.77591 0
M  V30 1494 H 140.921 -0.662071 -1.39485 0
M  V30 1495 H 142.879 1.14167 -3.94305 0
M  V30 1496 H 141.54 1.41083 -2.80632 0
M  V30 1497 H 140.733 0.517366 -5.01338 0
M  V30 1498 H 140.335 -0.60385 -3.69093 0
M  V30 1499 H 142.627 0.141134 -6.77353 0
M  V30 1500 H 143.57 -1.37322 -6.94657 0
M  V30 1501 H 143.978 -0.221041 -5.64067 0
M  V30 1502 N 143.376 1.44774 -0.622745 0
M  V30 1503 C 144.323 2.30635 0.0871679 0
M  V30 1504 C 145.293 1.42994 0.845097 0
M  V30 1505 O 146.478 1.71907 0.827812 0
M  V30 1506 C 143.618 3.28144 1.06844 0
M  V30 1507 C 142.731 4.30888 0.309809 0
M  V30 1508 C 141.866 5.15494 1.28215 0
M  V30 1509 C 140.905 6.09953 0.512198 0
M  V30 1510 N 140.042 6.87287 1.43458 0
M  V30 1511 H 144.882 2.90803 -0.650974 0
M  V30 1512 H 142.419 1.43286 -0.33281 0
M  V30 1513 H 144.377 3.83157 1.65066 0
M  V30 1514 H 143.007 2.69695 1.77382 0
M  V30 1515 H 142.059 3.78414 -0.388181 0
M  V30 1516 H 143.371 4.97955 -0.290254 0
M  V30 1517 H 142.525 5.74983 1.93596 0
M  V30 1518 H 141.264 4.48481 1.91614 0
M  V30 1519 H 140.269 5.49581 -0.155151 0
M  V30 1520 H 141.494 6.78999 -0.116958 0
M  V30 1521 H 139.44 6.2295 2.05594 0
M  V30 1522 H 139.357 7.50763 0.888335 0
M  V30 1523 H 140.625 7.51306 2.07749 0
M  V30 1524 N 144.854 0.36279 1.53368 0
M  V30 1525 C 145.804 -0.501391 2.22419 0
M  V30 1526 C 146.788 -1.0509 1.2184 0
M  V30 1527 O 147.98 -0.981404 1.47301 0
M  V30 1528 C 145.109 -1.64201 3.01484 0
M  V30 1529 C 144.195 -1.10552 4.09438 0
M  V30 1530 N 144.586 -0.291788 5.04958 0
M  V30 1531 C 142.884 -1.3806 4.24094 0
M  V30 1532 C 143.585 0.00162655 5.817 0
M  V30 1533 N 142.561 -0.595244 5.40331 0
M  V30 1534 H 146.363 0.127159 2.93625 0
M  V30 1535 H 143.877 0.170658 1.61501 0
M  V30 1536 H 145.874 -2.27326 3.49469 0
M  V30 1537 H 144.534 -2.27365 2.31809 0
M  V30 1538 H 145.545 0.0687731 5.17854 0
M  V30 1539 H 142.222 -2.01522 3.65644 0
M  V30 1540 H 143.612 0.659278 6.68658 0
M  V30 1541 N 146.332 -1.57332 0.0918853 0
M  V30 1542 C 147.609 -1.85691 -0.614668 0
M  V30 1543 C 147.989 -0.988146 -1.86545 0
M  V30 1544 O 147.337 -0.0597055 -2.28422 0
M  V30 1545 C 147.547 -3.36294 -0.933126 0
M  V30 1546 C 148.895 -4.04275 -1.29796 0
M  V30 1547 O 149.919 -3.41157 -1.02424 0
M  V30 1548 O 148.778 -5.1564 -1.81047 0
M  V30 1549 H 145.872 -0.767802 -0.307261 0
M  V30 1550 H 148.418 -1.69244 0.12434 0
M  V30 1551 H 147.19 -3.91273 -0.0456404 0
M  V30 1552 H 146.813 -3.58076 -1.72822 0
M  V30 1553 N 147.81 0.181792 -1.56548 0
M  V30 1554 C 148.742 1.24956 -1.92142 0
M  V30 1555 C 149.755 1.41022 -0.813422 0
M  V30 1556 O 150.944 1.41212 -1.09186 0
M  V30 1557 C 148.044 2.61981 -2.14987 0
M  V30 1558 C 147.217 2.6735 -3.46183 0
M  V30 1559 C 146.276 3.85664 -3.5798 0
M  V30 1560 O 145.302 3.72148 -4.30691 0
M  V30 1561 N 146.504 5.01683 -2.92053 0
M  V30 1562 H 149.269 0.947329 -2.84334 0
M  V30 1563 H 146.83 0.371629 -1.57577 0
M  V30 1564 H 148.822 3.3958 -2.20154 0
M  V30 1565 H 147.392 2.84637 -1.2923 0
M  V30 1566 H 146.612 1.75925 -3.52766 0
M  V30 1567 H 147.9 2.67939 -4.32534 0
M  V30 1568 H 147.298 5.15564 -2.32832 0
M  V30 1569 H 145.855 5.77181 -3.0283 0
M  V30 1570 N 149.288 1.51039 0.449983 0
M  V30 1571 C 150.699 1.557 1.03026 0
M  V30 1572 C 151.05 0.372939 1.92623 0
M  V30 1573 O 150.175 -0.511771 2.10261 0
M  V30 1574 C 150.77 2.82171 1.87523 0
M  V30 1575 C 149.329 2.89444 2.40622 0
M  V30 1576 C 148.476 2.50228 1.19504 0
M  V30 1577 H 151.427 1.56999 0.231745 0
M  V30 1578 H 151.448 2.65219 2.72835 0
M  V30 1579 H 150.96 3.68331 1.22286 0
M  V30 1580 H 149.061 2.07685 3.0935 0
M  V30 1581 H 149.174 3.92816 2.74285 0
M  V30 1582 H 147.538 2.03139 1.53644 0
M  V30 1583 H 148.321 3.38719 0.558972 0
M  V30 1584 N 150.766 -0.704594 1.40972 0
M  V30 1585 C 152.014 -1.46169 1.39568 0
M  V30 1586 C 152.335 -1.95 0.00253745 0
M  V30 1587 O 151.605 -1.71095 -0.954114 0
M  V30 1588 H 150.185 -0.542326 0.513704 0
M  V30 1589 H 152.847 -0.834553 1.76128 0
M  V30 1590 H 151.943 -2.32922 2.07735 0
M  V30 1591 N 152.244 -1.26651 -0.937939 0
M  V30 1592 C 153.174 -1.10993 -2.05433 0
M  V30 1593 C 154.155 -0.0142161 -1.70094 0
M  V30 1594 O 155.34 -0.186837 -1.93299 0
M  V30 1595 C 152.47 -0.745561 -3.39203 0
M  V30 1596 C 151.424 -1.79337 -3.88616 0
M  V30 1597 C 150.75 -1.28324 -5.19073 0
M  V30 1598 C 152.05 -3.19553 -4.13138 0
M  V30 1599 H 153.744 -2.0438 -2.1879 0
M  V30 1600 H 151.29 -0.984041 -1.05131 0
M  V30 1601 H 153.243 -0.622888 -4.16771 0
M  V30 1602 H 151.967 0.22401 -3.25831 0
M  V30 1603 H 150.626 -1.90477 -3.13231 0
M  V30 1604 H 150.274 -0.303414 -5.02084 0
M  V30 1605 H 149.974 -1.98369 -5.53103 0
M  V30 1606 H 151.498 -1.1733 -5.99221 0
M  V30 1607 H 152.912 -3.11471 -4.81309 0
M  V30 1608 H 151.309 -3.87218 -4.58457 0
M  V30 1609 H 152.379 -3.65368 -3.18801 0
M  V30 1610 N 153.722 1.14298 -1.08507 0
M  V30 1611 C 154.652 2.21542 -0.737646 0
M  V30 1612 C 155.633 1.67773 0.280377 0
M  V30 1613 O 156.818 1.93616 0.150521 0
M  V30 1614 C 153.948 3.46988 -0.147259 0
M  V30 1615 C 152.902 4.13789 -1.09374 0
M  V30 1616 C 152.228 5.33449 -0.365524 0
M  V30 1617 C 153.528 4.62208 -2.4323 0
M  V30 1618 H 155.222 2.5086 -1.6343 0
M  V30 1619 H 152.768 1.20576 -0.787243 0
M  V30 1620 H 154.721 4.21262 0.107808 0
M  V30 1621 H 153.445 3.17037 0.784538 0
M  V30 1622 H 152.104 3.4147 -1.33393 0
M  V30 1623 H 151.752 4.99759 0.57011 0
M  V30 1624 H 151.452 5.79088 -0.996512 0
M  V30 1625 H 152.976 6.10485 -0.118534 0
M  V30 1626 H 154.39 5.27952 -2.23472 0
M  V30 1627 H 152.787 5.18553 -3.02031 0
M  V30 1628 H 153.857 3.77224 -3.04681 0
M  V30 1629 N 155.201 0.870884 1.31352 0
M  V30 1630 C 156.426 0.495957 2.01383 0
M  V30 1631 C 156.851 -0.904324 1.64935 0
M  V30 1632 O 156.209 -1.59687 0.858466 0
M  V30 1633 C 156.257 0.661433 3.54482 0
M  V30 1634 O 155.361 -0.298851 4.11316 0
M  V30 1635 H 154.702 0.197158 0.634054 0
M  V30 1636 H 157.232 1.17455 1.67527 0
M  V30 1637 H 157.242 0.555072 4.04207 0
M  V30 1638 H 155.917 1.68246 3.8035 0
M  V30 1639 H 154.494 -0.147368 3.72609 0
M  V30 1640 N 156.679 -1.44442 0.630414 0
M  V30 1641 C 157.612 -2.27862 -0.124247 0
M  V30 1642 C 158.59 -1.38495 -0.851931 0
M  V30 1643 O 159.774 -1.67935 -0.856166 0
M  V30 1644 C 156.901 -3.17407 -1.18197 0
M  V30 1645 C 155.947 -4.22875 -0.554892 0
M  V30 1646 S 156.78 -5.31485 0.654489 0
M  V30 1647 C 157.936 -6.246 -0.40326 0
M  V30 1648 H 158.169 -2.91519 0.583435 0
M  V30 1649 H 155.702 -1.48618 0.418565 0
M  V30 1650 H 157.66 -3.69549 -1.78728 0
M  V30 1651 H 156.321 -2.52971 -1.86184 0
M  V30 1652 H 155.514 -4.85542 -1.35148 0
M  V30 1653 H 155.116 -3.73992 -0.0242105 0
M  V30 1654 H 157.408 -6.65375 -1.27602 0
M  V30 1655 H 158.351 -7.07851 0.187813 0
M  V30 1656 H 158.759 -5.59775 -0.728837 0
M  V30 1657 N 158.157 -0.370918 -1.53173 0
M  V30 1658 C 159.12 0.460778 -2.24521 0
M  V30 1659 C 160.12 1.00536 -1.25496 0
M  V30 1660 O 161.31 0.890266 -1.49733 0
M  V30 1661 C 158.442 1.64457 -2.98608 0
M  V30 1662 H 159.635 -0.163613 -2.99453 0
M  V30 1663 H 157.188 -0.122699 -1.55818 0
M  V30 1664 H 157.923 2.30691 -2.2793 0
M  V30 1665 H 157.708 1.26099 -3.7127 0
M  V30 1666 H 159.198 2.23384 -3.5283 0
M  V30 1667 N 159.635 1.57281 -0.100228 0
M  V30 1668 C 160.583 2.15542 0.874328 0
M  V30 1669 C 161.577 1.09962 1.28859 0
M  V30 1670 O 162.783 1.28298 1.26252 0
M  V30 1671 H 159.158 0.689567 0.300003 0
M  V30 1672 H 161.129 2.96241 0.35829 0
M  V30 1673 C 159.878 2.75454 2.1218 0
M  V30 1674 H 159.201 3.56384 1.81193 0
M  V30 1675 H 160.641 3.19781 2.78417 0
M  V30 1676 C 159.1 1.71602 2.89921 0
M  V30 1677 O 159.63 1.15804 3.84646 0
M  V30 1678 N 157.836 1.41975 2.53558 0
M  V30 1679 H 157.383 1.87539 1.76598 0
M  V30 1680 H 157.341 0.727274 3.05873 0
M  V30 1681 N 161.113 -0.173488 1.56642 0
M  V30 1682 C 162.076 -1.19859 1.95362 0
M  V30 1683 C 163.076 -1.37296 0.83704 0
M  V30 1684 O 164.266 -1.34739 1.10413 0
M  V30 1685 C 161.398 -2.56405 2.24654 0
M  V30 1686 H 162.591 -0.867062 2.87092 0
M  V30 1687 H 160.144 -0.415853 1.50666 0
M  V30 1688 H 160.879 -2.94576 1.35631 0
M  V30 1689 H 160.664 -2.45115 3.06041 0
M  V30 1690 H 162.154 -3.30287 2.5554 0
M  V30 1691 N 162.591 -1.51276 -0.441967 0
M  V30 1692 C 163.839 -1.63392 -1.18943 0
M  V30 1693 C 164.16 -0.350159 -1.9183 0
M  V30 1694 O 163.43 0.633784 -1.85364 0
M  V30 1695 H 162.01 -0.602164 -0.442049 0
M  V30 1696 H 164.672 -1.88186 -0.507165 0
M  V30 1697 H 163.768 -2.45934 -1.92154 0
M  V30 1698 N 164.069 0.697108 -1.41344 0
M  V30 1699 C 165.48 1.27697 -1.36199 0
M  V30 1700 C 165.831 1.9615 -0.0443463 0
M  V30 1701 O 164.956 1.98689 0.857419 0
M  V30 1702 C 165.551 2.32223 -2.46694 0
M  V30 1703 C 164.11 2.8579 -2.44952 0
M  V30 1704 C 163.257 1.59807 -2.26621 0
M  V30 1705 H 166.208 0.491968 -1.50882 0
M  V30 1706 H 166.229 3.1348 -2.15664 0
M  V30 1707 H 165.741 1.82373 -3.42581 0
M  V30 1708 H 163.842 3.3982 -1.52817 0
M  V30 1709 H 163.955 3.36325 -3.41207 0
M  V30 1710 H 162.319 1.8556 -1.7447 0
M  V30 1711 H 163.102 1.11956 -3.24532 0
M  V30 1712 N 165.547 1.27147 0.931209 0
M  V30 1713 C 166.495 1.09398 2.05268 0
M  V30 1714 C 167.489 0.0180591 1.6939 0
M  V30 1715 O 168.695 0.17551 1.79142 0
M  V30 1716 H 165.07 0.336986 0.672268 0
M  V30 1717 H 167.041 2.04416 2.17386 0
M  V30 1718 C 165.79 0.75424 3.39421 0
M  V30 1719 H 165.113 1.57404 3.67511 0
M  V30 1720 H 166.553 0.669903 4.18674 0
M  V30 1721 C 165.012 -0.541197 3.32525 0
M  V30 1722 O 165.542 -1.57664 3.69466 0
M  V30 1723 N 163.748 -0.535517 2.85623 0
M  V30 1724 H 163.295 0.307511 2.55758 0
M  V30 1725 H 163.253 -1.40236 2.81392 0
M  V30 1726 N 167.025 -1.13721 1.09112 0
M  V30 1727 C 168.253 -1.88773 0.846899 0
M  V30 1728 C 168.668 -1.7896 -0.601572 0
M  V30 1729 O 168.025 -1.15394 -1.41388 0
M  V30 1730 C 168.076 -3.3849 1.26913 0
M  V30 1731 O 167.797 -3.48043 2.66079 0
M  V30 1732 C 169.298 -4.30518 1.05682 0
M  V30 1733 H 166.518 -0.59772 0.304914 0
M  V30 1734 H 169.062 -1.43977 1.45227 0
M  V30 1735 H 167.217 -3.80881 0.707723 0
M  V30 1736 H 167.631 -4.4109 2.83795 0
M  V30 1737 H 169.105 -5.3391 1.40156 0
M  V30 1738 H 169.582 -4.392 -0.00563416 0
M  V30 1739 H 170.188 -3.93893 1.60402 0
M  V30 1740 N 168.503 -0.877838 -1.30888 0
M  V30 1741 C 169.451 -0.328662 -2.30266 0
M  V30 1742 C 170.445 0.560496 -1.59859 0
M  V30 1743 O 171.651 0.445722 -1.74394 0
M  V30 1744 H 168.026 -0.0876142 -0.746879 0
M  V30 1745 H 169.997 -1.18061 -2.74051 0
M  V30 1746 C 168.746 0.448071 -3.44801 0
M  V30 1747 H 168.069 -0.226859 -3.99156 0
M  V30 1748 H 169.509 0.797541 -4.16432 0
M  V30 1749 C 167.968 1.64239 -2.94155 0
M  V30 1750 O 168.498 2.74175 -2.93583 0
M  V30 1751 N 166.704 1.47716 -2.50256 0
M  V30 1752 H 166.251 0.582821 -2.5092 0
M  V30 1753 H 166.209 2.27765 -2.16727 0
M  V30 1754 N 169.982 1.44106 -0.638065 0
M  V30 1755 C 171.207 2.0685 -0.150916 0
M  V30 1756 C 171.632 1.47417 1.16833 0
M  V30 1757 O 170.99 0.578264 1.71831 0
M  V30 1758 C 171.038 3.60555 -0.05708 0
M  V30 1759 O 170.142 4.00465 0.984972 0
M  V30 1760 H 169.483 0.658151 -0.0879399 0
M  V30 1761 H 172.013 1.84865 -0.876707 0
M  V30 1762 H 172.023 4.07789 0.131232 0
M  V30 1763 H 170.698 4.03193 -1.02021 0
M  V30 1764 H 169.275 3.64849 0.770672 0
M  V30 1765 N 171.46 0.379036 1.52974 0
M  V30 1766 C 172.685 -0.209353 2.06341 0
M  V30 1767 C 173.11 -1.40583 1.24972 0
M  V30 1768 O 172.468 -1.79246 0.272155 0
M  V30 1769 C 172.516 -0.567786 3.56102 0
M  V30 1770 O 171.62 -1.66318 3.77375 0
M  V30 1771 H 170.961 -0.0272919 0.663439 0
M  V30 1772 H 173.491 0.543536 1.97248 0
M  V30 1773 H 173.501 -0.835003 3.99364 0
M  V30 1774 H 172.176 0.307013 4.14765 0
M  V30 1775 H 170.753 -1.39048 3.46006 0
M  V30 1776 N 172.938 -1.57226 0.108567 0
M  V30 1777 C 173.87 -2.11809 -0.875752 0
M  V30 1778 C 174.883 -1.05839 -1.23701 0
M  V30 1779 O 176.072 -1.33245 -1.18778 0
M  V30 1780 C 173.172 -2.59411 -2.18081 0
M  V30 1781 C 172.345 -3.89364 -1.99284 0
M  V30 1782 C 171.404 -4.22672 -3.13424 0
M  V30 1783 O 170.43 -4.91668 -2.86795 0
M  V30 1784 N 171.632 -3.79154 -4.3957 0
M  V30 1785 H 174.397 -2.9689 -0.409477 0
M  V30 1786 H 171.958 -1.61721 -0.076158 0
M  V30 1787 H 173.95 -2.7873 -2.93414 0
M  V30 1788 H 172.52 -1.79268 -2.5609 0
M  V30 1789 H 171.74 -3.79059 -1.08203 0
M  V30 1790 H 173.028 -4.74358 -1.84017 0
M  V30 1791 H 172.426 -3.23486 -4.64083 0
M  V30 1792 H 170.983 -4.03602 -5.11809 0
M  V30 1793 N 174.416 0.165178 -1.56732 0
M  V30 1794 C 175.663 0.880807 -1.8234 0
M  V30 1795 C 175.991 1.81977 -0.686621 0
M  V30 1796 O 175.246 1.92971 0.325697 0
M  V30 1797 C 175.545 1.70405 -3.1416 0
M  V30 1798 C 175.211 0.913475 -4.4155 0
M  V30 1799 C 173.873 0.695303 -4.7615 0
M  V30 1800 C 176.225 0.359349 -5.1996 0
M  V30 1801 C 173.553 -0.0879947 -5.86634 0
M  V30 1802 C 175.905 -0.410893 -6.31264 0
M  V30 1803 C 174.569 -0.639808 -6.64427 0
M  V30 1804 H 173.839 0.32231 -0.667231 0
M  V30 1805 H 176.486 0.145402 -1.90947 0
M  V30 1806 H 174.791 2.50903 -3.00923 0
M  V30 1807 H 176.488 2.26091 -3.31186 0
M  V30 1808 H 173.078 1.09357 -4.14414 0
M  V30 1809 H 177.262 0.515228 -4.93618 0
M  V30 1810 H 172.518 -0.27503 -6.10781 0
M  V30 1811 H 176.692 -0.847494 -6.91224 0
M  V30 1812 H 174.319 -1.24864 -7.49875 0
M  V30 1813 N 175.894 1.51508 0.433938 0
M  V30 1814 C 177.141 1.64345 1.18309 0
M  V30 1815 C 177.469 0.361315 1.91115 0
M  V30 1816 O 176.724 -0.654753 1.84422 0
M  V30 1817 C 177.023 2.79928 2.22205 0
M  V30 1818 C 176.689 4.19078 1.66387 0
M  V30 1819 C 175.351 4.56932 1.50887 0
M  V30 1820 C 177.703 5.05894 1.25381 0
M  V30 1821 C 175.031 5.79305 0.928608 0
M  V30 1822 C 177.383 6.2885 0.687823 0
M  V30 1823 C 176.047 6.65473 0.519755 0
M  V30 1824 H 175.317 0.601381 0.432923 0
M  V30 1825 H 177.964 1.85549 0.473676 0
M  V30 1826 H 176.269 2.52959 2.99197 0
M  V30 1827 H 177.966 2.87059 2.79997 0
M  V30 1828 H 174.556 3.89234 1.79428 0
M  V30 1829 H 178.74 4.77253 1.36175 0
M  V30 1830 H 173.996 6.06324 0.786186 0
M  V30 1831 H 178.17 6.95461 0.361581 0
M  V30 1832 H 175.797 7.6017 0.0679979 0
M  V30 1833 N 177.372 -0.689602 1.41712 0
M  V30 1834 C 178.621 -1.44534 1.40686 0
M  V30 1835 C 178.934 -1.95588 0.0213352 0
M  V30 1836 O 180.14 -2.71271 -0.111534 0
M  V30 1837 C 178.596 -2.61387 2.47396 0
M  V30 1838 C 178.204 -2.17094 3.91885 0
M  V30 1839 C 179.948 -3.38986 2.55517 0
M  V30 1840 C 177.855 -3.3094 4.90135 0
M  V30 1841 H 176.785 -0.542925 0.52321 0
M  V30 1842 H 179.436 -0.748054 1.6756 0
M  V30 1843 H 177.818 -3.33412 2.13664 0
M  V30 1844 H 178.992 -1.52318 4.34897 0
M  V30 1845 H 177.307 -1.52473 3.8748 0
M  V30 1846 H 179.904 -4.23747 3.26102 0
M  V30 1847 H 180.247 -3.84578 1.59391 0
M  V30 1848 H 180.78 -2.74021 2.8837 0
M  V30 1849 H 177.519 -2.90355 5.87685 0
M  V30 1850 H 177.039 -3.94546 4.51767 0
M  V30 1851 H 178.718 -3.9663 5.11169 0
M  V30 1852 N 178.85 -1.27639 -0.924453 0
M  V30 1853 C 180.078 -1.16989 -1.70649 0
M  V30 1854 C 180.493 0.272869 -1.86818 0
M  V30 1855 O 179.85 1.18549 -1.38753 0
M  V30 1856 C 179.901 -1.85229 -3.10439 0
M  V30 1857 O 179.622 -3.23868 -2.95028 0
M  V30 1858 C 181.123 -1.80746 -4.04779 0
M  V30 1859 H 178.343 -0.406595 -0.53378 0
M  V30 1860 H 180.887 -1.68569 -1.15778 0
M  V30 1861 H 179.042 -1.37545 -3.6216 0
M  V30 1862 H 179.456 -3.57889 -3.83426 0
M  V30 1863 H 180.93 -2.33101 -5.00368 0
M  V30 1864 H 181.407 -0.777499 -4.32263 0
M  V30 1865 H 182.013 -2.28059 -3.58984 0
M  V30 1866 N 180.328 1.1314 -1.09713 0
M  V30 1867 C 181.258 2.20748 -0.761102 0
M  V30 1868 C 182.239 1.68061 0.262566 0
M  V30 1869 O 183.424 1.93765 0.129977 0
M  V30 1870 C 180.554 3.46812 -0.184054 0
M  V30 1871 C 179.508 4.12606 -1.13757 0
M  V30 1872 C 178.834 5.33031 -0.422083 0
M  V30 1873 C 180.134 4.59603 -2.48118 0
M  V30 1874 H 181.828 2.49113 -1.66082 0
M  V30 1875 H 179.374 1.19734 -0.799987 0
M  V30 1876 H 181.327 4.21353 0.0631215 0
M  V30 1877 H 180.051 3.17851 0.750868 0
M  V30 1878 H 178.71 3.40036 -1.37007 0
M  V30 1879 H 178.358 5.00335 0.517072 0
M  V30 1880 H 178.058 5.77999 -1.05788 0
M  V30 1881 H 179.582 6.10325 -0.183277 0
M  V30 1882 H 180.996 5.25552 -2.29059 0
M  V30 1883 H 179.393 5.15321 -3.07514 0
M  V30 1884 H 180.463 3.73971 -3.08665 0
M  V30 1885 N 181.806 0.884767 1.30421 0
M  V30 1886 C 183.052 0.503851 1.96441 0
M  V30 1887 C 183.385 -0.944518 1.69684 0
M  V30 1888 O 182.66 -1.66737 1.00145 0
M  V30 1889 C 182.943 0.779085 3.51571 0
M  V30 1890 C 182.796 2.27807 3.87846 0
M  V30 1891 C 184.115 0.255452 4.39358 0
M  V30 1892 H 181.234 0.184533 0.713524 0
M  V30 1893 H 183.876 1.10872 1.54297 0
M  V30 1894 H 182.026 0.264274 3.876 0
M  V30 1895 H 183.698 2.86127 3.61841 0
M  V30 1896 H 181.941 2.74479 3.35922 0
M  V30 1897 H 182.612 2.42125 4.96064 0
M  V30 1898 H 185.088 0.696079 4.10236 0
M  V30 1899 H 183.964 0.477361 5.4682 0
M  V30 1900 H 184.225 -0.843293 4.33983 0
M  V30 1901 N 183.284 -1.43765 0.645699 0
M  V30 1902 C 184.695 -1.85193 0.236719 0
M  V30 1903 C 185.046 -1.54045 -1.21509 0
M  V30 1904 O 184.171 -0.985694 -1.92647 0
M  V30 1905 C 184.766 -3.36151 0.422845 0
M  V30 1906 C 183.325 -3.76338 0.0682492 0
M  V30 1907 C 182.472 -2.67538 0.729306 0
M  V30 1908 H 185.423 -1.34025 0.849883 0
M  V30 1909 H 185.444 -3.79032 -0.333904 0
M  V30 1910 H 184.956 -3.5879 1.47958 0
M  V30 1911 H 183.057 -3.59312 -0.986179 0
M  V30 1912 H 183.17 -4.76603 0.488469 0
M  V30 1913 H 181.534 -2.54176 0.163235 0
M  V30 1914 H 182.317 -2.93006 1.78892 0
M  V30 1915 N 184.763 -0.387143 -1.52771 0
M  V30 1916 C 186.003 0.195537 -2.03463 0
M  V30 1917 C 186.367 1.44222 -1.26744 0
M  V30 1918 O 187.568 2.10192 -1.67549 0
M  V30 1919 C 185.839 0.459097 -3.54439 0
M  V30 1920 S 187.398 1.01237 -4.26962 0
M  V30 1921 H 184.216 0.0552675 -0.708849 0
M  V30 1922 H 186.818 -0.534992 -1.88037 0
M  V30 1923 H 185.522 -0.455382 -4.07866 0
M  V30 1924 H 185.053 1.21811 -3.74066 0
M  V30 1925 H 187.068 2.29492 -4.39941 0
M  V30 1926 N 186.241 1.57166 -0.116904 0
M  V30 1927 C 187.652 1.82169 0.408809 0
M  V30 1928 C 188.003 1.03393 1.66746 0
M  V30 1929 O 187.128 0.269886 2.1471 0
M  V30 1930 C 187.723 3.30429 0.748466 0
M  V30 1931 C 186.282 3.5612 1.21882 0
M  V30 1932 C 185.429 2.76374 0.226452 0
M  V30 1933 H 188.38 1.5497 -0.342063 0
M  V30 1934 H 188.401 3.44943 1.60607 0
M  V30 1935 H 187.913 3.87737 -0.167784 0
M  V30 1936 H 186.014 3.04168 2.15204 0
M  V30 1937 H 186.127 4.64705 1.16559 0
M  V30 1938 H 184.491 2.44515 0.713063 0
M  V30 1939 H 185.274 3.3644 -0.682859 0
M  V30 1940 N 187.719 -0.156864 1.56817 0
M  V30 1941 C 188.965 -0.867645 1.83966 0
M  V30 1942 C 189.32 -1.79233 0.699511 0
M  V30 1943 O 188.613 -1.89186 -0.303176 0
M  V30 1944 C 188.807 -1.68737 3.1506 0
M  V30 1945 C 188.636 -0.843548 4.41718 0
M  V30 1946 C 187.406 -0.512994 5.02689 0
M  V30 1947 C 189.604 -0.178416 5.1399 0
M  V30 1948 N 187.586 0.345456 6.12927 0
M  V30 1949 C 188.957 0.540586 6.17639 0
M  V30 1950 C 191.012 -0.0980696 4.97803 0
M  V30 1951 C 189.715 1.33233 7.06853 0
M  V30 1952 C 191.741 0.680387 5.87473 0
M  V30 1953 C 191.103 1.3877 6.90596 0
M  V30 1954 H 187.202 -0.295642 0.723961 0
M  V30 1955 H 189.786 -0.13365 1.94241 0
M  V30 1956 H 187.957 -2.39268 3.0595 0
M  V30 1957 H 189.689 -2.34056 3.30151 0
M  V30 1958 H 186.444 -0.846476 4.65974 0
M  V30 1959 H 186.868 0.765415 6.72659 0
M  V30 1960 H 191.51 -0.630562 4.18071 0
M  V30 1961 H 189.228 1.87612 7.8602 0
M  V30 1962 H 192.814 0.744415 5.77018 0
M  V30 1963 H 191.694 1.9804 7.58782 0
M  V30 1964 N 189.197 -1.51736 -0.425897 0
M  V30 1965 C 190.127 -1.76827 -1.52494 0
M  V30 1966 C 191.108 -0.618524 -1.58456 0
M  V30 1967 O 192.293 -0.862416 -1.74 0
M  V30 1968 C 189.423 -1.90374 -2.90474 0
M  V30 1969 C 188.377 -3.0588 -2.99369 0
M  V30 1970 C 187.703 -3.04625 -4.3944 0
M  V30 1971 C 189.003 -4.45644 -2.72394 0
M  V30 1972 H 190.697 -2.68855 -1.31748 0
M  V30 1973 H 188.243 -1.29372 -0.632362 0
M  V30 1974 H 190.196 -2.0651 -3.6733 0
M  V30 1975 H 188.92 -0.95004 -3.12477 0
M  V30 1976 H 187.579 -2.89467 -2.24954 0
M  V30 1977 H 187.227 -2.0701 -4.58428 0
M  V30 1978 H 186.927 -3.82195 -4.46319 0
M  V30 1979 H 188.451 -3.22869 -5.18255 0
M  V30 1980 H 189.865 -4.62348 -3.38979 0
M  V30 1981 H 188.262 -5.25006 -2.9067 0
M  V30 1982 H 189.332 -4.54893 -1.67929 0
M  V30 1983 N 190.675 0.682077 -1.42076 0
M  V30 1984 C 191.952 1.43755 -1.32642 0
M  V30 1985 C 192.332 2.11063 0.0396611 0
M  V30 1986 O 191.68 2.02701 1.05474 0
M  V30 1987 C 191.89 2.44596 -2.48946 0
M  V30 1988 C 193.238 3.09454 -2.9073 0
M  V30 1989 O 194.262 2.54922 -2.48783 0
M  V30 1990 O 193.121 4.08253 -3.63307 0
M  V30 1991 H 190.215 0.640857 -0.522715 0
M  V30 1992 H 192.761 0.711415 -1.54068 0
M  V30 1993 H 191.533 1.93609 -3.40046 0
M  V30 1994 H 191.156 3.24701 -2.29467 0
M  V30 1995 N 192.153 1.28127 0.917671 0
M  V30 1996 C 193.401 1.14825 1.66312 0
M  V30 1997 C 193.722 -0.304379 1.9261 0
M  V30 1998 O 192.992 -1.21149 1.53947 0
M  V30 1999 H 191.572 0.421953 0.616413 0
M  V30 2000 H 194.234 1.608 1.10134 0
M  V30 2001 H 193.33 1.68489 2.62712 0
M  V30 2002 N 193.631 -1.12557 1.10312 0
M  V30 2003 C 194.578 -2.18247 0.750781 0
M  V30 2004 C 195.548 -1.63853 -0.272293 0
M  V30 2005 O 196.733 -1.90195 -0.151862 0
M  V30 2006 C 193.873 -3.44591 0.187379 0
M  V30 2007 C 192.986 -4.13046 1.2656 0
M  V30 2008 C 192.121 -5.27034 0.663978 0
M  V30 2009 C 191.16 -5.87353 1.72287 0
M  V30 2010 N 190.297 -6.92757 1.1416 0
M  V30 2011 H 195.137 -2.47732 1.65628 0
M  V30 2012 H 192.674 -1.21629 0.827337 0
M  V30 2013 H 194.632 -4.16904 -0.157148 0
M  V30 2014 H 193.262 -3.15527 -0.681355 0
M  V30 2015 H 192.314 -3.38924 1.72727 0
M  V30 2016 H 193.626 -4.53947 2.06721 0
M  V30 2017 H 192.78 -6.06104 0.268824 0
M  V30 2018 H 191.519 -4.87407 -0.169082 0
M  V30 2019 H 190.524 -5.06971 2.12746 0
M  V30 2020 H 191.749 -6.29051 2.55875 0
M  V30 2021 H 189.695 -6.5517 0.329984 0
M  V30 2022 H 189.612 -7.3225 1.88007 0
M  V30 2023 H 190.88 -7.75658 0.772956 0
M  V30 2024 N 195.109 -0.891671 -1.2995 0
M  V30 2025 C 196.059 -0.334811 -2.25528 0
M  V30 2026 C 197.043 0.540553 -1.51548 0
M  V30 2027 O 198.235 0.383882 -1.72787 0
M  V30 2028 C 195.364 0.44374 -3.4042 0
M  V30 2029 C 194.45 -0.44609 -4.21747 0
M  V30 2030 N 194.841 -1.54963 -4.81477 0
M  V30 2031 C 193.139 -0.242415 -4.45341 0
M  V30 2032 C 193.84 -2.10015 -5.42465 0
M  V30 2033 N 192.816 -1.39423 -5.25416 0
M  V30 2034 H 196.618 -1.17792 -2.69262 0
M  V30 2035 H 194.132 -0.741822 -1.44467 0
M  V30 2036 H 196.129 0.859362 -4.07947 0
M  V30 2037 H 194.789 1.28421 -2.98225 0
M  V30 2038 H 195.8 -1.93244 -4.80497 0
M  V30 2039 H 192.477 0.560342 -4.13723 0
M  V30 2040 H 193.867 -3.02724 -5.9984 0
M  V30 2041 N 196.587 1.43421 -0.653314 0
M  V30 2042 C 197.833 2.02111 -0.166992 0
M  V30 2043 C 198.166 1.51423 1.21592 0
M  V30 2044 O 197.441 0.707389 1.8118 0
M  V30 2045 C 197.724 3.5966 -0.177948 0
M  V30 2046 C 197.577 4.20579 -1.59478 0
M  V30 2047 C 198.896 4.37413 0.4856 0
M  V30 2048 H 196.015 0.734374 -0.0621557 0
M  V30 2049 H 198.657 1.70717 -0.834016 0
M  V30 2050 H 196.807 3.86537 0.390032 0
M  V30 2051 H 198.479 4.04732 -2.21336 0
M  V30 2052 H 196.722 3.77226 -2.14204 0
M  V30 2053 H 197.393 5.29665 -1.5543 0
M  V30 2054 H 199.869 4.161 0.00234528 0
M  V30 2055 H 198.745 5.47075 0.447207 0
M  V30 2056 H 199.006 4.13672 1.55974 0
M  V30 2057 N 198.065 0.39524 1.52563 0
M  V30 2058 C 199.311 -0.185318 2.01952 0
M  V30 2059 C 199.644 -1.45964 1.28095 0
M  V30 2060 O 198.919 -1.90689 0.38315 0
M  V30 2061 C 199.202 -0.447193 3.57312 0
M  V30 2062 C 199.055 0.842828 4.41833 0
M  V30 2063 C 200.374 -1.23529 4.22408 0
M  V30 2064 H 197.493 -0.0658788 0.73405 0
M  V30 2065 H 200.135 0.525975 1.82575 0
M  V30 2066 H 198.285 -1.05312 3.73954 0
M  V30 2067 H 199.957 1.4795 4.36931 0
M  V30 2068 H 198.2 1.45686 4.08605 0
M  V30 2069 H 198.871 0.614165 5.48573 0
M  V30 2070 H 201.347 -0.722445 4.0978 0
M  V30 2071 H 200.223 -1.38727 5.3108 0
M  V30 2072 H 200.484 -2.25213 3.80436 0
M  V30 2073 N 199.544 -1.57102 0.125237 0
M  V30 2074 C 200.791 -1.95407 -0.531248 0
M  V30 2075 C 201.119 -1.0089 -1.66287 0
M  V30 2076 O 200.374 -0.0339431 -1.95671 0
M  V30 2077 C 200.673 -3.40096 -1.09862 0
M  V30 2078 C 200.339 -4.50815 -0.0876989 0
M  V30 2079 C 199.001 -4.80824 0.19026 0
M  V30 2080 C 201.353 -5.17724 0.600902 0
M  V30 2081 C 198.681 -5.75058 1.163 0
M  V30 2082 C 201.033 -6.13005 1.56231 0
M  V30 2083 C 199.697 -6.41403 1.8482 0
M  V30 2084 H 198.967 -0.715046 -0.194397 0
M  V30 2085 H 201.614 -1.90373 0.207463 0
M  V30 2086 H 199.919 -3.41855 -1.91422 0
M  V30 2087 H 201.616 -3.6705 -1.61478 0
M  V30 2088 H 198.206 -4.27444 -0.314528 0
M  V30 2089 H 202.39 -4.94691 0.399333 0
M  V30 2090 H 197.646 -5.95362 1.39117 0
M  V30 2091 H 201.82 -6.63934 2.10153 0
M  V30 2092 H 199.447 -7.14229 2.60349 0
M  V30 2093 N 201.022 0.148545 -1.56898 0
M  V30 2094 C 202.27 0.859717 -1.82902 0
M  V30 2095 C 202.591 1.81775 -0.70588 0
M  V30 2096 O 201.861 1.93994 0.272586 0
M  V30 2097 H 200.441 0.320469 -0.674766 0
M  V30 2098 H 203.103 0.142918 -1.94375 0
M  V30 2099 H 202.199 1.4229 -2.77777 0
M  V30 2100 N 202.5 1.5196 0.417844 0
M  V30 2101 C 203.447 1.74678 1.50852 0
M  V30 2102 C 204.417 0.588947 1.55308 0
M  V30 2103 O 205.602 0.825544 1.72016 0
M  V30 2104 C 202.742 1.89544 2.88387 0
M  V30 2105 C 201.855 3.17166 2.93309 0
M  V30 2106 C 200.99 3.22513 4.22088 0
M  V30 2107 C 200.029 4.44372 4.20951 0
M  V30 2108 N 199.166 4.47161 5.41287 0
M  V30 2109 H 204.006 2.67768 1.30783 0
M  V30 2110 H 201.543 1.32689 0.63498 0
M  V30 2111 H 203.501 1.96146 3.68216 0
M  V30 2112 H 202.131 0.998424 3.06971 0
M  V30 2113 H 201.183 3.19778 2.06024 0
M  V30 2114 H 202.495 4.07021 2.88332 0
M  V30 2115 H 201.649 3.28139 5.10303 0
M  V30 2116 H 200.388 2.30581 4.29748 0
M  V30 2117 H 199.393 4.38902 3.31127 0
M  V30 2118 H 200.618 5.3759 4.14938 0
M  V30 2119 H 198.564 3.58108 5.49632 0
M  V30 2120 H 198.481 5.3085 5.3827 0
M  V30 2121 H 199.749 4.57005 6.3148 0
M  V30 2122 N 203.978 -0.674533 1.42435 0
M  V30 2123 C 205.224 -1.43671 1.43131 0
M  V30 2124 C 205.557 -1.94142 0.0476021 0
M  V30 2125 O 204.832 -1.70924 -0.928188 0
M  V30 2126 C 205.115 -2.63355 2.45594 0
M  V30 2127 C 204.968 -2.18514 3.93156 0
M  V30 2128 C 206.287 -3.65571 2.45043 0
M  V30 2129 H 203.406 -0.521077 0.521198 0
M  V30 2130 H 206.048 -0.766551 1.7385 0
M  V30 2131 H 204.198 -3.2053 2.19528 0
M  V30 2132 H 205.87 -1.66504 4.30202 0
M  V30 2133 H 204.113 -1.50086 4.07009 0
M  V30 2134 H 204.784 -3.04484 4.60428 0
M  V30 2135 H 207.26 -3.18113 2.68223 0
M  V30 2136 H 206.136 -4.46893 3.18713 0
M  V30 2137 H 206.397 -4.16716 1.47649 0
M  V30 2138 N 205.456 -1.28612 -0.910864 0
M  V30 2139 C 206.705 -1.15311 -1.65488 0
M  V30 2140 C 207.018 0.296999 -1.93332 0
M  V30 2141 O 208.224 0.551168 -2.65847 0
M  V30 2142 C 206.68 -2.01599 -2.98137 0
M  V30 2143 C 206.288 -3.51367 -2.7793 0
M  V30 2144 C 208.032 -1.96993 -3.76024 0
M  V30 2145 C 205.939 -4.29797 -4.06237 0
M  V30 2146 H 204.869 -0.42796 -0.620779 0
M  V30 2147 H 207.52 -1.53166 -1.01057 0
M  V30 2148 H 205.902 -1.56603 -3.63719 0
M  V30 2149 H 207.076 -4.0434 -2.21011 0
M  V30 2150 H 205.391 -3.57529 -2.13452 0
M  V30 2151 H 207.988 -2.52856 -4.71135 0
M  V30 2152 H 208.331 -0.94733 -4.05378 0
M  V30 2153 H 208.864 -2.39973 -3.17266 0
M  V30 2154 H 205.603 -5.32648 -3.82055 0
M  V30 2155 H 205.123 -3.81596 -4.62757 0
M  V30 2156 H 206.802 -4.39869 -4.74473 0
M  V30 2157 N 206.934 1.1197 -1.10907 0
M  V30 2158 C 207.844 2.21433 -0.774896 0
M  V30 2159 C 208.86 1.72478 0.229657 0
M  V30 2160 O 210.036 2.01288 0.0672008 0
M  V30 2161 C 207.101 3.4602 -0.216986 0
M  V30 2162 C 206.162 4.09791 -1.27944 0
M  V30 2163 C 205.395 5.28431 -0.748055 0
M  V30 2164 O 205.618 5.68823 0.423833 0
M  V30 2165 O 204.552 5.82644 -1.51027 0
M  V30 2166 H 208.378 2.5242 -1.68873 0
M  V30 2167 H 205.963 1.20399 -0.884555 0
M  V30 2168 H 207.845 4.21304 0.090059 0
M  V30 2169 H 206.52 3.16698 0.669633 0
M  V30 2170 H 205.427 3.36265 -1.63941 0
M  V30 2171 H 206.76 4.4328 -2.13925 0
M  V30 2172 N 208.412 0.89855 1.29475 0
M  V30 2173 C 209.66 0.522847 1.9522 0
M  V30 2174 C 209.981 -0.93371 1.71192 0
M  V30 2175 O 209.251 -1.65823 1.04305 0
M  V30 2176 H 207.831 0.190366 0.722336 0
M  V30 2177 H 210.493 1.14459 1.5775 0
M  V30 2178 H 209.589 0.704476 3.04045 0
M  V30 2179 N 209.89 -1.43072 0.660911 0
M  V30 2180 C 210.823 -2.28074 -0.0758862 0
M  V30 2181 C 211.801 -1.40271 -0.822362 0
M  V30 2182 O 212.985 -1.69713 -0.820352 0
M  V30 2183 C 210.112 -3.19843 -1.11437 0
M  V30 2184 C 209.158 -4.23957 -0.465069 0
M  V30 2185 S 209.991 -5.29978 0.767078 0
M  V30 2186 C 211.147 -6.25314 -0.270682 0
M  V30 2187 H 211.38 -2.90216 0.645139 0
M  V30 2188 H 208.913 -1.47697 0.449995 0
M  V30 2189 H 210.871 -3.73257 -1.70849 0
M  V30 2190 H 209.532 -2.56863 -1.80776 0
M  V30 2191 H 208.725 -4.88299 -1.24819 0
M  V30 2192 H 208.327 -3.73959 0.0551242 0
M  V30 2193 H 210.619 -6.67932 -1.13459 0
M  V30 2194 H 211.562 -7.07293 0.337916 0
M  V30 2195 H 211.97 -5.61195 -0.609937 0
M  V30 2196 N 211.368 -0.403325 -1.52352 0
M  V30 2197 C 212.316 0.439752 -2.28405 0
M  V30 2198 C 213.31 1.05089 -1.32863 0
M  V30 2199 O 214.516 0.989759 -1.50345 0
M  V30 2200 H 210.891 0.160587 -0.734653 0
M  V30 2201 H 212.862 -0.222983 -2.97566 0
M  V30 2202 C 211.611 1.54736 -3.11371 0
M  V30 2203 H 210.934 1.08643 -3.84755 0
M  V30 2204 H 212.374 2.1112 -3.67701 0
M  V30 2205 C 210.833 2.51141 -2.24566 0
M  V30 2206 O 211.363 3.54887 -1.88196 0
M  V30 2207 N 209.569 2.21213 -1.8845 0
M  V30 2208 H 209.116 1.36878 -2.18225 0
M  V30 2209 H 209.074 2.85963 -1.30662 0
M  V30 2210 N 212.846 1.57033 -0.133567 0
M  V30 2211 C 214.092 1.95976 0.521649 0
M  V30 2212 C 214.425 1.01779 1.65393 0
M  V30 2213 O 213.7 0.0576581 1.94415 0
M  V30 2214 C 213.983 3.44738 1.04057 0
M  V30 2215 C 213.836 4.49711 -0.0892897 0
M  V30 2216 C 215.155 3.95682 1.92675 0
M  V30 2217 H 212.274 0.712579 0.188149 0
M  V30 2218 H 214.916 1.88813 -0.212076 0
M  V30 2219 H 213.066 3.50973 1.66583 0
M  V30 2220 H 214.738 4.55565 -0.725152 0
M  V30 2221 H 212.981 4.27261 -0.750378 0
M  V30 2222 H 213.652 5.51099 0.315284 0
M  V30 2223 H 216.128 3.91841 1.39998 0
M  V30 2224 H 215.004 5.00262 2.25897 0
M  V30 2225 H 215.265 3.37239 2.85872 0
M  V30 2226 N 214.325 -0.140222 1.56975 0
M  V30 2227 C 215.571 -0.852949 1.83991 0
M  V30 2228 C 215.904 -1.80512 0.716187 0
M  V30 2229 O 215.179 -1.92479 -0.279681 0
M  V30 2230 C 215.462 -1.6215 3.21527 0
M  V30 2231 C 215.315 -0.690363 4.4447 0
M  V30 2232 C 216.634 -2.58247 3.56366 0
M  V30 2233 H 213.753 -0.308634 0.669264 0
M  V30 2234 H 216.395 -0.117898 1.89634 0
M  V30 2235 H 214.545 -2.24812 3.16847 0
M  V30 2236 H 216.217 -0.0742264 4.6124 0
M  V30 2237 H 214.46 -0.000396433 4.338 0
M  V30 2238 H 215.131 -1.2643 5.37326 0
M  V30 2239 H 217.607 -2.05701 3.61699 0
M  V30 2240 H 216.483 -3.09067 4.53617 0
M  V30 2241 H 216.744 -3.39923 2.82674 0
M  V30 2242 N 215.803 -1.52179 -0.40978 0
M  V30 2243 C 217.219 -1.40968 -0.74835 0
M  V30 2244 C 217.419 -0.513657 -1.94843 0
M  V30 2245 O 216.475 0.0208026 -2.52491 0
M  V30 2246 C 217.788 -2.83483 -1.0029 0
M  V30 2247 C 219.336 -2.92821 -1.10565 0
M  V30 2248 C 219.811 -4.36303 -1.39296 0
M  V30 2249 N 221.302 -4.39535 -1.46162 0
M  V30 2250 C 222.037 -5.47614 -1.70018 0
M  V30 2251 N 221.533 -6.65812 -1.91483 0
M  V30 2252 N 223.326 -5.35129 -1.72027 0
M  V30 2253 H 215.477 -2.0897 0.380186 0
M  V30 2254 H 217.74 -0.94185 0.107805 0
M  V30 2255 H 217.446 -3.51168 -0.193461 0
M  V30 2256 H 217.32 -3.24487 -1.92323 0
M  V30 2257 H 219.707 -2.25318 -1.90568 0
M  V30 2258 H 219.788 -2.55276 -0.16369 0
M  V30 2259 H 219.432 -5.04366 -0.598109 0
M  V30 2260 H 219.362 -4.71385 -2.34743 0
M  V30 2261 H 221.853 -3.54332 -1.31367 0
M  V30 2262 H 222.166 -7.43964 -2.09134 0
M  V30 2263 H 220.511 -6.68879 -1.88749 0
M  V30 2264 H 223.702 -4.41764 -1.54796 0
M  V30 2265 H 223.875 -6.19433 -1.9028 0
M  V30 2266 N 217.281 0.66697 -1.42791 0
M  V30 2267 C 218.191 1.80962 -1.49299 0
M  V30 2268 C 219.207 1.69775 -0.381108 0
M  V30 2269 O 220.383 1.91188 -0.633188 0
M  V30 2270 C 217.448 3.17156 -1.40045 0
M  V30 2271 C 216.509 3.40242 -2.6179 0
M  V30 2272 C 215.742 4.69939 -2.52969 0
M  V30 2273 O 215.965 5.48372 -1.56985 0
M  V30 2274 O 214.899 4.94441 -3.43237 0
M  V30 2275 H 218.725 1.78427 -2.45759 0
M  V30 2276 H 216.31 0.823713 -1.24641 0
M  V30 2277 H 218.192 3.98413 -1.37276 0
M  V30 2278 H 216.867 3.20312 -0.467138 0
M  V30 2279 H 215.774 2.58802 -2.70134 0
M  V30 2280 H 217.107 3.41923 -3.54047 0
M  V30 2281 N 218.759 1.29093 0.90403 0
M  V30 2282 C 219.692 1.08176 2.00931 0
M  V30 2283 C 220.67 -0.005083 1.62599 0
M  V30 2284 O 221.854 0.144765 1.87943 0
M  V30 2285 C 218.981 0.645897 3.32484 0
M  V30 2286 C 218.027 1.73081 3.89801 0
M  V30 2287 S 218.86 3.32905 4.19446 0
M  V30 2288 C 220.016 2.91176 5.54046 0
M  V30 2289 H 220.249 2.01752 2.18365 0
M  V30 2290 H 217.782 1.13191 1.0501 0
M  V30 2291 H 219.74 0.401131 4.08535 0
M  V30 2292 H 218.401 -0.270188 3.12936 0
M  V30 2293 H 217.594 1.37768 4.84805 0
M  V30 2294 H 217.196 1.92888 3.20422 0
M  V30 2295 H 219.488 2.37952 6.34338 0
M  V30 2296 H 220.431 3.85014 5.94281 0
M  V30 2297 H 220.839 2.296 5.15698 0
M  V30 2298 N 220.237 -1.11381 1.11499 0
M  V30 2299 C 221.147 -2.21019 0.786628 0
M  V30 2300 C 222.163 -1.72597 -0.220507 0
M  V30 2301 O 223.339 -2.01321 -0.0565251 0
M  V30 2302 C 220.404 -3.459 0.235333 0
M  V30 2303 C 219.465 -4.09107 1.30115 0
M  V30 2304 C 218.698 -5.28027 0.776068 0
M  V30 2305 O 218.921 -5.6904 -0.393661 0
M  V30 2306 O 217.855 -5.81835 1.54114 0
M  V30 2307 H 221.681 -2.51521 1.70209 0
M  V30 2308 H 219.266 -1.19928 0.890928 0
M  V30 2309 H 221.148 -4.21346 -0.067715 0
M  V30 2310 H 219.823 -3.17049 -0.652828 0
M  V30 2311 H 218.73 -3.35391 1.65722 0
M  V30 2312 H 220.063 -4.42139 2.16273 0
M  V30 2313 N 221.715 -0.905404 -1.28997 0
M  V30 2314 C 222.662 -0.385892 -2.27551 0
M  V30 2315 C 223.632 0.535113 -1.57244 0
M  V30 2316 O 224.817 0.459119 -1.85194 0
M  V30 2317 C 221.957 0.375461 -3.43051 0
M  V30 2318 C 221.07 -0.577092 -4.28128 0
M  V30 2319 C 220.205 0.201879 -5.30816 0
M  V30 2320 C 219.244 -0.744829 -6.07551 0
M  V30 2321 N 218.381 9.42587e-05 -7.021 0
M  V30 2322 H 223.221 -1.23139 -2.71368 0
M  V30 2323 H 220.758 -0.618542 -1.33463 0
M  V30 2324 H 222.716 0.832992 -4.088 0
M  V30 2325 H 221.346 1.18537 -3.00248 0
M  V30 2326 H 220.398 -1.15315 -3.62501 0
M  V30 2327 H 221.71 -1.30152 -4.8152 0
M  V30 2328 H 220.864 0.720351 -6.02408 0
M  V30 2329 H 219.603 0.959413 -4.7817 0
M  V30 2330 H 218.608 -1.27475 -5.34818 0
M  V30 2331 H 219.833 -1.50178 -6.62286 0
M  V30 2332 H 217.779 0.739791 -6.51815 0
M  V30 2333 H 217.696 -0.664321 -7.53076 0
M  V30 2334 H 218.964 0.498644 -7.77903 0
M  V30 2335 N 223.193 1.4272 -0.668489 0
M  V30 2336 C 224.103 2.34596 0.0139753 0
M  V30 2337 C 225.119 1.5474 0.795703 0
M  V30 2338 O 226.295 1.87334 0.739466 0
M  V30 2339 C 223.36 3.33202 0.957982 0
M  V30 2340 C 222.421 4.28957 0.17149 0
M  V30 2341 C 221.654 5.22853 1.07053 0
M  V30 2342 O 221.877 5.21531 2.31001 0
M  V30 2343 O 220.811 5.9952 0.534727 0
M  V30 2344 H 224.637 2.9448 -0.742661 0
M  V30 2345 H 222.222 1.43117 -0.428705 0
M  V30 2346 H 224.104 3.93796 1.50008 0
M  V30 2347 H 222.779 2.758 1.69458 0
M  V30 2348 H 221.686 3.71796 -0.414558 0
M  V30 2349 H 223.019 4.89383 -0.52586 0
M  V30 2350 N 224.671 0.411399 1.52136 0
M  V30 2351 C 225.919 -0.163322 2.01439 0
M  V30 2352 C 226.24 -1.45453 1.29879 0
M  V30 2353 O 225.51 -1.91225 0.4254 0
M  V30 2354 H 224.09 -0.0633447 0.744309 0
M  V30 2355 H 226.752 0.548161 1.87033 0
M  V30 2356 H 225.848 -0.357817 3.10042 0
M  V30 2357 N 226.149 -1.5696 0.141893 0
M  V30 2358 C 227.112 -2.15316 -0.785587 0
M  V30 2359 C 228.112 -1.09366 -1.1788 0
M  V30 2360 O 229.302 -1.35031 -1.10056 0
M  V30 2361 C 226.434 -2.71211 -2.06537 0
M  V30 2362 H 227.627 -2.98608 -0.278041 0
M  V30 2363 H 225.18 -1.5593 -0.107519 0
M  V30 2364 H 225.915 -1.91571 -2.6167 0
M  V30 2365 H 225.7 -3.4872 -1.79268 0
M  V30 2366 H 227.19 -3.16189 -2.72789 0
M  V30 2367 N 227.627 0.131896 -1.57047 0
M  V30 2368 C 228.574 1.16236 -1.99393 0
M  V30 2369 C 229.544 1.41863 -0.863943 0
M  V30 2370 O 230.729 1.53946 -1.12718 0
M  V30 2371 C 227.869 2.48708 -2.39245 0
M  V30 2372 C 226.982 2.30127 -3.65603 0
M  V30 2373 C 226.117 3.55738 -3.94492 0
M  V30 2374 C 225.156 3.32259 -5.14073 0
M  V30 2375 N 224.293 4.50039 -5.38896 0
M  V30 2376 H 229.133 0.794251 -2.87221 0
M  V30 2377 H 226.67 0.380707 -1.42088 0
M  V30 2378 H 228.628 3.25969 -2.60384 0
M  V30 2379 H 227.258 2.83437 -1.54478 0
M  V30 2380 H 226.31 1.43845 -3.52154 0
M  V30 2381 H 227.622 2.08746 -4.5302 0
M  V30 2382 H 226.776 4.41423 -4.1621 0
M  V30 2383 H 225.515 3.80138 -3.05526 0
M  V30 2384 H 224.52 2.44963 -4.92212 0
M  V30 2385 H 225.745 3.09242 -6.04604 0
M  V30 2386 H 223.691 4.74584 -4.52886 0
M  V30 2387 H 223.608 4.31716 -6.2061 0
M  V30 2388 H 224.876 5.36895 -5.65123 0
M  V30 2389 N 229.106 1.52395 0.401703 0
M  V30 2390 C 230.331 1.70972 1.17403 0
M  V30 2391 C 230.756 0.421615 1.83314 0
M  V30 2392 O 230.114 -0.621564 1.70312 0
M  V30 2393 C 230.162 2.85151 2.20728 0
M  V30 2394 O 229.266 2.51238 3.27037 0
M  V30 2395 H 228.607 0.568927 0.342372 0
M  V30 2396 H 231.137 1.99131 0.469891 0
M  V30 2397 H 231.147 3.10279 2.64936 0
M  V30 2398 H 229.822 3.78603 1.7214 0
M  V30 2399 H 228.399 2.36808 2.88057 0
M  V30 2400 N 230.584 -0.659388 1.43143 0
M  V30 2401 C 231.832 -1.41654 1.44147 0
M  V30 2402 C 232.153 -1.94893 0.0645739 0
M  V30 2403 O 231.423 -1.74044 -0.899198 0
M  V30 2404 H 230.003 -0.525708 0.530697 0
M  V30 2405 H 232.665 -0.778097 1.78694 0
M  V30 2406 H 231.761 -2.26195 2.1504 0
M  V30 2407 N 232.062 -1.29571 -0.897171 0
M  V30 2408 C 233.292 -1.20408 -1.67886 0
M  V30 2409 C 233.7 0.237429 -1.87704 0
M  V30 2410 O 233.043 1.17048 -1.41582 0
M  V30 2411 C 233.105 -1.84887 -3.08314 0
M  V30 2412 C 232.769 -3.34189 -3.11716 0
M  V30 2413 C 233.766 -4.30374 -2.91675 0
M  V30 2414 C 231.451 -3.75431 -3.33701 0
M  V30 2415 C 233.445 -5.65776 -2.93557 0
M  V30 2416 C 231.132 -5.10955 -3.35214 0
M  V30 2417 C 232.13 -6.05938 -3.15164 0
M  V30 2418 O 231.818 -7.38987 -3.1647 0
M  V30 2419 H 231.55 -0.418289 -0.531046 0
M  V30 2420 H 234.104 -1.71514 -1.13014 0
M  V30 2421 H 232.334 -1.28295 -3.64798 0
M  V30 2422 H 234.023 -1.70011 -3.6858 0
M  V30 2423 H 234.789 -3.99844 -2.74499 0
M  V30 2424 H 230.668 -3.01953 -3.48347 0
M  V30 2425 H 234.212 -6.39889 -2.77826 0
M  V30 2426 H 230.109 -5.4113 -3.51922 0
M  V30 2427 H 230.877 -7.47823 -3.3272 0
M  V30 2428 N 233.54 1.10788 -1.12088 0
M  V30 2429 C 234.786 1.82942 -0.875226 0
M  V30 2430 C 235.119 1.84779 0.597538 0
M  V30 2431 O 234.394 1.30578 1.44152 0
M  V30 2432 C 234.677 3.29789 -1.44606 0
M  V30 2433 C 234.53 3.36307 -2.98693 0
M  V30 2434 C 235.849 4.26064 -1.10261 0
M  V30 2435 H 232.968 0.664195 -0.319397 0
M  V30 2436 H 235.61 1.29867 -1.38689 0
M  V30 2437 H 233.76 3.75118 -1.01089 0
M  V30 2438 H 235.432 2.99487 -3.50864 0
M  V30 2439 H 233.675 2.76318 -3.34411 0
M  V30 2440 H 234.346 4.39694 -3.33726 0
M  V30 2441 H 236.822 3.88951 -1.4784 0
M  V30 2442 H 235.698 5.27183 -1.52869 0
M  V30 2443 H 235.959 4.42098 -0.0142953 0
M  V30 2444 N 235.018 0.912232 1.28515 0
M  V30 2445 C 235.965 0.397954 2.27343 0
M  V30 2446 C 236.935 -0.526766 1.57526 0
M  V30 2447 O 238.12 -0.449292 1.85435 0
M  V30 2448 C 235.26 -0.357263 3.43246 0
M  V30 2449 C 234.373 0.599788 4.27816 0
M  V30 2450 C 233.508 -0.173725 5.30916 0
M  V30 2451 C 232.547 0.777039 6.07148 0
M  V30 2452 N 231.684 0.0371398 7.0209 0
M  V30 2453 H 236.524 1.24577 2.70711 0
M  V30 2454 H 234.061 0.625612 1.33133 0
M  V30 2455 H 236.019 -0.8113 4.09236 0
M  V30 2456 H 234.649 -1.16943 3.00872 0
M  V30 2457 H 233.701 1.17235 3.61884 0
M  V30 2458 H 235.013 1.32704 4.80823 0
M  V30 2459 H 234.167 -0.688394 6.02782 0
M  V30 2460 H 232.906 -0.934041 4.78672 0
M  V30 2461 H 231.911 1.3031 5.34134 0
M  V30 2462 H 233.136 1.53689 6.61481 0
M  V30 2463 H 231.082 -0.705213 6.52198 0
M  V30 2464 H 230.999 0.704249 7.52713 0
M  V30 2465 H 232.267 -0.457383 7.78157 0
M  V30 2466 N 236.496 -1.42363 0.676048 0
M  V30 2467 C 237.912 -1.55811 0.345718 0
M  V30 2468 C 238.112 -1.65544 -1.14879 0
M  V30 2469 O 237.168 -1.62306 -1.93424 0
M  V30 2470 C 238.481 -2.80746 1.07713 0
M  V30 2471 C 240.029 -2.9452 1.05958 0
M  V30 2472 C 240.504 -4.22318 1.77233 0
M  V30 2473 N 241.995 -4.29233 1.74108 0
M  V30 2474 C 242.73 -5.26935 2.26113 0
M  V30 2475 N 242.226 -6.30783 2.86505 0
M  V30 2476 N 244.019 -5.18741 2.1648 0
M  V30 2477 H 236.17 -1.34289 1.6456 0
M  V30 2478 H 238.433 -0.646506 0.69335 0
M  V30 2479 H 238.139 -2.79696 2.13221 0
M  V30 2480 H 238.013 -3.71676 0.64316 0
M  V30 2481 H 240.4 -2.95097 0.0128255 0
M  V30 2482 H 240.481 -2.04817 1.53244 0
M  V30 2483 H 240.125 -4.22502 2.81877 0
M  V30 2484 H 240.055 -5.10958 1.27396 0
M  V30 2485 H 242.546 -3.54814 1.30059 0
M  V30 2486 H 242.859 -7.01691 3.23805 0
M  V30 2487 H 241.204 -6.31341 2.90575 0
M  V30 2488 H 244.395 -4.36533 1.68987 0
M  V30 2489 H 244.568 -5.94721 2.57316 0
M  V30 2490 N 237.974 -0.419461 -1.51915 0
M  V30 2491 C 239.199 0.154572 -2.06823 0
M  V30 2492 C 239.624 1.3722 -1.28656 0
M  V30 2493 O 238.982 1.78461 -0.319583 0
M  V30 2494 C 239.03 0.473172 -3.57482 0
M  V30 2495 O 238.134 1.56255 -3.81652 0
M  V30 2496 H 237.475 0.0096924 -0.663929 0
M  V30 2497 H 240.005 -0.595642 -1.95738 0
M  V30 2498 H 240.015 0.728825 -4.01438 0
M  V30 2499 H 238.69 -0.416873 -4.13805 0
M  V30 2500 H 237.267 1.29825 -3.49571 0
M  V30 2501 N 239.452 1.56882 -0.150215 0
M  V30 2502 C 240.698 1.96518 0.500834 0
M  V30 2503 C 241.031 1.03527 1.64304 0
M  V30 2504 O 240.306 0.0782751 1.94342 0
M  V30 2505 C 240.589 3.45822 1.00395 0
M  V30 2506 C 240.442 4.49591 -0.136983 0
M  V30 2507 C 241.761 3.97704 1.88467 0
M  V30 2508 H 238.88 0.714535 0.18058 0
M  V30 2509 H 241.522 1.88577 -0.232091 0
M  V30 2510 H 239.672 3.5272 1.62851 0
M  V30 2511 H 241.344 4.5477 -0.77343 0
M  V30 2512 H 239.587 4.26441 -0.795652 0
M  V30 2513 H 240.258 5.51402 0.256815 0
M  V30 2514 H 242.734 3.93304 1.35834 0
M  V30 2515 H 241.61 5.0263 2.20578 0
M  V30 2516 H 241.871 3.40252 2.82279 0
M  V30 2517 N 240.93 -0.123565 1.57115 0
M  V30 2518 C 242.176 -0.833386 1.84885 0
M  V30 2519 C 242.509 -1.79742 0.735292 0
M  V30 2520 O 241.784 -1.92764 -0.25925 0
M  V30 2521 C 242.067 -1.5873 3.23228 0
M  V30 2522 C 241.92 -0.643183 4.45178 0
M  V30 2523 C 243.239 -2.54453 3.59085 0
M  V30 2524 H 240.358 -0.301518 0.6725 0
M  V30 2525 H 243 -0.097778 1.89748 0
M  V30 2526 H 241.15 -2.21438 3.19214 0
M  V30 2527 H 242.822 -0.0253015 4.61293 0
M  V30 2528 H 241.065 0.0456139 4.33776 0
M  V30 2529 H 241.736 -1.20724 5.38637 0
M  V30 2530 H 244.212 -2.01853 3.63861 0
M  V30 2531 H 243.088 -3.04238 4.5687 0
M  V30 2532 H 243.349 -3.36906 2.86264 0
M  V30 2533 N 242.408 -1.52605 -0.393616 0
M  V30 2534 C 243.657 -1.66649 -1.13627 0
M  V30 2535 C 243.97 -0.410364 -1.91247 0
M  V30 2536 O 245.176 -0.430854 -2.68059 0
M  V30 2537 C 243.632 -2.9449 -2.06891 0
M  V30 2538 C 243.24 -4.27266 -1.34714 0
M  V30 2539 C 244.984 -3.17899 -2.81319 0
M  V30 2540 C 242.891 -5.46217 -2.26717 0
M  V30 2541 H 241.821 -0.62084 -0.427871 0
M  V30 2542 H 244.472 -1.791 -0.399428 0
M  V30 2543 H 242.854 -2.75774 -2.84191 0
M  V30 2544 H 244.028 -4.56518 -0.626714 0
M  V30 2545 H 242.343 -4.10081 -0.722643 0
M  V30 2546 H 244.94 -4.03949 -3.50328 0
M  V30 2547 H 245.283 -2.32777 -3.45139 0
M  V30 2548 H 245.816 -3.37159 -2.11113 0
M  V30 2549 H 242.555 -6.33733 -1.67521 0
M  V30 2550 H 242.075 -5.21283 -2.96689 0
M  V30 2551 H 243.754 -5.7991 -2.86903 0
M  V30 2552 N 243.887 0.651787 -1.4349 0
M  V30 2553 C 245.115 1.43937 -1.48626 0
M  V30 2554 C 245.53 1.8851 -0.104587 0
M  V30 2555 O 244.887 1.5958 0.885464 0
M  V30 2556 C 244.938 2.6734 -2.43334 0
M  V30 2557 O 244.659 2.24631 -3.76128 0
M  V30 2558 C 246.16 3.60683 -2.57726 0
M  V30 2559 H 243.38 0.44213 -0.504739 0
M  V30 2560 H 245.924 0.798944 -1.88248 0
M  V30 2561 H 244.079 3.2752 -2.06904 0
M  V30 2562 H 244.493 3.04485 -4.2707 0
M  V30 2563 H 245.967 4.43933 -3.28067 0
M  V30 2564 H 246.444 4.08126 -1.62265 0
M  V30 2565 H 247.05 3.06384 -2.94973 0
M  V30 2566 N 245.365 1.30045 0.890287 0
M  V30 2567 C 246.642 1.09227 1.62262 0
M  V30 2568 C 247.022 -0.360305 2.08002 0
M  V30 2569 O 246.37 -1.35084 1.84295 0
M  V30 2570 C 246.58 2.08835 2.79623 0
M  V30 2571 C 247.928 2.40266 3.50082 0
M  V30 2572 O 248.952 2.07104 2.89804 0
M  V30 2573 O 247.811 2.96967 4.58773 0
M  V30 2574 H 244.905 0.419132 0.712922 0
M  V30 2575 H 247.451 1.41451 0.937529 0
M  V30 2576 H 246.223 3.06633 2.43089 0
M  V30 2577 H 245.846 1.77397 3.55832 0
M  V30 2578 N 246.843 -1.10192 1.12674 0
M  V30 2579 C 248.083 -1.83825 0.893736 0
M  V30 2580 C 248.447 -1.83341 -0.570082 0
M  V30 2581 O 249.648 -2.52553 -0.920354 0
M  V30 2582 C 247.919 -3.26405 1.45582 0
M  V30 2583 S 249.478 -4.17136 1.36171 0
M  V30 2584 H 246.296 -0.633732 0.322342 0
M  V30 2585 H 248.898 -1.32581 1.43675 0
M  V30 2586 H 247.602 -3.24329 2.51473 0
M  V30 2587 H 247.133 -3.82721 0.910405 0
M  V30 2588 H 249.148 -4.95069 0.334863 0
M  V30 2589 N 248.321 -0.919034 -1.28029 0
M  V30 2590 C 249.569 -0.553838 -1.94363 0
M  V30 2591 C 249.89 0.906357 -1.72656 0
M  V30 2592 O 249.16 1.64143 -1.0693 0
M  V30 2593 H 247.74 -0.201834 -0.719216 0
M  V30 2594 H 250.402 -1.16954 -1.55909 0
M  V30 2595 H 249.498 -0.752758 -3.02886 0
M  V30 2596 N 249.799 1.42003 -0.683588 0
M  V30 2597 C 250.709 2.34597 -0.0109075 0
M  V30 2598 C 251.725 1.55576 0.779245 0
M  V30 2599 O 252.901 1.88107 0.719555 0
M  V30 2600 C 249.966 3.34199 0.922588 0
M  V30 2601 C 249.027 4.29115 0.125984 0
M  V30 2602 C 248.26 5.23959 1.01502 0
M  V30 2603 O 248.483 5.23952 2.25456 0
M  V30 2604 O 247.417 6.00053 0.47111 0
M  V30 2605 H 251.243 2.93675 -0.773853 0
M  V30 2606 H 248.828 1.42654 -0.443861 0
M  V30 2607 H 250.71 3.95365 1.45823 0
M  V30 2608 H 249.385 2.77582 1.66523 0
M  V30 2609 H 248.292 3.71335 -0.453969 0
M  V30 2610 H 249.625 4.88798 -0.577736 0
M  V30 2611 N 251.277 0.427512 1.51691 0
M  V30 2612 C 252.207 -0.3796 2.30394 0
M  V30 2613 C 253.188 -1.02982 1.35384 0
M  V30 2614 O 254.373 -1.03534 1.643 0
M  V30 2615 C 251.503 -1.48649 3.1388 0
M  V30 2616 C 250.457 -0.960294 4.17088 0
M  V30 2617 C 249.783 -2.16219 4.89033 0
M  V30 2618 C 251.083 -0.00153679 5.223 0
M  V30 2619 H 252.777 0.277164 2.98114 0
M  V30 2620 H 250.323 0.134739 1.43368 0
M  V30 2621 H 252.276 -2.05826 3.67714 0
M  V30 2622 H 251 -2.1714 2.43962 0
M  V30 2623 H 249.659 -0.410806 3.64291 0
M  V30 2624 H 249.307 -2.83307 4.15628 0
M  V30 2625 H 249.007 -1.81654 5.58816 0
M  V30 2626 H 250.531 -2.73968 5.45687 0
M  V30 2627 H 251.945 -0.482687 5.71264 0
M  V30 2628 H 250.342 0.256199 5.99553 0
M  V30 2629 H 251.412 0.938174 4.75738 0
M  V30 2630 O 252.794 -1.58699 0.299458 0
M  V30 2631 H 253.485 -1.91872 -0.265495 0
M  V30 END ATOM
M  V30 BEGIN BOND
M  V30 END BOND
M  V30 END CTAB
M  END
$$$$
