drugbank_target|Q01814 Plasma membrane calcium-transporting ATPase 2 (DB01159)
 OpenBabel12092121233D

  0  0  0     0  0            999 V3000
M  V30 BEGIN CTAB
M  V30 COUNTS 19329 19498 0 0 0
M  V30 BEGIN ATOM
M  V30 1 H -0.908 1.98254 -0.117106 0
M  V30 2 N 0 1.576 0 0
M  V30 3 C 0.933 2.03868 1.02534 0
M  V30 4 C 1.911 0.928543 1.3348 0
M  V30 5 O 3.095 1.19667 1.45644 0
M  V30 6 C 0.222 2.43627 2.35294 0
M  V30 7 C -0.732 3.65373 2.2001 0
M  V30 8 S 0.101 5.13292 1.52614 0
M  V30 9 C 1.257 5.56322 2.86805 0
M  V30 10 H 1.49 2.90518 0.631377 0
M  V30 11 H -0.977 1.52953 0.210867 0
M  V30 12 H 0.981 2.67203 3.11629 0
M  V30 13 H -0.358 1.57376 2.7183 0
M  V30 14 H -1.165 3.90944 3.18086 0
M  V30 15 H -1.563 3.418 1.51819 0
M  V30 16 H 0.729 5.58782 3.83104 0
M  V30 17 H 1.672 6.56266 2.65933 0
M  V30 18 H 2.08 4.83886 2.90714 0
M  V30 19 N 1.4781 -0.272755 1.55222 0
M  V30 20 C 2.7261 -1.00234 1.75492 0
M  V30 21 C 3.0471 -1.8681 0.5592 0
M  V30 22 O 2.3171 -1.91215 -0.425882 0
M  V30 23 H 0.8971 -0.373076 0.647166 0
M  V30 24 H 3.5591 -0.296926 1.92625 0
M  V30 25 H 2.6551 -1.63913 2.65592 0
M  V30 26 N 2.9562 -1.48159 -0.537278 0
M  V30 27 C 4.2332 -1.46291 -1.29839 0
M  V30 28 C 4.6132 -0.170613 -2.10409 0
M  V30 29 O 3.9612 0.847746 -2.12192 0
M  V30 30 C 4.1712 -2.72055 -2.18603 0
M  V30 31 C 5.5192 -3.20087 -2.7898 0
M  V30 32 O 6.5432 -2.72921 -2.28894 0
M  V30 33 O 5.4022 -4.02138 -3.70064 0
M  V30 34 H 2.4962 -0.583906 -0.585647 0
M  V30 35 H 5.0422 -1.60384 -0.554534 0
M  V30 36 H 3.8142 -3.57628 -1.58801 0
M  V30 37 H 3.4372 -2.60646 -3.00249 0
M  V30 38 N 4.4343 0.785586 -1.36625 0
M  V30 39 C 5.3673 1.90509 -1.25625 0
M  V30 40 C 6.3453 1.62 -0.139607 0
M  V30 41 O 7.5293 1.8591 -0.31141 0
M  V30 42 C 4.6563 3.25419 -0.939158 0
M  V30 43 C 3.7023 3.72856 -2.07077 0
M  V30 44 S 4.5353 3.88162 -3.68904 0
M  V30 45 C 5.6913 5.25942 -3.39317 0
M  V30 46 H 5.9243 1.99549 -2.20381 0
M  V30 47 H 3.4573 0.945226 -1.22085 0
M  V30 48 H 5.4153 4.03346 -0.763029 0
M  V30 49 H 4.0763 3.14099 -0.00931402 0
M  V30 50 H 3.2693 4.70624 -1.80357 0
M  V30 51 H 2.8713 3.01989 -2.20632 0
M  V30 52 H 5.1633 6.10651 -2.93447 0
M  V30 53 H 6.1063 5.57668 -4.36363 0
M  V30 54 H 6.5143 4.93224 -2.74573 0
M  V30 55 N 5.9124 1.20967 1.01018 0
M  V30 56 C 7.1404 1.04956 1.78303 0
M  V30 57 C 7.5554 -0.400915 1.84494 0
M  V30 58 O 6.9124 -1.27826 1.30257 0
M  V30 59 C 6.9634 1.63403 3.22462 0
M  V30 60 O 6.6844 3.02775 3.16637 0
M  V30 61 C 8.1854 1.52432 4.16268 0
M  V30 62 H 5.4054 0.368858 0.560522 0
M  V30 63 H 7.9494 1.60193 1.27116 0
M  V30 64 H 6.1044 1.1227 3.70775 0
M  V30 65 H 6.5184 3.30626 4.07169 0
M  V30 66 H 7.9924 1.98078 5.15237 0
M  V30 67 H 8.4694 0.477875 4.36592 0
M  V30 68 H 9.0754 2.02787 3.73841 0
M  V30 69 N 7.3905 -1.2043 1.01659 0
M  V30 70 C 8.3385 -2.25249 0.580143 0
M  V30 71 C 9.3325 -1.65057 -0.381115 0
M  V30 72 O 10.5385 -1.78241 -0.251039 0
M  V30 73 H 6.9135 -0.732695 0.169299 0
M  V30 74 H 8.8845 -2.59389 1.47512 0
M  V30 75 C 7.6335 -3.47638 -0.065788 0
M  V30 76 H 6.9565 -3.94233 0.664874 0
M  V30 77 H 8.3965 -4.2268 -0.334282 0
M  V30 78 C 6.8555 -3.10447 -1.3086 0
M  V30 79 O 7.3855 -3.21981 -2.4019 0
M  V30 80 N 5.5915 -2.64996 -1.1927 0
M  V30 81 H 5.1385 -2.55811 -0.303064 0
M  V30 82 H 5.0965 -2.40482 -2.02523 0
M  V30 83 N 8.8686 -0.792821 -1.36206 0
M  V30 84 C 10.0936 -0.377701 -2.03932 0
M  V30 85 C 10.5186 0.998947 -1.59382 0
M  V30 86 O 9.8766 1.64421 -0.763903 0
M  V30 87 C 9.9246 -0.453635 -3.57735 0
M  V30 88 O 9.0286 0.538151 -4.08874 0
M  V30 89 H 8.3696 -0.159855 -0.644471 0
M  V30 90 H 10.8996 -1.07488 -1.7409 0
M  V30 91 H 10.9096 -0.318464 -4.06755 0
M  V30 92 H 9.5846 -1.45784 -3.89512 0
M  V30 93 H 8.1616 0.364359 -3.71116 0
M  V30 94 N 10.3467 1.47872 -0.545128 0
M  V30 95 C 11.6237 1.9554 0.0485222 0
M  V30 96 C 12.0037 1.4876 1.49779 0
M  V30 97 O 11.3517 0.720925 2.16829 0
M  V30 98 C 11.5617 3.48898 -0.084417 0
M  V30 99 C 12.9097 4.24547 0.0671239 0
M  V30 100 O 13.9337 3.56198 -0.0113649 0
M  V30 101 O 12.7927 5.45999 0.233882 0
M  V30 102 H 9.8867 0.823957 0.0708773 0
M  V30 103 H 12.4327 1.58327 -0.610798 0
M  V30 104 H 11.2047 3.75714 -1.09337 0
M  V30 105 H 10.8277 3.92845 0.613066 0
M  V30 106 N 11.8248 0.280983 1.55075 0
M  V30 107 C 13.0718 -0.334115 1.99725 0
M  V30 108 C 13.3998 -1.5542 1.1694 0
M  V30 109 O 12.6548 -1.94361 0.228531 0
M  V30 110 C 12.9538 -0.754656 3.49342 0
M  V30 111 C 12.6198 0.361445 4.49449 0
M  V30 112 C 11.2818 0.667893 4.76542 0
M  V30 113 C 13.6338 1.11322 5.09173 0
M  V30 114 C 10.9618 1.7296 5.60626 0
M  V30 115 C 13.3138 2.1647 5.9441 0
M  V30 116 C 11.9778 2.47742 6.19822 0
M  V30 117 H 11.2478 -0.122261 0.730844 0
M  V30 118 H 13.8948 0.395917 1.87363 0
M  V30 119 H 12.1998 -1.56446 3.5921 0
M  V30 120 H 13.8968 -1.24142 3.813 0
M  V30 121 H 10.4868 0.112481 4.28452 0
M  V30 122 H 14.6708 0.88973 4.8826 0
M  V30 123 H 9.9268 1.97684 5.78559 0
M  V30 124 H 14.1008 2.75193 6.3972 0
M  V30 125 H 11.7278 3.30145 6.84769 0
M  V30 126 N 13.3029 -1.57598 0.00835791 0
M  V30 127 C 14.5329 -1.94931 -0.684496 0
M  V30 128 C 14.9409 -0.882233 -1.67372 0
M  V30 129 O 14.2839 0.146621 -1.83114 0
M  V30 130 C 14.3459 -3.283 -1.4649 0
M  V30 131 C 14.0099 -4.52548 -0.63634 0
M  V30 132 C 15.0069 -5.19839 0.0795586 0
M  V30 133 C 12.6919 -4.98942 -0.579849 0
M  V30 134 C 14.6859 -6.3183 0.840843 0
M  V30 135 C 12.3729 -6.10819 0.185155 0
M  V30 136 C 13.3709 -6.77121 0.894227 0
M  V30 137 O 13.0589 -7.86853 1.64673 0
M  V30 138 H 12.7909 -0.647249 -0.19505 0
M  V30 139 H 15.3449 -2.05318 0.0581272 0
M  V30 140 H 13.5749 -3.14345 -2.2522 0
M  V30 141 H 15.2639 -3.50685 -2.04389 0
M  V30 142 H 16.0299 -4.84979 0.0451202 0
M  V30 143 H 11.9089 -4.47155 -1.1213 0
M  V30 144 H 15.4529 -6.83513 1.39483 0
M  V30 145 H 11.3499 -6.4512 0.221384 0
M  V30 146 H 12.1179 -8.03412 1.56432 0
M  V30 147 N 14.781 0.264519 -1.55364 0
M  V30 148 C 16.006 1.01726 -1.80739 0
M  V30 149 C 16.431 1.78836 -0.583044 0
M  V30 150 O 15.789 1.75167 0.467566 0
M  V30 151 C 15.837 1.94482 -3.03659 0
M  V30 152 O 14.941 3.03386 -2.7934 0
M  V30 153 H 14.282 0.290395 -0.597132 0
M  V30 154 H 16.812 0.290854 -2.02522 0
M  V30 155 H 16.822 2.36278 -3.32621 0
M  V30 156 H 15.497 1.37772 -3.92418 0
M  V30 157 H 14.074 2.65844 -2.61498 0
M  V30 158 N 16.2591 1.48442 0.529413 0
M  V30 159 C 17.2061 1.63007 1.63394 0
M  V30 160 C 18.1761 0.47212 1.59249 0
M  V30 161 O 19.3611 0.695673 1.77666 0
M  V30 162 C 16.5011 1.6763 3.01653 0
M  V30 163 C 15.6141 2.94535 3.16027 0
M  V30 164 C 14.7491 2.90316 4.44849 0
M  V30 165 C 13.7881 4.11923 4.52754 0
M  V30 166 N 12.9251 4.05777 5.72965 0
M  V30 167 H 17.7651 2.5733 1.50285 0
M  V30 168 H 15.3021 1.27613 0.731656 0
M  V30 169 H 17.2601 1.68292 3.81751 0
M  V30 170 H 15.8901 0.76797 3.13532 0
M  V30 171 H 14.9421 3.03615 2.29177 0
M  V30 172 H 16.2541 3.84512 3.17729 0
M  V30 173 H 15.4081 2.89382 5.33238 0
M  V30 174 H 14.1471 1.98068 4.45668 0
M  V30 175 H 13.1521 4.13131 3.62771 0
M  V30 176 H 14.3771 5.0533 4.53672 0
M  V30 177 H 12.3231 3.16351 5.74681 0
M  V30 178 H 12.2401 4.8946 5.76164 0
M  V30 179 H 13.5081 4.08904 6.6364 0
M  V30 180 N 17.7372 -0.778329 1.37039 0
M  V30 181 C 18.6852 -1.91278 1.32345 0
M  V30 182 C 19.6792 -1.68051 0.213331 0
M  V30 183 O 20.8852 -1.75922 0.38098 0
M  V30 184 H 17.2602 -0.628909 0.412283 0
M  V30 185 H 19.2312 -1.92355 2.28127 0
M  V30 186 C 17.9802 -3.28455 1.14073 0
M  V30 187 H 17.3032 -3.46901 1.98746 0
M  V30 188 H 18.7432 -4.08152 1.14837 0
M  V30 189 C 17.2022 -3.36548 -0.154015 0
M  V30 190 O 17.7322 -3.85186 -1.13993 0
M  V30 191 N 15.9382 -2.89894 -0.202475 0
M  V30 192 H 15.4852 -2.50504 0.600476 0
M  V30 193 H 15.4432 -2.9569 -1.06841 0
M  V30 194 N 19.2153 -1.21501 -1.00376 0
M  V30 195 C 20.1473 -0.933174 -2.09343 0
M  V30 196 C 21.1603 0.0840896 -1.62583 0
M  V30 197 O 22.3493 -0.148563 -1.77881 0
M  V30 198 C 19.4493 -0.379869 -3.36764 0
M  V30 199 C 18.6223 -1.45176 -4.12605 0
M  V30 200 C 17.6813 -0.907476 -5.18316 0
M  V30 201 O 16.7073 -1.5912 -5.46507 0
M  V30 202 N 17.9093 0.276649 -5.7984 0
M  V30 203 H 20.6743 -1.87124 -2.34104 0
M  V30 204 H 18.2353 -1.12043 -1.16867 0
M  V30 205 H 20.2273 -0.00131488 -4.047 0
M  V30 206 H 18.7973 0.463048 -3.09151 0
M  V30 207 H 18.0173 -2.00411 -3.39454 0
M  V30 208 H 19.3053 -2.17328 -4.6005 0
M  V30 209 H 18.7033 0.849147 -5.59291 0
M  V30 210 H 17.2603 0.596702 -6.49063 0
M  V30 211 N 20.6934 1.19889 -1.02296 0
M  V30 212 C 22.1094 1.41462 -0.738954 0
M  V30 213 C 22.3094 1.89721 0.678846 0
M  V30 214 O 21.3654 2.07016 1.4457 0
M  V30 215 C 22.6784 2.43083 -1.77005 0
M  V30 216 C 24.2264 2.5684 -1.78892 0
M  V30 217 C 24.7014 3.61709 -2.80945 0
M  V30 218 N 26.1924 3.69199 -2.79725 0
M  V30 219 C 26.9274 4.50019 -3.55345 0
M  V30 220 N 26.4234 5.34592 -4.40662 0
M  V30 221 N 28.2164 4.44612 -3.43914 0
M  V30 222 H 20.3674 0.868827 -1.93817 0
M  V30 223 H 22.6304 0.44399 -0.837602 0
M  V30 224 H 22.3364 2.14636 -2.78612 0
M  V30 225 H 22.2104 3.4217 -1.58744 0
M  V30 226 H 24.5974 2.84614 -0.779674 0
M  V30 227 H 24.6784 1.57927 -2.01228 0
M  V30 228 H 24.3224 3.34678 -3.82038 0
M  V30 229 H 24.2524 4.60259 -2.5587 0
M  V30 230 H 26.7434 3.08794 -2.17842 0
M  V30 231 H 27.0564 5.93363 -4.95116 0
M  V30 232 H 25.4014 5.34073 -4.44737 0
M  V30 233 H 28.5924 3.7758 -2.76679 0
M  V30 234 H 28.7654 5.0736 -4.031 0
M  V30 235 N 22.1715 0.800033 1.35784 0
M  V30 236 C 23.1195 0.193851 2.31791 0
M  V30 237 C 24.1135 -0.652744 1.56319 0
M  V30 238 O 25.3195 -0.546641 1.71499 0
M  V30 239 H 21.6945 0.04392 0.750716 0
M  V30 240 H 23.6655 1.01883 2.80468 0
M  V30 241 C 22.4145 -0.648338 3.41602 0
M  V30 242 H 21.7375 -0.00624665 3.998 0
M  V30 243 H 23.1775 -1.03898 4.11073 0
M  V30 244 C 21.6365 -1.8111 2.84079 0
M  V30 245 O 22.1665 -2.90825 2.77099 0
M  V30 246 N 20.3725 -1.62056 2.41218 0
M  V30 247 H 19.9195 -0.728123 2.47095 0
M  V30 248 H 19.8775 -2.40013 2.03079 0
M  V30 249 N 23.6496 -1.47581 0.552962 0
M  V30 250 C 24.5596 -2.33743 -0.200353 0
M  V30 251 C 25.5756 -1.47928 -0.916151 0
M  V30 252 O 26.7516 -1.80865 -0.885993 0
M  V30 253 C 23.8166 -3.24536 -1.21973 0
M  V30 254 C 22.8776 -4.26238 -0.511819 0
M  V30 255 C 22.1106 -5.12693 -1.48263 0
M  V30 256 O 22.3336 -5.01525 -2.71714 0
M  V30 257 O 21.2676 -5.93375 -1.00945 0
M  V30 258 H 25.0936 -2.9945 0.506304 0
M  V30 259 H 22.6786 -1.46071 0.313622 0
M  V30 260 H 24.5606 -3.80631 -1.80827 0
M  V30 261 H 23.2356 -2.61462 -1.90839 0
M  V30 262 H 22.1426 -3.73914 0.117799 0
M  V30 263 H 23.4756 -4.92014 0.135308 0
M  V30 264 N 25.1277 -0.289203 -1.54924 0
M  V30 265 C 26.3527 0.329299 -2.04769 0
M  V30 266 C 26.7777 1.4763 -1.16564 0
M  V30 267 O 26.1357 1.80527 -0.167186 0
M  V30 268 C 26.1837 0.774438 -3.52186 0
M  V30 269 O 25.2877 1.88038 -3.67036 0
M  V30 270 H 24.6287 0.0659259 -0.660719 0
M  V30 271 H 27.1587 -0.42761 -2.00082 0
M  V30 272 H 27.1687 1.06642 -3.93816 0
M  V30 273 H 25.8437 -0.0646707 -4.1585 0
M  V30 274 H 24.4207 1.58985 -3.3731 0
M  V30 275 N 26.6058 1.57591 -0.0167156 0
M  V30 276 C 27.8308 1.9598 0.67872 0
M  V30 277 C 28.2558 0.892546 1.65575 0
M  V30 278 O 27.6138 -0.147772 1.80697 0
M  V30 279 C 27.6618 3.33468 1.37227 0
M  V30 280 O 26.7658 3.28954 2.48722 0
M  V30 281 H 26.1068 0.639339 0.17928 0
M  V30 282 H 28.6368 2.04463 -0.0748802 0
M  V30 283 H 28.6468 3.69417 1.7319 0
M  V30 284 H 27.3218 4.10694 0.656007 0
M  V30 285 H 25.8988 3.04705 2.14963 0
M  V30 286 N 28.0839 -0.256276 1.55502 0
M  V30 287 C 29.0339 -1.31981 1.85916 0
M  V30 288 C 30.0179 -1.43927 0.719296 0
M  V30 289 O 31.2099 -1.47326 0.981019 0
M  V30 290 C 28.3389 -2.67703 2.14918 0
M  V30 291 C 27.4249 -2.59801 3.35208 0
M  V30 292 N 27.8159 -2.21524 4.54709 0
M  V30 293 C 26.1139 -2.90832 3.38131 0
M  V30 294 C 26.8149 -2.24024 5.36832 0
M  V30 295 N 25.7909 -2.63158 4.75656 0
M  V30 296 H 29.5929 -1.01423 2.75845 0
M  V30 297 H 27.1069 -0.464911 1.55603 0
M  V30 298 H 29.1039 -3.44445 2.34869 0
M  V30 299 H 27.7639 -2.99137 1.26282 0
M  V30 300 H 28.7749 -1.93223 4.80505 0
M  V30 301 H 25.4519 -3.26867 2.59739 0
M  V30 302 H 26.8419 -1.9685 6.42417 0
M  V30 303 N 29.562 -1.4872 -0.521534 0
M  V30 304 C 30.81 -1.56857 -1.27437 0
M  V30 305 C 31.131 -0.247982 -1.93417 0
M  V30 306 O 30.401 0.731151 -1.81744 0
M  V30 307 H 28.981 -0.577885 -0.473347 0
M  V30 308 H 31.643 -1.85233 -0.606205 0
M  V30 309 H 30.739 -2.35402 -2.0492 0
M  V30 310 N 31.0401 0.771051 -1.3745 0
M  V30 311 C 32.2881 1.52661 -1.32435 0
M  V30 312 C 32.6091 1.9479 0.0905024 0
M  V30 313 O 31.8791 1.66348 1.03466 0
M  V30 314 H 30.4591 0.566218 -0.487244 0
M  V30 315 H 33.1211 0.917636 -1.71946 0
M  V30 316 H 32.2171 2.42568 -1.96385 0
M  V30 317 N 32.5182 1.22032 0.997298 0
M  V30 318 C 33.4282 1.00271 2.12092 0
M  V30 319 C 34.4442 -0.047621 1.73935 0
M  V30 320 O 35.6202 0.144136 2.00884 0
M  V30 321 C 32.6852 0.578449 3.4184 0
M  V30 322 C 31.7462 1.70189 3.94125 0
M  V30 323 C 30.9792 1.29778 5.17681 0
M  V30 324 O 31.2022 0.174676 5.70132 0
M  V30 325 O 30.1362 2.11261 5.63607 0
M  V30 326 H 33.9622 1.94398 2.3333 0
M  V30 327 H 31.5472 1.00587 1.10465 0
M  V30 328 H 33.4292 0.351998 4.19927 0
M  V30 329 H 32.1042 -0.334019 3.21972 0
M  V30 330 H 31.0112 1.98282 3.1723 0
M  V30 331 H 32.3442 2.59206 4.18417 0
M  V30 332 N 33.9963 -1.19345 1.0293 0
M  V30 333 C 35.2433 -1.89038 0.726008 0
M  V30 334 C 35.5713 -1.79649 -0.745427 0
M  V30 335 O 34.8263 -1.18354 -1.55855 0
M  V30 336 C 35.1253 -3.39292 1.12319 0
M  V30 337 C 34.7913 -3.68885 2.59297 0
M  V30 338 C 33.4533 -3.76671 2.99453 0
M  V30 339 C 35.8053 -3.82178 3.54386 0
M  V30 340 C 33.1333 -3.9522 4.33611 0
M  V30 341 C 35.4853 -4.0224 4.88248 0
M  V30 342 C 34.1493 -4.08259 5.28092 0
M  V30 343 H 33.4193 -0.691739 0.265665 0
M  V30 344 H 36.0663 -1.41328 1.29223 0
M  V30 345 H 34.3713 -3.88903 0.475584 0
M  V30 346 H 36.0683 -3.91536 0.866037 0
M  V30 347 H 32.6583 -3.63433 2.27189 0
M  V30 348 H 36.8423 -3.75505 3.24514 0
M  V30 349 H 32.0983 -3.98119 4.64016 0
M  V30 350 H 36.2723 -4.11468 5.61843 0
M  V30 351 H 33.8993 -4.22384 6.32057 0
M  V30 352 N 35.4744 -0.807222 -1.35358 0
M  V30 353 C 36.7224 -0.387122 -1.98358 0
M  V30 354 C 37.0434 1.04942 -1.64354 0
M  V30 355 O 36.3134 1.72615 -0.926339 0
M  V30 356 H 34.8934 -0.140154 -0.733734 0
M  V30 357 H 37.5554 -1.0332 -1.6526 0
M  V30 358 H 36.6514 -0.493352 -3.08176 0
M  V30 359 N 36.9525 1.47285 -0.560781 0
M  V30 360 C 38.1925 2.0436 -0.0404627 0
M  V30 361 C 38.5565 1.42534 1.28639 0
M  V30 362 O 39.7575 1.90677 1.89462 0
M  V30 363 C 38.0285 3.57369 0.0471856 0
M  V30 364 S 39.5875 4.3579 0.513109 0
M  V30 365 H 36.4055 0.710492 -0.0268674 0
M  V30 366 H 39.0075 1.80611 -0.748323 0
M  V30 367 H 37.7115 3.9989 -0.922817 0
M  V30 368 H 37.2425 3.8562 0.778491 0
M  V30 369 H 39.2575 4.63476 1.77212 0
M  V30 370 N 38.4306 0.297415 1.54768 0
M  V30 371 C 39.6586 -0.315623 2.04478 0
M  V30 372 C 40.0736 -1.47792 1.17486 0
M  V30 373 O 39.4306 -1.81404 0.19971 0
M  V30 374 C 39.4816 -0.7753 3.53088 0
M  V30 375 O 39.2026 0.340732 4.36773 0
M  V30 376 C 40.7036 -1.45386 4.18781 0
M  V30 377 H 37.9236 -0.0690887 0.667434 0
M  V30 378 H 40.4676 0.436003 1.99798 0
M  V30 379 H 38.6226 -1.47696 3.58141 0
M  V30 380 H 39.0366 -0.0165035 5.24497 0
M  V30 381 H 40.5106 -1.72669 5.24299 0
M  V30 382 H 40.9876 -2.39275 3.68299 0
M  V30 383 H 41.5936 -0.795475 4.17795 0
M  V30 384 N 39.9087 -1.5758 0.0250728 0
M  V30 385 C 40.8417 -2.05473 -0.992777 0
M  V30 386 C 41.8197 -0.949661 -1.31986 0
M  V30 387 O 43.0037 -1.21969 -1.43722 0
M  V30 388 C 40.1307 -2.4734 -2.31389 0
M  V30 389 C 39.1767 -3.68827 -2.1417 0
M  V30 390 S 40.0097 -5.15655 -1.44429 0
M  V30 391 C 41.1657 -5.60814 -2.77918 0
M  V30 392 H 41.3987 -2.91486 -0.585078 0
M  V30 393 H 38.9317 -1.53269 -0.186507 0
M  V30 394 H 40.8897 -2.72127 -3.07339 0
M  V30 395 H 39.5507 -1.6168 -2.69292 0
M  V30 396 H 38.7437 -3.95955 -3.11826 0
M  V30 397 H 38.3457 -3.44172 -1.46362 0
M  V30 398 H 40.6377 -5.64806 -3.74166 0
M  V30 399 H 41.5807 -6.60414 -2.55459 0
M  V30 400 H 41.9887 -4.8845 -2.82979 0
M  V30 401 N 41.3868 0.248026 -1.55636 0
M  V30 402 C 42.2968 1.32859 -1.93354 0
M  V30 403 C 43.3128 1.52719 -0.833838 0
M  V30 404 O 44.4888 1.66363 -1.13513 0
M  V30 405 C 41.5538 2.66337 -2.21958 0
M  V30 406 C 40.6148 2.55008 -3.45354 0
M  V30 407 C 39.8478 3.82121 -3.72584 0
M  V30 408 O 40.0708 4.83951 -3.01907 0
M  V30 409 O 39.0048 3.80822 -4.6611 0
M  V30 410 H 42.8308 1.03862 -2.85388 0
M  V30 411 H 40.4158 0.448686 -1.42503 0
M  V30 412 H 42.2978 3.45216 -2.4167 0
M  V30 413 H 40.9728 2.95068 -1.33103 0
M  V30 414 H 39.8798 1.7442 -3.30951 0
M  V30 415 H 41.2128 2.31222 -4.34508 0
M  V30 416 N 42.8649 1.48995 0.513639 0
M  V30 417 C 43.7749 1.67443 1.64317 0
M  V30 418 C 44.7909 0.556947 1.64846 0
M  V30 419 O 45.9669 0.830082 1.83498 0
M  V30 420 C 43.0319 1.72515 3.00732 0
M  V30 421 C 42.0929 2.96009 3.1093 0
M  V30 422 C 41.3259 3.00829 4.40837 0
M  V30 423 O 41.5489 2.13594 5.28898 0
M  V30 424 O 40.4829 3.93168 4.55744 0
M  V30 425 H 44.3089 2.63106 1.51687 0
M  V30 426 H 41.8939 1.32588 0.688543 0
M  V30 427 H 43.7759 1.78277 3.81831 0
M  V30 428 H 42.4509 0.800278 3.13651 0
M  V30 429 H 41.3579 2.9577 2.29065 0
M  V30 430 H 42.6909 3.87934 3.02933 0
M  V30 431 N 44.343 -0.763751 1.37857 0
M  V30 432 C 45.273 -1.89103 1.36975 0
M  V30 433 C 46.254 -1.68439 0.237152 0
M  V30 434 O 47.439 -1.8918 0.438713 0
M  V30 435 C 44.569 -3.26496 1.18395 0
M  V30 436 C 43.523 -3.61741 2.28751 0
M  V30 437 C 42.849 -4.97762 1.95286 0
M  V30 438 C 44.149 -3.67665 3.70972 0
M  V30 439 H 45.843 -1.90099 2.31307 0
M  V30 440 H 43.389 -0.91319 1.11341 0
M  V30 441 H 45.342 -4.05003 1.16406 0
M  V30 442 H 44.066 -3.25955 0.205215 0
M  V30 443 H 42.725 -2.85547 2.29909 0
M  V30 444 H 42.373 -4.93769 0.959221 0
M  V30 445 H 42.073 -5.22313 2.69189 0
M  V30 446 H 43.597 -5.7866 1.94898 0
M  V30 447 H 45.011 -4.36307 3.719 0
M  V30 448 H 43.408 -4.03718 4.43995 0
M  V30 449 H 44.478 -2.68134 4.0402 0
M  V30 450 N 45.8211 -1.22559 -0.990812 0
M  V30 451 C 47.2371 -0.985996 -1.255 0
M  V30 452 C 47.4371 0.319173 -1.98956 0
M  V30 453 O 46.4931 1.04127 -2.3003 0
M  V30 454 C 47.8061 -2.18607 -2.06474 0
M  V30 455 C 49.3541 -2.22985 -2.19651 0
M  V30 456 C 49.8291 -3.4255 -3.04012 0
M  V30 457 N 51.3201 -3.42725 -3.11599 0
M  V30 458 C 52.0551 -4.31892 -3.7717 0
M  V30 459 N 51.5511 -5.31279 -4.44651 0
M  V30 460 N 53.3441 -4.19662 -3.73952 0
M  V30 461 H 45.4951 -2.06469 -0.49841 0
M  V30 462 H 47.7581 -0.904853 -0.282747 0
M  V30 463 H 47.4641 -3.13267 -1.59865 0
M  V30 464 H 47.3381 -2.18838 -3.07229 0
M  V30 465 H 49.7251 -1.28871 -2.65474 0
M  V30 466 H 49.8061 -2.26791 -1.18319 0
M  V30 467 H 49.4501 -4.36965 -2.58889 0
M  V30 468 H 49.3801 -3.35984 -4.0549 0
M  V30 469 H 51.8711 -2.70807 -2.63575 0
M  V30 470 H 52.1841 -5.95593 -4.92431 0
M  V30 471 H 50.5291 -5.3519 -4.43392 0
M  V30 472 H 53.7201 -3.41268 -3.20396 0
M  V30 473 H 53.8931 -4.89358 -4.24774 0
M  V30 474 N 47.2992 1.18797 -1.03562 0
M  V30 475 C 48.5242 1.9314 -0.755764 0
M  V30 476 C 48.9492 1.7537 0.68022 0
M  V30 477 O 48.3072 1.06046 1.47051 0
M  V30 478 C 48.3552 3.42747 -1.12058 0
M  V30 479 O 47.4592 4.11683 -0.243124 0
M  V30 480 H 46.8002 0.602724 -0.278604 0
M  V30 481 H 49.3302 1.50678 -1.3841 0
M  V30 482 H 49.3402 3.93437 -1.08035 0
M  V30 483 H 48.0152 3.55002 -2.16672 0
M  V30 484 H 46.5922 3.71323 -0.342539 0
M  V30 485 N 48.7773 0.814389 1.34928 0
M  V30 486 C 49.7073 0.244827 2.32213 0
M  V30 487 C 50.6883 -0.634024 1.57842 0
M  V30 488 O 51.8733 -0.562676 1.8587 0
M  V30 489 C 49.0033 -0.601106 3.42058 0
M  V30 490 C 47.9573 0.179896 4.27622 0
M  V30 491 C 47.2833 -0.788237 5.28858 0
M  V30 492 C 48.5833 1.38329 5.03649 0
M  V30 493 H 50.2773 1.05763 2.80097 0
M  V30 494 H 47.8233 0.510029 1.34665 0
M  V30 495 H 49.7763 -1.00968 4.09125 0
M  V30 496 H 48.5003 -1.44688 2.92802 0
M  V30 497 H 47.1593 0.569739 3.62146 0
M  V30 498 H 46.8073 -1.62973 4.75866 0
M  V30 499 H 46.5073 -0.269942 5.8698 0
M  V30 500 H 48.0313 -1.19485 5.98795 0
M  V30 501 H 49.4453 1.04918 5.63618 0
M  V30 502 H 47.8423 1.83662 5.71304 0
M  V30 503 H 48.9123 2.16592 4.33839 0
M  V30 504 N 50.2554 -1.46986 0.568584 0
M  V30 505 C 51.1884 -2.27129 -0.220779 0
M  V30 506 C 52.1664 -1.34757 -0.909905 0
M  V30 507 O 53.3504 -1.64152 -0.926622 0
M  V30 508 C 50.4774 -3.12108 -1.31553 0
M  V30 509 C 49.5234 -4.20141 -0.733748 0
M  V30 510 S 50.3564 -5.33783 0.428479 0
M  V30 511 C 51.5124 -6.22327 -0.667811 0
M  V30 512 H 51.7454 -2.93731 0.459267 0
M  V30 513 H 49.2784 -1.5026 0.355154 0
M  V30 514 H 51.2364 -3.61636 -1.94241 0
M  V30 515 H 49.8974 -2.44847 -1.96746 0
M  V30 516 H 49.0904 -4.79373 -1.5562 0
M  V30 517 H 48.6924 -3.73553 -0.182812 0
M  V30 518 H 50.9844 -6.59364 -1.55708 0
M  V30 519 H 51.9274 -7.0801 -0.11258 0
M  V30 520 H 52.3354 -5.5618 -0.965601 0
M  V30 521 N 51.7335 -0.305618 -1.54608 0
M  V30 522 C 52.6435 0.57778 -2.27374 0
M  V30 523 C 53.6595 1.14451 -1.31061 0
M  V30 524 O 54.8355 1.16831 -1.6405 0
M  V30 525 C 51.9005 1.73123 -3.00382 0
M  V30 526 C 50.9615 1.19812 -4.12242 0
M  V30 527 C 50.1945 2.2966 -4.81759 0
M  V30 528 O 50.4175 3.49651 -4.50666 0
M  V30 529 O 49.3515 1.96091 -5.69062 0
M  V30 530 H 53.1775 -0.012624 -3.03697 0
M  V30 531 H 50.7625 -0.0719184 -1.49227 0
M  V30 532 H 52.6445 2.40315 -3.4616 0
M  V30 533 H 51.3195 2.30815 -2.26949 0
M  V30 534 H 50.2265 0.491798 -3.70853 0
M  V30 535 H 51.5595 0.666566 -4.87666 0
M  V30 536 N 53.2116 1.57565 -0.0334293 0
M  V30 537 C 54.1416 2.13511 0.945265 0
M  V30 538 C 55.1226 1.05231 1.33643 0
M  V30 539 O 56.3076 1.33084 1.41429 0
M  V30 540 C 53.4376 2.6657 2.22616 0
M  V30 541 C 52.3916 3.79676 1.97561 0
M  V30 542 C 51.7176 4.1918 3.31952 0
M  V30 543 C 53.0176 5.0557 1.31135 0
M  V30 544 H 54.7116 2.95538 0.479325 0
M  V30 545 H 52.2576 1.42166 0.229115 0
M  V30 546 H 54.2106 3.04344 2.91466 0
M  V30 547 H 52.9346 1.8171 2.71384 0
M  V30 548 H 51.5936 3.42347 1.31127 0
M  V30 549 H 51.2416 3.31296 3.78487 0
M  V30 550 H 50.9416 4.95402 3.15992 0
M  V30 551 H 52.4656 4.59541 4.02063 0
M  V30 552 H 53.8796 5.40903 1.89992 0
M  V30 553 H 52.2766 5.86818 1.25559 0
M  V30 554 H 53.3466 4.84062 0.284894 0
M  V30 555 N 54.6897 -0.239769 1.55765 0
M  V30 556 C 56.1057 -0.588624 1.48349 0
M  V30 557 C 56.3057 -1.88005 0.72502 0
M  V30 558 O 55.3617 -2.51186 0.257269 0
M  V30 559 C 56.6747 -0.68474 2.928 0
M  V30 560 C 58.2227 -0.77659 3.03213 0
M  V30 561 C 58.6977 -0.904207 4.48986 0
M  V30 562 N 60.1887 -0.968896 4.52953 0
M  V30 563 C 60.9237 -1.08703 5.63002 0
M  V30 564 N 60.4197 -1.17026 6.82845 0
M  V30 565 N 62.2127 -1.12074 5.50814 0
M  V30 566 H 54.3637 0.607911 2.03515 0
M  V30 567 H 56.6267 0.21083 0.924259 0
M  V30 568 H 56.3327 0.194284 3.51163 0
M  V30 569 H 56.2067 -1.55435 3.43686 0
M  V30 570 H 58.5937 -1.64606 2.44926 0
M  V30 571 H 58.6747 0.118315 2.55526 0
M  V30 572 H 58.3187 -0.0392633 5.07885 0
M  V30 573 H 58.2487 -1.81426 4.9436 0
M  V30 574 H 60.7397 -0.915633 3.6664 0
M  V30 575 H 61.0527 -1.25966 7.62465 0
M  V30 576 H 59.3977 -1.13971 6.85591 0
M  V30 577 H 62.5887 -1.05226 4.5612 0
M  V30 578 H 62.7617 -1.20936 6.36615 0
M  V30 579 N 56.1678 -1.49265 -0.50573 0
M  V30 580 C 57.4158 -1.582 -1.25766 0
M  V30 581 C 57.7368 -0.268482 -1.93143 0
M  V30 582 O 57.0068 0.711833 -1.8251 0
M  V30 583 H 55.5868 -0.582873 -0.467191 0
M  V30 584 H 58.2488 -1.85865 -0.586525 0
M  V30 585 H 57.3448 -2.37563 -2.02412 0
M  V30 586 N 57.6459 0.756429 -1.3826 0
M  V30 587 C 58.8739 1.54565 -1.3754 0
M  V30 588 C 59.2889 1.88767 0.0355331 0
M  V30 589 O 58.6459 1.52572 1.0014 0
M  V30 590 C 58.6969 2.84654 -2.22833 0
M  V30 591 O 58.4179 2.51912 -3.5843 0
M  V30 592 C 59.9189 3.78807 -2.30261 0
M  V30 593 H 57.1389 0.478353 -0.470553 0
M  V30 594 H 59.6829 0.936381 -1.81803 0
M  V30 595 H 57.8379 3.41965 -1.8204 0
M  V30 596 H 58.2519 3.35325 -4.03308 0
M  V30 597 H 59.7259 4.67045 -2.94233 0
M  V30 598 H 60.2029 4.19038 -1.31545 0
M  V30 599 H 60.8089 3.2742 -2.71433 0
M  V30 600 N 59.124 1.23083 0.984299 0
M  V30 601 C 60.034 1.02515 2.11016 0
M  V30 602 C 61.05 -0.0291702 1.73976 0
M  V30 603 O 62.226 0.165434 2.00719 0
M  V30 604 C 59.291 0.614673 3.41208 0
M  V30 605 C 58.352 1.74359 3.92297 0
M  V30 606 C 57.585 1.35261 5.16275 0
M  V30 607 O 57.808 0.235136 5.69915 0
M  V30 608 O 56.742 2.17227 5.61334 0
M  V30 609 H 60.568 1.96862 2.31255 0
M  V30 610 H 58.153 1.01753 1.09392 0
M  V30 611 H 60.035 0.396518 4.1953 0
M  V30 612 H 58.71 -0.299851 3.22308 0
M  V30 613 H 57.617 2.01635 3.1511 0
M  V30 614 H 58.95 2.63629 4.15645 0
M  V30 615 N 60.6021 -1.18246 1.0419 0
M  V30 616 C 61.5651 -2.20128 0.638452 0
M  V30 617 C 62.5651 -1.57885 -0.304805 0
M  V30 618 O 63.7551 -1.73967 -0.0900369 0
M  V30 619 C 60.8871 -3.4084 -0.0637751 0
M  V30 620 H 62.0801 -2.57336 1.54007 0
M  V30 621 H 59.6331 -1.32152 0.834598 0
M  V30 622 H 60.3681 -3.09166 -0.979136 0
M  V30 623 H 60.1531 -3.8726 0.614198 0
M  V30 624 H 61.6431 -4.16274 -0.332512 0
M  V30 625 N 62.0802 -0.821533 -1.34494 0
M  V30 626 C 63.3262 -0.409552 -1.98622 0
M  V30 627 C 63.6592 1.0244 -1.64984 0
M  V30 628 O 62.9342 1.71325 -0.920758 0
M  V30 629 C 63.2172 -0.610458 -3.54888 0
M  V30 630 C 63.0702 -2.09043 -3.98273 0
M  V30 631 C 64.3892 -0.0455379 -4.40076 0
M  V30 632 H 61.5082 -0.15028 -0.721516 0
M  V30 633 H 64.1502 -1.03384 -1.59411 0
M  V30 634 H 62.3002 -0.079044 -3.8842 0
M  V30 635 H 63.9722 -2.68537 -3.75081 0
M  V30 636 H 62.2152 -2.58139 -3.48635 0
M  V30 637 H 62.8862 -2.18182 -5.07051 0
M  V30 638 H 65.3622 -0.499557 -4.1309 0
M  V30 639 H 64.2382 -0.215922 -5.48475 0
M  V30 640 H 64.4992 1.04939 -4.29465 0
M  V30 641 N 63.5583 1.46682 -0.576371 0
M  V30 642 C 64.8043 2.02712 -0.0596221 0
M  V30 643 C 65.1373 1.44765 1.29448 0
M  V30 644 O 64.4123 0.610355 1.84675 0
M  V30 645 C 64.6953 3.60098 0.0129503 0
M  V30 646 C 64.5483 4.28441 -1.3696 0
M  V30 647 C 65.8673 4.34224 0.71678 0
M  V30 648 H 62.9863 0.736637 -0.0231407 0
M  V30 649 H 65.6283 1.74898 -0.742351 0
M  V30 650 H 63.7783 3.83926 0.594378 0
M  V30 651 H 65.4503 4.15896 -1.9957 0
M  V30 652 H 63.6933 3.8805 -1.93907 0
M  V30 653 H 64.3643 5.3716 -1.27135 0
M  V30 654 H 66.8403 4.15503 0.222908 0
M  V30 655 H 65.7163 5.43936 0.73657 0
M  V30 656 H 65.9773 4.04823 1.77682 0
M  V30 657 N 65.0364 0.313813 1.54444 0
M  V30 658 C 65.9834 -0.55655 2.23989 0
M  V30 659 C 66.9534 -1.11943 1.22711 0
M  V30 660 O 68.1384 -1.16158 1.51367 0
M  V30 661 C 65.2784 -1.71635 2.99392 0
M  V30 662 C 64.3914 -1.18364 4.15468 0
M  V30 663 C 63.5264 -2.30834 4.78424 0
M  V30 664 C 62.5654 -1.74762 5.86622 0
M  V30 665 N 61.7024 -2.80855 6.43479 0
M  V30 666 H 66.5424 0.0430893 2.97969 0
M  V30 667 H 64.0794 0.0330359 1.47063 0
M  V30 668 H 66.0374 -2.39868 3.41349 0
M  V30 669 H 64.6674 -2.28742 2.27765 0
M  V30 670 H 63.7194 -0.393163 3.78363 0
M  V30 671 H 65.0314 -0.733262 4.93381 0
M  V30 672 H 64.1854 -3.0699 5.23299 0
M  V30 673 H 62.9244 -2.79204 3.99871 0
M  V30 674 H 61.9294 -0.970995 5.41158 0
M  V30 675 H 63.1544 -1.2728 6.67066 0
M  V30 676 H 61.1004 -3.28535 5.67804 0
M  V30 677 H 61.0174 -2.40351 7.16776 0
M  V30 678 H 62.2854 -3.5687 6.93011 0
M  V30 679 N 66.5145 -1.57545 0.0417849 0
M  V30 680 C 67.7635 -1.91494 -0.633492 0
M  V30 681 C 68.0765 -0.921084 -1.72556 0
M  V30 682 O 69.2825 -1.15228 -2.45835 0
M  V30 683 C 67.7385 -3.40072 -1.17808 0
M  V30 684 C 67.3465 -4.47843 -0.118633 0
M  V30 685 C 69.0905 -3.8307 -1.82915 0
M  V30 686 C 66.9975 -5.87529 -0.675578 0
M  V30 687 H 65.9275 -0.714653 -0.24039 0
M  V30 688 H 68.5785 -1.83175 0.109148 0
M  V30 689 H 66.9605 -3.43364 -1.97274 0
M  V30 690 H 68.1345 -4.56128 0.654494 0
M  V30 691 H 66.4495 -4.14128 0.434414 0
M  V30 692 H 69.0465 -4.84794 -2.25563 0
M  V30 693 H 69.3895 -3.1881 -2.67705 0
M  V30 694 H 69.9225 -3.82255 -1.10119 0
M  V30 695 H 66.6615 -6.55362 0.134475 0
M  V30 696 H 66.1815 -5.82824 -1.4169 0
M  V30 697 H 67.8605 -6.36491 -1.1614 0
M  V30 698 N 67.9926 0.231505 -1.5589 0
M  V30 699 C 68.9396 1.28682 -1.91598 0
M  V30 700 C 69.9096 1.47071 -0.771974 0
M  V30 701 O 71.0946 1.60802 -1.027 0
M  V30 702 C 68.2346 2.6342 -2.22944 0
M  V30 703 C 67.3476 2.52912 -3.50228 0
M  V30 704 C 66.4826 3.80106 -3.7107 0
M  V30 705 C 65.5216 3.64279 -4.91902 0
M  V30 706 N 64.6586 4.834 -5.09184 0
M  V30 707 H 69.4986 0.975305 -2.81588 0
M  V30 708 H 67.0356 0.470299 -1.39379 0
M  V30 709 H 68.9936 3.41869 -2.39126 0
M  V30 710 H 67.6236 2.92687 -1.36139 0
M  V30 711 H 66.6756 1.6595 -3.42294 0
M  V30 712 H 67.9876 2.37133 -4.38827 0
M  V30 713 H 67.1416 4.66999 -3.87295 0
M  V30 714 H 65.8806 3.98799 -2.80733 0
M  V30 715 H 64.8856 2.7577 -4.75637 0
M  V30 716 H 66.1106 3.47067 -5.83714 0
M  V30 717 H 64.0566 5.02425 -4.21788 0
M  V30 718 H 63.9736 4.70311 -5.91898 0
M  V30 719 H 65.2416 5.71747 -5.29835 0
M  V30 720 N 69.4707 1.49531 0.497807 0
M  V30 721 C 70.3807 1.69176 1.62532 0
M  V30 722 C 71.3967 0.5744 1.64246 0
M  V30 723 O 72.5727 0.849497 1.82608 0
M  V30 724 C 69.6377 1.75695 2.98885 0
M  V30 725 C 68.6987 2.9929 3.07773 0
M  V30 726 C 67.9317 3.05488 4.37622 0
M  V30 727 O 68.1547 2.19192 5.26603 0
M  V30 728 O 67.0887 3.9798 4.51548 0
M  V30 729 H 70.9147 2.647 1.48887 0
M  V30 730 H 68.4997 1.3331 0.674441 0
M  V30 731 H 70.3817 1.82317 3.79919 0
M  V30 732 H 69.0567 0.8335 3.12785 0
M  V30 733 H 67.9637 2.98183 2.25915 0
M  V30 734 H 69.2967 3.91125 2.98801 0
M  V30 735 N 70.9488 -0.749086 1.3866 0
M  V30 736 C 72.1768 -1.53834 1.38358 0
M  V30 737 C 72.5918 -1.88783 -0.0255219 0
M  V30 738 O 71.9488 -1.53101 -0.993292 0
M  V30 739 C 71.9998 -2.83468 2.2434 0
M  V30 740 O 71.7208 -2.50008 3.5976 0
M  V30 741 C 73.2218 -3.7758 2.32267 0
M  V30 742 H 70.4418 -0.47585 0.473083 0
M  V30 743 H 72.9858 -0.926726 1.82297 0
M  V30 744 H 71.1408 -3.40995 1.83851 0
M  V30 745 H 71.5548 -3.33182 4.05081 0
M  V30 746 H 73.0288 -4.65478 2.96706 0
M  V30 747 H 73.5058 -4.18334 1.33765 0
M  V30 748 H 74.1118 -3.25976 2.73166 0
M  V30 749 N 72.4269 -1.23603 -0.977757 0
M  V30 750 C 73.6569 -1.09487 -1.75203 0
M  V30 751 C 74.0649 0.356321 -1.85814 0
M  V30 752 O 73.4079 1.25816 -1.33851 0
M  V30 753 C 73.4699 -1.64905 -3.19447 0
M  V30 754 C 73.1339 -3.13688 -3.32338 0
M  V30 755 C 74.1309 -4.10953 -3.18455 0
M  V30 756 C 71.8159 -3.53449 -3.56902 0
M  V30 757 C 73.8099 -5.45962 -3.28944 0
M  V30 758 C 71.4969 -4.88602 -3.6703 0
M  V30 759 C 72.4949 -5.84668 -3.53062 0
M  V30 760 O 72.1829 -7.17365 -3.62826 0
M  V30 761 H 71.9149 -0.38367 -0.556573 0
M  V30 762 H 74.4689 -1.6398 -1.23693 0
M  V30 763 H 72.6989 -1.04835 -3.72218 0
M  V30 764 H 74.3879 -1.46226 -3.78646 0
M  V30 765 H 75.1539 -3.81577 -2.99372 0
M  V30 766 H 71.0329 -2.79188 -3.66844 0
M  V30 767 H 74.5769 -6.20925 -3.17958 0
M  V30 768 H 70.4739 -5.17653 -3.85623 0
M  V30 769 H 71.2419 -7.2515 -3.79605 0
M  V30 770 N 73.905 1.17692 -1.04816 0
M  V30 771 C 75.153 1.87488 -0.754497 0
M  V30 772 C 75.474 1.81205 0.720407 0
M  V30 773 O 74.744 1.23544 1.52032 0
M  V30 774 H 73.324 0.694101 -0.276102 0
M  V30 775 H 75.986 1.42793 -1.32651 0
M  V30 776 H 75.082 2.93328 -1.06606 0
M  V30 777 N 75.3831 0.828654 1.34056 0
M  V30 778 C 76.6601 0.341809 1.9259 0
M  V30 779 C 77.0401 -1.17158 1.75605 0
M  V30 780 O 76.3881 -1.98132 1.13824 0
M  V30 781 C 76.5981 0.777453 3.4023 0
M  V30 782 C 77.9461 0.779579 4.17382 0
M  V30 783 O 78.9701 0.7204 3.48839 0
M  V30 784 O 77.8291 0.857996 5.39723 0
M  V30 785 H 74.9231 0.0946085 0.821571 0
M  V30 786 H 77.4691 0.913827 1.42994 0
M  V30 787 H 76.2411 1.8196 3.46419 0
M  V30 788 H 75.8641 0.181444 3.97186 0
M  V30 789 N 76.8612 -1.46375 0.584142 0
M  V30 790 C 78.0892 -2.06761 0.0759296 0
M  V30 791 C 78.5042 -1.43266 -1.22965 0
M  V30 792 O 77.8612 -0.538458 -1.74376 0
M  V30 793 C 77.9122 -3.61375 -0.0950384 0
M  V30 794 O 77.6332 -4.22495 1.15887 0
M  V30 795 C 79.1342 -4.38693 -0.637434 0
M  V30 796 H 76.3542 -0.668479 0.0581075 0
M  V30 797 H 78.8982 -1.8798 0.805218 0
M  V30 798 H 77.0532 -3.79578 -0.774554 0
M  V30 799 H 77.4672 -5.15385 0.973598 0
M  V30 800 H 78.9412 -5.47464 -0.706237 0
M  V30 801 H 79.4182 -4.06836 -1.65472 0
M  V30 802 H 80.0242 -4.25299 0.00725967 0
M  V30 803 N 78.3393 -0.321999 -1.54275 0
M  V30 804 C 79.2493 0.553631 -2.27974 0
M  V30 805 C 80.2653 1.13054 -1.32268 0
M  V30 806 O 81.4413 1.15084 -1.6528 0
M  V30 807 C 78.5063 1.69927 -3.02201 0
M  V30 808 C 77.5673 1.15433 -4.1349 0
M  V30 809 C 76.8003 2.24537 -4.84168 0
M  V30 810 O 77.0233 3.44852 -4.5435 0
M  V30 811 O 75.9573 1.90044 -5.7111 0
M  V30 812 H 79.7833 -0.0448345 -3.03667 0
M  V30 813 H 77.3683 -0.0877418 -1.49142 0
M  V30 814 H 79.2503 2.3663 -3.48689 0
M  V30 815 H 77.9253 2.28395 -2.29385 0
M  V30 816 H 76.8323 0.452436 -3.71354 0
M  V30 817 H 78.1653 0.614805 -4.88345 0
M  V30 818 N 79.8174 1.5752 -0.0501392 0
M  V30 819 C 80.7804 2.1037 0.909786 0
M  V30 820 C 81.7804 1.02308 1.24056 0
M  V30 821 O 82.9704 1.28385 1.17741 0
M  V30 822 C 80.1024 2.58708 2.21998 0
M  V30 823 H 81.2954 2.96479 0.451665 0
M  V30 824 H 78.8484 1.55038 0.198248 0
M  V30 825 H 79.5834 1.75989 2.72394 0
M  V30 826 H 79.3684 3.37675 1.99295 0
M  V30 827 H 80.8584 2.99747 2.9076 0
M  V30 828 N 81.2955 -0.223234 1.56011 0
M  V30 829 C 82.5445 -0.945912 1.78144 0
M  V30 830 C 82.8575 -1.85567 0.618396 0
M  V30 831 O 84.0635 -2.61688 0.723318 0
M  V30 832 C 82.5195 -1.73216 3.15475 0
M  V30 833 C 82.1275 -0.868619 4.39499 0
M  V30 834 C 83.8715 -2.44615 3.46935 0
M  V30 835 C 81.7785 -1.65212 5.67855 0
M  V30 836 H 80.7085 -0.356929 0.664167 0
M  V30 837 H 83.3595 -0.199845 1.82409 0
M  V30 838 H 81.7415 -2.52107 3.05382 0
M  V30 839 H 82.9155 -0.120366 4.60643 0
M  V30 840 H 81.2305 -0.26683 4.15544 0
M  V30 841 H 83.8275 -3.03732 4.40058 0
M  V30 842 H 84.1705 -3.17417 2.69355 0
M  V30 843 H 84.7035 -1.72715 3.58349 0
M  V30 844 H 81.4425 -0.967407 6.48322 0
M  V30 845 H 80.9625 -2.37503 5.50774 0
M  V30 846 H 82.6415 -2.21322 6.07968 0
M  V30 847 N 82.7736 -1.49793 -0.48987 0
M  V30 848 C 84.0136 -1.61466 -1.25332 0
M  V30 849 C 84.3776 -0.299688 -1.89647 0
M  V30 850 O 85.5786 -0.291687 -2.67213 0
M  V30 851 C 83.8496 -2.74944 -2.28343 0
M  V30 852 S 85.4086 -3.06637 -3.13878 0
M  V30 853 H 82.2266 -0.569411 -0.425784 0
M  V30 854 H 84.8286 -1.875 -0.553541 0
M  V30 855 H 83.5326 -3.68994 -1.79643 0
M  V30 856 H 83.0636 -2.50938 -3.02975 0
M  V30 857 H 85.0786 -2.49015 -4.29192 0
M  V30 858 N 84.2517 0.741722 -1.39055 0
M  V30 859 C 85.6677 1.04638 -1.20512 0
M  V30 860 C 85.8677 2.01405 -0.0620218 0
M  V30 861 O 84.9237 2.45547 0.588457 0
M  V30 862 C 86.2367 1.6151 -2.53643 0
M  V30 863 C 87.7847 1.73623 -2.6043 0
M  V30 864 C 88.2597 2.33906 -3.93767 0
M  V30 865 N 89.7507 2.41323 -3.9537 0
M  V30 866 C 90.4857 2.88888 -4.95309 0
M  V30 867 N 89.9817 3.36401 -6.05645 0
M  V30 868 N 91.7747 2.88037 -4.82692 0
M  V30 869 H 83.9257 0.0998155 -2.12165 0
M  V30 870 H 86.1887 0.106907 -0.941953 0
M  V30 871 H 85.8947 0.978739 -3.37807 0
M  V30 872 H 85.7687 2.60411 -2.72885 0
M  V30 873 H 88.1557 2.36384 -1.76655 0
M  V30 874 H 88.2367 0.733945 -2.45045 0
M  V30 875 H 87.8807 1.71776 -4.7797 0
M  V30 876 H 87.8107 3.34799 -4.06469 0
M  V30 877 H 90.3017 2.07734 -3.15682 0
M  V30 878 H 90.6147 3.71186 -6.77821 0
M  V30 879 H 88.9597 3.34427 -6.09248 0
M  V30 880 H 92.1507 2.50237 -3.95599 0
M  V30 881 H 92.3237 3.24792 -5.60726 0
M  V30 882 N 85.7298 1.2412 0.971189 0
M  V30 883 C 87.1458 1.00584 1.23916 0
M  V30 884 C 87.3458 -0.287481 1.99439 0
M  V30 885 O 86.4018 -1.00454 2.31658 0
M  V30 886 C 87.7148 2.21864 2.0297 0
M  V30 887 C 89.2628 2.26452 2.16076 0
M  V30 888 C 89.7378 3.47343 2.98524 0
M  V30 889 N 91.2288 3.47639 3.06107 0
M  V30 890 C 91.9638 4.37837 3.70251 0
M  V30 891 N 91.4598 5.38286 4.36142 0
M  V30 892 N 93.2528 4.25558 3.67228 0
M  V30 893 H 85.4038 2.07236 0.465499 0
M  V30 894 H 87.6668 0.909236 0.268315 0
M  V30 895 H 87.3728 3.15771 1.54861 0
M  V30 896 H 87.2468 2.23698 3.03709 0
M  V30 897 H 89.6338 1.33078 2.6339 0
M  V30 898 H 89.7148 2.28645 1.14696 0
M  V30 899 H 89.3588 4.41029 2.51905 0
M  V30 900 H 89.2888 3.42393 4.00093 0
M  V30 901 H 91.7798 2.74966 2.59233 0
M  V30 902 H 92.0928 6.03352 4.82894 0
M  V30 903 H 90.4378 5.42176 4.34822 0
M  V30 904 H 93.6288 3.46322 3.14927 0
M  V30 905 H 93.8018 4.96054 4.16935 0
M  V30 906 N 87.2079 -1.17134 1.05439 0
M  V30 907 C 88.1379 -2.2342 0.678649 0
M  V30 908 C 89.1189 -1.66971 -0.32476 0
M  V30 909 O 90.3039 -1.93149 -0.201802 0
M  V30 910 C 87.4339 -3.47256 0.0552099 0
M  V30 911 C 86.3879 -4.16543 0.98365 0
M  V30 912 C 85.7139 -5.34231 0.223961 0
M  V30 913 C 87.0139 -4.68495 2.3089 0
M  V30 914 H 88.7079 -2.55105 1.56722 0
M  V30 915 H 86.2539 -1.2262 0.754998 0
M  V30 916 H 88.2069 -4.20828 -0.21946 0
M  V30 917 H 86.9309 -3.14846 -0.868319 0
M  V30 918 H 85.5899 -3.44887 1.24293 0
M  V30 919 H 85.2379 -4.98071 -0.702412 0
M  V30 920 H 84.9379 -5.81527 0.842627 0
M  V30 921 H 86.4619 -6.10585 -0.0433671 0
M  V30 922 H 87.8759 -5.33691 2.09396 0
M  V30 923 H 86.2729 -5.26379 2.88176 0
M  V30 924 H 87.3429 -3.85169 2.94572 0
M  V30 925 N 88.686 -0.835752 -1.33615 0
M  V30 926 C 89.633 -0.26473 -2.29277 0
M  V30 927 C 90.603 0.617712 -1.54187 0
M  V30 928 O 91.788 0.556641 -1.825 0
M  V30 929 C 88.928 0.556777 -3.40579 0
M  V30 930 C 88.041 -0.349339 -4.30585 0
M  V30 931 C 87.176 0.482969 -5.29 0
M  V30 932 C 86.215 -0.421732 -6.10645 0
M  V30 933 N 85.352 0.372262 -7.01112 0
M  V30 934 H 90.192 -1.08582 -2.77514 0
M  V30 935 H 87.729 -0.546927 -1.36554 0
M  V30 936 H 89.687 1.04852 -4.03809 0
M  V30 937 H 88.317 1.34286 -2.93542 0
M  V30 938 H 87.369 -0.959372 -3.68104 0
M  V30 939 H 88.681 -1.04445 -4.87742 0
M  V30 940 H 87.835 1.03866 -5.97743 0
M  V30 941 H 86.574 1.21153 -4.72412 0
M  V30 942 H 85.579 -0.989464 -5.40823 0
M  V30 943 H 86.804 -1.14861 -6.69316 0
M  V30 944 H 84.75 1.08426 -6.46977 0
M  V30 945 H 84.667 -0.264198 -7.55538 0
M  V30 946 H 85.935 0.910293 -7.74167 0
M  V30 947 N 90.1641 1.46063 -0.591896 0
M  V30 948 C 91.3921 2.06717 -0.0868936 0
M  V30 949 C 91.8071 1.43916 1.22203 0
M  V30 950 O 91.1641 0.547698 1.74088 0
M  V30 951 C 91.2151 3.6142 0.0758725 0
M  V30 952 O 90.9361 4.21874 -1.18126 0
M  V30 953 C 92.4371 4.39025 0.61416 0
M  V30 954 H 89.6571 0.668162 -0.0616518 0
M  V30 955 H 92.2011 1.8755 -0.815175 0
M  V30 956 H 90.3561 3.79983 0.754413 0
M  V30 957 H 90.7701 5.14861 -1.00092 0
M  V30 958 H 92.2441 5.4783 0.677193 0
M  V30 959 H 92.7211 4.07708 1.63312 0
M  V30 960 H 93.3271 4.2529 -0.0298142 0
M  V30 961 N 91.6422 0.330177 1.54103 0
M  V30 962 C 92.8672 -0.274893 2.0557 0
M  V30 963 C 93.2922 -1.44487 1.20437 0
M  V30 964 O 92.6502 -1.80021 0.214991 0
M  V30 965 C 92.6982 -0.68079 3.54115 0
M  V30 966 O 91.8022 -1.7824 3.71893 0
M  V30 967 H 91.1432 -0.0483849 0.662235 0
M  V30 968 H 93.6732 0.480508 1.98878 0
M  V30 969 H 93.6832 -0.961635 3.96505 0
M  V30 970 H 92.3582 0.174903 4.15532 0
M  V30 971 H 90.9352 -1.49985 3.41407 0
M  V30 972 N 93.1203 -1.57491 0.0584922 0
M  V30 973 C 94.5313 -1.80526 -0.476138 0
M  V30 974 C 94.8823 -0.971334 -1.70469 0
M  V30 975 O 94.0073 -0.190012 -2.15564 0
M  V30 976 C 94.6023 -3.27424 -0.870587 0
M  V30 977 C 93.1613 -3.51351 -1.35015 0
M  V30 978 C 92.3083 -2.75343 -0.32887 0
M  V30 979 H 95.2593 -1.56133 0.284312 0
M  V30 980 H 95.2803 -3.38745 -1.73299 0
M  V30 981 H 94.7923 -3.88093 0.0237627 0
M  V30 982 H 92.8933 -2.95971 -2.26345 0
M  V30 983 H 93.0063 -4.60059 -1.33726 0
M  V30 984 H 91.3703 -2.417 -0.803321 0
M  V30 985 H 92.1533 -3.38743 0.557521 0
M  V30 986 N 94.5984 0.214957 -1.56127 0
M  V30 987 C 95.8444 0.939762 -1.79712 0
M  V30 988 C 96.1774 1.83723 -0.629247 0
M  V30 989 O 95.4524 1.90925 0.371197 0
M  V30 990 C 95.7354 1.77306 -3.13424 0
M  V30 991 C 95.5884 0.90164 -4.40671 0
M  V30 992 C 96.9074 2.74956 -3.43638 0
M  V30 993 H 94.0264 0.340214 -0.653776 0
M  V30 994 H 96.6684 0.20824 -1.88855 0
M  V30 995 H 94.8184 2.39673 -3.0576 0
M  V30 996 H 96.4904 0.294206 -4.60361 0
M  V30 997 H 94.7334 0.207368 -4.33304 0
M  V30 998 H 95.4044 1.51923 -5.30682 0
M  V30 999 H 97.8804 2.22724 -3.51473 0
M  V30 1000 H 96.7564 3.30358 -4.38355 0
M  V30 1001 H 97.0174 3.53023 -2.66134 0
M  V30 1002 N 96.0765 1.50051 0.48192 0
M  V30 1003 C 96.9865 1.7089 1.60728 0
M  V30 1004 C 98.0025 0.591788 1.63627 0
M  V30 1005 O 99.1785 0.868817 1.81696 0
M  V30 1006 C 96.2435 1.78855 2.97005 0
M  V30 1007 C 95.3045 3.02537 3.04581 0
M  V30 1008 C 94.5375 3.10112 4.34357 0
M  V30 1009 O 94.7605 2.24765 5.24249 0
M  V30 1010 O 93.6945 4.02747 4.47301 0
M  V30 1011 H 97.5205 2.66264 1.46072 0
M  V30 1012 H 95.1055 1.34018 0.660264 0
M  V30 1013 H 96.9875 1.86336 3.77964 0
M  V30 1014 H 95.6625 0.866628 3.11883 0
M  V30 1015 H 94.5695 3.00563 2.22739 0
M  V30 1016 H 95.9025 3.94272 2.94636 0
M  V30 1017 N 97.5546 -0.734337 1.39446 0
M  V30 1018 C 98.8026 -1.49096 1.36436 0
M  V30 1019 C 99.1236 -1.94961 -0.0388255 0
M  V30 1020 O 98.3936 -1.69033 -0.990191 0
M  V30 1021 H 96.9736 -0.5531 0.502085 0
M  V30 1022 H 99.6356 -0.871725 1.74319 0
M  V30 1023 H 98.7316 -2.37276 2.02747 0
M  V30 1024 N 99.0327 -1.24633 -0.964593 0
M  V30 1025 C 99.9627 -1.06611 -2.07741 0
M  V30 1026 C 100.944 0.0218666 -1.70086 0
M  V30 1027 O 102.129 -0.145793 -1.93652 0
M  V30 1028 C 99.2587 -0.673444 -3.40708 0
M  V30 1029 C 98.2127 -1.71054 -3.92332 0
M  V30 1030 C 97.5387 -1.17285 -5.21678 0
M  V30 1031 C 98.8387 -3.10718 -4.19824 0
M  V30 1032 H 100.533 -1.99693 -2.23076 0
M  V30 1033 H 98.0787 -0.96152 -1.07195 0
M  V30 1034 H 100.032 -0.534345 -4.17998 0
M  V30 1035 H 98.7557 0.293073 -3.25282 0
M  V30 1036 H 97.4147 -1.83791 -3.17201 0
M  V30 1037 H 97.0627 -0.196847 -5.02615 0
M  V30 1038 H 96.7627 -1.86592 -5.57187 0
M  V30 1039 H 98.2867 -1.04593 -6.01575 0
M  V30 1040 H 99.7007 -3.01192 -4.87808 0
M  V30 1041 H 98.0977 -3.77406 -4.66567 0
M  V30 1042 H 99.1677 -3.58524 -3.26479 0
M  V30 1043 N 100.511 1.16574 -1.06058 0
M  V30 1044 C 101.922 1.68662 -0.800632 0
M  V30 1045 C 102.273 1.84184 0.67608 0
M  V30 1046 O 101.398 1.53568 1.52466 0
M  V30 1047 C 101.993 3.06356 -1.44676 0
M  V30 1048 C 100.552 3.55575 -1.23465 0
M  V30 1049 C 99.6988 2.31616 -1.52477 0
M  V30 1050 H 102.65 1.00969 -1.22438 0
M  V30 1051 H 102.671 3.70636 -0.860788 0
M  V30 1052 H 102.183 2.95027 -2.52152 0
M  V30 1053 H 100.284 3.72167 -0.179527 0
M  V30 1054 H 100.397 4.37812 -1.94571 0
M  V30 1055 H 98.7608 2.36512 -0.945209 0
M  V30 1056 H 99.5438 2.22887 -2.61106 0
M  V30 1057 N 101.989 0.842826 1.3317 0
M  V30 1058 C 103.237 0.439577 1.97262 0
M  V30 1059 C 103.558 -1.00548 1.67078 0
M  V30 1060 O 102.828 -1.70098 0.971779 0
M  V30 1061 H 101.408 0.159558 0.72976 0
M  V30 1062 H 104.07 1.07665 1.62463 0
M  V30 1063 H 103.166 0.574886 3.0676 0
M  V30 1064 N 103.467 -1.45747 0.599634 0
M  V30 1065 C 104.695 -2.06668 0.0978551 0
M  V30 1066 C 105.11 -1.44562 -1.21439 0
M  V30 1067 O 104.467 -0.556923 -1.73795 0
M  V30 1068 C 104.518 -3.61456 -0.0567044 0
M  V30 1069 O 104.239 -4.21242 1.20361 0
M  V30 1070 C 105.74 -4.39345 -0.590869 0
M  V30 1071 H 102.96 -0.667825 0.0651943 0
M  V30 1072 H 105.504 -1.87115 0.82511 0
M  V30 1073 H 103.659 -3.80378 -0.734251 0
M  V30 1074 H 104.073 -5.14323 1.02821 0
M  V30 1075 H 105.547 -5.48182 -0.648131 0
M  V30 1076 H 106.024 -4.08568 -1.61147 0
M  V30 1077 H 106.63 -4.25268 0.0523679 0
M  V30 1078 N 104.945 -0.338344 -1.53925 0
M  V30 1079 C 105.908 0.508299 -2.23493 0
M  V30 1080 C 106.908 1.03175 -1.23335 0
M  V30 1081 O 108.098 0.921826 -1.47811 0
M  V30 1082 C 105.23 1.70754 -2.95052 0
M  V30 1083 H 106.423 -0.100058 -2.99733 0
M  V30 1084 H 103.976 -0.0896198 -1.56043 0
M  V30 1085 H 104.711 2.35474 -2.22986 0
M  V30 1086 H 104.496 1.33946 -3.68512 0
M  V30 1087 H 105.986 2.30818 -3.48013 0
M  V30 1088 N 106.423 1.57458 -0.0668435 0
M  V30 1089 C 107.834 1.80776 0.466558 0
M  V30 1090 C 108.185 0.980361 1.69951 0
M  V30 1091 O 107.31 0.201441 2.1546 0
M  V30 1092 C 107.905 3.27881 0.85321 0
M  V30 1093 C 106.464 3.52062 1.3315 0
M  V30 1094 C 105.611 2.75513 0.314264 0
M  V30 1095 H 108.562 1.5598 -0.292588 0
M  V30 1096 H 108.583 3.39659 1.715 0
M  V30 1097 H 108.095 3.88075 -0.0443439 0
M  V30 1098 H 106.196 2.97167 2.24772 0
M  V30 1099 H 106.309 4.60762 1.31285 0
M  V30 1100 H 104.673 2.42123 0.790492 0
M  V30 1101 H 105.456 3.38442 -0.575477 0
M  V30 1102 N 107.901 -0.206675 1.56239 0
M  V30 1103 C 109.178 -0.954051 1.70755 0
M  V30 1104 C 109.558 -2.01841 0.618353 0
M  V30 1105 O 108.906 -2.25444 -0.372434 0
M  V30 1106 C 109.116 -1.551 3.12642 0
M  V30 1107 C 110.464 -2.03757 3.72516 0
M  V30 1108 O 111.488 -1.64965 3.15698 0
M  V30 1109 O 110.347 -2.75103 4.72208 0
M  V30 1110 H 107.441 -0.446636 0.696021 0
M  V30 1111 H 109.987 -0.197283 1.68549 0
M  V30 1112 H 108.759 -0.783212 3.83382 0
M  V30 1113 H 108.382 -2.37291 3.19028 0
M  V30 1114 N 109.379 -1.50304 -0.473955 0
M  V30 1115 C 110.309 -1.71886 -1.58042 0
M  V30 1116 C 111.29 -0.567799 -1.60344 0
M  V30 1117 O 112.475 -0.806623 -1.76656 0
M  V30 1118 C 109.605 -1.81036 -2.96384 0
M  V30 1119 C 108.559 -2.962 -3.08949 0
M  V30 1120 C 107.885 -2.9049 -4.48909 0
M  V30 1121 C 109.185 -4.36752 -2.86434 0
M  V30 1122 H 110.879 -2.64527 -1.40234 0
M  V30 1123 H 108.425 -1.27295 -0.673201 0
M  V30 1124 H 110.378 -1.94719 -3.73714 0
M  V30 1125 H 109.102 -0.850147 -3.15341 0
M  V30 1126 H 107.761 -2.82164 -2.3405 0
M  V30 1127 H 107.409 -1.92321 -4.64781 0
M  V30 1128 H 107.109 -3.67802 -4.58253 0
M  V30 1129 H 108.633 -3.06218 -5.28264 0
M  V30 1130 H 110.047 -4.5133 -3.53517 0
M  V30 1131 H 108.444 -5.15493 -3.07225 0
M  V30 1132 H 109.514 -4.49321 -1.82316 0
M  V30 1133 N 110.857 0.726932 -1.39834 0
M  V30 1134 C 111.767 1.87131 -1.41489 0
M  V30 1135 C 112.783 1.71239 -0.308757 0
M  V30 1136 O 113.959 1.93701 -0.551529 0
M  V30 1137 C 111.024 3.22811 -1.26468 0
M  V30 1138 C 110.085 3.51039 -2.47124 0
M  V30 1139 C 109.318 4.80245 -2.3281 0
M  V30 1140 O 109.541 5.54537 -1.33585 0
M  V30 1141 O 108.475 5.08554 -3.21957 0
M  V30 1142 H 112.301 1.8869 -2.3797 0
M  V30 1143 H 109.886 0.875837 -1.21035 0
M  V30 1144 H 111.768 4.03877 -1.20255 0
M  V30 1145 H 110.443 3.22005 -0.330862 0
M  V30 1146 H 109.35 2.70027 -2.58914 0
M  V30 1147 H 110.683 3.56632 -3.39227 0
M  V30 1148 N 112.336 1.25143 0.95797 0
M  V30 1149 C 113.283 1.05235 2.05412 0
M  V30 1150 C 114.253 -0.0374561 1.66058 0
M  V30 1151 O 115.438 0.119073 1.90428 0
M  V30 1152 C 112.578 0.673589 3.38462 0
M  V30 1153 C 111.691 1.8379 3.90954 0
M  V30 1154 C 110.826 1.40381 5.12315 0
M  V30 1155 C 109.865 2.53746 5.57027 0
M  V30 1156 N 109.002 2.11136 6.69601 0
M  V30 1157 H 113.842 1.99048 2.21774 0
M  V30 1158 H 111.379 0.991277 1.08683 0
M  V30 1159 H 113.337 0.434964 4.14926 0
M  V30 1160 H 111.967 -0.227554 3.21997 0
M  V30 1161 H 111.019 2.18992 3.11041 0
M  V30 1162 H 112.331 2.68937 4.20089 0
M  V30 1163 H 111.485 1.12464 5.96185 0
M  V30 1164 H 110.224 0.523015 4.84887 0
M  V30 1165 H 109.229 2.82412 4.71724 0
M  V30 1166 H 110.454 3.42398 5.86464 0
M  V30 1167 H 108.4 1.25468 6.4389 0
M  V30 1168 H 108.317 2.89832 6.98236 0
M  V30 1169 H 109.585 1.86385 7.56889 0
M  V30 1170 N 113.814 -1.1601 1.06675 0
M  V30 1171 C 115.23 -1.38622 0.790948 0
M  V30 1172 C 115.43 -1.92109 -0.607965 0
M  V30 1173 O 114.486 -2.12239 -1.36787 0
M  V30 1174 C 115.799 -2.36347 1.85905 0
M  V30 1175 C 117.347 -2.50023 1.88301 0
M  V30 1176 C 117.822 -3.51033 2.94176 0
M  V30 1177 N 119.313 -3.58563 2.93235 0
M  V30 1178 C 120.048 -4.36521 3.71803 0
M  V30 1179 N 119.544 -5.17869 4.602 0
M  V30 1180 N 121.337 -4.31541 3.60178 0
M  V30 1181 H 113.488 -0.796294 1.96908 0
M  V30 1182 H 115.751 -0.412597 0.853503 0
M  V30 1183 H 115.457 -2.04147 2.86386 0
M  V30 1184 H 115.331 -3.36042 1.71334 0
M  V30 1185 H 117.718 -2.81524 0.884769 0
M  V30 1186 H 117.799 -1.5035 2.06951 0
M  V30 1187 H 117.443 -3.20268 3.94196 0
M  V30 1188 H 117.373 -4.50445 2.72776 0
M  V30 1189 H 119.864 -3.00496 2.29152 0
M  V30 1190 H 120.177 -5.74578 5.16797 0
M  V30 1191 H 118.522 -5.17199 4.64253 0
M  V30 1192 H 121.713 -3.67051 2.90502 0
M  V30 1193 H 121.886 -4.9205 4.21653 0
M  V30 1194 N 115.292 -0.849877 -1.32721 0
M  V30 1195 C 116.239 -0.289033 -2.28983 0
M  V30 1196 C 117.209 0.601324 -1.54833 0
M  V30 1197 O 118.394 0.537253 -1.8308 0
M  V30 1198 C 115.534 0.520623 -3.4115 0
M  V30 1199 C 114.647 -0.394989 -4.3019 0
M  V30 1200 C 113.782 0.426834 -5.29482 0
M  V30 1201 C 112.821 -0.486476 -6.10164 0
M  V30 1202 N 111.958 0.297879 -7.01468 0
M  V30 1203 H 116.798 -1.11519 -2.76347 0
M  V30 1204 H 114.335 -0.56138 -1.35967 0
M  V30 1205 H 116.293 1.00563 -4.04899 0
M  V30 1206 H 114.923 1.31165 -2.9495 0
M  V30 1207 H 113.975 -0.99836 -3.67065 0
M  V30 1208 H 115.287 -1.09612 -4.86607 0
M  V30 1209 H 114.441 0.975205 -5.98811 0
M  V30 1210 H 113.18 1.16136 -4.73671 0
M  V30 1211 H 112.185 -1.04677 -5.39743 0
M  V30 1212 H 113.41 -1.21953 -6.6806 0
M  V30 1213 H 111.356 1.01558 -6.48091 0
M  V30 1214 H 111.273 -0.344318 -7.55216 0
M  V30 1215 H 112.541 0.828131 -7.75089 0
M  V30 1216 N 116.77 1.45427 -0.607355 0
M  V30 1217 C 117.702 2.2871 0.149752 0
M  V30 1218 C 118.715 1.39937 0.831958 0
M  V30 1219 O 119.904 1.64313 0.697385 0
M  V30 1220 C 117.004 3.15673 1.23304 0
M  V30 1221 C 116.177 4.32722 0.637996 0
M  V30 1222 C 115.236 5.00895 1.61215 0
M  V30 1223 O 114.262 5.57697 1.13854 0
M  V30 1224 N 115.464 5.00159 2.94655 0
M  V30 1225 H 118.229 2.94328 -0.564882 0
M  V30 1226 H 115.79 1.55612 -0.446823 0
M  V30 1227 H 117.782 3.58144 1.88454 0
M  V30 1228 H 116.352 2.51965 1.8502 0
M  V30 1229 H 115.572 3.93734 -0.191572 0
M  V30 1230 H 116.86 5.08321 0.220665 0
M  V30 1231 H 116.258 4.553 3.35735 0
M  V30 1232 H 114.815 5.46495 3.55228 0
M  V30 1233 N 118.248 0.346503 1.53744 0
M  V30 1234 C 119.497 -0.250122 2.00143 0
M  V30 1235 C 119.81 -1.51418 1.23822 0
M  V30 1236 O 121.016 -2.18823 1.60713 0
M  V30 1237 C 119.472 -0.496252 3.56462 0
M  V30 1238 C 119.08 0.752077 4.41642 0
M  V30 1239 C 120.824 -1.05157 4.11269 0
M  V30 1240 C 118.731 0.476583 5.89477 0
M  V30 1241 H 117.661 -0.0972409 0.747703 0
M  V30 1242 H 120.312 0.46229 1.77581 0
M  V30 1243 H 118.694 -1.26944 3.75102 0
M  V30 1244 H 119.868 1.5266 4.34778 0
M  V30 1245 H 118.183 1.22925 3.97842 0
M  V30 1246 H 120.78 -1.27269 5.19333 0
M  V30 1247 H 121.123 -2.00799 3.64672 0
M  V30 1248 H 121.656 -0.339019 3.96353 0
M  V30 1249 H 118.395 1.4028 6.40314 0
M  V30 1250 H 117.915 -0.259794 5.99237 0
M  V30 1251 H 119.594 0.0949315 6.4693 0
M  V30 1252 N 119.726 -1.57421 0.075193 0
M  V30 1253 C 120.973 -1.93618 -0.593146 0
M  V30 1254 C 121.301 -0.955484 -1.69413 0
M  V30 1255 O 120.556 0.0283251 -1.9568 0
M  V30 1256 C 120.855 -3.36428 -1.20626 0
M  V30 1257 C 120.521 -4.50307 -0.231078 0
M  V30 1258 C 119.183 -4.81186 0.0371936 0
M  V30 1259 C 121.535 -5.19374 0.435888 0
M  V30 1260 C 118.863 -5.78466 0.979461 0
M  V30 1261 C 121.215 -6.17665 1.3665 0
M  V30 1262 C 119.879 -6.46958 1.6432 0
M  V30 1263 H 119.149 -0.708499 -0.217047 0
M  V30 1264 H 121.796 -1.90937 0.146793 0
M  V30 1265 H 120.101 -3.35592 -2.02201 0
M  V30 1266 H 121.798 -3.61727 -1.73073 0
M  V30 1267 H 118.388 -4.26227 -0.450357 0
M  V30 1268 H 122.572 -4.95711 0.241748 0
M  V30 1269 H 117.828 -5.99487 1.20106 0
M  V30 1270 H 122.002 -6.70284 1.88924 0
M  V30 1271 H 119.629 -7.2215 2.37494 0
M  V30 1272 N 121.204 0.198386 -1.56346 0
M  V30 1273 C 122.452 0.91747 -1.80075 0
M  V30 1274 C 122.773 1.83929 -0.647692 0
M  V30 1275 O 122.043 1.93029 0.334166 0
M  V30 1276 H 120.623 0.341774 -0.664228 0
M  V30 1277 H 123.285 0.204684 -1.93822 0
M  V30 1278 H 122.381 1.51055 -2.7311 0
M  V30 1279 N 122.682 1.50554 0.465978 0
M  V30 1280 C 123.614 1.65949 1.58093 0
M  V30 1281 C 124.627 0.540827 1.53554 0
M  V30 1282 O 125.816 0.814187 1.5885 0
M  V30 1283 C 122.916 1.63261 2.96983 0
M  V30 1284 C 122.089 2.91245 3.26336 0
M  V30 1285 C 121.148 2.8113 4.44806 0
M  V30 1286 O 120.174 3.55086 4.44862 0
M  V30 1287 N 121.376 1.95032 5.46756 0
M  V30 1288 H 124.141 2.62122 1.45301 0
M  V30 1289 H 121.702 1.48082 0.65448 0
M  V30 1290 H 123.694 1.54101 3.74212 0
M  V30 1291 H 122.264 0.748032 3.03518 0
M  V30 1292 H 121.484 3.14493 2.37672 0
M  V30 1293 H 122.772 3.76022 3.42761 0
M  V30 1294 H 122.17 1.3427 5.49534 0
M  V30 1295 H 120.727 1.91772 6.2295 0
M  V30 1296 N 124.16 -0.719506 1.40217 0
M  V30 1297 C 125.108 -1.85493 1.40339 0
M  V30 1298 C 126.102 -1.66995 0.284415 0
M  V30 1299 O 127.308 -1.74148 0.455252 0
M  V30 1300 H 123.683 -0.610857 0.438586 0
M  V30 1301 H 125.654 -1.82506 2.36081 0
M  V30 1302 C 124.403 -3.23321 1.27901 0
M  V30 1303 H 123.726 -3.38159 2.1328 0
M  V30 1304 H 125.166 -4.02914 1.32045 0
M  V30 1305 C 123.625 -3.36898 -0.0111355 0
M  V30 1306 O 124.155 -3.89674 -0.975538 0
M  V30 1307 N 122.361 -2.90492 -0.0793393 0
M  V30 1308 H 121.908 -2.47731 0.706183 0
M  V30 1309 H 121.866 -2.99955 -0.942038 0
M  V30 1310 N 125.638 -1.25649 -0.95132 0
M  V30 1311 C 126.885 -1.10594 -1.69633 0
M  V30 1312 C 127.213 0.352515 -1.91279 0
M  V30 1313 O 126.468 1.27601 -1.4838 0
M  V30 1314 C 126.767 -1.80909 -3.08231 0
M  V30 1315 C 126.433 -3.30825 -3.06375 0
M  V30 1316 C 125.095 -3.71722 -3.05576 0
M  V30 1317 C 127.447 -4.26589 -2.99452 0
M  V30 1318 C 124.775 -5.06788 -2.95606 0
M  V30 1319 C 127.127 -5.61683 -2.91024 0
M  V30 1320 C 125.791 -6.01904 -2.88562 0
M  V30 1321 H 125.061 -0.404691 -0.620731 0
M  V30 1322 H 127.708 -1.55964 -1.11119 0
M  V30 1323 H 126.013 -1.27979 -3.70309 0
M  V30 1324 H 127.71 -1.6671 -3.64704 0
M  V30 1325 H 124.3 -2.98287 -3.07771 0
M  V30 1326 H 128.484 -3.95982 -2.99185 0
M  V30 1327 H 123.74 -5.37126 -2.92071 0
M  V30 1328 H 127.914 -6.35578 -2.84629 0
M  V30 1329 H 125.541 -7.06521 -2.80593 0
M  V30 1330 N 127.117 1.15442 -1.07289 0
M  V30 1331 C 128.366 1.85557 -0.790669 0
M  V30 1332 C 128.679 1.83186 0.685739 0
M  V30 1333 O 129.885 2.48977 1.0827 0
M  V30 1334 C 128.341 3.33038 -1.36433 0
M  V30 1335 C 127.949 3.43856 -2.8717 0
M  V30 1336 C 129.693 4.0834 -1.1601 0
M  V30 1337 C 127.6 4.85482 -3.3773 0
M  V30 1338 H 126.53 0.695122 -0.292098 0
M  V30 1339 H 129.181 1.30219 -1.29287 0
M  V30 1340 H 127.563 3.88043 -0.789864 0
M  V30 1341 H 128.737 2.98961 -3.50655 0
M  V30 1342 H 127.052 2.81998 -3.06376 0
M  V30 1343 H 129.649 5.12859 -1.51262 0
M  V30 1344 H 129.992 4.16182 -0.0991007 0
M  V30 1345 H 130.525 3.59603 -1.70089 0
M  V30 1346 H 127.264 4.82823 -4.43353 0
M  V30 1347 H 126.784 5.30961 -2.78999 0
M  V30 1348 H 128.463 5.54335 -3.33648 0
M  V30 1349 N 128.595 0.856903 1.32268 0
M  V30 1350 C 130.006 0.515711 1.79436 0
M  V30 1351 C 130.357 -0.966586 1.70738 0
M  V30 1352 O 129.482 -1.75409 1.26731 0
M  V30 1353 C 130.077 0.929335 3.25805 0
M  V30 1354 C 128.636 0.640006 3.70919 0
M  V30 1355 C 127.783 1.12784 2.53328 0
M  V30 1356 H 130.734 1.04389 1.19535 0
M  V30 1357 H 130.755 0.246633 3.797 0
M  V30 1358 H 130.267 2.00821 3.32103 0
M  V30 1359 H 128.368 -0.428051 3.70133 0
M  V30 1360 H 128.481 1.20788 4.63624 0
M  V30 1361 H 126.845 0.548033 2.48734 0
M  V30 1362 H 127.628 2.21387 2.62379 0
M  V30 1363 N 130.073 -1.45103 0.615059 0
M  V30 1364 C 131.484 -1.85654 0.197383 0
M  V30 1365 C 131.835 -1.51433 -1.24749 0
M  V30 1366 O 130.96 -0.944608 -1.94695 0
M  V30 1367 C 131.555 -3.36972 0.351448 0
M  V30 1368 C 130.114 -3.76398 -0.011593 0
M  V30 1369 C 129.261 -2.69024 0.672394 0
M  V30 1370 H 132.212 -1.35797 0.821263 0
M  V30 1371 H 132.233 -3.78239 -0.414227 0
M  V30 1372 H 131.745 -3.61847 1.40314 0
M  V30 1373 H 129.846 -3.5714 -1.06217 0
M  V30 1374 H 129.959 -4.77532 0.387265 0
M  V30 1375 H 128.323 -2.54465 0.109284 0
M  V30 1376 H 129.106 -2.96735 1.72636 0
M  V30 1377 N 131.551 -0.354651 -1.53558 0
M  V30 1378 C 132.498 0.496968 -2.25386 0
M  V30 1379 C 133.468 1.0865 -1.25636 0
M  V30 1380 O 134.653 1.12104 -1.54394 0
M  V30 1381 C 131.793 1.63637 -3.03837 0
M  V30 1382 C 130.906 1.07307 -4.18461 0
M  V30 1383 C 130.041 2.18068 -4.84376 0
M  V30 1384 C 129.08 1.59147 -5.91049 0
M  V30 1385 N 128.217 2.63695 -6.50699 0
M  V30 1386 H 133.057 -0.122075 -2.9775 0
M  V30 1387 H 130.594 -0.0720154 -1.46924 0
M  V30 1388 H 132.552 2.30734 -3.47589 0
M  V30 1389 H 131.182 2.22623 -2.33749 0
M  V30 1390 H 130.234 0.292708 -3.79272 0
M  V30 1391 H 131.546 0.602193 -4.95152 0
M  V30 1392 H 130.7 2.93007 -5.31255 0
M  V30 1393 H 129.439 2.68504 -4.07133 0
M  V30 1394 H 128.444 0.827175 -5.43542 0
M  V30 1395 H 129.669 1.09549 -6.70206 0
M  V30 1396 H 127.615 3.13365 -5.76315 0
M  V30 1397 H 127.532 2.21263 -7.22896 0
M  V30 1398 H 128.8 3.3837 -7.02229 0
M  V30 1399 N 133.029 1.57378 -0.0835403 0
M  V30 1400 C 133.976 2.13384 0.879539 0
M  V30 1401 C 134.946 1.04936 1.28754 0
M  V30 1402 O 136.131 1.32662 1.37133 0
M  V30 1403 C 133.271 2.70932 2.13752 0
M  V30 1404 C 132.384 3.93575 1.7811 0
M  V30 1405 C 131.519 4.39326 2.98607 0
M  V30 1406 C 130.558 5.54587 2.59037 0
M  V30 1407 N 129.695 5.95243 3.72331 0
M  V30 1408 H 134.535 2.9537 0.395076 0
M  V30 1409 H 132.072 1.45953 0.183349 0
M  V30 1410 H 134.03 3.02411 2.87408 0
M  V30 1411 H 132.66 1.91693 2.59718 0
M  V30 1412 H 131.712 3.68483 0.94469 0
M  V30 1413 H 133.024 4.77258 1.45005 0
M  V30 1414 H 132.178 4.72528 3.80529 0
M  V30 1415 H 130.917 3.5452 3.34913 0
M  V30 1416 H 129.922 5.21024 1.75539 0
M  V30 1417 H 131.147 6.41133 2.23887 0
M  V30 1418 H 129.093 5.13385 4.08378 0
M  V30 1419 H 129.01 6.73694 3.43034 0
M  V30 1420 H 130.278 6.33072 4.54797 0
M  V30 1421 N 134.507 -0.190092 1.56449 0
M  V30 1422 C 135.918 -0.754312 1.70784 0
M  V30 1423 C 136.269 -1.83631 0.690951 0
M  V30 1424 O 135.394 -2.15868 -0.151604 0
M  V30 1425 C 135.989 -1.37503 3.09642 0
M  V30 1426 C 134.548 -1.88628 3.25725 0
M  V30 1427 C 133.695 -0.758098 2.66736 0
M  V30 1428 H 136.646 0.0350524 1.58661 0
M  V30 1429 H 136.667 -2.2445 3.0725 0
M  V30 1430 H 136.179 -0.587302 3.83631 0
M  V30 1431 H 134.28 -2.70103 2.56661 0
M  V30 1432 H 134.393 -2.04462 4.3328 0
M  V30 1433 H 132.757 -1.17369 2.26046 0
M  V30 1434 H 133.54 0.0174705 3.43296 0
M  V30 1435 N 135.985 -1.50799 -0.457987 0
M  V30 1436 C 136.932 -1.70617 -1.5543 0
M  V30 1437 C 137.902 -0.547562 -1.56815 0
M  V30 1438 O 139.087 -0.779647 -1.74144 0
M  V30 1439 C 136.227 -1.81831 -2.93311 0
M  V30 1440 C 135.34 -3.09278 -3.01615 0
M  V30 1441 C 134.475 -3.11209 -4.30491 0
M  V30 1442 C 133.514 -4.33055 -4.32585 0
M  V30 1443 N 132.651 -4.32652 -5.52952 0
M  V30 1444 H 137.491 -2.64207 -1.37836 0
M  V30 1445 H 135.028 -1.30959 -0.669937 0
M  V30 1446 H 136.986 -1.86314 -3.73287 0
M  V30 1447 H 135.616 -0.916685 -3.0951 0
M  V30 1448 H 134.668 -3.14203 -2.1443 0
M  V30 1449 H 135.98 -3.99233 -2.99022 0
M  V30 1450 H 135.134 -3.14494 -5.18824 0
M  V30 1451 H 133.873 -2.19106 -4.35711 0
M  V30 1452 H 132.878 -4.29969 -3.42647 0
M  V30 1453 H 134.103 -5.264 -4.29046 0
M  V30 1454 H 132.049 -3.43409 -5.58933 0
M  V30 1455 H 131.966 -5.16392 -5.52155 0
M  V30 1456 H 133.234 -4.40101 -6.43375 0
M  V30 1457 N 137.463 0.71206 -1.40597 0
M  V30 1458 C 138.691 1.50111 -1.42388 0
M  V30 1459 C 139.106 1.88784 -0.0245395 0
M  V30 1460 O 138.463 1.55681 0.952351 0
M  V30 1461 C 138.514 2.7742 -2.31776 0
M  V30 1462 O 138.235 2.40382 -3.66262 0
M  V30 1463 C 139.736 3.7129 -2.42196 0
M  V30 1464 H 136.956 0.46314 -0.485533 0
M  V30 1465 H 139.5 0.878068 -1.8469 0
M  V30 1466 H 137.655 3.36001 -1.92827 0
M  V30 1467 H 138.069 3.22324 -4.13772 0
M  V30 1468 H 139.543 4.57448 -3.08943 0
M  V30 1469 H 140.02 4.14641 -1.44809 0
M  V30 1470 H 140.626 3.18619 -2.81712 0
M  V30 1471 N 138.941 1.26152 0.944643 0
M  V30 1472 C 140.188 1.11492 1.69044 0
M  V30 1473 C 140.516 -0.342366 1.91463 0
M  V30 1474 O 139.771 -1.26812 1.49054 0
M  V30 1475 C 140.07 1.82541 3.07268 0
M  V30 1476 C 139.736 3.32445 3.04616 0
M  V30 1477 C 138.398 3.73337 3.036 0
M  V30 1478 C 140.75 4.28171 2.97185 0
M  V30 1479 C 138.078 5.08348 2.92915 0
M  V30 1480 C 140.43 5.63218 2.88041 0
M  V30 1481 C 139.094 6.03426 2.85366 0
M  V30 1482 H 138.364 0.407977 0.618576 0
M  V30 1483 H 141.011 1.56551 1.10291 0
M  V30 1484 H 139.316 1.29941 3.69625 0
M  V30 1485 H 141.013 1.68642 3.63815 0
M  V30 1486 H 137.603 2.99915 3.06185 0
M  V30 1487 H 141.787 3.97563 2.97081 0
M  V30 1488 H 137.043 5.38667 2.89219 0
M  V30 1489 H 141.217 6.37078 2.81254 0
M  V30 1490 H 138.844 7.07999 2.76842 0
M  V30 1491 N 140.419 -1.14872 1.07899 0
M  V30 1492 C 141.349 -2.2193 0.725887 0
M  V30 1493 C 142.33 -1.67622 -0.28927 0
M  V30 1494 O 143.515 -1.93533 -0.160787 0
M  V30 1495 C 140.645 -3.47061 0.128856 0
M  V30 1496 C 139.599 -4.14363 1.07178 0
M  V30 1497 C 138.925 -5.33636 0.337229 0
M  V30 1498 C 140.225 -4.63492 2.40775 0
M  V30 1499 H 141.919 -2.51724 1.62097 0
M  V30 1500 H 139.465 -1.20991 0.780838 0
M  V30 1501 H 141.418 -4.21199 -0.130147 0
M  V30 1502 H 140.142 -3.16617 -0.80134 0
M  V30 1503 H 138.801 -3.42173 1.3158 0
M  V30 1504 H 138.449 -4.99449 -0.596606 0
M  V30 1505 H 138.149 -5.79609 0.965788 0
M  V30 1506 H 139.673 -6.10539 0.0861567 0
M  V30 1507 H 141.087 -5.2913 2.20669 0
M  V30 1508 H 139.484 -5.20148 2.99276 0
M  V30 1509 H 140.554 -3.78834 3.02676 0
M  V30 1510 N 141.898 -0.863906 -1.31812 0
M  V30 1511 C 142.83 -0.272485 -2.27575 0
M  V30 1512 C 143.843 0.56104 -1.52827 0
M  V30 1513 O 145.032 0.384021 -1.7432 0
M  V30 1514 C 142.132 0.63283 -3.32939 0
M  V30 1515 C 141.305 -0.166902 -4.37081 0
M  V30 1516 C 140.364 0.665608 -5.21973 0
M  V30 1517 O 139.39 0.0958091 -5.69119 0
M  V30 1518 N 140.592 1.9787 -5.45736 0
M  V30 1519 H 143.357 -1.0954 -2.78964 0
M  V30 1520 H 140.918 -0.724791 -1.4477 0
M  V30 1521 H 142.91 1.19532 -3.86645 0
M  V30 1522 H 141.48 1.35642 -2.81638 0
M  V30 1523 H 140.7 -0.910838 -3.83533 0
M  V30 1524 H 141.988 -0.715874 -5.03739 0
M  V30 1525 H 141.386 2.46484 -5.09178 0
M  V30 1526 H 139.943 2.48911 -6.024 0
M  V30 1527 N 143.376 1.44774 -0.622745 0
M  V30 1528 C 144.306 2.33382 0.0741861 0
M  V30 1529 C 145.287 1.47719 0.843387 0
M  V30 1530 O 146.472 1.76458 0.810934 0
M  V30 1531 C 143.602 3.30663 1.06204 0
M  V30 1532 C 142.556 4.26079 0.405037 0
M  V30 1533 C 141.882 5.13165 1.5022 0
M  V30 1534 C 143.182 5.1781 -0.683414 0
M  V30 1535 H 144.876 2.91905 -0.665713 0
M  V30 1536 H 142.422 1.40363 -0.321587 0
M  V30 1537 H 144.375 3.9153 1.55827 0
M  V30 1538 H 143.099 2.70331 1.83272 0
M  V30 1539 H 141.758 3.66532 -0.0704683 0
M  V30 1540 H 141.406 4.49191 2.26355 0
M  V30 1541 H 141.106 5.77812 1.06803 0
M  V30 1542 H 142.63 5.76902 2.00041 0
M  V30 1543 H 144.044 5.72661 -0.270631 0
M  V30 1544 H 142.441 5.91015 -1.04023 0
M  V30 1545 H 143.511 4.59326 -1.55395 0
M  V30 1546 N 144.854 0.36279 1.53368 0
M  V30 1547 C 146.1 -0.228113 2.01513 0
M  V30 1548 C 146.433 -1.48648 1.2497 0
M  V30 1549 O 145.708 -1.91459 0.342616 0
M  V30 1550 C 145.991 -0.522884 3.56284 0
M  V30 1551 C 145.844 0.74892 4.43521 0
M  V30 1552 C 147.163 -1.32461 4.19693 0
M  V30 1553 H 144.282 -0.0814343 0.732487 0
M  V30 1554 H 146.924 0.48713 1.83649 0
M  V30 1555 H 145.074 -1.1322 3.71636 0
M  V30 1556 H 146.746 1.38648 4.39971 0
M  V30 1557 H 144.989 1.36986 4.11603 0
M  V30 1558 H 145.66 0.497667 5.49752 0
M  V30 1559 H 148.136 -0.809203 4.08156 0
M  V30 1560 H 147.012 -1.49961 5.28018 0
M  V30 1561 H 147.273 -2.33232 3.75573 0
M  V30 1562 N 146.332 -1.57332 0.0918853 0
M  V30 1563 C 147.578 -1.95328 -0.567313 0
M  V30 1564 C 147.933 -0.972866 -1.65991 0
M  V30 1565 O 147.226 0.00166256 -1.916 0
M  V30 1566 C 147.42 -3.37689 -1.17051 0
M  V30 1567 C 147.249 -4.49489 -0.137875 0
M  V30 1568 C 146.019 -5.04498 0.284515 0
M  V30 1569 C 148.217 -5.10393 0.63271 0
M  V30 1570 N 146.199 -5.99853 1.30576 0
M  V30 1571 C 147.57 -6.01435 1.50587 0
M  V30 1572 C 149.625 -4.93143 0.68658 0
M  V30 1573 C 148.328 -6.77077 2.42815 0
M  V30 1574 C 150.354 -5.69445 1.59645 0
M  V30 1575 C 149.716 -6.60151 2.45725 0
M  V30 1576 H 145.815 -0.761467 -0.178023 0
M  V30 1577 H 148.399 -1.93924 0.173706 0
M  V30 1578 H 146.57 -3.39793 -1.88136 0
M  V30 1579 H 148.302 -3.62872 -1.79181 0
M  V30 1580 H 145.057 -4.73489 -0.102593 0
M  V30 1581 H 145.481 -6.52231 1.81449 0
M  V30 1582 H 150.123 -4.22785 0.035244 0
M  V30 1583 H 147.841 -7.46699 3.08975 0
M  V30 1584 H 151.427 -5.58112 1.64323 0
M  V30 1585 H 150.307 -7.18159 3.14987 0
M  V30 1586 N 147.81 0.181792 -1.56548 0
M  V30 1587 C 148.72 1.24538 -1.98815 0
M  V30 1588 C 149.736 1.49045 -0.897861 0
M  V30 1589 O 150.912 1.61399 -1.20467 0
M  V30 1590 C 147.977 2.56683 -2.33055 0
M  V30 1591 C 147.038 2.40131 -3.55859 0
M  V30 1592 C 146.271 3.65975 -3.88456 0
M  V30 1593 O 146.494 4.70711 -3.22161 0
M  V30 1594 O 145.428 3.6071 -4.81842 0
M  V30 1595 H 149.254 0.916647 -2.89536 0
M  V30 1596 H 146.839 0.387842 -1.44278 0
M  V30 1597 H 148.721 3.34655 -2.56094 0
M  V30 1598 H 147.396 2.89157 -1.45498 0
M  V30 1599 H 146.303 1.60226 -3.38051 0
M  V30 1600 H 147.636 2.12585 -4.43924 0
M  V30 1601 N 149.288 1.51039 0.449983 0
M  V30 1602 C 150.251 1.70863 1.5277 0
M  V30 1603 C 151.251 0.578846 1.5002 0
M  V30 1604 O 152.441 0.846213 1.52266 0
M  V30 1605 C 149.573 1.75341 2.9235 0
M  V30 1606 H 150.766 2.67034 1.36502 0
M  V30 1607 H 148.319 1.40838 0.677812 0
M  V30 1608 H 149.054 0.809383 3.14037 0
M  V30 1609 H 148.839 2.57436 2.95752 0
M  V30 1610 H 150.329 1.92559 3.70555 0
M  V30 1611 N 150.766 -0.704594 1.40972 0
M  V30 1612 C 151.696 -1.83124 1.44872 0
M  V30 1613 C 152.677 -1.67281 0.30838 0
M  V30 1614 O 153.862 -1.87149 0.518556 0
M  V30 1615 C 150.992 -3.21181 1.32136 0
M  V30 1616 C 149.946 -3.51714 2.43888 0
M  V30 1617 C 149.272 -4.89032 2.16222 0
M  V30 1618 C 150.572 -3.516 3.86232 0
M  V30 1619 H 152.266 -1.80117 2.39161 0
M  V30 1620 H 149.812 -0.865145 1.15114 0
M  V30 1621 H 151.765 -3.99702 1.33479 0
M  V30 1622 H 150.489 -3.24791 0.343279 0
M  V30 1623 H 149.148 -2.75539 2.41813 0
M  V30 1624 H 148.796 -4.89256 1.16778 0
M  V30 1625 H 148.496 -5.10426 2.911 0
M  V30 1626 H 150.02 -5.69873 2.19265 0
M  V30 1627 H 151.434 -4.2014 3.9007 0
M  V30 1628 H 149.831 -3.84523 4.60719 0
M  V30 1629 H 150.901 -2.50757 4.15029 0
M  V30 1630 N 152.244 -1.26651 -0.937939 0
M  V30 1631 C 153.176 -1.04283 -2.04102 0
M  V30 1632 C 154.189 -0.00221014 -1.628 0
M  V30 1633 O 155.378 -0.242645 -1.76843 0
M  V30 1634 C 152.478 -0.557846 -3.34277 0
M  V30 1635 C 151.651 -1.66843 -4.04329 0
M  V30 1636 C 150.71 -1.18095 -5.12777 0
M  V30 1637 O 149.736 -1.87865 -5.37304 0
M  V30 1638 N 150.938 -0.0311006 -5.80492 0
M  V30 1639 H 153.703 -1.9927 -2.23856 0
M  V30 1640 H 151.264 -1.1808 -1.10764 0
M  V30 1641 H 153.256 -0.215836 -4.04124 0
M  V30 1642 H 151.826 0.298523 -3.11171 0
M  V30 1643 H 151.046 -2.18123 -3.28353 0
M  V30 1644 H 152.334 -2.41408 -4.47883 0
M  V30 1645 H 151.732 0.551486 -5.63005 0
M  V30 1646 H 150.289 0.251809 -6.51313 0
M  V30 1647 N 153.722 1.14298 -1.08507 0
M  V30 1648 C 154.999 1.81544 -0.728088 0
M  V30 1649 C 155.379 1.95838 0.78808 0
M  V30 1650 O 154.727 1.51904 1.70697 0
M  V30 1651 C 154.937 3.17169 -1.45619 0
M  V30 1652 C 156.285 3.9265 -1.61591 0
M  V30 1653 O 157.309 3.26762 -1.41793 0
M  V30 1654 O 156.168 5.10807 -1.94263 0
M  V30 1655 H 153.262 0.78491 -0.260471 0
M  V30 1656 H 155.808 1.21307 -1.18671 0
M  V30 1657 H 154.58 3.01934 -2.489 0
M  V30 1658 H 154.203 3.851 -0.989124 0
M  V30 1659 N 155.201 0.870884 1.31352 0
M  V30 1660 C 156.447 0.482987 1.96965 0
M  V30 1661 C 156.78 -0.962462 1.68672 0
M  V30 1662 O 156.055 -1.6779 0.98371 0
M  V30 1663 C 156.338 0.741752 3.52378 0
M  V30 1664 C 156.191 2.2368 3.9024 0
M  V30 1665 C 157.51 0.208838 4.39604 0
M  V30 1666 H 154.629 0.176955 0.715441 0
M  V30 1667 H 157.271 1.09229 1.55464 0
M  V30 1668 H 155.421 0.223149 3.87859 0
M  V30 1669 H 157.093 2.82273 3.64856 0
M  V30 1670 H 155.336 2.70901 3.38814 0
M  V30 1671 H 156.007 2.3685 4.98604 0
M  V30 1672 H 158.483 0.652529 4.10952 0
M  V30 1673 H 157.359 0.419336 5.47296 0
M  V30 1674 H 157.62 -0.889275 4.33064 0
M  V30 1675 N 156.679 -1.44442 0.630414 0
M  V30 1676 C 157.907 -2.06414 0.141671 0
M  V30 1677 C 158.322 -1.47105 -1.18345 0
M  V30 1678 O 157.679 -0.593662 -1.72574 0
M  V30 1679 C 157.73 -3.61494 0.0199784 0
M  V30 1680 O 157.451 -4.18594 1.29269 0
M  V30 1681 C 158.952 -4.40499 -0.497544 0
M  V30 1682 H 156.172 -0.666292 0.0793452 0
M  V30 1683 H 158.716 -1.85323 0.864614 0
M  V30 1684 H 156.871 -3.8185 -0.653402 0
M  V30 1685 H 157.285 -5.12026 1.13707 0
M  V30 1686 H 158.759 -5.49433 -0.531708 0
M  V30 1687 H 159.236 -4.11895 -1.52445 0
M  V30 1688 H 159.842 -4.25061 0.142562 0
M  V30 1689 N 158.157 -0.370918 -1.53173 0
M  V30 1690 C 159.087 0.464847 -2.28826 0
M  V30 1691 C 160.068 1.07936 -1.31468 0
M  V30 1692 O 161.253 1.0956 -1.60344 0
M  V30 1693 C 158.383 1.60196 -3.08147 0
M  V30 1694 C 157.337 1.11443 -4.13237 0
M  V30 1695 C 156.663 2.3422 -4.80672 0
M  V30 1696 C 157.963 0.195384 -5.21934 0
M  V30 1697 H 159.657 -0.166329 -2.98938 0
M  V30 1698 H 157.203 -0.0814359 -1.4377 0
M  V30 1699 H 159.156 2.19332 -3.59822 0
M  V30 1700 H 157.88 2.26045 -2.35735 0
M  V30 1701 H 156.539 0.545727 -3.62515 0
M  V30 1702 H 156.187 2.98537 -4.04827 0
M  V30 1703 H 155.887 2.02269 -5.51689 0
M  V30 1704 H 157.411 2.94032 -5.35143 0
M  V30 1705 H 158.825 0.694375 -5.69079 0
M  V30 1706 H 157.222 -0.0335027 -6.00091 0
M  V30 1707 H 158.292 -0.760961 -4.78892 0
M  V30 1708 N 159.635 1.57281 -0.100228 0
M  V30 1709 C 160.884 1.93713 0.561984 0
M  V30 1710 C 161.197 0.984492 1.69018 0
M  V30 1711 O 162.403 1.24273 2.41389 0
M  V30 1712 C 160.859 3.4421 1.05106 0
M  V30 1713 C 160.467 4.47975 -0.0476628 0
M  V30 1714 C 162.211 3.89595 1.68571 0
M  V30 1715 C 160.118 5.89631 0.457055 0
M  V30 1716 H 159.048 0.723082 0.2137 0
M  V30 1717 H 161.699 1.82644 -0.177057 0
M  V30 1718 H 160.081 3.50449 1.84395 0
M  V30 1719 H 161.255 4.53385 -0.823333 0
M  V30 1720 H 159.57 4.1223 -0.587816 0
M  V30 1721 H 162.167 4.92832 2.07414 0
M  V30 1722 H 162.51 3.28526 2.55688 0
M  V30 1723 H 163.043 3.86078 0.958562 0
M  V30 1724 H 159.782 6.54411 -0.377616 0
M  V30 1725 H 159.302 5.87681 1.19962 0
M  V30 1726 H 160.981 6.40363 0.92437 0
M  V30 1727 N 161.113 -0.173488 1.56642 0
M  V30 1728 C 162.362 -0.888758 1.81063 0
M  V30 1729 C 162.675 -1.83506 0.67712 0
M  V30 1730 O 163.881 -2.59254 0.806206 0
M  V30 1731 C 162.337 -1.63091 3.20826 0
M  V30 1732 C 161.945 -0.728357 4.4204 0
M  V30 1733 C 163.689 -2.33454 3.54541 0
M  V30 1734 C 161.596 -1.47062 5.72823 0
M  V30 1735 H 160.526 -0.335618 0.675186 0
M  V30 1736 H 163.177 -0.141712 1.82952 0
M  V30 1737 H 161.559 -2.42263 3.13248 0
M  V30 1738 H 162.733 0.0262449 4.60793 0
M  V30 1739 H 161.048 -0.134492 4.16183 0
M  V30 1740 H 163.645 -2.89578 4.49498 0
M  V30 1741 H 163.988 -3.08687 2.79317 0
M  V30 1742 H 164.521 -1.61227 3.63663 0
M  V30 1743 H 161.26 -0.760658 6.51072 0
M  V30 1744 H 160.78 -2.1986 5.58052 0
M  V30 1745 H 162.459 -2.01868 6.14702 0
M  V30 1746 N 162.591 -1.51276 -0.441967 0
M  V30 1747 C 163.521 -1.752 -1.54361 0
M  V30 1748 C 164.502 -0.601682 -1.59103 0
M  V30 1749 O 165.687 -0.843913 -1.74905 0
M  V30 1750 C 162.817 -1.87282 -2.92477 0
M  V30 1751 C 161.771 -3.02687 -3.02596 0
M  V30 1752 C 161.097 -2.99947 -4.42647 0
M  V30 1753 C 162.397 -4.4273 -2.77106 0
M  V30 1754 H 164.091 -2.67442 -1.34592 0
M  V30 1755 H 161.637 -1.28694 -0.646048 0
M  V30 1756 H 163.59 -2.02602 -3.695 0
M  V30 1757 H 162.314 -0.916844 -3.13467 0
M  V30 1758 H 160.973 -2.87065 -2.28012 0
M  V30 1759 H 160.621 -2.02136 -4.60597 0
M  V30 1760 H 160.321 -3.77439 -4.50348 0
M  V30 1761 H 161.845 -3.17354 -5.2165 0
M  V30 1762 H 163.259 -4.58727 -3.43864 0
M  V30 1763 H 161.656 -5.21893 -2.96222 0
M  V30 1764 H 162.726 -4.53087 -1.72744 0
M  V30 1765 N 164.069 0.697108 -1.41344 0
M  V30 1766 C 164.979 1.84088 -1.45427 0
M  V30 1767 C 165.995 1.70545 -0.34501 0
M  V30 1768 O 167.171 1.92488 -0.592492 0
M  V30 1769 C 164.236 3.20056 -1.33286 0
M  V30 1770 C 163.297 3.45718 -2.54514 0
M  V30 1771 C 162.53 4.75199 -2.42944 0
M  V30 1772 O 162.753 5.51579 -1.45318 0
M  V30 1773 O 161.687 5.0161 -3.32672 0
M  V30 1774 H 165.513 1.836 -2.41919 0
M  V30 1775 H 163.098 0.849966 -1.22866 0
M  V30 1776 H 164.98 4.01236 -1.28794 0
M  V30 1777 H 163.655 3.2123 -0.39909 0
M  V30 1778 H 162.562 2.64474 -2.64583 0
M  V30 1779 H 163.895 3.49356 -3.46715 0
M  V30 1780 N 165.547 1.27147 0.931209 0
M  V30 1781 C 166.796 1.12664 1.67302 0
M  V30 1782 C 167.109 -0.327718 1.92835 0
M  V30 1783 O 168.315 -0.593392 2.64936 0
M  V30 1784 C 166.771 1.9683 3.01307 0
M  V30 1785 C 166.379 3.46901 2.83485 0
M  V30 1786 C 168.123 1.90985 3.79111 0
M  V30 1787 C 166.03 4.23279 4.13024 0
M  V30 1788 H 164.96 0.41803 0.627509 0
M  V30 1789 H 167.611 1.51539 1.03481 0
M  V30 1790 H 165.993 1.50797 3.66164 0
M  V30 1791 H 167.167 4.00773 2.27415 0
M  V30 1792 H 165.482 3.54088 2.19113 0
M  V30 1793 H 168.079 2.45328 4.75098 0
M  V30 1794 H 168.422 0.882718 4.06834 0
M  V30 1795 H 168.955 2.34895 3.21044 0
M  V30 1796 H 165.694 5.26503 3.90481 0
M  V30 1797 H 165.214 3.74186 4.6877 0
M  V30 1798 H 166.893 4.32265 4.81411 0
M  V30 1799 N 167.025 -1.13721 1.09112 0
M  V30 1800 C 167.988 -2.17222 0.731241 0
M  V30 1801 C 168.988 -1.59035 -0.237566 0
M  V30 1802 O 170.178 -1.74192 -0.0161704 0
M  V30 1803 C 167.31 -3.40804 0.0808443 0
M  V30 1804 H 168.503 -2.50573 1.64783 0
M  V30 1805 H 166.056 -1.28493 0.889897 0
M  V30 1806 H 166.791 -3.1304 -0.847127 0
M  V30 1807 H 166.576 -3.84306 0.777896 0
M  V30 1808 H 168.066 -4.1731 -0.155657 0
M  V30 1809 N 168.503 -0.877838 -1.30888 0
M  V30 1810 C 169.466 -0.344265 -2.266 0
M  V30 1811 C 170.466 0.50922 -1.52524 0
M  V30 1812 O 171.656 0.317398 -1.71284 0
M  V30 1813 C 168.788 0.510198 -3.37061 0
M  V30 1814 H 169.981 -1.1893 -2.7531 0
M  V30 1815 H 167.534 -0.654088 -1.41956 0
M  V30 1816 H 168.269 1.37612 -2.93655 0
M  V30 1817 H 168.054 -0.101047 -3.9197 0
M  V30 1818 H 169.544 0.875537 -4.08319 0
M  V30 1819 N 169.982 1.44106 -0.638065 0
M  V30 1820 C 171.231 2.01194 -0.142744 0
M  V30 1821 C 171.544 1.50835 1.24532 0
M  V30 1822 O 172.75 2.00096 1.83504 0
M  V30 1823 C 171.206 3.59319 -0.20442 0
M  V30 1824 C 170.814 4.18674 -1.59423 0
M  V30 1825 C 172.558 4.23854 0.234079 0
M  V30 1826 C 170.465 5.69045 -1.61065 0
M  V30 1827 H 169.395 0.752367 -0.0495998 0
M  V30 1828 H 172.046 1.65246 -0.797881 0
M  V30 1829 H 170.428 3.92598 0.517946 0
M  V30 1830 H 171.602 3.96921 -2.34074 0
M  V30 1831 H 169.917 3.66453 -1.97741 0
M  V30 1832 H 172.514 5.34155 0.241443 0
M  V30 1833 H 172.857 3.96688 1.2627 0
M  V30 1834 H 173.39 3.95403 -0.436025 0
M  V30 1835 H 170.129 6.00956 -2.61787 0
M  V30 1836 H 169.649 5.929 -0.90718 0
M  V30 1837 H 171.328 6.32809 -1.34766 0
M  V30 1838 N 171.46 0.379036 1.52974 0
M  V30 1839 C 172.709 -0.207612 2.00629 0
M  V30 1840 C 173.022 -1.48758 1.27006 0
M  V30 1841 O 174.228 -2.15365 1.65318 0
M  V30 1842 C 172.684 -0.42053 3.57435 0
M  V30 1843 C 172.292 0.845587 4.39948 0
M  V30 1844 C 174.036 -0.964102 4.13407 0
M  V30 1845 C 171.943 0.601513 5.88333 0
M  V30 1846 H 170.873 -0.0813591 0.749598 0
M  V30 1847 H 173.524 0.499853 1.76561 0
M  V30 1848 H 171.906 -1.18959 3.7771 0
M  V30 1849 H 173.08 1.61848 4.31442 0
M  V30 1850 H 171.395 1.31336 3.95145 0
M  V30 1851 H 173.992 -1.16225 5.21916 0
M  V30 1852 H 174.335 -1.93019 3.68849 0
M  V30 1853 H 174.868 -0.25487 3.96983 0
M  V30 1854 H 171.607 1.53831 6.37194 0
M  V30 1855 H 171.127 -0.132628 5.99653 0
M  V30 1856 H 172.806 0.232134 6.46583 0
M  V30 1857 N 172.938 -1.57226 0.108567 0
M  V30 1858 C 174.163 -1.99604 -0.563303 0
M  V30 1859 C 174.588 -0.987563 -1.6009 0
M  V30 1860 O 173.946 0.0421687 -1.81251 0
M  V30 1861 C 173.994 -3.40902 -1.17552 0
M  V30 1862 O 173.098 -3.42896 -2.2912 0
M  V30 1863 H 172.439 -0.648704 -0.1417 0
M  V30 1864 H 174.969 -2.03679 0.193961 0
M  V30 1865 H 174.979 -3.78886 -1.51357 0
M  V30 1866 H 173.654 -4.1382 -0.415445 0
M  V30 1867 H 172.231 -3.1672 -1.96832 0
M  V30 1868 N 174.416 0.165178 -1.56732 0
M  V30 1869 C 175.346 1.20651 -1.99914 0
M  V30 1870 C 176.327 1.45827 -0.875705 0
M  V30 1871 O 177.512 1.57057 -1.14223 0
M  V30 1872 C 174.642 2.54401 -2.36427 0
M  V30 1873 C 173.596 2.43782 -3.51787 0
M  V30 1874 C 172.922 3.82078 -3.7406 0
M  V30 1875 C 174.222 1.93732 -4.85041 0
M  V30 1876 H 175.916 0.847534 -2.87154 0
M  V30 1877 H 173.462 0.40625 -1.38151 0
M  V30 1878 H 175.415 3.27458 -2.65234 0
M  V30 1879 H 174.139 2.92098 -1.46103 0
M  V30 1880 H 172.798 1.73178 -3.23117 0
M  V30 1881 H 172.446 4.17179 -2.81017 0
M  V30 1882 H 172.146 3.7584 -4.51684 0
M  V30 1883 H 173.67 4.56712 -4.05274 0
M  V30 1884 H 175.084 2.56569 -5.12684 0
M  V30 1885 H 173.481 1.98428 -5.66345 0
M  V30 1886 H 174.551 0.891962 -4.76626 0
M  V30 1887 N 175.894 1.51508 0.433938 0
M  V30 1888 C 177.142 1.6402 1.18075 0
M  V30 1889 C 177.463 0.360328 1.91642 0
M  V30 1890 O 176.733 -0.623945 1.85698 0
M  V30 1891 H 175.313 0.6045 0.43885 0
M  V30 1892 H 177.975 1.88452 0.497178 0
M  V30 1893 H 177.071 2.46949 1.90847 0
M  V30 1894 N 177.372 -0.689602 1.41712 0
M  V30 1895 C 178.302 -1.81577 1.46806 0
M  V30 1896 C 179.283 -1.66945 0.326105 0
M  V30 1897 O 180.468 -1.86588 0.538377 0
M  V30 1898 C 177.598 -3.19762 1.35535 0
M  V30 1899 C 176.552 -3.49107 2.47605 0
M  V30 1900 C 175.878 -4.86711 2.21397 0
M  V30 1901 C 177.178 -3.47483 3.89939 0
M  V30 1902 H 178.872 -1.7757 2.41058 0
M  V30 1903 H 176.418 -0.852887 1.16025 0
M  V30 1904 H 178.371 -3.98263 1.3771 0
M  V30 1905 H 177.095 -3.24409 0.377708 0
M  V30 1906 H 175.754 -2.72959 2.44722 0
M  V30 1907 H 175.402 -4.8799 1.21961 0
M  V30 1908 H 175.102 -5.0731 2.96497 0
M  V30 1909 H 176.626 -5.67515 2.25297 0
M  V30 1910 H 178.04 -4.1598 3.94505 0
M  V30 1911 H 176.437 -3.79615 4.64771 0
M  V30 1912 H 177.507 -2.46341 4.17665 0
M  V30 1913 N 178.85 -1.27639 -0.924453 0
M  V30 1914 C 180.075 -1.17101 -1.71179 0
M  V30 1915 C 180.5 0.268134 -1.86179 0
M  V30 1916 O 179.858 1.19415 -1.36418 0
M  V30 1917 C 179.906 -1.86313 -3.08739 0
M  V30 1918 O 179.01 -1.16331 -3.95652 0
M  V30 1919 H 178.351 -0.407091 -0.524569 0
M  V30 1920 H 180.881 -1.68767 -1.15666 0
M  V30 1921 H 180.891 -1.938 -3.59034 0
M  V30 1922 H 179.566 -2.91001 -2.97138 0
M  V30 1923 H 178.143 -1.16935 -3.54091 0
M  V30 1924 N 180.328 1.1314 -1.09713 0
M  V30 1925 C 181.575 1.84484 -0.834987 0
M  V30 1926 C 181.903 1.83689 0.639418 0
M  V30 1927 O 181.158 1.2724 1.4869 0
M  V30 1928 C 181.457 3.32167 -1.3191 0
M  V30 1929 C 181.123 3.53139 -2.80363 0
M  V30 1930 C 179.785 3.58571 -3.20905 0
M  V30 1931 C 182.137 3.60866 -3.76065 0
M  V30 1932 C 179.465 3.69267 -4.55916 0
M  V30 1933 C 181.817 3.73089 -5.10869 0
M  V30 1934 C 180.481 3.76775 -5.50996 0
M  V30 1935 H 179.751 0.675073 -0.305544 0
M  V30 1936 H 182.398 1.33554 -1.37243 0
M  V30 1937 H 180.703 3.85469 -0.701517 0
M  V30 1938 H 182.4 3.85821 -1.09284 0
M  V30 1939 H 178.99 3.49569 -2.47991 0
M  V30 1940 H 183.174 3.55946 -3.45855 0
M  V30 1941 H 178.43 3.70388 -4.86438 0
M  V30 1942 H 182.604 3.78011 -5.84877 0
M  V30 1943 H 180.231 3.84815 -6.55608 0
M  V30 1944 N 181.806 0.884767 1.30421 0
M  V30 1945 C 183.036 0.517293 2.00019 0
M  V30 1946 C 183.444 -0.898632 1.66497 0
M  V30 1947 O 182.787 -1.60245 0.898181 0
M  V30 1948 C 182.849 0.612025 3.54252 0
M  V30 1949 C 182.513 1.99222 4.1129 0
M  V30 1950 C 183.51 2.9616 4.273 0
M  V30 1951 C 181.195 2.29755 4.46674 0
M  V30 1952 C 183.189 4.21764 4.77906 0
M  V30 1953 C 180.876 3.55606 4.96979 0
M  V30 1954 C 181.874 4.51425 5.12547 0
M  V30 1955 O 181.562 5.75043 5.61766 0
M  V30 1956 H 181.294 0.198529 0.64619 0
M  V30 1957 H 183.848 1.1919 1.67281 0
M  V30 1958 H 182.078 -0.119561 3.86515 0
M  V30 1959 H 183.767 0.255859 4.05093 0
M  V30 1960 H 184.533 2.73882 4.00267 0
M  V30 1961 H 180.412 1.55942 4.33824 0
M  V30 1962 H 183.956 4.96561 4.89972 0
M  V30 1963 H 179.853 3.7772 5.23448 0
M  V30 1964 H 180.621 5.77422 5.80109 0
M  V30 1965 N 183.284 -1.43765 0.645699 0
M  V30 1966 C 184.234 -2.27884 -0.0726442 0
M  V30 1967 C 185.218 -1.39483 -0.802086 0
M  V30 1968 O 186.41 -1.63174 -0.685791 0
M  V30 1969 C 183.539 -3.27055 -1.04356 0
M  V30 1970 C 182.625 -4.22944 -0.312985 0
M  V30 1971 N 183.016 -5.01391 0.666386 0
M  V30 1972 C 181.314 -4.42528 -0.55546 0
M  V30 1973 C 182.015 -5.71217 1.09935 0
M  V30 1974 N 180.991 -5.41856 0.435137 0
M  V30 1975 H 184.793 -2.85949 0.678988 0
M  V30 1976 H 182.307 -1.55378 0.472368 0
M  V30 1977 H 184.304 -3.86089 -1.57292 0
M  V30 1978 H 182.964 -2.70551 -1.79534 0
M  V30 1979 H 183.975 -5.07252 1.04481 0
M  V30 1980 H 180.652 -3.97104 -1.28899 0
M  V30 1981 H 182.042 -6.44202 1.90929 0
M  V30 1982 N 184.763 -0.387143 -1.52771 0
M  V30 1983 C 186.174 0.0873634 -1.86495 0
M  V30 1984 C 186.525 1.46336 -1.30691 0
M  V30 1985 O 185.65 2.068 -0.637409 0
M  V30 1986 C 186.245 0.165305 -3.38396 0
M  V30 1987 C 184.804 0.584101 -3.7184 0
M  V30 1988 C 183.951 -0.255279 -2.76122 0
M  V30 1989 H 186.902 -0.605104 -1.46711 0
M  V30 1990 H 186.923 0.984848 -3.67534 0
M  V30 1991 H 186.435 -0.836301 -3.78982 0
M  V30 1992 H 184.536 1.59315 -3.36823 0
M  V30 1993 H 184.649 0.343749 -4.77865 0
M  V30 1994 H 183.013 0.279126 -2.53166 0
M  V30 1995 H 183.796 -1.25482 -3.19545 0
M  V30 1996 N 186.241 1.57166 -0.116904 0
M  V30 1997 C 187.652 1.82169 0.408809 0
M  V30 1998 C 188.003 1.03393 1.66746 0
M  V30 1999 O 187.128 0.269886 2.1471 0
M  V30 2000 C 187.723 3.30429 0.748466 0
M  V30 2001 C 186.282 3.5612 1.21882 0
M  V30 2002 C 185.429 2.76374 0.226452 0
M  V30 2003 H 188.38 1.5497 -0.342063 0
M  V30 2004 H 188.401 3.44943 1.60607 0
M  V30 2005 H 187.913 3.87737 -0.167784 0
M  V30 2006 H 186.014 3.04168 2.15204 0
M  V30 2007 H 186.127 4.64705 1.16559 0
M  V30 2008 H 184.491 2.44515 0.713063 0
M  V30 2009 H 185.274 3.3644 -0.682859 0
M  V30 2010 N 187.719 -0.156864 1.56817 0
M  V30 2011 C 188.967 -0.869404 1.82444 0
M  V30 2012 C 189.288 -1.82147 0.69623 0
M  V30 2013 O 188.558 -1.93847 -0.28287 0
M  V30 2014 H 187.138 -0.324043 0.673056 0
M  V30 2015 H 189.8 -0.153224 1.94297 0
M  V30 2016 H 188.896 -1.43761 2.77019 0
M  V30 2017 N 189.197 -1.51736 -0.425897 0
M  V30 2018 C 190.107 -1.76738 -1.54275 0
M  V30 2019 C 191.123 -0.65211 -1.61318 0
M  V30 2020 O 192.299 -0.935654 -1.78346 0
M  V30 2021 C 189.364 -1.89755 -2.90162 0
M  V30 2022 C 188.425 -3.13633 -2.93143 0
M  V30 2023 C 187.658 -3.2602 -4.22548 0
M  V30 2024 O 187.881 -2.44067 -5.15546 0
M  V30 2025 O 186.815 -4.19071 -4.32046 0
M  V30 2026 H 190.641 -2.71502 -1.36089 0
M  V30 2027 H 188.226 -1.36376 -0.610069 0
M  V30 2028 H 190.108 -2.00236 -3.70788 0
M  V30 2029 H 188.783 -0.981785 -3.08452 0
M  V30 2030 H 187.69 -3.08622 -2.11431 0
M  V30 2031 H 189.023 -4.04936 -2.798 0
M  V30 2032 N 190.675 0.682077 -1.42076 0
M  V30 2033 C 191.923 1.4393 -1.41876 0
M  V30 2034 C 192.244 1.94971 -0.0335599 0
M  V30 2035 O 191.514 1.72591 0.926773 0
M  V30 2036 H 190.094 0.534085 -0.522267 0
M  V30 2037 H 192.756 0.806427 -1.77434 0
M  V30 2038 H 191.852 2.29588 -2.11414 0
M  V30 2039 N 192.153 1.28127 0.917671 0
M  V30 2040 C 193.101 1.11569 2.04096 0
M  V30 2041 C 194.095 0.0360242 1.69362 0
M  V30 2042 O 195.301 0.194501 1.78946 0
M  V30 2043 H 191.676 0.344097 0.668656 0
M  V30 2044 H 193.647 2.06711 2.15205 0
M  V30 2045 C 192.396 0.790197 3.38602 0
M  V30 2046 H 191.719 1.61293 3.6582 0
M  V30 2047 H 193.159 0.714271 4.1794 0
M  V30 2048 C 191.618 -0.505897 3.3308 0
M  V30 2049 O 192.148 -1.53736 3.71117 0
M  V30 2050 N 190.354 -0.505193 2.86175 0
M  V30 2051 H 189.901 0.334621 2.55417 0
M  V30 2052 H 189.859 -1.37243 2.82863 0
M  V30 2053 N 193.631 -1.12557 1.10312 0
M  V30 2054 C 194.541 -2.21841 0.763142 0
M  V30 2055 C 195.557 -1.72354 -0.238801 0
M  V30 2056 O 196.733 -2.01249 -0.0778746 0
M  V30 2057 C 193.798 -3.46131 0.198632 0
M  V30 2058 C 192.859 -4.10464 1.25769 0
M  V30 2059 C 192.092 -5.28821 0.72002 0
M  V30 2060 O 192.315 -5.6859 -0.453993 0
M  V30 2061 O 191.249 -5.83437 1.47935 0
M  V30 2062 H 195.075 -2.53312 1.67532 0
M  V30 2063 H 192.66 -1.20867 0.878157 0
M  V30 2064 H 194.542 -4.2125 -0.112401 0
M  V30 2065 H 193.217 -3.16338 -0.686419 0
M  V30 2066 H 192.124 -3.3713 1.62156 0
M  V30 2067 H 193.457 -4.44408 2.11571 0
M  V30 2068 N 195.109 -0.891671 -1.2995 0
M  V30 2069 C 196.357 -0.512486 -1.95494 0
M  V30 2070 C 196.678 0.942776 -1.70695 0
M  V30 2071 O 195.948 1.66374 -1.03424 0
M  V30 2072 H 194.528 -0.186533 -0.723336 0
M  V30 2073 H 197.19 -1.13621 -1.58355 0
M  V30 2074 H 196.286 -0.688342 -3.04415 0
M  V30 2075 N 196.587 1.43421 -0.653314 0
M  V30 2076 C 197.827 2.03689 -0.170346 0
M  V30 2077 C 198.191 1.50427 1.19314 0
M  V30 2078 O 199.392 2.0234 1.76952 0
M  V30 2079 C 197.663 3.56946 -0.180183 0
M  V30 2080 S 199.222 4.38171 0.234925 0
M  V30 2081 H 196.04 0.707345 -0.0719976 0
M  V30 2082 H 198.642 1.75486 -0.86167 0
M  V30 2083 H 197.346 3.93212 -1.17526 0
M  V30 2084 H 196.877 3.89791 0.531675 0
M  V30 2085 H 198.892 4.73808 1.47378 0
M  V30 2086 N 198.065 0.39524 1.52563 0
M  V30 2087 C 199.028 -0.425001 2.25225 0
M  V30 2088 C 200.028 -0.985266 1.27079 0
M  V30 2089 O 201.218 -0.866332 1.5113 0
M  V30 2090 C 198.35 -1.59686 3.01186 0
M  V30 2091 H 199.543 0.211233 2.99155 0
M  V30 2092 H 197.096 0.147472 1.55603 0
M  V30 2093 H 197.831 -2.27035 2.31572 0
M  V30 2094 H 197.616 -1.20176 3.73229 0
M  V30 2095 H 199.106 -2.17743 3.5634 0
M  V30 2096 N 199.544 -1.57102 0.125237 0
M  V30 2097 C 200.772 -1.99761 -0.538797 0
M  V30 2098 C 201.187 -1.00503 -1.59827 0
M  V30 2099 O 200.544 0.00119474 -1.825 0
M  V30 2100 C 200.595 -3.42408 -1.15927 0
M  V30 2101 O 200.316 -4.37869 -0.142143 0
M  V30 2102 C 201.817 -4.00232 -1.90602 0
M  V30 2103 H 199.037 -0.655772 -0.14214 0
M  V30 2104 H 201.581 -2.03383 0.213413 0
M  V30 2105 H 199.736 -3.39706 -1.86223 0
M  V30 2106 H 200.15 -5.21128 -0.593775 0
M  V30 2107 H 201.624 -5.02105 -2.29335 0
M  V30 2108 H 202.101 -3.39721 -2.78363 0
M  V30 2109 H 202.707 -4.06499 -1.25055 0
M  V30 2110 N 201.022 0.148545 -1.56898 0
M  V30 2111 C 201.985 1.16736 -1.97244 0
M  V30 2112 C 202.985 1.35947 -0.858777 0
M  V30 2113 O 204.175 1.32966 -1.12542 0
M  V30 2114 C 201.307 2.52798 -2.28705 0
M  V30 2115 H 202.5 0.821279 -2.88435 0
M  V30 2116 H 200.053 0.391831 -1.51309 0
M  V30 2117 H 200.788 2.92381 -1.403 0
M  V30 2118 H 200.573 2.40216 -3.09901 0
M  V30 2119 H 202.063 3.26179 -2.60762 0
M  V30 2120 N 202.5 1.5196 0.417844 0
M  V30 2121 C 203.432 1.70895 1.52733 0
M  V30 2122 C 204.445 0.589405 1.51756 0
M  V30 2123 O 205.634 0.864312 1.56179 0
M  V30 2124 C 202.734 1.72627 2.91639 0
M  V30 2125 C 201.907 3.01479 3.16905 0
M  V30 2126 C 200.966 2.95139 4.35637 0
M  V30 2127 O 199.992 3.69059 4.3334 0
M  V30 2128 N 201.194 2.12328 5.40275 0
M  V30 2129 H 203.959 2.66612 1.36888 0
M  V30 2130 H 201.52 1.50089 0.607037 0
M  V30 2131 H 203.512 1.65928 3.6912 0
M  V30 2132 H 202.082 0.844216 3.00985 0
M  V30 2133 H 201.302 3.21895 2.27546 0
M  V30 2134 H 202.59 3.86736 3.30625 0
M  V30 2135 H 201.988 1.51685 5.44985 0
M  V30 2136 H 200.545 2.11494 6.16534 0
M  V30 2137 N 203.978 -0.674533 1.42435 0
M  V30 2138 C 205.226 -1.43175 1.42637 0
M  V30 2139 C 205.547 -1.94951 0.0438992 0
M  V30 2140 O 204.817 -1.7308 -0.917607 0
M  V30 2141 H 203.397 -0.531307 0.525092 0
M  V30 2142 H 206.059 -0.797006 1.77859 0
M  V30 2143 H 205.155 -2.28463 2.12629 0
M  V30 2144 N 205.456 -1.28612 -0.910864 0
M  V30 2145 C 206.704 -1.15705 -1.65701 0
M  V30 2146 C 207.025 0.29416 -1.92769 0
M  V30 2147 O 206.295 1.20331 -1.54588 0
M  V30 2148 H 204.875 -0.425216 -0.614167 0
M  V30 2149 H 207.537 -1.61381 -1.0928 0
M  V30 2150 H 206.633 -1.6988 -2.61815 0
M  V30 2151 N 206.934 1.1197 -1.10907 0
M  V30 2152 C 207.897 2.16031 -0.765707 0
M  V30 2153 C 208.897 1.59393 0.212235 0
M  V30 2154 O 210.087 1.74196 -0.0115441 0
M  V30 2155 C 207.219 3.40632 -0.135053 0
M  V30 2156 H 208.412 2.47919 -1.68748 0
M  V30 2157 H 205.965 1.27061 -0.910226 0
M  V30 2158 H 206.7 3.14348 0.797218 0
M  V30 2159 H 206.485 3.8302 -0.838937 0
M  V30 2160 H 207.975 4.17505 0.0892469 0
M  V30 2161 N 208.412 0.89855 1.29475 0
M  V30 2162 C 209.322 0.379974 2.31502 0
M  V30 2163 C 210.338 -0.524695 1.659 0
M  V30 2164 O 211.514 -0.414551 1.97087 0
M  V30 2165 C 208.579 -0.385138 3.44554 0
M  V30 2166 C 207.64 0.550914 4.2575 0
M  V30 2167 C 206.873 -0.177778 5.33404 0
M  V30 2168 O 207.096 -1.40189 5.52904 0
M  V30 2169 O 206.03 0.479106 5.9999 0
M  V30 2170 H 209.856 1.22639 2.77837 0
M  V30 2171 H 207.441 0.662834 1.33891 0
M  V30 2172 H 209.323 -0.817841 4.13388 0
M  V30 2173 H 207.998 -1.20763 3.0033 0
M  V30 2174 H 206.905 1.03271 3.59564 0
M  V30 2175 H 208.238 1.33979 4.73614 0
M  V30 2176 N 209.89 -1.43072 0.660911 0
M  V30 2177 C 211.167 -1.95307 0.107017 0
M  V30 2178 C 211.547 -1.60192 -1.37484 0
M  V30 2179 O 210.895 -0.890949 -2.10415 0
M  V30 2180 C 211.105 -3.47124 0.361402 0
M  V30 2181 C 212.453 -4.23738 0.270455 0
M  V30 2182 O 213.477 -3.54981 0.294382 0
M  V30 2183 O 212.336 -5.46131 0.200737 0
M  V30 2184 H 209.43 -0.826984 -0.00517729 0
M  V30 2185 H 211.976 -1.52972 0.734681 0
M  V30 2186 H 210.748 -3.65837 1.38848 0
M  V30 2187 H 210.371 -3.96475 -0.298953 0
M  V30 2188 N 211.368 -0.403325 -1.52352 0
M  V30 2189 C 212.278 0.432009 -2.30588 0
M  V30 2190 C 213.294 1.05884 -1.38075 0
M  V30 2191 O 214.47 1.06161 -1.71148 0
M  V30 2192 C 211.535 1.53669 -3.10784 0
M  V30 2193 C 210.596 0.933525 -4.19027 0
M  V30 2194 C 209.829 1.98557 -4.9539 0
M  V30 2195 O 210.052 3.20283 -4.71991 0
M  V30 2196 O 208.986 1.59504 -5.80381 0
M  V30 2197 H 212.812 -0.205739 -3.03002 0
M  V30 2198 H 210.397 -0.166675 -1.48467 0
M  V30 2199 H 212.279 2.17814 -3.60742 0
M  V30 2200 H 210.954 2.15915 -2.41169 0
M  V30 2201 H 209.861 0.254954 -3.7323 0
M  V30 2202 H 211.194 0.35508 -4.90918 0
M  V30 2203 N 212.846 1.57033 -0.133567 0
M  V30 2204 C 214.094 1.953 0.519848 0
M  V30 2205 C 214.415 1.01866 1.66278 0
M  V30 2206 O 213.685 0.0776513 1.95746 0
M  V30 2207 H 212.265 0.721091 0.195032 0
M  V30 2208 H 214.927 1.93809 -0.205921 0
M  V30 2209 H 214.023 2.98695 0.904854 0
M  V30 2210 N 214.325 -0.140222 1.56975 0
M  V30 2211 C 215.235 -1.19223 2.02047 0
M  V30 2212 C 216.251 -1.46612 0.937062 0
M  V30 2213 O 217.427 -1.58148 1.24704 0
M  V30 2214 C 214.492 -2.50414 2.39778 0
M  V30 2215 C 213.553 -2.30612 3.621 0
M  V30 2216 C 212.786 -3.55547 3.98023 0
M  V30 2217 O 213.009 -4.62004 3.34528 0
M  V30 2218 O 211.943 -3.47808 4.91237 0
M  V30 2219 H 215.769 -0.839559 2.91865 0
M  V30 2220 H 213.354 -0.349453 1.45256 0
M  V30 2221 H 215.236 -3.27747 2.64877 0
M  V30 2222 H 213.911 -2.85198 1.53114 0
M  V30 2223 H 212.818 -1.51207 3.4218 0
M  V30 2224 H 214.151 -2.00741 4.49404 0
M  V30 2225 N 215.803 -1.52179 -0.40978 0
M  V30 2226 C 216.766 -1.74853 -1.48186 0
M  V30 2227 C 217.766 -0.618417 -1.48433 0
M  V30 2228 O 218.956 -0.886286 -1.49969 0
M  V30 2229 C 216.088 -1.8303 -2.87598 0
M  V30 2230 H 217.281 -2.70559 -1.29374 0
M  V30 2231 H 214.834 -1.42586 -0.640233 0
M  V30 2232 H 215.569 -0.89236 -3.11781 0
M  V30 2233 H 215.354 -2.65187 -2.88822 0
M  V30 2234 H 216.844 -2.02316 -3.65319 0
M  V30 2235 N 217.281 0.66697 -1.42791 0
M  V30 2236 C 218.191 1.80962 -1.49299 0
M  V30 2237 C 219.207 1.69775 -0.381108 0
M  V30 2238 O 220.383 1.91188 -0.633188 0
M  V30 2239 C 217.448 3.17156 -1.40045 0
M  V30 2240 C 216.509 3.40242 -2.6179 0
M  V30 2241 C 215.742 4.69939 -2.52969 0
M  V30 2242 O 215.965 5.48372 -1.56985 0
M  V30 2243 O 214.899 4.94441 -3.43237 0
M  V30 2244 H 218.725 1.78427 -2.45759 0
M  V30 2245 H 216.31 0.823713 -1.24641 0
M  V30 2246 H 218.192 3.98413 -1.37276 0
M  V30 2247 H 216.867 3.20312 -0.467138 0
M  V30 2248 H 215.774 2.58802 -2.70134 0
M  V30 2249 H 217.107 3.41923 -3.54047 0
M  V30 2250 N 218.759 1.29093 0.90403 0
M  V30 2251 C 219.722 1.1386 1.98919 0
M  V30 2252 C 220.722 0.0753457 1.60623 0
M  V30 2253 O 221.912 0.321931 1.71199 0
M  V30 2254 C 219.044 0.740198 3.32767 0
M  V30 2255 H 220.237 2.10246 2.13861 0
M  V30 2256 H 217.79 1.12218 1.08797 0
M  V30 2257 H 218.525 -0.223997 3.23525 0
M  V30 2258 H 218.31 1.50838 3.61926 0
M  V30 2259 H 219.8 0.656546 4.12407 0
M  V30 2260 N 220.237 -1.11381 1.11499 0
M  V30 2261 C 221.485 -1.8277 0.862524 0
M  V30 2262 C 221.806 -1.85097 -0.613534 0
M  V30 2263 O 221.076 -1.32198 -1.4457 0
M  V30 2264 H 219.656 -0.676823 0.316101 0
M  V30 2265 H 222.318 -1.34816 1.4075 0
M  V30 2266 H 221.414 -2.86614 1.23527 0
M  V30 2267 N 221.715 -0.905404 -1.28997 0
M  V30 2268 C 222.961 -0.544465 -1.95977 0
M  V30 2269 C 223.316 0.90041 -1.70031 0
M  V30 2270 O 222.609 1.63064 -1.00601 0
M  V30 2271 C 222.803 -0.779906 -3.48787 0
M  V30 2272 C 222.632 -2.24612 -3.89589 0
M  V30 2273 C 221.402 -2.89464 -4.14172 0
M  V30 2274 C 223.6 -3.22182 -4.00878 0
M  V30 2275 N 221.582 -4.26469 -4.41585 0
M  V30 2276 C 222.953 -4.44323 -4.32409 0
M  V30 2277 C 225.008 -3.17694 -3.83373 0
M  V30 2278 C 223.711 -5.62546 -4.48258 0
M  V30 2279 C 225.737 -4.35208 -4.00435 0
M  V30 2280 C 225.099 -5.56121 -4.3233 0
M  V30 2281 H 221.198 -0.248948 -0.741316 0
M  V30 2282 H 223.782 -1.1674 -1.5582 0
M  V30 2283 H 221.953 -0.186308 -3.87953 0
M  V30 2284 H 223.685 -0.383833 -4.02876 0
M  V30 2285 H 220.44 -2.40232 -4.08149 0
M  V30 2286 H 220.864 -4.97283 -4.5939 0
M  V30 2287 H 225.506 -2.25297 -3.57773 0
M  V30 2288 H 223.224 -6.55429 -4.72692 0
M  V30 2289 H 226.81 -4.33228 -3.88336 0
M  V30 2290 H 225.69 -6.45537 -4.45255 0
M  V30 2291 N 223.193 1.4272 -0.668489 0
M  V30 2292 C 224.442 2.00846 -0.185389 0
M  V30 2293 C 224.755 1.53442 1.21305 0
M  V30 2294 O 225.961 2.03944 1.79218 0
M  V30 2295 C 224.417 3.58805 -0.280591 0
M  V30 2296 C 224.025 4.15198 -1.68268 0
M  V30 2297 C 225.769 4.24255 0.14412 0
M  V30 2298 C 223.676 5.655 -1.73099 0
M  V30 2299 H 222.606 0.751145 -0.0655475 0
M  V30 2300 H 225.257 1.63516 -0.832752 0
M  V30 2301 H 223.639 3.93608 0.434553 0
M  V30 2302 H 224.813 3.91866 -2.42441 0
M  V30 2303 H 223.128 3.62176 -2.05469 0
M  V30 2304 H 225.725 5.34547 0.128086 0
M  V30 2305 H 226.068 3.99277 1.17827 0
M  V30 2306 H 226.601 3.94389 -0.519798 0
M  V30 2307 H 223.34 5.95268 -2.74475 0
M  V30 2308 H 222.86 5.90842 -1.03274 0
M  V30 2309 H 224.539 6.29808 -1.48158 0
M  V30 2310 N 224.671 0.411399 1.52136 0
M  V30 2311 C 225.581 -0.419774 2.30814 0
M  V30 2312 C 226.597 -1.0515 1.38634 0
M  V30 2313 O 227.773 -1.05252 1.71709 0
M  V30 2314 C 224.838 -1.52019 3.11594 0
M  V30 2315 C 223.899 -0.91129 4.19516 0
M  V30 2316 C 223.132 -1.95927 4.96436 0
M  V30 2317 O 223.355 -3.17775 4.73683 0
M  V30 2318 O 222.289 -1.56423 5.81219 0
M  V30 2319 H 226.115 0.221805 3.02889 0
M  V30 2320 H 223.7 0.174547 1.48377 0
M  V30 2321 H 225.582 -2.15898 3.61892 0
M  V30 2322 H 224.257 -2.14633 2.42311 0
M  V30 2323 H 223.164 -0.235157 3.7336 0
M  V30 2324 H 224.497 -0.32904 4.91099 0
M  V30 2325 N 226.149 -1.5696 0.141893 0
M  V30 2326 C 227.397 -1.95573 -0.509484 0
M  V30 2327 C 227.718 -1.02746 -1.65736 0
M  V30 2328 O 226.988 -0.0880311 -1.95702 0
M  V30 2329 H 225.568 -0.722115 -0.191205 0
M  V30 2330 H 228.23 -1.93697 0.216196 0
M  V30 2331 H 227.326 -2.99171 -0.889 0
M  V30 2332 N 227.627 0.131896 -1.57047 0
M  V30 2333 C 228.59 1.14638 -1.98471 0
M  V30 2334 C 229.59 1.35029 -0.873148 0
M  V30 2335 O 230.78 1.31764 -1.13946 0
M  V30 2336 C 227.912 2.50358 -2.31373 0
M  V30 2337 H 229.105 0.79064 -2.8929 0
M  V30 2338 H 226.658 0.375761 -1.51716 0
M  V30 2339 H 227.393 2.90876 -1.43393 0
M  V30 2340 H 227.178 2.36915 -3.12432 0
M  V30 2341 H 228.668 3.23395 -2.64207 0
M  V30 2342 N 229.106 1.52395 0.401703 0
M  V30 2343 C 230.069 1.75636 1.47257 0
M  V30 2344 C 231.069 0.62628 1.48103 0
M  V30 2345 O 232.259 0.894227 1.49497 0
M  V30 2346 C 229.391 1.84553 2.86624 0
M  V30 2347 H 230.584 2.71241 1.27938 0
M  V30 2348 H 228.137 1.42923 0.632662 0
M  V30 2349 H 228.872 0.908882 3.11303 0
M  V30 2350 H 228.657 2.66715 2.87412 0
M  V30 2351 H 230.147 2.04251 3.64241 0
M  V30 2352 N 230.584 -0.659388 1.43143 0
M  V30 2353 C 231.833 -1.41518 1.43721 0
M  V30 2354 C 232.146 -1.95499 0.0628176 0
M  V30 2355 O 233.352 -2.71446 -0.0539683 0
M  V30 2356 C 231.808 -2.5608 2.52885 0
M  V30 2357 C 231.416 -2.08733 3.96402 0
M  V30 2358 C 233.16 -3.3349 2.62649 0
M  V30 2359 C 231.067 -3.20469 4.97045 0
M  V30 2360 H 229.997 -0.531705 0.534608 0
M  V30 2361 H 232.648 -0.712343 1.69109 0
M  V30 2362 H 231.03 -3.28805 2.20688 0
M  V30 2363 H 232.204 -1.43059 4.3803 0
M  V30 2364 H 230.519 -1.44219 3.90627 0
M  V30 2365 H 233.116 -4.16734 3.35017 0
M  V30 2366 H 233.459 -3.8111 1.67513 0
M  V30 2367 H 233.992 -2.67842 2.94118 0
M  V30 2368 H 230.731 -2.77824 5.93712 0
M  V30 2369 H 230.251 -3.84874 4.60034 0
M  V30 2370 H 231.93 -3.85698 5.19467 0
M  V30 2371 N 232.062 -1.29571 -0.897171 0
M  V30 2372 C 232.992 -1.17473 -2.01798 0
M  V30 2373 C 233.973 -0.068323 -1.69963 0
M  V30 2374 O 235.158 -0.248239 -1.92607 0
M  V30 2375 C 232.288 -0.853099 -3.36659 0
M  V30 2376 C 231.242 -1.9161 -3.82713 0
M  V30 2377 C 230.568 -1.44773 -5.14728 0
M  V30 2378 C 231.868 -3.32535 -4.02763 0
M  V30 2379 H 233.562 -2.11237 -2.12177 0
M  V30 2380 H 231.108 -1.01699 -1.01948 0
M  V30 2381 H 233.061 -0.755165 -4.14578 0
M  V30 2382 H 231.785 0.120236 -3.26379 0
M  V30 2383 H 230.444 -2.00346 -3.07013 0
M  V30 2384 H 230.092 -0.462995 -5.00865 0
M  V30 2385 H 229.792 -2.15865 -5.46513 0
M  V30 2386 H 231.316 -1.36334 -5.95185 0
M  V30 2387 H 232.73 -3.26626 -4.71156 0
M  V30 2388 H 231.127 -4.01607 -4.45905 0
M  V30 2389 H 232.197 -3.75326 -3.07016 0
M  V30 2390 N 233.54 1.10788 -1.12088 0
M  V30 2391 C 234.47 2.19083 -0.807755 0
M  V30 2392 C 235.451 1.6858 0.226859 0
M  V30 2393 O 236.636 1.93997 0.0888475 0
M  V30 2394 C 233.766 3.46344 -0.257576 0
M  V30 2395 C 232.72 4.101 -1.22483 0
M  V30 2396 C 232.046 5.32016 -0.535052 0
M  V30 2397 C 233.346 4.54236 -2.57811 0
M  V30 2398 H 235.04 2.45534 -1.71328 0
M  V30 2399 H 232.586 1.1801 -0.825205 0
M  V30 2400 H 234.539 4.21392 -0.0262679 0
M  V30 2401 H 233.263 3.19373 0.683278 0
M  V30 2402 H 231.922 3.37054 -1.44189 0
M  V30 2403 H 231.57 5.01319 0.410827 0
M  V30 2404 H 231.27 5.75625 -1.18024 0
M  V30 2405 H 232.794 6.09799 -0.312695 0
M  V30 2406 H 234.208 5.20575 -2.40155 0
M  V30 2407 H 232.605 5.08682 -3.18375 0
M  V30 2408 H 233.675 3.6734 -3.16528 0
M  V30 2409 N 235.018 0.912232 1.28515 0
M  V30 2410 C 236.243 0.559774 1.99703 0
M  V30 2411 C 236.668 -0.851393 1.67729 0
M  V30 2412 O 236.026 -1.56875 0.908834 0
M  V30 2413 C 236.074 0.773874 3.52198 0
M  V30 2414 O 235.178 -0.167842 4.12058 0
M  V30 2415 H 234.519 0.21723 0.627461 0
M  V30 2416 H 237.049 1.22725 1.63706 0
M  V30 2417 H 237.059 0.683386 4.02236 0
M  V30 2418 H 235.734 1.80261 3.74805 0
M  V30 2419 H 234.311 -0.0287509 3.72889 0
M  V30 2420 N 236.496 -1.42363 0.676048 0
M  V30 2421 C 237.742 -2.0182 0.199125 0
M  V30 2422 C 238.075 -1.53339 -1.19168 0
M  V30 2423 O 237.35 -0.736124 -1.80032 0
M  V30 2424 C 237.633 -3.59331 0.235144 0
M  V30 2425 C 237.486 -4.17989 1.66149 0
M  V30 2426 C 238.805 -4.3813 -0.41595 0
M  V30 2427 H 235.924 -0.733293 0.0738311 0
M  V30 2428 H 238.566 -1.69368 0.86107 0
M  V30 2429 H 236.716 -3.87109 -0.328487 0
M  V30 2430 H 238.388 -4.0116 2.27747 0
M  V30 2431 H 236.631 -3.7377 2.20178 0
M  V30 2432 H 237.302 -5.27126 1.63837 0
M  V30 2433 H 239.778 -4.16051 0.0638529 0
M  V30 2434 H 238.654 -5.47717 -0.360115 0
M  V30 2435 H 238.915 -4.16101 -1.49373 0
M  V30 2436 N 237.974 -0.419461 -1.51915 0
M  V30 2437 C 239.223 0.154346 -2.01109 0
M  V30 2438 C 239.536 1.45338 -1.30905 0
M  V30 2439 O 240.742 2.10906 -1.7097 0
M  V30 2440 C 239.198 0.325615 -3.58424 0
M  V30 2441 C 238.806 -0.961934 -4.37551 0
M  V30 2442 C 240.55 0.854155 -4.15818 0
M  V30 2443 C 238.457 -0.757287 -5.86531 0
M  V30 2444 H 237.387 0.0614563 -0.751491 0
M  V30 2445 H 240.038 -0.54649 -1.75173 0
M  V30 2446 H 238.42 1.08903 -3.80731 0
M  V30 2447 H 239.594 -1.7323 -4.26999 0
M  V30 2448 H 237.909 -1.41766 -3.91524 0
M  V30 2449 H 240.506 1.02346 -5.24814 0
M  V30 2450 H 240.849 1.83172 -3.73837 0
M  V30 2451 H 241.382 0.149528 -3.97519 0
M  V30 2452 H 238.121 -1.70671 -6.32892 0
M  V30 2453 H 237.641 -0.0264061 -5.99794 0
M  V30 2454 H 239.32 -0.403482 -6.45741 0
M  V30 2455 N 239.452 1.56882 -0.150215 0
M  V30 2456 C 240.692 1.98119 0.502804 0
M  V30 2457 C 241.056 1.03327 1.61826 0
M  V30 2458 O 242.257 1.33621 2.33236 0
M  V30 2459 C 240.528 3.43329 0.992988 0
M  V30 2460 S 242.087 4.0659 1.65015 0
M  V30 2461 H 238.905 0.692189 0.162467 0
M  V30 2462 H 241.507 1.93988 -0.242689 0
M  V30 2463 H 240.211 4.10046 0.170436 0
M  V30 2464 H 239.742 3.5118 1.77303 0
M  V30 2465 H 241.757 3.99906 2.93752 0
M  V30 2466 N 240.93 -0.123565 1.57115 0
M  V30 2467 C 242.176 -0.833386 1.84885 0
M  V30 2468 C 242.509 -1.79742 0.735292 0
M  V30 2469 O 241.784 -1.92764 -0.25925 0
M  V30 2470 C 242.067 -1.5873 3.23228 0
M  V30 2471 C 241.92 -0.643183 4.45178 0
M  V30 2472 C 243.239 -2.54453 3.59085 0
M  V30 2473 H 240.358 -0.301518 0.6725 0
M  V30 2474 H 243 -0.097778 1.89748 0
M  V30 2475 H 241.15 -2.21438 3.19214 0
M  V30 2476 H 242.822 -0.0253015 4.61293 0
M  V30 2477 H 241.065 0.0456139 4.33776 0
M  V30 2478 H 241.736 -1.20724 5.38637 0
M  V30 2479 H 244.212 -2.01853 3.63861 0
M  V30 2480 H 243.088 -3.04238 4.5687 0
M  V30 2481 H 243.349 -3.36906 2.86264 0
M  V30 2482 N 242.408 -1.52605 -0.393616 0
M  V30 2483 C 243.654 -1.67672 -1.14079 0
M  V30 2484 C 243.987 -0.413121 -1.89755 0
M  V30 2485 O 243.262 0.588952 -1.85369 0
M  V30 2486 C 243.545 -2.9088 -2.12276 0
M  V30 2487 C 243.398 -4.27329 -1.40394 0
M  V30 2488 C 244.717 -3.09628 -3.12759 0
M  V30 2489 H 241.836 -0.610168 -0.413356 0
M  V30 2490 H 244.478 -1.85193 -0.424696 0
M  V30 2491 H 242.628 -2.76073 -2.73342 0
M  V30 2492 H 244.3 -4.53894 -0.82327 0
M  V30 2493 H 242.543 -4.2802 -0.705801 0
M  V30 2494 H 243.214 -5.09615 -2.12123 0
M  V30 2495 H 245.69 -3.23436 -2.61779 0
M  V30 2496 H 244.566 -3.97322 -3.78717 0
M  V30 2497 H 244.827 -2.23637 -3.81365 0
M  V30 2498 N 243.887 0.651787 -1.4349 0
M  V30 2499 C 244.817 1.77621 -1.51569 0
M  V30 2500 C 245.798 1.66022 -0.370253 0
M  V30 2501 O 246.983 1.85095 -0.587658 0
M  V30 2502 C 244.113 3.16056 -1.43966 0
M  V30 2503 C 243.067 3.4242 -2.56774 0
M  V30 2504 C 242.393 4.8067 -2.34223 0
M  V30 2505 C 243.693 3.37023 -3.99015 0
M  V30 2506 H 245.387 1.71117 -2.45681 0
M  V30 2507 H 242.933 0.821825 -1.18246 0
M  V30 2508 H 244.886 3.94472 -1.48221 0
M  V30 2509 H 243.61 3.23293 -0.463586 0
M  V30 2510 H 242.269 2.66375 -2.51873 0
M  V30 2511 H 241.917 4.84585 -1.34856 0
M  V30 2512 H 241.617 4.9927 -3.09844 0
M  V30 2513 H 243.141 5.61342 -2.40265 0
M  V30 2514 H 244.555 4.05374 -4.05395 0
M  V30 2515 H 242.952 3.67159 -4.74673 0
M  V30 2516 H 244.022 2.3518 -4.2405 0
M  V30 2517 N 245.365 1.30045 0.890287 0
M  V30 2518 C 246.611 1.18737 1.64406 0
M  V30 2519 C 246.944 -0.258525 1.92472 0
M  V30 2520 O 246.219 -1.18562 1.54186 0
M  V30 2521 C 246.502 2.01087 2.98724 0
M  V30 2522 C 246.355 3.53867 2.77665 0
M  V30 2523 C 247.674 1.84457 3.9958 0
M  V30 2524 H 244.793 0.432698 0.596608 0
M  V30 2525 H 247.435 1.5962 1.0306 0
M  V30 2526 H 245.585 1.66349 3.51084 0
M  V30 2527 H 247.257 3.98637 2.32133 0
M  V30 2528 H 245.5 3.78318 2.12269 0
M  V30 2529 H 246.171 4.06772 3.7315 0
M  V30 2530 H 248.647 2.14817 3.56361 0
M  V30 2531 H 247.523 2.44411 4.91482 0
M  V30 2532 H 247.784 0.802276 4.3476 0
M  V30 2533 N 246.843 -1.10192 1.12674 0
M  V30 2534 C 248.071 -1.85983 0.906527 0
M  V30 2535 C 248.486 -1.80783 -0.544333 0
M  V30 2536 O 247.843 -1.19834 -1.37645 0
M  V30 2537 C 247.894 -3.34281 1.37618 0
M  V30 2538 O 247.615 -3.39401 2.77017 0
M  V30 2539 C 249.116 -4.26938 1.19325 0
M  V30 2540 H 246.336 -0.587716 0.323775 0
M  V30 2541 H 248.88 -1.39284 1.49734 0
M  V30 2542 H 247.035 -3.78436 0.828539 0
M  V30 2543 H 247.449 -4.31838 2.97684 0
M  V30 2544 H 248.923 -5.29181 1.57071 0
M  V30 2545 H 249.4 -4.38995 0.134097 0
M  V30 2546 H 250.006 -3.8859 1.72852 0
M  V30 2547 N 248.321 -0.919034 -1.28029 0
M  V30 2548 C 249.284 -0.416182 -2.2539 0
M  V30 2549 C 250.284 0.460438 -1.54067 0
M  V30 2550 O 251.474 0.262744 -1.72207 0
M  V30 2551 C 248.606 0.402707 -3.38513 0
M  V30 2552 H 249.799 -1.27629 -2.71387 0
M  V30 2553 H 247.352 -0.698919 -1.39803 0
M  V30 2554 H 248.087 1.282 -2.97885 0
M  V30 2555 H 247.872 -0.225698 -3.9145 0
M  V30 2556 H 249.362 0.745191 -4.10897 0
M  V30 2557 N 249.799 1.42003 -0.683588 0
M  V30 2558 C 251.046 2.01413 -0.209514 0
M  V30 2559 C 251.374 1.54088 1.1869 0
M  V30 2560 O 250.629 0.737591 1.81268 0
M  V30 2561 C 250.928 3.56827 -0.202357 0
M  V30 2562 C 250.594 4.23617 -1.54464 0
M  V30 2563 C 249.256 4.41577 -1.91215 0
M  V30 2564 C 251.608 4.61178 -2.42826 0
M  V30 2565 C 248.936 4.9437 -3.15935 0
M  V30 2566 C 251.288 5.15355 -3.66867 0
M  V30 2567 C 249.952 5.31528 -4.03776 0
M  V30 2568 H 249.222 0.737023 -0.0766668 0
M  V30 2569 H 251.869 1.70067 -0.880312 0
M  V30 2570 H 250.174 3.87892 0.551969 0
M  V30 2571 H 251.871 4.00588 0.181793 0
M  V30 2572 H 248.461 4.10004 -1.24877 0
M  V30 2573 H 252.645 4.46968 -2.15717 0
M  V30 2574 H 247.901 5.05076 -3.44541 0
M  V30 2575 H 252.075 5.43402 -4.35531 0
M  V30 2576 H 249.702 5.72199 -5.00492 0
M  V30 2577 N 251.277 0.427512 1.51691 0
M  V30 2578 C 252.225 -0.403359 2.29076 0
M  V30 2579 C 253.219 -1.02962 1.34518 0
M  V30 2580 O 254.425 -0.965715 1.51901 0
M  V30 2581 H 250.8 -0.148879 0.737115 0
M  V30 2582 H 252.771 0.270295 2.97173 0
M  V30 2583 C 251.52 -1.49763 3.13794 0
M  V30 2584 H 250.843 -1.02508 3.86435 0
M  V30 2585 H 252.283 -2.05244 3.71014 0
M  V30 2586 C 250.742 -2.47536 2.28533 0
M  V30 2587 O 251.272 -3.51848 1.93819 0
M  V30 2588 N 249.478 -2.18187 1.91945 0
M  V30 2589 H 249.025 -1.33389 2.20375 0
M  V30 2590 H 248.983 -2.83848 1.35195 0
M  V30 2591 N 252.755 -1.56801 0.158532 0
M  V30 2592 C 254.032 -1.88131 -0.535357 0
M  V30 2593 C 254.412 -1.06638 -1.82186 0
M  V30 2594 O 253.76 -0.156533 -2.27963 0
M  V30 2595 C 253.97 -3.39949 -0.789653 0
M  V30 2596 C 255.318 -4.09416 -1.12533 0
M  V30 2597 O 256.342 -3.45194 -0.878622 0
M  V30 2598 O 255.201 -5.22855 -1.59014 0
M  V30 2599 H 252.295 -0.780143 -0.27442 0
M  V30 2600 H 254.841 -1.68564 0.19601 0
M  V30 2601 H 253.613 -3.91115 0.120353 0
M  V30 2602 H 253.236 -3.65084 -1.57479 0
M  V30 2603 N 254.233 0.115231 -1.57178 0
M  V30 2604 C 255.479 0.818565 -1.86202 0
M  V30 2605 C 255.834 1.77316 -0.746785 0
M  V30 2606 O 255.127 1.89923 0.25291 0
M  V30 2607 C 255.321 1.60324 -3.19423 0
M  V30 2608 C 255.15 0.726138 -4.43799 0
M  V30 2609 C 253.92 0.379535 -5.03873 0
M  V30 2610 C 256.118 0.0420774 -5.14283 0
M  V30 2611 N 254.1 -0.507841 -6.11796 0
M  V30 2612 C 255.471 -0.704152 -6.15988 0
M  V30 2613 C 257.526 -0.0339486 -4.97888 0
M  V30 2614 C 256.229 -1.51927 -7.03072 0
M  V30 2615 C 258.255 -0.835906 -5.85463 0
M  V30 2616 C 257.617 -1.57031 -6.86673 0
M  V30 2617 H 253.716 0.276343 -0.731545 0
M  V30 2618 H 256.3 0.0821032 -1.94527 0
M  V30 2619 H 254.471 2.31072 -3.12186 0
M  V30 2620 H 256.203 2.2522 -3.36241 0
M  V30 2621 H 252.958 0.722634 -4.68054 0
M  V30 2622 H 253.382 -0.94349 -6.70393 0
M  V30 2623 H 258.024 0.519496 -4.19596 0
M  V30 2624 H 255.742 -2.08386 -7.80769 0
M  V30 2625 H 259.328 -0.89714 -5.74841 0
M  V30 2626 H 258.208 -2.18088 -7.53264 0
M  V30 2627 N 255.711 1.52812 0.385517 0
M  V30 2628 C 256.936 1.72207 1.15583 0
M  V30 2629 C 257.361 0.441034 1.82857 0
M  V30 2630 O 256.719 -0.603465 1.70962 0
M  V30 2631 C 256.767 2.87476 2.17692 0
M  V30 2632 O 255.871 2.54693 3.24354 0
M  V30 2633 H 255.212 0.572526 0.336319 0
M  V30 2634 H 257.742 1.99618 0.448744 0
M  V30 2635 H 257.752 3.13072 2.6163 0
M  V30 2636 H 256.427 3.80408 1.68115 0
M  V30 2637 H 255.004 2.3985 2.85529 0
M  V30 2638 N 257.189 -0.644168 1.43834 0
M  V30 2639 C 258.136 -1.75671 1.49694 0
M  V30 2640 C 259.106 -1.6246 0.345809 0
M  V30 2641 O 260.291 -1.82573 0.554234 0
M  V30 2642 C 257.431 -3.13867 1.43463 0
M  V30 2643 C 256.544 -3.38147 2.6885 0
M  V30 2644 C 255.679 -4.66241 2.54544 0
M  V30 2645 C 254.718 -4.83657 3.75157 0
M  V30 2646 N 253.855 -6.03016 3.59605 0
M  V30 2647 H 258.695 -1.69998 2.44754 0
M  V30 2648 H 256.232 -0.829458 1.21484 0
M  V30 2649 H 258.19 -3.9377 1.37843 0
M  V30 2650 H 256.82 -3.18588 0.519783 0
M  V30 2651 H 255.872 -2.52276 2.84712 0
M  V30 2652 H 257.184 -3.46899 3.58417 0
M  V30 2653 H 256.338 -5.54285 2.46683 0
M  V30 2654 H 255.077 -4.59826 1.62516 0
M  V30 2655 H 254.082 -3.94046 3.83416 0
M  V30 2656 H 255.307 -4.91896 4.68204 0
M  V30 2657 H 253.253 -5.97715 2.7032 0
M  V30 2658 H 253.17 -6.12766 4.42779 0
M  V30 2659 H 254.438 -6.93657 3.55613 0
M  V30 2660 N 258.668 -1.30515 -0.883378 0
M  V30 2661 C 259.578 -1.18959 -2.02203 0
M  V30 2662 C 260.594 -0.109172 -1.73657 0
M  V30 2663 O 261.77 -0.324413 -1.9877 0
M  V30 2664 C 258.835 -0.883871 -3.35244 0
M  V30 2665 C 257.896 -2.04982 -3.77201 0
M  V30 2666 C 257.129 -1.75859 -5.03894 0
M  V30 2667 O 257.352 -0.687276 -5.66244 0
M  V30 2668 O 256.286 -2.61146 -5.42297 0
M  V30 2669 H 260.112 -2.14616 -2.1488 0
M  V30 2670 H 257.697 -1.10124 -1.0096 0
M  V30 2671 H 259.579 -0.728644 -4.15053 0
M  V30 2672 H 258.254 0.0427798 -3.23672 0
M  V30 2673 H 257.161 -2.26038 -2.9809 0
M  V30 2674 H 258.494 -2.95825 -3.93381 0
M  V30 2675 N 260.146 1.09593 -1.13257 0
M  V30 2676 C 261.093 2.1618 -0.808381 0
M  V30 2677 C 262.063 1.64517 0.228754 0
M  V30 2678 O 263.248 1.9053 0.101381 0
M  V30 2679 C 260.388 3.43973 -0.278675 0
M  V30 2680 C 259.501 4.09545 -1.37466 0
M  V30 2681 C 258.636 5.25088 -0.803479 0
M  V30 2682 C 257.675 5.82579 -1.87799 0
M  V30 2683 N 256.812 6.89486 -1.32488 0
M  V30 2684 H 261.652 2.43254 -1.72138 0
M  V30 2685 H 259.189 1.19392 -0.859294 0
M  V30 2686 H 261.147 4.17174 0.0465583 0
M  V30 2687 H 259.777 3.17223 0.597459 0
M  V30 2688 H 258.829 3.34226 -1.81652 0
M  V30 2689 H 260.141 4.48307 -2.18684 0
M  V30 2690 H 259.295 6.05178 -0.429427 0
M  V30 2691 H 258.034 4.87684 0.0397956 0
M  V30 2692 H 257.039 5.01152 -2.26113 0
M  V30 2693 H 258.264 6.22045 -2.72463 0
M  V30 2694 H 256.21 6.54064 -0.503575 0
M  V30 2695 H 256.127 7.27007 -2.07355 0
M  V30 2696 H 257.395 7.73336 -0.978336 0
M  V30 2697 N 261.624 0.925811 1.2754 0
M  V30 2698 C 262.556 0.380753 2.26015 0
M  V30 2699 C 263.569 -0.487485 1.5533 0
M  V30 2700 O 264.758 -0.300413 1.75954 0
M  V30 2701 C 261.858 -0.473259 3.35579 0
M  V30 2702 C 261.031 0.375249 4.35787 0
M  V30 2703 C 260.09 -0.415809 5.24555 0
M  V30 2704 O 259.116 0.175834 5.68928 0
M  V30 2705 N 260.318 -1.71607 5.54555 0
M  V30 2706 H 263.083 1.22725 2.73421 0
M  V30 2707 H 260.644 0.793037 1.41147 0
M  V30 2708 H 262.636 -1.00949 3.91907 0
M  V30 2709 H 261.206 -1.2205 2.87789 0
M  V30 2710 H 260.426 1.09279 3.7875 0
M  V30 2711 H 261.714 0.955399 4.99749 0
M  V30 2712 H 261.112 -2.2191 5.20358 0
M  V30 2713 H 259.669 -2.19887 6.1359 0
M  V30 2714 N 263.102 -1.41638 0.69111 0
M  V30 2715 C 264.349 -2.01299 0.220193 0
M  V30 2716 C 264.677 -1.54715 -1.17871 0
M  V30 2717 O 263.932 -0.747193 -1.80874 0
M  V30 2718 C 264.231 -3.56714 0.221277 0
M  V30 2719 C 263.897 -4.22792 1.56709 0
M  V30 2720 C 262.559 -4.40557 1.93554 0
M  V30 2721 C 264.911 -4.59883 2.45268 0
M  V30 2722 C 262.239 -4.92688 3.18552 0
M  V30 2723 C 264.591 -5.13403 3.69595 0
M  V30 2724 C 263.255 -5.29379 4.06589 0
M  V30 2725 H 262.525 -0.736606 0.0805743 0
M  V30 2726 H 265.172 -1.69598 0.889319 0
M  V30 2727 H 263.477 -3.8818 -0.531391 0
M  V30 2728 H 265.174 -4.00678 -0.160547 0
M  V30 2729 H 261.764 -4.09336 1.2705 0
M  V30 2730 H 265.948 -4.45817 2.18084 0
M  V30 2731 H 261.204 -5.03242 3.47214 0
M  V30 2732 H 265.378 -5.41084 4.38407 0
M  V30 2733 H 263.005 -5.69537 5.03519 0
M  V30 2734 N 264.58 -0.43555 -1.51462 0
M  V30 2735 C 265.996 -0.0877501 -1.59359 0
M  V30 2736 C 266.196 1.4027 -1.4466 0
M  V30 2737 O 265.252 2.17243 -1.28693 0
M  V30 2738 C 266.565 -0.606264 -2.94525 0
M  V30 2739 C 268.113 -0.566548 -3.0783 0
M  V30 2740 C 268.588 -1.06201 -4.45517 0
M  V30 2741 N 270.079 -1.01992 -4.51832 0
M  V30 2742 C 270.814 -1.37417 -5.5669 0
M  V30 2743 N 270.31 -1.80119 -6.68976 0
M  V30 2744 N 272.103 -1.29245 -5.47039 0
M  V30 2745 H 264.254 -1.40533 -1.59261 0
M  V30 2746 H 266.517 -0.578992 -0.750648 0
M  V30 2747 H 266.223 -1.64901 -3.10645 0
M  V30 2748 H 266.097 -0.0302097 -3.77188 0
M  V30 2749 H 268.484 0.467208 -2.91378 0
M  V30 2750 H 268.565 -1.17898 -2.2701 0
M  V30 2751 H 268.209 -2.09422 -4.62715 0
M  V30 2752 H 268.139 -0.426127 -5.24873 0
M  V30 2753 H 270.63 -0.706308 -3.71241 0
M  V30 2754 H 270.943 -2.05392 -7.45006 0
M  V30 2755 H 269.288 -1.84044 -6.70189 0
M  V30 2756 H 272.479 -0.957522 -4.58202 0
M  V30 2757 H 272.652 -1.57182 -6.28648 0
M  V30 2758 N 266.058 1.56714 -0.166846 0
M  V30 2759 C 267.306 1.96358 0.478305 0
M  V30 2760 C 267.627 1.0537 1.6408 0
M  V30 2761 O 266.897 0.119154 1.95537 0
M  V30 2762 H 265.477 0.725065 0.179692 0
M  V30 2763 H 268.139 1.93329 -0.246985 0
M  V30 2764 H 267.235 3.00547 0.841292 0
M  V30 2765 N 267.536 -0.106894 1.57237 0
M  V30 2766 C 268.466 -1.13148 2.04254 0
M  V30 2767 C 269.447 -1.42476 0.929224 0
M  V30 2768 O 270.632 -1.52709 1.19973 0
M  V30 2769 C 267.762 -2.4545 2.45706 0
M  V30 2770 C 266.716 -2.30558 3.60592 0
M  V30 2771 C 266.042 -3.67931 3.87983 0
M  V30 2772 C 267.342 -1.75597 4.91897 0
M  V30 2773 H 269.036 -0.740374 2.90101 0
M  V30 2774 H 266.582 -0.354696 1.39563 0
M  V30 2775 H 268.535 -3.17389 2.77205 0
M  V30 2776 H 267.259 -2.86475 1.56843 0
M  V30 2777 H 265.918 -1.61067 3.29322 0
M  V30 2778 H 265.566 -4.06462 2.96306 0
M  V30 2779 H 265.266 -3.58817 4.65322 0
M  V30 2780 H 266.79 -4.41356 4.21945 0
M  V30 2781 H 268.204 -2.37364 5.21854 0
M  V30 2782 H 266.601 -1.77272 5.73319 0
M  V30 2783 H 267.671 -0.714451 4.79608 0
M  V30 2784 N 269.014 -1.53014 -0.377408 0
M  V30 2785 C 269.946 -1.74884 -1.48149 0
M  V30 2786 C 270.959 -0.629433 -1.5014 0
M  V30 2787 O 272.148 -0.905416 -1.53833 0
M  V30 2788 C 269.248 -1.80299 -2.86959 0
M  V30 2789 C 268.421 -3.09776 -3.08801 0
M  V30 2790 C 267.48 -3.06586 -4.27658 0
M  V30 2791 O 266.506 -3.80419 -4.23403 0
M  V30 2792 N 267.708 -2.26578 -5.34455 0
M  V30 2793 H 270.473 -2.70147 -1.29771 0
M  V30 2794 H 268.034 -1.51646 -0.56703 0
M  V30 2795 H 270.026 -1.75657 -3.64591 0
M  V30 2796 H 268.596 -0.92372 -2.98641 0
M  V30 2797 H 267.816 -3.27815 -2.18931 0
M  V30 2798 H 269.104 -3.95366 -3.20255 0
M  V30 2799 H 268.502 -1.66081 -5.40771 0
M  V30 2800 H 267.059 -2.27766 -6.10709 0
M  V30 2801 N 270.492 0.636531 -1.44174 0
M  V30 2802 C 271.717 1.42847 -1.50364 0
M  V30 2803 C 272.142 1.87665 -0.127867 0
M  V30 2804 O 271.5 1.58408 0.88185 0
M  V30 2805 C 271.548 2.62854 -2.4686 0
M  V30 2806 O 270.652 3.62501 -1.9664 0
M  V30 2807 H 269.993 0.427642 -0.507955 0
M  V30 2808 H 272.523 0.777422 -1.89255 0
M  V30 2809 H 272.533 3.10465 -2.64718 0
M  V30 2810 H 271.208 2.29578 -3.46795 0
M  V30 2811 H 269.785 3.21735 -1.88523 0
M  V30 2812 N 271.97 1.30982 0.876444 0
M  V30 2813 C 273.386 1.09498 1.16113 0
M  V30 2814 C 273.586 -0.13875 2.01022 0
M  V30 2815 O 272.642 -0.829935 2.38471 0
M  V30 2816 C 273.955 2.36308 1.85954 0
M  V30 2817 C 275.503 2.41856 1.98683 0
M  V30 2818 C 275.978 3.6853 2.71937 0
M  V30 2819 N 277.469 3.69387 2.79477 0
M  V30 2820 C 278.204 4.64096 3.36753 0
M  V30 2821 N 277.7 5.69155 3.95012 0
M  V30 2822 N 279.493 4.51626 3.3465 0
M  V30 2823 H 271.644 2.10118 0.310494 0
M  V30 2824 H 273.907 0.926634 0.200131 0
M  V30 2825 H 273.613 3.26388 1.31011 0
M  V30 2826 H 273.487 2.4561 2.86278 0
M  V30 2827 H 275.874 1.52249 2.52793 0
M  V30 2828 H 275.955 2.36523 0.9742 0
M  V30 2829 H 275.599 4.58499 2.18496 0
M  V30 2830 H 275.529 3.71127 3.73593 0
M  V30 2831 H 278.02 2.93438 2.38123 0
M  V30 2832 H 278.333 6.3751 4.36808 0
M  V30 2833 H 276.678 5.72937 3.93406 0
M  V30 2834 H 279.869 3.68728 2.8837 0
M  V30 2835 H 280.042 5.25614 3.7899 0
M  V30 2836 N 273.449 -1.08991 1.13837 0
M  V30 2837 C 274.698 -1.80631 0.897509 0
M  V30 2838 C 275.011 -1.86872 -0.57777 0
M  V30 2839 O 276.217 -2.54866 -0.935701 0
M  V30 2840 C 274.673 -3.24517 1.55618 0
M  V30 2841 C 274.281 -3.26529 3.0673 0
M  V30 2842 C 276.025 -4.00882 1.3962 0
M  V30 2843 C 273.932 -4.64965 3.65461 0
M  V30 2844 H 272.862 -0.67691 0.332129 0
M  V30 2845 H 275.513 -1.2246 1.3666 0
M  V30 2846 H 273.895 -3.82778 1.01476 0
M  V30 2847 H 275.069 -2.78008 3.67489 0
M  V30 2848 H 273.384 -2.63656 3.22296 0
M  V30 2849 H 275.981 -5.03167 1.80906 0
M  V30 2850 H 276.324 -4.14896 0.341578 0
M  V30 2851 H 276.857 -3.49075 1.90766 0
M  V30 2852 H 273.596 -4.56153 4.70749 0
M  V30 2853 H 273.116 -5.13792 3.09481 0
M  V30 2854 H 274.795 -5.3394 3.654 0
M  V30 2855 N 274.927 -0.932562 -1.27047 0
M  V30 2856 C 275.837 -0.441219 -2.30414 0
M  V30 2857 C 276.853 0.480525 -1.67233 0
M  V30 2858 O 278.029 0.362151 -1.98117 0
M  V30 2859 C 275.094 0.293651 -3.45454 0
M  V30 2860 C 274.155 -0.663601 -4.2414 0
M  V30 2861 C 273.388 0.0362932 -5.33688 0
M  V30 2862 O 273.611 1.2548 -5.56427 0
M  V30 2863 O 272.545 -0.638015 -5.98509 0
M  V30 2864 H 276.371 -1.29962 -2.74488 0
M  V30 2865 H 273.956 -0.6981 -1.32087 0
M  V30 2866 H 275.838 0.707951 -4.15411 0
M  V30 2867 H 274.513 1.12758 -3.03426 0
M  V30 2868 H 273.42 -1.12768 -3.56699 0
M  V30 2869 H 274.753 -1.46489 -4.69896 0
M  V30 2870 N 276.405 1.4127 -0.698611 0
M  V30 2871 C 277.337 2.292 0.00399731 0
M  V30 2872 C 278.35 1.44944 0.741279 0
M  V30 2873 O 279.539 1.68416 0.591477 0
M  V30 2874 C 276.639 3.22875 1.02979 0
M  V30 2875 C 275.812 4.35904 0.36151 0
M  V30 2876 C 274.871 5.10134 1.29033 0
M  V30 2877 O 273.897 5.63809 0.781562 0
M  V30 2878 N 275.099 5.17885 2.6225 0
M  V30 2879 H 277.864 2.9014 -0.750921 0
M  V30 2880 H 275.425 1.52455 -0.544882 0
M  V30 2881 H 277.417 3.69404 1.65296 0
M  V30 2882 H 275.987 2.63221 1.68622 0
M  V30 2883 H 275.207 3.91719 -0.441584 0
M  V30 2884 H 276.495 5.08696 -0.103055 0
M  V30 2885 H 275.893 4.7573 3.061 0
M  V30 2886 H 274.45 5.6798 3.19754 0
M  V30 2887 N 277.883 0.443576 1.51229 0
M  V30 2888 C 278.793 -0.370721 2.31652 0
M  V30 2889 C 279.809 -1.02186 1.40833 0
M  V30 2890 O 280.985 -1.01586 1.73903 0
M  V30 2891 C 278.05 -1.45376 3.14749 0
M  V30 2892 C 277.111 -0.822099 4.21355 0
M  V30 2893 C 276.344 -1.85353 5.0048 0
M  V30 2894 O 276.567 -3.07656 4.80316 0
M  V30 2895 O 275.501 -1.4406 5.84406 0
M  V30 2896 H 279.327 0.286002 3.0235 0
M  V30 2897 H 276.912 0.20598 1.47973 0
M  V30 2898 H 278.794 -2.08173 3.66391 0
M  V30 2899 H 277.469 -2.09445 2.46809 0
M  V30 2900 H 276.376 -0.155909 3.73775 0
M  V30 2901 H 277.709 -0.224797 4.91686 0
M  V30 2902 N 279.361 -1.56624 0.175154 0
M  V30 2903 C 280.293 -2.15333 -0.785128 0
M  V30 2904 C 281.306 -1.1099 -1.19101 0
M  V30 2905 O 282.495 -1.38162 -1.13019 0
M  V30 2906 C 279.595 -2.68427 -2.06882 0
M  V30 2907 C 278.768 -3.97466 -1.8259 0
M  V30 2908 C 277.827 -4.35585 -2.95215 0
M  V30 2909 O 276.853 -5.03389 -2.65684 0
M  V30 2910 N 278.055 -3.97457 -4.23094 0
M  V30 2911 H 280.82 -2.98359 -0.283187 0
M  V30 2912 H 278.381 -1.61898 -0.00749817 0
M  V30 2913 H 280.373 -2.90924 -2.81328 0
M  V30 2914 H 278.943 -1.89968 -2.48256 0
M  V30 2915 H 278.163 -3.83307 -0.920287 0
M  V30 2916 H 279.451 -4.81736 -1.63733 0
M  V30 2917 H 278.849 -3.42878 -4.49945 0
M  V30 2918 H 277.406 -4.24947 -4.9423 0
M  V30 2919 N 280.839 0.0985539 -1.57292 0
M  V30 2920 C 281.786 1.11981 -2.01814 0
M  V30 2921 C 282.756 1.39999 -0.89384 0
M  V30 2922 O 283.941 1.5152 -1.15958 0
M  V30 2923 C 281.081 2.43577 -2.44467 0
M  V30 2924 C 280.194 2.2232 -3.70402 0
M  V30 2925 C 279.329 3.4729 -4.01949 0
M  V30 2926 C 278.368 3.2128 -5.21005 0
M  V30 2927 N 277.505 4.38507 -5.48321 0
M  V30 2928 H 282.345 0.733149 -2.88841 0
M  V30 2929 H 279.882 0.350482 -1.42864 0
M  V30 2930 H 281.84 3.20373 -2.6724 0
M  V30 2931 H 280.47 2.80097 -1.60455 0
M  V30 2932 H 279.522 1.36343 -3.55126 0
M  V30 2933 H 280.834 1.99089 -4.57345 0
M  V30 2934 H 279.988 4.32495 -4.25479 0
M  V30 2935 H 278.727 3.73572 -3.13521 0
M  V30 2936 H 277.732 2.34468 -4.97298 0
M  V30 2937 H 278.957 2.96348 -6.11028 0
M  V30 2938 H 276.903 4.64871 -4.62851 0
M  V30 2939 H 276.82 4.18455 -6.29628 0
M  V30 2940 H 278.088 5.24787 -5.76385 0
M  V30 2941 N 282.317 1.53212 0.369288 0
M  V30 2942 C 283.564 1.69215 1.11232 0
M  V30 2943 C 283.892 0.442048 1.8941 0
M  V30 2944 O 283.147 -0.575944 1.87033 0
M  V30 2945 C 283.446 2.89101 2.10132 0
M  V30 2946 C 283.112 4.25758 1.48463 0
M  V30 2947 C 281.774 4.6292 1.31372 0
M  V30 2948 C 284.126 5.10757 1.03811 0
M  V30 2949 C 281.454 5.82722 0.68207 0
M  V30 2950 C 283.806 6.31201 0.420487 0
M  V30 2951 C 282.47 6.67079 0.237038 0
M  V30 2952 H 281.74 0.619201 0.407027 0
M  V30 2953 H 284.387 1.87391 0.394552 0
M  V30 2954 H 282.692 2.65421 2.88199 0
M  V30 2955 H 284.389 2.98676 2.6757 0
M  V30 2956 H 280.979 3.96494 1.62758 0
M  V30 2957 H 285.163 4.82599 1.1581 0
M  V30 2958 H 280.419 6.09113 0.528316 0
M  V30 2959 H 284.593 6.96368 0.0662874 0
M  V30 2960 H 282.22 7.59774 -0.254477 0
M  V30 2961 N 283.795 -0.628877 1.44509 0
M  V30 2962 C 285.023 -1.41554 1.50897 0
M  V30 2963 C 285.438 -1.8832 0.134564 0
M  V30 2964 O 284.795 -1.60969 -0.859965 0
M  V30 2965 C 284.846 -2.63435 2.47556 0
M  V30 2966 O 284.567 -2.18619 3.79654 0
M  V30 2967 C 286.068 -3.56537 2.63431 0
M  V30 2968 H 283.288 -0.434044 0.511709 0
M  V30 2969 H 285.832 -0.768895 1.89495 0
M  V30 2970 H 283.987 -3.24187 2.12089 0
M  V30 2971 H 284.401 -2.97652 4.31861 0
M  V30 2972 H 285.875 -4.38657 3.35088 0
M  V30 2973 H 286.352 -4.05493 1.68738 0
M  V30 2974 H 286.958 -3.01653 2.9981 0
M  V30 2975 N 285.273 -1.31445 -0.869486 0
M  V30 2976 C 286.519 -1.21337 -1.62496 0
M  V30 2977 C 286.852 0.227872 -1.92858 0
M  V30 2978 O 286.127 1.16094 -1.56053 0
M  V30 2979 C 286.41 -2.05814 -2.95487 0
M  V30 2980 C 286.263 -3.5824 -2.72 0
M  V30 2981 C 287.582 -1.9079 -3.96594 0
M  V30 2982 H 284.701 -0.442135 -0.589649 0
M  V30 2983 H 287.343 -1.6124 -1.00507 0
M  V30 2984 H 285.493 -1.71913 -3.48394 0
M  V30 2985 H 287.165 -4.0228 -2.25762 0
M  V30 2986 H 285.408 -3.81647 -2.06224 0
M  V30 2987 H 286.079 -4.12657 -3.66631 0
M  V30 2988 H 288.555 -2.20459 -3.52898 0
M  V30 2989 H 287.431 -2.52199 -4.87531 0
M  V30 2990 H 287.692 -0.871341 -4.33428 0
M  V30 2991 N 286.751 1.08385 -1.14413 0
M  V30 2992 C 287.997 1.81044 -0.913834 0
M  V30 2993 C 288.33 1.86004 0.558209 0
M  V30 2994 O 287.605 1.33606 1.4135 0
M  V30 2995 C 287.888 3.26648 -1.51569 0
M  V30 2996 C 287.741 3.29895 -3.0576 0
M  V30 2997 C 289.06 4.23629 -1.19273 0
M  V30 2998 H 286.179 0.65727 -0.333414 0
M  V30 2999 H 288.821 1.26896 -1.41412 0
M  V30 3000 H 286.971 3.72889 -1.09023 0
M  V30 3001 H 288.643 2.91977 -3.57137 0
M  V30 3002 H 286.886 2.69163 -3.40197 0
M  V30 3003 H 287.557 4.32516 -3.42977 0
M  V30 3004 H 290.033 3.85727 -1.56057 0
M  V30 3005 H 288.909 5.23822 -1.64017 0
M  V30 3006 H 289.17 4.41968 -0.108068 0
M  V30 3007 N 288.23 0.939286 1.26551 0
M  V30 3008 C 289.646 0.641304 1.46149 0
M  V30 3009 C 289.846 -0.805964 1.84679 0
M  V30 3010 O 288.902 -1.58278 1.96734 0
M  V30 3011 C 290.215 1.6011 2.54529 0
M  V30 3012 C 291.763 1.6106 2.68382 0
M  V30 3013 C 292.238 2.55765 3.79932 0
M  V30 3014 N 293.729 2.5404 3.87322 0
M  V30 3015 C 294.464 3.24004 4.73085 0
M  V30 3016 N 293.96 4.03388 5.63249 0
M  V30 3017 N 295.753 3.12965 4.66914 0
M  V30 3018 H 287.904 1.87478 0.998285 0
M  V30 3019 H 290.167 0.805559 0.499779 0
M  V30 3020 H 289.873 2.63412 2.33039 0
M  V30 3021 H 289.747 1.35171 3.52149 0
M  V30 3022 H 292.134 0.584835 2.89247 0
M  V30 3023 H 292.215 1.90053 1.71212 0
M  V30 3024 H 291.859 3.58458 3.5982 0
M  V30 3025 H 291.789 2.24063 4.76554 0
M  V30 3026 H 294.28 1.96396 3.22858 0
M  V30 3027 H 294.593 4.5373 6.25579 0
M  V30 3028 H 292.938 4.07489 5.63008 0
M  V30 3029 H 296.129 2.50432 3.95476 0
M  V30 3030 H 296.302 3.67759 5.33533 0
M  V30 3031 N 289.708 -1.40897 0.706093 0
M  V30 3032 C 290.671 -2.29131 0.0562841 0
M  V30 3033 C 291.671 -1.44901 -0.697166 0
M  V30 3034 O 292.861 -1.65926 -0.530484 0
M  V30 3035 C 289.993 -3.27957 -0.93043 0
M  V30 3036 H 291.186 -2.88091 0.833284 0
M  V30 3037 H 288.739 -1.4906 0.470192 0
M  V30 3038 H 289.474 -2.73997 -1.73482 0
M  V30 3039 H 289.259 -3.90124 -0.393166 0
M  V30 3040 H 290.749 -3.94049 -1.38256 0
M  V30 3041 N 291.186 -0.45159 -1.50991 0
M  V30 3042 C 292.434 0.109857 -2.01801 0
M  V30 3043 C 292.755 1.41958 -1.3369 0
M  V30 3044 O 292.025 1.9003 -0.475951 0
M  V30 3045 H 290.605 0.0435884 -0.745727 0
M  V30 3046 H 293.267 -0.597557 -1.85514 0
M  V30 3047 H 292.363 0.275489 -3.10882 0
M  V30 3048 N 292.664 1.56529 -0.183458 0
M  V30 3049 C 293.596 2.15747 0.773697 0
M  V30 3050 C 294.609 1.1162 1.1851 0
M  V30 3051 O 295.798 1.3876 1.12285 0
M  V30 3052 C 292.898 2.6952 2.05456 0
M  V30 3053 C 292.071 3.98429 1.8048 0
M  V30 3054 C 291.13 4.37145 2.92901 0
M  V30 3055 O 290.156 5.04791 2.6301 0
M  V30 3056 N 291.358 3.99695 4.2098 0
M  V30 3057 H 294.123 2.98505 0.26736 0
M  V30 3058 H 291.684 1.619 -0.0010878 0
M  V30 3059 H 293.676 2.92412 2.79781 0
M  V30 3060 H 292.246 1.91282 2.47245 0
M  V30 3061 H 291.466 3.8379 0.899947 0
M  V30 3062 H 292.754 4.82597 1.61175 0
M  V30 3063 H 292.152 3.4526 4.48121 0
M  V30 3064 H 290.709 4.27562 4.9197 0
M  V30 3065 N 294.142 -0.090211 1.57342 0
M  V30 3066 C 295.388 -0.793982 1.86611 0
M  V30 3067 C 295.721 -1.78142 0.773252 0
M  V30 3068 O 294.996 -1.93271 -0.218304 0
M  V30 3069 C 295.279 -1.51839 3.26523 0
M  V30 3070 C 295.132 -0.548609 4.46442 0
M  V30 3071 C 296.451 -2.46779 3.64401 0
M  V30 3072 H 293.57 -0.287186 0.678744 0
M  V30 3073 H 296.212 -0.0575076 1.89913 0
M  V30 3074 H 294.362 -2.14617 3.23839 0
M  V30 3075 H 296.034 0.0725513 4.61243 0
M  V30 3076 H 294.277 0.137614 4.33582 0
M  V30 3077 H 294.948 -1.09271 5.41076 0
M  V30 3078 H 297.424 -1.94089 3.68061 0
M  V30 3079 H 296.3 -2.94479 4.63221 0
M  V30 3080 H 296.561 -3.30758 2.93346 0
M  V30 3081 N 295.62 -1.53406 -0.361157 0
M  V30 3082 C 296.866 -1.70054 -1.10496 0
M  V30 3083 C 297.199 -0.453278 -1.88836 0
M  V30 3084 O 296.474 0.5495 -1.86576 0
M  V30 3085 C 296.757 -2.95317 -2.06058 0
M  V30 3086 C 296.61 -4.3021 -1.31298 0
M  V30 3087 C 297.929 -3.16193 -3.06121 0
M  V30 3088 H 295.048 -0.618799 -0.400321 0
M  V30 3089 H 297.69 -1.86052 -0.385318 0
M  V30 3090 H 295.84 -2.81809 -2.67425 0
M  V30 3091 H 297.512 -4.55538 -0.726807 0
M  V30 3092 H 295.755 -4.29421 -0.614853 0
M  V30 3093 H 296.426 -5.14 -2.01265 0
M  V30 3094 H 298.902 -3.28916 -2.5486 0
M  V30 3095 H 297.778 -4.05266 -3.70204 0
M  V30 3096 H 298.039 -2.31676 -3.76535 0
M  V30 3097 N 297.098 0.621204 -1.44841 0
M  V30 3098 C 298.03 1.74615 -1.48466 0
M  V30 3099 C 299.043 1.58377 -0.37691 0
M  V30 3100 O 300.232 1.66508 -0.643215 0
M  V30 3101 C 297.332 3.12459 -1.31236 0
M  V30 3102 C 296.505 3.55064 -2.55438 0
M  V30 3103 C 295.564 4.71821 -2.32963 0
M  V30 3104 O 294.59 4.79628 -3.06505 0
M  V30 3105 N 295.792 5.64186 -1.36654 0
M  V30 3106 H 298.557 1.71973 -2.45449 0
M  V30 3107 H 296.118 0.806077 -1.40407 0
M  V30 3108 H 298.11 3.88302 -1.14032 0
M  V30 3109 H 296.68 3.09686 -0.4258 0
M  V30 3110 H 295.9 2.69324 -2.87851 0
M  V30 3111 H 297.188 3.80284 -3.38026 0
M  V30 3112 H 296.586 5.6058 -0.759344 0
M  V30 3113 H 295.143 6.39618 -1.25425 0
M  V30 3114 N 298.576 1.31904 0.862503 0
M  V30 3115 C 299.825 1.21373 1.61094 0
M  V30 3116 C 300.138 -0.22504 1.94301 0
M  V30 3117 O 301.344 -0.452121 2.67709 0
M  V30 3118 C 299.8 2.12525 2.9045 0
M  V30 3119 C 299.408 3.61441 2.64697 0
M  V30 3120 C 301.152 2.10813 3.68454 0
M  V30 3121 C 299.059 4.44578 3.90006 0
M  V30 3122 H 297.989 0.450705 0.604468 0
M  V30 3123 H 300.64 1.56811 0.953027 0
M  V30 3124 H 299.022 1.69994 3.57656 0
M  V30 3125 H 300.196 4.12264 2.05851 0
M  V30 3126 H 298.511 3.65205 2.00036 0
M  V30 3127 H 301.108 2.70167 4.61426 0
M  V30 3128 H 301.451 1.09713 4.01583 0
M  V30 3129 H 301.984 2.51583 3.08141 0
M  V30 3130 H 298.723 5.46461 3.62023 0
M  V30 3131 H 298.243 3.98508 4.48276 0
M  V30 3132 H 299.922 4.57176 4.5782 0
M  V30 3133 N 300.054 -1.07777 1.14986 0
M  V30 3134 C 301.465 -1.61766 0.932127 0
M  V30 3135 C 301.816 -1.88974 -0.527581 0
M  V30 3136 O 300.941 -1.65198 -1.39781 0
M  V30 3137 C 301.536 -2.93891 1.68563 0
M  V30 3138 C 300.095 -3.44639 1.5133 0
M  V30 3139 C 299.242 -2.18767 1.704 0
M  V30 3140 H 302.193 -0.909201 1.30074 0
M  V30 3141 H 302.214 -3.62623 1.15259 0
M  V30 3142 H 301.726 -2.74057 2.74799 0
M  V30 3143 H 299.827 -3.69564 0.474702 0
M  V30 3144 H 299.94 -4.20966 2.28746 0
M  V30 3145 H 298.304 -2.28253 1.13016 0
M  V30 3146 H 299.087 -2.01433 2.77992 0
M  V30 3147 N 301.532 -0.945985 -1.26051 0
M  V30 3148 C 302.778 -0.597002 -1.93814 0
M  V30 3149 C 303.111 0.862484 -1.73997 0
M  V30 3150 O 302.386 1.61769 -1.07986 0
M  V30 3151 C 302.669 -0.945937 -3.47454 0
M  V30 3152 C 302.522 -2.46052 -3.76535 0
M  V30 3153 C 303.841 -0.464785 -4.37639 0
M  V30 3154 H 300.96 -0.218366 -0.703907 0
M  V30 3155 H 303.602 -1.18107 -1.48831 0
M  V30 3156 H 301.752 -0.448902 -3.85898 0
M  V30 3157 H 303.424 -3.03065 -3.47778 0
M  V30 3158 H 301.667 -2.90194 -3.22444 0
M  V30 3159 H 302.338 -2.65517 -4.83947 0
M  V30 3160 H 304.814 -0.891016 -4.06448 0
M  V30 3161 H 303.69 -0.737712 -5.4392 0
M  V30 3162 H 303.951 0.635274 -4.37512 0
M  V30 3163 N 303.011 1.40521 -0.713556 0
M  V30 3164 C 303.974 2.29098 -0.0684347 0
M  V30 3165 C 304.974 1.45268 0.689472 0
M  V30 3166 O 306.164 1.66205 0.521677 0
M  V30 3167 C 303.296 3.28446 0.913024 0
M  V30 3168 H 304.489 2.87645 -0.84855 0
M  V30 3169 H 302.042 1.48809 -0.47809 0
M  V30 3170 H 302.777 2.74913 1.72027 0
M  V30 3171 H 302.562 3.90327 0.372472 0
M  V30 3172 H 304.052 3.94777 1.36165 0
M  V30 3173 N 304.489 0.459591 1.5075 0
M  V30 3174 C 305.399 -0.34613 2.32033 0
M  V30 3175 C 306.415 -1.00686 1.41909 0
M  V30 3176 O 307.591 -0.997361 1.7497 0
M  V30 3177 C 304.656 -1.42029 3.16273 0
M  V30 3178 C 303.717 -0.777362 4.22203 0
M  V30 3179 C 302.95 -1.80034 5.02418 0
M  V30 3180 O 303.173 -3.02544 4.83553 0
M  V30 3181 O 302.107 -1.37853 5.85901 0
M  V30 3182 H 305.933 0.318054 3.0203 0
M  V30 3183 H 303.518 0.221663 1.47746 0
M  V30 3184 H 305.4 -2.04275 3.68578 0
M  V30 3185 H 304.075 -2.06815 2.49016 0
M  V30 3186 H 302.982 -0.116256 3.73919 0
M  V30 3187 H 304.315 -0.172634 4.91897 0
M  V30 3188 N 305.967 -1.56429 0.191757 0
M  V30 3189 C 307.216 -1.9666 -0.448088 0
M  V30 3190 C 307.529 -1.08136 -1.62991 0
M  V30 3191 O 308.735 -1.38135 -2.33733 0
M  V30 3192 C 307.191 -3.49753 -0.848585 0
M  V30 3193 C 306.799 -4.46935 0.308764 0
M  V30 3194 C 308.543 -3.9876 -1.4557 0
M  V30 3195 C 306.45 -5.91293 -0.112506 0
M  V30 3196 H 305.38 -0.734312 -0.171179 0
M  V30 3197 H 308.031 -1.81301 0.283242 0
M  V30 3198 H 306.413 -3.60604 -1.63649 0
M  V30 3199 H 307.587 -4.47813 1.08627 0
M  V30 3200 H 305.902 -4.08102 0.827158 0
M  V30 3201 H 308.499 -5.04086 -1.78328 0
M  V30 3202 H 308.842 -3.42875 -2.36099 0
M  V30 3203 H 309.375 -3.9101 -0.731836 0
M  V30 3204 H 306.114 -6.51097 0.758514 0
M  V30 3205 H 305.634 -5.93676 -0.854941 0
M  V30 3206 H 307.313 -6.44663 -0.549448 0
M  V30 3207 N 307.445 0.0818655 -1.57387 0
M  V30 3208 C 308.691 0.784074 -1.8703 0
M  V30 3209 C 309.024 1.77729 -0.782689 0
M  V30 3210 O 308.299 1.93384 0.208051 0
M  V30 3211 C 308.582 1.50105 -3.27323 0
M  V30 3212 C 308.435 0.524925 -4.46727 0
M  V30 3213 C 309.754 2.44843 -3.65705 0
M  V30 3214 H 306.873 0.283582 -0.680257 0
M  V30 3215 H 309.515 0.0474352 -1.89941 0
M  V30 3216 H 307.665 2.12897 -3.24972 0
M  V30 3217 H 309.337 -0.0970111 -4.61198 0
M  V30 3218 H 307.58 -0.160606 -4.33503 0
M  V30 3219 H 308.251 1.064 -5.41648 0
M  V30 3220 H 310.727 1.92135 -3.69085 0
M  V30 3221 H 309.603 2.92018 -4.64776 0
M  V30 3222 H 309.864 3.29197 -2.95096 0
M  V30 3223 N 308.923 1.53595 0.353017 0
M  V30 3224 C 310.169 1.70638 1.09593 0
M  V30 3225 C 310.502 0.463286 1.88593 0
M  V30 3226 O 309.777 -0.539597 1.86865 0
M  V30 3227 C 310.06 2.96406 2.04489 0
M  V30 3228 C 309.913 4.30901 1.29014 0
M  V30 3229 C 311.232 3.17812 3.0444 0
M  V30 3230 H 308.351 0.620913 0.397034 0
M  V30 3231 H 310.993 1.86254 0.375446 0
M  V30 3232 H 309.143 2.83223 2.65927 0
M  V30 3233 H 310.815 4.55917 0.702638 0
M  V30 3234 H 309.058 4.29741 0.592071 0
M  V30 3235 H 309.729 5.1506 1.98537 0
M  V30 3236 H 312.205 3.30263 2.53112 0
M  V30 3237 H 311.081 4.07223 3.6805 0
M  V30 3238 H 311.342 2.33669 3.75301 0
M  V30 3239 N 310.401 -0.613514 1.45168 0
M  V30 3240 C 311.649 -1.36997 1.48581 0
M  V30 3241 C 311.97 -1.94589 0.126545 0
M  V30 3242 O 311.24 -1.76816 -0.843372 0
M  V30 3243 H 309.82 -0.508558 0.547154 0
M  V30 3244 H 312.482 -0.720853 1.81079 0
M  V30 3245 H 311.578 -2.1924 2.22127 0
M  V30 3246 N 311.879 -1.3236 -0.855495 0
M  V30 3247 C 313.156 -1.13491 -1.59309 0
M  V30 3248 C 313.536 0.30503 -2.08885 0
M  V30 3249 O 312.884 1.30151 -1.87811 0
M  V30 3250 C 313.094 -2.16176 -2.73987 0
M  V30 3251 C 314.442 -2.49463 -3.43589 0
M  V30 3252 O 315.466 -2.14715 -2.84211 0
M  V30 3253 O 314.325 -3.09027 -4.50738 0
M  V30 3254 H 311.419 -0.437887 -0.701559 0
M  V30 3255 H 313.965 -1.43887 -0.899696 0
M  V30 3256 H 312.737 -3.1297 -2.34873 0
M  V30 3257 H 312.36 -1.86769 -3.51003 0
M  V30 3258 N 313.357 1.07166 -1.15556 0
M  V30 3259 C 314.606 1.79181 -0.926132 0
M  V30 3260 C 314.919 1.87768 0.547967 0
M  V30 3261 O 316.125 2.56323 0.895036 0
M  V30 3262 C 314.581 3.22 -1.60761 0
M  V30 3263 C 314.189 3.21607 -3.11886 0
M  V30 3264 C 315.933 3.9861 -1.4598 0
M  V30 3265 C 313.84 4.59092 -3.72812 0
M  V30 3266 H 312.77 0.67154 -0.342856 0
M  V30 3267 H 315.421 1.2027 -1.3859 0
M  V30 3268 H 313.803 3.81115 -1.07553 0
M  V30 3269 H 314.977 2.72127 -3.71865 0
M  V30 3270 H 313.292 2.58495 -3.2645 0
M  V30 3271 H 315.889 5.00225 -1.88888 0
M  V30 3272 H 316.232 4.143 -0.407541 0
M  V30 3273 H 316.765 3.45996 -1.96295 0
M  V30 3274 H 313.504 4.48606 -4.77946 0
M  V30 3275 H 313.024 5.08803 -3.17616 0
M  V30 3276 H 314.703 5.28059 -3.73848 0
M  V30 3277 N 314.835 0.952656 1.25548 0
M  V30 3278 C 315.798 0.475794 2.24207 0
M  V30 3279 C 316.798 -0.419428 1.55234 0
M  V30 3280 O 317.988 -0.216994 1.72843 0
M  V30 3281 C 315.12 -0.312814 3.39462 0
M  V30 3282 H 316.313 1.34779 2.67908 0
M  V30 3283 H 313.866 0.735739 1.37901 0
M  V30 3284 H 314.601 -1.20257 3.01179 0
M  V30 3285 H 314.386 0.329404 3.90714 0
M  V30 3286 H 315.876 -0.635986 4.12729 0
M  V30 3287 N 316.313 -1.40141 0.720998 0
M  V30 3288 C 317.245 -2.29177 0.0324669 0
M  V30 3289 C 318.258 -1.46105 -0.718126 0
M  V30 3290 O 319.447 -1.69335 -0.564608 0
M  V30 3291 C 316.547 -3.24473 -0.978292 0
M  V30 3292 C 315.72 -4.36423 -0.292115 0
M  V30 3293 C 314.779 -5.12122 -1.20901 0
M  V30 3294 O 313.805 -5.64981 -0.691766 0
M  V30 3295 N 315.007 -5.21992 -2.53978 0
M  V30 3296 H 317.772 -2.88909 0.796984 0
M  V30 3297 H 315.333 -1.51569 0.569068 0
M  V30 3298 H 317.325 -3.71987 -1.59398 0
M  V30 3299 H 315.895 -2.65871 -1.64413 0
M  V30 3300 H 315.115 -3.90967 0.503847 0
M  V30 3301 H 316.403 -5.08467 0.183971 0
M  V30 3302 H 315.801 -4.8054 -2.98493 0
M  V30 3303 H 314.358 -5.72995 -3.10677 0
M  V30 3304 N 317.792 -0.46758 -1.50504 0
M  V30 3305 C 319.038 0.0887532 -2.02606 0
M  V30 3306 C 319.371 1.39686 -1.34913 0
M  V30 3307 O 318.646 1.88644 -0.473694 0
M  V30 3308 C 318.929 0.276206 -3.59039 0
M  V30 3309 C 318.782 -1.05267 -4.37309 0
M  V30 3310 C 320.101 1.03235 -4.27821 0
M  V30 3311 H 317.22 0.0307814 -0.736357 0
M  V30 3312 H 319.862 -0.612485 -1.79857 0
M  V30 3313 H 318.012 0.8735 -3.78553 0
M  V30 3314 H 319.684 -1.68628 -4.29374 0
M  V30 3315 H 317.927 -1.65015 -4.01189 0
M  V30 3316 H 318.598 -0.875197 -5.45018 0
M  V30 3317 H 321.074 0.526111 -4.12761 0
M  V30 3318 H 319.95 1.1323 -5.37094 0
M  V30 3319 H 320.211 2.06806 -3.90748 0
M  V30 3320 N 319.27 1.56325 -0.20005 0
M  V30 3321 C 320.217 2.1932 0.718833 0
M  V30 3322 C 321.187 1.14198 1.20615 0
M  V30 3323 O 322.372 1.42469 1.26914 0
M  V30 3324 C 319.512 2.86041 1.93066 0
M  V30 3325 C 318.625 4.05702 1.48425 0
M  V30 3326 C 317.76 4.60266 2.65196 0
M  V30 3327 C 316.799 5.72273 2.17185 0
M  V30 3328 N 315.936 6.21221 3.27152 0
M  V30 3329 H 320.776 2.97486 0.17489 0
M  V30 3330 H 318.313 1.46911 0.0745794 0
M  V30 3331 H 320.271 3.22897 2.64184 0
M  V30 3332 H 318.901 2.1043 2.44783 0
M  V30 3333 H 317.953 3.74475 0.668755 0
M  V30 3334 H 319.265 4.86699 1.09204 0
M  V30 3335 H 318.419 4.99453 3.4443 0
M  V30 3336 H 317.158 3.78386 3.07693 0
M  V30 3337 H 316.163 5.3261 1.36407 0
M  V30 3338 H 317.388 6.55974 1.75713 0
M  V30 3339 H 315.334 5.42263 3.69171 0
M  V30 3340 H 315.251 6.97284 2.92116 0
M  V30 3341 H 316.519 6.65063 4.06585 0
M  V30 3342 N 320.748 -0.0735177 1.57428 0
M  V30 3343 C 321.978 -0.78483 1.91112 0
M  V30 3344 C 322.386 -1.71729 0.7941 0
M  V30 3345 O 321.729 -1.82105 -0.241542 0
M  V30 3346 C 321.791 -1.63346 3.20247 0
M  V30 3347 C 321.455 -0.870557 4.48632 0
M  V30 3348 C 322.452 -0.19058 5.19551 0
M  V30 3349 C 320.137 -0.838242 4.95256 0
M  V30 3350 C 322.131 0.511503 6.35344 0
M  V30 3351 C 319.818 -0.132386 6.10957 0
M  V30 3352 C 320.816 0.541288 6.80852 0
M  V30 3353 O 320.504 1.23578 7.94345 0
M  V30 3354 H 320.236 -0.228408 0.636244 0
M  V30 3355 H 322.79 -0.0486039 2.05342 0
M  V30 3356 H 321.02 -2.41245 3.02222 0
M  V30 3357 H 322.709 -2.22329 3.39595 0
M  V30 3358 H 323.475 -0.206864 4.84559 0
M  V30 3359 H 319.354 -1.35206 4.40727 0
M  V30 3360 H 322.898 1.03789 6.89836 0
M  V30 3361 H 318.795 -0.114023 6.45399 0
M  V30 3362 H 319.563 1.14487 8.10454 0
M  V30 3363 N 322.226 -1.5378 -0.344866 0
M  V30 3364 C 323.474 -1.70625 -1.08311 0
M  V30 3365 C 323.795 -0.471447 -1.89215 0
M  V30 3366 O 323.065 0.514616 -1.8902 0
M  V30 3367 H 321.645 -0.629058 -0.402859 0
M  V30 3368 H 324.307 -1.9103 -0.386459 0
M  V30 3369 H 323.403 -2.57656 -1.76124 0
M  V30 3370 N 323.704 0.605807 -1.45491 0
M  V30 3371 C 324.981 1.36522 -1.40075 0
M  V30 3372 C 325.361 2.10976 -0.0722744 0
M  V30 3373 O 324.709 2.08007 0.945808 0
M  V30 3374 C 324.919 2.31056 -2.61561 0
M  V30 3375 C 326.267 2.93608 -3.06724 0
M  V30 3376 O 327.291 2.41376 -2.61946 0
M  V30 3377 O 326.15 3.88421 -3.84437 0
M  V30 3378 H 323.244 0.612248 -0.555951 0
M  V30 3379 H 325.79 0.628747 -1.57623 0
M  V30 3380 H 324.562 1.75311 -3.49831 0
M  V30 3381 H 324.185 3.12081 -2.46356 0
M  V30 3382 N 325.182 1.32811 0.848464 0
M  V30 3383 C 326.112 1.24882 1.97299 0
M  V30 3384 C 327.093 0.131357 1.69592 0
M  V30 3385 O 328.278 0.319553 1.91553 0
M  V30 3386 C 325.408 0.97746 3.33261 0
M  V30 3387 C 324.362 2.05682 3.75338 0
M  V30 3388 C 323.688 1.63777 5.09 0
M  V30 3389 C 324.988 3.47254 3.90144 0
M  V30 3390 H 326.682 2.18966 2.04191 0
M  V30 3391 H 324.228 1.05413 0.981029 0
M  V30 3392 H 326.181 0.908513 4.1149 0
M  V30 3393 H 324.905 0.000980011 3.266 0
M  V30 3394 H 323.564 2.11603 2.99366 0
M  V30 3395 H 323.212 0.648569 4.98801 0
M  V30 3396 H 322.912 2.36 5.38124 0
M  V30 3397 H 324.436 1.5833 5.89715 0
M  V30 3398 H 325.85 3.43888 4.58709 0
M  V30 3399 H 324.247 4.1788 4.30693 0
M  V30 3400 H 325.317 3.86462 2.92874 0
M  V30 3401 N 326.66 -1.06551 1.16123 0
M  V30 3402 C 327.59 -2.15935 0.88851 0
M  V30 3403 C 328.571 -1.69306 -0.164135 0
M  V30 3404 O 329.756 -1.94193 -0.0167857 0
M  V30 3405 C 326.886 -3.45149 0.385942 0
M  V30 3406 C 325.84 -4.05271 1.3762 0
M  V30 3407 C 325.166 -5.29664 0.732137 0
M  V30 3408 C 326.466 -4.44355 2.74493 0
M  V30 3409 H 328.16 -2.39006 1.80323 0
M  V30 3410 H 325.706 -1.14866 0.868435 0
M  V30 3411 H 327.659 -4.21004 0.182647 0
M  V30 3412 H 326.383 -3.21689 -0.564274 0
M  V30 3413 H 325.042 -3.3147 1.56599 0
M  V30 3414 H 324.69 -5.02499 -0.224483 0
M  V30 3415 H 324.39 -5.70848 1.39307 0
M  V30 3416 H 325.914 -6.08218 0.538802 0
M  V30 3417 H 327.328 -5.11303 2.59311 0
M  V30 3418 H 325.725 -4.96515 3.37035 0
M  V30 3419 H 326.795 -3.55339 3.29943 0
M  V30 3420 N 328.138 -0.959301 -1.25041 0
M  V30 3421 C 329.549 -0.65667 -1.74771 0
M  V30 3422 C 329.9 0.827852 -1.77879 0
M  V30 3423 O 329.025 1.64783 -1.40269 0
M  V30 3424 C 329.62 -1.1853 -3.1739 0
M  V30 3425 C 328.179 -0.932734 -3.6466 0
M  V30 3426 C 327.326 -1.32558 -2.43564 0
M  V30 3427 H 330.277 -1.13558 -1.10862 0
M  V30 3428 H 330.298 -0.547582 -3.76539 0
M  V30 3429 H 329.81 -2.26576 -3.15095 0
M  V30 3430 H 327.911 0.13257 -3.72364 0
M  V30 3431 H 328.024 -1.57248 -4.52559 0
M  V30 3432 H 326.388 -0.743956 -2.43593 0
M  V30 3433 H 327.171 -2.41537 -2.43957 0
M  V30 3434 N 329.616 1.39756 -0.72842 0
M  V30 3435 C 330.579 2.29012 -0.0927297 0
M  V30 3436 C 331.579 1.45992 0.674025 0
M  V30 3437 O 332.769 1.66749 0.50402 0
M  V30 3438 C 329.901 3.29396 0.878137 0
M  V30 3439 H 331.094 2.86729 -0.879011 0
M  V30 3440 H 328.647 1.48293 -0.493847 0
M  V30 3441 H 329.382 2.76722 1.69101 0
M  V30 3442 H 329.167 3.907 0.331051 0
M  V30 3443 H 330.657 3.96199 1.3197 0
M  V30 3444 N 331.094 0.475555 1.50254 0
M  V30 3445 C 332.371 -0.139685 1.95101 0
M  V30 3446 C 332.751 -1.56555 1.41611 0
M  V30 3447 O 332.099 -2.19956 0.618993 0
M  V30 3448 C 332.309 -0.0784298 3.48912 0
M  V30 3449 C 333.657 -0.265095 4.23772 0
M  V30 3450 O 334.681 -0.154808 3.55863 0
M  V30 3451 O 333.54 -0.488327 5.44314 0
M  V30 3452 H 330.634 -0.109236 0.819754 0
M  V30 3453 H 333.18 0.536276 1.61004 0
M  V30 3454 H 331.952 0.916918 3.80405 0
M  V30 3455 H 331.575 -0.795655 3.89558 0
M  V30 3456 N 332.573 -1.56217 0.208337 0
M  V30 3457 C 333.821 -1.97558 -0.426076 0
M  V30 3458 C 334.142 -1.09683 -1.61229 0
M  V30 3459 O 333.412 -0.170956 -1.95153 0
M  V30 3460 H 331.992 -0.729575 -0.160405 0
M  V30 3461 H 334.654 -1.92606 0.298155 0
M  V30 3462 H 333.75 -3.02672 -0.761312 0
M  V30 3463 N 334.051 0.0651679 -1.57465 0
M  V30 3464 C 334.981 1.07693 -2.07182 0
M  V30 3465 C 335.962 1.39962 -0.966673 0
M  V30 3466 O 337.147 1.49475 -1.2398 0
M  V30 3467 C 334.277 2.3885 -2.52127 0
M  V30 3468 C 333.231 2.20917 -3.66579 0
M  V30 3469 C 332.557 3.57515 -3.97601 0
M  V30 3470 C 333.857 1.62493 -4.9638 0
M  V30 3471 H 335.551 0.663199 -2.91962 0
M  V30 3472 H 333.097 0.317569 -1.40455 0
M  V30 3473 H 335.05 3.09928 -2.85522 0
M  V30 3474 H 333.774 2.82215 -1.64384 0
M  V30 3475 H 332.433 1.52279 -3.33477 0
M  V30 3476 H 332.081 3.98463 -3.06979 0
M  V30 3477 H 331.781 3.46353 -4.74672 0
M  V30 3478 H 333.305 4.30013 -4.33499 0
M  V30 3479 H 334.719 2.23445 -5.27963 0
M  V30 3480 H 333.116 1.62009 -5.77818 0
M  V30 3481 H 334.186 0.587041 -4.81333 0
M  V30 3482 N 335.529 1.53961 0.336706 0
M  V30 3483 C 336.776 1.71536 1.07618 0
M  V30 3484 C 337.104 0.482125 1.8843 0
M  V30 3485 O 336.359 -0.536142 1.88213 0
M  V30 3486 C 336.658 2.93493 2.03953 0
M  V30 3487 C 336.324 4.28811 1.39399 0
M  V30 3488 C 334.986 4.65602 1.21523 0
M  V30 3489 C 337.338 5.12844 0.929541 0
M  V30 3490 C 334.666 5.84037 0.558312 0
M  V30 3491 C 337.018 6.31951 0.286505 0
M  V30 3492 C 335.682 6.67432 0.0954869 0
M  V30 3493 H 334.952 0.627696 0.393801 0
M  V30 3494 H 337.599 1.88186 0.354715 0
M  V30 3495 H 335.904 2.71475 2.82504 0
M  V30 3496 H 337.601 3.04285 2.61174 0
M  V30 3497 H 334.191 3.99858 1.54311 0
M  V30 3498 H 338.375 4.84947 1.05548 0
M  V30 3499 H 333.631 6.10097 0.398995 0
M  V30 3500 H 337.805 6.96352 -0.0814376 0
M  V30 3501 H 335.432 7.59063 -0.415579 0
M  V30 3502 N 337.007 -0.598083 1.45811 0
M  V30 3503 C 338.256 -1.35295 1.49594 0
M  V30 3504 C 338.569 -1.95057 0.145679 0
M  V30 3505 O 339.775 -2.71431 0.0612099 0
M  V30 3506 C 338.231 -2.45124 2.63519 0
M  V30 3507 C 337.839 -1.91732 4.04899 0
M  V30 3508 C 339.583 -3.2205 2.76558 0
M  V30 3509 C 337.49 -2.991 5.1019 0
M  V30 3510 H 336.42 -0.508552 0.556679 0
M  V30 3511 H 339.071 -0.639977 1.71978 0
M  V30 3512 H 337.453 -3.19149 2.34435 0
M  V30 3513 H 338.627 -1.24352 4.43704 0
M  V30 3514 H 336.942 -1.27522 3.96393 0
M  V30 3515 H 339.539 -4.0215 3.52391 0
M  V30 3516 H 339.882 -3.73663 1.83526 0
M  V30 3517 H 340.415 -2.55127 3.05213 0
M  V30 3518 H 337.154 -2.52393 6.04961 0
M  V30 3519 H 336.674 -3.65017 4.75944 0
M  V30 3520 H 338.353 -3.63318 5.35359 0
M  V30 3521 N 338.485 -1.33259 -0.841409 0
M  V30 3522 C 339.417 -1.19136 -1.95804 0
M  V30 3523 C 340.43 -0.122965 -1.62335 0
M  V30 3524 O 341.619 -0.373154 -1.74556 0
M  V30 3525 C 338.719 -0.804268 -3.29218 0
M  V30 3526 C 337.892 -1.96376 -3.90839 0
M  V30 3527 C 336.951 -1.55806 -5.02604 0
M  V30 3528 O 335.977 -2.27203 -5.21888 0
M  V30 3529 N 337.179 -0.461609 -5.78662 0
M  V30 3530 H 339.944 -2.15326 -2.08458 0
M  V30 3531 H 337.505 -1.25971 -1.017 0
M  V30 3532 H 339.497 -0.51501 -4.0141 0
M  V30 3533 H 338.067 0.0668809 -3.12528 0
M  V30 3534 H 337.287 -2.41879 -3.11269 0
M  V30 3535 H 338.575 -2.73966 -4.28742 0
M  V30 3536 H 337.973 0.132343 -5.65545 0
M  V30 3537 H 336.53 -0.232013 -6.51387 0
M  V30 3538 N 339.963 1.05934 -1.16686 0
M  V30 3539 C 341.211 1.78447 -0.948744 0
M  V30 3540 C 341.532 1.87813 0.524523 0
M  V30 3541 O 340.802 1.38945 1.38098 0
M  V30 3542 H 339.382 0.660971 -0.348033 0
M  V30 3543 H 342.044 1.27947 -1.47022 0
M  V30 3544 H 341.14 2.80394 -1.37061 0
M  V30 3545 N 341.441 0.965919 1.2453 0
M  V30 3546 C 342.389 0.486506 2.27455 0
M  V30 3547 C 343.383 -0.449041 1.6334 0
M  V30 3548 O 344.589 -0.324527 1.7705 0
M  V30 3549 H 340.964 0.138857 0.739069 0
M  V30 3550 H 342.935 1.3666 2.65267 0
M  V30 3551 C 341.684 -0.209481 3.47068 0
M  V30 3552 H 341.007 0.50129 3.96645 0
M  V30 3553 H 342.447 -0.508775 4.20936 0
M  V30 3554 C 340.906 -1.43586 3.0477 0
M  V30 3555 O 341.436 -2.53299 3.11773 0
M  V30 3556 N 339.642 -1.30126 2.59838 0
M  V30 3557 H 339.189 -0.408583 2.54339 0
M  V30 3558 H 339.147 -2.12294 2.31902 0
M  V30 3559 N 342.919 -1.39368 0.735821 0
M  V30 3560 C 344.196 -1.94465 0.210395 0
M  V30 3561 C 344.576 -1.67254 -1.28799 0
M  V30 3562 O 343.924 -1.00123 -2.05396 0
M  V30 3563 C 344.134 -3.4472 0.544897 0
M  V30 3564 C 345.482 -4.21708 0.494689 0
M  V30 3565 O 346.506 -3.52922 0.482136 0
M  V30 3566 O 345.365 -5.44299 0.489947 0
M  V30 3567 H 342.459 -0.826096 0.0386666 0
M  V30 3568 H 345.005 -1.48863 0.814735 0
M  V30 3569 H 343.777 -3.57963 1.58045 0
M  V30 3570 H 343.4 -3.97502 -0.08837 0
M  V30 3571 N 344.397 -0.483516 -1.5 0
M  V30 3572 C 345.327 0.293829 -2.31644 0
M  V30 3573 C 346.308 0.978864 -1.39112 0
M  V30 3574 O 347.493 0.973644 -1.68029 0
M  V30 3575 C 344.623 1.36897 -3.19181 0
M  V30 3576 C 343.577 0.804833 -4.20365 0
M  V30 3577 C 342.903 1.9792 -4.96721 0
M  V30 3578 C 344.203 -0.192313 -5.21946 0
M  V30 3579 H 345.897 -0.387616 -2.9688 0
M  V30 3580 H 343.443 -0.187856 -1.42769 0
M  V30 3581 H 345.396 1.92037 -3.751 0
M  V30 3582 H 344.12 2.07936 -2.51853 0
M  V30 3583 H 342.779 0.275319 -3.65565 0
M  V30 3584 H 342.427 2.67686 -4.25856 0
M  V30 3585 H 342.127 1.60789 -5.65173 0
M  V30 3586 H 343.651 2.53526 -5.55479 0
M  V30 3587 H 345.065 0.270333 -5.72662 0
M  V30 3588 H 343.462 -0.478543 -5.98189 0
M  V30 3589 H 344.532 -1.11409 -4.71928 0
M  V30 3590 N 345.875 1.56104 -0.216619 0
M  V30 3591 C 346.822 2.2007 0.695531 0
M  V30 3592 C 347.792 1.15471 1.19397 0
M  V30 3593 O 348.977 1.43807 1.25396 0
M  V30 3594 C 346.117 2.88073 1.90021 0
M  V30 3595 C 345.23 4.07253 1.44113 0
M  V30 3596 C 344.365 4.63052 2.603 0
M  V30 3597 C 343.404 5.74545 2.11103 0
M  V30 3598 N 342.541 6.24656 3.20545 0
M  V30 3599 H 347.381 2.97655 0.143327 0
M  V30 3600 H 344.918 1.46982 0.0589934 0
M  V30 3601 H 346.876 3.25681 2.60745 0
M  V30 3602 H 345.506 2.13015 2.42538 0
M  V30 3603 H 344.558 3.75164 0.628999 0
M  V30 3604 H 345.87 4.8783 1.04036 0
M  V30 3605 H 345.024 5.03078 3.39113 0
M  V30 3606 H 343.763 3.81628 3.03663 0
M  V30 3607 H 342.768 5.34027 1.3075 0
M  V30 3608 H 343.993 6.57801 1.68746 0
M  V30 3609 H 341.939 5.46148 3.63399 0
M  V30 3610 H 341.856 7.00343 2.84704 0
M  V30 3611 H 343.124 6.69338 3.99508 0
M  V30 3612 N 347.353 -0.0568162 1.57498 0
M  V30 3613 C 348.602 -0.752001 1.87157 0
M  V30 3614 C 348.915 -1.77978 0.811375 0
M  V30 3615 O 350.121 -2.52559 0.996293 0
M  V30 3616 C 348.577 -1.38844 3.3204 0
M  V30 3617 C 348.185 -0.398456 4.46225 0
M  V30 3618 C 349.929 -2.06512 3.70882 0
M  V30 3619 C 347.836 -1.04166 5.82154 0
M  V30 3620 H 346.766 -0.28461 0.698222 0
M  V30 3621 H 349.417 -0.00561272 1.83499 0
M  V30 3622 H 347.799 -2.1836 3.30356 0
M  V30 3623 H 348.973 0.367977 4.59328 0
M  V30 3624 H 347.288 0.174592 4.16034 0
M  V30 3625 H 349.885 -2.55437 4.6974 0
M  V30 3626 H 350.228 -2.87117 3.01445 0
M  V30 3627 H 350.761 -1.33808 3.7462 0
M  V30 3628 H 347.5 -0.275614 6.5492 0
M  V30 3629 H 347.02 -1.7786 5.72823 0
M  V30 3630 H 348.699 -1.55715 6.27982 0
M  V30 3631 N 348.832 -1.54138 -0.328536 0
M  V30 3632 C 350.109 -1.62749 -1.08499 0
M  V30 3633 C 350.489 -0.458198 -2.06067 0
M  V30 3634 O 349.837 0.548046 -2.2183 0
M  V30 3635 C 350.047 -2.99519 -1.79135 0
M  V30 3636 C 351.395 -3.55394 -2.32337 0
M  V30 3637 O 352.419 -3.01792 -1.89209 0
M  V30 3638 O 351.278 -4.49186 -3.11279 0
M  V30 3639 H 348.372 -0.65886 -0.499832 0
M  V30 3640 H 350.918 -1.66484 -0.328826 0
M  V30 3641 H 349.69 -3.76061 -1.08139 0
M  V30 3642 H 349.313 -2.99441 -2.61574 0
M  V30 3643 N 350.31 0.590341 -1.46126 0
M  V30 3644 C 351.22 1.72793 -1.58681 0
M  V30 3645 C 352.236 1.67516 -0.470566 0
M  V30 3646 O 353.412 1.87562 -0.733642 0
M  V30 3647 C 350.477 3.09287 -1.5666 0
M  V30 3648 C 349.538 3.25886 -2.79458 0
M  V30 3649 C 348.771 4.55869 -2.77524 0
M  V30 3650 O 348.994 5.3928 -1.85832 0
M  V30 3651 O 347.928 4.75552 -3.68964 0
M  V30 3652 H 351.754 1.65149 -2.54872 0
M  V30 3653 H 349.339 0.756486 -1.28832 0
M  V30 3654 H 351.221 3.90577 -1.58202 0
M  V30 3655 H 349.896 3.17385 -0.636271 0
M  V30 3656 H 348.803 2.44119 -2.83472 0
M  V30 3657 H 350.136 3.22675 -3.71674 0
M  V30 3658 N 351.788 1.33704 0.83433 0
M  V30 3659 C 353.013 1.28615 1.62705 0
M  V30 3660 C 353.438 -0.139242 1.87584 0
M  V30 3661 O 352.796 -1.09734 1.4432 0
M  V30 3662 C 352.844 2.07139 2.95171 0
M  V30 3663 O 351.948 1.4331 3.86699 0
M  V30 3664 H 351.289 0.44226 0.49528 0
M  V30 3665 H 353.819 1.76335 1.03766 0
M  V30 3666 H 353.829 2.18073 3.44831 0
M  V30 3667 H 352.504 3.10779 2.76386 0
M  V30 3668 H 351.081 1.4105 3.45195 0
M  V30 3669 N 353.266 -1.05314 1.17247 0
M  V30 3670 C 354.491 -1.82509 0.985148 0
M  V30 3671 C 354.916 -1.82343 -0.461788 0
M  V30 3672 O 354.274 -1.23151 -1.33055 0
M  V30 3673 C 354.322 -3.26566 1.52929 0
M  V30 3674 O 353.426 -4.05666 0.742225 0
M  V30 3675 H 352.767 -0.564347 0.349869 0
M  V30 3676 H 355.297 -1.32718 1.55715 0
M  V30 3677 H 355.307 -3.77369 1.55103 0
M  V30 3678 H 353.982 -3.26001 2.58256 0
M  V30 3679 H 352.559 -3.64397 0.791794 0
M  V30 3680 N 354.744 -0.972509 -1.24016 0
M  V30 3681 C 355.674 -0.525548 -2.27509 0
M  V30 3682 C 356.655 0.437262 -1.64384 0
M  V30 3683 O 357.84 0.332343 -1.91335 0
M  V30 3684 C 354.97 0.180448 -3.46831 0
M  V30 3685 C 353.924 -0.698859 -4.22256 0
M  V30 3686 C 353.25 0.138903 -5.3452 0
M  V30 3687 C 354.55 -1.98582 -4.83076 0
M  V30 3688 H 356.244 -1.39058 -2.65148 0
M  V30 3689 H 353.79 -0.67009 -1.27459 0
M  V30 3690 H 355.743 0.504387 -4.18371 0
M  V30 3691 H 354.467 1.07987 -3.08231 0
M  V30 3692 H 353.126 -1.00614 -3.52523 0
M  V30 3693 H 352.774 1.03862 -4.9216 0
M  V30 3694 H 352.474 -0.446259 -5.85903 0
M  V30 3695 H 353.998 0.457404 -6.08884 0
M  V30 3696 H 355.412 -1.72715 -5.46665 0
M  V30 3697 H 353.809 -2.5181 -5.44713 0
M  V30 3698 H 354.879 -2.67769 -4.04262 0
M  V30 3699 N 356.222 1.38976 -0.743202 0
M  V30 3700 C 357.45 2.04636 -0.30525 0
M  V30 3701 C 357.865 1.56044 1.06281 0
M  V30 3702 O 357.222 0.728921 1.67311 0
M  V30 3703 C 357.273 3.60193 -0.307177 0
M  V30 3704 O 356.994 4.06998 -1.62124 0
M  V30 3705 C 358.495 4.4306 0.145928 0
M  V30 3706 H 355.715 0.65788 -0.132041 0
M  V30 3707 H 358.259 1.77866 -1.00915 0
M  V30 3708 H 356.414 3.85835 0.347898 0
M  V30 3709 H 356.828 5.01371 -1.54036 0
M  V30 3710 H 358.302 5.51921 0.0934183 0
M  V30 3711 H 358.779 4.22706 1.19231 0
M  V30 3712 H 359.385 4.22584 -0.479886 0
M  V30 3713 N 357.7 0.491464 1.49741 0
M  V30 3714 C 358.948 -0.0563141 2.02022 0
M  V30 3715 C 359.269 -1.38363 1.37407 0
M  V30 3716 O 358.539 -1.88702 0.526166 0
M  V30 3717 H 357.119 -0.0238014 0.746621 0
M  V30 3718 H 359.781 0.646533 1.83864 0
M  V30 3719 H 358.877 -0.192967 3.11503 0
M  V30 3720 N 359.178 -1.55987 0.224894 0
M  V30 3721 C 360.088 -2.24066 -0.69511 0
M  V30 3722 C 361.104 -1.24939 -1.21104 0
M  V30 3723 O 362.28 -1.5776 -1.25195 0
M  V30 3724 C 359.345 -2.90983 -1.88493 0
M  V30 3725 C 358.406 -4.05462 -1.41064 0
M  V30 3726 C 357.639 -4.69179 -2.54375 0
M  V30 3727 O 357.862 -4.31895 -3.72589 0
M  V30 3728 O 356.796 -5.58108 -2.25386 0
M  V30 3729 H 360.622 -3.03353 -0.145149 0
M  V30 3730 H 358.207 -1.49399 -0.00569476 0
M  V30 3731 H 360.089 -3.33209 -2.57972 0
M  V30 3732 H 358.764 -2.14653 -2.42293 0
M  V30 3733 H 357.671 -3.67798 -0.683774 0
M  V30 3734 H 359.004 -4.83545 -0.918985 0
M  V30 3735 N 360.656 0.0484629 -1.57525 0
M  V30 3736 C 361.881 0.759177 -1.93006 0
M  V30 3737 C 362.306 1.69125 -0.823317 0
M  V30 3738 O 361.664 1.79931 0.222364 0
M  V30 3739 C 361.712 1.50899 -3.27509 0
M  V30 3740 O 360.816 2.62112 -3.18388 0
M  V30 3741 H 360.157 0.205564 -0.631379 0
M  V30 3742 H 362.687 0.00972959 -2.04598 0
M  V30 3743 H 362.697 1.88317 -3.6194 0
M  V30 3744 H 361.372 0.825269 -4.0763 0
M  V30 3745 H 359.949 2.27379 -2.95556 0
M  V30 3746 N 362.134 1.5431 0.320358 0
M  V30 3747 C 363.411 1.63322 1.07635 0
M  V30 3748 C 363.791 0.46912 2.05821 0
M  V30 3749 O 363.139 -0.536274 2.22118 0
M  V30 3750 C 363.349 3.00465 1.77544 0
M  V30 3751 C 364.697 3.56621 2.30449 0
M  V30 3752 O 365.721 3.02791 1.87606 0
M  V30 3753 O 364.58 4.5083 3.08892 0
M  V30 3754 H 361.674 0.661502 0.496331 0
M  V30 3755 H 364.22 1.66656 0.319992 0
M  V30 3756 H 362.992 3.76629 1.06143 0
M  V30 3757 H 362.615 3.00824 2.59982 0
M  V30 3758 N 363.613 -0.582584 1.46437 0
M  V30 3759 C 364.545 -1.70618 1.53043 0
M  V30 3760 C 365.558 -1.57322 0.418769 0
M  V30 3761 O 366.747 -1.64744 0.687136 0
M  V30 3762 C 363.847 -3.08869 1.39474 0
M  V30 3763 C 363.02 -3.48166 2.64762 0
M  V30 3764 C 362.079 -4.65478 2.4539 0
M  V30 3765 O 361.105 -4.71333 3.19114 0
M  V30 3766 N 362.307 -5.60365 1.51564 0
M  V30 3767 H 365.072 -1.65405 2.49923 0
M  V30 3768 H 362.633 -0.768567 1.42494 0
M  V30 3769 H 364.625 -3.85143 1.24287 0
M  V30 3770 H 363.195 -3.08449 0.507758 0
M  V30 3771 H 362.415 -2.61598 2.9489 0
M  V30 3772 H 363.703 -3.71188 3.4799 0
M  V30 3773 H 363.101 -5.5837 0.907705 0
M  V30 3774 H 361.658 -6.36068 1.4234 0
M  V30 3775 N 365.091 -1.34144 -0.827227 0
M  V30 3776 C 366.337 -1.26446 -1.58554 0
M  V30 3777 C 366.67 0.1664 -1.93486 0
M  V30 3778 O 365.945 1.1107 -1.59667 0
M  V30 3779 C 366.228 -2.15111 -2.8879 0
M  V30 3780 C 366.081 -3.66712 -2.60465 0
M  V30 3781 C 367.4 -2.03311 -3.90324 0
M  V30 3782 H 364.519 -0.46067 -0.575284 0
M  V30 3783 H 367.161 -1.64356 -0.953269 0
M  V30 3784 H 365.311 -1.8291 -3.42748 0
M  V30 3785 H 366.983 -4.09259 -2.1285 0
M  V30 3786 H 365.226 -3.88014 -1.93978 0
M  V30 3787 H 365.897 -4.24112 -3.53317 0
M  V30 3788 H 368.373 -2.31574 -3.45706 0
M  V30 3789 H 367.249 -2.67582 -4.79261 0
M  V30 3790 H 367.51 -1.00879 -4.30437 0
M  V30 3791 N 366.569 1.04691 -1.17803 0
M  V30 3792 C 367.985 1.29963 -0.926379 0
M  V30 3793 C 368.185 1.97251 0.411635 0
M  V30 3794 O 367.241 2.24922 1.14744 0
M  V30 3795 C 368.554 2.16447 -2.08737 0
M  V30 3796 C 370.102 2.29814 -2.12496 0
M  V30 3797 C 370.577 3.19661 -3.27995 0
M  V30 3798 N 372.068 3.27247 -3.27816 0
M  V30 3799 C 372.803 3.96906 -4.13827 0
M  V30 3800 N 372.299 4.6895 -5.09959 0
M  V30 3801 N 374.092 3.93122 -4.01761 0
M  V30 3802 H 366.243 0.594182 -2.0392 0
M  V30 3803 H 368.506 0.324649 -0.890678 0
M  V30 3804 H 368.212 1.74304 -3.05469 0
M  V30 3805 H 368.086 3.17103 -2.04268 0
M  V30 3806 H 370.473 2.71196 -1.16347 0
M  V30 3807 H 370.554 1.2877 -2.21025 0
M  V30 3808 H 370.198 2.78991 -4.24413 0
M  V30 3809 H 370.128 4.20722 -3.16703 0
M  V30 3810 H 372.619 2.75921 -2.58217 0
M  V30 3811 H 372.932 5.19679 -5.71974 0
M  V30 3812 H 371.277 4.67875 -5.13924 0
M  V30 3813 H 374.468 3.35967 -3.2595 0
M  V30 3814 H 374.641 4.47139 -4.6901 0
M  V30 3815 N 368.047 0.979072 1.23499 0
M  V30 3816 C 368.994 0.517904 2.24914 0
M  V30 3817 C 369.964 -0.442525 1.60097 0
M  V30 3818 O 371.149 -0.350365 1.87556 0
M  V30 3819 C 368.289 -0.174813 3.44657 0
M  V30 3820 C 367.402 0.825721 4.24035 0
M  V30 3821 C 366.537 0.107946 5.3109 0
M  V30 3822 C 365.576 1.09778 6.02175 0
M  V30 3823 N 364.713 0.40925 7.00906 0
M  V30 3824 H 369.553 1.38751 2.63727 0
M  V30 3825 H 367.09 0.695303 1.2963 0
M  V30 3826 H 369.048 -0.593233 4.12961 0
M  V30 3827 H 367.678 -1.0083 3.06648 0
M  V30 3828 H 366.73 1.36253 3.55161 0
M  V30 3829 H 368.042 1.58005 4.73113 0
M  V30 3830 H 367.196 -0.367904 6.05583 0
M  V30 3831 H 365.935 -0.678994 4.8295 0
M  V30 3832 H 364.94 1.5844 5.26476 0
M  V30 3833 H 366.165 1.88536 6.52404 0
M  V30 3834 H 364.111 -0.358506 6.5502 0
M  V30 3835 H 364.028 1.10226 7.47921 0
M  V30 3836 H 365.296 -0.0442557 7.79487 0
M  V30 3837 N 369.525 -1.3858 0.750561 0
M  V30 3838 C 370.75 -2.04997 0.314812 0
M  V30 3839 C 371.175 -1.56235 -1.04749 0
M  V30 3840 O 370.533 -0.712981 -1.66692 0
M  V30 3841 C 370.581 -3.58961 0.343415 0
M  V30 3842 O 369.685 -4.07025 -0.663628 0
M  V30 3843 H 369.026 -0.649081 0.139962 0
M  V30 3844 H 371.556 -1.77313 1.02084 0
M  V30 3845 H 371.566 -4.07542 0.193233 0
M  V30 3846 H 370.241 -3.93811 1.33738 0
M  V30 3847 H 368.818 -3.6982 -0.478307 0
M  V30 3848 N 371.003 -0.499398 -1.49478 0
M  V30 3849 C 372.249 0.0457576 -2.02748 0
M  V30 3850 C 372.582 1.36793 -1.37846 0
M  V30 3851 O 371.857 1.87596 -0.513601 0
M  V30 3852 C 372.14 0.199986 -3.59544 0
M  V30 3853 C 371.993 -1.1452 -4.34977 0
M  V30 3854 C 373.312 0.94137 -4.29914 0
M  V30 3855 H 370.431 0.0151552 -0.736844 0
M  V30 3856 H 373.073 -0.650498 -1.78518 0
M  V30 3857 H 371.223 0.793007 -3.8032 0
M  V30 3858 H 372.895 -1.77697 -4.25701 0
M  V30 3859 H 371.138 -1.73488 -3.97598 0
M  V30 3860 H 371.809 -0.990607 -5.43039 0
M  V30 3861 H 374.285 0.43844 -4.13784 0
M  V30 3862 H 373.161 1.01812 -5.39375 0
M  V30 3863 H 373.422 1.98471 -3.95046 0
M  V30 3864 N 372.481 1.55866 -0.233164 0
M  V30 3865 C 373.758 1.90471 0.444988 0
M  V30 3866 C 374.138 1.15209 1.7689 0
M  V30 3867 O 373.486 0.265119 2.26957 0
M  V30 3868 C 373.696 3.4333 0.626559 0
M  V30 3869 C 375.044 4.14319 0.92871 0
M  V30 3870 O 376.068 3.48993 0.712926 0
M  V30 3871 O 374.927 5.29846 1.33887 0
M  V30 3872 H 372.021 0.792347 0.236885 0
M  V30 3873 H 374.567 1.67437 -0.276211 0
M  V30 3874 H 373.339 3.90095 -0.306822 0
M  V30 3875 H 372.962 3.72181 1.39881 0
M  V30 3876 N 373.959 -0.0401083 1.57549 0
M  V30 3877 C 374.906 -1.04413 2.05831 0
M  V30 3878 C 375.876 -1.36585 0.945184 0
M  V30 3879 O 377.061 -1.47112 1.21502 0
M  V30 3880 C 374.201 -2.34336 2.53339 0
M  V30 3881 C 373.314 -2.08419 3.78398 0
M  V30 3882 C 372.449 -3.32133 4.14561 0
M  V30 3883 C 371.488 -3.01721 5.3257 0
M  V30 3884 N 370.625 -4.17855 5.64218 0
M  V30 3885 H 375.465 -0.625442 2.91363 0
M  V30 3886 H 373.002 -0.297218 1.44066 0
M  V30 3887 H 374.96 -3.10234 2.78946 0
M  V30 3888 H 373.59 -2.73948 1.7074 0
M  V30 3889 H 372.642 -1.23069 3.59942 0
M  V30 3890 H 373.954 -1.81978 4.64419 0
M  V30 3891 H 373.108 -4.16406 4.41238 0
M  V30 3892 H 371.847 -3.61678 3.2717 0
M  V30 3893 H 370.852 -2.15849 5.05657 0
M  V30 3894 H 372.077 -2.73466 6.21605 0
M  V30 3895 H 370.023 -4.47372 4.79786 0
M  V30 3896 H 369.94 -3.94798 6.44725 0
M  V30 3897 H 371.208 -5.03033 5.95465 0
M  V30 3898 N 375.437 -1.54477 -0.31217 0
M  V30 3899 C 376.714 -1.63891 -1.06767 0
M  V30 3900 C 377.094 -0.480028 -2.0557 0
M  V30 3901 O 376.442 0.524487 -2.22399 0
M  V30 3902 C 376.652 -3.01402 -1.75948 0
M  V30 3903 C 378 -3.57838 -2.28554 0
M  V30 3904 O 379.024 -3.03782 -1.85998 0
M  V30 3905 O 377.883 -4.52462 -3.06497 0
M  V30 3906 H 374.977 -0.664125 -0.492816 0
M  V30 3907 H 377.523 -1.66823 -0.311149 0
M  V30 3908 H 376.295 -3.77187 -1.04144 0
M  V30 3909 H 375.918 -3.02199 -2.58383 0
M  V30 3910 N 376.915 0.57481 -1.46744 0
M  V30 3911 C 378.326 1.15695 -1.46532 0
M  V30 3912 C 378.677 1.95068 -0.210425 0
M  V30 3913 O 377.802 2.05241 0.685944 0
M  V30 3914 C 378.397 2.1048 -2.65487 0
M  V30 3915 C 376.956 2.64002 -2.68291 0
M  V30 3916 C 376.103 1.40026 -2.39349 0
M  V30 3917 H 379.054 0.362325 -1.54509 0
M  V30 3918 H 379.075 2.94074 -2.41455 0
M  V30 3919 H 378.587 1.52683 -3.56805 0
M  V30 3920 H 376.688 3.25646 -1.81067 0
M  V30 3921 H 376.801 3.06197 -3.68483 0
M  V30 3922 H 375.165 1.70106 -1.89568 0
M  V30 3923 H 375.948 0.840485 -3.32852 0
M  V30 3924 N 378.394 1.34581 0.820102 0
M  V30 3925 C 379.327 1.20735 1.93644 0
M  V30 3926 C 380.305 0.0983343 1.62302 0
M  V30 3927 O 381.489 0.263997 1.86642 0
M  V30 3928 C 378.616 0.856037 3.27704 0
M  V30 3929 C 377.662 1.97521 3.78005 0
M  V30 3930 S 378.495 3.58906 3.97425 0
M  V30 3931 C 379.651 3.25822 5.34407 0
M  V30 3932 H 379.884 2.15231 2.05093 0
M  V30 3933 H 377.417 1.1964 0.97599 0
M  V30 3934 H 379.375 0.660133 4.05157 0
M  V30 3935 H 378.036 -0.0706253 3.14021 0
M  V30 3936 H 377.229 1.68321 4.75062 0
M  V30 3937 H 376.831 2.12875 3.07507 0
M  V30 3938 H 379.123 2.77812 6.17922 0
M  V30 3939 H 380.066 4.22029 5.68592 0
M  V30 3940 H 380.474 2.61932 5.00052 0
M  V30 3941 N 379.872 -1.04064 1.18357 0
M  V30 3942 C 380.802 -2.14001 0.934113 0
M  V30 3943 C 381.783 -1.69616 -0.128186 0
M  V30 3944 O 382.968 -1.94185 0.0244093 0
M  V30 3945 C 380.098 -3.44253 0.459066 0
M  V30 3946 C 379.052 -4.02261 1.46185 0
M  V30 3947 C 378.378 -5.27992 0.844322 0
M  V30 3948 C 379.678 -4.38432 2.83856 0
M  V30 3949 H 381.372 -2.35127 1.85352 0
M  V30 3950 H 378.918 -1.12998 0.892604 0
M  V30 3951 H 380.871 -4.20522 0.271907 0
M  V30 3952 H 379.595 -3.22813 -0.495912 0
M  V30 3953 H 378.254 -3.28074 1.63595 0
M  V30 3954 H 377.902 -5.02862 -0.117845 0
M  V30 3955 H 377.602 -5.67765 1.51384 0
M  V30 3956 H 379.126 -6.06938 0.667693 0
M  V30 3957 H 380.54 -5.05688 2.70098 0
M  V30 3958 H 378.937 -4.89254 3.47491 0
M  V30 3959 H 380.007 -3.4826 3.37406 0
M  V30 3960 N 381.35 -0.985608 -1.22978 0
M  V30 3961 C 382.28 -0.549649 -2.26939 0
M  V30 3962 C 383.261 0.419803 -1.64838 0
M  V30 3963 O 384.446 0.31203 -1.91677 0
M  V30 3964 C 381.576 0.143652 -3.47003 0
M  V30 3965 C 380.53 -0.743606 -4.21491 0
M  V30 3966 C 379.856 0.0822027 -5.34637 0
M  V30 3967 C 381.156 -2.03694 -4.80943 0
M  V30 3968 H 382.85 -1.41862 -2.63658 0
M  V30 3969 H 380.396 -0.683571 -1.26741 0
M  V30 3970 H 382.349 0.459985 -4.18882 0
M  V30 3971 H 381.073 1.04711 -3.09359 0
M  V30 3972 H 379.732 -1.04347 -3.51436 0
M  V30 3973 H 379.38 0.986359 -4.93234 0
M  V30 3974 H 379.08 -0.508377 -5.85397 0
M  V30 3975 H 380.604 0.392797 -6.09335 0
M  V30 3976 H 382.018 -1.78504 -5.44802 0
M  V30 3977 H 380.415 -2.57573 -5.42011 0
M  V30 3978 H 381.485 -2.72042 -4.01399 0
M  V30 3979 N 382.828 1.3818 -0.7579 0
M  V30 3980 C 384.053 2.04827 -0.325679 0
M  V30 3981 C 384.478 1.56788 1.03919 0
M  V30 3982 O 383.836 0.721811 1.66312 0
M  V30 3983 C 383.884 3.58774 -0.362447 0
M  V30 3984 O 382.988 4.07372 0.642033 0
M  V30 3985 H 382.329 0.64833 -0.143402 0
M  V30 3986 H 384.859 1.7677 -1.03023 0
M  V30 3987 H 384.869 4.07434 -0.214844 0
M  V30 3988 H 383.544 3.93096 -1.35824 0
M  V30 3989 H 382.121 3.70068 0.458688 0
M  V30 3990 N 384.306 0.507319 1.49211 0
M  V30 3991 C 385.554 -0.0348839 2.0207 0
M  V30 3992 C 385.875 -1.36898 1.38866 0
M  V30 3993 O 385.145 -1.88133 0.546151 0
M  V30 3994 H 383.725 -0.0158812 0.746831 0
M  V30 3995 H 386.387 0.665998 1.83168 0
M  V30 3996 H 385.483 -0.159917 3.1169 0
M  V30 3997 N 385.784 -1.5574 0.241426 0
M  V30 3998 C 387.012 -2.03208 -0.389134 0
M  V30 3999 C 387.427 -1.12082 -1.51931 0
M  V30 4000 O 386.784 -0.134183 -1.82006 0
M  V30 4001 C 386.835 -3.50064 -0.902087 0
M  V30 4002 O 386.556 -4.37717 0.18305 0
M  V30 4003 C 388.057 -4.13268 -1.60389 0
M  V30 4004 H 385.277 -0.664509 -0.0931053 0
M  V30 4005 H 387.821 -2.0124 0.36369 0
M  V30 4006 H 385.976 -3.52583 -1.60511 0
M  V30 4007 H 386.39 -5.24097 -0.205579 0
M  V30 4008 H 387.864 -5.17733 -1.91458 0
M  V30 4009 H 388.341 -3.59434 -2.52397 0
M  V30 4010 H 388.947 -4.14655 -0.945576 0
M  V30 4011 N 387.262 0.0317525 -1.57568 0
M  V30 4012 C 388.212 1.04101 -2.02847 0
M  V30 4013 C 389.196 1.3219 -0.917317 0
M  V30 4014 O 390.388 1.31819 -1.18121 0
M  V30 4015 C 387.517 2.34295 -2.5092 0
M  V30 4016 C 386.603 2.09308 -3.68851 0
M  V30 4017 N 386.994 1.5437 -4.81667 0
M  V30 4018 C 385.292 2.39604 -3.76172 0
M  V30 4019 C 385.993 1.45126 -5.63306 0
M  V30 4020 N 384.969 1.92589 -5.08341 0
M  V30 4021 H 388.771 0.610217 -2.87495 0
M  V30 4022 H 386.285 0.238108 -1.60645 0
M  V30 4023 H 388.282 3.07404 -2.81617 0
M  V30 4024 H 386.942 2.78055 -1.67677 0
M  V30 4025 H 387.953 1.22678 -5.03161 0
M  V30 4026 H 384.63 2.86457 -3.03724 0
M  V30 4027 H 386.02 1.03163 -6.63933 0
M  V30 4028 N 388.74 1.54641 0.303973 0
M  V30 4029 C 389.986 1.74038 1.04109 0
M  V30 4030 C 390.319 0.523051 1.87024 0
M  V30 4031 O 389.594 -0.479874 1.88487 0
M  V30 4032 C 389.877 3.02761 1.94955 0
M  V30 4033 C 389.73 4.34787 1.1524 0
M  V30 4034 C 391.049 3.27336 2.94175 0
M  V30 4035 H 388.168 0.63323 0.377079 0
M  V30 4036 H 390.81 1.87354 0.316001 0
M  V30 4037 H 388.96 2.9154 2.56782 0
M  V30 4038 H 390.632 4.57922 0.557236 0
M  V30 4039 H 388.875 4.31407 0.455053 0
M  V30 4040 H 389.546 5.21116 1.8205 0
M  V30 4041 H 392.022 3.38148 2.42477 0
M  V30 4042 H 390.898 4.18726 3.54908 0
M  V30 4043 H 391.159 2.45491 3.67677 0
M  V30 4044 N 390.218 -0.567019 1.47046 0
M  V30 4045 C 391.151 -1.69016 1.53326 0
M  V30 4046 C 392.129 -1.57949 0.386126 0
M  V30 4047 O 393.313 -1.78945 0.592529 0
M  V30 4048 C 390.44 -3.07191 1.42658 0
M  V30 4049 C 389.486 -3.36733 2.6175 0
M  V30 4050 S 390.319 -3.27069 4.24012 0
M  V30 4051 C 391.475 -4.67755 4.1588 0
M  V30 4052 H 391.708 -1.63434 2.48348 0
M  V30 4053 H 389.241 -0.747048 1.35124 0
M  V30 4054 H 391.199 -3.86897 1.37191 0
M  V30 4055 H 389.86 -3.10249 0.490369 0
M  V30 4056 H 389.053 -4.37441 2.50323 0
M  V30 4057 H 388.655 -2.64627 2.64289 0
M  V30 4058 H 390.947 -5.58491 3.83529 0
M  V30 4059 H 391.89 -4.84239 5.16641 0
M  V30 4060 H 392.298 -4.45341 3.46889 0
M  V30 4061 N 391.696 -1.35014 -0.812953 0
M  V30 4062 C 392.606 -1.2951 -1.95613 0
M  V30 4063 C 393.622 -0.20107 -1.72834 0
M  V30 4064 O 394.798 -0.42932 -1.96771 0
M  V30 4065 C 391.863 -1.06033 -3.30088 0
M  V30 4066 C 390.924 -2.24688 -3.65805 0
M  V30 4067 C 390.157 -2.02322 -4.93864 0
M  V30 4068 O 390.38 -0.986464 -5.61805 0
M  V30 4069 O 389.314 -2.89525 -5.27692 0
M  V30 4070 H 393.14 -2.25705 -2.03202 0
M  V30 4071 H 390.725 -1.15321 -0.949811 0
M  V30 4072 H 392.607 -0.94763 -4.10607 0
M  V30 4073 H 391.282 -0.128852 -3.23443 0
M  V30 4074 H 390.189 -2.41521 -2.85689 0
M  V30 4075 H 391.522 -3.16261 -3.77147 0
M  V30 4076 N 393.175 1.03435 -1.18907 0
M  V30 4077 C 394.423 1.76394 -0.986382 0
M  V30 4078 C 394.744 1.88883 0.484567 0
M  V30 4079 O 394.014 1.41843 1.3512 0
M  V30 4080 H 392.594 0.65344 -0.361975 0
M  V30 4081 H 395.256 1.248 -1.49703 0
M  V30 4082 H 394.352 2.77424 -1.42978 0
M  V30 4083 N 394.653 0.992116 1.22453 0
M  V30 4084 C 395.878 0.685644 1.95739 0
M  V30 4085 C 396.303 -0.743 1.72804 0
M  V30 4086 O 395.661 -1.50778 1.00676 0
M  V30 4087 C 395.709 0.996293 3.46564 0
M  V30 4088 O 394.813 0.0945512 4.12292 0
M  V30 4089 H 394.154 0.256694 0.612376 0
M  V30 4090 H 396.684 1.32888 1.5557 0
M  V30 4091 H 396.694 0.93781 3.97076 0
M  V30 4092 H 395.369 2.03733 3.62582 0
M  V30 4093 H 393.946 0.208451 3.72317 0
M  V30 4094 N 396.131 -1.37776 0.765217 0
M  V30 4095 C 397.379 -1.99454 0.325943 0
M  V30 4096 C 397.7 -1.61049 -1.09947 0
M  V30 4097 O 396.97 -0.872821 -1.75381 0
M  V30 4098 H 395.55 -0.737697 0.117525 0
M  V30 4099 H 398.212 -1.68359 0.981895 0
M  V30 4100 H 397.308 -3.09547 0.398353 0
M  V30 4101 N 397.609 -0.515225 -1.4894 0
M  V30 4102 C 399.025 -0.172099 -1.58669 0
M  V30 4103 C 399.225 1.32405 -1.51892 0
M  V30 4104 O 398.281 2.10116 -1.40027 0
M  V30 4105 C 399.594 -0.761533 -2.90897 0
M  V30 4106 C 401.142 -0.728926 -3.04394 0
M  V30 4107 C 401.617 -1.29667 -4.39261 0
M  V30 4108 N 403.108 -1.25799 -4.4579 0
M  V30 4109 C 403.843 -1.66733 -5.48623 0
M  V30 4110 N 403.339 -2.15327 -6.58488 0
M  V30 4111 N 405.132 -1.58061 -5.39419 0
M  V30 4112 H 397.283 -1.48778 -1.51588 0
M  V30 4113 H 399.546 -0.617968 -0.718901 0
M  V30 4114 H 399.252 -1.81136 -3.01468 0
M  V30 4115 H 399.126 -0.230106 -3.76497 0
M  V30 4116 H 401.513 0.312098 -2.93445 0
M  V30 4117 H 401.594 -1.29766 -2.20442 0
M  V30 4118 H 401.238 -2.33655 -4.50963 0
M  V30 4119 H 401.168 -0.703752 -5.21876 0
M  V30 4120 H 403.659 -0.902102 -3.66975 0
M  V30 4121 H 403.972 -2.44594 -7.33071 0
M  V30 4122 H 402.317 -2.19311 -6.59491 0
M  V30 4123 H 405.508 -1.19906 -4.52482 0
M  V30 4124 H 405.681 -1.90284 -6.19432 0
M  V30 4125 N 399.087 1.5561 -0.249682 0
M  V30 4126 C 400.02 2.17537 0.689408 0
M  V30 4127 C 400.998 1.12829 1.17083 0
M  V30 4128 O 402.182 1.41229 1.24846 0
M  V30 4129 C 399.309 2.77828 1.93725 0
M  V30 4130 C 398.355 3.95615 1.59346 0
M  V30 4131 S 399.188 5.30988 0.69367 0
M  V30 4132 C 400.344 5.94734 1.95046 0
M  V30 4133 H 400.577 2.96852 0.163142 0
M  V30 4134 H 398.11 1.54362 -0.0341166 0
M  V30 4135 H 400.068 3.13199 2.65361 0
M  V30 4136 H 398.729 1.98454 2.43465 0
M  V30 4137 H 397.922 4.364 2.52132 0
M  V30 4138 H 397.524 3.61535 0.957512 0
M  V30 4139 H 399.816 6.12419 2.89739 0
M  V30 4140 H 400.759 6.90109 1.58604 0
M  V30 4141 H 401.167 5.23832 2.10381 0
M  V30 4142 N 400.565 -0.0233959 1.57583 0
M  V30 4143 C 401.495 -1.02162 2.09965 0
M  V30 4144 C 402.476 -1.3735 1.00344 0
M  V30 4145 O 403.661 -1.46135 1.27899 0
M  V30 4146 C 400.791 -2.32081 2.58371 0
M  V30 4147 C 399.745 -2.1112 3.72307 0
M  V30 4148 C 399.071 -3.46848 4.06941 0
M  V30 4149 C 400.371 -1.49276 5.00514 0
M  V30 4150 H 402.065 -0.585557 2.93618 0
M  V30 4151 H 399.611 -0.280218 1.41247 0
M  V30 4152 H 401.564 -3.02249 2.93639 0
M  V30 4153 H 400.288 -2.77758 1.71808 0
M  V30 4154 H 398.947 -1.43384 3.37397 0
M  V30 4155 H 398.595 -3.90184 3.17436 0
M  V30 4156 H 398.295 -3.33646 4.83688 0
M  V30 4157 H 399.819 -4.18369 4.44747 0
M  V30 4158 H 401.233 -2.09368 5.33702 0
M  V30 4159 H 399.63 -1.46632 5.8191 0
M  V30 4160 H 400.7 -0.459217 4.82721 0
M  V30 4161 N 402.043 -1.548 -0.295768 0
M  V30 4162 C 403.289 -1.74588 -1.03184 0
M  V30 4163 C 403.622 -0.532962 -1.86744 0
M  V30 4164 O 402.897 0.469872 -1.88739 0
M  V30 4165 C 403.18 -3.03791 -1.93347 0
M  V30 4166 C 403.033 -4.35392 -1.12933 0
M  V30 4167 C 404.352 -3.28892 -2.92435 0
M  V30 4168 H 401.471 -0.635221 -0.373715 0
M  V30 4169 H 404.113 -1.87519 -0.30606 0
M  V30 4170 H 402.263 -2.92898 -2.55232 0
M  V30 4171 H 403.935 -4.58211 -0.532943 0
M  V30 4172 H 402.178 -4.31642 -0.432168 0
M  V30 4173 H 402.849 -5.22074 -1.79284 0
M  V30 4174 H 405.325 -3.39429 -2.4068 0
M  V30 4175 H 404.201 -4.20603 -3.52682 0
M  V30 4176 H 404.462 -2.47437 -3.6637 0
M  V30 4177 N 403.521 0.559213 -1.47345 0
M  V30 4178 C 404.749 1.34194 -1.57479 0
M  V30 4179 C 405.164 1.87463 -0.224261 0
M  V30 4180 O 404.521 1.64888 0.782185 0
M  V30 4181 C 404.572 2.51324 -2.59843 0
M  V30 4182 O 404.293 2.00256 -3.89653 0
M  V30 4183 C 405.794 3.43563 -2.80142 0
M  V30 4184 H 403.014 0.409136 -0.531835 0
M  V30 4185 H 405.558 0.677609 -1.92947 0
M  V30 4186 H 403.713 3.13699 -2.27314 0
M  V30 4187 H 404.127 2.76708 -4.4557 0
M  V30 4188 H 405.601 4.2217 -3.55635 0
M  V30 4189 H 406.078 3.9698 -1.87892 0
M  V30 4190 H 406.684 2.87005 -3.1386 0
M  V30 4191 N 404.999 1.35443 0.805782 0
M  V30 4192 C 405.962 1.28301 1.89925 0
M  V30 4193 C 406.962 0.194285 1.59622 0
M  V30 4194 O 408.152 0.448036 1.6834 0
M  V30 4195 C 405.284 0.984997 3.2636 0
M  V30 4196 H 406.477 2.2553 1.97677 0
M  V30 4197 H 404.03 1.19979 1.00173 0
M  V30 4198 H 404.765 0.016603 3.24296 0
M  V30 4199 H 404.55 1.77269 3.4974 0
M  V30 4200 H 406.04 0.960651 4.064 0
M  V30 4201 N 406.477 -1.02803 1.19454 0
M  V30 4202 C 407.723 -1.76478 0.999171 0
M  V30 4203 C 408.056 -1.88456 -0.468828 0
M  V30 4204 O 407.331 -1.40198 -1.34814 0
M  V30 4205 C 407.614 -3.19044 1.66981 0
M  V30 4206 C 407.467 -3.14932 3.21151 0
M  V30 4207 C 408.786 -4.17456 1.39349 0
M  V30 4208 H 405.905 -0.640614 0.364393 0
M  V30 4209 H 408.547 -1.20005 1.47305 0
M  V30 4210 H 406.697 -3.67263 1.2669 0
M  V30 4211 H 408.369 -2.74605 3.70661 0
M  V30 4212 H 406.612 -2.52625 3.52652 0
M  V30 4213 H 407.283 -4.1566 3.63223 0
M  V30 4214 H 409.759 -3.77842 1.74283 0
M  V30 4215 H 408.635 -5.154 1.88823 0
M  V30 4216 H 408.896 -4.40949 0.318813 0
M  V30 4217 N 407.956 -0.998596 -1.21925 0
M  V30 4218 C 409.204 -0.676325 -1.90448 0
M  V30 4219 C 409.525 0.794719 -1.78071 0
M  V30 4220 O 408.795 1.5701 -1.17152 0
M  V30 4221 H 407.375 -0.247165 -0.704925 0
M  V30 4222 H 410.037 -1.26633 -1.48156 0
M  V30 4223 H 409.133 -0.943858 -2.97486 0
M  V30 4224 N 409.434 1.37368 -0.772513 0
M  V30 4225 C 410.68 1.99969 -0.337681 0
M  V30 4226 C 411.013 1.61184 1.08321 0
M  V30 4227 O 410.288 0.858395 1.74533 0
M  V30 4228 C 410.571 3.56858 -0.482121 0
M  V30 4229 C 410.424 4.0555 -1.94549 0
M  V30 4230 C 411.743 4.39955 0.113143 0
M  V30 4231 H 408.862 0.726464 -0.124171 0
M  V30 4232 H 411.504 1.63034 -0.975699 0
M  V30 4233 H 409.654 3.88452 0.0610361 0
M  V30 4234 H 411.326 3.84518 -2.54841 0
M  V30 4235 H 409.569 3.57715 -2.45403 0
M  V30 4236 H 410.24 5.14587 -1.9976 0
M  V30 4237 H 412.716 4.14623 -0.35031 0
M  V30 4238 H 411.592 5.48897 -0.0180514 0
M  V30 4239 H 411.853 4.25403 1.20354 0
M  V30 4240 N 410.912 0.523116 1.48665 0
M  V30 4241 C 411.86 -0.256859 2.31177 0
M  V30 4242 C 412.854 -0.94199 1.40794 0
M  V30 4243 O 414.06 -0.867157 1.57735 0
M  V30 4244 H 410.435 -0.1017 0.745091 0
M  V30 4245 H 412.406 0.458739 2.94853 0
M  V30 4246 C 411.155 -1.29503 3.22683 0
M  V30 4247 H 410.478 -0.777248 3.92172 0
M  V30 4248 H 411.918 -1.81233 3.83315 0
M  V30 4249 C 410.377 -2.32501 2.43813 0
M  V30 4250 O 410.907 -3.3881 2.15803 0
M  V30 4251 N 409.113 -2.05538 2.05432 0
M  V30 4252 H 408.66 -1.19104 2.28412 0
M  V30 4253 H 408.618 -2.74676 1.52973 0
M  V30 4254 N 412.39 -1.55475 0.257931 0
M  V30 4255 C 413.615 -2.04064 -0.370488 0
M  V30 4256 C 414.04 -1.13565 -1.49948 0
M  V30 4257 O 413.398 -0.130781 -1.80828 0
M  V30 4258 C 413.446 -3.50554 -0.845237 0
M  V30 4259 O 412.55 -3.63173 -1.95394 0
M  V30 4260 H 411.891 -0.659257 -0.0792243 0
M  V30 4261 H 414.421 -2.00903 0.387212 0
M  V30 4262 H 414.431 -3.91588 -1.14555 0
M  V30 4263 H 413.106 -4.15896 -0.0191259 0
M  V30 4264 H 411.683 -3.34039 -1.65748 0
M  V30 4265 N 413.868 0.0150385 -1.57593 0
M  V30 4266 C 414.8 1.03912 -2.04291 0
M  V30 4267 C 415.813 1.31618 -0.958146 0
M  V30 4268 O 417.002 1.28859 -1.23522 0
M  V30 4269 C 414.102 2.37749 -2.41514 0
M  V30 4270 C 413.275 2.29198 -3.72541 0
M  V30 4271 C 412.334 3.45598 -3.96797 0
M  V30 4272 O 411.36 3.24461 -4.67668 0
M  V30 4273 N 412.562 4.67945 -3.43523 0
M  V30 4274 H 415.327 0.64099 -2.92765 0
M  V30 4275 H 412.888 0.20272 -1.60626 0
M  V30 4276 H 414.88 3.14364 -2.54867 0
M  V30 4277 H 413.45 2.69357 -1.58637 0
M  V30 4278 H 412.67 1.3759 -3.69408 0
M  V30 4279 H 413.958 2.20642 -4.5847 0
M  V30 4280 H 413.356 4.88017 -2.86104 0
M  V30 4281 H 411.913 5.41878 -3.62232 0
M  V30 4282 N 415.346 1.54954 0.287554 0
M  V30 4283 C 416.574 1.78881 1.03967 0
M  V30 4284 C 416.989 0.554894 1.80462 0
M  V30 4285 O 416.346 -0.475676 1.76192 0
M  V30 4286 C 416.397 3.00488 2.0097 0
M  V30 4287 O 416.118 4.19113 1.27577 0
M  V30 4288 C 417.619 3.36907 2.88112 0
M  V30 4289 H 414.839 0.596259 0.307761 0
M  V30 4290 H 417.383 2.01937 0.322749 0
M  V30 4291 H 415.538 2.79601 2.68145 0
M  V30 4292 H 415.952 4.87765 1.92835 0
M  V30 4293 H 417.426 4.25205 3.52001 0
M  V30 4294 H 417.903 2.55659 3.57121 0
M  V30 4295 H 418.509 3.60001 2.26449 0
M  V30 4296 N 416.824 -0.551391 1.4764 0
M  V30 4297 C 418.072 -1.30572 1.54258 0
M  V30 4298 C 418.393 -1.93877 0.208963 0
M  V30 4299 O 417.663 -1.80234 -0.767619 0
M  V30 4300 H 416.243 -0.484894 0.568231 0
M  V30 4301 H 418.905 -0.643402 1.83974 0
M  V30 4302 H 418.001 -2.09621 2.31226 0
M  V30 4303 N 418.302 -1.35869 -0.798587 0
M  V30 4304 C 419.551 -1.28921 -1.5512 0
M  V30 4305 C 419.864 0.13208 -1.95154 0
M  V30 4306 O 421.07 0.323879 -2.69561 0
M  V30 4307 C 419.526 -2.26141 -2.79979 0
M  V30 4308 C 419.134 -3.73658 -2.47151 0
M  V30 4309 C 420.878 -2.28152 -3.57976 0
M  V30 4310 C 418.785 -4.62679 -3.6835 0
M  V30 4311 H 417.715 -0.479031 -0.582276 0
M  V30 4312 H 420.366 -1.61179 -0.877125 0
M  V30 4313 H 418.748 -1.86865 -3.49138 0
M  V30 4314 H 419.922 -4.21616 -1.85947 0
M  V30 4315 H 418.237 -3.74333 -1.82383 0
M  V30 4316 H 420.834 -2.91875 -4.4801 0
M  V30 4317 H 421.177 -1.28748 -3.95891 0
M  V30 4318 H 421.71 -2.65998 -2.95787 0
M  V30 4319 H 418.449 -5.63111 -3.35538 0
M  V30 4320 H 417.969 -4.19442 -4.28752 0
M  V30 4321 H 419.648 -4.78498 -4.35487 0
M  V30 4322 N 419.78 1.02168 -1.19998 0
M  V30 4323 C 421.029 1.75091 -1.0013 0
M  V30 4324 C 421.342 1.89923 0.467835 0
M  V30 4325 O 422.548 2.59888 0.785515 0
M  V30 4326 C 421.004 3.14892 -1.74273 0
M  V30 4327 C 420.612 3.0809 -3.25245 0
M  V30 4328 C 422.356 3.9206 -1.62755 0
M  V30 4329 C 420.263 4.42867 -3.91948 0
M  V30 4330 H 419.193 0.656394 -0.37103 0
M  V30 4331 H 421.844 1.14284 -1.43567 0
M  V30 4332 H 420.226 3.7621 -1.2362 0
M  V30 4333 H 421.4 2.5611 -3.83072 0
M  V30 4334 H 419.715 2.44416 -3.3712 0
M  V30 4335 H 422.312 4.91764 -2.09934 0
M  V30 4336 H 422.655 4.12199 -0.582894 0
M  V30 4337 H 423.188 3.37359 -2.10793 0
M  V30 4338 H 419.927 4.27931 -4.96543 0
M  V30 4339 H 419.447 4.94874 -3.3891 0
M  V30 4340 H 421.126 5.11728 -3.95909 0
M  V30 4341 N 421.258 1.00505 1.21394 0
M  V30 4342 C 422.505 0.687774 1.90462 0
M  V30 4343 C 422.833 -0.78147 1.7811 0
M  V30 4344 O 422.088 -1.58208 1.1519 0
M  V30 4345 C 422.387 1.0546 3.41486 0
M  V30 4346 C 422.053 2.51812 3.74034 0
M  V30 4347 C 420.715 2.91804 3.82628 0
M  V30 4348 C 423.067 3.46614 3.8924 0
M  V30 4349 C 420.395 4.2556 4.03876 0
M  V30 4350 C 422.747 4.80044 4.11995 0
M  V30 4351 C 421.411 5.19759 4.18816 0
M  V30 4352 H 420.681 0.251674 0.696951 0
M  V30 4353 H 423.328 1.26349 1.43903 0
M  V30 4354 H 421.633 0.397133 3.89782 0
M  V30 4355 H 423.33 0.786976 3.93202 0
M  V30 4356 H 419.92 2.1982 3.67936 0
M  V30 4357 H 424.104 3.16883 3.81967 0
M  V30 4358 H 419.36 4.55901 4.07387 0
M  V30 4359 H 423.534 5.53439 4.22704 0
M  V30 4360 H 421.161 6.23418 4.35033 0
M  V30 4361 N 422.737 -1.36956 0.779787 0
M  V30 4362 C 423.965 -2.03755 0.359398 0
M  V30 4363 C 424.38 -1.58807 -1.02106 0
M  V30 4364 O 423.737 -0.773024 -1.6532 0
M  V30 4365 C 423.788 -3.59251 0.402568 0
M  V30 4366 O 423.509 -4.02557 1.72858 0
M  V30 4367 C 425.01 -4.43291 -0.0284068 0
M  V30 4368 H 422.23 -0.654148 0.149437 0
M  V30 4369 H 424.774 -1.75128 1.05595 0
M  V30 4370 H 422.929 -3.86621 -0.245478 0
M  V30 4371 H 423.343 -4.97111 1.67275 0
M  V30 4372 H 424.817 -5.51975 0.0529466 0
M  V30 4373 H 425.294 -4.25719 -1.07982 0
M  V30 4374 H 425.9 -4.21163 0.591758 0
M  V30 4375 N 424.215 -0.530993 -1.48385 0
M  V30 4376 C 425.145 0.219985 -2.32461 0
M  V30 4377 C 426.126 0.934111 -1.42156 0
M  V30 4378 O 427.311 0.919694 -1.71042 0
M  V30 4379 C 424.441 1.26674 -3.23375 0
M  V30 4380 C 423.395 0.67069 -4.22712 0
M  V30 4381 C 422.721 1.82017 -5.02766 0
M  V30 4382 C 424.021 -0.358268 -5.2107 0
M  V30 4383 H 425.715 -0.48187 -2.95497 0
M  V30 4384 H 423.261 -0.233182 -1.42099 0
M  V30 4385 H 425.214 1.80006 -3.81019 0
M  V30 4386 H 423.938 1.99818 -2.58341 0
M  V30 4387 H 422.597 0.158878 -3.66256 0
M  V30 4388 H 422.245 2.54002 -4.34157 0
M  V30 4389 H 421.945 1.42727 -5.70003 0
M  V30 4390 H 423.469 2.35725 -5.63264 0
M  V30 4391 H 424.883 0.0880081 -5.73232 0
M  V30 4392 H 423.28 -0.66861 -5.96364 0
M  V30 4393 H 424.35 -1.26367 -4.68145 0
M  V30 4394 N 425.693 1.55336 -0.266172 0
M  V30 4395 C 426.623 2.25146 0.618981 0
M  V30 4396 C 427.604 1.23845 1.16604 0
M  V30 4397 O 428.789 1.52544 1.20183 0
M  V30 4398 C 425.919 2.96572 1.80728 0
M  V30 4399 C 424.873 4.04726 1.39215 0
M  V30 4400 C 424.199 4.63678 2.66283 0
M  V30 4401 C 425.499 5.19407 0.548942 0
M  V30 4402 H 427.193 2.99377 0.0368116 0
M  V30 4403 H 424.739 1.43991 0.0162651 0
M  V30 4404 H 426.692 3.44116 2.43232 0
M  V30 4405 H 425.416 2.19861 2.41514 0
M  V30 4406 H 424.075 3.57979 0.790351 0
M  V30 4407 H 423.723 3.83646 3.25308 0
M  V30 4408 H 423.423 5.367 2.39222 0
M  V30 4409 H 424.947 5.13967 3.29651 0
M  V30 4410 H 426.361 5.63059 1.07876 0
M  V30 4411 H 424.758 5.98936 0.373593 0
M  V30 4412 H 425.828 4.8295 -0.434394 0
M  V30 4413 N 427.171 -0.0066808 1.57599 0
M  V30 4414 C 428.419 -0.691552 1.899 0
M  V30 4415 C 428.74 -1.74682 0.866672 0
M  V30 4416 O 428.01 -1.95661 -0.0968189 0
M  V30 4417 H 426.59 -0.258416 0.700878 0
M  V30 4418 H 429.252 0.0326655 1.94873 0
M  V30 4419 H 428.348 -1.16702 2.8946 0
M  V30 4420 N 428.649 -1.55105 -0.279332 0
M  V30 4421 C 429.612 -1.86783 -1.32834 0
M  V30 4422 C 430.612 -0.74199 -1.42657 0
M  V30 4423 O 431.802 -1.0102 -1.41918 0
M  V30 4424 C 428.934 -2.06746 -2.71052 0
M  V30 4425 H 430.127 -2.8055 -1.05979 0
M  V30 4426 H 427.68 -1.47499 -0.517087 0
M  V30 4427 H 428.415 -1.15339 -3.03097 0
M  V30 4428 H 428.2 -2.88711 -2.65309 0
M  V30 4429 H 429.69 -2.32549 -3.46858 0
M  V30 4430 N 430.127 0.543554 -1.4793 0
M  V30 4431 C 431.375 1.29752 -1.54948 0
M  V30 4432 C 431.696 1.93764 -0.219242 0
M  V30 4433 O 430.966 1.80639 0.75805 0
M  V30 4434 H 429.546 0.481874 -0.570795 0
M  V30 4435 H 432.208 0.633636 -1.84312 0
M  V30 4436 H 431.304 2.08392 -2.32334 0
M  V30 4437 N 431.605 1.3629 0.791371 0
M  V30 4438 C 432.853 1.30154 1.5461 0
M  V30 4439 C 433.174 -0.119409 1.94634 0
M  V30 4440 O 432.444 -1.05924 1.64794 0
M  V30 4441 H 431.024 0.478784 0.573389 0
M  V30 4442 H 433.686 1.70565 0.94306 0
M  V30 4443 H 432.782 1.92762 2.45457 0
M  V30 4444 N 433.083 -1.0153 1.20538 0
M  V30 4445 C 433.993 -2.13557 0.971113 0
M  V30 4446 C 435.009 -1.73845 -0.0734366 0
M  V30 4447 O 436.185 -2.01075 0.114299 0
M  V30 4448 C 433.25 -3.42661 0.527639 0
M  V30 4449 C 432.311 -3.96608 1.64319 0
M  V30 4450 C 431.544 -5.1955 1.22078 0
M  V30 4451 O 431.767 -5.70329 0.0900198 0
M  V30 4452 O 430.701 -5.66681 2.02871 0
M  V30 4453 H 434.527 -2.3619 1.90913 0
M  V30 4454 H 432.112 -1.11946 0.989362 0
M  V30 4455 H 433.994 -4.20404 0.289621 0
M  V30 4456 H 432.669 -3.21441 -0.381779 0
M  V30 4457 H 431.576 -3.20139 1.93551 0
M  V30 4458 H 432.909 -4.22219 2.52966 0
M  V30 4459 N 434.561 -1.01147 -1.20859 0
M  V30 4460 C 435.471 -0.58686 -2.27141 0
M  V30 4461 C 436.487 0.373198 -1.69951 0
M  V30 4462 O 437.663 0.235423 -2.00019 0
M  V30 4463 C 434.728 0.0733602 -3.46622 0
M  V30 4464 C 433.789 -0.931995 -4.19061 0
M  V30 4465 C 433.022 -0.303186 -5.32838 0
M  V30 4466 O 433.245 0.898395 -5.63281 0
M  V30 4467 O 432.179 -1.01735 -5.9324 0
M  V30 4468 H 436.005 -1.47155 -2.65667 0
M  V30 4469 H 433.59 -0.780689 -1.2738 0
M  V30 4470 H 435.472 0.442333 -4.19072 0
M  V30 4471 H 434.147 0.932329 -3.09983 0
M  V30 4472 H 433.054 -1.35224 -3.48805 0
M  V30 4473 H 434.387 -1.76076 -4.59628 0
M  V30 4474 N 436.039 1.36541 -0.78704 0
M  V30 4475 C 436.949 2.3387 -0.184896 0
M  V30 4476 C 437.965 1.60927 0.661697 0
M  V30 4477 O 439.141 1.92927 0.57804 0
M  V30 4478 C 436.206 3.40122 0.672145 0
M  V30 4479 C 435.267 4.28867 -0.19267 0
M  V30 4480 C 434.5 5.30045 0.623561 0
M  V30 4481 O 434.723 5.39232 1.8597 0
M  V30 4482 O 433.657 6.01895 0.0247068 0
M  V30 4483 H 437.483 2.87126 -0.989562 0
M  V30 4484 H 435.068 1.38969 -0.548455 0
M  V30 4485 H 436.95 4.05093 1.16094 0
M  V30 4486 H 435.625 2.89169 1.45474 0
M  V30 4487 H 434.532 3.66945 -0.728166 0
M  V30 4488 H 435.865 4.83165 -0.938722 0
M  V30 4489 N 437.518 0.538854 1.48102 0
M  V30 4490 C 438.428 -0.222648 2.33541 0
M  V30 4491 C 439.444 -0.930225 1.47047 0
M  V30 4492 O 440.62 -0.903211 1.80011 0
M  V30 4493 C 437.685 -1.25064 3.23357 0
M  V30 4494 C 436.746 -0.552469 4.2573 0
M  V30 4495 C 435.979 -1.53149 5.11254 0
M  V30 4496 O 436.202 -2.76487 4.9891 0
M  V30 4497 O 435.136 -1.06602 5.92385 0
M  V30 4498 H 438.962 0.477707 2.99919 0
M  V30 4499 H 436.547 0.299669 1.46364 0
M  V30 4500 H 438.429 -1.8445 3.78888 0
M  V30 4501 H 437.104 -1.93325 2.59629 0
M  V30 4502 H 436.011 0.082114 3.7401 0
M  V30 4503 H 437.344 0.0883526 4.92121 0
M  V30 4504 N 438.996 -1.55193 0.274407 0
M  V30 4505 C 439.943 -2.225 -0.613374 0
M  V30 4506 C 440.913 -1.19823 -1.15029 0
M  V30 4507 O 442.098 -1.48362 -1.19973 0
M  V30 4508 C 439.238 -2.94927 -1.79199 0
M  V30 4509 C 438.351 -4.12322 -1.28899 0
M  V30 4510 C 437.486 -4.72394 -2.42934 0
M  V30 4511 C 436.525 -5.81984 -1.89634 0
M  V30 4512 N 435.662 -6.36123 -2.9714 0
M  V30 4513 H 440.502 -2.97982 -0.032756 0
M  V30 4514 H 438.039 -1.47099 -0.00440146 0
M  V30 4515 H 439.997 -3.35134 -2.48478 0
M  V30 4516 H 438.627 -2.2187 -2.34465 0
M  V30 4517 H 437.679 -3.7724 -0.489327 0
M  V30 4518 H 438.991 -4.91355 -0.858587 0
M  V30 4519 H 438.145 -5.15317 -3.20208 0
M  V30 4520 H 436.884 -3.92636 -2.8929 0
M  V30 4521 H 435.889 -5.38511 -1.1084 0
M  V30 4522 H 437.114 -6.6361 -1.44215 0
M  V30 4523 H 435.06 -5.59259 -3.42878 0
M  V30 4524 H 434.977 -7.10427 -2.58515 0
M  V30 4525 H 436.245 -6.83704 -3.74391 0
M  V30 4526 N 440.474 -0.00167713 -1.576 0
M  V30 4527 C 441.421 0.989195 -2.08527 0
M  V30 4528 C 442.391 1.34031 -0.981065 0
M  V30 4529 O 443.576 1.43839 -1.2536 0
M  V30 4530 C 440.716 2.27537 -2.59463 0
M  V30 4531 C 439.829 1.98314 -3.83791 0
M  V30 4532 C 438.964 3.21025 -4.23222 0
M  V30 4533 C 438.003 2.87495 -5.40382 0
M  V30 4534 N 437.14 4.02749 -5.75098 0
M  V30 4535 H 441.98 0.547973 -2.92919 0
M  V30 4536 H 439.517 0.258917 -1.44803 0
M  V30 4537 H 441.475 3.02729 -2.87073 0
M  V30 4538 H 440.105 2.69325 -1.77943 0
M  V30 4539 H 439.157 1.13482 -3.63078 0
M  V30 4540 H 440.469 1.69601 -4.69081 0
M  V30 4541 H 439.623 4.04561 -4.52123 0
M  V30 4542 H 438.362 3.52877 -3.36644 0
M  V30 4543 H 437.367 2.02367 -5.11202 0
M  V30 4544 H 438.592 2.56889 -6.28637 0
M  V30 4545 H 436.538 4.34494 -4.91478 0
M  V30 4546 H 436.455 3.77566 -6.54966 0
M  V30 4547 H 437.723 4.87068 -6.08592 0
M  V30 4548 N 441.952 1.55251 0.271103 0
M  V30 4549 C 443.229 1.66664 1.02384 0
M  V30 4550 C 443.609 0.534363 2.04225 0
M  V30 4551 O 442.957 -0.465337 2.23712 0
M  V30 4552 C 443.167 3.05961 1.67895 0
M  V30 4553 C 444.515 3.63772 2.18986 0
M  V30 4554 O 445.539 3.08606 1.77878 0
M  V30 4555 O 444.398 4.60429 2.94393 0
M  V30 4556 H 441.492 0.676957 0.475035 0
M  V30 4557 H 444.038 1.67589 0.26681 0
M  V30 4558 H 442.81 3.79815 0.941071 0
M  V30 4559 H 442.433 3.08943 2.5028 0
M  V30 4560 N 443.43 -0.535701 1.48216 0
M  V30 4561 C 444.377 -1.64083 1.62312 0
M  V30 4562 C 445.347 -1.59448 0.465365 0
M  V30 4563 O 446.532 -1.77959 0.688135 0
M  V30 4564 C 443.672 -3.0236 1.66349 0
M  V30 4565 C 442.785 -3.17273 2.93193 0
M  V30 4566 C 441.92 -4.46075 2.88427 0
M  V30 4567 C 440.959 -4.54496 4.1 0
M  V30 4568 N 440.096 -5.7468 4.03345 0
M  V30 4569 H 444.936 -1.51374 2.5669 0
M  V30 4570 H 442.473 -0.737059 1.27302 0
M  V30 4571 H 444.431 -3.82461 1.66672 0
M  V30 4572 H 443.061 -3.13854 0.754672 0
M  V30 4573 H 442.113 -2.30462 3.02641 0
M  V30 4574 H 443.425 -3.19357 3.83162 0
M  V30 4575 H 442.579 -5.3446 2.87119 0
M  V30 4576 H 441.318 -4.46504 1.96177 0
M  V30 4577 H 440.323 -3.64519 4.11589 0
M  V30 4578 H 441.548 -4.5581 5.03402 0
M  V30 4579 H 439.494 -5.76017 3.13912 0
M  V30 4580 H 439.411 -5.78234 4.87013 0
M  V30 4581 H 440.679 -6.65367 4.06087 0
M  V30 4582 N 444.908 -1.36708 -0.784132 0
M  V30 4583 C 445.855 -1.31466 -1.89698 0
M  V30 4584 C 446.825 -0.18239 -1.65096 0
M  V30 4585 O 448.01 -0.369762 -1.87183 0
M  V30 4586 C 445.15 -1.1151 -3.26588 0
M  V30 4587 C 444.263 -2.33859 -3.63227 0
M  V30 4588 C 443.398 -2.06873 -4.89262 0
M  V30 4589 C 442.437 -3.25154 -5.18595 0
M  V30 4590 N 441.574 -2.978 -6.35814 0
M  V30 4591 H 446.414 -2.26619 -1.93515 0
M  V30 4592 H 443.951 -1.12625 -0.946256 0
M  V30 4593 H 445.909 -0.979653 -4.05535 0
M  V30 4594 H 444.539 -0.200103 -3.22179 0
M  V30 4595 H 443.591 -2.58188 -2.79362 0
M  V30 4596 H 444.903 -3.22109 -3.8085 0
M  V30 4597 H 444.057 -1.90289 -5.76086 0
M  V30 4598 H 442.796 -1.15942 -4.73718 0
M  V30 4599 H 441.801 -3.42292 -4.30251 0
M  V30 4600 H 443.026 -4.1692 -5.36055 0
M  V30 4601 H 440.972 -2.09485 -6.21653 0
M  V30 4602 H 440.889 -3.7959 -6.53794 0
M  V30 4603 H 442.157 -2.84805 -7.25607 0
M  V30 4604 N 446.386 1.0089 -1.21074 0
M  V30 4605 C 447.634 1.74262 -1.02358 0
M  V30 4606 C 447.955 1.89869 0.444393 0
M  V30 4607 O 447.225 1.44677 1.32081 0
M  V30 4608 H 445.805 0.645615 -0.375754 0
M  V30 4609 H 448.467 1.21596 -1.52317 0
M  V30 4610 H 447.563 2.74328 -1.4883 0
M  V30 4611 N 447.864 1.01787 1.20321 0
M  V30 4612 C 449.11 0.708985 1.90003 0
M  V30 4613 C 449.443 -0.759572 1.78729 0
M  V30 4614 O 448.718 -1.55198 1.17234 0
M  V30 4615 C 449.001 1.1469 3.41348 0
M  V30 4616 C 448.854 2.67586 3.61549 0
M  V30 4617 C 450.173 0.71915 4.34185 0
M  V30 4618 H 447.292 0.259034 0.689978 0
M  V30 4619 H 449.934 1.26584 1.41692 0
M  V30 4620 H 448.084 0.673128 3.82624 0
M  V30 4621 H 449.756 3.22826 3.29517 0
M  V30 4622 H 447.999 3.085 3.04976 0
M  V30 4623 H 448.67 2.93281 4.67643 0
M  V30 4624 H 451.146 1.12647 4.00562 0
M  V30 4625 H 450.022 1.05358 5.38694 0
M  V30 4626 H 450.283 -0.379111 4.40472 0
M  V30 4627 N 449.342 -1.36122 0.79427 0
M  V30 4628 C 450.289 -2.29982 0.194101 0
M  V30 4629 C 451.259 -1.52214 -0.664833 0
M  V30 4630 O 452.444 -1.80702 -0.612498 0
M  V30 4631 C 449.584 -3.38706 -0.661244 0
M  V30 4632 C 448.697 -4.31456 0.216766 0
M  V30 4633 C 447.832 -5.27265 -0.645411 0
M  V30 4634 C 446.871 -6.11653 0.233756 0
M  V30 4635 N 446.008 -6.99636 -0.587682 0
M  V30 4636 H 450.848 -2.80722 0.999965 0
M  V30 4637 H 448.385 -1.38172 0.504677 0
M  V30 4638 H 450.343 -4.00394 -1.17219 0
M  V30 4639 H 448.973 -2.89274 -1.43249 0
M  V30 4640 H 448.025 -3.7088 0.845724 0
M  V30 4641 H 449.337 -4.90724 0.893973 0
M  V30 4642 H 448.491 -5.94266 -1.22198 0
M  V30 4643 H 447.23 -4.68463 -1.35623 0
M  V30 4644 H 446.235 -5.4361 0.82269 0
M  V30 4645 H 447.46 -6.72531 0.942247 0
M  V30 4646 H 445.406 -6.43337 -1.2827 0
M  V30 4647 H 445.323 -7.55993 0.0317402 0
M  V30 4648 H 446.591 -7.71001 -1.14792 0
M  V30 4649 N 450.82 -0.546701 -1.47814 0
M  V30 4650 C 451.767 0.206854 -2.29871 0
M  V30 4651 C 452.737 0.918235 -1.38411 0
M  V30 4652 O 453.922 0.915991 -1.67375 0
M  V30 4653 C 451.062 1.23746 -3.22151 0
M  V30 4654 C 450.175 0.533216 -4.28697 0
M  V30 4655 C 449.31 1.5482 -5.08138 0
M  V30 4656 C 448.349 0.828347 -6.06469 0
M  V30 4657 N 447.486 1.78966 -6.78908 0
M  V30 4658 H 452.326 -0.499037 -2.93792 0
M  V30 4659 H 449.863 -0.25793 -1.44821 0
M  V30 4660 H 451.821 1.84746 -3.74065 0
M  V30 4661 H 450.451 1.91151 -2.60117 0
M  V30 4662 H 449.503 -0.191089 -3.7992 0
M  V30 4663 H 450.815 -0.0311987 -4.9879 0
M  V30 4664 H 449.969 2.23202 -5.6415 0
M  V30 4665 H 448.708 2.14652 -4.37922 0
M  V30 4666 H 447.713 0.130539 -5.49645 0
M  V30 4667 H 448.938 0.235907 -6.7869 0
M  V30 4668 H 446.884 2.37675 -6.1143 0
M  V30 4669 H 446.801 1.27712 -7.45135 0
M  V30 4670 H 448.069 2.46496 -7.395 0
M  V30 4671 N 452.299 1.55045 -0.282633 0
M  V30 4672 C 453.547 1.99365 0.331334 0
M  V30 4673 C 453.868 1.1725 1.55812 0
M  V30 4674 O 453.138 0.263871 1.94115 0
M  V30 4675 H 451.718 0.736397 0.125414 0
M  V30 4676 H 454.38 1.90964 -0.389711 0
M  V30 4677 H 453.476 3.0596 0.616036 0
M  V30 4678 N 453.777 0.010035 1.57597 0
M  V30 4679 C 455.054 -0.710296 1.82248 0
M  V30 4680 C 455.434 -1.91426 0.889911 0
M  V30 4681 O 454.782 -2.28424 -0.0590292 0
M  V30 4682 C 454.992 -1.10655 3.30993 0
M  V30 4683 C 456.34 -1.50621 3.96987 0
M  V30 4684 O 457.364 -1.20007 3.35375 0
M  V30 4685 O 456.223 -2.07587 5.05539 0
M  V30 4686 H 453.317 -0.34673 0.750804 0
M  V30 4687 H 455.863 0.0362578 1.69661 0
M  V30 4688 H 454.635 -0.248826 3.90508 0
M  V30 4689 H 454.258 -1.91189 3.48615 0
M  V30 4690 N 455.255 -1.55392 -0.262866 0
M  V30 4691 C 456.503 -1.76127 -0.991147 0
M  V30 4692 C 456.824 -0.571083 -1.8645 0
M  V30 4693 O 456.094 0.413698 -1.91482 0
M  V30 4694 H 454.674 -0.649528 -0.368948 0
M  V30 4695 H 457.336 -1.9281 -0.284655 0
M  V30 4696 H 456.432 -2.6663 -1.62219 0
M  V30 4697 N 456.733 0.527833 -1.48498 0
M  V30 4698 C 457.663 1.64136 -1.66077 0
M  V30 4699 C 458.644 1.62286 -0.509625 0
M  V30 4700 O 459.829 1.79449 -0.742413 0
M  V30 4701 C 456.959 3.02717 -1.70234 0
M  V30 4702 C 455.913 3.19426 -2.8487 0
M  V30 4703 C 455.239 4.5909 -2.74118 0
M  V30 4704 C 456.539 3.01993 -4.26142 0
M  V30 4705 H 458.233 1.4968 -2.593 0
M  V30 4706 H 455.779 0.718654 -1.24785 0
M  V30 4707 H 457.732 3.80491 -1.8112 0
M  V30 4708 H 456.456 3.18201 -0.735911 0
M  V30 4709 H 455.115 2.4407 -2.73542 0
M  V30 4710 H 454.763 4.71413 -1.7544 0
M  V30 4711 H 454.463 4.71214 -3.51042 0
M  V30 4712 H 455.987 5.3896 -2.86974 0
M  V30 4713 H 457.401 3.69558 -4.38292 0
M  V30 4714 H 455.798 3.2561 -5.04082 0
M  V30 4715 H 456.868 1.98396 -4.42456 0
M  V30 4716 N 458.211 1.37122 0.776871 0
M  V30 4717 C 459.143 1.28342 1.89897 0
M  V30 4718 C 460.156 0.200277 1.61563 0
M  V30 4719 O 461.345 0.456012 1.72577 0
M  V30 4720 C 458.445 0.960427 3.25006 0
M  V30 4721 C 457.618 2.148 3.81025 0
M  V30 4722 C 456.677 1.79608 4.94598 0
M  V30 4723 O 455.703 2.51845 5.10454 0
M  V30 4724 N 456.905 0.737171 5.758 0
M  V30 4725 H 459.67 2.25027 1.97947 0
M  V30 4726 H 457.231 1.3068 0.955739 0
M  V30 4727 H 459.223 0.705942 3.98495 0
M  V30 4728 H 457.793 0.0823066 3.12492 0
M  V30 4729 H 457.013 2.56454 2.99374 0
M  V30 4730 H 458.301 2.9411 4.15183 0
M  V30 4731 H 457.699 0.137637 5.65533 0
M  V30 4732 H 456.256 0.542534 6.49538 0
M  V30 4733 N 459.689 -1.00246 1.21608 0
M  V30 4734 C 460.619 -2.10921 1.00172 0
M  V30 4735 C 461.6 -1.69938 -0.0741587 0
M  V30 4736 O 462.785 -1.94009 0.0861753 0
M  V30 4737 C 459.915 -3.42618 0.568355 0
M  V30 4738 C 458.869 -3.97407 1.58909 0
M  V30 4739 C 458.195 -5.25038 1.01187 0
M  V30 4740 C 459.495 -4.2918 2.97661 0
M  V30 4741 H 461.189 -2.29112 1.92739 0
M  V30 4742 H 458.735 -1.10101 0.928102 0
M  V30 4743 H 460.688 -4.19444 0.405555 0
M  V30 4744 H 459.412 -3.24227 -0.392961 0
M  V30 4745 H 458.071 -3.22703 1.73949 0
M  V30 4746 H 457.719 -5.02982 0.0421965 0
M  V30 4747 H 457.419 -5.62661 1.6937 0
M  V30 4748 H 458.943 -6.04507 0.860448 0
M  V30 4749 H 460.357 -4.96839 2.86049 0
M  V30 4750 H 458.754 -4.77952 3.6288 0
M  V30 4751 H 459.824 -3.3735 3.48315 0
M  V30 4752 N 461.167 -1.02423 -1.1978 0
M  V30 4753 C 462.578 -0.748389 -1.71044 0
M  V30 4754 C 462.929 0.732398 -1.82017 0
M  V30 4755 O 462.054 1.57116 -1.48807 0
M  V30 4756 C 462.649 -1.35187 -3.1066 0
M  V30 4757 C 461.208 -1.12472 -3.59203 0
M  V30 4758 C 460.355 -1.45283 -2.36195 0
M  V30 4759 H 463.306 -1.19275 -1.04686 0
M  V30 4760 H 463.327 -0.746408 -3.73107 0
M  V30 4761 H 462.839 -2.4296 -3.02642 0
M  V30 4762 H 460.94 -0.0649983 -3.72543 0
M  V30 4763 H 461.053 -1.81016 -4.43588 0
M  V30 4764 H 459.417 -0.872034 -2.39307 0
M  V30 4765 H 460.2 -2.54129 -2.30811 0
M  V30 4766 N 462.645 1.35699 -0.801477 0
M  V30 4767 C 463.608 2.28199 -0.213994 0
M  V30 4768 C 464.608 1.49359 0.595691 0
M  V30 4769 O 465.798 1.69186 0.414921 0
M  V30 4770 C 462.93 3.33587 0.702297 0
M  V30 4771 H 464.123 2.81666 -1.02976 0
M  V30 4772 H 461.676 1.45467 -0.571759 0
M  V30 4773 H 462.411 2.85297 1.54195 0
M  V30 4774 H 462.196 3.91906 0.123484 0
M  V30 4775 H 463.686 4.02638 1.10783 0
M  V30 4776 N 464.123 0.554532 1.47522 0
M  V30 4777 C 465.086 -0.184174 2.28459 0
M  V30 4778 C 466.086 -0.845195 1.36796 0
M  V30 4779 O 467.276 -0.701467 1.59452 0
M  V30 4780 C 464.408 -1.26903 3.16399 0
M  V30 4781 H 465.601 0.526751 2.95238 0
M  V30 4782 H 463.154 0.311375 1.53167 0
M  V30 4783 H 463.889 -2.01244 2.54306 0
M  V30 4784 H 463.674 -0.799883 3.83854 0
M  V30 4785 H 465.164 -1.78794 3.77389 0
M  V30 4786 N 465.601 -1.54893 0.290851 0
M  V30 4787 C 466.878 -1.91991 -0.373989 0
M  V30 4788 C 467.258 -1.21694 -1.72493 0
M  V30 4789 O 466.606 -0.34917 -2.25816 0
M  V30 4790 C 466.816 -3.45419 -0.498703 0
M  V30 4791 C 468.164 -4.1748 -0.774298 0
M  V30 4792 O 469.188 -3.51398 -0.582908 0
M  V30 4793 O 468.047 -5.3445 -1.14129 0
M  V30 4794 H 465.141 -0.800593 -0.207315 0
M  V30 4795 H 467.687 -1.66297 0.338164 0
M  V30 4796 H 466.459 -3.88688 0.451392 0
M  V30 4797 H 466.082 -3.77117 -1.25972 0
M  V30 4798 N 467.08 -0.0183926 -1.57589 0
M  V30 4799 C 468.328 0.661253 -1.90976 0
M  V30 4800 C 468.649 1.73281 -0.894353 0
M  V30 4801 O 467.919 1.9579 0.0656788 0
M  V30 4802 H 466.499 0.247233 -0.704901 0
M  V30 4803 H 469.161 -0.0636639 -1.94796 0
M  V30 4804 H 468.257 1.12083 -2.9128 0
M  V30 4805 N 468.558 1.5553 0.254621 0
M  V30 4806 C 469.521 1.88872 1.29846 0
M  V30 4807 C 470.521 0.764591 1.41459 0
M  V30 4808 O 471.711 1.03265 1.40293 0
M  V30 4809 C 468.843 2.11032 2.67728 0
M  V30 4810 H 470.036 2.82201 1.01502 0
M  V30 4811 H 467.589 1.48303 0.493556 0
M  V30 4812 H 468.324 1.20146 3.01223 0
M  V30 4813 H 468.109 2.92895 2.60682 0
M  V30 4814 H 469.599 2.38038 3.43115 0
M  V30 4815 N 470.036 -0.519951 1.48776 0
M  V30 4816 C 470.999 -1.60574 1.6355 0
M  V30 4817 C 471.999 -1.52557 0.508234 0
M  V30 4818 O 473.189 -1.56047 0.774262 0
M  V30 4819 C 470.321 -3.00211 1.61512 0
M  V30 4820 H 471.514 -1.4881 2.60376 0
M  V30 4821 H 469.067 -0.742772 1.37523 0
M  V30 4822 H 469.802 -3.17471 0.662009 0
M  V30 4823 H 469.587 -3.07439 2.43359 0
M  V30 4824 H 471.077 -3.79134 1.75064 0
M  V30 4825 N 471.514 -1.37532 -0.769588 0
M  V30 4826 C 472.477 -1.33292 -1.86456 0
M  V30 4827 C 473.477 -0.236537 -1.59051 0
M  V30 4828 O 474.667 -0.492511 -1.67093 0
M  V30 4829 C 471.799 -1.07118 -3.23633 0
M  V30 4830 H 472.992 -2.30692 -1.91628 0
M  V30 4831 H 470.545 -1.22593 -0.969572 0
M  V30 4832 H 471.28 -0.102578 -3.24138 0
M  V30 4833 H 471.065 -1.86479 -3.44917 0
M  V30 4834 H 472.555 -1.06806 -4.03711 0
M  V30 4835 N 472.992 0.995999 -1.22138 0
M  V30 4836 C 474.217 1.77601 -1.0711 0
M  V30 4837 C 474.642 1.84339 0.374264 0
M  V30 4838 O 474 1.29359 1.27028 0
M  V30 4839 C 474.048 3.18897 -1.68336 0
M  V30 4840 O 473.152 4.01663 -0.934928 0
M  V30 4841 H 472.493 0.547011 -0.376397 0
M  V30 4842 H 475.023 1.25137 -1.6187 0
M  V30 4843 H 475.033 3.69539 -1.72931 0
M  V30 4844 H 473.708 3.13308 -2.73516 0
M  V30 4845 H 472.285 3.60204 -0.964751 0
M  V30 4846 N 474.47 1.03057 1.19235 0
M  V30 4847 C 475.418 0.606391 2.24557 0
M  V30 4848 C 476.412 -0.361826 1.65491 0
M  V30 4849 O 477.618 -0.23022 1.78522 0
M  V30 4850 H 473.993 0.177838 0.730669 0
M  V30 4851 H 475.964 1.50529 2.5765 0
M  V30 4852 C 474.713 -0.0252127 3.47691 0
M  V30 4853 H 474.036 0.710838 3.9343 0
M  V30 4854 H 475.476 -0.284931 4.23042 0
M  V30 4855 C 473.935 -1.27229 3.11953 0
M  V30 4856 O 474.465 -2.36416 3.24762 0
M  V30 4857 N 472.671 -1.16169 2.6637 0
M  V30 4858 H 472.218 -0.273189 2.56147 0
M  V30 4859 H 472.176 -1.99703 2.42829 0
M  V30 4860 N 475.948 -1.35272 0.808662 0
M  V30 4861 C 476.911 -2.28082 0.226093 0
M  V30 4862 C 477.911 -1.49673 -0.587762 0
M  V30 4863 O 479.101 -1.69404 -0.405943 0
M  V30 4864 C 476.233 -3.33955 -0.684596 0
M  V30 4865 H 477.426 -2.81116 1.04469 0
M  V30 4866 H 474.979 -1.45162 0.579466 0
M  V30 4867 H 475.714 -2.86111 -1.5268 0
M  V30 4868 H 475.499 -3.91965 -0.102699 0
M  V30 4869 H 476.989 -4.03219 -1.08646 0
M  V30 4870 N 477.426 -0.562348 -1.47226 0
M  V30 4871 C 478.389 0.172056 -2.28553 0
M  V30 4872 C 479.389 0.837928 -1.37242 0
M  V30 4873 O 480.579 0.693001 -1.59822 0
M  V30 4874 C 477.711 1.25223 -3.17068 0
M  V30 4875 H 478.904 -0.542401 -2.94954 0
M  V30 4876 H 476.457 -0.319493 -1.53 0
M  V30 4877 H 477.192 1.99892 -2.55369 0
M  V30 4878 H 476.977 0.779515 -3.84273 0
M  V30 4879 H 478.467 1.76791 -3.78332 0
M  V30 4880 N 478.904 1.54736 -0.299062 0
M  V30 4881 C 480.181 1.92187 0.363802 0
M  V30 4882 C 480.561 1.22607 1.71845 0
M  V30 4883 O 479.909 0.361141 2.25628 0
M  V30 4884 C 480.119 3.45678 0.480377 0
M  V30 4885 C 481.467 4.17885 0.752147 0
M  V30 4886 O 482.491 3.51702 0.564264 0
M  V30 4887 O 481.35 5.35048 1.11294 0
M  V30 4888 H 478.444 0.801681 0.203066 0
M  V30 4889 H 480.99 1.66115 -0.346978 0
M  V30 4890 H 479.762 3.88443 -0.471999 0
M  V30 4891 H 479.385 3.77779 1.2397 0
M  V30 4892 N 480.382 0.0267497 1.57577 0
M  V30 4893 C 481.607 -0.666227 1.96408 0
M  V30 4894 C 482.032 -1.65004 0.903071 0
M  V30 4895 O 481.39 -1.80787 -0.136263 0
M  V30 4896 C 481.438 -1.35101 3.34335 0
M  V30 4897 O 480.542 -2.46623 3.30531 0
M  V30 4898 H 479.883 -0.175206 0.640468 0
M  V30 4899 H 482.413 0.0878977 2.04411 0
M  V30 4900 H 482.423 -1.70834 3.70513 0
M  V30 4901 H 481.098 -0.629844 4.11103 0
M  V30 4902 H 479.675 -2.13019 3.06068 0
M  V30 4903 N 481.861 -1.55662 -0.24637 0
M  V30 4904 C 482.824 -1.89558 -1.28842 0
M  V30 4905 C 483.824 -0.772082 -1.41052 0
M  V30 4906 O 485.014 -1.04007 -1.39743 0
M  V30 4907 C 482.146 -2.12449 -2.66605 0
M  V30 4908 H 483.339 -2.82735 -1.00004 0
M  V30 4909 H 480.892 -1.48562 -0.485684 0
M  V30 4910 H 481.627 -1.21742 -3.00582 0
M  V30 4911 H 481.412 -2.94273 -2.59125 0
M  V30 4912 H 482.902 -2.39854 -3.41847 0
M  V30 4913 N 483.339 0.512053 -1.4905 0
M  V30 4914 C 484.287 1.63568 -1.65373 0
M  V30 4915 C 485.281 1.61228 -0.519806 0
M  V30 4916 O 486.487 1.65869 -0.699101 0
M  V30 4917 H 482.862 0.542019 -0.521267 0
M  V30 4918 H 484.833 1.4695 -2.59708 0
M  V30 4919 C 483.582 3.01761 -1.7273 0
M  V30 4920 H 482.905 3.04263 -2.59353 0
M  V30 4921 H 484.345 3.79948 -1.8819 0
M  V30 4922 C 482.804 3.33609 -0.46973 0
M  V30 4923 O 483.334 3.99607 0.409492 0
M  V30 4924 N 481.54 2.88651 -0.336003 0
M  V30 4925 H 481.087 2.35119 -1.05247 0
M  V30 4926 H 481.045 3.10328 0.504363 0
M  V30 4927 N 484.817 1.37938 0.762283 0
M  V30 4928 C 485.78 1.34279 1.85747 0
M  V30 4929 C 486.78 0.244969 1.58923 0
M  V30 4930 O 487.97 0.501365 1.66829 0
M  V30 4931 C 485.102 1.08833 3.23061 0
M  V30 4932 H 486.295 2.31705 1.90401 0
M  V30 4933 H 483.848 1.23105 0.963057 0
M  V30 4934 H 484.583 0.119767 3.24079 0
M  V30 4935 H 484.368 1.88306 3.43923 0
M  V30 4936 H 485.858 1.08946 4.03138 0
M  V30 4937 N 486.295 -0.989507 1.22664 0
M  V30 4938 C 487.52 -1.77031 1.08051 0
M  V30 4939 C 487.945 -1.84535 -0.364483 0
M  V30 4940 O 487.303 -1.3003 -1.2634 0
M  V30 4941 C 487.351 -3.18 1.70024 0
M  V30 4942 O 486.455 -4.01161 0.956216 0
M  V30 4943 H 485.796 -0.545008 0.379292 0
M  V30 4944 H 488.326 -1.24277 1.62531 0
M  V30 4945 H 488.336 -3.68616 1.74888 0
M  V30 4946 H 487.011 -3.11853 2.75174 0
M  V30 4947 H 485.588 -3.59687 0.98384 0
M  V30 4948 N 487.773 -1.03688 -1.18687 0
M  V30 4949 C 488.703 -0.645407 -2.24403 0
M  V30 4950 C 489.684 0.349511 -1.66471 0
M  V30 4951 O 490.869 0.230453 -1.92828 0
M  V30 4952 C 487.999 -0.00365337 -3.473 0
M  V30 4953 C 486.953 -0.921705 -4.17958 0
M  V30 4954 C 486.279 -0.144629 -5.34504 0
M  V30 4955 C 487.579 -2.23909 -4.71871 0
M  V30 4956 H 489.273 -1.52917 -2.57404 0
M  V30 4957 H 486.819 -0.736711 -1.23728 0
M  V30 4958 H 488.772 0.281908 -4.20456 0
M  V30 4959 H 487.496 0.914963 -3.13522 0
M  V30 4960 H 486.155 -1.19159 -3.46694 0
M  V30 4961 H 485.803 0.776274 -4.96974 0
M  V30 4962 H 485.503 -0.756206 -5.82714 0
M  V30 4963 H 487.027 0.134004 -6.10453 0
M  V30 4964 H 488.441 -2.0145 -5.36741 0
M  V30 4965 H 486.838 -2.8033 -5.30599 0
M  V30 4966 H 487.908 -2.88822 -3.895 0
M  V30 4967 N 489.251 1.34841 -0.815825 0
M  V30 4968 C 490.497 1.98793 -0.401129 0
M  V30 4969 C 490.83 1.64548 1.03139 0
M  V30 4970 O 490.105 0.913487 1.71714 0
M  V30 4971 C 490.388 3.55143 -0.595409 0
M  V30 4972 C 490.241 3.99155 -2.07352 0
M  V30 4973 C 491.56 4.40092 -0.0268823 0
M  V30 4974 H 488.679 0.722146 -0.14722 0
M  V30 4975 H 491.321 1.59847 -1.02707 0
M  V30 4976 H 489.471 3.8845 -0.0625779 0
M  V30 4977 H 491.143 3.76216 -2.66945 0
M  V30 4978 H 489.386 3.49726 -2.56659 0
M  V30 4979 H 490.057 5.07971 -2.1603 0
M  V30 4980 H 492.533 4.13298 -0.482042 0
M  V30 4981 H 491.409 5.48562 -0.19267 0
M  V30 4982 H 491.67 4.29016 1.06759 0
M  V30 4983 N 490.729 0.570148 1.46925 0
M  V30 4984 C 491.677 -0.183181 2.31878 0
M  V30 4985 C 492.671 -0.896721 1.43719 0
M  V30 4986 O 493.877 -0.816536 1.60414 0
M  V30 4987 H 490.252 -0.077944 0.74795 0
M  V30 4988 H 492.223 0.552312 2.93244 0
M  V30 4989 C 490.972 -1.19172 3.2664 0
M  V30 4990 H 490.295 -0.652088 3.94446 0
M  V30 4991 H 491.735 -1.68946 3.88887 0
M  V30 4992 C 490.194 -2.24627 2.51086 0
M  V30 4993 O 490.724 -3.31773 2.26472 0
M  V30 4994 N 488.93 -1.98898 2.11867 0
M  V30 4995 H 488.477 -1.11777 2.32086 0
M  V30 4996 H 488.435 -2.6967 1.61634 0
M  V30 4997 N 492.207 -1.54576 0.307264 0
M  V30 4998 C 493.455 -1.99867 -0.299574 0
M  V30 4999 C 493.776 -1.19714 -1.53927 0
M  V30 5000 O 493.046 -0.29472 -1.9367 0
M  V30 5001 H 491.626 -0.738299 -0.113683 0
M  V30 5002 H 494.288 -1.9032 0.420042 0
M  V30 5003 H 493.384 -3.06901 -0.567283 0
M  V30 5004 N 493.685 -0.035106 -1.57561 0
M  V30 5005 C 494.632 0.94474 -2.10578 0
M  V30 5006 C 495.602 1.3192 -1.00927 0
M  V30 5007 O 496.787 1.41147 -1.28382 0
M  V30 5008 C 493.927 2.21982 -2.64231 0
M  V30 5009 C 493.04 1.90128 -3.87911 0
M  V30 5010 C 492.175 3.11975 -4.29936 0
M  V30 5011 C 491.214 2.75968 -5.46359 0
M  V30 5012 N 490.351 3.90459 -5.83512 0
M  V30 5013 H 495.191 0.485717 -2.94015 0
M  V30 5014 H 492.728 0.228143 -1.4532 0
M  V30 5015 H 494.686 2.96572 -2.9343 0
M  V30 5016 H 493.316 2.6549 -1.83616 0
M  V30 5017 H 492.368 1.05755 -3.65404 0
M  V30 5018 H 493.68 1.59613 -4.72573 0
M  V30 5019 H 492.834 3.9488 -4.60603 0
M  V30 5020 H 491.573 3.45657 -3.44053 0
M  V30 5021 H 490.578 1.91478 -5.1538 0
M  V30 5022 H 491.803 2.43497 -6.33945 0
M  V30 5023 H 489.749 4.23971 -5.00584 0
M  V30 5024 H 489.666 3.63588 -6.62827 0
M  V30 5025 H 490.934 4.7405 -6.18787 0
M  V30 5026 N 495.163 1.55791 0.238111 0
M  V30 5027 C 496.096 1.86036 1.32158 0
M  V30 5028 C 497.074 0.716216 1.45976 0
M  V30 5029 O 498.258 0.962882 1.62052 0
M  V30 5030 C 495.385 2.05281 2.69402 0
M  V30 5031 C 494.431 3.27939 2.72687 0
M  V30 5032 S 495.264 4.84342 2.28413 0
M  V30 5033 C 496.42 5.06604 3.67565 0
M  V30 5034 H 496.653 2.77644 1.06306 0
M  V30 5035 H 494.186 1.48012 0.439537 0
M  V30 5036 H 496.144 2.17053 3.48423 0
M  V30 5037 H 494.805 1.14499 2.92487 0
M  V30 5038 H 493.998 3.38398 3.73501 0
M  V30 5039 H 493.6 3.14938 2.01717 0
M  V30 5040 H 495.892 4.94486 4.6313 0
M  V30 5041 H 496.835 6.08554 3.62033 0
M  V30 5042 H 497.243 4.34409 3.60485 0
M  V30 5043 N 496.642 -0.504142 1.49319 0
M  V30 5044 C 497.574 -1.62265 1.61872 0
M  V30 5045 C 498.587 -1.54881 0.501573 0
M  V30 5046 O 499.776 -1.6087 0.773497 0
M  V30 5047 C 496.876 -3.01042 1.55651 0
M  V30 5048 C 496.049 -3.33642 2.82845 0
M  V30 5049 C 495.108 -4.51816 2.69719 0
M  V30 5050 O 494.134 -4.53755 3.4365 0
M  V30 5051 N 495.336 -5.51543 1.81055 0
M  V30 5052 H 498.101 -1.51924 2.58339 0
M  V30 5053 H 495.662 -0.691954 1.46368 0
M  V30 5054 H 497.654 -3.78013 1.44528 0
M  V30 5055 H 496.224 -3.05323 0.670546 0
M  V30 5056 H 495.444 -2.45598 3.08343 0
M  V30 5057 H 496.732 -3.5222 3.67177 0
M  V30 5058 H 496.13 -5.52774 1.20241 0
M  V30 5059 H 494.687 -6.27629 1.75856 0
M  V30 5060 N 498.12 -1.38341 -0.754957 0
M  V30 5061 C 499.397 -1.24995 -1.50451 0
M  V30 5062 C 499.777 0.149244 -2.10572 0
M  V30 5063 O 499.125 1.15861 -1.96948 0
M  V30 5064 C 499.335 -2.35904 -2.57197 0
M  V30 5065 C 500.683 -2.74262 -3.24138 0
M  V30 5066 O 501.707 -2.35205 -2.67501 0
M  V30 5067 O 500.566 -3.4161 -4.26574 0
M  V30 5068 H 497.66 -0.48872 -0.667144 0
M  V30 5069 H 500.206 -1.50165 -0.790486 0
M  V30 5070 H 498.978 -3.2953 -2.11011 0
M  V30 5071 H 498.601 -2.12291 -3.36182 0
M  V30 5072 N 499.598 0.982988 -1.23187 0
M  V30 5073 C 500.846 1.72052 -1.06031 0
M  V30 5074 C 501.167 1.90769 0.404019 0
M  V30 5075 O 500.437 1.47446 1.28982 0
M  V30 5076 H 499.017 0.637499 -0.389363 0
M  V30 5077 H 501.679 1.18338 -1.54862 0
M  V30 5078 H 500.775 2.7111 -1.54615 0
M  V30 5079 N 501.076 1.04316 1.18135 0
M  V30 5080 C 502.024 0.630175 2.23901 0
M  V30 5081 C 503.018 -0.344254 1.65865 0
M  V30 5082 O 504.224 -0.211273 1.78756 0
M  V30 5083 H 500.599 0.185578 0.728742 0
M  V30 5084 H 502.57 1.53253 2.56039 0
M  V30 5085 C 501.319 0.011666 3.47698 0
M  V30 5086 H 500.642 0.752526 3.92654 0
M  V30 5087 H 502.082 -0.240046 4.2332 0
M  V30 5088 C 500.541 -1.23913 3.13285 0
M  V30 5089 O 501.071 -2.32959 3.27251 0
M  V30 5090 N 499.277 -1.13338 2.67587 0
M  V30 5091 H 498.824 -0.246006 2.56423 0
M  V30 5092 H 498.782 -1.97116 2.44934 0
M  V30 5093 N 502.554 -1.34406 0.822964 0
M  V30 5094 C 503.8 -1.98578 0.411666 0
M  V30 5095 C 504.133 -1.65093 -1.02264 0
M  V30 5096 O 503.408 -0.92258 -1.71227 0
M  V30 5097 C 503.691 -3.54823 0.614235 0
M  V30 5098 C 503.544 -3.9805 2.09466 0
M  V30 5099 C 504.863 -4.40071 0.050221 0
M  V30 5100 H 501.982 -0.721355 0.151047 0
M  V30 5101 H 504.624 -1.59301 1.03554 0
M  V30 5102 H 502.774 -3.88411 0.0831774 0
M  V30 5103 H 504.446 -3.74795 2.68936 0
M  V30 5104 H 502.689 -3.4836 2.5851 0
M  V30 5105 H 503.36 -5.06819 2.18721 0
M  V30 5106 H 505.836 -4.13037 0.503953 0
M  V30 5107 H 504.712 -5.48452 0.221759 0
M  V30 5108 H 504.973 -4.29576 -1.04482 0
M  V30 5109 N 504.032 -0.577932 -1.46621 0
M  V30 5110 C 505.309 0.00495287 -1.95599 0
M  V30 5111 C 505.689 1.46428 -1.5206 0
M  V30 5112 O 505.037 2.1517 -0.769046 0
M  V30 5113 C 505.247 -0.162114 -3.48623 0
M  V30 5114 C 506.595 -0.0274623 -4.24591 0
M  V30 5115 O 507.619 -0.0907067 -3.56084 0
M  V30 5116 O 506.478 0.1122 -5.46385 0
M  V30 5117 H 503.572 0.0525057 -0.825332 0
M  V30 5118 H 506.118 -0.645914 -1.56927 0
M  V30 5119 H 504.89 -1.17679 -3.73185 0
M  V30 5120 H 504.513 0.525407 -3.94113 0
M  V30 5121 N 505.51 1.54411 -0.315457 0
M  V30 5122 C 506.473 2.22713 0.54142 0
M  V30 5123 C 507.473 1.2179 1.04995 0
M  V30 5124 O 508.663 1.46426 0.943667 0
M  V30 5125 C 505.795 2.92485 1.75116 0
M  V30 5126 H 506.988 2.99849 -0.0555508 0
M  V30 5127 H 504.541 1.56159 -0.0664453 0
M  V30 5128 H 505.276 2.19466 2.38758 0
M  V30 5129 H 505.061 3.66483 1.39401 0
M  V30 5130 H 506.551 3.44548 2.35959 0
M  V30 5131 N 506.988 0.0434614 1.5754 0
M  V30 5132 C 508.213 -0.645358 1.97104 0
M  V30 5133 C 508.638 -1.64037 0.920521 0
M  V30 5134 O 507.996 -1.80922 -0.11708 0
M  V30 5135 C 508.044 -1.31547 3.35749 0
M  V30 5136 O 507.148 -2.43103 3.33129 0
M  V30 5137 H 506.489 -0.168403 0.64229 0
M  V30 5138 H 509.019 0.109573 2.04306 0
M  V30 5139 H 509.029 -1.66895 3.72304 0
M  V30 5140 H 507.704 -0.586205 4.11748 0
M  V30 5141 H 506.281 -2.0976 3.0831 0
M  V30 5142 N 508.466 -1.55915 -0.229846 0
M  V30 5143 C 509.398 -1.88209 -1.30805 0
M  V30 5144 C 510.411 -0.769672 -1.43457 0
M  V30 5145 O 511.6 -1.04792 -1.44502 0
M  V30 5146 C 508.7 -2.06829 -2.68468 0
M  V30 5147 C 507.873 -3.37798 -2.77869 0
M  V30 5148 C 506.932 -3.45952 -3.96489 0
M  V30 5149 O 505.958 -4.19043 -3.85216 0
M  V30 5150 N 507.16 -2.76488 -5.10426 0
M  V30 5151 H 509.925 -2.81286 -1.03431 0
M  V30 5152 H 507.486 -1.5636 -0.41991 0
M  V30 5153 H 509.478 -2.09608 -3.46189 0
M  V30 5154 H 508.048 -1.20416 -2.88477 0
M  V30 5155 H 507.268 -3.4719 -1.86689 0
M  V30 5156 H 508.556 -4.24091 -2.81113 0
M  V30 5157 H 507.954 -2.16868 -5.2248 0
M  V30 5158 H 506.511 -2.84938 -5.8622 0
M  V30 5159 N 509.944 0.496216 -1.49584 0
M  V30 5160 C 511.169 1.27865 -1.63295 0
M  V30 5161 C 511.594 1.85592 -0.306156 0
M  V30 5162 O 510.952 1.66092 0.726851 0
M  V30 5163 C 511 2.38128 -2.7079 0
M  V30 5164 O 510.104 3.42108 -2.30296 0
M  V30 5165 H 509.445 0.377279 -0.546403 0
M  V30 5166 H 511.975 0.593497 -1.95803 0
M  V30 5167 H 511.985 2.8382 -2.93104 0
M  V30 5168 H 510.66 1.95479 -3.67098 0
M  V30 5169 H 509.237 3.02301 -2.18331 0
M  V30 5170 N 511.423 1.38739 0.74761 0
M  V30 5171 C 512.37 1.36449 1.86146 0
M  V30 5172 C 513.34 0.226098 1.64554 0
M  V30 5173 O 514.525 0.41926 1.86137 0
M  V30 5174 C 511.665 1.2013 3.23516 0
M  V30 5175 C 510.778 2.43407 3.56899 0
M  V30 5176 C 509.913 2.19773 4.83605 0
M  V30 5177 C 508.952 3.3879 5.09792 0
M  V30 5178 N 508.089 3.14553 6.27695 0
M  V30 5179 H 512.929 2.3167 1.87438 0
M  V30 5180 H 510.466 1.15094 0.916063 0
M  V30 5181 H 512.424 1.08683 4.02795 0
M  V30 5182 H 511.054 0.285453 3.21535 0
M  V30 5183 H 510.106 2.65504 2.72418 0
M  V30 5184 H 511.418 3.32094 3.72176 0
M  V30 5185 H 510.572 2.05496 5.70838 0
M  V30 5186 H 509.311 1.28461 4.70478 0
M  V30 5187 H 508.316 3.53579 4.21025 0
M  V30 5188 H 509.541 4.30986 5.24812 0
M  V30 5189 H 507.487 2.25893 6.1588 0
M  V30 5190 H 507.404 3.96791 6.435 0
M  V30 5191 H 508.672 3.03943 7.17801 0
M  V30 5192 N 512.901 -0.976442 1.23707 0
M  V30 5193 C 513.864 -2.0511 1.02287 0
M  V30 5194 C 514.864 -1.60791 -0.0167195 0
M  V30 5195 O 516.054 -1.72761 0.223408 0
M  V30 5196 C 513.186 -3.36458 0.548507 0
M  V30 5197 H 514.379 -2.25545 1.9766 0
M  V30 5198 H 511.932 -1.15042 1.05806 0
M  V30 5199 H 512.667 -3.21713 -0.408818 0
M  V30 5200 H 512.452 -3.69967 1.29874 0
M  V30 5201 H 513.942 -4.15489 0.419406 0
M  V30 5202 N 514.379 -1.04941 -1.1758 0
M  V30 5203 C 515.326 -0.648155 -2.21512 0
M  V30 5204 C 516.296 0.348431 -1.62404 0
M  V30 5205 O 517.481 0.240419 -1.89279 0
M  V30 5206 C 514.621 -0.0264291 -3.4509 0
M  V30 5207 C 513.734 -1.07154 -4.185 0
M  V30 5208 C 512.869 -0.417403 -5.29558 0
M  V30 5209 C 511.908 -1.447 -5.94751 0
M  V30 5210 N 511.045 -0.817203 -6.97328 0
M  V30 5211 H 515.885 -1.53891 -2.55189 0
M  V30 5212 H 513.422 -0.769699 -1.25356 0
M  V30 5213 H 515.38 0.351456 -4.15717 0
M  V30 5214 H 514.01 0.827802 -3.12005 0
M  V30 5215 H 513.062 -1.56728 -3.46613 0
M  V30 5216 H 514.374 -1.8532 -4.63096 0
M  V30 5217 H 513.528 0.0142061 -6.06698 0
M  V30 5218 H 512.267 0.396265 -4.86087 0
M  V30 5219 H 511.272 -1.88865 -5.16343 0
M  V30 5220 H 512.497 -2.26252 -6.40302 0
M  V30 5221 H 510.443 -0.0239995 -6.55996 0
M  V30 5222 H 510.36 -1.53644 -7.40223 0
M  V30 5223 H 511.628 -0.410283 -7.7842 0
M  V30 5224 N 515.857 1.33968 -0.830081 0
M  V30 5225 C 516.789 2.28194 -0.21448 0
M  V30 5226 C 517.802 1.5135 0.599752 0
M  V30 5227 O 518.991 1.73286 0.42826 0
M  V30 5228 C 516.091 3.31221 0.717356 0
M  V30 5229 C 515.264 4.37365 -0.055613 0
M  V30 5230 C 514.323 5.2011 0.798231 0
M  V30 5231 O 513.349 5.68691 0.240616 0
M  V30 5232 N 514.551 5.40523 2.11695 0
M  V30 5233 H 517.316 2.81662 -1.02405 0
M  V30 5234 H 514.877 1.46568 -0.687713 0
M  V30 5235 H 516.869 3.83477 1.29334 0
M  V30 5236 H 515.439 2.78095 1.42765 0
M  V30 5237 H 514.659 3.85727 -0.812936 0
M  V30 5238 H 515.947 5.05397 -0.587444 0
M  V30 5239 H 515.345 5.0274 2.59363 0
M  V30 5240 H 513.902 5.95871 2.64162 0
M  V30 5241 N 517.335 0.585699 1.46312 0
M  V30 5242 C 518.267 -0.183687 2.28463 0
M  V30 5243 C 519.28 -0.85264 1.38686 0
M  V30 5244 O 520.469 -0.721701 1.6326 0
M  V30 5245 C 517.569 -1.27977 3.13808 0
M  V30 5246 C 516.742 -0.702164 4.31727 0
M  V30 5247 C 515.801 -1.68633 4.98447 0
M  V30 5248 O 514.827 -1.22121 5.55945 0
M  V30 5249 N 516.029 -3.02047 4.95729 0
M  V30 5250 H 518.794 0.521127 2.95134 0
M  V30 5251 H 516.355 0.423673 1.56258 0
M  V30 5252 H 518.347 -1.9375 3.55307 0
M  V30 5253 H 516.917 -1.8874 2.4919 0
M  V30 5254 H 516.137 0.1331 3.93975 0
M  V30 5255 H 517.425 -0.296101 5.07938 0
M  V30 5256 H 516.823 -3.42457 4.50266 0
M  V30 5257 H 515.38 -3.63301 5.41161 0
M  V30 5258 N 518.813 -1.54241 0.323641 0
M  V30 5259 C 520.09 -1.92741 -0.333181 0
M  V30 5260 C 520.47 -1.25326 -1.69872 0
M  V30 5261 O 519.818 -0.396991 -2.25025 0
M  V30 5262 C 520.028 -3.46399 -0.425322 0
M  V30 5263 C 521.376 -4.19029 -0.68557 0
M  V30 5264 O 522.4 -3.52555 -0.50824 0
M  V30 5265 O 521.259 -5.36751 -1.02767 0
M  V30 5266 H 518.353 -0.804811 -0.190286 0
M  V30 5267 H 520.899 -1.65542 0.373361 0
M  V30 5268 H 519.671 -3.87643 0.533737 0
M  V30 5269 H 519.294 -3.79704 -1.17944 0
M  V30 5270 N 520.291 -0.0518155 -1.57515 0
M  V30 5271 C 521.539 0.620595 -1.92336 0
M  V30 5272 C 521.86 1.71345 -0.930907 0
M  V30 5273 O 521.13 1.95885 0.0241341 0
M  V30 5274 H 519.71 0.232226 -0.709986 0
M  V30 5275 H 522.372 -0.104969 -1.94617 0
M  V30 5276 H 521.468 1.05879 -2.93592 0
M  V30 5277 N 521.769 1.56035 0.221574 0
M  V30 5278 C 522.732 1.91584 1.2581 0
M  V30 5279 C 523.732 0.794425 1.39805 0
M  V30 5280 O 524.922 1.06217 1.38071 0
M  V30 5281 C 522.054 2.16663 2.63192 0
M  V30 5282 H 523.247 2.8429 0.954935 0
M  V30 5283 H 520.8 1.49316 0.461988 0
M  V30 5284 H 521.535 1.26508 2.98607 0
M  V30 5285 H 521.32 2.98358 2.5441 0
M  V30 5286 H 522.81 2.45262 3.37988 0
M  V30 5287 N 523.247 -0.488276 1.49845 0
M  V30 5288 C 524.21 -1.57069 1.66919 0
M  V30 5289 C 525.21 -1.51445 0.540479 0
M  V30 5290 O 526.4 -1.5437 0.807188 0
M  V30 5291 C 523.532 -2.96718 1.67844 0
M  V30 5292 H 524.725 -1.43254 2.63474 0
M  V30 5293 H 522.278 -0.713435 1.39068 0
M  V30 5294 H 523.013 -3.15996 0.7292 0
M  V30 5295 H 522.798 -3.02208 2.49826 0
M  V30 5296 H 524.288 -3.75335 1.83066 0
M  V30 5297 N 524.725 -1.39134 -0.740242 0
M  V30 5298 C 525.688 -1.37217 -1.83587 0
M  V30 5299 C 526.688 -0.270221 -1.58513 0
M  V30 5300 O 527.878 -0.527843 -1.6601 0
M  V30 5301 C 525.01 -1.13959 -3.21288 0
M  V30 5302 H 526.203 -2.34705 -1.86691 0
M  V30 5303 H 523.756 -1.24622 -0.94335 0
M  V30 5304 H 524.491 -0.17131 -3.23847 0
M  V30 5305 H 524.276 -1.93754 -3.40884 0
M  V30 5306 H 525.766 -1.15346 -4.01354 0
M  V30 5307 N 526.204 0.969867 -1.24223 0
M  V30 5308 C 527.137 2.06279 -0.975926 0
M  V30 5309 C 528.115 1.62353 0.0895385 0
M  V30 5310 O 529.299 1.88442 -0.0469418 0
M  V30 5311 C 526.426 3.35391 -0.472315 0
M  V30 5312 C 525.472 3.98266 -1.526 0
M  V30 5313 S 526.305 4.36172 -3.10667 0
M  V30 5314 C 527.461 5.68423 -2.62003 0
M  V30 5315 H 527.694 2.28551 -1.90137 0
M  V30 5316 H 525.227 1.10748 -1.07584 0
M  V30 5317 H 527.185 4.10068 -0.188376 0
M  V30 5318 H 525.846 3.1111 0.432378 0
M  V30 5319 H 525.039 4.91307 -1.12399 0
M  V30 5320 H 524.641 3.30009 -1.75983 0
M  V30 5321 H 526.933 6.45842 -2.0468 0
M  V30 5322 H 527.876 6.13478 -3.53625 0
M  V30 5323 H 528.284 5.26928 -2.02502 0
M  V30 5324 N 527.682 1.05563 1.17022 0
M  V30 5325 C 528.592 0.670758 2.24807 0
M  V30 5326 C 529.608 -0.309865 1.71219 0
M  V30 5327 O 530.784 -0.161025 2.00755 0
M  V30 5328 C 527.849 0.055337 3.46656 0
M  V30 5329 C 526.91 1.08688 4.15314 0
M  V30 5330 C 526.143 0.500736 5.31346 0
M  V30 5331 O 526.366 -0.688718 5.66227 0
M  V30 5332 O 525.3 1.23683 5.89055 0
M  V30 5333 H 529.126 1.56914 2.60023 0
M  V30 5334 H 526.711 0.827428 1.24395 0
M  V30 5335 H 528.593 -0.286492 4.20425 0
M  V30 5336 H 527.268 -0.816638 3.13229 0
M  V30 5337 H 526.175 1.48077 3.43546 0
M  V30 5338 H 527.508 1.93014 4.52777 0
M  V30 5339 N 529.16 -1.33526 0.837174 0
M  V30 5340 C 530.093 -2.27192 0.214233 0
M  V30 5341 C 531.071 -1.49575 -0.637657 0
M  V30 5342 O 532.255 -1.78753 -0.598291 0
M  V30 5343 C 529.382 -3.31401 -0.699367 0
M  V30 5344 C 528.428 -4.26431 0.0768429 0
M  V30 5345 S 529.261 -5.15954 1.4336 0
M  V30 5346 C 530.417 -6.23692 0.525251 0
M  V30 5347 H 530.65 -2.79679 1.00831 0
M  V30 5348 H 528.183 -1.4079 0.633834 0
M  V30 5349 H 530.141 -3.91924 -1.22088 0
M  V30 5350 H 528.802 -2.77732 -1.46709 0
M  V30 5351 H 527.995 -5.00193 -0.618268 0
M  V30 5352 H 527.597 -3.70235 0.529364 0
M  V30 5353 H 529.889 -6.76931 -0.277575 0
M  V30 5354 H 530.832 -6.97283 1.23299 0
M  V30 5355 H 531.24 -5.64398 0.107351 0
M  V30 5356 N 530.638 -0.59345 -1.46 0
M  V30 5357 C 531.57 0.171569 -2.28557 0
M  V30 5358 C 532.583 0.845273 -1.39137 0
M  V30 5359 O 533.772 0.713033 -1.6364 0
M  V30 5360 C 530.872 1.26311 -3.14482 0
M  V30 5361 C 530.045 0.679258 -4.32094 0
M  V30 5362 C 529.104 1.65987 -4.99334 0
M  V30 5363 O 528.13 1.19171 -5.56585 0
M  V30 5364 N 529.332 2.99414 -4.97324 0
M  V30 5365 H 532.097 -0.536771 -2.94854 0
M  V30 5366 H 529.658 -0.431954 -1.56031 0
M  V30 5367 H 531.65 1.91863 -3.5633 0
M  V30 5368 H 530.22 1.87416 -2.50188 0
M  V30 5369 H 529.44 -0.153992 -3.93899 0
M  V30 5370 H 530.728 0.26916 -5.08088 0
M  V30 5371 H 530.126 3.40064 -4.52076 0
M  V30 5372 H 528.683 3.60426 -5.4308 0
M  V30 5373 N 532.116 1.54067 -0.331816 0
M  V30 5374 C 533.527 1.86059 0.15454 0
M  V30 5375 C 533.878 1.25331 1.50952 0
M  V30 5376 O 533.003 0.562441 2.08963 0
M  V30 5377 C 533.598 3.37581 0.287192 0
M  V30 5378 C 532.157 3.69493 0.717773 0
M  V30 5379 C 531.304 2.76863 -0.155569 0
M  V30 5380 H 534.255 1.48797 -0.55182 0
M  V30 5381 H 534.276 3.63744 1.11671 0
M  V30 5382 H 533.788 3.81751 -0.699131 0
M  V30 5383 H 531.889 3.3086 1.71354 0
M  V30 5384 H 532.002 4.76315 0.5158 0
M  V30 5385 H 530.366 2.51995 0.370213 0
M  V30 5386 H 531.149 3.23861 -1.13881 0
M  V30 5387 N 533.594 0.0601682 1.57485 0
M  V30 5388 C 534.524 -0.90889 2.15085 0
M  V30 5389 C 535.505 -1.31838 1.07484 0
M  V30 5390 O 536.69 -1.3915 1.35466 0
M  V30 5391 C 533.82 -2.18059 2.7031 0
M  V30 5392 C 532.774 -1.91088 3.82974 0
M  V30 5393 C 532.1 -3.24789 4.24754 0
M  V30 5394 C 533.4 -1.22535 5.07723 0
M  V30 5395 H 535.094 -0.429093 2.96309 0
M  V30 5396 H 532.64 -0.204952 1.42534 0
M  V30 5397 H 534.593 -2.86258 3.09248 0
M  V30 5398 H 533.317 -2.6826 1.8629 0
M  V30 5399 H 531.976 -1.25297 3.44523 0
M  V30 5400 H 531.624 -3.72809 3.37672 0
M  V30 5401 H 531.324 -3.07538 5.00694 0
M  V30 5402 H 532.848 -3.94205 4.66299 0
M  V30 5403 H 534.262 -1.80783 5.4405 0
M  V30 5404 H 532.659 -1.1558 5.88864 0
M  V30 5405 H 533.729 -0.202692 4.84476 0
M  V30 5406 N 535.072 -1.5615 -0.213296 0
M  V30 5407 C 536.019 -1.93086 -1.26437 0
M  V30 5408 C 536.989 -0.789086 -1.4616 0
M  V30 5409 O 538.174 -1.04569 -1.59593 0
M  V30 5410 C 535.314 -2.26003 -2.608 0
M  V30 5411 C 534.427 -3.53156 -2.48807 0
M  V30 5412 C 533.562 -3.7548 -3.7575 0
M  V30 5413 C 532.601 -4.96119 -3.58514 0
M  V30 5414 N 531.738 -5.14791 -4.77425 0
M  V30 5415 H 536.578 -2.82707 -0.942376 0
M  V30 5416 H 534.115 -1.39919 -0.454001 0
M  V30 5417 H 536.073 -2.431 -3.39055 0
M  V30 5418 H 534.703 -1.39546 -2.91079 0
M  V30 5419 H 533.755 -3.44207 -1.61944 0
M  V30 5420 H 535.067 -4.41565 -2.31996 0
M  V30 5421 H 534.221 -3.92718 -4.62447 0
M  V30 5422 H 532.96 -2.85368 -3.95495 0
M  V30 5423 H 531.965 -4.78823 -2.70201 0
M  V30 5424 H 533.19 -5.87724 -3.40231 0
M  V30 5425 H 531.136 -4.27623 -4.97468 0
M  V30 5426 H 531.053 -5.97347 -4.63371 0
M  V30 5427 H 532.321 -5.36471 -5.65525 0
M  V30 5428 N 536.55 0.480323 -1.50102 0
M  V30 5429 C 537.775 1.26126 -1.64642 0
M  V30 5430 C 538.2 1.85257 -0.325823 0
M  V30 5431 O 537.558 1.66854 0.709194 0
M  V30 5432 C 537.606 2.35243 -2.73301 0
M  V30 5433 O 536.71 3.39646 -2.33911 0
M  V30 5434 H 536.051 0.371463 -0.550374 0
M  V30 5435 H 538.581 0.572696 -1.96421 0
M  V30 5436 H 538.591 2.80695 -2.96098 0
M  V30 5437 H 537.266 1.91574 -3.6915 0
M  V30 5438 H 535.843 2.99969 -2.21525 0
M  V30 5439 N 538.028 1.39524 0.732853 0
M  V30 5440 C 538.991 1.38189 1.82857 0
M  V30 5441 C 539.991 0.278624 1.58368 0
M  V30 5442 O 541.181 0.536639 1.65728 0
M  V30 5443 C 538.313 1.15661 3.2068 0
M  V30 5444 H 539.506 2.35692 1.85444 0
M  V30 5445 H 537.059 1.2512 0.936728 0
M  V30 5446 H 537.794 0.188482 3.23752 0
M  V30 5447 H 537.579 1.95559 3.39852 0
M  V30 5448 H 539.069 1.17472 4.00737 0
M  V30 5449 N 539.506 -0.963266 1.24736 0
M  V30 5450 C 540.416 -2.09246 1.06082 0
M  V30 5451 C 541.432 -1.74 0.000363101 0
M  V30 5452 O 542.608 -2.0041 0.199479 0
M  V30 5453 C 539.673 -3.40115 0.672498 0
M  V30 5454 C 538.734 -3.89282 1.80993 0
M  V30 5455 C 537.967 -5.13905 1.44004 0
M  V30 5456 O 538.19 -5.69434 0.331835 0
M  V30 5457 O 537.124 -5.57566 2.26723 0
M  V30 5458 H 540.95 -2.27881 2.00759 0
M  V30 5459 H 538.535 -1.07649 1.03595 0
M  V30 5460 H 540.417 -4.18797 0.467668 0
M  V30 5461 H 539.092 -3.22771 -0.245102 0
M  V30 5462 H 537.999 -3.11642 2.06955 0
M  V30 5463 H 539.332 -4.1111 2.70646 0
M  V30 5464 N 540.985 -1.06182 -1.16461 0
M  V30 5465 C 542.233 -0.776326 -1.86595 0
M  V30 5466 C 542.554 0.69921 -1.82033 0
M  V30 5467 O 541.824 1.50579 -1.2531 0
M  V30 5468 H 540.404 -0.284184 -0.690832 0
M  V30 5469 H 543.066 -1.34308 -1.41235 0
M  V30 5470 H 542.162 -1.10022 -2.92064 0
M  V30 5471 N 542.463 1.3308 -0.844243 0
M  V30 5472 C 543.711 1.97215 -0.441676 0
M  V30 5473 C 544.032 1.67185 1.0037 0
M  V30 5474 O 543.302 0.973588 1.69994 0
M  V30 5475 H 541.882 0.72959 -0.160335 0
M  V30 5476 H 544.544 1.62348 -1.07838 0
M  V30 5477 H 543.64 3.06698 -0.57815 0
M  V30 5478 N 543.941 0.601185 1.45683 0
M  V30 5479 C 545.218 0.0261659 1.95582 0
M  V30 5480 C 545.598 -1.4399 1.5437 0
M  V30 5481 O 544.946 -2.13919 0.80318 0
M  V30 5482 C 545.156 0.217557 3.48321 0
M  V30 5483 C 546.504 0.0950076 4.24494 0
M  V30 5484 O 547.528 0.147345 3.55895 0
M  V30 5485 O 546.387 -0.025261 5.46494 0
M  V30 5486 H 543.481 -0.0393688 0.826062 0
M  V30 5487 H 546.027 0.670798 1.55879 0
M  V30 5488 H 544.799 1.23601 3.71266 0
M  V30 5489 H 544.422 -0.46264 3.94899 0
M  V30 5490 N 545.419 -1.53889 0.339982 0
M  V30 5491 C 546.382 -2.23547 -0.50592 0
M  V30 5492 C 547.382 -1.23445 -1.03044 0
M  V30 5493 O 548.572 -1.47909 -0.920253 0
M  V30 5494 C 545.704 -2.95234 -1.7044 0
M  V30 5495 H 546.897 -2.99722 0.103247 0
M  V30 5496 H 544.45 -1.56033 0.0912804 0
M  V30 5497 H 545.185 -2.23236 -2.35236 0
M  V30 5498 H 544.97 -3.68654 -1.33553 0
M  V30 5499 H 546.46 -3.48258 -2.30447 0
M  V30 5500 N 546.897 -0.0685191 -1.57451 0
M  V30 5501 C 548.174 0.642167 -1.84758 0
M  V30 5502 C 548.554 1.87991 -0.960344 0
M  V30 5503 O 547.902 2.28485 -0.0257894 0
M  V30 5504 C 548.112 0.982946 -3.34872 0
M  V30 5505 C 549.46 1.35784 -4.02303 0
M  V30 5506 O 550.484 1.07477 -3.39598 0
M  V30 5507 O 549.343 1.88681 -5.12895 0
M  V30 5508 H 546.437 0.318625 -0.763156 0
M  V30 5509 H 548.983 -0.0992015 -1.6941 0
M  V30 5510 H 547.755 0.10372 -3.91163 0
M  V30 5511 H 547.378 1.78119 -3.55471 0
M  V30 5512 N 548.375 1.56261 0.205012 0
M  V30 5513 C 549.652 1.70856 0.952233 0
M  V30 5514 C 550.032 0.620501 2.01775 0
M  V30 5515 O 549.38 -0.370035 2.25484 0
M  V30 5516 C 549.59 3.12807 1.54767 0
M  V30 5517 C 550.938 3.72733 2.0336 0
M  V30 5518 O 551.962 3.15873 1.64629 0
M  V30 5519 O 550.821 4.72501 2.746 0
M  V30 5520 H 547.915 0.696496 0.445895 0
M  V30 5521 H 550.461 1.6857 0.195489 0
M  V30 5522 H 549.233 3.83465 0.779132 0
M  V30 5523 H 548.856 3.1928 2.36951 0
M  V30 5524 N 549.853 -0.472356 1.50355 0
M  V30 5525 C 551.269 -0.806001 1.37753 0
M  V30 5526 C 551.469 -1.968 0.432649 0
M  V30 5527 O 550.525 -2.52189 -0.12519 0
M  V30 5528 C 551.838 -1.11926 2.79093 0
M  V30 5529 C 553.386 -1.22579 2.87999 0
M  V30 5530 C 553.861 -1.57218 4.3017 0
M  V30 5531 N 555.352 -1.64212 4.33115 0
M  V30 5532 C 556.087 -1.92517 5.40116 0
M  V30 5533 N 555.583 -2.1885 6.57325 0
M  V30 5534 N 557.376 -1.94008 5.27558 0
M  V30 5535 H 549.527 0.293451 2.10363 0
M  V30 5536 H 551.79 0.0687672 0.945503 0
M  V30 5537 H 551.496 -0.338504 3.50067 0
M  V30 5538 H 551.37 -2.05577 3.16256 0
M  V30 5539 H 553.757 -1.99722 2.17245 0
M  V30 5540 H 553.838 -0.269107 2.54381 0
M  V30 5541 H 553.482 -0.806154 5.01461 0
M  V30 5542 H 553.412 -2.54034 4.61275 0
M  V30 5543 H 555.903 -1.45906 3.48597 0
M  V30 5544 H 556.216 -2.39718 7.3468 0
M  V30 5545 H 554.561 -2.16245 6.60502 0
M  V30 5546 H 557.752 -1.72931 4.34986 0
M  V30 5547 H 557.925 -2.15731 6.11035 0
M  V30 5548 N 551.331 -1.39911 -0.725443 0
M  V30 5549 C 552.278 -1.39393 -1.83952 0
M  V30 5550 C 553.248 -0.252249 -1.64173 0
M  V30 5551 O 554.433 -0.44882 -1.85446 0
M  V30 5552 C 551.573 -1.25262 -3.21564 0
M  V30 5553 C 550.686 -2.49054 -3.52982 0
M  V30 5554 C 549.821 -2.27439 -4.80047 0
M  V30 5555 C 548.86 -3.46857 -5.04338 0
M  V30 5556 N 547.997 -3.24499 -6.22611 0
M  V30 5557 H 552.837 -2.34622 -1.83729 0
M  V30 5558 H 550.374 -1.16537 -0.897636 0
M  V30 5559 H 552.332 -1.15077 -4.01015 0
M  V30 5560 H 550.962 -0.33657 -3.21041 0
M  V30 5561 H 550.014 -2.69805 -2.6816 0
M  V30 5562 H 551.326 -3.37973 -3.66846 0
M  V30 5563 H 550.48 -2.14551 -5.67497 0
M  V30 5564 H 549.219 -1.35929 -4.68374 0
M  V30 5565 H 548.224 -3.60232 -4.15346 0
M  V30 5566 H 549.449 -4.3928 -5.17889 0
M  V30 5567 H 547.395 -2.35663 -6.12208 0
M  V30 5568 H 547.312 -4.06978 -6.37106 0
M  V30 5569 H 548.58 -3.15325 -7.12875 0
M  V30 5570 N 552.809 0.956637 -1.25245 0
M  V30 5571 C 553.756 2.053 -1.05454 0
M  V30 5572 C 554.726 1.66062 0.0356889 0
M  V30 5573 O 555.911 1.90415 -0.121099 0
M  V30 5574 C 553.051 3.38391 -0.677191 0
M  V30 5575 C 552.164 3.90758 -1.84206 0
M  V30 5576 C 551.299 5.12165 -1.40926 0
M  V30 5577 C 550.338 5.56757 -2.54338 0
M  V30 5578 N 549.475 6.69376 -2.11848 0
M  V30 5579 H 554.315 2.21562 -1.99284 0
M  V30 5580 H 551.852 1.08578 -0.992434 0
M  V30 5581 H 553.81 4.1488 -0.43938 0
M  V30 5582 H 552.44 3.22021 0.224127 0
M  V30 5583 H 551.492 3.10808 -2.19323 0
M  V30 5584 H 552.804 4.19802 -2.69383 0
M  V30 5585 H 551.958 5.96065 -1.13098 0
M  V30 5586 H 550.697 4.84832 -0.528175 0
M  V30 5587 H 549.702 4.71423 -2.82913 0
M  V30 5588 H 550.927 5.861 -3.43022 0
M  V30 5589 H 548.873 6.43756 -1.26153 0
M  V30 5590 H 548.79 6.97927 -2.90574 0
M  V30 5591 H 550.058 7.5669 -1.87191 0
M  V30 5592 N 554.287 1.06798 1.15896 0
M  V30 5593 C 555.25 0.687328 2.18651 0
M  V30 5594 C 556.25 -0.269559 1.58524 0
M  V30 5595 O 557.44 -0.0512627 1.74125 0
M  V30 5596 C 554.572 0.0121642 3.40898 0
M  V30 5597 H 555.765 1.59701 2.53842 0
M  V30 5598 H 553.318 0.863828 1.3026 0
M  V30 5599 H 554.053 -0.910025 3.1127 0
M  V30 5600 H 553.838 0.700309 3.85795 0
M  V30 5601 H 555.328 -0.239703 4.16911 0
M  V30 5602 N 555.766 -1.3263 0.851289 0
M  V30 5603 C 556.991 -2.02097 0.466006 0
M  V30 5604 C 557.416 -1.63574 -0.928709 0
M  V30 5605 O 556.774 -0.834665 -1.60944 0
M  V30 5606 C 556.822 -3.55425 0.608737 0
M  V30 5607 O 555.926 -4.10827 -0.359878 0
M  V30 5608 H 555.267 -0.636911 0.187724 0
M  V30 5609 H 557.797 -1.69253 1.14955 0
M  V30 5610 H 557.807 -4.04986 0.495006 0
M  V30 5611 H 556.482 -3.82806 1.62581 0
M  V30 5612 H 555.059 -3.72349 -0.202666 0
M  V30 5613 N 557.244 -0.608902 -1.45362 0
M  V30 5614 C 558.177 0.158059 -2.27652 0
M  V30 5615 C 559.155 0.872397 -1.37215 0
M  V30 5616 O 560.339 0.881002 -1.66645 0
M  V30 5617 C 557.466 1.22896 -3.15617 0
M  V30 5618 C 556.512 0.617607 -4.22005 0
M  V30 5619 S 557.345 -0.575518 -5.32398 0
M  V30 5620 C 558.501 0.495938 -6.23932 0
M  V30 5621 H 558.734 -0.540095 -2.92353 0
M  V30 5622 H 556.267 -0.396456 -1.49223 0
M  V30 5623 H 558.225 1.84195 -3.66855 0
M  V30 5624 H 556.886 1.89919 -2.50179 0
M  V30 5625 H 556.079 1.42341 -4.83482 0
M  V30 5626 H 555.681 0.0797273 -3.73915 0
M  V30 5627 H 557.973 1.37465 -6.63408 0
M  V30 5628 H 558.916 -0.0827108 -7.08052 0
M  V30 5629 H 559.324 0.811856 -5.58631 0
M  V30 5630 N 558.722 1.53707 -0.348139 0
M  V30 5631 C 559.672 2.2193 0.522592 0
M  V30 5632 C 560.656 1.20831 1.06248 0
M  V30 5633 O 561.848 1.46357 0.995415 0
M  V30 5634 C 558.977 2.99904 1.6707 0
M  V30 5635 C 558.063 4.08364 1.14454 0
M  V30 5636 N 558.454 5.04656 0.339958 0
M  V30 5637 C 556.752 4.22757 1.421 0
M  V30 5638 C 557.453 5.81675 0.0538806 0
M  V30 5639 N 556.429 5.39739 0.646776 0
M  V30 5640 H 560.231 2.93733 -0.099135 0
M  V30 5641 H 557.745 1.61656 -0.15524 0
M  V30 5642 H 559.742 3.47284 2.30651 0
M  V30 5643 H 558.402 2.29629 2.29566 0
M  V30 5644 H 559.413 5.17896 -0.0193552 0
M  V30 5645 H 556.09 3.63704 2.05002 0
M  V30 5646 H 557.48 6.69256 -0.595443 0
M  V30 5647 N 560.2 0.0768682 1.57412 0
M  V30 5648 C 561.147 -0.888577 2.13009 0
M  V30 5649 C 562.117 -1.29198 1.0439 0
M  V30 5650 O 563.302 -1.37694 1.3208 0
M  V30 5651 C 560.442 -2.14899 2.70023 0
M  V30 5652 C 559.555 -1.79777 3.92816 0
M  V30 5653 C 558.69 -3.00467 4.38056 0
M  V30 5654 C 557.729 -2.61385 5.53484 0
M  V30 5655 N 556.866 -3.74851 5.93659 0
M  V30 5656 H 561.706 -0.407593 2.95199 0
M  V30 5657 H 559.243 -0.189534 1.45874 0
M  V30 5658 H 561.201 -2.88688 3.0119 0
M  V30 5659 H 559.831 -2.60529 1.9059 0
M  V30 5660 H 558.883 -0.960301 3.68079 0
M  V30 5661 H 560.195 -1.47027 4.76639 0
M  V30 5662 H 559.349 -3.82529 4.7091 0
M  V30 5663 H 558.088 -3.36413 3.53097 0
M  V30 5664 H 557.093 -1.77746 5.20275 0
M  V30 5665 H 558.318 -2.26603 6.40178 0
M  V30 5666 H 556.264 -4.1055 5.11649 0
M  V30 5667 H 556.181 -3.45887 6.72234 0
M  V30 5668 H 557.449 -4.57477 6.31138 0
M  V30 5669 N 561.678 -1.56367 -0.196722 0
M  V30 5670 C 562.625 -1.94417 -1.24382 0
M  V30 5671 C 563.595 -0.804543 -1.45315 0
M  V30 5672 O 564.78 -1.06256 -1.58475 0
M  V30 5673 C 561.92 -2.28757 -2.58388 0
M  V30 5674 C 561.033 -3.55775 -2.45047 0
M  V30 5675 C 560.168 -3.79445 -3.71746 0
M  V30 5676 C 559.207 -4.99894 -3.53231 0
M  V30 5677 N 558.344 -5.19826 -4.71938 0
M  V30 5678 H 563.184 -2.83691 -0.912338 0
M  V30 5679 H 560.721 -1.40392 -0.439135 0
M  V30 5680 H 562.679 -2.46682 -3.36457 0
M  V30 5681 H 561.309 -1.42625 -2.89582 0
M  V30 5682 H 560.361 -3.45905 -1.58284 0
M  V30 5683 H 561.673 -4.44 -2.27299 0
M  V30 5684 H 560.827 -3.97601 -4.58256 0
M  V30 5685 H 559.566 -2.89546 -3.92446 0
M  V30 5686 H 558.571 -4.81662 -2.65107 0
M  V30 5687 H 559.796 -5.913 -3.33978 0
M  V30 5688 H 557.742 -4.32875 -4.92905 0
M  V30 5689 H 557.659 -6.02228 -4.57009 0
M  V30 5690 H 558.927 -5.42439 -5.59803 0
M  V30 5691 N 563.156 0.464375 -1.50603 0
M  V30 5692 C 564.066 1.58723 -1.72754 0
M  V30 5693 C 565.082 1.62925 -0.610844 0
M  V30 5694 O 566.258 1.8067 -0.889963 0
M  V30 5695 C 563.323 2.94897 -1.82309 0
M  V30 5696 C 562.384 3.0103 -3.06071 0
M  V30 5697 C 561.617 4.30708 -3.1516 0
M  V30 5698 O 561.84 5.2159 -2.30868 0
M  V30 5699 O 560.774 4.42571 -4.0794 0
M  V30 5700 H 564.6 1.42954 -2.67951 0
M  V30 5701 H 562.185 0.644579 -1.3478 0
M  V30 5702 H 564.067 3.75764 -1.90735 0
M  V30 5703 H 562.742 3.10851 -0.902967 0
M  V30 5704 H 561.649 2.19217 -3.03142 0
M  V30 5705 H 562.982 2.90014 -3.97684 0
M  V30 5706 N 564.634 1.40294 0.718013 0
M  V30 5707 C 565.581 1.40367 1.8321 0
M  V30 5708 C 566.551 0.260952 1.64037 0
M  V30 5709 O 567.736 0.458648 1.85205 0
M  V30 5710 C 564.876 1.26965 3.20895 0
M  V30 5711 C 563.989 2.50922 3.51656 0
M  V30 5712 C 563.124 2.29981 4.78834 0
M  V30 5713 C 562.163 3.49527 5.02491 0
M  V30 5714 N 561.3 3.27796 6.20882 0
M  V30 5715 H 566.14 2.35593 1.82482 0
M  V30 5716 H 563.677 1.17012 0.891444 0
M  V30 5717 H 565.635 1.17202 4.00399 0
M  V30 5718 H 564.265 0.353591 3.20858 0
M  V30 5719 H 563.317 2.71223 2.66725 0
M  V30 5720 H 564.629 3.39913 3.65048 0
M  V30 5721 H 563.783 2.17558 5.66351 0
M  V30 5722 H 562.522 1.38411 4.67647 0
M  V30 5723 H 561.527 3.6243 4.1343 0
M  V30 5724 H 562.752 4.42021 5.15553 0
M  V30 5725 H 560.698 2.38906 6.1095 0
M  V30 5726 H 560.615 4.10351 6.34939 0
M  V30 5727 H 561.883 3.19101 7.11193 0
M  V30 5728 N 566.112 -0.949982 1.2575 0
M  V30 5729 C 567.337 -1.73503 1.13628 0
M  V30 5730 C 567.762 -1.85601 -0.30559 0
M  V30 5731 O 567.12 -1.33984 -1.22139 0
M  V30 5732 C 567.168 -3.1243 1.80055 0
M  V30 5733 O 566.272 -3.97916 1.08336 0
M  V30 5734 H 565.613 -0.532665 0.396439 0
M  V30 5735 H 568.143 -1.19043 1.66403 0
M  V30 5736 H 568.153 -3.62866 1.86527 0
M  V30 5737 H 566.828 -3.02941 2.84956 0
M  V30 5738 H 565.405 -3.56375 1.09777 0
M  V30 5739 N 567.59 -1.07411 -1.15328 0
M  V30 5740 C 568.836 -0.798831 -1.86404 0
M  V30 5741 C 569.169 0.673433 -1.8215 0
M  V30 5742 O 568.444 1.49428 -1.24505 0
M  V30 5743 C 568.727 -1.30846 -3.35487 0
M  V30 5744 C 568.58 -2.84532 -3.4837 0
M  V30 5745 C 569.899 -0.925486 -4.30259 0
M  V30 5746 H 567.018 -0.291659 -0.676834 0
M  V30 5747 H 569.66 -1.332 -1.35491 0
M  V30 5748 H 567.81 -0.854916 -3.78977 0
M  V30 5749 H 569.482 -3.3818 -3.13739 0
M  V30 5750 H 567.725 -3.22699 -2.8991 0
M  V30 5751 H 568.396 -3.15259 -4.53118 0
M  V30 5752 H 570.872 -1.3163 -3.94731 0
M  V30 5753 H 569.748 -1.3094 -5.33053 0
M  V30 5754 H 570.009 0.168525 -4.41779 0
M  V30 5755 N 569.068 1.32177 -0.85831 0
M  V30 5756 C 569.998 2.31282 -0.321041 0
M  V30 5757 C 570.979 1.59841 0.581786 0
M  V30 5758 O 572.164 1.87619 0.501262 0
M  V30 5759 C 569.294 3.4385 0.48832 0
M  V30 5760 C 568.248 4.26799 -0.320391 0
M  V30 5761 C 567.574 5.31164 0.613934 0
M  V30 5762 C 568.874 4.98829 -1.54813 0
M  V30 5763 H 570.568 2.76469 -1.14915 0
M  V30 5764 H 568.114 1.32916 -0.554028 0
M  V30 5765 H 570.067 4.12224 0.874626 0
M  V30 5766 H 568.791 2.97401 1.34983 0
M  V30 5767 H 567.45 3.60077 -0.688497 0
M  V30 5768 H 567.098 4.80967 1.47239 0
M  V30 5769 H 566.798 5.8755 0.0768097 0
M  V30 5770 H 568.322 6.024 0.997336 0
M  V30 5771 H 569.736 5.59864 -1.23392 0
M  V30 5772 H 568.133 5.64957 -2.02346 0
M  V30 5773 H 569.203 4.26483 -2.30739 0
M  V30 5774 N 570.547 0.616602 1.45037 0
M  V30 5775 C 571.479 -0.135186 2.28801 0
M  V30 5776 C 572.492 -0.82303 1.40464 0
M  V30 5777 O 573.681 -0.686909 1.64754 0
M  V30 5778 C 570.781 -1.21292 3.16451 0
M  V30 5779 C 569.954 -0.61043 4.3312 0
M  V30 5780 C 569.013 -1.58022 5.01912 0
M  V30 5781 O 568.039 -1.10301 5.58411 0
M  V30 5782 N 569.241 -2.91464 5.02025 0
M  V30 5783 H 572.006 0.583612 2.93963 0
M  V30 5784 H 569.567 0.456723 1.55324 0
M  V30 5785 H 571.559 -1.86169 3.59337 0
M  V30 5786 H 570.129 -1.83412 2.53138 0
M  V30 5787 H 569.349 0.216638 3.93604 0
M  V30 5788 H 570.637 -0.188293 5.08451 0
M  V30 5789 H 570.035 -3.32829 4.57429 0
M  V30 5790 H 568.592 -3.51741 5.48745 0
M  V30 5791 N 572.025 -1.5352 0.356285 0
M  V30 5792 C 573.273 -2.00719 -0.235837 0
M  V30 5793 C 573.594 -1.24551 -1.5004 0
M  V30 5794 O 572.864 -0.356185 -1.92635 0
M  V30 5795 H 571.444 -0.741542 -0.0901366 0
M  V30 5796 H 574.106 -1.88887 0.480378 0
M  V30 5797 H 573.202 -3.08551 -0.469357 0
M  V30 5798 N 573.503 -0.0852151 -1.57369 0
M  V30 5799 C 574.45 0.877268 -2.13478 0
M  V30 5800 C 575.42 1.28642 -1.05073 0
M  V30 5801 O 576.605 1.36992 -1.32808 0
M  V30 5802 C 573.745 2.13464 -2.71159 0
M  V30 5803 C 572.858 1.77691 -3.93764 0
M  V30 5804 C 571.993 2.98139 -4.39643 0
M  V30 5805 C 571.032 2.58447 -5.54862 0
M  V30 5806 N 570.169 3.71698 -5.95639 0
M  V30 5807 H 575.009 0.391933 -2.95411 0
M  V30 5808 H 572.546 0.181796 -1.45972 0
M  V30 5809 H 574.504 2.87086 -3.02717 0
M  V30 5810 H 573.134 2.59514 -1.91969 0
M  V30 5811 H 572.186 0.940768 -3.68583 0
M  V30 5812 H 573.498 1.44497 -4.77412 0
M  V30 5813 H 572.652 3.80026 -4.72933 0
M  V30 5814 H 571.391 3.34536 -3.54876 0
M  V30 5815 H 570.396 1.74984 -5.21211 0
M  V30 5816 H 571.621 2.23205 -6.41371 0
M  V30 5817 H 569.567 4.07831 -5.13819 0
M  V30 5818 H 569.484 3.42317 -6.74059 0
M  V30 5819 H 570.752 4.54123 -6.33555 0
M  V30 5820 N 574.981 1.5647 0.188427 0
M  V30 5821 C 575.911 1.98101 1.23606 0
M  V30 5822 C 576.892 0.853961 1.47111 0
M  V30 5823 O 578.077 1.11879 1.58735 0
M  V30 5824 C 575.207 2.32624 2.57882 0
M  V30 5825 C 574.161 3.48129 2.48978 0
M  V30 5826 C 573.487 3.68347 3.87588 0
M  V30 5827 C 574.787 4.82112 2.00911 0
M  V30 5828 H 576.481 2.85864 0.890068 0
M  V30 5829 H 574.027 1.37532 0.426714 0
M  V30 5830 H 575.98 2.60343 3.3136 0
M  V30 5831 H 574.704 1.41751 2.94235 0
M  V30 5832 H 573.363 3.20511 1.77956 0
M  V30 5833 H 573.011 2.74793 4.21305 0
M  V30 5834 H 572.711 4.46055 3.82503 0
M  V30 5835 H 574.235 3.98449 4.62678 0
M  V30 5836 H 575.649 5.08819 2.64151 0
M  V30 5837 H 574.046 5.63337 2.06814 0
M  V30 5838 H 575.116 4.75249 0.96262 0
M  V30 5839 N 576.459 -0.456382 1.50847 0
M  V30 5840 C 577.687 -1.23026 1.66349 0
M  V30 5841 C 578.102 -1.85473 0.352868 0
M  V30 5842 O 577.459 -1.69885 -0.666739 0
M  V30 5843 C 577.51 -2.32827 2.76539 0
M  V30 5844 O 577.231 -1.72938 4.02522 0
M  V30 5845 C 578.732 -3.23448 3.03144 0
M  V30 5846 H 575.952 -0.371527 0.558756 0
M  V30 5847 H 578.496 -0.543082 1.97157 0
M  V30 5848 H 576.651 -2.97294 2.48384 0
M  V30 5849 H 577.065 -2.45357 4.63573 0
M  V30 5850 H 578.539 -3.96669 3.83872 0
M  V30 5851 H 579.016 -3.83094 2.14793 0
M  V30 5852 H 579.622 -2.64702 3.32886 0
M  V30 5853 N 577.937 -1.40673 -0.710563 0
M  V30 5854 C 578.884 -1.41336 -1.82463 0
M  V30 5855 C 579.854 -0.269648 -1.63897 0
M  V30 5856 O 581.039 -0.468463 -1.8496 0
M  V30 5857 C 578.179 -1.28665 -3.20218 0
M  V30 5858 C 577.292 -2.52784 -3.5032 0
M  V30 5859 C 576.427 -2.32517 -4.77608 0
M  V30 5860 C 575.466 -3.52187 -5.0063 0
M  V30 5861 N 574.603 -3.31084 -6.19135 0
M  V30 5862 H 579.443 -2.36558 -1.8123 0
M  V30 5863 H 576.98 -1.17483 -0.885226 0
M  V30 5864 H 578.938 -1.19324 -3.99772 0
M  V30 5865 H 577.568 -0.370602 -3.20666 0
M  V30 5866 H 576.62 -2.72634 -2.65283 0
M  V30 5867 H 577.932 -3.41845 -3.63241 0
M  V30 5868 H 577.086 -2.20558 -5.65189 0
M  V30 5869 H 575.825 -1.40889 -4.66906 0
M  V30 5870 H 574.83 -3.64617 -4.11502 0
M  V30 5871 H 576.055 -4.44749 -5.13201 0
M  V30 5872 H 574.001 -2.42143 -6.09674 0
M  V30 5873 H 573.918 -4.13713 -6.32754 0
M  V30 5874 H 575.186 -3.22868 -7.0949 0
M  V30 5875 N 579.415 0.9433 -1.26252 0
M  V30 5876 C 580.345 2.05902 -1.10122 0
M  V30 5877 C 581.326 1.70099 -0.00700552 0
M  V30 5878 O 582.511 1.93377 -0.178641 0
M  V30 5879 C 579.641 3.39516 -0.731175 0
M  V30 5880 C 578.595 3.89372 -1.77688 0
M  V30 5881 C 577.921 5.19613 -1.26122 0
M  V30 5882 C 579.221 4.14489 -3.17799 0
M  V30 5883 H 580.915 2.19655 -2.03451 0
M  V30 5884 H 578.461 1.05548 -0.979576 0
M  V30 5885 H 580.414 4.17031 -0.605215 0
M  V30 5886 H 579.138 3.25733 0.23782 0
M  V30 5887 H 577.797 3.14036 -1.89148 0
M  V30 5888 H 577.445 5.02208 -0.282128 0
M  V30 5889 H 577.145 5.53939 -1.96023 0
M  V30 5890 H 578.669 5.99713 -1.14789 0
M  V30 5891 H 580.083 4.82625 -3.09428 0
M  V30 5892 H 578.48 4.60094 -3.85271 0
M  V30 5893 H 579.55 3.20347 -3.64014 0
M  V30 5894 N 580.893 1.08022 1.14757 0
M  V30 5895 C 581.856 0.71048 2.1791 0
M  V30 5896 C 582.856 -0.252731 1.58801 0
M  V30 5897 O 584.046 -0.0327915 1.74169 0
M  V30 5898 C 581.178 0.0483203 3.40866 0
M  V30 5899 H 582.371 1.62384 2.52134 0
M  V30 5900 H 579.924 0.877595 1.29337 0
M  V30 5901 H 580.659 -0.876959 3.12218 0
M  V30 5902 H 580.444 0.741189 3.85031 0
M  V30 5903 H 581.934 -0.195471 4.17142 0
M  V30 5904 N 582.371 -1.3172 0.865308 0
M  V30 5905 C 583.617 -1.97168 0.474633 0
M  V30 5906 C 583.95 -1.68263 -0.969604 0
M  V30 5907 O 583.225 -0.976588 -1.68205 0
M  V30 5908 C 583.508 -3.52689 0.726808 0
M  V30 5909 C 583.361 -3.91185 2.22024 0
M  V30 5910 C 584.68 -4.39689 0.190201 0
M  V30 5911 H 581.799 -0.716185 0.17392 0
M  V30 5912 H 584.441 -1.55925 1.08569 0
M  V30 5913 H 582.591 -3.8795 0.206705 0
M  V30 5914 H 584.263 -3.66049 2.80724 0
M  V30 5915 H 582.506 -3.3996 2.69462 0
M  V30 5916 H 583.177 -4.99604 2.34735 0
M  V30 5917 H 585.653 -4.11225 0.635103 0
M  V30 5918 H 584.529 -5.47469 0.396132 0
M  V30 5919 H 584.79 -4.32683 -0.907625 0
M  V30 5920 N 583.85 -0.624285 -1.44708 0
M  V30 5921 C 584.782 0.12305 -2.28869 0
M  V30 5922 C 585.795 0.81557 -1.40898 0
M  V30 5923 O 586.984 0.678162 -1.65116 0
M  V30 5924 C 584.084 1.19612 -3.1709 0
M  V30 5925 C 583.257 0.587452 -4.33437 0
M  V30 5926 C 582.316 1.55358 -5.02743 0
M  V30 5927 O 581.341 1.07338 -5.58988 0
M  V30 5928 N 582.543 2.88798 -5.03563 0
M  V30 5929 H 585.308 -0.599193 -2.93649 0
M  V30 5930 H 582.87 -0.464954 -1.5508 0
M  V30 5931 H 584.861 1.84261 -3.60319 0
M  V30 5932 H 583.432 1.82067 -2.54107 0
M  V30 5933 H 582.652 -0.237509 -3.93484 0
M  V30 5934 H 583.94 0.161326 -5.08544 0
M  V30 5935 H 583.338 3.30399 -4.59188 0
M  V30 5936 H 581.894 3.48826 -5.50603 0
M  V30 5937 N 585.328 1.53329 -0.364422 0
M  V30 5938 C 586.577 2.00421 0.226747 0
M  V30 5939 C 586.89 1.25581 1.49963 0
M  V30 5940 O 588.096 1.63256 2.16933 0
M  V30 5941 C 586.552 3.57017 0.454618 0
M  V30 5942 C 586.16 4.40734 -0.803568 0
M  V30 5943 C 587.904 4.12468 1.00351 0
M  V30 5944 C 585.811 5.8888 -0.545345 0
M  V30 5945 H 584.741 0.748787 0.0885082 0
M  V30 5946 H 587.392 1.7703 -0.482983 0
M  V30 5947 H 585.774 3.76558 1.22558 0
M  V30 5948 H 586.948 4.32967 -1.57723 0
M  V30 5949 H 585.263 3.96381 -1.27559 0
M  V30 5950 H 587.86 5.20783 1.212 0
M  V30 5951 H 588.203 3.6699 1.9653 0
M  V30 5952 H 588.736 3.96721 0.29274 0
M  V30 5953 H 585.475 6.38633 -1.47743 0
M  V30 5954 H 584.995 5.99499 0.189842 0
M  V30 5955 H 586.674 6.46776 -0.170425 0
M  V30 5956 N 586.806 0.0935595 1.57322 0
M  V30 5957 C 588.054 -0.569383 1.93913 0
M  V30 5958 C 588.375 -1.68817 0.976009 0
M  V30 5959 O 587.645 -1.9588 0.0278099 0
M  V30 5960 H 586.225 -0.21332 0.715894 0
M  V30 5961 H 588.887 0.156531 1.9427 0
M  V30 5962 H 587.983 -0.980577 2.96296 0
M  V30 5963 N 588.284 -1.56567 -0.180126 0
M  V30 5964 C 589.231 -1.95725 -1.22313 0
M  V30 5965 C 590.201 -0.819911 -1.44453 0
M  V30 5966 O 591.386 -1.07931 -1.57339 0
M  V30 5967 C 588.526 -2.31484 -2.55947 0
M  V30 5968 C 587.639 -3.58354 -2.4126 0
M  V30 5969 C 586.774 -3.83366 -3.67701 0
M  V30 5970 C 585.813 -5.03612 -3.47909 0
M  V30 5971 N 584.95 -5.24802 -4.66398 0
M  V30 5972 H 589.79 -2.84642 -0.882198 0
M  V30 5973 H 587.327 -1.4085 -0.42422 0
M  V30 5974 H 589.285 -2.50237 -3.33822 0
M  V30 5975 H 587.915 -1.45689 -2.88053 0
M  V30 5976 H 586.967 -3.47565 -1.54606 0
M  V30 5977 H 588.279 -4.46386 -2.22577 0
M  V30 5978 H 587.433 -4.02439 -4.54013 0
M  V30 5979 H 586.172 -2.93692 -3.89353 0
M  V30 5980 H 585.177 -4.84447 -2.59983 0
M  V30 5981 H 586.402 -5.94809 -3.27688 0
M  V30 5982 H 584.348 -4.38079 -4.88286 0
M  V30 5983 H 584.265 -6.07041 -4.50596 0
M  V30 5984 H 585.533 -5.48346 -5.54019 0
M  V30 5985 N 589.762 0.448376 -1.51087 0
M  V30 5986 C 590.725 1.52588 -1.71025 0
M  V30 5987 C 591.725 1.49958 -0.580442 0
M  V30 5988 O 592.915 1.52176 -0.847833 0
M  V30 5989 C 590.047 2.92163 -1.75652 0
M  V30 5990 H 591.24 1.36218 -2.67179 0
M  V30 5991 H 588.793 0.676313 -1.4091 0
M  V30 5992 H 589.528 3.13951 -0.812724 0
M  V30 5993 H 589.313 2.95478 -2.57751 0
M  V30 5994 H 590.803 3.70349 -1.92953 0
M  V30 5995 N 591.24 1.41047 0.703093 0
M  V30 5996 C 592.488 1.39723 1.4602 0
M  V30 5997 C 592.809 0.00461257 1.94999 0
M  V30 5998 O 592.079 -0.952292 1.71196 0
M  V30 5999 H 590.659 0.514281 0.541779 0
M  V30 6000 H 593.321 1.76217 0.832678 0
M  V30 6001 H 592.417 2.07982 2.32701 0
M  V30 6002 N 592.718 -0.936591 1.26751 0
M  V30 6003 C 593.648 -2.05315 1.11212 0
M  V30 6004 C 594.629 -1.70092 0.0160262 0
M  V30 6005 O 595.814 -1.93279 0.188894 0
M  V30 6006 C 592.944 -3.39123 0.749171 0
M  V30 6007 C 591.898 -3.88425 1.79751 0
M  V30 6008 C 591.224 -5.18936 1.28876 0
M  V30 6009 C 592.524 -4.12798 3.19992 0
M  V30 6010 H 594.218 -2.18573 2.04613 0
M  V30 6011 H 591.764 -1.05027 0.985159 0
M  V30 6012 H 593.717 -4.16704 0.627323 0
M  V30 6013 H 592.441 -3.25855 -0.220543 0
M  V30 6014 H 591.1 -3.13028 1.90811 0
M  V30 6015 H 590.748 -5.02051 0.308757 0
M  V30 6016 H 590.448 -5.52892 1.98958 0
M  V30 6017 H 591.972 -5.99096 1.17967 0
M  V30 6018 H 593.386 -4.80977 3.11983 0
M  V30 6019 H 591.783 -4.58044 3.87705 0
M  V30 6020 H 592.853 -3.18412 3.65707 0
M  V30 6021 N 594.196 -1.08629 -1.14182 0
M  V30 6022 C 595.442 -0.818556 -1.85546 0
M  V30 6023 C 595.775 0.654076 -1.82854 0
M  V30 6024 O 595.05 1.48099 -1.26083 0
M  V30 6025 C 595.333 -1.34397 -3.3408 0
M  V30 6026 C 595.186 -2.8821 -3.45333 0
M  V30 6027 C 596.505 -0.971069 -4.29253 0
M  V30 6028 H 593.624 -0.298821 -0.673702 0
M  V30 6029 H 596.266 -1.34629 -1.34071 0
M  V30 6030 H 594.416 -0.895064 -3.78049 0
M  V30 6031 H 596.088 -3.41488 -3.10134 0
M  V30 6032 H 594.331 -3.25756 -2.86471 0
M  V30 6033 H 595.002 -3.20047 -4.49749 0
M  V30 6034 H 597.478 -1.35809 -3.93313 0
M  V30 6035 H 596.354 -1.36586 -5.31635 0
M  V30 6036 H 596.615 0.121659 -4.41933 0
M  V30 6037 N 595.674 1.31259 -0.872281 0
M  V30 6038 C 596.607 2.26544 -0.274394 0
M  V30 6039 C 597.585 1.51213 0.597776 0
M  V30 6040 O 598.769 1.80277 0.550687 0
M  V30 6041 C 595.896 3.33139 0.611256 0
M  V30 6042 C 594.942 4.26077 -0.189876 0
M  V30 6043 S 595.775 5.11971 -1.56989 0
M  V30 6044 C 596.931 6.2208 -0.690427 0
M  V30 6045 H 597.164 2.76908 -1.0821 0
M  V30 6046 H 594.697 1.3906 -0.670939 0
M  V30 6047 H 596.655 3.95024 1.11654 0
M  V30 6048 H 595.316 2.81525 1.39294 0
M  V30 6049 H 594.509 5.01657 0.485433 0
M  V30 6050 H 594.111 3.68701 -0.627339 0
M  V30 6051 H 596.403 6.77429 0.098001 0
M  V30 6052 H 597.346 6.93768 -1.41742 0
M  V30 6053 H 597.754 5.63915 -0.256953 0
M  V30 6054 N 597.152 0.631951 1.44375 0
M  V30 6055 C 598.377 0.142146 2.06912 0
M  V30 6056 C 598.802 -1.17456 1.4692 0
M  V30 6057 O 598.16 -1.72074 0.570975 0
M  V30 6058 C 598.208 0.0417952 3.60576 0
M  V30 6059 O 597.312 -1.00194 4.00044 0
M  V30 6060 H 596.653 0.0851491 0.658518 0
M  V30 6061 H 599.183 0.868863 1.85235 0
M  V30 6062 H 599.193 -0.148517 4.0773 0
M  V30 6063 H 597.868 1.0031 4.03622 0
M  V30 6064 H 596.445 -0.786131 3.64519 0
M  V30 6065 N 598.631 -1.53133 0.372548 0
M  V30 6066 C 599.594 -2.24569 -0.458389 0
M  V30 6067 C 600.594 -1.25603 -1.00402 0
M  V30 6068 O 601.784 -1.49827 -0.888672 0
M  V30 6069 C 598.916 -2.98783 -1.6414 0
M  V30 6070 H 600.109 -2.99436 0.166799 0
M  V30 6071 H 597.662 -1.55805 0.124357 0
M  V30 6072 H 598.397 -2.28176 -2.30448 0
M  V30 6073 H 598.182 -3.71404 -1.25704 0
M  V30 6074 H 599.672 -3.53068 -2.23008 0
M  V30 6075 N 600.109 -0.101901 -1.5727 0
M  V30 6076 C 601.358 0.559922 -1.93772 0
M  V30 6077 C 601.671 1.68913 -0.98629 0
M  V30 6078 O 602.877 2.41256 -1.24529 0
M  V30 6079 C 601.333 1.04739 -3.44322 0
M  V30 6080 C 600.941 -0.05243 -4.47969 0
M  V30 6081 C 602.685 1.68157 -3.89774 0
M  V30 6082 C 600.592 0.450781 -5.8968 0
M  V30 6083 H 599.522 0.212931 -0.723309 0
M  V30 6084 H 602.173 -0.179001 -1.82625 0
M  V30 6085 H 600.555 1.84021 -3.50645 0
M  V30 6086 H 601.729 -0.828157 -4.53297 0
M  V30 6087 H 600.044 -0.592202 -4.12167 0
M  V30 6088 H 602.641 2.0689 -4.93052 0
M  V30 6089 H 602.984 2.55338 -3.28798 0
M  V30 6090 H 603.517 0.954453 -3.8618 0
M  V30 6091 H 600.256 -0.38458 -6.54371 0
M  V30 6092 H 599.776 1.19336 -5.87809 0
M  V30 6093 H 601.455 0.917555 -6.40461 0
M  V30 6094 N 601.587 1.56661 0.17182 0
M  V30 6095 C 602.815 1.861 0.904115 0
M  V30 6096 C 603.23 0.687227 1.75848 0
M  V30 6097 O 602.587 -0.343671 1.79235 0
M  V30 6098 C 602.638 3.14568 1.78127 0
M  V30 6099 O 602.359 4.27422 0.961366 0
M  V30 6100 C 603.86 3.5735 2.62327 0
M  V30 6101 H 601.08 0.617445 0.262684 0
M  V30 6102 H 603.624 2.03775 0.172068 0
M  V30 6103 H 601.779 2.98721 2.46666 0
M  V30 6104 H 602.193 5.00725 1.56123 0
M  V30 6105 H 603.667 4.50144 3.1949 0
M  V30 6106 H 604.144 2.81445 3.37173 0
M  V30 6107 H 604.75 3.75807 1.99121 0
M  V30 6108 N 603.065 -0.440357 1.51323 0
M  V30 6109 C 604.311 -1.19181 1.64085 0
M  V30 6110 C 604.644 -1.90936 0.354575 0
M  V30 6111 O 603.919 -1.8347 -0.645675 0
M  V30 6112 C 604.202 -2.2112 2.84215 0
M  V30 6113 C 604.055 -1.53468 4.22809 0
M  V30 6114 C 605.374 -3.22133 2.99864 0
M  V30 6115 H 602.493 -0.431924 0.597169 0
M  V30 6116 H 605.135 -0.481443 1.83799 0
M  V30 6117 H 603.285 -2.81703 2.67537 0
M  V30 6118 H 604.957 -0.962455 4.51148 0
M  V30 6119 H 603.2 -0.837086 4.25647 0
M  V30 6120 H 603.871 -2.27694 5.02852 0
M  V30 6121 H 606.347 -2.71601 3.15233 0
M  V30 6122 H 605.223 -3.90756 3.85488 0
M  V30 6123 H 605.484 -3.88061 2.11804 0
M  V30 6124 N 604.543 -1.41418 -0.695603 0
M  V30 6125 C 605.792 -1.40073 -1.4513 0
M  V30 6126 C 606.105 -0.0130439 -1.95596 0
M  V30 6127 O 607.311 0.123032 -2.71221 0
M  V30 6128 C 605.767 -2.46286 -2.62433 0
M  V30 6129 C 605.375 -3.90962 -2.18753 0
M  V30 6130 C 607.119 -2.54077 -3.40066 0
M  V30 6131 C 605.026 -4.88728 -3.33015 0
M  V30 6132 H 603.956 -0.520903 -0.545138 0
M  V30 6133 H 606.607 -1.67242 -0.75515 0
M  V30 6134 H 604.989 -2.12248 -3.34315 0
M  V30 6135 H 606.163 -4.34248 -1.54161 0
M  V30 6136 H 604.478 -3.86831 -1.54114 0
M  V30 6137 H 607.075 -3.24303 -4.25125 0
M  V30 6138 H 607.418 -1.5776 -3.8525 0
M  V30 6139 H 607.951 -2.87206 -2.75241 0
M  V30 6140 H 604.69 -5.86449 -2.92844 0
M  V30 6141 H 604.21 -4.50091 -3.96457 0
M  V30 6142 H 605.889 -5.09483 -3.98793 0
M  V30 6143 N 606.021 0.929856 -1.27246 0
M  V30 6144 C 607.27 1.67182 -1.12842 0
M  V30 6145 C 607.583 1.9287 0.325666 0
M  V30 6146 O 608.789 2.64999 0.590572 0
M  V30 6147 C 607.245 3.01097 -1.97151 0
M  V30 6148 C 606.853 2.83115 -3.47203 0
M  V30 6149 C 608.597 3.78907 -1.91389 0
M  V30 6150 C 606.504 4.12573 -4.23719 0
M  V30 6151 H 605.434 0.627064 -0.418697 0
M  V30 6152 H 608.085 1.0332 -1.51649 0
M  V30 6153 H 606.467 3.66004 -1.51186 0
M  V30 6154 H 607.641 2.26989 -4.01015 0
M  V30 6155 H 605.956 2.18736 -3.54321 0
M  V30 6156 H 608.553 4.74837 -2.45834 0
M  V30 6157 H 608.896 4.0674 -0.887047 0
M  V30 6158 H 609.429 3.20794 -2.35237 0
M  V30 6159 H 606.168 3.8992 -5.26918 0
M  V30 6160 H 605.688 4.68371 -3.74685 0
M  V30 6161 H 607.367 4.8095 -4.32777 0
M  V30 6162 N 607.499 1.09233 1.13605 0
M  V30 6163 C 608.429 0.751738 2.21068 0
M  V30 6164 C 609.41 -0.269688 1.67948 0
M  V30 6165 O 610.595 -0.13819 1.93708 0
M  V30 6166 C 607.725 0.16935 3.46887 0
M  V30 6167 C 606.679 1.12007 4.13084 0
M  V30 6168 C 606.005 0.399483 5.33206 0
M  V30 6169 C 607.305 2.46168 4.6065 0
M  V30 6170 H 608.999 1.65024 2.49815 0
M  V30 6171 H 606.545 0.794905 1.20072 0
M  V30 6172 H 608.498 -0.0809824 4.21322 0
M  V30 6173 H 607.222 -0.764335 3.1753 0
M  V30 6174 H 605.881 1.35564 3.40614 0
M  V30 6175 H 605.529 -0.538277 5.00112 0
M  V30 6176 H 605.229 1.03337 5.78442 0
M  V30 6177 H 606.753 0.157403 6.10397 0
M  V30 6178 H 608.167 2.26829 5.26518 0
M  V30 6179 H 606.564 3.05326 5.1662 0
M  V30 6180 H 607.634 3.07076 3.75276 0
M  V30 6181 N 608.977 -1.30795 0.87923 0
M  V30 6182 C 610.223 -1.96653 0.495519 0
M  V30 6183 C 610.556 -1.69282 -0.951703 0
M  V30 6184 O 609.831 -0.994374 -1.6716 0
M  V30 6185 C 610.114 -3.51898 0.764174 0
M  V30 6186 C 609.967 -3.88808 2.2616 0
M  V30 6187 C 611.286 -4.39462 0.236825 0
M  V30 6188 H 608.405 -0.7143 0.181507 0
M  V30 6189 H 611.047 -1.54765 1.10217 0
M  V30 6190 H 609.197 -3.87709 0.247841 0
M  V30 6191 H 610.869 -3.63051 2.8459 0
M  V30 6192 H 609.112 -3.37082 2.73053 0
M  V30 6193 H 609.783 -4.97086 2.4002 0
M  V30 6194 H 612.259 -4.10528 0.678683 0
M  V30 6195 H 611.135 -5.47018 0.454176 0
M  V30 6196 H 611.396 -4.33621 -0.861683 0
M  V30 6197 N 610.455 -0.639598 -1.44038 0
M  V30 6198 C 611.385 0.0469443 -2.33453 0
M  V30 6199 C 612.366 0.82609 -1.48694 0
M  V30 6200 O 613.551 0.790285 -1.77393 0
M  V30 6201 C 610.681 1.02338 -3.3188 0
M  V30 6202 C 609.635 0.355284 -4.26523 0
M  V30 6203 C 608.961 1.44221 -5.14883 0
M  V30 6204 C 610.261 -0.743798 -5.16977 0
M  V30 6205 H 611.955 -0.699735 -2.91108 0
M  V30 6206 H 609.501 -0.337946 -1.39978 0
M  V30 6207 H 611.454 1.51247 -3.93322 0
M  V30 6208 H 610.178 1.80105 -2.72451 0
M  V30 6209 H 608.837 -0.113239 -3.66425 0
M  V30 6210 H 608.485 2.21097 -4.51802 0
M  V30 6211 H 608.185 1.00052 -5.79019 0
M  V30 6212 H 609.709 1.93295 -5.79197 0
M  V30 6213 H 611.123 -0.337444 -5.72306 0
M  V30 6214 H 609.52 -1.10914 -5.89761 0
M  V30 6215 H 610.59 -1.60745 -4.57481 0
M  V30 6216 N 611.933 1.52934 -0.380664 0
M  V30 6217 C 613.163 2.05587 0.204302 0
M  V30 6218 C 613.571 1.25288 1.41773 0
M  V30 6219 O 612.914 0.290394 1.8139 0
M  V30 6220 C 612.976 3.53624 0.647324 0
M  V30 6221 C 612.64 4.54765 -0.451465 0
M  V30 6222 C 613.637 5.03226 -1.30614 0
M  V30 6223 C 611.322 4.98508 -0.616025 0
M  V30 6224 C 613.316 5.94046 -2.31058 0
M  V30 6225 C 611.003 5.89131 -1.62381 0
M  V30 6226 C 612.001 6.36792 -2.46952 0
M  V30 6227 O 611.689 7.25626 -3.46009 0
M  V30 6228 H 611.421 0.675013 0.0365198 0
M  V30 6229 H 613.975 1.98125 -0.541827 0
M  V30 6230 H 612.205 3.58676 1.44529 0
M  V30 6231 H 613.894 3.89061 1.15698 0
M  V30 6232 H 614.66 4.70167 -1.19027 0
M  V30 6233 H 610.539 4.60989 0.0324987 0
M  V30 6234 H 614.083 6.3117 -2.97104 0
M  V30 6235 H 609.98 6.21603 -1.7401 0
M  V30 6236 H 610.748 7.43664 -3.41916 0
M  V30 6237 N 613.412 0.11024 1.57214 0
M  V30 6238 C 614.659 -0.54987 1.94891 0
M  V30 6239 C 614.987 -1.67243 0.992984 0
M  V30 6240 O 614.242 -1.95694 0.0152703 0
M  V30 6241 C 614.541 -1.13102 3.39032 0
M  V30 6242 C 614.207 -0.130713 4.5071 0
M  V30 6243 C 612.869 0.14437 4.80983 0
M  V30 6244 C 615.221 0.551472 5.18274 0
M  V30 6245 C 612.549 1.10807 5.76141 0
M  V30 6246 C 614.901 1.50375 6.14467 0
M  V30 6247 C 613.565 1.78691 6.43138 0
M  V30 6248 H 612.835 -0.201212 0.713158 0
M  V30 6249 H 615.482 0.189288 1.90562 0
M  V30 6250 H 613.787 -1.94675 3.40013 0
M  V30 6251 H 615.484 -1.64973 3.65493 0
M  V30 6252 H 612.074 -0.355301 4.27125 0
M  V30 6253 H 616.258 0.35211 4.95049 0
M  V30 6254 H 611.514 1.3343 5.96663 0
M  V30 6255 H 615.688 2.03808 6.65909 0
M  V30 6256 H 613.315 2.53522 7.1668 0
M  V30 6257 N 614.89 -1.56749 -0.16351 0
M  V30 6258 C 616.118 -1.86577 -0.894233 0
M  V30 6259 C 616.533 -0.696543 -1.75481 0
M  V30 6260 O 615.89 0.334161 -1.79415 0
M  V30 6261 C 615.941 -3.15508 -1.76456 0
M  V30 6262 O 615.662 -4.27926 -0.938685 0
M  V30 6263 C 617.163 -3.58737 -2.60428 0
M  V30 6264 H 614.383 -0.618829 -0.259405 0
M  V30 6265 H 616.927 -2.03863 -0.161259 0
M  V30 6266 H 615.082 -3.00025 -2.45079 0
M  V30 6267 H 615.496 -5.01546 -1.53465 0
M  V30 6268 H 616.97 -4.51832 -3.17099 0
M  V30 6269 H 617.447 -2.83229 -3.35675 0
M  V30 6270 H 618.053 -3.76858 -1.97125 0
M  V30 6271 N 616.368 0.432326 -1.51554 0
M  V30 6272 C 617.614 1.18309 -1.64714 0
M  V30 6273 C 617.947 1.90745 -0.364696 0
M  V30 6274 O 617.222 1.8381 0.635936 0
M  V30 6275 C 617.505 2.1961 -2.85383 0
M  V30 6276 C 617.358 1.51223 -4.23617 0
M  V30 6277 C 618.677 3.20538 -3.01569 0
M  V30 6278 H 615.796 0.428751 -0.599451 0
M  V30 6279 H 618.438 0.471689 -1.84052 0
M  V30 6280 H 616.588 2.8028 -2.69027 0
M  V30 6281 H 618.26 0.938516 -4.51652 0
M  V30 6282 H 616.503 0.814501 -4.26085 0
M  V30 6283 H 617.174 2.25024 -5.04052 0
M  V30 6284 H 619.65 2.69926 -3.16669 0
M  V30 6285 H 618.526 3.88706 -3.87555 0
M  V30 6286 H 618.787 3.86933 -2.13859 0
M  V30 6287 N 617.846 1.41785 0.688094 0
M  V30 6288 C 619.123 1.32031 1.44316 0
M  V30 6289 C 619.503 -0.0486079 2.11044 0
M  V30 6290 O 618.851 -1.06332 2.02252 0
M  V30 6291 C 619.061 2.47906 2.45649 0
M  V30 6292 C 620.409 2.89415 3.10683 0
M  V30 6293 O 621.433 2.477 2.55975 0
M  V30 6294 O 620.292 3.61573 4.09789 0
M  V30 6295 H 617.386 0.519994 0.643067 0
M  V30 6296 H 619.932 1.53765 0.71794 0
M  V30 6297 H 618.704 3.39222 1.95048 0
M  V30 6298 H 618.327 2.28089 3.25671 0
M  V30 6299 N 619.324 -0.923095 1.27737 0
M  V30 6300 C 620.552 -1.70525 1.17171 0
M  V30 6301 C 620.967 -1.86847 -0.270881 0
M  V30 6302 O 620.324 -1.38879 -1.18401 0
M  V30 6303 C 620.375 -3.10242 1.85559 0
M  V30 6304 O 620.096 -2.94683 3.24182 0
M  V30 6305 C 621.597 -4.04586 1.81176 0
M  V30 6306 H 618.817 -0.533347 0.407163 0
M  V30 6307 H 621.361 -1.15599 1.68692 0
M  V30 6308 H 619.516 -3.62014 1.3793 0
M  V30 6309 H 619.93 -3.83045 3.58297 0
M  V30 6310 H 621.404 -5.00119 2.33633 0
M  V30 6311 H 621.881 -4.3218 0.782099 0
M  V30 6312 H 622.487 -3.58741 2.2844 0
M  V30 6313 N 620.802 -1.09834 -1.13024 0
M  V30 6314 C 622.049 -0.83695 -1.84395 0
M  V30 6315 C 622.377 0.637463 -1.83757 0
M  V30 6316 O 621.632 1.48554 -1.27398 0
M  V30 6317 C 621.931 -1.32263 -3.32026 0
M  V30 6318 C 621.597 -2.80739 -3.52841 0
M  V30 6319 C 620.259 -3.21286 -3.5823 0
M  V30 6320 C 622.611 -3.76449 -3.60466 0
M  V30 6321 C 619.939 -4.56308 -3.68781 0
M  V30 6322 C 622.291 -5.11266 -3.72546 0
M  V30 6323 C 620.955 -5.51397 -3.76189 0
M  V30 6324 H 620.225 -0.306262 -0.674748 0
M  V30 6325 H 622.872 -1.37385 -1.33408 0
M  V30 6326 H 621.177 -0.705618 -3.85394 0
M  V30 6327 H 622.874 -1.09695 -3.85705 0
M  V30 6328 H 619.464 -2.48363 -3.49305 0
M  V30 6329 H 623.648 -3.46234 -3.55578 0
M  V30 6330 H 618.904 -4.86832 -3.69871 0
M  V30 6331 H 623.078 -5.85279 -3.77388 0
M  V30 6332 H 620.705 -6.56017 -3.84117 0
M  V30 6333 N 622.28 1.30327 -0.886154 0
M  V30 6334 C 623.526 1.96388 -0.505941 0
M  V30 6335 C 623.859 1.69784 0.942712 0
M  V30 6336 O 623.134 1.00322 1.6663 0
M  V30 6337 C 623.417 3.51488 -0.782826 0
M  V30 6338 C 623.27 3.87603 -2.28219 0
M  V30 6339 C 624.589 4.39331 -0.260128 0
M  V30 6340 H 621.708 0.713327 -0.185292 0
M  V30 6341 H 624.35 1.54178 -1.11036 0
M  V30 6342 H 622.5 3.87572 -0.268399 0
M  V30 6343 H 624.172 3.61537 -2.86512 0
M  V30 6344 H 622.415 3.3563 -2.74837 0
M  V30 6345 H 623.086 4.95806 -2.42653 0
M  V30 6346 H 625.562 4.10162 -0.700444 0
M  V30 6347 H 624.438 5.46769 -0.483179 0
M  V30 6348 H 624.699 4.34072 0.838674 0
M  V30 6349 N 623.758 0.647228 1.43697 0
M  V30 6350 C 625.004 0.158422 2.0218 0
M  V30 6351 C 625.337 -1.22233 1.50907 0
M  V30 6352 O 624.612 -1.81478 0.699702 0
M  V30 6353 C 624.895 0.1627 3.59732 0
M  V30 6354 C 624.748 1.57694 4.21251 0
M  V30 6355 C 626.067 -0.504138 4.37203 0
M  V30 6356 H 623.186 0.059042 0.734631 0
M  V30 6357 H 625.828 0.826772 1.71069 0
M  V30 6358 H 623.978 -0.406414 3.86368 0
M  V30 6359 H 625.65 2.19618 4.05667 0
M  V30 6360 H 623.893 2.12603 3.7813 0
M  V30 6361 H 624.564 1.53183 5.3032 0
M  V30 6362 H 627.04 -0.0199841 4.16095 0
M  V30 6363 H 625.916 -0.470394 5.46881 0
M  V30 6364 H 626.177 -1.57726 4.13007 0
M  V30 6365 N 625.236 -1.5273 0.388769 0
M  V30 6366 C 626.184 -2.27975 -0.461527 0
M  V30 6367 C 627.178 -1.31854 -1.06352 0
M  V30 6368 O 628.384 -1.49394 -1.00406 0
M  V30 6369 H 624.759 -0.733088 -0.16759 0
M  V30 6370 H 626.73 -2.97765 0.194579 0
M  V30 6371 C 625.479 -3.09881 -1.577 0
M  V30 6372 H 624.802 -3.83701 -1.12309 0
M  V30 6373 H 626.242 -3.6567 -2.14619 0
M  V30 6374 C 624.701 -2.22159 -2.53272 0
M  V30 6375 O 625.231 -1.84802 -3.56667 0
M  V30 6376 N 623.437 -1.8633 -2.23001 0
M  V30 6377 H 622.984 -2.16909 -1.38954 0
M  V30 6378 H 622.942 -1.27927 -2.87197 0
M  V30 6379 N 626.714 -0.118576 -1.57153 0
M  V30 6380 C 627.661 0.831789 -2.1529 0
M  V30 6381 C 628.631 1.26385 -1.07778 0
M  V30 6382 O 629.816 1.34144 -1.35684 0
M  V30 6383 C 626.956 2.07664 -2.75626 0
M  V30 6384 C 626.069 1.69298 -3.97444 0
M  V30 6385 C 625.204 2.88747 -4.45868 0
M  V30 6386 C 624.243 2.46619 -5.60219 0
M  V30 6387 N 623.38 3.5898 -6.03389 0
M  V30 6388 H 628.22 0.329183 -2.96176 0
M  V30 6389 H 625.757 0.150792 -1.46325 0
M  V30 6390 H 627.715 2.80601 -3.08738 0
M  V30 6391 H 626.345 2.55384 -1.97431 0
M  V30 6392 H 625.397 0.862374 -3.70496 0
M  V30 6393 H 626.709 1.34338 -4.80369 0
M  V30 6394 H 625.863 3.69909 -4.80887 0
M  V30 6395 H 624.602 3.26933 -3.61892 0
M  V30 6396 H 623.607 1.63889 -5.24805 0
M  V30 6397 H 624.832 2.0955 -6.45961 0
M  V30 6398 H 622.778 3.9684 -5.22354 0
M  V30 6399 H 622.695 3.27942 -6.81168 0
M  V30 6400 H 623.963 4.40583 -6.43045 0
M  V30 6401 N 628.193 1.56834 0.155195 0
M  V30 6402 C 629.14 1.97646 1.19184 0
M  V30 6403 C 630.11 0.842788 1.4313 0
M  V30 6404 O 631.295 1.1042 1.55602 0
M  V30 6405 C 628.435 2.35527 2.52232 0
M  V30 6406 C 627.548 3.62147 2.35529 0
M  V30 6407 C 626.683 3.89167 3.61555 0
M  V30 6408 C 625.722 5.09084 3.39853 0
M  V30 6409 N 624.859 5.32156 4.5799 0
M  V30 6410 H 629.699 2.8601 0.836802 0
M  V30 6411 H 627.236 1.41507 0.401758 0
M  V30 6412 H 629.194 2.55516 3.29799 0
M  V30 6413 H 627.824 1.50253 2.85699 0
M  V30 6414 H 626.876 3.4998 1.49057 0
M  V30 6415 H 628.188 4.49871 2.15448 0
M  V30 6416 H 627.342 4.09611 4.47553 0
M  V30 6417 H 626.081 2.9985 3.84632 0
M  V30 6418 H 625.086 4.88522 2.52243 0
M  V30 6419 H 626.311 5.99947 3.18183 0
M  V30 6420 H 624.257 4.45791 4.81255 0
M  V30 6421 H 624.174 6.14133 4.40882 0
M  V30 6422 H 625.442 5.57091 5.45225 0
M  V30 6423 N 629.671 -0.424282 1.51781 0
M  V30 6424 C 631.082 -1.00368 1.57427 0
M  V30 6425 C 631.433 -1.91962 0.40558 0
M  V30 6426 O 630.558 -2.111 -0.47601 0
M  V30 6427 C 631.153 -1.82707 2.85313 0
M  V30 6428 C 629.712 -2.35675 2.93487 0
M  V30 6429 C 628.859 -1.1524 2.5222 0
M  V30 6430 H 631.81 -0.205064 1.5737 0
M  V30 6431 H 631.831 -2.68294 2.69812 0
M  V30 6432 H 631.343 -1.16017 3.70353 0
M  V30 6433 H 629.444 -3.05781 2.12906 0
M  V30 6434 H 629.557 -2.67578 3.97415 0
M  V30 6435 H 627.921 -1.50174 2.05718 0
M  V30 6436 H 628.704 -0.5014 3.39619 0
M  V30 6437 N 631.149 -1.42148 -0.680565 0
M  V30 6438 C 632.395 -1.4352 -1.44131 0
M  V30 6439 C 632.75 -0.0486244 -1.92339 0
M  V30 6440 O 632.043 0.92819 -1.67616 0
M  V30 6441 C 632.237 -2.38945 -2.65782 0
M  V30 6442 C 632.066 -3.86743 -2.29477 0
M  V30 6443 C 630.836 -4.5532 -2.19115 0
M  V30 6444 C 633.034 -4.77321 -1.91491 0
M  V30 6445 N 631.016 -5.88174 -1.75853 0
M  V30 6446 C 632.387 -5.99238 -1.59103 0
M  V30 6447 C 634.442 -4.64829 -1.78432 0
M  V30 6448 C 633.145 -7.10053 -1.14968 0
M  V30 6449 C 635.171 -5.75621 -1.35702 0
M  V30 6450 C 634.533 -6.96645 -1.04234 0
M  V30 6451 H 630.632 -0.580363 -0.524121 0
M  V30 6452 H 633.216 -1.78132 -0.785939 0
M  V30 6453 H 631.387 -2.06403 -3.29017 0
M  V30 6454 H 633.119 -2.30935 -3.32342 0
M  V30 6455 H 629.874 -4.09456 -2.37998 0
M  V30 6456 H 630.298 -6.58625 -1.56661 0
M  V30 6457 H 634.94 -3.71745 -2.01409 0
M  V30 6458 H 632.658 -8.0299 -0.907365 0
M  V30 6459 H 636.244 -5.67964 -1.26126 0
M  V30 6460 H 635.124 -7.80918 -0.716707 0
M  V30 6461 N 632.627 0.916307 -1.28225 0
M  V30 6462 C 633.557 2.0352 -1.14464 0
M  V30 6463 C 634.538 1.70045 -0.0430844 0
M  V30 6464 O 635.723 1.92954 -0.219619 0
M  V30 6465 C 632.853 3.37889 -0.803027 0
M  V30 6466 C 631.807 3.85516 -1.85908 0
M  V30 6467 C 631.133 5.1682 -1.37116 0
M  V30 6468 C 632.433 4.07655 -3.26519 0
M  V30 6469 H 634.127 2.1529 -2.08064 0
M  V30 6470 H 631.673 1.03446 -1.00174 0
M  V30 6471 H 633.626 4.15654 -0.693537 0
M  V30 6472 H 632.35 3.26164 0.168674 0
M  V30 6473 H 631.009 3.09953 -1.95767 0
M  V30 6474 H 630.657 5.01497 -0.38859 0
M  V30 6475 H 630.357 5.49657 -2.07728 0
M  V30 6476 H 631.881 5.97143 -1.27484 0
M  V30 6477 H 633.295 4.75953 -3.19596 0
M  V30 6478 H 631.692 4.51818 -3.94943 0
M  V30 6479 H 632.762 3.12553 -3.70727 0
M  V30 6480 N 634.105 1.10431 1.1244 0
M  V30 6481 C 635.516 0.864439 1.65482 0
M  V30 6482 C 635.867 -0.60527 1.8663 0
M  V30 6483 O 634.992 -1.46492 1.59276 0
M  V30 6484 C 635.587 1.56267 3.0061 0
M  V30 6485 C 634.146 1.3695 3.50602 0
M  V30 6486 C 633.293 1.61209 2.25626 0
M  V30 6487 H 636.244 1.26203 0.962209 0
M  V30 6488 H 636.265 1.00166 3.67079 0
M  V30 6489 H 635.777 2.63231 2.85186 0
M  V30 6490 H 633.878 0.321481 3.71211 0
M  V30 6491 H 633.991 2.11143 4.30064 0
M  V30 6492 H 632.355 1.03482 2.32731 0
M  V30 6493 H 633.138 2.69425 2.12756 0
M  V30 6494 N 635.583 -1.29855 0.893053 0
M  V30 6495 C 636.493 -2.31661 0.370157 0
M  V30 6496 C 637.509 -1.65677 -0.531723 0
M  V30 6497 O 638.685 -1.9691 -0.422902 0
M  V30 6498 C 635.75 -3.44388 -0.399741 0
M  V30 6499 C 634.811 -4.2598 0.532861 0
M  V30 6500 C 634.044 -5.33324 -0.200388 0
M  V30 6501 O 634.267 -5.52305 -1.42531 0
M  V30 6502 O 633.201 -6.00188 0.453668 0
M  V30 6503 H 637.027 -2.78354 1.2146 0
M  V30 6504 H 634.612 -1.34171 0.657153 0
M  V30 6505 H 636.494 -4.13037 -0.835358 0
M  V30 6506 H 635.169 -2.99815 -1.22035 0
M  V30 6507 H 634.076 -3.59998 1.01746 0
M  V30 6508 H 635.409 -4.74178 1.3197 0
M  V30 6509 N 637.061 -0.65484 -1.43351 0
M  V30 6510 C 638.301 -0.172514 -2.03671 0
M  V30 6511 C 638.665 1.19154 -1.50553 0
M  V30 6512 O 639.866 1.76737 -2.02528 0
M  V30 6513 C 638.137 -0.183982 -3.56926 0
M  V30 6514 S 639.696 0.230262 -4.38195 0
M  V30 6515 H 636.514 -0.0727503 -0.707268 0
M  V30 6516 H 639.116 -0.863537 -1.75395 0
M  V30 6517 H 637.82 -1.17945 -3.93087 0
M  V30 6518 H 637.351 0.527527 -3.89847 0
M  V30 6519 H 639.366 1.46874 -4.73965 0
M  V30 6520 N 638.539 1.52521 -0.396863 0
M  V30 6521 C 639.767 2.06091 0.18275 0
M  V30 6522 C 640.182 1.26796 1.39886 0
M  V30 6523 O 639.539 0.316585 1.79733 0
M  V30 6524 C 639.59 3.57362 0.545377 0
M  V30 6525 O 639.311 4.33656 -0.622428 0
M  V30 6526 C 640.812 4.27305 1.18004 0
M  V30 6527 H 638.032 0.670504 0.025789 0
M  V30 6528 H 640.576 1.96561 -0.564276 0
M  V30 6529 H 638.731 3.66941 1.2423 0
M  V30 6530 H 639.145 5.23507 -0.322662 0
M  V30 6531 H 640.619 5.34366 1.38408 0
M  V30 6532 H 641.096 3.83 2.1496 0
M  V30 6533 H 641.702 4.22064 0.523671 0
M  V30 6534 N 640.017 0.126909 1.57088 0
M  V30 6535 C 641.428 -0.397201 1.82426 0
M  V30 6536 C 641.779 -1.66084 1.04453 0
M  V30 6537 O 640.904 -2.14534 0.283552 0
M  V30 6538 C 641.499 -0.727411 3.30899 0
M  V30 6539 C 640.058 -1.19612 3.56889 0
M  V30 6540 C 639.205 -0.20885 2.76512 0
M  V30 6541 H 642.156 0.351924 1.54749 0
M  V30 6542 H 642.177 -1.58407 3.45959 0
M  V30 6543 H 641.689 0.19247 3.87622 0
M  V30 6544 H 639.79 -2.13263 3.05532 0
M  V30 6545 H 639.903 -1.13598 4.65438 0
M  V30 6546 H 638.267 -0.697479 2.44964 0
M  V30 6547 H 639.05 0.704267 3.35998 0
M  V30 6548 N 641.495 -1.56914 -0.146875 0
M  V30 6549 C 642.741 -1.83628 -0.860741 0
M  V30 6550 C 643.074 -0.708528 -1.80813 0
M  V30 6551 O 642.349 0.287838 -1.92358 0
M  V30 6552 C 642.632 -3.20836 -1.63511 0
M  V30 6553 C 642.485 -4.44174 -0.709199 0
M  V30 6554 C 643.804 -3.55268 -2.59756 0
M  V30 6555 H 640.923 -0.667949 -0.311468 0
M  V30 6556 H 643.565 -1.89582 -0.125936 0
M  V30 6557 H 641.715 -3.15891 -2.26153 0
M  V30 6558 H 643.387 -4.61205 -0.0937781 0
M  V30 6559 H 641.63 -4.33796 -0.0187856 0
M  V30 6560 H 642.301 -5.36785 -1.28707 0
M  V30 6561 H 644.777 -3.60824 -2.07232 0
M  V30 6562 H 643.653 -4.52303 -3.10987 0
M  V30 6563 H 643.914 -2.81231 -3.41118 0
M  V30 6564 N 642.974 0.416227 -1.52004 0
M  V30 6565 C 644.204 1.18401 -1.69307 0
M  V30 6566 C 644.612 1.84943 -0.399072 0
M  V30 6567 O 643.955 1.72406 0.634177 0
M  V30 6568 C 644.017 2.29465 -2.76742 0
M  V30 6569 C 643.681 1.83117 -4.18709 0
M  V30 6570 C 644.678 1.32286 -5.02789 0
M  V30 6571 C 642.363 1.90167 -4.64911 0
M  V30 6572 C 644.357 0.891178 -6.31139 0
M  V30 6573 C 642.044 1.4661 -5.93253 0
M  V30 6574 C 643.042 0.961696 -6.76196 0
M  V30 6575 O 642.73 0.532388 -8.02135 0
M  V30 6576 H 642.462 0.362098 -0.570843 0
M  V30 6577 H 645.016 0.496764 -1.99302 0
M  V30 6578 H 643.246 3.01531 -2.42107 0
M  V30 6579 H 644.935 2.91252 -2.82713 0
M  V30 6580 H 645.701 1.26218 -4.68288 0
M  V30 6581 H 641.58 2.28371 -4.00459 0
M  V30 6582 H 645.124 0.496788 -6.95829 0
M  V30 6583 H 641.021 1.52355 -6.27263 0
M  V30 6584 H 641.789 0.656339 -8.15864 0
M  V30 6585 N 644.452 1.42507 0.673017 0
M  V30 6586 C 645.698 1.43284 1.43519 0
M  V30 6587 C 646.031 0.049668 1.94136 0
M  V30 6588 O 645.306 -0.926369 1.71022 0
M  V30 6589 C 645.589 2.45874 2.63093 0
M  V30 6590 C 645.442 3.93388 2.18096 0
M  V30 6591 C 646.761 2.45431 3.6531 0
M  V30 6592 H 643.88 0.521752 0.520522 0
M  V30 6593 H 646.522 1.73932 0.764701 0
M  V30 6594 H 644.672 2.19869 3.20296 0
M  V30 6595 H 646.344 4.30379 1.66046 0
M  V30 6596 H 644.587 4.07169 1.49652 0
M  V30 6597 H 645.258 4.60752 3.03993 0
M  V30 6598 H 647.734 2.68561 3.17827 0
M  V30 6599 H 646.61 3.19189 4.46553 0
M  V30 6600 H 646.871 1.48092 4.16559 0
M  V30 6601 N 645.93 -0.909495 1.28709 0
M  V30 6602 C 646.862 -2.01729 1.08804 0
M  V30 6603 C 647.875 -1.62755 0.0384739 0
M  V30 6604 O 649.064 -1.76259 0.281977 0
M  V30 6605 C 646.164 -3.32952 0.63217 0
M  V30 6606 C 645.337 -4.00512 1.75809 0
M  V30 6607 C 644.396 -5.10019 1.29488 0
M  V30 6608 O 643.422 -5.32986 1.99787 0
M  V30 6609 N 644.624 -5.80278 0.1604 0
M  V30 6610 H 647.389 -2.19362 2.04207 0
M  V30 6611 H 644.95 -1.08106 1.20518 0
M  V30 6612 H 646.942 -4.03543 0.305802 0
M  V30 6613 H 645.512 -3.11759 -0.229134 0
M  V30 6614 H 644.732 -3.23413 2.25383 0
M  V30 6615 H 646.02 -4.42395 2.51325 0
M  V30 6616 H 645.418 -5.64094 -0.425937 0
M  V30 6617 H 643.975 -6.51713 -0.106663 0
M  V30 6618 N 647.408 -1.11026 -1.11852 0
M  V30 6619 C 648.638 -0.877544 -1.87037 0
M  V30 6620 C 649.046 0.575925 -1.80221 0
M  V30 6621 O 648.389 1.40916 -1.17849 0
M  V30 6622 C 648.451 -1.25529 -3.36872 0
M  V30 6623 C 648.115 -2.71704 -3.67459 0
M  V30 6624 C 649.112 -3.69931 -3.65304 0
M  V30 6625 C 646.797 -3.08243 -3.966 0
M  V30 6626 C 648.791 -5.02717 -3.9186 0
M  V30 6627 C 646.478 -4.41215 -4.22815 0
M  V30 6628 C 647.476 -5.38262 -4.20432 0
M  V30 6629 O 647.164 -6.68839 -4.45992 0
M  V30 6630 H 646.896 -0.314374 -0.598452 0
M  V30 6631 H 649.45 -1.48015 -1.42411 0
M  V30 6632 H 647.68 -0.595808 -3.82082 0
M  V30 6633 H 649.369 -0.999064 -3.93413 0
M  V30 6634 H 650.135 -3.43047 -3.42846 0
M  V30 6635 H 646.014 -2.33326 -3.97593 0
M  V30 6636 H 649.558 -5.78456 -3.89916 0
M  V30 6637 H 645.455 -4.67835 -4.44748 0
M  V30 6638 H 646.223 -6.74563 -4.63581 0
M  V30 6639 N 648.886 1.2938 -0.899927 0
M  V30 6640 C 650.133 1.9555 -0.525963 0
M  V30 6641 C 650.461 1.70945 0.927789 0
M  V30 6642 O 649.716 1.01545 1.67293 0
M  V30 6643 C 650.015 3.49114 -0.765113 0
M  V30 6644 C 649.681 3.93796 -2.19626 0
M  V30 6645 C 648.343 4.05707 -2.58758 0
M  V30 6646 C 650.695 4.16883 -3.12823 0
M  V30 6647 C 648.023 4.38074 -3.90267 0
M  V30 6648 C 650.375 4.50725 -4.4388 0
M  V30 6649 C 649.039 4.60845 -4.82885 0
M  V30 6650 H 648.309 0.715569 -0.192463 0
M  V30 6651 H 650.956 1.53972 -1.13863 0
M  V30 6652 H 649.261 3.91738 -0.069531 0
M  V30 6653 H 650.958 3.98409 -0.455144 0
M  V30 6654 H 647.548 3.85042 -1.88256 0
M  V30 6655 H 651.732 4.07147 -2.83804 0
M  V30 6656 H 646.988 4.44112 -4.20207 0
M  V30 6657 H 651.162 4.67538 -5.16121 0
M  V30 6658 H 648.789 4.85681 -5.84823 0
M  V30 6659 N 650.364 0.662433 1.43002 0
M  V30 6660 C 651.61 0.179857 2.02001 0
M  V30 6661 C 651.943 -1.20625 1.52195 0
M  V30 6662 O 651.218 -1.80726 0.718911 0
M  V30 6663 C 651.501 0.200845 3.59539 0
M  V30 6664 C 651.354 1.62153 4.19555 0
M  V30 6665 C 652.673 -0.457738 4.37713 0
M  V30 6666 H 649.792 0.0668305 0.733964 0
M  V30 6667 H 652.434 0.84487 1.70182 0
M  V30 6668 H 650.584 -0.365411 3.86778 0
M  V30 6669 H 652.256 2.23908 4.03315 0
M  V30 6670 H 650.499 2.16601 3.75854 0
M  V30 6671 H 651.17 1.58799 5.28665 0
M  V30 6672 H 653.646 0.0241495 4.16093 0
M  V30 6673 H 652.522 -0.412363 5.47349 0
M  V30 6674 H 652.783 -1.53336 4.14657 0
M  V30 6675 N 651.842 -1.52309 0.404946 0
M  V30 6676 C 652.789 -2.26898 -0.422597 0
M  V30 6677 C 653.759 -1.2914 -1.04461 0
M  V30 6678 O 654.944 -1.57996 -1.06967 0
M  V30 6679 C 652.084 -3.09053 -1.53559 0
M  V30 6680 C 651.197 -4.21762 -0.934908 0
M  V30 6681 C 650.332 -4.91283 -2.02025 0
M  V30 6682 C 649.371 -5.95962 -1.39628 0
M  V30 6683 N 648.508 -6.59017 -2.42159 0
M  V30 6684 H 653.348 -2.97188 0.219903 0
M  V30 6685 H 650.885 -1.46607 0.120282 0
M  V30 6686 H 652.843 -3.54987 -2.19181 0
M  V30 6687 H 651.473 -2.40942 -2.14818 0
M  V30 6688 H 650.525 -3.80029 -0.167854 0
M  V30 6689 H 651.837 -4.96864 -0.439073 0
M  V30 6690 H 650.991 -5.40601 -2.75383 0
M  V30 6691 H 649.73 -4.15741 -2.54973 0
M  V30 6692 H 648.735 -5.45968 -0.648023 0
M  V30 6693 H 649.96 -6.73445 -0.874553 0
M  V30 6694 H 647.906 -5.86306 -2.94247 0
M  V30 6695 H 647.823 -7.2978 -1.97376 0
M  V30 6696 H 649.091 -7.12974 -3.15099 0
M  V30 6697 N 653.32 -0.135238 -1.57019 0
M  V30 6698 C 654.567 0.518794 -1.95742 0
M  V30 6699 C 654.895 1.65642 -1.01947 0
M  V30 6700 O 654.15 1.95645 -0.0464016 0
M  V30 6701 C 654.449 1.07694 -3.40788 0
M  V30 6702 C 654.115 0.058992 -4.50861 0
M  V30 6703 C 652.777 -0.220872 -4.80693 0
M  V30 6704 C 655.129 -0.633856 -5.17331 0
M  V30 6705 C 652.457 -1.19959 -5.74305 0
M  V30 6706 C 654.809 -1.60131 -6.11997 0
M  V30 6707 C 653.473 -1.889 -6.40213 0
M  V30 6708 H 652.743 0.18984 -0.716269 0
M  V30 6709 H 655.39 -0.219581 -1.90237 0
M  V30 6710 H 653.695 1.89241 -3.43067 0
M  V30 6711 H 655.392 1.59137 -3.68071 0
M  V30 6712 H 651.982 0.287304 -4.27636 0
M  V30 6713 H 656.166 -0.430823 -4.94427 0
M  V30 6714 H 651.422 -1.42905 -5.94465 0
M  V30 6715 H 655.596 -2.14376 -6.62583 0
M  V30 6716 H 653.223 -2.64891 -7.12556 0
M  V30 6717 N 654.798 1.5699 0.138552 0
M  V30 6718 C 656.045 1.83809 0.849732 0
M  V30 6719 C 656.373 0.717409 1.80786 0
M  V30 6720 O 655.628 -0.292897 1.93496 0
M  V30 6721 C 655.927 3.17007 1.65049 0
M  V30 6722 C 655.593 4.43037 0.838398 0
M  V30 6723 C 654.255 4.77262 0.614385 0
M  V30 6724 C 656.607 5.20495 0.271044 0
M  V30 6725 C 653.935 5.864 -0.187552 0
M  V30 6726 C 656.287 6.30476 -0.517979 0
M  V30 6727 C 654.951 6.63245 -0.75249 0
M  V30 6728 H 654.221 0.672605 0.310939 0
M  V30 6729 H 656.868 1.91166 0.112971 0
M  V30 6730 H 655.173 3.05138 2.4576 0
M  V30 6731 H 656.87 3.34975 2.20437 0
M  V30 6732 H 653.46 4.16211 1.02307 0
M  V30 6733 H 657.644 4.94422 0.431371 0
M  V30 6734 H 652.9 6.10226 -0.378659 0
M  V30 6735 H 657.074 6.89686 -0.964694 0
M  V30 6736 H 654.701 7.47648 -1.37573 0
M  V30 6737 N 656.276 -0.40816 1.52223 0
M  V30 6738 C 657.525 -1.15212 1.65557 0
M  V30 6739 C 657.838 -1.9163 0.392096 0
M  V30 6740 O 659.044 -2.68458 0.405256 0
M  V30 6741 C 657.5 -2.09691 2.92502 0
M  V30 6742 C 657.108 -1.38785 4.25961 0
M  V30 6743 C 658.852 -2.8434 3.152 0
M  V30 6744 C 656.759 -2.31919 5.44029 0
M  V30 6745 H 655.689 -0.433776 0.616729 0
M  V30 6746 H 658.34 -0.4165 1.78711 0
M  V30 6747 H 656.722 -2.8681 2.7305 0
M  V30 6748 H 657.896 -0.670248 4.55899 0
M  V30 6749 H 656.211 -0.761741 4.09373 0
M  V30 6750 H 658.808 -3.54166 4.00587 0
M  V30 6751 H 659.151 -3.47344 2.29473 0
M  V30 6752 H 659.684 -2.14321 3.35129 0
M  V30 6753 H 656.423 -1.7356 6.32105 0
M  V30 6754 H 655.943 -3.0165 5.18428 0
M  V30 6755 H 657.622 -2.92424 5.77146 0
M  V30 6756 N 657.755 -1.42862 -0.66545 0
M  V30 6757 C 659.004 -1.43119 -1.42126 0
M  V30 6758 C 659.317 -0.0545297 -1.95524 0
M  V30 6759 O 660.523 0.0654747 -2.71421 0
M  V30 6760 C 658.979 -2.51797 -2.5715 0
M  V30 6761 C 658.587 -3.95514 -2.10411 0
M  V30 6762 C 660.331 -2.61233 -3.346 0
M  V30 6763 C 658.238 -4.95682 -3.22573 0
M  V30 6764 H 657.168 -0.532349 -0.533966 0
M  V30 6765 H 659.819 -1.68806 -0.719506 0
M  V30 6766 H 658.201 -2.19292 -3.29738 0
M  V30 6767 H 659.375 -4.3742 -1.44915 0
M  V30 6768 H 657.69 -3.90012 -1.45874 0
M  V30 6769 H 660.287 -3.33248 -4.18151 0
M  V30 6770 H 660.63 -1.65896 -3.81817 0
M  V30 6771 H 661.163 -2.9298 -2.69087 0
M  V30 6772 H 657.902 -5.92529 -2.80338 0
M  V30 6773 H 657.422 -4.58399 -3.86821 0
M  V30 6774 H 659.101 -5.17828 -3.87896 0
M  V30 6775 N 659.233 0.902656 -1.29189 0
M  V30 6776 C 660.481 1.6496 -1.16758 0
M  V30 6777 C 660.802 1.92952 0.28188 0
M  V30 6778 O 660.072 1.55351 1.19344 0
M  V30 6779 H 658.652 0.611447 -0.429118 0
M  V30 6780 H 661.314 1.0825 -1.62074 0
M  V30 6781 H 660.41 2.60728 -1.71544 0
M  V30 6782 N 660.711 1.11618 1.11262 0
M  V30 6783 C 661.957 0.867463 1.83311 0
M  V30 6784 C 662.29 -0.605366 1.84524 0
M  V30 6785 O 661.565 -1.44704 1.29965 0
M  V30 6786 C 661.848 1.43207 3.30399 0
M  V30 6787 C 661.701 2.97265 3.3757 0
M  V30 6788 C 663.02 1.08454 4.26528 0
M  V30 6789 H 660.139 0.316578 0.665543 0
M  V30 6790 H 662.781 1.38137 1.30454 0
M  V30 6791 H 660.931 0.994982 3.75543 0
M  V30 6792 H 662.603 3.49591 3.00971 0
M  V30 6793 H 660.846 3.33237 2.77733 0
M  V30 6794 H 661.517 3.31859 4.41105 0
M  V30 6795 H 663.993 1.4619 3.89574 0
M  V30 6796 H 662.869 1.50633 5.27826 0
M  V30 6797 H 663.13 -0.00444568 4.421 0
M  V30 6798 N 662.189 -1.289 0.906776 0
M  V30 6799 C 663.417 -1.99401 0.551969 0
M  V30 6800 C 663.832 -1.67816 -0.865048 0
M  V30 6801 O 663.189 -0.927078 -1.57199 0
M  V30 6802 C 663.24 -3.53779 0.743152 0
M  V30 6803 O 662.961 -3.84248 2.1044 0
M  V30 6804 C 664.462 -4.41543 0.39424 0
M  V30 6805 H 661.682 -0.636926 0.211106 0
M  V30 6806 H 664.226 -1.64266 1.21807 0
M  V30 6807 H 662.381 -3.87201 0.124143 0
M  V30 6808 H 662.795 -4.78904 2.13895 0
M  V30 6809 H 664.269 -5.48957 0.578814 0
M  V30 6810 H 664.746 -4.34073 -0.669137 0
M  V30 6811 H 665.352 -4.13605 0.990491 0
M  V30 6812 N 663.667 -0.670007 -1.42649 0
M  V30 6813 C 664.913 -0.190568 -2.01903 0
M  V30 6814 C 665.246 1.19817 -1.52832 0
M  V30 6815 O 664.521 1.80342 -0.728485 0
M  V30 6816 C 664.804 -0.21991 -3.59428 0
M  V30 6817 C 664.657 -1.64376 -4.18689 0
M  V30 6818 C 665.976 0.434519 -4.3795 0
M  V30 6819 H 663.095 -0.0707219 -0.733599 0
M  V30 6820 H 665.737 -0.853883 -1.69732 0
M  V30 6821 H 663.887 0.344894 -3.86966 0
M  V30 6822 H 665.559 -2.26044 -4.02122 0
M  V30 6823 H 663.802 -2.18591 -3.747 0
M  V30 6824 H 664.473 -1.61601 -5.27815 0
M  V30 6825 H 666.949 -0.0462156 -4.16074 0
M  V30 6826 H 665.825 0.38333 -5.4756 0
M  V30 6827 H 666.086 1.51135 -4.15464 0
M  V30 6828 N 665.145 1.52092 -0.413018 0
M  V30 6829 C 666.075 2.30021 0.401567 0
M  V30 6830 C 667.056 1.34395 1.04269 0
M  V30 6831 O 668.241 1.63304 1.05097 0
M  V30 6832 C 665.371 3.12447 1.51638 0
M  V30 6833 C 664.325 4.16153 1.00005 0
M  V30 6834 C 663.651 4.86948 2.20875 0
M  V30 6835 C 664.951 5.22275 0.0513757 0
M  V30 6836 H 666.645 2.98365 -0.248704 0
M  V30 6837 H 664.191 1.4349 -0.121052 0
M  V30 6838 H 666.144 3.65733 2.09326 0
M  V30 6839 H 664.868 2.41879 2.19458 0
M  V30 6840 H 663.527 3.63882 0.445549 0
M  V30 6841 H 663.175 4.12905 2.8726 0
M  V30 6842 H 662.875 5.57057 1.86978 0
M  V30 6843 H 664.399 5.43048 2.79162 0
M  V30 6844 H 665.813 5.70778 0.537176 0
M  V30 6845 H 664.21 5.9977 -0.198977 0
M  V30 6846 H 665.28 4.76611 -0.892736 0
M  V30 6847 N 666.623 0.143563 1.56945 0
M  V30 6848 C 667.869 -0.50916 1.96304 0
M  V30 6849 C 668.202 -1.64741 1.0283 0
M  V30 6850 O 667.477 -1.94374 0.0700361 0
M  V30 6851 C 667.76 -1.0186 3.45393 0
M  V30 6852 C 667.613 0.117923 4.49645 0
M  V30 6853 C 668.932 -1.90151 3.96901 0
M  V30 6854 H 666.051 -0.183608 0.713763 0
M  V30 6855 H 668.693 0.224095 1.88674 0
M  V30 6856 H 666.843 -1.64345 3.52027 0
M  V30 6857 H 668.515 0.754145 4.55094 0
M  V30 6858 H 666.758 0.777568 4.26774 0
M  V30 6859 H 667.429 -0.280187 5.51288 0
M  V30 6860 H 669.905 -1.375 3.92725 0
M  V30 6861 H 668.781 -2.22707 5.0169 0
M  V30 6862 H 669.042 -2.83718 3.39052 0
M  V30 6863 N 668.101 -1.57061 -0.130224 0
M  V30 6864 C 669.347 -1.8453 -0.841216 0
M  V30 6865 C 669.68 -0.727666 -1.80052 0
M  V30 6866 O 668.955 0.267419 -1.92653 0
M  V30 6867 C 669.238 -3.22553 -1.60099 0
M  V30 6868 C 669.091 -4.44901 -0.662048 0
M  V30 6869 C 670.41 -3.58003 -2.55973 0
M  V30 6870 H 667.529 -0.671215 -0.304366 0
M  V30 6871 H 670.171 -1.89705 -0.105821 0
M  V30 6872 H 668.321 -3.18272 -2.22789 0
M  V30 6873 H 669.993 -4.61278 -0.0448559 0
M  V30 6874 H 668.236 -4.33791 0.0272253 0
M  V30 6875 H 668.907 -5.3812 -1.23006 0
M  V30 6876 H 671.383 -3.63002 -2.03393 0
M  V30 6877 H 670.259 -4.55576 -3.06172 0
M  V30 6878 H 670.52 -2.84833 -3.38116 0
M  V30 6879 N 669.579 0.400081 -1.52437 0
M  V30 6880 C 670.542 1.4707 -1.75793 0
M  V30 6881 C 671.542 1.48036 -0.627856 0
M  V30 6882 O 672.732 1.49401 -0.895817 0
M  V30 6883 C 669.864 2.86427 -1.84858 0
M  V30 6884 H 671.057 1.27649 -2.71377 0
M  V30 6885 H 668.61 0.631141 -1.42991 0
M  V30 6886 H 669.345 3.11207 -0.912194 0
M  V30 6887 H 669.13 2.87128 -2.6702 0
M  V30 6888 H 670.62 3.64023 -2.04638 0
M  V30 6889 N 671.057 1.43213 0.657864 0
M  V30 6890 C 672.303 1.44798 1.41991 0
M  V30 6891 C 672.636 0.070256 1.94073 0
M  V30 6892 O 671.911 -0.908177 1.71995 0
M  V30 6893 C 672.194 2.4865 2.60471 0
M  V30 6894 C 672.047 3.95679 2.13911 0
M  V30 6895 C 673.366 2.49292 3.62686 0
M  V30 6896 H 670.485 0.527244 0.514959 0
M  V30 6897 H 673.127 1.74733 0.74621 0
M  V30 6898 H 671.277 2.23254 3.17946 0
M  V30 6899 H 672.949 4.32116 1.61472 0
M  V30 6900 H 671.192 4.08733 1.45325 0
M  V30 6901 H 671.863 4.6395 2.99089 0
M  V30 6902 H 674.339 2.71917 3.14961 0
M  V30 6903 H 673.215 3.23907 4.43143 0
M  V30 6904 H 673.476 1.52502 4.14964 0
M  V30 6905 N 672.536 -0.895792 1.29666 0
M  V30 6906 C 673.947 -1.46195 1.1612 0
M  V30 6907 C 674.298 -1.94699 -0.242195 0
M  V30 6908 O 673.423 -1.8406 -1.13802 0
M  V30 6909 C 674.018 -2.65718 2.10189 0
M  V30 6910 C 672.577 -3.18458 2.00653 0
M  V30 6911 C 671.724 -1.91149 2.00891 0
M  V30 6912 H 674.675 -0.706756 1.42094 0
M  V30 6913 H 674.696 -3.4158 1.6764 0
M  V30 6914 H 674.208 -2.30386 3.12321 0
M  V30 6915 H 672.309 -3.58474 1.01623 0
M  V30 6916 H 672.422 -3.82491 2.88509 0
M  V30 6917 H 670.786 -2.09021 1.45542 0
M  V30 6918 H 671.569 -1.58089 3.04734 0
M  V30 6919 N 674.014 -1.12206 -1.10668 0
M  V30 6920 C 674.924 -0.800686 -2.20513 0
M  V30 6921 C 675.94 0.209512 -1.72734 0
M  V30 6922 O 677.116 0.043705 -2.01353 0
M  V30 6923 C 674.181 -0.257353 -3.45744 0
M  V30 6924 C 673.242 -1.32718 -4.0827 0
M  V30 6925 C 672.475 -0.809674 -5.27522 0
M  V30 6926 O 672.698 0.35742 -5.69279 0
M  V30 6927 O 671.632 -1.57816 -5.80842 0
M  V30 6928 H 675.458 -1.71807 -2.50432 0
M  V30 6929 H 673.043 -0.898546 -1.19359 0
M  V30 6930 H 674.925 0.0408849 -4.2138 0
M  V30 6931 H 673.6 0.632627 -3.17458 0
M  V30 6932 H 672.507 -1.67855 -3.34329 0
M  V30 6933 H 673.84 -2.19083 -4.40753 0
M  V30 6934 N 675.492 1.28418 -0.913599 0
M  V30 6935 C 676.74 1.94596 -0.545594 0
M  V30 6936 C 677.061 1.7227 0.913668 0
M  V30 6937 O 676.331 1.06233 1.64595 0
M  V30 6938 H 674.911 0.720065 -0.198783 0
M  V30 6939 H 677.573 1.56404 -1.16292 0
M  V30 6940 H 676.669 3.03202 -0.739911 0
M  V30 6941 N 676.97 0.677563 1.42291 0
M  V30 6942 C 677.9 0.014968 2.33495 0
M  V30 6943 C 678.881 -0.786376 1.50831 0
M  V30 6944 O 680.066 -0.742975 1.79426 0
M  V30 6945 C 677.196 -0.935023 3.34477 0
M  V30 6946 C 676.15 -0.242074 4.27315 0
M  V30 6947 C 675.476 -1.30519 5.18526 0
M  V30 6948 C 676.776 0.880604 5.14823 0
M  V30 6949 H 678.47 0.776671 2.89151 0
M  V30 6950 H 676.016 0.37494 1.39033 0
M  V30 6951 H 677.969 -1.40766 3.97194 0
M  V30 6952 H 676.693 -1.72818 2.77131 0
M  V30 6953 H 675.352 0.210351 3.65996 0
M  V30 6954 H 675 -2.09041 4.57505 0
M  V30 6955 H 674.7 -0.846652 5.81468 0
M  V30 6956 H 676.224 -1.7787 5.84119 0
M  V30 6957 H 677.638 0.489062 5.7121 0
M  V30 6958 H 676.035 1.26511 5.86613 0
M  V30 6959 H 677.105 1.72818 4.53059 0
M  V30 6960 N 678.448 -1.51871 0.421078 0
M  V30 6961 C 679.859 -1.86644 -0.0457991 0
M  V30 6962 C 680.21 -1.33919 -1.43388 0
M  V30 6963 O 679.335 -0.683316 -2.05328 0
M  V30 6964 C 679.93 -3.38681 -0.0898844 0
M  V30 6965 C 678.489 -3.73049 -0.501127 0
M  V30 6966 C 677.636 -2.75485 0.316723 0
M  V30 6967 H 680.587 -1.45327 0.637635 0
M  V30 6968 H 680.608 -3.69636 -0.902734 0
M  V30 6969 H 680.12 -3.77025 0.920513 0
M  V30 6970 H 678.221 -3.40288 -1.51773 0
M  V30 6971 H 678.334 -4.78512 -0.237217 0
M  V30 6972 H 676.698 -2.53725 -0.222663 0
M  V30 6973 H 677.481 -3.16671 1.32569 0
M  V30 6974 N 679.926 -0.151884 -1.56866 0
M  V30 6975 C 680.856 0.781943 -2.20018 0
M  V30 6976 C 681.837 1.25347 -1.14987 0
M  V30 6977 O 683.022 1.31015 -1.43348 0
M  V30 6978 C 680.152 2.01928 -2.82564 0
M  V30 6979 C 679.106 1.68434 -3.93464 0
M  V30 6980 C 678.432 2.99472 -4.42968 0
M  V30 6981 C 679.732 0.927244 -5.14003 0
M  V30 6982 H 681.426 0.255607 -2.98307 0
M  V30 6983 H 678.972 0.121502 -1.43486 0
M  V30 6984 H 680.925 2.67741 -3.25411 0
M  V30 6985 H 679.649 2.56943 -2.01614 0
M  V30 6986 H 678.308 1.04998 -3.51242 0
M  V30 6987 H 677.956 3.52488 -3.58834 0
M  V30 6988 H 677.656 2.77823 -5.17772 0
M  V30 6989 H 679.18 3.66348 -4.88489 0
M  V30 6990 H 680.594 1.48756 -5.53665 0
M  V30 6991 H 678.991 0.810513 -5.94601 0
M  V30 6992 H 680.061 -0.0801163 -4.84834 0
M  V30 6993 N 681.404 1.57128 0.121893 0
M  V30 6994 C 682.367 1.99197 1.13372 0
M  V30 6995 C 683.367 0.881728 1.3447 0
M  V30 6996 O 684.557 1.14783 1.31036 0
M  V30 6997 C 681.689 2.32963 2.4888 0
M  V30 6998 H 682.882 2.89788 0.772204 0
M  V30 6999 H 680.435 1.51952 0.366093 0
M  V30 7000 H 681.17 1.45243 2.89957 0
M  V30 7001 H 680.955 3.13934 2.34921 0
M  V30 7002 H 682.445 2.66261 3.21706 0
M  V30 7003 N 682.882 -0.391992 1.52647 0
M  V30 7004 C 684.128 -1.139 1.67793 0
M  V30 7005 C 684.461 -1.89711 0.41514 0
M  V30 7006 O 683.736 -1.85431 -0.586979 0
M  V30 7007 C 684.019 -2.11966 2.91105 0
M  V30 7008 C 683.872 -1.39939 4.27478 0
M  V30 7009 C 685.191 -3.1243 3.09961 0
M  V30 7010 H 682.31 -0.412707 0.610608 0
M  V30 7011 H 684.952 -0.422725 1.85238 0
M  V30 7012 H 683.102 -2.73048 2.76364 0
M  V30 7013 H 684.774 -0.818439 4.53982 0
M  V30 7014 H 683.017 -0.701246 4.28095 0
M  V30 7015 H 683.688 -2.1158 5.09841 0
M  V30 7016 H 686.164 -2.61435 3.23714 0
M  V30 7017 H 685.04 -3.78294 3.97725 0
M  V30 7018 H 685.301 -3.81127 2.24042 0
M  V30 7019 N 684.36 -1.4356 -0.65026 0
M  V30 7020 C 685.588 -1.48779 -1.43779 0
M  V30 7021 C 686.003 -0.106593 -1.88499 0
M  V30 7022 O 685.36 0.883766 -1.59674 0
M  V30 7023 C 685.411 -2.43618 -2.67081 0
M  V30 7024 O 685.132 -3.76367 -2.24231 0
M  V30 7025 C 686.633 -2.5811 -3.60409 0
M  V30 7026 H 683.853 -0.50521 -0.441593 0
M  V30 7027 H 686.397 -1.88332 -0.796941 0
M  V30 7028 H 684.552 -2.07253 -3.273 0
M  V30 7029 H 684.966 -4.27394 -3.0403 0
M  V30 7030 H 686.44 -3.28539 -4.43583 0
M  V30 7031 H 686.917 -1.627 -4.07953 0
M  V30 7032 H 687.523 -2.95298 -3.0607 0
M  V30 7033 N 685.838 0.888903 -1.30139 0
M  V30 7034 C 687.087 1.63507 -1.18103 0
M  V30 7035 C 687.4 1.93808 0.264141 0
M  V30 7036 O 688.606 2.66744 0.505966 0
M  V30 7037 C 687.062 2.94673 -2.0663 0
M  V30 7038 C 686.67 2.71926 -3.56034 0
M  V30 7039 C 688.414 3.72626 -2.03346 0
M  V30 7040 C 686.321 3.98884 -4.3663 0
M  V30 7041 H 685.251 0.613426 -0.438435 0
M  V30 7042 H 687.902 0.984427 -1.54859 0
M  V30 7043 H 686.284 3.61009 -1.62754 0
M  V30 7044 H 687.458 2.14116 -4.08033 0
M  V30 7045 H 685.773 2.07353 -3.61101 0
M  V30 7046 H 688.37 4.66775 -2.60816 0
M  V30 7047 H 688.713 4.03712 -1.016 0
M  V30 7048 H 689.246 3.13147 -2.45324 0
M  V30 7049 H 685.985 3.72959 -5.39056 0
M  V30 7050 H 685.505 4.56214 -3.89396 0
M  V30 7051 H 687.184 4.66938 -4.47859 0
M  V30 7052 N 687.317 1.12792 1.10072 0
M  V30 7053 C 688.542 0.908838 1.86427 0
M  V30 7054 C 688.967 -0.536793 1.80278 0
M  V30 7055 O 688.325 -1.38033 1.17543 0
M  V30 7056 C 688.373 1.39295 3.3261 0
M  V30 7057 O 687.477 0.573846 4.08388 0
M  V30 7058 H 686.818 0.326234 0.578331 0
M  V30 7059 H 689.348 1.50094 1.39043 0
M  V30 7060 H 689.358 1.39366 3.83459 0
M  V30 7061 H 688.033 2.44555 3.36401 0
M  V30 7062 H 686.61 0.640438 3.67359 0
M  V30 7063 N 688.795 -1.27931 0.920396 0
M  V30 7064 C 689.725 -2.29487 0.431024 0
M  V30 7065 C 690.706 -1.62435 -0.504861 0
M  V30 7066 O 691.891 -1.89797 -0.411176 0
M  V30 7067 C 689.021 -3.45788 -0.323709 0
M  V30 7068 C 687.975 -4.24784 0.523658 0
M  V30 7069 C 687.301 -5.33488 -0.359809 0
M  V30 7070 C 688.601 -4.90874 1.78437 0
M  V30 7071 H 690.295 -2.70671 1.27975 0
M  V30 7072 H 687.841 -1.30121 0.616813 0
M  V30 7073 H 689.794 -4.15927 -0.676952 0
M  V30 7074 H 688.518 -3.03502 -1.2064 0
M  V30 7075 H 687.177 -3.56382 0.85951 0
M  V30 7076 H 686.825 -4.87445 -1.24124 0
M  V30 7077 H 686.525 -5.87247 0.203605 0
M  V30 7078 H 688.049 -6.06472 -0.708787 0
M  V30 7079 H 689.463 -5.53339 1.49963 0
M  V30 7080 H 687.86 -5.54659 2.29071 0
M  V30 7081 H 688.93 -4.14988 2.50824 0
M  V30 7082 N 690.273 -0.685099 -1.4193 0
M  V30 7083 C 691.236 -0.0222632 -2.29189 0
M  V30 7084 C 692.236 0.7186 -1.4385 0
M  V30 7085 O 693.426 0.555058 -1.6512 0
M  V30 7086 C 690.558 0.979013 -3.2654 0
M  V30 7087 H 691.751 -0.790424 -2.89296 0
M  V30 7088 H 689.304 -0.448012 -1.49742 0
M  V30 7089 H 690.039 1.77531 -2.71392 0
M  V30 7090 H 689.824 0.451037 -3.89497 0
M  V30 7091 H 691.314 1.44091 -3.91954 0
M  V30 7092 N 691.751 1.51645 -0.429126 0
M  V30 7093 C 692.981 2.06133 0.138793 0
M  V30 7094 C 693.389 1.29735 1.37716 0
M  V30 7095 O 692.732 0.347955 1.80375 0
M  V30 7096 C 692.794 3.55504 0.534493 0
M  V30 7097 C 692.458 4.53098 -0.595917 0
M  V30 7098 C 693.455 4.98815 -1.46558 0
M  V30 7099 C 691.14 4.96296 -0.774309 0
M  V30 7100 C 693.134 5.86394 -2.4984 0
M  V30 7101 C 690.821 5.83667 -1.81042 0
M  V30 7102 C 691.819 6.28613 -2.67086 0
M  V30 7103 O 691.507 7.14251 -3.68919 0
M  V30 7104 H 691.239 0.675833 0.0150263 0
M  V30 7105 H 693.793 1.96301 -0.604584 0
M  V30 7106 H 692.023 3.63092 1.33045 0
M  V30 7107 H 693.712 3.92545 1.03262 0
M  V30 7108 H 694.478 4.66143 -1.33925 0
M  V30 7109 H 690.357 4.60859 -0.114178 0
M  V30 7110 H 693.901 6.21398 -3.17034 0
M  V30 7111 H 689.798 6.15753 -1.93698 0
M  V30 7112 H 690.566 7.3241 -3.65402 0
M  V30 7113 N 693.229 0.160201 1.56784 0
M  V30 7114 C 694.454 -0.497373 2.01348 0
M  V30 7115 C 694.879 -1.56757 1.03966 0
M  V30 7116 O 694.237 -1.81292 0.0174455 0
M  V30 7117 C 694.285 -1.0628 3.44582 0
M  V30 7118 O 693.389 -2.17723 3.50244 0
M  V30 7119 H 692.73 -0.120295 0.653012 0
M  V30 7120 H 695.26 0.260821 2.02931 0
M  V30 7121 H 695.27 -1.38819 3.83658 0
M  V30 7122 H 693.945 -0.279166 4.14962 0
M  V30 7123 H 692.522 -1.86313 3.2302 0
M  V30 7124 N 694.707 -1.5719 -0.113559 0
M  V30 7125 C 695.953 -1.85412 -0.821597 0
M  V30 7126 C 696.286 -0.746722 -1.7927 0
M  V30 7127 O 695.561 0.246971 -1.92926 0
M  V30 7128 C 695.844 -3.24233 -1.56669 0
M  V30 7129 C 695.697 -4.45578 -0.614823 0
M  V30 7130 C 697.016 -3.60697 -2.52161 0
M  V30 7131 H 694.135 -0.674406 -0.29723 0
M  V30 7132 H 696.777 -1.89807 -0.085694 0
M  V30 7133 H 694.927 -3.20617 -2.19401 0
M  V30 7134 H 696.599 -4.613 0.00407137 0
M  V30 7135 H 694.842 -4.33738 0.0732332 0
M  V30 7136 H 695.513 -5.39395 -1.17292 0
M  V30 7137 H 697.989 -3.65139 -1.99532 0
M  V30 7138 H 696.865 -4.58798 -3.01323 0
M  V30 7139 H 697.126 -2.88403 -3.35076 0
M  V30 7140 N 696.185 0.383891 -1.52853 0
M  V30 7141 C 697.132 1.46924 -1.77995 0
M  V30 7142 C 698.102 1.53958 -0.623396 0
M  V30 7143 O 699.287 1.70134 -0.863657 0
M  V30 7144 C 696.427 2.84093 -1.95921 0
M  V30 7145 C 695.54 2.86171 -3.23621 0
M  V30 7146 C 694.675 4.14799 -3.31836 0
M  V30 7147 C 693.714 4.10948 -4.53639 0
M  V30 7148 N 692.851 5.31192 -4.59107 0
M  V30 7149 H 697.691 1.24786 -2.70615 0
M  V30 7150 H 695.228 0.605265 -1.34071 0
M  V30 7151 H 697.186 3.63755 -2.04299 0
M  V30 7152 H 695.816 3.04671 -1.06656 0
M  V30 7153 H 694.868 1.9885 -3.24288 0
M  V30 7154 H 696.18 2.79194 -4.13343 0
M  V30 7155 H 695.334 5.02867 -3.39425 0
M  V30 7156 H 694.073 4.24505 -2.40097 0
M  V30 7157 H 693.078 3.21268 -4.46169 0
M  V30 7158 H 694.303 4.0286 -5.467 0
M  V30 7159 H 692.249 5.41518 -3.70262 0
M  V30 7160 H 692.166 5.26311 -5.42708 0
M  V30 7161 H 693.434 6.21143 -4.70958 0
M  V30 7162 N 697.663 1.43903 0.642637 0
M  V30 7163 C 698.61 1.49881 1.75512 0
M  V30 7164 C 699.58 0.347538 1.62423 0
M  V30 7165 O 700.765 0.556177 1.82514 0
M  V30 7166 C 697.905 1.43797 3.13714 0
M  V30 7167 C 697.018 2.6921 3.37861 0
M  V30 7168 C 696.153 2.5504 4.6597 0
M  V30 7169 C 695.192 3.75671 4.83257 0
M  V30 7170 N 694.329 3.60247 6.02633 0
M  V30 7171 H 699.169 2.44935 1.69737 0
M  V30 7172 H 696.706 1.21572 0.828165 0
M  V30 7173 H 698.664 1.38262 3.93624 0
M  V30 7174 H 697.294 0.523173 3.18532 0
M  V30 7175 H 696.346 2.8498 2.51973 0
M  V30 7176 H 697.658 3.58786 3.46517 0
M  V30 7177 H 696.812 2.47273 5.54023 0
M  V30 7178 H 695.551 1.63006 4.59653 0
M  V30 7179 H 694.556 3.83836 3.93637 0
M  V30 7180 H 695.781 4.68728 4.91397 0
M  V30 7181 H 693.727 2.70955 5.97427 0
M  V30 7182 H 693.644 4.43431 6.12295 0
M  V30 7183 H 694.912 3.56351 6.93278 0
M  V30 7184 N 699.141 -0.881989 1.30609 0
M  V30 7185 C 700.074 -1.99066 1.11571 0
M  V30 7186 C 701.052 -1.62584 0.022516 0
M  V30 7187 O 702.236 -1.87671 0.176644 0
M  V30 7188 C 699.363 -3.3134 0.702237 0
M  V30 7189 C 698.409 -3.86807 1.79673 0
M  V30 7190 S 699.242 -4.13735 3.39976 0
M  V30 7191 C 700.398 -5.49024 3.00538 0
M  V30 7192 H 700.631 -2.1491 2.05429 0
M  V30 7193 H 698.164 -1.03074 1.14957 0
M  V30 7194 H 700.122 -4.07796 0.470415 0
M  V30 7195 H 698.783 -3.13349 -0.217034 0
M  V30 7196 H 697.976 -4.82397 1.45977 0
M  V30 7197 H 697.578 -3.17102 1.98298 0
M  V30 7198 H 699.87 -6.30208 2.48684 0
M  V30 7199 H 700.813 -5.8766 3.95046 0
M  V30 7200 H 701.221 -5.11726 2.3832 0
M  V30 7201 N 700.619 -1.13374 -1.09472 0
M  V30 7202 C 701.552 -0.754354 -2.15371 0
M  V30 7203 C 702.53 0.259205 -1.60521 0
M  V30 7204 O 703.714 0.150819 -1.87896 0
M  V30 7205 C 700.841 -0.118197 -3.38494 0
M  V30 7206 C 699.887 -1.10017 -4.12066 0
M  V30 7207 S 700.72 -2.63242 -4.6633 0
M  V30 7208 C 701.876 -2.00984 -5.92753 0
M  V30 7209 H 702.109 -1.65135 -2.4722 0
M  V30 7210 H 699.642 -0.953838 -1.21414 0
M  V30 7211 H 701.6 0.242447 -4.09783 0
M  V30 7212 H 700.261 0.756065 -3.04865 0
M  V30 7213 H 699.454 -0.60287 -5.00381 0
M  V30 7214 H 699.056 -1.40426 -3.46636 0
M  V30 7215 H 701.348 -1.35863 -6.63738 0
M  V30 7216 H 702.291 -2.8738 -6.47162 0
M  V30 7217 H 702.699 -1.46161 -5.4525 0
M  V30 7218 N 702.098 1.27442 -0.927168 0
M  V30 7219 C 703.045 2.26863 -0.424459 0
M  V30 7220 C 704.015 1.5813 0.508346 0
M  V30 7221 O 705.2 1.85946 0.42762 0
M  V30 7222 C 702.34 3.43639 0.31718 0
M  V30 7223 C 701.453 4.27087 -0.649675 0
M  V30 7224 C 700.588 5.31082 0.111753 0
M  V30 7225 C 699.627 6.062 -0.847843 0
M  V30 7226 N 698.764 7.01999 -0.119074 0
M  V30 7227 H 703.604 2.69239 -1.27728 0
M  V30 7228 H 701.141 1.32394 -0.641106 0
M  V30 7229 H 703.099 4.10155 0.763486 0
M  V30 7230 H 701.729 3.02217 1.13424 0
M  V30 7231 H 700.781 3.60491 -1.21451 0
M  V30 7232 H 702.093 4.79242 -1.38307 0
M  V30 7233 H 701.247 6.03544 0.618 0
M  V30 7234 H 699.986 4.7973 0.878114 0
M  V30 7235 H 698.991 5.32577 -1.36534 0
M  V30 7236 H 700.216 6.59642 -1.61398 0
M  V30 7237 H 698.162 6.52977 0.629051 0
M  V30 7238 H 698.079 7.5184 -0.792046 0
M  V30 7239 H 699.347 7.78638 0.366537 0
M  V30 7240 N 703.576 0.692616 1.41565 0
M  V30 7241 C 704.853 0.150496 1.9502 0
M  V30 7242 C 705.233 -1.33881 1.63215 0
M  V30 7243 O 704.581 -2.08378 0.937598 0
M  V30 7244 C 704.791 0.438636 3.46233 0
M  V30 7245 C 706.139 0.364777 4.2303 0
M  V30 7246 O 707.163 0.373383 3.54238 0
M  V30 7247 O 706.022 0.32234 5.45549 0
M  V30 7248 H 703.116 0.0132454 0.826894 0
M  V30 7249 H 705.662 0.768574 1.51298 0
M  V30 7250 H 704.434 1.46962 3.62654 0
M  V30 7251 H 704.057 -0.210562 3.97042 0
M  V30 7252 N 705.054 -1.51416 0.437162 0
M  V30 7253 C 706.002 -2.29328 -0.388765 0
M  V30 7254 C 706.996 -1.35171 -1.02104 0
M  V30 7255 O 708.202 -1.52513 -0.956024 0
M  V30 7256 H 704.577 -0.738048 -0.144183 0
M  V30 7257 H 706.548 -2.96995 0.289212 0
M  V30 7258 C 705.297 -3.14741 -1.47761 0
M  V30 7259 H 704.62 -3.8708 -1.00045 0
M  V30 7260 H 706.06 -3.72313 -2.02877 0
M  V30 7261 C 704.519 -2.30105 -2.46076 0
M  V30 7262 O 705.049 -1.96055 -3.50607 0
M  V30 7263 N 703.255 -1.93331 -2.1696 0
M  V30 7264 H 702.802 -2.2122 -1.31983 0
M  V30 7265 H 702.76 -1.36999 -2.82982 0
M  V30 7266 N 706.532 -0.168513 -1.56696 0
M  V30 7267 C 707.48 0.779791 -2.19139 0
M  V30 7268 C 708.474 1.23957 -1.1546 0
M  V30 7269 O 709.68 1.20555 -1.33666 0
M  V30 7270 H 706.055 0.269739 -0.701958 0
M  V30 7271 H 708.026 0.229156 -2.97519 0
M  V30 7272 C 706.775 2.00003 -2.84419 0
M  V30 7273 H 706.098 1.65527 -3.63924 0
M  V30 7274 H 707.538 2.64251 -3.31583 0
M  V30 7275 C 705.997 2.82187 -1.84044 0
M  V30 7276 O 706.527 3.79247 -1.32418 0
M  V30 7277 N 704.733 2.47145 -1.52864 0
M  V30 7278 H 704.28 1.68277 -1.9504 0
M  V30 7279 H 704.238 3.02422 -0.859569 0
M  V30 7280 N 708.01 1.57248 0.105221 0
M  V30 7281 C 708.94 2.04374 1.12931 0
M  V30 7282 C 709.921 0.93074 1.42377 0
M  V30 7283 O 711.106 1.20136 1.52581 0
M  V30 7284 C 708.236 2.45967 2.45189 0
M  V30 7285 C 707.19 3.60838 2.30174 0
M  V30 7286 C 706.516 3.88374 3.67518 0
M  V30 7287 C 707.816 4.92084 1.75073 0
M  V30 7288 H 709.51 2.9018 0.737287 0
M  V30 7289 H 707.056 1.39601 0.353211 0
M  V30 7290 H 709.009 2.77542 3.17094 0
M  V30 7291 H 707.733 1.57148 2.86308 0
M  V30 7292 H 706.392 3.29493 1.60716 0
M  V30 7293 H 706.04 2.96739 4.06147 0
M  V30 7294 H 705.74 4.65703 3.58321 0
M  V30 7295 H 707.264 4.22415 4.40906 0
M  V30 7296 H 708.678 5.22106 2.36809 0
M  V30 7297 H 707.075 5.73507 1.76662 0
M  V30 7298 H 708.145 4.79684 0.709347 0
M  V30 7299 N 709.488 -0.375779 1.53054 0
M  V30 7300 C 710.734 -1.12114 1.68992 0
M  V30 7301 C 711.067 -1.8926 0.435238 0
M  V30 7302 O 710.342 -1.86044 -0.567278 0
M  V30 7303 C 710.625 -2.08867 2.93337 0
M  V30 7304 C 710.478 -1.35397 4.28938 0
M  V30 7305 C 711.797 -3.09124 3.13257 0
M  V30 7306 H 708.916 -0.406207 0.614951 0
M  V30 7307 H 711.558 -0.403054 1.85676 0
M  V30 7308 H 709.708 -2.70102 2.79244 0
M  V30 7309 H 711.38 -0.770242 4.54824 0
M  V30 7310 H 709.623 -0.655801 4.28814 0
M  V30 7311 H 710.294 -2.06161 5.12056 0
M  V30 7312 H 712.77 -2.57987 3.26469 0
M  V30 7313 H 711.646 -3.74054 4.01715 0
M  V30 7314 H 711.907 -3.78729 2.28072 0
M  V30 7315 N 710.966 -1.44241 -0.634997 0
M  V30 7316 C 712.382 -1.28043 -0.952742 0
M  V30 7317 C 712.582 -0.21338 -2.00367 0
M  V30 7318 O 711.638 0.402042 -2.49279 0
M  V30 7319 C 712.951 -2.65076 -1.41968 0
M  V30 7320 C 714.499 -2.72755 -1.53537 0
M  V30 7321 C 714.974 -4.10249 -2.03616 0
M  V30 7322 N 716.465 -4.12406 -2.10892 0
M  V30 7323 C 717.2 -5.15641 -2.50803 0
M  V30 7324 N 716.696 -6.29239 -2.89879 0
M  V30 7325 N 718.489 -5.02995 -2.50903 0
M  V30 7326 H 710.64 -2.12315 0.060098 0
M  V30 7327 H 712.903 -0.947326 -0.0357325 0
M  V30 7328 H 712.609 -3.44213 -0.721804 0
M  V30 7329 H 712.483 -2.91704 -2.39141 0
M  V30 7330 H 714.87 -1.93939 -2.22422 0
M  V30 7331 H 714.951 -2.49872 -0.547496 0
M  V30 7332 H 714.595 -4.8954 -1.35327 0
M  V30 7333 H 714.525 -4.30507 -3.03268 0
M  V30 7334 H 717.016 -3.30417 -1.83393 0
M  V30 7335 H 717.329 -7.03827 -3.19135 0
M  V30 7336 H 715.674 -6.32683 -2.8764 0
M  V30 7337 H 718.865 -4.13306 -2.19763 0
M  V30 7338 H 719.038 -5.83574 -2.81683 0
M  V30 7339 N 712.444 0.87505 -1.31075 0
M  V30 7340 C 713.394 1.96933 -1.14898 0
M  V30 7341 C 714.378 1.60783 -0.0613703 0
M  V30 7342 O 715.57 1.74678 -0.285751 0
M  V30 7343 C 712.699 3.3253 -0.853166 0
M  V30 7344 C 711.785 3.74963 -1.98151 0
M  V30 7345 N 712.176 3.89403 -3.22799 0
M  V30 7346 C 710.474 4.04436 -1.8801 0
M  V30 7347 C 711.175 4.25563 -3.96574 0
M  V30 7348 N 710.151 4.3597 -3.24701 0
M  V30 7349 H 713.953 2.06201 -2.09424 0
M  V30 7350 H 711.467 1.06551 -1.22558 0
M  V30 7351 H 713.464 4.10666 -0.718266 0
M  V30 7352 H 712.124 3.24592 0.0839218 0
M  V30 7353 H 713.135 3.74266 -3.57974 0
M  V30 7354 H 709.812 4.04915 -1.01733 0
M  V30 7355 H 711.202 4.44375 -5.03965 0
M  V30 7356 N 713.922 1.13953 1.08869 0
M  V30 7357 C 714.852 0.844824 2.17681 0
M  V30 7358 C 715.833 -0.198213 1.68941 0
M  V30 7359 O 717.018 -0.0559073 1.9412 0
M  V30 7360 C 714.148 0.316325 3.45856 0
M  V30 7361 C 713.102 1.29426 4.07962 0
M  V30 7362 C 712.428 0.625275 5.31031 0
M  V30 7363 C 713.728 2.65484 4.49795 0
M  V30 7364 H 715.422 1.75471 2.42591 0
M  V30 7365 H 712.968 0.845116 1.16592 0
M  V30 7366 H 714.921 0.0977876 4.21287 0
M  V30 7367 H 713.645 -0.628972 3.20486 0
M  V30 7368 H 712.304 1.49889 3.34558 0
M  V30 7369 H 711.952 -0.325678 5.01945 0
M  V30 7370 H 711.652 1.27777 5.73539 0
M  V30 7371 H 713.176 0.416152 6.0918 0
M  V30 7372 H 714.59 2.48957 5.16424 0
M  V30 7373 H 712.987 3.26963 5.03205 0
M  V30 7374 H 714.057 3.22717 3.61914 0
M  V30 7375 N 715.4 -1.26948 0.933913 0
M  V30 7376 C 716.677 -1.89212 0.495784 0
M  V30 7377 C 717.057 -1.84469 -1.02637 0
M  V30 7378 O 716.405 -1.29409 -1.88323 0
M  V30 7379 C 716.615 -3.32865 1.0489 0
M  V30 7380 C 717.963 -4.09749 1.11315 0
M  V30 7381 O 718.987 -3.41905 0.998966 0
M  V30 7382 O 717.846 -5.31061 1.28983 0
M  V30 7383 H 714.94 -0.811284 0.160459 0
M  V30 7384 H 717.486 -1.35171 1.02601 0
M  V30 7385 H 716.258 -3.30642 2.09265 0
M  V30 7386 H 715.881 -3.94435 0.500692 0
M  V30 7387 N 716.879 -0.700114 -1.41195 0
M  V30 7388 C 717.842 -0.0465706 -2.29153 0
M  V30 7389 C 718.842 0.703302 -1.44604 0
M  V30 7390 O 720.032 0.537513 -1.657 0
M  V30 7391 C 717.164 0.944324 -3.2756 0
M  V30 7392 H 718.357 -0.821064 -2.88442 0
M  V30 7393 H 715.91 -0.463869 -1.49258 0
M  V30 7394 H 716.645 1.74642 -2.73259 0
M  V30 7395 H 716.43 0.409701 -3.89954 0
M  V30 7396 H 717.92 1.39925 -3.9346 0
M  V30 7397 N 718.357 1.51182 -0.445186 0
M  V30 7398 C 719.597 2.04061 0.117717 0
M  V30 7399 C 719.961 1.32158 1.39278 0
M  V30 7400 O 721.162 1.75452 2.03642 0
M  V30 7401 C 719.433 3.55933 0.323445 0
M  V30 7402 S 720.992 4.30516 0.848627 0
M  V30 7403 H 717.81 0.710442 0.028165 0
M  V30 7404 H 720.412 1.85858 -0.606391 0
M  V30 7405 H 719.116 4.0583 -0.610764 0
M  V30 7406 H 718.647 3.78444 1.07441 0
M  V30 7407 H 720.662 4.48382 2.12528 0
M  V30 7408 N 719.835 0.176821 1.56605 0
M  V30 7409 C 720.745 -0.763682 2.21822 0
M  V30 7410 C 721.761 -1.24889 1.21156 0
M  V30 7411 O 722.937 -1.29987 1.53836 0
M  V30 7412 C 720.002 -1.97352 2.8505 0
M  V30 7413 C 719.063 -1.53466 4.00932 0
M  V30 7414 C 718.296 -2.68682 4.61135 0
M  V30 7415 O 718.519 -3.85694 4.20234 0
M  V30 7416 O 717.453 -2.42442 5.50913 0
M  V30 7417 H 721.279 -0.238363 3.02763 0
M  V30 7418 H 718.864 -0.0516331 1.49311 0
M  V30 7419 H 720.746 -2.68096 3.25119 0
M  V30 7420 H 719.421 -2.48779 2.07101 0
M  V30 7421 H 718.328 -0.796551 3.65521 0
M  V30 7422 H 719.661 -1.06724 4.8049 0
M  V30 7423 N 721.313 -1.57302 -0.09688 0
M  V30 7424 C 722.541 -1.90202 -0.814295 0
M  V30 7425 C 722.956 -0.770344 -1.72369 0
M  V30 7426 O 722.313 0.257764 -1.8067 0
M  V30 7427 C 722.364 -3.22708 -1.62916 0
M  V30 7428 O 722.085 -4.31522 -0.756343 0
M  V30 7429 C 723.586 -3.69459 -2.44979 0
M  V30 7430 H 720.806 -0.629275 -0.232925 0
M  V30 7431 H 723.35 -2.04364 -0.0746482 0
M  V30 7432 H 721.505 -3.1015 -2.32133 0
M  V30 7433 H 721.919 -5.07604 -1.32054 0
M  V30 7434 H 723.393 -4.64875 -2.9765 0
M  V30 7435 H 723.87 -2.97211 -3.23361 0
M  V30 7436 H 724.476 -3.84879 -1.80964 0
M  V30 7437 N 722.791 0.367657 -1.53252 0
M  V30 7438 C 723.724 1.47264 -1.74323 0
M  V30 7439 C 724.702 1.51458 -0.591535 0
M  V30 7440 O 725.886 1.69542 -0.823883 0
M  V30 7441 C 723.013 2.85637 -1.82015 0
M  V30 7442 C 722.059 2.99176 -3.03967 0
M  V30 7443 S 722.892 2.68147 -4.63527 0
M  V30 7444 C 724.048 4.08673 -4.74065 0
M  V30 7445 H 724.281 1.29169 -2.67773 0
M  V30 7446 H 721.814 0.561866 -1.43814 0
M  V30 7447 H 723.772 3.65365 -1.87132 0
M  V30 7448 H 722.433 3.01043 -0.896195 0
M  V30 7449 H 721.626 4.00511 -3.05953 0
M  V30 7450 H 721.228 2.27367 -2.96952 0
M  V30 7451 H 723.52 5.02889 -4.53992 0
M  V30 7452 H 724.463 4.11693 -5.7612 0
M  V30 7453 H 724.871 3.95576 -4.02716 0
M  V30 7454 N 724.269 1.44576 0.627338 0
M  V30 7455 C 725.517 1.47267 1.38408 0
M  V30 7456 C 725.838 0.107971 1.94701 0
M  V30 7457 O 725.108 -0.860206 1.76004 0
M  V30 7458 H 723.688 0.542276 0.513756 0
M  V30 7459 H 726.35 1.80383 0.738099 0
M  V30 7460 H 725.446 2.20025 2.21349 0
M  V30 7461 N 725.747 -0.868086 1.31537 0
M  V30 7462 C 726.695 -1.99688 1.1928 0
M  V30 7463 C 727.689 -1.69101 0.100656 0
M  V30 7464 O 728.895 -1.78073 0.262677 0
M  V30 7465 H 725.27 -0.655032 0.369374 0
M  V30 7466 H 727.241 -2.07157 2.14776 0
M  V30 7467 C 725.99 -3.35338 0.918892 0
M  V30 7468 H 725.313 -3.59396 1.75142 0
M  V30 7469 H 726.753 -4.14909 0.873311 0
M  V30 7470 C 725.212 -3.34769 -0.378366 0
M  V30 7471 O 725.742 -3.76716 -1.39456 0
M  V30 7472 N 723.948 -2.87895 -0.39557 0
M  V30 7473 H 723.495 -2.53954 0.431889 0
M  V30 7474 H 723.453 -2.87897 -1.26344 0
M  V30 7475 N 727.225 -1.14528 -1.08264 0
M  V30 7476 C 728.188 -0.83632 -2.13397 0
M  V30 7477 C 729.188 0.159715 -1.60005 0
M  V30 7478 O 730.378 -0.0688098 -1.74064 0
M  V30 7479 C 727.51 -0.246973 -3.40004 0
M  V30 7480 H 728.703 -1.76808 -2.42237 0
M  V30 7481 H 726.256 -0.951509 -1.24 0
M  V30 7482 H 726.991 0.693436 -3.168 0
M  V30 7483 H 726.776 -0.964412 -3.80055 0
M  V30 7484 H 728.266 -0.0480679 -4.17572 0
M  V30 7485 N 728.703 1.26451 -0.940633 0
M  V30 7486 C 729.931 1.97868 -0.604642 0
M  V30 7487 C 730.346 1.70051 0.820251 0
M  V30 7488 O 729.703 0.96843 1.54686 0
M  V30 7489 C 729.754 3.51684 -0.836689 0
M  V30 7490 O 729.475 3.78533 -2.20554 0
M  V30 7491 C 730.976 4.40343 -0.511169 0
M  V30 7492 H 728.196 0.631105 -0.227919 0
M  V30 7493 H 730.74 1.60979 -1.26119 0
M  V30 7494 H 728.895 3.86736 -0.226759 0
M  V30 7495 H 729.309 4.73065 -2.26517 0
M  V30 7496 H 730.783 5.47229 -0.724157 0
M  V30 7497 H 731.26 4.35694 0.553815 0
M  V30 7498 H 731.866 4.10834 -1.0998 0
M  V30 7499 N 730.181 0.707592 1.40822 0
M  V30 7500 C 731.144 0.0587224 2.29125 0
M  V30 7501 C 732.144 -0.695624 1.44975 0
M  V30 7502 O 733.334 -0.528718 1.65983 0
M  V30 7503 C 730.466 -0.926939 3.28056 0
M  V30 7504 H 731.659 0.836349 2.88002 0
M  V30 7505 H 729.212 0.471778 1.4901 0
M  V30 7506 H 729.947 -1.7319 2.74182 0
M  V30 7507 H 729.732 -0.389015 3.90165 0
M  V30 7508 H 731.222 -1.37837 3.94196 0
M  V30 7509 N 731.66 -1.50943 0.453197 0
M  V30 7510 C 732.909 -2.01402 -0.10951 0
M  V30 7511 C 733.222 -1.3411 -1.42386 0
M  V30 7512 O 734.428 -1.75626 -2.07045 0
M  V30 7513 C 732.884 -3.5906 -0.245693 0
M  V30 7514 C 732.492 -4.353 1.05916 0
M  V30 7515 C 734.236 -4.17617 -0.761318 0
M  V30 7516 C 732.143 -5.84699 0.887752 0
M  V30 7517 H 731.073 -0.752674 -0.0447013 0
M  V30 7518 H 733.724 -1.73913 0.585375 0
M  V30 7519 H 732.106 -3.83062 -1.00395 0
M  V30 7520 H 733.28 -4.23034 1.82698 0
M  V30 7521 H 731.595 -3.88269 1.50452 0
M  V30 7522 H 734.192 -5.26963 -0.906306 0
M  V30 7523 H 734.535 -3.77824 -1.74799 0
M  V30 7524 H 735.068 -3.97753 -0.0609416 0
M  V30 7525 H 731.807 -6.28933 1.84726 0
M  V30 7526 H 731.327 -5.99587 0.160006 0
M  V30 7527 H 733.006 -6.44682 0.547223 0
M  V30 7528 N 733.138 -0.185124 -1.56509 0
M  V30 7529 C 734.378 0.458547 -1.9919 0
M  V30 7530 C 734.742 1.59484 -1.06906 0
M  V30 7531 O 735.943 2.30201 -1.38783 0
M  V30 7532 C 734.214 0.916263 -3.45455 0
M  V30 7533 S 735.773 1.55918 -4.10165 0
M  V30 7534 H 732.591 0.147008 -0.695636 0
M  V30 7535 H 735.193 -0.285841 -1.93399 0
M  V30 7536 H 733.897 0.0790543 -4.10324 0
M  V30 7537 H 733.428 1.69436 -3.55042 0
M  V30 7538 H 735.443 2.84771 -4.0635 0
M  V30 7539 N 734.616 1.57351 0.0885366 0
M  V30 7540 C 735.841 1.91011 0.80805 0
M  V30 7541 C 736.266 0.780009 1.71165 0
M  V30 7542 O 735.624 -0.268083 1.79307 0
M  V30 7543 C 735.672 3.23562 1.59185 0
M  V30 7544 O 734.776 3.11615 2.7013 0
M  V30 7545 H 734.117 0.625943 0.221565 0
M  V30 7546 H 736.647 2.04507 0.0617954 0
M  V30 7547 H 736.657 3.5703 1.97468 0
M  V30 7548 H 735.332 4.05398 0.928741 0
M  V30 7549 H 733.909 2.89673 2.34827 0
M  V30 7550 N 736.094 -0.359525 1.53444 0
M  V30 7551 C 737.371 -1.11756 1.6053 0
M  V30 7552 C 737.751 -2.06949 0.416587 0
M  V30 7553 O 737.099 -2.20681 -0.592628 0
M  V30 7554 C 737.309 -1.85133 2.95849 0
M  V30 7555 C 738.657 -2.3945 3.50641 0
M  V30 7556 O 739.681 -1.95251 2.97918 0
M  V30 7557 O 738.54 -3.20266 4.42823 0
M  V30 7558 H 735.634 -0.513005 0.648656 0
M  V30 7559 H 738.18 -0.362301 1.65787 0
M  V30 7560 H 736.952 -1.15694 3.73806 0
M  V30 7561 H 736.575 -2.67554 2.9411 0
M  V30 7562 N 737.572 -1.44907 -0.619662 0
M  V30 7563 C 738.519 -1.52654 -1.73105 0
M  V30 7564 C 739.489 -0.373334 -1.6185 0
M  V30 7565 O 740.674 -0.585143 -1.81606 0
M  V30 7566 C 737.814 -1.48769 -3.11387 0
M  V30 7567 C 736.927 -2.74551 -3.33535 0
M  V30 7568 C 736.062 -2.62421 -4.61854 0
M  V30 7569 C 735.101 -3.83312 -4.77219 0
M  V30 7570 N 734.238 -3.69789 -5.96826 0
M  V30 7571 H 739.078 -2.47605 -1.65819 0
M  V30 7572 H 736.615 -1.22875 -0.808719 0
M  V30 7573 H 738.573 -1.44507 -3.91374 0
M  V30 7574 H 737.203 -0.573783 -3.1766 0
M  V30 7575 H 736.255 -2.88953 -2.47408 0
M  V30 7576 H 737.567 -3.64253 -3.40765 0
M  V30 7577 H 736.721 -2.56056 -5.50019 0
M  V30 7578 H 735.46 -1.70298 -4.57001 0
M  V30 7579 H 734.465 -3.90049 -3.87481 0
M  V30 7580 H 735.69 -4.76486 -4.83878 0
M  V30 7581 H 733.636 -2.80426 -5.93041 0
M  V30 7582 H 733.553 -4.53116 -6.05163 0
M  V30 7583 H 734.821 -3.67335 -6.87521 0
M  V30 7584 N 739.05 0.861098 -1.31996 0
M  V30 7585 C 740.278 1.6474 -1.25173 0
M  V30 7586 C 740.693 1.87926 0.181425 0
M  V30 7587 O 740.05 1.4437 1.1164 0
M  V30 7588 C 740.101 3.01036 -2.0015 0
M  V30 7589 O 739.822 2.7888 -3.37872 0
M  V30 7590 C 741.323 3.95481 -2.00273 0
M  V30 7591 H 738.543 0.513314 -0.432146 0
M  V30 7592 H 741.087 1.07419 -1.74016 0
M  V30 7593 H 739.242 3.55021 -1.55046 0
M  V30 7594 H 739.656 3.65514 -3.76165 0
M  V30 7595 H 741.13 4.88403 -2.57229 0
M  V30 7596 H 741.607 4.27957 -0.987407 0
M  V30 7597 H 742.213 3.47433 -2.45296 0
M  V30 7598 N 740.528 1.15101 1.07655 0
M  V30 7599 C 741.776 0.922149 1.79836 0
M  V30 7600 C 742.097 -0.552346 1.87014 0
M  V30 7601 O 741.367 -1.40145 1.3688 0
M  V30 7602 H 739.947 0.338182 0.666064 0
M  V30 7603 H 742.609 1.45107 1.30115 0
M  V30 7604 H 741.705 1.32883 2.82398 0
M  V30 7605 N 742.006 -1.2595 0.947325 0
M  V30 7606 C 743.234 -1.97544 0.615127 0
M  V30 7607 C 743.649 -1.70484 -0.811221 0
M  V30 7608 O 743.006 -0.97662 -1.5417 0
M  V30 7609 C 743.057 -3.51236 0.855328 0
M  V30 7610 O 742.778 -3.77359 2.22558 0
M  V30 7611 C 744.279 -4.40066 0.534515 0
M  V30 7612 H 741.499 -0.629888 0.231263 0
M  V30 7613 H 744.043 -1.60308 1.26971 0
M  V30 7614 H 742.198 -3.8661 0.247266 0
M  V30 7615 H 742.612 -4.71857 2.29022 0
M  V30 7616 H 744.086 -5.46838 0.753168 0
M  V30 7617 H 744.563 -4.35982 -0.530701 0
M  V30 7618 H 745.169 -4.10245 1.12158 0
M  V30 7619 N 743.484 -0.715051 -1.40445 0
M  V30 7620 C 744.414 -0.0768699 -2.33373 0
M  V30 7621 C 745.395 0.746109 -1.52863 0
M  V30 7622 O 746.58 0.695142 -1.81332 0
M  V30 7623 C 743.71 0.846014 -3.36838 0
M  V30 7624 C 742.664 0.128694 -4.27806 0
M  V30 7625 C 741.99 1.16726 -5.21804 0
M  V30 7626 C 743.29 -1.01679 -5.12307 0
M  V30 7627 H 744.984 -0.853061 -2.8699 0
M  V30 7628 H 742.53 -0.41167 -1.3799 0
M  V30 7629 H 744.483 1.30185 -4.00786 0
M  V30 7630 H 743.207 1.6541 -2.81615 0
M  V30 7631 H 741.866 -0.307314 -3.6531 0
M  V30 7632 H 741.514 1.96838 -4.62887 0
M  V30 7633 H 741.214 0.692188 -5.83509 0
M  V30 7634 H 742.738 1.62321 -5.88629 0
M  V30 7635 H 744.152 -0.640337 -5.69713 0
M  V30 7636 H 742.549 -1.4202 -5.83053 0
M  V30 7637 H 743.619 -1.84769 -4.48317 0
M  V30 7638 N 744.962 1.50701 -0.461195 0
M  V30 7639 C 746.19 2.06681 0.0951756 0
M  V30 7640 C 746.605 1.32615 1.34382 0
M  V30 7641 O 745.962 0.392531 1.78229 0
M  V30 7642 C 746.013 3.59354 0.393316 0
M  V30 7643 O 745.734 4.30626 -0.805797 0
M  V30 7644 C 747.235 4.31926 0.997744 0
M  V30 7645 H 744.455 0.670995 -0.00267259 0
M  V30 7646 H 746.999 1.93991 -0.647137 0
M  V30 7647 H 745.154 3.7188 1.08555 0
M  V30 7648 H 745.568 5.21667 -0.544409 0
M  V30 7649 H 747.042 5.39756 1.15619 0
M  V30 7650 H 747.519 3.91772 1.98523 0
M  V30 7651 H 748.125 4.23905 0.344188 0
M  V30 7652 N 746.441 0.193421 1.56409 0
M  V30 7653 C 747.669 -0.451438 2.01915 0
M  V30 7654 C 748.084 -1.55306 1.07357 0
M  V30 7655 O 747.441 -1.82333 0.0781512 0
M  V30 7656 C 747.492 -1.00931 3.47124 0
M  V30 7657 O 747.213 0.0483623 4.38073 0
M  V30 7658 C 748.714 -1.73021 4.0814 0
M  V30 7659 H 745.934 -0.113495 0.661332 0
M  V30 7660 H 748.478 0.301636 2.02263 0
M  V30 7661 H 746.633 -1.71277 3.47481 0
M  V30 7662 H 747.047 -0.366644 5.23217 0
M  V30 7663 H 748.521 -2.07289 5.11601 0
M  V30 7664 H 748.998 -2.6333 3.51502 0
M  V30 7665 H 749.604 -1.07264 4.11551 0
M  V30 7666 N 747.919 -1.57396 -0.0801906 0
M  V30 7667 C 748.867 -2.04136 -1.11495 0
M  V30 7668 C 749.861 -0.945137 -1.40583 0
M  V30 7669 O 751.067 -1.13028 -1.40088 0
M  V30 7670 H 747.442 -0.65076 -0.37685 0
M  V30 7671 H 749.413 -2.90205 -0.694526 0
M  V30 7672 C 748.162 -2.49399 -2.42272 0
M  V30 7673 H 747.485 -3.33339 -2.20737 0
M  V30 7674 H 748.925 -2.85864 -3.13142 0
M  V30 7675 C 747.384 -1.37341 -3.07635 0
M  V30 7676 O 747.914 -0.710829 -3.95361 0
M  V30 7677 N 746.12 -1.12064 -2.68123 0
M  V30 7678 H 745.667 -1.66126 -1.96875 0
M  V30 7679 H 745.625 -0.372916 -3.12181 0
M  V30 7680 N 749.397 0.351382 -1.53633 0
M  V30 7681 C 750.813 0.693987 -1.43722 0
M  V30 7682 C 751.013 1.9274 -0.587669 0
M  V30 7683 O 750.069 2.52387 -0.0756082 0
M  V30 7684 C 751.382 0.893937 -2.87105 0
M  V30 7685 C 752.93 0.993051 -2.96829 0
M  V30 7686 C 753.405 1.22537 -4.41303 0
M  V30 7687 N 754.896 1.29275 -4.44795 0
M  V30 7688 C 755.631 1.48988 -5.53706 0
M  V30 7689 N 755.127 1.65924 -6.72637 0
M  V30 7690 N 756.92 1.51472 -5.41306 0
M  V30 7691 H 749.071 -0.459688 -2.07366 0
M  V30 7692 H 751.334 -0.143684 -0.937048 0
M  V30 7693 H 751.04 0.0592517 -3.5165 0
M  V30 7694 H 750.914 1.79795 -3.31592 0
M  V30 7695 H 753.301 1.81827 -2.32429 0
M  V30 7696 H 753.382 0.0661119 -2.55715 0
M  V30 7697 H 753.026 0.405117 -5.06282 0
M  V30 7698 H 752.956 2.16575 -4.80003 0
M  V30 7699 H 755.447 1.17743 -3.59089 0
M  V30 7700 H 755.76 1.80578 -7.51406 0
M  V30 7701 H 754.105 1.63075 -6.75597 0
M  V30 7702 H 757.296 1.37818 -4.47352 0
M  V30 7703 H 757.469 1.66493 -6.26246 0
M  V30 7704 N 750.875 1.45233 0.611969 0
M  V30 7705 C 751.808 1.48056 1.73651 0
M  V30 7706 C 752.786 0.337373 1.59061 0
M  V30 7707 O 753.97 0.537222 1.80683 0
M  V30 7708 C 751.097 1.33144 3.11433 0
M  V30 7709 C 750.143 2.51272 3.44623 0
M  V30 7710 S 750.976 4.13754 3.39953 0
M  V30 7711 C 752.132 4.013 4.80322 0
M  V30 7712 H 752.365 2.43205 1.70993 0
M  V30 7713 H 749.898 1.32763 0.788246 0
M  V30 7714 H 751.856 1.25228 3.90932 0
M  V30 7715 H 750.517 0.394734 3.1161 0
M  V30 7716 H 749.71 2.36753 4.44932 0
M  V30 7717 H 749.312 2.56027 2.72629 0
M  V30 7718 H 751.604 3.66174 5.7002 0
M  V30 7719 H 752.547 5.01506 4.99897 0
M  V30 7720 H 752.955 3.3303 4.55797 0
M  V30 7721 N 752.353 -0.854086 1.3245 0
M  V30 7722 C 753.581 -1.64074 1.26045 0
M  V30 7723 C 753.996 -1.8802 -0.171456 0
M  V30 7724 O 753.353 -1.4496 -1.10873 0
M  V30 7725 C 753.404 -2.9997 2.01743 0
M  V30 7726 O 753.125 -2.77084 3.39346 0
M  V30 7727 C 754.626 -3.94414 2.02368 0
M  V30 7728 H 751.846 -0.511015 0.434862 0
M  V30 7729 H 754.39 -1.06494 1.74583 0
M  V30 7730 H 752.545 -3.54193 1.56926 0
M  V30 7731 H 752.959 -3.63514 3.78098 0
M  V30 7732 H 754.433 -4.87032 2.59815 0
M  V30 7733 H 754.91 -4.27427 1.01009 0
M  V30 7734 H 755.516 -3.46127 2.47135 0
M  V30 7735 N 753.831 -1.1567 -1.07043 0
M  V30 7736 C 755.077 -0.9349 -1.79965 0
M  V30 7737 C 755.41 0.536464 -1.86643 0
M  V30 7738 O 754.685 1.39781 -1.35247 0
M  V30 7739 C 754.968 -1.55371 -3.24857 0
M  V30 7740 C 754.821 -3.09589 -3.26305 0
M  V30 7741 C 756.14 -1.24209 -4.22209 0
M  V30 7742 H 753.259 -0.341061 -0.653335 0
M  V30 7743 H 755.901 -1.42883 -1.25237 0
M  V30 7744 H 754.051 -1.13368 -3.71591 0
M  V30 7745 H 755.723 -3.60521 -2.87789 0
M  V30 7746 H 753.966 -3.43315 -2.65174 0
M  V30 7747 H 754.637 -3.48002 -4.28484 0
M  V30 7748 H 757.113 -1.60548 -3.8388 0
M  V30 7749 H 755.989 -1.70119 -5.21872 0
M  V30 7750 H 756.25 -0.15964 -4.41812 0
M  V30 7751 N 755.309 1.25446 -0.953992 0
M  V30 7752 C 756.555 1.9343 -0.60933 0
M  V30 7753 C 756.888 1.74542 0.851388 0
M  V30 7754 O 756.163 1.09014 1.61078 0
M  V30 7755 C 756.446 3.46844 -0.968041 0
M  V30 7756 C 756.299 3.74961 -2.48444 0
M  V30 7757 C 757.618 4.37334 -0.492641 0
M  V30 7758 H 754.737 0.702502 -0.222844 0
M  V30 7759 H 757.379 1.48076 -1.19053 0
M  V30 7760 H 755.529 3.85604 -0.473465 0
M  V30 7761 H 757.201 3.45841 -3.05273 0
M  V30 7762 H 755.444 3.20589 -2.92241 0
M  V30 7763 H 756.115 4.82246 -2.68594 0
M  V30 7764 H 758.591 4.05873 -0.916878 0
M  V30 7765 H 757.467 5.43439 -0.772331 0
M  V30 7766 H 757.728 4.37908 0.607403 0
M  V30 7767 N 756.787 0.722489 1.40064 0
M  V30 7768 C 757.719 0.0349057 2.29173 0
M  V30 7769 C 758.732 -0.716571 1.46182 0
M  V30 7770 O 759.921 -0.562806 1.69395 0
M  V30 7771 C 757.021 -0.974839 3.24577 0
M  V30 7772 C 756.194 -0.287471 4.36454 0
M  V30 7773 C 755.253 -1.20356 5.12251 0
M  V30 7774 O 754.279 -0.685753 5.65054 0
M  V30 7775 N 755.481 -2.53422 5.22262 0
M  V30 7776 H 758.246 0.800058 2.88824 0
M  V30 7777 H 755.807 0.57068 1.51509 0
M  V30 7778 H 757.799 -1.59002 3.72157 0
M  V30 7779 H 756.369 -1.6413 2.66046 0
M  V30 7780 H 755.589 0.508008 3.90913 0
M  V30 7781 H 756.877 0.189382 5.08447 0
M  V30 7782 H 756.275 -2.97981 4.80857 0
M  V30 7783 H 754.832 -3.10067 5.73325 0
M  V30 7784 N 758.265 -1.50454 0.469181 0
M  V30 7785 C 759.228 -2.2703 -0.314643 0
M  V30 7786 C 760.228 -1.31734 -0.922111 0
M  V30 7787 O 761.418 -1.55176 -0.791588 0
M  V30 7788 C 758.55 -3.08616 -1.44806 0
M  V30 7789 H 759.743 -2.97769 0.356892 0
M  V30 7790 H 757.296 -1.54698 0.223191 0
M  V30 7791 H 758.031 -2.42369 -2.1547 0
M  V30 7792 H 757.816 -3.78647 -1.01829 0
M  V30 7793 H 759.306 -3.66536 -2.00103 0
M  V30 7794 N 759.743 -0.201713 -1.56304 0
M  V30 7795 C 760.973 0.440084 -2.01858 0
M  V30 7796 C 761.381 1.55279 -1.08098 0
M  V30 7797 O 760.724 1.83529 -0.0792216 0
M  V30 7798 C 760.786 1.05091 -3.43797 0
M  V30 7799 C 760.45 0.0761208 -4.56937 0
M  V30 7800 C 761.447 -0.716951 -5.14933 0
M  V30 7801 C 759.132 -0.0368815 -5.02286 0
M  V30 7802 C 761.126 -1.60993 -6.16733 0
M  V30 7803 C 758.813 -0.933409 -6.03929 0
M  V30 7804 C 759.811 -1.71849 -6.61027 0
M  V30 7805 O 759.499 -2.59998 -7.60695 0
M  V30 7806 H 759.231 0.114139 -0.666294 0
M  V30 7807 H 761.785 -0.309672 -2.03052 0
M  V30 7808 H 760.015 1.84938 -3.3961 0
M  V30 7809 H 761.704 1.59804 -3.73118 0
M  V30 7810 H 762.47 -0.63999 -4.80759 0
M  V30 7811 H 758.349 0.564034 -4.57537 0
M  V30 7812 H 761.893 -2.22315 -6.61227 0
M  V30 7813 H 757.79 -1.01146 -6.37526 0
M  V30 7814 H 758.558 -2.53851 -7.7814 0
M  V30 7815 N 761.222 1.57436 0.0718424 0
M  V30 7816 C 762.468 1.87525 0.772149 0
M  V30 7817 C 762.801 0.79399 1.77227 0
M  V30 7818 O 762.076 -0.195733 1.93513 0
M  V30 7819 C 762.359 3.28272 1.48018 0
M  V30 7820 C 762.212 4.47052 0.49647 0
M  V30 7821 C 763.531 3.67256 2.42509 0
M  V30 7822 H 760.65 0.682049 0.279245 0
M  V30 7823 H 763.292 1.89967 0.03534 0
M  V30 7824 H 761.442 3.26321 2.10824 0
M  V30 7825 H 763.114 4.61127 -0.126375 0
M  V30 7826 H 761.357 4.33392 -0.188205 0
M  V30 7827 H 762.028 5.42315 1.02949 0
M  V30 7828 H 764.504 3.70301 1.89781 0
M  V30 7829 H 763.38 4.66626 2.89053 0
M  V30 7830 H 763.641 2.97186 3.27312 0
M  V30 7831 N 762.7 -0.34323 1.53817 0
M  V30 7832 C 763.948 -1.0813 1.70741 0
M  V30 7833 C 764.269 -1.89165 0.473461 0
M  V30 7834 O 763.539 -1.89075 -0.512605 0
M  V30 7835 H 762.119 -0.40219 0.629486 0
M  V30 7836 H 764.781 -0.384426 1.91071 0
M  V30 7837 H 763.877 -1.7585 2.57843 0
M  V30 7838 N 764.178 -1.45556 -0.604258 0
M  V30 7839 C 765.455 -1.40221 -1.36373 0
M  V30 7840 C 765.835 -0.0745195 -2.10968 0
M  V30 7841 O 765.183 0.943594 -2.08107 0
M  V30 7842 C 765.393 -2.61807 -2.30777 0
M  V30 7843 C 766.741 -3.07037 -2.93281 0
M  V30 7844 O 767.765 -2.62203 -2.41097 0
M  V30 7845 O 766.624 -3.8485 -3.88011 0
M  V30 7846 H 763.718 -0.556602 -0.611656 0
M  V30 7847 H 766.264 -1.57689 -0.627069 0
M  V30 7848 H 765.036 -3.50017 -1.74939 0
M  V30 7849 H 764.659 -2.46688 -3.11818 0
M  V30 7850 N 765.656 0.84705 -1.32902 0
M  V30 7851 C 766.902 1.60414 -1.24078 0
M  V30 7852 C 767.235 1.93217 0.195105 0
M  V30 7853 O 766.51 1.58001 1.13428 0
M  V30 7854 C 766.793 2.91951 -2.108 0
M  V30 7855 C 766.646 2.6588 -3.62805 0
M  V30 7856 C 767.965 3.93299 -1.97494 0
M  V30 7857 H 765.084 0.58206 -0.452079 0
M  V30 7858 H 767.726 0.977562 -1.62922 0
M  V30 7859 H 765.876 3.45425 -1.77802 0
M  V30 7860 H 767.548 2.18902 -4.06054 0
M  V30 7861 H 765.791 1.99716 -3.85092 0
M  V30 7862 H 766.462 3.59574 -4.1882 0
M  V30 7863 H 768.938 3.49105 -2.26417 0
M  V30 7864 H 767.814 4.8318 -2.60438 0
M  V30 7865 H 768.075 4.31887 -0.944782 0
M  V30 7866 N 767.134 1.16236 1.06428 0
M  V30 7867 C 768.084 0.835994 2.12121 0
M  V30 7868 C 769.068 -0.183955 1.59845 0
M  V30 7869 O 770.26 0.0166741 1.76992 0
M  V30 7870 C 767.389 0.337333 3.41639 0
M  V30 7871 C 766.475 1.38798 4.00744 0
M  V30 7872 N 766.866 2.59799 4.3398 0
M  V30 7873 C 765.164 1.24292 4.28331 0
M  V30 7874 C 765.865 3.27213 4.80943 0
M  V30 7875 N 764.841 2.54594 4.80294 0
M  V30 7876 H 768.643 1.75615 2.35662 0
M  V30 7877 H 766.157 1.04921 1.23957 0
M  V30 7878 H 768.154 0.0851274 4.16813 0
M  V30 7879 H 766.814 -0.57677 3.19536 0
M  V30 7880 H 767.825 2.96867 4.24371 0
M  V30 7881 H 764.502 0.389464 4.15679 0
M  V30 7882 H 765.892 4.30492 5.15874 0
M  V30 7883 N 768.612 -1.24939 0.960631 0
M  V30 7884 C 769.842 -1.96595 0.635123 0
M  V30 7885 C 770.25 -1.71538 -0.798206 0
M  V30 7886 O 769.593 -0.991727 -1.5463 0
M  V30 7887 C 769.655 -3.49994 0.821248 0
M  V30 7888 C 769.319 -3.98738 2.23287 0
M  V30 7889 C 770.316 -4.08965 3.21004 0
M  V30 7890 C 768.001 -4.32247 2.55867 0
M  V30 7891 C 769.995 -4.52025 4.49391 0
M  V30 7892 C 767.682 -4.74991 3.84482 0
M  V30 7893 C 768.68 -4.84844 4.81056 0
M  V30 7894 O 768.368 -5.26638 6.07378 0
M  V30 7895 H 768.1 -0.633265 0.23654 0
M  V30 7896 H 770.654 -1.5991 1.28911 0
M  V30 7897 H 768.884 -3.86543 0.110105 0
M  V30 7898 H 770.573 -4.02859 0.495892 0
M  V30 7899 H 771.339 -3.83302 2.97161 0
M  V30 7900 H 767.218 -4.23801 1.81421 0
M  V30 7901 H 770.762 -4.5963 5.24773 0
M  V30 7902 H 766.659 -5.00101 4.08129 0
M  V30 7903 H 767.427 -5.44807 6.10842 0
M  V30 7904 N 770.09 -0.729906 -1.39679 0
M  V30 7905 C 771.037 -0.0866063 -2.30637 0
M  V30 7906 C 772.007 0.735115 -1.48947 0
M  V30 7907 O 773.192 0.696125 -1.77648 0
M  V30 7908 C 770.332 0.818524 -3.35252 0
M  V30 7909 C 769.445 -0.0152635 -4.31997 0
M  V30 7910 C 768.58 0.890669 -5.2368 0
M  V30 7911 C 767.619 0.0518246 -6.12078 0
M  V30 7912 N 766.756 0.913411 -6.96133 0
M  V30 7913 H 771.596 -0.867925 -2.85081 0
M  V30 7914 H 769.133 -0.439673 -1.40376 0
M  V30 7915 H 771.091 1.3577 -3.9449 0
M  V30 7916 H 769.721 1.56587 -2.82277 0
M  V30 7917 H 768.773 -0.671794 -3.74421 0
M  V30 7918 H 770.085 -0.664086 -4.9436 0
M  V30 7919 H 769.239 1.49787 -5.87919 0
M  V30 7920 H 767.978 1.57328 -4.61627 0
M  V30 7921 H 766.983 -0.568209 -5.46856 0
M  V30 7922 H 768.208 -0.627497 -6.76195 0
M  V30 7923 H 766.154 1.58141 -6.36653 0
M  V30 7924 H 766.071 0.320952 -7.55318 0
M  V30 7925 H 767.339 1.50633 -7.64807 0
M  V30 7926 N 771.568 1.50203 -0.477153 0
M  V30 7927 C 772.478 2.32421 0.319027 0
M  V30 7928 C 773.494 1.43075 0.990233 0
M  V30 7929 O 774.67 1.76123 0.976873 0
M  V30 7930 C 771.735 3.17909 1.38328 0
M  V30 7931 C 770.796 4.23082 0.728036 0
M  V30 7932 C 770.029 5.04484 1.74158 0
M  V30 7933 O 770.252 4.8705 2.96881 0
M  V30 7934 O 769.186 5.8747 1.31006 0
M  V30 7935 H 773.012 3.01638 -0.353281 0
M  V30 7936 H 770.597 1.47478 -0.238891 0
M  V30 7937 H 772.479 3.70937 1.9996 0
M  V30 7938 H 771.154 2.51413 2.03895 0
M  V30 7939 H 770.061 3.7403 0.07261 0
M  V30 7940 H 771.394 4.92065 0.115216 0
M  V30 7941 N 773.046 0.209999 1.56195 0
M  V30 7942 C 774.295 -0.425106 1.97169 0
M  V30 7943 C 774.608 -1.61718 1.10031 0
M  V30 7944 O 775.814 -2.32105 1.40853 0
M  V30 7945 C 774.27 -0.80771 3.50719 0
M  V30 7946 C 773.878 0.360902 4.46544 0
M  V30 7947 C 775.622 -1.40906 4.00432 0
M  V30 7948 C 773.529 -0.0434919 5.91384 0
M  V30 7949 H 772.459 -0.162598 0.736259 0
M  V30 7950 H 775.11 0.304382 1.80958 0
M  V30 7951 H 773.492 -1.59429 3.62489 0
M  V30 7952 H 774.666 1.13846 4.46515 0
M  V30 7953 H 772.981 0.874729 4.07109 0
M  V30 7954 H 775.578 -1.72433 5.06133 0
M  V30 7955 H 775.921 -2.32081 3.45607 0
M  V30 7956 H 776.454 -0.686154 3.91838 0
M  V30 7957 H 773.193 0.834448 6.50167 0
M  V30 7958 H 772.713 -0.785598 5.94633 0
M  V30 7959 H 774.392 -0.474176 6.4526 0
M  V30 7960 N 774.524 -1.57472 -0.0634922 0
M  V30 7961 C 775.935 -1.76303 -0.614337 0
M  V30 7962 C 776.286 -0.836578 -1.77471 0
M  V30 7963 O 775.411 -0.0227184 -2.16388 0
M  V30 7964 C 776.006 -3.19709 -1.12122 0
M  V30 7965 C 774.565 -3.39856 -1.61786 0
M  V30 7966 C 773.712 -2.71975 -0.540845 0
M  V30 7967 H 776.663 -1.57864 0.162702 0
M  V30 7968 H 776.684 -3.24326 -1.98979 0
M  V30 7969 H 776.196 -3.87114 -0.276472 0
M  V30 7970 H 774.297 -2.77578 -2.48558 0
M  V30 7971 H 774.41 -4.48338 -1.68908 0
M  V30 7972 H 772.774 -2.34763 -0.987854 0
M  V30 7973 H 773.557 -3.4204 0.293856 0
M  V30 7974 N 776.003 0.335068 -1.53997 0
M  V30 7975 C 777.28 1.09188 -1.62288 0
M  V30 7976 C 777.66 2.0626 -0.449458 0
M  V30 7977 O 777.008 2.21596 0.557444 0
M  V30 7978 C 777.218 1.80403 -2.98757 0
M  V30 7979 C 778.566 2.33841 -3.54406 0
M  V30 7980 O 779.59 1.90487 -3.00987 0
M  V30 7981 O 778.449 3.1318 -4.47862 0
M  V30 7982 H 775.543 0.502621 -0.656736 0
M  V30 7983 H 778.089 0.33588 -1.66343 0
M  V30 7984 H 776.861 1.09732 -3.75599 0
M  V30 7985 H 776.484 2.62841 -2.9833 0
M  V30 7986 N 777.481 1.45874 0.596531 0
M  V30 7987 C 778.892 1.44798 1.17857 0
M  V30 7988 C 779.243 0.181443 1.95359 0
M  V30 7989 O 778.368 -0.716336 2.042 0
M  V30 7990 C 778.963 2.62333 2.14398 0
M  V30 7991 C 777.522 2.64342 2.67955 0
M  V30 7992 C 776.669 2.37244 1.43564 0
M  V30 7993 H 779.62 1.53954 0.385222 0
M  V30 7994 H 779.641 2.37063 2.97626 0
M  V30 7995 H 779.153 3.54499 1.57963 0
M  V30 7996 H 777.254 1.76213 3.28298 0
M  V30 7997 H 777.367 3.63897 3.11634 0
M  V30 7998 H 775.731 1.87022 1.72901 0
M  V30 7999 H 776.514 3.31568 0.889805 0
M  V30 8000 N 778.959 -0.83999 1.33349 0
M  V30 8001 C 780.184 -1.63249 1.27924 0
M  V30 8002 C 780.609 -1.87523 -0.147193 0
M  V30 8003 O 779.967 -1.43853 -1.10345 0
M  V30 8004 C 780.015 -2.96046 2.05886 0
M  V30 8005 O 779.119 -3.87303 1.4167 0
M  V30 8006 H 778.46 -0.49715 0.440157 0
M  V30 8007 H 780.99 -1.04512 1.75893 0
M  V30 8008 H 781 -3.45752 2.16609 0
M  V30 8009 H 779.675 -2.77701 3.09605 0
M  V30 8010 H 778.252 -3.45789 1.39585 0
M  V30 8011 N 780.437 -1.16799 -1.0581 0
M  V30 8012 C 781.662 -0.977402 -1.82925 0
M  V30 8013 C 782.087 0.469514 -1.82146 0
M  V30 8014 O 781.445 1.33576 -1.22585 0
M  V30 8015 C 781.493 -1.51543 -3.27211 0
M  V30 8016 O 780.597 -0.725021 -4.05977 0
M  V30 8017 H 779.938 -0.347474 -0.565825 0
M  V30 8018 H 782.468 -1.55151 -1.33376 0
M  V30 8019 H 782.478 -1.53502 -3.78023 0
M  V30 8020 H 781.153 -2.56872 -3.27093 0
M  V30 8021 H 779.73 -0.77634 -3.64729 0
M  V30 8022 N 781.915 1.24427 -0.967243 0
M  V30 8023 C 783.164 1.91789 -0.624478 0
M  V30 8024 C 783.477 1.76448 0.844129 0
M  V30 8025 O 784.683 2.38495 1.2974 0
M  V30 8026 C 783.139 3.43743 -1.06626 0
M  V30 8027 C 782.747 3.67771 -2.55829 0
M  V30 8028 C 784.491 4.16958 -0.79662 0
M  V30 8029 C 782.398 5.13293 -2.93742 0
M  V30 8030 H 781.328 0.71811 -0.229856 0
M  V30 8031 H 783.979 1.41081 -1.17339 0
M  V30 8032 H 782.361 3.93484 -0.445663 0
M  V30 8033 H 783.535 3.28631 -3.23015 0
M  V30 8034 H 781.85 3.07841 -2.80398 0
M  V30 8035 H 784.447 5.24171 -1.05589 0
M  V30 8036 H 784.79 4.15442 0.267163 0
M  V30 8037 H 785.323 3.73164 -1.37816 0
M  V30 8038 H 782.062 5.19931 -3.9919 0
M  V30 8039 H 781.582 5.53433 -2.3124 0
M  V30 8040 H 783.261 5.81521 -2.83623 0
M  V30 8041 N 783.393 0.737304 1.3929 0
M  V30 8042 C 784.341 0.0879867 2.32434 0
M  V30 8043 C 785.335 -0.723324 1.53181 0
M  V30 8044 O 786.541 -0.624251 1.68829 0
M  V30 8045 H 782.916 0.00965277 0.751938 0
M  V30 8046 H 784.887 0.889915 2.84821 0
M  V30 8047 C 783.636 -0.803384 3.38291 0
M  V30 8048 H 782.959 -0.18849 3.99355 0
M  V30 8049 H 784.399 -1.22528 4.0591 0
M  V30 8050 C 782.858 -1.93872 2.75527 0
M  V30 8051 O 783.388 -3.03154 2.63553 0
M  V30 8052 N 781.594 -1.72883 2.3358 0
M  V30 8053 H 781.141 -0.840005 2.43519 0
M  V30 8054 H 781.099 -2.49021 1.91927 0
M  V30 8055 N 784.871 -1.49948 0.485112 0
M  V30 8056 C 786.099 -2.06806 -0.0622824 0
M  V30 8057 C 786.514 -1.34736 -1.32256 0
M  V30 8058 O 785.871 -0.420836 -1.77582 0
M  V30 8059 C 785.922 -3.59934 -0.336096 0
M  V30 8060 O 785.643 -4.29289 0.874203 0
M  V30 8061 C 787.144 -4.33459 -0.928903 0
M  V30 8062 H 784.364 -0.670867 0.0133472 0
M  V30 8063 H 786.908 -1.92937 0.677917 0
M  V30 8064 H 785.063 -3.7356 -1.02625 0
M  V30 8065 H 785.477 -5.20735 0.627332 0
M  V30 8066 H 786.951 -5.41527 -1.07017 0
M  V30 8067 H 787.428 -3.94881 -1.92265 0
M  V30 8068 H 788.034 -4.24399 -0.276705 0
M  V30 8069 N 786.349 -0.21828 -1.56081 0
M  V30 8070 C 787.296 0.693189 -2.20144 0
M  V30 8071 C 788.266 1.19274 -1.15598 0
M  V30 8072 O 789.451 1.25243 -1.4394 0
M  V30 8073 C 786.591 1.89715 -2.88275 0
M  V30 8074 C 785.704 1.4368 -4.07407 0
M  V30 8075 C 784.839 2.59807 -4.63329 0
M  V30 8076 C 783.878 2.10492 -5.74769 0
M  V30 8077 N 783.015 3.1988 -6.24997 0
M  V30 8078 H 787.855 0.14016 -2.9767 0
M  V30 8079 H 785.392 0.0574292 -1.46988 0
M  V30 8080 H 787.35 2.60398 -3.25958 0
M  V30 8081 H 785.98 2.42311 -2.13273 0
M  V30 8082 H 785.032 0.625007 -3.7523 0
M  V30 8083 H 786.344 1.03517 -4.8794 0
M  V30 8084 H 785.498 3.38577 -5.03438 0
M  V30 8085 H 784.237 3.03256 -3.81951 0
M  V30 8086 H 783.242 1.30182 -5.34165 0
M  V30 8087 H 784.467 1.68045 -6.5798 0
M  V30 8088 H 782.413 3.62817 -5.46534 0
M  V30 8089 H 782.33 2.83958 -7.00645 0
M  V30 8090 H 783.598 3.98796 -6.69763 0
M  V30 8091 N 787.827 1.57504 0.0551401 0
M  V30 8092 C 789.055 1.92294 0.76358 0
M  V30 8093 C 789.47 0.815774 1.70266 0
M  V30 8094 O 788.827 -0.209772 1.8129 0
M  V30 8095 C 788.878 3.26914 1.54302 0
M  V30 8096 O 788.599 4.33375 0.641666 0
M  V30 8097 C 790.1 3.75825 2.35097 0
M  V30 8098 H 787.32 0.635229 0.216159 0
M  V30 8099 H 789.864 2.0449 0.0204385 0
M  V30 8100 H 788.019 3.16196 2.23828 0
M  V30 8101 H 788.433 5.10927 1.1855 0
M  V30 8102 H 789.907 4.72603 2.8522 0
M  V30 8103 H 790.384 3.0568 3.15367 0
M  V30 8104 H 790.99 3.89542 1.70696 0
M  V30 8105 N 789.305 -0.326896 1.54172 0
M  V30 8106 C 790.238 -1.42591 1.78166 0
M  V30 8107 C 791.216 -1.49837 0.631484 0
M  V30 8108 O 792.4 -1.67298 0.868544 0
M  V30 8109 C 789.527 -2.8071 1.89524 0
M  V30 8110 C 788.573 -2.91012 3.11792 0
M  V30 8111 S 789.406 -2.55763 4.70474 0
M  V30 8112 C 790.562 -3.9596 4.84733 0
M  V30 8113 H 790.795 -1.22024 2.71104 0
M  V30 8114 H 788.328 -0.523539 1.45253 0
M  V30 8115 H 790.286 -3.60276 1.96753 0
M  V30 8116 H 788.947 -2.98562 0.975696 0
M  V30 8117 H 788.14 -3.92258 3.16464 0
M  V30 8118 H 787.742 -2.19414 3.02876 0
M  V30 8119 H 790.034 -4.90676 4.67166 0
M  V30 8120 H 790.977 -3.96273 5.86833 0
M  V30 8121 H 791.385 -3.8476 4.13062 0
M  V30 8122 N 790.784 -1.46188 -0.588786 0
M  V30 8123 C 791.694 -1.58865 -1.72624 0
M  V30 8124 C 792.71 -0.472348 -1.67466 0
M  V30 8125 O 793.886 -0.735638 -1.87484 0
M  V30 8126 C 790.951 -1.56989 -3.0912 0
M  V30 8127 C 790.012 -2.79804 -3.25589 0
M  V30 8128 C 789.245 -2.78009 -4.55573 0
M  V30 8129 O 789.468 -1.86406 -5.39082 0
M  V30 8130 O 788.402 -3.6947 -4.75159 0
M  V30 8131 H 792.228 -2.55047 -1.64878 0
M  V30 8132 H 789.813 -1.28912 -0.755115 0
M  V30 8133 H 791.695 -1.58618 -3.90408 0
M  V30 8134 H 790.37 -0.639648 -3.17317 0
M  V30 8135 H 789.277 -2.83732 -2.43818 0
M  V30 8136 H 790.61 -3.72017 -3.22279 0
M  V30 8137 N 792.262 0.832906 -1.33792 0
M  V30 8138 C 793.192 1.95828 -1.27176 0
M  V30 8139 C 794.173 1.69427 -0.15114 0
M  V30 8140 O 795.358 1.91167 -0.341886 0
M  V30 8141 C 792.488 3.32098 -1.01629 0
M  V30 8142 C 791.442 3.72912 -2.10049 0
M  V30 8143 C 790.768 5.07054 -1.69706 0
M  V30 8144 C 792.068 3.86064 -3.51783 0
M  V30 8145 H 793.762 2.01622 -2.21334 0
M  V30 8146 H 791.308 0.96866 -1.0655 0
M  V30 8147 H 793.261 4.10402 -0.956474 0
M  V30 8148 H 791.985 3.26577 -0.0390956 0
M  V30 8149 H 790.644 2.96876 -2.15082 0
M  V30 8150 H 790.292 4.9801 -0.706737 0
M  V30 8151 H 789.992 5.35333 -2.42264 0
M  V30 8152 H 791.516 5.87827 -1.65202 0
M  V30 8153 H 792.93 4.54665 -3.49218 0
M  V30 8154 H 791.327 4.25787 -4.22878 0
M  V30 8155 H 792.397 2.88344 -3.89854 0
M  V30 8156 N 793.74 1.17359 1.05189 0
M  V30 8157 C 794.67 0.91365 2.14883 0
M  V30 8158 C 795.651 -0.144365 1.69486 0
M  V30 8159 O 796.836 0.00587861 1.94199 0
M  V30 8160 C 793.966 0.426196 3.44675 0
M  V30 8161 C 792.92 1.4234 4.03638 0
M  V30 8162 C 792.246 0.793902 5.28773 0
M  V30 8163 C 793.546 2.7966 4.41121 0
M  V30 8164 H 795.24 1.831 2.36885 0
M  V30 8165 H 792.786 0.881781 1.13845 0
M  V30 8166 H 794.739 0.231767 4.20762 0
M  V30 8167 H 793.463 -0.526693 3.22325 0
M  V30 8168 H 792.122 1.60457 3.2962 0
M  V30 8169 H 791.77 -0.165824 5.02727 0
M  V30 8170 H 791.47 1.45959 5.69183 0
M  V30 8171 H 792.994 0.609747 6.07548 0
M  V30 8172 H 794.408 2.6526 5.08242 0
M  V30 8173 H 792.805 3.42807 4.92548 0
M  V30 8174 H 793.875 3.34068 3.51464 0
M  V30 8175 N 795.218 -1.23913 0.973828 0
M  V30 8176 C 796.467 -1.91455 0.63464 0
M  V30 8177 C 796.78 -1.76893 -0.834759 0
M  V30 8178 O 797.986 -2.3918 -1.28473 0
M  V30 8179 C 796.442 -3.43172 1.08447 0
M  V30 8180 C 796.05 -3.66409 2.57776 0
M  V30 8181 C 797.794 -4.1653 0.818721 0
M  V30 8182 C 795.701 -5.11728 2.9646 0
M  V30 8183 H 794.631 -0.716881 0.233661 0
M  V30 8184 H 797.282 -1.40457 1.18085 0
M  V30 8185 H 795.664 -3.93242 0.466524 0
M  V30 8186 H 796.838 -3.26913 3.24753 0
M  V30 8187 H 795.153 -3.06349 2.82027 0
M  V30 8188 H 797.75 -5.23603 1.08367 0
M  V30 8189 H 798.093 -4.15578 -0.245128 0
M  V30 8190 H 798.626 -3.72428 1.39793 0
M  V30 8191 H 795.365 -5.17806 4.01941 0
M  V30 8192 H 794.885 -5.52199 2.34172 0
M  V30 8193 H 796.564 -5.80009 2.86703 0
M  V30 8194 N 796.696 -0.74468 -1.38897 0
M  V30 8195 C 797.644 -0.100312 -2.32384 0
M  V30 8196 C 798.638 0.715191 -1.53562 0
M  V30 8197 O 799.844 0.615288 -1.69157 0
M  V30 8198 H 796.219 -0.0136403 -0.751876 0
M  V30 8199 H 798.19 -0.905007 -2.84345 0
M  V30 8200 C 796.939 0.785432 -3.38713 0
M  V30 8201 H 796.262 0.167308 -3.9945 0
M  V30 8202 H 797.702 1.20374 -4.06554 0
M  V30 8203 C 796.161 1.92408 -2.76552 0
M  V30 8204 O 796.691 3.01752 -2.65157 0
M  V30 8205 N 794.897 1.71642 -2.34494 0
M  V30 8206 H 794.444 0.827079 -2.43961 0
M  V30 8207 H 794.402 2.48 -1.93244 0
M  V30 8208 N 798.174 1.49689 -0.493057 0
M  V30 8209 C 799.137 2.27502 0.278485 0
M  V30 8210 C 800.137 1.33184 0.901037 0
M  V30 8211 O 801.327 1.56415 0.766801 0
M  V30 8212 C 798.459 3.10881 1.39878 0
M  V30 8213 H 799.652 2.97163 -0.404219 0
M  V30 8214 H 797.205 1.54324 -0.247774 0
M  V30 8215 H 797.94 2.45767 2.11587 0
M  V30 8216 H 797.725 3.80219 0.957924 0
M  V30 8217 H 799.215 3.69673 1.94247 0
M  V30 8218 N 799.652 0.226554 1.55963 0
M  V30 8219 C 800.901 -0.40417 1.97609 0
M  V30 8220 C 801.214 -1.60541 1.1174 0
M  V30 8221 O 802.42 -2.30598 1.43307 0
M  V30 8222 C 800.876 -0.770466 3.51556 0
M  V30 8223 C 800.484 0.408244 4.46136 0
M  V30 8224 C 802.228 -1.36651 4.01904 0
M  V30 8225 C 800.135 0.0192347 5.91397 0
M  V30 8226 H 799.065 -0.15478 0.737943 0
M  V30 8227 H 801.716 0.323558 1.80625 0
M  V30 8228 H 800.098 -1.55575 3.6416 0
M  V30 8229 H 801.272 1.18575 4.45283 0
M  V30 8230 H 799.587 0.917859 4.06158 0
M  V30 8231 H 802.184 -1.67055 5.07934 0
M  V30 8232 H 802.527 -2.28403 3.48049 0
M  V30 8233 H 803.06 -0.644556 3.92543 0
M  V30 8234 H 799.799 0.90336 6.49245 0
M  V30 8235 H 799.319 -0.722485 5.95433 0
M  V30 8236 H 800.998 -0.405711 6.45727 0
M  V30 8237 N 801.13 -1.57531 -0.0467866 0
M  V30 8238 C 802.093 -2.04379 -1.03738 0
M  V30 8239 C 803.093 -0.944881 -1.3011 0
M  V30 8240 O 804.283 -1.20904 -1.25411 0
M  V30 8241 C 801.415 -2.44572 -2.37482 0
M  V30 8242 H 802.608 -2.93142 -0.633063 0
M  V30 8243 H 800.161 -1.53526 -0.293177 0
M  V30 8244 H 800.896 -1.58911 -2.82697 0
M  V30 8245 H 800.681 -3.24785 -2.19675 0
M  V30 8246 H 802.171 -2.81307 -3.08636 0
M  V30 8247 N 802.608 0.318715 -1.54344 0
M  V30 8248 C 803.857 1.05363 -1.71993 0
M  V30 8249 C 804.17 1.89018 -0.503155 0
M  V30 8250 O 805.376 2.65639 -0.561085 0
M  V30 8251 C 803.832 1.92281 -3.0423 0
M  V30 8252 C 803.44 1.13715 -4.33328 0
M  V30 8253 C 805.184 2.65479 -3.31242 0
M  V30 8254 C 803.091 1.99806 -5.56625 0
M  V30 8255 H 802.021 0.397081 -0.64097 0
M  V30 8256 H 804.672 0.311598 -1.80835 0
M  V30 8257 H 803.054 2.70402 -2.89307 0
M  V30 8258 H 804.228 0.403305 -4.59032 0
M  V30 8259 H 802.543 0.521769 -4.13118 0
M  V30 8260 H 805.14 3.30209 -4.20555 0
M  V30 8261 H 805.483 3.33374 -2.49334 0
M  V30 8262 H 806.016 1.94417 -3.47054 0
M  V30 8263 H 802.755 1.36411 -6.41149 0
M  V30 8264 H 802.275 2.70911 -5.35133 0
M  V30 8265 H 803.954 2.58277 -5.93213 0
M  V30 8266 N 804.086 1.46499 0.581025 0
M  V30 8267 C 805.034 1.57562 1.71105 0
M  V30 8268 C 806.028 0.44403 1.63477 0
M  V30 8269 O 807.234 0.620964 1.6895 0
M  V30 8270 H 803.609 0.495415 0.565746 0
M  V30 8271 H 805.58 2.5257 1.58905 0
M  V30 8272 C 804.329 1.58465 3.0949 0
M  V30 8273 H 803.652 2.44877 3.16031 0
M  V30 8274 H 805.092 1.70261 3.88313 0
M  V30 8275 C 803.551 0.313596 3.35437 0
M  V30 8276 O 804.081 -0.595456 3.97262 0
M  V30 8277 N 802.287 0.200986 2.89904 0
M  V30 8278 H 801.834 0.941643 2.39773 0
M  V30 8279 H 801.792 -0.648577 3.07638 0
M  V30 8280 N 805.565 -0.825799 1.34232 0
M  V30 8281 C 806.79 -1.61883 1.29648 0
M  V30 8282 C 807.215 -1.87669 -0.127295 0
M  V30 8283 O 806.573 -1.45016 -1.08813 0
M  V30 8284 C 806.621 -2.93846 2.09014 0
M  V30 8285 O 805.725 -3.85778 1.4577 0
M  V30 8286 H 805.066 -0.492454 0.445405 0
M  V30 8287 H 807.596 -1.02641 1.76992 0
M  V30 8288 H 807.606 -3.43435 2.20264 0
M  V30 8289 H 806.281 -2.74401 3.12533 0
M  V30 8290 H 804.858 -3.4429 1.43245 0
M  V30 8291 N 807.043 -1.17915 -1.04565 0
M  V30 8292 C 808.006 -0.903787 -2.10628 0
M  V30 8293 C 809.006 0.10873 -1.60432 0
M  V30 8294 O 810.196 -0.124152 -1.73757 0
M  V30 8295 C 807.328 -0.355017 -3.39046 0
M  V30 8296 H 808.521 -1.84425 -2.3649 0
M  V30 8297 H 806.074 -0.990477 -1.2091 0
M  V30 8298 H 806.809 0.592297 -3.18845 0
M  V30 8299 H 806.594 -1.08484 -3.76794 0
M  V30 8300 H 808.084 -0.180891 -4.17208 0
M  V30 8301 N 808.521 1.23394 -0.980386 0
M  V30 8302 C 809.751 1.9556 -0.666319 0
M  V30 8303 C 810.159 1.72786 0.770815 0
M  V30 8304 O 809.502 1.0162 1.53033 0
M  V30 8305 C 809.564 3.48643 -0.876825 0
M  V30 8306 C 809.228 3.95135 -2.29602 0
M  V30 8307 C 810.225 4.03806 -3.2747 0
M  V30 8308 C 807.91 4.28122 -2.62711 0
M  V30 8309 C 809.904 4.44818 -4.56526 0
M  V30 8310 C 807.591 4.68814 -3.9199 0
M  V30 8311 C 808.589 4.77129 -4.88709 0
M  V30 8312 O 808.277 5.16908 -6.15679 0
M  V30 8313 H 808.009 0.629422 -0.246585 0
M  V30 8314 H 810.563 1.57839 -1.31438 0
M  V30 8315 H 808.793 3.86319 -0.171587 0
M  V30 8316 H 810.482 4.0202 -0.55992 0
M  V30 8317 H 811.248 3.78526 -3.03222 0
M  V30 8318 H 807.127 4.20861 -1.8814 0
M  V30 8319 H 810.671 4.51223 -5.32018 0
M  V30 8320 H 806.568 4.93545 -4.16033 0
M  V30 8321 H 807.336 5.3502 -6.19432 0
M  V30 8322 N 809.999 0.752036 1.385 0
M  V30 8323 C 811.227 0.318274 2.04437 0
M  V30 8324 C 811.642 -1.05285 1.56718 0
M  V30 8325 O 810.999 -1.66844 0.73956 0
M  V30 8326 C 811.05 0.330106 3.5999 0
M  V30 8327 O 810.771 1.64712 4.05957 0
M  V30 8328 C 812.272 -0.117713 4.43144 0
M  V30 8329 H 809.492 0.136228 0.657026 0
M  V30 8330 H 812.036 1.02045 1.7722 0
M  V30 8331 H 810.191 -0.323323 3.86048 0
M  V30 8332 H 810.605 1.57225 5.0038 0
M  V30 8333 H 812.079 -0.0582735 5.51969 0
M  V30 8334 H 812.556 -1.16538 4.23457 0
M  V30 8335 H 813.162 0.506784 4.2227 0
M  V30 8336 N 811.477 -1.49425 0.500989 0
M  V30 8337 C 812.705 -2.06861 -0.0403443 0
M  V30 8338 C 813.12 -1.36132 -1.30819 0
M  V30 8339 O 812.477 -0.439647 -1.77125 0
M  V30 8340 C 812.528 -3.6027 -0.297902 0
M  V30 8341 O 812.249 -4.28338 0.919686 0
M  V30 8342 C 813.75 -4.34419 -0.882876 0
M  V30 8343 H 810.97 -0.670688 0.0204619 0
M  V30 8344 H 813.514 -1.92207 0.698342 0
M  V30 8345 H 811.669 -3.74627 -0.98657 0
M  V30 8346 H 812.083 -5.2004 0.682528 0
M  V30 8347 H 813.557 -5.42631 -1.01268 0
M  V30 8348 H 814.034 -3.96898 -1.88066 0
M  V30 8349 H 814.64 -4.24669 -0.231677 0
M  V30 8350 N 812.955 -0.234822 -1.55841 0
M  V30 8351 C 813.902 0.6698 -2.20867 0
M  V30 8352 C 814.872 1.18042 -1.16856 0
M  V30 8353 O 816.057 1.23709 -1.45261 0
M  V30 8354 C 813.197 1.86646 -2.90271 0
M  V30 8355 C 812.31 1.39351 -4.08908 0
M  V30 8356 C 811.445 2.54878 -4.66059 0
M  V30 8357 C 810.484 2.04384 -5.76969 0
M  V30 8358 N 809.621 3.13233 -6.28355 0
M  V30 8359 H 814.461 0.10858 -2.97802 0
M  V30 8360 H 811.998 0.041836 -1.4704 0
M  V30 8361 H 813.956 2.56926 -3.28702 0
M  V30 8362 H 812.586 2.40035 -2.15831 0
M  V30 8363 H 811.638 0.585173 -3.75872 0
M  V30 8364 H 812.95 0.983356 -4.89011 0
M  V30 8365 H 812.104 3.33219 -5.07001 0
M  V30 8366 H 810.843 2.99188 -3.85146 0
M  V30 8367 H 809.848 1.24509 -5.35516 0
M  V30 8368 H 811.073 1.61057 -6.59725 0
M  V30 8369 H 809.019 3.57 -5.50352 0
M  V30 8370 H 808.936 2.76511 -7.03618 0
M  V30 8371 H 810.204 3.91669 -6.73955 0
M  V30 8372 N 814.433 1.57553 0.0384317 0
M  V30 8373 C 815.682 1.88022 0.730108 0
M  V30 8374 C 815.995 0.83209 1.77019 0
M  V30 8375 O 817.201 1.0257 2.51379 0
M  V30 8376 C 815.657 3.33637 1.3496 0
M  V30 8377 C 815.265 4.46659 0.346352 0
M  V30 8378 C 817.009 3.73266 2.02169 0
M  V30 8379 C 814.916 5.8333 0.973652 0
M  V30 8380 H 813.846 0.701496 0.276442 0
M  V30 8381 H 816.497 1.83493 -0.0158028 0
M  V30 8382 H 814.879 3.32882 2.1449 0
M  V30 8383 H 816.053 4.58868 -0.421558 0
M  V30 8384 H 814.368 4.15802 -0.223133 0
M  V30 8385 H 816.965 4.72689 2.49938 0
M  V30 8386 H 817.308 3.04776 2.8358 0
M  V30 8387 H 817.841 3.76156 1.29427 0
M  V30 8388 H 814.58 6.55197 0.199163 0
M  V30 8389 H 814.1 5.7486 1.71162 0
M  V30 8390 H 815.779 6.29757 1.48376 0
M  V30 8391 N 815.911 -0.310526 1.54511 0
M  V30 8392 C 816.841 -1.38757 1.878 0
M  V30 8393 C 817.822 -1.53353 0.735991 0
M  V30 8394 O 819.007 -1.67018 0.990887 0
M  V30 8395 C 816.137 -2.75327 2.11689 0
M  V30 8396 C 815.091 -2.75506 3.27537 0
M  V30 8397 C 814.417 -4.15275 3.36824 0
M  V30 8398 C 815.717 -2.38093 4.64875 0
M  V30 8399 H 817.411 -1.11146 2.78005 0
M  V30 8400 H 814.957 -0.533232 1.33763 0
M  V30 8401 H 816.91 -3.50752 2.33562 0
M  V30 8402 H 815.634 -3.04443 1.18245 0
M  V30 8403 H 814.293 -2.02538 3.05572 0
M  V30 8404 H 813.941 -4.41553 2.40915 0
M  V30 8405 H 813.641 -4.16299 4.14692 0
M  V30 8406 H 815.165 -4.92493 3.60947 0
M  V30 8407 H 816.579 -3.03232 4.86542 0
M  V30 8408 H 814.976 -2.50345 5.45387 0
M  V30 8409 H 816.046 -1.33227 4.66239 0
M  V30 8410 N 817.389 -1.46805 -0.573248 0
M  V30 8411 C 818.8 -1.46655 -1.15539 0
M  V30 8412 C 819.151 -0.2125 -1.95046 0
M  V30 8413 O 818.276 0.683759 -2.05314 0
M  V30 8414 C 818.871 -2.65711 -2.10198 0
M  V30 8415 C 817.43 -2.68572 -2.63716 0
M  V30 8416 C 816.577 -2.39498 -1.39772 0
M  V30 8417 H 819.528 -1.54547 -0.36068 0
M  V30 8418 H 819.549 -2.41768 -2.93817 0
M  V30 8419 H 819.061 -3.56967 -1.52303 0
M  V30 8420 H 817.162 -1.81414 -3.25453 0
M  V30 8421 H 817.275 -3.68809 -3.05805 0
M  V30 8422 H 815.639 -1.89749 -1.69904 0
M  V30 8423 H 816.422 -3.32942 -0.836943 0
M  V30 8424 N 818.867 0.818669 -1.34668 0
M  V30 8425 C 820.278 1.39177 -1.24446 0
M  V30 8426 C 820.629 1.9578 0.128268 0
M  V30 8427 O 819.754 1.90382 1.02877 0
M  V30 8428 C 820.349 2.53012 -2.25323 0
M  V30 8429 C 818.908 3.06218 -2.18878 0
M  V30 8430 C 818.055 1.79112 -2.11694 0
M  V30 8431 H 821.006 0.622709 -1.45973 0
M  V30 8432 H 821.027 3.31226 -1.8727 0
M  V30 8433 H 820.539 2.11784 -3.25221 0
M  V30 8434 H 818.64 3.51939 -1.22351 0
M  V30 8435 H 818.753 3.65019 -3.10319 0
M  V30 8436 H 817.117 2.0018 -1.57481 0
M  V30 8437 H 817.9 1.40053 -3.13433 0
M  V30 8438 N 820.346 1.18468 1.03938 0
M  V30 8439 C 821.256 0.927889 2.1547 0
M  V30 8440 C 822.272 -0.108447 1.73662 0
M  V30 8441 O 823.448 0.0737636 2.01265 0
M  V30 8442 C 820.513 0.458494 3.43655 0
M  V30 8443 C 819.574 1.56295 3.99838 0
M  V30 8444 C 818.807 1.11586 5.21904 0
M  V30 8445 O 819.03 -0.0249057 5.70395 0
M  V30 8446 O 817.964 1.91412 5.70653 0
M  V30 8447 H 821.79 1.86116 2.39989 0
M  V30 8448 H 819.375 0.966607 1.13917 0
M  V30 8449 H 821.257 0.204861 4.20902 0
M  V30 8450 H 819.932 -0.446464 3.20606 0
M  V30 8451 H 818.839 1.87061 3.23974 0
M  V30 8452 H 820.172 2.44408 4.2723 0
M  V30 8453 N 821.824 -1.22873 0.986916 0
M  V30 8454 C 822.771 -2.2458 0.532215 0
M  V30 8455 C 823.741 -1.60375 -0.432322 0
M  V30 8456 O 824.926 -1.87775 -0.338416 0
M  V30 8457 C 822.066 -3.44761 -0.152864 0
M  V30 8458 C 821.179 -4.23501 0.852704 0
M  V30 8459 C 820.314 -5.31011 0.14176 0
M  V30 8460 C 819.353 -6.01464 1.1361 0
M  V30 8461 N 818.49 -7.00631 0.453871 0
M  V30 8462 H 823.33 -2.62838 1.40428 0
M  V30 8463 H 820.867 -1.29185 0.703543 0
M  V30 8464 H 822.825 -4.1333 -0.566926 0
M  V30 8465 H 821.455 -3.07284 -0.988756 0
M  V30 8466 H 820.507 -3.54286 1.38512 0
M  V30 8467 H 821.819 -4.72097 1.61014 0
M  V30 8468 H 820.973 -6.05805 -0.329337 0
M  V30 8469 H 819.712 -4.83373 -0.648229 0
M  V30 8470 H 818.717 -5.25456 1.61789 0
M  V30 8471 H 819.942 -6.5119 1.92686 0
M  V30 8472 H 817.888 -6.55235 -0.316791 0
M  V30 8473 H 817.805 -7.47204 1.14986 0
M  V30 8474 H 819.073 -7.795 0.00537823 0
M  V30 8475 N 823.302 -0.75937 -1.38099 0
M  V30 8476 C 824.212 -0.13774 -2.34195 0
M  V30 8477 C 825.228 0.693985 -1.59561 0
M  V30 8478 O 826.404 0.616792 -1.91723 0
M  V30 8479 C 823.469 0.740535 -3.38699 0
M  V30 8480 C 822.53 -0.106225 -4.29169 0
M  V30 8481 C 821.763 0.730225 -5.28681 0
M  V30 8482 O 821.986 1.96796 -5.35376 0
M  V30 8483 O 820.92 0.145969 -6.01723 0
M  V30 8484 H 824.746 -0.931512 -2.89061 0
M  V30 8485 H 822.331 -0.520345 -1.40046 0
M  V30 8486 H 824.213 1.24232 -4.02672 0
M  V30 8487 H 822.888 1.51271 -2.8618 0
M  V30 8488 H 821.795 -0.654088 -3.68337 0
M  V30 8489 H 823.128 -0.841186 -4.84959 0
M  V30 8490 N 824.78 1.49157 -0.508906 0
M  V30 8491 C 826.028 2.02073 0.0327335 0
M  V30 8492 C 826.349 1.39012 1.3675 0
M  V30 8493 O 825.619 0.548153 1.88075 0
M  V30 8494 H 824.199 0.746848 0.0150864 0
M  V30 8495 H 826.861 1.83097 -0.667946 0
M  V30 8496 H 825.957 3.11707 0.1566 0
M  V30 8497 N 826.258 0.243083 1.55714 0
M  V30 8498 C 827.221 -0.644723 2.19945 0
M  V30 8499 C 828.221 -1.10562 1.16759 0
M  V30 8500 O 829.411 -1.01095 1.41865 0
M  V30 8501 C 826.543 -1.88569 2.83997 0
M  V30 8502 H 827.736 -0.0843839 2.99781 0
M  V30 8503 H 825.289 -0.00647246 1.56299 0
M  V30 8504 H 826.024 -2.48736 2.08089 0
M  V30 8505 H 825.809 -1.56345 3.59581 0
M  V30 8506 H 827.299 -2.51774 3.33166 0
M  V30 8507 N 827.736 -1.57571 -0.0300757 0
M  V30 8508 C 828.666 -2.0953 -1.03051 0
M  V30 8509 C 829.647 -0.99761 -1.37774 0
M  V30 8510 O 830.832 -1.27279 -1.46676 0
M  V30 8511 C 827.962 -2.57385 -2.33174 0
M  V30 8512 C 826.916 -3.71409 -2.12696 0
M  V30 8513 C 826.242 -4.05467 -3.4857 0
M  V30 8514 C 827.542 -4.99877 -1.51396 0
M  V30 8515 H 829.236 -2.93367 -0.597999 0
M  V30 8516 H 826.782 -1.41127 -0.286203 0
M  V30 8517 H 828.735 -2.92355 -3.03491 0
M  V30 8518 H 827.459 -1.70629 -2.78484 0
M  V30 8519 H 826.118 -3.36786 -1.44813 0
M  V30 8520 H 825.766 -3.15779 -3.91526 0
M  V30 8521 H 825.466 -4.82269 -3.35694 0
M  V30 8522 H 826.99 -4.4297 -4.2025 0
M  V30 8523 H 828.404 -5.3281 -2.11629 0
M  V30 8524 H 826.801 -5.81283 -1.49098 0
M  V30 8525 H 827.871 -4.82522 -0.479676 0
M  V30 8526 N 829.214 0.302327 -1.54673 0
M  V30 8527 C 830.625 0.875409 -1.64904 0
M  V30 8528 C 830.976 1.88132 -0.55684 0
M  V30 8529 O 830.101 2.14215 0.306754 0
M  V30 8530 C 830.696 1.59457 -2.9893 0
M  V30 8531 C 829.255 2.11607 -3.11287 0
M  V30 8532 C 828.402 0.948324 -2.6058 0
M  V30 8533 H 831.353 0.079362 -1.58501 0
M  V30 8534 H 831.374 2.46005 -2.90279 0
M  V30 8535 H 830.886 0.8622 -3.78402 0
M  V30 8536 H 828.987 2.87895 -2.36532 0
M  V30 8537 H 829.1 2.35151 -4.17422 0
M  V30 8538 H 827.464 1.33352 -2.17001 0
M  V30 8539 H 828.247 0.229936 -3.42529 0
M  V30 8540 N 830.692 1.47107 0.565454 0
M  V30 8541 C 832.108 1.32443 0.890566 0
M  V30 8542 C 832.308 0.308735 1.99121 0
M  V30 8543 O 831.364 -0.28265 2.50913 0
M  V30 8544 C 832.677 2.71548 1.2916 0
M  V30 8545 C 834.225 2.7977 1.40349 0
M  V30 8546 C 834.7 4.19497 1.83811 0
M  V30 8547 N 836.191 4.21998 1.90975 0
M  V30 8548 C 836.926 5.2702 2.25916 0
M  V30 8549 N 836.422 6.42353 2.59527 0
M  V30 8550 N 838.215 5.14393 2.26619 0
M  V30 8551 H 830.366 2.11786 -0.161328 0
M  V30 8552 H 832.629 0.947952 -0.00950631 0
M  V30 8553 H 832.335 3.47265 0.556753 0
M  V30 8554 H 832.209 3.02782 2.24951 0
M  V30 8555 H 834.596 2.0433 2.12916 0
M  V30 8556 H 834.677 2.522 0.427655 0
M  V30 8557 H 834.321 4.95439 1.11816 0
M  V30 8558 H 834.251 4.44486 2.82382 0
M  V30 8559 H 836.742 3.38791 1.6742 0
M  V30 8560 H 837.055 7.18252 2.85191 0
M  V30 8561 H 835.4 6.45687 2.57126 0
M  V30 8562 H 838.591 4.2332 1.99794 0
M  V30 8563 H 838.764 5.96349 2.5352 0
M  V30 8564 N 832.17 -0.811516 1.35101 0
M  V30 8565 C 833.102 -1.93102 1.23468 0
M  V30 8566 C 834.115 -1.62021 0.159095 0
M  V30 8567 O 835.304 -1.73682 0.411945 0
M  V30 8568 C 832.404 -3.27345 0.877404 0
M  V30 8569 C 831.577 -3.86368 2.05033 0
M  V30 8570 C 830.636 -4.99009 1.66963 0
M  V30 8571 O 829.662 -5.16698 2.38772 0
M  V30 8572 N 830.864 -5.7749 0.590394 0
M  V30 8573 H 833.629 -2.0361 2.19916 0
M  V30 8574 H 831.19 -0.988687 1.28205 0
M  V30 8575 H 833.182 -4.00163 0.604298 0
M  V30 8576 H 831.752 -3.126 0.00275267 0
M  V30 8577 H 830.972 -3.05804 2.48752 0
M  V30 8578 H 832.26 -4.22533 2.83449 0
M  V30 8579 H 831.658 -5.657 -0.00633259 0
M  V30 8580 H 830.215 -6.50708 0.377055 0
M  V30 8581 N 833.648 -1.19017 -1.03309 0
M  V30 8582 C 834.894 -0.991681 -1.769 0
M  V30 8583 C 835.227 0.476813 -1.88255 0
M  V30 8584 O 834.502 1.35407 -1.39625 0
M  V30 8585 C 834.785 -1.65627 -3.19749 0
M  V30 8586 C 834.638 -3.19813 -3.1629 0
M  V30 8587 C 835.957 -1.37579 -4.18043 0
M  V30 8588 H 833.076 -0.361674 -0.642153 0
M  V30 8589 H 835.718 -1.46795 -1.20628 0
M  V30 8590 H 833.868 -1.25132 -3.67796 0
M  V30 8591 H 835.54 -3.69494 -2.76174 0
M  V30 8592 H 833.783 -3.51578 -2.54117 0
M  V30 8593 H 834.454 -3.61457 -4.17196 0
M  V30 8594 H 836.93 -1.72679 -3.78578 0
M  V30 8595 H 835.806 -1.86636 -5.16196 0
M  V30 8596 H 836.067 -0.300118 -4.4108 0
M  V30 8597 N 835.127 1.22348 -0.993418 0
M  V30 8598 C 836.375 1.90733 -0.668246 0
M  V30 8599 C 836.696 1.77732 0.802261 0
M  V30 8600 O 835.966 1.16486 1.57505 0
M  V30 8601 H 834.546 0.705966 -0.244174 0
M  V30 8602 H 837.208 1.48691 -1.26004 0
M  V30 8603 H 836.304 2.97883 -0.931239 0
M  V30 8604 N 836.605 0.766683 1.37694 0
M  V30 8605 C 837.553 0.137269 2.32195 0
M  V30 8606 C 838.547 -0.69067 1.54681 0
M  V30 8607 O 839.753 -0.588299 1.70115 0
M  V30 8608 H 836.128 0.0256003 0.751564 0
M  V30 8609 H 838.099 0.950129 2.82869 0
M  V30 8610 C 836.848 -0.731446 3.39919 0
M  V30 8611 H 836.171 -0.103738 3.99665 0
M  V30 8612 H 837.611 -1.13891 4.08417 0
M  V30 8613 C 836.07 -1.87984 2.79578 0
M  V30 8614 O 836.6 -2.97496 2.69924 0
M  V30 8615 N 834.806 -1.6789 2.37195 0
M  V30 8616 H 834.353 -0.788162 2.45246 0
M  V30 8617 H 834.311 -2.44894 1.97165 0
M  V30 8618 N 838.083 -1.48885 0.516809 0
M  V30 8619 C 839.03 -2.29408 -0.253125 0
M  V30 8620 C 840 -1.36533 -0.945935 0
M  V30 8621 O 841.185 -1.65495 -0.949527 0
M  V30 8622 C 838.325 -3.19592 -1.30211 0
M  V30 8623 C 837.438 -4.27535 -0.61948 0
M  V30 8624 C 836.573 -5.04916 -1.65026 0
M  V30 8625 C 835.612 -6.04677 -0.950368 0
M  V30 8626 N 834.749 -6.75164 -1.92608 0
M  V30 8627 H 839.589 -2.94738 0.439744 0
M  V30 8628 H 837.126 -1.45311 0.2287 0
M  V30 8629 H 839.084 -3.70267 -1.92245 0
M  V30 8630 H 837.714 -2.56213 -1.96353 0
M  V30 8631 H 836.766 -3.80228 0.114505 0
M  V30 8632 H 838.078 -4.98752 -0.0693016 0
M  V30 8633 H 837.232 -5.59539 -2.34523 0
M  V30 8634 H 835.971 -4.33508 -2.23432 0
M  V30 8635 H 834.976 -5.4927 -0.241252 0
M  V30 8636 H 836.201 -6.78077 -0.372599 0
M  V30 8637 H 834.147 -6.06517 -2.49946 0
M  V30 8638 H 834.064 -7.4241 -1.42699 0
M  V30 8639 H 835.332 -7.34384 -2.61345 0
M  V30 8640 N 839.561 -0.251338 -1.55583 0
M  V30 8641 C 840.789 0.376187 -2.03451 0
M  V30 8642 C 841.204 1.51215 -1.13047 0
M  V30 8643 O 840.561 1.81917 -0.145769 0
M  V30 8644 C 840.612 0.879779 -3.50631 0
M  V30 8645 O 840.333 -0.210917 -4.37592 0
M  V30 8646 C 841.834 1.57754 -4.14281 0
M  V30 8647 H 839.054 0.0888722 -0.665089 0
M  V30 8648 H 841.598 -0.376497 -2.01004 0
M  V30 8649 H 839.753 1.58263 -3.53598 0
M  V30 8650 H 840.167 0.172203 -5.24217 0
M  V30 8651 H 841.641 1.88158 -5.18942 0
M  V30 8652 H 842.118 2.50103 -3.61034 0
M  V30 8653 H 842.724 0.919154 -4.15249 0
M  V30 8654 N 841.039 1.57585 0.0217189 0
M  V30 8655 C 841.949 2.10444 1.03684 0
M  V30 8656 C 842.965 1.04472 1.39146 0
M  V30 8657 O 844.141 1.36249 1.48317 0
M  V30 8658 C 841.206 2.5794 2.31664 0
M  V30 8659 C 840.267 3.78425 2.02714 0
M  V30 8660 C 839.5 4.23646 3.24592 0
M  V30 8661 O 839.723 3.6834 4.35525 0
M  V30 8662 O 838.657 5.16013 3.09862 0
M  V30 8663 H 842.483 2.97354 0.617584 0
M  V30 8664 H 840.068 1.47473 0.239174 0
M  V30 8665 H 841.95 2.88785 3.06889 0
M  V30 8666 H 840.625 1.74138 2.7287 0
M  V30 8667 H 839.532 3.52587 1.25033 0
M  V30 8668 H 840.865 4.63234 1.66359 0
M  V30 8669 N 842.517 -0.29412 1.54831 0
M  V30 8670 C 843.757 -1.03635 1.76179 0
M  V30 8671 C 844.121 -1.84251 0.539953 0
M  V30 8672 O 845.322 -2.61282 0.631295 0
M  V30 8673 C 843.593 -1.91275 3.01909 0
M  V30 8674 S 845.152 -2.7205 3.44288 0
M  V30 8675 H 841.97 -0.349403 0.619224 0
M  V30 8676 H 844.572 -0.309006 1.93042 0
M  V30 8677 H 843.276 -1.30937 3.88952 0
M  V30 8678 H 842.807 -2.68365 2.87652 0
M  V30 8679 H 844.822 -3.93791 3.01899 0
M  V30 8680 N 843.995 -1.47404 -0.557645 0
M  V30 8681 C 845.243 -1.53703 -1.31224 0
M  V30 8682 C 845.564 -0.200742 -1.93964 0
M  V30 8683 O 844.834 0.775253 -1.79907 0
M  V30 8684 H 843.414 -0.566171 -0.487299 0
M  V30 8685 H 846.076 -1.83699 -0.651195 0
M  V30 8686 H 845.172 -2.30335 -2.10599 0
M  V30 8687 N 845.473 0.80434 -1.35529 0
M  V30 8688 C 846.403 1.93086 -1.31301 0
M  V30 8689 C 847.384 1.69068 -0.187044 0
M  V30 8690 O 848.569 1.90399 -0.382359 0
M  V30 8691 C 845.699 3.29867 -1.0865 0
M  V30 8692 C 844.653 3.68373 -2.17911 0
M  V30 8693 C 843.979 5.0334 -1.80423 0
M  V30 8694 C 845.279 3.78516 -3.59893 0
M  V30 8695 H 846.973 1.96882 -2.25561 0
M  V30 8696 H 844.519 0.945841 -1.08581 0
M  V30 8697 H 846.472 4.08281 -1.04331 0
M  V30 8698 H 845.196 3.2642 -0.108359 0
M  V30 8699 H 843.855 2.92247 -2.21331 0
M  V30 8700 H 843.503 4.96399 -0.812213 0
M  V30 8701 H 843.203 5.30074 -2.53565 0
M  V30 8702 H 844.727 5.84191 -1.77633 0
M  V30 8703 H 846.141 4.47155 -3.58783 0
M  V30 8704 H 844.538 4.16721 -4.31814 0
M  V30 8705 H 845.608 2.8001 -3.95882 0
M  V30 8706 N 846.951 1.19563 1.02676 0
M  V30 8707 C 847.881 0.959024 2.12897 0
M  V30 8708 C 848.862 -0.108382 1.69754 0
M  V30 8709 O 850.047 0.0470698 1.94143 0
M  V30 8710 C 847.177 0.499211 3.43693 0
M  V30 8711 C 846.131 1.5087 4.00528 0
M  V30 8712 C 845.457 0.905884 5.2697 0
M  V30 8713 C 846.757 2.88954 4.3509 0
M  V30 8714 H 848.451 1.88084 2.32948 0
M  V30 8715 H 845.997 0.905731 1.11949 0
M  V30 8716 H 847.95 0.320965 4.20176 0
M  V30 8717 H 846.674 -0.458205 3.2337 0
M  V30 8718 H 845.333 1.67413 3.26142 0
M  V30 8719 H 844.981 -0.0591506 5.02965 0
M  V30 8720 H 844.681 1.58 5.65959 0
M  V30 8721 H 846.205 0.73848 6.06118 0
M  V30 8722 H 847.619 2.75981 5.02501 0
M  V30 8723 H 846.016 3.53177 4.85166 0
M  V30 8724 H 847.086 3.41447 3.44299 0
M  V30 8725 N 848.429 -1.21819 0.999893 0
M  V30 8726 C 849.677 -1.90375 0.678351 0
M  V30 8727 C 849.998 -1.78155 -0.792824 0
M  V30 8728 O 849.268 -1.17319 -1.56885 0
M  V30 8729 H 847.848 -0.704661 0.247915 0
M  V30 8730 H 850.51 -1.48021 1.2679 0
M  V30 8731 H 849.606 -2.97385 0.947023 0
M  V30 8732 N 849.908 -0.773975 -1.37286 0
M  V30 8733 C 851.155 -0.339306 -1.99637 0
M  V30 8734 C 851.483 1.08478 -1.61439 0
M  V30 8735 O 850.738 1.7612 -0.853252 0
M  V30 8736 C 851.037 -0.432651 -3.54772 0
M  V30 8737 C 850.703 -1.81531 -4.12744 0
M  V30 8738 C 849.365 -2.19366 -4.2829 0
M  V30 8739 C 851.717 -2.72137 -4.44512 0
M  V30 8740 C 849.045 -3.47239 -4.72908 0
M  V30 8741 C 851.397 -3.99421 -4.90556 0
M  V30 8742 C 850.061 -4.37298 -5.04308 0
M  V30 8743 H 849.331 -0.124161 -0.730524 0
M  V30 8744 H 851.978 -0.988432 -1.64019 0
M  V30 8745 H 850.283 0.30001 -3.9065 0
M  V30 8746 H 851.98 -0.0776 -4.00925 0
M  V30 8747 H 848.57 -1.51126 -4.01072 0
M  V30 8748 H 852.754 -2.44165 -4.32084 0
M  V30 8749 H 848.01 -3.76477 -4.81742 0
M  V30 8750 H 852.184 -4.69756 -5.14104 0
M  V30 8751 H 849.811 -5.36442 -5.38641 0
M  V30 8752 N 851.386 1.48609 -0.524698 0
M  V30 8753 C 852.632 2.02797 0.0113382 0
M  V30 8754 C 852.965 1.40147 1.34433 0
M  V30 8755 O 852.24 0.545368 1.86698 0
M  V30 8756 C 852.523 3.59832 0.138931 0
M  V30 8757 C 852.376 4.32971 -1.21886 0
M  V30 8758 C 853.695 4.3145 0.868265 0
M  V30 8759 H 850.814 0.736995 0.00264645 0
M  V30 8760 H 853.456 1.77388 -0.680704 0
M  V30 8761 H 851.606 3.81612 0.72834 0
M  V30 8762 H 853.278 4.22624 -1.84897 0
M  V30 8763 H 851.521 3.94597 -1.80211 0
M  V30 8764 H 852.192 5.41279 -1.08263 0
M  V30 8765 H 854.668 4.14468 0.368145 0
M  V30 8766 H 853.544 5.41025 0.926428 0
M  V30 8767 H 853.805 3.98358 1.91737 0
M  V30 8768 N 852.864 0.259585 1.55447 0
M  V30 8769 C 853.794 -0.62852 2.24882 0
M  V30 8770 C 854.775 -1.17128 1.23349 0
M  V30 8771 O 855.96 -1.20829 1.52033 0
M  V30 8772 C 853.09 -1.81983 2.95803 0
M  V30 8773 C 852.044 -1.40929 4.04132 0
M  V30 8774 C 851.37 -2.68246 4.62545 0
M  V30 8775 C 852.67 -0.570956 5.1917 0
M  V30 8776 H 854.364 -0.0495021 2.99359 0
M  V30 8777 H 851.91 -0.0223688 1.43983 0
M  V30 8778 H 853.863 -2.44689 3.43082 0
M  V30 8779 H 852.587 -2.42444 2.18835 0
M  V30 8780 H 851.246 -0.805519 3.57641 0
M  V30 8781 H 850.894 -3.26931 3.82263 0
M  V30 8782 H 850.594 -2.41495 5.35681 0
M  V30 8783 H 852.118 -3.31827 5.12565 0
M  V30 8784 H 853.532 -1.10262 5.62597 0
M  V30 8785 H 851.929 -0.398979 5.98772 0
M  V30 8786 H 852.999 0.413918 4.8313 0
M  V30 8787 N 854.342 -1.57594 -0.0133615 0
M  V30 8788 C 855.619 -1.81173 -0.737273 0
M  V30 8789 C 855.999 -0.861395 -1.92726 0
M  V30 8790 O 855.347 0.0929324 -2.28311 0
M  V30 8791 C 855.557 -3.29314 -1.15557 0
M  V30 8792 C 856.905 -3.94707 -1.56498 0
M  V30 8793 O 857.929 -3.33557 -1.24973 0
M  V30 8794 O 856.788 -5.02402 -2.15069 0
M  V30 8795 H 853.882 -0.745575 -0.357837 0
M  V30 8796 H 856.428 -1.69696 0.0110674 0
M  V30 8797 H 855.2 -3.90096 -0.30677 0
M  V30 8798 H 854.823 -3.45739 -1.96343 0
M  V30 8799 N 855.82 0.285905 -1.54985 0
M  V30 8800 C 856.75 1.35752 -1.89983 0
M  V30 8801 C 857.731 1.52163 -0.760295 0
M  V30 8802 O 858.916 1.65421 -1.01733 0
M  V30 8803 C 856.046 2.71925 -2.16042 0
M  V30 8804 C 855 2.70261 -3.31878 0
M  V30 8805 C 854.326 4.09864 -3.43388 0
M  V30 8806 C 855.626 2.30667 -4.68604 0
M  V30 8807 H 857.32 1.06709 -2.79738 0
M  V30 8808 H 854.866 0.511884 -1.34595 0
M  V30 8809 H 856.819 3.46992 -2.39113 0
M  V30 8810 H 855.543 3.02523 -1.23074 0
M  V30 8811 H 854.202 1.97651 -3.08755 0
M  V30 8812 H 853.85 4.37664 -2.47909 0
M  V30 8813 H 853.55 4.09648 -4.21262 0
M  V30 8814 H 855.074 4.86689 -3.68736 0
M  V30 8815 H 856.488 2.95453 -4.91305 0
M  V30 8816 H 854.885 2.41637 -5.49301 0
M  V30 8817 H 855.955 1.25793 -4.68299 0
M  V30 8818 N 857.298 1.47698 0.54982 0
M  V30 8819 C 858.245 1.60739 1.65625 0
M  V30 8820 C 859.215 0.450129 1.59884 0
M  V30 8821 O 860.4 0.671123 1.78607 0
M  V30 8822 C 857.54 1.63457 3.03934 0
M  V30 8823 C 856.653 2.90152 3.20056 0
M  V30 8824 C 855.788 2.84157 4.48807 0
M  V30 8825 C 854.827 4.05644 4.58387 0
M  V30 8826 N 853.964 3.97843 5.78503 0
M  V30 8827 H 858.804 2.55234 1.53817 0
M  V30 8828 H 856.341 1.26593 0.749173 0
M  V30 8829 H 858.299 1.63015 3.84034 0
M  V30 8830 H 856.929 0.724689 3.1456 0
M  V30 8831 H 855.981 3.00428 2.33339 0
M  V30 8832 H 857.293 3.80097 3.22998 0
M  V30 8833 H 856.447 2.82006 5.37175 0
M  V30 8834 H 855.186 1.91908 4.48356 0
M  V30 8835 H 854.191 4.08092 3.6843 0
M  V30 8836 H 855.416 4.9903 4.60593 0
M  V30 8837 H 853.362 3.08401 5.78986 0
M  V30 8838 H 853.279 4.81473 5.82855 0
M  V30 8839 H 854.547 3.99719 6.69212 0
M  V30 8840 N 858.776 -0.797141 1.35954 0
M  V30 8841 C 859.708 -1.91782 1.25509 0
M  V30 8842 C 860.721 -1.61843 0.176271 0
M  V30 8843 O 861.91 -1.73235 0.430343 0
M  V30 8844 C 859.01 -3.26396 0.912073 0
M  V30 8845 C 858.183 -3.84171 2.0912 0
M  V30 8846 C 857.242 -4.9721 1.72246 0
M  V30 8847 O 856.268 -5.14136 2.44239 0
M  V30 8848 N 857.47 -5.76831 0.651611 0
M  V30 8849 H 860.235 -2.01266 2.22063 0
M  V30 8850 H 857.796 -0.975033 1.29247 0
M  V30 8851 H 859.788 -3.99499 0.646707 0
M  V30 8852 H 858.358 -3.12579 0.0359079 0
M  V30 8853 H 857.578 -3.03148 2.51982 0
M  V30 8854 H 858.866 -4.19503 2.87914 0
M  V30 8855 H 858.264 -5.65675 0.0536678 0
M  V30 8856 H 856.821 -6.50272 0.44605 0
M  V30 8857 N 860.254 -1.20106 -1.0204 0
M  V30 8858 C 861.531 -0.918029 -1.72718 0
M  V30 8859 C 861.911 0.574163 -2.03142 0
M  V30 8860 O 861.259 1.53476 -1.69285 0
M  V30 8861 C 861.469 -1.78698 -2.9978 0
M  V30 8862 C 862.817 -2.02648 -3.7312 0
M  V30 8863 O 863.841 -1.75919 -3.09727 0
M  V30 8864 O 862.7 -2.47767 -4.87107 0
M  V30 8865 H 859.794 -0.342904 -0.752559 0
M  V30 8866 H 862.34 -1.30961 -1.07923 0
M  V30 8867 H 861.112 -2.79757 -2.7359 0
M  V30 8868 H 860.735 -1.39522 -3.72316 0
M  V30 8869 N 861.732 1.21287 -1.00634 0
M  V30 8870 C 862.962 1.94103 -0.70765 0
M  V30 8871 C 863.37 1.74382 0.733991 0
M  V30 8872 O 862.713 1.04843 1.50843 0
M  V30 8873 C 862.775 3.46705 -0.950581 0
M  V30 8874 C 862.439 3.90176 -2.37932 0
M  V30 8875 C 863.436 3.96769 -3.35961 0
M  V30 8876 C 861.121 4.22453 -2.71733 0
M  V30 8877 C 863.115 4.35034 -4.65858 0
M  V30 8878 C 860.802 4.60394 -4.01846 0
M  V30 8879 C 861.8 4.66656 -4.9872 0
M  V30 8880 O 861.488 5.03732 -6.26505 0
M  V30 8881 H 861.22 0.62405 -0.259881 0
M  V30 8882 H 863.774 1.55015 -1.34757 0
M  V30 8883 H 862.004 3.85868 -0.253492 0
M  V30 8884 H 863.693 4.00741 -0.645069 0
M  V30 8885 H 864.459 3.72009 -3.11182 0
M  V30 8886 H 860.338 4.16776 -1.97025 0
M  V30 8887 H 863.882 4.39836 -5.4147 0
M  V30 8888 H 859.779 4.84609 -4.26409 0
M  V30 8889 H 860.547 5.21761 -6.30641 0
M  V30 8890 N 863.21 0.781244 1.36873 0
M  V30 8891 C 864.12 0.174981 2.33947 0
M  V30 8892 C 865.136 -0.668512 1.60645 0
M  V30 8893 O 866.312 -0.586213 1.9268 0
M  V30 8894 C 863.377 -0.686557 3.39834 0
M  V30 8895 C 862.438 0.174489 4.28945 0
M  V30 8896 C 861.671 -0.646024 5.29776 0
M  V30 8897 O 861.894 -1.88254 5.38439 0
M  V30 8898 O 860.828 -0.0502214 6.01879 0
M  V30 8899 H 864.654 0.977382 2.87543 0
M  V30 8900 H 862.239 0.542559 1.392 0
M  V30 8901 H 864.121 -1.1781 4.04597 0
M  V30 8902 H 862.796 -1.46699 2.8855 0
M  V30 8903 H 861.703 0.712604 3.6725 0
M  V30 8904 H 863.036 0.918232 4.83559 0
M  V30 8905 N 864.689 -1.48329 0.532571 0
M  V30 8906 C 866.1 -1.86469 0.0927749 0
M  V30 8907 C 866.451 -1.44186 -1.3306 0
M  V30 8908 O 865.576 -0.833741 -1.99694 0
M  V30 8909 C 866.171 -3.38414 0.161588 0
M  V30 8910 C 864.73 -3.75739 -0.223028 0
M  V30 8911 C 863.877 -2.72377 0.520199 0
M  V30 8912 H 866.828 -1.40197 0.743678 0
M  V30 8913 H 866.849 -3.75314 -0.626059 0
M  V30 8914 H 866.361 -3.69159 1.19765 0
M  V30 8915 H 864.462 -3.50608 -1.26113 0
M  V30 8916 H 864.575 -4.78954 0.118385 0
M  V30 8917 H 862.939 -2.54678 -0.0338425 0
M  V30 8918 H 863.722 -3.05965 1.55694 0
M  V30 8919 N 866.167 -0.267825 -1.55308 0
M  V30 8920 C 867.413 0.351556 -1.9973 0
M  V30 8921 C 867.746 1.56049 -1.15596 0
M  V30 8922 O 867.021 1.93203 -0.224274 0
M  V30 8923 C 867.304 0.74091 -3.52395 0
M  V30 8924 C 867.157 -0.474861 -4.47286 0
M  V30 8925 C 868.476 1.5801 -4.10756 0
M  V30 8926 H 865.595 0.126308 -0.726096 0
M  V30 8927 H 868.237 -0.373316 -1.86296 0
M  V30 8928 H 866.387 1.35851 -3.63973 0
M  V30 8929 H 868.059 -1.1134 -4.47662 0
M  V30 8930 H 866.302 -1.11425 -4.19246 0
M  V30 8931 H 866.973 -0.158782 -5.51772 0
M  V30 8932 H 869.449 1.05857 -4.0241 0
M  V30 8933 H 868.325 1.82135 -5.17801 0
M  V30 8934 H 868.586 2.55878 -3.60526 0
M  V30 8935 N 867.645 1.57599 0.00500368 0
M  V30 8936 C 869.061 1.55463 0.361015 0
M  V30 8937 C 869.261 0.997051 1.75103 0
M  V30 8938 O 868.317 0.628661 2.44549 0
M  V30 8939 C 869.63 2.99734 0.240828 0
M  V30 8940 C 871.178 3.11399 0.316138 0
M  V30 8941 C 871.653 4.57446 0.22513 0
M  V30 8942 N 873.144 4.62334 0.283186 0
M  V30 8943 C 873.879 5.72914 0.23603 0
M  V30 8944 N 873.375 6.92659 0.139762 0
M  V30 8945 N 875.168 5.61364 0.287529 0
M  V30 8946 H 867.319 1.92185 -0.904359 0
M  V30 8947 H 869.582 0.882529 -0.34619 0
M  V30 8948 H 869.288 3.44348 -0.715343 0
M  V30 8949 H 869.162 3.63009 1.02491 0
M  V30 8950 H 871.549 2.66718 1.26275 0
M  V30 8951 H 871.63 2.50911 -0.497725 0
M  V30 8952 H 871.274 5.02801 -0.717917 0
M  V30 8953 H 871.204 5.15874 1.05742 0
M  V30 8954 H 873.695 3.7619 0.359123 0
M  V30 8955 H 874.008 7.72722 0.10954 0
M  V30 8956 H 872.353 6.9492 0.105462 0
M  V30 8957 H 875.544 4.66707 0.360897 0
M  V30 8958 H 875.717 6.47528 0.247313 0
M  V30 8959 N 869.123 -0.277682 1.55134 0
M  V30 8960 C 870.348 -1.03254 1.7987 0
M  V30 8961 C 870.773 -1.79324 0.567861 0
M  V30 8962 O 870.131 -1.74764 -0.4824 0
M  V30 8963 C 870.179 -1.9705 3.02 0
M  V30 8964 O 869.283 -3.05744 2.76757 0
M  V30 8965 H 868.624 -0.295447 0.594649 0
M  V30 8966 H 871.154 -0.308013 2.02268 0
M  V30 8967 H 871.164 -2.3909 3.30606 0
M  V30 8968 H 869.839 -1.41094 3.91236 0
M  V30 8969 H 868.416 -2.68052 2.59235 0
M  V30 8970 N 870.601 -1.47988 -0.541979 0
M  V30 8971 C 871.533 -1.5769 -1.66332 0
M  V30 8972 C 872.546 -0.461994 -1.56107 0
M  V30 8973 O 873.735 -0.732306 -1.62787 0
M  V30 8974 C 870.835 -1.47939 -3.04905 0
M  V30 8975 C 870.008 -2.74263 -3.40733 0
M  V30 8976 C 869.067 -2.58133 -4.58534 0
M  V30 8977 O 868.093 -3.31991 -4.62354 0
M  V30 8978 N 869.295 -1.6696 -5.55972 0
M  V30 8979 H 872.06 -2.54389 -1.5845 0
M  V30 8980 H 869.621 -1.4456 -0.728979 0
M  V30 8981 H 871.613 -1.34861 -3.81569 0
M  V30 8982 H 870.183 -0.592626 -3.06931 0
M  V30 8983 H 869.403 -3.01992 -2.53366 0
M  V30 8984 H 870.691 -3.58094 -3.6145 0
M  V30 8985 H 870.089 -1.06134 -5.55655 0
M  V30 8986 H 868.646 -1.59826 -6.31901 0
M  V30 8987 N 872.079 0.78992 -1.36375 0
M  V30 8988 C 873.012 1.90907 -1.25019 0
M  V30 8989 C 873.99 1.62043 -0.134463 0
M  V30 8990 O 875.174 1.86008 -0.305506 0
M  V30 8991 C 872.301 3.25716 -0.928822 0
M  V30 8992 C 871.347 3.73511 -2.05892 0
M  V30 8993 S 872.18 3.89332 -3.6767 0
M  V30 8994 C 873.336 5.27017 -3.37645 0
M  V30 8995 H 873.569 2.00247 -2.19746 0
M  V30 8996 H 871.102 0.949097 -1.21785 0
M  V30 8997 H 873.06 4.03586 -0.750219 0
M  V30 8998 H 871.721 3.141 0.000658424 0
M  V30 8999 H 870.914 4.71195 -1.78862 0
M  V30 9000 H 870.516 3.02688 -2.19672 0
M  V30 9001 H 872.808 6.1158 -2.91507 0
M  V30 9002 H 873.751 5.5905 -4.3459 0
M  V30 9003 H 874.159 4.94093 -2.73006 0
M  V30 9004 N 873.557 1.20646 1.01402 0
M  V30 9005 C 874.968 1.01823 1.56489 0
M  V30 9006 C 875.319 -0.42463 1.9155 0
M  V30 9007 O 874.444 -1.30644 1.72514 0
M  V30 9008 C 875.039 1.84208 2.84347 0
M  V30 9009 C 873.598 1.69743 3.35953 0
M  V30 9010 C 872.745 1.8198 2.09233 0
M  V30 9011 H 875.696 1.348 0.837539 0
M  V30 9012 H 875.717 1.34698 3.55861 0
M  V30 9013 H 875.229 2.89215 2.58798 0
M  V30 9014 H 873.33 0.673833 3.66456 0
M  V30 9015 H 873.443 2.51173 4.07981 0
M  V30 9016 H 871.807 1.25193 2.21808 0
M  V30 9017 H 872.59 2.88477 1.86107 0
M  V30 9018 N 875.035 -1.20752 1.01276 0
M  V30 9019 C 875.945 -2.27079 0.589277 0
M  V30 9020 C 876.961 -1.6999 -0.371389 0
M  V30 9021 O 878.137 -2.00044 -0.233294 0
M  V30 9022 C 875.202 -3.4663 -0.0696715 0
M  V30 9023 C 874.263 -4.18962 0.936454 0
M  V30 9024 C 873.496 -5.32806 0.308856 0
M  V30 9025 O 873.719 -5.63376 -0.8924 0
M  V30 9026 O 872.653 -5.93131 1.02367 0
M  V30 9027 H 876.479 -2.6551 1.47438 0
M  V30 9028 H 874.064 -1.27297 0.782045 0
M  V30 9029 H 875.946 -4.19119 -0.437873 0
M  V30 9030 H 874.621 -3.10082 -0.929029 0
M  V30 9031 H 873.528 -3.48661 1.35595 0
M  V30 9032 H 874.861 -4.59441 1.76565 0
M  V30 9033 N 876.513 -0.788492 -1.36457 0
M  V30 9034 C 877.423 -0.187385 -2.3385 0
M  V30 9035 C 878.439 0.659984 -1.60998 0
M  V30 9036 O 879.615 0.575986 -1.92988 0
M  V30 9037 C 876.68 0.668525 -3.40194 0
M  V30 9038 C 875.741 -0.197234 -4.28847 0
M  V30 9039 C 874.974 0.61792 -5.30111 0
M  V30 9040 O 875.197 1.85396 -5.3943 0
M  V30 9041 O 874.131 0.0183016 -6.01897 0
M  V30 9042 H 877.957 -0.992617 -2.87021 0
M  V30 9043 H 875.542 -0.549934 -1.3891 0
M  V30 9044 H 877.424 1.15663 -4.05216 0
M  V30 9045 H 876.099 1.45166 -2.89324 0
M  V30 9046 H 875.006 -0.73207 -3.66867 0
M  V30 9047 H 876.339 -0.943863 -4.83065 0
M  V30 9048 N 877.991 1.48044 -0.54043 0
M  V30 9049 C 878.938 2.29781 0.216597 0
M  V30 9050 C 879.908 1.38021 0.924094 0
M  V30 9051 O 881.093 1.66985 0.923078 0
M  V30 9052 C 878.233 3.21623 1.2511 0
M  V30 9053 C 877.346 4.28467 0.551384 0
M  V30 9054 C 876.481 5.07477 1.56972 0
M  V30 9055 C 875.52 6.06113 0.854048 0
M  V30 9056 N 874.657 6.78143 1.81842 0
M  V30 9057 H 879.497 2.94001 -0.486578 0
M  V30 9058 H 877.034 1.44929 -0.251789 0
M  V30 9059 H 878.992 3.73279 1.8633 0
M  V30 9060 H 877.622 2.59305 1.92252 0
M  V30 9061 H 876.674 3.79997 -0.174982 0
M  V30 9062 H 877.986 4.98799 -0.0100542 0
M  V30 9063 H 877.14 5.63199 2.25592 0
M  V30 9064 H 875.879 4.37008 2.16507 0
M  V30 9065 H 874.884 5.49585 0.153838 0
M  V30 9066 H 876.109 6.78584 0.264675 0
M  V30 9067 H 874.055 6.10417 2.40265 0
M  V30 9068 H 873.972 7.44587 1.3087 0
M  V30 9069 H 875.24 7.38448 2.49628 0
M  V30 9070 N 879.47 0.276058 1.55163 0
M  V30 9071 C 880.4 -0.604633 2.25536 0
M  V30 9072 C 881.381 -1.15813 1.24585 0
M  V30 9073 O 882.566 -1.1921 1.53306 0
M  V30 9074 C 879.696 -1.78836 2.97716 0
M  V30 9075 C 878.65 -1.36635 4.05604 0
M  V30 9076 C 877.976 -2.63325 4.65364 0
M  V30 9077 C 879.276 -0.515858 5.19746 0
M  V30 9078 H 880.97 -0.0177483 2.99395 0
M  V30 9079 H 878.516 -0.00709627 1.43998 0
M  V30 9080 H 880.469 -2.41036 3.45658 0
M  V30 9081 H 879.193 -2.40109 2.21394 0
M  V30 9082 H 877.852 -0.767541 3.58475 0
M  V30 9083 H 877.5 -3.22858 3.85709 0
M  V30 9084 H 877.2 -2.358 5.38212 0
M  V30 9085 H 878.724 -3.26372 5.16056 0
M  V30 9086 H 880.138 -1.04289 5.63735 0
M  V30 9087 H 878.535 -0.335449 5.99162 0
M  V30 9088 H 879.605 0.465137 4.82664 0
M  V30 9089 N 880.948 -1.576 0.00335426 0
M  V30 9090 C 882.178 -1.94713 -0.690682 0
M  V30 9091 C 882.586 -0.876915 -1.67651 0
M  V30 9092 O 881.929 0.152434 -1.83066 0
M  V30 9093 C 881.991 -3.27833 -1.47532 0
M  V30 9094 C 881.655 -4.52344 -0.650704 0
M  V30 9095 C 882.652 -5.19862 0.0630537 0
M  V30 9096 C 880.337 -4.98755 -0.595687 0
M  V30 9097 C 882.331 -6.32093 0.820779 0
M  V30 9098 C 880.018 -6.10875 0.165761 0
M  V30 9099 C 881.016 -6.77401 0.872724 0
M  V30 9100 O 880.704 -7.87372 1.62174 0
M  V30 9101 H 880.436 -0.646627 -0.197104 0
M  V30 9102 H 882.99 -2.05335 0.0516082 0
M  V30 9103 H 881.22 -3.13628 -2.26217 0
M  V30 9104 H 882.909 -3.50034 -2.05501 0
M  V30 9105 H 883.675 -4.84991 0.0297223 0
M  V30 9106 H 879.554 -4.46797 -1.13549 0
M  V30 9107 H 883.098 -6.83953 1.37312 0
M  V30 9108 H 878.995 -6.45187 0.200901 0
M  V30 9109 H 879.763 -8.03905 1.5388 0
M  V30 9110 N 882.426 0.269451 -1.5528 0
M  V30 9111 C 883.373 1.33316 -1.88403 0
M  V30 9112 C 884.343 1.48909 -0.735881 0
M  V30 9113 O 885.528 1.63259 -0.987479 0
M  V30 9114 C 882.668 2.68778 -2.16454 0
M  V30 9115 C 881.781 2.61377 -3.43956 0
M  V30 9116 C 880.916 3.89042 -3.6169 0
M  V30 9117 C 879.955 3.76166 -4.82872 0
M  V30 9118 N 879.092 4.95673 -4.97245 0
M  V30 9119 H 883.932 1.04368 -2.79126 0
M  V30 9120 H 881.469 0.504147 -1.38191 0
M  V30 9121 H 883.427 3.47599 -2.30719 0
M  V30 9122 H 882.057 2.9592 -1.28961 0
M  V30 9123 H 881.109 1.74247 -3.38145 0
M  V30 9124 H 882.421 2.47764 -4.32914 0
M  V30 9125 H 881.575 4.76304 -3.75791 0
M  V30 9126 H 880.314 4.05526 -2.70924 0
M  V30 9127 H 879.319 2.87287 -4.68771 0
M  V30 9128 H 880.544 3.61198 -5.75077 0
M  V30 9129 H 878.49 5.12561 -4.09411 0
M  V30 9130 H 878.407 4.84605 -5.80254 0
M  V30 9131 H 879.675 5.84498 -5.15735 0
M  V30 9132 N 883.904 1.48273 0.534124 0
M  V30 9133 C 885.15 1.56311 1.29208 0
M  V30 9134 C 885.483 0.234481 1.92779 0
M  V30 9135 O 884.758 -0.759143 1.79073 0
M  V30 9136 C 885.041 2.69831 2.3846 0
M  V30 9137 C 884.894 4.12385 1.79608 0
M  V30 9138 C 886.213 2.79133 3.40254 0
M  V30 9139 H 883.332 0.56899 0.468422 0
M  V30 9140 H 885.974 1.80429 0.595438 0
M  V30 9141 H 884.124 2.49397 2.97881 0
M  V30 9142 H 885.796 4.44246 1.24269 0
M  V30 9143 H 884.039 4.19579 1.10162 0
M  V30 9144 H 884.71 4.87629 2.58693 0
M  V30 9145 H 887.186 2.97632 2.90783 0
M  V30 9146 H 886.062 3.60298 4.14097 0
M  V30 9147 H 886.323 1.87122 4.00547 0
M  V30 9148 N 885.382 -0.782676 1.36792 0
M  V30 9149 C 886.612 -1.56934 1.3437 0
M  V30 9150 C 887.02 -1.89049 -0.0754828 0
M  V30 9151 O 886.363 -1.51103 -1.04467 0
M  V30 9152 C 886.425 -2.91311 2.10661 0
M  V30 9153 C 886.089 -2.81889 3.59705 0
M  V30 9154 C 887.086 -2.53668 4.53815 0
M  V30 9155 C 884.771 -3.00254 4.02682 0
M  V30 9156 C 886.765 -2.43925 5.8888 0
M  V30 9157 C 884.452 -2.90132 5.37835 0
M  V30 9158 C 885.45 -2.62006 6.30747 0
M  V30 9159 O 885.138 -2.5189 7.63418 0
M  V30 9160 H 884.87 -0.493194 0.462316 0
M  V30 9161 H 887.424 -0.978791 1.80579 0
M  V30 9162 H 885.654 -3.52443 1.59125 0
M  V30 9163 H 887.343 -3.52632 2.01012 0
M  V30 9164 H 888.109 -2.39176 4.21924 0
M  V30 9165 H 883.988 -3.21151 3.30731 0
M  V30 9166 H 887.532 -2.21892 6.6137 0
M  V30 9167 H 883.429 -3.04189 5.69332 0
M  V30 9168 H 884.197 -2.67321 7.73616 0
M  V30 9169 N 886.86 -1.21182 -1.00761 0
M  V30 9170 C 888.088 -1.05335 -1.78079 0
M  V30 9171 C 888.503 0.396988 -1.84579 0
M  V30 9172 O 887.86 1.27548 -1.30529 0
M  V30 9173 C 887.911 -1.64089 -3.22113 0
M  V30 9174 O 887.632 -3.03448 -3.15992 0
M  V30 9175 C 889.133 -1.53318 -4.15943 0
M  V30 9176 H 886.353 -0.37005 -0.559736 0
M  V30 9177 H 888.897 -1.60463 -1.26775 0
M  V30 9178 H 887.052 -1.13059 -3.70535 0
M  V30 9179 H 887.466 -3.31492 -4.06465 0
M  V30 9180 H 888.94 -1.99174 -5.14814 0
M  V30 9181 H 889.417 -0.487166 -4.3649 0
M  V30 9182 H 890.023 -2.03582 -3.73409 0
M  V30 9183 N 888.338 1.20213 -1.01915 0
M  V30 9184 C 889.585 1.89647 -0.709955 0
M  V30 9185 C 889.913 1.7901 0.760631 0
M  V30 9186 O 889.168 1.17028 1.56853 0
M  V30 9187 C 889.467 3.40232 -1.09438 0
M  V30 9188 C 889.133 3.7107 -2.5616 0
M  V30 9189 C 887.795 3.79196 -2.96249 0
M  V30 9190 C 890.147 3.85169 -3.51133 0
M  V30 9191 C 887.475 3.98882 -4.30244 0
M  V30 9192 C 889.827 4.06365 -4.8482 0
M  V30 9193 C 888.491 4.12722 -5.24611 0
M  V30 9194 H 887.761 0.693967 -0.259791 0
M  V30 9195 H 890.408 1.42419 -1.2802 0
M  V30 9196 H 888.713 3.89292 -0.442596 0
M  V30 9197 H 890.41 3.92257 -0.832811 0
M  V30 9198 H 887 3.65346 -2.24099 0
M  V30 9199 H 891.184 3.78243 -3.21319 0
M  V30 9200 H 886.44 4.02039 -4.60624 0
M  V30 9201 H 890.614 4.16216 -5.58334 0
M  V30 9202 H 888.241 4.27728 -6.28453 0
M  V30 9203 N 889.816 0.795718 1.36037 0
M  V30 9204 C 890.764 0.18649 2.31851 0
M  V30 9205 C 891.758 -0.657704 1.56111 0
M  V30 9206 O 892.964 -0.552083 1.71324 0
M  V30 9207 H 889.339 0.0415363 0.750852 0
M  V30 9208 H 891.31 1.00992 2.8079 0
M  V30 9209 C 890.059 -0.65918 3.41394 0
M  V30 9210 H 889.382 -0.01894 3.99796 0
M  V30 9211 H 890.822 -1.05202 4.10741 0
M  V30 9212 C 889.281 -1.82011 2.83502 0
M  V30 9213 O 889.811 -2.91703 2.76174 0
M  V30 9214 N 888.017 -1.62821 2.40703 0
M  V30 9215 H 887.564 -0.735965 2.46863 0
M  V30 9216 H 887.522 -2.40657 2.02316 0
M  V30 9217 N 891.294 -1.47756 0.548274 0
M  V30 9218 C 892.519 -2.07387 0.023475 0
M  V30 9219 C 892.944 -1.39956 -1.25674 0
M  V30 9220 O 892.302 -0.471543 -1.7506 0
M  V30 9221 C 892.35 -3.60224 -0.164669 0
M  V30 9222 O 891.454 -3.93653 -1.22928 0
M  V30 9223 H 890.795 -0.662312 0.0473156 0
M  V30 9224 H 893.325 -1.89905 0.761409 0
M  V30 9225 H 893.335 -4.06211 -0.38166 0
M  V30 9226 H 892.01 -4.08702 0.770425 0
M  V30 9227 H 890.587 -3.59422 -0.993495 0
M  V30 9228 N 892.772 -0.284283 -1.55015 0
M  V30 9229 C 894.018 0.330352 -2.00091 0
M  V30 9230 C 894.351 1.54814 -1.17244 0
M  V30 9231 O 893.626 1.92954 -0.244753 0
M  V30 9232 C 893.909 0.703492 -3.53161 0
M  V30 9233 C 893.762 -0.522275 -4.46758 0
M  V30 9234 C 895.081 1.53645 -4.12409 0
M  V30 9235 H 892.2 0.118599 -0.727395 0
M  V30 9236 H 894.842 -0.393054 -1.8589 0
M  V30 9237 H 892.992 1.31983 -3.65394 0
M  V30 9238 H 894.664 -1.16082 -4.46456 0
M  V30 9239 H 892.907 -1.15865 -4.1804 0
M  V30 9240 H 893.578 -0.217295 -5.51572 0
M  V30 9241 H 896.054 1.01583 -4.0351 0
M  V30 9242 H 894.93 1.76633 -5.19704 0
M  V30 9243 H 895.191 2.5204 -3.63219 0
M  V30 9244 N 894.251 1.57596 -0.0117121 0
M  V30 9245 C 895.667 1.55837 0.344506 0
M  V30 9246 C 895.867 1.01557 1.74036 0
M  V30 9247 O 894.923 0.654563 2.43868 0
M  V30 9248 C 896.236 2.99973 0.209023 0
M  V30 9249 C 897.784 3.11717 0.283092 0
M  V30 9250 C 898.259 4.57659 0.176599 0
M  V30 9251 N 899.75 4.62608 0.234133 0
M  V30 9252 C 900.485 5.73132 0.175252 0
M  V30 9253 N 899.981 6.92768 0.0662888 0
M  V30 9254 N 901.774 5.61638 0.227972 0
M  V30 9255 H 893.925 1.91215 -0.924692 0
M  V30 9256 H 896.188 0.878807 -0.355531 0
M  V30 9257 H 895.894 3.4357 -0.751826 0
M  V30 9258 H 895.768 3.64075 0.98635 0
M  V30 9259 H 898.155 2.68043 1.23439 0
M  V30 9260 H 898.236 2.50369 -0.52431 0
M  V30 9261 H 897.88 5.02011 -0.771205 0
M  V30 9262 H 897.81 5.16967 1.00264 0
M  V30 9263 H 900.301 3.76549 0.319203 0
M  V30 9264 H 900.614 7.72795 0.0275765 0
M  V30 9265 H 898.959 6.94993 0.0317502 0
M  V30 9266 H 902.15 4.67063 0.311377 0
M  V30 9267 H 902.323 6.47754 0.178621 0
M  V30 9268 N 895.729 -0.261212 1.5542 0
M  V30 9269 C 896.676 -1.32315 1.89107 0
M  V30 9270 C 897.646 -1.48517 0.743767 0
M  V30 9271 O 898.831 -1.62733 0.996123 0
M  V30 9272 C 895.971 -2.67626 2.17877 0
M  V30 9273 C 895.084 -2.59549 3.45338 0
M  V30 9274 C 894.219 -3.87118 3.63748 0
M  V30 9275 C 893.258 -3.736 4.8486 0
M  V30 9276 N 892.395 -4.93029 4.99867 0
M  V30 9277 H 897.235 -1.02886 2.79675 0
M  V30 9278 H 894.772 -0.496812 1.38456 0
M  V30 9279 H 896.73 -3.4637 2.32559 0
M  V30 9280 H 895.36 -2.95232 1.30529 0
M  V30 9281 H 894.412 -1.72452 3.39064 0
M  V30 9282 H 895.724 -2.45465 4.34222 0
M  V30 9283 H 894.878 -4.74305 3.78312 0
M  V30 9284 H 893.617 -4.04084 2.73071 0
M  V30 9285 H 892.622 -2.84797 4.70288 0
M  V30 9286 H 893.847 -3.58143 5.76984 0
M  V30 9287 H 891.793 -5.10383 4.12123 0
M  V30 9288 H 891.71 -4.81521 5.82815 0
M  V30 9289 H 892.978 -5.81754 5.18828 0
M  V30 9290 N 897.207 -1.48554 -0.526253 0
M  V30 9291 C 898.432 -1.60686 -1.31129 0
M  V30 9292 C 898.857 -0.268701 -1.86171 0
M  V30 9293 O 898.215 0.760167 -1.64594 0
M  V30 9294 C 898.263 -2.65938 -2.43536 0
M  V30 9295 O 897.367 -2.23356 -3.46678 0
M  V30 9296 H 896.708 -0.538691 -0.388211 0
M  V30 9297 H 899.238 -1.94567 -0.632826 0
M  V30 9298 H 899.248 -2.87327 -2.89668 0
M  V30 9299 H 897.923 -3.63085 -2.02835 0
M  V30 9300 H 896.5 -2.12196 -3.06639 0
M  V30 9301 N 898.685 0.775411 -1.37205 0
M  V30 9302 C 899.618 1.8957 -1.27037 0
M  V30 9303 C 900.596 1.61891 -0.151643 0
M  V30 9304 O 901.78 1.85673 -0.325218 0
M  V30 9305 C 898.907 3.24712 -0.963316 0
M  V30 9306 C 897.953 3.71306 -2.09842 0
M  V30 9307 S 898.786 3.8541 -3.71778 0
M  V30 9308 C 899.942 5.23406 -3.43216 0
M  V30 9309 H 900.175 1.97905 -2.21857 0
M  V30 9310 H 897.708 0.936127 -1.22784 0
M  V30 9311 H 899.666 4.02768 -0.792983 0
M  V30 9312 H 898.327 3.14083 -0.0326561 0
M  V30 9313 H 897.52 4.69271 -1.83849 0
M  V30 9314 H 897.122 3.00341 -2.2287 0
M  V30 9315 H 899.414 6.08454 -2.97977 0
M  V30 9316 H 900.357 5.54409 -4.40495 0
M  V30 9317 H 900.765 4.9117 -2.78231 0
M  V30 9318 N 900.163 1.21714 1.00117 0
M  V30 9319 C 901.388 1.06357 1.78054 0
M  V30 9320 C 901.813 -0.382075 1.84179 0
M  V30 9321 O 901.171 -1.27575 1.28819 0
M  V30 9322 C 901.219 1.66982 3.19608 0
M  V30 9323 O 900.323 0.917892 4.02055 0
M  V30 9324 H 899.664 0.374074 0.548602 0
M  V30 9325 H 902.194 1.61338 1.25822 0
M  V30 9326 H 902.204 1.71363 3.70268 0
M  V30 9327 H 900.879 2.72185 3.14465 0
M  V30 9328 H 899.456 0.949473 3.6061 0
M  V30 9329 N 901.641 -1.19671 1.02551 0
M  V30 9330 C 902.869 -1.93233 0.739513 0
M  V30 9331 C 903.284 -1.75298 -0.701158 0
M  V30 9332 O 902.641 -1.07269 -1.47647 0
M  V30 9333 C 902.692 -3.45085 1.07697 0
M  V30 9334 O 902.413 -3.62441 2.46106 0
M  V30 9335 C 903.914 -4.35776 0.813298 0
M  V30 9336 H 901.134 -0.613905 0.270853 0
M  V30 9337 H 903.678 -1.51909 1.36909 0
M  V30 9338 H 901.833 -3.84255 0.492635 0
M  V30 9339 H 902.247 -4.56337 2.58567 0
M  V30 9340 H 903.721 -5.40941 1.09941 0
M  V30 9341 H 904.198 -4.38474 -0.252359 0
M  V30 9342 H 904.804 -4.02282 1.38021 0
M  V30 9343 N 903.119 -0.802921 -1.35613 0
M  V30 9344 C 904.365 -0.382141 -1.99167 0
M  V30 9345 C 904.698 1.04704 -1.63556 0
M  V30 9346 O 903.973 1.72578 -0.89706 0
M  V30 9347 C 904.256 -0.561493 -3.55695 0
M  V30 9348 C 904.109 -2.03534 -4.01116 0
M  V30 9349 C 905.428 0.0151135 -4.40097 0
M  V30 9350 H 902.547 -0.140322 -0.723518 0
M  V30 9351 H 905.189 -1.01177 -1.6082 0
M  V30 9352 H 903.339 -0.0255083 -3.88492 0
M  V30 9353 H 905.011 -2.63343 -3.78746 0
M  V30 9354 H 903.254 -2.5331 -3.52159 0
M  V30 9355 H 903.925 -2.11173 -5.1001 0
M  V30 9356 H 906.401 -0.442582 -4.1374 0
M  V30 9357 H 905.277 -0.140316 -5.48721 0
M  V30 9358 H 905.538 1.10848 -4.27978 0
M  V30 9359 N 904.597 1.47463 -0.556102 0
M  V30 9360 C 905.846 2.01678 -0.029492 0
M  V30 9361 C 906.159 1.436 1.32809 0
M  V30 9362 O 907.365 1.89472 1.94455 0
M  V30 9363 C 905.821 3.599 -0.00223937 0
M  V30 9364 C 905.429 4.26969 -1.35651 0
M  V30 9365 C 907.173 4.2187 0.471822 0
M  V30 9366 C 905.08 5.77194 -1.28843 0
M  V30 9367 H 904.01 0.753965 -0.00725504 0
M  V30 9368 H 906.661 1.69467 -0.703789 0
M  V30 9369 H 905.043 3.89068 0.737682 0
M  V30 9370 H 906.217 4.09444 -2.11406 0
M  V30 9371 H 904.532 3.76983 -1.76842 0
M  V30 9372 H 907.129 5.31955 0.541139 0
M  V30 9373 H 907.472 3.88968 1.48356 0
M  V30 9374 H 908.005 3.97228 -0.213207 0
M  V30 9375 H 904.744 6.14713 -2.27613 0
M  V30 9376 H 904.264 5.9706 -0.572668 0
M  V30 9377 H 905.943 6.3938 -0.990031 0
M  V30 9378 N 906.075 0.2925 1.54862 0
M  V30 9379 C 907.022 -0.587365 2.23201 0
M  V30 9380 C 907.992 -1.13623 1.21157 0
M  V30 9381 O 909.177 -1.18233 1.49752 0
M  V30 9382 C 906.317 -1.75745 2.96998 0
M  V30 9383 C 905.43 -1.24078 4.13798 0
M  V30 9384 C 904.565 -2.37405 4.75197 0
M  V30 9385 C 903.604 -1.82829 5.84157 0
M  V30 9386 N 902.741 -2.89696 6.39547 0
M  V30 9387 H 907.581 0.00202207 2.98 0
M  V30 9388 H 905.118 0.012766 1.47094 0
M  V30 9389 H 907.076 -2.44549 3.38011 0
M  V30 9390 H 905.706 -2.3186 2.24591 0
M  V30 9391 H 904.758 -0.445268 3.77785 0
M  V30 9392 H 906.07 -0.801186 4.92324 0
M  V30 9393 H 905.224 -3.14172 5.19019 0
M  V30 9394 H 903.963 -2.84688 3.95985 0
M  V30 9395 H 902.968 -1.04548 5.39768 0
M  V30 9396 H 904.193 -1.36461 6.65248 0
M  V30 9397 H 902.139 -3.36328 5.63222 0
M  V30 9398 H 902.056 -2.50206 7.13395 0
M  V30 9399 H 903.324 -3.66386 6.88027 0
M  V30 9400 N 907.553 -1.57587 0.0200696 0
M  V30 9401 C 908.483 -2.12702 -0.963333 0
M  V30 9402 C 909.464 -1.04094 -1.34531 0
M  V30 9403 O 910.649 -1.31881 -1.42552 0
M  V30 9404 C 907.779 -2.64673 -2.24868 0
M  V30 9405 C 906.733 -3.77987 -2.00772 0
M  V30 9406 C 906.059 -4.16351 -3.35494 0
M  V30 9407 C 907.359 -5.0444 -1.35416 0
M  V30 9408 H 909.053 -2.95121 -0.504363 0
M  V30 9409 H 906.599 -1.41966 -0.24116 0
M  V30 9410 H 908.552 -3.01862 -2.94036 0
M  V30 9411 H 907.276 -1.79403 -2.72914 0
M  V30 9412 H 905.935 -3.41223 -1.34025 0
M  V30 9413 H 905.583 -3.28075 -3.81282 0
M  V30 9414 H 905.283 -4.92705 -3.20181 0
M  V30 9415 H 906.807 -4.56115 -4.05945 0
M  V30 9416 H 908.221 -5.39273 -1.94571 0
M  V30 9417 H 906.618 -5.85732 -1.30529 0
M  V30 9418 H 907.688 -4.83803 -0.325923 0
M  V30 9419 N 909.032 0.252966 -1.55557 0
M  V30 9420 C 910.443 0.822503 -1.67606 0
M  V30 9421 C 910.794 1.86265 -0.616411 0
M  V30 9422 O 909.919 2.15082 0.238447 0
M  V30 9423 C 910.514 1.49866 -3.03852 0
M  V30 9424 C 909.073 2.01597 -3.17861 0
M  V30 9425 C 908.22 0.864943 -2.63465 0
M  V30 9426 H 911.171 0.0288958 -1.58674 0
M  V30 9427 H 911.192 2.36646 -2.97958 0
M  V30 9428 H 910.704 0.741378 -3.80953 0
M  V30 9429 H 908.805 2.80224 -2.45571 0
M  V30 9430 H 908.918 2.21752 -4.24692 0
M  V30 9431 H 907.282 1.2638 -2.21134 0
M  V30 9432 H 908.065 0.120847 -3.43087 0
M  V30 9433 N 910.51 1.48831 0.518367 0
M  V30 9434 C 911.787 1.47933 1.27966 0
M  V30 9435 C 912.167 0.197393 2.10175 0
M  V30 9436 O 911.515 -0.820656 2.13255 0
M  V30 9437 C 911.725 2.74816 2.15121 0
M  V30 9438 C 913.073 3.23613 2.74881 0
M  V30 9439 O 914.097 2.75814 2.254 0
M  V30 9440 O 912.956 4.06818 3.64913 0
M  V30 9441 H 910.05 0.591316 0.578164 0
M  V30 9442 H 912.596 1.61077 0.534065 0
M  V30 9443 H 911.368 3.59621 1.54234 0
M  V30 9444 H 910.991 2.64449 2.96905 0
M  V30 9445 N 911.988 -0.768124 1.37614 0
M  V30 9446 C 912.898 -1.91249 1.35871 0
M  V30 9447 C 913.914 -1.7208 0.257786 0
M  V30 9448 O 915.09 -1.95253 0.493782 0
M  V30 9449 C 912.155 -3.26423 1.16829 0
M  V30 9450 C 911.216 -3.5822 2.36594 0
M  V30 9451 C 910.449 -4.86945 2.1845 0
M  V30 9452 O 910.672 -5.58258 1.17064 0
M  V30 9453 O 909.606 -5.17888 3.06718 0
M  V30 9454 H 913.432 -1.95671 2.32264 0
M  V30 9455 H 911.017 -0.911382 1.18382 0
M  V30 9456 H 912.899 -4.07269 1.08212 0
M  V30 9457 H 911.574 -3.22845 0.235123 0
M  V30 9458 H 910.481 -2.77594 2.50783 0
M  V30 9459 H 911.814 -3.66545 3.2849 0
M  V30 9460 N 913.466 -1.22244 -0.994698 0
M  V30 9461 C 914.691 -1.07299 -1.77487 0
M  V30 9462 C 915.116 0.372302 -1.84379 0
M  V30 9463 O 914.474 1.2689 -1.29494 0
M  V30 9464 C 914.522 -1.68675 -3.18718 0
M  V30 9465 O 913.626 -0.939202 -4.01563 0
M  V30 9466 H 912.967 -0.376979 -0.546611 0
M  V30 9467 H 915.497 -1.62003 -1.24965 0
M  V30 9468 H 915.507 -1.73324 -3.69354 0
M  V30 9469 H 914.182 -2.73849 -3.13017 0
M  V30 9470 H 912.759 -0.968583 -3.60101 0
M  V30 9471 N 914.944 1.19125 -1.03184 0
M  V30 9472 C 916.191 1.88883 -0.730029 0
M  V30 9473 C 916.519 1.79807 0.741602 0
M  V30 9474 O 915.774 1.18686 1.55603 0
M  V30 9475 C 916.073 3.39052 -1.13041 0
M  V30 9476 C 915.739 3.68332 -2.60082 0
M  V30 9477 C 914.401 3.76033 -3.00254 0
M  V30 9478 C 916.753 3.81423 -3.55199 0
M  V30 9479 C 914.081 3.94296 -4.34451 0
M  V30 9480 C 916.433 4.012 -4.89103 0
M  V30 9481 C 915.097 4.07134 -5.28959 0
M  V30 9482 H 914.367 0.691172 -0.267137 0
M  V30 9483 H 917.014 1.41053 -1.29523 0
M  V30 9484 H 915.319 3.88801 -0.48386 0
M  V30 9485 H 917.016 3.91351 -0.874368 0
M  V30 9486 H 913.606 3.62948 -2.27961 0
M  V30 9487 H 917.79 3.74814 -3.25313 0
M  V30 9488 H 913.046 3.97131 -4.64863 0
M  V30 9489 H 917.22 4.10271 -5.62717 0
M  V30 9490 H 914.847 4.21038 -6.32954 0
M  V30 9491 N 916.422 0.810101 1.35185 0
M  V30 9492 C 917.838 0.494269 1.51754 0
M  V30 9493 C 918.038 -0.983907 1.75845 0
M  V30 9494 O 917.094 -1.76882 1.80191 0
M  V30 9495 C 918.407 1.34268 2.69059 0
M  V30 9496 C 919.955 1.33848 2.82938 0
M  V30 9497 C 920.43 2.17109 4.03271 0
M  V30 9498 N 921.921 2.14664 4.10456 0
M  V30 9499 C 922.656 2.75843 5.02691 0
M  V30 9500 N 922.152 3.45962 6.00235 0
M  V30 9501 N 923.945 2.65465 4.95464 0
M  V30 9502 H 916.096 1.76736 1.17805 0
M  V30 9503 H 918.359 0.752429 0.576676 0
M  V30 9504 H 918.065 2.39183 2.57845 0
M  V30 9505 H 917.939 0.998362 3.63748 0
M  V30 9506 H 920.326 0.29716 2.936 0
M  V30 9507 H 920.407 1.72269 1.89095 0
M  V30 9508 H 920.051 3.21283 3.93369 0
M  V30 9509 H 919.981 1.76046 4.96302 0
M  V30 9510 H 922.472 1.63648 3.40628 0
M  V30 9511 H 922.785 3.89922 6.67219 0
M  V30 9512 H 921.13 3.50067 6.00398 0
M  V30 9513 H 924.321 2.1027 4.18215 0
M  V30 9514 H 924.494 3.13433 5.67154 0
M  V30 9515 N 917.9 -1.47166 0.563914 0
M  V30 9516 C 918.833 -2.27058 -0.227989 0
M  V30 9517 C 919.811 -1.34468 -0.914179 0
M  V30 9518 O 920.995 -1.63857 -0.931829 0
M  V30 9519 C 918.122 -3.11689 -1.32543 0
M  V30 9520 C 917.168 -4.19906 -0.747084 0
M  V30 9521 S 918.001 -5.33916 0.41153 0
M  V30 9522 C 919.157 -6.22112 -0.687566 0
M  V30 9523 H 919.39 -2.93876 0.449939 0
M  V30 9524 H 916.923 -1.50372 0.350382 0
M  V30 9525 H 918.881 -3.61017 -1.95389 0
M  V30 9526 H 917.542 -2.44221 -1.97522 0
M  V30 9527 H 916.735 -4.78876 -1.57141 0
M  V30 9528 H 916.337 -3.73493 -0.194671 0
M  V30 9529 H 918.629 -6.58867 -1.578 0
M  V30 9530 H 919.572 -7.07971 -0.135058 0
M  V30 9531 H 919.98 -5.55871 -0.983255 0
M  V30 9532 N 919.378 -0.300708 -1.54705 0
M  V30 9533 C 920.608 0.310819 -2.04249 0
M  V30 9534 C 921.016 1.4809 -1.17754 0
M  V30 9535 O 920.359 1.82654 -0.195779 0
M  V30 9536 C 920.421 0.83014 -3.49784 0
M  V30 9537 C 920.085 -0.214628 -4.56496 0
M  V30 9538 C 921.082 -1.04298 -5.09331 0
M  V30 9539 C 918.767 -0.356242 -5.01035 0
M  V30 9540 C 920.761 -1.99889 -6.05246 0
M  V30 9541 C 918.448 -1.3156 -5.96771 0
M  V30 9542 C 919.446 -2.1354 -6.4876 0
M  V30 9543 O 919.134 -3.07849 -7.4262 0
M  V30 9544 H 918.866 0.0715341 -0.672204 0
M  V30 9545 H 921.42 -0.438179 -2.00672 0
M  V30 9546 H 919.65 1.62966 -3.50684 0
M  V30 9547 H 921.339 1.35752 -3.82526 0
M  V30 9548 H 922.105 -0.944439 -4.75716 0
M  V30 9549 H 917.984 0.271916 -4.60197 0
M  V30 9550 H 921.528 -2.63917 -6.45751 0
M  V30 9551 H 917.425 -1.41486 -6.29803 0
M  V30 9552 H 918.193 -3.02824 -7.60421 0
M  V30 9553 N 920.856 1.57574 -0.0284266 0
M  V30 9554 C 922.081 1.96479 0.664137 0
M  V30 9555 C 922.506 0.904826 1.64908 0
M  V30 9556 O 921.864 -0.134339 1.80802 0
M  V30 9557 C 921.912 3.34479 1.34745 0
M  V30 9558 O 921.016 3.30794 2.46271 0
M  V30 9559 H 920.357 0.640654 0.174524 0
M  V30 9560 H 922.887 2.04402 -0.0900729 0
M  V30 9561 H 922.897 3.70694 1.7044 0
M  V30 9562 H 921.572 4.1117 0.625468 0
M  V30 9563 H 920.149 3.06294 2.12693 0
M  V30 9564 N 922.334 -0.244713 1.55689 0
M  V30 9565 C 923.281 -1.30301 1.905 0
M  V30 9566 C 924.251 -1.4772 0.759478 0
M  V30 9567 O 925.436 -1.61667 1.01333 0
M  V30 9568 C 922.576 -2.653 2.20703 0
M  V30 9569 C 921.689 -2.55872 3.48071 0
M  V30 9570 C 920.824 -3.83238 3.67834 0
M  V30 9571 C 919.863 -3.68436 4.88796 0
M  V30 9572 N 919 -4.877 5.05068 0
M  V30 9573 H 923.84 -0.999143 2.80751 0
M  V30 9574 H 921.377 -0.482099 1.38976 0
M  V30 9575 H 923.335 -3.43884 2.36219 0
M  V30 9576 H 921.965 -2.93831 1.33653 0
M  V30 9577 H 921.017 -1.68846 3.40874 0
M  V30 9578 H 922.329 -2.40845 4.36801 0
M  V30 9579 H 921.483 -4.70266 3.83321 0
M  V30 9580 H 920.222 -4.01165 2.77341 0
M  V30 9581 H 919.227 -2.79793 4.73282 0
M  V30 9582 H 920.452 -3.52003 5.8075 0
M  V30 9583 H 918.398 -5.05983 4.17513 0
M  V30 9584 H 918.315 -4.75312 5.8789 0
M  V30 9585 H 919.583 -5.76219 5.24969 0
M  V30 9586 N 923.813 -1.49104 -0.510467 0
M  V30 9587 C 925.061 -1.578 -1.26268 0
M  V30 9588 C 925.382 -0.262349 -1.93227 0
M  V30 9589 O 924.652 0.717624 -1.82283 0
M  V30 9590 H 923.232 -0.581387 -0.46904 0
M  V30 9591 H 925.894 -1.85678 -0.592423 0
M  V30 9592 H 924.99 -2.36919 -2.03165 0
M  V30 9593 N 925.291 0.760815 -1.38019 0
M  V30 9594 C 926.254 1.85604 -1.34476 0
M  V30 9595 C 927.254 1.58897 -0.24666 0
M  V30 9596 O 928.444 1.66776 -0.50314 0
M  V30 9597 C 925.576 3.22945 -1.09176 0
M  V30 9598 H 926.769 1.90155 -2.31908 0
M  V30 9599 H 924.322 0.961746 -1.23208 0
M  V30 9600 H 925.057 3.24066 -0.123216 0
M  V30 9601 H 924.842 3.43723 -1.88672 0
M  V30 9602 H 926.332 4.03022 -1.09375 0
M  V30 9603 N 926.769 1.22769 0.988202 0
M  V30 9604 C 927.994 1.08239 1.76915 0
M  V30 9605 C 928.419 -0.362519 1.84574 0
M  V30 9606 O 927.777 -1.26202 1.30165 0
M  V30 9607 C 927.825 1.70363 3.17819 0
M  V30 9608 O 926.929 0.960484 4.01059 0
M  V30 9609 H 926.27 0.379872 0.544604 0
M  V30 9610 H 928.8 1.62663 1.24104 0
M  V30 9611 H 928.81 1.7528 3.6843 0
M  V30 9612 H 927.485 2.75505 3.1156 0
M  V30 9613 H 926.062 0.987667 3.59582 0
M  V30 9614 N 928.247 -1.18576 1.03814 0
M  V30 9615 C 929.157 -2.25778 0.637311 0
M  V30 9616 C 930.173 -1.7074 -0.335248 0
M  V30 9617 O 931.349 -2.00494 -0.19081 0
M  V30 9618 C 928.414 -3.467 0.00386953 0
M  V30 9619 C 927.475 -4.16881 1.02511 0
M  V30 9620 C 926.708 -5.32031 0.421802 0
M  V30 9621 O 926.931 -5.65142 -0.772699 0
M  V30 9622 O 925.865 -5.90826 1.14925 0
M  V30 9623 H 929.691 -2.62323 1.53037 0
M  V30 9624 H 927.276 -1.25609 0.80887 0
M  V30 9625 H 929.158 -4.19953 -0.348873 0
M  V30 9626 H 927.833 -3.11983 -0.863047 0
M  V30 9627 H 926.74 -3.45707 1.4296 0
M  V30 9628 H 928.073 -4.55592 1.86271 0
M  V30 9629 N 929.725 -0.817259 -1.34754 0
M  V30 9630 C 930.974 -0.39908 -1.97713 0
M  V30 9631 C 931.287 1.04203 -1.65533 0
M  V30 9632 O 932.493 1.56384 -2.21937 0
M  V30 9633 C 930.949 -0.662634 -3.53747 0
M  V30 9634 C 930.557 -2.11699 -3.94826 0
M  V30 9635 C 932.301 -0.31034 -4.23364 0
M  V30 9636 C 930.208 -2.32573 -5.4375 0
M  V30 9637 H 929.138 -0.145488 -0.739831 0
M  V30 9638 H 931.789 -1.00282 -1.53674 0
M  V30 9639 H 930.171 0.0111972 -3.95998 0
M  V30 9640 H 931.345 -2.82951 -3.63697 0
M  V30 9641 H 929.66 -2.43017 -3.3813 0
M  V30 9642 H 932.257 -0.44421 -5.32852 0
M  V30 9643 H 932.6 0.744594 -4.09587 0
M  V30 9644 H 933.133 -0.938518 -3.8657 0
M  V30 9645 H 929.872 -3.36551 -5.62507 0
M  V30 9646 H 929.392 -1.65858 -5.76412 0
M  V30 9647 H 931.071 -2.14651 -6.10356 0
M  V30 9648 N 931.203 1.46865 -0.571711 0
M  V30 9649 C 932.449 2.0273 -0.0531858 0
M  V30 9650 C 932.782 1.44353 1.29907 0
M  V30 9651 O 932.057 0.604488 1.84868 0
M  V30 9652 C 932.34 3.60092 0.0243831 0
M  V30 9653 C 932.193 4.28874 -1.35599 0
M  V30 9654 C 933.512 4.33994 0.730563 0
M  V30 9655 H 930.631 0.736706 -0.0208018 0
M  V30 9656 H 933.273 1.75132 -0.736794 0
M  V30 9657 H 931.423 3.83736 0.606565 0
M  V30 9658 H 933.095 4.16527 -1.98249 0
M  V30 9659 H 931.338 3.88664 -1.92674 0
M  V30 9660 H 932.009 5.37561 -1.25429 0
M  V30 9661 H 934.485 4.1543 0.236098 0
M  V30 9662 H 933.361 5.43699 0.753836 0
M  V30 9663 H 933.622 4.04257 1.78967 0
M  V30 9664 N 932.681 0.308908 1.54543 0
M  V30 9665 C 933.611 -0.556657 2.26768 0
M  V30 9666 C 934.592 -1.13145 1.27013 0
M  V30 9667 O 935.777 -1.15931 1.558 0
M  V30 9668 C 932.907 -1.72481 3.01443 0
M  V30 9669 C 931.861 -1.28001 4.08411 0
M  V30 9670 C 931.187 -2.53395 4.70845 0
M  V30 9671 C 932.487 -0.405497 5.20724 0
M  V30 9672 H 934.181 0.0457618 2.99365 0
M  V30 9673 H 931.727 0.0234495 1.43981 0
M  V30 9674 H 933.68 -2.3365 3.50693 0
M  V30 9675 H 932.404 -2.35359 2.26437 0
M  V30 9676 H 931.063 -0.69133 3.60022 0
M  V30 9677 H 930.711 -3.14604 3.92471 0
M  V30 9678 H 930.411 -2.2433 5.43093 0
M  V30 9679 H 931.935 -3.15352 5.22863 0
M  V30 9680 H 933.349 -0.923076 5.6582 0
M  V30 9681 H 931.746 -0.208282 5.99738 0
M  V30 9682 H 932.816 0.567412 4.81569 0
M  V30 9683 N 934.159 -1.57557 0.0367827 0
M  V30 9684 C 935.106 -2.10679 -0.942499 0
M  V30 9685 C 936.076 -1.01068 -1.31812 0
M  V30 9686 O 937.261 -1.28533 -1.41011 0
M  V30 9687 C 934.401 -2.64467 -2.21701 0
M  V30 9688 C 933.514 -3.88114 -1.89715 0
M  V30 9689 C 932.649 -4.30268 -3.11518 0
M  V30 9690 C 931.688 -5.46652 -2.75387 0
M  V30 9691 N 930.825 -5.83927 -3.89838 0
M  V30 9692 H 935.665 -2.94066 -0.482588 0
M  V30 9693 H 933.202 -1.45344 -0.226597 0
M  V30 9694 H 935.16 -2.93745 -2.96259 0
M  V30 9695 H 933.79 -1.83898 -2.65295 0
M  V30 9696 H 932.842 -3.65516 -1.05366 0
M  V30 9697 H 934.154 -4.72743 -1.5911 0
M  V30 9698 H 933.308 -4.61023 -3.94389 0
M  V30 9699 H 932.047 -3.44421 -3.4529 0
M  V30 9700 H 931.052 -5.15583 -1.90929 0
M  V30 9701 H 932.277 -6.34204 -2.42822 0
M  V30 9702 H 930.223 -5.01035 -4.23438 0
M  V30 9703 H 930.14 -6.63214 -3.62883 0
M  V30 9704 H 931.408 -6.19291 -4.73391 0
M  V30 9705 N 935.637 0.236453 -1.55816 0
M  V30 9706 C 936.584 1.29289 -1.91188 0
M  V30 9707 C 937.554 1.47315 -0.767301 0
M  V30 9708 O 938.739 1.61128 -1.02189 0
M  V30 9709 C 935.879 2.64126 -2.22107 0
M  V30 9710 C 934.992 2.54022 -3.49423 0
M  V30 9711 C 934.127 3.81282 -3.69861 0
M  V30 9712 C 933.166 3.65839 -4.90743 0
M  V30 9713 N 932.303 4.85014 -5.07647 0
M  V30 9714 H 937.143 0.98424 -2.81277 0
M  V30 9715 H 934.68 0.474722 -1.39229 0
M  V30 9716 H 936.638 3.42626 -2.3804 0
M  V30 9717 H 935.268 2.93118 -1.35209 0
M  V30 9718 H 934.32 1.67036 -3.41765 0
M  V30 9719 H 935.632 2.38525 -4.38072 0
M  V30 9720 H 934.786 4.68226 -3.8581 0
M  V30 9721 H 933.525 3.99688 -2.79465 0
M  V30 9722 H 932.53 2.77279 -4.74759 0
M  V30 9723 H 933.755 3.48918 -5.82609 0
M  V30 9724 H 931.701 5.03762 -4.20191 0
M  V30 9725 H 931.618 4.72188 -5.90402 0
M  V30 9726 H 932.886 5.73427 -5.28017 0
M  V30 9727 N 937.115 1.49373 0.502552 0
M  V30 9728 C 938.355 1.60398 1.26696 0
M  V30 9729 C 938.719 0.283599 1.89894 0
M  V30 9730 O 939.92 0.269022 2.6745 0
M  V30 9731 C 938.191 2.72998 2.30666 0
M  V30 9732 S 939.75 3.03964 3.16466 0
M  V30 9733 H 936.568 0.565781 0.430596 0
M  V30 9734 H 939.17 1.87024 0.569418 0
M  V30 9735 H 937.874 3.67458 1.82765 0
M  V30 9736 H 937.405 2.4836 3.05091 0
M  V30 9737 H 939.42 2.45367 4.31288 0
M  V30 9738 N 938.594 -0.753485 1.38421 0
M  V30 9739 C 939.834 -1.52544 1.3605 0
M  V30 9740 C 940.198 -1.91937 -0.0493257 0
M  V30 9741 O 941.399 -2.6807 -0.197908 0
M  V30 9742 C 939.67 -2.74432 2.28958 0
M  V30 9743 S 941.229 -3.64297 2.44607 0
M  V30 9744 H 938.047 -0.522017 0.48272 0
M  V30 9745 H 940.649 -0.884503 1.74347 0
M  V30 9746 H 939.353 -2.43602 3.30282 0
M  V30 9747 H 938.884 -3.43471 1.91811 0
M  V30 9748 H 940.899 -4.67245 1.67022 0
M  V30 9749 N 940.072 -1.23292 -0.981677 0
M  V30 9750 C 941.019 -1.01296 -2.07383 0
M  V30 9751 C 941.989 0.069139 -1.65956 0
M  V30 9752 O 943.174 -0.0827108 -1.90621 0
M  V30 9753 C 940.314 -0.608876 -3.39686 0
M  V30 9754 C 939.427 -1.76296 -3.9439 0
M  V30 9755 C 938.562 -1.30578 -5.14901 0
M  V30 9756 C 937.601 -2.4307 -5.61768 0
M  V30 9757 N 936.738 -1.98319 -6.73509 0
M  V30 9758 H 941.578 -1.9478 -2.25532 0
M  V30 9759 H 939.115 -0.970356 -1.10555 0
M  V30 9760 H 941.073 -0.355702 -4.15681 0
M  V30 9761 H 939.703 0.288961 -3.21504 0
M  V30 9762 H 938.755 -2.13017 -3.15163 0
M  V30 9763 H 940.067 -2.60871 -4.25145 0
M  V30 9764 H 939.221 -1.01066 -5.98223 0
M  V30 9765 H 937.96 -0.430386 -4.85797 0
M  V30 9766 H 936.965 -2.73358 -4.77028 0
M  V30 9767 H 938.19 -3.31144 -5.92892 0
M  V30 9768 H 936.136 -1.13157 -6.46167 0
M  V30 9769 H 936.053 -2.76454 -7.0364 0
M  V30 9770 H 937.321 -1.71907 -7.60308 0
M  V30 9771 N 941.55 1.18024 -1.04442 0
M  V30 9772 C 942.799 1.8743 -0.745185 0
M  V30 9773 C 943.112 1.81459 0.730206 0
M  V30 9774 O 944.318 2.46263 1.1431 0
M  V30 9775 C 942.774 3.36266 -1.28271 0
M  V30 9776 C 942.382 3.50757 -2.787 0
M  V30 9777 C 944.126 4.11048 -1.06018 0
M  V30 9778 C 942.033 4.93573 -3.25791 0
M  V30 9779 H 940.963 0.702038 -0.27506 0
M  V30 9780 H 943.614 1.33333 -1.26073 0
M  V30 9781 H 941.996 3.89853 -0.695002 0
M  V30 9782 H 943.17 3.07423 -3.43261 0
M  V30 9783 H 941.485 2.89385 -2.99408 0
M  V30 9784 H 944.082 5.16395 -1.38711 0
M  V30 9785 H 944.425 4.163 0.00241716 0
M  V30 9786 H 944.958 3.63644 -1.61269 0
M  V30 9787 H 941.697 4.93491 -4.31447 0
M  V30 9788 H 941.217 5.37607 -2.65968 0
M  V30 9789 H 942.896 5.62307 -3.20031 0
M  V30 9790 N 943.028 0.824394 1.34319 0
M  V30 9791 C 943.958 0.262077 2.32025 0
M  V30 9792 C 944.939 -0.622277 1.58309 0
M  V30 9793 O 946.124 -0.548848 1.86283 0
M  V30 9794 C 943.254 -0.57567 3.42496 0
M  V30 9795 C 942.208 0.21167 4.27476 0
M  V30 9796 C 941.534 -0.748913 5.29429 0
M  V30 9797 C 942.834 1.42068 5.02607 0
M  V30 9798 H 944.528 1.07842 2.79304 0
M  V30 9799 H 942.074 0.520022 1.34282 0
M  V30 9800 H 944.027 -0.979251 4.09864 0
M  V30 9801 H 942.751 -1.42508 2.93869 0
M  V30 9802 H 941.41 0.596636 3.61712 0
M  V30 9803 H 941.058 -1.59432 4.77064 0
M  V30 9804 H 940.758 -0.226313 5.87164 0
M  V30 9805 H 942.282 -1.15032 5.99667 0
M  V30 9806 H 943.696 1.09103 5.62823 0
M  V30 9807 H 942.093 1.87903 5.69923 0
M  V30 9808 H 943.163 2.1981 4.32217 0
M  V30 9809 N 944.506 -1.46559 0.579492 0
M  V30 9810 C 945.454 -2.3199 -0.168413 0
M  V30 9811 C 946.448 -1.44288 -0.887551 0
M  V30 9812 O 947.654 -1.60931 -0.806305 0
M  V30 9813 H 944.029 -0.748431 -0.0731799 0
M  V30 9814 H 946 -2.92886 0.570973 0
M  V30 9815 C 944.749 -3.27392 -1.1709 0
M  V30 9816 H 944.072 -3.94853 -0.626958 0
M  V30 9817 H 945.512 -3.89955 -1.66467 0
M  V30 9818 C 943.971 -2.52511 -2.23024 0
M  V30 9819 O 944.501 -2.2858 -3.30324 0
M  V30 9820 N 942.707 -2.1313 -1.97545 0
M  V30 9821 H 942.254 -2.32793 -1.10297 0
M  V30 9822 H 942.212 -1.63348 -2.68635 0
M  V30 9823 N 945.984 -0.3171 -1.54377 0
M  V30 9824 C 947.232 0.286842 -2.00054 0
M  V30 9825 C 947.553 1.53161 -1.20692 0
M  V30 9826 O 946.823 1.93479 -0.307045 0
M  V30 9827 H 945.403 0.108979 -0.739008 0
M  V30 9828 H 948.065 -0.432152 -1.90049 0
M  V30 9829 H 947.161 0.547729 -3.07256 0
M  V30 9830 N 947.462 1.57535 -0.0451378 0
M  V30 9831 C 948.425 2.1008 0.916461 0
M  V30 9832 C 949.425 1.01913 1.2438 0
M  V30 9833 O 950.615 1.2801 1.18148 0
M  V30 9834 C 947.747 2.58001 2.22818 0
M  V30 9835 H 948.94 2.96334 0.461076 0
M  V30 9836 H 946.493 1.54974 0.203169 0
M  V30 9837 H 947.228 1.75123 2.72951 0
M  V30 9838 H 947.013 3.3704 2.00366 0
M  V30 9839 H 948.503 2.98822 2.9171 0
M  V30 9840 N 948.94 -0.228186 1.55939 0
M  V30 9841 C 950.188 -0.951668 1.78291 0
M  V30 9842 C 950.509 -1.85132 0.612474 0
M  V30 9843 O 949.779 -1.92356 -0.370942 0
M  V30 9844 H 948.359 -0.354388 0.657585 0
M  V30 9845 H 951.021 -0.241635 1.93396 0
M  V30 9846 H 950.117 -1.56239 2.70177 0
M  V30 9847 N 950.418 -1.49637 -0.494624 0
M  V30 9848 C 951.328 -1.69522 -1.62172 0
M  V30 9849 C 952.344 -0.577894 -1.64123 0
M  V30 9850 O 953.52 -0.853382 -1.82426 0
M  V30 9851 C 950.585 -1.7633 -2.9851 0
M  V30 9852 C 949.646 -2.99944 -3.07135 0
M  V30 9853 C 948.879 -3.06419 -4.36971 0
M  V30 9854 O 949.102 -2.20312 -5.26136 0
M  V30 9855 O 948.036 -3.9894 -4.507 0
M  V30 9856 H 951.862 -2.65017 -1.48324 0
M  V30 9857 H 949.447 -1.33454 -0.671603 0
M  V30 9858 H 951.329 -1.83125 -3.7953 0
M  V30 9859 H 950.004 -0.840155 -3.12607 0
M  V30 9860 H 948.911 -2.98664 -2.2528 0
M  V30 9861 H 950.244 -3.9176 -2.97968 0
M  V30 9862 N 951.896 0.746133 -1.38819 0
M  V30 9863 C 953.307 1.32384 -1.31648 0
M  V30 9864 C 953.658 1.96185 0.0243086 0
M  V30 9865 O 952.783 1.95567 0.92641 0
M  V30 9866 C 953.378 2.40712 -2.38418 0
M  V30 9867 C 951.937 2.94185 -2.34803 0
M  V30 9868 C 951.084 1.67639 -2.20891 0
M  V30 9869 H 954.035 0.544457 -1.49068 0
M  V30 9870 H 954.056 3.20833 -2.04564 0
M  V30 9871 H 953.568 1.94247 -3.3599 0
M  V30 9872 H 951.669 3.44959 -1.40834 0
M  V30 9873 H 951.782 3.48057 -3.29231 0
M  V30 9874 H 950.146 1.9155 -1.67871 0
M  V30 9875 H 950.929 1.23242 -3.20416 0
M  V30 9876 N 953.375 1.23811 0.975125 0
M  V30 9877 C 954.791 1.0019 1.24234 0
M  V30 9878 C 954.991 -0.293811 1.99346 0
M  V30 9879 O 954.047 -1.01189 2.31337 0
M  V30 9880 C 955.36 2.21218 2.03674 0
M  V30 9881 C 956.908 2.25764 2.16793 0
M  V30 9882 C 957.383 3.46394 2.99626 0
M  V30 9883 N 958.874 3.46665 3.07209 0
M  V30 9884 C 959.609 4.3666 3.71639 0
M  V30 9885 N 959.105 5.36899 4.37849 0
M  V30 9886 N 960.898 4.2439 3.68578 0
M  V30 9887 H 953.049 2.07087 0.472076 0
M  V30 9888 H 955.312 0.90838 0.271201 0
M  V30 9889 H 955.018 3.15277 1.55862 0
M  V30 9890 H 954.892 2.22733 3.04417 0
M  V30 9891 H 957.279 1.32242 2.63811 0
M  V30 9892 H 957.36 2.28279 1.15422 0
M  V30 9893 H 957.004 4.40227 2.53304 0
M  V30 9894 H 956.934 3.41121 4.01178 0
M  V30 9895 H 959.425 2.74142 2.60105 0
M  V30 9896 H 959.738 6.01816 4.84807 0
M  V30 9897 H 958.083 5.40793 4.36541 0
M  V30 9898 H 961.274 3.4532 3.16025 0
M  V30 9899 H 961.447 4.94727 4.18508 0
M  V30 9900 N 954.853 -1.17469 1.05066 0
M  V30 9901 C 956.099 -1.87976 0.761113 0
M  V30 9902 C 956.432 -1.80756 -0.709995 0
M  V30 9903 O 955.707 -1.21469 -1.51906 0
M  V30 9904 C 955.99 -3.38055 1.2406 0
M  V30 9905 C 955.843 -3.54032 2.77455 0
M  V30 9906 C 957.162 -4.32036 0.838612 0
M  V30 9907 H 954.281 -0.682573 0.277963 0
M  V30 9908 H 956.923 -1.38147 1.30443 0
M  V30 9909 H 955.073 -3.80622 0.778388 0
M  V30 9910 H 956.745 -3.20489 3.3179 0
M  V30 9911 H 954.988 -2.96352 3.16793 0
M  V30 9912 H 955.659 -4.59377 3.06066 0
M  V30 9913 H 958.135 -3.97303 1.23651 0
M  V30 9914 H 957.011 -5.35583 1.20173 0
M  V30 9915 H 957.272 -4.41349 -0.257498 0
M  V30 9916 N 956.331 -0.831506 -1.3388 0
M  V30 9917 C 957.578 -0.423674 -1.98018 0
M  V30 9918 C 957.906 1.01533 -1.65895 0
M  V30 9919 O 957.161 1.72342 -0.927183 0
M  V30 9920 C 957.46 -0.582733 -3.52617 0
M  V30 9921 C 957.126 -1.98874 -4.04673 0
M  V30 9922 C 955.788 -2.37334 -4.186 0
M  V30 9923 C 958.14 -2.90745 -4.3257 0
M  V30 9924 C 955.468 -3.66984 -4.57755 0
M  V30 9925 C 957.82 -4.19868 -4.73174 0
M  V30 9926 C 956.484 -4.58294 -4.85307 0
M  V30 9927 H 955.754 -0.155033 -0.7246 0
M  V30 9928 H 958.401 -1.05711 -1.59679 0
M  V30 9929 H 956.706 0.134052 -3.91571 0
M  V30 9930 H 958.403 -0.247576 -4.00235 0
M  V30 9931 H 954.993 -1.68001 -3.94301 0
M  V30 9932 H 959.177 -2.62272 -4.2134 0
M  V30 9933 H 954.433 -3.9657 -4.65341 0
M  V30 9934 H 958.607 -4.91138 -4.93717 0
M  V30 9935 H 956.234 -5.58805 -5.15404 0
M  V30 9936 N 957.809 1.4625 -0.587256 0
M  V30 9937 C 959.225 1.57641 -0.249284 0
M  V30 9938 C 959.425 1.58169 1.24839 0
M  V30 9939 O 958.481 1.50109 2.03036 0
M  V30 9940 C 959.794 2.86837 -0.902509 0
M  V30 9941 C 961.342 3.00476 -0.876524 0
M  V30 9942 C 961.817 4.32414 -1.50938 0
M  V30 9943 N 963.308 4.39124 -1.47392 0
M  V30 9944 C 964.043 5.39838 -1.93293 0
M  V30 9945 N 963.539 6.47202 -2.47188 0
M  V30 9946 N 965.332 5.31068 -1.84183 0
M  V30 9947 H 957.483 1.44151 -1.55994 0
M  V30 9948 H 959.746 0.687905 -0.652297 0
M  V30 9949 H 959.452 2.92274 -1.95624 0
M  V30 9950 H 959.326 3.74927 -0.413466 0
M  V30 9951 H 961.713 2.94618 0.168601 0
M  V30 9952 H 961.794 2.1385 -1.40363 0
M  V30 9953 H 961.438 4.3903 -2.55372 0
M  V30 9954 H 961.368 5.17823 -0.957455 0
M  V30 9955 H 963.859 3.62138 -1.08002 0
M  V30 9956 H 964.172 7.20269 -2.80058 0
M  V30 9957 H 962.517 6.48009 -2.51216 0
M  V30 9958 H 965.708 4.46095 -1.41833 0
M  V30 9959 H 965.881 6.09414 -2.2027 0
M  V30 9960 N 959.287 0.325282 1.54207 0
M  V30 9961 C 960.698 -0.162426 1.85992 0
M  V30 9962 C 961.049 -1.51482 1.2469 0
M  V30 9963 O 960.174 -2.092 0.553578 0
M  V30 9964 C 960.769 -0.3015 3.37456 0
M  V30 9965 C 959.328 -0.73343 3.69185 0
M  V30 9966 C 958.475 0.143831 2.76927 0
M  V30 9967 H 961.426 0.545508 1.4903 0
M  V30 9968 H 961.447 -1.13212 3.63268 0
M  V30 9969 H 960.959 0.682942 3.82044 0
M  V30 9970 H 959.06 -1.72755 3.30131 0
M  V30 9971 H 959.173 -0.535987 4.76092 0
M  V30 9972 H 957.537 -0.380892 2.51836 0
M  V30 9973 H 958.32 1.12507 3.24341 0
M  V30 9974 N 960.765 -1.57509 0.0534917 0
M  V30 9975 C 962.181 -1.56696 -0.303067 0
M  V30 9976 C 962.381 -1.06135 -1.71282 0
M  V30 9977 O 961.437 -0.71899 -2.42047 0
M  V30 9978 C 962.75 -3.00421 -0.129418 0
M  V30 9979 C 964.298 -3.12358 -0.200346 0
M  V30 9980 C 964.773 -4.57967 -0.0551971 0
M  V30 9981 N 966.264 -4.63066 -0.111398 0
M  V30 9982 C 966.999 -5.73395 -0.0232344 0
M  V30 9983 N 966.495 -6.92701 0.11741 0
M  V30 9984 N 968.288 -5.62045 -0.078984 0
M  V30 9985 H 960.439 -1.88696 0.975064 0
M  V30 9986 H 962.702 -0.869072 0.378706 0
M  V30 9987 H 962.408 -3.41456 0.842653 0
M  V30 9988 H 962.282 -3.66563 -0.889476 0
M  V30 9989 H 964.669 -2.71221 -1.16289 0
M  V30 9990 H 964.75 -2.48891 0.590506 0
M  V30 9991 H 964.394 -4.9979 0.904034 0
M  V30 9992 H 964.324 -5.19443 -0.865223 0
M  V30 9993 H 966.815 -3.77263 -0.219256 0
M  V30 9994 H 967.128 -7.72597 0.177326 0
M  V30 9995 H 965.473 -6.94833 0.152526 0
M  V30 9996 H 968.664 -4.67725 -0.187434 0
M  V30 9997 H 968.837 -6.48 -0.00681731 0
M  V30 9998 N 962.243 0.219913 -1.56058 0
M  V30 9999 C 963.52 0.968493 -1.6994 0
M  V30 10000 C 963.9 2.02358 -0.601219 0
M  V30 10001 O 963.248 2.25121 0.391534 0
M  V30 10002 C 963.458 1.57745 -3.11316 0
M  V30 10003 C 964.806 2.06908 -3.70775 0
M  V30 10004 O 965.83 1.67636 -3.14288 0
M  V30 10005 O 964.689 2.79096 -4.69859 0
M  V30 10006 H 961.783 0.452521 -0.692209 0
M  V30 10007 H 964.329 0.211566 -1.68376 0
M  V30 10008 H 963.101 0.815687 -3.82704 0
M  V30 10009 H 962.724 2.39987 -3.17005 0
M  V30 10010 N 963.721 1.49897 0.486681 0
M  V30 10011 C 965.137 1.36977 0.819109 0
M  V30 10012 C 965.337 0.41385 1.97204 0
M  V30 10013 O 964.393 -0.149249 2.52059 0
M  V30 10014 C 965.706 2.78013 1.14584 0
M  V30 10015 C 967.254 2.86816 1.25321 0
M  V30 10016 C 967.729 4.28651 1.61316 0
M  V30 10017 N 969.22 4.31528 1.68337 0
M  V30 10018 C 969.955 5.38254 1.97662 0
M  V30 10019 N 969.451 6.55207 2.25113 0
M  V30 10020 N 971.244 5.25683 1.99033 0
M  V30 10021 H 963.395 2.10634 -0.273364 0
M  V30 10022 H 965.658 0.946116 -0.0597418 0
M  V30 10023 H 965.364 3.49728 0.371892 0
M  V30 10024 H 965.238 3.1428 2.08585 0
M  V30 10025 H 967.625 2.15329 2.01785 0
M  V30 10026 H 967.706 2.54112 0.293368 0
M  V30 10027 H 967.35 5.00669 0.853968 0
M  V30 10028 H 967.28 4.5883 2.58424 0
M  V30 10029 H 969.771 3.47189 1.49226 0
M  V30 10030 H 970.084 7.32359 2.46717 0
M  V30 10031 H 968.429 6.58408 2.22538 0
M  V30 10032 H 971.62 4.33316 1.77074 0
M  V30 10033 H 971.793 6.08949 2.21552 0
M  V30 10034 N 965.199 -0.738761 1.39212 0
M  V30 10035 C 966.476 -1.48982 1.26742 0
M  V30 10036 C 966.856 -2.10732 -0.12466 0
M  V30 10037 O 966.204 -1.98287 -1.13554 0
M  V30 10038 C 966.414 -2.54427 2.38889 0
M  V30 10039 C 967.762 -3.20915 2.78027 0
M  V30 10040 O 968.786 -2.64738 2.38311 0
M  V30 10041 O 967.645 -4.22558 3.46565 0
M  V30 10042 H 964.739 -0.661395 0.496473 0
M  V30 10043 H 967.285 -0.772907 1.51077 0
M  V30 10044 H 966.057 -2.07151 3.3197 0
M  V30 10045 H 965.68 -3.33682 2.162 0
M  V30 10046 N 966.677 -1.24326 -0.968545 0
M  V30 10047 C 967.587 -1.05194 -2.09694 0
M  V30 10048 C 968.603 0.00701291 -1.73999 0
M  V30 10049 O 969.779 -0.190981 -2.00492 0
M  V30 10050 C 966.844 -0.658075 -3.40397 0
M  V30 10051 C 965.905 -1.79341 -3.90045 0
M  V30 10052 C 965.138 -1.41824 -5.14511 0
M  V30 10053 O 965.361 -0.307693 -5.69569 0
M  V30 10054 O 964.295 -2.24358 -5.58522 0
M  V30 10055 H 968.121 -1.99791 -2.2873 0
M  V30 10056 H 965.706 -1.03138 -1.08088 0
M  V30 10057 H 967.588 -0.449911 -4.18991 0
M  V30 10058 H 966.263 0.258782 -3.22664 0
M  V30 10059 H 965.17 -2.05632 -3.12516 0
M  V30 10060 H 966.503 -2.68901 -4.12254 0
M  V30 10061 N 968.156 1.1691 -1.05688 0
M  V30 10062 C 969.089 2.19992 -0.606539 0
M  V30 10063 C 970.067 1.58393 0.367483 0
M  V30 10064 O 971.251 1.8644 0.277914 0
M  V30 10065 C 968.378 3.38516 0.111663 0
M  V30 10066 C 967.424 4.18579 -0.818153 0
M  V30 10067 S 968.257 4.83111 -2.31006 0
M  V30 10068 C 969.413 6.0502 -1.60317 0
M  V30 10069 H 969.646 2.57851 -1.47987 0
M  V30 10070 H 967.179 1.27604 -0.869291 0
M  V30 10071 H 969.137 4.07195 0.519829 0
M  V30 10072 H 967.798 2.99034 0.961103 0
M  V30 10073 H 966.991 5.03318 -0.262092 0
M  V30 10074 H 966.593 3.55362 -1.16592 0
M  V30 10075 H 968.885 6.71424 -0.905309 0
M  V30 10076 H 969.828 6.65164 -2.42823 0
M  V30 10077 H 970.236 5.53908 -1.08842 0
M  V30 10078 N 969.634 0.838594 1.33437 0
M  V30 10079 C 970.88 0.434813 1.98084 0
M  V30 10080 C 971.213 -1.00331 1.66275 0
M  V30 10081 O 970.488 -1.70139 0.942501 0
M  V30 10082 C 970.771 0.655602 3.54082 0
M  V30 10083 C 970.624 2.14097 3.95578 0
M  V30 10084 C 971.943 0.101576 4.39983 0
M  V30 10085 H 969.062 0.159456 0.719544 0
M  V30 10086 H 971.704 1.05406 1.58081 0
M  V30 10087 H 969.854 0.128501 3.88287 0
M  V30 10088 H 971.526 2.73292 3.71631 0
M  V30 10089 H 969.769 2.62558 3.4532 0
M  V30 10090 H 970.44 2.24621 5.04231 0
M  V30 10091 H 972.916 0.552122 4.12421 0
M  V30 10092 H 971.792 0.28575 5.48156 0
M  V30 10093 H 972.053 -0.994616 4.30767 0
M  V30 10094 N 971.112 -1.45937 0.595003 0
M  V30 10095 C 972.059 -2.30427 -0.131165 0
M  V30 10096 C 973.029 -1.41355 -0.872232 0
M  V30 10097 O 974.214 -1.70296 -0.860467 0
M  V30 10098 C 971.354 -3.26045 -1.13087 0
M  V30 10099 C 970.467 -4.30218 -0.391982 0
M  V30 10100 C 969.602 -5.12953 -1.3803 0
M  V30 10101 C 968.641 -6.08865 -0.628505 0
M  V30 10102 N 967.778 -6.84425 -1.56548 0
M  V30 10103 H 972.618 -2.91992 0.595359 0
M  V30 10104 H 970.155 -1.43895 0.305405 0
M  V30 10105 H 972.113 -3.79937 -1.72348 0
M  V30 10106 H 970.743 -2.66261 -1.82496 0
M  V30 10107 H 969.795 -3.79086 0.315895 0
M  V30 10108 H 971.107 -4.98418 0.195173 0
M  V30 10109 H 970.261 -5.71184 -2.04534 0
M  V30 10110 H 969 -4.44743 -2.00138 0
M  V30 10111 H 968.005 -5.49777 0.0502431 0
M  V30 10112 H 969.23 -6.79099 -0.012641 0
M  V30 10113 H 967.176 -6.18913 -2.17444 0
M  V30 10114 H 967.093 -7.48931 -1.03145 0
M  V30 10115 H 968.361 -7.47204 -2.22049 0
M  V30 10116 N 972.59 -0.333456 -1.54032 0
M  V30 10117 C 973.537 0.527981 -2.2468 0
M  V30 10118 C 974.507 1.10371 -1.24127 0
M  V30 10119 O 975.692 1.14221 -1.52834 0
M  V30 10120 C 972.832 1.67808 -3.01553 0
M  V30 10121 C 971.945 1.13064 -4.16942 0
M  V30 10122 C 971.08 2.24722 -4.81325 0
M  V30 10123 C 970.119 1.67277 -5.88799 0
M  V30 10124 N 969.256 2.72638 -6.47003 0
M  V30 10125 H 974.096 -0.0810308 -2.9789 0
M  V30 10126 H 971.633 -0.051761 -1.47009 0
M  V30 10127 H 973.591 2.35502 -3.44376 0
M  V30 10128 H 972.221 2.25823 -2.30659 0
M  V30 10129 H 971.273 0.344948 -3.78833 0
M  V30 10130 H 972.585 0.670373 -4.94275 0
M  V30 10131 H 971.739 3.00301 -5.27166 0
M  V30 10132 H 970.478 2.74089 -4.03394 0
M  V30 10133 H 969.483 0.902002 -5.4235 0
M  V30 10134 H 970.708 1.18775 -6.68632 0
M  V30 10135 H 968.654 3.21277 -5.71941 0
M  V30 10136 H 968.571 2.31204 -7.19778 0
M  V30 10137 H 969.839 3.48015 -6.97499 0
M  V30 10138 N 974.068 1.57479 -0.061844 0
M  V30 10139 C 975.314 1.93395 0.610443 0
M  V30 10140 C 975.647 0.941334 1.6986 0
M  V30 10141 O 974.922 -0.0310262 1.94475 0
M  V30 10142 C 975.205 3.39636 1.19664 0
M  V30 10143 C 975.058 4.49651 0.115805 0
M  V30 10144 C 976.377 3.86488 2.10512 0
M  V30 10145 H 973.496 0.703262 0.220436 0
M  V30 10146 H 976.138 1.89583 -0.125785 0
M  V30 10147 H 974.288 3.43015 1.82409 0
M  V30 10148 H 975.96 4.58397 -0.516728 0
M  V30 10149 H 974.203 4.30237 -0.55483 0
M  V30 10150 H 974.874 5.49089 0.566176 0
M  V30 10151 H 977.35 3.85052 1.57715 0
M  V30 10152 H 976.226 4.89444 2.48466 0
M  V30 10153 H 976.487 3.23856 3.00948 0
M  V30 10154 N 975.546 -0.211634 1.56173 0
M  V30 10155 C 976.795 -0.932647 1.78842 0
M  V30 10156 C 977.108 -1.85103 0.63217 0
M  V30 10157 O 978.314 -2.61143 0.742746 0
M  V30 10158 C 976.77 -1.70866 3.16753 0
M  V30 10159 C 976.378 -0.835934 4.40132 0
M  V30 10160 C 978.122 -2.4203 3.48743 0
M  V30 10161 C 976.029 -1.60987 5.69067 0
M  V30 10162 H 974.959 -0.351983 0.666801 0
M  V30 10163 H 977.61 -0.186284 1.82552 0
M  V30 10164 H 975.992 -2.4983 3.07247 0
M  V30 10165 H 977.166 -0.0861298 4.60719 0
M  V30 10166 H 975.481 -0.235941 4.15731 0
M  V30 10167 H 978.078 -3.00453 4.42303 0
M  V30 10168 H 978.421 -3.15406 2.71707 0
M  V30 10169 H 978.954 -1.70048 3.59623 0
M  V30 10170 H 975.693 -0.9192 6.49023 0
M  V30 10171 H 975.213 -2.33403 5.52524 0
M  V30 10172 H 976.892 -2.16798 6.09596 0
M  V30 10173 N 977.024 -1.50153 -0.478725 0
M  V30 10174 C 977.934 -1.71232 -1.60364 0
M  V30 10175 C 978.95 -0.595269 -1.63501 0
M  V30 10176 O 980.126 -0.872683 -1.81511 0
M  V30 10177 C 977.191 -1.79487 -2.96623 0
M  V30 10178 C 976.252 -3.03185 -3.03937 0
M  V30 10179 C 975.485 -3.11036 -4.33696 0
M  V30 10180 O 975.708 -2.2588 -5.23769 0
M  V30 10181 O 974.642 -4.03698 -4.46443 0
M  V30 10182 H 978.468 -2.66575 -1.45505 0
M  V30 10183 H 976.053 -1.34158 -0.65741 0
M  V30 10184 H 977.935 -1.8714 -3.77567 0
M  V30 10185 H 976.61 -0.873264 -3.11698 0
M  V30 10186 H 975.517 -3.01036 -2.22099 0
M  V30 10187 H 976.85 -3.94898 -2.93796 0
M  V30 10188 N 978.502 0.731368 -1.39602 0
M  V30 10189 C 979.913 1.30981 -1.33045 0
M  V30 10190 C 980.264 1.962 0.00349918 0
M  V30 10191 O 979.389 1.96539 0.905615 0
M  V30 10192 C 979.984 2.3817 -2.40958 0
M  V30 10193 C 978.543 2.91678 -2.3791 0
M  V30 10194 C 977.69 1.65286 -2.22656 0
M  V30 10195 H 980.641 0.528615 -1.49637 0
M  V30 10196 H 980.662 3.18645 -2.07955 0
M  V30 10197 H 980.174 1.90673 -3.38032 0
M  V30 10198 H 978.275 3.43446 -1.44485 0
M  V30 10199 H 978.388 3.44545 -3.32904 0
M  V30 10200 H 976.752 1.89759 -1.69893 0
M  V30 10201 H 977.535 1.19836 -3.21705 0
M  V30 10202 N 979.98 1.24838 0.961938 0
M  V30 10203 C 980.913 0.989041 2.05653 0
M  V30 10204 C 981.891 -0.079199 1.62407 0
M  V30 10205 O 983.075 0.0589397 1.88408 0
M  V30 10206 C 980.202 0.493661 3.35083 0
M  V30 10207 C 979.248 1.55132 3.97286 0
M  V30 10208 S 980.081 3.13438 4.34185 0
M  V30 10209 C 981.237 2.65617 5.66744 0
M  V30 10210 H 981.47 1.91588 2.27335 0
M  V30 10211 H 979.003 1.08287 1.10061 0
M  V30 10212 H 980.961 0.214482 4.09939 0
M  V30 10213 H 979.622 -0.412559 3.11379 0
M  V30 10214 H 978.815 1.15525 4.90581 0
M  V30 10215 H 978.417 1.78081 3.28882 0
M  V30 10216 H 980.709 2.08788 6.44526 0
M  V30 10217 H 981.652 3.57524 6.11214 0
M  V30 10218 H 982.06 2.05853 5.25628 0
M  V30 10219 N 981.458 -1.16348 1.06306 0
M  V30 10220 C 982.421 -2.18941 0.678053 0
M  V30 10221 C 983.421 -1.58409 -0.276277 0
M  V30 10222 O 984.611 -1.74101 -0.0586435 0
M  V30 10223 C 981.743 -3.409 -0.00228684 0
M  V30 10224 H 982.936 -2.54516 1.58624 0
M  V30 10225 H 980.489 -1.30625 0.858298 0
M  V30 10226 H 981.224 -3.10881 -0.923212 0
M  V30 10227 H 981.009 -3.86089 0.683949 0
M  V30 10228 H 982.499 -4.16806 -0.257374 0
M  V30 10229 N 982.937 -0.845659 -1.3299 0
M  V30 10230 C 984.177 -0.450819 -1.99366 0
M  V30 10231 C 984.541 0.973297 -1.65502 0
M  V30 10232 O 985.742 1.47222 -2.24898 0
M  V30 10233 C 984.013 -0.672825 -3.5101 0
M  V30 10234 S 985.572 -0.374216 -4.37201 0
M  V30 10235 H 982.39 -0.169273 -0.690556 0
M  V30 10236 H 984.992 -1.09642 -1.61861 0
M  V30 10237 H 983.696 -1.70855 -3.73145 0
M  V30 10238 H 983.227 -0.0133185 -3.93398 0
M  V30 10239 H 985.242 0.803342 -4.89654 0
M  V30 10240 N 984.415 1.45619 -0.602734 0
M  V30 10241 C 985.692 1.9558 -0.0282472 0
M  V30 10242 C 986.072 1.54523 1.43826 0
M  V30 10243 O 985.42 0.805456 2.13833 0
M  V30 10244 C 985.63 3.48298 -0.221263 0
M  V30 10245 C 986.978 4.24483 -0.0995249 0
M  V30 10246 O 988.002 3.55879 -0.151132 0
M  V30 10247 O 986.861 5.46497 0.0194454 0
M  V30 10248 H 983.955 0.826104 0.0384897 0
M  V30 10249 H 986.501 1.55808 -0.672456 0
M  V30 10250 H 985.273 3.71134 -1.23997 0
M  V30 10251 H 984.896 3.94948 0.458437 0
M  V30 10252 N 985.893 0.34162 1.53853 0
M  V30 10253 C 987.141 -0.254979 2.00485 0
M  V30 10254 C 987.462 -1.51222 1.23114 0
M  V30 10255 O 986.732 -1.92966 0.337787 0
M  V30 10256 H 985.312 -0.0972084 0.740648 0
M  V30 10257 H 987.974 0.462332 1.89337 0
M  V30 10258 H 987.07 -0.498778 3.08089 0
M  V30 10259 N 987.371 -1.57444 0.0701946 0
M  V30 10260 C 988.301 -2.15659 -0.895176 0
M  V30 10261 C 989.282 -1.08321 -1.31151 0
M  V30 10262 O 990.467 -1.36349 -1.38284 0
M  V30 10263 C 987.597 -2.71693 -2.16334 0
M  V30 10264 C 986.551 -3.84183 -1.88645 0
M  V30 10265 C 985.877 -4.26814 -3.22078 0
M  V30 10266 C 987.177 -5.08493 -1.19299 0
M  V30 10267 H 988.871 -2.96576 -0.410217 0
M  V30 10268 H 986.417 -1.42662 -0.195872 0
M  V30 10269 H 988.37 -3.11064 -2.84284 0
M  V30 10270 H 987.094 -1.87994 -2.67069 0
M  V30 10271 H 985.753 -3.45314 -1.23101 0
M  V30 10272 H 985.401 -3.40039 -3.70651 0
M  V30 10273 H 985.101 -5.02642 -3.04344 0
M  V30 10274 H 986.625 -4.68799 -3.91228 0
M  V30 10275 H 988.039 -5.4519 -1.77316 0
M  V30 10276 H 986.436 -5.89588 -1.11828 0
M  V30 10277 H 987.506 -4.84595 -0.171839 0
M  V30 10278 N 988.849 0.203349 -1.56283 0
M  V30 10279 C 990.265 0.55384 -1.49682 0
M  V30 10280 C 990.465 1.86261 -0.768701 0
M  V30 10281 O 989.521 2.50517 -0.315824 0
M  V30 10282 C 990.834 0.616216 -2.94318 0
M  V30 10283 C 992.382 0.705611 -3.04943 0
M  V30 10284 C 992.857 0.79917 -4.50974 0
M  V30 10285 N 994.348 0.862916 -4.55091 0
M  V30 10286 C 995.083 0.955334 -5.65386 0
M  V30 10287 N 994.579 1.01057 -6.8539 0
M  V30 10288 N 996.372 0.991884 -5.53279 0
M  V30 10289 H 988.523 -0.655244 -2.0204 0
M  V30 10290 H 990.786 -0.232344 -0.919087 0
M  V30 10291 H 990.492 -0.27619 -3.50614 0
M  V30 10292 H 990.366 1.47371 -3.4722 0
M  V30 10293 H 992.753 1.58845 -2.48701 0
M  V30 10294 H 992.834 -0.177921 -2.5518 0
M  V30 10295 H 992.478 -0.0792841 -5.07838 0
M  V30 10296 H 992.408 1.69838 -4.9846 0
M  V30 10297 H 994.899 0.829812 -3.68677 0
M  V30 10298 H 995.212 1.08137 -7.65197 0
M  V30 10299 H 993.557 0.979384 -6.88065 0
M  V30 10300 H 996.748 0.945514 -4.58451 0
M  V30 10301 H 996.921 1.06045 -6.39264 0
M  V30 10302 N 990.327 1.50405 0.470755 0
M  V30 10303 C 991.555 1.65168 1.24608 0
M  V30 10304 C 991.97 0.335153 1.85801 0
M  V30 10305 O 991.327 -0.682919 1.69241 0
M  V30 10306 C 991.378 2.74305 2.35455 0
M  V30 10307 O 991.099 4.00854 1.76771 0
M  V30 10308 C 992.6 3.00044 3.26326 0
M  V30 10309 H 989.82 0.555186 0.376842 0
M  V30 10310 H 992.364 1.9663 0.56187 0
M  V30 10311 H 990.519 2.45536 2.99651 0
M  V30 10312 H 990.933 4.61211 2.49769 0
M  V30 10313 H 992.407 3.8007 4.00313 0
M  V30 10314 H 992.884 2.11128 3.85126 0
M  V30 10315 H 993.49 3.30345 2.67866 0
M  V30 10316 N 991.805 -0.723954 1.39988 0
M  V30 10317 C 993.054 -1.47922 1.3712 0
M  V30 10318 C 993.367 -1.95582 -0.0263665 0
M  V30 10319 O 994.573 -2.70918 -0.177652 0
M  V30 10320 C 993.029 -2.67342 2.40949 0
M  V30 10321 C 992.637 -2.26586 3.86475 0
M  V30 10322 C 994.381 -3.45116 2.47174 0
M  V30 10323 C 992.288 -3.42794 4.81919 0
M  V30 10324 H 991.218 -0.555522 0.509815 0
M  V30 10325 H 993.869 -0.788692 1.65686 0
M  V30 10326 H 992.251 -3.38524 2.0547 0
M  V30 10327 H 993.425 -1.62878 4.31054 0
M  V30 10328 H 991.74 -1.61876 3.83647 0
M  V30 10329 H 994.337 -4.31573 3.15672 0
M  V30 10330 H 994.68 -3.8835 1.49966 0
M  V30 10331 H 995.213 -2.80971 2.81602 0
M  V30 10332 H 991.952 -3.046 5.8043 0
M  V30 10333 H 991.472 -4.05445 4.42012 0
M  V30 10334 H 993.151 -4.08977 5.01345 0
M  V30 10335 N 993.283 -1.25346 -0.955304 0
M  V30 10336 C 994.523 -1.11259 -1.71467 0
M  V30 10337 C 994.887 0.340759 -1.88952 0
M  V30 10338 O 996.088 0.60344 -2.61939 0
M  V30 10339 C 994.359 -1.84541 -3.06071 0
M  V30 10340 S 995.918 -1.86337 -3.97271 0
M  V30 10341 H 992.736 -0.397683 -0.58938 0
M  V30 10342 H 995.338 -1.58861 -1.13945 0
M  V30 10343 H 994.042 -2.89377 -2.91014 0
M  V30 10344 H 993.573 -1.37323 -3.68654 0
M  V30 10345 H 995.588 -0.939925 -4.87216 0
M  V30 10346 N 994.761 1.15782 -1.06922 0
M  V30 10347 C 996.007 1.86741 -0.790922 0
M  V30 10348 C 996.34 1.81863 0.681149 0
M  V30 10349 O 995.615 1.23871 1.49954 0
M  V30 10350 C 995.898 3.36038 -1.29422 0
M  V30 10351 C 995.751 3.49573 -2.83052 0
M  V30 10352 C 997.07 4.30647 -0.907239 0
M  V30 10353 H 994.189 0.678064 -0.288787 0
M  V30 10354 H 996.831 1.36054 -1.32624 0
M  V30 10355 H 994.981 3.79336 -0.838843 0
M  V30 10356 H 996.653 3.1517 -3.36847 0
M  V30 10357 H 994.896 2.91275 -3.21467 0
M  V30 10358 H 995.567 4.5445 -3.13335 0
M  V30 10359 H 998.043 3.95286 -1.29956 0
M  V30 10360 H 996.919 5.33604 -1.28679 0
M  V30 10361 H 997.18 4.41703 0.187251 0
M  V30 10362 N 996.239 0.8527 1.3254 0
M  V30 10363 C 997.202 0.300959 2.27215 0
M  V30 10364 C 998.202 -0.538235 1.51525 0
M  V30 10365 O 999.392 -0.350027 1.70647 0
M  V30 10366 C 996.524 -0.574428 3.36025 0
M  V30 10367 H 997.717 1.13655 2.77529 0
M  V30 10368 H 995.27 0.626878 1.43178 0
M  V30 10369 H 996.005 -1.43191 2.90976 0
M  V30 10370 H 995.79 0.0262265 3.92091 0
M  V30 10371 H 997.28 -0.9533 4.06573 0
M  V30 10372 N 997.718 -1.45297 0.610449 0
M  V30 10373 C 998.948 -2.0629 0.113047 0
M  V30 10374 C 999.356 -1.45527 -1.20907 0
M  V30 10375 O 998.699 -0.564837 -1.74801 0
M  V30 10376 C 998.761 -3.59366 -0.0979692 0
M  V30 10377 C 998.425 -4.42481 1.14279 0
M  V30 10378 C 999.422 -4.77277 2.06161 0
M  V30 10379 C 997.107 -4.83187 1.37241 0
M  V30 10380 C 999.101 -5.51639 3.19333 0
M  V30 10381 C 996.788 -5.57303 2.50713 0
M  V30 10382 C 997.786 -5.91445 3.41587 0
M  V30 10383 O 997.474 -6.64056 4.53083 0
M  V30 10384 H 997.206 -0.67264 0.0673159 0
M  V30 10385 H 999.76 -1.87486 0.838937 0
M  V30 10386 H 997.99 -3.76582 -0.878783 0
M  V30 10387 H 999.679 -4.02193 -0.547327 0
M  V30 10388 H 1000.44 -4.46384 1.89647 0
M  V30 10389 H 996.324 -4.56045 0.67407 0
M  V30 10390 H 999.868 -5.78207 3.90286 0
M  V30 10391 H 995.765 -5.8761 2.67179 0
M  V30 10392 H 996.533 -6.82509 4.51801 0
M  V30 10393 N 999.196 -0.349774 -1.5367 0
M  V30 10394 C 1000.61 0.00191293 -1.596 0
M  V30 10395 C 1000.81 1.48175 -1.36552 0
M  V30 10396 O 999.868 2.24129 -1.16285 0
M  V30 10397 C 1001.18 -0.439848 -2.97466 0
M  V30 10398 C 1002.73 -0.392721 -3.10526 0
M  V30 10399 C 1003.2 -0.810047 -4.5078 0
M  V30 10400 N 1004.69 -0.764478 -4.56848 0
M  V30 10401 C 1005.43 -1.05927 -5.63531 0
M  V30 10402 N 1004.93 -1.42253 -6.78038 0
M  V30 10403 N 1006.72 -0.983098 -5.53436 0
M  V30 10404 H 998.87 -1.31364 -1.66905 0
M  V30 10405 H 1001.13 -0.535908 -0.781989 0
M  V30 10406 H 1000.84 -1.47189 -3.19419 0
M  V30 10407 H 1000.71 0.181735 -3.76762 0
M  V30 10408 H 1003.1 0.630161 -2.88293 0
M  V30 10409 H 1003.18 -1.04959 -2.33275 0
M  V30 10410 H 1002.82 -1.83097 -4.73749 0
M  V30 10411 H 1002.75 -0.130591 -5.26438 0
M  V30 10412 H 1005.25 -0.496637 -3.74622 0
M  V30 10413 H 1005.56 -1.63215 -7.55368 0
M  V30 10414 H 1003.9 -1.46104 -6.79469 0
M  V30 10415 H 1007.09 -0.698601 -4.62858 0
M  V30 10416 H 1007.27 -1.21618 -6.36485 0
M  V30 10417 N 1000.67 1.57404 -0.0785433 0
M  V30 10418 C 1001.95 1.85163 0.630389 0
M  V30 10419 C 1002.33 0.972295 1.87376 0
M  V30 10420 O 1001.68 0.0403375 2.28464 0
M  V30 10421 C 1001.89 3.35491 0.961604 0
M  V30 10422 C 1003.24 4.0316 1.33219 0
M  V30 10423 O 1004.26 3.40276 1.05313 0
M  V30 10424 O 1003.12 5.14086 1.85412 0
M  V30 10425 H 1000.21 0.765169 0.31376 0
M  V30 10426 H 1002.76 1.69343 -0.109986 0
M  V30 10427 H 1001.53 3.91221 0.0788113 0
M  V30 10428 H 1001.15 3.56598 1.75852 0
M  V30 10429 N 1002.15 -0.195058 1.56388 0
M  V30 10430 C 1003.4 -0.915444 1.80626 0
M  V30 10431 C 1003.73 -1.83255 0.651768 0
M  V30 10432 O 1002.98 -1.92314 -0.362464 0
M  V30 10433 C 1003.28 -1.7637 3.10851 0
M  V30 10434 C 1002.95 -0.997572 4.39726 0
M  V30 10435 C 1001.61 -0.786043 4.74737 0
M  V30 10436 C 1003.96 -0.45851 5.19179 0
M  V30 10437 C 1001.29 -0.023972 5.86695 0
M  V30 10438 C 1003.64 0.29035 6.31933 0
M  V30 10439 C 1002.3 0.512895 6.65527 0
M  V30 10440 H 1001.57 -0.334985 0.660959 0
M  V30 10441 H 1004.22 -0.181815 1.90635 0
M  V30 10442 H 1002.53 -2.566 2.9608 0
M  V30 10443 H 1004.22 -2.3237 3.26811 0
M  V30 10444 H 1000.81 -1.17245 4.12252 0
M  V30 10445 H 1005 -0.609334 4.92545 0
M  V30 10446 H 1000.25 0.158421 6.11195 0
M  V30 10447 H 1004.43 0.715429 6.92715 0
M  V30 10448 H 1002.05 1.10531 7.52122 0
M  V30 10449 N 1003.63 -1.50653 -0.462772 0
M  V30 10450 C 1005.04 -1.54821 -1.04342 0
M  V30 10451 C 1005.39 -0.356595 -1.92932 0
M  V30 10452 O 1004.52 0.529579 -2.0982 0
M  V30 10453 C 1005.11 -2.80571 -1.89909 0
M  V30 10454 C 1003.67 -2.87394 -2.43067 0
M  V30 10455 C 1002.82 -2.49206 -1.21621 0
M  V30 10456 H 1005.77 -1.56797 -0.245048 0
M  V30 10457 H 1005.79 -2.62897 -2.75074 0
M  V30 10458 H 1005.3 -3.67281 -1.25405 0
M  V30 10459 H 1003.4 -2.05055 -3.111 0
M  V30 10460 H 1003.52 -3.90477 -2.77605 0
M  V30 10461 H 1001.88 -2.01829 -1.55361 0
M  V30 10462 H 1002.66 -3.38233 -0.587669 0
M  V30 10463 N 1005.11 0.71652 -1.4037 0
M  V30 10464 C 1006.33 1.51069 -1.42102 0
M  V30 10465 C 1006.76 1.88087 -0.0222387 0
M  V30 10466 O 1006.12 1.53204 0.969448 0
M  V30 10467 C 1006.16 2.76307 -2.31704 0
M  V30 10468 O 1005.27 3.72975 -1.75964 0
M  V30 10469 H 1004.61 0.455502 -0.483129 0
M  V30 10470 H 1007.14 0.882514 -1.84588 0
M  V30 10471 H 1007.15 3.24846 -2.46859 0
M  V30 10472 H 1005.82 2.48698 -3.3335 0
M  V30 10473 H 1004.4 3.31818 -1.70151 0
M  V30 10474 N 1006.59 1.25851 0.948643 0
M  V30 10475 C 1007.81 1.13813 1.73382 0
M  V30 10476 C 1008.24 -0.303615 1.85633 0
M  V30 10477 O 1007.59 -1.21997 1.34114 0
M  V30 10478 C 1007.64 1.80388 3.12238 0
M  V30 10479 O 1006.75 1.08759 3.978 0
M  V30 10480 H 1006.09 0.397006 0.532243 0
M  V30 10481 H 1008.62 1.66529 1.18866 0
M  V30 10482 H 1008.63 1.86913 3.62667 0
M  V30 10483 H 1007.3 2.85278 3.02637 0
M  V30 10484 H 1005.88 1.10157 3.56258 0
M  V30 10485 N 1008.06 -1.15214 1.07534 0
M  V30 10486 C 1009.48 -1.67628 0.822045 0
M  V30 10487 C 1009.83 -1.8503 -0.652571 0
M  V30 10488 O 1008.95 -1.55497 -1.50498 0
M  V30 10489 C 1009.55 -3.04489 1.48566 0
M  V30 10490 C 1008.11 -3.53974 1.27983 0
M  V30 10491 C 1007.25 -2.29656 1.55414 0
M  V30 10492 H 1010.2 -0.994016 1.23713 0
M  V30 10493 H 1010.22 -3.69509 0.907916 0
M  V30 10494 H 1009.74 -2.91792 2.55888 0
M  V30 10495 H 1007.84 -3.71908 0.226906 0
M  V30 10496 H 1007.95 -4.35298 2.0013 0
M  V30 10497 H 1006.31 -2.35289 0.975251 0
M  V30 10498 H 1007.1 -2.19544 2.63923 0
M  V30 10499 N 1009.54 -0.859717 -1.32086 0
M  V30 10500 C 1010.45 -0.31108 -2.32528 0
M  V30 10501 C 1011.47 0.573714 -1.6427 0
M  V30 10502 O 1012.64 0.472878 -1.9577 0
M  V30 10503 C 1009.71 0.487256 -3.43259 0
M  V30 10504 C 1008.77 -0.424279 -4.27198 0
M  V30 10505 C 1008 0.336051 -5.32641 0
M  V30 10506 O 1008.23 1.56541 -5.48499 0
M  V30 10507 O 1007.16 -0.300777 -6.01148 0
M  V30 10508 H 1010.99 -1.14336 -2.81355 0
M  V30 10509 H 1008.57 -0.622794 -1.358 0
M  V30 10510 H 1010.45 0.940203 -4.10777 0
M  V30 10511 H 1009.13 1.29626 -2.96612 0
M  V30 10512 H 1008.04 -0.925509 -3.62471 0
M  V30 10513 H 1009.37 -1.1986 -4.77383 0
M  V30 10514 N 1011.02 1.44971 -0.618145 0
M  V30 10515 C 1012.43 1.85611 -0.201334 0
M  V30 10516 C 1012.78 1.51698 1.24427 0
M  V30 10517 O 1011.91 0.94875 1.94493 0
M  V30 10518 C 1012.5 3.36897 -0.358619 0
M  V30 10519 C 1011.06 3.764 0.00358196 0
M  V30 10520 C 1010.21 2.68881 -0.678118 0
M  V30 10521 H 1013.16 1.35622 -0.824152 0
M  V30 10522 H 1013.18 3.78326 0.406176 0
M  V30 10523 H 1012.69 3.61548 -1.41084 0
M  V30 10524 H 1010.79 3.57365 1.05457 0
M  V30 10525 H 1010.91 4.77449 -0.397427 0
M  V30 10526 H 1009.27 2.54442 -0.114699 0
M  V30 10527 H 1010.05 2.96367 -1.73268 0
M  V30 10528 N 1012.5 0.357919 1.53482 0
M  V30 10529 C 1013.78 -0.290164 1.93436 0
M  V30 10530 C 1014.16 -1.67039 1.29079 0
M  V30 10531 O 1013.5 -2.24085 0.447017 0
M  V30 10532 C 1013.71 -0.348055 3.4726 0
M  V30 10533 C 1015.06 -0.59206 4.20452 0
M  V30 10534 O 1016.09 -0.429581 3.536 0
M  V30 10535 O 1014.94 -0.907855 5.38907 0
M  V30 10536 H 1012.04 -0.172312 0.80885 0
M  V30 10537 H 1014.58 0.410144 1.64669 0
M  V30 10538 H 1013.36 0.619953 3.86358 0
M  V30 10539 H 1012.98 -1.09457 3.82237 0
M  V30 10540 N 1013.98 -1.5736 0.0868897 0
M  V30 10541 C 1015.22 -1.95147 -0.573512 0
M  V30 10542 C 1015.58 -0.967591 -1.66299 0
M  V30 10543 O 1014.87 0.00774571 -1.91598 0
M  V30 10544 C 1015.06 -3.37316 -1.18123 0
M  V30 10545 C 1014.89 -4.49443 -0.152145 0
M  V30 10546 C 1013.66 -5.04586 0.268496 0
M  V30 10547 C 1015.86 -5.10592 0.616502 0
M  V30 10548 N 1013.84 -6.00264 1.28671 0
M  V30 10549 C 1015.21 -6.0191 1.48677 0
M  V30 10550 C 1017.27 -4.93359 0.67092 0
M  V30 10551 C 1015.97 -6.77844 2.40664 0
M  V30 10552 C 1018 -5.69949 1.57837 0
M  V30 10553 C 1017.36 -6.60927 2.43628 0
M  V30 10554 H 1013.46 -0.760898 -0.180439 0
M  V30 10555 H 1016.04 -1.93978 0.167548 0
M  V30 10556 H 1014.21 -3.39194 -1.89214 0
M  V30 10557 H 1015.95 -3.62301 -1.80332 0
M  V30 10558 H 1012.7 -4.73454 -0.117625 0
M  V30 10559 H 1013.13 -6.52804 1.79377 0
M  V30 10560 H 1017.77 -4.22794 0.0218207 0
M  V30 10561 H 1015.49 -7.47677 3.06603 0
M  V30 10562 H 1019.07 -5.58631 1.6255 0
M  V30 10563 H 1017.95 -7.19156 3.12705 0
M  V30 10564 N 1015.45 0.186762 -1.56489 0
M  V30 10565 C 1016.73 0.932229 -1.71956 0
M  V30 10566 C 1017.11 2.01037 -0.644006 0
M  V30 10567 O 1016.46 2.259 0.343694 0
M  V30 10568 C 1016.67 1.51106 -3.14592 0
M  V30 10569 C 1018.02 1.98997 -3.75081 0
M  V30 10570 O 1019.04 1.60931 -3.17773 0
M  V30 10571 O 1017.9 2.69067 -4.75673 0
M  V30 10572 H 1014.99 0.437736 -0.701652 0
M  V30 10573 H 1017.54 0.175803 -1.68787 0
M  V30 10574 H 1016.31 0.734327 -3.84348 0
M  V30 10575 H 1015.94 2.33209 -3.22024 0
M  V30 10576 N 1016.93 1.50896 0.454776 0
M  V30 10577 C 1017.88 1.71497 1.57136 0
M  V30 10578 C 1018.87 0.58098 1.59126 0
M  V30 10579 O 1020.08 0.761916 1.63079 0
M  V30 10580 H 1016.46 0.54158 0.521724 0
M  V30 10581 H 1018.43 2.65129 1.36928 0
M  V30 10582 C 1017.18 1.84125 2.94947 0
M  V30 10583 H 1016.5 2.7078 2.9414 0
M  V30 10584 H 1017.94 2.02558 3.72487 0
M  V30 10585 C 1016.4 0.596752 3.31573 0
M  V30 10586 O 1016.93 -0.256632 4.00879 0
M  V30 10587 N 1015.13 0.445958 2.87158 0
M  V30 10588 H 1014.68 1.14146 2.30929 0
M  V30 10589 H 1014.64 -0.385519 3.12027 0
M  V30 10590 N 1018.41 -0.709066 1.40748 0
M  V30 10591 C 1019.32 -1.85314 1.43861 0
M  V30 10592 C 1020.34 -1.70832 0.330539 0
M  V30 10593 O 1021.51 -1.92983 0.576152 0
M  V30 10594 C 1018.58 -3.21174 1.30568 0
M  V30 10595 C 1017.64 -3.47863 2.51574 0
M  V30 10596 C 1016.87 -4.77241 2.38906 0
M  V30 10597 O 1017.09 -5.52791 1.40636 0
M  V30 10598 O 1016.03 -5.04413 3.28407 0
M  V30 10599 H 1019.85 -1.85644 2.40354 0
M  V30 10600 H 1017.44 -0.860352 1.2214 0
M  V30 10601 H 1019.32 -4.02313 1.25388 0
M  V30 10602 H 1018 -3.21557 0.371841 0
M  V30 10603 H 1016.9 -2.66708 2.62331 0
M  V30 10604 H 1018.24 -3.52283 3.43741 0
M  V30 10605 N 1019.89 -1.26353 -0.941956 0
M  V30 10606 C 1020.84 -1.07654 -2.06188 0
M  V30 10607 C 1021.83 -0.00369741 -1.694 0
M  V30 10608 O 1023.04 -0.160316 -1.79285 0
M  V30 10609 H 1019.41 -0.331274 -0.675101 0
M  V30 10610 H 1021.38 -2.02566 -2.19111 0
M  V30 10611 C 1020.13 -0.725436 -3.40048 0
M  V30 10612 H 1019.46 -1.54283 -3.68832 0
M  V30 10613 H 1020.9 -0.634383 -4.19227 0
M  V30 10614 C 1019.35 0.569369 -3.32054 0
M  V30 10615 O 1019.88 1.60791 -3.68116 0
M  V30 10616 N 1018.09 0.559714 -2.85159 0
M  V30 10617 H 1017.64 -0.285817 -2.56009 0
M  V30 10618 H 1017.6 1.42617 -2.80193 0
M  V30 10619 N 1021.37 1.14642 -1.08144 0
M  V30 10620 C 1022.64 1.81774 -0.72232 0
M  V30 10621 C 1023.02 1.95587 0.794294 0
M  V30 10622 O 1022.37 1.51361 1.71178 0
M  V30 10623 C 1022.58 3.1763 -1.44611 0
M  V30 10624 C 1023.93 3.93161 -1.60343 0
M  V30 10625 O 1024.95 3.2721 -1.40755 0
M  V30 10626 O 1023.81 5.11422 -1.9264 0
M  V30 10627 H 1020.91 0.785733 -0.257978 0
M  V30 10628 H 1023.45 1.21683 -1.18285 0
M  V30 10629 H 1022.23 3.02723 -2.4794 0
M  V30 10630 H 1021.85 3.85412 -0.976892 0
M  V30 10631 N 1022.85 0.866709 1.31628 0
M  V30 10632 C 1024.09 0.472185 1.96095 0
M  V30 10633 C 1024.41 -0.979873 1.69286 0
M  V30 10634 O 1025.61 -1.48039 2.27589 0
M  V30 10635 C 1024.07 0.793468 3.51044 0
M  V30 10636 C 1023.68 2.26206 3.86697 0
M  V30 10637 C 1025.42 0.467255 4.21921 0
M  V30 10638 C 1023.33 2.52593 5.34743 0
M  V30 10639 H 1022.26 0.172846 0.733921 0
M  V30 10640 H 1024.91 1.05916 1.49847 0
M  V30 10641 H 1023.29 0.135783 3.95767 0
M  V30 10642 H 1024.47 2.96254 3.52945 0
M  V30 10643 H 1022.78 2.55399 3.28877 0
M  V30 10644 H 1025.38 0.641669 5.30836 0
M  V30 10645 H 1025.72 -0.592065 4.12068 0
M  V30 10646 H 1026.25 1.08134 3.82821 0
M  V30 10647 H 1022.99 3.57196 5.49628 0
M  V30 10648 H 1022.51 1.87136 5.6986 0
M  V30 10649 H 1024.19 2.37156 6.01968 0
M  V30 10650 N 1024.32 -1.44642 0.625825 0
M  V30 10651 C 1025.25 -2.33397 -0.0692188 0
M  V30 10652 C 1026.23 -1.47898 -0.840241 0
M  V30 10653 O 1027.42 -1.7663 -0.807176 0
M  V30 10654 C 1024.55 -3.30888 -1.055 0
M  V30 10655 C 1023.5 -4.26164 -0.395968 0
M  V30 10656 C 1022.83 -5.13483 -1.49128 0
M  V30 10657 C 1024.13 -5.17663 0.694433 0
M  V30 10658 H 1025.82 -2.91763 0.671925 0
M  V30 10659 H 1023.37 -1.40294 0.324573 0
M  V30 10660 H 1025.32 -3.91861 -1.54993 0
M  V30 10661 H 1024.05 -2.7072 -1.82696 0
M  V30 10662 H 1022.71 -3.66516 0.0782691 0
M  V30 10663 H 1022.35 -4.49672 -2.25399 0
M  V30 10664 H 1022.05 -5.78038 -1.05573 0
M  V30 10665 H 1023.58 -5.77327 -1.98813 0
M  V30 10666 H 1024.99 -5.72602 0.282818 0
M  V30 10667 H 1023.39 -5.90793 1.05281 0
M  V30 10668 H 1024.46 -4.58994 1.56372 0
M  V30 10669 N 1025.8 -0.366053 -1.5329 0
M  V30 10670 C 1026.75 0.495319 -2.27265 0
M  V30 10671 C 1027.74 1.08298 -1.30261 0
M  V30 10672 O 1028.95 1.02613 -1.47887 0
M  V30 10673 H 1025.32 0.178454 -0.730519 0
M  V30 10674 H 1027.3 -0.150354 -2.98021 0
M  V30 10675 C 1026.04 1.62283 -3.07505 0
M  V30 10676 H 1025.37 1.17993 -3.81992 0
M  V30 10677 H 1026.81 2.20024 -3.62444 0
M  V30 10678 C 1025.27 2.56542 -2.18375 0
M  V30 10679 O 1025.8 3.59371 -1.79486 0
M  V30 10680 N 1024 2.25742 -1.82999 0
M  V30 10681 H 1023.55 1.42159 -2.14822 0
M  V30 10682 H 1023.51 2.89064 -1.2365 0
M  V30 10683 N 1027.28 1.57312 -0.0952337 0
M  V30 10684 C 1028.19 2.17556 0.877877 0
M  V30 10685 C 1029.21 1.14505 1.31014 0
M  V30 10686 O 1030.38 1.46876 1.37802 0
M  V30 10687 C 1027.45 2.74413 2.11892 0
M  V30 10688 C 1026.51 3.92419 1.74085 0
M  V30 10689 C 1025.74 4.46556 2.92273 0
M  V30 10690 O 1025.96 3.99631 4.07002 0
M  V30 10691 O 1024.9 5.37576 2.70732 0
M  V30 10692 H 1028.72 3.01116 0.395312 0
M  V30 10693 H 1026.31 1.48841 0.129123 0
M  V30 10694 H 1028.19 3.10754 2.84622 0
M  V30 10695 H 1026.87 1.93899 2.59201 0
M  V30 10696 H 1025.77 3.6089 0.985346 0
M  V30 10697 H 1027.11 4.74298 1.31539 0
M  V30 10698 N 1028.76 -0.17846 1.56586 0
M  V30 10699 C 1029.69 -1.22342 1.98884 0
M  V30 10700 C 1030.67 -1.46564 0.86331 0
M  V30 10701 O 1031.85 -1.58019 1.12887 0
M  V30 10702 C 1028.98 -2.56396 2.34261 0
M  V30 10703 C 1027.94 -2.46756 3.49708 0
M  V30 10704 C 1027.26 -3.85235 3.70807 0
M  V30 10705 C 1028.56 -1.97838 4.83381 0
M  V30 10706 H 1030.26 -0.871848 2.86425 0
M  V30 10707 H 1027.8 -0.417948 1.37801 0
M  V30 10708 H 1029.76 -3.29695 2.62448 0
M  V30 10709 H 1028.48 -2.93327 1.43621 0
M  V30 10710 H 1027.14 -1.75912 3.21637 0
M  V30 10711 H 1026.79 -4.19547 2.7747 0
M  V30 10712 H 1026.49 -3.79655 4.48481 0
M  V30 10713 H 1028.01 -4.60131 4.01387 0
M  V30 10714 H 1029.43 -2.60906 5.10491 0
M  V30 10715 H 1027.82 -2.03223 5.64642 0
M  V30 10716 H 1028.89 -0.932339 4.75852 0
M  V30 10717 N 1030.24 -1.51135 -0.446768 0
M  V30 10718 C 1031.46 -1.67129 -1.21965 0
M  V30 10719 C 1031.88 -0.36467 -1.85245 0
M  V30 10720 O 1031.24 0.655908 -1.70306 0
M  V30 10721 C 1031.29 -2.78016 -2.31061 0
M  V30 10722 O 1031.01 -4.03615 -1.70371 0
M  V30 10723 C 1032.51 -3.05197 -3.21511 0
M  V30 10724 H 1029.73 -0.561111 -0.367961 0
M  V30 10725 H 1032.27 -1.97499 -0.530517 0
M  V30 10726 H 1030.43 -2.50272 -2.95707 0
M  V30 10727 H 1030.84 -4.65126 -2.424 0
M  V30 10728 H 1032.32 -3.8639 -3.94216 0
M  V30 10729 H 1032.79 -2.17228 -3.81718 0
M  V30 10730 H 1033.4 -3.34565 -2.62577 0
M  V30 10731 N 1031.71 0.701592 -1.41122 0
M  V30 10732 C 1032.95 1.4739 -1.41618 0
M  V30 10733 C 1033.32 1.91987 -0.0219443 0
M  V30 10734 O 1034.52 2.6862 0.0982793 0
M  V30 10735 C 1032.79 2.65745 -2.38986 0
M  V30 10736 S 1034.35 3.54968 -2.5796 0
M  V30 10737 H 1031.17 0.503742 -0.501762 0
M  V30 10738 H 1033.77 0.819186 -1.77509 0
M  V30 10739 H 1032.47 2.31176 -3.39096 0
M  V30 10740 H 1032 3.36115 -2.04426 0
M  V30 10741 H 1034.02 4.60724 -1.84249 0
M  V30 10742 N 1033.19 1.2685 0.935242 0
M  V30 10743 C 1034.44 1.12132 1.67658 0
M  V30 10744 C 1034.75 -0.333839 1.9273 0
M  V30 10745 O 1035.96 -0.601801 2.64746 0
M  V30 10746 C 1034.42 1.95873 3.0193 0
M  V30 10747 C 1034.02 3.46 2.84584 0
M  V30 10748 C 1035.77 1.89781 3.79715 0
M  V30 10749 C 1033.67 4.21966 4.14365 0
M  V30 10750 H 1032.6 0.416035 0.628833 0
M  V30 10751 H 1035.26 1.51209 1.03962 0
M  V30 10752 H 1033.64 1.49633 3.66641 0
M  V30 10753 H 1034.81 4.00049 2.28687 0
M  V30 10754 H 1033.13 3.53391 2.20236 0
M  V30 10755 H 1035.72 2.43819 4.75875 0
M  V30 10756 H 1036.07 0.869797 4.07112 0
M  V30 10757 H 1036.6 2.33875 3.21788 0
M  V30 10758 H 1033.34 5.2526 3.9215 0
M  V30 10759 H 1032.86 3.72696 4.69955 0
M  V30 10760 H 1034.54 4.30734 4.82781 0
M  V30 10761 N 1034.67 -1.14067 1.0875 0
M  V30 10762 C 1035.91 -1.8684 0.828873 0
M  V30 10763 C 1036.27 -1.81235 -0.633879 0
M  V30 10764 O 1037.48 -2.49178 -1.00815 0
M  V30 10765 C 1035.75 -3.31299 1.34073 0
M  V30 10766 S 1037.31 -4.21645 1.21494 0
M  V30 10767 H 1034.12 -0.644622 0.299972 0
M  V30 10768 H 1036.73 -1.37526 1.38949 0
M  V30 10769 H 1035.43 -3.32929 2.39972 0
M  V30 10770 H 1034.96 -3.85672 0.775944 0
M  V30 10771 H 1036.98 -4.95937 0.161446 0
M  V30 10772 N 1036.15 -0.873678 -1.31166 0
M  V30 10773 C 1037.39 -0.487178 -1.96861 0
M  V30 10774 C 1037.73 0.95887 -1.68877 0
M  V30 10775 O 1037 1.6758 -0.987279 0
M  V30 10776 C 1037.29 -0.74925 -3.52219 0
M  V30 10777 C 1037.14 -2.2451 -3.89763 0
M  V30 10778 C 1038.46 -0.218194 -4.39559 0
M  V30 10779 H 1035.58 -0.178477 -0.715063 0
M  V30 10780 H 1038.22 -1.0956 -1.55231 0
M  V30 10781 H 1036.37 -0.231403 -3.8781 0
M  V30 10782 H 1038.04 -2.83049 -3.64254 0
M  V30 10783 H 1036.28 -2.71621 -3.38237 0
M  V30 10784 H 1036.95 -2.37911 -4.98099 0
M  V30 10785 H 1039.43 -0.661274 -4.10812 0
M  V30 10786 H 1038.31 -0.430983 -5.47205 0
M  V30 10787 H 1038.57 0.880056 -4.33252 0
M  V30 10788 N 1037.63 1.44308 -0.633487 0
M  V30 10789 C 1038.87 2.02322 -0.139123 0
M  V30 10790 C 1039.21 1.49733 1.23667 0
M  V30 10791 O 1038.48 0.682353 1.82138 0
M  V30 10792 C 1038.76 3.59871 -0.128366 0
M  V30 10793 C 1038.62 4.22737 -1.53667 0
M  V30 10794 C 1039.94 4.36702 0.545834 0
M  V30 10795 H 1037.05 0.735161 -0.0520293 0
M  V30 10796 H 1039.7 1.7185 -0.810411 0
M  V30 10797 H 1037.85 3.85963 0.443263 0
M  V30 10798 H 1039.52 4.07744 -2.15737 0
M  V30 10799 H 1037.76 3.80142 -2.08985 0
M  V30 10800 H 1038.43 5.31757 -1.48116 0
M  V30 10801 H 1040.91 4.16057 0.0596879 0
M  V30 10802 H 1039.78 5.46407 0.522557 0
M  V30 10803 H 1040.05 4.11483 1.6166 0
M  V30 10804 N 1039.1 0.374177 1.53094 0
M  V30 10805 C 1040.35 -0.212396 2.00981 0
M  V30 10806 C 1040.67 -1.48576 1.26293 0
M  V30 10807 O 1039.94 -1.92206 0.378642 0
M  V30 10808 H 1038.52 -0.0814763 0.742543 0
M  V30 10809 H 1041.19 0.502389 1.88314 0
M  V30 10810 H 1040.28 -0.433316 3.09077 0
M  V30 10811 N 1040.58 -1.57259 0.103575 0
M  V30 10812 C 1041.83 -1.93832 -0.55786 0
M  V30 10813 C 1042.14 -0.988087 -1.68808 0
M  V30 10814 O 1043.35 -1.24786 -2.41124 0
M  V30 10815 C 1041.81 -3.44433 -1.04373 0
M  V30 10816 C 1041.41 -4.47963 0.0571971 0
M  V30 10817 C 1043.16 -3.89953 -1.67742 0
M  V30 10818 C 1041.07 -5.89727 -0.444505 0
M  V30 10819 H 1040 -0.723536 -0.212161 0
M  V30 10820 H 1042.65 -1.82606 0.180944 0
M  V30 10821 H 1041.03 -3.50841 -1.83648 0
M  V30 10822 H 1042.2 -4.53209 0.83298 0
M  V30 10823 H 1040.52 -4.12104 0.596588 0
M  V30 10824 H 1043.11 -4.93272 -2.06365 0
M  V30 10825 H 1043.46 -3.2907 -2.54988 0
M  V30 10826 H 1043.99 -3.86281 -0.950342 0
M  V30 10827 H 1040.73 -6.5433 0.391543 0
M  V30 10828 H 1040.25 -5.87935 -1.18711 0
M  V30 10829 H 1041.93 -6.40558 -0.910739 0
M  V30 10830 N 1042.06 0.170153 -1.56679 0
M  V30 10831 C 1042.97 1.23057 -1.99735 0
M  V30 10832 C 1043.99 1.48374 -0.908912 0
M  V30 10833 O 1045.16 1.60499 -1.21663 0
M  V30 10834 C 1042.23 2.54944 -2.34956 0
M  V30 10835 C 1041.29 2.3748 -3.57634 0
M  V30 10836 C 1040.52 3.63078 -3.91165 0
M  V30 10837 O 1040.74 4.68304 -3.2565 0
M  V30 10838 O 1039.68 3.57119 -4.8451 0
M  V30 10839 H 1043.5 0.895104 -2.9021 0
M  V30 10840 H 1041.09 0.377109 -1.44562 0
M  V30 10841 H 1042.97 3.32742 -2.58574 0
M  V30 10842 H 1041.65 2.88068 -1.47643 0
M  V30 10843 H 1040.55 1.57709 -3.39232 0
M  V30 10844 H 1041.89 2.0928 -4.45491 0
M  V30 10845 N 1043.54 1.5137 0.438746 0
M  V30 10846 C 1044.82 1.54508 1.19944 0
M  V30 10847 C 1045.2 0.308525 2.08833 0
M  V30 10848 O 1044.54 -0.706461 2.17305 0
M  V30 10849 C 1044.75 2.85833 2.00251 0
M  V30 10850 C 1046.1 3.37729 2.5734 0
M  V30 10851 O 1047.13 2.87374 2.10463 0
M  V30 10852 O 1045.98 4.25589 3.42836 0
M  V30 10853 H 1043.08 0.621132 0.546007 0
M  V30 10854 H 1045.62 1.63682 0.447931 0
M  V30 10855 H 1044.4 3.67291 1.34955 0
M  V30 10856 H 1044.02 2.79815 2.8247 0
M  V30 10857 N 1045.02 -0.694098 1.41492 0
M  V30 10858 C 1046.43 -1.27407 1.36471 0
M  V30 10859 C 1046.78 -1.9614 0.0485209 0
M  V30 10860 O 1045.9 -1.98871 -0.853188 0
M  V30 10861 C 1046.5 -2.31698 2.47188 0
M  V30 10862 C 1045.06 -2.85268 2.45559 0
M  V30 10863 C 1044.2 -1.59325 2.2696 0
M  V30 10864 H 1047.16 -0.488756 1.50986 0
M  V30 10865 H 1047.18 -3.1302 2.1633 0
M  V30 10866 H 1046.69 -1.81644 3.42968 0
M  V30 10867 H 1044.79 -3.39494 1.5354 0
M  V30 10868 H 1044.9 -3.35598 3.41922 0
M  V30 10869 H 1043.27 -1.85188 1.74864 0
M  V30 10870 H 1044.05 -1.11265 3.24769 0
M  V30 10871 N 1046.49 -1.27344 -0.928501 0
M  V30 10872 C 1047.74 -1.13804 -1.67859 0
M  V30 10873 C 1048.07 0.31555 -1.91619 0
M  V30 10874 O 1047.35 1.23087 -1.50599 0
M  V30 10875 C 1047.63 -1.9213 -3.04562 0
M  V30 10876 C 1047.48 -3.45468 -2.88048 0
M  V30 10877 C 1048.8 -1.72513 -4.04879 0
M  V30 10878 H 1045.92 -0.414796 -0.609191 0
M  V30 10879 H 1048.56 -1.5649 -1.07753 0
M  V30 10880 H 1046.71 -1.55853 -3.55868 0
M  V30 10881 H 1048.39 -3.9157 -2.43865 0
M  V30 10882 H 1046.63 -3.71849 -2.23407 0
M  V30 10883 H 1047.3 -3.95515 -3.85061 0
M  V30 10884 H 1049.78 -2.04143 -3.62581 0
M  V30 10885 H 1048.65 -2.29713 -4.98521 0
M  V30 10886 H 1048.91 -0.672856 -4.3695 0
M  V30 10887 N 1047.97 1.13488 -1.09353 0
M  V30 10888 C 1049.39 1.36739 -0.823086 0
M  V30 10889 C 1049.59 1.93476 0.562963 0
M  V30 10890 O 1048.64 2.15374 1.31796 0
M  V30 10891 C 1049.96 2.31943 -1.91371 0
M  V30 10892 C 1051.51 2.4556 -1.94085 0
M  V30 10893 C 1051.98 3.44072 -3.02289 0
M  V30 10894 N 1053.47 3.51622 -3.01524 0
M  V30 10895 C 1054.21 4.27724 -3.8189 0
M  V30 10896 N 1053.7 5.06987 -4.72161 0
M  V30 10897 N 1055.5 4.23018 -3.70152 0
M  V30 10898 H 1047.65 0.75012 -1.98713 0
M  V30 10899 H 1049.91 0.392564 -0.862901 0
M  V30 10900 H 1049.62 1.97408 -2.91072 0
M  V30 10901 H 1049.49 3.31952 -1.79131 0
M  V30 10902 H 1051.88 2.79382 -0.950234 0
M  V30 10903 H 1051.96 1.45479 -2.10403 0
M  V30 10904 H 1051.6 3.10981 -4.01564 0
M  V30 10905 H 1051.53 4.43956 -2.83214 0
M  V30 10906 H 1054.02 2.95066 -2.36103 0
M  V30 10907 H 1054.34 5.6236 -5.30067 0
M  V30 10908 H 1052.68 5.06222 -4.76197 0
M  V30 10909 H 1055.87 3.60171 -2.98989 0
M  V30 10910 H 1056.04 4.82075 -4.33022 0
M  V30 10911 N 1049.45 0.880621 1.30701 0
M  V30 10912 C 1050.86 0.547993 1.78477 0
M  V30 10913 C 1051.21 -0.935633 1.72454 0
M  V30 10914 O 1050.34 -1.73094 1.29874 0
M  V30 10915 C 1050.93 0.98795 3.24076 0
M  V30 10916 C 1049.49 0.706805 3.69704 0
M  V30 10917 C 1048.64 1.17335 2.51252 0
M  V30 10918 H 1051.59 1.06528 1.17633 0
M  V30 10919 H 1051.61 0.31508 3.79193 0
M  V30 10920 H 1051.12 2.06778 3.28427 0
M  V30 10921 H 1049.22 -0.36122 3.70845 0
M  V30 10922 H 1049.34 1.2913 4.6137 0
M  V30 10923 H 1047.7 0.592808 2.47705 0
M  V30 10924 H 1048.48 2.26083 2.58343 0
M  V30 10925 N 1050.93 -1.4397 0.641131 0
M  V30 10926 C 1051.84 -2.34526 -0.058742 0
M  V30 10927 C 1052.86 -1.53194 -0.825088 0
M  V30 10928 O 1054.03 -1.85888 -0.775081 0
M  V30 10929 C 1051.1 -3.31313 -1.02139 0
M  V30 10930 C 1050.16 -4.28552 -0.253319 0
M  V30 10931 C 1049.39 -5.20715 -1.17012 0
M  V30 10932 O 1049.61 -5.17028 -2.40911 0
M  V30 10933 O 1048.55 -5.9839 -0.649039 0
M  V30 10934 H 1052.37 -2.95843 0.686329 0
M  V30 10935 H 1049.96 -1.43909 0.401316 0
M  V30 10936 H 1051.84 -3.90862 -1.57496 0
M  V30 10937 H 1050.52 -2.72516 -1.7469 0
M  V30 10938 H 1049.42 -3.72519 0.343531 0
M  V30 10939 H 1050.76 -4.90297 0.432372 0
M  V30 10940 N 1052.41 -0.382291 -1.52893 0
M  V30 10941 C 1053.65 0.202433 -2.01787 0
M  V30 10942 C 1053.99 1.47044 -1.26853 0
M  V30 10943 O 1053.26 1.91007 -0.366969 0
M  V30 10944 C 1053.54 0.477471 -3.5692 0
M  V30 10945 C 1053.4 -0.805339 -4.42532 0
M  V30 10946 C 1054.72 1.27106 -4.21346 0
M  V30 10947 H 1051.84 0.0720998 -0.733465 0
M  V30 10948 H 1054.48 -0.510478 -1.83014 0
M  V30 10949 H 1052.63 1.08478 -3.73048 0
M  V30 10950 H 1054.3 -1.4424 -4.3817 0
M  V30 10951 H 1052.54 -1.42216 -4.09826 0
M  V30 10952 H 1053.21 -0.567635 -5.49074 0
M  V30 10953 H 1055.69 0.757161 -4.09153 0
M  V30 10954 H 1054.57 1.43225 -5.29885 0
M  V30 10955 H 1054.83 2.28431 -3.78513 0
M  V30 10956 N 1053.89 1.57202 -0.111913 0
M  V30 10957 C 1055.3 1.82039 0.414591 0
M  V30 10958 C 1055.65 1.02863 1.67074 0
M  V30 10959 O 1054.77 0.263068 2.14795 0
M  V30 10960 C 1055.37 3.3019 0.758953 0
M  V30 10961 C 1053.93 3.55732 1.23012 0
M  V30 10962 C 1053.07 2.76301 0.235226 0
M  V30 10963 H 1056.02 1.55078 -0.337142 0
M  V30 10964 H 1056.05 3.44431 1.61701 0
M  V30 10965 H 1055.56 3.87788 -0.155473 0
M  V30 10966 H 1053.66 3.03483 2.16169 0
M  V30 10967 H 1053.77 4.64333 1.18034 0
M  V30 10968 H 1052.14 2.44287 0.720822 0
M  V30 10969 H 1052.92 3.36655 -0.672173 0
M  V30 10970 N 1055.36 -0.161842 1.56767 0
M  V30 10971 C 1056.27 -1.21996 2.00385 0
M  V30 10972 C 1057.29 -1.4789 0.916768 0
M  V30 10973 O 1058.47 -1.59852 1.22513 0
M  V30 10974 C 1055.53 -2.53695 2.36305 0
M  V30 10975 C 1054.59 -2.3558 3.58888 0
M  V30 10976 C 1053.82 -3.60998 3.93085 0
M  V30 10977 O 1054.05 -4.6657 3.28129 0
M  V30 10978 O 1052.98 -3.54544 4.86397 0
M  V30 10979 H 1056.81 -0.879701 2.9068 0
M  V30 10980 H 1054.39 -0.369437 1.4476 0
M  V30 10981 H 1056.27 -3.31366 2.60335 0
M  V30 10982 H 1054.95 -2.87281 1.49169 0
M  V30 10983 H 1053.86 -1.55908 3.40064 0
M  V30 10984 H 1055.19 -2.06915 4.46595 0
M  V30 10985 N 1056.84 -1.516 -0.430713 0
M  V30 10986 C 1057.8 -1.72794 -1.50582 0
M  V30 10987 C 1058.8 -0.597903 -1.49271 0
M  V30 10988 O 1059.99 -0.865535 -1.51176 0
M  V30 10989 C 1057.13 -1.79049 -2.90093 0
M  V30 10990 H 1058.32 -2.68751 -1.33091 0
M  V30 10991 H 1055.87 -1.4169 -0.659822 0
M  V30 10992 H 1056.61 -0.849309 -3.12981 0
M  V30 10993 H 1056.39 -2.61181 -2.92449 0
M  V30 10994 H 1057.88 -1.97262 -3.68072 0
M  V30 10995 N 1058.32 0.686584 -1.41858 0
M  V30 10996 C 1059.57 1.44235 -1.40994 0
M  V30 10997 C 1059.88 1.95583 -0.0254979 0
M  V30 10998 O 1061.09 2.71294 0.10576 0
M  V30 10999 C 1059.54 2.6086 -2.47952 0
M  V30 11000 C 1059.15 2.16259 -3.92347 0
M  V30 11001 C 1060.9 3.38441 -2.56237 0
M  V30 11002 C 1058.8 3.29896 -4.90838 0
M  V30 11003 H 1057.73 0.54181 -0.524364 0
M  V30 11004 H 1060.38 0.744486 -1.67719 0
M  V30 11005 H 1058.77 3.32957 -2.14373 0
M  V30 11006 H 1059.94 1.51392 -4.35221 0
M  V30 11007 H 1058.25 1.51648 -3.87804 0
M  V30 11008 H 1060.85 4.23052 -3.27003 0
M  V30 11009 H 1061.19 3.84238 -1.6021 0
M  V30 11010 H 1061.73 2.73406 -2.88953 0
M  V30 11011 H 1058.47 2.89104 -5.88302 0
M  V30 11012 H 1057.99 3.93584 -4.52606 0
M  V30 11013 H 1059.67 3.95541 -5.12012 0
M  V30 11014 N 1059.8 1.27835 0.921735 0
M  V30 11015 C 1061.21 1.05369 1.19873 0
M  V30 11016 C 1061.41 -0.208997 2.00413 0
M  V30 11017 O 1060.47 -0.912861 2.35421 0
M  V30 11018 C 1061.78 2.29658 1.94108 0
M  V30 11019 C 1063.33 2.34756 2.07023 0
M  V30 11020 C 1063.81 3.5879 2.84664 0
M  V30 11021 N 1065.3 3.59383 2.9223 0
M  V30 11022 C 1066.03 4.52029 3.52785 0
M  V30 11023 N 1065.53 5.54986 4.14683 0
M  V30 11024 N 1067.32 4.39641 3.50246 0
M  V30 11025 H 1059.47 2.08903 0.383819 0
M  V30 11026 H 1061.73 0.919065 0.232429 0
M  V30 11027 H 1061.44 3.21604 1.4235 0
M  V30 11028 H 1061.31 2.35444 2.94696 0
M  V30 11029 H 1063.7 1.43312 2.57965 0
M  V30 11030 H 1063.78 2.32969 1.05636 0
M  V30 11031 H 1063.43 4.50574 2.34404 0
M  V30 11032 H 1063.36 3.57829 3.86349 0
M  V30 11033 H 1065.85 2.84927 2.48244 0
M  V30 11034 H 1066.16 6.21837 4.58845 0
M  V30 11035 H 1064.51 5.58822 4.13211 0
M  V30 11036 H 1067.7 3.58413 3.01094 0
M  V30 11037 H 1067.87 5.12033 3.97148 0
M  V30 11038 N 1061.28 -1.12907 1.09954 0
M  V30 11039 C 1062.22 -2.18485 0.743848 0
M  V30 11040 C 1063.19 -1.63766 -0.277494 0
M  V30 11041 O 1064.38 -1.90146 -0.157899 0
M  V30 11042 C 1061.52 -3.44649 0.176437 0
M  V30 11043 C 1060.63 -4.13445 1.25248 0
M  V30 11044 C 1059.77 -5.27242 0.647242 0
M  V30 11045 C 1058.8 -5.87897 1.70421 0
M  V30 11046 N 1057.94 -6.93116 1.1196 0
M  V30 11047 H 1062.78 -2.48257 1.64841 0
M  V30 11048 H 1060.32 -1.21891 0.823471 0
M  V30 11049 H 1062.28 -4.16852 -0.170384 0
M  V30 11050 H 1060.91 -3.15309 -0.69137 0
M  V30 11051 H 1059.96 -3.39471 1.7165 0
M  V30 11052 H 1061.27 -4.54601 2.05279 0
M  V30 11053 H 1060.42 -6.06186 0.249579 0
M  V30 11054 H 1059.16 -4.87351 -0.184556 0
M  V30 11055 H 1058.17 -5.07643 2.11136 0
M  V30 11056 H 1059.39 -6.2986 2.53877 0
M  V30 11057 H 1057.34 -6.55271 0.309181 0
M  V30 11058 H 1057.26 -7.32843 1.85681 0
M  V30 11059 H 1058.52 -7.759 0.748326 0
M  V30 11060 N 1062.75 -0.88754 -1.30232 0
M  V30 11061 C 1063.99 -0.514017 -1.97831 0
M  V30 11062 C 1064.36 0.920151 -1.68515 0
M  V30 11063 O 1065.56 1.39993 -2.29468 0
M  V30 11064 C 1063.83 -0.784155 -3.48692 0
M  V30 11065 S 1065.39 -0.513119 -4.3579 0
M  V30 11066 H 1062.21 -0.191157 -0.684821 0
M  V30 11067 H 1064.81 -1.14736 -1.58291 0
M  V30 11068 H 1063.51 -1.82639 -3.6752 0
M  V30 11069 H 1063.04 -0.138468 -3.93156 0
M  V30 11070 H 1065.06 0.647155 -4.91962 0
M  V30 11071 N 1064.23 1.43628 -0.648757 0
M  V30 11072 C 1065.16 2.29045 0.0841858 0
M  V30 11073 C 1066.18 1.42262 0.791537 0
M  V30 11074 O 1067.37 1.66243 0.650039 0
M  V30 11075 C 1064.47 3.19075 1.14212 0
M  V30 11076 C 1063.64 4.34372 0.513799 0
M  V30 11077 C 1062.7 5.05307 1.46803 0
M  V30 11078 O 1061.72 5.60729 0.978346 0
M  V30 11079 N 1062.93 5.08393 2.80209 0
M  V30 11080 H 1065.69 2.9259 -0.648948 0
M  V30 11081 H 1063.25 1.54268 -0.491209 0
M  V30 11082 H 1065.24 3.63395 1.78119 0
M  V30 11083 H 1063.81 2.57161 1.77728 0
M  V30 11084 H 1063.03 3.93024 -0.304262 0
M  V30 11085 H 1064.32 5.08745 0.0749871 0
M  V30 11086 H 1063.72 4.64729 3.22557 0
M  V30 11087 H 1062.28 5.56445 3.3943 0
M  V30 11088 N 1065.71 0.390394 1.52688 0
M  V30 11089 C 1067.13 0.0404028 1.59549 0
M  V30 11090 C 1067.33 -1.44503 1.40432 0
M  V30 11091 O 1066.38 -2.20968 1.22187 0
M  V30 11092 C 1067.7 0.518561 2.96195 0
M  V30 11093 C 1069.24 0.474913 3.09376 0
M  V30 11094 C 1069.72 0.929278 4.48473 0
M  V30 11095 N 1071.21 0.885335 4.5466 0
M  V30 11096 C 1071.94 1.2083 5.60524 0
M  V30 11097 N 1071.44 1.6018 6.74028 0
M  V30 11098 N 1073.23 1.12949 5.50635 0
M  V30 11099 H 1065.38 1.35743 1.63363 0
M  V30 11100 H 1067.65 0.556453 0.767505 0
M  V30 11101 H 1067.35 1.55606 3.15404 0
M  V30 11102 H 1067.23 -0.081779 3.77111 0
M  V30 11103 H 1069.61 -0.553503 2.89863 0
M  V30 11104 H 1069.7 1.11107 2.3041 0
M  V30 11105 H 1069.34 1.95593 4.68728 0
M  V30 11106 H 1069.27 0.270121 5.25907 0
M  V30 11107 H 1071.76 0.595787 3.73174 0
M  V30 11108 H 1072.07 1.83184 7.50775 0
M  V30 11109 H 1070.42 1.64067 6.75357 0
M  V30 11110 H 1073.61 0.821074 4.60843 0
M  V30 11111 H 1073.78 1.3845 6.33037 0
M  V30 11112 N 1067.19 -1.57141 0.120249 0
M  V30 11113 C 1068.15 -2.14213 -0.815185 0
M  V30 11114 C 1069.15 -1.07731 -1.19376 0
M  V30 11115 O 1070.34 -1.33502 -1.11906 0
M  V30 11116 C 1067.47 -2.68339 -2.10255 0
M  V30 11117 H 1068.67 -2.98197 -0.319166 0
M  V30 11118 H 1066.22 -1.55767 -0.128997 0
M  V30 11119 H 1066.95 -1.87946 -2.64285 0
M  V30 11120 H 1066.74 -3.46216 -1.84057 0
M  V30 11121 H 1068.23 -3.124 -2.77121 0
M  V30 11122 N 1068.67 0.153526 -1.5685 0
M  V30 11123 C 1069.91 0.865519 -1.82629 0
M  V30 11124 C 1070.24 1.81999 -0.700105 0
M  V30 11125 O 1069.51 1.93907 0.278744 0
M  V30 11126 H 1068.09 0.32261 -0.673745 0
M  V30 11127 H 1070.75 0.149088 -1.94329 0
M  V30 11128 H 1069.84 1.43171 -2.77324 0
M  V30 11129 N 1070.14 1.51827 0.422667 0
M  V30 11130 C 1071.39 1.6445 1.16786 0
M  V30 11131 C 1071.71 0.373792 1.91995 0
M  V30 11132 O 1072.91 0.379621 2.68833 0
M  V30 11133 C 1071.37 2.90488 2.12473 0
M  V30 11134 C 1070.98 4.24617 1.42844 0
M  V30 11135 C 1072.72 3.12472 2.87335 0
M  V30 11136 C 1070.63 5.41791 2.371 0
M  V30 11137 H 1069.56 0.612561 0.439641 0
M  V30 11138 H 1072.21 1.78305 0.433534 0
M  V30 11139 H 1070.59 2.703 2.89402 0
M  V30 11140 H 1071.76 4.55239 0.71372 0
M  V30 11141 H 1070.08 4.08628 0.800769 0
M  V30 11142 H 1072.68 3.9719 3.57973 0
M  V30 11143 H 1073.02 2.26148 3.49518 0
M  V30 11144 H 1073.55 3.33069 2.17509 0
M  V30 11145 H 1070.29 6.3042 1.79584 0
M  V30 11146 H 1069.81 5.15526 3.06583 0
M  V30 11147 H 1071.49 5.74329 2.97918 0
M  V30 11148 N 1071.62 -0.679052 1.4222 0
M  V30 11149 C 1072.85 -1.46747 1.45852 0
M  V30 11150 C 1073.27 -1.88675 0.0685937 0
M  V30 11151 O 1072.62 -1.57861 -0.915757 0
M  V30 11152 C 1072.67 -2.71935 2.38188 0
M  V30 11153 O 1072.39 -2.31768 3.71773 0
M  V30 11154 C 1073.9 -3.65536 2.50796 0
M  V30 11155 H 1071.12 -0.451682 0.49621 0
M  V30 11156 H 1073.66 -0.834723 1.86689 0
M  V30 11157 H 1071.81 -3.31409 2.00616 0
M  V30 11158 H 1072.23 -3.12579 4.21182 0
M  V30 11159 H 1073.7 -4.50113 3.19535 0
M  V30 11160 H 1074.18 -4.11148 1.54447 0
M  V30 11161 H 1074.79 -3.11957 2.89072 0
M  V30 11162 N 1073.1 -1.28322 -0.914942 0
M  V30 11163 C 1074.35 -1.15578 -1.66642 0
M  V30 11164 C 1074.68 0.295209 -1.91943 0
M  V30 11165 O 1073.95 1.21482 -1.51896 0
M  V30 11166 C 1074.24 -1.9535 -3.02507 0
M  V30 11167 C 1074.09 -3.48504 -2.84367 0
M  V30 11168 C 1075.41 -1.76798 -4.03027 0
M  V30 11169 H 1072.53 -0.421234 -0.604757 0
M  V30 11170 H 1075.17 -1.57625 -1.06087 0
M  V30 11171 H 1073.32 -1.59619 -3.54195 0
M  V30 11172 H 1074.99 -3.94135 -2.39699 0
M  V30 11173 H 1073.24 -3.74198 -2.1945 0
M  V30 11174 H 1073.91 -3.99576 -3.80845 0
M  V30 11175 H 1076.38 -2.07977 -3.60395 0
M  V30 11176 H 1075.26 -2.34987 -4.96057 0
M  V30 11177 H 1075.52 -0.719162 -4.36211 0
M  V30 11178 N 1074.58 1.12322 -1.10551 0
M  V30 11179 C 1075.99 1.35858 -0.837543 0
M  V30 11180 C 1076.19 1.94062 0.54241 0
M  V30 11181 O 1075.25 2.1676 1.29505 0
M  V30 11182 C 1076.56 2.299 -1.9382 0
M  V30 11183 C 1078.11 2.43488 -1.96679 0
M  V30 11184 C 1078.59 3.40846 -3.05922 0
M  V30 11185 N 1080.08 3.48404 -3.05236 0
M  V30 11186 C 1080.81 4.2365 -3.86405 0
M  V30 11187 N 1080.31 5.01951 -4.77512 0
M  V30 11188 N 1082.1 4.19068 -3.74618 0
M  V30 11189 H 1074.25 0.729002 -1.99498 0
M  V30 11190 H 1076.52 0.38339 -0.867016 0
M  V30 11191 H 1076.22 1.94309 -2.9315 0
M  V30 11192 H 1076.1 3.30033 -1.82641 0
M  V30 11193 H 1078.48 2.78359 -0.979813 0
M  V30 11194 H 1078.56 1.43239 -2.11934 0
M  V30 11195 H 1078.21 3.06704 -4.04839 0
M  V30 11196 H 1078.14 4.40927 -2.87907 0
M  V30 11197 H 1080.63 2.92545 -2.39219 0
M  V30 11198 H 1080.94 5.56707 -5.36002 0
M  V30 11199 H 1079.29 5.01143 -4.8154 0
M  V30 11200 H 1082.48 3.5698 -3.02792 0
M  V30 11201 H 1082.65 4.77455 -4.38111 0
M  V30 11202 N 1076.06 0.894434 1.2976 0
M  V30 11203 C 1076.99 0.312806 2.26046 0
M  V30 11204 C 1077.97 -0.572024 1.52206 0
M  V30 11205 O 1079.15 -0.520009 1.81185 0
M  V30 11206 C 1076.28 -0.554624 3.34128 0
M  V30 11207 C 1075.32 0.262168 4.25693 0
M  V30 11208 S 1076.16 1.65656 5.09233 0
M  V30 11209 C 1077.31 0.795914 6.20819 0
M  V30 11210 H 1077.55 1.12895 2.75031 0
M  V30 11211 H 1075.08 0.694446 1.37901 0
M  V30 11212 H 1077.04 -1.04933 3.96862 0
M  V30 11213 H 1075.7 -1.34495 2.83848 0
M  V30 11214 H 1074.89 -0.400216 5.02408 0
M  V30 11215 H 1074.49 0.689829 3.67583 0
M  V30 11216 H 1076.79 0.0169942 6.77498 0
M  V30 11217 H 1077.73 1.53497 6.91263 0
M  V30 11218 H 1078.14 0.35263 5.63398 0
M  V30 11219 N 1077.53 -1.43282 0.656365 0
M  V30 11220 C 1078.78 -2.02075 0.171293 0
M  V30 11221 C 1079.11 -1.51682 -1.21269 0
M  V30 11222 O 1078.39 -0.711243 -1.81029 0
M  V30 11223 C 1078.67 -3.59621 0.185602 0
M  V30 11224 C 1078.52 -4.20239 1.60373 0
M  V30 11225 C 1079.84 -4.37515 -0.476289 0
M  V30 11226 H 1076.96 -0.73424 0.0637185 0
M  V30 11227 H 1079.6 -1.70539 0.837648 0
M  V30 11228 H 1077.75 -3.86619 -0.381804 0
M  V30 11229 H 1079.43 -4.0426 2.22197 0
M  V30 11230 H 1077.67 -3.76769 2.15006 0
M  V30 11231 H 1078.34 -5.29333 1.56557 0
M  V30 11232 H 1080.82 -4.16099 0.00651073 0
M  V30 11233 H 1079.69 -5.47169 -0.435562 0
M  V30 11234 H 1079.95 -4.14003 -1.55093 0
M  V30 11235 N 1079.01 -0.398486 -1.52479 0
M  V30 11236 C 1080.24 0.180557 -2.06111 0
M  V30 11237 C 1080.66 1.39751 -1.26945 0
M  V30 11238 O 1080.01 1.79699 -0.318497 0
M  V30 11239 C 1080.06 0.541573 -3.5742 0
M  V30 11240 O 1079.79 -0.627043 -4.33589 0
M  V30 11241 C 1081.29 1.17549 -4.27431 0
M  V30 11242 H 1078.51 0.0250754 -0.670531 0
M  V30 11243 H 1081.05 -0.566368 -1.96501 0
M  V30 11244 H 1079.21 1.23839 -3.67073 0
M  V30 11245 H 1079.62 -0.328233 -5.23472 0
M  V30 11246 H 1081.09 1.37839 -5.34513 0
M  V30 11247 H 1081.57 2.14553 -3.83228 0
M  V30 11248 H 1082.18 0.51918 -4.22119 0
M  V30 11249 N 1080.49 1.57075 -0.12858 0
M  V30 11250 C 1081.74 1.95134 0.526046 0
M  V30 11251 C 1082.06 1.01337 1.66601 0
M  V30 11252 O 1081.33 0.0714361 1.9577 0
M  V30 11253 H 1079.91 0.720468 0.19732 0
M  V30 11254 H 1082.57 1.93874 -0.199767 0
M  V30 11255 H 1081.67 2.98406 0.914332 0
M  V30 11256 N 1081.97 -0.145205 1.5693 0
M  V30 11257 C 1083.25 -0.88631 1.74367 0
M  V30 11258 C 1083.63 -1.99259 0.697081 0
M  V30 11259 O 1082.97 -2.26732 -0.28368 0
M  V30 11260 C 1083.18 -1.42712 3.18488 0
M  V30 11261 C 1084.53 -1.88982 3.80225 0
M  V30 11262 O 1085.56 -1.5245 3.21928 0
M  V30 11263 O 1084.42 -2.56361 4.8264 0
M  V30 11264 H 1081.51 -0.418979 0.713011 0
M  V30 11265 H 1084.06 -0.130991 1.69194 0
M  V30 11266 H 1082.83 -0.632165 3.8616 0
M  V30 11267 H 1082.45 -2.24589 3.28094 0
M  V30 11268 N 1083.45 -1.52049 -0.414609 0
M  V30 11269 C 1084.4 -1.75603 -1.52533 0
M  V30 11270 C 1085.39 -0.622965 -1.57529 0
M  V30 11271 O 1086.6 -0.804886 -1.61002 0
M  V30 11272 H 1082.97 -0.555222 -0.507181 0
M  V30 11273 H 1084.94 -2.68666 -1.2985 0
M  V30 11274 C 1083.69 -1.9188 -2.89961 0
M  V30 11275 H 1083.01 -2.78483 -2.86857 0
M  V30 11276 H 1084.45 -2.12363 -3.66985 0
M  V30 11277 C 1082.91 -0.684453 -3.29874 0
M  V30 11278 O 1083.44 0.150256 -4.01419 0
M  V30 11279 N 1081.65 -0.521936 -2.85874 0
M  V30 11280 H 1081.2 -1.20229 -2.27822 0
M  V30 11281 H 1081.15 0.302655 -3.1294 0
M  V30 11282 N 1084.93 0.6715 -1.42579 0
M  V30 11283 C 1086.17 1.42731 -1.42516 0
M  V30 11284 C 1086.49 1.95545 -0.0462407 0
M  V30 11285 O 1087.69 2.71391 0.0769798 0
M  V30 11286 C 1086.15 2.58215 -2.50705 0
M  V30 11287 C 1085.76 2.12086 -3.94618 0
M  V30 11288 C 1087.5 3.35705 -2.59813 0
M  V30 11289 C 1085.41 3.24672 -4.9431 0
M  V30 11290 H 1084.34 0.536218 -0.530081 0
M  V30 11291 H 1086.99 0.726655 -1.68499 0
M  V30 11292 H 1085.37 3.30665 -2.17892 0
M  V30 11293 H 1086.55 1.46768 -4.36802 0
M  V30 11294 H 1084.86 1.47526 -3.89391 0
M  V30 11295 H 1087.46 4.1956 -3.31472 0
M  V30 11296 H 1087.8 3.82517 -1.64276 0
M  V30 11297 H 1088.33 2.70326 -2.91836 0
M  V30 11298 H 1085.07 2.82848 -5.91335 0
M  V30 11299 H 1084.59 3.88761 -4.56755 0
M  V30 11300 H 1086.27 3.90088 -5.16179 0
M  V30 11301 N 1086.4 1.28806 0.908124 0
M  V30 11302 C 1087.35 1.13083 2.03261 0
M  V30 11303 C 1088.35 0.0486094 1.6933 0
M  V30 11304 O 1089.55 0.207794 1.78797 0
M  V30 11305 H 1085.93 0.349057 0.666081 0
M  V30 11306 H 1087.9 2.08304 2.13663 0
M  V30 11307 C 1086.65 0.815339 3.38005 0
M  V30 11308 H 1085.97 1.64007 3.64612 0
M  V30 11309 H 1087.41 0.745311 4.17398 0
M  V30 11310 C 1085.87 -0.48113 3.33447 0
M  V30 11311 O 1086.4 -1.50974 3.7225 0
M  V30 11312 N 1084.6 -0.483912 2.86543 0
M  V30 11313 H 1084.15 0.353593 2.55162 0
M  V30 11314 H 1084.11 -1.35138 2.83875 0
M  V30 11315 N 1087.88 -1.11734 1.11145 0
M  V30 11316 C 1089.11 -1.87215 0.880811 0
M  V30 11317 C 1089.52 -1.80016 -0.569195 0
M  V30 11318 O 1088.88 -1.17926 -1.39283 0
M  V30 11319 C 1088.93 -3.36146 1.32998 0
M  V30 11320 O 1088.65 -3.43187 2.72313 0
M  V30 11321 C 1090.15 -4.28542 1.1343 0
M  V30 11322 H 1087.37 -0.592123 0.315645 0
M  V30 11323 H 1089.92 -1.41335 1.478 0
M  V30 11324 H 1088.07 -3.79542 0.776308 0
M  V30 11325 H 1088.49 -4.359 2.91705 0
M  V30 11326 H 1089.96 -5.31295 1.49764 0
M  V30 11327 H 1090.44 -4.39138 0.0735859 0
M  V30 11328 H 1091.04 -3.90935 1.67481 0
M  V30 11329 N 1089.36 -0.901303 -1.29284 0
M  V30 11330 C 1090.32 -0.385081 -2.25942 0
M  V30 11331 C 1091.32 0.481626 -1.53418 0
M  V30 11332 O 1092.51 0.286451 -1.71829 0
M  V30 11333 C 1089.64 0.449319 -3.37926 0
M  V30 11334 H 1090.84 -1.23877 -2.7312 0
M  V30 11335 H 1088.39 -0.679586 -1.40753 0
M  V30 11336 H 1089.13 1.32292 -2.9609 0
M  V30 11337 H 1088.91 -0.171731 -3.91724 0
M  V30 11338 H 1090.4 0.801746 -4.09831 0
M  V30 11339 N 1090.84 1.42931 -0.663954 0
M  V30 11340 C 1092.25 1.56098 -0.332496 0
M  V30 11341 C 1092.45 1.64564 1.16279 0
M  V30 11342 O 1091.51 1.6066 1.94794 0
M  V30 11343 C 1092.82 2.81649 -1.05329 0
M  V30 11344 C 1094.37 2.95408 -1.03457 0
M  V30 11345 C 1094.85 4.23805 -1.73647 0
M  V30 11346 N 1096.34 4.30693 -1.70462 0
M  V30 11347 C 1097.07 5.28833 -2.21637 0
M  V30 11348 N 1096.57 6.33189 -2.81147 0
M  V30 11349 N 1098.36 5.20558 -2.12075 0
M  V30 11350 H 1090.51 1.3568 -1.63416 0
M  V30 11351 H 1092.77 0.652361 -0.687844 0
M  V30 11352 H 1092.48 2.81494 -2.10842 0
M  V30 11353 H 1092.35 3.72208 -0.611626 0
M  V30 11354 H 1094.74 2.95097 0.0121936 0
M  V30 11355 H 1094.82 2.06109 -1.51502 0
M  V30 11356 H 1094.47 4.24876 -2.78285 0
M  V30 11357 H 1094.4 5.12019 -1.2306 0
M  V30 11358 H 1096.89 3.55904 -1.27046 0
M  V30 11359 H 1097.2 7.04411 -3.17844 0
M  V30 11360 H 1095.55 6.33781 -2.85212 0
M  V30 11361 H 1098.74 4.3795 -1.6528 0
M  V30 11362 H 1098.91 5.96881 -2.52264 0
M  V30 11363 N 1092.32 0.406567 1.52266 0
M  V30 11364 C 1093.28 -0.408251 2.25535 0
M  V30 11365 C 1094.28 -0.975795 1.27808 0
M  V30 11366 O 1095.47 -0.855077 1.5177 0
M  V30 11367 C 1092.6 -1.57443 3.02365 0
M  V30 11368 H 1093.79 0.233459 2.9899 0
M  V30 11369 H 1091.35 0.159032 1.55489 0
M  V30 11370 H 1092.08 -2.25308 2.33252 0
M  V30 11371 H 1091.87 -1.17399 3.74112 0
M  V30 11372 H 1093.36 -2.15088 3.57948 0
M  V30 11373 N 1093.79 -1.57004 0.136909 0
M  V30 11374 C 1095.04 -1.94972 -0.51662 0
M  V30 11375 C 1095.36 -1.02367 -1.66674 0
M  V30 11376 O 1096.56 -1.29873 -2.38423 0
M  V30 11377 C 1095.02 -3.4657 -0.970435 0
M  V30 11378 C 1094.63 -4.47741 0.152204 0
M  V30 11379 C 1096.37 -3.93423 -1.59432 0
M  V30 11380 C 1094.28 -5.90537 -0.319315 0
M  V30 11381 H 1093.21 -0.727873 -0.196766 0
M  V30 11382 H 1095.86 -1.82181 0.219637 0
M  V30 11383 H 1094.24 -3.54657 -1.76165 0
M  V30 11384 H 1095.41 -4.5134 0.928925 0
M  V30 11385 H 1093.73 -4.10746 0.683867 0
M  V30 11386 H 1096.33 -4.97539 -1.95856 0
M  V30 11387 H 1096.67 -3.34404 -2.47951 0
M  V30 11388 H 1097.2 -3.8821 -0.868193 0
M  V30 11389 H 1093.94 -6.53352 0.530248 0
M  V30 11390 H 1093.46 -5.90321 -1.06213 0
M  V30 11391 H 1095.14 -6.42346 -0.774662 0
M  V30 11392 N 1095.27 0.136881 -1.57004 0
M  V30 11393 C 1096.24 1.15267 -1.98106 0
M  V30 11394 C 1097.24 1.35305 -0.868856 0
M  V30 11395 O 1098.43 1.32126 -1.13527 0
M  V30 11396 C 1095.56 2.51092 -2.30577 0
M  V30 11397 H 1096.75 0.799821 -2.89038 0
M  V30 11398 H 1094.3 0.380576 -1.51596 0
M  V30 11399 H 1095.04 2.9133 -1.42469 0
M  V30 11400 H 1094.82 2.37906 -3.11678 0
M  V30 11401 H 1096.31 3.24232 -2.63179 0
M  V30 11402 N 1096.75 1.52266 0.40654 0
M  V30 11403 C 1098 1.6568 1.15035 0
M  V30 11404 C 1098.31 0.394135 1.91588 0
M  V30 11405 O 1099.52 0.408113 2.68415 0
M  V30 11406 C 1097.97 2.92725 2.0938 0
M  V30 11407 C 1097.58 4.26108 1.38332 0
M  V30 11408 C 1099.33 3.15502 2.84004 0
M  V30 11409 C 1097.23 5.44275 2.3134 0
M  V30 11410 H 1096.16 0.61719 0.43312 0
M  V30 11411 H 1098.81 1.78755 0.414598 0
M  V30 11412 H 1097.2 2.73355 2.86519 0
M  V30 11413 H 1098.37 4.55971 0.665396 0
M  V30 11414 H 1096.69 4.09454 0.757384 0
M  V30 11415 H 1099.28 4.00964 3.5374 0
M  V30 11416 H 1099.63 2.29842 3.471 0
M  V30 11417 H 1100.16 3.35357 2.13964 0
M  V30 11418 H 1096.9 6.3229 1.72887 0
M  V30 11419 H 1096.42 5.18749 3.01098 0
M  V30 11420 H 1098.1 5.77457 2.91809 0
M  V30 11421 N 1098.23 -0.663929 1.42933 0
M  V30 11422 C 1099.18 -1.77717 1.47259 0
M  V30 11423 C 1100.15 -1.62922 0.323387 0
M  V30 11424 O 1101.33 -1.83319 0.529021 0
M  V30 11425 C 1098.47 -3.15814 1.39124 0
M  V30 11426 C 1097.58 -3.4182 2.64165 0
M  V30 11427 C 1096.72 -4.69705 2.48094 0
M  V30 11428 C 1095.76 -4.88781 3.68456 0
M  V30 11429 N 1094.89 -6.07915 3.51261 0
M  V30 11430 H 1099.73 -1.73355 2.42388 0
M  V30 11431 H 1097.27 -0.846121 1.2033 0
M  V30 11432 H 1099.23 -3.95633 1.32403 0
M  V30 11433 H 1097.86 -3.19274 0.475829 0
M  V30 11434 H 1096.91 -2.56176 2.81208 0
M  V30 11435 H 1098.22 -3.51805 3.53602 0
M  V30 11436 H 1097.38 -5.57632 2.39021 0
M  V30 11437 H 1096.12 -4.62022 1.56164 0
M  V30 11438 H 1095.12 -3.99292 3.7795 0
M  V30 11439 H 1096.35 -4.98301 4.61381 0
M  V30 11440 H 1094.29 -6.01384 2.62057 0
M  V30 11441 H 1094.21 -6.1881 4.34293 0
M  V30 11442 H 1095.48 -6.98492 3.4602 0
M  V30 11443 N 1099.71 -1.29285 -0.901281 0
M  V30 11444 C 1100.95 -1.18431 -1.66594 0
M  V30 11445 C 1101.31 0.260312 -1.90227 0
M  V30 11446 O 1102.51 0.4918 -2.64263 0
M  V30 11447 C 1100.78 -1.97357 -2.97968 0
M  V30 11448 S 1102.34 -2.03019 -3.8901 0
M  V30 11449 H 1099.16 -0.422323 -0.571983 0
M  V30 11450 H 1101.76 -1.63551 -1.07105 0
M  V30 11451 H 1100.47 -3.01459 -2.78479 0
M  V30 11452 H 1100 -1.52836 -3.62498 0
M  V30 11453 H 1102.01 -1.14572 -4.82791 0
M  V30 11454 N 1101.18 1.11143 -1.11736 0
M  V30 11455 C 1102.43 1.82586 -0.866412 0
M  V30 11456 C 1102.75 1.85227 0.609593 0
M  V30 11457 O 1102.02 1.32505 1.44288 0
M  V30 11458 H 1100.6 0.676149 -0.31754 0
M  V30 11459 H 1103.27 1.34516 -1.41037 0
M  V30 11460 H 1102.36 2.8635 -1.24136 0
M  V30 11461 N 1102.66 0.908147 1.28804 0
M  V30 11462 C 1103.91 0.534332 1.94494 0
M  V30 11463 C 1104.22 -0.92552 1.72318 0
M  V30 11464 O 1105.43 -1.40724 2.32183 0
M  V30 11465 C 1103.89 0.904748 3.48342 0
M  V30 11466 C 1103.49 2.38394 3.79305 0
M  V30 11467 C 1105.24 0.601249 4.2022 0
M  V30 11468 C 1103.15 2.69478 5.26437 0
M  V30 11469 H 1102.08 0.196107 0.728051 0
M  V30 11470 H 1104.73 1.1063 1.46401 0
M  V30 11471 H 1103.11 0.261624 3.95135 0
M  V30 11472 H 1104.28 3.07333 3.43341 0
M  V30 11473 H 1102.6 2.65733 3.20586 0
M  V30 11474 H 1105.19 0.810225 5.28526 0
M  V30 11475 H 1105.54 -0.460669 4.13743 0
M  V30 11476 H 1106.07 1.20259 3.79187 0
M  V30 11477 H 1102.81 3.74501 5.37986 0
M  V30 11478 H 1102.33 2.05171 5.63618 0
M  V30 11479 H 1104.01 2.56187 5.94119 0
M  V30 11480 N 1104.14 -1.42577 0.671525 0
M  V30 11481 C 1105.39 -2.00806 0.189663 0
M  V30 11482 C 1105.7 -1.537 -1.20978 0
M  V30 11483 O 1106.91 -2.04325 -1.78784 0
M  V30 11484 C 1105.36 -3.58744 0.288227 0
M  V30 11485 C 1104.97 -4.14839 1.69152 0
M  V30 11486 C 1106.72 -4.24285 -0.13509 0
M  V30 11487 C 1104.62 -5.65131 1.74302 0
M  V30 11488 H 1103.55 -0.751004 0.067146 0
M  V30 11489 H 1106.2 -1.63338 0.83623 0
M  V30 11490 H 1104.59 -3.937 -0.426175 0
M  V30 11491 H 1105.76 -3.91349 2.43274 0
M  V30 11492 H 1104.08 -3.61738 2.0624 0
M  V30 11493 H 1106.67 -5.34573 -0.116709 0
M  V30 11494 H 1107.02 -3.99527 -1.16977 0
M  V30 11495 H 1107.55 -3.94278 0.528191 0
M  V30 11496 H 1104.29 -5.94682 2.75742 0
M  V30 11497 H 1103.81 -5.90621 1.04531 0
M  V30 11498 H 1105.49 -6.29491 1.49498 0
M  V30 11499 N 1105.62 -0.414636 -1.52048 0
M  V30 11500 C 1106.57 0.42561 -2.23992 0
M  V30 11501 C 1107.55 1.00894 -1.25337 0
M  V30 11502 O 1108.74 0.930842 -1.50547 0
M  V30 11503 C 1105.87 1.53874 -3.06884 0
M  V30 11504 C 1104.96 0.965913 -4.12954 0
M  V30 11505 N 1105.35 0.12023 -5.05657 0
M  V30 11506 C 1103.65 1.23586 -4.28535 0
M  V30 11507 C 1104.35 -0.199063 -5.81359 0
M  V30 11508 N 1103.33 0.411505 -5.4204 0
M  V30 11509 H 1107.13 -0.226746 -2.93024 0
M  V30 11510 H 1104.64 -0.225376 -1.60829 0
M  V30 11511 H 1106.64 2.15334 -3.56983 0
M  V30 11512 H 1105.3 2.19366 -2.39392 0
M  V30 11513 H 1106.31 -0.244501 -5.17323 0
M  V30 11514 H 1102.99 1.88995 -3.72273 0
M  V30 11515 H 1104.38 -0.88585 -6.66035 0
M  V30 11516 N 1107.1 1.56929 -0.145233 0
M  V30 11517 C 1108.51 1.82877 0.375884 0
M  V30 11518 C 1108.86 1.06384 1.64854 0
M  V30 11519 O 1107.98 0.30857 2.14189 0
M  V30 11520 C 1108.58 3.31725 0.688744 0
M  V30 11521 C 1107.14 3.58261 1.15439 0
M  V30 11522 C 1106.28 2.76737 0.176565 0
M  V30 11523 H 1109.24 1.54328 -0.36996 0
M  V30 11524 H 1109.26 3.47784 1.54359 0
M  V30 11525 H 1108.77 3.87371 -0.237694 0
M  V30 11526 H 1106.87 3.08 2.09683 0
M  V30 11527 H 1106.98 4.66732 1.08158 0
M  V30 11528 H 1105.35 2.45761 0.668843 0
M  V30 11529 H 1106.13 3.35154 -0.743432 0
M  V30 11530 N 1108.58 -0.128553 1.57075 0
M  V30 11531 C 1109.82 -0.836355 1.83982 0
M  V30 11532 C 1110.14 -1.80862 0.728971 0
M  V30 11533 O 1109.41 -1.94326 -0.247859 0
M  V30 11534 H 1107.99 -0.31185 0.678792 0
M  V30 11535 H 1110.66 -0.118153 1.94542 0
M  V30 11536 H 1109.75 -1.38741 2.79567 0
M  V30 11537 N 1110.05 -1.5248 -0.398459 0
M  V30 11538 C 1110.96 -1.79492 -1.51062 0
M  V30 11539 C 1111.98 -0.681101 -1.60116 0
M  V30 11540 O 1113.16 -0.967671 -1.7663 0
M  V30 11541 C 1110.22 -1.94958 -2.86692 0
M  V30 11542 C 1109.28 -3.1887 -2.87438 0
M  V30 11543 C 1108.51 -3.33588 -4.16599 0
M  V30 11544 O 1108.74 -2.53327 -5.11059 0
M  V30 11545 O 1107.67 -4.26795 -4.24416 0
M  V30 11546 H 1111.5 -2.73913 -1.31169 0
M  V30 11547 H 1109.08 -1.37455 -0.585372 0
M  V30 11548 H 1110.96 -2.06891 -3.67116 0
M  V30 11549 H 1109.64 -1.03726 -3.06631 0
M  V30 11550 H 1108.55 -3.12386 -2.0583 0
M  V30 11551 H 1109.88 -4.09917 -2.7245 0
M  V30 11552 N 1111.53 0.65634 -1.43283 0
M  V30 11553 C 1112.81 1.41339 -1.35213 0
M  V30 11554 C 1113.19 2.111 0.00158494 0
M  V30 11555 O 1112.54 2.0457 1.018 0
M  V30 11556 C 1112.75 2.40066 -2.53317 0
M  V30 11557 C 1114.09 3.04159 -2.96264 0
M  V30 11558 O 1115.12 2.50393 -2.53341 0
M  V30 11559 O 1113.98 4.01633 -3.70612 0
M  V30 11560 H 1111.07 0.631325 -0.534189 0
M  V30 11561 H 1113.62 0.68351 -1.55326 0
M  V30 11562 H 1112.39 1.87444 -3.43483 0
M  V30 11563 H 1112.01 3.20509 -2.35287 0
M  V30 11564 N 1113.01 1.29761 0.894412 0
M  V30 11565 C 1114.26 1.18039 1.64539 0
M  V30 11566 C 1114.58 -0.26697 1.92659 0
M  V30 11567 O 1113.84 -1.20865 1.53916 0
M  V30 11568 C 1114.14 1.94458 2.99868 0
M  V30 11569 C 1113.8 3.44143 2.91336 0
M  V30 11570 C 1112.47 3.84963 2.88716 0
M  V30 11571 C 1114.82 4.39503 2.80154 0
M  V30 11572 C 1112.15 5.19451 2.72741 0
M  V30 11573 C 1114.5 5.74088 2.65718 0
M  V30 11574 C 1113.16 6.14159 2.61467 0
M  V30 11575 H 1112.43 0.431936 0.60209 0
M  V30 11576 H 1115.08 1.60758 1.04063 0
M  V30 11577 H 1113.38 1.44346 3.64241 0
M  V30 11578 H 1115.08 1.82788 3.56917 0
M  V30 11579 H 1111.67 3.11699 2.9418 0
M  V30 11580 H 1115.86 4.08915 2.81251 0
M  V30 11581 H 1111.11 5.49602 2.67858 0
M  V30 11582 H 1115.29 6.47625 2.56038 0
M  V30 11583 H 1112.91 7.18317 2.48847 0
M  V30 11584 N 1114.49 -1.10549 1.12324 0
M  V30 11585 C 1115.42 -2.18911 0.812416 0
M  V30 11586 C 1116.4 -1.68628 -0.22327 0
M  V30 11587 O 1117.58 -1.94015 -0.0847184 0
M  V30 11588 C 1114.71 -3.46288 0.264947 0
M  V30 11589 C 1113.67 -4.09838 1.23356 0
M  V30 11590 C 1112.99 -5.31901 0.546374 0
M  V30 11591 C 1114.29 -4.53686 2.58778 0
M  V30 11592 H 1115.99 -2.45169 1.71851 0
M  V30 11593 H 1113.53 -1.17834 0.827715 0
M  V30 11594 H 1115.49 -4.21385 0.0352364 0
M  V30 11595 H 1114.21 -3.19517 -0.676479 0
M  V30 11596 H 1112.87 -3.36746 1.44906 0
M  V30 11597 H 1112.52 -5.01406 -0.400157 0
M  V30 11598 H 1112.22 -5.75372 1.19249 0
M  V30 11599 H 1113.74 -6.09731 0.325673 0
M  V30 11600 H 1115.16 -5.20063 2.41263 0
M  V30 11601 H 1113.55 -5.08003 3.19457 0
M  V30 11602 H 1114.62 -3.66665 3.17309 0
M  V30 11603 N 1115.97 -0.914965 -1.28321 0
M  V30 11604 C 1117.21 -0.555865 -1.96696 0
M  V30 11605 C 1117.57 0.8842 -1.70429 0
M  V30 11606 O 1118.77 1.35094 -2.32386 0
M  V30 11607 C 1117.04 -0.857942 -3.4695 0
M  V30 11608 S 1118.6 -0.605441 -4.34603 0
M  V30 11609 H 1115.42 -0.20564 -0.680612 0
M  V30 11610 H 1118.02 -1.18068 -1.55821 0
M  V30 11611 H 1116.72 -1.90394 -3.63563 0
M  V30 11612 H 1116.26 -0.221831 -3.92774 0
M  V30 11613 H 1118.27 0.542657 -4.93224 0
M  V30 11614 N 1117.44 1.42219 -0.679077 0
M  V30 11615 C 1118.37 2.33493 -0.0174528 0
M  V30 11616 C 1119.35 1.50915 0.78477 0
M  V30 11617 O 1120.54 1.79504 0.741065 0
M  V30 11618 C 1117.67 3.34576 0.931463 0
M  V30 11619 C 1116.62 4.2734 0.237527 0
M  V30 11620 C 1115.95 5.18664 1.29967 0
M  V30 11621 C 1117.25 5.14729 -0.886082 0
M  V30 11622 H 1118.94 2.89068 -0.779748 0
M  V30 11623 H 1116.49 1.38993 -0.376419 0
M  V30 11624 H 1118.44 3.97343 1.40343 0
M  V30 11625 H 1117.17 2.77315 1.72523 0
M  V30 11626 H 1115.83 3.65973 -0.214245 0
M  V30 11627 H 1115.47 4.57727 2.08554 0
M  V30 11628 H 1115.17 5.81558 0.840463 0
M  V30 11629 H 1116.7 5.84308 1.77249 0
M  V30 11630 H 1118.11 5.71158 -0.495141 0
M  V30 11631 H 1116.51 5.86478 -1.27135 0
M  V30 11632 H 1117.58 4.52874 -1.733 0
M  V30 11633 N 1118.92 0.422693 1.51826 0
M  V30 11634 C 1119.83 -0.40261 2.31119 0
M  V30 11635 C 1120.85 -1.04117 1.39412 0
M  V30 11636 O 1122.02 -1.03973 1.72486 0
M  V30 11637 C 1119.09 -1.49699 3.12716 0
M  V30 11638 C 1118.15 -0.880088 4.20182 0
M  V30 11639 C 1117.38 -1.92232 4.97878 0
M  V30 11640 O 1117.61 -3.14246 4.76031 0
M  V30 11641 O 1116.54 -1.521 5.82365 0
M  V30 11642 H 1120.37 0.244308 3.02716 0
M  V30 11643 H 1117.95 0.185569 1.48243 0
M  V30 11644 H 1119.83 -2.13202 3.63487 0
M  V30 11645 H 1118.51 -2.12826 2.43899 0
M  V30 11646 H 1117.41 -0.207404 3.73525 0
M  V30 11647 H 1118.75 -0.292535 4.9133 0
M  V30 11648 N 1120.4 -1.5685 0.153553 0
M  V30 11649 C 1121.65 -1.95946 -0.494936 0
M  V30 11650 C 1121.97 -1.03975 -1.64967 0
M  V30 11651 O 1121.24 -0.102572 -1.95631 0
M  V30 11652 H 1119.82 -0.723516 -0.185833 0
M  V30 11653 H 1122.48 -1.93531 0.230585 0
M  V30 11654 H 1121.58 -2.99823 -0.866743 0
M  V30 11655 N 1121.88 0.120221 -1.57141 0
M  V30 11656 C 1122.82 1.14751 -2.00252 0
M  V30 11657 C 1123.79 1.41217 -0.874462 0
M  V30 11658 O 1124.98 1.53104 -1.13859 0
M  V30 11659 C 1122.12 2.46923 -2.41087 0
M  V30 11660 C 1121.23 2.27403 -3.67303 0
M  V30 11661 C 1120.37 3.52797 -3.97125 0
M  V30 11662 C 1119.41 3.28429 -5.16528 0
M  V30 11663 N 1118.54 4.46022 -5.42226 0
M  V30 11664 H 1123.38 0.772884 -2.87803 0
M  V30 11665 H 1120.92 0.370137 -1.42367 0
M  V30 11666 H 1122.88 3.24025 -2.62799 0
M  V30 11667 H 1121.51 2.82281 -1.5658 0
M  V30 11668 H 1120.56 1.41224 -3.53214 0
M  V30 11669 H 1121.87 2.05373 -4.54558 0
M  V30 11670 H 1121.03 4.38318 -4.19479 0
M  V30 11671 H 1119.77 3.77857 -3.08343 0
M  V30 11672 H 1118.77 2.41299 -4.94019 0
M  V30 11673 H 1120 3.0474 -6.06886 0
M  V30 11674 H 1117.94 4.71205 -4.56401 0
M  V30 11675 H 1117.86 4.27092 -6.23802 0
M  V30 11676 H 1119.13 5.3268 -5.69098 0
M  V30 11677 N 1123.36 1.52689 0.390367 0
M  V30 11678 C 1124.27 1.8029 1.50108 0
M  V30 11679 C 1125.28 0.689582 1.59752 0
M  V30 11680 O 1126.46 0.977024 1.76114 0
M  V30 11681 C 1123.52 1.96475 2.85654 0
M  V30 11682 C 1122.58 3.2039 2.85743 0
M  V30 11683 C 1121.82 3.35793 4.14824 0
M  V30 11684 O 1122.04 2.56033 5.09709 0
M  V30 11685 O 1120.97 4.2904 4.22147 0
M  V30 11686 H 1124.8 2.74605 1.29715 0
M  V30 11687 H 1122.39 1.37763 0.578074 0
M  V30 11688 H 1124.27 2.08835 3.66013 0
M  V30 11689 H 1122.94 1.05351 3.06077 0
M  V30 11690 H 1121.85 3.13473 2.0417 0
M  V30 11691 H 1123.18 4.11356 2.70272 0
M  V30 11692 N 1124.83 -0.648732 1.43629 0
M  V30 11693 C 1126.08 -1.40857 1.45483 0
M  V30 11694 C 1126.41 -1.94332 0.0807963 0
M  V30 11695 O 1125.66 -1.72999 -0.914875 0
M  V30 11696 C 1125.96 -2.60394 2.44806 0
M  V30 11697 C 1125.63 -2.25311 3.90571 0
M  V30 11698 C 1124.29 -2.15456 4.3027 0
M  V30 11699 C 1126.64 -1.97307 4.8241 0
M  V30 11700 C 1123.97 -1.75759 5.59755 0
M  V30 11701 C 1126.32 -1.59108 6.12264 0
M  V30 11702 C 1124.99 -1.47781 6.50936 0
M  V30 11703 H 1124.26 -0.515434 0.532362 0
M  V30 11704 H 1126.9 -0.737339 1.76736 0
M  V30 11705 H 1125.21 -3.3267 2.06973 0
M  V30 11706 H 1126.91 -3.18609 2.43494 0
M  V30 11707 H 1123.5 -2.33894 3.59154 0
M  V30 11708 H 1127.68 -2.0384 4.52507 0
M  V30 11709 H 1122.94 -1.65579 5.88552 0
M  V30 11710 H 1127.11 -1.36472 6.82897 0
M  V30 11711 H 1124.74 -1.16792 7.51175 0
M  V30 11712 N 1126.31 -1.30234 -0.887518 0
M  V30 11713 C 1127.26 -1.16302 -2.01436 0
M  V30 11714 C 1128.25 -0.0755422 -1.69231 0
M  V30 11715 O 1129.46 -0.236213 -1.78443 0
M  V30 11716 H 1125.84 -0.35961 -0.660443 0
M  V30 11717 H 1127.81 -2.11677 -2.10322 0
M  V30 11718 C 1126.56 -0.869009 -3.36665 0
M  V30 11719 H 1125.88 -1.69787 -3.61956 0
M  V30 11720 H 1127.32 -0.811621 -4.16159 0
M  V30 11721 C 1125.78 0.428021 -3.3417 0
M  V30 11722 O 1126.31 1.45033 -3.74604 0
M  V30 11723 N 1124.51 0.438264 -2.87276 0
M  V30 11724 H 1124.06 -0.394142 -2.54567 0
M  V30 11725 H 1124.02 1.30604 -2.85989 0
M  V30 11726 N 1127.79 1.09952 -1.12909 0
M  V30 11727 C 1129.21 1.34051 -0.866172 0
M  V30 11728 C 1129.41 1.95169 0.501125 0
M  V30 11729 O 1128.46 2.19458 1.24878 0
M  V30 11730 C 1129.78 2.25738 -1.98653 0
M  V30 11731 C 1131.32 2.39261 -2.01799 0
M  V30 11732 C 1131.8 3.3428 -3.13083 0
M  V30 11733 N 1133.29 3.41851 -3.12558 0
M  V30 11734 C 1134.02 4.15358 -3.95304 0
M  V30 11735 N 1133.52 4.91709 -4.88051 0
M  V30 11736 N 1135.31 4.11027 -3.83423 0
M  V30 11737 H 1127.46 0.686521 -2.00999 0
M  V30 11738 H 1129.73 0.364913 -0.874953 0
M  V30 11739 H 1129.43 1.88048 -2.97205 0
M  V30 11740 H 1129.31 3.26085 -1.89601 0
M  V30 11741 H 1131.69 2.76218 -1.03864 0
M  V30 11742 H 1131.78 1.38712 -2.14925 0
M  V30 11743 H 1131.42 2.98048 -4.11254 0
M  V30 11744 H 1131.35 4.34721 -2.97195 0
M  V30 11745 H 1133.84 2.87405 -2.45371 0
M  V30 11746 H 1134.15 5.45212 -5.47689 0
M  V30 11747 H 1132.5 4.90816 -4.92061 0
M  V30 11748 H 1135.69 3.50477 -3.10296 0
M  V30 11749 H 1135.86 4.68054 -4.4814 0
M  V30 11750 N 1129.27 0.921757 1.27833 0
M  V30 11751 C 1130.68 0.621102 1.47019 0
M  V30 11752 C 1130.88 -0.831338 1.83551 0
M  V30 11753 O 1129.94 -1.60974 1.94534 0
M  V30 11754 C 1131.25 1.56588 2.56712 0
M  V30 11755 C 1132.8 1.57346 2.70576 0
M  V30 11756 C 1133.28 2.50505 3.8342 0
M  V30 11757 N 1134.77 2.48678 3.90786 0
M  V30 11758 C 1135.5 3.17454 4.77505 0
M  V30 11759 N 1135 3.95588 5.68755 0
M  V30 11760 N 1136.79 3.06501 4.71183 0
M  V30 11761 H 1128.94 1.86085 1.02403 0
M  V30 11762 H 1131.21 0.798595 0.510833 0
M  V30 11763 H 1130.91 2.60175 2.36647 0
M  V30 11764 H 1130.79 1.30305 3.53978 0
M  V30 11765 H 1133.17 0.544919 2.90025 0
M  V30 11766 H 1133.25 1.87675 1.73815 0
M  V30 11767 H 1132.9 3.53466 3.64725 0
M  V30 11768 H 1132.83 2.17474 4.79596 0
M  V30 11769 H 1135.32 1.91928 3.25534 0
M  V30 11770 H 1135.63 4.45066 6.31772 0
M  V30 11771 H 1133.98 3.99692 5.6857 0
M  V30 11772 H 1137.17 2.44958 3.9889 0
M  V30 11773 H 1137.34 3.60372 5.3855 0
M  V30 11774 N 1130.75 -1.41857 0.686609 0
M  V30 11775 C 1132 -2.00594 0.21095 0
M  V30 11776 C 1132.31 -1.54974 -1.19341 0
M  V30 11777 O 1133.51 -2.0621 -1.76607 0
M  V30 11778 C 1131.97 -3.58418 0.326261 0
M  V30 11779 C 1131.58 -4.13022 1.73542 0
M  V30 11780 C 1133.32 -4.24404 -0.0900816 0
M  V30 11781 C 1131.23 -5.6325 1.80287 0
M  V30 11782 H 1130.16 -0.75025 0.0751077 0
M  V30 11783 H 1132.81 -1.62442 0.853508 0
M  V30 11784 H 1131.19 -3.9413 -0.384394 0
M  V30 11785 H 1132.37 -3.88747 2.47411 0
M  V30 11786 H 1130.68 -3.5953 2.10065 0
M  V30 11787 H 1133.28 -5.34666 -0.060004 0
M  V30 11788 H 1133.62 -4.00745 -1.12733 0
M  V30 11789 H 1134.15 -3.93695 0.569979 0
M  V30 11790 H 1130.89 -5.91724 2.82034 0
M  V30 11791 H 1130.41 -5.89479 1.1079 0
M  V30 11792 H 1132.09 -6.2787 1.56167 0
M  V30 11793 N 1132.22 -0.430739 -1.51599 0
M  V30 11794 C 1133.64 -0.0826902 -1.59386 0
M  V30 11795 C 1133.84 1.40729 -1.44214 0
M  V30 11796 O 1132.9 2.1765 -1.28002 0
M  V30 11797 C 1134.21 -0.59691 -2.94716 0
M  V30 11798 C 1135.76 -0.556772 -3.08008 0
M  V30 11799 C 1136.23 -1.04786 -4.45852 0
M  V30 11800 N 1137.72 -1.00557 -4.52153 0
M  V30 11801 C 1138.46 -1.35649 -5.57124 0
M  V30 11802 N 1137.95 -1.77994 -6.69545 0
M  V30 11803 N 1139.75 -1.27508 -5.47447 0
M  V30 11804 H 1131.9 -1.40027 -1.59707 0
M  V30 11805 H 1134.16 -0.576606 -0.752482 0
M  V30 11806 H 1133.87 -1.63914 -3.11167 0
M  V30 11807 H 1133.74 -0.0182342 -3.77196 0
M  V30 11808 H 1136.13 0.476457 -2.91228 0
M  V30 11809 H 1136.21 -1.17177 -2.27383 0
M  V30 11810 H 1135.85 -2.07952 -4.63377 0
M  V30 11811 H 1135.78 -0.409461 -5.25006 0
M  V30 11812 H 1138.27 -0.694518 -3.71463 0
M  V30 11813 H 1138.59 -2.03026 -7.45654 0
M  V30 11814 H 1136.93 -1.81916 -6.70769 0
M  V30 11815 H 1140.12 -0.942969 -4.58504 0
M  V30 11816 H 1140.3 -1.55185 -6.29143 0
M  V30 11817 N 1133.7 1.56767 -0.161869 0
M  V30 11818 C 1134.65 2.18807 0.789074 0
M  V30 11819 C 1135.64 1.14934 1.24445 0
M  V30 11820 O 1136.85 1.33154 1.2112 0
M  V30 11821 H 1133.23 0.700808 0.272713 0
M  V30 11822 H 1135.2 2.97419 0.241766 0
M  V30 11823 C 1133.95 2.83568 2.01207 0
M  V30 11824 H 1133.27 3.63219 1.67068 0
M  V30 11825 H 1134.71 3.3046 2.65654 0
M  V30 11826 C 1133.17 1.82846 2.82964 0
M  V30 11827 O 1133.7 1.30809 3.79805 0
M  V30 11828 N 1131.9 1.51815 2.47791 0
M  V30 11829 H 1131.45 1.94325 1.69103 0
M  V30 11830 H 1131.41 0.846742 3.02783 0
M  V30 11831 N 1135.18 -0.111886 1.57202 0
M  V30 11832 C 1136.09 -1.1556 2.04165 0
M  V30 11833 C 1137.11 -1.44898 0.963354 0
M  V30 11834 O 1138.28 -1.55873 1.27536 0
M  V30 11835 C 1135.35 -2.46048 2.44256 0
M  V30 11836 C 1134.41 -2.24043 3.66201 0
M  V30 11837 C 1133.64 -3.4831 4.04371 0
M  V30 11838 O 1133.86 -4.55895 3.42806 0
M  V30 11839 O 1132.8 -3.38891 4.9743 0
M  V30 11840 H 1136.62 -0.786778 2.93332 0
M  V30 11841 H 1134.21 -0.323196 1.45862 0
M  V30 11842 H 1136.09 -3.22916 2.70745 0
M  V30 11843 H 1134.77 -2.8239 1.58233 0
M  V30 11844 H 1133.67 -1.4501 3.44852 0
M  V30 11845 H 1135.01 -1.92602 4.52952 0
M  V30 11846 N 1136.66 -1.52894 -0.382264 0
M  V30 11847 C 1137.61 -1.78151 -1.46734 0
M  V30 11848 C 1138.58 -0.625034 -1.53891 0
M  V30 11849 O 1139.76 -0.865467 -1.70042 0
M  V30 11850 C 1136.9 -1.96223 -2.83885 0
M  V30 11851 C 1136.01 -3.23925 -2.85826 0
M  V30 11852 C 1135.15 -3.32277 -4.14446 0
M  V30 11853 C 1134.19 -4.54076 -4.10465 0
M  V30 11854 N 1133.32 -4.59672 -5.30703 0
M  V30 11855 H 1138.16 -2.70748 -1.24497 0
M  V30 11856 H 1135.7 -1.34135 -0.603838 0
M  V30 11857 H 1137.66 -2.04686 -3.63537 0
M  V30 11858 H 1136.29 -1.0698 -3.04557 0
M  V30 11859 H 1135.34 -3.245 -1.98505 0
M  V30 11860 H 1136.65 -4.1364 -2.78754 0
M  V30 11861 H 1135.81 -3.3996 -5.02506 0
M  V30 11862 H 1134.55 -2.40548 -4.2425 0
M  V30 11863 H 1133.55 -4.46511 -3.20793 0
M  V30 11864 H 1134.78 -5.47128 -4.02278 0
M  V30 11865 H 1132.72 -3.70838 -5.41124 0
M  V30 11866 H 1132.64 -5.43268 -5.25734 0
M  V30 11867 H 1133.91 -4.71618 -6.20642 0
M  V30 11868 N 1138.14 0.641106 -1.43971 0
M  V30 11869 C 1139.39 1.39807 -1.4594 0
M  V30 11870 C 1139.71 1.94795 -0.0893874 0
M  V30 11871 O 1138.98 1.75175 0.876962 0
M  V30 11872 H 1137.56 0.518908 -0.537349 0
M  V30 11873 H 1140.22 0.755278 -1.79671 0
M  V30 11874 H 1139.31 2.23439 -2.17903 0
M  V30 11875 N 1139.62 1.30703 0.880598 0
M  V30 11876 C 1140.53 1.19389 2.01949 0
M  V30 11877 C 1141.54 0.112868 1.73634 0
M  V30 11878 O 1142.72 0.328643 1.98701 0
M  V30 11879 C 1139.78 0.891004 3.35055 0
M  V30 11880 C 1138.84 2.05784 3.76764 0
M  V30 11881 C 1138.08 1.76931 5.03519 0
M  V30 11882 O 1138.3 0.699326 5.66097 0
M  V30 11883 O 1137.23 2.623 5.4174 0
M  V30 11884 H 1141.06 2.15073 2.14423 0
M  V30 11885 H 1138.64 1.10339 1.00726 0
M  V30 11886 H 1140.53 0.737476 4.14897 0
M  V30 11887 H 1139.2 -0.0358909 3.2368 0
M  V30 11888 H 1138.11 2.26672 2.97608 0
M  V30 11889 H 1139.44 2.96661 3.9275 0
M  V30 11890 N 1141.09 -1.09351 1.1349 0
M  V30 11891 C 1142.34 -1.80915 0.89177 0
M  V30 11892 C 1142.66 -1.86688 -0.5837 0
M  V30 11893 O 1143.86 -2.54568 -0.943788 0
M  V30 11894 C 1142.32 -3.25009 1.54587 0
M  V30 11895 C 1141.93 -3.27501 3.05691 0
M  V30 11896 C 1143.67 -4.01323 1.38346 0
M  V30 11897 C 1141.58 -4.66123 3.63983 0
M  V30 11898 H 1140.51 -0.677961 0.329978 0
M  V30 11899 H 1143.16 -1.22893 1.3627 0
M  V30 11900 H 1141.54 -3.83098 1.0026 0
M  V30 11901 H 1142.71 -2.79174 3.66604 0
M  V30 11902 H 1141.03 -2.64677 3.21457 0
M  V30 11903 H 1143.63 -5.03739 1.79307 0
M  V30 11904 H 1143.97 -4.15003 0.328404 0
M  V30 11905 H 1144.5 -3.49679 1.89656 0
M  V30 11906 H 1141.24 -4.57646 4.69298 0
M  V30 11907 H 1140.76 -5.14772 3.07848 0
M  V30 11908 H 1142.44 -5.35097 3.63703 0
M  V30 11909 N 1142.57 -0.928524 -1.27343 0
M  V30 11910 C 1143.48 -0.433901 -2.30553 0
M  V30 11911 C 1144.5 0.485832 -1.6708 0
M  V30 11912 O 1145.67 0.36844 -1.98001 0
M  V30 11913 C 1142.74 0.304617 -3.45359 0
M  V30 11914 C 1141.8 -0.650131 -4.24349 0
M  V30 11915 C 1141.03 0.0532372 -5.33673 0
M  V30 11916 O 1141.26 1.27246 -5.56026 0
M  V30 11917 O 1140.19 -0.619009 -5.98709 0
M  V30 11918 H 1144.02 -1.2909 -2.74899 0
M  V30 11919 H 1141.6 -0.693903 -1.32308 0
M  V30 11920 H 1143.48 0.721137 -4.15184 0
M  V30 11921 H 1142.16 1.13721 -3.03066 0
M  V30 11922 H 1141.06 -1.11635 -3.57055 0
M  V30 11923 H 1142.4 -1.44996 -4.70358 0
M  V30 11924 N 1144.05 1.41491 -0.694123 0
M  V30 11925 C 1144.98 2.29197 0.0112742 0
M  V30 11926 C 1145.99 1.44708 0.745877 0
M  V30 11927 O 1147.18 1.68227 0.596821 0
M  V30 11928 C 1144.28 3.22547 1.04004 0
M  V30 11929 C 1143.46 4.35787 0.375347 0
M  V30 11930 C 1142.52 5.09722 1.30652 0
M  V30 11931 O 1141.54 5.63558 0.799459 0
M  V30 11932 N 1142.74 5.1705 2.63893 0
M  V30 11933 H 1145.51 2.90377 -0.741705 0
M  V30 11934 H 1143.07 1.52628 -0.540039 0
M  V30 11935 H 1145.06 3.68878 1.66468 0
M  V30 11936 H 1143.63 2.62685 1.69456 0
M  V30 11937 H 1142.85 3.91857 -0.429145 0
M  V30 11938 H 1144.14 5.08726 -0.0869041 0
M  V30 11939 H 1143.54 4.74756 3.07609 0
M  V30 11940 H 1142.09 5.66962 3.21555 0
M  V30 11941 N 1145.53 0.438773 1.51369 0
M  V30 11942 C 1146.44 -0.378074 2.31534 0
M  V30 11943 C 1147.45 -1.02632 1.40508 0
M  V30 11944 O 1148.63 -1.02138 1.73579 0
M  V30 11945 C 1145.69 -1.46374 3.14286 0
M  V30 11946 C 1144.76 -0.835473 4.21092 0
M  V30 11947 C 1143.99 -1.86941 4.99889 0
M  V30 11948 O 1144.21 -3.0918 4.79337 0
M  V30 11949 O 1143.15 -1.45914 5.83946 0
M  V30 11950 H 1146.97 0.276401 3.0244 0
M  V30 11951 H 1144.56 0.201281 1.48038 0
M  V30 11952 H 1146.44 -2.09335 3.65728 0
M  V30 11953 H 1145.11 -2.10227 2.46143 0
M  V30 11954 H 1144.02 -0.167775 3.73724 0
M  V30 11955 H 1145.35 -0.240406 4.91613 0
M  V30 11956 N 1147.01 -1.56678 0.170181 0
M  V30 11957 C 1148.42 -1.58512 -0.185999 0
M  V30 11958 C 1148.62 -1.18548 -1.62937 0
M  V30 11959 O 1147.68 -0.896554 -2.36047 0
M  V30 11960 C 1148.99 -3.00554 0.0937842 0
M  V30 11961 C 1150.54 -3.12984 0.0319057 0
M  V30 11962 C 1151.01 -4.57115 0.284664 0
M  V30 11963 N 1152.5 -4.62617 0.2324 0
M  V30 11964 C 1153.24 -5.71988 0.40216 0
M  V30 11965 N 1152.74 -6.89921 0.630915 0
M  V30 11966 N 1154.53 -5.61082 0.338144 0
M  V30 11967 H 1146.68 -1.80944 1.11235 0
M  V30 11968 H 1148.94 -0.838586 0.442128 0
M  V30 11969 H 1148.65 -3.34265 1.09362 0
M  V30 11970 H 1148.52 -3.72151 -0.615118 0
M  V30 11971 H 1150.91 -2.791 -0.958502 0
M  V30 11972 H 1150.99 -2.43825 0.773501 0
M  V30 11973 H 1150.63 -4.91707 1.27227 0
M  V30 11974 H 1150.56 -5.2443 -0.477529 0
M  V30 11975 H 1153.06 -3.7785 0.0611933 0
M  V30 11976 H 1153.37 -7.69153 0.749931 0
M  V30 11977 H 1151.71 -6.91787 0.667516 0
M  V30 11978 H 1154.9 -4.67826 0.16003 0
M  V30 11979 H 1155.08 -6.46265 0.473872 0
M  V30 11980 N 1148.48 0.103547 -1.57259 0
M  V30 11981 C 1149.73 0.807231 -1.84842 0
M  V30 11982 C 1150.05 1.80308 -0.758181 0
M  V30 11983 O 1151.25 2.55406 -0.920877 0
M  V30 11984 C 1149.71 1.4864 -3.27771 0
M  V30 11985 C 1149.32 0.53075 -4.44845 0
M  V30 11986 C 1151.06 2.17431 -3.64587 0
M  V30 11987 C 1148.97 1.21403 -5.78805 0
M  V30 11988 H 1147.9 0.305212 -0.689465 0
M  V30 11989 H 1150.55 0.0600855 -1.83402 0
M  V30 11990 H 1148.93 2.28071 -3.23728 0
M  V30 11991 H 1150.1 -0.231455 -4.60218 0
M  V30 11992 H 1148.42 -0.0510078 -4.16369 0
M  V30 11993 H 1151.02 2.6927 -4.6195 0
M  V30 11994 H 1151.36 2.9594 -2.92789 0
M  V30 11995 H 1151.89 1.4487 -3.70483 0
M  V30 11996 H 1148.63 0.469918 -6.53813 0
M  V30 11997 H 1148.15 1.94787 -5.6729 0
M  V30 11998 H 1149.83 1.74289 -6.23083 0
M  V30 11999 N 1149.96 1.53094 0.37415 0
M  V30 12000 C 1151.24 1.59456 1.13283 0
M  V30 12001 C 1151.62 0.396821 2.07337 0
M  V30 12002 O 1150.97 -0.613659 2.20106 0
M  V30 12003 C 1151.18 2.94069 1.87948 0
M  V30 12004 C 1152.52 3.4834 2.42785 0
M  V30 12005 O 1153.55 2.96042 1.98085 0
M  V30 12006 O 1152.41 4.39747 3.24477 0
M  V30 12007 H 1149.5 0.643731 0.519171 0
M  V30 12008 H 1152.05 1.65434 0.378105 0
M  V30 12009 H 1150.82 3.72685 1.19255 0
M  V30 12010 H 1150.44 2.91544 2.70348 0
M  V30 12011 N 1151.44 -0.633461 1.44309 0
M  V30 12012 C 1152.39 -1.74554 1.50995 0
M  V30 12013 C 1153.36 -1.62199 0.357873 0
M  V30 12014 O 1154.54 -1.82156 0.567787 0
M  V30 12015 C 1151.68 -3.12792 1.45791 0
M  V30 12016 C 1150.79 -3.3614 2.71356 0
M  V30 12017 C 1149.93 -4.64337 2.58002 0
M  V30 12018 C 1148.97 -4.80855 3.78741 0
M  V30 12019 N 1148.11 -6.00327 3.64077 0
M  V30 12020 H 1152.95 -1.68174 2.46011 0
M  V30 12021 H 1150.48 -0.820407 1.22097 0
M  V30 12022 H 1152.44 -3.92735 1.40765 0
M  V30 12023 H 1151.07 -3.18193 0.543445 0
M  V30 12024 H 1150.12 -2.50154 2.86579 0
M  V30 12025 H 1151.43 -3.44226 3.60985 0
M  V30 12026 H 1150.59 -5.52437 2.50795 0
M  V30 12027 H 1149.33 -4.58605 1.65929 0
M  V30 12028 H 1148.33 -3.91185 3.86334 0
M  V30 12029 H 1149.56 -4.88403 4.71847 0
M  V30 12030 H 1147.5 -5.9569 2.74754 0
M  V30 12031 H 1147.42 -6.09459 4.47321 0
M  V30 12032 H 1148.69 -6.90995 3.60758 0
M  V30 12033 N 1152.92 -1.31168 -0.873655 0
M  V30 12034 C 1154.17 -1.20003 -1.62118 0
M  V30 12035 C 1154.48 0.241505 -1.94103 0
M  V30 12036 O 1155.69 0.474801 -2.67316 0
M  V30 12037 C 1154.14 -2.10055 -2.92241 0
M  V30 12038 C 1153.75 -3.59183 -2.67752 0
M  V30 12039 C 1155.49 -2.07681 -3.70228 0
M  V30 12040 C 1153.4 -4.41255 -3.93761 0
M  V30 12041 H 1152.33 -0.445564 -0.608267 0
M  V30 12042 H 1154.98 -1.55997 -0.966287 0
M  V30 12043 H 1153.36 -1.66956 -3.59085 0
M  V30 12044 H 1154.54 -4.10504 -2.09339 0
M  V30 12045 H 1152.85 -3.63496 -2.03125 0
M  V30 12046 H 1155.45 -2.66246 -4.637 0
M  V30 12047 H 1155.79 -1.06304 -4.02499 0
M  V30 12048 H 1156.33 -2.48961 -3.10263 0
M  V30 12049 H 1153.07 -5.43372 -3.66643 0
M  V30 12050 H 1152.59 -3.94694 -4.51638 0
M  V30 12051 H 1154.26 -4.53278 -4.6168 0
M  V30 12052 N 1154.4 1.08748 -1.14068 0
M  V30 12053 C 1155.64 1.81504 -0.918035 0
M  V30 12054 C 1156 1.84381 0.549671 0
M  V30 12055 O 1155.29 1.30612 1.40183 0
M  V30 12056 C 1155.48 3.26734 -1.44843 0
M  V30 12057 C 1155.31 3.38006 -2.96617 0
M  V30 12058 C 1154.08 3.49401 -3.6503 0
M  V30 12059 C 1156.28 3.29952 -3.94507 0
M  V30 12060 N 1154.26 3.49428 -5.04751 0
M  V30 12061 C 1155.63 3.3693 -5.20459 0
M  V30 12062 C 1157.69 3.13666 -3.86676 0
M  V30 12063 C 1156.39 3.29299 -6.39496 0
M  V30 12064 C 1158.42 3.07363 -5.05254 0
M  V30 12065 C 1157.78 3.1494 -6.30073 0
M  V30 12066 H 1153.88 0.67814 -0.389423 0
M  V30 12067 H 1156.46 1.29916 -1.45017 0
M  V30 12068 H 1154.63 3.76776 -0.943112 0
M  V30 12069 H 1156.37 3.87537 -1.16606 0
M  V30 12070 H 1153.12 3.53145 -3.15572 0
M  V30 12071 H 1153.55 3.53007 -5.77681 0
M  V30 12072 H 1158.19 3.06673 -2.91053 0
M  V30 12073 H 1155.91 3.35054 -7.35367 0
M  V30 12074 H 1159.49 2.95887 -5.00941 0
M  V30 12075 H 1158.37 3.10088 -7.20288 0
M  V30 12076 N 1155.87 0.935264 1.26849 0
M  V30 12077 C 1157.29 0.623198 1.75992 0
M  V30 12078 C 1157.64 -0.861647 1.76267 0
M  V30 12079 O 1156.76 -1.6743 1.37099 0
M  V30 12080 C 1157.36 1.12451 3.19594 0
M  V30 12081 C 1155.92 0.862974 3.66374 0
M  V30 12082 C 1155.06 1.27886 2.4605 0
M  V30 12083 H 1158.01 1.11422 1.13008 0
M  V30 12084 H 1158.03 0.475626 3.77516 0
M  V30 12085 H 1157.55 2.20522 3.19361 0
M  V30 12086 H 1155.65 -0.203606 3.72043 0
M  V30 12087 H 1155.76 1.48582 4.55478 0
M  V30 12088 H 1154.12 0.697335 2.44968 0
M  V30 12089 H 1154.91 2.36837 2.48522 0
M  V30 12090 N 1157.35 -1.41121 0.701616 0
M  V30 12091 C 1158.3 -2.30765 0.040121 0
M  V30 12092 C 1159.27 -1.47436 -0.764975 0
M  V30 12093 O 1160.45 -1.76209 -0.731775 0
M  V30 12094 C 1157.59 -3.33535 -0.885903 0
M  V30 12095 C 1156.71 -4.3194 -0.0717765 0
M  V30 12096 C 1155.84 -5.21779 -0.995996 0
M  V30 12097 C 1154.88 -6.11849 -0.175133 0
M  V30 12098 N 1154.02 -6.94151 -1.05348 0
M  V30 12099 H 1158.86 -2.86772 0.810312 0
M  V30 12100 H 1156.4 -1.41233 0.411301 0
M  V30 12101 H 1158.35 -3.91675 -1.4369 0
M  V30 12102 H 1156.98 -2.79065 -1.62243 0
M  V30 12103 H 1156.04 -3.75698 0.596221 0
M  V30 12104 H 1157.35 -4.95597 0.56435 0
M  V30 12105 H 1156.5 -5.84782 -1.61601 0
M  V30 12106 H 1155.24 -4.58363 -1.66597 0
M  V30 12107 H 1154.25 -5.4789 0.457916 0
M  V30 12108 H 1155.47 -6.77322 0.491133 0
M  V30 12109 H 1153.42 -6.33338 -1.70936 0
M  V30 12110 H 1153.33 -7.54518 -0.473065 0
M  V30 12111 H 1154.6 -7.61617 -1.66012 0
M  V30 12112 N 1158.83 -0.446794 -1.51134 0
M  V30 12113 C 1159.76 0.350229 -2.30858 0
M  V30 12114 C 1160.74 1.0125 -1.36684 0
M  V30 12115 O 1161.93 1.01433 -1.65605 0
M  V30 12116 C 1159.06 1.4464 -3.15748 0
M  V30 12117 C 1158.01 0.907102 -4.18277 0
M  V30 12118 C 1157.34 2.09974 -4.91747 0
M  V30 12119 C 1158.64 -0.0649758 -5.2226 0
M  V30 12120 H 1160.33 -0.315105 -2.97737 0
M  V30 12121 H 1157.88 -0.152985 -1.43185 0
M  V30 12122 H 1159.83 2.01127 -3.70305 0
M  V30 12123 H 1158.55 2.14016 -2.46708 0
M  V30 12124 H 1157.21 0.364382 -3.64785 0
M  V30 12125 H 1156.86 2.77991 -4.19202 0
M  V30 12126 H 1156.56 1.74523 -5.61084 0
M  V30 12127 H 1158.08 2.66996 -5.49131 0
M  V30 12128 H 1159.5 0.4099 -5.71833 0
M  V30 12129 H 1157.9 -0.332529 -5.99178 0
M  V30 12130 H 1158.97 -0.998681 -4.74504 0
M  V30 12131 N 1160.31 1.56586 -0.178487 0
M  V30 12132 C 1161.72 1.58609 0.17759 0
M  V30 12133 C 1161.92 1.19411 1.62306 0
M  V30 12134 O 1160.98 0.90906 2.35568 0
M  V30 12135 C 1162.29 3.005 -0.109722 0
M  V30 12136 C 1163.84 3.12962 -0.0485036 0
M  V30 12137 C 1164.32 4.56957 -0.308901 0
M  V30 12138 N 1165.81 4.62487 -0.25693 0
M  V30 12139 C 1166.54 5.71767 -0.432488 0
M  V30 12140 N 1166.04 6.89577 -0.667494 0
M  V30 12141 N 1167.83 5.60895 -0.367895 0
M  V30 12142 H 1159.98 1.80351 -1.12193 0
M  V30 12143 H 1162.25 0.83623 -0.446569 0
M  V30 12144 H 1161.95 3.3368 -1.11133 0
M  V30 12145 H 1161.83 3.72472 0.595373 0
M  V30 12146 H 1164.21 2.79604 0.943687 0
M  V30 12147 H 1164.29 2.43411 -0.78642 0
M  V30 12148 H 1163.94 4.91025 -1.29833 0
M  V30 12149 H 1163.87 5.24676 0.449711 0
M  V30 12150 H 1166.36 3.77813 -0.0812308 0
M  V30 12151 H 1166.67 7.68744 -0.79071 0
M  V30 12152 H 1165.02 6.91423 -0.704193 0
M  V30 12153 H 1168.21 4.67735 -0.184837 0
M  V30 12154 H 1168.38 6.46005 -0.508138 0
M  V30 12155 N 1161.79 -0.095206 1.57312 0
M  V30 12156 C 1163.03 -0.799903 1.86358 0
M  V30 12157 C 1163.37 -1.78386 0.767593 0
M  V30 12158 O 1162.64 -1.93201 -0.224439 0
M  V30 12159 C 1162.92 -1.52875 3.26039 0
M  V30 12160 C 1162.78 -0.562781 4.46265 0
M  V30 12161 C 1164.1 -2.47935 3.63616 0
M  V30 12162 H 1161.21 -0.289339 0.677829 0
M  V30 12163 H 1163.86 -0.0635369 1.89894 0
M  V30 12164 H 1162.01 -2.15645 3.23156 0
M  V30 12165 H 1163.68 0.0579068 4.61264 0
M  V30 12166 H 1161.92 0.123847 4.33623 0
M  V30 12167 H 1162.59 -1.10989 5.40727 0
M  V30 12168 H 1165.07 -1.95257 3.67442 0
M  V30 12169 H 1163.94 -2.95948 4.62283 0
M  V30 12170 H 1164.21 -3.31687 2.92294 0
M  V30 12171 N 1163.26 -1.53291 -0.366026 0
M  V30 12172 C 1164.19 -1.82675 -1.45437 0
M  V30 12173 C 1165.18 -0.680227 -1.55907 0
M  V30 12174 O 1166.36 -0.930032 -1.70482 0
M  V30 12175 C 1163.49 -2.01626 -2.8278 0
M  V30 12176 C 1162.44 -3.17391 -2.87135 0
M  V30 12177 C 1161.77 -3.21634 -4.27148 0
M  V30 12178 C 1163.07 -4.5599 -2.54697 0
M  V30 12179 H 1164.76 -2.73818 -1.21096 0
M  V30 12180 H 1162.31 -1.31754 -0.581108 0
M  V30 12181 H 1164.26 -2.20765 -3.58944 0
M  V30 12182 H 1162.99 -1.07193 -3.08508 0
M  V30 12183 H 1161.65 -2.98071 -2.13422 0
M  V30 12184 H 1161.29 -2.2484 -4.49951 0
M  V30 12185 H 1160.99 -3.99414 -4.30978 0
M  V30 12186 H 1162.52 -3.42957 -5.05186 0
M  V30 12187 H 1163.93 -4.75294 -3.20575 0
M  V30 12188 H 1162.33 -5.36008 -2.69844 0
M  V30 12189 H 1163.4 -4.61133 -1.49949 0
M  V30 12190 N 1164.74 0.6258 -1.44643 0
M  V30 12191 C 1165.71 1.71941 -1.51555 0
M  V30 12192 C 1166.71 1.55822 -0.396988 0
M  V30 12193 O 1167.9 1.61221 -0.65981 0
M  V30 12194 C 1165.03 3.11068 -1.39461 0
M  V30 12195 H 1166.22 1.67185 -2.48976 0
M  V30 12196 H 1163.77 0.839934 -1.31814 0
M  V30 12197 H 1164.51 3.21416 -0.431534 0
M  V30 12198 H 1164.29 3.24175 -2.20574 0
M  V30 12199 H 1165.78 3.90762 -1.4729 0
M  V30 12200 N 1166.22 1.31629 0.866686 0
M  V30 12201 C 1167.64 1.10358 1.15296 0
M  V30 12202 C 1167.84 -0.123807 2.01119 0
M  V30 12203 O 1166.89 -0.81219 2.39081 0
M  V30 12204 C 1168.21 2.37684 1.84193 0
M  V30 12205 C 1169.75 2.43326 1.9688 0
M  V30 12206 C 1170.23 3.70541 2.69191 0
M  V30 12207 N 1171.72 3.71454 2.76724 0
M  V30 12208 C 1172.45 4.66585 3.33295 0
M  V30 12209 N 1171.95 5.72075 3.90771 0
M  V30 12210 N 1173.74 4.541 3.31284 0
M  V30 12211 H 1165.89 2.10343 0.29487 0
M  V30 12212 H 1168.16 0.928096 0.193239 0
M  V30 12213 H 1167.86 3.27352 1.28582 0
M  V30 12214 H 1167.74 2.47731 2.84445 0
M  V30 12215 H 1170.12 1.54124 2.51654 0
M  V30 12216 H 1170.21 2.3724 0.956596 0
M  V30 12217 H 1169.85 4.60111 2.15083 0
M  V30 12218 H 1169.78 3.73894 3.70825 0
M  V30 12219 H 1172.27 2.952 2.35936 0
M  V30 12220 H 1172.58 6.40738 4.32058 0
M  V30 12221 H 1170.93 5.75844 3.89138 0
M  V30 12222 H 1174.12 3.70861 2.85622 0
M  V30 12223 H 1174.29 5.28416 3.75074 0
M  V30 12224 N 1167.7 -1.08142 1.14644 0
M  V30 12225 C 1168.92 -1.84857 0.940349 0
M  V30 12226 C 1169.35 -1.81163 -0.506117 0
M  V30 12227 O 1168.71 -1.19869 -1.36019 0
M  V30 12228 C 1168.76 -3.30198 1.4492 0
M  V30 12229 O 1167.86 -4.07355 0.64308 0
M  V30 12230 H 1167.2 -0.572711 0.336003 0
M  V30 12231 H 1169.73 -1.36475 1.52432 0
M  V30 12232 H 1169.74 -3.81039 1.45854 0
M  V30 12233 H 1168.42 -3.32202 2.50229 0
M  V30 12234 H 1166.99 -3.66219 0.702698 0
M  V30 12235 N 1169.18 -0.941978 -1.26351 0
M  V30 12236 C 1170.4 -0.606231 -1.98342 0
M  V30 12237 C 1170.83 0.812014 -1.6967 0
M  V30 12238 O 1170.19 1.54712 -0.9452 0
M  V30 12239 C 1170.23 -0.855864 -3.50296 0
M  V30 12240 O 1169.34 0.0716251 -4.12338 0
M  V30 12241 H 1168.68 -0.231815 -0.62222 0
M  V30 12242 H 1171.21 -1.26513 -1.60797 0
M  V30 12243 H 1171.22 -0.777079 -4.00531 0
M  V30 12244 H 1169.89 -1.8896 -3.70496 0
M  V30 12245 H 1168.47 -0.0582866 -3.72854 0
M  V30 12246 N 1170.66 1.40747 -0.709091 0
M  V30 12247 C 1172.07 1.83955 -0.318968 0
M  V30 12248 C 1172.42 1.59304 1.14527 0
M  V30 12249 O 1171.54 1.07052 1.88066 0
M  V30 12250 C 1172.14 3.33934 -0.572147 0
M  V30 12251 C 1170.7 3.75661 -0.235802 0
M  V30 12252 C 1169.84 2.64024 -0.847743 0
M  V30 12253 H 1172.79 1.30107 -0.908734 0
M  V30 12254 H 1172.82 3.80143 0.164752 0
M  V30 12255 H 1172.33 3.51844 -1.63791 0
M  V30 12256 H 1170.43 3.63348 0.825164 0
M  V30 12257 H 1170.54 4.73955 -0.700263 0
M  V30 12258 H 1168.91 2.53197 -0.276283 0
M  V30 12259 H 1169.69 2.84748 -1.91765 0
M  V30 12260 N 1172.13 0.454803 1.50895 0
M  V30 12261 C 1173.36 -0.103936 2.06639 0
M  V30 12262 C 1173.78 -1.34943 1.32044 0
M  V30 12263 O 1173.13 -1.78393 0.384972 0
M  V30 12264 C 1173.18 -0.408546 3.59184 0
M  V30 12265 O 1172.91 0.787535 4.30963 0
M  V30 12266 C 1174.41 -1.01605 4.31499 0
M  V30 12267 H 1171.63 -0.000171839 0.671 0
M  V30 12268 H 1174.17 0.638907 1.94263 0
M  V30 12269 H 1172.33 -1.1013 3.71416 0
M  V30 12270 H 1172.74 0.52229 5.21893 0
M  V30 12271 H 1174.21 -1.17906 5.39261 0
M  V30 12272 H 1174.69 -2.00182 3.90927 0
M  V30 12273 H 1175.3 -0.362155 4.23755 0
M  V30 12274 N 1173.61 -1.56489 0.186789 0
M  V30 12275 C 1174.89 -1.89066 -0.501337 0
M  V30 12276 C 1175.27 -1.09906 -1.80233 0
M  V30 12277 O 1174.62 -0.197626 -2.27644 0
M  V30 12278 C 1174.83 -3.41318 -0.728207 0
M  V30 12279 C 1176.17 -4.11379 -1.0513 0
M  V30 12280 O 1177.2 -3.46722 -0.816216 0
M  V30 12281 O 1176.06 -5.25638 -1.49557 0
M  V30 12282 H 1173.15 -0.784966 -0.260303 0
M  V30 12283 H 1175.7 -1.68183 0.226382 0
M  V30 12284 H 1174.47 -3.90834 0.19088 0
M  V30 12285 H 1174.09 -3.67865 -1.50869 0
M  V30 12286 N 1175.09 0.086862 -1.5736 0
M  V30 12287 C 1176.04 1.10478 -2.02641 0
M  V30 12288 C 1177.01 1.39331 -0.904219 0
M  V30 12289 O 1178.19 1.50654 -1.17081 0
M  V30 12290 C 1175.33 2.41754 -2.4627 0
M  V30 12291 C 1174.44 2.19561 -3.72044 0
M  V30 12292 C 1173.58 3.44294 -4.04519 0
M  V30 12293 C 1172.62 3.17399 -5.23378 0
M  V30 12294 N 1171.76 4.3442 -5.51564 0
M  V30 12295 H 1176.6 0.711663 -2.89378 0
M  V30 12296 H 1174.13 0.339856 -1.4312 0
M  V30 12297 H 1176.09 3.18378 -2.69613 0
M  V30 12298 H 1174.72 2.78896 -1.62532 0
M  V30 12299 H 1173.77 1.337 -3.5613 0
M  V30 12300 H 1175.08 1.95685 -4.58812 0
M  V30 12301 H 1174.24 4.29321 -4.28682 0
M  V30 12302 H 1172.98 3.71232 -3.16289 0
M  V30 12303 H 1171.98 2.30765 -4.99026 0
M  V30 12304 H 1173.21 2.91799 -6.13213 0
M  V30 12305 H 1171.15 4.61418 -4.66293 0
M  V30 12306 H 1171.07 4.13764 -6.3272 0
M  V30 12307 H 1172.34 5.20489 -5.80269 0
M  V30 12308 N 1176.57 1.53483 0.357892 0
M  V30 12309 C 1177.52 1.76843 1.43911 0
M  V30 12310 C 1178.5 0.623178 1.48342 0
M  V30 12311 O 1179.69 0.882102 1.53453 0
M  V30 12312 C 1176.82 1.96865 2.81246 0
M  V30 12313 C 1175.91 3.17414 2.81263 0
M  V30 12314 N 1176.3 4.39172 2.50921 0
M  V30 12315 C 1174.6 3.18292 3.1242 0
M  V30 12316 C 1175.3 5.20953 2.58811 0
M  V30 12317 N 1174.27 4.57338 2.93841 0
M  V30 12318 H 1178.08 2.68586 1.19327 0
M  V30 12319 H 1175.59 1.52212 0.566142 0
M  V30 12320 H 1177.59 2.11731 3.59132 0
M  V30 12321 H 1176.25 1.06355 3.06788 0
M  V30 12322 H 1177.26 4.66772 2.24376 0
M  V30 12323 H 1173.94 2.37702 3.43226 0
M  V30 12324 H 1175.33 6.28095 2.38633 0
M  V30 12325 N 1178.05 -0.61812 1.44973 0
M  V30 12326 C 1179.27 -1.40429 1.51945 0
M  V30 12327 C 1179.69 -1.88215 0.148556 0
M  V30 12328 O 1179.05 -1.61603 -0.847978 0
M  V30 12329 C 1179.1 -2.61588 2.49507 0
M  V30 12330 O 1178.82 -2.15791 3.81269 0
M  V30 12331 C 1180.32 -3.5457 2.66074 0
M  V30 12332 H 1177.54 -0.43023 0.514921 0
M  V30 12333 H 1180.08 -0.754791 1.90061 0
M  V30 12334 H 1178.24 -3.22602 2.14492 0
M  V30 12335 H 1178.65 -2.94434 4.34061 0
M  V30 12336 H 1180.13 -4.36155 3.38338 0
M  V30 12337 H 1180.6 -4.04227 1.71746 0
M  V30 12338 H 1181.21 -2.99416 3.02043 0
M  V30 12339 N 1179.52 -1.32087 -0.859693 0
M  V30 12340 C 1180.45 -1.23204 -1.98351 0
M  V30 12341 C 1181.43 -0.116974 -1.69697 0
M  V30 12342 O 1182.62 -0.303301 -1.91817 0
M  V30 12343 C 1179.75 -0.949171 -3.34078 0
M  V30 12344 C 1178.7 -2.02493 -3.77069 0
M  V30 12345 C 1178.03 -1.59455 -5.1037 0
M  V30 12346 C 1179.33 -3.43934 -3.93074 0
M  V30 12347 H 1181.02 -2.17227 -2.0604 0
M  V30 12348 H 1178.57 -1.04577 -0.989931 0
M  V30 12349 H 1180.52 -0.873594 -4.12245 0
M  V30 12350 H 1179.25 0.0267095 -3.26589 0
M  V30 12351 H 1177.91 -2.09057 -3.01149 0
M  V30 12352 H 1177.55 -0.606256 -4.99333 0
M  V30 12353 H 1177.25 -2.31429 -5.40106 0
M  V30 12354 H 1178.78 -1.53325 -5.91036 0
M  V30 12355 H 1180.19 -3.39986 -4.61608 0
M  V30 12356 H 1178.59 -4.14214 -4.3422 0
M  V30 12357 H 1179.66 -3.83965 -2.9614 0
M  V30 12358 N 1181 1.07532 -1.15215 0
M  V30 12359 C 1182.25 1.8036 -0.927263 0
M  V30 12360 C 1182.58 1.86414 0.544371 0
M  V30 12361 O 1181.86 1.34653 1.40353 0
M  V30 12362 C 1182.14 3.25512 -1.53992 0
M  V30 12363 C 1181.99 3.27614 -3.08203 0
M  V30 12364 C 1183.31 4.22731 -1.22418 0
M  V30 12365 H 1180.43 0.654775 -0.338289 0
M  V30 12366 H 1183.07 1.25842 -1.42351 0
M  V30 12367 H 1181.22 3.72068 -1.11791 0
M  V30 12368 H 1182.89 2.89315 -3.59297 0
M  V30 12369 H 1181.14 2.66627 -3.42188 0
M  V30 12370 H 1181.81 4.29956 -3.46182 0
M  V30 12371 H 1184.28 3.84557 -1.58919 0
M  V30 12372 H 1183.16 5.22589 -1.67906 0
M  V30 12373 H 1183.42 4.41875 -0.14091 0
M  V30 12374 N 1182.48 0.948665 1.2585 0
M  V30 12375 C 1183.43 0.462904 2.2611 0
M  V30 12376 C 1184.4 -0.481433 1.5897 0
M  V30 12377 O 1185.58 -0.395997 1.86645 0
M  V30 12378 C 1182.72 -0.258808 3.44128 0
M  V30 12379 C 1181.84 0.722072 4.25923 0
M  V30 12380 C 1180.97 -0.0215958 5.31196 0
M  V30 12381 C 1180.01 0.950612 6.04673 0
M  V30 12382 N 1179.15 0.238209 7.01696 0
M  V30 12383 H 1183.99 1.32279 2.67032 0
M  V30 12384 H 1181.52 0.663485 1.31287 0
M  V30 12385 H 1183.48 -0.693759 4.11391 0
M  V30 12386 H 1182.11 -1.08278 3.04098 0
M  V30 12387 H 1181.16 1.27552 3.58378 0
M  V30 12388 H 1182.48 1.46421 4.76825 0
M  V30 12389 H 1181.63 -0.51547 6.04506 0
M  V30 12390 H 1180.37 -0.796563 4.81151 0
M  V30 12391 H 1179.37 1.45554 5.30183 0
M  V30 12392 H 1180.6 1.72571 6.56808 0
M  V30 12393 H 1178.54 -0.518129 6.53951 0
M  V30 12394 H 1178.46 0.919542 7.50387 0
M  V30 12395 H 1179.73 -0.234325 7.79148 0
M  V30 12396 N 1183.96 -1.40369 0.716545 0
M  V30 12397 C 1185.21 -2.00473 0.255959 0
M  V30 12398 C 1185.53 -1.57104 -1.15514 0
M  V30 12399 O 1184.8 -0.810925 -1.78328 0
M  V30 12400 H 1183.38 -0.741357 0.0916427 0
M  V30 12401 H 1186.04 -1.71692 0.922389 0
M  V30 12402 H 1185.14 -3.10752 0.289806 0
M  V30 12403 N 1185.44 -0.462799 -1.50652 0
M  V30 12404 C 1186.69 0.0966838 -2.01468 0
M  V30 12405 C 1187 1.41529 -1.35014 0
M  V30 12406 O 1188.2 2.05923 -1.76941 0
M  V30 12407 C 1186.66 0.222826 -3.5921 0
M  V30 12408 C 1186.27 -1.08686 -4.34616 0
M  V30 12409 C 1188.01 0.734711 -4.18094 0
M  V30 12410 C 1185.92 -0.924964 -5.84122 0
M  V30 12411 H 1184.85 0.0399078 -0.752943 0
M  V30 12412 H 1187.5 -0.596437 -1.73536 0
M  V30 12413 H 1185.88 0.979539 -3.83694 0
M  V30 12414 H 1187.06 -1.85388 -4.21862 0
M  V30 12415 H 1185.37 -1.52922 -3.87303 0
M  V30 12416 H 1187.97 0.872734 -5.2753 0
M  V30 12417 H 1188.31 1.72389 -3.7893 0
M  V30 12418 H 1188.84 0.0356139 -3.97784 0
M  V30 12419 H 1185.58 -1.88727 -6.27744 0
M  V30 12420 H 1185.1 -0.198181 -5.99473 0
M  V30 12421 H 1186.78 -0.588262 -6.4432 0
M  V30 12422 N 1186.91 1.56388 -0.195085 0
M  V30 12423 C 1188.16 1.96755 0.443901 0
M  V30 12424 C 1188.48 1.08483 1.6276 0
M  V30 12425 O 1189.68 1.38632 2.33438 0
M  V30 12426 C 1188.14 3.49933 0.841139 0
M  V30 12427 C 1187.75 4.46868 -0.318275 0
M  V30 12428 C 1189.49 3.99069 1.44721 0
M  V30 12429 C 1187.4 5.91316 0.0999211 0
M  V30 12430 H 1186.33 0.734674 0.169616 0
M  V30 12431 H 1188.98 1.8124 -0.287101 0
M  V30 12432 H 1187.36 3.60951 1.62881 0
M  V30 12433 H 1188.53 4.47581 -1.0958 0
M  V30 12434 H 1186.85 4.07925 -0.835842 0
M  V30 12435 H 1189.45 5.04465 1.77255 0
M  V30 12436 H 1189.79 3.43376 2.35369 0
M  V30 12437 H 1190.32 3.91165 0.723513 0
M  V30 12438 H 1187.06 6.50934 -0.77237 0
M  V30 12439 H 1186.58 5.93856 0.842304 0
M  V30 12440 H 1188.26 6.44778 0.535726 0
M  V30 12441 N 1188.39 -0.0785156 1.57404 0
M  V30 12442 C 1189.67 -0.811557 1.77969 0
M  V30 12443 C 1190.05 -1.96123 0.780966 0
M  V30 12444 O 1189.4 -2.27731 -0.18726 0
M  V30 12445 C 1189.61 -1.29075 3.24254 0
M  V30 12446 C 1190.96 -1.72685 3.87898 0
M  V30 12447 O 1191.98 -1.38658 3.28104 0
M  V30 12448 O 1190.84 -2.3566 4.93079 0
M  V30 12449 H 1187.93 -0.388361 0.73014 0
M  V30 12450 H 1190.48 -0.0591118 1.69597 0
M  V30 12451 H 1189.25 -0.467813 3.88494 0
M  V30 12452 H 1188.87 -2.10472 3.37324 0
M  V30 12453 N 1189.87 -1.5367 -0.349747 0
M  V30 12454 C 1191.1 -1.74858 -1.11532 0
M  V30 12455 C 1191.52 -0.483591 -1.81777 0
M  V30 12456 O 1190.88 0.563399 -1.72324 0
M  V30 12457 C 1190.93 -2.92479 -2.10923 0
M  V30 12458 O 1190.03 -2.62194 -3.18321 0
M  V30 12459 H 1189.37 -0.580219 -0.322865 0
M  V30 12460 H 1191.9 -2.00611 -0.402033 0
M  V30 12461 H 1191.91 -3.19093 -2.54252 0
M  V30 12462 H 1190.59 -3.84228 -1.59191 0
M  V30 12463 H 1189.16 -2.46448 -2.79853 0
M  V30 12464 N 1191.35 0.610423 -1.45298 0
M  V30 12465 C 1192.58 1.39621 -1.52688 0
M  V30 12466 C 1192.99 1.88133 -0.158535 0
M  V30 12467 O 1192.35 1.62051 0.839396 0
M  V30 12468 C 1192.4 2.60261 -2.50891 0
M  V30 12469 O 1192.12 2.13766 -3.82408 0
M  V30 12470 C 1193.62 3.53154 -2.6795 0
M  V30 12471 H 1190.84 0.427493 -0.517195 0
M  V30 12472 H 1193.39 0.744701 -1.90459 0
M  V30 12473 H 1191.54 3.2146 -2.162 0
M  V30 12474 H 1191.95 2.92128 -4.35616 0
M  V30 12475 H 1193.43 4.34355 -3.40647 0
M  V30 12476 H 1193.91 4.03311 -1.73888 0
M  V30 12477 H 1194.51 2.9781 -3.03627 0
M  V30 12478 N 1192.83 1.32541 0.852676 0
M  V30 12479 C 1193.78 1.18224 1.94954 0
M  V30 12480 C 1194.76 0.0886514 1.60656 0
M  V30 12481 O 1195.95 0.315359 1.74168 0
M  V30 12482 C 1193.08 0.909484 3.31034 0
M  V30 12483 C 1192.17 2.04486 3.71546 0
M  V30 12484 N 1192.56 3.29362 3.83868 0
M  V30 12485 C 1190.86 1.94848 4.01186 0
M  V30 12486 C 1191.56 4.0374 4.18771 0
M  V30 12487 N 1190.53 3.32054 4.30396 0
M  V30 12488 H 1194.34 2.12893 2.02617 0
M  V30 12489 H 1191.85 1.24349 1.04456 0
M  V30 12490 H 1193.85 0.787865 4.09388 0
M  V30 12491 H 1192.51 -0.0288163 3.24687 0
M  V30 12492 H 1193.52 3.64274 3.68137 0
M  V30 12493 H 1190.19 1.08591 4.0313 0
M  V30 12494 H 1191.58 5.11434 4.35757 0
M  V30 12495 N 1194.3 -1.0692 1.15784 0
M  V30 12496 C 1195.53 -1.8331 0.959422 0
M  V30 12497 C 1195.95 -1.82268 -0.492332 0
M  V30 12498 O 1195.3 -1.23727 -1.34156 0
M  V30 12499 C 1195.36 -3.30202 1.47135 0
M  V30 12500 O 1195.08 -3.31328 2.86624 0
M  V30 12501 C 1196.58 -4.23346 1.31504 0
M  V30 12502 H 1193.8 -0.578202 0.340475 0
M  V30 12503 H 1196.34 -1.34939 1.53661 0
M  V30 12504 H 1194.5 -3.75908 0.936587 0
M  V30 12505 H 1194.91 -4.23135 3.0993 0
M  V30 12506 H 1196.38 -5.24465 1.72163 0
M  V30 12507 H 1196.86 -4.38431 0.259773 0
M  V30 12508 H 1197.47 -3.8348 1.83911 0
M  V30 12509 N 1195.78 -0.955326 -1.25345 0
M  V30 12510 C 1196.69 -0.482707 -2.2958 0
M  V30 12511 C 1197.71 0.450283 -1.68073 0
M  V30 12512 O 1198.88 0.326358 -1.98738 0
M  V30 12513 C 1195.95 0.231293 -3.45928 0
M  V30 12514 C 1195.01 -0.739995 -4.22874 0
M  V30 12515 C 1194.24 -0.0599748 -5.33666 0
M  V30 12516 O 1194.47 1.15423 -5.586 0
M  V30 12517 O 1193.4 -0.745865 -5.97261 0
M  V30 12518 H 1197.23 -1.34892 -2.72099 0
M  V30 12519 H 1194.81 -0.721812 -1.30806 0
M  V30 12520 H 1196.69 0.632908 -4.1662 0
M  V30 12521 H 1195.37 1.07267 -3.0541 0
M  V30 12522 H 1194.28 -1.19183 -3.54607 0
M  V30 12523 H 1195.61 -1.54941 -4.67177 0
M  V30 12524 N 1197.26 1.39987 -0.723979 0
M  V30 12525 C 1198.19 2.2917 -0.0373445 0
M  V30 12526 C 1199.21 1.46258 0.715015 0
M  V30 12527 O 1200.4 1.69455 0.561003 0
M  V30 12528 C 1197.5 3.2468 0.971384 0
M  V30 12529 C 1196.67 4.36485 0.282826 0
M  V30 12530 C 1195.73 5.12379 1.19811 0
M  V30 12531 O 1194.75 5.65127 0.67974 0
M  V30 12532 N 1195.96 5.22531 2.52866 0
M  V30 12533 H 1198.72 2.88738 -0.803131 0
M  V30 12534 H 1196.28 1.51448 -0.572292 0
M  V30 12535 H 1198.27 3.72326 1.58606 0
M  V30 12536 H 1196.84 2.6622 1.63846 0
M  V30 12537 H 1196.06 3.90859 -0.512167 0
M  V30 12538 H 1197.35 5.08427 -0.194793 0
M  V30 12539 H 1196.75 4.81174 2.97469 0
M  V30 12540 H 1195.31 5.73655 3.09457 0
M  V30 12541 N 1198.74 0.470782 1.50404 0
M  V30 12542 C 1200.16 0.124919 1.5911 0
M  V30 12543 C 1200.36 -1.36855 1.47895 0
M  V30 12544 O 1199.41 -2.1418 1.33728 0
M  V30 12545 C 1200.72 0.674839 2.9303 0
M  V30 12546 C 1202.27 0.638239 3.06424 0
M  V30 12547 C 1202.75 1.1657 4.42917 0
M  V30 12548 N 1204.24 1.1251 4.49328 0
M  V30 12549 C 1204.97 1.50373 5.53331 0
M  V30 12550 N 1204.47 1.95684 6.6459 0
M  V30 12551 N 1206.26 1.41978 5.43874 0
M  V30 12552 H 1198.41 1.44212 1.55938 0
M  V30 12553 H 1200.68 0.596354 0.73693 0
M  V30 12554 H 1200.38 1.72106 3.06712 0
M  V30 12555 H 1200.26 0.118234 3.77015 0
M  V30 12556 H 1202.64 -0.399075 2.92389 0
M  V30 12557 H 1202.72 1.23164 2.24197 0
M  V30 12558 H 1202.37 2.20164 4.57701 0
M  V30 12559 H 1202.3 0.548513 5.23736 0
M  V30 12560 H 1204.79 0.79276 3.69491 0
M  V30 12561 H 1205.1 2.22724 7.40009 0
M  V30 12562 H 1203.45 1.99636 6.65711 0
M  V30 12563 H 1206.64 1.0642 4.55842 0
M  V30 12564 H 1206.81 1.71812 6.24808 0
M  V30 12565 N 1200.22 -1.56282 0.203376 0
M  V30 12566 C 1201.15 -2.16714 -0.74616 0
M  V30 12567 C 1202.16 -1.13121 -1.17079 0
M  V30 12568 O 1203.35 -1.40179 -1.10509 0
M  V30 12569 C 1200.45 -2.72115 -2.02007 0
M  V30 12570 C 1199.62 -4.00695 -1.75391 0
M  V30 12571 C 1198.68 -4.40839 -2.8731 0
M  V30 12572 O 1197.71 -5.081 -2.56561 0
M  V30 12573 N 1198.91 -4.05024 -4.15856 0
M  V30 12574 H 1201.68 -2.98821 -0.229326 0
M  V30 12575 H 1199.24 -1.61885 0.0217049 0
M  V30 12576 H 1201.23 -2.95951 -2.76035 0
M  V30 12577 H 1199.8 -1.94415 -2.44789 0
M  V30 12578 H 1199.02 -3.84905 -0.851 0
M  V30 12579 H 1200.31 -4.8461 -1.55017 0
M  V30 12580 H 1199.71 -3.50938 -4.43688 0
M  V30 12581 H 1198.26 -4.33792 -4.86485 0
M  V30 12582 N 1201.7 0.070167 -1.57444 0
M  V30 12583 C 1202.94 0.770153 -1.87607 0
M  V30 12584 C 1203.27 1.77143 -0.795875 0
M  V30 12585 O 1202.55 1.93533 0.193674 0
M  V30 12586 C 1202.83 1.47668 -3.2843 0
M  V30 12587 C 1202.69 0.491712 -4.47104 0
M  V30 12588 C 1204 2.42118 -3.67514 0
M  V30 12589 H 1201.12 0.278519 -0.682346 0
M  V30 12590 H 1203.77 0.0333184 -1.89971 0
M  V30 12591 H 1201.92 2.10476 -3.26546 0
M  V30 12592 H 1203.59 -0.131283 -4.61113 0
M  V30 12593 H 1201.83 -0.192817 -4.33371 0
M  V30 12594 H 1202.5 1.02372 -5.42424 0
M  V30 12595 H 1204.98 1.89387 -3.70502 0
M  V30 12596 H 1203.85 2.88556 -4.66933 0
M  V30 12597 H 1204.11 3.26995 -2.97534 0
M  V30 12598 N 1203.17 1.53854 0.341593 0
M  V30 12599 C 1204.42 1.71447 1.08322 0
M  V30 12600 C 1204.75 0.477289 1.88243 0
M  V30 12601 O 1204.03 -0.525695 1.87261 0
M  V30 12602 C 1204.31 2.97917 2.02281 0
M  V30 12603 C 1204.16 4.31847 1.25809 0
M  V30 12604 C 1205.48 3.20065 3.0207 0
M  V30 12605 H 1202.6 0.623847 0.392408 0
M  V30 12606 H 1205.24 1.86527 0.361594 0
M  V30 12607 H 1203.39 2.85191 2.63815 0
M  V30 12608 H 1205.07 4.56427 0.668737 0
M  V30 12609 H 1203.31 4.30169 0.560119 0
M  V30 12610 H 1203.98 5.16522 1.94704 0
M  V30 12611 H 1206.46 3.32135 2.50651 0
M  V30 12612 H 1205.33 4.09947 3.65013 0
M  V30 12613 H 1205.59 2.36452 3.73554 0
M  V30 12614 N 1204.65 -0.602709 1.4562 0
M  V30 12615 C 1205.61 -1.69508 1.54271 0
M  V30 12616 C 1206.61 -1.55171 0.421727 0
M  V30 12617 O 1207.8 -1.60151 0.685375 0
M  V30 12618 C 1204.94 -3.0881 1.44392 0
M  V30 12619 H 1206.13 -1.63203 2.51605 0
M  V30 12620 H 1203.68 -0.818857 1.33133 0
M  V30 12621 H 1204.42 -3.20689 0.482614 0
M  V30 12622 H 1204.2 -3.20625 2.25704 0
M  V30 12623 H 1205.69 -3.8837 1.53488 0
M  V30 12624 N 1206.13 -1.32992 -0.845635 0
M  V30 12625 C 1207.38 -1.24249 -1.60281 0
M  V30 12626 C 1207.71 0.193049 -1.93238 0
M  V30 12627 O 1206.98 1.1326 -1.58122 0
M  V30 12628 C 1207.27 -2.1111 -2.91727 0
M  V30 12629 C 1207.12 -3.63088 -2.65494 0
M  V30 12630 C 1208.44 -1.97913 -3.93089 0
M  V30 12631 H 1205.56 -0.452698 -0.581578 0
M  V30 12632 H 1208.2 -1.63026 -0.975828 0
M  V30 12633 H 1206.35 -1.78169 -3.45236 0
M  V30 12634 H 1208.02 -4.06287 -2.18469 0
M  V30 12635 H 1206.26 -3.85304 -1.99306 0
M  V30 12636 H 1206.94 -4.19202 -3.59129 0
M  V30 12637 H 1209.41 -2.26788 -3.48864 0
M  V30 12638 H 1208.29 -2.60952 -4.82903 0
M  V30 12639 H 1208.55 -0.949378 -4.31786 0
M  V30 12640 N 1207.61 1.06304 -1.1635 0
M  V30 12641 C 1208.84 1.82799 -0.96913 0
M  V30 12642 C 1209.25 1.82526 0.482659 0
M  V30 12643 O 1208.61 1.24437 1.33498 0
M  V30 12644 C 1208.66 3.29417 -1.48884 0
M  V30 12645 O 1208.38 3.29803 -2.88377 0
M  V30 12646 C 1209.88 4.22642 -1.33748 0
M  V30 12647 H 1207.1 0.576388 -0.343537 0
M  V30 12648 H 1209.64 1.34122 -1.54375 0
M  V30 12649 H 1207.8 3.75406 -0.956509 0
M  V30 12650 H 1208.21 4.21486 -3.1217 0
M  V30 12651 H 1209.69 5.23545 -1.74942 0
M  V30 12652 H 1210.16 4.38287 -0.283021 0
M  V30 12653 H 1210.77 3.82499 -1.85942 0
M  V30 12654 N 1209.09 0.96196 1.24836 0
M  V30 12655 C 1210.33 0.619489 1.92371 0
M  V30 12656 C 1210.65 -0.847233 1.75633 0
M  V30 12657 O 1209.92 -1.60419 1.12439 0
M  V30 12658 H 1208.5 0.226129 0.711951 0
M  V30 12659 H 1211.17 1.22179 1.5185 0
M  V30 12660 H 1210.26 0.855128 3.00157 0
M  V30 12661 N 1210.56 -1.39601 0.731392 0
M  V30 12662 C 1211.84 -1.94531 0.20422 0
M  V30 12663 C 1212.22 -1.66845 -1.29329 0
M  V30 12664 O 1211.57 -0.994706 -2.05713 0
M  V30 12665 C 1211.78 -3.44891 0.53395 0
M  V30 12666 C 1213.13 -4.21863 0.481298 0
M  V30 12667 O 1214.15 -3.53073 0.470929 0
M  V30 12668 O 1213.01 -5.44452 0.472663 0
M  V30 12669 H 1210.1 -0.826214 0.0360436 0
M  V30 12670 H 1212.65 -1.49121 0.810005 0
M  V30 12671 H 1211.42 -3.58463 1.56907 0
M  V30 12672 H 1211.04 -3.97472 -0.10099 0
M  V30 12673 N 1212.04 -0.478751 -1.50152 0
M  V30 12674 C 1213.29 0.0734397 -2.01967 0
M  V30 12675 C 1213.61 1.39523 -1.36229 0
M  V30 12676 O 1212.88 1.89141 -0.510149 0
M  V30 12677 H 1211.46 0.0301305 -0.746392 0
M  V30 12678 H 1214.12 -0.630921 -1.84406 0
M  V30 12679 H 1213.22 0.21937 -3.11328 0
M  V30 12680 N 1213.52 1.56172 -0.211661 0
M  V30 12681 C 1214.75 2.02428 0.427843 0
M  V30 12682 C 1215.16 1.09162 1.54043 0
M  V30 12683 O 1214.52 0.0994249 1.82229 0
M  V30 12684 C 1214.57 3.48279 0.968728 0
M  V30 12685 O 1214.29 4.37987 -0.0994841 0
M  V30 12686 C 1215.79 4.10132 1.68246 0
M  V30 12687 H 1213.01 0.662611 0.10577 0
M  V30 12688 H 1215.56 2.01897 -0.32522 0
M  V30 12689 H 1213.71 3.49456 1.6721 0
M  V30 12690 H 1214.13 5.23609 0.305558 0
M  V30 12691 H 1215.6 5.13985 2.01304 0
M  V30 12692 H 1216.08 3.54552 2.5921 0
M  V30 12693 H 1216.68 4.12775 1.02453 0
M  V30 12694 N 1215 -0.0618163 1.57479 0
M  V30 12695 C 1215.95 -1.09105 2.05424 0
M  V30 12696 C 1216.94 -1.3947 0.961479 0
M  V30 12697 O 1218.15 -1.3876 1.14655 0
M  V30 12698 H 1214.52 -0.36923 0.655113 0
M  V30 12699 H 1216.49 -0.66061 2.90996 0
M  V30 12700 C 1215.24 -2.39345 2.52209 0
M  V30 12701 H 1214.56 -2.16832 3.35893 0
M  V30 12702 H 1216 -3.09784 2.89499 0
M  V30 12703 C 1214.46 -3.06011 1.40922 0
M  V30 12704 O 1214.99 -3.94504 0.756921 0
M  V30 12705 N 1213.2 -2.66797 1.15186 0
M  V30 12706 H 1212.75 -1.94923 1.68412 0
M  V30 12707 H 1212.7 -3.11724 0.409324 0
M  V30 12708 N 1216.48 -1.54033 -0.333429 0
M  V30 12709 C 1217.75 -1.62404 -1.09015 0
M  V30 12710 C 1218.13 -0.451653 -2.06212 0
M  V30 12711 O 1217.48 0.555086 -2.21655 0
M  V30 12712 C 1217.69 -2.98949 -1.80085 0
M  V30 12713 C 1219.04 -3.54655 -2.33464 0
M  V30 12714 O 1220.06 -3.0119 -1.90166 0
M  V30 12715 O 1218.92 -4.48195 -3.12703 0
M  V30 12716 H 1216.02 -0.65727 -0.501921 0
M  V30 12717 H 1218.56 -1.66378 -0.33411 0
M  V30 12718 H 1217.33 -3.75716 -1.09332 0
M  V30 12719 H 1216.96 -2.98609 -2.62523 0
M  V30 12720 N 1217.95 0.594978 -1.45938 0
M  V30 12721 C 1219.2 1.35093 -1.50314 0
M  V30 12722 C 1219.52 1.94412 -0.151315 0
M  V30 12723 O 1218.79 1.77876 0.820787 0
M  V30 12724 H 1217.37 0.501549 -0.553586 0
M  V30 12725 H 1220.04 0.697735 -1.81983 0
M  V30 12726 H 1219.13 2.16393 -2.24901 0
M  V30 12727 N 1219.43 1.33438 0.838571 0
M  V30 12728 C 1220.84 1.22366 1.41009 0
M  V30 12729 C 1221.19 -0.157317 1.95568 0
M  V30 12730 O 1220.32 -1.05692 1.88834 0
M  V30 12731 C 1220.91 2.21542 2.56329 0
M  V30 12732 C 1219.47 2.14309 3.09433 0
M  V30 12733 C 1218.62 2.09012 1.82235 0
M  V30 12734 H 1221.57 1.45032 0.64431 0
M  V30 12735 H 1221.59 1.82332 3.33969 0
M  V30 12736 H 1221.1 3.22042 2.16589 0
M  V30 12737 H 1219.21 1.17113 3.53717 0
M  V30 12738 H 1219.32 3.04866 3.69586 0
M  V30 12739 H 1217.68 1.54492 2.02495 0
M  V30 12740 H 1218.47 3.11319 1.4469 0
M  V30 12741 N 1220.91 -1.05686 1.16912 0
M  V30 12742 C 1221.87 -2.11481 0.883647 0
M  V30 12743 C 1222.87 -1.60321 -0.124034 0
M  V30 12744 O 1224.06 -1.73868 0.107566 0
M  V30 12745 C 1221.2 -3.3937 0.322649 0
M  V30 12746 H 1222.39 -2.38239 1.8216 0
M  V30 12747 H 1219.94 -1.2185 0.978895 0
M  V30 12748 H 1220.68 -3.18266 -0.622695 0
M  V30 12749 H 1220.46 -3.77812 1.04883 0
M  V30 12750 H 1221.95 -4.17362 0.141072 0
M  V30 12751 N 1222.39 -0.968567 -1.24324 0
M  V30 12752 C 1223.32 -0.518323 -2.27674 0
M  V30 12753 C 1224.3 0.442479 -1.64244 0
M  V30 12754 O 1225.48 0.338416 -1.91229 0
M  V30 12755 C 1222.61 0.191459 -3.46772 0
M  V30 12756 C 1221.57 -0.685449 -4.22476 0
M  V30 12757 C 1220.89 0.155873 -5.34473 0
M  V30 12758 C 1222.19 -1.97047 -4.83704 0
M  V30 12759 H 1223.89 -1.38215 -2.65588 0
M  V30 12760 H 1221.43 -0.66604 -1.27671 0
M  V30 12761 H 1223.39 0.517667 -4.18208 0
M  V30 12762 H 1222.11 1.08965 -3.07887 0
M  V30 12763 H 1220.77 -0.994942 -3.52841 0
M  V30 12764 H 1220.42 1.05424 -4.91828 0
M  V30 12765 H 1220.12 -0.427655 -5.86042 0
M  V30 12766 H 1221.64 0.476733 -6.08736 0
M  V30 12767 H 1223.06 -1.70979 -5.4721 0
M  V30 12768 H 1221.45 -2.50079 -5.45509 0
M  V30 12769 H 1222.52 -2.66484 -4.0511 0
M  V30 12770 N 1223.87 1.39211 -0.738786 0
M  V30 12771 C 1224.81 2.30578 -0.10129 0
M  V30 12772 C 1225.78 1.49412 0.725616 0
M  V30 12773 O 1226.97 1.78087 0.684799 0
M  V30 12774 C 1224.11 3.35767 0.797161 0
M  V30 12775 C 1223.22 4.31979 -0.0427701 0
M  V30 12776 C 1222.36 5.24236 0.857306 0
M  V30 12777 C 1221.4 6.12099 0.0128501 0
M  V30 12778 N 1220.53 6.96701 0.869067 0
M  V30 12779 H 1225.37 2.84522 -0.88606 0
M  V30 12780 H 1222.91 1.40093 -0.448602 0
M  V30 12781 H 1224.87 3.95347 1.33255 0
M  V30 12782 H 1223.5 2.83268 1.54787 0
M  V30 12783 H 1222.55 3.73986 -0.695622 0
M  V30 12784 H 1223.86 4.93927 -0.69555 0
M  V30 12785 H 1223.02 5.88861 1.4604 0
M  V30 12786 H 1221.75 4.62619 1.54386 0
M  V30 12787 H 1220.76 5.46483 -0.603018 0
M  V30 12788 H 1221.98 6.75781 -0.67054 0
M  V30 12789 H 1219.93 6.37647 1.54084 0
M  V30 12790 H 1219.85 7.55507 0.272852 0
M  V30 12791 H 1221.12 7.65751 1.4576 0
M  V30 12792 N 1225.34 0.486708 1.49896 0
M  V30 12793 C 1226.29 -0.299294 2.28851 0
M  V30 12794 C 1227.26 -0.973251 1.346 0
M  V30 12795 O 1228.45 -0.982678 1.63548 0
M  V30 12796 C 1225.59 -1.36624 3.16904 0
M  V30 12797 C 1224.7 -0.705492 4.262 0
M  V30 12798 C 1223.83 -1.75165 5.01488 0
M  V30 12799 C 1222.87 -1.072 6.0264 0
M  V30 12800 N 1222.01 -2.06172 6.71147 0
M  V30 12801 H 1226.85 0.380272 2.95564 0
M  V30 12802 H 1224.39 0.199377 1.45743 0
M  V30 12803 H 1226.35 -1.99666 3.66319 0
M  V30 12804 H 1224.98 -2.01476 2.52205 0
M  V30 12805 H 1224.03 0.0378757 3.80381 0
M  V30 12806 H 1225.34 -0.169774 4.98511 0
M  V30 12807 H 1224.49 -2.45749 5.547 0
M  V30 12808 H 1223.23 -2.3212 4.28919 0
M  V30 12809 H 1222.24 -0.351868 5.48673 0
M  V30 12810 H 1223.46 -0.509139 6.77189 0
M  V30 12811 H 1221.41 -2.62115 6.01358 0
M  V30 12812 H 1221.33 -1.57627 7.39385 0
M  V30 12813 H 1222.59 -2.76088 7.28969 0
M  V30 12814 N 1226.82 -1.56058 0.219941 0
M  V30 12815 C 1227.79 -2.18964 -0.677303 0
M  V30 12816 C 1228.79 -1.15105 -1.12283 0
M  V30 12817 O 1229.98 -1.40348 -1.03189 0
M  V30 12818 C 1227.11 -2.81167 -1.92764 0
M  V30 12819 H 1228.3 -2.99623 -0.128877 0
M  V30 12820 H 1225.85 -1.56272 -0.0296744 0
M  V30 12821 H 1226.59 -2.04374 -2.51797 0
M  V30 12822 H 1226.37 -3.5722 -1.61666 0
M  V30 12823 H 1227.86 -3.29391 -2.56693 0
M  V30 12824 N 1228.3 0.053464 -1.57509 0
M  V30 12825 C 1229.58 0.783141 -1.79238 0
M  V30 12826 C 1229.96 1.94855 -0.812069 0
M  V30 12827 O 1229.31 2.28 0.151006 0
M  V30 12828 C 1229.52 1.239 -3.26266 0
M  V30 12829 C 1230.86 1.66492 -3.90596 0
M  V30 12830 O 1231.89 1.33421 -3.30269 0
M  V30 12831 O 1230.75 2.27785 -4.96766 0
M  V30 12832 H 1227.84 0.376696 -0.736226 0
M  V30 12833 H 1230.39 0.0321229 -1.6967 0
M  V30 12834 H 1229.16 0.405948 -3.89189 0
M  V30 12835 H 1228.78 2.05078 -3.4063 0
M  V30 12836 N 1229.78 1.54207 0.325255 0
M  V30 12837 C 1231.03 1.72587 1.06497 0
M  V30 12838 C 1231.36 0.497228 1.87727 0
M  V30 12839 O 1230.63 -0.505804 1.87808 0
M  V30 12840 C 1230.92 3.00046 1.99109 0
M  V30 12841 C 1230.77 4.33158 1.21221 0
M  V30 12842 C 1232.09 3.23251 2.98658 0
M  V30 12843 H 1229.21 0.627974 0.38577 0
M  V30 12844 H 1231.85 1.869 0.34179 0
M  V30 12845 H 1230 2.87973 2.60775 0
M  V30 12846 H 1231.67 4.57111 0.620289 0
M  V30 12847 H 1229.91 4.30739 0.514462 0
M  V30 12848 H 1230.59 5.18558 1.89214 0
M  V30 12849 H 1233.06 3.34774 2.47114 0
M  V30 12850 H 1231.94 4.13796 3.60645 0
M  V30 12851 H 1232.2 2.40401 3.71026 0
M  V30 12852 N 1231.26 -0.58723 1.46251 0
M  V30 12853 C 1232.51 -1.34294 1.51028 0
M  V30 12854 C 1232.83 -1.94329 0.161623 0
M  V30 12855 O 1232.1 -1.78309 -0.811342 0
M  V30 12856 H 1230.68 -0.498607 0.556238 0
M  V30 12857 H 1233.34 -0.688074 1.8235 0
M  V30 12858 H 1232.43 -2.15197 2.26045 0
M  V30 12859 N 1232.74 -1.33881 -0.831482 0
M  V30 12860 C 1233.98 -1.25755 -1.58719 0
M  V30 12861 C 1234.31 0.174746 -1.93713 0
M  V30 12862 O 1233.57 1.13384 -1.59507 0
M  V30 12863 C 1233.86 -2.08544 -2.90249 0
M  V30 12864 C 1233.53 -3.57651 -2.74585 0
M  V30 12865 C 1232.19 -3.983 -2.7002 0
M  V30 12866 C 1234.54 -4.52369 -2.58866 0
M  V30 12867 C 1231.87 -5.31872 -2.47647 0
M  V30 12868 C 1234.22 -5.86112 -2.38025 0
M  V30 12869 C 1232.89 -6.25934 -2.31867 0
M  V30 12870 H 1232.16 -0.460171 -0.580796 0
M  V30 12871 H 1234.81 -1.6554 -0.96274 0
M  V30 12872 H 1233.11 -1.6156 -3.56939 0
M  V30 12873 H 1234.81 -1.99609 -3.47789 0
M  V30 12874 H 1231.4 -3.2538 -2.78973 0
M  V30 12875 H 1235.58 -4.21868 -2.61421 0
M  V30 12876 H 1230.84 -5.61756 -2.41331 0
M  V30 12877 H 1235.01 -6.59103 -2.24847 0
M  V30 12878 H 1232.64 -7.29372 -2.14291 0
M  V30 12879 N 1234.21 1.05064 -1.1747 0
M  V30 12880 C 1235.18 2.1101 -0.89485 0
M  V30 12881 C 1236.18 1.60384 0.11553 0
M  V30 12882 O 1237.37 1.73808 -0.116785 0
M  V30 12883 C 1234.5 3.39194 -0.340642 0
M  V30 12884 H 1235.69 2.37269 -1.83421 0
M  V30 12885 H 1233.24 1.21329 -0.985343 0
M  V30 12886 H 1233.98 3.18591 0.605808 0
M  V30 12887 H 1233.76 3.77251 -1.06885 0
M  V30 12888 H 1235.25 4.17281 -0.163204 0
M  V30 12889 N 1235.69 0.975146 1.23809 0
M  V30 12890 C 1236.62 0.45593 2.23599 0
M  V30 12891 C 1237.6 -0.474069 1.55536 0
M  V30 12892 O 1238.79 -0.40373 1.84126 0
M  V30 12893 C 1235.91 -0.341008 3.36979 0
M  V30 12894 C 1234.96 0.532362 4.23164 0
M  V30 12895 S 1235.79 1.97706 4.97667 0
M  V30 12896 C 1236.95 1.18912 6.145 0
M  V30 12897 H 1237.18 1.30157 2.67295 0
M  V30 12898 H 1234.71 0.78074 1.33206 0
M  V30 12899 H 1236.67 -0.794817 4.02732 0
M  V30 12900 H 1235.33 -1.16171 2.91827 0
M  V30 12901 H 1234.53 -0.0798928 5.03937 0
M  V30 12902 H 1234.13 0.922202 3.62452 0
M  V30 12903 H 1236.42 0.447823 6.76018 0
M  V30 12904 H 1237.36 1.97148 6.80102 0
M  V30 12905 H 1237.77 0.710216 5.60014 0
M  V30 12906 N 1237.17 -1.38817 0.746158 0
M  V30 12907 C 1238.42 -1.99885 0.298425 0
M  V30 12908 C 1238.74 -1.59518 -1.12156 0
M  V30 12909 O 1238.01 -0.848568 -1.76568 0
M  V30 12910 H 1236.59 -0.739247 0.107347 0
M  V30 12911 H 1239.25 -1.69696 0.9586 0
M  V30 12912 H 1238.35 -3.10067 0.355656 0
M  V30 12913 N 1238.65 -0.49465 -1.49636 0
M  V30 12914 C 1239.9 0.0539277 -2.01628 0
M  V30 12915 C 1240.21 1.38634 -1.37986 0
M  V30 12916 O 1241.42 2.02123 -1.81269 0
M  V30 12917 C 1239.87 0.146582 -3.59601 0
M  V30 12918 C 1239.48 -1.1788 -4.32213 0
M  V30 12919 C 1241.22 0.645862 -4.19558 0
M  V30 12920 C 1239.13 -1.04866 -5.82028 0
M  V30 12921 H 1238.06 0.0239278 -0.75362 0
M  V30 12922 H 1240.71 -0.633112 -1.72232 0
M  V30 12923 H 1239.09 0.897931 -3.85685 0
M  V30 12924 H 1240.27 -1.94295 -4.17835 0
M  V30 12925 H 1238.58 -1.61102 -3.83973 0
M  V30 12926 H 1241.18 0.76064 -5.29262 0
M  V30 12927 H 1241.52 1.64313 -3.82501 0
M  V30 12928 H 1242.06 -0.04877 -3.9777 0
M  V30 12929 H 1238.79 -2.02 -6.23599 0
M  V30 12930 H 1238.31 -0.325293 -5.98917 0
M  V30 12931 H 1239.99 -0.724799 -6.42927 0
M  V30 12932 N 1240.13 1.55939 -0.228214 0
M  V30 12933 C 1241.09 2.1932 0.665681 0
M  V30 12934 C 1242.09 1.15699 1.11671 0
M  V30 12935 O 1243.28 1.40893 1.02444 0
M  V30 12936 C 1240.41 2.82185 1.9127 0
M  V30 12937 H 1241.6 2.99687 0.112986 0
M  V30 12938 H 1239.16 1.56285 0.0213865 0
M  V30 12939 H 1239.89 2.05706 2.5071 0
M  V30 12940 H 1239.68 3.58073 1.5977 0
M  V30 12941 H 1241.17 3.30748 2.54942 0
M  V30 12942 N 1241.6 -0.0451101 1.57535 0
M  V30 12943 C 1242.85 -0.737654 1.88157 0
M  V30 12944 C 1243.17 -1.76743 0.823817 0
M  V30 12945 O 1242.44 -1.95366 -0.144503 0
M  V30 12946 H 1241.02 -0.275431 0.694368 0
M  V30 12947 H 1243.69 -0.0148651 1.94894 0
M  V30 12948 H 1242.78 -1.23726 2.86528 0
M  V30 12949 N 1243.08 -1.54377 -0.317073 0
M  V30 12950 C 1244.31 -1.76865 -1.07362 0
M  V30 12951 C 1244.73 -0.520354 -1.81488 0
M  V30 12952 O 1244.08 0.509213 -1.75252 0
M  V30 12953 C 1244.13 -2.96598 -2.06668 0
M  V30 12954 O 1243.85 -4.16602 -1.35552 0
M  V30 12955 C 1245.36 -3.31348 -2.94489 0
M  V30 12956 H 1242.58 -0.590277 -0.319083 0
M  V30 12957 H 1245.12 -2.01284 -0.361227 0
M  V30 12958 H 1243.27 -2.74433 -2.73432 0
M  V30 12959 H 1243.69 -4.83996 -2.02108 0
M  V30 12960 H 1245.16 -4.1841 -3.60051 0
M  V30 12961 H 1245.64 -2.48797 -3.61935 0
M  V30 12962 H 1246.25 -3.55614 -2.33278 0
M  V30 12963 N 1244.56 0.579466 -1.4656 0
M  V30 12964 C 1245.84 1.33973 -1.42515 0
M  V30 12965 C 1246.22 2.10812 -0.110317 0
M  V30 12966 O 1245.57 2.09679 0.908135 0
M  V30 12967 C 1245.78 2.26301 -2.65686 0
M  V30 12968 C 1247.12 2.88027 -3.1197 0
M  V30 12969 O 1248.15 2.36612 -2.66257 0
M  V30 12970 O 1247.01 3.81423 -3.9138 0
M  V30 12971 H 1244.1 0.602121 -0.566903 0
M  V30 12972 H 1246.65 0.600214 -1.58731 0
M  V30 12973 H 1245.42 1.68973 -3.52936 0
M  V30 12974 H 1245.04 3.07586 -2.51945 0
M  V30 12975 N 1246.04 1.3432 0.824371 0
M  V30 12976 C 1247.28 1.26783 1.58284 0
M  V30 12977 C 1247.62 -0.162282 1.93521 0
M  V30 12978 O 1246.89 -1.1073 1.59903 0
M  V30 12979 C 1247.18 2.15725 2.88331 0
M  V30 12980 C 1247.03 3.67266 2.59684 0
M  V30 12981 C 1248.35 2.04141 3.8989 0
M  V30 12982 H 1245.47 0.461893 0.574303 0
M  V30 12983 H 1248.11 1.64558 0.949769 0
M  V30 12984 H 1246.26 1.83639 3.42358 0
M  V30 12985 H 1247.93 4.09711 2.11978 0
M  V30 12986 H 1246.17 3.88426 1.93151 0
M  V30 12987 H 1246.84 4.24863 3.52414 0
M  V30 12988 H 1249.32 2.3231 3.45212 0
M  V30 12989 H 1248.2 2.68601 4.7869 0
M  V30 12990 H 1248.46 1.01795 4.30221 0
M  V30 12991 N 1247.52 -1.0444 1.18026 0
M  V30 12992 C 1248.48 -2.10532 0.906028 0
M  V30 12993 C 1249.48 -1.60443 -0.107022 0
M  V30 12994 O 1250.67 -1.73744 0.126001 0
M  V30 12995 C 1247.8 -3.39008 0.358625 0
M  V30 12996 H 1248.99 -2.36293 1.84677 0
M  V30 12997 H 1246.55 -1.20805 0.991763 0
M  V30 12998 H 1247.28 -3.18908 -0.588904 0
M  V30 12999 H 1247.07 -3.76678 1.08884 0
M  V30 13000 H 1248.56 -4.17189 0.185331 0
M  V30 13001 N 1248.99 -0.981699 -1.2329 0
M  V30 13002 C 1249.94 -0.52269 -2.24803 0
M  V30 13003 C 1250.91 0.439116 -1.6019 0
M  V30 13004 O 1252.1 0.346372 -1.8763 0
M  V30 13005 C 1249.24 0.167477 -3.44693 0
M  V30 13006 C 1248.35 -0.834744 -4.23858 0
M  V30 13007 C 1247.48 -0.119249 -5.31066 0
M  V30 13008 C 1246.52 -1.1106 -6.0194 0
M  V30 13009 N 1245.66 -0.424167 -7.00818 0
M  V30 13010 H 1250.5 -1.39312 -2.63431 0
M  V30 13011 H 1248.04 -0.698061 -1.29482 0
M  V30 13012 H 1250 0.584442 -4.13086 0
M  V30 13013 H 1248.63 1.00177 -3.06862 0
M  V30 13014 H 1247.68 -1.37009 -3.5487 0
M  V30 13015 H 1248.99 -1.59012 -4.72776 0
M  V30 13016 H 1248.14 0.355015 -6.0566 0
M  V30 13017 H 1246.88 0.668714 -4.83094 0
M  V30 13018 H 1245.89 -1.5956 -5.26138 0
M  V30 13019 H 1247.11 -1.89924 -6.52001 0
M  V30 13020 H 1245.06 0.344564 -6.55094 0
M  V30 13021 H 1244.98 -1.11817 -7.47685 0
M  V30 13022 H 1246.24 0.0276655 -7.79495 0
M  V30 13023 N 1250.47 1.3842 -0.753509 0
M  V30 13024 C 1251.38 2.34252 -0.127811 0
M  V30 13025 C 1252.4 1.59266 0.700743 0
M  V30 13026 O 1253.57 1.9146 0.624914 0
M  V30 13027 C 1250.64 3.38382 0.754886 0
M  V30 13028 C 1249.7 4.2921 -0.0880312 0
M  V30 13029 C 1248.93 5.28367 0.75263 0
M  V30 13030 O 1249.16 5.34537 1.99064 0
M  V30 13031 O 1248.09 6.01656 0.171475 0
M  V30 13032 H 1251.92 2.89454 -0.91925 0
M  V30 13033 H 1249.5 1.40265 -0.514404 0
M  V30 13034 H 1251.38 4.02141 1.25938 0
M  V30 13035 H 1250.06 2.85536 1.52482 0
M  V30 13036 H 1248.97 3.68611 -0.638468 0
M  V30 13037 H 1250.3 4.85311 -0.82062 0
M  V30 13038 N 1251.95 0.502579 1.49372 0
M  V30 13039 C 1252.91 -0.263993 2.27675 0
M  V30 13040 C 1253.91 -0.892538 1.33755 0
M  V30 13041 O 1255.1 -0.756826 1.56901 0
M  V30 13042 C 1252.24 -1.37895 3.11765 0
M  V30 13043 H 1253.43 0.423132 2.969 0
M  V30 13044 H 1250.98 0.257595 1.54163 0
M  V30 13045 H 1251.72 -2.10018 2.47109 0
M  V30 13046 H 1251.5 -0.933694 3.80821 0
M  V30 13047 H 1252.99 -1.91889 3.70902 0
M  V30 13048 N 1253.43 -1.55816 0.23648 0
M  V30 13049 C 1254.65 -2.03534 -0.398575 0
M  V30 13050 C 1255.08 -1.11488 -1.51499 0
M  V30 13051 O 1254.44 -0.105848 -1.80991 0
M  V30 13052 C 1254.48 -3.49356 -0.893467 0
M  V30 13053 O 1253.59 -3.60446 -2.00381 0
M  V30 13054 H 1252.93 -0.658102 -0.0883021 0
M  V30 13055 H 1255.46 -2.01417 0.359488 0
M  V30 13056 H 1255.47 -3.89972 -1.19941 0
M  V30 13057 H 1254.14 -4.1583 -0.0764388 0
M  V30 13058 H 1252.72 -3.31723 -1.70336 0
M  V30 13059 N 1254.91 0.036755 -1.57557 0
M  V30 13060 C 1256.18 0.764087 -1.80059 0
M  V30 13061 C 1256.56 1.93983 -0.83269 0
M  V30 13062 O 1255.91 2.28148 0.126815 0
M  V30 13063 C 1256.12 1.20433 -3.27562 0
M  V30 13064 C 1257.47 1.6234 -3.9234 0
M  V30 13065 O 1258.49 1.29911 -3.31665 0
M  V30 13066 O 1257.35 2.22504 -4.99154 0
M  V30 13067 H 1254.45 0.368866 -0.74018 0
M  V30 13068 H 1256.99 0.0141254 -1.69694 0
M  V30 13069 H 1255.76 0.364646 -3.89597 0
M  V30 13070 H 1255.39 2.01454 -3.42786 0
M  V30 13071 N 1256.39 1.54543 0.308881 0
M  V30 13072 C 1257.63 1.7266 1.04266 0
M  V30 13073 C 1257.95 0.51518 1.88694 0
M  V30 13074 O 1259.15 0.577988 2.65276 0
M  V30 13075 C 1257.61 3.05448 1.9034 0
M  V30 13076 C 1257.22 4.34043 1.10953 0
M  V30 13077 C 1258.96 3.32925 2.63365 0
M  V30 13078 C 1256.87 5.57886 1.96258 0
M  V30 13079 H 1255.8 0.643485 0.392992 0
M  V30 13080 H 1258.45 1.8103 0.300077 0
M  V30 13081 H 1256.83 2.91023 2.68555 0
M  V30 13082 H 1258.01 4.59279 0.374069 0
M  V30 13083 H 1256.32 4.13442 0.495453 0
M  V30 13084 H 1258.92 4.22649 3.27524 0
M  V30 13085 H 1259.26 2.51451 3.3178 0
M  V30 13086 H 1259.79 3.48285 1.92204 0
M  V30 13087 H 1256.53 6.42005 1.32326 0
M  V30 13088 H 1256.05 5.36847 2.67498 0
M  V30 13089 H 1257.73 5.94846 2.54494 0
M  V30 13090 N 1257.86 -0.571685 1.46866 0
M  V30 13091 C 1259.11 -1.32574 1.5201 0
M  V30 13092 C 1259.43 -1.94762 0.180838 0
M  V30 13093 O 1260.63 -2.71276 0.110158 0
M  V30 13094 C 1259.09 -2.40331 2.67897 0
M  V30 13095 C 1258.7 -1.84398 4.08291 0
M  V30 13096 C 1260.44 -3.17009 2.82321 0
M  V30 13097 C 1258.35 -2.89849 5.15501 0
M  V30 13098 H 1257.28 -0.498428 0.565761 0
M  V30 13099 H 1259.93 -0.608853 1.73105 0
M  V30 13100 H 1258.31 -3.14869 2.40153 0
M  V30 13101 H 1259.48 -1.16329 4.45875 0
M  V30 13102 H 1257.8 -1.20351 3.98628 0
M  V30 13103 H 1260.4 -3.95729 3.59587 0
M  V30 13104 H 1260.74 -3.70292 1.90236 0
M  V30 13105 H 1261.27 -2.4958 3.09765 0
M  V30 13106 H 1258.01 -2.4144 6.09415 0
M  V30 13107 H 1257.53 -3.56372 4.82451 0
M  V30 13108 H 1259.21 -3.53603 5.41825 0
M  V30 13109 N 1259.34 -1.34755 -0.817236 0
M  V30 13110 C 1260.27 -1.29452 -1.94331 0
M  V30 13111 C 1261.25 -0.170902 -1.69239 0
M  V30 13112 O 1262.44 -0.364173 -1.90755 0
M  V30 13113 C 1259.57 -1.05497 -3.30889 0
M  V30 13114 C 1258.52 -2.14386 -3.70436 0
M  V30 13115 C 1257.85 -1.75612 -5.05039 0
M  V30 13116 C 1259.15 -3.56265 -3.81933 0
M  V30 13117 H 1260.84 -2.23672 -1.99025 0
M  V30 13118 H 1258.39 -1.07674 -0.956159 0
M  V30 13119 H 1260.34 -1.0043 -4.09257 0
M  V30 13120 H 1259.06 -0.0772059 -3.26509 0
M  V30 13121 H 1257.72 -2.18532 -2.94345 0
M  V30 13122 H 1257.37 -0.764809 -4.97152 0
M  V30 13123 H 1257.07 -2.48495 -5.3247 0
M  V30 13124 H 1258.6 -1.72051 -5.85859 0
M  V30 13125 H 1260.01 -3.545 -4.50558 0
M  V30 13126 H 1258.41 -4.27818 -4.20822 0
M  V30 13127 H 1259.48 -3.93192 -2.83775 0
M  V30 13128 N 1260.82 1.03812 -1.18578 0
M  V30 13129 C 1262.05 1.80702 -1.00769 0
M  V30 13130 C 1262.46 1.83509 0.443833 0
M  V30 13131 O 1261.82 1.2724 1.30829 0
M  V30 13132 C 1261.87 3.26185 -1.55838 0
M  V30 13133 O 1261.59 3.23612 -2.95308 0
M  V30 13134 C 1263.09 4.1971 -1.42682 0
M  V30 13135 H 1260.31 0.568972 -0.355685 0
M  V30 13136 H 1262.86 1.30817 -1.57185 0
M  V30 13137 H 1261.01 3.73293 -1.03592 0
M  V30 13138 H 1261.43 4.14769 -3.2104 0
M  V30 13139 H 1262.9 5.19716 -1.86008 0
M  V30 13140 H 1263.38 4.37588 -0.375924 0
M  V30 13141 H 1263.98 3.78469 -1.94013 0
M  V30 13142 N 1262.3 0.988223 1.22768 0
M  V30 13143 C 1263.57 0.577578 1.86878 0
M  V30 13144 C 1263.95 -0.945197 1.88757 0
M  V30 13145 O 1263.3 -1.82519 1.37474 0
M  V30 13146 C 1263.51 1.19263 3.2799 0
M  V30 13147 C 1264.86 1.29024 4.04522 0
M  V30 13148 O 1265.88 1.14667 3.37239 0
M  V30 13149 O 1264.74 1.51949 5.24951 0
M  V30 13150 H 1261.84 0.195579 0.803541 0
M  V30 13151 H 1264.38 1.0838 1.30582 0
M  V30 13152 H 1263.16 2.23442 3.21231 0
M  V30 13153 H 1262.78 0.671706 3.91885 0
M  V30 13154 N 1263.78 -1.38018 0.760839 0
M  V30 13155 C 1265.05 -1.94054 0.245437 0
M  V30 13156 C 1265.43 -1.6955 -1.25761 0
M  V30 13157 O 1264.78 -1.03812 -2.03557 0
M  V30 13158 C 1264.99 -3.43681 0.606986 0
M  V30 13159 C 1266.34 -4.20748 0.570673 0
M  V30 13160 O 1267.36 -3.51995 0.545715 0
M  V30 13161 O 1266.22 -5.43327 0.588043 0
M  V30 13162 H 1263.32 -0.825264 0.0535607 0
M  V30 13163 H 1265.86 -1.47369 0.841453 0
M  V30 13164 H 1264.63 -3.55054 1.64476 0
M  V30 13165 H 1264.26 -3.97597 -0.0166576 0
M  V30 13166 N 1265.25 -0.510493 -1.49103 0
M  V30 13167 C 1266.2 0.276449 -2.30951 0
M  V30 13168 C 1267.2 0.953893 -1.3999 0
M  V30 13169 O 1268.4 0.880499 -1.56994 0
M  V30 13170 H 1264.78 0.108013 -0.744202 0
M  V30 13171 H 1266.75 -0.433725 -2.95231 0
M  V30 13172 C 1265.5 1.32234 -3.21573 0
M  V30 13173 H 1264.82 0.810468 -3.91499 0
M  V30 13174 H 1266.26 1.84476 -3.81765 0
M  V30 13175 C 1264.72 2.3456 -2.41833 0
M  V30 13176 O 1265.25 3.40627 -2.12922 0
M  V30 13177 N 1263.45 2.07272 -2.03682 0
M  V30 13178 H 1263 1.21036 -2.27394 0
M  V30 13179 H 1262.96 2.75963 -1.50638 0
M  V30 13180 N 1266.73 1.55688 -0.24474 0
M  V30 13181 C 1267.98 1.98891 0.380603 0
M  V30 13182 C 1268.31 1.13283 1.58105 0
M  V30 13183 O 1267.56 0.183141 1.94841 0
M  V30 13184 C 1267.86 3.47487 0.835923 0
M  V30 13185 C 1267.53 4.5017 -0.256528 0
M  V30 13186 C 1266.19 4.7797 -0.556573 0
M  V30 13187 C 1268.54 5.1163 -0.994174 0
M  V30 13188 C 1265.87 5.64508 -1.59838 0
M  V30 13189 C 1268.22 5.99297 -2.02548 0
M  V30 13190 C 1266.88 6.25432 -2.3322 0
M  V30 13191 H 1266.15 0.727794 0.139273 0
M  V30 13192 H 1268.8 1.88235 -0.352113 0
M  V30 13193 H 1267.11 3.55464 1.64781 0
M  V30 13194 H 1268.8 3.78301 1.33001 0
M  V30 13195 H 1265.39 4.28598 -0.0125284 0
M  V30 13196 H 1269.58 4.90202 -0.775617 0
M  V30 13197 H 1264.83 5.83012 -1.84138 0
M  V30 13198 H 1269.01 6.45964 -2.60198 0
M  V30 13199 H 1266.63 6.92282 -3.14085 0
M  V30 13200 N 1268.21 -0.0283989 1.57574 0
M  V30 13201 C 1269.43 -0.734537 1.93957 0
M  V30 13202 C 1269.86 -1.68062 0.844787 0
M  V30 13203 O 1269.22 -1.802 -0.199432 0
M  V30 13204 C 1269.27 -1.46716 3.29404 0
M  V30 13205 O 1268.37 -2.58036 3.217 0
M  V30 13206 H 1267.71 -0.197507 0.633946 0
M  V30 13207 H 1270.24 0.0163258 2.04593 0
M  V30 13208 H 1270.25 -1.83693 3.64309 0
M  V30 13209 H 1268.93 -0.773292 4.08648 0
M  V30 13210 H 1267.5 -2.23597 2.98427 0
M  V30 13211 N 1269.69 -1.54705 -0.300681 0
M  V30 13212 C 1270.91 -1.78318 -1.05913 0
M  V30 13213 C 1271.34 -0.541177 -1.80147 0
M  V30 13214 O 1270.7 0.508291 -1.74029 0
M  V30 13215 C 1270.74 -2.99041 -2.01511 0
M  V30 13216 O 1269.85 -2.72188 -3.09818 0
M  V30 13217 H 1269.19 -0.590197 -0.304242 0
M  V30 13218 H 1271.72 -2.01789 -0.338006 0
M  V30 13219 H 1271.73 -3.2702 -2.43971 0
M  V30 13220 H 1270.4 -3.89098 -1.46886 0
M  V30 13221 H 1268.98 -2.55227 -2.71871 0
M  V30 13222 N 1271.17 0.563888 -1.47167 0
M  V30 13223 C 1272.42 1.31766 -1.5271 0
M  V30 13224 C 1272.73 1.94664 -0.191164 0
M  V30 13225 O 1273.93 2.71214 -0.124543 0
M  V30 13226 C 1272.39 2.38907 -2.69168 0
M  V30 13227 C 1272 1.8223 -4.09263 0
M  V30 13228 C 1273.74 3.15508 -2.83999 0
M  V30 13229 C 1271.65 2.87111 -5.17031 0
M  V30 13230 H 1270.58 0.495421 -0.568396 0
M  V30 13231 H 1273.23 0.599665 -1.73425 0
M  V30 13232 H 1271.61 3.13591 -2.4182 0
M  V30 13233 H 1272.79 1.13963 -4.46485 0
M  V30 13234 H 1271.1 1.18235 -3.99261 0
M  V30 13235 H 1273.7 3.93816 -3.61681 0
M  V30 13236 H 1274.04 3.69277 -1.92197 0
M  V30 13237 H 1274.57 2.47934 -3.11085 0
M  V30 13238 H 1271.31 2.38204 -6.10687 0
M  V30 13239 H 1270.83 3.53809 -4.84334 0
M  V30 13240 H 1272.51 3.50724 -5.43692 0
M  V30 13241 N 1272.64 1.35187 0.810078 0
M  V30 13242 C 1273.89 1.28454 1.56931 0
M  V30 13243 C 1274.22 -0.141747 1.93682 0
M  V30 13244 O 1273.5 -1.09028 1.61069 0
M  V30 13245 C 1273.78 2.18771 2.86027 0
M  V30 13246 C 1273.63 3.69999 2.55774 0
M  V30 13247 C 1274.95 2.08265 3.87703 0
M  V30 13248 H 1272.07 0.467959 0.569371 0
M  V30 13249 H 1274.71 1.65556 0.932262 0
M  V30 13250 H 1272.86 1.8726 3.40391 0
M  V30 13251 H 1274.54 4.11936 2.07621 0
M  V30 13252 H 1272.78 3.90453 1.89021 0
M  V30 13253 H 1273.45 4.28577 3.47888 0
M  V30 13254 H 1275.93 2.35958 3.42729 0
M  V30 13255 H 1274.8 2.73663 4.75815 0
M  V30 13256 H 1275.06 1.06352 4.29117 0
M  V30 13257 N 1274.12 -1.03182 1.19127 0
M  V30 13258 C 1275.07 -2.11394 0.926339 0
M  V30 13259 C 1276.04 -1.65528 -0.137703 0
M  V30 13260 O 1277.22 -1.908 0.00381804 0
M  V30 13261 C 1274.36 -3.41913 0.467894 0
M  V30 13262 C 1273.48 -4.01343 1.59837 0
M  V30 13263 C 1272.61 -5.1986 1.09175 0
M  V30 13264 C 1271.65 -5.71339 2.19632 0
M  V30 13265 N 1270.79 -6.81133 1.703 0
M  V30 13266 H 1275.63 -2.33393 1.85288 0
M  V30 13267 H 1273.17 -1.14473 0.923811 0
M  V30 13268 H 1275.12 -4.16796 0.183513 0
M  V30 13269 H 1273.75 -3.20034 -0.421656 0
M  V30 13270 H 1272.81 -3.23702 1.99803 0
M  V30 13271 H 1274.12 -4.35568 2.43068 0
M  V30 13272 H 1273.27 -6.0189 0.762427 0
M  V30 13273 H 1272.01 -4.87161 0.22914 0
M  V30 13274 H 1271.02 -4.87923 2.53399 0
M  V30 13275 H 1272.24 -6.06078 3.06344 0
M  V30 13276 H 1270.19 -6.50293 0.863415 0
M  V30 13277 H 1270.1 -7.1447 2.47122 0
M  V30 13278 H 1271.37 -7.66766 1.40321 0
M  V30 13279 N 1275.6 -0.99472 -1.22242 0
M  V30 13280 C 1276.56 -0.551619 -2.22463 0
M  V30 13281 C 1277.56 0.366498 -1.56568 0
M  V30 13282 O 1278.75 0.158204 -1.7348 0
M  V30 13283 C 1275.89 0.197416 -3.40328 0
M  V30 13284 H 1277.08 -1.43795 -2.63179 0
M  V30 13285 H 1274.63 -0.782121 -1.35324 0
M  V30 13286 H 1275.37 1.09965 -3.05087 0
M  V30 13287 H 1275.15 -0.461829 -3.89371 0
M  V30 13288 H 1276.64 0.495534 -4.1465 0
M  V30 13289 N 1277.08 1.37613 -0.768148 0
M  V30 13290 C 1278.32 2.00075 -0.331331 0
M  V30 13291 C 1278.66 1.60839 1.08833 0
M  V30 13292 O 1277.93 0.852849 1.74805 0
M  V30 13293 C 1278.22 3.57009 -0.470789 0
M  V30 13294 C 1278.07 4.06166 -1.9326 0
M  V30 13295 C 1279.39 4.39916 0.127111 0
M  V30 13296 H 1276.51 0.726855 -0.121864 0
M  V30 13297 H 1279.15 1.63343 -0.970518 0
M  V30 13298 H 1277.3 3.88431 0.0733688 0
M  V30 13299 H 1278.97 3.85325 -2.53618 0
M  V30 13300 H 1277.21 3.58492 -2.44266 0
M  V30 13301 H 1277.88 5.15219 -1.98125 0
M  V30 13302 H 1280.36 4.14732 -0.337144 0
M  V30 13303 H 1279.24 5.489 -0.000624226 0
M  V30 13304 H 1279.5 4.25018 1.21704 0
M  V30 13305 N 1278.56 0.518393 1.4883 0
M  V30 13306 C 1279.49 -0.297703 2.2625 0
M  V30 13307 C 1280.47 -0.955096 1.31593 0
M  V30 13308 O 1281.65 -0.981776 1.60914 0
M  V30 13309 C 1278.78 -1.42065 3.07466 0
M  V30 13310 C 1277.82 -0.875854 4.1741 0
M  V30 13311 S 1278.66 0.247153 5.34929 0
M  V30 13312 C 1279.81 -0.878544 6.19703 0
M  V30 13313 H 1280.05 0.359358 2.9512 0
M  V30 13314 H 1277.58 0.303976 1.51378 0
M  V30 13315 H 1279.54 -2.06398 3.54838 0
M  V30 13316 H 1278.2 -2.04939 2.38031 0
M  V30 13317 H 1277.39 -1.71793 4.73818 0
M  V30 13318 H 1276.99 -0.30943 3.72718 0
M  V30 13319 H 1279.29 -1.77986 6.53703 0
M  V30 13320 H 1280.23 -0.3527 7.07221 0
M  V30 13321 H 1280.64 -1.15372 5.52584 0
M  V30 13322 N 1280.03 -1.55556 0.252993 0
M  V30 13323 C 1281.28 -2.00122 -0.363693 0
M  V30 13324 C 1281.64 -1.13821 -1.55121 0
M  V30 13325 O 1280.93 -0.195137 -1.90604 0
M  V30 13326 C 1281.12 -3.47925 -0.817484 0
M  V30 13327 C 1280.95 -4.48528 0.32452 0
M  V30 13328 C 1279.72 -4.98908 0.801175 0
M  V30 13329 C 1281.92 -5.01196 1.15358 0
M  V30 13330 N 1279.9 -5.83269 1.91495 0
M  V30 13331 C 1281.27 -5.82787 2.11563 0
M  V30 13332 C 1283.33 -4.83484 1.18945 0
M  V30 13333 C 1282.03 -6.48557 3.11073 0
M  V30 13334 C 1284.06 -5.50036 2.17288 0
M  V30 13335 C 1283.42 -6.31421 3.12229 0
M  V30 13336 H 1279.52 -0.775724 -0.0988716 0
M  V30 13337 H 1282.1 -1.91114 0.371964 0
M  V30 13338 H 1280.27 -3.57319 -1.52242 0
M  V30 13339 H 1282 -3.79357 -1.40963 0
M  V30 13340 H 1278.76 -4.72039 0.384265 0
M  V30 13341 H 1279.18 -6.30145 2.47479 0
M  V30 13342 H 1283.83 -4.20187 0.469296 0
M  V30 13343 H 1281.54 -7.11016 3.84034 0
M  V30 13344 H 1285.13 -5.38283 2.20777 0
M  V30 13345 H 1284.01 -6.82009 3.87083 0
M  V30 13346 N 1281.51 0.0200419 -1.57587 0
M  V30 13347 C 1282.76 0.707627 -1.89307 0
M  V30 13348 C 1283.08 1.7541 -0.851831 0
M  V30 13349 O 1282.35 1.95571 0.113404 0
M  V30 13350 H 1280.93 0.264349 -0.698662 0
M  V30 13351 H 1283.59 -0.0161428 -1.94893 0
M  V30 13352 H 1282.69 1.19152 -2.8846 0
M  V30 13353 N 1282.99 1.54862 0.292472 0
M  V30 13354 C 1284.41 1.46267 0.638611 0
M  V30 13355 C 1284.61 0.660824 1.90356 0
M  V30 13356 O 1283.66 0.171909 2.51914 0
M  V30 13357 C 1284.98 2.90309 0.783675 0
M  V30 13358 C 1286.52 3.00404 0.879004 0
M  V30 13359 C 1287 4.4566 1.056 0
M  V30 13360 N 1288.49 4.49406 1.122 0
M  V30 13361 C 1289.22 5.5899 1.2774 0
M  V30 13362 N 1288.72 6.78482 1.40123 0
M  V30 13363 N 1290.51 5.46695 1.30696 0
M  V30 13364 H 1282.66 2.0546 -0.538521 0
M  V30 13365 H 1284.93 0.930879 -0.179354 0
M  V30 13366 H 1284.63 3.5162 -0.0750437 0
M  V30 13367 H 1284.51 3.38215 1.67004 0
M  V30 13368 H 1286.89 2.39201 1.7282 0
M  V30 13369 H 1286.98 2.55781 -0.0315624 0
M  V30 13370 H 1286.62 5.07459 0.211535 0
M  V30 13371 H 1286.55 4.87921 1.98092 0
M  V30 13372 H 1289.04 3.63322 1.03948 0
M  V30 13373 H 1289.35 7.57752 1.5176 0
M  V30 13374 H 1287.7 6.81331 1.37163 0
M  V30 13375 H 1290.89 4.52288 1.20638 0
M  V30 13376 H 1291.06 6.32146 1.42463 0
M  V30 13377 N 1284.47 -0.556076 1.47464 0
M  V30 13378 C 1285.42 -1.68406 1.60444 0
M  V30 13379 C 1286.41 -1.627 0.471713 0
M  V30 13380 O 1287.62 -1.67871 0.649551 0
M  V30 13381 H 1283.99 -0.557255 0.504946 0
M  V30 13382 H 1285.96 -1.54595 2.55231 0
M  V30 13383 C 1284.71 -3.06756 1.63695 0
M  V30 13384 H 1284.03 -3.11829 2.50206 0
M  V30 13385 H 1285.47 -3.85368 1.76827 0
M  V30 13386 C 1283.93 -3.34857 0.370485 0
M  V30 13387 O 1284.46 -3.98216 -0.527942 0
M  V30 13388 N 1282.67 -2.89521 0.250163 0
M  V30 13389 H 1282.22 -2.3814 0.982204 0
M  V30 13390 H 1282.17 -3.08694 -0.596268 0
M  V30 13391 N 1285.95 -1.35615 -0.802897 0
M  V30 13392 C 1287.19 -1.29285 -1.56247 0
M  V30 13393 C 1287.53 0.131474 -1.93754 0
M  V30 13394 O 1286.8 1.08172 -1.61645 0
M  V30 13395 C 1287.08 -2.20285 -2.84863 0
M  V30 13396 C 1286.94 -3.71351 -2.53808 0
M  V30 13397 C 1288.26 -2.10318 -3.86593 0
M  V30 13398 H 1285.38 -0.470972 -0.566882 0
M  V30 13399 H 1288.02 -1.66048 -0.923469 0
M  V30 13400 H 1286.17 -1.89063 -3.39393 0
M  V30 13401 H 1287.84 -4.13031 -2.05433 0
M  V30 13402 H 1286.08 -3.9145 -1.86947 0
M  V30 13403 H 1286.75 -4.30416 -3.4561 0
M  V30 13404 H 1289.23 -2.37772 -3.41473 0
M  V30 13405 H 1288.11 -2.76183 -4.74357 0
M  V30 13406 H 1288.37 -1.08627 -4.28547 0
M  V30 13407 N 1287.43 1.02549 -1.19673 0
M  V30 13408 C 1288.66 1.79363 -1.02531 0
M  V30 13409 C 1289.06 1.84274 0.42893 0
M  V30 13410 O 1288.41 1.28813 1.30969 0
M  V30 13411 C 1288.47 3.2567 -1.52248 0
M  V30 13412 C 1288.13 3.44386 -3.00412 0
M  V30 13413 C 1289.13 3.34329 -3.98146 0
M  V30 13414 C 1286.81 3.70491 -3.39178 0
M  V30 13415 C 1288.81 3.50106 -5.3264 0
M  V30 13416 C 1286.5 3.85912 -4.7383 0
M  V30 13417 C 1287.49 3.75723 -5.70369 0
M  V30 13418 O 1287.18 3.90685 -7.02581 0
M  V30 13419 H 1286.91 0.571194 -0.361544 0
M  V30 13420 H 1289.47 1.30029 -1.59002 0
M  V30 13421 H 1287.7 3.76044 -0.901548 0
M  V30 13422 H 1289.39 3.8409 -1.31262 0
M  V30 13423 H 1290.15 3.14109 -3.69541 0
M  V30 13424 H 1286.03 3.77513 -2.64585 0
M  V30 13425 H 1289.58 3.42069 -6.07976 0
M  V30 13426 H 1285.47 4.05631 -5.02129 0
M  V30 13427 H 1286.24 4.07756 -7.09702 0
M  V30 13428 N 1288.9 1.00119 1.21713 0
M  V30 13429 C 1290.18 0.597366 1.86255 0
M  V30 13430 C 1290.56 -0.925124 1.89749 0
M  V30 13431 O 1289.91 -1.8105 1.39402 0
M  V30 13432 C 1290.12 1.22735 3.26707 0
M  V30 13433 C 1291.47 1.33307 4.03131 0
M  V30 13434 O 1292.49 1.18237 3.36003 0
M  V30 13435 O 1291.35 1.57509 5.2331 0
M  V30 13436 H 1288.44 0.204091 0.801421 0
M  V30 13437 H 1290.99 1.09759 1.29426 0
M  V30 13438 H 1289.76 2.26837 3.18843 0
M  V30 13439 H 1289.38 0.713232 3.91151 0
M  V30 13440 N 1290.38 -1.37203 0.775435 0
M  V30 13441 C 1291.61 -2.04396 0.351737 0
M  V30 13442 C 1292.03 -1.58099 -1.01913 0
M  V30 13443 O 1291.39 -0.742932 -1.65379 0
M  V30 13444 C 1291.44 -3.58283 0.408105 0
M  V30 13445 O 1290.54 -4.08156 -0.590104 0
M  V30 13446 H 1289.88 -0.646451 0.151647 0
M  V30 13447 H 1292.41 -1.75443 1.05265 0
M  V30 13448 H 1292.42 -4.07127 0.266711 0
M  V30 13449 H 1291.1 -3.91335 1.40819 0
M  V30 13450 H 1289.67 -3.70622 -0.411524 0
M  V30 13451 N 1291.86 -0.526279 -1.48553 0
M  V30 13452 C 1293.11 0.0111473 -2.01697 0
M  V30 13453 C 1293.42 1.35675 -1.40895 0
M  V30 13454 O 1294.63 1.98233 -1.85515 0
M  V30 13455 C 1293.08 0.0702721 -3.59831 0
M  V30 13456 C 1292.69 -1.27022 -4.29616 0
M  V30 13457 C 1294.44 0.556722 -4.20834 0
M  V30 13458 C 1292.34 -1.17188 -5.79673 0
M  V30 13459 H 1291.27 0.00793697 -0.753958 0
M  V30 13460 H 1293.92 -0.669503 -1.70851 0
M  V30 13461 H 1292.31 0.81592 -3.87503 0
M  V30 13462 H 1293.48 -2.03114 -4.1362 0
M  V30 13463 H 1291.79 -1.69211 -3.80469 0
M  V30 13464 H 1294.39 0.648205 -5.30756 0
M  V30 13465 H 1294.73 1.56163 -3.859 0
M  V30 13466 H 1295.27 -0.133132 -3.97577 0
M  V30 13467 H 1292.01 -2.15182 -6.19174 0
M  V30 13468 H 1291.53 -0.452259 -5.98093 0
M  V30 13469 H 1293.21 -0.861011 -6.41245 0
M  V30 13470 N 1293.34 1.5542 -0.261239 0
M  V30 13471 C 1294.56 2.04142 0.366144 0
M  V30 13472 C 1294.99 1.13884 1.49706 0
M  V30 13473 O 1294.35 0.134629 1.80799 0
M  V30 13474 C 1294.39 3.50733 0.837774 0
M  V30 13475 O 1293.5 3.63588 1.94621 0
M  V30 13476 H 1292.84 0.659424 0.077821 0
M  V30 13477 H 1295.37 2.0082 -0.391487 0
M  V30 13478 H 1295.38 3.91831 1.13721 0
M  V30 13479 H 1294.05 4.15899 0.0102742 0
M  V30 13480 H 1292.63 3.34391 1.65037 0
M  V30 13481 N 1294.82 -0.0116844 1.57596 0
M  V30 13482 C 1295.76 -1.00684 2.07681 0
M  V30 13483 C 1296.73 -1.34858 0.969666 0
M  V30 13484 O 1297.92 -1.44896 1.24136 0
M  V30 13485 C 1295.06 -2.29729 2.57524 0
M  V30 13486 C 1294.17 -2.0156 3.82096 0
M  V30 13487 C 1293.31 -3.24601 4.20485 0
M  V30 13488 C 1292.34 -2.92066 5.37925 0
M  V30 13489 N 1291.48 -4.0761 5.71663 0
M  V30 13490 H 1296.32 -0.572787 2.92443 0
M  V30 13491 H 1293.86 -0.271184 1.44579 0
M  V30 13492 H 1295.82 -3.05152 2.84496 0
M  V30 13493 H 1294.45 -2.70824 1.75653 0
M  V30 13494 H 1293.5 -1.16556 3.62103 0
M  V30 13495 H 1294.81 -1.73572 4.67626 0
M  V30 13496 H 1293.96 -4.08379 4.48677 0
M  V30 13497 H 1292.7 -3.55718 3.3364 0
M  V30 13498 H 1291.71 -2.06693 5.09468 0
M  V30 13499 H 1292.93 -2.62209 6.26437 0
M  V30 13500 H 1290.88 -4.38645 4.87777 0
M  V30 13501 H 1290.8 -3.83105 6.51741 0
M  V30 13502 H 1292.06 -4.92211 6.04441 0
M  V30 13503 N 1296.29 -1.55015 -0.284256 0
M  V30 13504 C 1297.54 -1.7509 -1.01733 0
M  V30 13505 C 1297.87 -0.545803 -1.86685 0
M  V30 13506 O 1297.12 0.471951 -1.89924 0
M  V30 13507 C 1297.42 -3.00246 -1.93874 0
M  V30 13508 C 1297.09 -4.33295 -1.24764 0
M  V30 13509 C 1295.75 -4.69459 -1.0565 0
M  V30 13510 C 1298.1 -5.15704 -0.754939 0
M  V30 13511 C 1295.43 -5.85596 -0.35976 0
M  V30 13512 C 1297.78 -6.32559 -0.0718473 0
M  V30 13513 C 1296.45 -6.67371 0.131104 0
M  V30 13514 H 1295.72 -0.6407 -0.372269 0
M  V30 13515 H 1298.36 -1.89282 -0.290638 0
M  V30 13516 H 1296.67 -2.80907 -2.73127 0
M  V30 13517 H 1298.37 -3.12974 -2.50696 0
M  V30 13518 H 1294.96 -4.04865 -1.4065 0
M  V30 13519 H 1299.14 -4.8825 -0.89027 0
M  V30 13520 H 1294.4 -6.11099 -0.19169 0
M  V30 13521 H 1298.57 -6.95675 0.317743 0
M  V30 13522 H 1296.2 -7.57215 0.672977 0
M  V30 13523 N 1297.77 0.548248 -1.47757 0
M  V30 13524 C 1298.7 1.66409 -1.63799 0
M  V30 13525 C 1299.68 1.62973 -0.487211 0
M  V30 13526 O 1300.87 1.80455 -0.717612 0
M  V30 13527 C 1298 3.05035 -1.66046 0
M  V30 13528 C 1296.95 3.23322 -2.80441 0
M  V30 13529 C 1296.28 4.62824 -2.67765 0
M  V30 13530 C 1297.58 3.07837 -4.2194 0
M  V30 13531 H 1299.27 1.53239 -2.57212 0
M  V30 13532 H 1296.82 0.735783 -1.23783 0
M  V30 13533 H 1298.77 3.82951 -1.75859 0
M  V30 13534 H 1297.49 3.19185 -0.69199 0
M  V30 13535 H 1296.15 2.47816 -2.70153 0
M  V30 13536 H 1295.8 4.73786 -1.68927 0
M  V30 13537 H 1295.5 4.76007 -3.44515 0
M  V30 13538 H 1297.03 5.42864 -2.7952 0
M  V30 13539 H 1298.44 3.75563 -4.33157 0
M  V30 13540 H 1296.84 3.32525 -4.99547 0
M  V30 13541 H 1297.91 2.04474 -4.3968 0
M  V30 13542 N 1299.25 1.36039 0.795694 0
M  V30 13543 C 1300.18 1.25713 1.91648 0
M  V30 13544 C 1301.19 0.177993 1.61824 0
M  V30 13545 O 1302.38 0.432186 1.73189 0
M  V30 13546 C 1299.48 0.915546 3.26299 0
M  V30 13547 C 1298.66 2.09528 3.83949 0
M  V30 13548 C 1297.72 1.72775 4.97026 0
M  V30 13549 O 1296.74 2.44786 5.13876 0
M  V30 13550 N 1297.94 0.65775 5.76762 0
M  V30 13551 H 1300.71 2.22277 2.01029 0
M  V30 13552 H 1298.27 1.2935 0.973657 0
M  V30 13553 H 1300.26 0.650958 3.9943 0
M  V30 13554 H 1298.83 0.0392343 3.12575 0
M  V30 13555 H 1298.05 2.52304 3.0288 0
M  V30 13556 H 1299.34 2.88361 4.19196 0
M  V30 13557 H 1298.74 0.0596875 5.65669 0
M  V30 13558 H 1297.29 0.45297 6.50224 0
M  V30 13559 N 1300.73 -1.01913 1.20215 0
M  V30 13560 C 1301.98 -1.7547 1.01076 0
M  V30 13561 C 1302.3 -1.89045 -0.457404 0
M  V30 13562 O 1301.56 -1.41121 -1.35585 0
M  V30 13563 C 1301.86 -3.17734 1.63646 0
M  V30 13564 C 1301.52 -3.24143 3.13436 0
M  V30 13565 C 1300.19 -3.25599 3.54315 0
M  V30 13566 C 1302.54 -3.22508 4.09436 0
M  V30 13567 C 1299.87 -3.23089 4.89725 0
M  V30 13568 C 1302.22 -3.21539 5.44789 0
M  V30 13569 C 1300.88 -3.21298 5.85085 0
M  V30 13570 H 1300.15 -0.642092 0.369864 0
M  V30 13571 H 1302.8 -1.19547 1.49602 0
M  V30 13572 H 1301.1 -3.76799 1.07375 0
M  V30 13573 H 1302.8 -3.73338 1.46356 0
M  V30 13574 H 1299.39 -3.23743 2.80871 0
M  V30 13575 H 1303.57 -3.20555 3.7889 0
M  V30 13576 H 1298.83 -3.21231 5.20212 0
M  V30 13577 H 1303 -3.19226 6.18924 0
M  V30 13578 H 1300.63 -3.19107 6.89982 0
M  V30 13579 N 1302.21 -1.00763 -1.2118 0
M  V30 13580 C 1303.14 -0.528468 -2.23024 0
M  V30 13581 C 1304.15 0.384348 -1.58198 0
M  V30 13582 O 1305.34 0.184127 -1.77548 0
M  V30 13583 C 1302.44 0.251693 -3.37964 0
M  V30 13584 C 1301.61 -0.660838 -4.32379 0
M  V30 13585 C 1300.67 0.0701723 -5.26153 0
M  V30 13586 O 1299.7 -0.549355 -5.66543 0
M  V30 13587 N 1300.9 1.34791 -5.64634 0
M  V30 13588 H 1303.67 -1.40428 -2.64764 0
M  V30 13589 H 1301.23 -0.884085 -1.3563 0
M  V30 13590 H 1303.22 0.749746 -3.97694 0
M  V30 13591 H 1301.79 1.02872 -2.95188 0
M  V30 13592 H 1301.01 -1.33934 -3.7075 0
M  V30 13593 H 1302.3 -1.28177 -4.9239 0
M  V30 13594 H 1301.69 1.87232 -5.33817 0
M  V30 13595 H 1300.25 1.79086 -6.26715 0
M  V30 13596 N 1303.68 1.3679 -0.7827 0
M  V30 13597 C 1304.61 2.32721 -0.190604 0
M  V30 13598 C 1305.6 1.56321 0.670663 0
M  V30 13599 O 1306.78 1.84507 0.605871 0
M  V30 13600 C 1303.91 3.40564 0.680717 0
M  V30 13601 C 1302.86 4.27925 -0.080118 0
M  V30 13602 C 1302.19 5.26876 0.911361 0
M  V30 13603 C 1303.49 5.06738 -1.26545 0
M  V30 13604 H 1305.18 2.82488 -0.992023 0
M  V30 13605 H 1302.73 1.35818 -0.478484 0
M  V30 13606 H 1304.68 4.06659 1.10482 0
M  V30 13607 H 1303.41 2.89348 1.51477 0
M  V30 13608 H 1302.07 3.63376 -0.485125 0
M  V30 13609 H 1301.71 4.71936 1.74026 0
M  V30 13610 H 1301.41 5.8619 0.406762 0
M  V30 13611 H 1302.94 5.95846 1.33418 0
M  V30 13612 H 1304.35 5.65911 -0.917448 0
M  V30 13613 H 1302.75 5.75432 -1.70289 0
M  V30 13614 H 1303.82 4.38772 -2.06415 0
M  V30 13615 N 1305.16 0.53415 1.48272 0
M  V30 13616 C 1306.39 0.00574475 2.06899 0
M  V30 13617 C 1306.81 -1.27754 1.39012 0
M  V30 13618 O 1306.16 -1.76102 0.478993 0
M  V30 13619 C 1306.21 -0.217576 3.60845 0
M  V30 13620 O 1305.93 1.01487 4.26183 0
M  V30 13621 C 1307.44 -0.785888 4.36278 0
M  V30 13622 H 1304.66 0.0353967 0.670066 0
M  V30 13623 H 1307.2 0.740984 1.90603 0
M  V30 13624 H 1305.35 -0.902875 3.76732 0
M  V30 13625 H 1305.77 0.7982 5.18391 0
M  V30 13626 H 1307.24 -0.891551 5.44753 0
M  V30 13627 H 1307.72 -1.79178 4.00989 0
M  V30 13628 H 1308.33 -0.137022 4.25079 0
M  V30 13629 N 1306.64 -1.55279 0.269478 0
M  V30 13630 C 1307.89 -1.99767 -0.34943 0
M  V30 13631 C 1308.22 -1.15762 -1.55926 0
M  V30 13632 O 1307.49 -0.22633 -1.93179 0
M  V30 13633 C 1307.78 -3.52474 -0.73716 0
M  V30 13634 C 1307.63 -4.47236 0.479621 0
M  V30 13635 C 1308.95 -4.10924 -1.57573 0
M  V30 13636 H 1306.07 -0.72623 -0.125535 0
M  V30 13637 H 1308.71 -1.86257 0.375298 0
M  V30 13638 H 1306.86 -3.64118 -1.35464 0
M  V30 13639 H 1308.53 -4.47543 1.11816 0
M  V30 13640 H 1306.78 -4.19127 1.11871 0
M  V30 13641 H 1307.45 -5.51754 0.164653 0
M  V30 13642 H 1309.92 -4.02522 -1.05429 0
M  V30 13643 H 1308.8 -5.17995 -1.81584 0
M  V30 13644 H 1309.06 -3.60798 -2.55495 0
M  V30 13645 N 1308.12 0.00332656 -1.576 0
M  V30 13646 C 1309.07 1.01406 -2.09331 0
M  V30 13647 C 1310.06 1.35806 -1.01258 0
M  V30 13648 O 1311.27 1.34409 -1.19726 0
M  V30 13649 H 1307.64 0.344661 -0.668366 0
M  V30 13650 H 1309.61 0.552154 -2.93247 0
M  V30 13651 C 1308.36 2.29819 -2.60918 0
M  V30 13652 H 1307.68 2.04216 -3.43709 0
M  V30 13653 H 1309.12 2.98826 -3.00797 0
M  V30 13654 C 1307.58 3.0057 -1.52182 0
M  V30 13655 O 1308.11 3.91423 -0.902817 0
M  V30 13656 N 1306.32 2.62338 -1.25009 0
M  V30 13657 H 1305.87 1.88538 -1.75531 0
M  V30 13658 H 1305.82 3.0999 -0.524736 0
M  V30 13659 N 1309.6 1.55164 0.276031 0
M  V30 13660 C 1310.84 1.75887 1.00953 0
M  V30 13661 C 1311.18 0.5567 1.8605 0
M  V30 13662 O 1310.45 -0.445799 1.89322 0
M  V30 13663 C 1310.73 3.06228 1.89463 0
M  V30 13664 C 1310.59 4.36795 1.07379 0
M  V30 13665 C 1311.91 3.32589 2.88223 0
M  V30 13666 H 1309.02 0.639929 0.365596 0
M  V30 13667 H 1311.67 1.87893 0.282156 0
M  V30 13668 H 1309.82 2.96124 2.51481 0
M  V30 13669 H 1311.49 4.58853 0.474549 0
M  V30 13670 H 1309.73 4.32157 0.377165 0
M  V30 13671 H 1310.4 5.24315 1.72621 0
M  V30 13672 H 1312.88 3.42467 2.36338 0
M  V30 13673 H 1311.75 4.2506 3.47297 0
M  V30 13674 H 1312.02 2.52083 3.6319 0
M  V30 13675 N 1311.07 -0.540404 1.48045 0
M  V30 13676 C 1312.32 -1.2987 1.55762 0
M  V30 13677 C 1312.65 -1.92877 0.226307 0
M  V30 13678 O 1311.93 -1.7875 -0.766727 0
M  V30 13679 C 1312.21 -2.39602 2.68817 0
M  V30 13680 C 1312.06 -1.81354 4.1162 0
M  V30 13681 C 1313.38 -3.41434 2.77688 0
M  V30 13682 H 1310.5 -0.47083 0.566999 0
M  V30 13683 H 1313.14 -0.603081 1.80175 0
M  V30 13684 H 1311.29 -2.98936 2.48132 0
M  V30 13685 H 1312.97 -1.26151 4.43716 0
M  V30 13686 H 1311.21 -1.1194 4.19108 0
M  V30 13687 H 1311.88 -2.60758 4.86528 0
M  V30 13688 H 1314.36 -2.92042 2.96396 0
M  V30 13689 H 1313.23 -4.15621 3.5854 0
M  V30 13690 H 1313.49 -4.01336 1.85422 0
M  V30 13691 N 1312.55 -1.36459 -0.788468 0
M  V30 13692 C 1313.52 -1.3071 -1.88275 0
M  V30 13693 C 1314.52 -0.214596 -1.59362 0
M  V30 13694 O 1315.71 -0.469437 -1.67756 0
M  V30 13695 C 1312.84 -1.02648 -3.25079 0
M  V30 13696 H 1314.03 -2.28029 -1.94788 0
M  V30 13697 H 1311.58 -1.21245 -0.986375 0
M  V30 13698 H 1312.32 -0.0578992 -3.24248 0
M  V30 13699 H 1312.1 -1.81708 -3.47454 0
M  V30 13700 H 1313.59 -1.01233 -4.05144 0
M  V30 13701 N 1314.03 1.01274 -1.20754 0
M  V30 13702 C 1315.28 1.75191 -1.02156 0
M  V30 13703 C 1315.61 1.89038 0.444791 0
M  V30 13704 O 1314.88 1.41903 1.33018 0
M  V30 13705 C 1315.17 3.16892 -1.71031 0
M  V30 13706 C 1315.02 3.10816 -3.25136 0
M  V30 13707 C 1316.34 4.15648 -1.44654 0
M  V30 13708 H 1313.46 0.635922 -0.372521 0
M  V30 13709 H 1316.1 1.18119 -1.48822 0
M  V30 13710 H 1314.25 3.6562 -1.31357 0
M  V30 13711 H 1315.92 2.69863 -3.74128 0
M  V30 13712 H 1314.17 2.48113 -3.5584 0
M  V30 13713 H 1314.84 4.11001 -3.68487 0
M  V30 13714 H 1317.31 3.75592 -1.7908 0
M  V30 13715 H 1316.19 5.12954 -1.95371 0
M  V30 13716 H 1316.45 4.40507 -0.37494 0
M  V30 13717 N 1315.51 1.01404 1.20644 0
M  V30 13718 C 1316.76 0.697244 1.89265 0
M  V30 13719 C 1317.07 -0.776149 1.79542 0
M  V30 13720 O 1318.28 -1.2054 2.43274 0
M  V30 13721 C 1316.73 1.19672 3.39421 0
M  V30 13722 C 1316.34 2.69683 3.57736 0
M  V30 13723 C 1318.09 0.955225 4.13613 0
M  V30 13724 C 1315.99 3.13124 5.01704 0
M  V30 13725 H 1314.92 0.257105 0.708811 0
M  V30 13726 H 1317.57 1.22639 1.36499 0
M  V30 13727 H 1315.96 0.595562 3.91496 0
M  V30 13728 H 1317.13 3.35326 3.16059 0
M  V30 13729 H 1315.44 2.91946 2.96911 0
M  V30 13730 H 1318.04 1.25524 5.19757 0
M  V30 13731 H 1318.38 -0.108362 4.16159 0
M  V30 13732 H 1318.92 1.51962 3.67631 0
M  V30 13733 H 1315.66 4.18748 5.04311 0
M  V30 13734 H 1315.18 2.522 5.44201 0
M  V30 13735 H 1316.86 3.05617 5.70269 0
M  V30 13736 N 1316.99 -1.36373 0.789944 0
M  V30 13737 C 1318.23 -1.99523 0.363119 0
M  V30 13738 C 1318.57 -1.6255 -1.0626 0
M  V30 13739 O 1317.84 -0.880551 -1.73426 0
M  V30 13740 C 1318.12 -3.56215 0.527526 0
M  V30 13741 C 1317.98 -4.0304 1.99697 0
M  V30 13742 C 1319.3 -4.40063 -0.0571079 0
M  V30 13743 H 1316.42 -0.724824 0.133412 0
M  V30 13744 H 1319.06 -1.61778 0.996381 0
M  V30 13745 H 1317.21 -3.88498 -0.0115636 0
M  V30 13746 H 1318.88 -3.81241 2.59717 0
M  V30 13747 H 1317.12 -3.54561 2.49939 0
M  V30 13748 H 1317.79 -5.12001 2.06297 0
M  V30 13749 H 1320.27 -4.14143 0.403082 0
M  V30 13750 H 1319.15 -5.4883 0.0879494 0
M  V30 13751 H 1319.41 -4.26901 -1.14926 0
M  V30 13752 N 1318.47 -0.542005 -1.47987 0
M  V30 13753 C 1319.43 0.203537 -2.28294 0
M  V30 13754 C 1320.43 0.856762 -1.36074 0
M  V30 13755 O 1321.62 0.71496 -1.58852 0
M  V30 13756 C 1318.75 1.29581 -3.15312 0
M  V30 13757 H 1319.94 -0.501701 -2.95674 0
M  V30 13758 H 1317.5 -0.298378 -1.53426 0
M  V30 13759 H 1318.23 2.03393 -2.5259 0
M  V30 13760 H 1318.02 0.832398 -3.83163 0
M  V30 13761 H 1319.51 1.81988 -3.75859 0
M  V30 13762 N 1319.94 1.55134 -0.277709 0
M  V30 13763 C 1321.19 1.99654 0.33833 0
M  V30 13764 C 1321.52 1.16612 1.55666 0
M  V30 13765 O 1320.77 0.224428 1.94409 0
M  V30 13766 C 1321.07 3.49182 0.762028 0
M  V30 13767 C 1320.74 4.49524 -0.351958 0
M  V30 13768 C 1319.4 4.76682 -0.657833 0
M  V30 13769 C 1321.75 5.09406 -1.10247 0
M  V30 13770 C 1319.08 5.6099 -1.71776 0
M  V30 13771 C 1321.43 5.94866 -2.15214 0
M  V30 13772 C 1320.1 6.20344 -2.46434 0
M  V30 13773 H 1319.37 0.730584 0.123804 0
M  V30 13774 H 1322.01 1.87446 -0.391961 0
M  V30 13775 H 1320.32 3.58879 1.57204 0
M  V30 13776 H 1322.02 3.81037 1.24947 0
M  V30 13777 H 1318.61 4.28475 -0.103438 0
M  V30 13778 H 1322.79 4.88446 -0.879422 0
M  V30 13779 H 1318.05 5.78975 -1.96463 0
M  V30 13780 H 1322.22 6.403 -2.73842 0
M  V30 13781 H 1319.85 6.85464 -3.28699 0
M  V30 13782 N 1321.42 0.00503138 1.57599 0
M  V30 13783 C 1322.65 -0.689609 1.95069 0
M  V30 13784 C 1323.06 -1.67028 0.880183 0
M  V30 13785 O 1322.42 -1.81959 -0.140406 0
M  V30 13786 C 1322.47 -1.41709 3.32567 0
M  V30 13787 O 1322.19 -0.475746 4.35509 0
M  V30 13788 C 1323.69 -2.20578 3.84526 0
M  V30 13789 H 1320.91 -0.19175 0.643019 0
M  V30 13790 H 1323.46 0.057646 2.04419 0
M  V30 13791 H 1321.61 -2.11593 3.2451 0
M  V30 13792 H 1322.03 -0.989573 5.1508 0
M  V30 13793 H 1323.5 -2.66969 4.83148 0
M  V30 13794 H 1323.98 -3.03467 3.17497 0
M  V30 13795 H 1324.58 -1.557 3.95775 0
M  V30 13796 N 1322.9 -1.55308 -0.267798 0
M  V30 13797 C 1324.15 -1.75811 -0.996734 0
M  V30 13798 C 1324.47 -0.565161 -1.8663 0
M  V30 13799 O 1323.74 0.419775 -1.9135 0
M  V30 13800 H 1322.32 -0.648353 -0.371008 0
M  V30 13801 H 1324.98 -1.92719 -0.290775 0
M  V30 13802 H 1324.08 -2.66113 -1.63064 0
M  V30 13803 N 1324.38 0.532545 -1.4833 0
M  V30 13804 C 1325.34 1.61955 -1.62183 0
M  V30 13805 C 1326.34 1.52982 -0.495281 0
M  V30 13806 O 1327.53 1.56698 -0.761005 0
M  V30 13807 C 1324.66 3.0157 -1.58961 0
M  V30 13808 H 1325.86 1.51013 -2.59105 0
M  V30 13809 H 1323.41 0.754405 -1.36888 0
M  V30 13810 H 1324.14 3.18021 -0.635069 0
M  V30 13811 H 1323.93 3.09491 -2.40744 0
M  V30 13812 H 1325.42 3.80604 -1.71843 0
M  V30 13813 N 1325.86 1.36875 0.78122 0
M  V30 13814 C 1327.1 1.32949 1.55254 0
M  V30 13815 C 1327.46 -0.0879862 1.91798 0
M  V30 13816 O 1328.66 -0.251878 2.67617 0
M  V30 13817 C 1326.93 2.23382 2.78989 0
M  V30 13818 S 1328.49 2.37218 3.69152 0
M  V30 13819 H 1325.31 0.472105 0.531637 0
M  V30 13820 H 1327.91 1.72529 0.91945 0
M  V30 13821 H 1326.61 3.25307 2.50207 0
M  V30 13822 H 1326.15 1.84852 3.47266 0
M  V30 13823 H 1328.16 1.57575 4.70515 0
M  V30 13824 N 1327.33 -1.00632 1.21289 0
M  V30 13825 C 1328.58 -1.73802 1.02351 0
M  V30 13826 C 1328.9 -1.90503 -0.443611 0
M  V30 13827 O 1330.1 -2.60868 -0.752356 0
M  V30 13828 C 1328.56 -3.12647 1.78269 0
M  V30 13829 C 1328.17 -3.03923 3.29142 0
M  V30 13830 C 1329.91 -3.89956 1.67735 0
M  V30 13831 C 1327.82 -4.3784 3.97556 0
M  V30 13832 H 1326.75 -0.651616 0.379358 0
M  V30 13833 H 1329.4 -1.12446 1.45011 0
M  V30 13834 H 1327.78 -3.74605 1.28401 0
M  V30 13835 H 1328.95 -2.51211 3.86303 0
M  V30 13836 H 1327.27 -2.40103 3.40205 0
M  V30 13837 H 1329.87 -4.89051 2.1618 0
M  V30 13838 H 1330.21 -4.11423 0.635338 0
M  V30 13839 H 1330.74 -3.34647 2.15072 0
M  V30 13840 H 1327.48 -4.21573 5.01952 0
M  V30 13841 H 1327 -4.90518 3.45184 0
M  V30 13842 H 1328.68 -5.06644 4.02393 0
M  V30 13843 N 1328.81 -1.02043 -1.20104 0
M  V30 13844 C 1330.04 -0.731315 -1.93544 0
M  V30 13845 C 1330.45 0.708582 -1.74999 0
M  V30 13846 O 1329.81 1.481 -1.06642 0
M  V30 13847 C 1329.86 -1.06233 -3.45538 0
M  V30 13848 O 1329.58 -2.44568 -3.63481 0
M  V30 13849 C 1331.08 -0.794818 -4.36116 0
M  V30 13850 H 1328.3 -0.268248 -0.615048 0
M  V30 13851 H 1330.85 -1.36264 -1.52488 0
M  V30 13852 H 1329 -0.476341 -3.8446 0
M  V30 13853 H 1329.42 -2.5663 -4.57429 0
M  V30 13854 H 1330.89 -1.07647 -5.41402 0
M  V30 13855 H 1331.37 0.270944 -4.38363 0
M  V30 13856 H 1331.97 -1.36314 -4.02863 0
M  V30 13857 N 1330.29 1.35952 -0.797165 0
M  V30 13858 C 1331.22 2.28649 -0.15877 0
M  V30 13859 C 1332.24 1.49842 0.636481 0
M  V30 13860 O 1333.42 1.72191 0.47039 0
M  V30 13861 C 1330.52 3.29373 0.797913 0
M  V30 13862 C 1329.7 4.3737 0.0510574 0
M  V30 13863 C 1328.76 5.18009 0.924826 0
M  V30 13864 O 1327.78 5.67935 0.379223 0
M  V30 13865 N 1328.98 5.352 2.24813 0
M  V30 13866 H 1331.75 2.84075 -0.955056 0
M  V30 13867 H 1329.31 1.48201 -0.651767 0
M  V30 13868 H 1331.3 3.80209 1.38646 0
M  V30 13869 H 1329.87 2.74531 1.49504 0
M  V30 13870 H 1329.09 3.87594 -0.718633 0
M  V30 13871 H 1330.38 5.0668 -0.464025 0
M  V30 13872 H 1329.78 4.96266 2.71545 0
M  V30 13873 H 1328.34 5.89252 2.78614 0
M  V30 13874 N 1331.77 0.549846 1.47697 0
M  V30 13875 C 1333.05 -0.0422793 1.95554 0
M  V30 13876 C 1333.43 -1.49303 1.49238 0
M  V30 13877 O 1332.77 -2.16598 0.727844 0
M  V30 13878 C 1332.98 0.0955552 3.48869 0
M  V30 13879 C 1334.33 -0.0535698 4.24566 0
M  V30 13880 O 1335.36 0.0227365 3.56193 0
M  V30 13881 O 1334.21 -0.21645 5.46071 0
M  V30 13882 H 1331.31 -0.0682465 0.824179 0
M  V30 13883 H 1333.85 0.615849 1.58131 0
M  V30 13884 H 1332.63 1.10536 3.75363 0
M  V30 13885 H 1332.25 -0.600522 3.93039 0
M  V30 13886 N 1333.25 -1.54984 0.285932 0
M  V30 13887 C 1334.47 -2.04699 -0.333621 0
M  V30 13888 C 1334.9 -1.16252 -1.47875 0
M  V30 13889 O 1334.25 -0.163376 -1.80562 0
M  V30 13890 C 1334.3 -3.52022 -0.78187 0
M  V30 13891 O 1333.41 -3.66639 -1.88812 0
M  V30 13892 H 1332.75 -0.660579 -0.0673203 0
M  V30 13893 H 1335.28 -2.00171 0.423386 0
M  V30 13894 H 1335.29 -3.93591 -1.07473 0
M  V30 13895 H 1333.96 -4.15862 0.055893 0
M  V30 13896 H 1332.54 -3.36974 -1.59696 0
M  V30 13897 N 1334.72 -0.0133892 -1.57594 0
M  V30 13898 C 1336.14 0.527615 -1.7909 0
M  V30 13899 C 1336.49 1.73179 -0.922142 0
M  V30 13900 O 1335.61 2.1602 -0.128233 0
M  V30 13901 C 1336.21 0.963949 -3.24798 0
M  V30 13902 C 1334.77 1.45017 -3.47343 0
M  V30 13903 C 1333.91 0.407548 -2.74289 0
M  V30 13904 H 1336.86 -0.239505 -1.56882 0
M  V30 13905 H 1336.88 1.82924 -3.33645 0
M  V30 13906 H 1336.4 0.0873315 -3.88002 0
M  V30 13907 H 1334.5 2.34724 -2.89371 0
M  V30 13908 H 1334.61 1.4684 -4.56043 0
M  V30 13909 H 1332.97 0.872174 -2.39301 0
M  V30 13910 H 1333.76 -0.460333 -3.402 0
M  V30 13911 N 1336.2 1.55448 0.259558 0
M  V30 13912 C 1337.13 1.9226 1.32508 0
M  V30 13913 C 1338.11 0.786012 1.5085 0
M  V30 13914 O 1339.3 1.04526 1.6367 0
M  V30 13915 C 1336.43 2.20627 2.68218 0
M  V30 13916 C 1335.38 3.36418 2.64589 0
M  V30 13917 C 1334.71 3.50295 4.03977 0
M  V30 13918 C 1336.01 4.72452 2.2268 0
M  V30 13919 H 1337.7 2.81509 1.01945 0
M  V30 13920 H 1335.25 1.35444 0.488965 0
M  V30 13921 H 1337.2 2.44968 3.42883 0
M  V30 13922 H 1335.93 1.28191 3.00391 0
M  V30 13923 H 1334.58 3.12065 1.92382 0
M  V30 13924 H 1334.23 2.55302 4.33394 0
M  V30 13925 H 1333.93 4.28155 4.02439 0
M  V30 13926 H 1335.46 3.76944 4.8036 0
M  V30 13927 H 1336.87 4.96249 2.87071 0
M  V30 13928 H 1335.27 5.53323 2.32279 0
M  V30 13929 H 1336.34 4.70367 1.17826 0
M  V30 13930 N 1337.68 -0.524672 1.4861 0
M  V30 13931 C 1338.63 -1.62872 1.63527 0
M  V30 13932 C 1339.6 -1.59097 0.477202 0
M  V30 13933 O 1340.78 -1.77443 0.701341 0
M  V30 13934 C 1337.92 -3.01116 1.68592 0
M  V30 13935 C 1337.04 -3.15085 2.95542 0
M  V30 13936 C 1336.17 -4.4392 2.91734 0
M  V30 13937 C 1335.21 -4.51436 4.13366 0
M  V30 13938 N 1334.35 -5.71667 4.07605 0
M  V30 13939 H 1339.19 -1.49462 2.57808 0
M  V30 13940 H 1336.72 -0.727578 1.27846 0
M  V30 13941 H 1338.68 -3.81212 1.6951 0
M  V30 13942 H 1337.31 -3.13285 0.777975 0
M  V30 13943 H 1336.36 -2.28207 3.04345 0
M  V30 13944 H 1337.68 -3.165 3.85524 0
M  V30 13945 H 1336.83 -5.32312 2.91083 0
M  V30 13946 H 1335.57 -4.45034 1.9949 0
M  V30 13947 H 1334.57 -3.6145 4.14287 0
M  V30 13948 H 1335.8 -4.52057 5.06776 0
M  V30 13949 H 1333.74 -5.73668 3.18184 0
M  V30 13950 H 1333.66 -5.74599 4.91297 0
M  V30 13951 H 1334.93 -6.62331 4.1102 0
M  V30 13952 N 1339.16 -1.37287 -0.77395 0
M  V30 13953 C 1340.12 -1.32699 -1.86878 0
M  V30 13954 C 1341.12 -0.231486 -1.59125 0
M  V30 13955 O 1342.31 -0.487203 -1.67248 0
M  V30 13956 C 1339.44 -1.0609 -3.23972 0
M  V30 13957 H 1340.64 -2.30083 -1.92359 0
M  V30 13958 H 1338.19 -1.22284 -0.973459 0
M  V30 13959 H 1338.92 -0.0922868 -3.24169 0
M  V30 13960 H 1338.71 -1.85383 -3.45508 0
M  V30 13961 H 1340.2 -1.05524 -4.04048 0
M  V30 13962 N 1340.64 0.999871 -1.21821 0
M  V30 13963 C 1341.88 1.74098 -1.04009 0
M  V30 13964 C 1342.22 1.89499 0.424716 0
M  V30 13965 O 1341.49 1.43306 1.31505 0
M  V30 13966 C 1341.77 3.1506 -1.74382 0
M  V30 13967 C 1341.63 3.0735 -3.28414 0
M  V30 13968 C 1342.95 4.1409 -1.49055 0
M  V30 13969 H 1340.06 0.631935 -0.379245 0
M  V30 13970 H 1342.71 1.16534 -1.50066 0
M  V30 13971 H 1340.86 3.64206 -1.35227 0
M  V30 13972 H 1342.53 2.65879 -3.76969 0
M  V30 13973 H 1340.77 2.44325 -3.58452 0
M  V30 13974 H 1341.44 4.07069 -3.72825 0
M  V30 13975 H 1343.92 3.73672 -1.83054 0
M  V30 13976 H 1342.79 5.10853 -2.008 0
M  V30 13977 H 1343.06 4.40085 -0.421641 0
M  V30 13978 N 1342.11 1.02678 1.19562 0
M  V30 13979 C 1343.05 0.563882 2.22155 0
M  V30 13980 C 1344.06 -0.359132 1.58789 0
M  V30 13981 O 1345.25 -0.155857 1.77818 0
M  V30 13982 C 1342.35 -0.197894 3.38322 0
M  V30 13983 C 1341.52 0.729542 4.31273 0
M  V30 13984 C 1340.58 0.013543 5.26198 0
M  V30 13985 O 1339.61 0.639417 5.65597 0
M  V30 13986 N 1340.81 -1.25791 5.66707 0
M  V30 13987 H 1343.57 1.44623 2.62496 0
M  V30 13988 H 1341.13 0.90555 1.34207 0
M  V30 13989 H 1343.13 -0.686381 3.98837 0
M  V30 13990 H 1341.7 -0.981632 2.96787 0
M  V30 13991 H 1340.92 1.39816 3.68572 0
M  V30 13992 H 1342.2 1.35994 4.90289 0
M  V30 13993 H 1341.6 -1.78716 5.36728 0
M  V30 13994 H 1340.16 -1.69093 6.29485 0
M  V30 13995 N 1343.59 -1.35528 0.804364 0
M  V30 13996 C 1344.53 -2.27647 0.158767 0
M  V30 13997 C 1345.5 -1.47976 -0.673942 0
M  V30 13998 O 1346.69 -1.77241 -0.641703 0
M  V30 13999 C 1343.81 -3.29597 -0.779973 0
M  V30 14000 C 1342.86 -4.26491 -0.0271676 0
M  V30 14001 S 1343.69 -5.19296 1.30736 0
M  V30 14002 C 1344.85 -6.24788 0.373003 0
M  V30 14003 H 1345.08 -2.82055 0.939805 0
M  V30 14004 H 1342.62 -1.42294 0.599313 0
M  V30 14005 H 1344.57 -3.88831 -1.31609 0
M  V30 14006 H 1343.23 -2.74072 -1.53438 0
M  V30 14007 H 1342.43 -4.98537 -0.740059 0
M  V30 14008 H 1342.03 -3.71415 0.438923 0
M  V30 14009 H 1344.32 -6.76053 -0.442566 0
M  V30 14010 H 1345.26 -7.00082 1.06258 0
M  V30 14011 H 1345.67 -5.64492 -0.0303131 0
M  V30 14012 N 1345.07 -0.557671 -1.47404 0
M  V30 14013 C 1346 0.178019 -2.3282 0
M  V30 14014 C 1346.98 0.908318 -1.43818 0
M  V30 14015 O 1348.17 0.888693 -1.72673 0
M  V30 14016 C 1345.3 1.2082 -3.25607 0
M  V30 14017 C 1344.25 0.594335 -4.23853 0
M  V30 14018 C 1343.58 1.72919 -5.05968 0
M  V30 14019 C 1344.88 -0.452196 -5.20339 0
M  V30 14020 H 1346.57 -0.535091 -2.9458 0
M  V30 14021 H 1344.12 -0.258775 -1.41656 0
M  V30 14022 H 1346.07 1.73104 -3.84204 0
M  V30 14023 H 1344.79 1.95126 -2.61903 0
M  V30 14024 H 1343.45 0.0927898 -3.66483 0
M  V30 14025 H 1343.1 2.4613 -4.38668 0
M  V30 14026 H 1342.8 1.32422 -5.72484 0
M  V30 14027 H 1344.33 2.25527 -5.67424 0
M  V30 14028 H 1345.74 -0.0154011 -5.73298 0
M  V30 14029 H 1344.14 -0.776068 -5.95061 0
M  V30 14030 H 1345.21 -1.34791 -4.65789 0
M  V30 14031 N 1346.55 1.54831 -0.294147 0
M  V30 14032 C 1347.8 2.01016 0.310506 0
M  V30 14033 C 1348.15 1.17894 1.52049 0
M  V30 14034 O 1347.44 0.245603 1.90019 0
M  V30 14035 C 1347.64 3.4997 0.72495 0
M  V30 14036 C 1347.47 4.47509 -0.443325 0
M  V30 14037 C 1346.24 4.96609 -0.93317 0
M  V30 14038 C 1348.43 4.97961 -1.28606 0
M  V30 14039 N 1346.42 5.77987 -2.06892 0
M  V30 14040 C 1347.79 5.76973 -2.26941 0
M  V30 14041 C 1349.84 4.8016 -1.31722 0
M  V30 14042 C 1348.55 6.40081 -3.28159 0
M  V30 14043 C 1350.57 5.44082 -2.31795 0
M  V30 14044 C 1349.93 6.22921 -3.2886 0
M  V30 14045 H 1346.03 0.778073 0.0782699 0
M  V30 14046 H 1348.62 1.90061 -0.422504 0
M  V30 14047 H 1346.79 3.6123 1.42715 0
M  V30 14048 H 1348.52 3.82961 1.30856 0
M  V30 14049 H 1345.27 4.70854 -0.509283 0
M  V30 14050 H 1345.7 6.23362 -2.64099 0
M  V30 14051 H 1350.34 4.18795 -0.580536 0
M  V30 14052 H 1348.06 7.00584 -4.0275 0
M  V30 14053 H 1351.64 5.3224 -2.34971 0
M  V30 14054 H 1350.52 6.71507 -4.05029 0
M  V30 14055 N 1348.03 0.0217466 1.57585 0
M  V30 14056 C 1349.27 -0.659463 1.91778 0
M  V30 14057 C 1349.61 -1.72201 0.897801 0
M  V30 14058 O 1348.88 -1.94333 -0.080509 0
M  V30 14059 C 1349.16 -1.28269 3.36481 0
M  V30 14060 C 1349.02 -0.230201 4.49211 0
M  V30 14061 C 1350.34 -2.20279 3.81005 0
M  V30 14062 H 1347.46 -0.238263 0.697424 0
M  V30 14063 H 1350.1 0.0774967 1.89842 0
M  V30 14064 H 1348.25 -1.9108 3.38262 0
M  V30 14065 H 1349.92 0.399901 4.59563 0
M  V30 14066 H 1348.16 0.445157 4.3151 0
M  V30 14067 H 1348.83 -0.705732 5.4747 0
M  V30 14068 H 1351.31 -1.67463 3.80914 0
M  V30 14069 H 1350.19 -2.60842 4.82962 0
M  V30 14070 H 1350.45 -3.09092 3.16093 0
M  V30 14071 N 1349.51 -1.55583 -0.251311 0
M  V30 14072 C 1350.45 -1.90764 -1.33086 0
M  V30 14073 C 1351.45 -0.786236 -1.50049 0
M  V30 14074 O 1352.65 -0.97081 -1.51576 0
M  V30 14075 H 1349.03 -0.605795 -0.445551 0
M  V30 14076 H 1351 -2.80903 -1.00678 0
M  V30 14077 C 1349.75 -2.21499 -2.68018 0
M  V30 14078 H 1349.07 -3.07287 -2.55763 0
M  V30 14079 H 1350.51 -2.50021 -3.42441 0
M  V30 14080 C 1348.97 -1.02983 -3.20774 0
M  V30 14081 O 1349.5 -0.275557 -4.00754 0
M  V30 14082 N 1347.71 -0.821649 -2.78742 0
M  V30 14083 H 1347.25 -1.43672 -2.13813 0
M  V30 14084 H 1347.21 -0.0303445 -3.14385 0
M  V30 14085 N 1350.98 0.516783 -1.48886 0
M  V30 14086 C 1351.91 1.62897 -1.67292 0
M  V30 14087 C 1352.89 1.61903 -0.521671 0
M  V30 14088 O 1354.08 1.78892 -0.755728 0
M  V30 14089 C 1351.21 3.01444 -1.72478 0
M  V30 14090 C 1350.16 3.173 -2.87236 0
M  V30 14091 C 1349.49 4.5704 -2.77522 0
M  V30 14092 C 1350.79 2.98818 -4.28375 0
M  V30 14093 H 1352.48 1.47748 -2.60405 0
M  V30 14094 H 1350.03 0.709361 -1.25316 0
M  V30 14095 H 1351.98 3.79135 -1.83942 0
M  V30 14096 H 1350.71 3.17645 -0.759538 0
M  V30 14097 H 1349.37 2.4203 -2.75349 0
M  V30 14098 H 1349.01 4.70096 -1.78938 0
M  V30 14099 H 1348.71 4.68593 -3.54534 0
M  V30 14100 H 1350.24 5.36813 -2.90972 0
M  V30 14101 H 1351.65 3.66291 -4.41026 0
M  V30 14102 H 1350.05 3.21854 -5.06488 0
M  V30 14103 H 1351.12 1.95102 -4.43918 0
M  V30 14104 N 1352.46 1.37696 0.766659 0
M  V30 14105 C 1353.71 1.32507 1.52069 0
M  V30 14106 C 1354.02 -0.0864967 1.95409 0
M  V30 14107 O 1355.23 -0.260877 2.70244 0
M  V30 14108 C 1353.69 2.32614 2.74625 0
M  V30 14109 C 1353.29 3.79325 2.38363 0
M  V30 14110 C 1355.04 2.36445 3.52554 0
M  V30 14111 C 1352.94 4.7115 3.57451 0
M  V30 14112 H 1351.87 0.492491 0.570937 0
M  V30 14113 H 1354.53 1.63183 0.839268 0
M  V30 14114 H 1352.91 1.94963 3.44682 0
M  V30 14115 H 1354.08 4.25841 1.76056 0
M  V30 14116 H 1352.4 3.78488 1.73597 0
M  V30 14117 H 1354.99 3.02252 4.41076 0
M  V30 14118 H 1355.34 1.37953 3.92778 0
M  V30 14119 H 1355.87 2.72829 2.89498 0
M  V30 14120 H 1352.61 5.70789 3.22304 0
M  V30 14121 H 1352.13 4.29335 4.18846 0
M  V30 14122 H 1353.81 4.88532 4.242 0
M  V30 14123 N 1353.94 -0.993397 1.22349 0
M  V30 14124 C 1354.87 -2.08104 0.936383 0
M  V30 14125 C 1355.85 -1.62153 -0.120505 0
M  V30 14126 O 1357.03 -1.88497 0.0109719 0
M  V30 14127 C 1354.16 -3.36231 0.408225 0
M  V30 14128 C 1353.21 -4.01105 1.44971 0
M  V30 14129 S 1354.04 -4.42021 3.02287 0
M  V30 14130 C 1355.2 -5.7332 2.51108 0
M  V30 14131 H 1355.43 -2.32137 1.8574 0
M  V30 14132 H 1352.96 -1.12781 1.05451 0
M  V30 14133 H 1354.92 -4.10352 0.110086 0
M  V30 14134 H 1353.58 -3.10228 -0.49167 0
M  V30 14135 H 1352.77 -4.93362 1.03003 0
M  V30 14136 H 1352.38 -3.33307 1.69653 0
M  V30 14137 H 1354.67 -6.49631 1.92317 0
M  V30 14138 H 1355.61 -6.20115 3.41853 0
M  V30 14139 H 1356.02 -5.30696 1.9241 0
M  V30 14140 N 1355.42 -1.03311 -1.19015 0
M  V30 14141 C 1356.69 -0.646539 -1.84606 0
M  V30 14142 C 1357.07 0.87449 -1.92135 0
M  V30 14143 O 1356.42 1.77291 -1.44154 0
M  V30 14144 C 1356.63 -1.31354 -3.23338 0
M  V30 14145 C 1357.98 -1.43949 -3.99455 0
M  V30 14146 O 1359 -1.27104 -3.32751 0
M  V30 14147 O 1357.86 -1.71328 -5.1895 0
M  V30 14148 H 1354.96 -0.225267 -0.795728 0
M  V30 14149 H 1357.5 -1.13152 -1.2647 0
M  V30 14150 H 1356.28 -2.3521 -3.12717 0
M  V30 14151 H 1355.9 -0.816688 -3.89122 0
M  V30 14152 N 1356.9 1.35099 -0.81154 0
M  V30 14153 C 1358.12 2.0286 -0.406855 0
M  V30 14154 C 1358.54 1.61147 0.98372 0
M  V30 14155 O 1357.9 0.811398 1.6347 0
M  V30 14156 C 1357.95 3.58214 -0.486305 0
M  V30 14157 O 1357.67 3.98412 -1.82206 0
M  V30 14158 C 1359.17 4.43236 -0.0750619 0
M  V30 14159 H 1356.39 0.650482 -0.164664 0
M  V30 14160 H 1358.93 1.72616 -1.09654 0
M  V30 14161 H 1357.09 3.87089 0.155177 0
M  V30 14162 H 1357.5 4.93072 -1.78831 0
M  V30 14163 H 1358.98 5.51701 -0.181759 0
M  V30 14164 H 1359.45 4.28123 0.980169 0
M  V30 14165 H 1360.06 4.19667 -0.689894 0
M  V30 14166 N 1358.37 0.56548 1.47106 0
M  V30 14167 C 1359.62 0.0445255 2.02451 0
M  V30 14168 C 1359.95 -1.30863 1.43893 0
M  V30 14169 O 1359.2 -1.8668 0.587274 0
M  V30 14170 C 1359.5 -0.0893776 3.57288 0
M  V30 14171 C 1359.17 1.19395 4.34805 0
M  V30 14172 C 1357.83 1.54558 4.55703 0
M  V30 14173 C 1360.18 2.04399 4.79448 0
M  V30 14174 C 1357.51 2.74557 5.18494 0
M  V30 14175 C 1359.86 3.23608 5.43563 0
M  V30 14176 C 1358.53 3.59074 5.62692 0
M  V30 14177 H 1357.8 0.016293 0.740821 0
M  V30 14178 H 1360.44 0.738657 1.76681 0
M  V30 14179 H 1358.75 -0.86653 3.82097 0
M  V30 14180 H 1360.45 -0.507943 3.9777 0
M  V30 14181 H 1357.04 0.910176 4.18824 0
M  V30 14182 H 1361.22 1.78539 4.63074 0
M  V30 14183 H 1356.48 3.02194 5.31497 0
M  V30 14184 H 1360.65 3.89755 5.77117 0
M  V30 14185 H 1358.28 4.5215 6.11117 0
M  V30 14186 N 1359.85 -1.54672 0.302354 0
M  V30 14187 C 1360.82 -2.22246 -0.560283 0
M  V30 14188 C 1361.82 -1.20895 -1.06023 0
M  V30 14189 O 1363.01 -1.45621 -0.956047 0
M  V30 14190 C 1360.14 -2.9099 -1.77589 0
M  V30 14191 H 1361.33 -2.99885 0.0301274 0
M  V30 14192 H 1358.88 -1.56209 0.0532036 0
M  V30 14193 H 1359.62 -2.17433 -2.4061 0
M  V30 14194 H 1359.4 -3.65288 -1.42503 0
M  V30 14195 H 1360.89 -3.42535 -2.38871 0
M  V30 14196 N 1361.33 -0.0301034 -1.57571 0
M  V30 14197 C 1362.56 0.662045 -1.9655 0
M  V30 14198 C 1362.98 1.64811 -0.906581 0
M  V30 14199 O 1362.34 1.80816 0.132415 0
M  V30 14200 C 1362.39 1.34389 -3.34622 0
M  V30 14201 O 1361.49 2.45919 -3.31056 0
M  V30 14202 H 1360.83 0.173842 -0.640839 0
M  V30 14203 H 1363.36 -0.092248 -2.04392 0
M  V30 14204 H 1363.37 1.70045 -3.70875 0
M  V30 14205 H 1362.05 0.621092 -4.11236 0
M  V30 14206 H 1360.62 2.12367 -3.06521 0
M  V30 14207 N 1362.81 1.55714 0.243056 0
M  V30 14208 C 1363.74 1.93655 1.30461 0
M  V30 14209 C 1364.72 0.801968 1.50008 0
M  V30 14210 O 1365.9 1.06256 1.62552 0
M  V30 14211 C 1363.03 2.23459 2.65863 0
M  V30 14212 C 1361.99 3.39205 2.61006 0
M  V30 14213 C 1361.31 3.5456 4.00239 0
M  V30 14214 C 1362.61 4.74787 2.17656 0
M  V30 14215 H 1364.31 2.82575 0.98954 0
M  V30 14216 H 1361.85 1.35955 0.474572 0
M  V30 14217 H 1363.81 2.48591 3.40266 0
M  V30 14218 H 1362.53 1.31369 2.99014 0
M  V30 14219 H 1361.19 3.14088 1.89061 0
M  V30 14220 H 1360.84 2.59884 4.30661 0
M  V30 14221 H 1360.54 4.32399 3.97876 0
M  V30 14222 H 1362.06 3.82017 4.76335 0
M  V30 14223 H 1363.48 4.99266 2.81792 0
M  V30 14224 H 1361.87 5.55756 2.26397 0
M  V30 14225 H 1362.94 4.7159 1.12831 0
M  V30 14226 N 1364.29 -0.50888 1.49158 0
M  V30 14227 C 1365.25 -1.59354 1.64739 0
M  V30 14228 C 1366.25 -1.52175 0.519557 0
M  V30 14229 O 1367.44 -1.55468 0.785838 0
M  V30 14230 C 1364.57 -2.99002 1.63739 0
M  V30 14231 H 1365.76 -1.46871 2.61474 0
M  V30 14232 H 1363.32 -0.732532 1.38071 0
M  V30 14233 H 1364.05 -3.1697 0.685583 0
M  V30 14234 H 1363.84 -3.05622 2.45637 0
M  V30 14235 H 1365.33 -3.77822 1.77877 0
M  V30 14236 N 1365.76 -1.381 -0.759346 0
M  V30 14237 C 1366.69 -1.37578 -1.88665 0
M  V30 14238 C 1367.68 -0.242529 -1.68362 0
M  V30 14239 O 1368.86 -0.444751 -1.89039 0
M  V30 14240 C 1365.99 -1.19437 -3.26117 0
M  V30 14241 C 1364.94 -2.29905 -3.61009 0
M  V30 14242 C 1364.27 -1.96874 -4.97136 0
M  V30 14243 C 1365.57 -3.72143 -3.66479 0
M  V30 14244 H 1367.26 -2.31912 -1.89359 0
M  V30 14245 H 1364.81 -1.11632 -0.909631 0
M  V30 14246 H 1366.76 -1.17698 -4.0463 0
M  V30 14247 H 1365.49 -0.21562 -3.25887 0
M  V30 14248 H 1364.15 -2.3082 -2.84812 0
M  V30 14249 H 1363.79 -0.974979 -4.9346 0
M  V30 14250 H 1363.49 -2.70855 -5.21451 0
M  V30 14251 H 1365.02 -1.96744 -5.78035 0
M  V30 14252 H 1366.43 -3.73291 -4.35117 0
M  V30 14253 H 1364.83 -4.45282 -4.02299 0
M  V30 14254 H 1365.9 -4.04874 -2.66843 0
M  V30 14255 N 1367.24 0.986894 -1.22875 0
M  V30 14256 C 1368.21 2.0597 -1.00544 0
M  V30 14257 C 1369.21 1.60771 0.0303509 0
M  V30 14258 O 1370.4 1.72945 -0.208753 0
M  V30 14259 C 1367.53 3.36911 -0.519962 0
M  V30 14260 H 1368.72 2.27213 -1.9574 0
M  V30 14261 H 1366.27 1.15935 -1.04827 0
M  V30 14262 H 1367.01 3.21355 0.436078 0
M  V30 14263 H 1366.79 3.71054 -1.26732 0
M  V30 14264 H 1368.28 4.15829 -0.384166 0
M  V30 14265 N 1368.72 1.0394 1.18466 0
M  V30 14266 C 1369.95 0.762014 1.92356 0
M  V30 14267 C 1370.36 -0.680652 1.76104 0
M  V30 14268 O 1369.72 -1.46385 1.08985 0
M  V30 14269 C 1369.77 1.11717 3.43805 0
M  V30 14270 O 1369.49 2.50319 3.59544 0
M  V30 14271 C 1370.99 0.864099 4.34797 0
M  V30 14272 H 1368.21 0.277999 0.610702 0
M  V30 14273 H 1370.76 1.38672 1.503 0
M  V30 14274 H 1368.91 0.537445 3.83654 0
M  V30 14275 H 1369.33 2.63875 4.53288 0
M  V30 14276 H 1370.8 1.16247 5.39621 0
M  V30 14277 H 1371.28 -0.20117 4.38739 0
M  V30 14278 H 1371.88 1.42706 4.00643 0
M  V30 14279 N 1370.2 -1.34667 0.818693 0
M  V30 14280 C 1371.11 -2.33375 0.239429 0
M  V30 14281 C 1372.12 -1.62428 -0.623957 0
M  V30 14282 O 1373.3 -1.94223 -0.532854 0
M  V30 14283 C 1370.37 -3.41598 -0.59258 0
M  V30 14284 C 1369.43 -4.28301 0.292712 0
M  V30 14285 C 1368.66 -5.31356 -0.499682 0
M  V30 14286 O 1368.88 -5.43426 -1.73334 0
M  V30 14287 O 1367.82 -6.01789 0.115778 0
M  V30 14288 H 1371.64 -2.84738 1.05631 0
M  V30 14289 H 1369.23 -1.37651 0.58074 0
M  V30 14290 H 1371.11 -4.07692 -1.06607 0
M  V30 14291 H 1369.78 -2.92486 -1.38685 0
M  V30 14292 H 1368.69 -3.65145 0.81361 0
M  V30 14293 H 1370.02 -4.80843 1.05123 0
M  V30 14294 N 1371.68 -0.573274 -1.46804 0
M  V30 14295 C 1373.09 -0.144162 -1.86143 0
M  V30 14296 C 1373.44 1.29033 -1.47801 0
M  V30 14297 O 1372.56 1.97319 -0.888494 0
M  V30 14298 C 1373.16 -0.254851 -3.3784 0
M  V30 14299 C 1371.72 0.119325 -3.76211 0
M  V30 14300 C 1370.86 -0.595115 -2.70839 0
M  V30 14301 H 1373.82 -0.782057 -1.38093 0
M  V30 14302 H 1373.84 0.522321 -3.76898 0
M  V30 14303 H 1373.35 -1.29899 -3.65715 0
M  V30 14304 H 1371.45 1.16396 -3.53953 0
M  V30 14305 H 1371.56 -0.250421 -4.78445 0
M  V30 14306 H 1369.93 -0.0364028 -2.54674 0
M  V30 14307 H 1370.71 -1.64072 -3.01555 0
M  V30 14308 N 1373.15 1.5451 -0.310553 0
M  V30 14309 C 1374.57 1.85829 0.180166 0
M  V30 14310 C 1374.92 1.23239 1.52665 0
M  V30 14311 O 1374.04 0.53359 2.09718 0
M  V30 14312 C 1374.64 3.37153 0.333687 0
M  V30 14313 C 1373.2 3.68469 0.768625 0
M  V30 14314 C 1372.34 2.77051 -0.117399 0
M  V30 14315 H 1375.29 1.49544 -0.531262 0
M  V30 14316 H 1375.31 3.62171 1.16673 0
M  V30 14317 H 1374.83 3.82678 -0.646455 0
M  V30 14318 H 1372.93 3.28467 1.75898 0
M  V30 14319 H 1373.04 4.75559 0.581392 0
M  V30 14320 H 1371.4 2.51461 0.404905 0
M  V30 14321 H 1372.19 3.254 -1.09407 0
M  V30 14322 N 1374.63 0.0384594 1.57553 0
M  V30 14323 C 1375.86 -0.648077 1.96488 0
M  V30 14324 C 1376.28 -1.65123 0.915414 0
M  V30 14325 O 1375.63 -1.82216 -0.101779 0
M  V30 14326 C 1375.68 -1.34623 3.35498 0
M  V30 14327 O 1375.41 -0.383261 4.3642 0
M  V30 14328 C 1376.91 -2.12372 3.89119 0
M  V30 14329 H 1374.13 -0.178068 0.646941 0
M  V30 14330 H 1376.67 0.100993 2.0425 0
M  V30 14331 H 1374.83 -2.04663 3.28926 0
M  V30 14332 H 1375.24 -0.880095 5.17063 0
M  V30 14333 H 1376.71 -2.5666 4.88702 0
M  V30 14334 H 1377.19 -2.96664 3.23863 0
M  V30 14335 H 1377.8 -1.4727 3.98988 0
M  V30 14336 N 1376.11 -1.55841 -0.234795 0
M  V30 14337 C 1377.02 -1.94476 -1.31211 0
M  V30 14338 C 1378.04 -0.846782 -1.52005 0
M  V30 14339 O 1379.21 -1.14922 -1.65393 0
M  V30 14340 C 1376.28 -2.24213 -2.64442 0
M  V30 14341 C 1375.34 -3.47508 -2.52065 0
M  V30 14342 C 1374.57 -3.75817 -3.78942 0
M  V30 14343 O 1374.8 -3.06007 -4.81369 0
M  V30 14344 O 1373.73 -4.69328 -3.76848 0
M  V30 14345 H 1377.56 -2.8626 -1.01434 0
M  V30 14346 H 1375.14 -1.42879 -0.436563 0
M  V30 14347 H 1377.02 -2.44594 -3.4315 0
M  V30 14348 H 1375.7 -1.35605 -2.93927 0
M  V30 14349 H 1374.6 -3.32421 -1.71602 0
M  V30 14350 H 1375.94 -4.36457 -2.27523 0
M  V30 14351 N 1377.59 0.500963 -1.49426 0
M  V30 14352 C 1378.82 1.27911 -1.62624 0
M  V30 14353 C 1379.23 1.86439 -0.297651 0
M  V30 14354 O 1378.59 1.67831 0.716879 0
M  V30 14355 C 1378.64 2.40934 -2.69505 0
M  V30 14356 O 1378.36 1.84811 -3.97211 0
M  V30 14357 C 1379.86 3.32305 -2.93408 0
M  V30 14358 H 1377.08 0.387951 -0.547481 0
M  V30 14359 H 1379.63 0.601372 -1.95458 0
M  V30 14360 H 1377.78 3.04537 -2.39449 0
M  V30 14361 H 1378.2 2.59011 -4.56085 0
M  V30 14362 H 1379.67 4.0789 -3.71927 0
M  V30 14363 H 1380.15 3.89301 -2.03325 0
M  V30 14364 H 1380.75 2.74467 -3.24881 0
M  V30 14365 N 1379.07 1.38501 0.752011 0
M  V30 14366 C 1380 1.38577 1.87933 0
M  V30 14367 C 1380.98 0.251454 1.68231 0
M  V30 14368 O 1382.16 0.45477 1.888 0
M  V30 14369 C 1379.29 1.21164 3.25479 0
M  V30 14370 C 1378.25 2.31816 3.59785 0
M  V30 14371 C 1377.57 1.99508 4.96085 0
M  V30 14372 C 1378.87 3.74082 3.645 0
M  V30 14373 H 1380.57 2.32913 1.88127 0
M  V30 14374 H 1378.11 1.12113 0.903698 0
M  V30 14375 H 1380.07 1.19842 4.04 0
M  V30 14376 H 1378.79 0.232899 3.25769 0
M  V30 14377 H 1377.45 2.32327 2.83584 0
M  V30 14378 H 1377.1 1.00114 4.92936 0
M  V30 14379 H 1376.8 2.73617 5.20007 0
M  V30 14380 H 1378.32 1.99807 5.76983 0
M  V30 14381 H 1379.74 3.75593 4.33131 0
M  V30 14382 H 1378.13 4.47409 3.99931 0
M  V30 14383 H 1379.2 4.06284 2.64692 0
M  V30 14384 N 1380.55 -0.980364 1.23396 0
M  V30 14385 C 1381.48 -2.0908 1.0396 0
M  V30 14386 C 1382.46 -1.70044 -0.0434946 0
M  V30 14387 O 1383.64 -1.93822 0.121155 0
M  V30 14388 C 1380.77 -3.41537 0.630061 0
M  V30 14389 C 1379.73 -3.94476 1.66051 0
M  V30 14390 C 1379.05 -5.23128 1.10641 0
M  V30 14391 C 1380.35 -4.23741 3.05354 0
M  V30 14392 H 1382.05 -2.25598 1.9684 0
M  V30 14393 H 1379.59 -1.08409 0.94781 0
M  V30 14394 H 1381.54 -4.18644 0.481145 0
M  V30 14395 H 1380.27 -3.24883 -0.334416 0
M  V30 14396 H 1378.93 -3.19513 1.79742 0
M  V30 14397 H 1378.58 -5.02824 0.132913 0
M  V30 14398 H 1378.28 -5.59515 1.79492 0
M  V30 14399 H 1379.8 -6.02857 0.969344 0
M  V30 14400 H 1381.21 -4.91598 2.94964 0
M  V30 14401 H 1379.61 -4.71329 3.71442 0
M  V30 14402 H 1380.68 -3.31012 3.54343 0
M  V30 14403 N 1382.02 -1.04567 -1.17913 0
M  V30 14404 C 1382.95 -0.662066 -2.23917 0
M  V30 14405 C 1383.93 0.33713 -1.66726 0
M  V30 14406 O 1385.12 0.216116 -1.92994 0
M  V30 14407 C 1382.25 -0.029463 -3.47288 0
M  V30 14408 C 1381.2 -0.95274 -4.17261 0
M  V30 14409 C 1380.53 -0.184347 -5.34382 0
M  V30 14410 C 1381.83 -2.2741 -4.70194 0
M  V30 14411 H 1383.52 -1.54826 -2.5626 0
M  V30 14412 H 1381.07 -0.745886 -1.23177 0
M  V30 14413 H 1383.02 0.250654 -4.20654 0
M  V30 14414 H 1381.75 0.891638 -3.14193 0
M  V30 14415 H 1380.41 -1.21732 -3.45799 0
M  V30 14416 H 1380.05 0.73932 -4.97537 0
M  V30 14417 H 1379.75 -0.79949 -5.82136 0
M  V30 14418 H 1381.28 0.0886344 -6.10536 0
M  V30 14419 H 1382.69 -2.05433 -5.35229 0
M  V30 14420 H 1381.09 -2.84265 -5.28501 0
M  V30 14421 H 1382.16 -2.91708 -3.87342 0
M  V30 14422 N 1383.5 1.34231 -0.825823 0
M  V30 14423 C 1384.92 1.51166 -0.511945 0
M  V30 14424 C 1385.12 1.76981 0.963318 0
M  V30 14425 O 1384.17 1.82243 1.74767 0
M  V30 14426 C 1385.49 2.67474 -1.37399 0
M  V30 14427 C 1387.03 2.81356 -1.37141 0
M  V30 14428 C 1387.51 4.0071 -2.218 0
M  V30 14429 N 1389 4.07922 -2.19439 0
M  V30 14430 C 1389.74 4.99438 -2.81691 0
M  V30 14431 N 1389.23 5.96157 -3.52944 0
M  V30 14432 N 1391.02 4.92332 -2.7123 0
M  V30 14433 H 1383.18 1.15734 -1.78099 0
M  V30 14434 H 1385.44 0.567856 -0.759107 0
M  V30 14435 H 1385.14 2.55036 -2.42176 0
M  V30 14436 H 1385.02 3.62558 -1.04075 0
M  V30 14437 H 1387.41 2.93233 -0.331405 0
M  V30 14438 H 1387.49 1.87072 -1.74464 0
M  V30 14439 H 1387.13 3.89593 -3.25852 0
M  V30 14440 H 1387.06 4.94213 -1.81826 0
M  V30 14441 H 1389.55 3.38695 -1.67612 0
M  V30 14442 H 1389.86 6.62623 -3.97682 0
M  V30 14443 H 1388.21 5.96272 -3.5705 0
M  V30 14444 H 1391.4 4.15733 -2.15137 0
M  V30 14445 H 1391.57 5.63458 -3.20031 0
M  V30 14446 N 1384.98 0.581051 1.46498 0
M  V30 14447 C 1385.93 -0.153147 2.30291 0
M  V30 14448 C 1386.9 -0.885681 1.40517 0
M  V30 14449 O 1388.08 -0.876678 1.69467 0
M  V30 14450 C 1385.22 -1.16193 3.24951 0
M  V30 14451 C 1384.33 -0.433016 4.29824 0
M  V30 14452 C 1383.47 -1.42918 5.11613 0
M  V30 14453 C 1382.51 -0.686576 6.08237 0
M  V30 14454 N 1381.65 -1.63072 6.829 0
M  V30 14455 H 1386.49 0.56747 2.92547 0
M  V30 14456 H 1384.02 0.29166 1.4418 0
M  V30 14457 H 1385.98 -1.75965 3.78275 0
M  V30 14458 H 1384.61 -1.85028 2.64508 0
M  V30 14459 H 1383.66 0.279707 3.7937 0
M  V30 14460 H 1384.97 0.147604 4.98582 0
M  V30 14461 H 1384.13 -2.09975 5.69206 0
M  V30 14462 H 1382.87 -2.04373 4.42813 0
M  V30 14463 H 1381.87 -0.00222013 5.498 0
M  V30 14464 H 1383.1 -0.0774416 6.79056 0
M  V30 14465 H 1381.04 -2.2334 6.1681 0
M  V30 14466 H 1380.96 -1.10286 7.47912 0
M  V30 14467 H 1382.23 -2.29169 7.45052 0
M  V30 14468 N 1386.46 -1.54343 0.318742 0
M  V30 14469 C 1387.87 -1.85922 -0.170309 0
M  V30 14470 C 1388.22 -1.24047 -1.52009 0
M  V30 14471 O 1387.34 -0.544705 -2.09432 0
M  V30 14472 C 1387.94 -3.37325 -0.315802 0
M  V30 14473 C 1386.5 -3.68871 -0.749073 0
M  V30 14474 C 1385.65 -2.76985 0.13209 0
M  V30 14475 H 1388.6 -1.4926 0.539185 0
M  V30 14476 H 1388.62 -3.62784 -1.14751 0
M  V30 14477 H 1388.13 -3.8233 0.66674 0
M  V30 14478 H 1386.23 -3.29396 -1.74153 0
M  V30 14479 H 1386.34 -4.75861 -0.556164 0
M  V30 14480 H 1384.71 -2.51672 -0.391564 0
M  V30 14481 H 1385.49 -3.24815 1.11131 0
M  V30 14482 N 1387.94 -0.0468143 -1.5753 0
M  V30 14483 C 1389.17 0.636723 -1.96544 0
M  V30 14484 C 1389.57 1.65169 -0.922814 0
M  V30 14485 O 1388.92 1.83417 0.101892 0
M  V30 14486 C 1388.98 1.38435 -3.31777 0
M  V30 14487 C 1388.64 0.525714 -4.53966 0
M  V30 14488 C 1389.64 -0.206392 -5.1949 0
M  V30 14489 C 1387.32 0.457919 -5.00208 0
M  V30 14490 C 1389.32 -0.994779 -6.29589 0
M  V30 14491 C 1387.01 -0.334159 -6.10186 0
M  V30 14492 C 1388 -1.0592 -6.74737 0
M  V30 14493 O 1387.69 -1.83826 -7.826 0
M  V30 14494 H 1387.42 0.179197 -0.651816 0
M  V30 14495 H 1389.98 -0.108214 -2.05115 0
M  V30 14496 H 1388.21 2.17482 -3.19748 0
M  V30 14497 H 1389.9 1.9577 -3.55568 0
M  V30 14498 H 1390.66 -0.163457 -4.84724 0
M  V30 14499 H 1386.54 1.01185 -4.49758 0
M  V30 14500 H 1390.09 -1.56121 -6.79906 0
M  V30 14501 H 1385.98 -0.378748 -6.44388 0
M  V30 14502 H 1386.75 -1.75991 -7.99356 0
M  V30 14503 N 1389.41 1.55964 0.226527 0
M  V30 14504 C 1390.66 1.78392 0.94977 0
M  V30 14505 C 1390.98 0.614444 1.85066 0
M  V30 14506 O 1390.25 -0.368894 1.92395 0
M  V30 14507 H 1388.83 0.657962 0.353688 0
M  V30 14508 H 1391.5 1.93422 0.239577 0
M  V30 14509 H 1390.59 2.70343 1.55952 0
M  V30 14510 N 1390.89 -0.493031 1.4969 0
M  V30 14511 C 1392.31 -0.824908 1.36629 0
M  V30 14512 C 1392.51 -1.97378 0.405487 0
M  V30 14513 O 1391.56 -2.51993 -0.159933 0
M  V30 14514 C 1392.88 -1.15761 2.77524 0
M  V30 14515 C 1394.43 -1.26536 2.86282 0
M  V30 14516 C 1394.9 -1.63131 4.27963 0
M  V30 14517 N 1396.39 -1.70165 4.30811 0
M  V30 14518 C 1397.13 -1.99942 5.37411 0
M  V30 14519 N 1396.62 -2.27888 6.54247 0
M  V30 14520 N 1398.42 -2.0126 5.24834 0
M  V30 14521 H 1390.57 0.264433 2.10748 0
M  V30 14522 H 1392.83 0.0557306 0.94636 0
M  V30 14523 H 1392.54 -0.386714 3.49567 0
M  V30 14524 H 1392.41 -2.09915 3.13393 0
M  V30 14525 H 1394.8 -2.02696 2.14472 0
M  V30 14526 H 1394.88 -0.304137 2.53986 0
M  V30 14527 H 1394.52 -0.875184 5.00303 0
M  V30 14528 H 1394.45 -2.60367 4.5773 0
M  V30 14529 H 1396.94 -1.50696 3.46553 0
M  V30 14530 H 1397.26 -2.4982 7.31307 0
M  V30 14531 H 1395.6 -2.25327 6.57459 0
M  V30 14532 H 1398.79 -1.78909 4.32561 0
M  V30 14533 H 1398.96 -2.24131 6.08004 0
M  V30 14534 N 1392.37 -1.38898 -0.744656 0
M  V30 14535 C 1393.32 -1.36974 -1.87992 0
M  V30 14536 C 1394.31 -0.254277 -1.67481 0
M  V30 14537 O 1395.52 -0.423797 -1.7494 0
M  V30 14538 H 1391.89 -0.427508 -0.618661 0
M  V30 14539 H 1393.86 -2.32754 -1.86731 0
M  V30 14540 C 1392.61 -1.22054 -3.25573 0
M  V30 14541 H 1391.94 -2.07152 -3.41947 0
M  V30 14542 H 1393.38 -1.24763 -4.05228 0
M  V30 14543 C 1391.84 0.0718413 -3.36823 0
M  V30 14544 O 1392.37 1.0456 -3.87853 0
M  V30 14545 N 1390.57 0.131672 -2.90302 0
M  V30 14546 H 1390.12 -0.661428 -2.48964 0
M  V30 14547 H 1390.08 0.995936 -2.98209 0
M  V30 14548 N 1393.85 0.973806 -1.23914 0
M  V30 14549 C 1394.8 2.06734 -1.02614 0
M  V30 14550 C 1395.77 1.65997 0.0585705 0
M  V30 14551 O 1396.95 1.90564 -0.0948467 0
M  V30 14552 C 1394.09 3.39292 -0.630493 0
M  V30 14553 C 1393.2 3.9326 -1.78803 0
M  V30 14554 C 1392.34 5.14059 -1.33854 0
M  V30 14555 C 1391.38 5.60209 -2.46642 0
M  V30 14556 N 1390.51 6.72232 -2.02603 0
M  V30 14557 H 1395.35 2.24287 -1.96212 0
M  V30 14558 H 1392.89 1.09935 -0.977376 0
M  V30 14559 H 1394.85 4.15446 -0.382163 0
M  V30 14560 H 1393.48 3.21682 0.268483 0
M  V30 14561 H 1392.53 3.13801 -2.15019 0
M  V30 14562 H 1393.84 4.23475 -2.63573 0
M  V30 14563 H 1393 5.97567 -1.04873 0
M  V30 14564 H 1391.74 4.85513 -0.46131 0
M  V30 14565 H 1390.74 4.75278 -2.7639 0
M  V30 14566 H 1391.97 5.90771 -3.34912 0
M  V30 14567 H 1389.91 6.45433 -1.17269 0
M  V30 14568 H 1389.83 7.01865 -2.80929 0
M  V30 14569 H 1391.1 7.59198 -1.76745 0
M  V30 14570 N 1395.33 1.05191 1.17357 0
M  V30 14571 C 1396.74 0.788105 1.69251 0
M  V30 14572 C 1397.09 -0.689717 1.83677 0
M  V30 14573 O 1396.21 -1.53601 1.52433 0
M  V30 14574 C 1396.81 1.42401 3.07421 0
M  V30 14575 C 1395.37 1.20825 3.5648 0
M  V30 14576 C 1394.51 1.50756 2.3274 0
M  V30 14577 H 1397.47 1.21686 1.01874 0
M  V30 14578 H 1397.49 0.833285 3.71264 0
M  V30 14579 H 1397 2.49958 2.96889 0
M  V30 14580 H 1395.1 0.15193 3.7229 0
M  V30 14581 H 1395.21 1.91319 4.39242 0
M  V30 14582 H 1393.58 0.927649 2.37206 0
M  V30 14583 H 1394.36 2.59446 2.24817 0
M  V30 14584 N 1396.8 -1.33791 0.83293 0
M  V30 14585 C 1397.73 -2.31853 0.276846 0
M  V30 14586 C 1398.72 -1.58702 -0.612184 0
M  V30 14587 O 1399.9 -1.86629 -0.536975 0
M  V30 14588 C 1397.03 -3.42855 -0.55385 0
M  V30 14589 C 1395.98 -4.27333 0.238884 0
M  V30 14590 C 1395.31 -5.29895 -0.715187 0
M  V30 14591 C 1396.61 -5.01692 1.45265 0
M  V30 14592 H 1398.3 -2.78611 1.09618 0
M  V30 14593 H 1395.85 -1.33949 0.528562 0
M  V30 14594 H 1397.8 -4.10479 -0.953133 0
M  V30 14595 H 1396.53 -2.94771 -1.40634 0
M  V30 14596 H 1395.19 -3.61325 0.619656 0
M  V30 14597 H 1394.83 -4.7807 -1.56391 0
M  V30 14598 H 1394.53 -5.87296 -0.188921 0
M  V30 14599 H 1396.06 -6.00387 -1.11211 0
M  V30 14600 H 1397.47 -5.62117 1.12685 0
M  V30 14601 H 1395.87 -5.68715 1.91528 0
M  V30 14602 H 1396.94 -4.30809 2.22558 0
M  V30 14603 N 1398.28 -0.588812 -1.46187 0
M  V30 14604 C 1399.53 -0.0744093 -2.01563 0
M  V30 14605 C 1399.84 1.29578 -1.46523 0
M  V30 14606 O 1401.05 1.90186 -1.93756 0
M  V30 14607 C 1399.51 -0.082408 -3.59806 0
M  V30 14608 C 1399.11 -1.45129 -4.23842 0
M  V30 14609 C 1400.86 0.377732 -4.22816 0
M  V30 14610 C 1398.77 -1.41668 -5.74181 0
M  V30 14611 H 1397.7 -0.0240481 -0.753616 0
M  V30 14612 H 1400.35 -0.741364 -1.67857 0
M  V30 14613 H 1398.73 0.650832 -3.90615 0
M  V30 14614 H 1399.9 -2.20474 -4.04633 0
M  V30 14615 H 1398.22 -1.85196 -3.7295 0
M  V30 14616 H 1400.81 0.42251 -5.33028 0
M  V30 14617 H 1401.16 1.39655 -3.92176 0
M  V30 14618 H 1401.69 -0.301638 -3.96655 0
M  V30 14619 H 1398.43 -2.4125 -6.09491 0
M  V30 14620 H 1397.95 -0.705524 -5.95636 0
M  V30 14621 H 1399.63 -1.13221 -6.37016 0
M  V30 14622 N 1399.76 1.54172 -0.326923 0
M  V30 14623 C 1400.99 2.05512 0.279231 0
M  V30 14624 C 1401.41 1.20131 1.44741 0
M  V30 14625 O 1400.77 0.211191 1.80066 0
M  V30 14626 C 1400.82 3.53971 0.688263 0
M  V30 14627 O 1399.92 3.71516 1.79025 0
M  V30 14628 H 1399.26 0.662131 0.0497826 0
M  V30 14629 H 1401.79 1.98979 -0.476309 0
M  V30 14630 H 1401.8 3.96302 0.970002 0
M  V30 14631 H 1400.48 4.15568 -0.166132 0
M  V30 14632 H 1399.05 3.4109 1.50706 0
M  V30 14633 N 1401.24 0.0551678 1.57503 0
M  V30 14634 C 1402.65 -0.3014 1.56728 0
M  V30 14635 C 1402.85 -1.71169 1.06317 0
M  V30 14636 O 1401.91 -2.4197 0.721566 0
M  V30 14637 C 1403.22 -0.12622 3.00435 0
M  V30 14638 C 1404.77 -0.197022 3.12379 0
M  V30 14639 C 1405.25 -0.0503235 4.57972 0
M  V30 14640 N 1406.74 -0.106471 4.63078 0
M  V30 14641 C 1407.47 -0.0171325 5.73397 0
M  V30 14642 N 1406.97 0.124781 6.92688 0
M  V30 14643 N 1408.76 -0.0730028 5.62053 0
M  V30 14644 H 1400.91 0.977072 1.88592 0
M  V30 14645 H 1403.18 0.37963 0.868668 0
M  V30 14646 H 1402.88 0.846286 3.41366 0
M  V30 14647 H 1402.76 -0.885574 3.66657 0
M  V30 14648 H 1405.14 -1.16 2.71345 0
M  V30 14649 H 1405.22 0.593155 2.48828 0
M  V30 14650 H 1404.87 0.909352 4.99693 0
M  V30 14651 H 1404.8 -0.859695 5.19535 0
M  V30 14652 H 1407.29 -0.215241 3.77287 0
M  V30 14653 H 1407.6 0.185548 7.72577 0
M  V30 14654 H 1405.95 0.15992 6.94816 0
M  V30 14655 H 1409.14 -0.182456 4.67744 0
M  V30 14656 H 1409.31 7.85052e-05 6.48 0
M  V30 14657 N 1402.72 -1.56081 -0.218252 0
M  V30 14658 C 1403.94 -1.83334 -0.958964 0
M  V30 14659 C 1404.36 -0.63472 -1.77811 0
M  V30 14660 O 1403.72 0.396729 -1.78136 0
M  V30 14661 C 1403.77 -3.09141 -1.87387 0
M  V30 14662 O 1403.49 -4.24379 -1.08783 0
M  V30 14663 C 1404.99 -3.49405 -2.7282 0
M  V30 14664 H 1402.21 -0.609375 -0.280898 0
M  V30 14665 H 1404.75 -2.03174 -0.232486 0
M  V30 14666 H 1402.91 -2.91267 -2.55426 0
M  V30 14667 H 1403.32 -4.9587 -1.70919 0
M  V30 14668 H 1404.8 -4.40461 -3.32713 0
M  V30 14669 H 1405.27 -2.71311 -3.45379 0
M  V30 14670 H 1405.88 -3.6973 -2.1019 0
M  V30 14671 N 1404.2 0.485086 -1.49949 0
M  V30 14672 C 1405.13 1.60306 -1.62411 0
M  V30 14673 C 1406.11 1.5558 -0.47262 0
M  V30 14674 O 1407.29 1.75406 -0.690285 0
M  V30 14675 C 1404.42 2.98859 -1.59377 0
M  V30 14676 C 1403.46 3.2179 -2.79917 0
M  V30 14677 S 1404.3 3.03194 -4.41399 0
M  V30 14678 C 1405.45 4.44114 -4.41037 0
M  V30 14679 H 1405.69 1.49493 -2.56981 0
M  V30 14680 H 1403.22 0.671413 -1.39037 0
M  V30 14681 H 1405.18 3.78744 -1.58313 0
M  V30 14682 H 1403.84 3.07073 -0.660673 0
M  V30 14683 H 1403.03 4.22975 -2.74059 0
M  V30 14684 H 1402.63 2.49653 -2.78477 0
M  V30 14685 H 1404.92 5.36496 -4.13737 0
M  V30 14686 H 1405.87 4.55019 -5.42553 0
M  V30 14687 H 1406.28 4.25538 -3.70914 0
M  V30 14688 N 1405.67 1.39291 0.737279 0
M  V30 14689 C 1406.61 1.32216 1.85995 0
M  V30 14690 C 1407.58 0.19623 1.61412 0
M  V30 14691 O 1408.77 0.376297 1.84706 0
M  V30 14692 C 1405.9 1.0525 3.21932 0
M  V30 14693 C 1404.94 2.20002 3.65378 0
M  V30 14694 S 1405.77 3.82265 3.75011 0
M  V30 14695 C 1406.93 3.57519 5.13742 0
M  V30 14696 H 1407.16 2.27231 1.91712 0
M  V30 14697 H 1404.7 1.25319 0.901911 0
M  V30 14698 H 1406.65 0.903753 4.00428 0
M  V30 14699 H 1405.32 0.119258 3.13874 0
M  V30 14700 H 1404.51 1.9672 4.64023 0
M  V30 14701 H 1404.11 2.31068 2.94081 0
M  V30 14702 H 1406.4 3.14643 6.00005 0
M  V30 14703 H 1407.35 4.55616 5.42051 0
M  V30 14704 H 1407.75 2.9167 4.8331 0
M  V30 14705 N 1407.15 -0.967221 1.24429 0
M  V30 14706 C 1408.1 -2.06187 1.03709 0
M  V30 14707 C 1409.07 -1.66025 -0.0497665 0
M  V30 14708 O 1410.25 -1.90511 0.104951 0
M  V30 14709 C 1407.39 -3.38952 0.648477 0
M  V30 14710 C 1406.51 -3.92306 1.80886 0
M  V30 14711 C 1405.64 -5.13342 1.36579 0
M  V30 14712 C 1404.68 -5.58893 2.49609 0
M  V30 14713 N 1403.82 -6.71148 2.06165 0
M  V30 14714 H 1408.66 -2.23244 1.97399 0
M  V30 14715 H 1406.19 -1.09415 0.983192 0
M  V30 14716 H 1408.15 -4.15237 0.40419 0
M  V30 14717 H 1406.78 -3.21819 -0.25142 0
M  V30 14718 H 1405.83 -3.12656 2.1668 0
M  V30 14719 H 1407.15 -4.22071 2.65815 0
M  V30 14720 H 1406.3 -5.97003 1.0804 0
M  V30 14721 H 1405.04 -4.85262 0.487051 0
M  V30 14722 H 1404.04 -4.73805 2.78906 0
M  V30 14723 H 1405.27 -5.88987 3.3804 0
M  V30 14724 H 1403.22 -6.44802 1.20691 0
M  V30 14725 H 1403.13 -7.00366 2.84647 0
M  V30 14726 H 1404.4 -7.5825 1.80769 0
M  V30 14727 N 1408.63 -1.05812 -1.16797 0
M  V30 14728 C 1409.58 -0.658636 -2.2308 0
M  V30 14729 C 1410.57 0.323104 -1.6629 0
M  V30 14730 O 1411.78 0.188492 -1.7901 0
M  V30 14731 H 1408.15 -0.194843 -0.72632 0
M  V30 14732 H 1410.12 -1.56501 -2.54067 0
M  V30 14733 C 1408.87 -0.0559428 -3.47655 0
M  V30 14734 H 1408.2 -0.802468 -3.91664 0
M  V30 14735 H 1409.64 0.186118 -4.23591 0
M  V30 14736 C 1408.09 1.19913 -3.14837 0
M  V30 14737 O 1408.62 2.28772 -3.30191 0
M  V30 14738 N 1406.83 1.09921 -2.69009 0
M  V30 14739 H 1406.38 0.213331 -2.56715 0
M  V30 14740 H 1406.34 1.93981 -2.47424 0
M  V30 14741 N 1410.11 1.33347 -0.840014 0
M  V30 14742 C 1411.36 1.97007 -0.432581 0
M  V30 14743 C 1411.67 1.67278 1.01378 0
M  V30 14744 O 1412.88 2.2456 1.52595 0
M  V30 14745 C 1411.33 3.52572 -0.72258 0
M  V30 14746 C 1410.94 3.91176 -2.1837 0
M  V30 14747 C 1412.68 4.22776 -0.382153 0
M  V30 14748 C 1410.59 5.39724 -2.41768 0
M  V30 14749 H 1409.52 0.737255 -0.158024 0
M  V30 14750 H 1412.17 1.5195 -1.02876 0
M  V30 14751 H 1410.55 3.9596 -0.0560179 0
M  V30 14752 H 1411.73 3.58842 -2.89083 0
M  V30 14753 H 1410.04 3.33956 -2.48721 0
M  V30 14754 H 1412.64 5.32021 -0.534588 0
M  V30 14755 H 1412.98 4.10792 0.674967 0
M  V30 14756 H 1413.52 3.84922 -1.004 0
M  V30 14757 H 1410.25 5.56713 -3.4605 0
M  V30 14758 H 1409.77 5.73514 -1.75617 0
M  V30 14759 H 1411.45 6.06624 -2.2498 0
M  V30 14760 N 1411.59 0.596556 1.45873 0
M  V30 14761 C 1412.52 -0.116229 2.33211 0
M  V30 14762 C 1413.5 -0.869868 1.46176 0
M  V30 14763 O 1414.68 -0.842599 1.74968 0
M  V30 14764 C 1411.81 -1.12145 3.28696 0
M  V30 14765 C 1410.77 -0.481749 4.2528 0
M  V30 14766 C 1410.09 -1.59443 5.10374 0
M  V30 14767 C 1411.39 0.589996 5.18957 0
M  V30 14768 H 1413.09 0.613005 2.93057 0
M  V30 14769 H 1410.63 0.296242 1.4092 0
M  V30 14770 H 1412.58 -1.62857 3.88659 0
M  V30 14771 H 1411.31 -1.88114 2.66985 0
M  V30 14772 H 1409.97 0.0044092 3.666 0
M  V30 14773 H 1409.62 -2.34413 4.45039 0
M  V30 14774 H 1409.32 -1.17197 5.75794 0
M  V30 14775 H 1410.84 -2.10404 5.73204 0
M  V30 14776 H 1412.25 0.167395 5.73056 0
M  V30 14777 H 1410.65 0.933565 5.92794 0
M  V30 14778 H 1411.72 1.47093 4.62052 0
M  V30 14779 N 1413.06 -1.53996 0.335095 0
M  V30 14780 C 1414.31 -2.00375 -0.263475 0
M  V30 14781 C 1414.63 -1.22471 -1.51742 0
M  V30 14782 O 1413.9 -0.329604 -1.93107 0
M  V30 14783 H 1412.48 -0.740229 -0.100347 0
M  V30 14784 H 1415.14 -1.89531 0.454302 0
M  V30 14785 H 1414.24 -3.07874 -0.511834 0
M  V30 14786 N 1414.54 -0.0635198 -1.57472 0
M  V30 14787 C 1415.49 0.916528 -2.08767 0
M  V30 14788 C 1416.48 1.26405 -0.99552 0
M  V30 14789 O 1417.67 1.24441 -1.25871 0
M  V30 14790 C 1414.8 2.18704 -2.64619 0
M  V30 14791 C 1413.88 1.86637 -3.80825 0
M  V30 14792 N 1414.27 1.24982 -4.90115 0
M  V30 14793 C 1412.57 2.16435 -3.89964 0
M  V30 14794 C 1413.27 1.10821 -5.71046 0
M  V30 14795 N 1412.25 1.61519 -5.1905 0
M  V30 14796 H 1416.05 0.435376 -2.90657 0
M  V30 14797 H 1413.56 0.1406 -1.6179 0
M  V30 14798 H 1415.56 2.89825 -2.99678 0
M  V30 14799 H 1414.22 2.67415 -1.84172 0
M  V30 14800 H 1415.23 0.920491 -5.09654 0
M  V30 14801 H 1411.91 2.6758 -3.20479 0
M  V30 14802 H 1413.3 0.628547 -6.68954 0
M  V30 14803 N 1416.02 1.56195 0.209972 0
M  V30 14804 C 1416.98 1.92514 1.24383 0
M  V30 14805 C 1417.98 0.804793 1.39211 0
M  V30 14806 O 1419.17 1.0724 1.37278 0
M  V30 14807 C 1416.3 2.18613 2.61574 0
M  V30 14808 H 1417.5 2.84992 0.933781 0
M  V30 14809 H 1415.05 1.49656 0.450878 0
M  V30 14810 H 1415.79 1.28724 2.97659 0
M  V30 14811 H 1415.57 3.00241 2.52186 0
M  V30 14812 H 1417.06 2.47767 3.36156 0
M  V30 14813 N 1417.5 -0.477127 1.50204 0
M  V30 14814 C 1418.74 -1.23147 1.6113 0
M  V30 14815 C 1419.08 -1.91743 0.307909 0
M  V30 14816 O 1418.35 -1.81841 -0.690223 0
M  V30 14817 C 1418.63 -2.27985 2.78738 0
M  V30 14818 C 1418.49 -1.63733 4.18941 0
M  V30 14819 C 1419.81 -3.29349 2.9192 0
M  V30 14820 H 1416.93 -0.446358 0.586459 0
M  V30 14821 H 1419.57 -0.52612 1.8257 0
M  V30 14822 H 1417.72 -2.88143 2.60588 0
M  V30 14823 H 1419.39 -1.07218 4.48667 0
M  V30 14824 H 1417.63 -0.940634 4.23479 0
M  V30 14825 H 1418.3 -2.39888 4.9715 0
M  V30 14826 H 1420.78 -2.79208 3.08516 0
M  V30 14827 H 1419.66 -4.0004 3.75845 0
M  V30 14828 H 1419.92 -3.93111 2.02278 0
M  V30 14829 N 1418.98 -1.3968 -0.729882 0
M  V30 14830 C 1420.21 -1.40263 -1.5169 0
M  V30 14831 C 1420.61 0.00325293 -1.892 0
M  V30 14832 O 1419.96 0.986225 -1.54982 0
M  V30 14833 C 1420.02 -2.21629 -2.83056 0
M  V30 14834 C 1419.68 -3.70204 -2.67951 0
M  V30 14835 C 1420.68 -4.63169 -2.36158 0
M  V30 14836 C 1418.37 -4.13851 -2.84662 0
M  V30 14837 C 1420.36 -5.97763 -2.21265 0
M  V30 14838 C 1418.05 -5.4852 -2.69387 0
M  V30 14839 C 1419.04 -6.4029 -2.37734 0
M  V30 14840 O 1418.73 -7.72478 -2.22561 0
M  V30 14841 H 1418.46 -0.480808 -0.475184 0
M  V30 14842 H 1421.02 -1.84184 -0.909136 0
M  V30 14843 H 1419.25 -1.72465 -3.46111 0
M  V30 14844 H 1420.94 -2.14328 -3.447 0
M  V30 14845 H 1421.7 -4.30748 -2.22893 0
M  V30 14846 H 1417.58 -3.42751 -3.0829 0
M  V30 14847 H 1421.13 -6.69359 -1.96481 0
M  V30 14848 H 1417.02 -5.8053 -2.82232 0
M  V30 14849 H 1417.79 -7.83258 -2.37591 0
M  V30 14850 N 1420.45 0.960609 -1.2494 0
M  V30 14851 C 1421.39 2.05948 -1.00588 0
M  V30 14852 C 1422.4 1.62777 0.0271261 0
M  V30 14853 O 1423.59 1.77252 -0.210739 0
M  V30 14854 C 1420.69 3.35228 -0.497521 0
M  V30 14855 C 1419.86 4.0727 -1.59531 0
M  V30 14856 C 1418.92 5.14822 -1.08836 0
M  V30 14857 O 1417.95 5.40602 -1.78153 0
M  V30 14858 N 1419.15 5.80453 0.0735067 0
M  V30 14859 H 1421.91 2.27411 -1.95204 0
M  V30 14860 H 1419.47 1.12874 -1.16065 0
M  V30 14861 H 1421.47 4.04447 -0.142979 0
M  V30 14862 H 1420.04 3.10583 0.354546 0
M  V30 14863 H 1419.26 3.32231 -2.12171 0
M  V30 14864 H 1420.54 4.52161 -2.33299 0
M  V30 14865 H 1419.94 5.6192 0.652848 0
M  V30 14866 H 1418.5 6.50754 0.369132 0
M  V30 14867 N 1421.93 1.0643 1.16234 0
M  V30 14868 C 1422.86 0.697605 2.22836 0
M  V30 14869 C 1423.84 -0.310563 1.67241 0
M  V30 14870 O 1425.03 -0.185385 1.93313 0
M  V30 14871 C 1422.16 0.0847097 3.47197 0
M  V30 14872 C 1421.11 1.019 4.15693 0
M  V30 14873 C 1420.44 0.269339 5.34021 0
M  V30 14874 C 1421.74 2.34861 4.66516 0
M  V30 14875 H 1423.43 1.58883 2.53765 0
M  V30 14876 H 1420.98 0.765388 1.21975 0
M  V30 14877 H 1422.93 -0.1837 4.20999 0
M  V30 14878 H 1421.66 -0.84154 3.15572 0
M  V30 14879 H 1420.31 1.27218 3.43818 0
M  V30 14880 H 1419.96 -0.660072 4.9865 0
M  V30 14881 H 1419.66 0.892001 5.8079 0
M  V30 14882 H 1421.19 0.00850775 6.10599 0
M  V30 14883 H 1422.6 2.13922 5.31893 0
M  V30 14884 H 1421 2.92637 5.23912 0
M  V30 14885 H 1422.07 2.97834 3.82653 0
M  V30 14886 N 1423.41 -1.329 0.847073 0
M  V30 14887 C 1424.37 -2.27341 0.291324 0
M  V30 14888 C 1425.37 -1.51295 -0.544653 0
M  V30 14889 O 1426.56 -1.70497 -0.357258 0
M  V30 14890 C 1423.7 -3.35779 -0.588668 0
M  V30 14891 H 1424.89 -2.78009 1.12477 0
M  V30 14892 H 1422.44 -1.43442 0.620803 0
M  V30 14893 H 1423.18 -2.90366 -1.44423 0
M  V30 14894 H 1422.96 -3.92099 0.00960515 0
M  V30 14895 H 1424.45 -4.06166 -0.970526 0
M  V30 14896 N 1424.89 -0.604284 -1.45555 0
M  V30 14897 C 1425.82 0.103859 -2.33269 0
M  V30 14898 C 1426.8 0.862104 -1.46635 0
M  V30 14899 O 1427.98 0.833308 -1.75413 0
M  V30 14900 C 1425.11 1.104 -3.29286 0
M  V30 14901 C 1424.07 0.459189 -4.2553 0
M  V30 14902 C 1423.39 1.56734 -5.11213 0
M  V30 14903 C 1424.69 -0.617509 -5.18637 0
M  V30 14904 H 1426.39 -0.628538 -2.92728 0
M  V30 14905 H 1423.93 -0.303711 -1.40761 0
M  V30 14906 H 1425.89 1.60794 -3.89517 0
M  V30 14907 H 1424.61 1.86695 -2.67979 0
M  V30 14908 H 1423.27 -0.0238508 -3.66592 0
M  V30 14909 H 1422.92 2.32049 -4.46276 0
M  V30 14910 H 1422.62 1.14142 -5.76407 0
M  V30 14911 H 1424.14 2.07361 -5.74312 0
M  V30 14912 H 1425.56 -0.197784 -5.72959 0
M  V30 14913 H 1423.95 -0.96499 -5.9229 0
M  V30 14914 H 1425.02 -1.49541 -4.61265 0
M  V30 14915 N 1426.37 1.53816 -0.343257 0
M  V30 14916 C 1427.62 2.0009 0.254346 0
M  V30 14917 C 1427.93 1.23502 1.51679 0
M  V30 14918 O 1429.13 1.60251 2.19162 0
M  V30 14919 C 1427.59 3.56357 0.503775 0
M  V30 14920 C 1427.2 4.418 -0.742754 0
M  V30 14921 C 1428.94 4.11046 1.06025 0
M  V30 14922 C 1426.85 5.89576 -0.46414 0
M  V30 14923 H 1425.78 0.747496 0.0988189 0
M  V30 14924 H 1428.43 1.77679 -0.45854 0
M  V30 14925 H 1426.81 3.74833 1.27736 0
M  V30 14926 H 1427.99 4.35099 -1.51742 0
M  V30 14927 H 1426.3 3.98101 -1.22085 0
M  V30 14928 H 1428.9 5.19063 1.28365 0
M  V30 14929 H 1429.24 3.64247 2.01568 0
M  V30 14930 H 1429.77 3.9628 0.347384 0
M  V30 14931 H 1426.51 6.40608 -1.38928 0
M  V30 14932 H 1426.03 5.99181 0.272441 0
M  V30 14933 H 1427.71 6.46949 -0.0812761 0
M  V30 14934 N 1427.84 0.0718701 1.57436 0
M  V30 14935 C 1429.09 -0.597231 1.93493 0
M  V30 14936 C 1429.42 -1.69614 0.951906 0
M  V30 14937 O 1428.67 -1.95673 -0.0324554 0
M  V30 14938 C 1428.97 -1.21336 3.36173 0
M  V30 14939 C 1428.64 -0.240582 4.50258 0
M  V30 14940 C 1427.3 0.0270368 4.81192 0
M  V30 14941 C 1429.65 0.424924 5.19465 0
M  V30 14942 C 1426.98 0.967249 5.78672 0
M  V30 14943 C 1429.33 1.35346 6.17952 0
M  V30 14944 C 1428 1.62954 6.47304 0
M  V30 14945 H 1427.27 -0.218542 0.70804 0
M  V30 14946 H 1429.91 0.142762 1.90967 0
M  V30 14947 H 1428.22 -2.02909 3.35164 0
M  V30 14948 H 1429.92 -1.73836 3.61361 0
M  V30 14949 H 1426.51 -0.459352 4.26131 0
M  V30 14950 H 1430.69 0.231285 4.95761 0
M  V30 14951 H 1425.95 1.1884 5.99739 0
M  V30 14952 H 1430.12 1.87509 6.70681 0
M  V30 14953 H 1427.75 2.3597 7.2265 0
M  V30 14954 N 1429.32 -1.56304 -0.201686 0
M  V30 14955 C 1430.55 -1.84341 -0.939465 0
M  V30 14956 C 1430.97 -0.653544 -1.77128 0
M  V30 14957 O 1430.32 0.377813 -1.78546 0
M  V30 14958 C 1430.37 -3.11111 -1.84098 0
M  V30 14959 O 1430.09 -4.25509 -1.04276 0
M  V30 14960 C 1431.6 -3.52279 -2.69099 0
M  V30 14961 H 1428.82 -0.61232 -0.274419 0
M  V30 14962 H 1431.36 -2.03409 -0.210924 0
M  V30 14963 H 1429.51 -2.9396 -2.52322 0
M  V30 14964 H 1429.93 -4.97655 -1.6565 0
M  V30 14965 H 1431.4 -4.43965 -3.28023 0
M  V30 14966 H 1431.88 -2.74959 -3.42482 0
M  V30 14967 H 1432.49 -3.71939 -2.06256 0
M  V30 14968 N 1430.8 0.469154 -1.50455 0
M  V30 14969 C 1431.73 1.57493 -1.7239 0
M  V30 14970 C 1432.71 1.60161 -0.572915 0
M  V30 14971 O 1433.9 1.76397 -0.812259 0
M  V30 14972 C 1431.03 2.95804 -1.81981 0
M  V30 14973 C 1429.98 3.08001 -2.97185 0
M  V30 14974 C 1429.31 4.4798 -2.91922 0
M  V30 14975 C 1430.61 2.85039 -4.37665 0
M  V30 14976 H 1432.3 1.39389 -2.64974 0
M  V30 14977 H 1429.85 0.669133 -1.27509 0
M  V30 14978 H 1431.8 3.73091 -1.95911 0
M  V30 14979 H 1430.52 3.15068 -0.86021 0
M  V30 14980 H 1429.18 2.33148 -2.82909 0
M  V30 14981 H 1428.83 4.64165 -1.93803 0
M  V30 14982 H 1428.53 4.57076 -3.69263 0
M  V30 14983 H 1430.05 5.27284 -3.07903 0
M  V30 14984 H 1431.47 3.52074 -4.52456 0
M  V30 14985 H 1429.87 3.05578 -5.16471 0
M  V30 14986 H 1430.94 1.8088 -4.499 0
M  V30 14987 N 1432.28 1.40065 0.722464 0
M  V30 14988 C 1433.21 1.42532 1.84951 0
M  V30 14989 C 1434.19 0.287082 1.6766 0
M  V30 14990 O 1435.37 0.494715 1.87793 0
M  V30 14991 C 1432.5 1.28041 3.22836 0
M  V30 14992 C 1431.46 2.39396 3.54787 0
M  V30 14993 C 1430.78 2.09986 4.91742 0
M  V30 14994 C 1432.08 3.81729 3.56483 0
M  V30 14995 H 1433.78 2.36851 1.83144 0
M  V30 14996 H 1431.32 1.14005 0.879714 0
M  V30 14997 H 1433.28 1.28385 4.01367 0
M  V30 14998 H 1432 0.301947 3.25201 0
M  V30 14999 H 1430.66 2.3829 2.78592 0
M  V30 15000 H 1430.31 1.10547 4.90702 0
M  V30 15001 H 1430.01 2.84586 5.14086 0
M  V30 15002 H 1431.53 2.12 5.72615 0
M  V30 15003 H 1432.95 3.84696 4.25067 0
M  V30 15004 H 1431.34 4.55791 3.90351 0
M  V30 15005 H 1432.41 4.11807 2.56014 0
M  V30 15006 N 1433.76 -0.95397 1.25448 0
M  V30 15007 C 1435 -1.69866 1.10235 0
M  V30 15008 C 1435.33 -1.91204 -0.356552 0
M  V30 15009 O 1434.59 -1.4811 -1.27914 0
M  V30 15010 C 1434.89 -3.08613 1.80258 0
M  V30 15011 C 1434.55 -3.07072 3.30178 0
M  V30 15012 C 1433.21 -3.0636 3.71076 0
M  V30 15013 C 1435.57 -3.00351 4.25956 0
M  V30 15014 C 1432.89 -2.96675 5.06163 0
M  V30 15015 C 1435.25 -2.92209 5.61067 0
M  V30 15016 C 1433.91 -2.89832 6.01293 0
M  V30 15017 H 1433.18 -0.621583 0.40338 0
M  V30 15018 H 1435.83 -1.11448 1.55729 0
M  V30 15019 H 1434.13 -3.70578 1.27197 0
M  V30 15020 H 1435.83 -3.65055 1.6594 0
M  V30 15021 H 1432.42 -3.084 2.97637 0
M  V30 15022 H 1436.6 -3.0002 3.9535 0
M  V30 15023 H 1431.86 -2.93204 5.36508 0
M  V30 15024 H 1436.03 -2.8597 6.34976 0
M  V30 15025 H 1433.66 -2.82084 7.05927 0
M  V30 15026 N 1435.24 -1.07045 -1.15668 0
M  V30 15027 C 1436.48 -0.792908 -1.86657 0
M  V30 15028 C 1436.81 0.679213 -1.81935 0
M  V30 15029 O 1436.09 1.49822 -1.2403 0
M  V30 15030 C 1436.37 -1.2978 -3.35901 0
M  V30 15031 C 1436.23 -2.83424 -3.49272 0
M  V30 15032 C 1437.54 -0.911821 -4.30551 0
M  V30 15033 H 1434.66 -0.289509 -0.677756 0
M  V30 15034 H 1437.31 -1.32769 -1.35913 0
M  V30 15035 H 1435.46 -0.84288 -3.79246 0
M  V30 15036 H 1437.13 -3.37182 -3.14811 0
M  V30 15037 H 1435.37 -3.21777 -2.90933 0
M  V30 15038 H 1436.04 -3.13819 -4.54116 0
M  V30 15039 H 1438.52 -1.30376 -3.95147 0
M  V30 15040 H 1437.39 -1.29247 -5.33467 0
M  V30 15041 H 1437.65 0.18255 -4.41723 0
M  V30 15042 N 1436.71 1.32449 -0.85411 0
M  V30 15043 C 1437.96 1.96881 -0.45632 0
M  V30 15044 C 1438.28 1.67926 0.991248 0
M  V30 15045 O 1437.55 0.986195 1.69266 0
M  V30 15046 H 1436.13 0.728378 -0.165752 0
M  V30 15047 H 1438.79 1.61542 -1.09042 0
M  V30 15048 H 1437.89 3.0626 -0.600927 0
M  V30 15049 N 1438.19 0.611994 1.45232 0
M  V30 15050 C 1439.1 -0.105981 2.3436 0
M  V30 15051 C 1440.12 -0.855785 1.515 0
M  V30 15052 O 1441.29 -0.812376 1.84289 0
M  V30 15053 C 1438.36 -1.08794 3.29188 0
M  V30 15054 C 1437.42 -0.339611 4.27955 0
M  V30 15055 C 1436.65 -1.27479 5.18252 0
M  V30 15056 O 1436.88 -2.51279 5.12069 0
M  V30 15057 O 1435.81 -0.769469 5.96961 0
M  V30 15058 H 1439.64 0.626584 2.97166 0
M  V30 15059 H 1437.22 0.37224 1.44688 0
M  V30 15060 H 1439.1 -1.65338 3.8761 0
M  V30 15061 H 1437.78 -1.80145 2.68941 0
M  V30 15062 H 1436.68 0.268408 3.73136 0
M  V30 15063 H 1438.02 0.333501 4.91069 0
M  V30 15064 N 1439.67 -1.53632 0.351409 0
M  V30 15065 C 1440.62 -2.25281 -0.501724 0
M  V30 15066 C 1441.59 -1.25406 -1.08915 0
M  V30 15067 O 1442.77 -1.54157 -1.1243 0
M  V30 15068 C 1439.91 -3.03491 -1.64278 0
M  V30 15069 C 1439.02 -4.18233 -1.0819 0
M  V30 15070 C 1438.16 -4.83914 -2.1909 0
M  V30 15071 C 1437.2 -5.90712 -1.60394 0
M  V30 15072 N 1436.34 -6.50141 -2.65068 0
M  V30 15073 H 1441.18 -2.97775 0.11579 0
M  V30 15074 H 1438.71 -1.46938 0.0689141 0
M  V30 15075 H 1440.67 -3.47101 -2.31467 0
M  V30 15076 H 1439.3 -2.33279 -2.23116 0
M  V30 15077 H 1438.35 -3.7921 -0.300713 0
M  V30 15078 H 1439.66 -4.95023 -0.612644 0
M  V30 15079 H 1438.82 -5.30635 -2.94128 0
M  V30 15080 H 1437.56 -4.06565 -2.69362 0
M  V30 15081 H 1436.56 -5.43366 -0.838646 0
M  V30 15082 H 1437.79 -6.69973 -1.10964 0
M  V30 15083 H 1435.73 -5.75652 -3.14581 0
M  V30 15084 H 1435.65 -7.22427 -2.22788 0
M  V30 15085 H 1436.92 -7.01513 -3.39852 0
M  V30 15086 N 1441.15 -0.0802183 -1.57396 0
M  V30 15087 C 1442.08 0.920242 -2.08822 0
M  V30 15088 C 1443.06 1.2858 -0.995281 0
M  V30 15089 O 1444.24 1.39364 -1.26925 0
M  V30 15090 C 1441.37 2.22589 -2.55288 0
M  V30 15091 C 1440.42 2.01128 -3.76098 0
M  V30 15092 S 1441.25 1.2629 -5.20395 0
M  V30 15093 C 1442.4 2.58116 -5.70199 0
M  V30 15094 H 1442.64 0.482685 -2.93355 0
M  V30 15095 H 1440.17 0.13274 -1.53828 0
M  V30 15096 H 1442.13 2.97625 -2.82718 0
M  V30 15097 H 1440.79 2.63468 -1.71008 0
M  V30 15098 H 1439.98 2.97775 -4.06628 0
M  V30 15099 H 1439.58 1.34225 -3.49084 0
M  V30 15100 H 1441.88 3.54166 -5.77558 0
M  V30 15101 H 1442.82 2.32185 -6.68951 0
M  V30 15102 H 1443.23 2.65707 -4.98056 0
M  V30 15103 N 1442.63 1.56409 0.193394 0
M  V30 15104 C 1443.87 1.80724 0.913521 0
M  V30 15105 C 1444.2 0.653718 1.83185 0
M  V30 15106 O 1443.46 -0.360417 1.92353 0
M  V30 15107 C 1443.75 3.11039 1.76039 0
M  V30 15108 C 1443.42 4.39832 0.992892 0
M  V30 15109 C 1442.08 4.7482 0.780991 0
M  V30 15110 C 1444.43 5.19228 0.452985 0
M  V30 15111 C 1441.76 5.86697 0.0177286 0
M  V30 15112 C 1444.11 6.31902 -0.297075 0
M  V30 15113 C 1442.78 6.65472 -0.519977 0
M  V30 15114 H 1442.05 0.661315 0.334281 0
M  V30 15115 H 1444.7 1.90654 0.179786 0
M  V30 15116 H 1443 2.96353 2.56285 0
M  V30 15117 H 1444.7 3.27058 2.32022 0
M  V30 15118 H 1441.29 4.12376 1.16806 0
M  V30 15119 H 1445.47 4.9261 0.604092 0
M  V30 15120 H 1440.73 6.11178 -0.164925 0
M  V30 15121 H 1444.9 6.92639 -0.7228 0
M  V30 15122 H 1442.53 7.52004 -1.11331 0
M  V30 15123 N 1444.1 -0.461169 1.50702 0
M  V30 15124 C 1445.04 -1.57562 1.66453 0
M  V30 15125 C 1446.05 -1.53381 0.545726 0
M  V30 15126 O 1447.24 -1.58589 0.819254 0
M  V30 15127 C 1444.34 -2.9646 1.64209 0
M  V30 15128 C 1443.51 -3.25405 2.92285 0
M  V30 15129 C 1442.57 -4.43906 2.82549 0
M  V30 15130 O 1441.6 -4.43726 3.56505 0
M  V30 15131 N 1442.8 -5.46131 1.96777 0
M  V30 15132 H 1445.56 -1.44463 2.62584 0
M  V30 15133 H 1443.12 -0.649749 1.4829 0
M  V30 15134 H 1445.12 -3.73719 1.55295 0
M  V30 15135 H 1443.69 -3.03278 0.757718 0
M  V30 15136 H 1442.91 -2.36666 3.1525 0
M  V30 15137 H 1444.19 -3.41559 3.77114 0
M  V30 15138 H 1443.59 -5.49103 1.36023 0
M  V30 15139 H 1442.15 -6.22335 1.9376 0
M  V30 15140 N 1445.58 -1.40446 -0.715026 0
M  V30 15141 C 1446.83 -1.38059 -1.47046 0
M  V30 15142 C 1447.14 0.0139125 -1.95595 0
M  V30 15143 O 1448.35 0.160398 -2.71026 0
M  V30 15144 C 1446.81 -2.42646 -2.65802 0
M  V30 15145 C 1446.41 -3.8791 -2.2412 0
M  V30 15146 C 1448.16 -2.49367 -3.43535 0
M  V30 15147 C 1446.06 -4.84092 -3.39719 0
M  V30 15148 H 1444.99 -0.513341 -0.552265 0
M  V30 15149 H 1447.65 -1.66185 -0.778126 0
M  V30 15150 H 1446.03 -2.07621 -3.37208 0
M  V30 15151 H 1447.2 -4.32082 -1.6013 0
M  V30 15152 H 1445.52 -3.8467 -1.5943 0
M  V30 15153 H 1448.11 -3.18414 -4.29554 0
M  V30 15154 H 1448.46 -1.52436 -3.87388 0
M  V30 15155 H 1448.99 -2.83386 -2.79173 0
M  V30 15156 H 1445.73 -5.82358 -3.00898 0
M  V30 15157 H 1445.25 -4.44584 -4.02623 0
M  V30 15158 H 1446.93 -5.03939 -4.05776 0
M  V30 15159 N 1447.06 0.947303 -1.25952 0
M  V30 15160 C 1448.34 1.66964 -1.01894 0
M  V30 15161 C 1448.72 2.06192 0.452555 0
M  V30 15162 O 1448.06 1.78098 1.43156 0
M  V30 15163 C 1448.27 2.88643 -1.96179 0
M  V30 15164 C 1449.62 3.60432 -2.24441 0
M  V30 15165 O 1450.65 2.98737 -1.93996 0
M  V30 15166 O 1449.51 4.7154 -2.76247 0
M  V30 15167 H 1446.6 0.730875 -0.386976 0
M  V30 15168 H 1449.15 0.999577 -1.37137 0
M  V30 15169 H 1447.92 2.565 -2.95506 0
M  V30 15170 H 1447.54 3.63377 -1.61379 0
M  V30 15171 N 1448.54 1.07657 1.15099 0
M  V30 15172 C 1449.76 0.82291 1.90376 0
M  V30 15173 C 1450.19 -0.618415 1.77644 0
M  V30 15174 O 1449.55 -1.43248 1.11129 0
M  V30 15175 C 1449.59 1.23988 3.38614 0
M  V30 15176 O 1448.7 0.387085 4.10579 0
M  V30 15177 H 1448.04 0.299532 0.592602 0
M  V30 15178 H 1450.57 1.436 1.4574 0
M  V30 15179 H 1450.58 1.21741 3.89414 0
M  V30 15180 H 1449.25 2.28966 3.472 0
M  V30 15181 H 1447.83 0.472311 3.69897 0
M  V30 15182 N 1450.02 -1.31994 0.861122 0
M  V30 15183 C 1451.26 -1.96636 0.466754 0
M  V30 15184 C 1451.59 -1.6845 -0.982328 0
M  V30 15185 O 1450.86 -0.995157 -1.68741 0
M  V30 15186 H 1449.44 -0.727489 0.169613 0
M  V30 15187 H 1452.1 -1.60962 1.09897 0
M  V30 15188 H 1451.19 -3.05937 0.61716 0
M  V30 15189 N 1451.49 -0.619688 -1.44906 0
M  V30 15190 C 1452.91 -0.284338 -1.57047 0
M  V30 15191 C 1453.11 1.21284 -1.60911 0
M  V30 15192 O 1452.17 1.99642 -1.54594 0
M  V30 15193 C 1453.48 -0.966179 -2.84755 0
M  V30 15194 C 1455.03 -0.943239 -2.98449 0
M  V30 15195 C 1455.5 -1.60532 -4.28945 0
M  V30 15196 N 1456.99 -1.57138 -4.35732 0
M  V30 15197 C 1457.73 -2.05271 -5.35399 0
M  V30 15198 N 1457.22 -2.61543 -6.41535 0
M  V30 15199 N 1459.02 -1.95967 -5.26833 0
M  V30 15200 H 1451.17 -1.59167 -1.40641 0
M  V30 15201 H 1453.43 -0.667458 -0.673204 0
M  V30 15202 H 1453.14 -2.02086 -2.87844 0
M  V30 15203 H 1453.01 -0.49688 -3.73913 0
M  V30 15204 H 1455.4 0.102932 -2.9492 0
M  V30 15205 H 1455.48 -1.45092 -2.1067 0
M  V30 15206 H 1455.12 -2.65088 -4.33233 0
M  V30 15207 H 1455.05 -1.07256 -5.15561 0
M  V30 15208 H 1457.54 -1.16042 -3.59643 0
M  V30 15209 H 1457.86 -2.96033 -7.13852 0
M  V30 15210 H 1456.2 -2.65588 -6.42252 0
M  V30 15211 H 1459.39 -1.51734 -4.42825 0
M  V30 15212 H 1459.57 -2.33791 -6.04356 0
M  V30 15213 N 1452.97 1.53444 -0.359552 0
M  V30 15214 C 1453.92 2.27053 0.504949 0
M  V30 15215 C 1454.91 1.29801 1.08849 0
M  V30 15216 O 1456.12 1.47451 1.03239 0
M  V30 15217 H 1452.5 0.729756 0.181549 0
M  V30 15218 H 1454.47 2.98082 -0.137719 0
M  V30 15219 C 1453.22 3.06815 1.63585 0
M  V30 15220 H 1452.54 3.81488 1.19611 0
M  V30 15221 H 1453.98 3.61508 2.21558 0
M  V30 15222 C 1452.44 2.17286 2.57466 0
M  V30 15223 O 1452.97 1.77961 3.60129 0
M  V30 15224 N 1451.17 1.82041 2.26516 0
M  V30 15225 H 1450.72 2.14218 1.43068 0
M  V30 15226 H 1450.68 1.22423 2.89586 0
M  V30 15227 N 1454.45 0.0885642 1.57351 0
M  V30 15228 C 1455.41 -0.858178 2.12528 0
M  V30 15229 C 1456.41 -1.21522 1.05304 0
M  V30 15230 O 1457.6 -1.14573 1.3122 0
M  V30 15231 C 1454.74 -2.15619 2.64048 0
M  V30 15232 H 1455.93 -0.37918 2.97493 0
M  V30 15233 H 1453.48 -0.160354 1.55475 0
M  V30 15234 H 1454.22 -2.68018 1.82584 0
M  V30 15235 H 1454 -1.90995 3.42437 0
M  V30 15236 H 1455.49 -2.83359 3.06753 0
M  V30 15237 N 1455.93 -1.56509 -0.185096 0
M  V30 15238 C 1457.34 -1.71024 -0.748856 0
M  V30 15239 C 1457.69 -0.69681 -1.83409 0
M  V30 15240 O 1456.82 0.144711 -2.15916 0
M  V30 15241 C 1457.41 -3.1008 -1.36513 0
M  V30 15242 C 1455.97 -3.26325 -1.87587 0
M  V30 15243 C 1455.12 -2.66977 -0.749579 0
M  V30 15244 H 1458.07 -1.58649 0.0401175 0
M  V30 15245 H 1458.09 -3.07965 -2.23468 0
M  V30 15246 H 1457.6 -3.83816 -0.575051 0
M  V30 15247 H 1455.7 -2.57522 -2.69283 0
M  V30 15248 H 1455.81 -4.33931 -2.03078 0
M  V30 15249 H 1454.18 -2.26419 -1.16647 0
M  V30 15250 H 1454.96 -3.43288 0.0284301 0
M  V30 15251 N 1457.41 0.45317 -1.50944 0
M  V30 15252 C 1458.34 1.55655 -1.74051 0
M  V30 15253 C 1459.32 1.59545 -0.58987 0
M  V30 15254 O 1460.5 1.75526 -0.830922 0
M  V30 15255 C 1457.63 2.93857 -1.85109 0
M  V30 15256 C 1456.59 3.04832 -3.00435 0
M  V30 15257 C 1455.91 4.44858 -2.96657 0
M  V30 15258 C 1457.21 2.80381 -4.40663 0
M  V30 15259 H 1458.91 1.36571 -2.66437 0
M  V30 15260 H 1456.45 0.655572 -1.28212 0
M  V30 15261 H 1458.41 3.70992 -1.99857 0
M  V30 15262 H 1457.13 3.14138 -0.893579 0
M  V30 15263 H 1455.79 2.30134 -2.85366 0
M  V30 15264 H 1455.44 4.62083 -1.98716 0
M  V30 15265 H 1455.14 4.53134 -3.7409 0
M  V30 15266 H 1456.66 5.23989 -3.13478 0
M  V30 15267 H 1458.07 3.47255 -4.56165 0
M  V30 15268 H 1456.47 3.00083 -5.19683 0
M  V30 15269 H 1457.54 1.76099 -4.51793 0
M  V30 15270 N 1458.88 1.40823 0.707568 0
M  V30 15271 C 1459.83 1.38198 1.81343 0
M  V30 15272 C 1460.82 0.258234 1.58814 0
M  V30 15273 O 1462.01 0.497972 1.69851 0
M  V30 15274 C 1459.14 1.25483 3.19545 0
M  V30 15275 C 1458.23 2.42672 3.47809 0
M  V30 15276 N 1458.62 3.6815 3.46842 0
M  V30 15277 C 1456.91 2.36225 3.78304 0
M  V30 15278 C 1457.62 4.45805 3.73675 0
M  V30 15279 N 1456.59 3.75753 3.92824 0
M  V30 15280 H 1460.39 2.33147 1.7894 0
M  V30 15281 H 1457.91 1.34709 0.907044 0
M  V30 15282 H 1459.9 1.21684 3.98746 0
M  V30 15283 H 1458.56 0.315081 3.23168 0
M  V30 15284 H 1459.58 4.01201 3.27503 0
M  V30 15285 H 1456.25 1.50659 3.89369 0
M  V30 15286 H 1457.64 5.54692 3.79165 0
M  V30 15287 N 1460.36 -0.94061 1.26453 0
M  V30 15288 C 1461.59 -1.72654 1.14914 0
M  V30 15289 C 1462.01 -1.85823 -0.291789 0
M  V30 15290 O 1461.37 -1.34888 -1.2114 0
M  V30 15291 C 1461.42 -3.11083 1.82372 0
M  V30 15292 O 1460.52 -3.971 1.1129 0
M  V30 15293 H 1459.86 -0.529704 0.400387 0
M  V30 15294 H 1462.39 -1.17803 1.67283 0
M  V30 15295 H 1462.4 -3.6147 1.89219 0
M  V30 15296 H 1461.08 -3.00815 2.87199 0
M  V30 15297 H 1459.66 -3.5555 1.12423 0
M  V30 15298 N 1461.84 -1.08266 -1.14527 0
M  V30 15299 C 1463.25 -0.832702 -1.67102 0
M  V30 15300 C 1463.6 0.640776 -1.85441 0
M  V30 15301 O 1462.73 1.49505 -1.56452 0
M  V30 15302 C 1463.32 -1.50502 -3.03537 0
M  V30 15303 C 1461.88 -1.30234 -3.53152 0
M  V30 15304 C 1461.03 -1.56873 -2.28661 0
M  V30 15305 H 1463.98 -1.24344 -0.986118 0
M  V30 15306 H 1464 -0.931426 -3.68924 0
M  V30 15307 H 1463.51 -2.57741 -2.90157 0
M  V30 15308 H 1461.61 -0.250582 -3.71756 0
M  V30 15309 H 1461.73 -2.02898 -4.34015 0
M  V30 15310 H 1460.09 -0.990214 -2.34663 0
M  V30 15311 H 1460.87 -2.65316 -2.17859 0
M  V30 15312 N 1463.32 1.31536 -0.86811 0
M  V30 15313 C 1464.73 1.78991 -0.530937 0
M  V30 15314 C 1465.08 1.71553 0.952046 0
M  V30 15315 O 1464.21 1.28216 1.74326 0
M  V30 15316 C 1464.8 3.25004 -0.956981 0
M  V30 15317 C 1463.36 3.70362 -0.671495 0
M  V30 15318 C 1462.51 2.52361 -1.14932 0
M  V30 15319 H 1465.46 1.18644 -1.05401 0
M  V30 15320 H 1465.48 3.79477 -0.278883 0
M  V30 15321 H 1464.99 3.30385 -2.03635 0
M  V30 15322 H 1463.09 3.70483 0.39659 0
M  V30 15323 H 1463.21 4.62581 -1.24722 0
M  V30 15324 H 1461.57 2.4826 -0.569144 0
M  V30 15325 H 1462.35 2.60489 -2.23608 0
M  V30 15326 N 1464.8 0.627364 1.44575 0
M  V30 15327 C 1466.02 0.135576 2.06956 0
M  V30 15328 C 1466.45 -1.17922 1.46547 0
M  V30 15329 O 1465.81 -1.72255 0.565509 0
M  V30 15330 C 1465.85 0.030347 3.60587 0
M  V30 15331 O 1464.96 -1.01464 3.99724 0
M  V30 15332 H 1464.3 0.083058 0.658785 0
M  V30 15333 H 1466.83 0.862977 1.8551 0
M  V30 15334 H 1466.84 -0.161461 4.0768 0
M  V30 15335 H 1465.51 0.990285 4.03938 0
M  V30 15336 H 1464.09 -0.797701 3.64268 0
M  V30 15337 N 1466.28 -1.53251 0.367684 0
M  V30 15338 C 1467.19 -2.29518 -0.485669 0
M  V30 15339 C 1468.2 -1.35568 -1.09075 0
M  V30 15340 O 1469.38 -1.68626 -1.10124 0
M  V30 15341 C 1466.44 -3.07115 -1.60876 0
M  V30 15342 C 1465.5 -4.16736 -1.031 0
M  V30 15343 C 1464.74 -4.90624 -2.10056 0
M  V30 15344 O 1464.96 -4.64393 -3.31203 0
M  V30 15345 O 1463.89 -5.76503 -1.72996 0
M  V30 15346 H 1467.72 -3.034 0.135017 0
M  V30 15347 H 1465.3 -1.48816 0.132005 0
M  V30 15348 H 1467.19 -3.55564 -2.26168 0
M  V30 15349 H 1465.86 -2.36068 -2.21481 0
M  V30 15350 H 1464.77 -3.72534 -0.341928 0
M  V30 15351 H 1466.1 -4.89956 -0.469473 0
M  V30 15352 N 1467.75 -0.0969077 -1.57302 0
M  V30 15353 C 1468.7 0.872039 -2.10664 0
M  V30 15354 C 1469.69 1.24265 -1.02211 0
M  V30 15355 O 1470.88 1.21743 -1.28482 0
M  V30 15356 C 1468.01 2.13042 -2.69199 0
M  V30 15357 C 1467.09 1.78517 -3.84698 0
M  V30 15358 N 1467.49 1.14558 -4.92656 0
M  V30 15359 C 1465.78 2.08115 -3.94467 0
M  V30 15360 C 1466.48 0.986837 -5.73268 0
M  V30 15361 N 1465.46 1.50473 -5.22359 0
M  V30 15362 H 1469.26 0.373625 -2.91515 0
M  V30 15363 H 1466.78 0.10625 -1.62052 0
M  V30 15364 H 1468.77 2.83403 -3.05759 0
M  V30 15365 H 1467.43 2.63448 -1.89803 0
M  V30 15366 H 1468.44 0.812179 -5.11492 0
M  V30 15367 H 1465.12 2.60722 -3.26083 0
M  V30 15368 H 1466.51 0.48651 -6.70136 0
M  V30 15369 N 1469.23 1.56605 0.176793 0
M  V30 15370 C 1470.46 1.85543 0.9087 0
M  V30 15371 C 1470.87 0.679554 1.76575 0
M  V30 15372 O 1470.21 -0.360668 1.80125 0
M  V30 15373 C 1470.27 3.08823 1.84034 0
M  V30 15374 C 1469.94 4.41942 1.16344 0
M  V30 15375 C 1470.94 5.17176 0.531526 0
M  V30 15376 C 1468.62 4.88679 1.16183 0
M  V30 15377 C 1470.61 6.37332 -0.0929601 0
M  V30 15378 C 1468.3 6.08767 0.533514 0
M  V30 15379 C 1469.3 6.82937 -0.0927812 0
M  V30 15380 O 1468.99 8.00748 -0.711202 0
M  V30 15381 H 1468.72 0.619862 0.269717 0
M  V30 15382 H 1471.27 2.04579 0.183414 0
M  V30 15383 H 1469.5 2.85718 2.6058 0
M  V30 15384 H 1471.19 3.24253 2.44161 0
M  V30 15385 H 1471.96 4.82152 0.524784 0
M  V30 15386 H 1467.84 4.30891 1.63871 0
M  V30 15387 H 1471.38 6.95165 -0.582409 0
M  V30 15388 H 1467.28 6.43256 0.537821 0
M  V30 15389 H 1468.05 8.16224 -0.609911 0
M  V30 15390 N 1470.71 -0.445159 1.51182 0
M  V30 15391 C 1471.94 -1.21787 1.67259 0
M  V30 15392 C 1472.35 -1.85206 0.366641 0
M  V30 15393 O 1471.71 -1.70376 -0.654095 0
M  V30 15394 C 1471.76 -2.30765 2.78262 0
M  V30 15395 O 1471.48 -1.69942 4.03796 0
M  V30 15396 C 1472.98 -3.21186 3.05539 0
M  V30 15397 H 1470.2 -0.367364 0.561502 0
M  V30 15398 H 1472.75 -0.528415 1.97555 0
M  V30 15399 H 1470.9 -2.9544 2.50587 0
M  V30 15400 H 1471.32 -2.41905 4.65384 0
M  V30 15401 H 1472.79 -3.93805 3.8681 0
M  V30 15402 H 1473.27 -3.81487 2.17634 0
M  V30 15403 H 1473.87 -2.62221 3.34844 0
M  V30 15404 N 1472.19 -1.41197 -0.700089 0
M  V30 15405 C 1473.44 -1.39611 -1.45574 0
M  V30 15406 C 1473.75 -0.00683378 -1.95599 0
M  V30 15407 O 1474.96 0.131643 -2.71181 0
M  V30 15408 C 1473.41 -2.45452 -2.63214 0
M  V30 15409 C 1473.02 -3.90265 -2.19993 0
M  V30 15410 C 1474.76 -2.52996 -3.40871 0
M  V30 15411 C 1472.67 -4.87668 -3.34565 0
M  V30 15412 H 1471.6 -0.51917 -0.546789 0
M  V30 15413 H 1474.25 -1.67001 -0.760456 0
M  V30 15414 H 1472.63 -2.11186 -3.34987 0
M  V30 15415 H 1473.81 -4.33756 -1.55539 0
M  V30 15416 H 1472.12 -3.86339 -1.55341 0
M  V30 15417 H 1474.72 -3.22952 -4.26153 0
M  V30 15418 H 1475.06 -1.56536 -3.85749 0
M  V30 15419 H 1475.6 -2.86331 -2.76151 0
M  V30 15420 H 1472.33 -5.85517 -2.94704 0
M  V30 15421 H 1471.85 -4.4883 -3.97884 0
M  V30 15422 H 1473.53 -5.08215 -4.00409 0
M  V30 15423 N 1473.67 0.933891 -1.2695 0
M  V30 15424 C 1474.91 1.67539 -1.1231 0
M  V30 15425 C 1475.23 1.92765 0.331788 0
M  V30 15426 O 1476.43 2.6481 0.598983 0
M  V30 15427 C 1474.89 3.01722 -1.96194 0
M  V30 15428 C 1474.5 2.84216 -3.46302 0
M  V30 15429 C 1476.24 3.79513 -1.90185 0
M  V30 15430 C 1474.15 4.13916 -4.22407 0
M  V30 15431 H 1473.08 0.62839 -0.416704 0
M  V30 15432 H 1475.73 1.03801 -1.5132 0
M  V30 15433 H 1474.11 3.66482 -1.50023 0
M  V30 15434 H 1475.29 2.28261 -4.00292 0
M  V30 15435 H 1473.6 2.1986 -3.53625 0
M  V30 15436 H 1476.2 4.75615 -2.44325 0
M  V30 15437 H 1476.54 4.07019 -0.874129 0
M  V30 15438 H 1477.07 3.21539 -2.34217 0
M  V30 15439 H 1473.81 3.91591 -5.25677 0
M  V30 15440 H 1473.33 4.69558 -3.73196 0
M  V30 15441 H 1475.01 4.82322 -4.31248 0
M  V30 15442 N 1475.14 1.08871 1.13951 0
M  V30 15443 C 1476.39 0.821287 1.85098 0
M  V30 15444 C 1476.72 -0.65302 1.8321 0
M  V30 15445 O 1475.97 -1.49629 1.26134 0
M  V30 15446 C 1476.27 1.29443 3.33135 0
M  V30 15447 C 1475.94 2.77737 3.55208 0
M  V30 15448 C 1474.6 3.18238 3.60941 0
M  V30 15449 C 1476.95 3.7338 3.63644 0
M  V30 15450 C 1474.28 4.53165 3.72637 0
M  V30 15451 C 1476.63 5.08089 3.76867 0
M  V30 15452 C 1475.3 5.48187 3.8085 0
M  V30 15453 H 1474.57 0.30053 0.67732 0
M  V30 15454 H 1477.21 1.36249 1.34568 0
M  V30 15455 H 1475.52 0.672919 3.85978 0
M  V30 15456 H 1477.22 1.06421 3.86621 0
M  V30 15457 H 1473.81 2.45393 3.51398 0
M  V30 15458 H 1477.99 3.43207 3.58501 0
M  V30 15459 H 1473.25 4.83679 3.73985 0
M  V30 15460 H 1477.42 5.82058 3.82337 0
M  V30 15461 H 1475.05 6.52737 3.89665 0
M  V30 15462 N 1476.62 -1.31073 0.875073 0
M  V30 15463 C 1477.57 -2.30335 0.3238 0
M  V30 15464 C 1478.56 -1.5974 -0.563869 0
M  V30 15465 O 1479.77 -1.743 -0.449402 0
M  V30 15466 H 1476.14 -0.747062 0.0860376 0
M  V30 15467 H 1478.12 -2.743 1.17483 0
M  V30 15468 C 1476.86 -3.44705 -0.455348 0
M  V30 15469 H 1476.19 -3.99203 0.218433 0
M  V30 15470 H 1477.63 -4.16262 -0.806329 0
M  V30 15471 C 1476.09 -2.93807 -1.6486 0
M  V30 15472 O 1476.62 -2.93004 -2.74794 0
M  V30 15473 N 1474.82 -2.49944 -1.48244 0
M  V30 15474 H 1474.37 -2.50797 -0.588116 0
M  V30 15475 H 1474.33 -2.16245 -2.28222 0
M  V30 15476 N 1478.1 -0.635022 -1.4424 0
M  V30 15477 C 1479.33 -0.14826 -2.06368 0
M  V30 15478 C 1479.74 1.17875 -1.47482 0
M  V30 15479 O 1479.1 1.72384 -0.599168 0
M  V30 15480 C 1479.15 -0.031519 -3.61486 0
M  V30 15481 O 1478.87 -1.30605 -4.18179 0
M  V30 15482 C 1480.37 0.483479 -4.40656 0
M  V30 15483 H 1477.59 -0.081472 -0.666036 0
M  V30 15484 H 1480.14 -0.870526 -1.85046 0
M  V30 15485 H 1478.29 0.641208 -3.82057 0
M  V30 15486 H 1478.71 -1.15341 -5.11661 0
M  V30 15487 H 1480.18 0.514164 -5.496 0
M  V30 15488 H 1480.66 1.51129 -4.12379 0
M  V30 15489 H 1481.26 -0.156131 -4.25013 0
M  V30 15490 N 1479.58 1.53054 -0.375806 0
M  V30 15491 C 1480.83 2.01401 0.210673 0
M  V30 15492 C 1481.15 1.26275 1.47935 0
M  V30 15493 O 1480.41 0.347611 1.92588 0
M  V30 15494 C 1480.71 3.53321 0.538419 0
M  V30 15495 C 1480.37 4.46376 -0.637126 0
M  V30 15496 C 1479.04 4.71534 -0.959653 0
M  V30 15497 C 1481.39 5.01364 -1.42421 0
M  V30 15498 C 1478.72 5.4893 -2.07105 0
M  V30 15499 C 1481.07 5.79975 -2.5261 0
M  V30 15500 C 1479.73 6.03416 -2.85386 0
M  V30 15501 H 1479 0.736979 0.0770907 0
M  V30 15502 H 1481.65 1.84574 -0.510376 0
M  V30 15503 H 1479.95 3.6815 1.34062 0
M  V30 15504 H 1481.65 3.88212 1.00461 0
M  V30 15505 H 1478.24 4.2695 -0.375722 0
M  V30 15506 H 1482.42 4.81865 -1.18828 0
M  V30 15507 H 1477.68 5.65309 -2.32886 0
M  V30 15508 H 1481.85 6.21588 -3.14008 0
M  V30 15509 H 1479.48 6.63172 -3.71627 0
M  V30 15510 N 1481.06 0.105248 1.57248 0
M  V30 15511 C 1482.3 -0.556878 1.95004 0
M  V30 15512 C 1482.64 -1.672 0.987818 0
M  V30 15513 O 1481.91 -1.94487 0.022616 0
M  V30 15514 C 1482.19 -1.10252 3.42807 0
M  V30 15515 C 1482.05 0.00823908 4.49799 0
M  V30 15516 C 1483.37 -1.99774 3.92146 0
M  V30 15517 H 1480.48 -0.200959 0.709073 0
M  V30 15518 H 1483.13 0.178019 1.89164 0
M  V30 15519 H 1481.28 -1.7288 3.47915 0
M  V30 15520 H 1482.95 0.642944 4.56797 0
M  V30 15521 H 1481.19 0.673265 4.28544 0
M  V30 15522 H 1481.86 -0.414538 5.50441 0
M  V30 15523 H 1484.34 -1.47036 3.89255 0
M  V30 15524 H 1483.21 -2.34874 4.9611 0
M  V30 15525 H 1483.48 -2.91902 3.32033 0
M  V30 15526 N 1482.53 -1.56697 -0.168486 0
M  V30 15527 C 1483.47 -1.91738 -1.23741 0
M  V30 15528 C 1484.45 -0.780522 -1.42642 0
M  V30 15529 O 1485.63 -1.0341 -1.57602 0
M  V30 15530 C 1482.76 -2.17077 -2.59991 0
M  V30 15531 C 1481.8 -3.39759 -2.5781 0
M  V30 15532 S 1482.64 -4.94035 -2.06614 0
M  V30 15533 C 1483.79 -5.22472 -3.44636 0
M  V30 15534 H 1484.02 -2.82104 -0.938344 0
M  V30 15535 H 1481.56 -1.49822 -0.373177 0
M  V30 15536 H 1483.52 -2.32356 -3.38409 0
M  V30 15537 H 1482.18 -1.27413 -2.87097 0
M  V30 15538 H 1481.37 -3.54698 -3.58058 0
M  V30 15539 H 1480.97 -3.2361 -1.8749 0
M  V30 15540 H 1483.26 -5.14623 -4.40647 0
M  V30 15541 H 1484.21 -6.24075 -3.34569 0
M  V30 15542 H 1484.61 -4.50034 -3.40779 0
M  V30 15543 N 1484.01 0.437135 -1.51416 0
M  V30 15544 C 1484.95 1.55058 -1.67429 0
M  V30 15545 C 1485.92 1.53997 -0.521878 0
M  V30 15546 O 1487.11 1.73121 -0.74574 0
M  V30 15547 C 1484.23 2.93637 -1.68805 0
M  V30 15548 C 1483.28 3.12721 -2.90013 0
M  V30 15549 S 1484.11 2.88998 -4.50822 0
M  V30 15550 C 1485.27 4.29858 -4.54942 0
M  V30 15551 H 1485.5 1.41241 -2.61607 0
M  V30 15552 H 1483.04 0.62684 -1.41103 0
M  V30 15553 H 1484.99 3.73516 -1.70282 0
M  V30 15554 H 1483.65 3.04816 -0.758031 0
M  V30 15555 H 1482.85 4.14041 -2.87377 0
M  V30 15556 H 1482.45 2.40667 -2.86278 0
M  V30 15557 H 1484.74 5.23062 -4.30596 0
M  V30 15558 H 1485.68 4.37528 -5.56754 0
M  V30 15559 H 1486.09 4.13523 -3.84265 0
M  V30 15560 N 1485.49 1.41566 0.692592 0
M  V30 15561 C 1486.42 1.39582 1.81795 0
M  V30 15562 C 1487.44 0.29754 1.60058 0
M  V30 15563 O 1488.62 0.559463 1.69506 0
M  V30 15564 C 1485.72 1.15506 3.18609 0
M  V30 15565 C 1484.9 2.37432 3.67349 0
M  V30 15566 C 1483.96 2.09168 4.82841 0
M  V30 15567 O 1482.98 2.8223 4.94303 0
M  V30 15568 N 1484.18 1.08377 5.70294 0
M  V30 15569 H 1486.95 2.36577 1.83988 0
M  V30 15570 H 1484.51 1.36216 0.875026 0
M  V30 15571 H 1486.5 0.945452 3.93501 0
M  V30 15572 H 1485.07 0.270987 3.11423 0
M  V30 15573 H 1484.29 2.74076 2.8333 0
M  V30 15574 H 1485.58 3.18661 3.96652 0
M  V30 15575 H 1484.98 0.479122 5.63667 0
M  V30 15576 H 1483.54 0.934042 6.45073 0
M  V30 15577 N 1486.97 -0.927146 1.27443 0
M  V30 15578 C 1487.9 -2.04483 1.12735 0
M  V30 15579 C 1488.88 -1.70076 0.0286662 0
M  V30 15580 O 1490.06 -1.93133 0.203252 0
M  V30 15581 C 1487.19 -3.38557 0.774352 0
M  V30 15582 C 1486.15 -3.87078 1.82632 0
M  V30 15583 C 1485.47 -5.17964 1.32729 0
M  V30 15584 C 1486.77 -4.10409 3.23051 0
M  V30 15585 H 1488.47 -2.17046 2.06231 0
M  V30 15586 H 1486.01 -1.04292 0.992937 0
M  V30 15587 H 1487.97 -4.16227 0.658273 0
M  V30 15588 H 1486.69 -3.26009 -0.196321 0
M  V30 15589 H 1485.35 -3.11602 1.93132 0
M  V30 15590 H 1485 -5.01808 0.346059 0
M  V30 15591 H 1484.7 -5.51398 2.03061 0
M  V30 15592 H 1486.22 -5.98203 1.22416 0
M  V30 15593 H 1487.64 -4.78646 3.15549 0
M  V30 15594 H 1486.03 -4.5515 3.91099 0
M  V30 15595 H 1487.1 -3.15685 3.68064 0
M  V30 15596 N 1488.45 -1.09474 -1.13372 0
M  V30 15597 C 1489.69 -0.831091 -1.84659 0
M  V30 15598 C 1490.02 0.643294 -1.83554 0
M  V30 15599 O 1489.28 1.48958 -1.26925 0
M  V30 15600 C 1489.58 -1.31208 -3.32444 0
M  V30 15601 C 1489.24 -2.79617 -3.5373 0
M  V30 15602 C 1487.9 -3.20147 -3.59248 0
M  V30 15603 C 1490.26 -3.75303 -3.61659 0
M  V30 15604 C 1487.58 -4.55135 -3.70228 0
M  V30 15605 C 1489.94 -5.1008 -3.74167 0
M  V30 15606 C 1488.6 -5.50199 -3.77938 0
M  V30 15607 H 1487.87 -0.304118 -0.675717 0
M  V30 15608 H 1490.52 -1.36961 -1.33843 0
M  V30 15609 H 1488.82 -0.693379 -3.85616 0
M  V30 15610 H 1490.52 -1.08469 -3.86051 0
M  V30 15611 H 1487.11 -2.47253 -3.50091 0
M  V30 15612 H 1491.29 -3.45103 -3.56676 0
M  V30 15613 H 1486.55 -4.85656 -3.71414 0
M  V30 15614 H 1490.72 -5.84077 -3.79245 0
M  V30 15615 H 1488.35 -6.54794 -3.86198 0
M  V30 15616 N 1489.92 1.30607 -0.882012 0
M  V30 15617 C 1490.87 2.3016 -0.336011 0
M  V30 15618 C 1491.87 1.60037 0.555389 0
M  V30 15619 O 1493.07 1.74536 0.440152 0
M  V30 15620 H 1489.45 0.746595 -0.0899982 0
M  V30 15621 H 1491.42 2.73673 -1.18936 0
M  V30 15622 C 1490.17 3.44942 0.437061 0
M  V30 15623 H 1489.49 3.99081 -0.2396 0
M  V30 15624 H 1490.93 4.16684 0.784242 0
M  V30 15625 C 1489.39 2.94678 1.633 0
M  V30 15626 O 1489.92 2.94457 2.73236 0
M  V30 15627 N 1488.13 2.50727 1.46917 0
M  V30 15628 H 1487.67 2.51105 0.574807 0
M  V30 15629 H 1487.63 2.17453 2.27072 0
M  V30 15630 N 1491.4 0.642663 1.43901 0
M  V30 15631 C 1492.31 -0.0562462 2.34533 0
M  V30 15632 C 1493.33 -0.823457 1.53281 0
M  V30 15633 O 1494.5 -0.773103 1.85971 0
M  V30 15634 C 1491.57 -1.01787 3.31422 0
M  V30 15635 C 1490.63 -0.248759 4.28579 0
M  V30 15636 C 1489.86 -1.16458 5.20839 0
M  V30 15637 O 1490.09 -2.40361 5.17284 0
M  V30 15638 O 1489.02 -0.642671 5.98459 0
M  V30 15639 H 1492.85 0.689476 2.9577 0
M  V30 15640 H 1490.43 0.402847 1.43866 0
M  V30 15641 H 1492.31 -1.5708 3.91029 0
M  V30 15642 H 1490.99 -1.744 2.72702 0
M  V30 15643 H 1489.9 0.347495 3.72483 0
M  V30 15644 H 1491.23 0.437589 4.90251 0
M  V30 15645 N 1492.88 -1.52852 0.383918 0
M  V30 15646 C 1494.13 -2.00694 -0.201206 0
M  V30 15647 C 1494.44 -1.2748 -1.48352 0
M  V30 15648 O 1495.65 -1.66005 -2.14836 0
M  V30 15649 C 1494.11 -3.57567 -0.409117 0
M  V30 15650 C 1493.71 -4.39675 0.859628 0
M  V30 15651 C 1495.46 -4.13713 -0.950899 0
M  V30 15652 C 1493.36 -5.88138 0.620292 0
M  V30 15653 H 1492.29 -0.749854 -0.0789656 0
M  V30 15654 H 1494.95 -1.764 0.505488 0
M  V30 15655 H 1493.33 -3.78088 -1.17753 0
M  V30 15656 H 1494.5 -4.30923 1.63224 0
M  V30 15657 H 1492.82 -3.94724 1.32597 0
M  V30 15658 H 1495.41 -5.22284 -1.14558 0
M  V30 15659 H 1495.76 -3.69463 -1.9184 0
M  V30 15660 H 1496.29 -3.97062 -0.242195 0
M  V30 15661 H 1493.03 -6.367 1.55864 0
M  V30 15662 H 1492.55 -5.99693 -0.113483 0
M  V30 15663 H 1494.23 -6.46506 0.252775 0
M  V30 15664 N 1494.36 -0.113586 -1.5719 0
M  V30 15665 C 1495.31 0.855985 -2.16277 0
M  V30 15666 C 1496.3 1.2792 -1.11053 0
M  V30 15667 O 1497.51 1.25158 -1.29366 0
M  V30 15668 H 1493.88 0.294134 -0.692091 0
M  V30 15669 H 1495.85 0.333109 -2.96535 0
M  V30 15670 C 1494.6 2.09832 -2.77247 0
M  V30 15671 H 1493.93 1.78158 -3.5791 0
M  V30 15672 H 1495.37 2.7569 -3.22135 0
M  V30 15673 C 1493.82 2.88453 -1.74059 0
M  V30 15674 O 1494.35 3.83648 -1.19068 0
M  V30 15675 N 1492.56 2.52342 -1.44124 0
M  V30 15676 H 1492.11 1.74998 -1.89033 0
M  V30 15677 H 1492.07 3.05244 -0.753234 0
M  V30 15678 N 1495.84 1.56784 0.160173 0
M  V30 15679 C 1496.8 1.96373 1.18195 0
M  V30 15680 C 1497.8 0.848674 1.3658 0
M  V30 15681 O 1498.99 1.11553 1.33796 0
M  V30 15682 C 1496.12 2.26824 2.54487 0
M  V30 15683 H 1497.32 2.87819 0.842641 0
M  V30 15684 H 1494.87 1.51014 0.403038 0
M  V30 15685 H 1495.6 1.38129 2.93413 0
M  V30 15686 H 1495.39 3.08112 2.42507 0
M  V30 15687 H 1496.88 2.58337 3.28104 0
M  V30 15688 N 1497.32 -0.429099 1.51646 0
M  V30 15689 C 1498.73 -0.766217 1.40005 0
M  V30 15690 C 1498.93 -1.95481 0.488837 0
M  V30 15691 O 1497.99 -2.52445 -0.0529101 0
M  V30 15692 C 1499.3 -1.03886 2.82185 0
M  V30 15693 C 1500.85 -1.1428 2.91392 0
M  V30 15694 C 1501.32 -1.44833 4.34497 0
M  V30 15695 N 1502.81 -1.5174 4.37641 0
M  V30 15696 C 1503.55 -1.76968 5.45408 0
M  V30 15697 N 1503.05 -1.99934 6.63324 0
M  V30 15698 N 1504.84 -1.78819 5.32898 0
M  V30 15699 H 1496.99 0.35358 2.09436 0
M  V30 15700 H 1499.25 0.0958189 0.943145 0
M  V30 15701 H 1498.96 -0.238103 3.50893 0
M  V30 15702 H 1498.83 -1.96434 3.22015 0
M  V30 15703 H 1501.22 -1.93418 2.22876 0
M  V30 15704 H 1501.3 -0.19614 2.55047 0
M  V30 15705 H 1500.94 -0.662201 5.03565 0
M  V30 15706 H 1500.87 -2.40718 4.68361 0
M  V30 15707 H 1503.37 -1.35862 3.52633 0
M  V30 15708 H 1503.68 -2.18578 7.41245 0
M  V30 15709 H 1502.02 -1.97239 6.66425 0
M  V30 15710 H 1505.21 -1.60402 4.3976 0
M  V30 15711 H 1505.39 -1.98142 6.16963 0
M  V30 15712 N 1498.79 -1.41931 -0.685074 0
M  V30 15713 C 1499.74 -1.44604 -1.79884 0
M  V30 15714 C 1500.71 -0.299166 -1.63384 0
M  V30 15715 O 1501.9 -0.501749 -1.84085 0
M  V30 15716 C 1499.04 -1.3442 -3.17845 0
M  V30 15717 C 1498.15 -2.59061 -3.45704 0
M  V30 15718 C 1497.28 -2.41094 -4.73336 0
M  V30 15719 C 1496.32 -3.61159 -4.94197 0
M  V30 15720 N 1495.46 -3.42198 -6.13062 0
M  V30 15721 H 1500.3 -2.39788 -1.76934 0
M  V30 15722 H 1497.84 -1.1906 -0.863891 0
M  V30 15723 H 1499.79 -1.26515 -3.97555 0
M  V30 15724 H 1498.42 -0.42838 -3.19945 0
M  V30 15725 H 1497.48 -2.77374 -2.60322 0
M  V30 15726 H 1498.79 -3.48341 -3.57016 0
M  V30 15727 H 1497.94 -2.30717 -5.61119 0
M  V30 15728 H 1496.68 -1.49288 -4.64289 0
M  V30 15729 H 1495.69 -3.7198 -4.04859 0
M  V30 15730 H 1496.91 -4.53933 -5.05096 0
M  V30 15731 H 1494.86 -2.531 -6.05208 0
M  V30 15732 H 1494.77 -4.25059 -6.25189 0
M  V30 15733 H 1496.04 -3.35612 -7.03551 0
M  V30 15734 N 1500.27 0.920374 -1.27933 0
M  V30 15735 C 1501.52 1.66338 -1.14081 0
M  V30 15736 C 1501.83 1.93107 0.311324 0
M  V30 15737 O 1503.04 2.65431 0.570862 0
M  V30 15738 C 1501.5 2.99624 -1.99383 0
M  V30 15739 C 1501.1 2.80527 -3.49297 0
M  V30 15740 C 1502.85 3.77474 -1.94199 0
M  V30 15741 C 1500.75 4.09413 -4.26773 0
M  V30 15742 H 1499.68 0.623935 -0.423346 0
M  V30 15743 H 1502.34 1.0219 -1.52412 0
M  V30 15744 H 1500.72 3.6487 -1.53902 0
M  V30 15745 H 1501.89 2.24002 -4.02691 0
M  V30 15746 H 1500.21 2.16097 -3.55937 0
M  V30 15747 H 1502.8 4.72997 -2.49356 0
M  V30 15748 H 1503.15 4.06069 -0.917249 0
M  V30 15749 H 1503.68 3.19036 -2.37614 0
M  V30 15750 H 1500.42 3.85994 -5.29801 0
M  V30 15751 H 1499.94 4.65574 -3.78155 0
M  V30 15752 H 1501.62 4.77721 -4.36339 0
M  V30 15753 N 1501.75 1.10074 1.1279 0
M  V30 15754 C 1502.7 0.715508 2.16482 0
M  V30 15755 C 1503.68 -0.273462 1.58559 0
M  V30 15756 O 1504.88 -0.0827829 1.76806 0
M  V30 15757 C 1502 0.144874 3.42994 0
M  V30 15758 C 1501.09 1.16066 4.07909 0
M  V30 15759 N 1501.48 2.35008 4.47889 0
M  V30 15760 C 1499.78 1.00033 4.34637 0
M  V30 15761 C 1500.48 2.99678 4.98566 0
M  V30 15762 N 1499.46 2.2721 4.93839 0
M  V30 15763 H 1503.26 1.62098 2.45156 0
M  V30 15764 H 1500.77 0.97792 1.29655 0
M  V30 15765 H 1502.77 -0.149164 4.16633 0
M  V30 15766 H 1501.43 -0.755369 3.15791 0
M  V30 15767 H 1502.44 2.72557 4.40378 0
M  V30 15768 H 1499.12 0.155328 4.17211 0
M  V30 15769 H 1500.51 4.00831 5.39244 0
M  V30 15770 N 1503.23 -1.30138 0.888926 0
M  V30 15771 C 1504.48 -1.95602 0.508359 0
M  V30 15772 C 1504.8 -1.70495 -0.946377 0
M  V30 15773 O 1504.07 -1.03073 -1.66592 0
M  V30 15774 H 1502.65 -0.723728 0.185006 0
M  V30 15775 H 1505.31 -1.58594 1.13286 0
M  V30 15776 H 1504.4 -3.04559 0.681915 0
M  V30 15777 N 1504.71 -0.650285 -1.43559 0
M  V30 15778 C 1505.62 0.0438076 -2.34559 0
M  V30 15779 C 1506.63 0.815316 -1.53716 0
M  V30 15780 O 1507.81 0.76323 -1.86378 0
M  V30 15781 C 1504.87 1.00028 -3.31957 0
M  V30 15782 C 1503.93 0.226027 -4.28705 0
M  V30 15783 C 1503.17 1.13694 -5.21449 0
M  V30 15784 O 1503.39 2.37614 -5.18551 0
M  V30 15785 O 1502.32 0.610924 -5.98792 0
M  V30 15786 H 1506.15 -0.705152 -2.954 0
M  V30 15787 H 1503.73 -0.410471 -1.43651 0
M  V30 15788 H 1505.62 1.55004 -3.91857 0
M  V30 15789 H 1504.29 1.72952 -2.73623 0
M  V30 15790 H 1503.2 -0.367244 -3.72293 0
M  V30 15791 H 1504.53 -0.463582 -4.90012 0
M  V30 15792 N 1506.18 1.52647 -0.392018 0
M  V30 15793 C 1507.6 1.59544 -0.0421007 0
M  V30 15794 C 1507.8 1.40586 1.44353 0
M  V30 15795 O 1506.86 1.22422 2.20837 0
M  V30 15796 C 1508.17 2.9614 -0.521713 0
M  V30 15797 C 1509.72 3.09325 -0.478205 0
M  V30 15798 C 1510.19 4.48374 -0.93405 0
M  V30 15799 N 1511.68 4.54566 -0.890173 0
M  V30 15800 C 1512.42 5.60395 -1.21427 0
M  V30 15801 N 1511.91 6.73858 -1.60897 0
M  V30 15802 N 1513.71 5.50515 -1.13534 0
M  V30 15803 H 1505.86 1.63219 -1.35917 0
M  V30 15804 H 1508.12 0.766913 -0.557269 0
M  V30 15805 H 1507.83 3.15238 -1.55942 0
M  V30 15806 H 1507.7 3.7712 0.0777658 0
M  V30 15807 H 1510.09 2.89921 0.550418 0
M  V30 15808 H 1510.17 2.30292 -1.11352 0
M  V30 15809 H 1509.81 4.68519 -1.96092 0
M  V30 15810 H 1509.74 5.25878 -0.275717 0
M  V30 15811 H 1512.23 3.7311 -0.599758 0
M  V30 15812 H 1512.55 7.5058 -1.83983 0
M  V30 15813 H 1510.89 6.75182 -1.64786 0
M  V30 15814 H 1514.08 4.60755 -0.825977 0
M  V30 15815 H 1514.26 6.32889 -1.39124 0
M  V30 15816 N 1507.66 0.121921 1.57128 0
M  V30 15817 C 1508.61 -0.844503 2.16728 0
M  V30 15818 C 1509.6 -1.2733 1.1173 0
M  V30 15819 O 1510.81 -1.2447 1.30028 0
M  V30 15820 H 1507.19 -0.290459 0.693641 0
M  V30 15821 H 1509.16 -0.317379 2.96707 0
M  V30 15822 C 1507.91 -2.08359 2.78356 0
M  V30 15823 H 1507.23 -1.76258 3.5885 0
M  V30 15824 H 1508.67 -2.73978 3.23592 0
M  V30 15825 C 1507.13 -2.87526 1.75586 0
M  V30 15826 O 1507.66 -3.83011 1.21101 0
M  V30 15827 N 1505.86 -2.51575 1.4546 0
M  V30 15828 H 1505.41 -1.73993 1.89958 0
M  V30 15829 H 1505.37 -3.0484 0.769411 0
M  V30 15830 N 1509.14 -1.56867 -0.151857 0
M  V30 15831 C 1510.39 -1.83353 -0.866566 0
M  V30 15832 C 1510.72 -0.702784 -1.81038 0
M  V30 15833 O 1509.99 0.293944 -1.92266 0
M  V30 15834 C 1510.28 -3.20316 -1.64529 0
M  V30 15835 C 1510.13 -4.43946 -0.723297 0
M  V30 15836 C 1511.45 -3.54441 -2.60882 0
M  V30 15837 H 1508.57 -0.666957 -0.313588 0
M  V30 15838 H 1511.21 -1.89541 -0.131954 0
M  V30 15839 H 1509.36 -3.15172 -2.27154 0
M  V30 15840 H 1511.03 -4.61173 -0.10842 0
M  V30 15841 H 1509.28 -4.33788 -0.0325582 0
M  V30 15842 H 1509.95 -5.36374 -1.3041 0
M  V30 15843 H 1512.42 -3.60164 -2.08377 0
M  V30 15844 H 1511.3 -4.51314 -3.12422 0
M  V30 15845 H 1511.56 -2.80146 -3.42009 0
M  V30 15846 N 1510.62 0.421051 -1.51871 0
M  V30 15847 C 1511.87 1.16908 -1.65344 0
M  V30 15848 C 1512.19 1.90801 -0.377538 0
M  V30 15849 O 1511.45 1.84972 0.639061 0
M  V30 15850 C 1511.75 2.19819 -2.81806 0
M  V30 15851 C 1511.41 1.62821 -4.20476 0
M  V30 15852 C 1510.08 1.47 -4.58197 0
M  V30 15853 C 1512.43 1.21079 -5.06941 0
M  V30 15854 C 1509.76 0.879359 -5.80073 0
M  V30 15855 C 1512.11 0.634373 -6.29411 0
M  V30 15856 C 1510.77 0.4632 -6.65891 0
M  V30 15857 H 1510.04 0.427798 -0.605037 0
M  V30 15858 H 1512.69 0.457896 -1.85945 0
M  V30 15859 H 1510.99 2.97037 -2.55492 0
M  V30 15860 H 1512.69 2.77548 -2.89427 0
M  V30 15861 H 1509.28 1.76115 -3.90745 0
M  V30 15862 H 1513.46 1.32115 -4.78392 0
M  V30 15863 H 1508.72 0.734646 -6.0697 0
M  V30 15864 H 1512.89 0.302484 -6.95743 0
M  V30 15865 H 1510.52 0.00341397 -7.602 0
M  V30 15866 N 1512.1 1.42293 0.677538 0
M  V30 15867 C 1513.37 1.331 1.43331 0
M  V30 15868 C 1513.75 -0.0329227 2.11074 0
M  V30 15869 O 1513.1 -1.04826 2.03036 0
M  V30 15870 C 1513.31 2.49725 2.438 0
M  V30 15871 C 1514.66 2.91716 3.08524 0
M  V30 15872 O 1515.68 2.49596 2.54127 0
M  V30 15873 O 1514.54 3.64609 4.07091 0
M  V30 15874 H 1511.64 0.524758 0.639185 0
M  V30 15875 H 1514.18 1.54294 0.706493 0
M  V30 15876 H 1512.95 3.40663 1.92522 0
M  V30 15877 H 1512.58 2.30503 3.23966 0
M  V30 15878 N 1513.57 -0.913576 1.28419 0
M  V30 15879 C 1514.82 -1.65944 1.15355 0
M  V30 15880 C 1515.14 -1.92706 -0.298228 0
M  V30 15881 O 1514.41 -1.54333 -1.20657 0
M  V30 15882 H 1512.99 -0.615063 0.423919 0
M  V30 15883 H 1515.66 -1.0962 1.6115 0
M  V30 15884 H 1514.75 -2.62173 1.69327 0
M  V30 15885 N 1515.05 -1.1067 -1.12204 0
M  V30 15886 C 1516.3 -0.845439 -1.83126 0
M  V30 15887 C 1516.61 0.631022 -1.85142 0
M  V30 15888 O 1517.82 1.00827 -2.52084 0
M  V30 15889 C 1516.28 -1.46265 -3.28838 0
M  V30 15890 C 1515.88 -2.97258 -3.35174 0
M  V30 15891 C 1517.63 -1.28088 -4.04714 0
M  V30 15892 C 1515.54 -3.52002 -4.75235 0
M  V30 15893 H 1514.47 -0.312617 -0.686139 0
M  V30 15894 H 1517.12 -1.33098 -1.26321 0
M  V30 15895 H 1515.5 -0.904781 -3.85525 0
M  V30 15896 H 1516.67 -3.59381 -2.88413 0
M  V30 15897 H 1514.99 -3.14617 -2.72773 0
M  V30 15898 H 1517.58 -1.6643 -5.08139 0
M  V30 15899 H 1517.93 -0.222682 -4.15704 0
M  V30 15900 H 1518.46 -1.80696 -3.54392 0
M  V30 15901 H 1515.2 -4.57499 -4.69441 0
M  V30 15902 H 1514.72 -2.94648 -5.22439 0
M  V30 15903 H 1516.4 -3.49967 -5.4418 0
M  V30 15904 N 1516.53 1.29665 -0.895815 0
M  V30 15905 C 1517.78 1.95716 -0.519752 0
M  V30 15906 C 1518.11 1.7065 0.933212 0
M  V30 15907 O 1517.36 1.01014 1.67615 0
M  V30 15908 C 1517.66 3.49355 -0.754025 0
M  V30 15909 C 1517.33 3.94491 -2.18375 0
M  V30 15910 C 1515.99 4.06526 -2.57468 0
M  V30 15911 C 1518.34 4.17874 -3.11498 0
M  V30 15912 C 1515.67 4.39311 -3.88874 0
M  V30 15913 C 1518.02 4.52132 -4.42447 0
M  V30 15914 C 1516.68 4.62376 -4.81419 0
M  V30 15915 H 1515.95 0.716176 -0.190191 0
M  V30 15916 H 1518.6 1.54333 -1.13373 0
M  V30 15917 H 1516.91 3.91758 -0.0570932 0
M  V30 15918 H 1518.6 3.98551 -0.442493 0
M  V30 15919 H 1515.19 3.85638 -1.87033 0
M  V30 15920 H 1519.38 4.08046 -2.8251 0
M  V30 15921 H 1514.63 4.45444 -4.18795 0
M  V30 15922 H 1518.81 4.69175 -5.14634 0
M  V30 15923 H 1516.43 4.87535 -5.83278 0
M  V30 15924 N 1518.01 0.657889 1.43212 0
M  V30 15925 C 1519.42 0.325876 1.56238 0
M  V30 15926 C 1519.62 -1.16975 1.6407 0
M  V30 15927 O 1518.68 -1.95473 1.59833 0
M  V30 15928 C 1519.99 1.04134 2.82093 0
M  V30 15929 C 1521.54 1.02204 2.95844 0
M  V30 15930 C 1522.02 1.71849 4.24537 0
M  V30 15931 N 1523.51 1.68635 4.31412 0
M  V30 15932 C 1524.24 2.19393 5.29768 0
M  V30 15933 N 1523.74 2.7846 6.34375 0
M  V30 15934 N 1525.53 2.09866 5.21452 0
M  V30 15935 H 1517.68 1.62839 1.36371 0
M  V30 15936 H 1519.95 0.685072 0.655271 0
M  V30 15937 H 1519.65 2.09647 2.82385 0
M  V30 15938 H 1519.53 0.595842 3.72464 0
M  V30 15939 H 1521.91 -0.0247029 2.9509 0
M  V30 15940 H 1521.99 1.50627 2.06749 0
M  V30 15941 H 1521.64 2.76482 4.26052 0
M  V30 15942 H 1521.57 1.20888 5.12536 0
M  V30 15943 H 1524.06 1.25536 3.56439 0
M  V30 15944 H 1524.37 3.14855 7.05752 0
M  V30 15945 H 1522.72 2.82523 6.34985 0
M  V30 15946 H 1525.91 1.63422 4.38647 0
M  V30 15947 H 1526.08 2.49732 5.97945 0
M  V30 15948 N 1519.49 -1.52437 0.400108 0
M  V30 15949 C 1520.43 -2.28312 -0.444572 0
M  V30 15950 C 1521.43 -1.32641 -1.0537 0
M  V30 15951 O 1522.63 -1.50136 -0.99293 0
M  V30 15952 H 1519.01 -0.734313 -0.162137 0
M  V30 15953 H 1520.98 -2.97612 0.216702 0
M  V30 15954 C 1519.73 -3.11044 -1.55393 0
M  V30 15955 H 1519.05 -3.84525 -1.09455 0
M  V30 15956 H 1520.49 -3.67255 -2.11896 0
M  V30 15957 C 1518.95 -2.24035 -2.51614 0
M  V30 15958 O 1519.48 -1.87447 -3.55284 0
M  V30 15959 N 1517.69 -1.87982 -2.2161 0
M  V30 15960 H 1517.23 -2.17936 -1.37338 0
M  V30 15961 H 1517.19 -1.30058 -2.86238 0
M  V30 15962 N 1520.96 -0.130252 -1.57061 0
M  V30 15963 C 1522.38 0.393318 -1.8251 0
M  V30 15964 C 1522.73 1.65862 -1.04806 0
M  V30 15965 O 1521.85 2.14473 -0.288118 0
M  V30 15966 C 1522.45 0.720366 -3.31053 0
M  V30 15967 C 1521.01 1.18852 -3.57143 0
M  V30 15968 C 1520.15 0.202964 -2.76556 0
M  V30 15969 H 1523.1 -0.355217 -1.54674 0
M  V30 15970 H 1523.12 1.57671 -3.46295 0
M  V30 15971 H 1522.64 -0.200719 -3.87581 0
M  V30 15972 H 1520.74 2.12612 -3.05985 0
M  V30 15973 H 1520.85 1.12607 -4.65678 0
M  V30 15974 H 1519.21 0.692264 -2.45112 0
M  V30 15975 H 1520 -0.711417 -3.35848 0
M  V30 15976 N 1522.44 1.56945 0.143535 0
M  V30 15977 C 1523.69 1.82728 0.854011 0
M  V30 15978 C 1524.01 0.712048 1.82179 0
M  V30 15979 O 1525.21 0.855579 2.57667 0
M  V30 15980 C 1523.67 3.23882 1.56934 0
M  V30 15981 C 1523.28 4.4335 0.643789 0
M  V30 15982 C 1525.02 3.58936 2.26639 0
M  V30 15983 C 1522.93 5.75528 1.36094 0
M  V30 15984 H 1521.86 0.681474 0.32266 0
M  V30 15985 H 1524.51 1.83189 0.106741 0
M  V30 15986 H 1522.89 3.17819 2.36236 0
M  V30 15987 H 1524.06 4.60658 -0.114257 0
M  V30 15988 H 1522.38 4.16364 0.0549721 0
M  V30 15989 H 1524.98 4.54948 2.80939 0
M  V30 15990 H 1525.32 2.85163 3.03295 0
M  V30 15991 H 1525.85 3.66676 1.54252 0
M  V30 15992 H 1522.59 6.52406 0.636157 0
M  V30 15993 H 1522.11 5.62149 2.09161 0
M  V30 15994 H 1523.79 6.18445 1.9009 0
M  V30 15995 N 1523.92 -0.412991 1.52093 0
M  V30 15996 C 1525.17 -1.1603 1.65962 0
M  V30 15997 C 1525.5 -1.90598 0.387652 0
M  V30 15998 O 1524.75 -1.85308 -0.629243 0
M  V30 15999 C 1525.05 -2.18321 2.82968 0
M  V30 16000 C 1524.72 -1.60589 4.21334 0
M  V30 16001 C 1523.38 -1.44568 4.5897 0
M  V30 16002 C 1525.73 -1.18388 5.07576 0
M  V30 16003 C 1523.06 -0.848584 5.80531 0
M  V30 16004 C 1525.41 -0.600985 6.29739 0
M  V30 16005 C 1524.07 -0.42788 6.66127 0
M  V30 16006 H 1523.34 -0.424583 0.607297 0
M  V30 16007 H 1525.99 -0.448028 1.86185 0
M  V30 16008 H 1524.3 -2.95678 2.57063 0
M  V30 16009 H 1525.99 -2.76009 2.90895 0
M  V30 16010 H 1522.58 -1.7404 3.91673 0
M  V30 16011 H 1526.77 -1.29576 4.79086 0
M  V30 16012 H 1522.02 -0.702447 6.07351 0
M  V30 16013 H 1526.2 -0.265583 6.95893 0
M  V30 16014 H 1523.82 0.0369013 7.60191 0
M  V30 16015 N 1525.4 -1.4265 -0.669982 0
M  V30 16016 C 1526.64 -1.44866 -1.44199 0
M  V30 16017 C 1527 -0.0647049 -1.91891 0
M  V30 16018 O 1528.2 0.0384187 -2.68773 0
M  V30 16019 C 1526.48 -2.44846 -2.60356 0
M  V30 16020 S 1528.03 -2.65803 -3.49134 0
M  V30 16021 H 1524.85 -0.512859 -0.49244 0
M  V30 16022 H 1527.45 -1.7929 -0.779442 0
M  V30 16023 H 1526.16 -3.44161 -2.23565 0
M  V30 16024 H 1525.69 -2.11863 -3.31478 0
M  V30 16025 H 1527.7 -1.94466 -4.56506 0
M  V30 16026 N 1526.88 0.906753 -1.28902 0
M  V30 16027 C 1528.11 1.69019 -1.19333 0
M  V30 16028 C 1528.52 1.87176 0.247065 0
M  V30 16029 O 1527.88 1.40376 1.16623 0
M  V30 16030 C 1527.93 3.07854 -1.89495 0
M  V30 16031 O 1527.65 2.90531 -3.27908 0
M  V30 16032 C 1529.15 4.02246 -1.86314 0
M  V30 16033 H 1526.37 0.528119 -0.413922 0
M  V30 16034 H 1528.91 1.13441 -1.70151 0
M  V30 16035 H 1527.07 3.60228 -1.42529 0
M  V30 16036 H 1527.48 3.78451 -3.63146 0
M  V30 16037 H 1528.96 4.97104 -2.39983 0
M  V30 16038 H 1529.43 4.31149 -0.837071 0
M  V30 16039 H 1530.04 3.55803 -2.3299 0
M  V30 16040 N 1528.36 1.11264 1.11616 0
M  V30 16041 C 1529.6 0.855139 1.82675 0
M  V30 16042 C 1529.92 -0.621194 1.85474 0
M  V30 16043 O 1531.12 -0.994886 2.52615 0
M  V30 16044 C 1529.58 1.48007 3.28058 0
M  V30 16045 C 1529.19 2.99031 3.33593 0
M  V30 16046 C 1530.93 1.30233 4.04029 0
M  V30 16047 C 1528.84 3.54517 4.73362 0
M  V30 16048 H 1527.77 0.316252 0.684471 0
M  V30 16049 H 1530.42 1.33766 1.25614 0
M  V30 16050 H 1528.8 0.925214 3.8504 0
M  V30 16051 H 1529.98 3.60905 2.86503 0
M  V30 16052 H 1528.29 3.16059 2.711 0
M  V30 16053 H 1530.89 1.69122 5.07249 0
M  V30 16054 H 1531.23 0.244724 4.1558 0
M  V30 16055 H 1531.76 1.82573 3.53429 0
M  V30 16056 H 1528.5 4.59982 4.67008 0
M  V30 16057 H 1528.02 2.97414 5.20869 0
M  V30 16058 H 1529.7 3.52848 5.42316 0
M  V30 16059 N 1529.83 -1.29188 0.902679 0
M  V30 16060 C 1531.08 -1.95727 0.530909 0
M  V30 16061 C 1531.41 -1.70971 -0.921014 0
M  V30 16062 O 1530.69 -1.02436 -1.65339 0
M  V30 16063 C 1530.97 -3.50463 0.827523 0
M  V30 16064 C 1530.82 -3.84665 2.33137 0
M  V30 16065 C 1532.14 -4.38964 0.316053 0
M  V30 16066 H 1529.26 -0.71091 0.194361 0
M  V30 16067 H 1531.9 -1.52752 1.1299 0
M  V30 16068 H 1530.05 -3.87199 0.317732 0
M  V30 16069 H 1531.73 -3.57859 2.91093 0
M  V30 16070 H 1529.97 -3.32102 2.79088 0
M  V30 16071 H 1530.64 -4.92676 2.48947 0
M  V30 16072 H 1533.12 -4.09237 0.75262 0
M  V30 16073 H 1531.99 -5.4611 0.552769 0
M  V30 16074 H 1532.25 -4.35105 -0.783329 0
M  V30 16075 N 1531.31 -0.665475 -1.42861 0
M  V30 16076 C 1532.24 0.00482845 -2.335 0
M  V30 16077 C 1533.22 0.799135 -1.50159 0
M  V30 16078 O 1534.41 0.75816 -1.78789 0
M  V30 16079 C 1531.54 0.963347 -3.33672 0
M  V30 16080 C 1530.49 0.278294 -4.27094 0
M  V30 16081 C 1529.82 1.34911 -5.174 0
M  V30 16082 C 1531.12 -0.836925 -5.15551 0
M  V30 16083 H 1532.81 -0.752129 -2.89799 0
M  V30 16084 H 1530.36 -0.363139 -1.39346 0
M  V30 16085 H 1532.31 1.44128 -3.95986 0
M  V30 16086 H 1531.03 1.75161 -2.75656 0
M  V30 16087 H 1529.69 -0.179314 -3.66161 0
M  V30 16088 H 1529.34 2.12912 -4.55716 0
M  V30 16089 H 1529.04 0.895919 -5.8073 0
M  V30 16090 H 1530.57 1.82816 -5.8259 0
M  V30 16091 H 1531.98 -0.440617 -5.71604 0
M  V30 16092 H 1530.38 -1.21533 -5.87665 0
M  V30 16093 H 1531.45 -1.6897 -4.54507 0
M  V30 16094 N 1532.79 1.52222 -0.408187 0
M  V30 16095 C 1534.04 2.01404 0.167574 0
M  V30 16096 C 1534.36 1.29572 1.45726 0
M  V30 16097 O 1533.63 0.421363 1.91315 0
M  V30 16098 H 1532.21 0.744174 0.0649156 0
M  V30 16099 H 1534.87 1.87148 -0.544212 0
M  V30 16100 H 1533.97 3.09966 0.36436 0
M  V30 16101 N 1534.27 0.138579 1.5699 0
M  V30 16102 C 1535.5 -0.521806 2.00212 0
M  V30 16103 C 1535.91 -1.58967 1.01857 0
M  V30 16104 O 1535.27 -1.82494 0.0143099 0
M  V30 16105 C 1535.32 -1.13014 3.4338 0
M  V30 16106 O 1535.04 -0.104938 4.37974 0
M  V30 16107 C 1536.54 -1.87195 4.01837 0
M  V30 16108 H 1533.76 -0.136564 0.656956 0
M  V30 16109 H 1536.3 0.230685 2.03195 0
M  V30 16110 H 1534.46 -1.8333 3.41275 0
M  V30 16111 H 1534.87 -0.54948 5.21614 0
M  V30 16112 H 1536.35 -2.25061 5.04035 0
M  V30 16113 H 1536.82 -2.75467 3.42074 0
M  V30 16114 H 1537.43 -1.21597 4.07547 0
M  V30 16115 N 1535.75 -1.57019 -0.13521 0
M  V30 16116 C 1536.99 -1.8399 -0.845818 0
M  V30 16117 C 1537.32 -0.721255 -1.80633 0
M  V30 16118 O 1536.58 0.288778 -1.93558 0
M  V30 16119 C 1536.87 -3.17358 -1.64373 0
M  V30 16120 C 1536.54 -4.43214 -0.828967 0
M  V30 16121 C 1535.2 -4.77391 -0.604226 0
M  V30 16122 C 1537.55 -5.20551 -0.259965 0
M  V30 16123 C 1534.88 -5.86359 0.200033 0
M  V30 16124 C 1537.23 -6.30364 0.531397 0
M  V30 16125 C 1535.9 -6.63083 0.766605 0
M  V30 16126 H 1535.17 -0.673266 -0.309507 0
M  V30 16127 H 1537.82 -1.9119 -0.108903 0
M  V30 16128 H 1536.12 -3.05661 -2.4511 0
M  V30 16129 H 1537.82 -3.35444 -2.19724 0
M  V30 16130 H 1534.41 -4.16427 -1.01421 0
M  V30 16131 H 1538.59 -4.94512 -0.420847 0
M  V30 16132 H 1533.85 -6.10144 0.391646 0
M  V30 16133 H 1538.02 -6.89479 0.979371 0
M  V30 16134 H 1535.65 -7.47354 1.39164 0
M  V30 16135 N 1537.22 0.404919 -1.52309 0
M  V30 16136 C 1538.19 1.47627 -1.75325 0
M  V30 16137 C 1539.19 1.48234 -0.623153 0
M  V30 16138 O 1540.38 1.49685 -0.891069 0
M  V30 16139 C 1537.51 2.87013 -1.83947 0
M  V30 16140 H 1538.7 1.2851 -2.70971 0
M  V30 16141 H 1536.26 0.635677 -1.42789 0
M  V30 16142 H 1536.99 3.11495 -0.902309 0
M  V30 16143 H 1536.78 2.87974 -2.66108 0
M  V30 16144 H 1538.27 3.64671 -2.03481 0
M  V30 16145 N 1538.7 1.43003 0.662408 0
M  V30 16146 C 1539.95 1.43422 1.41821 0
M  V30 16147 C 1540.26 0.0586909 1.95512 0
M  V30 16148 O 1541.47 -0.0596978 2.71434 0
M  V30 16149 C 1539.93 2.52344 2.56613 0
M  V30 16150 C 1539.53 3.95961 2.09569 0
M  V30 16151 C 1541.28 2.61945 3.34044 0
M  V30 16152 C 1539.19 4.96367 3.21518 0
M  V30 16153 H 1538.12 0.533485 0.532832 0
M  V30 16154 H 1540.77 1.68958 0.715911 0
M  V30 16155 H 1539.15 2.19993 3.2927 0
M  V30 16156 H 1540.32 4.37728 1.43984 0
M  V30 16157 H 1538.64 3.90322 1.45044 0
M  V30 16158 H 1541.23 3.34137 4.17441 0
M  V30 16159 H 1541.58 1.66708 3.81463 0
M  V30 16160 H 1542.11 2.93552 2.68463 0
M  V30 16161 H 1538.85 5.93124 2.79077 0
M  V30 16162 H 1538.37 4.59221 3.85845 0
M  V30 16163 H 1540.05 5.18652 3.86793 0
M  V30 16164 N 1540.18 -0.899904 1.29381 0
M  V30 16165 C 1541.11 -2.00914 1.103 0
M  V30 16166 C 1542.13 -1.62721 0.050568 0
M  V30 16167 O 1543.31 -1.76044 0.295068 0
M  V30 16168 C 1540.41 -3.32473 0.656896 0
M  V30 16169 C 1539.59 -3.99195 1.7878 0
M  V30 16170 C 1538.65 -5.09043 1.33274 0
M  V30 16171 O 1537.67 -5.31486 2.03742 0
M  V30 16172 N 1538.87 -5.80143 0.203519 0
M  V30 16173 H 1541.64 -2.17838 2.05832 0
M  V30 16174 H 1539.2 -1.07208 1.21318 0
M  V30 16175 H 1541.19 -4.03305 0.335783 0
M  V30 16176 H 1539.76 -3.11921 -0.205959 0
M  V30 16177 H 1538.98 -3.21729 2.2778 0
M  V30 16178 H 1540.27 -4.40515 2.54606 0
M  V30 16179 H 1539.67 -5.64395 -0.384005 0
M  V30 16180 H 1538.23 -6.51774 -0.0582282 0
M  V30 16181 N 1541.66 -1.11854 -1.11024 0
M  V30 16182 C 1542.91 -0.864814 -1.82219 0
M  V30 16183 C 1543.22 0.611349 -1.85801 0
M  V30 16184 O 1544.43 0.981475 -2.53139 0
M  V30 16185 C 1542.88 -1.49745 -3.27268 0
M  V30 16186 C 1542.49 -3.00796 -3.32003 0
M  V30 16187 C 1544.23 -1.32374 -4.03333 0
M  V30 16188 C 1542.14 -3.57023 -4.71475 0
M  V30 16189 H 1541.07 -0.319877 -0.682784 0
M  V30 16190 H 1543.72 -1.34431 -1.24903 0
M  V30 16191 H 1542.1 -0.94562 -3.84544 0
M  V30 16192 H 1543.28 -3.6242 -2.84585 0
M  V30 16193 H 1541.59 -3.17493 -2.6942 0
M  V30 16194 H 1544.19 -1.7181 -5.06345 0
M  V30 16195 H 1544.53 -0.26676 -4.15444 0
M  V30 16196 H 1545.07 -1.84444 -3.52456 0
M  V30 16197 H 1541.81 -4.62453 -4.64562 0
M  V30 16198 H 1541.33 -3.00172 -5.19285 0
M  V30 16199 H 1543 -3.5572 -5.40437 0
M  V30 16200 N 1543.14 1.28707 -0.909517 0
M  V30 16201 C 1544.38 1.95443 -0.541281 0
M  V30 16202 C 1544.72 1.71457 0.911934 0
M  V30 16203 O 1543.99 1.03312 1.64794 0
M  V30 16204 C 1544.27 3.50019 -0.846097 0
M  V30 16205 C 1544.13 3.83423 -2.35173 0
M  V30 16206 C 1545.45 4.3879 -0.339328 0
M  V30 16207 H 1542.56 0.709869 -0.198128 0
M  V30 16208 H 1545.21 1.52151 -1.13799 0
M  V30 16209 H 1543.36 3.87025 -0.338262 0
M  V30 16210 H 1545.03 3.5631 -2.92986 0
M  V30 16211 H 1543.27 3.30618 -2.80846 0
M  V30 16212 H 1543.94 4.91348 -2.51557 0
M  V30 16213 H 1546.42 4.08832 -0.774312 0
M  V30 16214 H 1545.29 5.45809 -0.581722 0
M  V30 16215 H 1545.56 4.35514 0.760244 0
M  V30 16216 N 1544.61 0.673042 1.42506 0
M  V30 16217 C 1545.86 0.1918 2.00786 0
M  V30 16218 C 1546.18 -1.20814 1.53829 0
M  V30 16219 O 1547.38 -1.78566 2.04515 0
M  V30 16220 C 1545.84 0.292045 3.58713 0
M  V30 16221 C 1545.45 1.69593 4.14659 0
M  V30 16222 C 1547.19 -0.130575 4.24299 0
M  V30 16223 C 1545.1 1.74904 5.64945 0
M  V30 16224 H 1544.03 0.0679452 0.750932 0
M  V30 16225 H 1546.68 0.837968 1.63249 0
M  V30 16226 H 1545.06 -0.421985 3.93745 0
M  V30 16227 H 1546.23 2.4369 3.9109 0
M  V30 16228 H 1544.55 2.06625 3.61518 0
M  V30 16229 H 1547.15 -0.11102 5.34585 0
M  V30 16230 H 1547.49 -1.16552 3.99651 0
M  V30 16231 H 1548.02 0.532386 3.94221 0
M  V30 16232 H 1544.76 2.76374 5.94388 0
M  V30 16233 H 1544.28 1.0516 5.9051 0
M  V30 16234 H 1545.96 1.50168 6.29332 0
M  V30 16235 N 1546.09 -1.52004 0.416254 0
M  V30 16236 C 1547.34 -2.02188 -0.157434 0
M  V30 16237 C 1547.67 -1.30097 -1.44182 0
M  V30 16238 O 1546.95 -0.409426 -1.90142 0
M  V30 16239 C 1547.23 -3.57896 -0.397847 0
M  V30 16240 C 1547.08 -4.40628 0.903715 0
M  V30 16241 C 1548.4 -4.24072 -1.17689 0
M  V30 16242 H 1545.52 -0.734889 -0.0557437 0
M  V30 16243 H 1548.16 -1.81831 0.551118 0
M  V30 16244 H 1546.31 -3.75372 -1.00142 0
M  V30 16245 H 1547.98 -4.34848 1.53964 0
M  V30 16246 H 1546.23 -4.06556 1.5131 0
M  V30 16247 H 1546.9 -5.47673 0.689802 0
M  V30 16248 H 1549.37 -4.10738 -0.665832 0
M  V30 16249 H 1548.25 -5.32944 -1.31386 0
M  V30 16250 H 1548.51 -3.83507 -2.19942 0
M  V30 16251 N 1547.57 -0.146903 -1.56914 0
M  V30 16252 C 1548.5 0.823803 -2.13883 0
M  V30 16253 C 1549.52 1.21081 -1.08826 0
M  V30 16254 O 1550.7 1.15491 -1.36103 0
M  V30 16255 C 1547.8 2.11686 -2.64655 0
M  V30 16256 C 1546.98 1.89723 -3.94112 0
M  V30 16257 C 1546.04 3.03016 -4.30195 0
M  V30 16258 O 1545.06 2.74711 -4.9852 0
M  V30 16259 N 1546.26 4.30187 -3.89768 0
M  V30 16260 H 1549.03 0.336904 -2.978 0
M  V30 16261 H 1546.59 0.0366704 -1.61858 0
M  V30 16262 H 1548.58 2.86525 -2.85807 0
M  V30 16263 H 1547.15 2.51639 -1.85464 0
M  V30 16264 H 1546.37 0.989208 -3.81587 0
M  V30 16265 H 1547.66 1.72387 -4.78707 0
M  V30 16266 H 1547.06 4.56051 -3.34715 0
M  V30 16267 H 1545.62 5.01807 -4.15972 0
M  V30 16268 N 1549.05 1.57088 0.126881 0
M  V30 16269 C 1550.3 1.84436 0.836048 0
M  V30 16270 C 1550.62 0.730824 1.80248 0
M  V30 16271 O 1549.88 -0.278509 1.93708 0
M  V30 16272 C 1550.18 3.18225 1.62688 0
M  V30 16273 C 1549.84 4.43648 0.80545 0
M  V30 16274 C 1548.51 4.77705 0.578901 0
M  V30 16275 C 1550.86 5.20682 0.232355 0
M  V30 16276 C 1548.19 5.86245 -0.231126 0
M  V30 16277 C 1550.54 6.30073 -0.564819 0
M  V30 16278 C 1549.2 6.62667 -0.801759 0
M  V30 16279 H 1548.47 0.674898 0.305932 0
M  V30 16280 H 1551.12 1.91245 0.0987618 0
M  V30 16281 H 1549.42 3.06956 2.43485 0
M  V30 16282 H 1551.12 3.36604 2.17942 0
M  V30 16283 H 1547.71 4.16959 0.99211 0
M  V30 16284 H 1551.89 4.94729 0.394616 0
M  V30 16285 H 1547.15 6.09928 -0.423998 0
M  V30 16286 H 1551.32 6.8895 -1.01592 0
M  V30 16287 H 1548.95 7.46605 -1.43126 0
M  V30 16288 N 1550.53 -0.396836 1.52522 0
M  V30 16289 C 1551.77 -1.14037 1.66853 0
M  V30 16290 C 1552.1 -1.90706 0.406987 0
M  V30 16291 O 1551.37 -1.87165 -0.578443 0
M  V30 16292 H 1549.95 -0.423967 0.615029 0
M  V30 16293 H 1552.61 -0.451042 1.89609 0
M  V30 16294 H 1551.7 -1.84763 2.51533 0
M  V30 16295 N 1552.01 -1.43353 -0.654814 0
M  V30 16296 C 1553.25 -1.44599 -1.41193 0
M  V30 16297 C 1553.57 -0.0707955 -1.94871 0
M  V30 16298 O 1552.84 0.893637 -1.7433 0
M  V30 16299 H 1551.42 -0.532373 -0.524011 0
M  V30 16300 H 1554.09 -1.78942 -0.772388 0
M  V30 16301 H 1553.18 -2.15761 -2.25508 0
M  V30 16302 N 1553.48 0.89303 -1.29857 0
M  V30 16303 C 1554.43 1.9979 -1.15554 0
M  V30 16304 C 1555.4 1.66033 -0.0471157 0
M  V30 16305 O 1556.59 1.89575 -0.215846 0
M  V30 16306 C 1553.73 3.34595 -0.844993 0
M  V30 16307 C 1552.84 3.81093 -2.03451 0
M  V30 16308 C 1551.97 5.04506 -1.66275 0
M  V30 16309 C 1551.01 5.4339 -2.8177 0
M  V30 16310 N 1550.15 6.57987 -2.44945 0
M  V30 16311 H 1554.99 2.11355 -2.10079 0
M  V30 16312 H 1552.53 1.03497 -1.04531 0
M  V30 16313 H 1554.48 4.12175 -0.645598 0
M  V30 16314 H 1553.11 3.22738 0.0633626 0
M  V30 16315 H 1552.17 2.99491 -2.34541 0
M  V30 16316 H 1553.48 4.05855 -2.8997 0
M  V30 16317 H 1552.63 5.89688 -1.42664 0
M  V30 16318 H 1551.37 4.81597 -0.769144 0
M  V30 16319 H 1550.38 4.56738 -3.06056 0
M  V30 16320 H 1551.6 5.68276 -3.71805 0
M  V30 16321 H 1549.55 6.36669 -1.58079 0
M  V30 16322 H 1549.46 6.82579 -3.24996 0
M  V30 16323 H 1550.73 7.46421 -2.24669 0
M  V30 16324 N 1554.96 1.12442 1.10429 0
M  V30 16325 C 1556.37 0.894147 1.63896 0
M  V30 16326 C 1556.72 -0.571509 1.87692 0
M  V30 16327 O 1555.85 -1.43595 1.61893 0
M  V30 16328 C 1556.44 1.61664 2.97742 0
M  V30 16329 C 1555 1.43251 3.48075 0
M  V30 16330 C 1554.15 1.65252 2.22682 0
M  V30 16331 H 1557.1 1.27918 0.939289 0
M  V30 16332 H 1557.12 1.06771 3.65213 0
M  V30 16333 H 1556.63 2.68333 2.80391 0
M  V30 16334 H 1554.73 0.388385 3.7057 0
M  V30 16335 H 1554.85 2.18866 4.26186 0
M  V30 16336 H 1553.21 1.07663 2.30827 0
M  V30 16337 H 1553.99 2.73219 2.07862 0
M  V30 16338 N 1556.44 -1.28223 0.91633 0
M  V30 16339 C 1557.69 -1.94865 0.550823 0
M  V30 16340 C 1558.01 -1.72113 -0.905945 0
M  V30 16341 O 1557.27 -1.03668 -1.65987 0
M  V30 16342 C 1557.57 -3.48112 0.809509 0
M  V30 16343 C 1557.23 -3.90967 2.24623 0
M  V30 16344 C 1555.9 -4.02379 2.63903 0
M  V30 16345 C 1558.25 -4.12865 3.18106 0
M  V30 16346 C 1555.58 -4.33069 3.95814 0
M  V30 16347 C 1557.93 -4.45036 4.49584 0
M  V30 16348 C 1556.59 -4.54659 4.88714 0
M  V30 16349 H 1555.86 -0.71306 0.20156 0
M  V30 16350 H 1558.51 -1.5251 1.15814 0
M  V30 16351 H 1556.81 -3.91618 0.119411 0
M  V30 16352 H 1558.51 -3.97797 0.505843 0
M  V30 16353 H 1555.1 -3.82614 1.93144 0
M  V30 16354 H 1559.29 -4.035 2.88966 0
M  V30 16355 H 1554.54 -4.38725 4.25829 0
M  V30 16356 H 1558.72 -4.60928 5.22033 0
M  V30 16357 H 1556.34 -4.78194 5.90961 0
M  V30 16358 N 1557.92 -0.68059 -1.42147 0
M  V30 16359 C 1559.14 -0.212293 -2.06311 0
M  V30 16360 C 1559.57 1.12402 -1.50822 0
M  V30 16361 O 1558.93 1.70037 -0.629051 0
M  V30 16362 C 1558.97 -0.164156 -3.60226 0
M  V30 16363 O 1558.08 0.865582 -4.03214 0
M  V30 16364 H 1557.42 -0.107451 -0.655248 0
M  V30 16365 H 1559.95 -0.931233 -1.82179 0
M  V30 16366 H 1559.96 0.0100422 -4.07999 0
M  V30 16367 H 1558.63 -1.13952 -3.99985 0
M  V30 16368 H 1557.21 0.661955 -3.66978 0
M  V30 16369 N 1559.4 1.51781 -0.424309 0
M  V30 16370 C 1560.64 2.03879 0.145828 0
M  V30 16371 C 1561 1.30226 1.41086 0
M  V30 16372 O 1562.2 1.72629 2.06041 0
M  V30 16373 C 1560.47 3.55454 0.372466 0
M  V30 16374 S 1562.03 4.29305 0.907876 0
M  V30 16375 H 1558.85 0.709986 0.0379529 0
M  V30 16376 H 1561.45 1.86676 -0.58072 0
M  V30 16377 H 1560.15 4.06633 -0.554778 0
M  V30 16378 H 1559.69 3.76928 1.12646 0
M  V30 16379 H 1561.7 4.4541 2.18687 0
M  V30 16380 N 1560.87 0.155222 1.56834 0
M  V30 16381 C 1562.1 -0.503763 2.01189 0
M  V30 16382 C 1562.52 -1.57086 1.03468 0
M  V30 16383 O 1561.88 -1.81296 0.0116895 0
M  V30 16384 C 1561.93 -1.07373 3.44243 0
M  V30 16385 O 1561.03 -2.18834 3.49551 0
M  V30 16386 H 1560.37 -0.122368 0.652627 0
M  V30 16387 H 1562.9 0.254377 2.03013 0
M  V30 16388 H 1562.91 -1.40036 3.83215 0
M  V30 16389 H 1561.59 -0.292339 4.14871 0
M  V30 16390 H 1560.17 -1.87337 3.22427 0
M  V30 16391 N 1562.35 -1.57153 -0.118549 0
M  V30 16392 C 1563.76 -1.74046 -0.675645 0
M  V30 16393 C 1564.11 -0.773974 -1.80289 0
M  V30 16394 O 1563.24 0.0530041 -2.16335 0
M  V30 16395 C 1563.83 -3.15591 -1.23239 0
M  V30 16396 C 1562.39 -3.33988 -1.73577 0
M  V30 16397 C 1561.54 -2.69916 -0.63567 0
M  V30 16398 H 1564.49 -1.58336 0.10737 0
M  V30 16399 H 1564.51 -3.17166 -2.10205 0
M  V30 16400 H 1564.02 -3.8591 -0.411744 0
M  V30 16401 H 1562.12 -2.68712 -2.58118 0
M  V30 16402 H 1562.24 -4.42154 -1.84491 0
M  V30 16403 H 1560.6 -2.31163 -1.06939 0
M  V30 16404 H 1561.38 -3.42859 0.174005 0
M  V30 16405 N 1563.83 0.388742 -1.5273 0
M  V30 16406 C 1564.76 1.48133 -1.80496 0
M  V30 16407 C 1565.74 1.56899 -0.657008 0
M  V30 16408 O 1566.93 1.71844 -0.904621 0
M  V30 16409 C 1564.06 2.85742 -1.97405 0
M  V30 16410 C 1563.01 2.91815 -3.13094 0
M  V30 16411 C 1562.34 4.31876 -3.15258 0
M  V30 16412 C 1563.64 2.61438 -4.52159 0
M  V30 16413 H 1565.33 1.25147 -2.7199 0
M  V30 16414 H 1562.88 0.600603 -1.30877 0
M  V30 16415 H 1564.83 3.62182 -2.15412 0
M  V30 16416 H 1563.55 3.10065 -1.02601 0
M  V30 16417 H 1562.21 2.17824 -2.9487 0
M  V30 16418 H 1561.86 4.53239 -2.18135 0
M  V30 16419 H 1561.56 4.3686 -3.92972 0
M  V30 16420 H 1563.08 5.10221 -3.3542 0
M  V30 16421 H 1564.5 3.27596 -4.70483 0
M  V30 16422 H 1562.89 2.77771 -5.31943 0
M  V30 16423 H 1563.96 1.56778 -4.58856 0
M  V30 16424 N 1565.31 1.43698 0.647203 0
M  V30 16425 C 1566.24 1.45295 1.77262 0
M  V30 16426 C 1567.25 0.34831 1.5903 0
M  V30 16427 O 1568.44 0.613106 1.6764 0
M  V30 16428 C 1565.54 1.25584 3.14773 0
M  V30 16429 C 1564.71 2.48998 3.59609 0
M  V30 16430 C 1563.77 2.24423 4.75942 0
M  V30 16431 O 1562.8 2.97813 4.85073 0
M  V30 16432 N 1564 1.26465 5.66557 0
M  V30 16433 H 1566.77 2.42311 1.76368 0
M  V30 16434 H 1564.33 1.38931 0.831247 0
M  V30 16435 H 1566.32 1.07016 3.90294 0
M  V30 16436 H 1564.89 0.369927 3.10403 0
M  V30 16437 H 1564.11 2.82951 2.74467 0
M  V30 16438 H 1565.4 3.31119 3.86313 0
M  V30 16439 H 1564.8 0.658206 5.61858 0
M  V30 16440 H 1563.35 1.13879 6.41775 0
M  V30 16441 N 1566.79 -0.886131 1.30328 0
M  V30 16442 C 1567.72 -2.00793 1.19183 0
M  V30 16443 C 1568.7 -1.69899 0.08276 0
M  V30 16444 O 1569.88 -1.92389 0.264593 0
M  V30 16445 C 1567.01 -3.35922 0.881669 0
M  V30 16446 C 1565.97 -3.81072 1.94855 0
M  V30 16447 C 1565.29 -5.1348 1.4914 0
M  V30 16448 C 1566.59 -3.99923 3.35944 0
M  V30 16449 H 1568.29 -2.10375 2.13032 0
M  V30 16450 H 1565.83 -1.0108 1.02561 0
M  V30 16451 H 1567.79 -4.13922 0.790359 0
M  V30 16452 H 1566.51 -3.26469 -0.0925037 0
M  V30 16453 H 1565.17 -3.053 2.02947 0
M  V30 16454 H 1564.82 -5.00453 0.50553 0
M  V30 16455 H 1564.52 -5.44659 2.205 0
M  V30 16456 H 1566.04 -5.94005 1.41386 0
M  V30 16457 H 1567.45 -4.68364 3.30617 0
M  V30 16458 H 1565.85 -4.42477 4.05381 0
M  V30 16459 H 1566.92 -3.03816 3.77921 0
M  V30 16460 N 1568.26 -1.13026 -1.09832 0
M  V30 16461 C 1569.54 -0.800667 -1.78462 0
M  V30 16462 C 1569.92 0.708508 -1.98855 0
M  V30 16463 O 1569.27 1.64436 -1.58661 0
M  V30 16464 C 1569.48 -1.58284 -3.11042 0
M  V30 16465 C 1570.83 -1.77285 -3.85818 0
M  V30 16466 O 1571.85 -1.54848 -3.20781 0
M  V30 16467 O 1570.71 -2.14693 -5.02563 0
M  V30 16468 H 1567.8 -0.291895 -0.773774 0
M  V30 16469 H 1570.35 -1.23464 -1.16425 0
M  V30 16470 H 1569.12 -2.60867 -2.91657 0
M  V30 16471 H 1568.75 -1.14353 -3.80801 0
M  V30 16472 N 1569.74 1.27735 -0.923117 0
M  V30 16473 C 1570.67 2.26095 -0.375982 0
M  V30 16474 C 1571.69 1.55227 0.490763 0
M  V30 16475 O 1572.88 1.7589 0.304127 0
M  V30 16476 C 1569.98 3.35479 0.480342 0
M  V30 16477 C 1569.15 4.35866 -0.36605 0
M  V30 16478 C 1568.21 5.24466 0.42688 0
M  V30 16479 O 1567.23 5.68964 -0.163825 0
M  V30 16480 N 1568.44 5.54192 1.72777 0
M  V30 16481 H 1571.2 2.73679 -1.22147 0
M  V30 16482 H 1568.76 1.41314 -0.790056 0
M  V30 16483 H 1570.75 3.91693 1.01776 0
M  V30 16484 H 1569.32 2.87531 1.22657 0
M  V30 16485 H 1568.54 3.7898 -1.08479 0
M  V30 16486 H 1569.83 4.9995 -0.944849 0
M  V30 16487 H 1569.23 5.19888 2.23008 0
M  V30 16488 H 1567.79 6.13125 2.21181 0
M  V30 16489 N 1571.22 0.688118 1.41784 0
M  V30 16490 C 1572.47 0.224991 2.02152 0
M  V30 16491 C 1572.82 -1.16002 1.53497 0
M  V30 16492 O 1572.11 -1.7702 0.733114 0
M  V30 16493 C 1572.31 0.213747 3.5676 0
M  V30 16494 C 1572.14 1.59613 4.20421 0
M  V30 16495 C 1570.91 2.19716 4.55031 0
M  V30 16496 C 1573.11 2.54135 4.47124 0
M  V30 16497 N 1571.09 3.50597 5.0394 0
M  V30 16498 C 1572.46 3.69685 4.97728 0
M  V30 16499 C 1574.51 2.52496 4.29127 0
M  V30 16500 C 1573.22 4.83868 5.32226 0
M  V30 16501 C 1575.24 3.65785 4.6471 0
M  V30 16502 C 1574.6 4.80065 5.15478 0
M  V30 16503 H 1570.7 0.127552 0.771527 0
M  V30 16504 H 1573.29 0.903988 1.72442 0
M  V30 16505 H 1571.46 -0.434709 3.8596 0
M  V30 16506 H 1573.19 -0.263508 4.03841 0
M  V30 16507 H 1569.95 1.72074 4.41234 0
M  V30 16508 H 1570.37 4.17665 5.32809 0
M  V30 16509 H 1575.01 1.65363 3.89121 0
M  V30 16510 H 1572.73 5.71667 5.71159 0
M  V30 16511 H 1576.32 3.6576 4.5245 0
M  V30 16512 H 1575.2 5.66276 5.42496 0
M  V30 16513 N 1572.7 -1.51554 0.432352 0
M  V30 16514 C 1573.63 -2.24175 -0.426721 0
M  V30 16515 C 1574.61 -1.2591 -1.02885 0
M  V30 16516 O 1575.79 -1.55031 -1.07227 0
M  V30 16517 C 1572.92 -2.9883 -1.59431 0
M  V30 16518 C 1571.97 -4.11712 -1.11335 0
M  V30 16519 S 1572.8 -5.35467 -0.0594485 0
M  V30 16520 C 1573.96 -6.13659 -1.23182 0
M  V30 16521 H 1574.19 -2.96693 0.18984 0
M  V30 16522 H 1571.72 -1.5287 0.216828 0
M  V30 16523 H 1573.68 -3.42442 -2.2637 0
M  V30 16524 H 1572.34 -2.2591 -2.18228 0
M  V30 16525 H 1571.53 -4.63207 -1.98633 0
M  V30 16526 H 1571.14 -3.70335 -0.522268 0
M  V30 16527 H 1573.43 -6.42443 -2.15113 0
M  V30 16528 H 1574.37 -7.04043 -0.756938 0
M  V30 16529 H 1574.78 -5.45074 -1.46813 0
M  V30 16530 N 1574.18 -0.163538 -1.56749 0
M  V30 16531 C 1575.42 0.477648 -1.97712 0
M  V30 16532 C 1575.78 1.61382 -1.04755 0
M  V30 16533 O 1575.07 1.91408 -0.0857142 0
M  V30 16534 C 1575.26 1.0153 -3.42675 0
M  V30 16535 C 1575.09 -0.0672483 -4.4965 0
M  V30 16536 C 1573.86 -0.514285 -5.02676 0
M  V30 16537 C 1576.06 -0.864805 -5.06977 0
M  V30 16538 N 1574.04 -1.57795 -5.93274 0
M  V30 16539 C 1575.41 -1.77857 -5.93942 0
M  V30 16540 C 1577.47 -0.910753 -4.89499 0
M  V30 16541 C 1576.17 -2.73439 -6.653 0
M  V30 16542 C 1578.2 -1.85448 -5.61572 0
M  V30 16543 C 1577.56 -2.75574 -6.48258 0
M  V30 16544 H 1573.66 0.143112 -0.768793 0
M  V30 16545 H 1576.24 -0.26196 -1.9293 0
M  V30 16546 H 1574.41 1.72445 -3.48019 0
M  V30 16547 H 1576.15 1.62447 -3.70666 0
M  V30 16548 H 1572.9 -0.113438 -4.73464 0
M  V30 16549 H 1573.33 -2.11004 -6.43278 0
M  V30 16550 H 1577.97 -0.228009 -4.22185 0
M  V30 16551 H 1575.69 -3.42706 -7.31832 0
M  V30 16552 H 1579.27 -1.89604 -5.50038 0
M  V30 16553 H 1578.15 -3.47409 -7.03048 0
M  V30 16554 N 1575.65 1.57214 0.110213 0
M  V30 16555 C 1576.89 1.87133 0.822229 0
M  V30 16556 C 1577.26 0.752645 1.76633 0
M  V30 16557 O 1578.46 0.933837 2.52057 0
M  V30 16558 C 1576.73 3.22286 1.54487 0
M  V30 16559 S 1578.29 3.73861 2.29725 0
M  V30 16560 H 1575.11 0.65598 0.274248 0
M  V30 16561 H 1577.71 1.95336 0.0801112 0
M  V30 16562 H 1576.41 4.0164 0.84343 0
M  V30 16563 H 1575.94 3.17184 2.32719 0
M  V30 16564 H 1577.96 3.46066 3.55602 0
M  V30 16565 N 1577.13 -0.380637 1.52934 0
M  V30 16566 C 1578.38 -1.12207 1.67608 0
M  V30 16567 C 1578.69 -1.90891 0.426597 0
M  V30 16568 O 1579.9 -2.67684 0.453612 0
M  V30 16569 C 1578.36 -2.04381 2.96237 0
M  V30 16570 C 1577.96 -1.3108 4.28395 0
M  V30 16571 C 1579.71 -2.78608 3.20277 0
M  V30 16572 C 1577.62 -2.22069 5.48124 0
M  V30 16573 H 1576.55 -0.422582 0.624452 0
M  V30 16574 H 1579.2 -0.384198 1.79433 0
M  V30 16575 H 1577.58 -2.81838 2.78179 0
M  V30 16576 H 1578.75 -0.587907 4.57034 0
M  V30 16577 H 1577.07 -0.687778 4.10681 0
M  V30 16578 H 1579.66 -3.46883 4.0691 0
M  V30 16579 H 1580.01 -3.43149 2.35701 0
M  V30 16580 H 1580.54 -2.08241 3.3894 0
M  V30 16581 H 1577.28 -1.62131 6.35133 0
M  V30 16582 H 1576.8 -2.9225 5.23784 0
M  V30 16583 H 1578.48 -2.81966 5.82327 0
M  V30 16584 N 1578.61 -1.44039 -0.639573 0
M  V30 16585 C 1579.86 -1.46377 -1.39928 0
M  V30 16586 C 1580.19 -0.0931685 -1.94277 0
M  V30 16587 O 1579.44 0.903841 -1.73578 0
M  V30 16588 C 1579.74 -2.46459 -2.5883 0
M  V30 16589 C 1579.41 -3.91998 -2.2282 0
M  V30 16590 C 1578.07 -4.31633 -2.12712 0
M  V30 16591 C 1580.42 -4.83656 -1.94232 0
M  V30 16592 C 1577.75 -5.60863 -1.72191 0
M  V30 16593 C 1580.1 -6.13265 -1.55206 0
M  V30 16594 C 1578.76 -6.51863 -1.43633 0
M  V30 16595 H 1578.03 -0.535633 -0.512034 0
M  V30 16596 H 1580.68 -1.77202 -0.72607 0
M  V30 16597 H 1578.99 -2.09087 -3.31345 0
M  V30 16598 H 1580.68 -2.45518 -3.17052 0
M  V30 16599 H 1577.27 -3.60636 -2.31602 0
M  V30 16600 H 1581.46 -4.53796 -2.00955 0
M  V30 16601 H 1576.71 -5.89595 -1.61828 0
M  V30 16602 H 1580.89 -6.83752 -1.32121 0
M  V30 16603 H 1578.51 -7.51903 -1.12006 0
M  V30 16604 N 1580.09 0.879207 -1.30796 0
M  V30 16605 C 1581.34 1.62625 -1.19315 0
M  V30 16606 C 1581.65 1.93999 0.249731 0
M  V30 16607 O 1582.86 2.67112 0.486129 0
M  V30 16608 C 1581.31 2.93129 -2.08815 0
M  V30 16609 C 1580.92 2.69272 -3.58045 0
M  V30 16610 C 1582.66 3.71105 -2.0611 0
M  V30 16611 C 1580.57 3.95628 -4.39582 0
M  V30 16612 H 1579.5 0.61015 -0.442981 0
M  V30 16613 H 1582.15 0.972892 -1.55586 0
M  V30 16614 H 1580.53 3.59789 -1.65432 0
M  V30 16615 H 1581.71 2.11078 -4.09613 0
M  V30 16616 H 1580.02 2.04664 -3.62632 0
M  V30 16617 H 1582.62 4.64824 -2.64277 0
M  V30 16618 H 1582.96 4.02946 -1.04597 0
M  V30 16619 H 1583.5 3.11315 -2.47644 0
M  V30 16620 H 1580.24 3.68943 -5.41813 0
M  V30 16621 H 1579.76 4.53307 -3.92775 0
M  V30 16622 H 1581.43 4.63597 -4.51317 0
M  V30 16623 N 1581.57 1.13606 1.09231 0
M  V30 16624 C 1582.82 0.897278 1.81089 0
M  V30 16625 C 1583.14 -0.578066 1.86235 0
M  V30 16626 O 1582.41 -1.42018 1.34935 0
M  V30 16627 H 1580.99 0.328971 0.670662 0
M  V30 16628 H 1583.65 1.433 1.32103 0
M  V30 16629 H 1582.74 1.28979 2.84202 0
M  V30 16630 N 1583.05 -1.27244 0.929878 0
M  V30 16631 C 1583.98 -2.29161 0.448066 0
M  V30 16632 C 1584.96 -1.62806 -0.492776 0
M  V30 16633 O 1586.14 -1.90098 -0.39706 0
M  V30 16634 C 1583.27 -3.46019 -0.298002 0
M  V30 16635 C 1582.23 -4.24384 0.555211 0
M  V30 16636 C 1581.55 -5.33741 -0.320153 0
M  V30 16637 C 1582.85 -4.89535 1.8208 0
M  V30 16638 H 1584.55 -2.69712 1.29983 0
M  V30 16639 H 1582.09 -1.29659 0.626466 0
M  V30 16640 H 1584.04 -4.16419 -0.646024 0
M  V30 16641 H 1582.77 -3.0439 -1.18381 0
M  V30 16642 H 1581.43 -3.55733 0.885971 0
M  V30 16643 H 1581.08 -4.88354 -1.20498 0
M  V30 16644 H 1580.78 -5.8708 0.247241 0
M  V30 16645 H 1582.3 -6.06982 -0.663697 0
M  V30 16646 H 1583.71 -5.52209 1.54071 0
M  V30 16647 H 1582.11 -5.52941 2.33186 0
M  V30 16648 H 1583.18 -4.13113 2.53901 0
M  V30 16649 N 1584.52 -0.695628 -1.41417 0
M  V30 16650 C 1585.77 -0.226171 -2.0083 0
M  V30 16651 C 1586.09 1.17833 -1.55371 0
M  V30 16652 O 1585.36 1.79512 -0.784362 0
M  V30 16653 H 1583.94 -0.0806271 -0.742636 0
M  V30 16654 H 1586.6 -0.8968 -1.73042 0
M  V30 16655 H 1585.7 -0.243643 -3.11148 0
M  V30 16656 N 1586 1.51322 -0.440383 0
M  V30 16657 C 1586.91 2.31574 0.37561 0
M  V30 16658 C 1587.93 1.40617 1.02483 0
M  V30 16659 O 1589.1 1.73688 1.01953 0
M  V30 16660 C 1586.17 3.14441 1.4604 0
M  V30 16661 C 1585.23 4.21181 0.830991 0
M  V30 16662 C 1584.46 5.00087 1.86409 0
M  V30 16663 O 1584.69 4.79666 3.08669 0
M  V30 16664 O 1583.62 5.84101 1.45293 0
M  V30 16665 H 1587.45 3.0241 -0.27962 0
M  V30 16666 H 1585.03 1.48016 -0.202857 0
M  V30 16667 H 1586.91 3.6595 2.08946 0
M  V30 16668 H 1585.59 2.46366 2.09965 0
M  V30 16669 H 1584.49 3.73741 0.163798 0
M  V30 16670 H 1585.83 4.91638 0.235174 0
M  V30 16671 N 1587.48 0.171848 1.5666 0
M  V30 16672 C 1588.41 -0.753861 2.20996 0
M  V30 16673 C 1589.39 -1.23873 1.16574 0
M  V30 16674 O 1590.58 -1.29179 1.45005 0
M  V30 16675 C 1587.71 -1.98314 2.85112 0
M  V30 16676 C 1586.66 -1.6341 3.95577 0
M  V30 16677 C 1585.99 -2.93807 4.46745 0
M  V30 16678 C 1587.29 -0.861713 5.15142 0
M  V30 16679 H 1588.98 -0.217598 2.98608 0
M  V30 16680 H 1586.53 -0.10322 1.4363 0
M  V30 16681 H 1588.48 -2.63576 3.28794 0
M  V30 16682 H 1587.2 -2.54354 2.04869 0
M  V30 16683 H 1585.86 -1.00516 3.52551 0
M  V30 16684 H 1585.51 -3.47889 3.63293 0
M  V30 16685 H 1585.21 -2.71207 5.21268 0
M  V30 16686 H 1586.73 -3.60098 4.93114 0
M  V30 16687 H 1588.15 -1.41693 5.55514 0
M  V30 16688 H 1586.54 -0.734727 5.95585 0
M  V30 16689 H 1587.61 0.141851 4.84692 0
M  V30 16690 N 1588.96 -1.5727 -0.101874 0
M  V30 16691 C 1590.2 -1.86017 -0.807795 0
M  V30 16692 C 1590.54 -0.760024 -1.7871 0
M  V30 16693 O 1589.81 0.232627 -1.93104 0
M  V30 16694 C 1590.09 -3.25388 -1.54255 0
M  V30 16695 C 1589.95 -4.46023 -0.581693 0
M  V30 16696 C 1591.27 -3.62561 -2.49474 0
M  V30 16697 H 1588.39 -0.676596 -0.29221 0
M  V30 16698 H 1591.03 -1.89865 -0.0715861 0
M  V30 16699 H 1589.18 -3.22239 -2.17013 0
M  V30 16700 H 1590.85 -4.61284 0.0383529 0
M  V30 16701 H 1589.09 -4.33672 0.105465 0
M  V30 16702 H 1589.76 -5.40251 -1.1328 0
M  V30 16703 H 1592.24 -3.66611 -1.96813 0
M  V30 16704 H 1591.12 -4.61025 -2.97905 0
M  V30 16705 H 1591.38 -2.90885 -3.32924 0
M  V30 16706 N 1590.44 0.372521 -1.53134 0
M  V30 16707 C 1591.68 1.11405 -1.70178 0
M  V30 16708 C 1592.04 1.87194 -0.444559 0
M  V30 16709 O 1591.33 1.83165 0.562249 0
M  V30 16710 C 1591.52 2.10742 -2.88656 0
M  V30 16711 C 1591.35 1.44713 -4.25779 0
M  V30 16712 C 1590.12 1.2042 -4.90741 0
M  V30 16713 C 1592.32 0.888496 -5.06567 0
M  V30 16714 N 1590.3 0.506685 -6.11805 0
M  V30 16715 C 1591.67 0.319961 -6.19174 0
M  V30 16716 C 1593.73 0.786508 -4.91649 0
M  V30 16717 C 1592.43 -0.340609 -7.18493 0
M  V30 16718 C 1594.46 0.139732 -5.91235 0
M  V30 16719 C 1593.82 -0.41796 -7.03159 0
M  V30 16720 H 1589.92 0.393051 -0.676044 0
M  V30 16721 H 1592.5 0.401356 -1.90518 0
M  V30 16722 H 1590.67 2.79332 -2.69867 0
M  V30 16723 H 1592.41 2.77522 -2.94557 0
M  V30 16724 H 1589.16 1.48362 -4.49762 0
M  V30 16725 H 1589.58 0.173493 -6.76778 0
M  V30 16726 H 1594.23 1.20345 -4.05311 0
M  V30 16727 H 1591.94 -0.769521 -8.04428 0
M  V30 16728 H 1595.53 0.0618412 -5.81767 0
M  V30 16729 H 1594.41 -0.910519 -7.78896 0
M  V30 16730 N 1591.91 1.44376 0.631925 0
M  V30 16731 C 1593.16 1.46827 1.38875 0
M  V30 16732 C 1593.48 0.101789 1.94734 0
M  V30 16733 O 1592.75 -0.86579 1.7573 0
M  V30 16734 H 1591.33 0.540642 0.515475 0
M  V30 16735 H 1593.99 1.80148 0.743822 0
M  V30 16736 H 1593.09 2.19321 2.22047 0
M  V30 16737 N 1593.39 -0.872258 1.31261 0
M  V30 16738 C 1594.32 -1.9853 1.14537 0
M  V30 16739 C 1595.34 -1.62578 0.0850723 0
M  V30 16740 O 1596.53 -1.75379 0.332343 0
M  V30 16741 C 1593.63 -3.31005 0.72727 0
M  V30 16742 C 1592.8 -3.95313 1.87208 0
M  V30 16743 C 1591.86 -5.06101 1.44042 0
M  V30 16744 O 1590.88 -5.27045 2.1497 0
M  V30 16745 N 1592.09 -5.79581 0.32653 0
M  V30 16746 H 1594.85 -2.13423 2.10406 0
M  V30 16747 H 1592.41 -1.0461 1.23565 0
M  V30 16748 H 1594.4 -4.02502 0.421255 0
M  V30 16749 H 1592.97 -3.12287 -0.13975 0
M  V30 16750 H 1592.19 -3.16825 2.34553 0
M  V30 16751 H 1593.48 -4.35015 2.63893 0
M  V30 16752 H 1592.88 -5.65083 -0.264202 0
M  V30 16753 H 1591.44 -6.51751 0.0800358 0
M  V30 16754 N 1594.87 -1.14184 -1.08627 0
M  V30 16755 C 1596.12 -0.91001 -1.81236 0
M  V30 16756 C 1596.45 0.562134 -1.85886 0
M  V30 16757 O 1595.72 1.41631 -1.33307 0
M  V30 16758 C 1596.01 -1.50879 -3.26967 0
M  V30 16759 C 1595.86 -3.05063 -3.3054 0
M  V30 16760 C 1597.18 -1.18379 -4.2388 0
M  V30 16761 H 1594.3 -0.332025 -0.657973 0
M  V30 16762 H 1596.94 -1.41144 -1.27194 0
M  V30 16763 H 1595.09 -1.08236 -3.73118 0
M  V30 16764 H 1596.76 -3.5652 -2.9273 0
M  V30 16765 H 1595 -3.39628 -2.6988 0
M  V30 16766 H 1595.68 -3.42064 -4.33239 0
M  V30 16767 H 1598.15 -1.55242 -3.86056 0
M  V30 16768 H 1597.03 -1.62911 -5.24167 0
M  V30 16769 H 1597.29 -0.0987385 -4.4199 0
M  V30 16770 N 1596.35 1.26749 -0.936613 0
M  V30 16771 C 1597.6 1.93255 -0.577524 0
M  V30 16772 C 1597.91 1.74337 0.886905 0
M  V30 16773 O 1599.12 2.3526 1.35517 0
M  V30 16774 C 1597.57 3.4624 -0.982119 0
M  V30 16775 C 1597.18 3.739 -2.46784 0
M  V30 16776 C 1598.92 4.18777 -0.694706 0
M  V30 16777 C 1596.83 5.20303 -2.81138 0
M  V30 16778 H 1595.76 0.723502 -0.212276 0
M  V30 16779 H 1598.41 1.43901 -1.13863 0
M  V30 16780 H 1596.79 3.94454 -0.349577 0
M  V30 16781 H 1597.97 3.3641 -3.14905 0
M  V30 16782 H 1596.28 3.14587 -2.72808 0
M  V30 16783 H 1598.88 5.2659 -0.927756 0
M  V30 16784 H 1599.22 4.14667 0.368392 0
M  V30 16785 H 1599.76 3.76414 -1.28676 0
M  V30 16786 H 1596.5 5.29511 -3.86392 0
M  V30 16787 H 1596.02 5.58907 -2.17675 0
M  V30 16788 H 1597.69 5.88265 -2.69358 0
M  V30 16789 N 1597.83 0.703118 1.41046 0
M  V30 16790 C 1598.79 0.0514476 2.29142 0
M  V30 16791 C 1599.79 -0.700223 1.44753 0
M  V30 16792 O 1600.98 -0.533985 1.65814 0
M  V30 16793 C 1598.11 -0.93735 3.2776 0
M  V30 16794 H 1599.3 0.827201 2.88266 0
M  V30 16795 H 1596.86 0.467045 1.49159 0
M  V30 16796 H 1597.59 -1.7406 2.7363 0
M  V30 16797 H 1597.38 -0.4014 3.9004 0
M  V30 16798 H 1598.87 -1.39088 3.93757 0
M  V30 16799 N 1599.3 -1.51086 0.448402 0
M  V30 16800 C 1600.53 -2.06593 -0.112695 0
M  V30 16801 C 1600.95 -1.31471 -1.35502 0
M  V30 16802 O 1600.3 -0.377406 -1.78555 0
M  V30 16803 C 1600.36 -3.59008 -0.423769 0
M  V30 16804 O 1600.08 -4.31293 0.769259 0
M  V30 16805 C 1601.58 -4.31064 -1.03433 0
M  V30 16806 H 1598.8 -0.670993 -0.00301626 0
M  V30 16807 H 1601.34 -1.94532 0.630667 0
M  V30 16808 H 1599.5 -3.70946 -1.11704 0
M  V30 16809 H 1599.91 -5.2211 0.500162 0
M  V30 16810 H 1601.38 -5.38756 -1.20191 0
M  V30 16811 H 1601.86 -3.90075 -2.01837 0
M  V30 16812 H 1602.47 -4.23598 -0.380115 0
M  V30 16813 N 1600.78 -0.180154 -1.56567 0
M  V30 16814 C 1602.03 0.462656 -1.96322 0
M  V30 16815 C 1602.34 1.63788 -1.06925 0
M  V30 16816 O 1603.55 2.34751 -1.36398 0
M  V30 16817 C 1602.01 0.874492 -3.49114 0
M  V30 16818 C 1601.61 -0.27562 -4.47151 0
M  V30 16819 C 1603.36 1.48522 -3.9767 0
M  V30 16820 C 1601.27 0.156341 -5.91193 0
M  V30 16821 H 1600.2 0.176619 -0.733022 0
M  V30 16822 H 1602.85 -0.269793 -1.81506 0
M  V30 16823 H 1601.23 1.66318 -3.59381 0
M  V30 16824 H 1602.4 -1.05304 -4.48606 0
M  V30 16825 H 1600.72 -0.796878 -4.08704 0
M  V30 16826 H 1603.31 1.8206 -5.02751 0
M  V30 16827 H 1603.66 2.38634 -3.41115 0
M  V30 16828 H 1604.19 0.760806 -3.90457 0
M  V30 16829 H 1600.93 -0.710221 -6.51641 0
M  V30 16830 H 1600.45 0.898933 -5.93025 0
M  V30 16831 H 1602.13 0.597228 -6.44238 0
M  V30 16832 N 1602.26 1.57322 0.0935319 0
M  V30 16833 C 1603.67 1.75099 0.64787 0
M  V30 16834 C 1604.02 0.802558 1.79035 0
M  V30 16835 O 1603.15 -0.0185803 2.16392 0
M  V30 16836 C 1603.74 3.17512 1.18203 0
M  V30 16837 C 1602.3 3.36707 1.68242 0
M  V30 16838 C 1601.45 2.70893 0.592649 0
M  V30 16839 H 1604.4 1.58146 -0.132546 0
M  V30 16840 H 1604.42 3.2047 2.05132 0
M  V30 16841 H 1603.93 3.86516 0.350297 0
M  V30 16842 H 1602.03 2.72784 2.5381 0
M  V30 16843 H 1602.15 4.45033 1.77433 0
M  V30 16844 H 1600.51 2.32835 1.03248 0
M  V30 16845 H 1601.29 3.42539 -0.228529 0
M  V30 16846 N 1603.74 -0.364395 1.53329 0
M  V30 16847 C 1604.97 -1.1275 1.7348 0
M  V30 16848 C 1605.38 -1.83002 0.4643 0
M  V30 16849 O 1604.74 -1.73603 -0.562864 0
M  V30 16850 C 1604.79 -2.15691 2.90103 0
M  V30 16851 O 1604.51 -1.48298 4.12237 0
M  V30 16852 C 1606.01 -3.04539 3.22135 0
M  V30 16853 H 1603.23 -0.337084 0.580186 0
M  V30 16854 H 1605.78 -0.422952 2.00078 0
M  V30 16855 H 1603.93 -2.81742 2.65895 0
M  V30 16856 H 1604.34 -2.16896 4.77553 0
M  V30 16857 H 1605.82 -3.72747 4.07141 0
M  V30 16858 H 1606.3 -3.69414 2.3755 0
M  V30 16859 H 1606.9 -2.44103 3.48273 0
M  V30 16860 N 1605.22 -1.44709 -0.62426 0
M  V30 16861 C 1606.44 -1.51573 -1.41564 0
M  V30 16862 C 1606.87 -0.143806 -1.87549 0
M  V30 16863 O 1606.22 0.868361 -1.59151 0
M  V30 16864 C 1606.27 -2.49085 -2.60747 0
M  V30 16865 O 1605.38 -1.99712 -3.60817 0
M  V30 16866 H 1604.72 -0.51157 -0.423311 0
M  V30 16867 H 1607.25 -1.89908 -0.761316 0
M  V30 16868 H 1607.26 -2.67346 -3.08205 0
M  V30 16869 H 1605.93 -3.48733 -2.26624 0
M  V30 16870 H 1604.51 -1.9125 -3.20122 0
M  V30 16871 N 1606.69 0.865285 -1.31722 0
M  V30 16872 C 1608.11 1.15179 -1.10481 0
M  V30 16873 C 1608.31 2.01132 0.121667 0
M  V30 16874 O 1607.37 2.39167 0.809645 0
M  V30 16875 C 1608.68 1.8394 -2.3788 0
M  V30 16876 C 1610.23 1.96621 -2.43535 0
M  V30 16877 C 1610.7 2.68796 -3.70827 0
M  V30 16878 N 1612.19 2.76329 -3.71748 0
M  V30 16879 C 1612.93 3.32798 -4.6694 0
M  V30 16880 N 1612.42 3.90162 -5.7249 0
M  V30 16881 N 1614.22 3.30801 -4.54453 0
M  V30 16882 H 1606.37 0.292632 -2.10374 0
M  V30 16883 H 1608.63 0.192252 -0.928301 0
M  V30 16884 H 1608.34 1.28233 -3.27489 0
M  V30 16885 H 1608.21 2.84182 -2.48034 0
M  V30 16886 H 1610.6 2.5149 -1.54392 0
M  V30 16887 H 1610.68 0.954071 -2.37342 0
M  V30 16888 H 1610.32 2.14593 -4.60339 0
M  V30 16889 H 1610.25 3.70427 -3.74288 0
M  V30 16890 H 1612.74 2.35621 -2.95451 0
M  V30 16891 H 1613.06 4.31376 -6.41198 0
M  V30 16892 H 1611.4 3.88525 -5.76258 0
M  V30 16893 H 1614.59 2.85227 -3.71165 0
M  V30 16894 H 1614.77 3.74511 -5.28815 0
M  V30 16895 N 1608.17 1.14759 1.0802 0
M  V30 16896 C 1609.1 0.860977 2.17047 0
M  V30 16897 C 1610.08 -0.185652 1.69084 0
M  V30 16898 O 1611.27 -0.0414797 1.94156 0
M  V30 16899 C 1608.4 0.342018 3.45612 0
M  V30 16900 C 1607.35 1.32455 4.06989 0
M  V30 16901 C 1606.68 0.664721 5.30552 0
M  V30 16902 C 1607.98 2.68819 4.4781 0
M  V30 16903 H 1609.67 1.77269 2.4128 0
M  V30 16904 H 1607.22 0.853757 1.15961 0
M  V30 16905 H 1609.17 0.129093 4.21202 0
M  V30 16906 H 1607.9 -0.605138 3.20945 0
M  V30 16907 H 1606.55 1.52371 3.33435 0
M  V30 16908 H 1606.2 -0.288367 5.02173 0
M  V30 16909 H 1605.9 1.32036 5.72573 0
M  V30 16910 H 1607.43 0.461412 6.08854 0
M  V30 16911 H 1608.84 2.52787 5.14559 0
M  V30 16912 H 1607.24 3.30694 5.00761 0
M  V30 16913 H 1608.31 3.25398 3.59506 0
M  V30 16914 N 1609.65 -1.26251 0.943322 0
M  V30 16915 C 1610.6 -2.26304 0.453315 0
M  V30 16916 C 1611.57 -1.58764 -0.488168 0
M  V30 16917 O 1612.75 -1.86476 -0.403906 0
M  V30 16918 C 1609.89 -3.44015 -0.273393 0
M  V30 16919 C 1609.01 -4.26225 0.70401 0
M  V30 16920 C 1608.14 -5.31182 -0.0441134 0
M  V30 16921 C 1607.18 -6.05071 0.924971 0
M  V30 16922 N 1606.32 -7.0179 0.208461 0
M  V30 16923 H 1611.16 -2.67591 1.31146 0
M  V30 16924 H 1608.69 -1.31567 0.657914 0
M  V30 16925 H 1610.65 -4.11094 -0.711192 0
M  V30 16926 H 1609.28 -3.03636 -1.09566 0
M  V30 16927 H 1608.33 -3.58915 1.26032 0
M  V30 16928 H 1609.65 -4.77442 1.44398 0
M  V30 16929 H 1608.8 -6.04282 -0.541091 0
M  V30 16930 H 1607.54 -4.80809 -0.816952 0
M  V30 16931 H 1606.54 -5.30795 1.43305 0
M  V30 16932 H 1607.77 -6.57533 1.69785 0
M  V30 16933 H 1605.71 -6.53725 -0.545846 0
M  V30 16934 H 1605.63 -7.5077 0.887725 0
M  V30 16935 H 1606.9 -7.79041 -0.267352 0
M  V30 16936 N 1611.13 -0.710588 -1.40671 0
M  V30 16937 C 1612.38 -0.247949 -2.00976 0
M  V30 16938 C 1612.7 1.15725 -1.56327 0
M  V30 16939 O 1611.96 1.79826 -0.77208 0
M  V30 16940 C 1612.26 -0.270478 -3.56375 0
M  V30 16941 C 1611.92 -1.62528 -4.2059 0
M  V30 16942 C 1610.59 -1.99614 -4.37844 0
M  V30 16943 C 1612.94 -2.51591 -4.56455 0
M  V30 16944 C 1610.27 -3.2532 -4.88246 0
M  V30 16945 C 1612.62 -3.76644 -5.08254 0
M  V30 16946 C 1611.28 -4.13855 -5.23718 0
M  V30 16947 H 1610.55 -0.0907308 -0.735424 0
M  V30 16948 H 1613.2 -0.912636 -1.68354 0
M  V30 16949 H 1611.5 0.477777 -3.88876 0
M  V30 16950 H 1613.2 0.105243 -4.00862 0
M  V30 16951 H 1609.79 -1.32686 -4.07544 0
M  V30 16952 H 1613.98 -2.24215 -4.42766 0
M  V30 16953 H 1609.23 -3.54125 -4.98403 0
M  V30 16954 H 1613.41 -4.45832 -5.34983 0
M  V30 16955 H 1611.03 -5.1133 -5.62535 0
M  V30 16956 N 1612.61 1.50847 -0.456408 0
M  V30 16957 C 1613.54 2.31077 0.335523 0
M  V30 16958 C 1614.52 1.37326 1.00377 0
M  V30 16959 O 1615.7 1.66247 1.00376 0
M  V30 16960 C 1612.83 3.16662 1.42627 0
M  V30 16961 C 1611.79 4.18846 0.88045 0
M  V30 16962 C 1611.11 4.93074 2.06838 0
M  V30 16963 C 1612.41 5.22208 -0.0982288 0
M  V30 16964 H 1614.11 2.97531 -0.334056 0
M  V30 16965 H 1611.65 1.43085 -0.162099 0
M  V30 16966 H 1613.61 3.71578 1.98765 0
M  V30 16967 H 1612.33 2.48066 2.12441 0
M  V30 16968 H 1610.99 3.65009 0.341147 0
M  V30 16969 H 1610.64 4.20963 2.75316 0
M  V30 16970 H 1610.34 5.62184 1.70947 0
M  V30 16971 H 1611.86 5.5082 2.63494 0
M  V30 16972 H 1613.28 5.72082 0.373481 0
M  V30 16973 H 1611.67 5.98954 -0.370674 0
M  V30 16974 H 1612.74 4.73859 -1.02887 0
M  V30 16975 N 1614.09 0.188454 1.56469 0
M  V30 16976 C 1615.03 -0.735074 2.18781 0
M  V30 16977 C 1616 -1.21459 1.133 0
M  V30 16978 O 1617.19 -1.27967 1.41524 0
M  V30 16979 C 1614.33 -1.95181 2.84602 0
M  V30 16980 C 1613.44 -1.51428 4.0459 0
M  V30 16981 C 1612.58 -2.68601 4.58287 0
M  V30 16982 C 1611.61 -2.21422 5.70648 0
M  V30 16983 N 1610.75 -3.31749 6.18779 0
M  V30 16984 H 1615.59 -0.19694 2.97349 0
M  V30 16985 H 1613.13 -0.0854693 1.46851 0
M  V30 16986 H 1615.09 -2.66571 3.2093 0
M  V30 16987 H 1613.72 -2.46337 2.0861 0
M  V30 16988 H 1612.77 -0.6965 3.73969 0
M  V30 16989 H 1614.08 -1.1281 4.85876 0
M  V30 16990 H 1613.23 -3.48123 4.96885 0
M  V30 16991 H 1611.97 -3.1049 3.76095 0
M  V30 16992 H 1610.98 -1.40352 5.31584 0
M  V30 16993 H 1612.2 -1.80572 6.54653 0
M  V30 16994 H 1610.15 -3.73181 5.39511 0
M  V30 16995 H 1610.07 -2.97277 6.95099 0
M  V30 16996 H 1611.33 -4.11504 6.62031 0
M  V30 16997 N 1615.56 -1.5737 -0.0851874 0
M  V30 16998 C 1616.47 -2.06097 -1.12078 0
M  V30 16999 C 1617.49 -0.987809 -1.43242 0
M  V30 17000 O 1618.67 -1.30163 -1.53686 0
M  V30 17001 C 1615.73 -2.48397 -2.41867 0
M  V30 17002 C 1614.79 -3.69951 -2.17795 0
M  V30 17003 C 1614.02 -4.10225 -3.41396 0
M  V30 17004 O 1614.25 -3.50495 -4.5001 0
M  V30 17005 O 1613.18 -5.03111 -3.30399 0
M  V30 17006 H 1617.01 -2.94625 -0.736877 0
M  V30 17007 H 1614.59 -1.4639 -0.298392 0
M  V30 17008 H 1616.47 -2.76187 -3.18274 0
M  V30 17009 H 1615.15 -1.63003 -2.79664 0
M  V30 17010 H 1614.06 -3.47263 -1.39136 0
M  V30 17011 H 1615.39 -4.56156 -1.84886 0
M  V30 17012 N 1617.04 0.356258 -1.53521 0
M  V30 17013 C 1618 1.41975 -1.79933 0
M  V30 17014 C 1619 1.46177 -0.669997 0
M  V30 17015 O 1620.19 1.46774 -0.938239 0
M  V30 17016 C 1617.33 2.81015 -1.92985 0
M  V30 17017 H 1618.52 1.19824 -2.74922 0
M  V30 17018 H 1616.07 0.589928 -1.4474 0
M  V30 17019 H 1616.81 3.08466 -1.00095 0
M  V30 17020 H 1616.59 2.79363 -2.75135 0
M  V30 17021 H 1618.08 3.58013 -2.1498 0
M  V30 17022 N 1618.52 1.45038 0.616577 0
M  V30 17023 C 1619.77 1.48292 1.3731 0
M  V30 17024 C 1620.09 0.122437 1.94615 0
M  V30 17025 O 1619.36 -0.847103 1.76638 0
M  V30 17026 H 1617.94 0.546079 0.509712 0
M  V30 17027 H 1620.6 1.80927 0.724673 0
M  V30 17028 H 1619.7 2.21664 2.19708 0
M  V30 17029 N 1620 -0.858287 1.32179 0
M  V30 17030 C 1621.41 -1.14591 1.1109 0
M  V30 17031 C 1621.61 -2.01194 -0.110998 0
M  V30 17032 O 1620.67 -2.39593 -0.79695 0
M  V30 17033 C 1621.98 -1.82675 2.38852 0
M  V30 17034 C 1623.53 -1.95326 2.44574 0
M  V30 17035 C 1624.01 -2.66826 3.72247 0
M  V30 17036 N 1625.5 -2.74353 3.73208 0
M  V30 17037 C 1626.23 -3.30317 4.68698 0
M  V30 17038 N 1625.73 -3.87121 5.74552 0
M  V30 17039 N 1627.52 -3.28386 4.562 0
M  V30 17040 H 1619.67 -0.281471 2.10527 0
M  V30 17041 H 1621.93 -0.187326 0.929308 0
M  V30 17042 H 1621.64 -1.26495 3.28165 0
M  V30 17043 H 1621.51 -2.82862 2.49537 0
M  V30 17044 H 1623.9 -2.50668 1.55723 0
M  V30 17045 H 1623.98 -0.94147 2.37844 0
M  V30 17046 H 1623.63 -2.12149 4.61471 0
M  V30 17047 H 1623.56 -3.68437 3.76247 0
M  V30 17048 H 1626.05 -2.34051 2.96696 0
M  V30 17049 H 1626.36 -4.2797 6.43476 0
M  V30 17050 H 1624.71 -3.85463 5.78311 0
M  V30 17051 H 1627.9 -2.83254 3.72672 0
M  V30 17052 H 1628.07 -3.71701 5.30794 0
M  V30 17053 N 1621.48 -1.1533 -1.07409 0
M  V30 17054 C 1622.41 -0.872476 -2.16587 0
M  V30 17055 C 1623.39 0.176683 -1.6918 0
M  V30 17056 O 1624.57 0.0311826 -1.94175 0
M  V30 17057 C 1621.7 -0.360342 -3.45426 0
M  V30 17058 C 1620.66 -1.34611 -4.06281 0
M  V30 17059 C 1619.98 -0.692848 -5.30192 0
M  V30 17060 C 1621.28 -2.71191 -4.46378 0
M  V30 17061 H 1622.98 -1.78546 -2.40336 0
M  V30 17062 H 1620.52 -0.859895 -1.15507 0
M  V30 17063 H 1622.47 -0.151429 -4.21128 0
M  V30 17064 H 1621.2 0.588109 -3.21261 0
M  V30 17065 H 1619.86 -1.54137 -3.32622 0
M  V30 17066 H 1619.51 0.261732 -5.02319 0
M  V30 17067 H 1619.21 -1.35071 -5.71865 0
M  V30 17068 H 1620.73 -0.493695 -6.08601 0
M  V30 17069 H 1622.14 -2.55513 -5.13212 0
M  V30 17070 H 1620.54 -3.33345 -4.99 0
M  V30 17071 H 1621.61 -3.273 -3.57775 0
M  V30 17072 N 1622.95 1.25748 -0.950004 0
M  V30 17073 C 1624.18 1.97413 -0.61933 0
M  V30 17074 C 1624.6 1.70656 0.807591 0
M  V30 17075 O 1623.95 0.979899 1.53962 0
M  V30 17076 C 1624 3.51053 -0.862801 0
M  V30 17077 O 1623.73 3.76884 -2.23361 0
M  V30 17078 C 1625.23 4.39951 -0.543879 0
M  V30 17079 H 1622.45 0.629394 -0.232603 0
M  V30 17080 H 1624.99 1.60037 -1.27312 0
M  V30 17081 H 1623.15 3.86557 -0.255493 0
M  V30 17082 H 1623.56 4.71368 -2.30026 0
M  V30 17083 H 1625.03 5.46676 -0.764804 0
M  V30 17084 H 1625.51 4.36094 0.521421 0
M  V30 17085 H 1626.12 4.10005 -1.1303 0
M  V30 17086 N 1624.43 0.718038 1.40292 0
M  V30 17087 C 1625.36 0.0276294 2.29183 0
M  V30 17088 C 1626.38 -0.721208 1.45954 0
M  V30 17089 O 1627.57 -0.568181 1.69216 0
M  V30 17090 C 1624.67 -0.985139 3.24266 0
M  V30 17091 C 1623.84 -0.301327 4.36361 0
M  V30 17092 C 1622.9 -1.21982 5.11866 0
M  V30 17093 O 1621.92 -0.70369 5.64833 0
M  V30 17094 N 1623.13 -2.55079 5.21455 0
M  V30 17095 H 1625.89 0.790884 2.89076 0
M  V30 17096 H 1623.45 0.565867 1.51689 0
M  V30 17097 H 1625.44 -1.60183 3.7165 0
M  V30 17098 H 1624.01 -1.64973 2.65523 0
M  V30 17099 H 1623.23 0.495594 3.91072 0
M  V30 17100 H 1624.52 0.173238 5.08505 0
M  V30 17101 H 1623.92 -2.99506 4.79909 0
M  V30 17102 H 1622.48 -3.11886 5.72338 0
M  V30 17103 N 1625.91 -1.50602 0.464402 0
M  V30 17104 C 1626.86 -2.28382 -0.333234 0
M  V30 17105 C 1627.83 -1.3314 -0.993125 0
M  V30 17106 O 1629.01 -1.62072 -1.00685 0
M  V30 17107 C 1626.15 -3.14841 -1.41313 0
M  V30 17108 C 1625.27 -4.25106 -0.768684 0
M  V30 17109 C 1624.4 -4.98833 -1.82591 0
M  V30 17110 C 1623.44 -6.00982 -1.16135 0
M  V30 17111 N 1622.58 -6.68012 -2.16112 0
M  V30 17112 H 1627.42 -2.96096 0.336354 0
M  V30 17113 H 1624.95 -1.46022 0.17772 0
M  V30 17114 H 1626.91 -3.63314 -2.05082 0
M  V30 17115 H 1625.54 -2.49186 -2.05197 0
M  V30 17116 H 1624.59 -3.80395 -0.0185964 0
M  V30 17117 H 1625.91 -4.98204 -0.243759 0
M  V30 17118 H 1625.06 -5.50991 -2.53957 0
M  V30 17119 H 1623.8 -4.25426 -2.38462 0
M  V30 17120 H 1622.8 -5.4809 -0.43328 0
M  V30 17121 H 1624.03 -6.76358 -0.609612 0
M  V30 17122 H 1621.97 -5.97401 -2.71013 0
M  V30 17123 H 1621.89 -7.36963 -1.68586 0
M  V30 17124 H 1623.16 -7.2479 -2.86879 0
M  V30 17125 N 1627.39 -0.19675 -1.56367 0
M  V30 17126 C 1628.3 0.735372 -2.22777 0
M  V30 17127 C 1629.31 1.23336 -1.22737 0
M  V30 17128 O 1630.49 1.28017 -1.55479 0
M  V30 17129 C 1627.56 1.93706 -2.8754 0
M  V30 17130 C 1626.62 1.48348 -4.02854 0
M  V30 17131 C 1625.85 2.62788 -4.64519 0
M  V30 17132 O 1626.07 3.80311 -4.25111 0
M  V30 17133 O 1625.01 2.35406 -5.53956 0
M  V30 17134 H 1628.83 0.199788 -3.03042 0
M  V30 17135 H 1626.42 0.0326149 -1.49364 0
M  V30 17136 H 1628.3 2.63934 -3.28507 0
M  V30 17137 H 1626.97 2.46121 -2.10252 0
M  V30 17138 H 1625.88 0.749939 -3.66506 0
M  V30 17139 H 1627.21 1.00597 -4.8181 0
M  V30 17140 N 1628.87 1.57413 0.0768405 0
M  V30 17141 C 1629.78 2.06688 1.10983 0
M  V30 17142 C 1630.79 0.995392 1.42716 0
M  V30 17143 O 1631.97 1.30977 1.52994 0
M  V30 17144 C 1629.03 2.49676 2.40546 0
M  V30 17145 C 1628.09 3.71101 2.1583 0
M  V30 17146 C 1627.33 4.1203 3.39216 0
M  V30 17147 O 1627.55 3.52877 4.48145 0
M  V30 17148 O 1626.48 5.04856 3.27726 0
M  V30 17149 H 1630.31 2.95012 0.721242 0
M  V30 17150 H 1627.9 1.46546 0.290624 0
M  V30 17151 H 1629.78 2.77871 3.16805 0
M  V30 17152 H 1628.45 1.64484 2.78795 0
M  V30 17153 H 1627.36 3.47996 1.37293 0
M  V30 17154 H 1628.69 4.5713 1.82465 0
M  V30 17155 N 1630.34 -0.348112 1.53707 0
M  V30 17156 C 1631.59 -1.08626 1.69951 0
M  V30 17157 C 1631.91 -1.89944 0.466992 0
M  V30 17158 O 1633.11 -2.66661 0.51029 0
M  V30 17159 C 1631.57 -1.98052 3.00505 0
M  V30 17160 C 1631.18 -1.21963 4.31079 0
M  V30 17161 C 1632.92 -2.71752 3.26115 0
M  V30 17162 C 1630.83 -2.10392 5.52711 0
M  V30 17163 H 1629.76 -0.409241 0.633275 0
M  V30 17164 H 1632.41 -0.346051 1.80207 0
M  V30 17165 H 1630.79 -2.75874 2.84094 0
M  V30 17166 H 1631.96 -0.490831 4.58178 0
M  V30 17167 H 1630.28 -0.600511 4.12047 0
M  V30 17168 H 1632.88 -3.38174 4.14177 0
M  V30 17169 H 1633.22 -3.38072 2.42926 0
M  V30 17170 H 1633.75 -2.01005 3.43281 0
M  V30 17171 H 1630.49 -1.48622 6.38429 0
M  V30 17172 H 1630.01 -2.81074 5.29866 0
M  V30 17173 H 1631.69 -2.69551 5.88176 0
M  V30 17174 N 1631.82 -1.45363 -0.608876 0
M  V30 17175 C 1633.23 -1.43794 -1.19081 0
M  V30 17176 C 1633.58 -0.164874 -1.95506 0
M  V30 17177 O 1632.71 0.733623 -2.03585 0
M  V30 17178 C 1633.3 -2.60506 -2.16615 0
M  V30 17179 C 1631.86 -2.62061 -2.70187 0
M  V30 17180 C 1631.01 -2.36018 -1.4557 0
M  V30 17181 H 1633.96 -1.53622 -0.39826 0
M  V30 17182 H 1633.98 -2.34531 -2.99625 0
M  V30 17183 H 1633.49 -3.53147 -1.60963 0
M  V30 17184 H 1631.6 -1.73423 -3.2978 0
M  V30 17185 H 1631.71 -3.61242 -3.14708 0
M  V30 17186 H 1630.07 -1.8555 -1.74481 0
M  V30 17187 H 1630.86 -3.30802 -0.917884 0
M  V30 17188 N 1633.3 0.851265 -1.32632 0
M  V30 17189 C 1634.21 1.99239 -1.23858 0
M  V30 17190 C 1635.23 1.73339 -0.151517 0
M  V30 17191 O 1636.4 1.97919 -0.372822 0
M  V30 17192 C 1633.47 3.32987 -0.965417 0
M  V30 17193 C 1632.53 3.72087 -2.14126 0
M  V30 17194 C 1631.76 4.99453 -1.88103 0
M  V30 17195 O 1631.98 5.64399 -0.825253 0
M  V30 17196 O 1630.92 5.35763 -2.74302 0
M  V30 17197 H 1634.74 2.09579 -2.19796 0
M  V30 17198 H 1632.33 0.98243 -1.12555 0
M  V30 17199 H 1634.21 4.13151 -0.829713 0
M  V30 17200 H 1632.89 3.2368 -0.036219 0
M  V30 17201 H 1631.79 2.92485 -2.33245 0
M  V30 17202 H 1633.13 3.86045 -3.05336 0
M  V30 17203 N 1634.78 1.15898 1.06796 0
M  V30 17204 C 1635.69 0.87507 2.17669 0
M  V30 17205 C 1636.7 -0.150763 1.73346 0
M  V30 17206 O 1637.88 0.0246621 2.01385 0
M  V30 17207 C 1634.95 0.374555 3.44671 0
M  V30 17208 C 1634.01 1.46498 4.0353 0
M  V30 17209 C 1633.24 0.988256 5.2447 0
M  V30 17210 O 1633.46 -0.163992 5.70164 0
M  V30 17211 O 1632.4 1.7744 5.75151 0
M  V30 17212 H 1636.22 1.80208 2.44456 0
M  V30 17213 H 1633.81 0.93854 1.1624 0
M  V30 17214 H 1635.69 0.102161 4.21276 0
M  V30 17215 H 1634.36 -0.524513 3.19422 0
M  V30 17216 H 1633.27 1.79105 3.28439 0
M  V30 17217 H 1634.6 2.33917 4.33063 0
M  V30 17218 N 1636.26 -1.25243 0.956659 0
M  V30 17219 C 1637.17 -2.29529 0.48515 0
M  V30 17220 C 1638.18 -1.68121 -0.448494 0
M  V30 17221 O 1639.36 -1.98773 -0.324243 0
M  V30 17222 C 1636.42 -3.45952 -0.227611 0
M  V30 17223 C 1635.48 -4.22795 0.744495 0
M  V30 17224 C 1634.72 -5.3366 0.0656539 0
M  V30 17225 O 1634.94 -5.58722 -1.14829 0
M  V30 17226 O 1633.87 -5.97181 0.75222 0
M  V30 17227 H 1637.7 -2.71955 1.35181 0
M  V30 17228 H 1635.29 -1.30729 0.723203 0
M  V30 17229 H 1637.17 -4.16687 -0.628474 0
M  V30 17230 H 1635.84 -3.05524 -1.06942 0
M  V30 17231 H 1634.75 -3.5448 1.1956 0
M  V30 17232 H 1636.08 -4.67012 1.55438 0
M  V30 17233 N 1637.73 -0.725468 -1.3991 0
M  V30 17234 C 1638.66 -0.094211 -2.3331 0
M  V30 17235 C 1639.65 0.734728 -1.53414 0
M  V30 17236 O 1640.83 0.681647 -1.81844 0
M  V30 17237 C 1637.96 0.820958 -3.37457 0
M  V30 17238 C 1636.91 0.0968983 -4.2789 0
M  V30 17239 C 1636.24 1.12845 -5.22657 0
M  V30 17240 C 1637.54 -1.05483 -5.11537 0
M  V30 17241 H 1639.23 -0.874365 -2.86348 0
M  V30 17242 H 1636.78 -0.421913 -1.3768 0
M  V30 17243 H 1638.73 1.27203 -4.01743 0
M  V30 17244 H 1637.46 1.63312 -2.82837 0
M  V30 17245 H 1636.12 -0.334454 -3.65071 0
M  V30 17246 H 1635.76 1.93392 -4.64337 0
M  V30 17247 H 1635.46 0.648805 -5.84007 0
M  V30 17248 H 1636.99 1.57942 -5.89819 0
M  V30 17249 H 1638.4 -0.682657 -5.69221 0
M  V30 17250 H 1636.8 -1.46349 -5.81981 0
M  V30 17251 H 1637.87 -1.88095 -4.46932 0
M  V30 17252 N 1639.21 1.50354 -0.472382 0
M  V30 17253 C 1640.16 2.30173 0.335135 0
M  V30 17254 C 1641.15 1.37517 0.98921 0
M  V30 17255 O 1642.36 1.54703 0.920168 0
M  V30 17256 H 1638.74 0.741212 0.126918 0
M  V30 17257 H 1640.71 2.96239 -0.358449 0
M  V30 17258 C 1639.46 3.18104 1.40375 0
M  V30 17259 H 1638.78 3.8931 0.90984 0
M  V30 17260 H 1640.22 3.76947 1.94132 0
M  V30 17261 C 1638.68 2.35785 2.40639 0
M  V30 17262 O 1639.21 2.04185 3.45936 0
M  V30 17263 N 1637.41 1.98342 2.12389 0
M  V30 17264 H 1636.96 2.2424 1.26784 0
M  V30 17265 H 1636.92 1.43567 2.79707 0
M  V30 17266 N 1640.69 0.205039 1.56261 0
M  V30 17267 C 1641.6 -0.723548 2.23164 0
M  V30 17268 C 1642.62 -1.22683 1.23389 0
M  V30 17269 O 1643.79 -1.27191 1.56155 0
M  V30 17270 C 1640.86 -1.92178 2.88563 0
M  V30 17271 C 1639.92 -1.46209 4.03635 0
M  V30 17272 C 1639.15 -2.60321 4.65906 0
M  V30 17273 O 1639.38 -3.78051 4.27122 0
M  V30 17274 O 1638.31 -2.32465 5.55197 0
M  V30 17275 H 1642.14 -0.183715 3.03144 0
M  V30 17276 H 1639.72 -0.0246933 1.4938 0
M  V30 17277 H 1641.6 -2.62188 3.29902 0
M  V30 17278 H 1640.28 -2.45003 2.11555 0
M  V30 17279 H 1639.18 -0.730492 3.66899 0
M  V30 17280 H 1640.52 -0.980402 4.82337 0
M  V30 17281 N 1642.17 -1.57451 -0.0684915 0
M  V30 17282 C 1643.45 -1.78483 -0.800209 0
M  V30 17283 C 1643.83 -0.793438 -1.95621 0
M  V30 17284 O 1643.17 0.172756 -2.27846 0
M  V30 17285 C 1643.38 -3.25069 -1.27008 0
M  V30 17286 C 1644.73 -3.8899 -1.70212 0
M  V30 17287 O 1645.76 -3.2898 -1.36566 0
M  V30 17288 O 1644.62 -4.94569 -2.32515 0
M  V30 17289 H 1641.71 -0.732598 -0.383704 0
M  V30 17290 H 1644.26 -1.69631 -0.0483117 0
M  V30 17291 H 1643.03 -3.88784 -0.443067 0
M  V30 17292 H 1642.65 -3.38657 -2.08319 0
M  V30 17293 N 1643.65 0.339955 -1.5389 0
M  V30 17294 C 1644.89 1.08139 -1.71563 0
M  V30 17295 C 1645.23 1.88193 -0.479292 0
M  V30 17296 O 1644.5 1.87317 0.523702 0
M  V30 17297 C 1644.78 2.01963 -2.98132 0
M  V30 17298 C 1644.64 1.25349 -4.31981 0
M  V30 17299 C 1645.96 3.01729 -3.20387 0
M  V30 17300 H 1643.08 0.391744 -0.624264 0
M  V30 17301 H 1645.72 0.359609 -1.86566 0
M  V30 17302 H 1643.87 2.63511 -2.85472 0
M  V30 17303 H 1645.54 0.66388 -4.56498 0
M  V30 17304 H 1643.78 0.555541 -4.30228 0
M  V30 17305 H 1644.45 1.94154 -5.16728 0
M  V30 17306 H 1646.93 2.50297 -3.32401 0
M  V30 17307 H 1645.81 3.64577 -4.10335 0
M  V30 17308 H 1646.07 3.73303 -2.36849 0
M  V30 17309 N 1645.13 1.45684 0.601159 0
M  V30 17310 C 1646.04 1.57396 1.73965 0
M  V30 17311 C 1647.05 0.458133 1.6786 0
M  V30 17312 O 1648.23 0.719717 1.88101 0
M  V30 17313 C 1645.29 1.54363 3.1044 0
M  V30 17314 C 1644.35 2.77034 3.27949 0
M  V30 17315 C 1643.59 2.74136 4.57914 0
M  V30 17316 O 1643.81 1.81829 5.40643 0
M  V30 17317 O 1642.74 3.65428 4.78274 0
M  V30 17318 H 1646.57 2.5364 1.67034 0
M  V30 17319 H 1644.15 1.28267 0.766017 0
M  V30 17320 H 1646.04 1.55302 3.91739 0
M  V30 17321 H 1644.71 0.612723 3.17848 0
M  V30 17322 H 1643.62 2.81655 2.46214 0
M  V30 17323 H 1644.95 3.69272 3.25422 0
M  V30 17324 N 1646.6 -0.84422 1.33082 0
M  V30 17325 C 1647.51 -1.9858 1.24913 0
M  V30 17326 C 1648.53 -1.73256 0.160708 0
M  V30 17327 O 1649.71 -1.97719 0.383313 0
M  V30 17328 C 1646.77 -3.32471 0.983063 0
M  V30 17329 C 1645.83 -3.70946 2.16096 0
M  V30 17330 C 1645.06 -4.98448 1.90749 0
M  V30 17331 O 1645.29 -5.63953 0.855173 0
M  V30 17332 O 1644.22 -5.34301 2.7714 0
M  V30 17333 H 1648.05 -2.0841 2.20905 0
M  V30 17334 H 1645.63 -0.976447 1.13075 0
M  V30 17335 H 1647.51 -4.12705 0.851612 0
M  V30 17336 H 1646.19 -3.23656 0.053384 0
M  V30 17337 H 1645.1 -2.91244 2.34793 0
M  V30 17338 H 1646.43 -3.8442 3.07379 0
M  V30 17339 N 1648.08 -1.16463 -1.0618 0
M  V30 17340 C 1649.33 -0.941322 -1.78387 0
M  V30 17341 C 1649.64 0.531995 -1.88226 0
M  V30 17342 O 1650.85 0.873227 -2.57074 0
M  V30 17343 C 1649.31 -1.63491 -3.20623 0
M  V30 17344 C 1648.91 -3.14607 -3.18946 0
M  V30 17345 C 1650.66 -1.49361 -3.97356 0
M  V30 17346 C 1648.56 -3.76698 -4.55908 0
M  V30 17347 H 1647.49 -0.348549 -0.668603 0
M  V30 17348 H 1650.15 -1.39607 -1.19088 0
M  V30 17349 H 1648.53 -1.10787 -3.80187 0
M  V30 17350 H 1649.7 -3.74164 -2.68957 0
M  V30 17351 H 1648.02 -3.28634 -2.55712 0
M  V30 17352 H 1650.61 -1.93131 -4.98603 0
M  V30 17353 H 1650.96 -0.442724 -4.13939 0
M  V30 17354 H 1651.49 -1.99227 -3.44316 0
M  V30 17355 H 1648.23 -4.8174 -4.4453 0
M  V30 17356 H 1647.75 -3.21927 -5.06086 0
M  V30 17357 H 1649.43 -3.78321 -5.24864 0
M  V30 17358 N 1649.56 1.24734 -0.963288 0
M  V30 17359 C 1650.84 1.88004 -0.539809 0
M  V30 17360 C 1651.22 1.86814 0.983035 0
M  V30 17361 O 1650.56 1.33769 1.85251 0
M  V30 17362 C 1650.77 3.30326 -1.1263 0
M  V30 17363 C 1652.12 4.07039 -1.20848 0
M  V30 17364 O 1653.15 3.3948 -1.07849 0
M  V30 17365 O 1652.01 5.27906 -1.41342 0
M  V30 17366 H 1649.1 0.807318 -0.17935 0
M  V30 17367 H 1651.65 1.3274 -1.05727 0
M  V30 17368 H 1650.42 3.25668 -2.16925 0
M  V30 17369 H 1650.04 3.93159 -0.592614 0
M  V30 17370 N 1651.04 0.732878 1.39523 0
M  V30 17371 C 1651.99 0.0676184 2.279 0
M  V30 17372 C 1652.97 -0.7148 1.44151 0
M  V30 17373 O 1654.16 -0.584158 1.67083 0
M  V30 17374 C 1651.29 -0.840482 3.32853 0
M  V30 17375 C 1650.38 -0.052326 4.24068 0
M  V30 17376 N 1650.77 0.973429 4.96345 0
M  V30 17377 C 1649.07 -0.282301 4.45106 0
M  V30 17378 C 1649.77 1.44851 5.63376 0
M  V30 17379 N 1648.74 0.767499 5.38155 0
M  V30 17380 H 1652.55 0.853533 2.81233 0
M  V30 17381 H 1650.06 0.567016 1.5218 0
M  V30 17382 H 1652.06 -1.33254 3.95031 0
M  V30 17383 H 1650.72 -1.62558 2.81078 0
M  V30 17384 H 1651.73 1.35474 4.99867 0
M  V30 17385 H 1648.41 -1.04237 4.04278 0
M  V30 17386 H 1649.8 2.30179 6.31242 0
M  V30 17387 N 1652.52 -1.50101 0.480349 0
M  V30 17388 C 1653.48 -2.27258 -0.297763 0
M  V30 17389 C 1654.48 -1.32415 -0.912296 0
M  V30 17390 O 1655.67 -1.5576 -0.780035 0
M  V30 17391 C 1652.8 -3.09684 -1.42508 0
M  V30 17392 H 1653.99 -2.97495 0.379011 0
M  V30 17393 H 1651.55 -1.54528 0.234681 0
M  V30 17394 H 1652.28 -2.43964 -2.13663 0
M  V30 17395 H 1652.07 -3.79393 -0.990125 0
M  V30 17396 H 1653.56 -3.68013 -1.97374 0
M  V30 17397 N 1653.99 -0.213323 -1.5615 0
M  V30 17398 C 1654.9 0.711703 -2.23544 0
M  V30 17399 C 1655.92 1.22027 -1.24038 0
M  V30 17400 O 1657.1 1.26361 -1.56828 0
M  V30 17401 C 1654.16 1.90645 -2.89578 0
M  V30 17402 C 1653.22 1.44066 -4.04405 0
M  V30 17403 C 1652.45 2.57846 -4.6728 0
M  V30 17404 O 1652.68 3.75781 -4.29121 0
M  V30 17405 O 1651.61 2.29518 -5.56422 0
M  V30 17406 H 1655.44 0.167635 -3.03237 0
M  V30 17407 H 1653.02 0.016771 -1.49391 0
M  V30 17408 H 1654.9 2.60435 -3.31288 0
M  V30 17409 H 1653.58 2.43877 -2.12851 0
M  V30 17410 H 1652.49 0.711024 -3.67281 0
M  V30 17411 H 1653.82 0.954809 -4.8285 0
M  V30 17412 N 1655.47 1.57485 0.0601405 0
M  V30 17413 C 1656.89 1.54105 0.415187 0
M  V30 17414 C 1657.09 0.935177 1.78484 0
M  V30 17415 O 1656.14 0.542715 2.46599 0
M  V30 17416 C 1657.46 2.98708 0.34555 0
M  V30 17417 C 1659.01 3.10103 0.424895 0
M  V30 17418 C 1659.48 4.56379 0.385041 0
M  V30 17419 N 1660.97 4.6106 0.444771 0
M  V30 17420 C 1661.71 5.71737 0.436334 0
M  V30 17421 N 1661.2 6.91746 0.38202 0
M  V30 17422 N 1663 5.60014 0.483759 0
M  V30 17423 H 1655.15 1.95232 -0.836565 0
M  V30 17424 H 1657.41 0.894101 -0.3151 0
M  V30 17425 H 1657.12 3.4664 -0.594427 0
M  V30 17426 H 1656.99 3.59201 1.15129 0
M  V30 17427 H 1659.38 2.62137 1.3553 0
M  V30 17428 H 1659.46 2.52499 -0.409633 0
M  V30 17429 H 1659.1 5.05004 -0.541561 0
M  V30 17430 H 1659.03 5.11859 1.23726 0
M  V30 17431 H 1661.52 3.74703 0.490522 0
M  V30 17432 H 1661.84 7.71866 0.379829 0
M  V30 17433 H 1660.18 6.94126 0.348532 0
M  V30 17434 H 1663.37 4.65158 0.523965 0
M  V30 17435 H 1663.54 6.46266 0.473715 0
M  V30 17436 N 1656.95 -0.331789 1.54068 0
M  V30 17437 C 1657.86 -1.43116 1.8589 0
M  V30 17438 C 1658.88 -1.57003 0.75007 0
M  V30 17439 O 1660.05 -1.72256 1.04355 0
M  V30 17440 C 1657.12 -2.77945 2.07238 0
M  V30 17441 C 1656.18 -2.73303 3.31065 0
M  V30 17442 C 1655.41 -4.01702 3.51385 0
M  V30 17443 O 1655.63 -4.99562 2.75306 0
M  V30 17444 O 1654.57 -4.0546 4.44844 0
M  V30 17445 H 1658.39 -1.19137 2.79357 0
M  V30 17446 H 1655.98 -0.525057 1.3987 0
M  V30 17447 H 1657.86 -3.57774 2.22656 0
M  V30 17448 H 1656.54 -3.01831 1.16959 0
M  V30 17449 H 1655.44 -1.92054 3.21039 0
M  V30 17450 H 1656.78 -2.54371 4.21374 0
M  V30 17451 N 1658.43 -1.46001 -0.593424 0
M  V30 17452 C 1659.36 -1.58605 -1.71367 0
M  V30 17453 C 1660.34 -0.436866 -1.64394 0
M  V30 17454 O 1661.52 -0.661782 -1.82576 0
M  V30 17455 C 1658.65 -1.56587 -3.09996 0
M  V30 17456 C 1657.61 -2.70366 -3.31792 0
M  V30 17457 C 1656.93 -2.53406 -4.70839 0
M  V30 17458 C 1658.23 -4.12274 -3.20667 0
M  V30 17459 H 1659.93 -2.52379 -1.61076 0
M  V30 17460 H 1657.47 -1.21462 -0.773499 0
M  V30 17461 H 1659.43 -1.64 -3.88178 0
M  V30 17462 H 1658.15 -0.593511 -3.21162 0
M  V30 17463 H 1656.81 -2.62405 -2.56006 0
M  V30 17464 H 1656.46 -1.54278 -4.78756 0
M  V30 17465 H 1656.16 -3.29715 -4.86376 0
M  V30 17466 H 1657.68 -2.62694 -5.51203 0
M  V30 17467 H 1659.1 -4.21404 -3.88705 0
M  V30 17468 H 1657.49 -4.89085 -3.47729 0
M  V30 17469 H 1658.56 -4.33184 -2.17898 0
M  V30 17470 N 1659.91 0.83715 -1.33527 0
M  V30 17471 C 1661.32 1.12809 -1.12899 0
M  V30 17472 C 1661.52 2.01345 0.0789761 0
M  V30 17473 O 1660.58 2.40831 0.758732 0
M  V30 17474 C 1661.89 1.78852 -2.41728 0
M  V30 17475 C 1663.44 1.91411 -2.47651 0
M  V30 17476 C 1663.91 2.6087 -3.76445 0
M  V30 17477 N 1665.41 2.68381 -3.77526 0
M  V30 17478 C 1666.14 3.22819 -4.73894 0
M  V30 17479 N 1665.64 3.77931 -5.80638 0
M  V30 17480 N 1667.43 3.21087 -4.61367 0
M  V30 17481 H 1659.58 0.247942 -2.10948 0
M  V30 17482 H 1661.84 0.172518 -0.93217 0
M  V30 17483 H 1661.55 1.21258 -3.30135 0
M  V30 17484 H 1661.42 2.78856 -2.54006 0
M  V30 17485 H 1663.81 2.48159 -1.59691 0
M  V30 17486 H 1663.89 0.903512 -2.39312 0
M  V30 17487 H 1663.54 2.0478 -4.64787 0
M  V30 17488 H 1663.47 3.62404 -3.82061 0
M  V30 17489 H 1665.96 2.29301 -3.00382 0
M  V30 17490 H 1666.27 4.17678 -6.50204 0
M  V30 17491 H 1664.61 3.76214 -5.8437 0
M  V30 17492 H 1667.81 2.7729 -3.77131 0
M  V30 17493 H 1667.98 3.6321 -5.3664 0
M  V30 17494 N 1661.38 1.17024 1.05561 0
M  V30 17495 C 1662.8 0.916718 1.30646 0
M  V30 17496 C 1663 -0.426248 1.9694 0
M  V30 17497 O 1662.06 -1.16408 2.24065 0
M  V30 17498 C 1663.37 2.07126 2.17989 0
M  V30 17499 C 1664.92 2.10787 2.31383 0
M  V30 17500 C 1665.39 3.25616 3.22084 0
M  V30 17501 N 1666.88 3.25381 3.29669 0
M  V30 17502 C 1667.62 4.10873 3.99964 0
M  V30 17503 N 1667.11 5.06468 4.72718 0
M  V30 17504 N 1668.91 3.98835 3.9609 0
M  V30 17505 H 1661.06 2.03474 0.609284 0
M  V30 17506 H 1663.32 0.888247 0.331243 0
M  V30 17507 H 1663.03 3.04168 1.76564 0
M  V30 17508 H 1662.9 2.01912 3.18609 0
M  V30 17509 H 1665.29 1.14333 2.72051 0
M  V30 17510 H 1665.37 2.20064 1.30405 0
M  V30 17511 H 1665.01 4.22333 2.8213 0
M  V30 17512 H 1664.94 3.13575 4.23058 0
M  V30 17513 H 1667.43 2.56164 2.77828 0
M  V30 17514 H 1667.75 5.68105 5.23905 0
M  V30 17515 H 1666.09 5.10441 4.71673 0
M  V30 17516 H 1669.28 3.23451 3.38375 0
M  V30 17517 H 1669.46 4.65682 4.50604 0
M  V30 17518 N 1662.86 -1.24221 0.969889 0
M  V30 17519 C 1664.11 -1.91973 0.631725 0
M  V30 17520 C 1664.43 -1.76169 -0.836032 0
M  V30 17521 O 1663.7 -1.13459 -1.597 0
M  V30 17522 H 1662.28 -0.710497 0.230658 0
M  V30 17523 H 1664.94 -1.51069 1.23143 0
M  V30 17524 H 1664.04 -2.99606 0.874223 0
M  V30 17525 N 1664.34 -0.740267 -1.39132 0
M  V30 17526 C 1665.27 -0.064087 -2.2911 0
M  V30 17527 C 1666.29 0.697897 -1.47082 0
M  V30 17528 O 1667.47 0.541189 -1.70098 0
M  V30 17529 C 1664.57 0.933426 -3.25792 0
M  V30 17530 C 1663.75 0.231867 -4.36785 0
M  V30 17531 C 1662.81 1.13823 -5.13742 0
M  V30 17532 O 1661.83 0.613741 -5.65881 0
M  V30 17533 N 1663.03 2.46751 -5.25447 0
M  V30 17534 H 1665.8 -0.836774 -2.87781 0
M  V30 17535 H 1663.36 -0.589928 -1.5077 0
M  V30 17536 H 1665.35 1.5425 -3.74151 0
M  V30 17537 H 1663.92 1.60728 -2.68114 0
M  V30 17538 H 1663.14 -0.557747 -3.90234 0
M  V30 17539 H 1664.43 -0.254115 -5.08165 0
M  V30 17540 H 1663.83 2.91834 -4.84613 0
M  V30 17541 H 1662.39 3.02741 -5.77227 0
M  V30 17542 N 1665.82 1.49844 -0.488302 0
M  V30 17543 C 1667.07 2.01603 0.0624744 0
M  V30 17544 C 1667.38 1.37397 1.39217 0
M  V30 17545 O 1668.59 1.8041 2.0289 0
M  V30 17546 C 1667.04 3.59536 0.161824 0
M  V30 17547 C 1666.65 4.32709 -1.16047 0
M  V30 17548 C 1668.39 4.1928 0.663642 0
M  V30 17549 C 1666.3 5.82468 -1.02397 0
M  V30 17550 H 1665.23 0.753512 0.0271222 0
M  V30 17551 H 1667.88 1.72499 -0.625805 0
M  V30 17552 H 1666.26 3.85301 0.914273 0
M  V30 17553 H 1667.44 4.18655 -1.92522 0
M  V30 17554 H 1665.75 3.84652 -1.59473 0
M  V30 17555 H 1668.35 5.28935 0.783069 0
M  V30 17556 H 1668.69 3.81801 1.65933 0
M  V30 17557 H 1669.23 3.97787 -0.0319078 0
M  V30 17558 H 1665.97 6.2445 -1.99355 0
M  V30 17559 H 1665.49 5.9905 -0.299902 0
M  V30 17560 H 1667.16 6.43229 -0.697538 0
M  V30 17561 N 1667.3 0.221601 1.56034 0
M  V30 17562 C 1668.23 -0.683171 2.23282 0
M  V30 17563 C 1669.21 -1.20101 1.20456 0
M  V30 17564 O 1670.39 -1.245 1.49041 0
M  V30 17565 C 1667.52 -1.89143 2.91277 0
M  V30 17566 C 1666.48 -1.50742 4.00576 0
M  V30 17567 C 1665.8 -2.79446 4.55867 0
M  V30 17568 C 1667.1 -0.697388 5.17623 0
M  V30 17569 H 1668.8 -0.122488 2.99149 0
M  V30 17570 H 1666.34 -0.0574732 1.43885 0
M  V30 17571 H 1668.3 -2.52982 3.37013 0
M  V30 17572 H 1667.02 -2.47708 2.12858 0
M  V30 17573 H 1665.68 -0.892492 3.5557 0
M  V30 17574 H 1665.33 -3.36155 3.74177 0
M  V30 17575 H 1665.03 -2.54486 5.29633 0
M  V30 17576 H 1666.55 -3.44228 5.04321 0
M  V30 17577 H 1667.96 -1.23948 5.59741 0
M  V30 17578 H 1666.36 -0.544875 5.97621 0
M  V30 17579 H 1667.43 0.295981 4.83996 0
M  V30 17580 N 1668.77 -1.57515 -0.0517878 0
M  V30 17581 C 1670.02 -1.8935 -0.742852 0
M  V30 17582 C 1670.38 -0.817645 -1.74162 0
M  V30 17583 O 1669.67 0.176157 -1.90788 0
M  V30 17584 C 1669.86 -3.25625 -1.4732 0
M  V30 17585 C 1669.69 -4.46365 -0.546677 0
M  V30 17586 C 1668.46 -5.04993 -0.176143 0
M  V30 17587 C 1670.66 -5.14034 0.165236 0
M  V30 17588 N 1668.64 -6.09252 0.75401 0
M  V30 17589 C 1670.01 -6.1265 0.95185 0
M  V30 17590 C 1672.07 -4.97347 0.234592 0
M  V30 17591 C 1670.77 -6.96378 1.80141 0
M  V30 17592 C 1672.8 -5.81618 1.07119 0
M  V30 17593 C 1672.16 -6.79786 1.8458 0
M  V30 17594 H 1668.26 -0.742089 -0.246634 0
M  V30 17595 H 1670.84 -1.947 -0.00363349 0
M  V30 17596 H 1669.01 -3.21246 -2.18301 0
M  V30 17597 H 1670.74 -3.45045 -2.11485 0
M  V30 17598 H 1667.5 -4.70587 -0.5334 0
M  V30 17599 H 1667.92 -6.66046 1.21292 0
M  V30 17600 H 1672.57 -4.21349 -0.349957 0
M  V30 17601 H 1670.28 -7.71736 2.39685 0
M  V30 17602 H 1673.87 -5.70758 1.1281 0
M  V30 17603 H 1672.75 -7.43862 2.48271 0
M  V30 17604 N 1670.25 0.323614 -1.54242 0
M  V30 17605 C 1671.5 1.06156 -1.72444 0
M  V30 17606 C 1671.83 1.88013 -0.498116 0
M  V30 17607 O 1671.08 1.88661 0.520133 0
M  V30 17608 C 1671.38 2.01452 -2.95215 0
M  V30 17609 C 1671.05 1.3575 -4.2998 0
M  V30 17610 C 1669.71 1.17563 -4.66618 0
M  V30 17611 C 1672.06 0.885938 -5.13615 0
M  V30 17612 C 1669.39 0.508674 -5.84491 0
M  V30 17613 C 1671.74 0.232807 -6.32171 0
M  V30 17614 C 1670.41 0.0387807 -6.67489 0
M  V30 17615 H 1669.68 0.388454 -0.631019 0
M  V30 17616 H 1672.32 0.338714 -1.88481 0
M  V30 17617 H 1670.63 2.80188 -2.73865 0
M  V30 17618 H 1672.33 2.5858 -3.06492 0
M  V30 17619 H 1668.92 1.50908 -4.01154 0
M  V30 17620 H 1673.1 1.01424 -4.85826 0
M  V30 17621 H 1668.36 0.347149 -6.10414 0
M  V30 17622 H 1672.53 -0.140594 -6.96258 0
M  V30 17623 H 1670.16 -0.480052 -7.58683 0
M  V30 17624 N 1671.73 1.46313 0.585673 0
M  V30 17625 C 1673.15 1.31203 0.908733 0
M  V30 17626 C 1673.35 0.281265 1.99527 0
M  V30 17627 O 1672.4 -0.317202 2.505 0
M  V30 17628 C 1673.72 2.69742 1.3289 0
M  V30 17629 C 1675.26 2.77809 1.44191 0
M  V30 17630 C 1675.74 4.16924 1.89574 0
M  V30 17631 N 1677.23 4.19327 1.96773 0
M  V30 17632 C 1677.97 5.23856 2.33157 0
M  V30 17633 N 1677.46 6.38716 2.68355 0
M  V30 17634 N 1679.25 5.11221 2.33686 0
M  V30 17635 H 1671.41 2.11989 -0.132126 0
M  V30 17636 H 1673.67 0.947993 0.00355835 0
M  V30 17637 H 1673.37 3.46465 0.604557 0
M  V30 17638 H 1673.25 2.99653 2.29102 0
M  V30 17639 H 1675.64 2.01377 2.15712 0
M  V30 17640 H 1675.72 2.51587 0.46237 0
M  V30 17641 H 1675.36 4.93851 1.18633 0
M  V30 17642 H 1675.29 4.40552 2.88481 0
M  V30 17643 H 1677.78 3.36451 1.72073 0
M  V30 17644 H 1678.09 7.14253 2.95063 0
M  V30 17645 H 1676.44 6.42082 2.66 0
M  V30 17646 H 1679.63 4.20527 2.05609 0
M  V30 17647 H 1679.8 5.92798 2.61714 0
M  V30 17648 N 1673.21 -0.830057 1.33969 0
M  V30 17649 C 1674.46 -1.58272 1.25675 0
M  V30 17650 C 1674.78 -1.94213 -0.175071 0
M  V30 17651 O 1674.05 -1.61694 -1.10597 0
M  V30 17652 H 1672.63 -0.586858 0.462176 0
M  V30 17653 H 1675.29 -0.991495 1.67796 0
M  V30 17654 H 1674.39 -2.50874 1.85658 0
M  V30 17655 N 1674.69 -1.17582 -1.04939 0
M  V30 17656 C 1675.62 -0.918221 -2.14688 0
M  V30 17657 C 1676.6 0.140757 -1.69517 0
M  V30 17658 O 1677.78 -0.0100118 -1.94197 0
M  V30 17659 C 1674.91 -0.433531 -3.44584 0
M  V30 17660 C 1673.87 -1.43199 -4.03334 0
M  V30 17661 C 1673.19 -0.805154 -5.28603 0
M  V30 17662 C 1674.49 -2.80598 -4.40525 0
M  V30 17663 H 1676.19 -1.83604 -2.36495 0
M  V30 17664 H 1673.73 -0.884202 -1.13657 0
M  V30 17665 H 1675.69 -0.240722 -4.20712 0
M  V30 17666 H 1674.41 0.519832 -3.22437 0
M  V30 17667 H 1673.07 -1.61158 -3.29277 0
M  V30 17668 H 1672.72 0.155124 -5.02761 0
M  V30 17669 H 1672.42 -1.4717 -5.68871 0
M  V30 17670 H 1673.94 -0.622677 -6.07417 0
M  V30 17671 H 1675.36 -2.66341 -5.07676 0
M  V30 17672 H 1673.75 -3.43854 -4.91817 0
M  V30 17673 H 1674.82 -3.34815 -3.50752 0
M  V30 17674 N 1676.17 1.23705 -0.976463 0
M  V30 17675 C 1677.11 2.27034 -0.505813 0
M  V30 17676 C 1678.11 1.63716 0.435148 0
M  V30 17677 O 1679.31 1.7732 0.309474 0
M  V30 17678 H 1675.69 0.737862 -0.145131 0
M  V30 17679 H 1677.66 2.64097 -1.38908 0
M  V30 17680 C 1676.41 3.47234 0.179987 0
M  V30 17681 H 1675.73 3.96205 -0.534969 0
M  V30 17682 H 1677.17 4.21353 0.472996 0
M  V30 17683 C 1675.63 3.05979 1.40991 0
M  V30 17684 O 1676.16 3.13914 2.50641 0
M  V30 17685 N 1674.37 2.60934 1.27913 0
M  V30 17686 H 1673.91 2.54677 0.38696 0
M  V30 17687 H 1673.87 2.33697 2.10316 0
M  V30 17688 N 1677.64 0.747635 1.38738 0
M  V30 17689 C 1679.06 0.424577 1.53849 0
M  V30 17690 C 1679.26 -1.06304 1.71177 0
M  V30 17691 O 1678.32 -1.84912 1.71941 0
M  V30 17692 C 1679.63 1.21863 2.749 0
M  V30 17693 C 1681.18 1.20811 2.88745 0
M  V30 17694 C 1681.65 1.985 4.12749 0
M  V30 17695 N 1683.14 1.9573 4.19814 0
M  V30 17696 C 1683.88 2.52641 5.14743 0
M  V30 17697 N 1683.37 3.18241 6.15382 0
M  V30 17698 N 1685.17 2.42604 5.0705 0
M  V30 17699 H 1677.32 1.71182 1.25739 0
M  V30 17700 H 1679.58 0.725358 0.610376 0
M  V30 17701 H 1679.29 2.27181 2.6848 0
M  V30 17702 H 1679.16 0.831509 3.67921 0
M  V30 17703 H 1681.55 0.163013 2.94649 0
M  V30 17704 H 1681.63 1.6347 1.96752 0
M  V30 17705 H 1681.27 3.03017 4.07606 0
M  V30 17706 H 1681.2 1.53239 5.03811 0
M  V30 17707 H 1683.69 1.4795 3.47734 0
M  V30 17708 H 1684.01 3.59101 6.843 0
M  V30 17709 H 1682.35 3.22334 6.15732 0
M  V30 17710 H 1685.54 1.90987 4.27366 0
M  V30 17711 H 1685.72 2.87253 5.80852 0
M  V30 17712 N 1679.12 -1.49583 0.496242 0
M  V30 17713 C 1680.37 -2.01634 -0.051782 0
M  V30 17714 C 1680.68 -1.38133 -1.38487 0
M  V30 17715 O 1681.89 -1.81484 -2.0193 0
M  V30 17716 C 1680.35 -3.59617 -0.142755 0
M  V30 17717 C 1679.95 -4.32088 1.1834 0
M  V30 17718 C 1681.7 -4.19626 -0.641397 0
M  V30 17719 C 1679.6 -5.81917 1.05485 0
M  V30 17720 H 1678.53 -0.753645 -0.0231258 0
M  V30 17721 H 1681.19 -1.72165 0.634944 0
M  V30 17722 H 1679.57 -3.85781 -0.893826 0
M  V30 17723 H 1680.74 -4.17628 1.94739 0
M  V30 17724 H 1679.06 -3.83801 1.61511 0
M  V30 17725 H 1681.65 -5.29343 -0.755008 0
M  V30 17726 H 1682 -3.82676 -1.63906 0
M  V30 17727 H 1682.53 -3.97765 0.053003 0
M  V30 17728 H 1679.27 -6.23384 2.02664 0
M  V30 17729 H 1678.79 -5.98882 0.331667 0
M  V30 17730 H 1680.47 -6.4285 0.731641 0
M  V30 17731 N 1680.6 -0.229873 -1.55915 0
M  V30 17732 C 1681.53 0.70927 -2.1795 0
M  V30 17733 C 1682.54 1.15142 -1.15092 0
M  V30 17734 O 1683.73 1.08114 -1.42034 0
M  V30 17735 C 1680.83 1.97359 -2.75504 0
M  V30 17736 C 1680.01 1.68565 -4.03614 0
M  V30 17737 C 1679.07 2.79786 -4.45652 0
M  V30 17738 O 1678.09 2.479 -5.12381 0
M  V30 17739 N 1679.29 4.08921 -4.12024 0
M  V30 17740 H 1682.06 0.178573 -2.99168 0
M  V30 17741 H 1679.62 -0.0491789 -1.61825 0
M  V30 17742 H 1681.61 2.70972 -3.00593 0
M  V30 17743 H 1680.18 2.41454 -1.98542 0
M  V30 17744 H 1679.4 0.785547 -3.86294 0
M  V30 17745 H 1680.69 1.46769 -4.87172 0
M  V30 17746 H 1680.09 4.37667 -3.58419 0
M  V30 17747 H 1678.64 4.79052 -4.41987 0
M  V30 17748 N 1682.08 1.5754 0.0434337 0
M  V30 17749 C 1683.31 1.92856 0.749268 0
M  V30 17750 C 1683.72 0.828405 1.69655 0
M  V30 17751 O 1683.08 -0.196294 1.81441 0
M  V30 17752 C 1683.13 3.28052 1.51869 0
M  V30 17753 O 1682.85 4.3384 0.609442 0
M  V30 17754 C 1684.35 3.77562 2.32298 0
M  V30 17755 H 1681.57 0.636818 0.211433 0
M  V30 17756 H 1684.11 2.04499 0.00524119 0
M  V30 17757 H 1682.27 3.1785 2.21472 0
M  V30 17758 H 1682.68 5.11794 1.1475 0
M  V30 17759 H 1684.16 4.7471 2.817 0
M  V30 17760 H 1684.63 3.08015 3.13087 0
M  V30 17761 H 1685.24 3.908 1.67796 0
M  V30 17762 N 1683.56 -0.31543 1.54411 0
M  V30 17763 C 1684.49 -1.4098 1.80713 0
M  V30 17764 C 1685.5 -1.47481 0.689435 0
M  V30 17765 O 1686.69 -1.50058 0.966682 0
M  V30 17766 C 1683.79 -2.79459 1.91718 0
M  V30 17767 C 1682.96 -2.96064 3.2197 0
M  V30 17768 C 1682.02 -4.14954 3.23573 0
M  V30 17769 O 1681.05 -4.07726 3.97175 0
M  V30 17770 N 1682.25 -5.24889 2.47935 0
M  V30 17771 H 1685.01 -1.18778 2.75158 0
M  V30 17772 H 1682.58 -0.50545 1.53808 0
M  V30 17773 H 1684.57 -3.57215 1.90209 0
M  V30 17774 H 1683.14 -2.94675 1.04333 0
M  V30 17775 H 1682.36 -2.05541 3.36372 0
M  V30 17776 H 1683.65 -3.0406 4.07952 0
M  V30 17777 H 1683.04 -5.33638 1.87741 0
M  V30 17778 H 1681.6 -6.01033 2.52195 0
M  V30 17779 N 1685.03 -1.46622 -0.577906 0
M  V30 17780 C 1686.28 -1.51446 -1.33218 0
M  V30 17781 C 1686.6 -0.17258 -1.94837 0
M  V30 17782 O 1687.8 -0.0986578 -2.71321 0
M  V30 17783 C 1686.26 -2.66876 -2.41465 0
M  V30 17784 C 1685.87 -4.07506 -1.86127 0
M  V30 17785 C 1687.61 -2.80975 -3.18203 0
M  V30 17786 C 1685.52 -5.14268 -2.92031 0
M  V30 17787 H 1684.45 -0.563643 -0.500822 0
M  V30 17788 H 1687.1 -1.72845 -0.616186 0
M  V30 17789 H 1685.48 -2.38816 -3.15884 0
M  V30 17790 H 1686.65 -4.45378 -1.18218 0
M  V30 17791 H 1684.97 -3.98115 -1.2204 0
M  V30 17792 H 1687.57 -3.57906 -3.97249 0
M  V30 17793 H 1687.91 -1.88665 -3.71095 0
M  V30 17794 H 1688.44 -3.08705 -2.50891 0
M  V30 17795 H 1685.18 -6.08386 -2.44021 0
M  V30 17796 H 1684.7 -4.80936 -3.58414 0
M  V30 17797 H 1686.38 -5.40321 -3.55896 0
M  V30 17798 N 1686.51 0.822941 -1.34408 0
M  V30 17799 C 1687.93 1.11606 -1.14089 0
M  V30 17800 C 1688.13 2.01418 0.0576164 0
M  V30 17801 O 1687.18 2.41622 0.733146 0
M  V30 17802 C 1688.5 1.76279 -2.43611 0
M  V30 17803 C 1690.05 1.88773 -2.49667 0
M  V30 17804 C 1690.52 2.56862 -3.79191 0
M  V30 17805 N 1692.01 2.64362 -3.80351 0
M  V30 17806 C 1692.75 3.17775 -4.77291 0
M  V30 17807 N 1692.24 3.71751 -5.84613 0
M  V30 17808 N 1694.04 3.16175 -4.64747 0
M  V30 17809 H 1686.19 0.225555 -2.11199 0
M  V30 17810 H 1688.45 0.162621 -0.933948 0
M  V30 17811 H 1688.16 1.17749 -3.31403 0
M  V30 17812 H 1688.03 2.76147 -2.56949 0
M  V30 17813 H 1690.42 2.46451 -1.62314 0
M  V30 17814 H 1690.5 0.878079 -2.40257 0
M  V30 17815 H 1690.14 1.99839 -4.66933 0
M  V30 17816 H 1690.07 3.58332 -3.85883 0
M  V30 17817 H 1692.56 2.26102 -3.02797 0
M  V30 17818 H 1692.88 4.10759 -6.54597 0
M  V30 17819 H 1691.22 3.69995 -5.88327 0
M  V30 17820 H 1694.41 2.73274 -3.80051 0
M  V30 17821 H 1694.58 3.57498 -5.40462 0
M  V30 17822 N 1687.99 1.18137 1.04314 0
M  V30 17823 C 1689.24 0.976648 1.77734 0
M  V30 17824 C 1689.57 -0.492756 1.87844 0
M  V30 17825 O 1688.84 -1.36586 1.38472 0
M  V30 17826 C 1689.13 1.62911 3.21142 0
M  V30 17827 C 1688.98 3.1712 3.1899 0
M  V30 17828 C 1690.3 1.34029 4.19195 0
M  V30 17829 H 1687.42 0.356217 0.645197 0
M  V30 17830 H 1690.06 1.45767 1.21868 0
M  V30 17831 H 1688.21 1.22009 3.68844 0
M  V30 17832 H 1689.88 3.67139 2.79296 0
M  V30 17833 H 1688.13 3.4941 2.57089 0
M  V30 17834 H 1688.8 3.57907 4.20245 0
M  V30 17835 H 1691.27 1.69463 3.80028 0
M  V30 17836 H 1690.15 1.82253 5.1776 0
M  V30 17837 H 1690.41 0.262712 4.41319 0
M  V30 17838 N 1689.47 -1.23186 0.98301 0
M  V30 17839 C 1690.71 -1.91955 0.65431 0
M  V30 17840 C 1691.05 -1.76482 -0.810419 0
M  V30 17841 O 1690.32 -1.12744 -1.5849 0
M  V30 17842 C 1690.61 -3.4449 1.04873 0
M  V30 17843 C 1690.46 -3.6906 2.57128 0
M  V30 17844 C 1691.78 -4.36065 0.594578 0
M  V30 17845 H 1688.9 -0.69711 0.239179 0
M  V30 17846 H 1691.54 -1.45257 1.22476 0
M  V30 17847 H 1689.69 -3.84394 0.563333 0
M  V30 17848 H 1691.36 -3.38622 3.13262 0
M  V30 17849 H 1689.6 -3.13681 2.99644 0
M  V30 17850 H 1690.27 -4.75846 2.79776 0
M  V30 17851 H 1692.75 -4.03622 1.01136 0
M  V30 17852 H 1691.63 -5.41489 0.898955 0
M  V30 17853 H 1691.89 -4.39206 -0.505033 0
M  V30 17854 N 1690.95 -0.754982 -1.38339 0
M  V30 17855 C 1691.89 -0.128193 -2.30444 0
M  V30 17856 C 1692.86 0.70813 -1.50249 0
M  V30 17857 O 1694.05 0.663969 -1.78875 0
M  V30 17858 C 1691.19 0.757921 -3.36674 0
M  V30 17859 C 1690.3 -0.093181 -4.31899 0
M  V30 17860 C 1689.44 0.796067 -5.25201 0
M  V30 17861 C 1688.48 -0.0585854 -6.12072 0
M  V30 17862 N 1687.61 0.7877 -6.97667 0
M  V30 17863 H 1692.45 -0.919204 -2.83469 0
M  V30 17864 H 1689.99 -0.464921 -1.3956 0
M  V30 17865 H 1691.95 1.28632 -3.96875 0
M  V30 17866 H 1690.58 1.5147 -2.85055 0
M  V30 17867 H 1689.63 -0.73922 -3.73148 0
M  V30 17868 H 1690.94 -0.753146 -4.93081 0
M  V30 17869 H 1690.1 1.39158 -5.90525 0
M  V30 17870 H 1688.83 1.48976 -4.64389 0
M  V30 17871 H 1687.84 -0.666754 -5.45742 0
M  V30 17872 H 1689.06 -0.749361 -6.74953 0
M  V30 17873 H 1687.01 1.46632 -6.39402 0
M  V30 17874 H 1686.93 0.184662 -7.55774 0
M  V30 17875 H 1688.2 1.36814 -7.674 0
M  V30 17876 N 1692.42 1.49318 -0.504168 0
M  V30 17877 C 1693.39 2.27703 0.26157 0
M  V30 17878 C 1694.39 1.3385 0.891114 0
M  V30 17879 O 1695.58 1.56981 0.755156 0
M  V30 17880 C 1692.71 3.11912 1.37564 0
M  V30 17881 H 1693.9 2.96855 -0.426292 0
M  V30 17882 H 1691.46 1.54135 -0.259236 0
M  V30 17883 H 1692.19 2.47332 2.09755 0
M  V30 17884 H 1691.98 3.8092 0.929641 0
M  V30 17885 H 1693.47 3.71106 1.91494 0
M  V30 17886 N 1693.9 0.238138 1.5579 0
M  V30 17887 C 1695.15 -0.389031 1.98728 0
M  V30 17888 C 1695.48 -1.58584 1.12612 0
M  V30 17889 O 1694.73 -1.94917 0.174879 0
M  V30 17890 C 1695.03 -0.850646 3.47129 0
M  V30 17891 C 1694.7 0.237442 4.50274 0
M  V30 17892 C 1693.36 0.536307 4.78202 0
M  V30 17893 C 1695.71 0.972476 5.12047 0
M  V30 17894 C 1693.04 1.57443 5.6518 0
M  V30 17895 C 1695.39 2.00006 6.0015 0
M  V30 17896 C 1694.06 2.30566 6.26415 0
M  V30 17897 H 1693.33 -0.142357 0.727197 0
M  V30 17898 H 1695.97 0.34413 1.88383 0
M  V30 17899 H 1694.28 -1.66286 3.54762 0
M  V30 17900 H 1695.97 -1.34604 3.77734 0
M  V30 17901 H 1692.56 -0.00564033 4.286 0
M  V30 17902 H 1696.75 0.75483 4.90526 0
M  V30 17903 H 1692 1.81664 5.83788 0
M  V30 17904 H 1696.18 2.57458 6.47061 0
M  V30 17905 H 1693.81 3.11148 6.93607 0
M  V30 17906 N 1695.38 -1.57561 -0.0350783 0
M  V30 17907 C 1696.8 -1.54746 -0.390618 0
M  V30 17908 C 1697 -0.963454 -1.76974 0
M  V30 17909 O 1696.05 -0.581878 -2.45704 0
M  V30 17910 C 1697.37 -2.9922 -0.297984 0
M  V30 17911 C 1698.91 -3.10739 -0.375506 0
M  V30 17912 C 1699.39 -4.56933 -0.312387 0
M  V30 17913 N 1700.88 -4.61709 -0.371364 0
M  V30 17914 C 1701.61 -5.72359 -0.34532 0
M  V30 17915 N 1701.11 -6.92266 -0.271921 0
M  V30 17916 N 1702.9 -5.60713 -0.394605 0
M  V30 17917 H 1695.05 -1.93876 0.867519 0
M  V30 17918 H 1697.32 -0.888974 0.329285 0
M  V30 17919 H 1697.02 -3.45651 0.649499 0
M  V30 17920 H 1696.9 -3.60987 -1.094 0
M  V30 17921 H 1699.28 -2.6426 -1.31342 0
M  V30 17922 H 1699.37 -2.51815 0.449752 0
M  V30 17923 H 1699.01 -5.04079 0.621834 0
M  V30 17924 H 1698.94 -5.13762 -1.15567 0
M  V30 17925 H 1701.43 -3.75436 -0.430848 0
M  V30 17926 H 1701.74 -7.72373 -0.256983 0
M  V30 17927 H 1700.09 -6.94592 -0.238058 0
M  V30 17928 H 1703.28 -4.65933 -0.449896 0
M  V30 17929 H 1703.45 -6.46938 -0.37084 0
M  V30 17930 N 1696.86 0.307236 -1.54576 0
M  V30 17931 C 1698.08 1.06668 -1.77867 0
M  V30 17932 C 1698.51 1.80375 -0.533536 0
M  V30 17933 O 1697.87 1.73812 0.515663 0
M  V30 17934 C 1697.91 2.02777 -2.98184 0
M  V30 17935 O 1697.02 3.10969 -2.70872 0
M  V30 17936 H 1696.36 0.306741 -0.588902 0
M  V30 17937 H 1698.89 0.346557 -2.01644 0
M  V30 17938 H 1698.9 2.45355 -3.25983 0
M  V30 17939 H 1697.57 1.48534 -3.88472 0
M  V30 17940 H 1696.15 2.7295 -2.54072 0
M  V30 17941 N 1698.34 1.46926 0.570122 0
M  V30 17942 C 1699.56 1.56722 1.35841 0
M  V30 17943 C 1699.99 0.213314 1.86887 0
M  V30 17944 O 1699.34 -0.808694 1.62265 0
M  V30 17945 C 1699.39 2.5859 2.51323 0
M  V30 17946 O 1698.5 2.12966 3.53156 0
M  V30 17947 H 1697.84 0.526929 0.404032 0
M  V30 17948 H 1700.37 1.92603 0.690308 0
M  V30 17949 H 1700.38 2.78601 2.9807 0
M  V30 17950 H 1699.05 3.56903 2.13525 0
M  V30 17951 H 1697.63 2.02999 3.12803 0
M  V30 17952 N 1699.82 -0.815801 1.34842 0
M  V30 17953 C 1700.75 -1.94193 1.29659 0
M  V30 17954 C 1701.73 -1.69221 0.172703 0
M  V30 17955 O 1702.91 -1.90716 0.366203 0
M  V30 17956 C 1700.04 -3.30777 1.0585 0
M  V30 17957 C 1699 -3.70207 2.1478 0
M  V30 17958 C 1698.32 -5.04852 1.76149 0
M  V30 17959 C 1699.62 -3.81553 3.56671 0
M  V30 17960 H 1701.32 -1.98787 2.23884 0
M  V30 17961 H 1698.86 -0.955013 1.07775 0
M  V30 17962 H 1700.81 -4.0915 1.00866 0
M  V30 17963 H 1699.54 -3.265 0.0806804 0
M  V30 17964 H 1698.2 -2.94113 2.18845 0
M  V30 17965 H 1697.85 -4.9707 0.770099 0
M  V30 17966 H 1697.55 -5.32205 2.49062 0
M  V30 17967 H 1699.07 -5.85676 1.72674 0
M  V30 17968 H 1700.48 -4.50181 3.54979 0
M  V30 17969 H 1698.88 -4.20367 4.28266 0
M  V30 17970 H 1699.95 -2.83356 3.93494 0
M  V30 17971 N 1701.29 -1.18689 -1.03686 0
M  V30 17972 C 1702.52 -1.00814 -1.80333 0
M  V30 17973 C 1702.93 0.446495 -1.83856 0
M  V30 17974 O 1702.27 1.32192 -1.27558 0
M  V30 17975 C 1702.34 -1.49133 -3.27108 0
M  V30 17976 C 1702 -2.97112 -3.47237 0
M  V30 17977 C 1703 -3.94938 -3.38113 0
M  V30 17978 C 1700.68 -3.35628 -3.7371 0
M  V30 17979 C 1702.68 -5.29274 -3.55172 0
M  V30 17980 C 1700.36 -4.70126 -3.90416 0
M  V30 17981 C 1701.36 -5.66758 -3.81148 0
M  V30 17982 O 1701.05 -6.98821 -3.97371 0
M  V30 17983 H 1700.78 -0.356077 -0.574617 0
M  V30 17984 H 1703.34 -1.57754 -1.31541 0
M  V30 17985 H 1701.57 -0.865624 -3.76887 0
M  V30 17986 H 1703.25 -1.27591 -3.85325 0
M  V30 17987 H 1704.02 -3.66527 -3.17621 0
M  V30 17988 H 1699.9 -2.6097 -3.8002 0
M  V30 17989 H 1703.44 -6.04684 -3.47854 0
M  V30 17990 H 1699.34 -4.98236 -4.10404 0
M  V30 17991 H 1700.11 -7.05779 -4.14509 0
M  V30 17992 N 1702.77 1.22662 -0.989529 0
M  V30 17993 C 1703.68 2.28162 -0.545835 0
M  V30 17994 C 1704.7 1.69251 0.403762 0
M  V30 17995 O 1705.87 1.99563 0.271428 0
M  V30 17996 C 1702.94 3.46434 0.135808 0
M  V30 17997 C 1702 4.20673 -0.85633 0
M  V30 17998 C 1701.23 5.33298 -0.207121 0
M  V30 17999 O 1701.46 5.6157 0.99975 0
M  V30 18000 O 1700.39 5.94977 -0.910288 0
M  V30 18001 H 1704.22 2.68276 -1.42344 0
M  V30 18002 H 1701.8 1.28766 -0.757609 0
M  V30 18003 H 1703.68 4.18207 0.517776 0
M  V30 18004 H 1702.36 3.08252 0.988035 0
M  V30 18005 H 1701.26 3.51186 -1.28917 0
M  V30 18006 H 1702.6 4.62726 -1.67765 0
M  V30 18007 N 1704.25 0.762308 1.37937 0
M  V30 18008 C 1705.5 0.321732 1.99523 0
M  V30 18009 C 1705.82 -1.10286 1.60816 0
M  V30 18010 O 1705.09 -1.75565 0.869117 0
M  V30 18011 H 1703.67 0.115967 0.737943 0
M  V30 18012 H 1706.33 0.978339 1.68566 0
M  V30 18013 H 1705.43 0.391818 3.09631 0
M  V30 18014 N 1705.73 -1.49049 0.51208 0
M  V30 18015 C 1706.66 -2.32163 -0.249529 0
M  V30 18016 C 1707.64 -1.40957 -0.952114 0
M  V30 18017 O 1708.82 -1.69858 -0.94137 0
M  V30 18018 C 1705.95 -3.21737 -1.30776 0
M  V30 18019 C 1704.91 -4.21825 -0.724392 0
M  V30 18020 C 1704.23 -5.00411 -1.88396 0
M  V30 18021 C 1705.53 -5.21483 0.291975 0
M  V30 18022 H 1707.23 -2.96086 0.444253 0
M  V30 18023 H 1704.77 -1.42385 0.215093 0
M  V30 18024 H 1706.73 -3.78699 -1.84837 0
M  V30 18025 H 1705.45 -2.55779 -2.03088 0
M  V30 18026 H 1704.11 -3.66024 -0.205441 0
M  V30 18027 H 1703.76 -4.30891 -2.59502 0
M  V30 18028 H 1703.46 -5.68141 -1.49964 0
M  V30 18029 H 1704.98 -5.6022 -2.42869 0
M  V30 18030 H 1706.4 -5.73074 -0.160899 0
M  V30 18031 H 1704.79 -5.97166 0.592717 0
M  V30 18032 H 1705.86 -4.69714 1.20404 0
M  V30 18033 N 1707.21 -0.246397 -1.55662 0
M  V30 18034 C 1708.12 0.664125 -2.25003 0
M  V30 18035 C 1709.13 1.19368 -1.26598 0
M  V30 18036 O 1710.31 1.23006 -1.59473 0
M  V30 18037 C 1707.37 1.8446 -2.93557 0
M  V30 18038 C 1706.43 1.35456 -4.0737 0
M  V30 18039 C 1705.67 2.47877 -4.72645 0
M  V30 18040 O 1705.89 3.66594 -4.36995 0
M  V30 18041 O 1704.82 2.17663 -5.61165 0
M  V30 18042 H 1708.65 0.103277 -3.03524 0
M  V30 18043 H 1706.23 -0.0149207 -1.49393 0
M  V30 18044 H 1708.12 2.53349 -3.36737 0
M  V30 18045 H 1706.79 2.39308 -2.17976 0
M  V30 18046 H 1705.7 0.632958 -3.68706 0
M  V30 18047 H 1707.03 0.852175 -4.84767 0
M  V30 18048 N 1708.68 1.57577 0.026722 0
M  V30 18049 C 1709.63 2.06711 1.02661 0
M  V30 18050 C 1710.6 0.956754 1.35777 0
M  V30 18051 O 1711.79 1.22747 1.46074 0
M  V30 18052 C 1708.93 2.55321 2.32175 0
M  V30 18053 C 1708.04 3.80155 2.05197 0
M  V30 18054 C 1707.17 4.17368 3.28599 0
M  V30 18055 C 1706.21 5.35114 2.97186 0
M  V30 18056 N 1705.35 5.67747 4.13046 0
M  V30 18057 H 1710.19 2.91884 0.600666 0
M  V30 18058 H 1707.73 1.44313 0.284968 0
M  V30 18059 H 1709.68 2.81572 3.07853 0
M  V30 18060 H 1708.31 1.73061 2.72488 0
M  V30 18061 H 1707.37 3.60975 1.20006 0
M  V30 18062 H 1708.68 4.65949 1.78026 0
M  V30 18063 H 1707.83 4.4476 4.12642 0
M  V30 18064 H 1706.57 3.30231 3.58886 0
M  V30 18065 H 1705.58 5.07473 2.11545 0
M  V30 18066 H 1706.8 6.23906 2.68175 0
M  V30 18067 H 1704.75 4.83569 4.4328 0
M  V30 18068 H 1704.66 6.48056 3.89307 0
M  V30 18069 H 1705.93 5.99717 4.97956 0
M  V30 18070 N 1710.16 -0.299034 1.54737 0
M  V30 18071 C 1711.57 -0.871897 1.6509 0
M  V30 18072 C 1711.92 -1.88013 0.560843 0
M  V30 18073 O 1711.05 -2.1428 -0.302194 0
M  V30 18074 C 1711.64 -1.5882 2.99269 0
M  V30 18075 C 1710.2 -2.10944 3.11736 0
M  V30 18076 C 1709.35 -0.942776 2.60782 0
M  V30 18077 H 1712.3 -0.0759883 1.58518 0
M  V30 18078 H 1712.32 -2.45387 2.90802 0
M  V30 18079 H 1711.83 -0.854144 3.78584 0
M  V30 18080 H 1709.93 -2.87391 2.37144 0
M  V30 18081 H 1710.05 -2.34262 4.17921 0
M  V30 18082 H 1708.41 -1.3289 2.17284 0
M  V30 18083 H 1709.19 -0.222646 3.42577 0
M  V30 18084 N 1711.64 -1.47227 -0.562322 0
M  V30 18085 C 1712.55 -1.61953 -1.69731 0
M  V30 18086 C 1713.57 -0.502478 -1.66587 0
M  V30 18087 O 1714.74 -0.769335 -1.86127 0
M  V30 18088 C 1711.81 -1.62539 -3.06238 0
M  V30 18089 C 1710.87 -2.85632 -3.20489 0
M  V30 18090 C 1710.1 -2.86181 -4.50485 0
M  V30 18091 O 1710.32 -1.96099 -5.35632 0
M  V30 18092 O 1709.26 -3.7798 -4.68417 0
M  V30 18093 H 1713.08 -2.5798 -1.6025 0
M  V30 18094 H 1710.67 -1.30253 -0.73174 0
M  V30 18095 H 1712.55 -1.65634 -3.87483 0
M  V30 18096 H 1711.23 -0.696779 -3.16112 0
M  V30 18097 H 1710.13 -2.88084 -2.3866 0
M  V30 18098 H 1711.47 -3.7777 -3.15517 0
M  V30 18099 N 1713.12 0.808639 -1.35273 0
M  V30 18100 C 1714.34 1.60219 -1.31699 0
M  V30 18101 C 1714.77 1.87816 0.103386 0
M  V30 18102 O 1714.13 1.46389 1.06957 0
M  V30 18103 C 1714.17 2.9116 -2.12739 0
M  V30 18104 O 1713.28 3.83891 -1.5067 0
M  V30 18105 H 1712.62 0.486742 -0.45164 0
M  V30 18106 H 1715.15 1.00378 -1.78284 0
M  V30 18107 H 1715.16 3.40602 -2.2462 0
M  V30 18108 H 1713.83 2.70399 -3.16002 0
M  V30 18109 H 1712.41 3.42437 -1.47618 0
M  V30 18110 N 1714.6 1.19237 1.03055 0
M  V30 18111 C 1716.01 0.944224 1.28672 0
M  V30 18112 C 1716.21 -0.384378 1.978 0
M  V30 18113 O 1715.27 -1.11629 2.26484 0
M  V30 18114 C 1716.58 2.11704 2.13546 0
M  V30 18115 C 1718.13 2.15647 2.2686 0
M  V30 18116 C 1718.6 3.32375 3.15105 0
M  V30 18117 N 1720.1 3.323 3.22693 0
M  V30 18118 C 1720.83 4.19265 3.91158 0
M  V30 18119 N 1720.33 5.16381 4.61868 0
M  V30 18120 N 1722.12 4.07147 3.87541 0
M  V30 18121 H 1714.27 2.0472 0.565987 0
M  V30 18122 H 1716.53 0.895073 0.312328 0
M  V30 18123 H 1716.24 3.07845 1.70072 0
M  V30 18124 H 1716.11 2.08624 3.14254 0
M  V30 18125 H 1718.5 1.20078 2.69565 0
M  V30 18126 H 1718.58 2.22781 1.25708 0
M  V30 18127 H 1718.23 4.28222 2.73108 0
M  V30 18128 H 1718.16 3.22478 4.16312 0
M  V30 18129 H 1720.65 2.62 2.72331 0
M  V30 18130 H 1720.96 5.7909 5.11737 0
M  V30 18131 H 1719.3 5.20331 4.60739 0
M  V30 18132 H 1722.5 3.30555 3.31438 0
M  V30 18133 H 1722.67 4.75135 4.40625 0
M  V30 18134 N 1716.07 -1.22136 0.99602 0
M  V30 18135 C 1717.3 -1.94978 0.692172 0
M  V30 18136 C 1717.72 -1.73536 -0.743696 0
M  V30 18137 O 1717.07 -1.03637 -1.50219 0
M  V30 18138 C 1717.13 -3.47609 0.992498 0
M  V30 18139 O 1716.85 -3.68334 2.37195 0
M  V30 18140 C 1718.35 -4.37629 0.70679 0
M  V30 18141 H 1715.57 -0.620327 0.255802 0
M  V30 18142 H 1718.11 -1.55202 1.33164 0
M  V30 18143 H 1716.27 -3.85342 0.398785 0
M  V30 18144 H 1716.68 -4.62506 2.47362 0
M  V30 18145 H 1718.15 -5.43461 0.967173 0
M  V30 18146 H 1718.63 -4.37729 -0.359208 0
M  V30 18147 H 1719.24 -4.05528 1.2817 0
M  V30 18148 N 1717.55 -0.769612 -1.37531 0
M  V30 18149 C 1718.78 -0.343069 -2.04543 0
M  V30 18150 C 1719.2 1.02583 -1.57665 0
M  V30 18151 O 1718.56 1.65692 -0.735915 0
M  V30 18152 C 1718.61 -0.392914 -3.58453 0
M  V30 18153 O 1717.71 0.607401 -4.07902 0
M  V30 18154 H 1717.05 -0.148905 -0.647088 0
M  V30 18155 H 1719.58 -1.04521 -1.75888 0
M  V30 18156 H 1719.59 -0.24945 -4.07237 0
M  V30 18157 H 1718.27 -1.39159 -3.91928 0
M  V30 18158 H 1716.85 0.427231 -3.70445 0
M  V30 18159 N 1719.03 1.48775 -0.519977 0
M  V30 18160 C 1720.28 2.0169 0.0196973 0
M  V30 18161 C 1720.59 1.40319 1.36272 0
M  V30 18162 O 1721.8 1.84673 1.99018 0
M  V30 18163 C 1720.25 3.59798 0.085525 0
M  V30 18164 C 1719.86 4.3015 -1.25199 0
M  V30 18165 C 1721.61 4.20594 0.574557 0
M  V30 18166 C 1719.51 5.80165 -1.14729 0
M  V30 18167 H 1718.44 0.753918 0.011133 0
M  V30 18168 H 1721.09 1.71133 -0.662254 0
M  V30 18169 H 1719.48 3.87154 0.832339 0
M  V30 18170 H 1720.65 4.14477 -2.01359 0
M  V30 18171 H 1718.97 3.81183 -1.67596 0
M  V30 18172 H 1721.56 5.30477 0.670698 0
M  V30 18173 H 1721.91 3.85235 1.57797 0
M  V30 18174 H 1722.44 3.9763 -0.116277 0
M  V30 18175 H 1719.18 6.20081 -2.12555 0
M  V30 18176 H 1718.7 5.98279 -0.426902 0
M  V30 18177 H 1720.38 6.41605 -0.83382 0
M  V30 18178 N 1720.51 0.254649 1.55529 0
M  V30 18179 C 1721.46 -0.655705 2.18368 0
M  V30 18180 C 1722.44 -1.13353 1.14192 0
M  V30 18181 O 1723.63 -1.08201 1.40077 0
M  V30 18182 C 1720.76 -1.84883 2.89263 0
M  V30 18183 C 1719.85 -1.38914 4.00704 0
M  V30 18184 N 1720.24 -0.6442 5.01681 0
M  V30 18185 C 1718.54 -1.67379 4.13401 0
M  V30 18186 C 1719.24 -0.405172 5.80287 0
M  V30 18187 N 1718.22 -0.971651 5.34846 0
M  V30 18188 H 1722.02 -0.0784898 2.93795 0
M  V30 18189 H 1719.53 0.0573 1.62299 0
M  V30 18190 H 1721.53 -2.51209 3.32716 0
M  V30 18191 H 1720.19 -2.43019 2.15341 0
M  V30 18192 H 1721.2 -0.293541 5.17067 0
M  V30 18193 H 1717.88 -2.26599 3.50656 0
M  V30 18194 H 1719.27 0.190059 6.71631 0
M  V30 18195 N 1721.99 -1.57589 -0.0183649 0
M  V30 18196 C 1722.93 -2.08354 -1.03398 0
M  V30 18197 C 1723.93 -0.999575 -1.36766 0
M  V30 18198 O 1725.13 -1.18438 -1.35545 0
M  V30 18199 H 1721.51 -0.665046 -0.351023 0
M  V30 18200 H 1723.48 -2.92707 -0.580111 0
M  V30 18201 C 1722.23 -2.58713 -2.32299 0
M  V30 18202 H 1721.55 -3.41744 -2.07487 0
M  V30 18203 H 1722.99 -2.97932 -3.01683 0
M  V30 18204 C 1721.45 -1.49307 -3.02008 0
M  V30 18205 O 1721.98 -0.865426 -3.92267 0
M  V30 18206 N 1720.19 -1.225 -2.63519 0
M  V30 18207 H 1719.73 -1.73724 -1.90205 0
M  V30 18208 H 1719.69 -0.495132 -3.10477 0
M  V30 18209 N 1723.46 0.290824 -1.54893 0
M  V30 18210 C 1724.71 1.02475 -1.74657 0
M  V30 18211 C 1725.04 1.86915 -0.537885 0
M  V30 18212 O 1724.29 1.89722 0.479998 0
M  V30 18213 C 1724.59 1.95145 -2.99422 0
M  V30 18214 C 1724.26 1.26599 -4.32763 0
M  V30 18215 C 1722.92 1.07639 -4.69007 0
M  V30 18216 C 1725.27 0.776794 -5.15379 0
M  V30 18217 C 1722.6 0.38458 -5.85438 0
M  V30 18218 C 1724.95 0.0986614 -6.32523 0
M  V30 18219 C 1723.62 -0.102812 -6.67421 0
M  V30 18220 H 1722.89 0.374982 -0.639116 0
M  V30 18221 H 1725.53 0.298659 -1.89157 0
M  V30 18222 H 1723.84 2.74316 -2.79746 0
M  V30 18223 H 1725.54 2.5202 -3.11908 0
M  V30 18224 H 1722.13 1.42365 -4.04265 0
M  V30 18225 H 1726.31 0.91096 -4.87868 0
M  V30 18226 H 1721.57 0.217593 -6.11013 0
M  V30 18227 H 1725.74 -0.28825 -6.95803 0
M  V30 18228 H 1723.37 -0.640872 -7.57494 0
M  V30 18229 N 1724.94 1.47523 0.554506 0
M  V30 18230 C 1725.88 1.54756 1.67707 0
M  V30 18231 C 1726.85 0.39953 1.57615 0
M  V30 18232 O 1728.04 0.60771 1.78435 0
M  V30 18233 C 1725.16 1.45263 3.05968 0
M  V30 18234 C 1724.21 2.64602 3.34497 0
M  V30 18235 S 1725.04 4.26775 3.23455 0
M  V30 18236 C 1726.2 4.19839 4.64204 0
M  V30 18237 H 1726.43 2.49728 1.61318 0
M  V30 18238 H 1723.97 1.35754 0.735541 0
M  V30 18239 H 1725.92 1.40473 3.85717 0
M  V30 18240 H 1724.58 0.516709 3.09821 0
M  V30 18241 H 1723.78 2.5403 4.35298 0
M  V30 18242 H 1723.38 2.66528 2.62372 0
M  V30 18243 H 1725.67 3.8826 5.55212 0
M  V30 18244 H 1726.61 5.20736 4.79833 0
M  V30 18245 H 1727.02 3.5066 4.42378 0
M  V30 18246 N 1726.42 -0.801453 1.357 0
M  V30 18247 C 1727.38 -1.89514 1.28907 0
M  V30 18248 C 1728.38 -1.59559 0.19938 0
M  V30 18249 O 1729.57 -1.68196 0.453408 0
M  V30 18250 C 1726.71 -3.26044 0.995411 0
M  V30 18251 H 1727.9 -1.96956 2.2616 0
M  V30 18252 H 1725.45 -0.997899 1.20298 0
M  V30 18253 H 1726.19 -3.24289 0.0269561 0
M  V30 18254 H 1725.97 -3.49172 1.78385 0
M  V30 18255 H 1727.46 -4.06092 0.97362 0
M  V30 18256 N 1727.9 -1.19782 -1.02421 0
M  V30 18257 C 1728.85 -0.907509 -2.09161 0
M  V30 18258 C 1729.83 0.129596 -1.60377 0
M  V30 18259 O 1731.02 -0.0767382 -1.76834 0
M  V30 18260 C 1728.15 -0.453095 -3.40297 0
M  V30 18261 C 1727.24 -1.5232 -3.95802 0
M  V30 18262 N 1727.63 -2.74379 -4.24912 0
M  V30 18263 C 1725.93 -1.38758 -4.23866 0
M  V30 18264 C 1726.63 -3.43348 -4.6956 0
M  V30 18265 N 1725.61 -2.70749 -4.71376 0
M  V30 18266 H 1729.41 -1.83512 -2.29566 0
M  V30 18267 H 1726.92 -1.09068 -1.20324 0
M  V30 18268 H 1728.92 -0.226551 -4.16284 0
M  V30 18269 H 1727.58 0.467983 -3.2131 0
M  V30 18270 H 1728.59 -3.11099 -4.1405 0
M  V30 18271 H 1725.27 -0.530327 -4.14118 0
M  V30 18272 H 1726.66 -4.47753 -5.00966 0
M  V30 18273 N 1729.38 1.21606 -1.00248 0
M  V30 18274 C 1730.79 1.72365 -0.717446 0
M  V30 18275 C 1731.14 1.80668 0.765078 0
M  V30 18276 O 1730.26 1.45951 1.59772 0
M  V30 18277 C 1730.86 3.13046 -1.29567 0
M  V30 18278 C 1729.42 3.61172 -1.05981 0
M  V30 18279 C 1728.57 2.38775 -1.41003 0
M  V30 18280 H 1731.52 1.06818 -1.17369 0
M  V30 18281 H 1731.54 3.74392 -0.679054 0
M  V30 18282 H 1731.05 3.0697 -2.37467 0
M  V30 18283 H 1729.15 3.726 0.00214307 0
M  V30 18284 H 1729.26 4.46778 -1.72993 0
M  V30 18285 H 1727.63 2.40839 -0.82877 0
M  V30 18286 H 1728.41 2.35352 -2.49928 0
M  V30 18287 N 1730.86 0.776895 1.37121 0
M  V30 18288 C 1731.77 0.167552 2.34001 0
M  V30 18289 C 1732.78 -0.673609 1.60432 0
M  V30 18290 O 1733.96 -0.592327 1.92493 0
M  V30 18291 C 1731.02 -0.697343 3.39615 0
M  V30 18292 C 1730.08 0.160869 4.28998 0
M  V30 18293 C 1729.32 -0.662841 5.29568 0
M  V30 18294 O 1729.54 -1.89962 5.37839 0
M  V30 18295 O 1728.47 -0.0693304 6.0186 0
M  V30 18296 H 1732.3 0.968247 2.87852 0
M  V30 18297 H 1729.88 0.538137 1.39372 0
M  V30 18298 H 1731.77 -1.19094 4.04221 0
M  V30 18299 H 1730.44 -1.47614 2.88083 0
M  V30 18300 H 1729.35 0.700941 3.67475 0
M  V30 18301 H 1730.68 0.902875 4.83848 0
M  V30 18302 N 1732.33 -1.48497 0.527859 0
M  V30 18303 C 1733.58 -2.02499 -0.00701157 0
M  V30 18304 C 1733.91 -1.40516 -1.34483 0
M  V30 18305 O 1733.16 -0.539575 -1.88115 0
M  V30 18306 C 1733.46 -3.56945 -0.180276 0
M  V30 18307 C 1733.13 -4.37703 1.08291 0
M  V30 18308 C 1731.79 -4.59489 1.42911 0
M  V30 18309 C 1734.14 -4.84495 1.92131 0
M  V30 18310 C 1731.47 -5.25313 2.61272 0
M  V30 18311 C 1733.82 -5.51623 3.09669 0
M  V30 18312 C 1732.49 -5.71648 3.44637 0
M  V30 18313 H 1731.76 -0.740996 -0.00256572 0
M  V30 18314 H 1734.4 -1.78503 0.693453 0
M  V30 18315 H 1732.71 -3.79768 -0.963491 0
M  V30 18316 H 1734.41 -3.96348 -0.609009 0
M  V30 18317 H 1731 -4.21005 0.803293 0
M  V30 18318 H 1735.18 -4.67468 1.66696 0
M  V30 18319 H 1730.44 -5.39015 2.8857 0
M  V30 18320 H 1734.61 -5.86849 3.74942 0
M  V30 18321 H 1732.24 -6.22426 4.36451 0
M  V30 18322 N 1733.81 -0.262893 -1.55392 0
M  V30 18323 C 1735.23 0.09157 -1.59337 0
M  V30 18324 C 1735.43 1.55612 -1.28012 0
M  V30 18325 O 1734.48 2.30308 -1.0351 0
M  V30 18326 C 1735.8 -0.272043 -2.99467 0
M  V30 18327 C 1737.34 -0.217653 -3.12242 0
M  V30 18328 C 1737.82 -0.555528 -4.54618 0
M  V30 18329 N 1739.31 -0.506623 -4.60421 0
M  V30 18330 C 1740.05 -0.741013 -5.68592 0
M  V30 18331 N 1739.54 -1.03937 -6.84959 0
M  V30 18332 N 1741.33 -0.670636 -5.58085 0
M  V30 18333 H 1733.49 -1.2178 -1.74021 0
M  V30 18334 H 1735.75 -0.491131 -0.81086 0
M  V30 18335 H 1735.45 -1.29012 -3.27183 0
M  V30 18336 H 1735.33 0.393105 -3.75146 0
M  V30 18337 H 1737.72 0.791123 -2.84298 0
M  V30 18338 H 1737.8 -0.916884 -2.38803 0
M  V30 18339 H 1737.44 -1.56193 -4.83287 0
M  V30 18340 H 1737.37 0.165358 -5.2634 0
M  V30 18341 H 1739.86 -0.285397 -3.76821 0
M  V30 18342 H 1740.17 -1.20522 -7.63344 0
M  V30 18343 H 1738.52 -1.07702 -6.86604 0
M  V30 18344 H 1741.71 -0.437473 -4.66051 0
M  V30 18345 H 1741.88 -0.856692 -6.42312 0
M  V30 18346 N 1735.29 1.57597 0.0100073 0
M  V30 18347 C 1736.54 1.89308 0.696075 0
M  V30 18348 C 1736.85 0.863884 1.75489 0
M  V30 18349 O 1738.06 1.07087 2.49489 0
M  V30 18350 C 1736.51 3.36017 1.2892 0
M  V30 18351 C 1736.12 4.47211 0.265731 0
M  V30 18352 C 1737.87 3.76852 1.95404 0
M  V30 18353 C 1735.77 5.84991 0.868277 0
M  V30 18354 H 1734.7 0.706368 0.263744 0
M  V30 18355 H 1737.35 1.83435 -0.0488972 0
M  V30 18356 H 1735.74 3.36696 2.08451 0
M  V30 18357 H 1736.91 4.58033 -0.504256 0
M  V30 18358 H 1735.22 4.15332 -0.298096 0
M  V30 18359 H 1737.82 4.77121 2.41371 0
M  V30 18360 H 1738.16 3.09841 2.78036 0
M  V30 18361 H 1738.7 3.7843 1.22621 0
M  V30 18362 H 1735.44 6.5545 0.0809513 0
M  V30 18363 H 1734.96 5.77853 1.60766 0
M  V30 18364 H 1736.64 6.32331 1.36993 0
M  V30 18365 N 1736.77 -0.282606 1.55045 0
M  V30 18366 C 1737.68 -1.37129 1.90349 0
M  V30 18367 C 1738.69 -1.54537 0.799639 0
M  V30 18368 O 1739.87 -1.68849 1.09782 0
M  V30 18369 C 1736.93 -2.71211 2.15975 0
M  V30 18370 C 1736 -2.62632 3.39592 0
M  V30 18371 C 1735.23 -3.90319 3.63987 0
M  V30 18372 O 1735.45 -4.90551 2.9106 0
M  V30 18373 O 1734.39 -3.91102 4.57518 0
M  V30 18374 H 1738.21 -1.10189 2.83006 0
M  V30 18375 H 1735.8 -0.480293 1.41469 0
M  V30 18376 H 1737.68 -3.50509 2.33926 0
M  V30 18377 H 1736.35 -2.97958 1.26503 0
M  V30 18378 H 1735.26 -1.81743 3.26987 0
M  V30 18379 H 1736.59 -2.40836 4.29254 0
M  V30 18380 N 1738.25 -1.47815 -0.546675 0
M  V30 18381 C 1739.52 -1.45464 -1.30765 0
M  V30 18382 C 1739.9 -0.157249 -2.10514 0
M  V30 18383 O 1739.25 0.861203 -2.1165 0
M  V30 18384 C 1739.46 -2.70661 -2.20326 0
M  V30 18385 C 1740.81 -3.18309 -2.81007 0
M  V30 18386 O 1741.83 -2.71462 -2.30623 0
M  V30 18387 O 1740.69 -3.9978 -3.7261 0
M  V30 18388 H 1737.79 -0.580175 -0.589343 0
M  V30 18389 H 1740.33 -1.60029 -0.564707 0
M  V30 18390 H 1739.1 -3.56612 -1.61069 0
M  V30 18391 H 1738.73 -2.58734 -3.01898 0
M  V30 18392 N 1739.72 0.794246 -1.36123 0
M  V30 18393 C 1740.95 1.58813 -1.33391 0
M  V30 18394 C 1741.37 1.87915 0.0834599 0
M  V30 18395 O 1740.73 1.47516 1.05398 0
M  V30 18396 C 1740.78 2.88887 -2.15816 0
M  V30 18397 O 1739.88 3.82271 -1.54734 0
M  V30 18398 H 1739.22 0.481924 -0.456777 0
M  V30 18399 H 1741.75 0.984818 -1.79339 0
M  V30 18400 H 1741.76 3.38201 -2.2822 0
M  V30 18401 H 1740.44 2.67032 -3.18852 0
M  V30 18402 H 1739.02 3.40852 -1.51242 0
M  V30 18403 N 1741.2 1.20323 1.01785 0
M  V30 18404 C 1742.13 0.908716 2.10416 0
M  V30 18405 C 1743.15 -0.103029 1.62474 0
M  V30 18406 O 1744.34 0.127825 1.78042 0
M  V30 18407 C 1741.44 0.340601 3.37184 0
M  V30 18408 C 1740.61 1.40358 4.14268 0
M  V30 18409 C 1739.67 0.847016 5.19338 0
M  V30 18410 O 1738.69 1.5274 5.48324 0
M  V30 18411 N 1739.9 -0.344198 5.79479 0
M  V30 18412 H 1742.66 1.84383 2.36269 0
M  V30 18413 H 1740.22 1.10673 1.18165 0
M  V30 18414 H 1742.21 -0.0458443 4.04674 0
M  V30 18415 H 1740.78 -0.499042 3.08591 0
M  V30 18416 H 1740 1.96442 3.41766 0
M  V30 18417 H 1741.29 2.11952 4.62551 0
M  V30 18418 H 1740.69 -0.914263 5.58263 0
M  V30 18419 H 1739.25 -0.672296 6.48324 0
M  V30 18420 N 1742.68 -1.21073 1.00892 0
M  V30 18421 C 1744.09 -1.71982 0.726576 0
M  V30 18422 C 1744.44 -1.81071 -0.755486 0
M  V30 18423 O 1743.57 -1.46797 -1.58996 0
M  V30 18424 C 1744.16 -3.12354 1.31226 0
M  V30 18425 C 1742.72 -3.60605 1.07895 0
M  V30 18426 C 1741.87 -2.38024 1.42267 0
M  V30 18427 H 1744.82 -1.06195 1.17934 0
M  V30 18428 H 1744.84 -3.74026 0.6989 0
M  V30 18429 H 1744.35 -3.05707 2.39092 0
M  V30 18430 H 1742.45 -3.72596 0.0176168 0
M  V30 18431 H 1742.57 -4.45854 1.7536 0
M  V30 18432 H 1740.93 -2.40396 0.841531 0
M  V30 18433 H 1741.71 -2.34024 2.51173 0
M  V30 18434 N 1744.16 -0.784156 -1.36707 0
M  V30 18435 C 1745.11 -0.152155 -2.27492 0
M  V30 18436 C 1746.09 0.660807 -1.46704 0
M  V30 18437 O 1747.28 0.521744 -1.69136 0
M  V30 18438 C 1744.41 0.716367 -3.35743 0
M  V30 18439 C 1743.5 -0.1051 -4.2397 0
M  V30 18440 N 1743.89 -1.15697 -4.9239 0
M  V30 18441 C 1742.19 0.116908 -4.45847 0
M  V30 18442 C 1742.89 -1.65661 -5.57612 0
M  V30 18443 N 1741.87 -0.966703 -5.34935 0
M  V30 18444 H 1745.67 -0.957322 -2.77871 0
M  V30 18445 H 1743.18 -0.623106 -1.4997 0
M  V30 18446 H 1745.18 1.185 -3.99704 0
M  V30 18447 H 1743.84 1.52014 -2.86918 0
M  V30 18448 H 1744.85 -1.53933 -4.94495 0
M  V30 18449 H 1741.53 0.891605 -4.07868 0
M  V30 18450 H 1742.92 -2.53449 -6.22265 0
M  V30 18451 N 1745.64 1.48215 -0.535727 0
M  V30 18452 C 1746.89 2.017 -0.0016958 0
M  V30 18453 C 1747.2 1.41756 1.34776 0
M  V30 18454 O 1748.4 1.86774 1.97048 0
M  V30 18455 C 1746.86 3.59869 0.0473588 0
M  V30 18456 C 1746.47 4.28798 -1.29754 0
M  V30 18457 C 1748.21 4.21179 0.529915 0
M  V30 18458 C 1746.12 5.78915 -1.20876 0
M  V30 18459 H 1745.05 0.753993 0.00313606 0
M  V30 18460 H 1747.7 1.70421 -0.680368 0
M  V30 18461 H 1746.08 3.88015 0.791229 0
M  V30 18462 H 1747.26 4.12318 -2.05743 0
M  V30 18463 H 1745.57 3.79384 -1.7163 0
M  V30 18464 H 1748.17 5.31158 0.614396 0
M  V30 18465 H 1748.51 3.86887 1.53702 0
M  V30 18466 H 1749.04 3.97484 -0.158445 0
M  V30 18467 H 1745.78 6.17792 -2.1912 0
M  V30 18468 H 1745.3 5.97792 -0.490333 0
M  V30 18469 H 1746.98 6.40684 -0.901824 0
M  V30 18470 N 1747.11 0.27113 1.5525 0
M  V30 18471 C 1748.53 -0.2274 1.8531 0
M  V30 18472 C 1748.88 -1.55752 1.19314 0
M  V30 18473 O 1748 -2.11008 0.480046 0
M  V30 18474 C 1748.6 -0.419382 3.36194 0
M  V30 18475 C 1747.16 -0.862149 3.66393 0
M  V30 18476 C 1746.3 0.0468534 2.7726 0
M  V30 18477 H 1749.25 0.493032 1.50847 0
M  V30 18478 H 1749.27 -1.25852 3.59084 0
M  V30 18479 H 1748.79 0.548856 3.84199 0
M  V30 18480 H 1746.89 -1.842 3.23884 0
M  V30 18481 H 1747 -0.702231 4.73926 0
M  V30 18482 H 1745.36 -0.468769 2.50349 0
M  V30 18483 H 1746.15 1.0109 3.28079 0
M  V30 18484 N 1748.59 -1.576 -0.00164943 0
M  V30 18485 C 1749.52 -2.11354 -0.992554 0
M  V30 18486 C 1750.5 -1.0223 -1.35952 0
M  V30 18487 O 1751.69 -1.29904 -1.44356 0
M  V30 18488 C 1748.82 -2.61549 -2.28494 0
M  V30 18489 C 1747.77 -3.75185 -2.05962 0
M  V30 18490 C 1747.1 -4.11688 -3.412 0
M  V30 18491 C 1748.4 -5.02526 -1.42355 0
M  V30 18492 H 1750.09 -2.94398 -0.544986 0
M  V30 18493 H 1747.64 -1.4162 -0.260702 0
M  V30 18494 H 1749.59 -2.97782 -2.98168 0
M  V30 18495 H 1748.32 -1.75625 -2.75361 0
M  V30 18496 H 1746.97 -3.39343 -1.38714 0
M  V30 18497 H 1746.62 -3.22789 -3.85767 0
M  V30 18498 H 1746.32 -4.88246 -3.2694 0
M  V30 18499 H 1747.85 -4.50478 -4.12192 0
M  V30 18500 H 1749.26 -5.3654 -2.01984 0
M  V30 18501 H 1747.66 -5.83878 -1.38589 0
M  V30 18502 H 1748.73 -4.83308 -0.392565 0
M  V30 18503 N 1750.07 0.274379 -1.55193 0
M  V30 18504 C 1751.32 1.00394 -1.7494 0
M  V30 18505 C 1751.63 1.87499 -0.557084 0
M  V30 18506 O 1752.84 2.63923 -0.636936 0
M  V30 18507 C 1751.29 1.83489 -3.09612 0
M  V30 18508 C 1750.9 1.01257 -4.36407 0
M  V30 18509 C 1752.65 2.55883 -3.38709 0
M  V30 18510 C 1750.55 1.83782 -5.62119 0
M  V30 18511 H 1749.48 0.378561 -0.65208 0
M  V30 18512 H 1752.13 0.259678 -1.81653 0
M  V30 18513 H 1750.52 2.62005 -2.96933 0
M  V30 18514 H 1751.69 0.27167 -4.59998 0
M  V30 18515 H 1750.01 0.403235 -4.14443 0
M  V30 18516 H 1752.6 3.18028 -4.2984 0
M  V30 18517 H 1752.95 3.26096 -2.58779 0
M  V30 18518 H 1753.48 1.84398 -3.5248 0
M  V30 18519 H 1750.22 1.17992 -6.44793 0
M  V30 18520 H 1749.74 2.55473 -5.42673 0
M  V30 18521 H 1751.42 2.41181 -6.00367 0
M  V30 18522 N 1751.55 1.48103 0.538828 0
M  V30 18523 C 1752.83 1.46155 1.29992 0
M  V30 18524 C 1753.21 0.16841 2.10427 0
M  V30 18525 O 1752.55 -0.849967 2.12103 0
M  V30 18526 C 1752.76 2.71826 2.18888 0
M  V30 18527 C 1754.11 3.19794 2.79315 0
M  V30 18528 O 1755.14 2.72681 2.2918 0
M  V30 18529 O 1753.99 4.0175 3.70485 0
M  V30 18530 H 1751.09 0.583293 0.586258 0
M  V30 18531 H 1753.63 1.60326 0.556212 0
M  V30 18532 H 1752.41 3.57462 1.59176 0
M  V30 18533 H 1752.03 2.60332 3.00521 0
M  V30 18534 N 1753.03 -0.787016 1.36542 0
M  V30 18535 C 1754.3 -1.53325 1.21452 0
M  V30 18536 C 1754.68 -2.10166 -0.198313 0
M  V30 18537 O 1754.03 -1.94192 -1.20422 0
M  V30 18538 C 1754.24 -2.62629 2.29841 0
M  V30 18539 C 1755.59 -3.30446 2.66628 0
M  V30 18540 O 1756.61 -2.72914 2.28903 0
M  V30 18541 O 1755.47 -4.34424 3.31569 0
M  V30 18542 H 1752.57 -0.678361 0.473028 0
M  V30 18543 H 1755.11 -0.825292 1.4828 0
M  V30 18544 H 1753.88 -2.18639 3.24519 0
M  V30 18545 H 1753.51 -3.41042 2.04393 0
M  V30 18546 N 1754.5 -1.20861 -1.01145 0
M  V30 18547 C 1755.73 -1.04769 -1.78413 0
M  V30 18548 C 1756.15 0.402846 -1.84452 0
M  V30 18549 O 1755.5 1.27962 -1.30123 0
M  V30 18550 C 1755.56 -1.63065 -3.22633 0
M  V30 18551 O 1755.28 -3.02443 -3.16954 0
M  V30 18552 C 1756.78 -1.51996 -4.16428 0
M  V30 18553 H 1754 -0.368271 -0.560908 0
M  V30 18554 H 1756.54 -1.6006 -1.27283 0
M  V30 18555 H 1754.7 -1.11882 -3.70892 0
M  V30 18556 H 1755.11 -3.30199 -4.07515 0
M  V30 18557 H 1756.58 -1.97539 -5.15444 0
M  V30 18558 H 1757.06 -0.473305 -4.36642 0
M  V30 18559 H 1757.67 -2.02396 -3.74054 0
M  V30 18560 N 1755.98 1.20536 -1.01532 0
M  V30 18561 C 1757.26 1.85545 -0.619063 0
M  V30 18562 C 1757.64 1.90816 0.902916 0
M  V30 18563 O 1756.99 1.41506 1.79411 0
M  V30 18564 C 1757.2 3.25252 -1.26539 0
M  V30 18565 C 1758.55 4.01547 -1.38003 0
M  V30 18566 O 1759.57 3.34601 -1.22151 0
M  V30 18567 O 1758.43 5.21436 -1.63605 0
M  V30 18568 H 1755.52 0.798985 -0.21343 0
M  V30 18569 H 1758.07 1.28136 -1.11262 0
M  V30 18570 H 1756.84 3.16174 -2.30542 0
M  V30 18571 H 1756.46 3.90292 -0.758833 0
M  V30 18572 N 1757.46 0.791395 1.36289 0
M  V30 18573 C 1758.39 0.205419 2.32595 0
M  V30 18574 C 1759.37 -0.660696 1.56744 0
M  V30 18575 O 1760.56 -0.594111 1.84889 0
M  V30 18576 C 1757.69 -0.659018 3.4099 0
M  V30 18577 C 1756.64 0.107364 4.27865 0
M  V30 18578 C 1755.97 -0.877795 5.27446 0
M  V30 18579 C 1757.27 1.29769 5.05922 0
M  V30 18580 H 1758.96 1.00999 2.8185 0
M  V30 18581 H 1756.51 0.487122 1.35511 0
M  V30 18582 H 1758.46 -1.07891 4.07354 0
M  V30 18583 H 1757.18 -1.49632 2.90307 0
M  V30 18584 H 1755.84 0.508253 3.6306 0
M  V30 18585 H 1755.49 -1.71018 4.73035 0
M  V30 18586 H 1755.19 -0.369429 5.86438 0
M  V30 18587 H 1756.71 -1.29621 5.96683 0
M  V30 18588 H 1758.13 0.953463 5.65316 0
M  V30 18589 H 1756.53 1.73949 5.74336 0
M  V30 18590 H 1757.6 2.09205 4.37449 0
M  V30 18591 N 1758.94 -1.47929 0.54358 0
M  V30 18592 C 1759.85 -2.33611 -0.215191 0
M  V30 18593 C 1760.87 -1.47343 -0.925526 0
M  V30 18594 O 1762.04 -1.80299 -0.897459 0
M  V30 18595 C 1759.11 -3.23755 -1.24031 0
M  V30 18596 C 1758.17 -4.25904 -0.538874 0
M  V30 18597 C 1757.4 -5.11741 -1.51516 0
M  V30 18598 O 1757.62 -4.9979 -2.74893 0
M  V30 18599 O 1756.56 -5.92722 -1.0471 0
M  V30 18600 H 1760.38 -2.99765 0.487279 0
M  V30 18601 H 1757.97 -1.46267 0.30434 0
M  V30 18602 H 1759.85 -3.79475 -1.8324 0
M  V30 18603 H 1758.53 -2.60245 -1.92495 0
M  V30 18604 H 1757.43 -3.73982 0.0940539 0
M  V30 18605 H 1758.77 -4.9209 0.104063 0
M  V30 18606 N 1760.42 -0.27936 -1.55104 0
M  V30 18607 C 1761.33 0.616249 -2.26361 0
M  V30 18608 C 1762.34 1.16656 -1.29102 0
M  V30 18609 O 1763.52 1.19596 -1.62046 0
M  V30 18610 C 1760.58 1.78191 -2.97403 0
M  V30 18611 C 1759.65 1.26785 -4.10151 0
M  V30 18612 C 1758.88 2.37795 -4.77796 0
M  V30 18613 O 1759.1 3.57242 -4.44673 0
M  V30 18614 O 1758.04 2.05711 -5.65656 0
M  V30 18615 H 1761.86 0.0388715 -3.03675 0
M  V30 18616 H 1759.45 -0.0466058 -1.49327 0
M  V30 18617 H 1761.33 2.4615 -3.42036 0
M  V30 18618 H 1760 2.3463 -2.23003 0
M  V30 18619 H 1758.91 0.554608 -3.69966 0
M  V30 18620 H 1760.24 0.749157 -4.86465 0
M  V30 18621 N 1761.9 1.57599 -0.0067085 0
M  V30 18622 C 1763.17 1.82097 0.714141 0
M  V30 18623 C 1763.55 0.885868 1.91613 0
M  V30 18624 O 1762.9 -0.0638506 2.28411 0
M  V30 18625 C 1763.11 3.30759 1.11354 0
M  V30 18626 C 1764.46 3.96668 1.51459 0
M  V30 18627 O 1765.48 3.35121 1.20715 0
M  V30 18628 O 1764.34 5.051 2.08654 0
M  V30 18629 H 1761.44 0.750071 0.348314 0
M  V30 18630 H 1763.98 1.69669 -0.0326766 0
M  V30 18631 H 1762.75 3.90455 0.257068 0
M  V30 18632 H 1762.38 3.48211 1.91924 0
M  V30 18633 N 1763.37 -0.266145 1.55336 0
M  V30 18634 C 1764.34 -1.31242 1.87904 0
M  V30 18635 C 1765.34 -1.42022 0.754083 0
M  V30 18636 O 1766.53 -1.41054 1.02222 0
M  V30 18637 C 1763.66 -2.69285 2.09041 0
M  V30 18638 H 1764.85 -1.03592 2.81441 0
M  V30 18639 H 1762.4 -0.504537 1.47933 0
M  V30 18640 H 1763.14 -3.02106 1.17909 0
M  V30 18641 H 1762.92 -2.62846 2.90954 0
M  V30 18642 H 1764.41 -3.4487 2.35488 0
M  V30 18643 N 1764.85 -1.48386 -0.530967 0
M  V30 18644 C 1765.81 -1.62355 -1.61782 0
M  V30 18645 C 1766.81 -0.496909 -1.5293 0
M  V30 18646 O 1768 -0.762672 -1.56617 0
M  V30 18647 C 1765.14 -1.59282 -3.014 0
M  V30 18648 H 1766.33 -2.59265 -1.50737 0
M  V30 18649 H 1763.88 -1.36969 -0.752948 0
M  V30 18650 H 1764.62 -0.638453 -3.17953 0
M  V30 18651 H 1764.4 -2.41073 -3.09235 0
M  V30 18652 H 1765.89 -1.72248 -3.80421 0
M  V30 18653 N 1766.33 0.779763 -1.36958 0
M  V30 18654 C 1767.26 1.90687 -1.34762 0
M  V30 18655 C 1768.24 1.68704 -0.217508 0
M  V30 18656 O 1769.43 1.89678 -0.416639 0
M  V30 18657 C 1766.56 3.27854 -1.14582 0
M  V30 18658 C 1765.51 3.64383 -2.2452 0
M  V30 18659 C 1764.84 5.00004 -1.89473 0
M  V30 18660 C 1766.14 3.71963 -3.66662 0
M  V30 18661 H 1767.83 1.92781 -2.29076 0
M  V30 18662 H 1765.38 0.926102 -1.10269 0
M  V30 18663 H 1767.33 4.06332 -1.11678 0
M  V30 18664 H 1766.05 3.26172 -0.167218 0
M  V30 18665 H 1764.71 2.88207 -2.26566 0
M  V30 18666 H 1764.36 4.94853 -0.901617 0
M  V30 18667 H 1764.06 5.25414 -2.63085 0
M  V30 18668 H 1765.58 5.80892 -1.88141 0
M  V30 18669 H 1767 4.40611 -3.6679 0
M  V30 18670 H 1765.39 4.08864 -4.39261 0
M  V30 18671 H 1766.46 2.72824 -4.00868 0
M  V30 18672 N 1767.81 1.21396 1.00503 0
M  V30 18673 C 1768.75 0.973198 2.09279 0
M  V30 18674 C 1769.72 -0.100797 1.65794 0
M  V30 18675 O 1770.91 0.0463185 1.90744 0
M  V30 18676 C 1768.05 0.543941 3.40786 0
M  V30 18677 C 1767.16 1.68737 3.97683 0
M  V30 18678 C 1766.3 1.20728 5.17299 0
M  V30 18679 C 1765.34 2.32305 5.66305 0
M  V30 18680 N 1764.47 1.8543 6.77171 0
M  V30 18681 H 1769.31 1.90441 2.29208 0
M  V30 18682 H 1766.85 0.949082 1.12387 0
M  V30 18683 H 1768.81 0.276311 4.16284 0
M  V30 18684 H 1767.44 -0.350263 3.20894 0
M  V30 18685 H 1766.49 2.06964 3.19171 0
M  V30 18686 H 1767.8 2.5271 4.30045 0
M  V30 18687 H 1766.96 0.896312 6.00043 0
M  V30 18688 H 1765.7 0.3376 4.8653 0
M  V30 18689 H 1764.7 2.64205 4.82158 0
M  V30 18690 H 1765.93 3.19769 5.99103 0
M  V30 18691 H 1763.87 1.00806 6.48208 0
M  V30 18692 H 1763.79 2.62976 7.08788 0
M  V30 18693 H 1765.06 1.57366 7.6345 0
M  V30 18694 N 1769.29 -1.19996 1.0217 0
M  V30 18695 C 1770.22 -2.22392 0.55446 0
M  V30 18696 C 1771.23 -1.58636 -0.36586 0
M  V30 18697 O 1772.42 -1.77751 -0.163394 0
M  V30 18698 C 1769.52 -3.38235 -0.212234 0
M  V30 18699 C 1768.69 -4.31578 0.711253 0
M  V30 18700 C 1767.75 -5.26199 -0.00876314 0
M  V30 18701 O 1766.78 -5.65863 0.615435 0
M  V30 18702 N 1767.98 -5.66169 -1.28192 0
M  V30 18703 H 1770.74 -2.63107 1.43509 0
M  V30 18704 H 1768.31 -1.34589 0.899853 0
M  V30 18705 H 1770.3 -3.98542 -0.703282 0
M  V30 18706 H 1768.87 -2.96369 -0.994205 0
M  V30 18707 H 1768.09 -3.69161 1.38252 0
M  V30 18708 H 1769.38 -4.90861 1.33915 0
M  V30 18709 H 1768.77 -5.35966 -1.8099 0
M  V30 18710 H 1767.33 -6.28762 -1.7176 0
M  V30 18711 N 1770.76 -0.798611 -1.35867 0
M  V30 18712 C 1771.71 -0.191425 -2.31811 0
M  V30 18713 C 1772.71 0.65438 -1.56251 0
M  V30 18714 O 1773.91 0.548435 -1.71441 0
M  V30 18715 H 1770.29 -0.0431343 -0.750762 0
M  V30 18716 H 1772.26 -1.01589 -2.80575 0
M  V30 18717 C 1771.01 0.651912 -3.41534 0
M  V30 18718 H 1770.33 0.0104309 -3.99799 0
M  V30 18719 H 1771.77 1.04328 -4.10964 0
M  V30 18720 C 1770.23 1.81407 -2.83889 0
M  V30 18721 O 1770.76 2.91115 -2.76794 0
M  V30 18722 N 1768.96 1.62308 -2.41049 0
M  V30 18723 H 1768.51 0.730709 -2.47019 0
M  V30 18724 H 1768.47 2.40226 -2.02827 0
M  V30 18725 N 1772.24 1.47639 -0.551417 0
M  V30 18726 C 1773.47 2.07381 -0.0278888 0
M  V30 18727 C 1773.89 1.40223 1.25375 0
M  V30 18728 O 1773.25 0.475268 1.7496 0
M  V30 18729 C 1773.3 3.60258 0.157001 0
M  V30 18730 O 1772.4 3.93913 1.2209 0
M  V30 18731 H 1771.74 0.66221 -0.0487252 0
M  V30 18732 H 1774.27 1.89742 -0.765449 0
M  V30 18733 H 1774.28 4.06291 0.373013 0
M  V30 18734 H 1772.96 4.08537 -0.779122 0
M  V30 18735 H 1771.53 3.59633 0.985843 0
M  V30 18736 N 1773.72 0.287581 1.54954 0
M  V30 18737 C 1774.95 -0.331442 2.04735 0
M  V30 18738 C 1775.37 -1.47752 1.16409 0
M  V30 18739 O 1774.73 -1.80545 0.165297 0
M  V30 18740 C 1774.78 -0.778123 3.52105 0
M  V30 18741 O 1773.88 -1.88422 3.66839 0
M  V30 18742 H 1773.22 -0.0666173 0.66065 0
M  V30 18743 H 1775.75 0.425516 2.00126 0
M  V30 18744 H 1775.76 -1.07054 3.93705 0
M  V30 18745 H 1774.44 0.0603184 4.15856 0
M  V30 18746 H 1773.01 -1.59338 3.37144 0
M  V30 18747 N 1775.2 -1.57593 0.0150662 0
M  V30 18748 C 1776.61 -1.79146 -0.525709 0
M  V30 18749 C 1776.96 -0.923985 -1.73081 0
M  V30 18750 O 1776.09 -0.130532 -2.16006 0
M  V30 18751 C 1776.68 -3.249 -0.960492 0
M  V30 18752 C 1775.24 -3.47497 -1.44647 0
M  V30 18753 C 1774.39 -2.74332 -0.404628 0
M  V30 18754 H 1777.34 -1.56857 0.241175 0
M  V30 18755 H 1777.36 -3.3384 -1.82568 0
M  V30 18756 H 1776.87 -3.88011 -0.0832025 0
M  V30 18757 H 1774.97 -2.8962 -2.34416 0
M  V30 18758 H 1775.08 -4.56199 -1.46354 0
M  V30 18759 H 1773.45 -2.39394 -0.869627 0
M  V30 18760 H 1774.23 -3.40151 0.463953 0
M  V30 18761 N 1776.68 0.257904 -1.55475 0
M  V30 18762 C 1778.09 0.82782 -1.67344 0
M  V30 18763 C 1778.44 1.8646 -0.610494 0
M  V30 18764 O 1777.56 2.15005 0.245275 0
M  V30 18765 C 1778.16 1.5083 -3.03374 0
M  V30 18766 C 1776.72 2.02605 -3.17219 0
M  V30 18767 C 1775.86 0.873303 -2.63189 0
M  V30 18768 H 1778.82 0.0339334 -1.58664 0
M  V30 18769 H 1778.84 2.3759 -2.97205 0
M  V30 18770 H 1778.35 0.753469 -3.80716 0
M  V30 18771 H 1776.45 2.81002 -2.4468 0
M  V30 18772 H 1776.56 2.23099 -4.23985 0
M  V30 18773 H 1774.93 1.27082 -2.20731 0
M  V30 18774 H 1775.71 0.131739 -3.43047 0
M  V30 18775 N 1778.15 1.48666 0.52309 0
M  V30 18776 C 1779.38 1.60965 1.30787 0
M  V30 18777 C 1779.8 0.272663 1.86113 0
M  V30 18778 O 1779.16 -0.756662 1.64755 0
M  V30 18779 C 1779.21 2.66455 2.42969 0
M  V30 18780 O 1778.31 2.24094 3.46202 0
M  V30 18781 H 1777.66 0.539516 0.387064 0
M  V30 18782 H 1780.19 1.94702 0.628683 0
M  V30 18783 H 1780.2 2.87942 2.89056 0
M  V30 18784 H 1778.87 3.63516 2.02062 0
M  V30 18785 H 1777.45 2.12848 3.06186 0
M  V30 18786 N 1779.63 -0.772489 1.37369 0
M  V30 18787 C 1780.86 -1.56671 1.35901 0
M  V30 18788 C 1781.28 -1.88024 -0.0535538 0
M  V30 18789 O 1780.64 -1.49174 -1.03038 0
M  V30 18790 C 1780.69 -2.85417 2.20384 0
M  V30 18791 O 1779.79 -3.79761 1.60796 0
M  V30 18792 H 1779.13 -0.474596 0.464386 0
M  V30 18793 H 1781.66 -0.956162 1.80883 0
M  V30 18794 H 1781.67 -3.34527 2.33571 0
M  V30 18795 H 1780.35 -2.61926 3.2306 0
M  V30 18796 H 1778.93 -3.38403 1.56645 0
M  V30 18797 N 1781.11 -1.21927 -0.998575 0
M  V30 18798 C 1782.04 -1.00845 -2.106 0
M  V30 18799 C 1783.02 0.068733 -1.69961 0
M  V30 18800 O 1784.21 -0.0923686 -1.9398 0
M  V30 18801 C 1781.34 -0.57929 -3.42435 0
M  V30 18802 C 1780.29 -1.60177 -3.96897 0
M  V30 18803 C 1779.62 -1.02863 -5.24713 0
M  V30 18804 C 1780.92 -2.9903 -4.28227 0
M  V30 18805 H 1782.61 -1.93469 -2.28495 0
M  V30 18806 H 1780.16 -0.931612 -1.09804 0
M  V30 18807 H 1782.11 -0.418944 -4.19312 0
M  V30 18808 H 1780.83 0.382608 -3.24351 0
M  V30 18809 H 1779.49 -1.74979 -3.22146 0
M  V30 18810 H 1779.14 -0.058254 -5.02966 0
M  V30 18811 H 1778.84 -1.71166 -5.62117 0
M  V30 18812 H 1780.36 -0.879743 -6.04229 0
M  V30 18813 H 1781.78 -2.87634 -4.95923 0
M  V30 18814 H 1780.18 -3.64404 -4.76791 0
M  V30 18815 H 1781.25 -3.4939 -3.36236 0
M  V30 18816 N 1782.59 1.19452 -1.02805 0
M  V30 18817 C 1783.54 2.24684 -0.60165 0
M  V30 18818 C 1784.53 1.65414 0.365319 0
M  V30 18819 O 1785.74 1.78473 0.233988 0
M  V30 18820 H 1782.11 0.731043 -0.176296 0
M  V30 18821 H 1784.08 2.57967 -1.49985 0
M  V30 18822 C 1782.83 3.47685 0.0325515 0
M  V30 18823 H 1782.15 3.93579 -0.702532 0
M  V30 18824 H 1783.59 4.2298 0.29386 0
M  V30 18825 C 1782.05 3.11684 1.27887 0
M  V30 18826 O 1782.58 3.24262 2.37101 0
M  V30 18827 N 1780.79 2.66124 1.16731 0
M  V30 18828 H 1780.34 2.56089 0.278595 0
M  V30 18829 H 1780.29 2.42407 2.00215 0
M  V30 18830 N 1784.07 0.805805 1.35442 0
M  V30 18831 C 1785.01 0.213632 2.29809 0
M  V30 18832 C 1785.98 -0.651878 1.52774 0
M  V30 18833 O 1787.17 -0.597124 1.81216 0
M  V30 18834 C 1784.31 -0.632444 3.39255 0
M  V30 18835 C 1783.42 0.253414 4.31256 0
M  V30 18836 C 1782.56 -0.600593 5.27794 0
M  V30 18837 C 1781.6 0.285712 6.11433 0
M  V30 18838 N 1780.73 -0.528222 7.0011 0
M  V30 18839 H 1785.57 1.02378 2.79862 0
M  V30 18840 H 1783.11 0.516397 1.37738 0
M  V30 18841 H 1785.07 -1.13814 4.01376 0
M  V30 18842 H 1783.7 -1.40786 2.90481 0
M  V30 18843 H 1782.75 0.877202 3.70148 0
M  V30 18844 H 1784.06 0.935631 4.89946 0
M  V30 18845 H 1783.22 -1.17145 5.95283 0
M  V30 18846 H 1781.95 -1.31638 4.69598 0
M  V30 18847 H 1780.96 0.868843 5.42891 0
M  V30 18848 H 1782.18 0.999349 6.71707 0
M  V30 18849 H 1780.13 -1.228 6.44404 0
M  V30 18850 H 1780.05 0.0959658 7.55939 0
M  V30 18851 H 1781.32 -1.08238 7.71949 0
M  V30 18852 N 1785.54 -1.47344 0.559239 0
M  V30 18853 C 1786.49 -2.31735 -0.200368 0
M  V30 18854 C 1787.49 -1.43051 -0.907351 0
M  V30 18855 O 1788.69 -1.59804 -0.828406 0
M  V30 18856 H 1785.07 -0.747351 -0.0834871 0
M  V30 18857 H 1787.04 -2.93645 0.530556 0
M  V30 18858 C 1785.79 -3.25747 -1.2159 0
M  V30 18859 H 1785.11 -3.93952 -0.681314 0
M  V30 18860 H 1786.55 -3.87624 -1.71825 0
M  V30 18861 C 1785.01 -2.49414 -2.26482 0
M  V30 18862 O 1785.54 -2.24006 -3.33443 0
M  V30 18863 N 1783.75 -2.10387 -2.00464 0
M  V30 18864 H 1783.29 -2.3125 -1.13495 0
M  V30 18865 H 1783.25 -1.5963 -2.70861 0
M  V30 18866 N 1787.02 -0.295795 -1.54799 0
M  V30 18867 C 1787.97 0.598403 -2.24771 0
M  V30 18868 C 1788.96 1.14123 -1.25189 0
M  V30 18869 O 1790.17 1.09248 -1.43056 0
M  V30 18870 H 1786.55 0.21157 -0.721625 0
M  V30 18871 H 1788.52 -0.0143437 -2.98397 0
M  V30 18872 C 1787.27 1.76132 -2.99788 0
M  V30 18873 H 1786.59 1.35284 -3.76216 0
M  V30 18874 H 1788.03 2.36317 -3.52037 0
M  V30 18875 C 1786.49 2.6623 -2.06453 0
M  V30 18876 O 1787.02 3.67179 -1.62918 0
M  V30 18877 N 1785.22 2.3385 -1.72518 0
M  V30 18878 H 1784.77 1.51804 -2.08119 0
M  V30 18879 H 1784.73 2.944 -1.10344 0
M  V30 18880 N 1788.5 1.57583 -0.0234236 0
M  V30 18881 C 1789.73 1.96267 0.670371 0
M  V30 18882 C 1790.15 0.899586 1.65194 0
M  V30 18883 O 1789.51 -0.140079 1.80758 0
M  V30 18884 C 1789.56 3.34049 1.35806 0
M  V30 18885 O 1788.66 3.3001 2.4732 0
M  V30 18886 H 1788 0.640097 0.176557 0
M  V30 18887 H 1790.53 2.04429 -0.0835829 0
M  V30 18888 H 1790.54 3.70151 1.71616 0
M  V30 18889 H 1789.22 4.10969 0.63852 0
M  V30 18890 H 1787.79 3.05618 2.13664 0
M  V30 18891 N 1789.98 -0.249655 1.5561 0
M  V30 18892 C 1790.94 -1.29242 1.89286 0
M  V30 18893 C 1791.94 -1.41214 0.769104 0
M  V30 18894 O 1793.13 -1.39962 1.03712 0
M  V30 18895 C 1790.26 -2.67053 2.11885 0
M  V30 18896 H 1791.46 -1.00601 2.82523 0
M  V30 18897 H 1789.01 -0.488819 1.4846 0
M  V30 18898 H 1789.75 -3.00838 1.21107 0
M  V30 18899 H 1789.53 -2.59745 2.93726 0
M  V30 18900 H 1791.02 -3.42353 2.39132 0
M  V30 18901 N 1791.46 -1.48941 -0.515198 0
M  V30 18902 C 1792.71 -1.5696 -1.26674 0
M  V30 18903 C 1793.02 -0.255062 -1.9393 0
M  V30 18904 O 1794.23 -0.213645 -2.70658 0
M  V30 18905 C 1792.68 -2.76877 -2.29928 0
M  V30 18906 C 1792.29 -4.15033 -1.68676 0
M  V30 18907 C 1794.03 -2.94218 -3.06 0
M  V30 18908 C 1791.94 -5.26191 -2.69957 0
M  V30 18909 H 1790.87 -0.584377 -0.476465 0
M  V30 18910 H 1793.52 -1.75303 -0.542322 0
M  V30 18911 H 1791.9 -2.51999 -3.05471 0
M  V30 18912 H 1793.08 -4.49991 -0.992215 0
M  V30 18913 H 1791.39 -4.02932 -1.05045 0
M  V30 18914 H 1793.99 -3.74433 -3.81712 0
M  V30 18915 H 1794.33 -2.04235 -3.62759 0
M  V30 18916 H 1794.87 -3.19068 -2.37572 0
M  V30 18917 H 1791.6 -6.18189 -2.17998 0
M  V30 18918 H 1791.12 -4.95705 -3.37694 0
M  V30 18919 H 1792.8 -5.54929 -3.32659 0
M  V30 18920 N 1792.94 0.765193 -1.37777 0
M  V30 18921 C 1794.21 1.51374 -1.23876 0
M  V30 18922 C 1794.59 2.10455 0.164852 0
M  V30 18923 O 1793.94 1.96084 1.17318 0
M  V30 18924 C 1794.15 2.58939 -2.33991 0
M  V30 18925 C 1795.5 3.26162 -2.71852 0
M  V30 18926 O 1796.52 2.69238 -2.33216 0
M  V30 18927 O 1795.38 4.29094 -3.38438 0
M  V30 18928 H 1792.48 0.670749 -0.48376 0
M  V30 18929 H 1795.02 0.801597 -1.49574 0
M  V30 18930 H 1793.79 2.13448 -3.27957 0
M  V30 18931 H 1793.42 3.37747 -2.09793 0
M  V30 18932 N 1794.41 1.22455 0.992094 0
M  V30 18933 C 1795.64 1.07677 1.77258 0
M  V30 18934 C 1796.06 -0.368377 1.84458 0
M  V30 18935 O 1795.42 -1.26614 1.29763 0
M  V30 18936 C 1795.47 1.69353 3.18358 0
M  V30 18937 O 1794.57 0.947746 4.01362 0
M  V30 18938 H 1793.91 0.378141 0.545807 0
M  V30 18939 H 1796.44 1.62269 1.2462 0
M  V30 18940 H 1796.45 1.7411 3.68985 0
M  V30 18941 H 1795.13 2.74515 3.12433 0
M  V30 18942 H 1793.71 0.976245 3.59894 0
M  V30 18943 N 1795.89 -1.18905 1.03437 0
M  V30 18944 C 1797.14 -1.88354 0.732598 0
M  V30 18945 C 1797.46 -1.80353 -0.741474 0
M  V30 18946 O 1796.73 -1.21764 -1.53461 0
M  V30 18947 H 1795.31 -0.697272 0.267995 0
M  V30 18948 H 1797.97 -1.44329 1.30978 0
M  V30 18949 H 1797.07 -2.94551 1.03181 0
M  V30 18950 N 1797.37 -0.812977 -1.35013 0
M  V30 18951 C 1798.62 -0.392801 -1.97838 0
M  V30 18952 C 1798.93 1.04728 -1.65201 0
M  V30 18953 O 1800.14 1.57088 -2.2144 0
M  V30 18954 C 1798.59 -0.651399 -3.53956 0
M  V30 18955 C 1798.2 -2.10444 -3.95496 0
M  V30 18956 C 1799.95 -0.296897 -4.2346 0
M  V30 18957 C 1797.85 -2.30845 -5.44485 0
M  V30 18958 H 1796.78 -0.143138 -0.740289 0
M  V30 18959 H 1799.43 -0.997933 -1.53992 0
M  V30 18960 H 1797.82 0.0237698 -3.95993 0
M  V30 18961 H 1798.99 -2.81795 -3.64593 0
M  V30 18962 H 1797.3 -2.41942 -3.389 0
M  V30 18963 H 1799.9 -0.427291 -5.3299 0
M  V30 18964 H 1800.24 0.757594 -4.09349 0
M  V30 18965 H 1800.78 -0.92624 -3.86866 0
M  V30 18966 H 1797.52 -3.34763 -5.63572 0
M  V30 18967 H 1797.04 -1.64027 -5.76936 0
M  V30 18968 H 1798.72 -2.12712 -6.11034 0
M  V30 18969 N 1798.85 1.47045 -0.567045 0
M  V30 18970 C 1799.8 2.31838 0.188075 0
M  V30 18971 C 1800.79 1.4353 0.899752 0
M  V30 18972 O 1802 1.60241 0.81992 0
M  V30 18973 H 1798.37 0.747783 0.0795226 0
M  V30 18974 H 1800.34 2.9336 -0.546121 0
M  V30 18975 C 1799.09 3.26387 1.19861 0
M  V30 18976 H 1798.41 3.94308 0.660412 0
M  V30 18977 H 1799.85 3.8853 1.69767 0
M  V30 18978 C 1798.31 2.50612 2.25157 0
M  V30 18979 O 1798.84 2.25771 3.3225 0
M  V30 18980 N 1797.05 2.11447 1.99345 0
M  V30 18981 H 1796.6 2.31849 1.12267 0
M  V30 18982 H 1796.55 1.61064 2.7001 0
M  V30 18983 N 1800.33 0.304 1.5464 0
M  V30 18984 C 1801.26 -0.563854 2.2659 0
M  V30 18985 C 1802.24 -1.13547 1.26653 0
M  V30 18986 O 1803.42 -1.16425 1.55431 0
M  V30 18987 C 1800.55 -1.73437 3.00894 0
M  V30 18988 C 1799.51 -1.29297 4.08003 0
M  V30 18989 C 1798.83 -2.54888 4.70038 0
M  V30 18990 C 1800.13 -0.422027 5.20592 0
M  V30 18991 H 1801.83 0.0362569 2.99378 0
M  V30 18992 H 1799.37 0.0188781 1.43988 0
M  V30 18993 H 1801.32 -2.34762 3.4995 0
M  V30 18994 H 1800.05 -2.36076 2.25689 0
M  V30 18995 H 1798.71 -0.702757 3.59801 0
M  V30 18996 H 1798.36 -3.15848 3.9147 0
M  V30 18997 H 1798.06 -2.26054 5.42378 0
M  V30 18998 H 1799.58 -3.17011 5.21859 0
M  V30 18999 H 1800.99 -0.941036 5.65524 0
M  V30 19000 H 1799.39 -0.227323 5.99669 0
M  V30 19001 H 1800.46 0.55212 4.81746 0
M  V30 19002 N 1801.8 -1.57568 0.0317802 0
M  V30 19003 C 1803.03 -1.96212 -0.656401 0
M  V30 19004 C 1803.45 -0.908406 -1.6551 0
M  V30 19005 O 1802.8 0.109502 -1.82171 0
M  V30 19006 C 1802.85 -3.34924 -1.36044 0
M  V30 19007 O 1802.58 -4.36254 -0.401757 0
M  V30 19008 C 1804.08 -3.88215 -2.14019 0
M  V30 19009 H 1801.3 -0.646181 -0.180808 0
M  V30 19010 H 1803.84 -2.04291 0.0923341 0
M  V30 19011 H 1802 -3.28055 -2.06055 0
M  V30 19012 H 1802.41 -5.16686 -0.902005 0
M  V30 19013 H 1803.88 -4.87609 -2.5873 0
M  V30 19014 H 1804.36 -3.22602 -2.98034 0
M  V30 19015 H 1804.97 -3.98361 -1.4896 0
M  V30 19016 N 1803.28 0.241399 -1.5574 0
M  V30 19017 C 1804.51 0.986075 -1.81891 0
M  V30 19018 C 1804.93 1.78734 -0.608254 0
M  V30 19019 O 1804.28 1.77527 0.423129 0
M  V30 19020 C 1804.33 1.91956 -3.06325 0
M  V30 19021 O 1804.05 1.15071 -4.22718 0
M  V30 19022 C 1805.56 2.77977 -3.45317 0
M  V30 19023 H 1802.78 0.289913 -0.605137 0
M  V30 19024 H 1805.32 0.262622 -2.02807 0
M  V30 19025 H 1803.47 2.59721 -2.87443 0
M  V30 19026 H 1803.89 1.78261 -4.93278 0
M  V30 19027 H 1805.36 3.39215 -4.35474 0
M  V30 19028 H 1805.84 3.49369 -2.66154 0
M  V30 19029 H 1806.45 2.15655 -3.66569 0
M  V30 19030 N 1804.76 1.49212 0.507292 0
M  V30 19031 C 1806.04 1.4888 1.26863 0
M  V30 19032 C 1806.42 0.213007 2.10023 0
M  V30 19033 O 1805.77 -0.804785 2.13858 0
M  V30 19034 C 1805.98 2.76407 2.13073 0
M  V30 19035 C 1807.32 3.25647 2.72468 0
M  V30 19036 O 1808.35 2.77481 2.23344 0
M  V30 19037 O 1807.21 4.09518 3.6188 0
M  V30 19038 H 1804.3 0.595597 0.573754 0
M  V30 19039 H 1806.85 1.6147 0.52208 0
M  V30 19040 H 1805.62 3.60758 1.51558 0
M  V30 19041 H 1805.24 2.66648 2.94932 0
M  V30 19042 N 1806.24 -0.757876 1.38181 0
M  V30 19043 C 1807.47 -1.54709 1.37378 0
M  V30 19044 C 1807.88 -1.88763 -0.0375087 0
M  V30 19045 O 1807.24 -1.52467 -1.00299 0
M  V30 19046 C 1807.29 -2.84887 2.22535 0
M  V30 19047 O 1807.01 -2.52287 3.58166 0
M  V30 19048 C 1808.51 -3.79048 2.29865 0
M  V30 19049 H 1805.73 -0.478845 0.470052 0
M  V30 19050 H 1808.28 -0.938283 1.81704 0
M  V30 19051 H 1806.43 -3.42156 1.81682 0
M  V30 19052 H 1806.84 -3.35747 4.02957 0
M  V30 19053 H 1808.32 -4.67353 2.93744 0
M  V30 19054 H 1808.8 -4.19175 1.31106 0
M  V30 19055 H 1809.4 -3.27704 2.7109 0
M  V30 19056 N 1807.72 -1.22979 -0.985586 0
M  V30 19057 C 1808.94 -1.08615 -1.76685 0
M  V30 19058 C 1809.37 0.35859 -1.8465 0
M  V30 19059 O 1808.72 1.25924 -1.30433 0
M  V30 19060 C 1808.77 -1.71039 -3.17456 0
M  V30 19061 O 1807.88 -0.969018 -4.00854 0
M  V30 19062 H 1807.22 -0.38103 -0.543794 0
M  V30 19063 H 1809.75 -1.62927 -1.23757 0
M  V30 19064 H 1809.76 -1.76064 -3.68056 0
M  V30 19065 H 1808.43 -2.76168 -3.10973 0
M  V30 19066 H 1807.01 -0.995318 -3.59371 0
M  V30 19067 N 1809.19 1.18355 -1.04066 0
M  V30 19068 C 1810.14 2.21987 -0.631714 0
M  V30 19069 C 1811.11 1.62142 0.360462 0
M  V30 19070 O 1812.3 1.89096 0.254445 0
M  V30 19071 C 1809.44 3.451 -0.000843566 0
M  V30 19072 C 1808.55 4.19283 -1.04048 0
M  V30 19073 C 1807.68 5.29852 -0.37813 0
M  V30 19074 C 1806.72 5.95807 -1.40287 0
M  V30 19075 N 1805.86 6.97915 -0.765481 0
M  V30 19076 H 1810.7 2.56323 -1.51995 0
M  V30 19077 H 1808.24 1.25923 -0.760384 0
M  V30 19078 H 1810.2 4.15445 0.382267 0
M  V30 19079 H 1808.83 3.11383 0.850911 0
M  V30 19080 H 1807.88 3.47765 -1.54154 0
M  V30 19081 H 1809.19 4.64457 -1.81882 0
M  V30 19082 H 1808.34 6.06671 0.059186 0
M  V30 19083 H 1807.08 4.8578 0.432293 0
M  V30 19084 H 1806.09 5.17729 -1.85032 0
M  V30 19085 H 1807.31 6.41962 -2.21499 0
M  V30 19086 H 1805.26 6.55995 0.0246364 0
M  V30 19087 H 1805.18 7.41341 -1.48152 0
M  V30 19088 H 1806.44 7.78702 -0.35256 0
M  V30 19089 N 1810.67 0.820125 1.3458 0
M  V30 19090 C 1811.9 0.418747 2.03129 0
M  V30 19091 C 1812.32 -0.966605 1.61364 0
M  V30 19092 O 1811.68 -1.62847 0.796903 0
M  V30 19093 C 1811.73 0.525681 3.56748 0
M  V30 19094 O 1810.83 -0.455592 4.09876 0
M  V30 19095 H 1810.17 0.172819 0.641116 0
M  V30 19096 H 1812.7 1.10977 1.71888 0
M  V30 19097 H 1812.71 0.400422 4.0603 0
M  V30 19098 H 1811.39 1.53609 3.86493 0
M  V30 19099 H 1809.97 -0.289449 3.71775 0
M  V30 19100 N 1812.15 -1.46743 0.574835 0
M  V30 19101 C 1813.11 -2.28691 -0.152633 0
M  V30 19102 C 1814.11 -1.37949 -0.826238 0
M  V30 19103 O 1815.3 -1.60405 -0.679398 0
M  V30 19104 C 1812.44 -3.1812 -1.22525 0
M  V30 19105 H 1813.63 -2.94483 0.567439 0
M  V30 19106 H 1811.18 -1.52723 0.33248 0
M  V30 19107 H 1811.92 -2.57058 -1.97716 0
M  V30 19108 H 1811.7 -3.84922 -0.746841 0
M  V30 19109 H 1813.19 -3.7982 -1.7357 0
M  V30 19110 N 1813.63 -0.312197 -1.54477 0
M  V30 19111 C 1814.86 0.296061 -2.04771 0
M  V30 19112 C 1815.27 1.46662 -1.18894 0
M  V30 19113 O 1814.63 1.81205 -0.217043 0
M  V30 19114 C 1814.68 0.74151 -3.53813 0
M  V30 19115 O 1814.4 -0.382471 -4.36427 0
M  V30 19116 C 1815.9 1.41376 -4.20152 0
M  V30 19117 H 1813.12 0.062705 -0.668064 0
M  V30 19118 H 1815.67 -0.455083 -1.99372 0
M  V30 19119 H 1813.82 1.44265 -3.59536 0
M  V30 19120 H 1814.23 -0.0336382 -5.24489 0
M  V30 19121 H 1815.71 1.67649 -5.25926 0
M  V30 19122 H 1816.19 2.35743 -3.7057 0
M  V30 19123 H 1816.79 0.755498 -4.18536 0
M  V30 19124 N 1815.11 1.57549 -0.040136 0
M  V30 19125 C 1816.33 1.96967 0.649517 0
M  V30 19126 C 1816.76 0.917056 1.64231 0
M  V30 19127 O 1816.11 -0.120899 1.80896 0
M  V30 19128 C 1816.16 3.35471 1.32256 0
M  V30 19129 O 1815.27 3.32615 2.43806 0
M  V30 19130 H 1814.61 0.641933 0.169758 0
M  V30 19131 H 1817.14 2.04329 -0.105261 0
M  V30 19132 H 1817.15 3.71951 1.6768 0
M  V30 19133 H 1815.82 4.11623 0.594895 0
M  V30 19134 H 1814.4 3.07867 2.10411 0
M  V30 19135 N 1816.58 -0.233136 1.55866 0
M  V30 19136 C 1817.81 -0.980602 1.82754 0
M  V30 19137 C 1818.23 -1.77624 0.618988 0
M  V30 19138 O 1817.59 -1.76074 -0.432148 0
M  V30 19139 C 1817.64 -1.88319 3.07519 0
M  V30 19140 O 1816.74 -2.97692 2.85401 0
M  V30 19141 H 1816.09 -0.278295 0.602867 0
M  V30 19142 H 1818.62 -0.249956 2.03067 0
M  V30 19143 H 1818.63 -2.29523 3.37318 0
M  V30 19144 H 1817.3 -1.29831 3.95116 0
M  V30 19145 H 1815.88 -2.60517 2.66805 0
M  V30 19146 N 1818.06 -1.49479 -0.499372 0
M  V30 19147 C 1819.29 -1.63025 -1.28209 0
M  V30 19148 C 1819.71 -0.302238 -1.85656 0
M  V30 19149 O 1819.07 0.730355 -1.65938 0
M  V30 19150 C 1819.12 -2.70287 -2.38699 0
M  V30 19151 O 1818.22 -2.29573 -3.42593 0
M  V30 19152 H 1817.56 -0.545605 -0.378432 0
M  V30 19153 H 1820.09 -1.95677 -0.597628 0
M  V30 19154 H 1820.1 -2.92505 -2.84438 0
M  V30 19155 H 1818.78 -3.66684 -1.96253 0
M  V30 19156 H 1817.36 -2.17692 -3.02761 0
M  V30 19157 N 1819.54 0.750537 -1.38581 0
M  V30 19158 C 1820.95 1.32802 -1.31227 0
M  V30 19159 C 1821.3 1.96176 0.0305372 0
M  V30 19160 O 1820.43 1.95272 0.932614 0
M  V30 19161 C 1821.02 2.41468 -2.37652 0
M  V30 19162 C 1819.58 2.94929 -2.33867 0
M  V30 19163 C 1818.73 1.68339 -2.20357 0
M  V30 19164 H 1821.68 0.549187 -1.48895 0
M  V30 19165 H 1821.7 3.21481 -2.03544 0
M  V30 19166 H 1821.21 1.95313 -3.35372 0
M  V30 19167 H 1819.31 3.45404 -1.39738 0
M  V30 19168 H 1819.43 3.491 -3.28125 0
M  V30 19169 H 1817.79 1.92082 -1.67262 0
M  V30 19170 H 1818.57 1.24258 -3.20023 0
M  V30 19171 N 1821.02 1.235 0.979051 0
M  V30 19172 C 1822.27 1.0658 1.71713 0
M  V30 19173 C 1822.59 -0.397927 1.90897 0
M  V30 19174 O 1821.86 -1.28511 1.47857 0
M  V30 19175 H 1820.44 0.391397 0.636253 0
M  V30 19176 H 1823.1 1.55239 1.17843 0
M  V30 19177 H 1822.2 1.5548 2.70615 0
M  V30 19178 N 1822.5 -1.17802 1.04693 0
M  V30 19179 C 1823.72 -1.92408 0.774194 0
M  V30 19180 C 1824.15 -1.76012 -0.663424 0
M  V30 19181 O 1823.51 -1.07447 -1.4603 0
M  V30 19182 C 1823.55 -3.4166 1.1533 0
M  V30 19183 O 1822.66 -4.11431 0.282469 0
M  V30 19184 H 1822 -0.600033 0.284353 0
M  V30 19185 H 1824.53 -1.49348 1.39844 0
M  V30 19186 H 1824.54 -3.92386 1.11791 0
M  V30 19187 H 1823.21 -3.52914 2.20056 0
M  V30 19188 H 1821.79 -3.70979 0.378021 0
M  V30 19189 N 1823.98 -0.827251 -1.34143 0
M  V30 19190 C 1825.39 -0.475645 -1.80539 0
M  V30 19191 C 1825.74 1.00435 -1.68545 0
M  V30 19192 O 1824.86 1.78186 -1.22795 0
M  V30 19193 C 1825.46 -0.856588 -3.27793 0
M  V30 19194 C 1824.02 -0.557289 -3.72252 0
M  V30 19195 C 1823.16 -1.07118 -2.55775 0
M  V30 19196 H 1826.11 -1.01703 -1.21829 0
M  V30 19197 H 1826.14 -0.162059 -3.80155 0
M  V30 19198 H 1825.65 -1.93379 -3.36491 0
M  V30 19199 H 1823.75 0.510328 -3.69089 0
M  V30 19200 H 1823.86 -1.10438 -4.66198 0
M  V30 19201 H 1822.23 -0.492534 -2.49892 0
M  V30 19202 H 1823.01 -2.15492 -2.67242 0
M  V30 19203 N 1825.45 1.46436 -0.582609 0
M  V30 19204 C 1826.7 2.01592 -0.0658642 0
M  V30 19205 C 1827.02 1.45972 1.30198 0
M  V30 19206 O 1828.22 1.92948 1.91006 0
M  V30 19207 C 1826.68 3.59837 -0.0671547 0
M  V30 19208 C 1826.29 4.24453 -1.43331 0
M  V30 19209 C 1828.03 4.22652 0.395652 0
M  V30 19210 C 1825.94 5.74777 -1.39233 0
M  V30 19211 H 1824.87 0.753712 -0.0208533 0
M  V30 19212 H 1827.52 1.6817 -0.734241 0
M  V30 19213 H 1825.9 3.90336 0.667385 0
M  V30 19214 H 1827.07 4.05564 -2.18757 0
M  V30 19215 H 1825.39 3.73732 -1.83613 0
M  V30 19216 H 1827.99 5.32844 0.445101 0
M  V30 19217 H 1828.33 3.91581 1.41316 0
M  V30 19218 H 1828.86 3.96779 -0.284821 0
M  V30 19219 H 1825.6 6.10508 -2.38664 0
M  V30 19220 H 1825.12 5.9593 -0.680268 0
M  V30 19221 H 1826.8 6.37491 -1.1052 0
M  V30 19222 N 1826.93 0.320385 1.54309 0
M  V30 19223 C 1827.88 -0.562498 2.20952 0
M  V30 19224 C 1828.87 -1.08408 1.18897 0
M  V30 19225 O 1830.06 -1.02163 1.4454 0
M  V30 19226 C 1827.19 -1.72448 2.96845 0
M  V30 19227 C 1826.27 -1.21794 4.06235 0
M  V30 19228 N 1826.66 -0.43084 5.03962 0
M  V30 19229 C 1824.96 -1.49695 4.20128 0
M  V30 19230 C 1825.66 -0.158687 5.81484 0
M  V30 19231 N 1824.64 -0.74393 5.38486 0
M  V30 19232 H 1828.44 0.0461894 2.93864 0
M  V30 19233 H 1825.95 0.126085 1.6191 0
M  V30 19234 H 1827.95 -2.36871 3.43071 0
M  V30 19235 H 1826.61 -2.33667 2.25455 0
M  V30 19236 H 1827.62 -0.0739708 5.17847 0
M  V30 19237 H 1824.3 -2.11522 3.59951 0
M  V30 19238 H 1825.69 0.47475 6.70221 0
M  V30 19239 N 1828.41 -1.57525 0.0484906 0
M  V30 19240 C 1829.63 -1.97309 -0.639062 0
M  V30 19241 C 1830.06 -0.925753 -1.63742 0
M  V30 19242 O 1829.42 0.111304 -1.80958 0
M  V30 19243 C 1829.47 -3.36168 -1.30475 0
M  V30 19244 O 1828.57 -3.33903 -2.42038 0
M  V30 19245 H 1827.91 -0.642824 -0.166351 0
M  V30 19246 H 1830.44 -2.0427 0.116095 0
M  V30 19247 H 1830.45 -3.72835 -1.65705 0
M  V30 19248 H 1829.13 -4.11933 -0.573057 0
M  V30 19249 H 1827.7 -3.08978 -2.08775 0
M  V30 19250 N 1829.89 0.224867 -1.55988 0
M  V30 19251 C 1830.82 1.28192 -1.95164 0
M  V30 19252 C 1831.8 1.49062 -0.81942 0
M  V30 19253 O 1832.98 1.61301 -1.08146 0
M  V30 19254 C 1830.11 2.63237 -2.26547 0
M  V30 19255 C 1829.07 2.57029 -3.42228 0
M  V30 19256 C 1828.39 3.96073 -3.59207 0
M  V30 19257 C 1829.69 2.12101 -4.77295 0
M  V30 19258 H 1831.39 0.956495 -2.8371 0
M  V30 19259 H 1828.93 0.458673 -1.365 0
M  V30 19260 H 1830.89 3.37341 -2.52545 0
M  V30 19261 H 1829.61 2.97461 -1.3485 0
M  V30 19262 H 1828.27 1.85382 -3.16273 0
M  V30 19263 H 1827.92 4.27599 -2.64892 0
M  V30 19264 H 1827.62 3.92802 -4.37013 0
M  V30 19265 H 1829.14 4.71844 -3.8755 0
M  V30 19266 H 1830.56 2.75946 -5.0252 0
M  V30 19267 H 1828.95 2.19895 -5.5836 0
M  V30 19268 H 1830.02 1.07319 -4.72875 0
M  V30 19269 N 1831.37 1.49742 0.491438 0
M  V30 19270 C 1832.28 1.69866 1.6181 0
M  V30 19271 C 1833.29 0.581386 1.64 0
M  V30 19272 O 1834.47 0.857263 1.82244 0
M  V30 19273 C 1831.53 1.76965 2.98135 0
M  V30 19274 C 1830.59 3.00597 3.06496 0
M  V30 19275 C 1829.83 3.07348 4.36317 0
M  V30 19276 O 1830.05 2.21432 5.25665 0
M  V30 19277 O 1828.98 3.99898 4.4985 0
M  V30 19278 H 1832.81 2.65332 1.47759 0
M  V30 19279 H 1830.39 1.33596 0.668761 0
M  V30 19280 H 1832.28 1.83932 3.7914 0
M  V30 19281 H 1830.95 0.846807 3.12427 0
M  V30 19282 H 1829.86 2.99142 2.24643 0
M  V30 19283 H 1831.19 3.92393 2.97133 0
M  V30 19284 N 1832.84 -0.743177 1.38977 0
M  V30 19285 C 1834.07 -1.53243 1.39011 0
M  V30 19286 C 1834.49 -1.88792 -0.0174858 0
M  V30 19287 O 1833.84 -1.53523 -0.986766 0
M  V30 19288 C 1833.9 -2.8251 2.25544 0
M  V30 19289 O 1833.62 -2.48474 3.60821 0
M  V30 19290 C 1835.12 -3.76588 2.33872 0
M  V30 19291 H 1832.34 -0.473832 0.475104 0
M  V30 19292 H 1834.88 -0.918958 1.82689 0
M  V30 19293 H 1833.04 -3.4021 1.853 0
M  V30 19294 H 1833.45 -3.31454 4.06495 0
M  V30 19295 H 1834.92 -4.64211 2.98684 0
M  V30 19296 H 1835.4 -4.17761 1.35544 0
M  V30 19297 H 1836.01 -3.24811 2.74551 0
M  V30 19298 N 1834.32 -1.24018 -0.972487 0
M  V30 19299 C 1835.55 -1.10483 -1.75523 0
M  V30 19300 C 1835.97 0.338985 -1.8502 0
M  V30 19301 O 1835.33 1.24534 -1.31761 0
M  V30 19302 C 1835.38 -1.74396 -3.15624 0
M  V30 19303 O 1834.48 -1.01148 -3.99804 0
M  V30 19304 H 1833.82 -0.386777 -0.539722 0
M  V30 19305 H 1836.35 -1.64231 -1.22022 0
M  V30 19306 H 1836.36 -1.79958 -3.66168 0
M  V30 19307 H 1835.04 -2.7945 -3.08026 0
M  V30 19308 H 1833.62 -1.03338 -3.58296 0
M  V30 19309 N 1835.8 1.17245 -1.05316 0
M  V30 19310 C 1836.73 2.23491 -0.67631 0
M  V30 19311 C 1837.71 1.66937 0.326507 0
M  V30 19312 O 1838.9 1.93127 0.203823 0
M  V30 19313 C 1836.03 3.47262 -0.0515755 0
M  V30 19314 C 1834.98 4.16646 -0.97929 0
M  V30 19315 C 1834.31 5.34254 -0.218369 0
M  V30 19316 C 1835.61 4.68736 -2.30399 0
M  V30 19317 H 1837.3 2.55269 -1.56455 0
M  V30 19318 H 1834.85 1.22699 -0.753714 0
M  V30 19319 H 1836.8 4.20805 0.223865 0
M  V30 19320 H 1835.52 3.14755 0.871614 0
M  V30 19321 H 1834.18 3.45017 -1.23931 0
M  V30 19322 H 1833.83 4.97998 0.707624 0
M  V30 19323 H 1833.53 5.81615 -0.83654 0
M  V30 19324 H 1835.05 6.1058 0.0497574 0
M  V30 19325 H 1836.47 5.3391 -2.08837 0
M  V30 19326 H 1834.87 5.2668 -2.87625 0
M  V30 19327 H 1835.94 3.85477 -2.94169 0
M  V30 19328 O 1837.32 0.969189 1.29186 0
M  V30 19329 H 1838.01 0.608667 1.83888 0
M  V30 END ATOM
M  V30 BEGIN BOND
M  V30 END BOND
M  V30 END CTAB
M  END
$$$$
